# generated using pymatgen
data_Ca2OsN3
_symmetry_space_group_name_H-M   'P 1'
_cell_length_a   6.07751997
_cell_length_b   10.80390224
_cell_length_c   12.04670500
_cell_angle_alpha   90.00000000
_cell_angle_beta   90.00000000
_cell_angle_gamma   27.27199430
_symmetry_Int_Tables_number   1
_chemical_formula_structural   Ca2OsN3
_chemical_formula_sum   'Ca8 Os4 N12'
_cell_volume   362.44720979
_cell_formula_units_Z   4
loop_
 _symmetry_equiv_pos_site_id
 _symmetry_equiv_pos_as_xyz
  1  'x, y, z'
loop_
 _atom_site_type_symbol
 _atom_site_label
 _atom_site_symmetry_multiplicity
 _atom_site_fract_x
 _atom_site_fract_y
 _atom_site_fract_z
 _atom_site_occupancy
  Ca  Ca0  1  0.00000000  0.45147900  0.64052000  1
  Ca  Ca1  1  0.00000000  0.54852100  0.35948000  1
  Ca  Ca2  1  0.00000000  0.04852100  0.14052000  1
  Ca  Ca3  1  0.00000000  0.95147900  0.85948000  1
  Ca  Ca4  1  0.00000000  0.13747000  0.57627100  1
  Ca  Ca5  1  0.00000000  0.86253000  0.42372900  1
  Ca  Ca6  1  0.00000000  0.36253000  0.07627100  1
  Ca  Ca7  1  0.00000000  0.63747000  0.92372900  1
  Os  Os0  1  0.00000000  0.25536800  0.84469600  1
  Os  Os1  1  0.00000000  0.74463300  0.15530400  1
  Os  Os2  1  0.00000000  0.24463300  0.34469600  1
  Os  Os3  1  0.00000000  0.75536700  0.65530400  1
  N  N0  1  0.00000000  0.15414900  0.97260400  1
  N  N1  1  0.00000000  0.84585100  0.02739600  1
  N  N2  1  0.00000000  0.34585100  0.47260400  1
  N  N3  1  0.00000000  0.65414900  0.52739600  1
  N  N4  1  0.00000000  0.43021100  0.86508800  1
  N  N5  1  0.00000000  0.56978900  0.13491200  1
  N  N6  1  0.00000000  0.06978900  0.36508800  1
  N  N7  1  0.00000000  0.93021100  0.63491200  1
  N  N8  1  0.50000000  0.45547600  0.75000000  1
  N  N9  1  0.50000000  0.04452400  0.25000000  1
  N  N10  1  0.50000000  0.54452400  0.25000000  1
  N  N11  1  0.50000000  0.95547600  0.75000000  1
loop_
_geom_bond_atom_site_label_1
_geom_bond_atom_site_label_2
_geom_bond_distance
_geom_bond_site_symmetry_2
Ca0 N2 2.322538 1_555
Ca0 N3 2.579072 1_555
Ca0 N4 2.715045 1_555
Ca0 N7 2.795092 1_455
Ca0 N7 2.795092 1_645
Ca1 N3 2.322538 1_555
Ca1 N2 2.579072 1_555
Ca1 N5 2.715045 1_555
Ca1 N6 2.795092 1_655
Ca1 N6 2.795092 1_465
Ca2 N0 2.322538 1_554
Ca2 N1 2.579072 1_545
Ca2 N6 2.715045 1_555
Ca2 N5 2.795092 1_645
Ca2 N5 2.795092 1_455
Ca3 N1 2.322538 1_556
Ca3 N0 2.579072 1_565
Ca3 N7 2.715045 1_555
Ca3 N4 2.795092 1_465
Ca3 N4 2.795092 1_655
Ca4 N7 2.347997 1_545
Ca4 N2 2.574508 1_555
Ca4 N11 2.618911 1_545
Ca4 N8 2.618911 1_455
Ca4 N6 2.647059 1_555
Ca4 N3 2.852072 1_645
Ca4 N3 2.852072 1_455
Ca5 N6 2.347997 1_565
Ca5 N3 2.574508 1_555
Ca5 N9 2.618911 1_465
Ca5 N10 2.618911 1_555
Ca5 N7 2.647059 1_555
Ca5 N2 2.852072 1_465
Ca5 N2 2.852072 1_655
Ca6 N5 2.347997 1_555
Ca6 N0 2.574508 1_554
Ca6 N10 2.618911 1_455
Ca6 N9 2.618911 1_555
Ca6 N4 2.647059 1_554
Ca6 N1 2.852072 1_455
Ca6 N1 2.852072 1_645
Ca7 N4 2.347997 1_555
Ca7 N1 2.574508 1_556
Ca7 N8 2.618911 1_555
Ca7 N11 2.618911 1_455
Ca7 N5 2.647059 1_556
Ca7 N0 2.852072 1_655
Ca7 N0 2.852072 1_465
N0 Os0 1.889485 1_555
N1 Os1 1.889479 1_555
N2 Os2 1.889479 1_555
N3 Os3 1.889479 1_555
N4 Os0 1.904893 1_555
N5 Os1 1.904904 1_555
N6 Os2 1.904904 1_555
N7 Os3 1.904904 1_555
N8 Os3 1.879016 1_555
N8 Os0 1.879019 1_655
N9 Os2 1.879016 1_555
N9 Os1 1.879016 1_645
N10 Os1 1.879016 1_555
N10 Os2 1.879016 1_655
N11 Os3 1.879016 1_655
N11 Os0 1.879019 1_565
