# generated using pymatgen
data_Sr3Mn2O12
_symmetry_space_group_name_H-M   'P 1'
_cell_length_a   11.11277736
_cell_length_b   11.11277736
_cell_length_c   11.11277736
_cell_angle_alpha   109.47122063
_cell_angle_beta   109.47122063
_cell_angle_gamma   109.47122063
_symmetry_Int_Tables_number   1
_chemical_formula_structural   Sr3Mn2O12
_chemical_formula_sum   'Sr12 Mn8 O48'
_cell_volume   1056.44270795
_cell_formula_units_Z   4
loop_
 _symmetry_equiv_pos_site_id
 _symmetry_equiv_pos_as_xyz
  1  'x, y, z'
loop_
 _atom_site_type_symbol
 _atom_site_label
 _atom_site_symmetry_multiplicity
 _atom_site_fract_x
 _atom_site_fract_y
 _atom_site_fract_z
 _atom_site_occupancy
  Sr  Sr0  1  0.25000000  0.37500000  0.12500000  1
  Sr  Sr1  1  0.75000000  0.62500000  0.87500000  1
  Sr  Sr2  1  0.75000000  0.12500000  0.37500000  1
  Sr  Sr3  1  0.12500000  0.25000000  0.37500000  1
  Sr  Sr4  1  0.37500000  0.75000000  0.12500000  1
  Sr  Sr5  1  0.25000000  0.87500000  0.62500000  1
  Sr  Sr6  1  0.87500000  0.75000000  0.62500000  1
  Sr  Sr7  1  0.62500000  0.25000000  0.87500000  1
  Sr  Sr8  1  0.37500000  0.12500000  0.25000000  1
  Sr  Sr9  1  0.62500000  0.87500000  0.75000000  1
  Sr  Sr10  1  0.12500000  0.37500000  0.75000000  1
  Sr  Sr11  1  0.87500000  0.62500000  0.25000000  1
  Mn  Mn0  1  0.00000000  0.00000000  0.00000000  1
  Mn  Mn1  1  0.50000000  0.00000000  0.50000000  1
  Mn  Mn2  1  0.00000000  0.50000000  0.50000000  1
  Mn  Mn3  1  0.50000000  0.00000000  0.00000000  1
  Mn  Mn4  1  0.50000000  0.50000000  0.00000000  1
  Mn  Mn5  1  0.50000000  0.50000000  0.50000000  1
  Mn  Mn6  1  0.00000000  0.00000000  0.50000000  1
  Mn  Mn7  1  0.00000000  0.50000000  0.00000000  1
  O  O0  1  0.47783900  0.39922100  0.32065100  1
  O  O1  1  0.52216100  0.60077900  0.67934900  1
  O  O2  1  0.57857000  0.15718800  0.17934900  1
  O  O3  1  0.92143000  0.10077900  0.57861800  1
  O  O4  1  0.32065100  0.47783900  0.39922100  1
  O  O5  1  0.34281200  0.92143000  0.32065100  1
  O  O6  1  0.42143000  0.84281200  0.82065100  1
  O  O7  1  0.07857000  0.89922100  0.42138200  1
  O  O8  1  0.67934900  0.52216100  0.60077900  1
  O  O9  1  0.65718800  0.07857000  0.67934900  1
  O  O10  1  0.02216100  0.34281200  0.92138200  1
  O  O11  1  0.17934900  0.57857000  0.15718800  1
  O  O12  1  0.10077900  0.02216100  0.17934900  1
  O  O13  1  0.97783900  0.65718800  0.07861800  1
  O  O14  1  0.82065100  0.42143000  0.84281200  1
  O  O15  1  0.89922100  0.97783900  0.82065100  1
  O  O16  1  0.57861800  0.92143000  0.10077900  1
  O  O17  1  0.15718800  0.47783900  0.57861800  1
  O  O18  1  0.42138200  0.07857000  0.89922100  1
  O  O19  1  0.84281200  0.52216100  0.42138200  1
  O  O20  1  0.92138200  0.02216100  0.34281200  1
  O  O21  1  0.39922100  0.57857000  0.92138200  1
  O  O22  1  0.07861800  0.97783900  0.65718800  1
  O  O23  1  0.60077900  0.42143000  0.07861800  1
  O  O24  1  0.39922100  0.32065100  0.47783900  1
  O  O25  1  0.57857000  0.92138200  0.39922100  1
  O  O26  1  0.60077900  0.67934900  0.52216100  1
  O  O27  1  0.42143000  0.07861800  0.60077900  1
  O  O28  1  0.10077900  0.57861800  0.92143000  1
  O  O29  1  0.02216100  0.17934900  0.10077900  1
  O  O30  1  0.89922100  0.42138200  0.07857000  1
  O  O31  1  0.97783900  0.82065100  0.89922100  1
  O  O32  1  0.34281200  0.92138200  0.02216100  1
  O  O33  1  0.92143000  0.32065100  0.34281200  1
  O  O34  1  0.65718800  0.07861800  0.97783900  1
  O  O35  1  0.07857000  0.67934900  0.65718800  1
  O  O36  1  0.15718800  0.17934900  0.57857000  1
  O  O37  1  0.47783900  0.57861800  0.15718800  1
  O  O38  1  0.84281200  0.82065100  0.42143000  1
  O  O39  1  0.52216100  0.42138200  0.84281200  1
  O  O40  1  0.32065100  0.34281200  0.92143000  1
  O  O41  1  0.67934900  0.65718800  0.07857000  1
  O  O42  1  0.17934900  0.10077900  0.02216100  1
  O  O43  1  0.82065100  0.89922100  0.97783900  1
  O  O44  1  0.92138200  0.39922100  0.57857000  1
  O  O45  1  0.07861800  0.60077900  0.42143000  1
  O  O46  1  0.57861800  0.15718800  0.47783900  1
  O  O47  1  0.42138200  0.84281200  0.52216100  1
loop_
_geom_bond_atom_site_label_1
_geom_bond_atom_site_label_2
_geom_bond_distance
_geom_bond_site_symmetry_2
Mn0 O15 1.813298 1_444
Mn0 O31 1.813298 1_444
Mn0 O43 1.813298 1_444
Mn0 O12 1.813298 1_555
Mn0 O29 1.813298 1_555
Mn0 O42 1.813298 1_555
Mn1 O27 1.813298 1_555
Mn1 O9 1.813298 1_555
Mn1 O5 1.813298 1_545
Mn1 O47 1.813298 1_545
Mn1 O46 1.813298 1_555
Mn1 O25 1.813298 1_545
Mn2 O45 1.813298 1_555
Mn2 O33 1.813298 1_455
Mn2 O17 1.813298 1_555
Mn2 O19 1.813298 1_455
Mn2 O35 1.813298 1_555
Mn2 O44 1.813298 1_455
Mn3 O34 1.813298 1_554
Mn3 O6 1.813298 1_544
Mn3 O16 1.813298 1_545
Mn3 O18 1.813298 1_554
Mn3 O32 1.813298 1_545
Mn3 O2 1.813298 1_555
Mn4 O23 1.813298 1_555
Mn4 O40 1.813298 1_554
Mn4 O37 1.813298 1_555
Mn4 O39 1.813298 1_554
Mn4 O41 1.813298 1_555
Mn4 O21 1.813298 1_554
Mn5 O24 1.813298 1_555
Mn5 O26 1.813298 1_555
Mn5 O1 1.813298 1_555
Mn5 O0 1.813298 1_555
Mn5 O8 1.813298 1_555
Mn5 O4 1.813298 1_555
Mn6 O22 1.813298 1_545
Mn6 O36 1.813298 1_555
Mn6 O20 1.813298 1_455
Mn6 O38 1.813298 1_445
Mn6 O7 1.813298 1_545
Mn6 O3 1.813298 1_455
Mn7 O10 1.813298 1_554
Mn7 O14 1.813298 1_454
Mn7 O13 1.813298 1_455
Mn7 O30 1.813298 1_455
Mn7 O11 1.813298 1_555
Mn7 O28 1.813298 1_554
O0 Sr8 2.587259 1_555
O0 Sr0 2.587641 1_555
O1 Sr9 2.587259 1_555
O1 Sr1 2.587641 1_555
O2 Sr8 2.587259 1_555
O2 Sr2 2.587641 1_555
O3 Sr10 2.587259 1_655
O3 Sr2 2.587641 1_555
O4 Sr0 2.587259 1_555
O4 Sr3 2.587641 1_555
O5 Sr8 2.587259 1_565
O5 Sr4 2.587641 1_555
O6 Sr9 2.587259 1_555
O6 Sr5 2.587641 1_555
O7 Sr11 2.587259 1_455
O7 Sr5 2.587641 1_555
O8 Sr1 2.587259 1_555
O8 Sr6 2.587641 1_555
O9 Sr9 2.587259 1_545
O9 Sr7 2.587641 1_555
O10 Sr10 2.587259 1_555
O10 Sr0 2.587641 1_556
O11 Sr0 2.587259 1_555
O11 Sr4 2.587641 1_555
O12 Sr8 2.587259 1_555
O12 Sr3 2.587641 1_555
O13 Sr11 2.587259 1_555
O13 Sr1 2.587641 1_554
O14 Sr1 2.587259 1_555
O14 Sr7 2.587641 1_555
O15 Sr9 2.587259 1_555
O15 Sr6 2.587641 1_555
O16 Sr2 2.587259 1_565
O16 Sr4 2.587641 1_555
O17 Sr10 2.587259 1_555
O17 Sr3 2.587641 1_555
O18 Sr5 2.587259 1_545
O18 Sr7 2.587641 1_555
O19 Sr11 2.587259 1_555
O19 Sr6 2.587641 1_555
O20 Sr2 2.587259 1_555
O20 Sr3 2.587641 1_655
O21 Sr10 2.587259 1_555
O21 Sr4 2.587641 1_556
O22 Sr5 2.587259 1_555
O22 Sr6 2.587641 1_455
O23 Sr11 2.587259 1_555
O23 Sr7 2.587641 1_554
O24 Sr3 2.587259 1_555
O24 Sr8 2.587641 1_555
O25 Sr4 2.587259 1_555
O25 Sr2 2.587641 1_565
O26 Sr6 2.587259 1_555
O26 Sr9 2.587641 1_555
O27 Sr7 2.587259 1_555
O27 Sr5 2.587641 1_545
O28 Sr4 2.587259 1_556
O28 Sr10 2.587641 1_555
O29 Sr3 2.587259 1_555
O29 Sr0 2.587641 1_555
O30 Sr7 2.587259 1_554
O30 Sr11 2.587641 1_555
O31 Sr6 2.587259 1_555
O31 Sr1 2.587641 1_555
O32 Sr4 2.587259 1_555
O32 Sr8 2.587641 1_565
O33 Sr3 2.587259 1_655
O33 Sr2 2.587641 1_555
O34 Sr7 2.587259 1_555
O34 Sr9 2.587641 1_545
O35 Sr6 2.587259 1_455
O35 Sr5 2.587641 1_555
O36 Sr3 2.587259 1_555
O36 Sr10 2.587641 1_555
O37 Sr4 2.587259 1_555
O37 Sr0 2.587641 1_555
O38 Sr6 2.587259 1_555
O38 Sr11 2.587641 1_555
O39 Sr7 2.587259 1_555
O39 Sr1 2.587641 1_555
O40 Sr0 2.587259 1_556
O40 Sr10 2.587641 1_555
O41 Sr1 2.587259 1_554
O41 Sr11 2.587641 1_555
O42 Sr0 2.587259 1_555
O42 Sr8 2.587641 1_555
O43 Sr1 2.587259 1_555
O43 Sr9 2.587641 1_555
O44 Sr2 2.587259 1_555
O44 Sr10 2.587641 1_655
O45 Sr5 2.587259 1_555
O45 Sr11 2.587641 1_455
O46 Sr2 2.587259 1_555
O46 Sr8 2.587641 1_555
O47 Sr5 2.587259 1_555
O47 Sr9 2.587641 1_555
