# generated using pymatgen
data_K5In4(Ge3As7)2
_symmetry_space_group_name_H-M   'P 1'
_cell_length_a   20.43997414
_cell_length_b   20.43997414
_cell_length_c   10.54511155
_cell_angle_alpha   79.53018019
_cell_angle_beta   79.53018019
_cell_angle_gamma   11.35946267
_symmetry_Int_Tables_number   1
_chemical_formula_structural   K5In4(Ge3As7)2
_chemical_formula_sum   'K5 In4 Ge6 As14'
_cell_volume   853.16541248
_cell_formula_units_Z   1
loop_
 _symmetry_equiv_pos_site_id
 _symmetry_equiv_pos_as_xyz
  1  'x, y, z'
loop_
 _atom_site_type_symbol
 _atom_site_label
 _atom_site_symmetry_multiplicity
 _atom_site_fract_x
 _atom_site_fract_y
 _atom_site_fract_z
 _atom_site_occupancy
  K  K0  1  0.81970400  0.81970400  0.54480800  1
  K  K1  1  0.18029600  0.18029600  0.45519200  1
  K  K2  1  0.00000000  0.00000000  0.00000000  1
  K  K3  1  0.58765900  0.58765900  0.17518500  1
  K  K4  1  0.41234100  0.41234100  0.82481500  1
  In  In0  1  0.42736900  0.42736900  0.23059100  1
  In  In1  1  0.57263100  0.57263100  0.76940900  1
  In  In2  1  0.85132900  0.85132900  0.12980100  1
  In  In3  1  0.14867100  0.14867100  0.87019900  1
  Ge  Ge0  1  0.27408500  0.27408500  0.16320600  1
  Ge  Ge1  1  0.72591500  0.72591500  0.83679400  1
  Ge  Ge2  1  0.98020400  0.98020400  0.42117900  1
  Ge  Ge3  1  0.01979600  0.01979600  0.57882100  1
  Ge  Ge4  1  0.70241100  0.70241100  0.07370200  1
  Ge  Ge5  1  0.29758900  0.29758900  0.92629800  1
  As  As0  1  0.16496600  0.16496600  0.11384200  1
  As  As1  1  0.83503400  0.83503400  0.88615800  1
  As  As2  1  0.49170300  0.49170300  0.27790500  1
  As  As3  1  0.50829700  0.50829700  0.72209500  1
  As  As4  1  0.32174600  0.32174600  0.27380600  1
  As  As5  1  0.67825400  0.67825400  0.72619400  1
  As  As6  1  0.73832500  0.73832500  0.23968100  1
  As  As7  1  0.26167500  0.26167500  0.76031900  1
  As  As8  1  0.92160500  0.92160500  0.55429700  1
  As  As9  1  0.07839500  0.07839500  0.44570300  1
  As  As10  1  0.60635600  0.60635600  0.52581800  1
  As  As11  1  0.39364400  0.39364400  0.47418200  1
  As  As12  1  0.91802200  0.91802200  0.07876700  1
  As  As13  1  0.08197800  0.08197800  0.92123300  1
loop_
_geom_bond_atom_site_label_1
_geom_bond_atom_site_label_2
_geom_bond_distance
_geom_bond_site_symmetry_2
Ge0 Ge5 2.506571 1_554
Ge1 Ge4 2.506571 1_556
Ge2 Ge3 2.516983 1_665
As0 Ge4 2.521120 1_455
As0 Ge4 2.521120 1_545
As0 In3 2.768106 1_554
As0 K3 3.695578 1_455
As0 K3 3.695578 1_545
As0 K1 3.763731 1_555
As1 Ge5 2.521120 1_565
As1 Ge5 2.521120 1_655
As1 In2 2.768106 1_556
As1 K4 3.695578 1_655
As1 K4 3.695578 1_565
As1 K0 3.763731 1_555
As2 Ge2 2.517032 1_545
As2 Ge2 2.517032 1_455
As2 In0 2.752239 1_555
As2 K2 3.526024 1_655
As2 K2 3.526024 1_565
As2 K3 3.855612 1_555
As3 Ge3 2.517032 1_565
As3 Ge3 2.517032 1_655
As3 In1 2.752239 1_555
As3 K2 3.526024 1_566
As3 K2 3.526024 1_656
As3 K4 3.855612 1_555
As4 Ge0 2.438256 1_555
As4 In2 2.679343 1_455
As4 In2 2.679343 1_545
As4 K0 3.489847 1_455
As4 K0 3.489847 1_545
As5 Ge1 2.438256 1_555
As5 In3 2.679343 1_655
As5 In3 2.679343 1_565
As5 K1 3.489847 1_655
As5 K1 3.489847 1_565
As6 Ge4 2.476234 1_555
As6 Ge0 2.535769 1_655
As6 Ge0 2.535769 1_565
As6 K1 3.587448 1_655
As6 K1 3.587448 1_565
As7 Ge5 2.476234 1_555
As7 Ge1 2.535769 1_545
As7 Ge1 2.535769 1_455
As7 K0 3.587448 1_455
As7 K0 3.587448 1_545
As8 Ge2 2.535883 1_555
As8 K4 3.461080 1_655
As8 K4 3.461080 1_565
As9 Ge3 2.535883 1_555
As9 K3 3.461080 1_545
As9 K3 3.461080 1_455
As10 As9 2.539793 1_655
As10 As9 2.539793 1_565
As10 In1 2.682024 1_555
As10 K1 3.588264 1_565
As10 K1 3.588264 1_655
As11 As8 2.539793 1_455
As11 As8 2.539793 1_545
As11 In0 2.682024 1_555
As11 K0 3.588264 1_545
As11 K0 3.588264 1_455
As12 In0 2.649948 1_565
As12 In0 2.649948 1_655
As12 In2 2.667743 1_555
As12 K2 3.286210 1_665
As12 K4 3.397496 1_654
As12 K4 3.397496 1_564
As13 In1 2.649948 1_455
As13 In1 2.649948 1_545
As13 In3 2.667743 1_555
As13 K2 3.286210 1_556
As13 K3 3.397496 1_456
As13 K3 3.397496 1_546
