# generated using pymatgen
data_Mg30BiBO32
_symmetry_space_group_name_H-M   'P 1'
_cell_length_a   8.65171800
_cell_length_b   8.65171800
_cell_length_c   8.55292900
_cell_angle_alpha   90.00000000
_cell_angle_beta   90.00000000
_cell_angle_gamma   90.00000000
_symmetry_Int_Tables_number   1
_chemical_formula_structural   Mg30BiBO32
_chemical_formula_sum   'Mg30 Bi1 B1 O32'
_cell_volume   640.20576037
_cell_formula_units_Z   1
loop_
 _symmetry_equiv_pos_site_id
 _symmetry_equiv_pos_as_xyz
  1  'x, y, z'
loop_
 _atom_site_type_symbol
 _atom_site_label
 _atom_site_symmetry_multiplicity
 _atom_site_fract_x
 _atom_site_fract_y
 _atom_site_fract_z
 _atom_site_occupancy
  Mg  Mg0  1  0.50000000  0.00000000  0.00000000  1
  Mg  Mg1  1  0.50000000  0.00000000  0.50000000  1
  Mg  Mg2  1  0.00000000  0.50000000  0.00000000  1
  Mg  Mg3  1  0.00000000  0.50000000  0.50000000  1
  Mg  Mg4  1  0.50000000  0.50000000  0.00000000  1
  Mg  Mg5  1  0.50000000  0.50000000  0.50000000  1
  Mg  Mg6  1  0.25810600  0.00000000  0.24186900  1
  Mg  Mg7  1  0.25810600  0.00000000  0.75813100  1
  Mg  Mg8  1  0.74189400  0.00000000  0.24186900  1
  Mg  Mg9  1  0.74189400  0.00000000  0.75813100  1
  Mg  Mg10  1  0.25053800  0.50000000  0.24842600  1
  Mg  Mg11  1  0.25053800  0.50000000  0.75157400  1
  Mg  Mg12  1  0.74946200  0.50000000  0.24842600  1
  Mg  Mg13  1  0.74946200  0.50000000  0.75157400  1
  Mg  Mg14  1  0.00000000  0.25810600  0.24186900  1
  Mg  Mg15  1  0.00000000  0.25810600  0.75813100  1
  Mg  Mg16  1  0.50000000  0.25053800  0.24842600  1
  Mg  Mg17  1  0.50000000  0.25053800  0.75157400  1
  Mg  Mg18  1  0.00000000  0.74189400  0.24186900  1
  Mg  Mg19  1  0.00000000  0.74189400  0.75813100  1
  Mg  Mg20  1  0.50000000  0.74946200  0.24842600  1
  Mg  Mg21  1  0.50000000  0.74946200  0.75157400  1
  Mg  Mg22  1  0.24892800  0.24892800  0.00000000  1
  Mg  Mg23  1  0.25541400  0.25541400  0.50000000  1
  Mg  Mg24  1  0.75107200  0.24892800  0.00000000  1
  Mg  Mg25  1  0.74458600  0.25541400  0.50000000  1
  Mg  Mg26  1  0.24892800  0.75107200  0.00000000  1
  Mg  Mg27  1  0.25541400  0.74458600  0.50000000  1
  Mg  Mg28  1  0.75107200  0.75107200  0.00000000  1
  Mg  Mg29  1  0.74458600  0.74458600  0.50000000  1
  Bi  Bi0  1  0.00000000  0.00000000  0.50000000  1
  B  B0  1  0.00000000  0.00000000  0.00000000  1
  O  O0  1  0.00000000  0.26961300  0.00000000  1
  O  O1  1  0.00000000  0.27093000  0.50000000  1
  O  O2  1  0.50000000  0.25382000  0.00000000  1
  O  O3  1  0.50000000  0.25373800  0.50000000  1
  O  O4  1  0.00000000  0.73038700  0.00000000  1
  O  O5  1  0.00000000  0.72907000  0.50000000  1
  O  O6  1  0.50000000  0.74618000  0.00000000  1
  O  O7  1  0.50000000  0.74626200  0.50000000  1
  O  O8  1  0.24770300  0.24770300  0.25083700  1
  O  O9  1  0.24770300  0.24770300  0.74916300  1
  O  O10  1  0.75229700  0.24770300  0.25083700  1
  O  O11  1  0.75229700  0.24770300  0.74916300  1
  O  O12  1  0.24770300  0.75229700  0.25083700  1
  O  O13  1  0.24770300  0.75229700  0.74916300  1
  O  O14  1  0.75229700  0.75229700  0.25083700  1
  O  O15  1  0.75229700  0.75229700  0.74916300  1
  O  O16  1  0.00000000  0.00000000  0.15313600  1
  O  O17  1  0.00000000  0.00000000  0.84686400  1
  O  O18  1  0.50000000  0.00000000  0.25049900  1
  O  O19  1  0.50000000  0.00000000  0.74950100  1
  O  O20  1  0.00000000  0.50000000  0.25049900  1
  O  O21  1  0.00000000  0.50000000  0.74950100  1
  O  O22  1  0.50000000  0.50000000  0.25052200  1
  O  O23  1  0.50000000  0.50000000  0.74947800  1
  O  O24  1  0.26961300  0.00000000  0.00000000  1
  O  O25  1  0.27093000  0.00000000  0.50000000  1
  O  O26  1  0.73038700  0.00000000  0.00000000  1
  O  O27  1  0.72907000  0.00000000  0.50000000  1
  O  O28  1  0.25382000  0.50000000  0.00000000  1
  O  O29  1  0.25373800  0.50000000  0.50000000  1
  O  O30  1  0.74618000  0.50000000  0.00000000  1
  O  O31  1  0.74626200  0.50000000  0.50000000  1
loop_
_geom_bond_atom_site_label_1
_geom_bond_atom_site_label_2
_geom_bond_distance
_geom_bond_site_symmetry_2
Mg0 O24 1.993243 1_555
Mg0 O26 1.993243 1_555
Mg0 O18 2.142500 1_555
Mg0 O19 2.142500 1_554
Mg0 O6 2.195979 1_545
Mg0 O2 2.195979 1_555
Mg1 O25 1.981849 1_555
Mg1 O27 1.981849 1_555
Mg1 O19 2.133964 1_555
Mg1 O18 2.133964 1_555
Mg1 O3 2.195270 1_555
Mg1 O7 2.195270 1_545
Mg2 O4 1.993243 1_555
Mg2 O0 1.993243 1_555
Mg2 O20 2.142500 1_555
Mg2 O21 2.142500 1_554
Mg2 O30 2.195979 1_455
Mg2 O28 2.195979 1_555
Mg3 O1 1.981849 1_555
Mg3 O5 1.981849 1_555
Mg3 O21 2.133964 1_555
Mg3 O20 2.133964 1_555
Mg3 O29 2.195270 1_555
Mg3 O31 2.195270 1_455
Mg4 O2 2.129880 1_555
Mg4 O28 2.129880 1_555
Mg4 O30 2.129880 1_555
Mg4 O6 2.129880 1_555
Mg4 O22 2.142697 1_555
Mg4 O23 2.142697 1_554
Mg5 O7 2.130589 1_555
Mg5 O31 2.130589 1_555
Mg5 O3 2.130589 1_555
Mg5 O29 2.130589 1_555
Mg5 O23 2.133768 1_555
Mg5 O22 2.133768 1_555
Mg6 O24 2.071083 1_555
Mg6 O18 2.094100 1_555
Mg6 O8 2.146317 1_555
Mg6 O12 2.146317 1_545
Mg6 O25 2.210562 1_555
Mg6 O16 2.358501 1_555
Mg7 O24 2.071083 1_556
Mg7 O19 2.094100 1_555
Mg7 O9 2.146317 1_555
Mg7 O13 2.146317 1_545
Mg7 O25 2.210562 1_555
Mg7 O17 2.358501 1_555
Mg8 O26 2.071083 1_555
Mg8 O18 2.094100 1_555
Mg8 O10 2.146317 1_555
Mg8 O14 2.146317 1_545
Mg8 O27 2.210562 1_555
Mg8 O16 2.358501 1_655
Mg9 O26 2.071083 1_556
Mg9 O19 2.094100 1_555
Mg9 O11 2.146317 1_555
Mg9 O15 2.146317 1_545
Mg9 O27 2.210562 1_555
Mg9 O17 2.358501 1_655
Mg10 O28 2.124960 1_555
Mg10 O29 2.151873 1_555
Mg10 O22 2.158349 1_555
Mg10 O20 2.167657 1_555
Mg10 O12 2.183038 1_555
Mg10 O8 2.183038 1_555
Mg11 O28 2.124960 1_556
Mg11 O29 2.151873 1_555
Mg11 O23 2.158349 1_555
Mg11 O21 2.167657 1_555
Mg11 O13 2.183038 1_555
Mg11 O9 2.183038 1_555
Mg12 O30 2.124960 1_555
Mg12 O31 2.151873 1_555
Mg12 O22 2.158349 1_555
Mg12 O20 2.167657 1_655
Mg12 O14 2.183038 1_555
Mg12 O10 2.183038 1_555
Mg13 O30 2.124960 1_556
Mg13 O31 2.151873 1_555
Mg13 O23 2.158349 1_555
Mg13 O21 2.167657 1_655
Mg13 O15 2.183038 1_555
Mg13 O11 2.183038 1_555
Mg14 O0 2.071083 1_555
Mg14 O20 2.094100 1_555
Mg14 O8 2.146317 1_555
Mg14 O10 2.146317 1_455
Mg14 O1 2.210562 1_555
Mg14 O16 2.358501 1_555
Mg15 O0 2.071083 1_556
Mg15 O21 2.094100 1_555
Mg15 O9 2.146317 1_555
Mg15 O11 2.146317 1_455
Mg15 O1 2.210562 1_555
Mg15 O17 2.358501 1_555
Mg16 O2 2.124960 1_555
Mg16 O3 2.151873 1_555
Mg16 O22 2.158349 1_555
Mg16 O18 2.167657 1_555
Mg16 O10 2.183038 1_555
Mg16 O8 2.183038 1_555
Mg17 O2 2.124960 1_556
Mg17 O3 2.151873 1_555
Mg17 O23 2.158349 1_555
Mg17 O19 2.167657 1_555
Mg17 O11 2.183038 1_555
Mg17 O9 2.183038 1_555
Mg18 O4 2.071083 1_555
Mg18 O20 2.094100 1_555
Mg18 O12 2.146317 1_555
Mg18 O14 2.146317 1_455
Mg18 O5 2.210562 1_555
Mg18 O16 2.358501 1_565
Mg19 O4 2.071083 1_556
Mg19 O21 2.094100 1_555
Mg19 O13 2.146317 1_555
Mg19 O15 2.146317 1_455
Mg19 O5 2.210562 1_555
Mg19 O17 2.358501 1_565
Mg20 O6 2.124960 1_555
Mg20 O7 2.151873 1_555
Mg20 O22 2.158349 1_555
Mg20 O18 2.167657 1_565
Mg20 O14 2.183038 1_555
Mg20 O12 2.183038 1_555
Mg21 O6 2.124960 1_556
Mg21 O7 2.151873 1_555
Mg21 O23 2.158349 1_555
Mg21 O19 2.167657 1_565
Mg21 O15 2.183038 1_555
Mg21 O13 2.183038 1_555
Mg22 O8 2.145443 1_555
Mg22 O9 2.145443 1_554
Mg22 O0 2.161078 1_555
Mg22 O24 2.161078 1_555
Mg22 O2 2.172616 1_555
Mg22 O28 2.172616 1_555
Mg23 O29 2.116139 1_555
Mg23 O3 2.116139 1_555
Mg23 O9 2.133161 1_555
Mg23 O8 2.133161 1_555
Mg23 O1 2.213844 1_555
Mg23 O25 2.213844 1_555
Mg24 O10 2.145443 1_555
Mg24 O11 2.145443 1_554
Mg24 O26 2.161078 1_555
Mg24 O0 2.161078 1_655
Mg24 O2 2.172616 1_555
Mg24 O30 2.172616 1_555
Mg25 O31 2.116139 1_555
Mg25 O3 2.116139 1_555
Mg25 O11 2.133161 1_555
Mg25 O10 2.133161 1_555
Mg25 O27 2.213844 1_555
Mg25 O1 2.213844 1_655
Mg26 O12 2.145443 1_555
Mg26 O13 2.145443 1_554
Mg26 O4 2.161078 1_555
Mg26 O24 2.161078 1_565
Mg26 O28 2.172616 1_555
Mg26 O6 2.172616 1_555
Mg27 O29 2.116139 1_555
Mg27 O7 2.116139 1_555
Mg27 O13 2.133161 1_555
Mg27 O12 2.133161 1_555
Mg27 O5 2.213844 1_555
Mg27 O25 2.213844 1_565
Mg28 O14 2.145443 1_555
Mg28 O15 2.145443 1_554
Mg28 O26 2.161078 1_565
Mg28 O4 2.161078 1_655
Mg28 O30 2.172616 1_555
Mg28 O6 2.172616 1_555
Mg29 O7 2.116139 1_555
Mg29 O31 2.116139 1_555
Mg29 O15 2.133161 1_555
Mg29 O14 2.133161 1_555
Mg29 O27 2.213844 1_565
Mg29 O5 2.213844 1_655
Bi0 O27 2.344010 1_455
Bi0 O5 2.344010 1_545
Bi0 O25 2.344010 1_555
Bi0 O1 2.344010 1_555
B0 O16 1.309761 1_555
B0 O17 1.309761 1_554
