# generated using pymatgen
data_PrMg(BiO3)2
_symmetry_space_group_name_H-M   'P 1'
_cell_length_a   5.82903400
_cell_length_b   6.08300700
_cell_length_c   8.55023400
_cell_angle_alpha   90.00000000
_cell_angle_beta   90.00000000
_cell_angle_gamma   90.00000000
_symmetry_Int_Tables_number   1
_chemical_formula_structural   PrMg(BiO3)2
_chemical_formula_sum   'Pr2 Mg2 Bi4 O12'
_cell_volume   303.17466423
_cell_formula_units_Z   2
loop_
 _symmetry_equiv_pos_site_id
 _symmetry_equiv_pos_as_xyz
  1  'x, y, z'
loop_
 _atom_site_type_symbol
 _atom_site_label
 _atom_site_symmetry_multiplicity
 _atom_site_fract_x
 _atom_site_fract_y
 _atom_site_fract_z
 _atom_site_occupancy
  Pr  Pr0  1  0.01138900  0.68509100  0.00000000  1
  Pr  Pr1  1  0.51138900  0.31490900  0.50000000  1
  Mg  Mg0  1  0.50969900  0.24837800  0.00000000  1
  Mg  Mg1  1  0.00969900  0.75162200  0.50000000  1
  Bi  Bi0  1  0.00379300  0.23656100  0.74942600  1
  Bi  Bi1  1  0.00379300  0.23656100  0.25057400  1
  Bi  Bi2  1  0.50379300  0.76343900  0.24942600  1
  Bi  Bi3  1  0.50379300  0.76343900  0.75057400  1
  O  O0  1  0.13746600  0.14521800  0.50000000  1
  O  O1  1  0.16669900  0.92107600  0.81576900  1
  O  O2  1  0.16669900  0.92107600  0.18423100  1
  O  O3  1  0.32819900  0.42554300  0.16882900  1
  O  O4  1  0.32819900  0.42554300  0.83117100  1
  O  O5  1  0.34411000  0.67602800  0.50000000  1
  O  O6  1  0.63746600  0.85478200  0.00000000  1
  O  O7  1  0.66669900  0.07892400  0.68423100  1
  O  O8  1  0.66669900  0.07892400  0.31576900  1
  O  O9  1  0.82819900  0.57445700  0.66882900  1
  O  O10  1  0.82819900  0.57445700  0.33117100  1
  O  O11  1  0.84411000  0.32397200  0.00000000  1
loop_
_geom_bond_atom_site_label_1
_geom_bond_atom_site_label_2
_geom_bond_distance
_geom_bond_site_symmetry_2
Mg0 O11 2.002797 1_555
Mg0 O3 2.089139 1_555
Mg0 O4 2.089139 1_554
Mg0 O6 2.507406 1_545
Mg1 O5 2.002797 1_555
Mg1 O10 2.089139 1_455
Mg1 O9 2.089139 1_455
Mg1 O0 2.507406 1_565
Bi0 O1 2.215043 1_545
Bi0 O7 2.256367 1_455
Bi0 O4 2.320739 1_555
Bi0 O0 2.337534 1_555
Bi0 O11 2.395678 1_456
Bi0 O9 2.397352 1_455
Bi1 O2 2.215043 1_545
Bi1 O8 2.256367 1_455
Bi1 O3 2.320739 1_555
Bi1 O0 2.337534 1_555
Bi1 O11 2.395678 1_455
Bi1 O10 2.397352 1_455
Bi2 O8 2.215043 1_565
Bi2 O2 2.256367 1_555
Bi2 O10 2.320739 1_555
Bi2 O6 2.337534 1_555
Bi2 O5 2.395678 1_555
Bi2 O3 2.397352 1_555
Bi3 O7 2.215043 1_565
Bi3 O1 2.256367 1_555
Bi3 O9 2.320739 1_555
Bi3 O6 2.337534 1_556
Bi3 O5 2.395678 1_555
Bi3 O4 2.397352 1_555
O0 Pr1 2.411680 1_555
O1 Pr0 2.315502 1_556
O2 Pr0 2.315502 1_555
O3 Pr0 2.826087 1_555
O3 Pr1 3.100170 1_555
O4 Pr0 2.826087 1_556
O4 Pr1 3.100170 1_555
O5 Pr1 2.403376 1_555
O6 Pr0 2.411680 1_655
O7 Pr1 2.315502 1_555
O8 Pr1 2.315502 1_555
O9 Pr1 2.826087 1_555
O9 Pr0 3.100170 1_656
O10 Pr1 2.826087 1_555
O10 Pr0 3.100170 1_655
O11 Pr0 2.403376 1_655
