# generated using pymatgen
data_Rb2FeOF5
_symmetry_space_group_name_H-M   'P 1'
_cell_length_a   6.46707416
_cell_length_b   6.46707416
_cell_length_c   8.03868200
_cell_angle_alpha   90.00000000
_cell_angle_beta   90.00000000
_cell_angle_gamma   100.27978481
_symmetry_Int_Tables_number   1
_chemical_formula_structural   Rb2FeOF5
_chemical_formula_sum   'Rb4 Fe2 O2 F10'
_cell_volume   330.80548830
_cell_formula_units_Z   2
loop_
 _symmetry_equiv_pos_site_id
 _symmetry_equiv_pos_as_xyz
  1  'x, y, z'
loop_
 _atom_site_type_symbol
 _atom_site_label
 _atom_site_symmetry_multiplicity
 _atom_site_fract_x
 _atom_site_fract_y
 _atom_site_fract_z
 _atom_site_occupancy
  Rb  Rb0  1  0.04132900  0.49955200  0.25000000  1
  Rb  Rb1  1  0.95867100  0.50044800  0.75000000  1
  Rb  Rb2  1  0.49955200  0.04132900  0.25000000  1
  Rb  Rb3  1  0.50044800  0.95867100  0.75000000  1
  Fe  Fe0  1  0.00000000  0.00000000  0.00000000  1
  Fe  Fe1  1  0.00000000  0.00000000  0.50000000  1
  O  O0  1  0.57622000  0.57622000  0.25000000  1
  O  O1  1  0.42378000  0.42378000  0.75000000  1
  F  F0  1  0.23080600  0.23080600  0.50692200  1
  F  F1  1  0.76919400  0.76919400  0.49307800  1
  F  F2  1  0.76919400  0.76919400  0.00692200  1
  F  F3  1  0.23080600  0.23080600  0.99307800  1
  F  F4  1  0.80348200  0.19651800  0.00000000  1
  F  F5  1  0.19651800  0.80348200  0.00000000  1
  F  F6  1  0.19651800  0.80348200  0.50000000  1
  F  F7  1  0.80348200  0.19651800  0.50000000  1
  F  F8  1  0.00913400  0.00913400  0.25000000  1
  F  F9  1  0.99086600  0.99086600  0.75000000  1
loop_
_geom_bond_atom_site_label_1
_geom_bond_atom_site_label_2
_geom_bond_distance
_geom_bond_site_symmetry_2
O0 Rb0 3.134573 1_655
O0 Rb2 3.134573 1_565
O0 Rb2 3.405821 1_555
O0 Rb0 3.405821 1_555
O1 Rb1 3.134573 1_455
O1 Rb3 3.134573 1_545
O1 Rb3 3.405821 1_555
O1 Rb1 3.405821 1_555
F0 Fe1 1.914120 1_555
F0 Rb0 3.089949 1_555
F0 Rb2 3.089949 1_555
F0 Rb3 3.324407 1_545
F0 Rb1 3.324407 1_455
F1 Fe1 1.914120 1_665
F1 Rb3 3.089949 1_555
F1 Rb1 3.089949 1_555
F1 Rb0 3.324407 1_655
F1 Rb2 3.324407 1_565
F2 Fe0 1.914120 1_665
F2 Rb3 3.089949 1_554
F2 Rb1 3.089949 1_554
F2 Rb2 3.324407 1_565
F2 Rb0 3.324407 1_655
F3 Fe0 1.914120 1_556
F3 Rb2 3.089949 1_556
F3 Rb0 3.089949 1_556
F3 Rb3 3.324407 1_545
F3 Rb1 3.324407 1_455
F4 Fe0 1.951110 1_655
F4 Rb2 2.864491 1_555
F4 Rb1 2.864491 1_554
F4 Rb0 3.028113 1_655
F4 Rb3 3.028113 1_544
F5 Fe0 1.951110 1_565
F5 Rb0 2.864491 1_555
F5 Rb3 2.864491 1_554
F5 Rb1 3.028113 1_454
F5 Rb2 3.028113 1_565
F6 Fe1 1.951110 1_565
F6 Rb0 2.864491 1_555
F6 Rb3 2.864491 1_555
F6 Rb2 3.028113 1_565
F6 Rb1 3.028113 1_455
F7 Fe1 1.951110 1_655
F7 Rb2 2.864491 1_555
F7 Rb1 2.864491 1_555
F7 Rb3 3.028113 1_545
F7 Rb0 3.028113 1_655
F8 Fe1 2.011096 1_555
F8 Fe0 2.011096 1_555
F8 Rb0 3.141102 1_555
F8 Rb2 3.141102 1_555
F8 Rb0 3.338951 1_545
F8 Rb2 3.338951 1_455
F9 Fe0 2.011096 1_666
F9 Fe1 2.011096 1_665
F9 Rb1 3.141102 1_555
F9 Rb3 3.141102 1_555
F9 Rb3 3.338951 1_655
F9 Rb1 3.338951 1_565
