# generated using pymatgen
data_Sc3As2
_symmetry_space_group_name_H-M   'P 1'
_cell_length_a   10.36410320
_cell_length_b   10.36412814
_cell_length_c   3.86897692
_cell_angle_alpha   90.00000000
_cell_angle_beta   90.00000000
_cell_angle_gamma   90.00008309
_symmetry_Int_Tables_number   1
_chemical_formula_structural   Sc3As2
_chemical_formula_sum   'Sc12 As8'
_cell_volume   415.58574428
_cell_formula_units_Z   4
loop_
 _symmetry_equiv_pos_site_id
 _symmetry_equiv_pos_as_xyz
  1  'x, y, z'
loop_
 _atom_site_type_symbol
 _atom_site_label
 _atom_site_symmetry_multiplicity
 _atom_site_fract_x
 _atom_site_fract_y
 _atom_site_fract_z
 _atom_site_occupancy
  Sc  Sc0  1  0.13502700  0.80694383  0.50000000  1
  Sc  Sc1  1  0.86497300  0.19305617  0.50000000  1
  Sc  Sc2  1  0.19305090  0.13504010  0.50000000  1
  Sc  Sc3  1  0.80694910  0.86495990  0.50000000  1
  Sc  Sc4  1  0.39527262  0.71734818  -0.00000000  1
  Sc  Sc5  1  0.60472738  0.28265182  0.00000000  1
  Sc  Sc6  1  0.28265488  0.39529008  0.00000000  1
  Sc  Sc7  1  0.71734512  0.60470992  0.00000000  1
  Sc  Sc8  1  -0.00000000  0.50000000  0.50000000  1
  Sc  Sc9  1  0.50000000  -0.00000000  0.50000000  1
  Sc  Sc10  1  0.50000000  0.50000000  0.50000000  1
  Sc  Sc11  1  -0.00000000  -0.00000000  -0.00000000  1
  As  As0  1  0.25373454  0.58079333  0.50000000  1
  As  As1  1  0.74626546  0.41920667  0.50000000  1
  As  As2  1  0.41918681  0.25374682  0.50000000  1
  As  As3  1  0.58081319  0.74625318  0.50000000  1
  As  As4  1  0.27637423  0.95012600  0.00000000  1
  As  As5  1  0.72362577  0.04987400  0.00000000  1
  As  As6  1  0.04990793  0.27636684  0.00000000  1
  As  As7  1  0.95009207  0.72363316  -0.00000000  1
loop_
_geom_bond_atom_site_label_1
_geom_bond_atom_site_label_2
_geom_bond_distance
_geom_bond_site_symmetry_2
As0 Sc0 2.647128 1_555
As0 Sc10 2.686169 1_555
As0 Sc6 2.743793 1_555
As0 Sc6 2.743793 1_556
As0 Sc8 2.759826 1_555
As0 Sc4 2.810173 1_555
As0 Sc4 2.810173 1_556
As1 Sc1 2.647128 1_555
As1 Sc10 2.686169 1_555
As1 Sc7 2.743793 1_556
As1 Sc7 2.743793 1_555
As1 Sc8 2.759826 1_655
As1 Sc5 2.810173 1_555
As1 Sc5 2.810173 1_556
As2 Sc2 2.646983 1_555
As2 Sc10 2.686116 1_555
As2 Sc5 2.744043 1_555
As2 Sc5 2.744043 1_556
As2 Sc9 2.760017 1_555
As2 Sc6 2.810084 1_555
As2 Sc6 2.810084 1_556
As3 Sc3 2.646983 1_555
As3 Sc10 2.686116 1_555
As3 Sc4 2.744043 1_556
As3 Sc4 2.744043 1_555
As3 Sc9 2.760017 1_565
As3 Sc7 2.810084 1_556
As3 Sc7 2.810084 1_555
As4 Sc4 2.709032 1_555
As4 Sc0 2.844365 1_555
As4 Sc0 2.844365 1_554
As4 Sc2 2.856725 1_565
As4 Sc2 2.856725 1_564
As4 Sc11 2.910638 1_565
As4 Sc9 3.062853 1_565
As4 Sc9 3.062853 1_564
As5 Sc5 2.709032 1_555
As5 Sc1 2.844365 1_554
As5 Sc1 2.844365 1_555
As5 Sc3 2.856725 1_544
As5 Sc3 2.856725 1_545
As5 Sc11 2.910638 1_655
As5 Sc9 3.062853 1_555
As5 Sc9 3.062853 1_554
As6 Sc6 2.708858 1_555
As6 Sc2 2.844046 1_555
As6 Sc2 2.844046 1_554
As6 Sc1 2.856826 1_455
As6 Sc1 2.856826 1_454
As6 Sc11 2.910630 1_555
As6 Sc8 3.062976 1_555
As6 Sc8 3.062976 1_554
As7 Sc7 2.708858 1_555
As7 Sc3 2.844046 1_555
As7 Sc3 2.844046 1_554
As7 Sc0 2.856826 1_654
As7 Sc0 2.856826 1_655
As7 Sc11 2.910630 1_665
As7 Sc8 3.062976 1_655
As7 Sc8 3.062976 1_654
