# generated using pymatgen
data_Ti3TePb4O13
_symmetry_space_group_name_H-M   'P 1'
_cell_length_a   7.42415559
_cell_length_b   7.42415559
_cell_length_c   7.42415569
_cell_angle_alpha   59.59222644
_cell_angle_beta   59.59222644
_cell_angle_gamma   59.59222703
_symmetry_Int_Tables_number   1
_chemical_formula_structural   Ti3TePb4O13
_chemical_formula_sum   'Ti3 Te1 Pb4 O13'
_cell_volume   286.66990764
_cell_formula_units_Z   1
loop_
 _symmetry_equiv_pos_site_id
 _symmetry_equiv_pos_as_xyz
  1  'x, y, z'
loop_
 _atom_site_type_symbol
 _atom_site_label
 _atom_site_symmetry_multiplicity
 _atom_site_fract_x
 _atom_site_fract_y
 _atom_site_fract_z
 _atom_site_occupancy
  Ti  Ti0  1  0.99823600  0.50042900  0.50042900  1
  Ti  Ti1  1  0.50042900  0.50042900  0.99823600  1
  Ti  Ti2  1  0.50042900  0.99823600  0.50042900  1
  Te  Te0  1  0.50015200  0.50015200  0.50015200  1
  Pb  Pb0  1  0.49298200  0.00258300  0.00258300  1
  Pb  Pb1  1  0.00258300  0.00258300  0.49298200  1
  Pb  Pb2  1  0.00258300  0.49298200  0.00258300  1
  Pb  Pb3  1  0.00181000  0.00181000  0.00181000  1
  O  O0  1  0.18179200  0.56557100  0.18179200  1
  O  O1  1  0.57002800  0.18606100  0.57002800  1
  O  O2  1  0.18179200  0.18179200  0.56557100  1
  O  O3  1  0.57002800  0.57002800  0.18606100  1
  O  O4  1  0.56557100  0.18179200  0.18179200  1
  O  O5  1  0.18606100  0.57002800  0.57002800  1
  O  O6  1  0.81520100  0.43815400  0.81520100  1
  O  O7  1  0.43278600  0.81225200  0.43278600  1
  O  O8  1  0.81520100  0.81520100  0.43815400  1
  O  O9  1  0.43278600  0.43278600  0.81225200  1
  O  O10  1  0.43815400  0.81520100  0.81520100  1
  O  O11  1  0.81225200  0.43278600  0.43278600  1
  O  O12  1  0.87414500  0.87414500  0.87414500  1
loop_
_geom_bond_atom_site_label_1
_geom_bond_atom_site_label_2
_geom_bond_distance
_geom_bond_site_symmetry_2
O0 Ti1 1.983110 1_554
O0 Ti0 1.983110 1_455
O0 Pb2 2.659766 1_555
O0 Pb3 2.665690 1_565
O1 Te0 1.949125 1_555
O1 Ti2 2.051223 1_545
O1 Pb1 2.645094 1_655
O1 Pb0 2.645094 1_556
O2 Ti2 1.983110 1_545
O2 Ti0 1.983110 1_455
O2 Pb1 2.659766 1_555
O2 Pb3 2.665690 1_556
O3 Te0 1.949125 1_555
O3 Ti1 2.051223 1_554
O3 Pb2 2.645094 1_655
O3 Pb0 2.645094 1_565
O4 Ti1 1.983110 1_554
O4 Ti2 1.983110 1_545
O4 Pb0 2.659766 1_555
O4 Pb3 2.665690 1_655
O5 Te0 1.949125 1_555
O5 Ti0 2.051223 1_455
O5 Pb1 2.645094 1_565
O5 Pb2 2.645094 1_556
O6 Ti1 1.961910 1_555
O6 Ti0 1.961910 1_555
O6 Pb2 2.672432 1_656
O6 Pb3 2.681328 1_656
O7 Te0 1.943224 1_555
O7 Ti2 2.017453 1_555
O7 Pb1 2.650110 1_565
O7 Pb0 2.650110 1_565
O8 Ti0 1.961910 1_555
O8 Ti2 1.961910 1_555
O8 Pb1 2.672432 1_665
O8 Pb3 2.681328 1_665
O9 Te0 1.943224 1_555
O9 Ti1 2.017454 1_555
O9 Pb2 2.650110 1_556
O9 Pb0 2.650110 1_556
O10 Ti1 1.961910 1_555
O10 Ti2 1.961910 1_555
O10 Pb0 2.672432 1_566
O10 Pb3 2.681328 1_566
O11 Te0 1.943224 1_555
O11 Ti0 2.017453 1_555
O11 Pb1 2.650110 1_655
O11 Pb2 2.650110 1_655
O12 Pb0 2.298625 1_566
O12 Pb2 2.298625 1_656
O12 Pb1 2.298625 1_665
O12 Pb3 2.328767 1_666
