# generated using pymatgen
data_Ba4Zn2CuGe20
_symmetry_space_group_name_H-M   'P 1'
_cell_length_a   10.86670038
_cell_length_b   10.86670038
_cell_length_c   10.87238314
_cell_angle_alpha   90.00000000
_cell_angle_beta   90.00000000
_cell_angle_gamma   89.99617568
_symmetry_Int_Tables_number   1
_chemical_formula_structural   Ba4Zn2CuGe20
_chemical_formula_sum   'Ba8 Zn4 Cu2 Ge40'
_cell_volume   1283.86728532
_cell_formula_units_Z   2
loop_
 _symmetry_equiv_pos_site_id
 _symmetry_equiv_pos_as_xyz
  1  'x, y, z'
loop_
 _atom_site_type_symbol
 _atom_site_label
 _atom_site_symmetry_multiplicity
 _atom_site_fract_x
 _atom_site_fract_y
 _atom_site_fract_z
 _atom_site_occupancy
  Ba  Ba0  1  0.49944683  0.50051002  0.50000000  1
  Ba  Ba1  1  0.00051002  0.99944683  -0.00000000  1
  Ba  Ba2  1  0.49830353  0.74823405  -0.00000000  1
  Ba  Ba3  1  0.24823405  0.99830353  0.50000000  1
  Ba  Ba4  1  0.00164856  0.50164856  0.75000000  1
  Ba  Ba5  1  0.49831553  0.25171152  -0.00000000  1
  Ba  Ba6  1  0.75171152  0.99831553  0.50000000  1
  Ba  Ba7  1  0.00164856  0.50164856  0.25000000  1
  Zn  Zn0  1  0.50017045  0.00017045  0.75000000  1
  Zn  Zn1  1  0.99980465  0.25022614  0.50000000  1
  Zn  Zn2  1  0.75022614  0.49980465  -0.00000000  1
  Zn  Zn3  1  0.50017045  0.00017045  0.25000000  1
  Cu  Cu0  1  0.99987223  0.74995442  0.50000000  1
  Cu  Cu1  1  0.24995442  0.49987223  -0.00000000  1
  Ge  Ge0  1  0.31662164  0.68301518  0.68379225  1
  Ge  Ge1  1  0.68365750  0.31628418  0.31625226  1
  Ge  Ge2  1  0.68365750  0.31628418  0.68374774  1
  Ge  Ge3  1  0.31662164  0.68301518  0.31620775  1
  Ge  Ge4  1  0.68394909  0.68317158  0.31644676  1
  Ge  Ge5  1  0.31686425  0.31647360  0.68401030  1
  Ge  Ge6  1  0.31686425  0.31647360  0.31598970  1
  Ge  Ge7  1  0.68394909  0.68317158  0.68355324  1
  Ge  Ge8  1  0.18301518  0.81662164  0.18379225  1
  Ge  Ge9  1  0.81628418  0.18365750  0.81625226  1
  Ge  Ge10  1  0.81628418  0.18365750  0.18374774  1
  Ge  Ge11  1  0.18301518  0.81662164  0.81620775  1
  Ge  Ge12  1  0.18317158  0.18394909  0.81644676  1
  Ge  Ge13  1  0.81647360  0.81686425  0.18401030  1
  Ge  Ge14  1  0.81647360  0.81686425  0.81598970  1
  Ge  Ge15  1  0.18317158  0.18394909  0.18355324  1
  Ge  Ge16  1  0.37838417  0.49998404  0.81627347  1
  Ge  Ge17  1  0.50002469  0.81072646  0.61845882  1
  Ge  Ge18  1  0.18381262  0.62175326  0.50000000  1
  Ge  Ge19  1  0.61688293  0.49999285  0.18970144  1
  Ge  Ge20  1  0.50000524  0.18919847  0.38194593  1
  Ge  Ge21  1  0.81016667  0.38336825  0.50000000  1
  Ge  Ge22  1  0.61688293  0.49999285  0.81029856  1
  Ge  Ge23  1  0.50000524  0.18919847  0.61805407  1
  Ge  Ge24  1  0.37838417  0.49998404  0.18372653  1
  Ge  Ge25  1  0.50002469  0.81072646  0.38154118  1
  Ge  Ge26  1  0.81628481  0.62137503  0.50000000  1
  Ge  Ge27  1  0.18983265  0.38291802  0.50000000  1
  Ge  Ge28  1  0.99998404  0.87838417  0.31627347  1
  Ge  Ge29  1  0.31072646  0.00002469  0.11845882  1
  Ge  Ge30  1  0.12175326  0.68381262  -0.00000000  1
  Ge  Ge31  1  0.99999285  0.11688293  0.68970144  1
  Ge  Ge32  1  0.68919847  0.00000524  0.88194593  1
  Ge  Ge33  1  0.88336825  0.31016667  -0.00000000  1
  Ge  Ge34  1  0.99999285  0.11688293  0.31029856  1
  Ge  Ge35  1  0.68919847  0.00000524  0.11805407  1
  Ge  Ge36  1  0.99998404  0.87838417  0.68372653  1
  Ge  Ge37  1  0.31072646  0.00002469  0.88154118  1
  Ge  Ge38  1  0.12137503  0.31628481  -0.00000000  1
  Ge  Ge39  1  0.88291802  0.68983265  -0.00000000  1
loop_
_geom_bond_atom_site_label_1
_geom_bond_atom_site_label_2
_geom_bond_distance
_geom_bond_site_symmetry_2
Ba0 Ge0 3.445681 1_555
Ba0 Ge3 3.445681 1_555
Ba0 Ge6 3.455295 1_555
Ba0 Ge5 3.455295 1_555
Ba0 Ge4 3.455848 1_555
Ba0 Ge7 3.455848 1_555
Ba0 Ge1 3.464872 1_555
Ba0 Ge2 3.464872 1_555
Ba0 Ge27 3.599055 1_555
Ba0 Ge22 3.606982 1_555
Ba0 Ge19 3.606982 1_555
Ba0 Ge21 3.608402 1_555
Ba0 Ge17 3.608690 1_555
Ba0 Ge25 3.608690 1_555
Ba0 Ge23 3.618244 1_555
Ba0 Ge20 3.618244 1_555
Ba0 Ge18 3.674163 1_555
Ba0 Ge24 3.681711 1_555
Ba0 Ge16 3.681711 1_555
Ba0 Ge26 3.685074 1_555
Ba1 Ge11 3.445681 1_554
Ba1 Ge8 3.445681 1_555
Ba1 Ge13 3.455295 1_455
Ba1 Ge14 3.455295 1_454
Ba1 Ge12 3.455848 1_564
Ba1 Ge15 3.455848 1_565
Ba1 Ge9 3.464872 1_464
Ba1 Ge10 3.464872 1_465
Ba1 Ge39 3.599055 1_455
Ba1 Ge31 3.606982 1_464
Ba1 Ge34 3.606982 1_465
Ba1 Ge33 3.608402 1_465
Ba1 Ge37 3.608690 1_564
Ba1 Ge29 3.608690 1_565
Ba1 Ge35 3.618244 1_465
Ba1 Ge32 3.618244 1_464
Ba1 Ge30 3.674163 1_555
Ba1 Ge36 3.681711 1_454
Ba1 Ge28 3.681711 1_455
Ba1 Ge38 3.685074 1_565
Ba2 Ge16 3.600855 1_554
Ba2 Ge24 3.600855 1_555
Ba2 Ge22 3.631903 1_554
Ba2 Ge19 3.631903 1_555
Ba2 Ge37 3.646819 1_564
Ba2 Ge29 3.646819 1_565
Ba2 Ge35 3.665597 1_565
Ba2 Ge32 3.665597 1_564
Ba3 Ge28 3.600855 1_455
Ba3 Ge36 3.600855 1_455
Ba3 Ge31 3.631903 1_465
Ba3 Ge34 3.631903 1_465
Ba3 Ge25 3.646819 1_555
Ba3 Ge17 3.646819 1_555
Ba3 Ge20 3.665597 1_565
Ba3 Ge23 3.665597 1_565
Ba4 Ge18 3.606978 1_555
Ba4 Ge30 3.606978 1_556
Ba4 Ge38 3.624604 1_556
Ba4 Ge26 3.624604 1_455
Ba4 Ge27 3.637872 1_555
Ba4 Ge39 3.637872 1_456
Ba4 Ge33 3.656511 1_456
Ba4 Ge21 3.656511 1_455
Ba5 Ge16 3.600955 1_554
Ba5 Ge24 3.600955 1_555
Ba5 Ge22 3.632308 1_554
Ba5 Ge19 3.632308 1_555
Ba5 Ge37 3.646250 1_554
Ba5 Ge29 3.646250 1_555
Ba5 Ge32 3.664790 1_554
Ba5 Ge35 3.664790 1_555
Ba6 Ge28 3.600955 1_555
Ba6 Ge36 3.600955 1_555
Ba6 Ge34 3.632308 1_565
Ba6 Ge31 3.632308 1_565
Ba6 Ge25 3.646250 1_555
Ba6 Ge17 3.646250 1_555
Ba6 Ge20 3.664790 1_565
Ba6 Ge23 3.664790 1_565
Ba7 Ge18 3.606978 1_555
Ba7 Ge30 3.606978 1_555
Ba7 Ge38 3.624604 1_555
Ba7 Ge26 3.624604 1_455
Ba7 Ge27 3.637872 1_555
Ba7 Ge39 3.637872 1_455
Ba7 Ge21 3.656511 1_455
Ba7 Ge33 3.656511 1_455
Cu0 Ge26 2.435696 1_555
Cu0 Ge18 2.436334 1_655
Cu0 Ge28 2.436783 1_555
Cu0 Ge36 2.436783 1_555
Cu1 Ge38 2.435696 1_555
Cu1 Ge30 2.436334 1_555
Cu1 Ge16 2.436783 1_554
Cu1 Ge24 2.436783 1_555
Ge0 Ge11 2.507624 1_555
Ge0 Ge17 2.530399 1_555
Ge0 Ge16 2.545758 1_555
Ge0 Ge18 2.553265 1_555
Ge1 Ge10 2.495869 1_555
Ge1 Ge20 2.529917 1_555
Ge1 Ge19 2.530750 1_555
Ge1 Ge21 2.532303 1_555
Ge2 Ge9 2.495869 1_555
Ge2 Ge23 2.529917 1_555
Ge2 Ge22 2.530750 1_555
Ge2 Ge21 2.532303 1_555
Ge3 Ge8 2.507624 1_555
Ge10 Ge35 2.529917 1_555
Ge10 Ge34 2.530750 1_555
Ge10 Ge33 2.532303 1_555
Ge11 Ge37 2.530399 1_565
Ge11 Ge36 2.545758 1_455
Ge11 Ge30 2.553265 1_556
Ge12 Ge5 2.501622 1_555
Ge12 Ge31 2.528351 1_455
Ge12 Ge37 2.533061 1_555
Ge12 Ge38 2.549799 1_556
Ge13 Ge4 2.501622 1_555
Ge13 Ge35 2.527326 1_565
Ge13 Ge39 2.535599 1_555
Ge13 Ge28 2.547868 1_555
Ge14 Ge7 2.501622 1_555
Ge14 Ge32 2.527326 1_565
Ge14 Ge39 2.535599 1_556
Ge14 Ge36 2.547868 1_555
Ge15 Ge6 2.501622 1_555
Ge15 Ge34 2.528351 1_455
Ge15 Ge29 2.533061 1_555
Ge15 Ge38 2.549799 1_555
Ge16 Ge5 2.547868 1_555
Ge17 Zn0 2.506659 1_565
Ge17 Ge7 2.533061 1_555
Ge18 Ge3 2.553265 1_555
Ge19 Zn2 2.520623 1_555
Ge19 Ge4 2.528351 1_555
Ge20 Zn3 2.505465 1_555
Ge20 Ge6 2.527326 1_555
Ge21 Zn1 2.517841 1_555
Ge22 Zn2 2.520623 1_556
Ge22 Ge7 2.528351 1_555
Ge23 Zn0 2.505465 1_555
Ge23 Ge5 2.527326 1_555
Ge24 Ge3 2.545758 1_555
Ge24 Ge6 2.547868 1_555
Ge25 Zn3 2.506659 1_565
Ge25 Ge3 2.530399 1_555
Ge25 Ge4 2.533061 1_555
Ge26 Ge4 2.549799 1_555
Ge26 Ge7 2.549799 1_555
Ge27 Zn1 2.518664 1_455
Ge27 Ge6 2.535599 1_555
Ge27 Ge5 2.535599 1_555
Ge28 Ge8 2.545758 1_655
Ge29 Zn3 2.506659 1_555
Ge29 Ge8 2.530399 1_545
Ge30 Ge8 2.553265 1_555
Ge31 Zn1 2.520623 1_555
Ge31 Ge9 2.530750 1_555
Ge32 Zn0 2.505465 1_555
Ge32 Ge9 2.529917 1_555
Ge33 Zn2 2.517841 1_555
Ge33 Ge9 2.532303 1_554
Ge34 Zn1 2.520623 1_555
Ge35 Zn3 2.505465 1_555
Ge37 Zn0 2.506659 1_555
Ge39 Zn2 2.518664 1_555
