# generated using pymatgen
data_Li4Mn3CoO8
_symmetry_space_group_name_H-M   'P 1'
_cell_length_a   6.04308101
_cell_length_b   6.04308101
_cell_length_c   5.34433926
_cell_angle_alpha   69.81405500
_cell_angle_beta   69.81405500
_cell_angle_gamma   57.36644024
_symmetry_Int_Tables_number   1
_chemical_formula_structural   Li4Mn3CoO8
_chemical_formula_sum   'Li4 Mn3 Co1 O8'
_cell_volume   151.11083014
_cell_formula_units_Z   1
loop_
 _symmetry_equiv_pos_site_id
 _symmetry_equiv_pos_as_xyz
  1  'x, y, z'
loop_
 _atom_site_type_symbol
 _atom_site_label
 _atom_site_symmetry_multiplicity
 _atom_site_fract_x
 _atom_site_fract_y
 _atom_site_fract_z
 _atom_site_occupancy
  Li  Li0  1  0.50000000  0.00000000  0.00000000  1
  Li  Li1  1  0.00000000  0.50000000  0.00000000  1
  Li  Li2  1  0.74831300  0.74831300  0.48574300  1
  Li  Li3  1  0.25168700  0.25168700  0.51425700  1
  Mn  Mn0  1  0.50000000  0.50000000  0.00000000  1
  Mn  Mn1  1  0.25057500  0.74942500  0.50000000  1
  Mn  Mn2  1  0.74942500  0.25057500  0.50000000  1
  Co  Co0  1  0.00000000  0.00000000  0.00000000  1
  O  O0  1  0.37642700  0.86231700  0.76902000  1
  O  O1  1  0.86231700  0.37642700  0.76902000  1
  O  O2  1  0.61552800  0.61552800  0.27612300  1
  O  O3  1  0.10390600  0.10390600  0.25197100  1
  O  O4  1  0.62357300  0.13768300  0.23098000  1
  O  O5  1  0.13768300  0.62357300  0.23098000  1
  O  O6  1  0.89609400  0.89609400  0.74802900  1
  O  O7  1  0.38447200  0.38447200  0.72387700  1
loop_
_geom_bond_atom_site_label_1
_geom_bond_atom_site_label_2
_geom_bond_distance
_geom_bond_site_symmetry_2
Li0 O2 2.158379 1_545
Li0 O7 2.158379 1_554
Li0 O3 2.162204 1_555
Li0 O6 2.162204 1_544
Li0 O4 2.188354 1_555
Li0 O0 2.188354 1_544
Li1 O7 2.158379 1_554
Li1 O2 2.158379 1_455
Li1 O3 2.162204 1_555
Li1 O6 2.162204 1_454
Li1 O5 2.188354 1_555
Li1 O1 2.188354 1_454
Li2 O2 2.116145 1_555
Li2 O1 2.125803 1_555
Li2 O0 2.125803 1_555
Li2 O5 2.131416 1_655
Li2 O4 2.131416 1_565
Li2 O6 2.479520 1_555
Li3 O7 2.116145 1_555
Li3 O4 2.125803 1_555
Li3 O5 2.125803 1_555
Li3 O1 2.131416 1_455
Li3 O0 2.131416 1_545
Li3 O3 2.479520 1_555
Mn0 O0 1.970503 1_554
Mn0 O1 1.970503 1_554
Mn0 O4 1.970503 1_555
Mn0 O5 1.970503 1_555
Mn0 O2 2.258361 1_555
Mn0 O7 2.258361 1_554
Mn1 O2 1.967896 1_555
Mn1 O7 1.967896 1_555
Mn1 O6 1.983660 1_455
Mn1 O3 1.983660 1_565
Mn1 O0 2.258770 1_555
Mn1 O5 2.258770 1_555
Mn2 O2 1.967896 1_555
Mn2 O7 1.967896 1_555
Mn2 O6 1.983660 1_545
Mn2 O3 1.983660 1_655
Mn2 O1 2.258770 1_555
Mn2 O4 2.258770 1_555
Co0 O1 2.029850 1_454
Co0 O0 2.029850 1_544
Co0 O5 2.029850 1_545
Co0 O4 2.029850 1_455
Co0 O3 2.047991 1_555
Co0 O6 2.047991 1_444
