# generated using pymatgen
data_Mg6CdCu
_symmetry_space_group_name_H-M   'P 1'
_cell_length_a   4.94454200
_cell_length_b   6.30773200
_cell_length_c   10.58563000
_cell_angle_alpha   90.00000000
_cell_angle_beta   90.00000000
_cell_angle_gamma   90.00000000
_symmetry_Int_Tables_number   1
_chemical_formula_structural   Mg6CdCu
_chemical_formula_sum   'Mg12 Cd2 Cu2'
_cell_volume   330.15358175
_cell_formula_units_Z   2
loop_
 _symmetry_equiv_pos_site_id
 _symmetry_equiv_pos_as_xyz
  1  'x, y, z'
loop_
 _atom_site_type_symbol
 _atom_site_label
 _atom_site_symmetry_multiplicity
 _atom_site_fract_x
 _atom_site_fract_y
 _atom_site_fract_z
 _atom_site_occupancy
  Mg  Mg0  1  0.50000000  0.25057800  0.08477800  1
  Mg  Mg1  1  0.50000000  0.74942200  0.08477800  1
  Mg  Mg2  1  0.00000000  0.24203100  0.91352200  1
  Mg  Mg3  1  0.00000000  0.75796900  0.91352200  1
  Mg  Mg4  1  0.00000000  0.50000000  0.17117700  1
  Mg  Mg5  1  0.00000000  0.50000000  0.66634000  1
  Mg  Mg6  1  0.50000000  0.75057800  0.58477800  1
  Mg  Mg7  1  0.50000000  0.24942200  0.58477800  1
  Mg  Mg8  1  0.00000000  0.74203100  0.41352200  1
  Mg  Mg9  1  0.00000000  0.25796900  0.41352200  1
  Mg  Mg10  1  0.00000000  0.00000000  0.67117700  1
  Mg  Mg11  1  0.00000000  0.00000000  0.16634000  1
  Cd  Cd0  1  0.50000000  0.50000000  0.83329500  1
  Cd  Cd1  1  0.50000000  0.00000000  0.33329500  1
  Cu  Cu0  1  0.50000000  0.50000000  0.33259000  1
  Cu  Cu1  1  0.50000000  0.00000000  0.83259000  1
loop_
_geom_bond_atom_site_label_1
_geom_bond_atom_site_label_2
_geom_bond_distance
_geom_bond_site_symmetry_2
Mg0 Mg11 3.058723 1_655
Mg0 Mg11 3.058723 1_555
Mg0 Mg2 3.066181 1_654
Mg0 Mg2 3.066181 1_554
Mg0 Mg4 3.069825 1_555
Mg0 Mg4 3.069825 1_655
Mg0 Mg1 3.146574 1_555
Mg0 Mg1 3.161158 1_545
Mg1 Mg11 3.058723 1_565
Mg1 Mg11 3.058723 1_665
Mg1 Mg3 3.066181 1_554
Mg1 Mg3 3.066181 1_654
Mg1 Mg4 3.069825 1_555
Mg1 Mg4 3.069825 1_655
Mg2 Mg3 3.053333 1_545
Mg2 Mg5 3.081275 1_555
Mg2 Mg4 3.175958 1_556
Mg2 Mg3 3.254399 1_555
Mg3 Mg5 3.081275 1_555
Mg3 Mg4 3.175958 1_556
Mg4 Mg9 2.985273 1_555
Mg4 Mg8 2.985273 1_555
Mg5 Mg6 3.058723 1_455
Mg5 Mg6 3.058723 1_555
Mg5 Mg7 3.058723 1_455
Mg5 Mg7 3.058723 1_555
Mg5 Mg9 3.081065 1_555
Mg5 Mg8 3.081065 1_555
Mg6 Mg8 3.066181 1_555
Mg6 Mg8 3.066181 1_655
Mg6 Mg7 3.146574 1_565
Mg6 Mg7 3.161158 1_555
Mg7 Mg9 3.066181 1_655
Mg7 Mg9 3.066181 1_555
Mg8 Mg9 3.053333 1_555
Mg8 Mg9 3.254399 1_565
Mg10 Mg2 2.985273 1_555
Mg10 Mg3 2.985273 1_545
Mg10 Mg7 3.069825 1_455
Mg10 Mg7 3.069825 1_555
Mg10 Mg6 3.069825 1_545
Mg10 Mg6 3.069825 1_445
Mg10 Mg5 3.154282 1_545
Mg10 Mg5 3.154282 1_555
Mg10 Mg8 3.175958 1_545
Mg10 Mg9 3.175958 1_555
Mg11 Mg3 3.081065 1_544
Mg11 Mg2 3.081065 1_554
Mg11 Mg8 3.081275 1_545
Mg11 Mg9 3.081275 1_555
Mg11 Mg4 3.154282 1_545
Mg11 Mg4 3.154282 1_555
Cd0 Mg5 3.039006 1_655
Cd0 Mg5 3.039006 1_555
Cd0 Mg6 3.069016 1_555
Cd0 Mg7 3.069016 1_555
Cd0 Mg3 3.079145 1_655
Cd0 Mg2 3.079145 1_555
Cd0 Mg2 3.079145 1_655
Cd0 Mg3 3.079145 1_555
Cd0 Mg1 3.092255 1_556
Cd0 Mg0 3.092255 1_556
Cd0 Cu1 3.153875 1_555
Cd0 Cu1 3.153875 1_565
Cd1 Mg11 3.039006 1_555
Cd1 Mg11 3.039006 1_655
Cd1 Mg0 3.069016 1_555
Cd1 Mg1 3.069016 1_545
Cd1 Mg8 3.079145 1_645
Cd1 Mg8 3.079145 1_545
Cd1 Mg9 3.079145 1_555
Cd1 Mg9 3.079145 1_655
Cd1 Mg7 3.092255 1_555
Cd1 Mg6 3.092255 1_545
Cd1 Cu0 3.153875 1_555
Cd1 Cu0 3.153875 1_545
Cu0 Mg4 3.005268 1_555
Cu0 Mg4 3.005268 1_655
Cu0 Mg9 3.029323 1_555
Cu0 Mg8 3.029323 1_655
Cu0 Mg9 3.029323 1_655
Cu0 Mg8 3.029323 1_555
Cu0 Mg1 3.058865 1_555
Cu0 Mg0 3.058865 1_555
Cu0 Mg6 3.102391 1_555
Cu0 Mg7 3.102391 1_555
Cu1 Mg10 3.005268 1_555
Cu1 Mg10 3.005268 1_655
Cu1 Mg2 3.029323 1_655
Cu1 Mg2 3.029323 1_555
Cu1 Mg3 3.029323 1_545
Cu1 Mg3 3.029323 1_645
Cu1 Mg7 3.058865 1_555
Cu1 Mg6 3.058865 1_545
Cu1 Mg0 3.102391 1_556
Cu1 Mg1 3.102391 1_546
