# generated using pymatgen
data_La2(Al3Ir)3
_symmetry_space_group_name_H-M   'P 1'
_cell_length_a   7.61883549
_cell_length_b   7.61883549
_cell_length_c   9.64570873
_cell_angle_alpha   90.00000000
_cell_angle_beta   90.00000000
_cell_angle_gamma   119.30322874
_symmetry_Int_Tables_number   1
_chemical_formula_structural   La2(Al3Ir)3
_chemical_formula_sum   'La4 Al18 Ir6'
_cell_volume   488.25712065
_cell_formula_units_Z   2
loop_
 _symmetry_equiv_pos_site_id
 _symmetry_equiv_pos_as_xyz
  1  'x, y, z'
loop_
 _atom_site_type_symbol
 _atom_site_label
 _atom_site_symmetry_multiplicity
 _atom_site_fract_x
 _atom_site_fract_y
 _atom_site_fract_z
 _atom_site_occupancy
  La  La0  1  0.99567990  0.67045304  0.25000000  1
  La  La1  1  0.00432010  0.32954696  0.75000000  1
  La  La2  1  0.67045304  0.99567990  0.25000000  1
  La  La3  1  0.32954696  0.00432010  0.75000000  1
  Al  Al0  1  0.13314202  0.13314202  0.25000000  1
  Al  Al1  1  0.86685798  0.86685798  0.75000000  1
  Al  Al2  1  0.00465440  0.33541549  0.07159739  1
  Al  Al3  1  0.99534560  0.66458451  0.92840261  1
  Al  Al4  1  0.99534560  0.66458451  0.57159739  1
  Al  Al5  1  0.33541549  0.00465440  0.42840261  1
  Al  Al6  1  0.00465440  0.33541549  0.42840261  1
  Al  Al7  1  0.66458451  0.99534560  0.57159739  1
  Al  Al8  1  0.66458451  0.99534560  0.92840261  1
  Al  Al9  1  0.33541549  0.00465440  0.07159739  1
  Al  Al10  1  0.33510373  0.33510373  0.54166081  1
  Al  Al11  1  0.66489627  0.66489627  0.45833919  1
  Al  Al12  1  0.66489627  0.66489627  0.04166081  1
  Al  Al13  1  0.33510373  0.33510373  0.95833919  1
  Al  Al14  1  0.33931209  0.54387462  0.25000000  1
  Al  Al15  1  0.66068791  0.45612538  0.75000000  1
  Al  Al16  1  0.54387462  0.33931209  0.25000000  1
  Al  Al17  1  0.45612538  0.66068791  0.75000000  1
  Ir  Ir0  1  0.67074915  0.32925085  -0.00000000  1
  Ir  Ir1  1  0.32925085  0.67074915  -0.00000000  1
  Ir  Ir2  1  0.32925085  0.67074915  0.50000000  1
  Ir  Ir3  1  0.67074915  0.32925085  0.50000000  1
  Ir  Ir4  1  0.00000000  0.00000000  -0.00000000  1
  Ir  Ir5  1  0.00000000  0.00000000  0.50000000  1
loop_
_geom_bond_atom_site_label_1
_geom_bond_atom_site_label_2
_geom_bond_distance
_geom_bond_site_symmetry_2
Al0 Ir5 2.620250 1_555
Al0 Ir4 2.620250 1_555
Al0 Al14 2.729165 1_555
Al0 Al16 2.729165 1_555
Al0 Al5 2.787686 1_555
Al0 Al2 2.787686 1_555
Al0 Al9 2.787686 1_555
Al0 Al6 2.787686 1_555
Al0 La2 3.147963 1_445
Al0 La0 3.147963 1_445
Al1 Ir5 2.620250 1_665
Al1 Ir4 2.620250 1_666
Al1 Al15 2.729165 1_555
Al1 Al17 2.729165 1_555
Al1 Al8 2.787686 1_555
Al1 Al3 2.787686 1_555
Al1 Al7 2.787686 1_555
Al1 Al4 2.787686 1_555
Al1 La1 3.147963 1_665
Al1 La3 3.147963 1_665
Al2 Ir0 2.614185 1_455
Al2 Ir4 2.630579 1_555
Al2 Ir1 2.633524 1_555
Al2 Al3 2.894197 1_454
Al2 Al8 2.960169 1_444
Al2 La1 3.102340 1_554
Al2 La0 3.106845 1_455
Al2 La2 3.113346 1_445
Al3 Ir1 2.614185 1_656
Al3 Ir4 2.630579 1_666
Al3 Ir0 2.633524 1_556
Al3 Al9 2.960169 1_666
Al3 La0 3.102340 1_556
Al3 La1 3.106845 1_655
Al3 La3 3.113346 1_665
Al4 Ir2 2.614185 1_655
Al4 Ir5 2.630579 1_665
Al4 Ir3 2.633524 1_555
Al4 Al6 2.894197 1_655
Al4 Al5 2.960169 1_665
Al4 La0 3.102340 1_555
Al4 La1 3.106845 1_655
Al4 La3 3.113346 1_665
Al5 Ir2 2.614185 1_545
Al5 Ir5 2.630579 1_555
Al5 Ir3 2.633524 1_555
Al5 Al7 2.894197 1_545
Al5 La3 3.102340 1_555
Al5 La2 3.106845 1_545
Al5 La0 3.113346 1_445
Al6 Ir3 2.614185 1_455
Al6 Ir5 2.630579 1_555
Al6 Ir2 2.633524 1_555
Al6 Al7 2.960169 1_445
Al6 La1 3.102340 1_555
Al6 La0 3.106845 1_455
Al6 La2 3.113346 1_445
Al7 Ir3 2.614185 1_565
Al7 Ir5 2.630579 1_665
Al7 Ir2 2.633524 1_555
Al7 La2 3.102340 1_555
Al7 La3 3.106845 1_565
Al7 La1 3.113346 1_665
Al8 Ir0 2.614185 1_566
Al8 Ir4 2.630579 1_666
Al8 Ir1 2.633524 1_556
Al8 Al9 2.894197 1_566
Al8 La2 3.102340 1_556
Al8 La3 3.106845 1_565
Al8 La1 3.113346 1_665
Al9 Ir1 2.614185 1_545
Al9 Ir4 2.630579 1_555
Al9 Ir0 2.633524 1_555
Al9 La3 3.102340 1_554
Al9 La2 3.106845 1_545
Al9 La0 3.113346 1_445
Al10 Ir3 2.610460 1_555
Al10 Ir2 2.610460 1_555
Al10 Ir5 2.611049 1_555
Al10 Al11 2.663214 1_555
Al10 Al5 2.745510 1_555
Al10 Al6 2.745510 1_555
Al10 Al15 2.966978 1_555
Al10 Al17 2.966978 1_555
Al10 La3 3.207351 1_555
Al10 La1 3.207351 1_555
Al11 Ir3 2.610460 1_555
Al11 Ir2 2.610460 1_555
Al11 Ir5 2.611049 1_665
Al11 Al7 2.745510 1_555
Al11 Al4 2.745510 1_555
Al11 Al16 2.966978 1_555
Al11 Al14 2.966978 1_555
Al11 La2 3.207351 1_555
Al11 La0 3.207351 1_555
Al12 Ir0 2.610460 1_555
Al12 Ir1 2.610460 1_555
Al12 Ir4 2.611049 1_665
Al12 Al13 2.663214 1_554
Al12 Al8 2.745510 1_554
Al12 Al3 2.745510 1_554
Al12 Al16 2.966978 1_555
Al12 Al14 2.966978 1_555
Al12 La2 3.207351 1_555
Al12 La0 3.207351 1_555
Al13 Ir0 2.610460 1_556
Al13 Ir1 2.610460 1_556
Al13 Ir4 2.611049 1_556
Al13 Al9 2.745510 1_556
Al13 Al2 2.745510 1_556
Al13 Al15 2.966978 1_555
Al13 Al17 2.966978 1_555
Al13 La3 3.207351 1_555
Al13 La1 3.207351 1_555
Al14 Ir2 2.613001 1_555
Al14 Ir1 2.613001 1_555
Al14 Al16 2.689924 1_555
Al14 Al6 2.832092 1_555
Al14 Al2 2.832092 1_555
Al14 La2 3.116592 1_555
Al14 La0 3.202470 1_455
Al15 Ir0 2.613001 1_556
Al15 Ir3 2.613001 1_555
Al15 Al17 2.689924 1_555
Al15 Al4 2.832092 1_555
Al15 Al3 2.832092 1_555
Al15 La3 3.116592 1_555
Al15 La1 3.202470 1_655
Al16 Ir0 2.613001 1_555
Al16 Ir3 2.613001 1_555
Al16 Al5 2.832092 1_555
Al16 Al9 2.832092 1_555
Al16 La0 3.116592 1_555
Al16 La2 3.202470 1_545
Al17 Ir2 2.613001 1_555
Al17 Ir1 2.613001 1_556
Al17 Al8 2.832092 1_555
Al17 Al7 2.832092 1_555
Al17 La1 3.116592 1_555
Al17 La3 3.202470 1_565
