# generated using pymatgen
data_Dy3ReB7
_symmetry_space_group_name_H-M   'P 1'
_cell_length_a   8.09792605
_cell_length_b   8.09792605
_cell_length_c   9.36364500
_cell_angle_alpha   90.00000000
_cell_angle_beta   90.00000000
_cell_angle_gamma   154.74998492
_symmetry_Int_Tables_number   1
_chemical_formula_structural   Dy3ReB7
_chemical_formula_sum   'Dy6 Re2 B14'
_cell_volume   261.92793645
_cell_formula_units_Z   2
loop_
 _symmetry_equiv_pos_site_id
 _symmetry_equiv_pos_as_xyz
  1  'x, y, z'
loop_
 _atom_site_type_symbol
 _atom_site_label
 _atom_site_symmetry_multiplicity
 _atom_site_fract_x
 _atom_site_fract_y
 _atom_site_fract_z
 _atom_site_occupancy
  Dy  Dy0  1  0.89461800  0.10538200  0.44014800  1
  Dy  Dy1  1  0.10538200  0.89461800  0.55985200  1
  Dy  Dy2  1  0.89461800  0.10538200  0.05985200  1
  Dy  Dy3  1  0.10538200  0.89461800  0.94014800  1
  Dy  Dy4  1  0.24222800  0.75777200  0.25000000  1
  Dy  Dy5  1  0.75777200  0.24222800  0.75000000  1
  Re  Re0  1  0.05316900  0.94683100  0.25000000  1
  Re  Re1  1  0.94683100  0.05316900  0.75000000  1
  B  B0  1  0.72690100  0.27309900  0.46658300  1
  B  B1  1  0.27309900  0.72690100  0.53341700  1
  B  B2  1  0.72690100  0.27309900  0.03341700  1
  B  B3  1  0.27309900  0.72690100  0.96658300  1
  B  B4  1  0.63195600  0.36804400  0.15054400  1
  B  B5  1  0.36804400  0.63195600  0.84945600  1
  B  B6  1  0.63195600  0.36804400  0.34945600  1
  B  B7  1  0.36804400  0.63195600  0.65054400  1
  B  B8  1  0.52050100  0.47949900  0.09530800  1
  B  B9  1  0.47949900  0.52050100  0.90469200  1
  B  B10  1  0.52050100  0.47949900  0.40469200  1
  B  B11  1  0.47949900  0.52050100  0.59530800  1
  B  B12  1  0.45715300  0.54284700  0.25000000  1
  B  B13  1  0.54284700  0.45715300  0.75000000  1
loop_
_geom_bond_atom_site_label_1
_geom_bond_atom_site_label_2
_geom_bond_distance
_geom_bond_site_symmetry_2
B0 B6 1.858611 1_555
B0 B1 2.014316 1_655
B0 B1 2.014316 1_545
B0 Dy0 2.662176 1_555
B0 Dy5 2.698292 1_555
B0 Dy4 2.702635 1_655
B0 Dy4 2.702635 1_545
B0 Dy1 2.753880 1_655
B0 Dy1 2.753880 1_545
B1 B7 1.858611 1_555
B1 Dy1 2.662176 1_555
B1 Dy4 2.698292 1_555
B1 Dy5 2.702635 1_455
B1 Dy5 2.702635 1_565
B1 Dy0 2.753880 1_565
B1 Dy0 2.753880 1_455
B2 B4 1.858611 1_555
B2 B3 2.014316 1_544
B2 B3 2.014316 1_654
B2 Dy2 2.662176 1_555
B2 Dy5 2.698292 1_554
B2 Dy4 2.702635 1_655
B2 Dy4 2.702635 1_545
B2 Dy3 2.753880 1_654
B2 Dy3 2.753880 1_544
B3 B5 1.858611 1_555
B3 Dy3 2.662176 1_555
B3 Dy4 2.698292 1_556
B3 Dy5 2.702635 1_455
B3 Dy5 2.702635 1_565
B3 Dy2 2.753880 1_566
B3 Dy2 2.753880 1_456
B4 B8 1.835827 1_555
B4 B6 1.862541 1_555
B4 Re0 2.355942 1_655
B4 Re0 2.355942 1_545
B4 Dy4 2.652782 1_655
B4 Dy4 2.652782 1_545
B4 Dy3 2.681478 1_654
B4 Dy3 2.681478 1_544
B5 B9 1.835827 1_555
B5 B7 1.862541 1_555
B5 Re1 2.355942 1_455
B5 Re1 2.355942 1_565
B5 Dy5 2.652782 1_455
B5 Dy5 2.652782 1_565
B5 Dy2 2.681478 1_566
B5 Dy2 2.681478 1_456
B6 Re0 2.355942 1_655
B6 Re0 2.355942 1_545
B6 Dy4 2.652782 1_655
B6 Dy4 2.652782 1_545
B6 Dy1 2.681478 1_655
B6 Dy1 2.681478 1_545
B7 Re1 2.355942 1_455
B7 Re1 2.355942 1_565
B7 Dy5 2.652782 1_455
B7 Dy5 2.652782 1_565
B7 Dy0 2.681478 1_565
B7 Dy0 2.681478 1_455
B8 B9 1.898852 1_554
B8 Re0 2.344654 1_545
B8 Re0 2.344654 1_655
B8 Dy3 2.653890 1_654
B8 Dy3 2.653890 1_544
B8 Dy2 2.683474 1_565
B8 Dy2 2.683474 1_455
B9 Re1 2.344654 1_455
B9 Re1 2.344654 1_565
B9 Dy2 2.653890 1_566
B9 Dy2 2.653890 1_456
B9 Dy3 2.683474 1_655
B9 Dy3 2.683474 1_545
B10 B12 1.760805 1_555
B10 B6 1.835827 1_555
B10 B11 1.898852 1_555
B10 Re0 2.344654 1_545
B10 Re0 2.344654 1_655
B10 Dy1 2.653890 1_655
B10 Dy1 2.653890 1_545
B10 Dy0 2.683474 1_565
B10 Dy0 2.683474 1_455
B11 B13 1.760805 1_555
B11 B7 1.835827 1_555
B11 Re1 2.344654 1_455
B11 Re1 2.344654 1_565
B11 Dy0 2.653890 1_565
B11 Dy0 2.653890 1_455
B11 Dy1 2.683474 1_655
B11 Dy1 2.683474 1_545
B12 B8 1.760805 1_555
B12 Re0 2.331403 1_545
B12 Re0 2.331403 1_655
B12 Dy0 2.698078 1_565
B12 Dy0 2.698078 1_455
B12 Dy2 2.698078 1_565
B12 Dy2 2.698078 1_455
B12 Dy4 3.396731 1_555
B13 B9 1.760805 1_555
B13 Re1 2.331403 1_455
B13 Re1 2.331403 1_565
B13 Dy3 2.698078 1_655
B13 Dy1 2.698078 1_655
B13 Dy3 2.698078 1_545
B13 Dy1 2.698078 1_545
B13 Dy5 3.396731 1_555
