# generated using pymatgen
data_Rb3PrF6
_symmetry_space_group_name_H-M   'P 1'
_cell_length_a   7.21843109
_cell_length_b   7.21843109
_cell_length_c   7.21843109
_cell_angle_alpha   117.14259827
_cell_angle_beta   117.14259827
_cell_angle_gamma   95.02478834
_symmetry_Int_Tables_number   1
_chemical_formula_structural   Rb3PrF6
_chemical_formula_sum   'Rb3 Pr1 F6'
_cell_volume   276.29507484
_cell_formula_units_Z   1
loop_
 _symmetry_equiv_pos_site_id
 _symmetry_equiv_pos_as_xyz
  1  'x, y, z'
loop_
 _atom_site_type_symbol
 _atom_site_label
 _atom_site_symmetry_multiplicity
 _atom_site_fract_x
 _atom_site_fract_y
 _atom_site_fract_z
 _atom_site_occupancy
  Rb  Rb0  1  0.75000000  0.25000000  0.50000000  1
  Rb  Rb1  1  0.25000000  0.75000000  0.50000000  1
  Rb  Rb2  1  0.50000000  0.50000000  0.00000000  1
  Pr  Pr0  1  0.00000000  0.00000000  0.00000000  1
  F  F0  1  0.00000000  0.30758100  0.30758100  1
  F  F1  1  0.00000000  0.69241900  0.69241900  1
  F  F2  1  0.30758100  0.00000000  0.30758100  1
  F  F3  1  0.69241900  0.00000000  0.69241900  1
  F  F4  1  0.23840700  0.23840700  0.00000000  1
  F  F5  1  0.76159300  0.76159300  0.00000000  1
loop_
_geom_bond_atom_site_label_1
_geom_bond_atom_site_label_2
_geom_bond_distance
_geom_bond_site_symmetry_2
F0 Pr0 2.315444 1_555
F0 Rb1 2.835655 1_555
F0 Rb0 2.835655 1_455
F1 Pr0 2.315444 1_566
F1 Rb1 2.835655 1_555
F1 Rb0 2.835655 1_455
F2 Pr0 2.315444 1_555
F2 Rb0 2.835655 1_555
F2 Rb1 2.835655 1_545
F3 Pr0 2.315444 1_656
F3 Rb0 2.835655 1_555
F3 Rb1 2.835655 1_545
F4 Pr0 2.324730 1_555
F4 Rb2 2.550820 1_555
F5 Pr0 2.324730 1_665
F5 Rb2 2.550820 1_555
