# generated using pymatgen
data_Ba2Cd2As3
_symmetry_space_group_name_H-M   'P 1'
_cell_length_a   4.59821562
_cell_length_b   8.99100689
_cell_length_c   10.62418940
_cell_angle_alpha   81.52521528
_cell_angle_beta   77.50214988
_cell_angle_gamma   75.18423525
_symmetry_Int_Tables_number   1
_chemical_formula_structural   Ba2Cd2As3
_chemical_formula_sum   'Ba4 Cd4 As6'
_cell_volume   412.59072075
_cell_formula_units_Z   2
loop_
 _symmetry_equiv_pos_site_id
 _symmetry_equiv_pos_as_xyz
  1  'x, y, z'
loop_
 _atom_site_type_symbol
 _atom_site_label
 _atom_site_symmetry_multiplicity
 _atom_site_fract_x
 _atom_site_fract_y
 _atom_site_fract_z
 _atom_site_occupancy
  Ba  Ba0  1  0.26858602  0.13069314  0.33213582  1
  Ba  Ba1  1  0.73141398  0.86930686  0.66786418  1
  Ba  Ba2  1  0.39265106  0.26289853  0.95180034  1
  Ba  Ba3  1  0.60734894  0.73710147  0.04819966  1
  Cd  Cd0  1  0.04098304  0.23266672  0.68536820  1
  Cd  Cd1  1  0.95901696  0.76733328  0.31463180  1
  Cd  Cd2  1  0.41070555  0.52701250  0.65157641  1
  Cd  Cd3  1  0.58929445  0.47298750  0.34842359  1
  As  As0  1  0.07173239  0.97316748  0.88336874  1
  As  As1  1  0.92826761  0.02683252  0.11663126  1
  As  As2  1  0.15130785  0.49580423  0.20158207  1
  As  As3  1  0.84869215  0.50419577  0.79841793  1
  As  As4  1  0.38537200  0.76884828  0.46040771  1
  As  As5  1  0.61462800  0.23115172  0.53959229  1
loop_
_geom_bond_atom_site_label_1
_geom_bond_atom_site_label_2
_geom_bond_distance
_geom_bond_site_symmetry_2
Ba2 Cd0 3.624057 1_555
Ba2 Cd0 3.624058 1_655
Ba2 Cd2 3.684202 1_555
Ba3 Cd1 3.624057 1_555
Ba3 Cd1 3.624058 1_455
Ba3 Cd3 3.684202 1_555
As0 As1 2.508322 1_466
As0 Cd0 2.898642 1_565
As0 Ba1 3.389841 1_555
As0 Ba1 3.389846 1_455
As0 Ba3 3.425651 1_556
As0 Ba3 3.425657 1_456
As0 Ba2 3.532775 1_565
As0 Ba2 3.532776 1_465
As1 Cd1 2.898642 1_545
As1 Ba0 3.389841 1_555
As1 Ba0 3.389846 1_655
As1 Ba2 3.425651 1_554
As1 Ba2 3.425657 1_654
As1 Ba3 3.532775 1_545
As1 Ba3 3.532776 1_645
As2 Cd1 2.735883 1_455
As2 Cd3 2.754296 1_555
As2 Cd3 2.754304 1_455
As2 Ba0 3.326741 1_555
As2 Ba3 3.400765 1_555
As2 Ba3 3.400775 1_455
As2 Ba2 3.440020 1_554
As3 Cd0 2.735883 1_655
As3 Cd2 2.754296 1_555
As3 Cd2 2.754304 1_655
As3 Ba1 3.326741 1_555
As3 Ba2 3.400765 1_555
As3 Ba2 3.400775 1_655
As3 Ba3 3.440020 1_556
As4 Cd2 2.745466 1_555
As4 Cd1 2.752498 1_555
As4 Cd1 2.752501 1_455
As4 Cd3 2.923204 1_555
As4 Ba0 3.293370 1_565
As4 Ba1 3.323428 1_555
As4 Ba1 3.323432 1_455
As5 Cd3 2.745466 1_555
As5 Cd0 2.752498 1_555
As5 Cd0 2.752501 1_655
As5 Cd2 2.923204 1_555
As5 Ba1 3.293370 1_545
As5 Ba0 3.323428 1_555
As5 Ba0 3.323432 1_655
