# generated using pymatgen
data_BaB2O9
_symmetry_space_group_name_H-M   'P 1'
_cell_length_a   9.31793100
_cell_length_b   6.46878300
_cell_length_c   13.26516608
_cell_angle_alpha   81.66009318
_cell_angle_beta   90.00000000
_cell_angle_gamma   90.00000000
_symmetry_Int_Tables_number   1
_chemical_formula_structural   BaB2O9
_chemical_formula_sum   'Ba4 B8 O36'
_cell_volume   791.11140548
_cell_formula_units_Z   4
loop_
 _symmetry_equiv_pos_site_id
 _symmetry_equiv_pos_as_xyz
  1  'x, y, z'
loop_
 _atom_site_type_symbol
 _atom_site_label
 _atom_site_symmetry_multiplicity
 _atom_site_fract_x
 _atom_site_fract_y
 _atom_site_fract_z
 _atom_site_occupancy
  Ba  Ba0  1  0.51827800  0.87622900  0.70311400  1
  Ba  Ba1  1  0.01827800  0.12377100  0.79688600  1
  Ba  Ba2  1  0.48172200  0.12377100  0.29688600  1
  Ba  Ba3  1  0.98172200  0.87622900  0.20311400  1
  B  B0  1  0.85532100  0.85812900  0.63221200  1
  B  B1  1  0.35532100  0.14187100  0.86778800  1
  B  B2  1  0.14467900  0.14187100  0.36778800  1
  B  B3  1  0.64467900  0.85812900  0.13221200  1
  B  B4  1  0.28463000  0.75005900  0.50870200  1
  B  B5  1  0.78463000  0.24994100  0.99129800  1
  B  B6  1  0.71537000  0.24994100  0.49129800  1
  B  B7  1  0.21537000  0.75005900  0.00870200  1
  O  O0  1  0.95657200  0.00461700  0.59135300  1
  O  O1  1  0.45657200  0.99538300  0.90864700  1
  O  O2  1  0.04342800  0.99538300  0.40864700  1
  O  O3  1  0.54342800  0.00461700  0.09135300  1
  O  O4  1  0.81308300  0.87557600  0.73087600  1
  O  O5  1  0.31308300  0.12442400  0.76912400  1
  O  O6  1  0.18691700  0.12442400  0.26912400  1
  O  O7  1  0.68691700  0.87557600  0.23087600  1
  O  O8  1  0.78518600  0.69793400  0.59910900  1
  O  O9  1  0.28518600  0.30206600  0.90089100  1
  O  O10  1  0.21481400  0.30206600  0.40089100  1
  O  O11  1  0.71481400  0.69793400  0.09910900  1
  O  O12  1  0.09622600  0.56556000  0.70015000  1
  O  O13  1  0.59622600  0.43444000  0.79985000  1
  O  O14  1  0.90377400  0.43444000  0.29985000  1
  O  O15  1  0.40377400  0.56556000  0.20015000  1
  O  O16  1  0.29282600  0.92199500  0.56815400  1
  O  O17  1  0.79282600  0.07800500  0.93184600  1
  O  O18  1  0.70717400  0.07800500  0.43184600  1
  O  O19  1  0.20717400  0.92199500  0.06815400  1
  O  O20  1  0.38358000  0.80746600  0.42845400  1
  O  O21  1  0.88358000  0.19253400  0.07154600  1
  O  O22  1  0.61642000  0.19253400  0.57154600  1
  O  O23  1  0.11642000  0.80746600  0.92845400  1
  O  O24  1  0.14346300  0.68741200  0.48443500  1
  O  O25  1  0.64346300  0.31258800  0.01556500  1
  O  O26  1  0.85653700  0.31258800  0.51556500  1
  O  O27  1  0.35653700  0.68741200  0.98443500  1
  O  O28  1  0.37210600  0.61003500  0.58093100  1
  O  O29  1  0.87210600  0.38996500  0.91906900  1
  O  O30  1  0.62789400  0.38996500  0.41906900  1
  O  O31  1  0.12789400  0.61003500  0.08093100  1
  O  O32  1  0.17176800  0.67186600  0.74854300  1
  O  O33  1  0.67176800  0.32813400  0.75145700  1
  O  O34  1  0.82823200  0.32813400  0.25145700  1
  O  O35  1  0.32823200  0.67186600  0.24854300  1
loop_
_geom_bond_atom_site_label_1
_geom_bond_atom_site_label_2
_geom_bond_distance
_geom_bond_site_symmetry_2
Ba0 O22 2.651959 1_565
Ba0 O5 2.721758 1_565
Ba0 O16 2.748106 1_555
Ba0 O4 2.771470 1_555
Ba0 O28 2.873456 1_555
Ba0 O1 2.994618 1_555
Ba0 O13 3.045913 1_555
Ba0 O8 3.143335 1_555
Ba1 O23 2.651959 1_545
Ba1 O4 2.721758 1_445
Ba1 O17 2.748106 1_455
Ba1 O5 2.771470 1_555
Ba1 O29 2.873456 1_455
Ba1 O0 2.994618 1_455
Ba1 O12 3.045913 1_555
Ba1 O9 3.143335 1_555
Ba2 O20 2.651959 1_545
Ba2 O7 2.721758 1_545
Ba2 O18 2.748106 1_555
Ba2 O6 2.771470 1_555
Ba2 O30 2.873456 1_555
Ba2 O3 2.994618 1_555
Ba2 O15 3.045913 1_555
Ba2 O10 3.143335 1_555
Ba3 O21 2.651959 1_565
Ba3 O6 2.721758 1_665
Ba3 O19 2.748106 1_655
Ba3 O7 2.771470 1_555
Ba3 O31 2.873456 1_655
Ba3 O2 2.994618 1_655
Ba3 O14 3.045913 1_555
Ba3 O11 3.143335 1_555
B0 O8 1.351205 1_555
B0 O4 1.386877 1_555
B0 O0 1.390258 1_565
B1 O9 1.351205 1_555
B1 O5 1.386877 1_555
B1 O1 1.390258 1_545
B2 O10 1.351205 1_555
B2 O6 1.386877 1_555
B2 O2 1.390258 1_545
B3 O11 1.351205 1_555
B3 O7 1.386877 1_555
B3 O3 1.390258 1_565
B4 O20 1.416509 1_555
B4 O24 1.426860 1_555
B4 O16 1.455769 1_555
B4 O28 1.466656 1_555
B5 O21 1.416509 1_556
B5 O25 1.426860 1_556
B5 O17 1.455769 1_555
B5 O29 1.466656 1_555
B6 O22 1.416509 1_555
B6 O26 1.426860 1_555
B6 O18 1.455769 1_555
B6 O30 1.466656 1_555
B7 O23 1.416509 1_554
B7 O27 1.426860 1_554
B7 O19 1.455769 1_555
B7 O31 1.466656 1_555
O12 O32 1.228213 1_555
O13 O33 1.228213 1_555
O14 O34 1.228213 1_555
O15 O35 1.228213 1_555
