# generated using pymatgen
data_Ce3Ni2Ge7
_symmetry_space_group_name_H-M   'P 1'
_cell_length_a   12.81839356
_cell_length_b   12.81839356
_cell_length_c   4.28282400
_cell_angle_alpha   90.00000000
_cell_angle_beta   90.00000000
_cell_angle_gamma   160.85893415
_symmetry_Int_Tables_number   1
_chemical_formula_structural   Ce3Ni2Ge7
_chemical_formula_sum   'Ce3 Ni2 Ge7'
_cell_volume   230.74502553
_cell_formula_units_Z   1
loop_
 _symmetry_equiv_pos_site_id
 _symmetry_equiv_pos_as_xyz
  1  'x, y, z'
loop_
 _atom_site_type_symbol
 _atom_site_label
 _atom_site_symmetry_multiplicity
 _atom_site_fract_x
 _atom_site_fract_y
 _atom_site_fract_z
 _atom_site_occupancy
  Ce  Ce0  1  0.68485700  0.31514300  0.50000000  1
  Ce  Ce1  1  0.31514300  0.68485700  0.50000000  1
  Ce  Ce2  1  0.00000000  0.00000000  0.00000000  1
  Ni  Ni0  1  0.87127700  0.12872300  0.00000000  1
  Ni  Ni1  1  0.12872300  0.87127700  0.00000000  1
  Ge  Ge0  1  0.58816100  0.41183900  0.00000000  1
  Ge  Ge1  1  0.41183900  0.58816100  0.00000000  1
  Ge  Ge2  1  0.77788100  0.22211900  0.00000000  1
  Ge  Ge3  1  0.22211900  0.77788100  0.00000000  1
  Ge  Ge4  1  0.91162700  0.08837300  0.50000000  1
  Ge  Ge5  1  0.08837300  0.91162700  0.50000000  1
  Ge  Ge6  1  0.50000000  0.50000000  0.50000000  1
loop_
_geom_bond_atom_site_label_1
_geom_bond_atom_site_label_2
_geom_bond_distance
_geom_bond_site_symmetry_2
Ce0 Ge3 3.164651 1_655
Ce0 Ge3 3.164651 1_656
Ce0 Ge3 3.164651 1_545
Ce0 Ge3 3.164651 1_546
Ce0 Ge2 3.180546 1_555
Ce0 Ge2 3.180546 1_556
Ce0 Ge5 3.239029 1_545
Ce0 Ge5 3.239029 1_655
Ce0 Ge0 3.249783 1_555
Ce0 Ge0 3.249783 1_556
Ce0 Ni1 3.337879 1_545
Ce0 Ni1 3.337879 1_546
Ce0 Ni1 3.337879 1_655
Ce0 Ni1 3.337879 1_656
Ce1 Ge2 3.164651 1_565
Ce1 Ge2 3.164651 1_566
Ce1 Ge2 3.164651 1_456
Ce1 Ge2 3.164651 1_455
Ce1 Ge3 3.180546 1_556
Ce1 Ge3 3.180546 1_555
Ce1 Ge4 3.239029 1_455
Ce1 Ge4 3.239029 1_565
Ce1 Ge1 3.249783 1_556
Ce1 Ge1 3.249783 1_555
Ce1 Ni0 3.337879 1_455
Ce1 Ni0 3.337879 1_456
Ce1 Ni0 3.337879 1_566
Ce1 Ni0 3.337879 1_565
Ce2 Ge6 3.021206 1_555
Ce2 Ge6 3.021206 1_554
Ce2 Ge6 3.021206 1_444
Ce2 Ge6 3.021206 1_445
Ce2 Ge0 3.083696 1_555
Ce2 Ge1 3.083696 1_555
Ce2 Ge0 3.083696 1_445
Ce2 Ge1 3.083696 1_445
Ce2 Ge5 3.094624 1_544
Ce2 Ge4 3.094624 1_455
Ce2 Ge5 3.094624 1_545
Ce2 Ge4 3.094624 1_454
Ge0 Ni1 2.365058 1_545
Ge0 Ni1 2.365058 1_655
Ge1 Ni0 2.365058 1_455
Ge1 Ni0 2.365058 1_565
Ge2 Ni0 2.361048 1_555
Ge2 Ge3 2.555228 1_655
Ge2 Ge3 2.555228 1_545
Ge3 Ni1 2.361048 1_555
Ge4 Ni0 2.371949 1_555
Ge4 Ni0 2.371949 1_556
Ge5 Ni1 2.371949 1_555
Ge5 Ni1 2.371949 1_556
