# generated using pymatgen
data_SiH2CS(OF)3
_symmetry_space_group_name_H-M   'P 1'
_cell_length_a   7.01825100
_cell_length_b   9.56246200
_cell_length_c   11.40132104
_cell_angle_alpha   69.09849088
_cell_angle_beta   90.00000000
_cell_angle_gamma   90.00000000
_symmetry_Int_Tables_number   1
_chemical_formula_structural   SiH2CS(OF)3
_chemical_formula_sum   'Si4 H8 C4 S4 O12 F12'
_cell_volume   714.81123220
_cell_formula_units_Z   4
loop_
 _symmetry_equiv_pos_site_id
 _symmetry_equiv_pos_as_xyz
  1  'x, y, z'
loop_
 _atom_site_type_symbol
 _atom_site_label
 _atom_site_symmetry_multiplicity
 _atom_site_fract_x
 _atom_site_fract_y
 _atom_site_fract_z
 _atom_site_occupancy
  Si  Si0  1  0.45341800  0.00600400  0.09862600  1
  Si  Si1  1  0.95341800  0.99399600  0.40137400  1
  Si  Si2  1  0.54658200  0.99399600  0.90137400  1
  Si  Si3  1  0.04658200  0.00600400  0.59862600  1
  H  H0  1  0.39141500  0.86321200  0.19530600  1
  H  H1  1  0.89141500  0.13678800  0.30469400  1
  H  H2  1  0.60858500  0.13678800  0.80469400  1
  H  H3  1  0.10858500  0.86321200  0.69530600  1
  H  H4  1  0.58219700  0.09656600  0.14619500  1
  H  H5  1  0.08219700  0.90343400  0.35380500  1
  H  H6  1  0.41780300  0.90343400  0.85380500  1
  H  H7  1  0.91780300  0.09656600  0.64619500  1
  C  C0  1  0.24396500  0.39423700  0.93207200  1
  C  C1  1  0.74396500  0.60576300  0.56792800  1
  C  C2  1  0.75603500  0.60576300  0.06792800  1
  C  C3  1  0.25603500  0.39423700  0.43207200  1
  S  S0  1  0.14359000  0.20740800  0.94875100  1
  S  S1  1  0.64359000  0.79259200  0.55124900  1
  S  S2  1  0.85641000  0.79259200  0.05124900  1
  S  S3  1  0.35641000  0.20740800  0.44875100  1
  O  O0  1  0.23983800  0.10868800  0.07302300  1
  O  O1  1  0.73983800  0.89131200  0.42697700  1
  O  O2  1  0.76016200  0.89131200  0.92697700  1
  O  O3  1  0.26016200  0.10868800  0.57302300  1
  O  O4  1  0.94313700  0.21483500  0.96811500  1
  O  O5  1  0.44313700  0.78516500  0.53188500  1
  O  O6  1  0.05686300  0.78516500  0.03188500  1
  O  O7  1  0.55686300  0.21483500  0.46811500  1
  O  O8  1  0.21860800  0.17265800  0.84410100  1
  O  O9  1  0.71860800  0.82734200  0.65589900  1
  O  O10  1  0.78139200  0.82734200  0.15589900  1
  O  O11  1  0.28139200  0.17265800  0.34410100  1
  F  F0  1  0.43611900  0.38903900  0.92451200  1
  F  F1  1  0.93611900  0.61096100  0.57548800  1
  F  F2  1  0.56388100  0.61096100  0.07548800  1
  F  F3  1  0.06388100  0.38903900  0.42451200  1
  F  F4  1  0.19653100  0.43081000  0.03174600  1
  F  F5  1  0.69653100  0.56919000  0.46825400  1
  F  F6  1  0.80346900  0.56919000  0.96825400  1
  F  F7  1  0.30346900  0.43081000  0.53174600  1
  F  F8  1  0.17512700  0.49766100  0.82622900  1
  F  F9  1  0.67512700  0.50233900  0.67377100  1
  F  F10  1  0.82487300  0.50233900  0.17377100  1
  F  F11  1  0.32487300  0.49766100  0.32622900  1
loop_
_geom_bond_atom_site_label_1
_geom_bond_atom_site_label_2
_geom_bond_distance
_geom_bond_site_symmetry_2
H0 Si0 1.481515 1_565
H1 Si1 1.481515 1_545
H2 Si2 1.481515 1_545
H3 Si3 1.481515 1_565
H4 Si0 1.481916 1_555
H5 Si1 1.481916 1_455
H6 Si2 1.481916 1_555
H7 Si3 1.481916 1_655
C0 F4 1.344677 1_556
C0 F8 1.347659 1_555
C0 F0 1.353380 1_555
C1 F5 1.344677 1_555
C1 F9 1.347659 1_555
C1 F1 1.353380 1_555
C2 F6 1.344677 1_554
C2 F10 1.347659 1_555
C2 F2 1.353380 1_555
C3 F7 1.344677 1_555
C3 F11 1.347659 1_555
C3 F3 1.353380 1_555
O0 S0 1.549382 1_554
O0 Si0 1.758329 1_555
O1 S1 1.549382 1_555
O1 Si1 1.758329 1_555
O2 S2 1.549382 1_556
O2 Si2 1.758329 1_555
O3 S3 1.549382 1_555
O3 Si3 1.758329 1_555
O4 S0 1.429735 1_655
O5 S1 1.429735 1_555
O6 S2 1.429735 1_455
O7 S3 1.429735 1_555
O8 S0 1.447106 1_555
O9 S1 1.447106 1_555
O10 S2 1.447106 1_555
O11 S3 1.447106 1_555
