# generated using pymatgen
data_Sm2Ga2Fe15
_symmetry_space_group_name_H-M   'P 1'
_cell_length_a   6.45498067
_cell_length_b   6.50848911
_cell_length_c   6.45498050
_cell_angle_alpha   83.10989146
_cell_angle_beta   82.55236363
_cell_angle_gamma   83.10989484
_symmetry_Int_Tables_number   1
_chemical_formula_structural   Sm2Ga2Fe15
_chemical_formula_sum   'Sm2 Ga2 Fe15'
_cell_volume   265.45196348
_cell_formula_units_Z   1
loop_
 _symmetry_equiv_pos_site_id
 _symmetry_equiv_pos_as_xyz
  1  'x, y, z'
loop_
 _atom_site_type_symbol
 _atom_site_label
 _atom_site_symmetry_multiplicity
 _atom_site_fract_x
 _atom_site_fract_y
 _atom_site_fract_z
 _atom_site_occupancy
  Sm  Sm0  1  0.66208600  0.66636300  0.66208600  1
  Sm  Sm1  1  0.34326900  0.34223100  0.34326900  1
  Ga  Ga0  1  0.84720400  0.34417500  0.34411200  1
  Ga  Ga1  1  0.34411200  0.34417500  0.84720400  1
  Fe  Fe0  1  0.90415300  0.90271800  0.90415300  1
  Fe  Fe1  1  0.09559800  0.09158700  0.09559800  1
  Fe  Fe2  1  0.28847000  0.71142600  0.00105700  1
  Fe  Fe3  1  0.70902500  0.99874900  0.28985000  1
  Fe  Fe4  1  0.99666900  0.28796400  0.71137400  1
  Fe  Fe5  1  0.28985000  0.99874900  0.70902500  1
  Fe  Fe6  1  0.00105700  0.71142600  0.28847000  1
  Fe  Fe7  1  0.71137400  0.28796400  0.99666900  1
  Fe  Fe8  1  0.99952600  0.99769400  0.49926600  1
  Fe  Fe9  1  0.99606200  0.50334500  0.99606200  1
  Fe  Fe10  1  0.49926600  0.99769400  0.99952600  1
  Fe  Fe11  1  0.34234600  0.84554600  0.34234600  1
  Fe  Fe12  1  0.15354100  0.66253200  0.65634800  1
  Fe  Fe13  1  0.65634800  0.66253200  0.15354100  1
  Fe  Fe14  1  0.66004600  0.14313300  0.66004600  1
loop_
_geom_bond_atom_site_label_1
_geom_bond_atom_site_label_2
_geom_bond_distance
_geom_bond_site_symmetry_2
Ga0 Sm0 3.135852 1_555
Ga0 Sm1 3.199898 1_655
Ga0 Sm1 3.255145 1_555
Ga1 Sm0 3.135852 1_555
Ga1 Sm1 3.199898 1_556
Ga1 Sm1 3.255145 1_555
Fe0 Fe1 2.385409 1_666
Fe0 Fe9 2.609910 1_555
Fe0 Fe14 2.621951 1_565
Fe0 Fe8 2.622644 1_555
Fe0 Fe10 2.622644 1_555
Fe0 Fe13 2.631056 1_556
Fe0 Fe12 2.631056 1_655
Fe0 Fe5 2.747194 1_655
Fe0 Fe3 2.747194 1_556
Fe0 Fe6 2.751342 1_656
Fe0 Fe2 2.751342 1_656
Fe0 Fe4 2.758628 1_565
Fe0 Fe7 2.758628 1_565
Fe0 Sm0 3.005966 1_555
Fe1 Fe8 2.614863 1_445
Fe1 Fe10 2.614863 1_544
Fe1 Fe11 2.659287 1_545
Fe1 Ga1 2.679604 1_554
Fe1 Ga0 2.679604 1_455
Fe1 Fe9 2.699698 1_454
Fe1 Fe6 2.733252 1_545
Fe1 Fe2 2.733252 1_545
Fe1 Fe5 2.744599 1_544
Fe1 Fe3 2.744599 1_445
Fe1 Fe4 2.765276 1_454
Fe1 Fe7 2.765276 1_454
Fe1 Sm1 3.112396 1_555
Fe2 Fe6 2.447771 1_555
Fe2 Fe9 2.457097 1_454
Fe2 Fe5 2.490870 1_554
Fe2 Ga1 2.664521 1_554
Fe2 Sm0 3.050589 1_554
Fe2 Sm1 3.082808 1_555
Fe3 Fe8 2.448561 1_555
Fe3 Fe6 2.490870 1_655
Fe3 Fe7 2.503928 1_564
Fe3 Ga0 2.593010 1_565
Fe3 Sm0 3.044094 1_555
Fe3 Sm1 3.065649 1_565
Fe4 Fe7 2.429733 1_555
Fe4 Fe9 2.440683 1_555
Fe4 Fe8 2.459629 1_545
Fe4 Fe5 2.503928 1_645
Fe4 Ga1 2.591535 1_655
Fe4 Ga0 2.642896 1_555
Fe4 Sm1 3.063698 1_655
Fe4 Sm0 3.089498 1_555
Fe5 Fe8 2.451218 1_455
Fe5 Ga1 2.593010 1_565
Fe5 Sm0 3.044095 1_555
Fe5 Sm1 3.065648 1_565
Fe6 Fe8 2.433790 1_455
Fe6 Fe9 2.457097 1_454
Fe6 Ga0 2.664521 1_455
Fe6 Sm0 3.050589 1_455
Fe6 Sm1 3.082808 1_555
Fe7 Fe9 2.440683 1_555
Fe7 Ga0 2.591535 1_556
Fe7 Ga1 2.642896 1_555
Fe7 Sm1 3.063698 1_556
Fe7 Sm0 3.089498 1_555
Fe8 Ga0 2.497304 1_565
Fe8 Sm0 3.238686 1_555
Fe8 Sm1 3.322426 1_665
Fe9 Ga0 2.482886 1_556
Fe9 Ga1 2.482886 1_655
Fe9 Sm0 3.244683 1_555
Fe9 Sm1 3.364534 1_656
Fe10 Fe2 2.433790 1_556
Fe10 Fe14 2.433830 1_565
Fe10 Fe13 2.446483 1_556
Fe10 Fe5 2.448561 1_555
Fe10 Fe3 2.451218 1_556
Fe10 Fe11 2.457097 1_556
Fe10 Fe7 2.459629 1_565
Fe10 Ga1 2.497304 1_565
Fe10 Sm0 3.238687 1_555
Fe10 Sm1 3.322426 1_566
Fe11 Fe8 2.457097 1_455
Fe11 Fe12 2.478109 1_555
Fe11 Fe13 2.478109 1_555
Fe11 Fe2 2.543433 1_555
Fe11 Fe6 2.543433 1_555
Fe11 Fe5 2.643593 1_555
Fe11 Fe3 2.643593 1_555
Fe11 Sm0 3.135097 1_555
Fe11 Sm1 3.234110 1_565
Fe11 Sm1 3.274403 1_555
Fe12 Fe8 2.446483 1_455
Fe12 Fe9 2.458669 1_455
Fe12 Fe5 2.529099 1_555
Fe12 Ga1 2.548160 1_555
Fe12 Fe2 2.559231 1_556
Fe12 Fe6 2.656781 1_555
Fe12 Fe4 2.717728 1_455
Fe12 Sm1 3.112313 1_555
Fe12 Sm0 3.164881 1_455
Fe12 Sm0 3.290768 1_555
Fe13 Fe9 2.458669 1_554
Fe13 Fe3 2.529099 1_555
Fe13 Ga0 2.548160 1_555
Fe13 Fe6 2.559231 1_655
Fe13 Fe2 2.656781 1_555
Fe13 Fe7 2.717728 1_554
Fe13 Sm1 3.112312 1_555
Fe13 Sm0 3.164881 1_554
Fe13 Sm0 3.290768 1_555
Fe14 Fe8 2.433830 1_545
Fe14 Ga0 2.535922 1_555
Fe14 Ga1 2.535922 1_555
Fe14 Fe7 2.544170 1_555
Fe14 Fe4 2.544170 1_555
Fe14 Fe3 2.639110 1_545
Fe14 Fe5 2.639110 1_545
Fe14 Sm0 3.099954 1_545
Fe14 Sm1 3.139098 1_555
Fe14 Sm0 3.408652 1_555
