# generated using pymatgen
data_PrZnPd
_symmetry_space_group_name_H-M   'P 1'
_cell_length_a   7.43667534
_cell_length_b   7.43667482
_cell_length_c   3.99133147
_cell_angle_alpha   90.00000000
_cell_angle_beta   90.00000000
_cell_angle_gamma   120.00000692
_symmetry_Int_Tables_number   1
_chemical_formula_structural   PrZnPd
_chemical_formula_sum   'Pr3 Zn3 Pd3'
_cell_volume   191.16395697
_cell_formula_units_Z   3
loop_
 _symmetry_equiv_pos_site_id
 _symmetry_equiv_pos_as_xyz
  1  'x, y, z'
loop_
 _atom_site_type_symbol
 _atom_site_label
 _atom_site_symmetry_multiplicity
 _atom_site_fract_x
 _atom_site_fract_y
 _atom_site_fract_z
 _atom_site_occupancy
  Pr  Pr0  1  0.59143379  -0.00000000  0.50000000  1
  Pr  Pr1  1  0.40856621  0.40856621  0.50000000  1
  Pr  Pr2  1  -0.00000000  0.59143379  0.50000000  1
  Zn  Zn0  1  0.76086053  0.76086053  0.00000000  1
  Zn  Zn1  1  0.00000000  0.23913947  -0.00000000  1
  Zn  Zn2  1  0.23913947  0.00000000  0.00000000  1
  Pd  Pd0  1  0.00000000  0.00000000  0.50000000  1
  Pd  Pd1  1  0.33333300  0.66666700  -0.00000000  1
  Pd  Pd2  1  0.66666700  0.33333300  -0.00000000  1
loop_
_geom_bond_atom_site_label_1
_geom_bond_atom_site_label_2
_geom_bond_distance
_geom_bond_site_symmetry_2
Pr0 Zn2 3.293410 1_555
Pr0 Zn2 3.293410 1_556
Pr0 Zn1 3.312652 1_655
Pr0 Zn1 3.312652 1_656
Pr0 Zn0 3.312652 1_545
Pr0 Zn0 3.312652 1_546
Pr1 Zn0 3.293410 1_555
Pr1 Zn0 3.293410 1_556
Pr1 Zn2 3.312652 1_555
Pr1 Zn2 3.312652 1_556
Pr1 Zn1 3.312652 1_556
Pr1 Zn1 3.312652 1_555
Pr2 Zn1 3.293410 1_556
Pr2 Zn1 3.293410 1_555
Pr2 Zn2 3.312652 1_566
Pr2 Zn2 3.312652 1_565
Pr2 Zn0 3.312652 1_455
Pr2 Zn0 3.312652 1_456
Zn0 Zn1 3.080283 1_665
Zn0 Zn2 3.080283 1_665
Zn1 Zn2 3.080284 1_555
Pd0 Zn0 2.673087 1_446
Pd0 Zn0 2.673087 1_445
Pd0 Zn1 2.673088 1_555
Pd0 Zn1 2.673088 1_556
Pd0 Zn2 2.673088 1_555
Pd0 Zn2 2.673088 1_556
Pd0 Pr1 3.038374 1_555
Pd0 Pr2 3.038374 1_545
Pd0 Pr0 3.038374 1_455
Pd1 Zn2 2.893441 1_565
Pd1 Zn1 2.893446 1_555
Pd1 Zn0 2.893449 1_555
Pd1 Pr2 3.008936 1_555
Pd1 Pr2 3.008936 1_554
Pd1 Pr0 3.008937 1_565
Pd1 Pr0 3.008937 1_564
Pd1 Pr1 3.008941 1_555
Pd1 Pr1 3.008941 1_554
Pd2 Zn1 2.893441 1_655
Pd2 Zn2 2.893446 1_555
Pd2 Zn0 2.893448 1_555
Pd2 Pr0 3.008936 1_555
Pd2 Pr0 3.008936 1_554
Pd2 Pr2 3.008938 1_654
Pd2 Pr2 3.008938 1_655
Pd2 Pr1 3.008941 1_555
Pd2 Pr1 3.008941 1_554
