# generated using pymatgen
data_RbMg14Zn
_symmetry_space_group_name_H-M   'P 1'
_cell_length_a   6.53209881
_cell_length_b   6.53209826
_cell_length_c   10.62497208
_cell_angle_alpha   90.00000000
_cell_angle_beta   90.00000000
_cell_angle_gamma   120.00000284
_symmetry_Int_Tables_number   1
_chemical_formula_structural   RbMg14Zn
_chemical_formula_sum   'Rb1 Mg14 Zn1'
_cell_volume   392.61227289
_cell_formula_units_Z   1
loop_
 _symmetry_equiv_pos_site_id
 _symmetry_equiv_pos_as_xyz
  1  'x, y, z'
loop_
 _atom_site_type_symbol
 _atom_site_label
 _atom_site_symmetry_multiplicity
 _atom_site_fract_x
 _atom_site_fract_y
 _atom_site_fract_z
 _atom_site_occupancy
  Rb  Rb0  1  0.16666700  0.33333300  0.62500000  1
  Mg  Mg0  1  0.16230582  0.83115241  0.12500000  1
  Mg  Mg1  1  0.17429146  0.83714523  0.62500000  1
  Mg  Mg2  1  0.66884759  0.33769418  0.12500000  1
  Mg  Mg3  1  0.66285477  0.32570854  0.62500000  1
  Mg  Mg4  1  0.66884759  0.83115241  0.12500000  1
  Mg  Mg5  1  0.66285477  0.83714523  0.62500000  1
  Mg  Mg6  1  0.33643081  0.16356919  0.35531739  1
  Mg  Mg7  1  0.33643081  0.16356919  0.89468261  1
  Mg  Mg8  1  0.33643081  0.67286262  0.35531739  1
  Mg  Mg9  1  0.33643081  0.67286262  0.89468261  1
  Mg  Mg10  1  0.82713738  0.16356919  0.35531739  1
  Mg  Mg11  1  0.82713738  0.16356919  0.89468261  1
  Mg  Mg12  1  0.83333300  0.66666700  0.37968039  1
  Mg  Mg13  1  0.83333300  0.66666700  0.87031961  1
  Zn  Zn0  1  0.16666700  0.33333300  0.12500000  1
loop_
_geom_bond_atom_site_label_1
_geom_bond_atom_site_label_2
_geom_bond_distance
_geom_bond_site_symmetry_2
Mg0 Mg9 3.086612 1_554
Mg0 Mg8 3.086612 1_555
Mg0 Mg7 3.086619 1_564
Mg0 Mg6 3.086619 1_565
Mg0 Mg2 3.223318 1_455
Mg0 Mg4 3.223318 1_455
Mg0 Zn0 3.266142 1_565
Mg0 Zn0 3.266142 1_555
Mg0 Mg13 3.284137 1_454
Mg0 Mg12 3.284137 1_455
Mg0 Mg2 3.308781 1_565
Mg0 Mg4 3.308781 1_555
Mg1 Mg3 3.191344 1_565
Mg1 Mg5 3.191344 1_555
Mg1 Mg12 3.242552 1_455
Mg1 Mg13 3.242552 1_455
Mg1 Rb0 3.266334 1_555
Mg1 Rb0 3.266334 1_565
Mg1 Mg3 3.340755 1_455
Mg1 Mg5 3.340755 1_455
Mg1 Mg8 3.408837 1_555
Mg1 Mg9 3.408837 1_555
Mg1 Mg6 3.408843 1_565
Mg1 Mg7 3.408843 1_565
Mg2 Mg7 3.086619 1_554
Mg2 Mg6 3.086619 1_555
Mg2 Mg4 3.223318 1_555
Mg2 Zn0 3.266143 1_555
Mg2 Zn0 3.266143 1_655
Mg2 Mg4 3.308781 1_545
Mg3 Mg5 3.191344 1_545
Mg3 Rb0 3.266334 1_655
Mg3 Rb0 3.266334 1_555
Mg3 Mg5 3.340755 1_555
Mg3 Mg6 3.408843 1_555
Mg3 Mg7 3.408843 1_555
Mg4 Mg9 3.086619 1_554
Mg4 Mg8 3.086619 1_555
Mg4 Zn0 3.266142 1_665
Mg4 Zn0 3.266142 1_555
Mg5 Rb0 3.266334 1_555
Mg5 Rb0 3.266334 1_665
Mg5 Mg8 3.408843 1_555
Mg5 Mg9 3.408843 1_555
Mg6 Zn0 3.110859 1_555
Mg6 Mg8 3.205344 1_545
Mg6 Mg8 3.326755 1_555
Mg6 Rb0 3.449553 1_555
Mg7 Zn0 3.110859 1_556
Mg7 Mg9 3.205344 1_545
Mg7 Mg9 3.326755 1_555
Mg7 Rb0 3.449553 1_555
Mg8 Zn0 3.110866 1_555
Mg8 Rb0 3.449559 1_555
Mg9 Zn0 3.110866 1_556
Mg9 Rb0 3.449559 1_555
Mg10 Mg2 3.086612 1_555
Mg10 Mg4 3.086619 1_545
Mg10 Zn0 3.110866 1_655
Mg10 Mg8 3.205344 1_545
Mg10 Mg6 3.205344 1_555
Mg10 Mg12 3.276479 1_555
Mg10 Mg12 3.276479 1_545
Mg10 Mg8 3.326755 1_655
Mg10 Mg6 3.326755 1_655
Mg10 Mg3 3.408837 1_555
Mg10 Mg5 3.408843 1_545
Mg10 Rb0 3.449559 1_655
Mg11 Mg2 3.086612 1_556
Mg11 Mg4 3.086619 1_546
Mg11 Zn0 3.110866 1_656
Mg11 Mg9 3.205344 1_545
Mg11 Mg7 3.205344 1_555
Mg11 Mg13 3.276479 1_555
Mg11 Mg13 3.276479 1_545
Mg11 Mg9 3.326755 1_655
Mg11 Mg7 3.326755 1_655
Mg11 Mg3 3.408837 1_555
Mg11 Mg5 3.408843 1_545
Mg11 Rb0 3.449559 1_655
Mg12 Mg5 3.242545 1_555
Mg12 Mg3 3.242552 1_555
Mg12 Mg6 3.276479 1_555
Mg12 Mg6 3.276479 1_665
Mg12 Mg8 3.276479 1_655
Mg12 Mg8 3.276479 1_555
Mg12 Mg4 3.284131 1_555
Mg12 Mg2 3.284137 1_555
Mg13 Mg5 3.242545 1_555
Mg13 Mg3 3.242552 1_555
Mg13 Mg7 3.276479 1_555
Mg13 Mg7 3.276479 1_665
Mg13 Mg9 3.276479 1_655
Mg13 Mg9 3.276479 1_555
Mg13 Mg4 3.284131 1_556
Mg13 Mg2 3.284137 1_556
