# generated using pymatgen
data_Li7Mn2(CoO4)3
_symmetry_space_group_name_H-M   'P 1'
_cell_length_a   6.54294470
_cell_length_b   6.54294470
_cell_length_c   11.80639238
_cell_angle_alpha   76.84190733
_cell_angle_beta   76.84190733
_cell_angle_gamma   25.77877820
_symmetry_Int_Tables_number   1
_chemical_formula_structural   Li7Mn2(CoO4)3
_chemical_formula_sum   'Li7 Mn2 Co3 O12'
_cell_volume   213.73415266
_cell_formula_units_Z   1
loop_
 _symmetry_equiv_pos_site_id
 _symmetry_equiv_pos_as_xyz
  1  'x, y, z'
loop_
 _atom_site_type_symbol
 _atom_site_label
 _atom_site_symmetry_multiplicity
 _atom_site_fract_x
 _atom_site_fract_y
 _atom_site_fract_z
 _atom_site_occupancy
  Li  Li0  1  0.99787800  0.99787800  0.25588900  1
  Li  Li1  1  0.66617700  0.66617700  0.08112800  1
  Li  Li2  1  0.33382300  0.33382300  0.91887200  1
  Li  Li3  1  0.00212200  0.00212200  0.74411100  1
  Li  Li4  1  0.65881000  0.65881000  0.58516000  1
  Li  Li5  1  0.34119000  0.34119000  0.41484000  1
  Li  Li6  1  0.00000000  0.00000000  0.50000000  1
  Mn  Mn0  1  0.34006000  0.34006000  0.66261300  1
  Mn  Mn1  1  0.65994000  0.65994000  0.33738700  1
  Co  Co0  1  0.33446600  0.33446500  0.16666300  1
  Co  Co1  1  0.00000000  0.00000000  0.00000000  1
  Co  Co2  1  0.66553500  0.66553500  0.83333700  1
  O  O0  1  0.83543000  0.83543000  0.04751000  1
  O  O1  1  0.50362600  0.50362600  0.88297500  1
  O  O2  1  0.17442100  0.17442100  0.71435600  1
  O  O3  1  0.83146900  0.83146900  0.55741700  1
  O  O4  1  0.51302800  0.51302800  0.36858800  1
  O  O5  1  0.17067000  0.17067000  0.22023400  1
  O  O6  1  0.16853100  0.16853100  0.44258300  1
  O  O7  1  0.82557900  0.82557900  0.28564400  1
  O  O8  1  0.49637400  0.49637400  0.11702500  1
  O  O9  1  0.16457000  0.16457000  0.95249000  1
  O  O10  1  0.82933000  0.82933000  0.77976600  1
  O  O11  1  0.48697200  0.48697200  0.63141200  1
loop_
_geom_bond_atom_site_label_1
_geom_bond_atom_site_label_2
_geom_bond_distance
_geom_bond_site_symmetry_2
Li0 O4 2.014470 1_655
Li0 O4 2.014470 1_565
Li0 O7 2.143233 1_555
Li0 O5 2.145270 1_665
Li0 O8 2.198453 1_655
Li0 O8 2.198453 1_565
Li1 O0 2.102063 1_555
Li1 O8 2.107742 1_555
Li1 O9 2.109928 1_654
Li1 O9 2.109928 1_564
Li1 O5 2.207886 1_655
Li1 O5 2.207886 1_565
Li2 O9 2.102063 1_555
Li2 O1 2.107742 1_555
Li2 O0 2.109928 1_546
Li2 O0 2.109928 1_456
Li2 O10 2.207886 1_545
Li2 O10 2.207886 1_455
Li3 O11 2.014470 1_545
Li3 O11 2.014470 1_455
Li3 O2 2.143233 1_555
Li3 O10 2.145270 1_445
Li3 O1 2.198453 1_455
Li3 O1 2.198453 1_545
Li4 O11 2.131661 1_555
Li4 O3 2.149700 1_555
Li4 O2 2.153697 1_655
Li4 O2 2.153697 1_565
Li4 O6 2.209454 1_655
Li4 O6 2.209454 1_565
Li5 O4 2.131661 1_555
Li5 O6 2.149700 1_555
Li5 O7 2.153697 1_545
Li5 O7 2.153697 1_455
Li5 O3 2.209454 1_545
Li5 O3 2.209454 1_455
Li6 O3 2.097753 1_445
Li6 O6 2.097753 1_555
Li6 O11 2.108219 1_545
Li6 O11 2.108219 1_455
Li6 O4 2.108219 1_545
Li6 O4 2.108219 1_455
Mn0 O11 1.823534 1_555
Mn0 O3 1.936063 1_545
Mn0 O3 1.936063 1_455
Mn0 O10 1.993405 1_545
Mn0 O10 1.993405 1_455
Mn0 O2 2.057854 1_555
Mn1 O4 1.823534 1_555
Mn1 O6 1.936063 1_565
Mn1 O6 1.936063 1_655
Mn1 O5 1.993405 1_655
Mn1 O5 1.993405 1_565
Mn1 O7 2.057854 1_555
Co0 O7 2.010471 1_545
Co0 O7 2.010473 1_455
Co0 O8 2.010905 1_555
Co0 O0 2.025164 1_545
Co0 O0 2.025166 1_455
Co0 O5 2.036768 1_555
Co1 O8 2.002864 1_545
Co1 O8 2.002864 1_455
Co1 O1 2.002864 1_544
Co1 O1 2.002864 1_454
Co1 O0 2.042462 1_445
Co1 O9 2.042462 1_554
Co2 O2 2.010472 1_655
Co2 O2 2.010472 1_565
Co2 O1 2.010911 1_555
Co2 O9 2.025164 1_565
Co2 O9 2.025164 1_655
Co2 O10 2.036762 1_555
