# generated using pymatgen
data_Sr3Sc2Fe2As2O5
_symmetry_space_group_name_H-M   'P 1'
_cell_length_a   4.14926200
_cell_length_b   4.14926200
_cell_length_c   14.29465975
_cell_angle_alpha   98.34499780
_cell_angle_beta   98.34499780
_cell_angle_gamma   90.00000000
_symmetry_Int_Tables_number   1
_chemical_formula_structural   Sr3Sc2Fe2As2O5
_chemical_formula_sum   'Sr3 Sc2 Fe2 As2 O5'
_cell_volume   240.86263195
_cell_formula_units_Z   1
loop_
 _symmetry_equiv_pos_site_id
 _symmetry_equiv_pos_as_xyz
  1  'x, y, z'
loop_
 _atom_site_type_symbol
 _atom_site_label
 _atom_site_symmetry_multiplicity
 _atom_site_fract_x
 _atom_site_fract_y
 _atom_site_fract_z
 _atom_site_occupancy
  Sr  Sr0  1  0.50000000  0.50000000  0.00000000  1
  Sr  Sr1  1  0.63378600  0.63378600  0.26757200  1
  Sr  Sr2  1  0.36621400  0.36621400  0.73242800  1
  Sc  Sc0  1  0.92922300  0.92922300  0.85844700  1
  Sc  Sc1  1  0.07077700  0.07077700  0.14155300  1
  Fe  Fe0  1  0.25000000  0.75000000  0.50000000  1
  Fe  Fe1  1  0.75000000  0.25000000  0.50000000  1
  As  As0  1  0.80740100  0.80740100  0.61480200  1
  As  As1  1  0.19259900  0.19259900  0.38519800  1
  O  O0  1  0.42024400  0.92024400  0.84048800  1
  O  O1  1  0.92024400  0.42024400  0.84048800  1
  O  O2  1  0.57975600  0.07975600  0.15951200  1
  O  O3  1  0.07975600  0.57975600  0.15951200  1
  O  O4  1  0.00000000  0.00000000  0.00000000  1
loop_
_geom_bond_atom_site_label_1
_geom_bond_atom_site_label_2
_geom_bond_distance
_geom_bond_site_symmetry_2
As0 Fe0 2.623682 1_555
As0 Fe1 2.623682 1_555
As0 Fe1 2.623682 1_565
As0 Fe0 2.623682 1_655
As0 Sr2 3.363967 1_555
As0 Sr2 3.363967 1_655
As0 Sr2 3.363967 1_565
As0 Sr2 3.363967 1_665
As0 Sc0 3.408672 1_555
As1 Fe1 2.623682 1_555
As1 Fe1 2.623682 1_455
As1 Fe0 2.623682 1_545
As1 Fe0 2.623682 1_555
As1 Sr1 3.363967 1_555
As1 Sr1 3.363967 1_545
As1 Sr1 3.363967 1_455
As1 Sr1 3.363967 1_445
As1 Sc1 3.408672 1_555
O0 Sc0 2.089788 1_555
O0 Sc0 2.089792 1_455
O0 Sr2 2.567025 1_555
O0 Sr2 2.567025 1_565
O0 Sr0 3.047005 1_556
O0 Sr0 3.047005 1_566
O1 Sc0 2.089788 1_555
O1 Sc0 2.089792 1_545
O1 Sr2 2.567025 1_555
O1 Sr2 2.567025 1_655
O1 Sr0 3.047005 1_556
O1 Sr0 3.047005 1_656
O2 Sc1 2.089788 1_555
O2 Sc1 2.089792 1_655
O2 Sr1 2.567025 1_555
O2 Sr1 2.567025 1_545
O2 Sr0 3.047005 1_545
O2 Sr0 3.047005 1_555
O3 Sc1 2.089788 1_555
O3 Sc1 2.089792 1_565
O3 Sr1 2.567025 1_555
O3 Sr1 2.567025 1_455
O3 Sr0 3.047005 1_455
O3 Sr0 3.047005 1_555
O4 Sc1 1.980372 1_555
O4 Sc0 1.980372 1_444
O4 Sr0 2.933971 1_445
O4 Sr0 2.933971 1_545
O4 Sr0 2.933971 1_455
O4 Sr0 2.933971 1_555
