# generated using pymatgen
data_TmZn12
_symmetry_space_group_name_H-M   'P 1'
_cell_length_a   6.68766307
_cell_length_b   6.68766307
_cell_length_c   6.68766307
_cell_angle_alpha   98.33205681
_cell_angle_beta   98.33205681
_cell_angle_gamma   135.24959263
_symmetry_Int_Tables_number   1
_chemical_formula_structural   TmZn12
_chemical_formula_sum   'Tm1 Zn12'
_cell_volume   194.72152986
_cell_formula_units_Z   1
loop_
 _symmetry_equiv_pos_site_id
 _symmetry_equiv_pos_as_xyz
  1  'x, y, z'
loop_
 _atom_site_type_symbol
 _atom_site_label
 _atom_site_symmetry_multiplicity
 _atom_site_fract_x
 _atom_site_fract_y
 _atom_site_fract_z
 _atom_site_occupancy
  Tm  Tm0  1  -0.00000000  0.00000000  -0.00000000  1
  Zn  Zn0  1  -0.00000000  0.00000000  0.50000000  1
  Zn  Zn1  1  0.50000000  0.50000000  0.50000000  1
  Zn  Zn2  1  0.50000000  0.00000000  -0.00000000  1
  Zn  Zn3  1  -0.00000000  0.50000000  -0.00000000  1
  Zn  Zn4  1  0.00000000  0.35320942  0.35320942  1
  Zn  Zn5  1  -0.00000000  0.64679058  0.64679058  1
  Zn  Zn6  1  0.64679058  -0.00000000  0.64679058  1
  Zn  Zn7  1  0.35320942  0.00000000  0.35320942  1
  Zn  Zn8  1  0.50000000  0.28458835  0.78458835  1
  Zn  Zn9  1  0.50000000  0.71541165  0.21541165  1
  Zn  Zn10  1  0.71541165  0.50000000  0.21541165  1
  Zn  Zn11  1  0.28458835  0.50000000  0.78458835  1
loop_
_geom_bond_atom_site_label_1
_geom_bond_atom_site_label_2
_geom_bond_distance
_geom_bond_site_symmetry_2
Tm0 Zn4 3.089069 1_555
Tm0 Zn5 3.089069 1_544
Tm0 Zn7 3.089069 1_555
Tm0 Zn6 3.089069 1_454
Tm0 Zn11 3.167058 1_554
Tm0 Zn9 3.167058 1_555
Tm0 Zn8 3.167058 1_554
Tm0 Zn10 3.167058 1_555
Tm0 Zn9 3.167058 1_445
Tm0 Zn11 3.167058 1_444
Tm0 Zn8 3.167058 1_444
Tm0 Zn10 3.167058 1_445
Tm0 Zn1 3.343832 1_555
Tm0 Zn2 3.343832 1_555
Tm0 Zn1 3.343832 1_444
Tm0 Zn2 3.343832 1_455
Tm0 Zn0 3.343832 1_555
Tm0 Zn3 3.343832 1_545
Tm0 Zn0 3.343832 1_554
Tm0 Zn3 3.343832 1_555
Zn0 Zn1 2.545794 1_445
Zn0 Zn1 2.545794 1_555
Zn0 Zn9 2.547988 1_445
Zn0 Zn8 2.547988 1_555
Zn0 Zn10 2.547988 1_445
Zn0 Zn11 2.547988 1_555
Zn0 Zn5 2.686168 1_545
Zn0 Zn4 2.686168 1_555
Zn0 Zn7 2.686168 1_555
Zn0 Zn6 2.686168 1_455
Zn1 Zn9 2.547988 1_555
Zn1 Zn10 2.547988 1_555
Zn1 Zn8 2.547988 1_555
Zn1 Zn11 2.547988 1_555
Zn1 Zn7 2.686168 1_555
Zn1 Zn5 2.686168 1_655
Zn1 Zn6 2.686168 1_565
Zn1 Zn4 2.686168 1_555
Zn2 Zn3 2.545794 1_655
Zn2 Zn3 2.545794 1_545
Zn2 Zn8 2.547988 1_554
Zn2 Zn9 2.547988 1_545
Zn2 Zn4 2.686168 1_655
Zn2 Zn5 2.686168 1_544
Zn2 Zn7 2.686168 1_555
Zn2 Zn6 2.686168 1_554
Zn3 Zn8 2.547988 1_454
Zn3 Zn9 2.547988 1_555
Zn3 Zn5 2.686168 1_554
Zn3 Zn4 2.686168 1_555
Zn3 Zn7 2.686168 1_565
Zn3 Zn6 2.686168 1_454
Zn4 Zn5 2.567577 1_555
Zn4 Zn9 2.816635 1_555
Zn4 Zn9 2.816635 1_445
Zn5 Zn8 2.816635 1_565
Zn5 Zn8 2.816635 1_455
Zn6 Zn7 2.567577 1_555
Zn6 Zn9 2.800514 1_545
Zn6 Zn8 2.800514 1_555
Zn7 Zn8 2.800514 1_555
Zn7 Zn9 2.800514 1_545
Zn10 Zn2 2.547988 1_555
Zn10 Zn3 2.547988 1_655
Zn10 Zn9 2.664278 1_555
Zn10 Zn8 2.664278 1_554
Zn10 Zn5 2.800514 1_655
Zn10 Zn4 2.800514 1_655
Zn10 Zn7 2.816635 1_555
Zn10 Zn7 2.816635 1_665
Zn11 Zn3 2.547988 1_556
Zn11 Zn2 2.547988 1_566
Zn11 Zn9 2.664278 1_556
Zn11 Zn8 2.664278 1_555
Zn11 Zn5 2.800514 1_555
Zn11 Zn4 2.800514 1_555
Zn11 Zn6 2.816635 1_455
Zn11 Zn6 2.816635 1_565
