# generated using pymatgen
data_Li2Zr4As3(PO8)3
_symmetry_space_group_name_H-M   'P 1'
_cell_length_a   9.17632400
_cell_length_b   9.11712400
_cell_length_c   15.62470300
_cell_angle_alpha   55.51971915
_cell_angle_beta   90.00000000
_cell_angle_gamma   90.00000000
_symmetry_Int_Tables_number   1
_chemical_formula_structural   Li2Zr4As3(PO8)3
_chemical_formula_sum   'Li4 Zr8 As6 P6 O48'
_cell_volume   1077.54341212
_cell_formula_units_Z   2
loop_
 _symmetry_equiv_pos_site_id
 _symmetry_equiv_pos_as_xyz
  1  'x, y, z'
loop_
 _atom_site_type_symbol
 _atom_site_label
 _atom_site_symmetry_multiplicity
 _atom_site_fract_x
 _atom_site_fract_y
 _atom_site_fract_z
 _atom_site_occupancy
  Li  Li0  1  0.97014800  0.98252300  0.83371700  1
  Li  Li1  1  0.02985200  0.98252300  0.33371700  1
  Li  Li2  1  0.53933800  0.04374000  0.15820100  1
  Li  Li3  1  0.46066200  0.04374000  0.65820100  1
  Zr  Zr0  1  0.76760000  0.35649400  0.88489200  1
  Zr  Zr1  1  0.23240000  0.35649400  0.38489200  1
  Zr  Zr2  1  0.72462200  0.63814600  0.11691500  1
  Zr  Zr3  1  0.27537800  0.63814600  0.61691500  1
  Zr  Zr4  1  0.20769500  0.14212000  0.11645700  1
  Zr  Zr5  1  0.79230500  0.14212000  0.61645700  1
  Zr  Zr6  1  0.29966800  0.85423000  0.88381800  1
  Zr  Zr7  1  0.70033200  0.85423000  0.38381800  1
  As  As0  1  0.13342300  0.24809600  0.85384200  1
  As  As1  1  0.86657700  0.24809600  0.35384200  1
  As  As2  1  0.36604100  0.75153300  0.14703600  1
  As  As3  1  0.63395900  0.75153300  0.64703600  1
  As  As4  1  0.00459900  0.54393900  0.98890900  1
  As  As5  1  0.99540100  0.54393900  0.48890900  1
  P  P0  1  0.49818500  0.45593800  0.01047900  1
  P  P1  1  0.50181500  0.45593800  0.51047900  1
  P  P2  1  0.84898300  0.97169400  0.14315600  1
  P  P3  1  0.15101700  0.97169400  0.64315600  1
  P  P4  1  0.65043600  0.02538400  0.85650900  1
  P  P5  1  0.34956400  0.02538400  0.35650900  1
  O  O0  1  0.79262000  0.13720600  0.04065700  1
  O  O1  1  0.20738000  0.13720600  0.54065700  1
  O  O2  1  0.69921000  0.86027800  0.96143800  1
  O  O3  1  0.30079000  0.86027800  0.46143800  1
  O  O4  1  0.17884800  0.17633900  0.97786400  1
  O  O5  1  0.82115200  0.17633900  0.47786400  1
  O  O6  1  0.32243400  0.82295000  0.02303700  1
  O  O7  1  0.67756600  0.82295000  0.52303700  1
  O  O8  1  0.00038800  0.01106800  0.17160300  1
  O  O9  1  0.99961200  0.01106800  0.67160300  1
  O  O10  1  0.50071900  0.99140000  0.82350000  1
  O  O11  1  0.49928100  0.99140000  0.32350000  1
  O  O12  1  0.23172500  0.05842200  0.27508900  1
  O  O13  1  0.76827500  0.05842200  0.77508900  1
  O  O14  1  0.26671200  0.93513600  0.72699500  1
  O  O15  1  0.73328800  0.93513600  0.22699500  1
  O  O16  1  0.13119600  0.38746100  0.06587500  1
  O  O17  1  0.86880400  0.38746100  0.56587500  1
  O  O18  1  0.38721400  0.60671100  0.94176000  1
  O  O19  1  0.61278600  0.60671100  0.44176000  1
  O  O20  1  0.41963200  0.27206400  0.07938000  1
  O  O21  1  0.58036800  0.27206400  0.57938000  1
  O  O22  1  0.08249100  0.75111700  0.91329700  1
  O  O23  1  0.91750900  0.75111700  0.41329700  1
  O  O24  1  0.94885800  0.27091500  0.83924400  1
  O  O25  1  0.05114200  0.27091500  0.33924400  1
  O  O26  1  0.54715900  0.70852800  0.16813500  1
  O  O27  1  0.45284100  0.70852800  0.66813500  1
  O  O28  1  0.60241900  0.44242600  0.93761300  1
  O  O29  1  0.39758100  0.44242600  0.43761300  1
  O  O30  1  0.89129000  0.54613600  0.07347800  1
  O  O31  1  0.10871000  0.54613600  0.57347800  1
  O  O32  1  0.73945900  0.57519800  0.73151200  1
  O  O33  1  0.26054100  0.57519800  0.23151200  1
  O  O34  1  0.76438800  0.43006300  0.27134500  1
  O  O35  1  0.23561200  0.43006300  0.77134500  1
  O  O36  1  0.34666400  0.92380700  0.16144200  1
  O  O37  1  0.65333600  0.92380700  0.66144200  1
  O  O38  1  0.16793700  0.08319300  0.83510300  1
  O  O39  1  0.83206300  0.08319300  0.33510300  1
  O  O40  1  0.92109200  0.50009800  0.90916500  1
  O  O41  1  0.07890800  0.50009800  0.40916500  1
  O  O42  1  0.57986000  0.49649100  0.08072500  1
  O  O43  1  0.42014000  0.49649100  0.58072500  1
  O  O44  1  0.64028100  0.18916700  0.86114900  1
  O  O45  1  0.35971900  0.18916700  0.36114900  1
  O  O46  1  0.85713900  0.80999000  0.13666400  1
  O  O47  1  0.14286100  0.80999000  0.63666400  1
loop_
_geom_bond_atom_site_label_1
_geom_bond_atom_site_label_2
_geom_bond_distance
_geom_bond_site_symmetry_2
Li0 O13 2.007944 1_565
Li0 O22 2.022296 1_655
Li0 O38 2.039487 1_665
Li0 O9 2.410488 1_565
Li1 O12 2.007944 1_565
Li1 O23 2.022296 1_455
Li1 O39 2.039487 1_465
Li1 O8 2.410488 1_565
Li2 O15 2.024410 1_545
Li2 O20 2.038120 1_555
Li2 O36 2.064328 1_545
Li2 O11 2.374439 1_545
Li3 O14 2.024410 1_545
Li3 O21 2.038120 1_555
Li3 O37 2.064328 1_545
Li3 O10 2.374439 1_545
As0 O35 1.694666 1_555
As0 O24 1.705859 1_455
As0 O4 1.709224 1_555
As0 O38 1.716035 1_555
As1 O34 1.694666 1_555
As1 O25 1.705859 1_655
As1 O5 1.709224 1_555
As1 O39 1.716035 1_555
As2 O33 1.691563 1_555
As2 O26 1.696553 1_555
As2 O6 1.705709 1_555
As2 O36 1.717408 1_555
As3 O32 1.691563 1_555
As3 O27 1.696553 1_555
As3 O7 1.705709 1_555
As3 O37 1.717408 1_555
As4 O30 1.690407 1_456
As4 O40 1.692128 1_455
As4 O16 1.699552 1_556
As4 O22 1.716916 1_555
As5 O31 1.690407 1_655
As5 O41 1.692128 1_655
As5 O17 1.699552 1_555
As5 O23 1.716916 1_555
O0 P2 1.540502 1_545
O0 Zr0 2.112778 1_554
O1 P3 1.540502 1_545
O1 Zr1 2.112778 1_555
O2 P4 1.536183 1_565
O2 Zr2 2.118214 1_556
O3 P5 1.536183 1_565
O3 Zr3 2.118214 1_555
O4 Zr4 2.022809 1_556
O5 Zr5 2.022809 1_555
O6 Zr6 2.038216 1_554
O7 Zr7 2.038216 1_555
O8 P2 1.561202 1_445
O8 Zr4 2.150156 1_555
O9 P3 1.561202 1_645
O9 Zr5 2.150156 1_555
O10 P4 1.558975 1_565
O10 Zr6 2.126359 1_555
O11 P5 1.558975 1_565
O11 Zr7 2.126359 1_555
O12 P5 1.563501 1_555
O12 Zr4 2.152390 1_555
O13 P4 1.563501 1_555
O13 Zr5 2.152390 1_555
O14 P3 1.568388 1_555
O14 Zr6 2.143161 1_555
O15 P2 1.568388 1_555
O15 Zr7 2.143161 1_555
O16 Zr4 2.029555 1_555
O17 Zr5 2.029555 1_555
O18 P0 1.551853 1_556
O18 Zr6 2.060173 1_555
O19 P1 1.551853 1_555
O19 Zr7 2.060173 1_555
O20 P0 1.563803 1_555
O20 Zr4 2.178148 1_555
O21 P1 1.563803 1_555
O21 Zr5 2.178148 1_555
O22 Zr6 2.139452 1_555
O23 Zr7 2.139452 1_555
O24 Zr0 2.124633 1_555
O25 Zr1 2.124633 1_555
O26 Zr2 2.070158 1_555
O27 Zr3 2.070158 1_555
O28 P0 1.544359 1_556
O28 Zr0 2.078603 1_555
O29 P1 1.544359 1_555
O29 Zr1 2.078603 1_555
O30 Zr2 2.036665 1_555
O31 Zr3 2.036665 1_555
O32 Zr0 2.091732 1_555
O33 Zr1 2.091732 1_555
O34 Zr2 2.090800 1_555
O35 Zr3 2.090800 1_555
O36 Zr4 2.120817 1_565
O37 Zr5 2.120817 1_565
O38 Zr6 2.144559 1_545
O39 Zr7 2.144559 1_545
O40 Zr0 2.098583 1_555
O41 Zr1 2.098583 1_555
O42 P0 1.537058 1_555
O42 Zr2 2.139892 1_555
O43 P1 1.537058 1_555
O43 Zr3 2.139892 1_555
O44 P4 1.538262 1_555
O44 Zr0 2.114393 1_555
O45 P5 1.538262 1_555
O45 Zr1 2.114393 1_555
O46 P2 1.535806 1_555
O46 Zr2 2.139140 1_555
O47 P3 1.535806 1_555
O47 Zr3 2.139140 1_555
