# generated using pymatgen
data_LiZn2(FeO2)4
_symmetry_space_group_name_H-M   'P 1'
_cell_length_a   6.15576580
_cell_length_b   6.15576560
_cell_length_c   5.91697548
_cell_angle_alpha   61.27510906
_cell_angle_beta   61.27511008
_cell_angle_gamma   57.26670333
_symmetry_Int_Tables_number   1
_chemical_formula_structural   LiZn2(FeO2)4
_chemical_formula_sum   'Li1 Zn2 Fe4 O8'
_cell_volume   157.82010417
_cell_formula_units_Z   1
loop_
 _symmetry_equiv_pos_site_id
 _symmetry_equiv_pos_as_xyz
  1  'x, y, z'
loop_
 _atom_site_type_symbol
 _atom_site_label
 _atom_site_symmetry_multiplicity
 _atom_site_fract_x
 _atom_site_fract_y
 _atom_site_fract_z
 _atom_site_occupancy
  Li  Li0  1  0.02463681  0.02463681  0.47536319  1
  Zn  Zn0  1  0.09620198  0.56172656  0.67103523  1
  Zn  Zn1  1  0.56172656  0.09620198  0.67103523  1
  Fe  Fe0  1  0.98278596  0.98278496  0.01721504  1
  Fe  Fe1  1  0.29448861  0.29448961  0.20551039  1
  Fe  Fe2  1  0.62276725  0.62276725  0.14836125  1
  Fe  Fe3  1  0.62276725  0.62276725  0.60610425  1
  O  O0  1  0.39842966  0.39842966  0.37575808  1
  O  O1  1  0.39842966  0.39842966  0.82738361  1
  O  O2  1  0.40109397  0.90745540  0.34572481  1
  O  O3  1  0.90745440  0.40109697  0.34572381  1
  O  O4  1  0.37226351  0.85159769  0.88806990  1
  O  O5  1  0.85160069  0.37226251  0.88806890  1
  O  O6  1  0.86809285  0.86809285  0.40455962  1
  O  O7  1  0.86809285  0.86809285  0.85925467  1
loop_
_geom_bond_atom_site_label_1
_geom_bond_atom_site_label_2
_geom_bond_distance
_geom_bond_site_symmetry_2
Li0 O2 1.869335 1_545
Li0 O3 1.869350 1_455
Li0 O7 1.952720 1_445
Li0 O6 1.952720 1_445
Fe0 O6 1.917841 1_555
Fe0 O7 1.917846 1_554
Fe0 O4 1.929385 1_654
Fe0 O5 1.929386 1_564
Fe1 O1 1.874912 1_554
Fe1 O0 1.874923 1_555
Fe1 O3 1.930740 1_455
Fe1 O2 1.930742 1_545
Fe2 O0 2.028525 1_555
Fe2 O3 2.036217 1_555
Fe2 O2 2.036225 1_555
Fe2 O4 2.140690 1_554
Fe2 O5 2.140697 1_554
Fe2 O7 2.233292 1_554
Fe3 O1 2.028525 1_555
Fe3 O3 2.036221 1_555
Fe3 O2 2.036228 1_555
Fe3 O4 2.140694 1_555
Fe3 O5 2.140701 1_555
Fe3 O6 2.233292 1_555
O0 Zn1 2.016309 1_555
O0 Zn0 2.016309 1_555
O1 Zn1 2.016317 1_555
O1 Zn0 2.016317 1_555
O4 Zn1 1.969133 1_565
O5 Zn0 1.969123 1_655
O6 Zn0 2.102501 1_655
O6 Zn1 2.102501 1_565
O7 Zn0 2.102505 1_655
O7 Zn1 2.102505 1_565
