# generated using pymatgen
data_Sm6Cd(GeS7)2
_symmetry_space_group_name_H-M   'P 1'
_cell_length_a   10.13282537
_cell_length_b   10.13282537
_cell_length_c   5.80642100
_cell_angle_alpha   90.00000000
_cell_angle_beta   90.00000000
_cell_angle_gamma   119.99999588
_symmetry_Int_Tables_number   1
_chemical_formula_structural   Sm6Cd(GeS7)2
_chemical_formula_sum   'Sm6 Cd1 Ge2 S14'
_cell_volume   516.29781527
_cell_formula_units_Z   1
loop_
 _symmetry_equiv_pos_site_id
 _symmetry_equiv_pos_as_xyz
  1  'x, y, z'
loop_
 _atom_site_type_symbol
 _atom_site_label
 _atom_site_symmetry_multiplicity
 _atom_site_fract_x
 _atom_site_fract_y
 _atom_site_fract_z
 _atom_site_occupancy
  Sm  Sm0  1  0.64252000  0.77070700  0.75306500  1
  Sm  Sm1  1  0.12818700  0.35748000  0.75306500  1
  Sm  Sm2  1  0.22929300  0.87181300  0.75306500  1
  Sm  Sm3  1  0.35797100  0.22973800  0.24910400  1
  Sm  Sm4  1  0.87176600  0.64202900  0.24910400  1
  Sm  Sm5  1  0.77026200  0.12823400  0.24910400  1
  Cd  Cd0  1  0.00000000  0.00000000  0.51491300  1
  Ge  Ge0  1  0.33333300  0.66666700  0.17009500  1
  Ge  Ge1  1  0.66666700  0.33333300  0.66566300  1
  S  S0  1  0.73998900  0.83607300  0.28429100  1
  S  S1  1  0.09608400  0.26001100  0.28429100  1
  S  S2  1  0.16392700  0.90391600  0.28429100  1
  S  S3  1  0.25708400  0.16407900  0.77534100  1
  S  S4  1  0.90699400  0.74291600  0.77534100  1
  S  S5  1  0.83592100  0.09300600  0.77534100  1
  S  S6  1  0.33333300  0.66666700  0.54771700  1
  S  S7  1  0.66666700  0.33333300  0.04433900  1
  S  S8  1  0.48139700  0.89681600  0.00949700  1
  S  S9  1  0.41542000  0.51860300  0.00949700  1
  S  S10  1  0.10318400  0.58458000  0.00949700  1
  S  S11  1  0.51847300  0.10320200  0.50682100  1
  S  S12  1  0.58473000  0.48152700  0.50682100  1
  S  S13  1  0.89679800  0.41527000  0.50682100  1
loop_
_geom_bond_atom_site_label_1
_geom_bond_atom_site_label_2
_geom_bond_distance
_geom_bond_site_symmetry_2
Cd0 S2 2.667831 1_545
Cd0 S1 2.667831 1_555
Cd0 S0 2.667831 1_445
Cd0 S4 2.739660 1_445
Cd0 S3 2.739662 1_555
Cd0 S5 2.739668 1_455
Ge0 S6 2.192632 1_555
Ge0 S10 2.249480 1_555
Ge0 S8 2.249483 1_555
Ge0 S9 2.249497 1_555
Ge1 S7 2.198752 1_556
Ge1 S12 2.245343 1_555
Ge1 S13 2.245343 1_555
Ge1 S11 2.245343 1_555
S0 Sm5 2.826976 1_565
S0 Sm0 2.858095 1_555
S0 Sm4 2.883770 1_555
S0 Sm0 3.205346 1_554
S1 Sm3 2.826966 1_555
S1 Sm1 2.858095 1_555
S1 Sm5 2.883779 1_455
S1 Sm1 3.205346 1_554
S2 Sm4 2.826972 1_455
S2 Sm2 2.858095 1_555
S2 Sm3 2.883778 1_565
S2 Sm2 3.205346 1_554
S3 Sm2 2.834156 1_545
S3 Sm1 2.850011 1_555
S3 Sm3 2.893928 1_556
S3 Sm3 3.184958 1_555
S4 Sm0 2.834146 1_555
S4 Sm2 2.850021 1_655
S4 Sm4 2.893928 1_556
S4 Sm4 3.184958 1_555
S5 Sm1 2.834152 1_655
S5 Sm0 2.850020 1_545
S5 Sm5 2.893928 1_556
S5 Sm5 3.184958 1_555
S6 Sm2 3.007572 1_555
S6 Sm1 3.007579 1_555
S6 Sm0 3.007581 1_555
S7 Sm5 3.002680 1_555
S7 Sm4 3.002694 1_555
S7 Sm3 3.002698 1_555
S8 Sm2 2.856497 1_554
S8 Sm0 2.932845 1_554
S8 Sm5 3.022923 1_565
S9 Sm0 2.856494 1_554
S9 Sm1 2.932853 1_554
S9 Sm3 3.022917 1_555
S10 Sm1 2.856488 1_554
S10 Sm2 2.932853 1_554
S10 Sm4 3.022934 1_455
S11 Sm5 2.857580 1_555
S11 Sm3 2.934863 1_555
S11 Sm2 3.042609 1_545
S12 Sm3 2.857587 1_555
S12 Sm4 2.934849 1_555
S12 Sm0 3.042612 1_555
S13 Sm4 2.857597 1_555
S13 Sm5 2.934848 1_555
S13 Sm1 3.042603 1_655
