# generated using pymatgen
data_Li7Mn2(CoO4)3
_symmetry_space_group_name_H-M   'P 1'
_cell_length_a   3.03057200
_cell_length_b   6.39096516
_cell_length_c   12.03601220
_cell_angle_alpha   102.85178338
_cell_angle_beta   95.19232885
_cell_angle_gamma   103.27407037
_symmetry_Int_Tables_number   1
_chemical_formula_structural   Li7Mn2(CoO4)3
_chemical_formula_sum   'Li7 Mn2 Co3 O12'
_cell_volume   218.72902808
_cell_formula_units_Z   1
loop_
 _symmetry_equiv_pos_site_id
 _symmetry_equiv_pos_as_xyz
  1  'x, y, z'
loop_
 _atom_site_type_symbol
 _atom_site_label
 _atom_site_symmetry_multiplicity
 _atom_site_fract_x
 _atom_site_fract_y
 _atom_site_fract_z
 _atom_site_occupancy
  Li  Li0  1  0.99678400  0.99798800  0.25103100  1
  Li  Li1  1  0.33463800  0.66810800  0.58046900  1
  Li  Li2  1  0.66577400  0.33113800  0.41859200  1
  Li  Li3  1  0.00408400  0.00529500  0.74904300  1
  Li  Li4  1  0.66749000  0.33296000  0.91641000  1
  Li  Li5  1  0.33157800  0.66436200  0.08448000  1
  Li  Li6  1  0.99935800  0.99922200  0.49943600  1
  Mn  Mn0  1  0.00215000  0.00325600  0.00231200  1
  Mn  Mn1  1  0.33232200  0.66216900  0.83051900  1
  Co  Co0  1  0.33822400  0.67947900  0.34054700  1
  Co  Co1  1  0.66179100  0.31818900  0.65758400  1
  Co  Co2  1  0.66890100  0.33830100  0.16932800  1
  O  O0  1  0.48872500  0.01837800  0.12540100  1
  O  O1  1  0.81109900  0.66560200  0.44746600  1
  O  O2  1  0.15679100  0.35824300  0.28835700  1
  O  O3  1  0.50759200  0.02948400  0.63067200  1
  O  O4  1  0.14685900  0.34281100  0.78512200  1
  O  O5  1  0.81502900  0.67748400  0.95632800  1
  O  O6  1  0.48950800  0.96884800  0.36838300  1
  O  O7  1  0.84008300  0.64208200  0.70750100  1
  O  O8  1  0.18465000  0.33218000  0.55135600  1
  O  O9  1  0.51819000  0.98754800  0.87689900  1
  O  O10  1  0.18724700  0.32594800  0.04800100  1
  O  O11  1  0.85113400  0.65092400  0.21476300  1
loop_
_geom_bond_atom_site_label_1
_geom_bond_atom_site_label_2
_geom_bond_distance
_geom_bond_site_symmetry_2
Li0 O6 2.030375 1_655
Li0 O11 2.095240 1_555
Li0 O0 2.105347 1_565
Li0 O2 2.173854 1_665
Li0 O6 2.184414 1_555
Li0 O0 2.220927 1_665
Li1 O8 2.031494 1_555
Li1 O7 2.125555 1_555
Li1 O1 2.144173 1_455
Li1 O3 2.177104 1_565
Li1 O7 2.241687 1_455
Li1 O1 2.250663 1_555
Li2 O1 2.023208 1_555
Li2 O8 2.135852 1_655
Li2 O2 2.161549 1_555
Li2 O6 2.182357 1_545
Li2 O8 2.258523 1_555
Li2 O2 2.264075 1_655
Li3 O3 2.033344 1_455
Li3 O4 2.036997 1_555
Li3 O9 2.129157 1_545
Li3 O3 2.182951 1_555
Li3 O7 2.189581 1_445
Li3 O9 2.227211 1_445
Li4 O5 2.077804 1_555
Li4 O9 2.083115 1_545
Li4 O10 2.145716 1_656
Li4 O4 2.151518 1_555
Li4 O4 2.242593 1_655
Li4 O10 2.246686 1_556
Li5 O10 2.042092 1_555
Li5 O5 2.125451 1_454
Li5 O0 2.134320 1_565
Li5 O11 2.149559 1_555
Li5 O5 2.223268 1_554
Li5 O11 2.236516 1_455
Li6 O8 2.007510 1_665
Li6 O1 2.011550 1_555
Li6 O3 2.047364 1_665
Li6 O6 2.048925 1_555
Li6 O6 2.269921 1_655
Li6 O3 2.275092 1_565
Mn0 O10 1.943865 1_555
Mn0 O5 1.962399 1_444
Mn0 O0 1.963181 1_555
Mn0 O9 1.975850 1_444
Mn0 O0 2.246737 1_455
Mn0 O9 2.272953 1_544
Mn1 O4 1.923973 1_555
Mn1 O9 1.960089 1_555
Mn1 O7 1.965165 1_455
Mn1 O5 1.977344 1_555
Mn1 O7 2.235010 1_555
Mn1 O5 2.279114 1_455
Co0 O6 1.746349 1_555
Co0 O1 1.868953 1_555
Co0 O2 1.938340 1_555
Co0 O11 1.962969 1_455
Co0 O1 2.138621 1_455
Co0 O11 2.274819 1_555
Co1 O3 1.743124 1_555
Co1 O8 1.873302 1_555
Co1 O7 1.952470 1_555
Co1 O4 1.979903 1_655
Co1 O8 2.122744 1_655
Co1 O4 2.292446 1_555
Co2 O11 1.883742 1_555
Co2 O2 1.924509 1_655
Co2 O0 1.926735 1_555
Co2 O10 1.944057 1_555
Co2 O2 2.211197 1_555
Co2 O10 2.242150 1_655
