# generated using pymatgen
data_Y2W2O7
_symmetry_space_group_name_H-M   'P 1'
_cell_length_a   7.33323126
_cell_length_b   7.33323126
_cell_length_c   7.43383361
_cell_angle_alpha   60.95073140
_cell_angle_beta   60.95073140
_cell_angle_gamma   60.57627866
_symmetry_Int_Tables_number   1
_chemical_formula_structural   Y2W2O7
_chemical_formula_sum   'Y4 W4 O14'
_cell_volume   287.93275302
_cell_formula_units_Z   2
loop_
 _symmetry_equiv_pos_site_id
 _symmetry_equiv_pos_as_xyz
  1  'x, y, z'
loop_
 _atom_site_type_symbol
 _atom_site_label
 _atom_site_symmetry_multiplicity
 _atom_site_fract_x
 _atom_site_fract_y
 _atom_site_fract_z
 _atom_site_occupancy
  Y  Y0  1  0.00000000  0.50000000  0.50000000  1
  Y  Y1  1  0.50000000  0.00000000  0.50000000  1
  Y  Y2  1  0.50000000  0.50000000  0.50000000  1
  Y  Y3  1  0.50000000  0.50000000  0.00000000  1
  W  W0  1  0.50000000  0.00000000  0.00000000  1
  W  W1  1  0.00000000  0.50000000  0.00000000  1
  W  W2  1  0.00000000  0.00000000  0.00000000  1
  W  W3  1  0.00000000  0.00000000  0.50000000  1
  O  O0  1  0.37507900  0.37507900  0.37659500  1
  O  O1  1  0.62492100  0.62492100  0.62340500  1
  O  O2  1  0.08784700  0.67220200  0.66135700  1
  O  O3  1  0.35563200  0.90703800  0.89511100  1
  O  O4  1  0.67220200  0.08784700  0.66135700  1
  O  O5  1  0.08957300  0.08957300  0.65197900  1
  O  O6  1  0.66126600  0.66126600  0.10644100  1
  O  O7  1  0.09296200  0.64436800  0.10488900  1
  O  O8  1  0.64436800  0.09296200  0.10488900  1
  O  O9  1  0.33873400  0.33873400  0.89355900  1
  O  O10  1  0.91042700  0.91042700  0.34802100  1
  O  O11  1  0.91215300  0.32779800  0.33864300  1
  O  O12  1  0.90703800  0.35563200  0.89511100  1
  O  O13  1  0.32779800  0.91215300  0.33864300  1
loop_
_geom_bond_atom_site_label_1
_geom_bond_atom_site_label_2
_geom_bond_distance
_geom_bond_site_symmetry_2
O0 Y2 2.230855 1_555
O0 Y0 2.266334 1_555
O0 Y1 2.266334 1_555
O0 Y3 2.315016 1_555
O1 Y2 2.230855 1_555
O1 Y0 2.266334 1_655
O1 Y1 2.266334 1_565
O1 Y3 2.315016 1_556
O2 W3 2.015178 1_565
O2 W1 2.117602 1_556
O2 Y2 2.523632 1_555
O2 Y0 2.543449 1_555
O3 W0 2.054379 1_566
O3 W2 2.160709 1_566
O3 Y1 2.440794 1_565
O3 Y3 2.464756 1_556
O4 W3 2.015178 1_655
O4 W0 2.117602 1_556
O4 Y2 2.523632 1_555
O4 Y1 2.543449 1_555
O5 W3 2.001158 1_555
O5 W2 2.163211 1_556
O5 Y1 2.498511 1_555
O5 Y0 2.498511 1_555
O6 W0 2.075734 1_565
O6 W1 2.075734 1_655
O6 Y2 2.451674 1_555
O6 Y3 2.571917 1_555
O7 W1 2.054379 1_555
O7 W2 2.160709 1_565
O7 Y0 2.440794 1_555
O7 Y3 2.464756 1_555
O8 W0 2.054379 1_555
O8 W2 2.160709 1_655
O8 Y1 2.440794 1_555
O8 Y3 2.464756 1_555
O9 W0 2.075734 1_556
O9 W1 2.075734 1_556
O9 Y2 2.451674 1_555
O9 Y3 2.571917 1_556
O10 W3 2.001158 1_665
O10 W2 2.163211 1_665
O10 Y1 2.498511 1_565
O10 Y0 2.498511 1_655
O11 W3 2.015178 1_655
O11 W1 2.117602 1_655
O11 Y2 2.523632 1_555
O11 Y0 2.543449 1_655
O12 W1 2.054379 1_656
O12 W2 2.160709 1_656
O12 Y0 2.440794 1_655
O12 Y3 2.464756 1_556
O13 W3 2.015178 1_565
O13 W0 2.117602 1_565
O13 Y2 2.523632 1_555
O13 Y1 2.543449 1_565
