# generated using pymatgen
data_YMg30NbO32
_symmetry_space_group_name_H-M   'P 1'
_cell_length_a   8.62449700
_cell_length_b   8.62449700
_cell_length_c   8.66197800
_cell_angle_alpha   90.00000000
_cell_angle_beta   90.00000000
_cell_angle_gamma   90.00000000
_symmetry_Int_Tables_number   1
_chemical_formula_structural   YMg30NbO32
_chemical_formula_sum   'Y1 Mg30 Nb1 O32'
_cell_volume   644.29480153
_cell_formula_units_Z   1
loop_
 _symmetry_equiv_pos_site_id
 _symmetry_equiv_pos_as_xyz
  1  'x, y, z'
loop_
 _atom_site_type_symbol
 _atom_site_label
 _atom_site_symmetry_multiplicity
 _atom_site_fract_x
 _atom_site_fract_y
 _atom_site_fract_z
 _atom_site_occupancy
  Y  Y0  1  0.00000000  0.00000000  0.00000000  1
  Mg  Mg0  1  0.00000000  0.50000000  0.00000000  1
  Mg  Mg1  1  0.00000000  0.50000000  0.50000000  1
  Mg  Mg2  1  0.50000000  0.00000000  0.00000000  1
  Mg  Mg3  1  0.50000000  0.00000000  0.50000000  1
  Mg  Mg4  1  0.50000000  0.50000000  0.00000000  1
  Mg  Mg5  1  0.50000000  0.50000000  0.50000000  1
  Mg  Mg6  1  0.00000000  0.25715500  0.25447500  1
  Mg  Mg7  1  0.00000000  0.25715500  0.74552500  1
  Mg  Mg8  1  0.00000000  0.74284500  0.25447500  1
  Mg  Mg9  1  0.00000000  0.74284500  0.74552500  1
  Mg  Mg10  1  0.50000000  0.25077400  0.25080300  1
  Mg  Mg11  1  0.50000000  0.25077400  0.74919700  1
  Mg  Mg12  1  0.50000000  0.74922600  0.25080300  1
  Mg  Mg13  1  0.50000000  0.74922600  0.74919700  1
  Mg  Mg14  1  0.25715500  0.00000000  0.25447500  1
  Mg  Mg15  1  0.25715500  0.00000000  0.74552500  1
  Mg  Mg16  1  0.25077400  0.50000000  0.25080300  1
  Mg  Mg17  1  0.25077400  0.50000000  0.74919700  1
  Mg  Mg18  1  0.74284500  0.00000000  0.25447500  1
  Mg  Mg19  1  0.74284500  0.00000000  0.74552500  1
  Mg  Mg20  1  0.74922600  0.50000000  0.25080300  1
  Mg  Mg21  1  0.74922600  0.50000000  0.74919700  1
  Mg  Mg22  1  0.25602100  0.25602100  0.00000000  1
  Mg  Mg23  1  0.25218900  0.25218900  0.50000000  1
  Mg  Mg24  1  0.25602100  0.74397900  0.00000000  1
  Mg  Mg25  1  0.25218900  0.74781100  0.50000000  1
  Mg  Mg26  1  0.74397900  0.25602100  0.00000000  1
  Mg  Mg27  1  0.74781100  0.25218900  0.50000000  1
  Mg  Mg28  1  0.74397900  0.74397900  0.00000000  1
  Mg  Mg29  1  0.74781100  0.74781100  0.50000000  1
  Nb  Nb0  1  0.00000000  0.00000000  0.50000000  1
  O  O0  1  0.26145200  0.00000000  0.00000000  1
  O  O1  1  0.26379800  0.00000000  0.50000000  1
  O  O2  1  0.25182700  0.50000000  0.00000000  1
  O  O3  1  0.25175900  0.50000000  0.50000000  1
  O  O4  1  0.73854800  0.00000000  0.00000000  1
  O  O5  1  0.73620200  0.00000000  0.50000000  1
  O  O6  1  0.74817300  0.50000000  0.00000000  1
  O  O7  1  0.74824100  0.50000000  0.50000000  1
  O  O8  1  0.24949500  0.24949500  0.24933500  1
  O  O9  1  0.24949500  0.24949500  0.75066500  1
  O  O10  1  0.24949500  0.75050500  0.24933500  1
  O  O11  1  0.24949500  0.75050500  0.75066500  1
  O  O12  1  0.75050500  0.24949500  0.24933500  1
  O  O13  1  0.75050500  0.24949500  0.75066500  1
  O  O14  1  0.75050500  0.75050500  0.24933500  1
  O  O15  1  0.75050500  0.75050500  0.75066500  1
  O  O16  1  0.00000000  0.00000000  0.24950400  1
  O  O17  1  0.00000000  0.00000000  0.75049600  1
  O  O18  1  0.00000000  0.50000000  0.24955800  1
  O  O19  1  0.00000000  0.50000000  0.75044200  1
  O  O20  1  0.50000000  0.00000000  0.24955800  1
  O  O21  1  0.50000000  0.00000000  0.75044200  1
  O  O22  1  0.50000000  0.50000000  0.24944700  1
  O  O23  1  0.50000000  0.50000000  0.75055300  1
  O  O24  1  0.00000000  0.26145200  0.00000000  1
  O  O25  1  0.00000000  0.26379800  0.50000000  1
  O  O26  1  0.00000000  0.73854800  0.00000000  1
  O  O27  1  0.00000000  0.73620200  0.50000000  1
  O  O28  1  0.50000000  0.25182700  0.00000000  1
  O  O29  1  0.50000000  0.25175900  0.50000000  1
  O  O30  1  0.50000000  0.74817300  0.00000000  1
  O  O31  1  0.50000000  0.74824100  0.50000000  1
loop_
_geom_bond_atom_site_label_1
_geom_bond_atom_site_label_2
_geom_bond_distance
_geom_bond_site_symmetry_2
Mg0 O26 2.057357 1_555
Mg0 O24 2.057357 1_555
Mg0 O18 2.161666 1_555
Mg0 O19 2.161666 1_554
Mg0 O2 2.171881 1_555
Mg0 O6 2.171881 1_455
Mg1 O27 2.037123 1_555
Mg1 O25 2.037123 1_555
Mg1 O19 2.169323 1_555
Mg1 O18 2.169323 1_555
Mg1 O3 2.171295 1_555
Mg1 O7 2.171295 1_455
Mg2 O4 2.057357 1_555
Mg2 O0 2.057357 1_555
Mg2 O20 2.161666 1_555
Mg2 O21 2.161666 1_554
Mg2 O28 2.171881 1_555
Mg2 O30 2.171881 1_545
Mg3 O5 2.037123 1_555
Mg3 O1 2.037123 1_555
Mg3 O21 2.169323 1_555
Mg3 O20 2.169323 1_555
Mg3 O29 2.171295 1_555
Mg3 O31 2.171295 1_545
Mg4 O30 2.140367 1_555
Mg4 O6 2.140367 1_555
Mg4 O28 2.140367 1_555
Mg4 O2 2.140367 1_555
Mg4 O22 2.160704 1_555
Mg4 O23 2.160704 1_554
Mg5 O7 2.140954 1_555
Mg5 O31 2.140954 1_555
Mg5 O3 2.140954 1_555
Mg5 O29 2.140954 1_555
Mg5 O23 2.170285 1_555
Mg5 O22 2.170285 1_555
Mg6 O18 2.094849 1_555
Mg6 O25 2.127504 1_555
Mg6 O12 2.153243 1_455
Mg6 O8 2.153243 1_555
Mg6 O24 2.204568 1_555
Mg6 O16 2.218250 1_555
Mg7 O19 2.094849 1_555
Mg7 O25 2.127504 1_555
Mg7 O9 2.153243 1_555
Mg7 O13 2.153243 1_455
Mg7 O24 2.204568 1_556
Mg7 O17 2.218250 1_555
Mg8 O18 2.094849 1_555
Mg8 O27 2.127504 1_555
Mg8 O10 2.153243 1_555
Mg8 O14 2.153243 1_455
Mg8 O26 2.204568 1_555
Mg8 O16 2.218250 1_565
Mg9 O19 2.094849 1_555
Mg9 O27 2.127504 1_555
Mg9 O11 2.153243 1_555
Mg9 O15 2.153243 1_455
Mg9 O26 2.204568 1_556
Mg9 O17 2.218250 1_565
Mg10 O22 2.149481 1_555
Mg10 O29 2.158556 1_555
Mg10 O12 2.160545 1_555
Mg10 O8 2.160545 1_555
Mg10 O20 2.162826 1_555
Mg10 O28 2.172469 1_555
Mg11 O23 2.149481 1_555
Mg11 O29 2.158556 1_555
Mg11 O9 2.160545 1_555
Mg11 O13 2.160545 1_555
Mg11 O21 2.162826 1_555
Mg11 O28 2.172469 1_556
Mg12 O22 2.149481 1_555
Mg12 O31 2.158556 1_555
Mg12 O14 2.160545 1_555
Mg12 O10 2.160545 1_555
Mg12 O20 2.162826 1_565
Mg12 O30 2.172469 1_555
Mg13 O23 2.149481 1_555
Mg13 O31 2.158556 1_555
Mg13 O11 2.160545 1_555
Mg13 O15 2.160545 1_555
Mg13 O21 2.162826 1_565
Mg13 O30 2.172469 1_556
Mg14 O20 2.094849 1_555
Mg14 O1 2.127504 1_555
Mg14 O8 2.153243 1_555
Mg14 O10 2.153243 1_545
Mg14 O0 2.204568 1_555
Mg14 O16 2.218250 1_555
Mg15 O21 2.094849 1_555
Mg15 O1 2.127504 1_555
Mg15 O9 2.153243 1_555
Mg15 O11 2.153243 1_545
Mg15 O0 2.204568 1_556
Mg15 O17 2.218250 1_555
Mg16 O22 2.149481 1_555
Mg16 O3 2.158556 1_555
Mg16 O8 2.160545 1_555
Mg16 O10 2.160545 1_555
Mg16 O18 2.162826 1_555
Mg16 O2 2.172469 1_555
Mg17 O23 2.149481 1_555
Mg17 O3 2.158556 1_555
Mg17 O11 2.160545 1_555
Mg17 O9 2.160545 1_555
Mg17 O19 2.162826 1_555
Mg17 O2 2.172469 1_556
Mg18 O20 2.094849 1_555
Mg18 O5 2.127504 1_555
Mg18 O14 2.153243 1_545
Mg18 O12 2.153243 1_555
Mg18 O4 2.204568 1_555
Mg18 O16 2.218250 1_655
Mg19 O21 2.094849 1_555
Mg19 O5 2.127504 1_555
Mg19 O13 2.153243 1_555
Mg19 O15 2.153243 1_545
Mg19 O4 2.204568 1_556
Mg19 O17 2.218250 1_655
Mg20 O22 2.149481 1_555
Mg20 O7 2.158556 1_555
Mg20 O12 2.160545 1_555
Mg20 O14 2.160545 1_555
Mg20 O18 2.162826 1_655
Mg20 O6 2.172469 1_555
Mg21 O23 2.149481 1_555
Mg21 O7 2.158556 1_555
Mg21 O15 2.160545 1_555
Mg21 O13 2.160545 1_555
Mg21 O19 2.162826 1_655
Mg21 O6 2.172469 1_556
Mg22 O28 2.104507 1_555
Mg22 O2 2.104507 1_555
Mg22 O8 2.161201 1_555
Mg22 O9 2.161201 1_554
Mg22 O0 2.208549 1_555
Mg22 O24 2.208549 1_555
Mg23 O29 2.137248 1_555
Mg23 O3 2.137248 1_555
Mg23 O9 2.171503 1_555
Mg23 O8 2.171503 1_555
Mg23 O25 2.177307 1_555
Mg23 O1 2.177307 1_555
Mg24 O2 2.104507 1_555
Mg24 O30 2.104507 1_555
Mg24 O10 2.161201 1_555
Mg24 O11 2.161201 1_554
Mg24 O26 2.208549 1_555
Mg24 O0 2.208549 1_565
Mg25 O31 2.137248 1_555
Mg25 O3 2.137248 1_555
Mg25 O11 2.171503 1_555
Mg25 O10 2.171503 1_555
Mg25 O27 2.177307 1_555
Mg25 O1 2.177307 1_565
Mg26 O28 2.104507 1_555
Mg26 O6 2.104507 1_555
Mg26 O12 2.161201 1_555
Mg26 O13 2.161201 1_554
Mg26 O4 2.208549 1_555
Mg26 O24 2.208549 1_655
Mg27 O29 2.137248 1_555
Mg27 O7 2.137248 1_555
Mg27 O13 2.171503 1_555
Mg27 O12 2.171503 1_555
Mg27 O25 2.177307 1_655
Mg27 O5 2.177307 1_555
Mg28 O6 2.104507 1_555
Mg28 O30 2.104507 1_555
Mg28 O14 2.161201 1_555
Mg28 O15 2.161201 1_554
Mg28 O26 2.208549 1_655
Mg28 O4 2.208549 1_565
Mg29 O7 2.137248 1_555
Mg29 O31 2.137248 1_555
Mg29 O15 2.171503 1_555
Mg29 O14 2.171503 1_555
Mg29 O27 2.177307 1_655
Mg29 O5 2.177307 1_565
Nb0 O17 2.169791 1_555
Nb0 O16 2.169791 1_555
Nb0 O1 2.275125 1_555
Nb0 O25 2.275125 1_555
Nb0 O27 2.275125 1_545
Nb0 O5 2.275125 1_455
O0 Y0 2.254892 1_555
O4 Y0 2.254892 1_655
O16 Y0 2.161198 1_555
O17 Y0 2.161198 1_556
O24 Y0 2.254892 1_555
O26 Y0 2.254892 1_565
