# generated using pymatgen
data_Ba8Bi4O17
_symmetry_space_group_name_H-M   'P 1'
_cell_length_a   6.41793382
_cell_length_b   19.34537547
_cell_length_c   17.08402249
_cell_angle_alpha   19.01710658
_cell_angle_beta   55.70159442
_cell_angle_gamma   60.15647135
_symmetry_Int_Tables_number   1
_chemical_formula_structural   Ba8Bi4O17
_chemical_formula_sum   'Ba8 Bi4 O17'
_cell_volume   566.10109624
_cell_formula_units_Z   1
loop_
 _symmetry_equiv_pos_site_id
 _symmetry_equiv_pos_as_xyz
  1  'x, y, z'
loop_
 _atom_site_type_symbol
 _atom_site_label
 _atom_site_symmetry_multiplicity
 _atom_site_fract_x
 _atom_site_fract_y
 _atom_site_fract_z
 _atom_site_occupancy
  Ba  Ba0  1  0.24171300  0.24723800  0.25828700  1
  Ba  Ba1  1  0.49579100  0.16526400  0.50420900  1
  Ba  Ba2  1  0.17832400  0.55944100  0.32167600  1
  Ba  Ba3  1  0.67832400  0.05944100  0.82167600  1
  Ba  Ba4  1  0.20522000  0.90174000  0.29478000  1
  Ba  Ba5  1  0.70522000  0.40174000  0.79478000  1
  Ba  Ba6  1  0.45946200  0.81982000  0.54053800  1
  Ba  Ba7  1  0.74171300  0.74723800  0.75828700  1
  Bi  Bi0  1  0.98141400  0.99380500  0.01858600  1
  Bi  Bi1  1  0.99515600  0.33171800  0.00484400  1
  Bi  Bi2  1  0.00448200  0.66816100  0.99551800  1
  Bi  Bi3  1  0.47327100  0.49109000  0.52672900  1
  O  O0  1  0.24545600  0.10460500  0.22036500  1
  O  O1  1  0.29994300  0.47213700  0.14182400  1
  O  O2  1  0.77963500  0.10460500  0.22036500  1
  O  O3  1  0.21561200  0.07187100  0.78438800  1
  O  O4  1  0.76956900  0.25652300  0.23043100  1
  O  O5  1  0.24333900  0.75695800  0.24289300  1
  O  O6  1  0.24333900  0.24319000  0.75666100  1
  O  O7  1  0.85817600  0.47213700  0.14182400  1
  O  O8  1  0.77485000  0.59161700  0.22515000  1
  O  O9  1  0.24336000  0.41445300  0.75664100  1
  O  O10  1  0.24545600  0.57042500  0.75454400  1
  O  O11  1  0.75710700  0.24319000  0.75666100  1
  O  O12  1  0.75710700  0.75695800  0.24289300  1
  O  O13  1  0.75420900  0.91806900  0.24579100  1
  O  O14  1  0.29994300  0.91390300  0.70005700  1
  O  O15  1  0.77963500  0.57042500  0.75454400  1
  O  O16  1  0.85817600  0.91390300  0.70005700  1
loop_
_geom_bond_atom_site_label_1
_geom_bond_atom_site_label_2
_geom_bond_distance
_geom_bond_site_symmetry_2
Ba0 O14 2.727557 1_545
Ba0 O16 2.727563 1_445
Ba0 O7 2.727564 1_455
Ba0 O1 2.727567 1_555
Ba0 O4 3.219098 1_555
Ba0 O4 3.219104 1_455
Ba0 O0 3.366096 1_555
Ba0 O2 3.366096 1_555
Ba0 O15 3.366097 1_554
Ba0 O10 3.366107 1_554
Ba1 O4 2.508486 1_555
Ba1 O3 2.567130 1_555
Ba1 O1 2.645743 1_555
Ba1 O16 2.645747 1_545
Ba1 O7 2.645747 1_555
Ba1 O14 2.645755 1_545
Ba2 O5 2.795631 1_555
Ba2 O6 2.795631 1_555
Ba2 O12 2.795631 1_455
Ba2 O11 2.795631 1_455
Ba2 O3 3.227095 1_555
Ba2 O3 3.227108 1_564
Ba2 O8 3.328604 1_455
Ba2 O8 3.328616 1_555
Ba3 O11 2.795631 1_555
Ba3 O12 2.795631 1_546
Ba3 O6 2.795631 1_555
Ba3 O5 2.795631 1_546
Ba3 O3 3.227096 1_555
Ba3 O3 3.227108 1_655
Ba3 O8 3.328604 1_546
Ba3 O8 3.328616 1_555
Ba4 O10 2.879116 1_555
Ba4 O15 2.879122 1_455
Ba4 O2 2.879124 1_465
Ba4 O0 2.879127 1_565
Ba4 O9 3.227938 1_555
Ba4 O9 3.227938 1_564
Ba4 O13 3.240202 1_555
Ba4 O13 3.240215 1_455
Ba5 O15 2.879108 1_555
Ba5 O10 2.879116 1_555
Ba5 O0 2.879120 1_556
Ba5 O2 2.879124 1_556
Ba5 O9 3.227931 1_555
Ba5 O9 3.227944 1_655
Ba5 O13 3.240202 1_555
Ba5 O13 3.240215 1_546
Ba6 O0 2.472500 1_565
Ba6 O10 2.472502 1_555
Ba6 O15 2.472503 1_555
Ba6 O2 2.472513 1_565
Ba6 O13 2.700609 1_555
Ba7 O16 2.727548 1_555
Ba7 O14 2.727557 1_555
Ba7 O1 2.727560 1_556
Ba7 O7 2.727564 1_556
Ba7 O4 3.219098 1_565
Ba7 O4 3.219104 1_556
Ba7 O2 3.366096 1_565
Ba7 O0 3.366096 1_665
Ba7 O10 3.366107 1_655
Ba7 O15 3.366115 1_555
Bi0 O13 2.081744 1_555
Bi0 O3 2.145831 1_664
Bi0 O6 2.213312 1_664
Bi0 O11 2.213321 1_564
Bi0 O5 2.213321 1_655
Bi0 O12 2.213330 1_555
Bi1 O4 2.066942 1_555
Bi1 O2 2.119954 1_555
Bi1 O0 2.119967 1_655
Bi1 O10 2.119968 1_654
Bi1 O15 2.119968 1_554
Bi1 O9 2.274142 1_654
Bi2 O8 2.103995 1_456
Bi2 O7 2.118056 1_456
Bi2 O14 2.118056 1_555
Bi2 O1 2.118060 1_556
Bi2 O16 2.118065 1_455
Bi3 O9 2.106565 1_555
Bi3 O6 2.344605 1_555
Bi3 O12 2.344605 1_555
Bi3 O5 2.344605 1_555
Bi3 O11 2.344605 1_555
Bi3 O8 2.763198 1_555
