# generated using pymatgen
data_YZnPd
_symmetry_space_group_name_H-M   'P 1'
_cell_length_a   4.08813339
_cell_length_b   7.00896008
_cell_length_c   8.14452480
_cell_angle_alpha   90.00000000
_cell_angle_beta   90.00000000
_cell_angle_gamma   90.00000000
_symmetry_Int_Tables_number   1
_chemical_formula_structural   YZnPd
_chemical_formula_sum   'Y4 Zn4 Pd4'
_cell_volume   233.36966043
_cell_formula_units_Z   4
loop_
 _symmetry_equiv_pos_site_id
 _symmetry_equiv_pos_as_xyz
  1  'x, y, z'
loop_
 _atom_site_type_symbol
 _atom_site_label
 _atom_site_symmetry_multiplicity
 _atom_site_fract_x
 _atom_site_fract_y
 _atom_site_fract_z
 _atom_site_occupancy
  Y  Y0  1  0.75000000  0.45389210  0.19051166  1
  Y  Y1  1  0.75000000  0.95389210  0.30948834  1
  Y  Y2  1  0.25000000  0.54610790  0.80948834  1
  Y  Y3  1  0.25000000  0.04610790  0.69051166  1
  Zn  Zn0  1  0.75000000  0.86287287  0.93489355  1
  Zn  Zn1  1  0.75000000  0.36287287  0.56510645  1
  Zn  Zn2  1  0.25000000  0.13712713  0.06510645  1
  Zn  Zn3  1  0.25000000  0.63712713  0.43489355  1
  Pd  Pd0  1  0.75000000  0.24712837  0.88272009  1
  Pd  Pd1  1  0.75000000  0.74712837  0.61727991  1
  Pd  Pd2  1  0.25000000  0.75287163  0.11727991  1
  Pd  Pd3  1  0.25000000  0.25287163  0.38272009  1
loop_
_geom_bond_atom_site_label_1
_geom_bond_atom_site_label_2
_geom_bond_distance
_geom_bond_site_symmetry_2
Pd0 Zn2 2.641818 1_556
Pd0 Zn2 2.641818 1_656
Pd0 Zn1 2.711037 1_555
Pd0 Zn0 2.726547 1_545
Pd0 Y0 2.895566 1_556
Pd0 Y3 2.934954 1_555
Pd0 Y3 2.934954 1_655
Pd0 Y2 2.987510 1_655
Pd0 Y2 2.987510 1_555
Pd1 Zn3 2.641818 1_555
Pd1 Zn3 2.641818 1_655
Pd1 Zn0 2.711037 1_555
Pd1 Zn1 2.726547 1_555
Pd1 Y1 2.895566 1_555
Pd1 Y2 2.934954 1_655
Pd1 Y2 2.934954 1_555
Pd1 Y3 2.987510 1_665
Pd1 Y3 2.987510 1_565
Pd2 Zn0 2.641818 1_554
Pd2 Zn0 2.641818 1_454
Pd2 Zn3 2.711037 1_555
Pd2 Zn2 2.726547 1_565
Pd2 Y2 2.895566 1_554
Pd2 Y1 2.934954 1_455
Pd2 Y1 2.934954 1_555
Pd2 Y0 2.987510 1_455
Pd2 Y0 2.987510 1_555
Pd3 Zn1 2.641818 1_455
Pd3 Zn1 2.641818 1_555
Pd3 Zn2 2.711037 1_555
Pd3 Zn3 2.726547 1_555
Pd3 Y3 2.895566 1_555
Pd3 Y0 2.934954 1_555
Pd3 Y0 2.934954 1_455
Pd3 Y1 2.987510 1_445
Pd3 Y1 2.987510 1_545
