# generated using pymatgen
data_CsHF2
_symmetry_space_group_name_H-M   'P 1'
_cell_length_a   3.86332588
_cell_length_b   3.86332588
_cell_length_c   5.18043723
_cell_angle_alpha   90.00000000
_cell_angle_beta   90.00000000
_cell_angle_gamma   90.00000000
_symmetry_Int_Tables_number   1
_chemical_formula_structural   CsHF2
_chemical_formula_sum   'Cs1 H1 F2'
_cell_volume   77.31951169
_cell_formula_units_Z   1
loop_
 _symmetry_equiv_pos_site_id
 _symmetry_equiv_pos_as_xyz
  1  'x, y, z'
loop_
 _atom_site_type_symbol
 _atom_site_label
 _atom_site_symmetry_multiplicity
 _atom_site_fract_x
 _atom_site_fract_y
 _atom_site_fract_z
 _atom_site_occupancy
  Cs  Cs0  1  0.50000000  0.50000000  0.50000000  1
  H  H0  1  -0.00000000  -0.00000000  -0.00000000  1
  F  F0  1  0.00000000  0.00000000  0.21999975  1
  F  F1  1  -0.00000000  0.00000000  0.78000025  1
loop_
_geom_bond_atom_site_label_1
_geom_bond_atom_site_label_2
_geom_bond_distance
_geom_bond_site_symmetry_2
Cs0 F1 3.093002 1_655
Cs0 F1 3.093002 1_565
Cs0 F1 3.093002 1_555
Cs0 F1 3.093002 1_665
Cs0 F0 3.093002 1_555
Cs0 F0 3.093002 1_565
Cs0 F0 3.093002 1_665
Cs0 F0 3.093002 1_655
F0 H0 1.139695 1_555
F1 H0 1.139695 1_556
