# generated using pymatgen
data_NaTmCl4
_symmetry_space_group_name_H-M   'P 1'
_cell_length_a   6.30515223
_cell_length_b   6.70051092
_cell_length_c   7.56564338
_cell_angle_alpha   90.00000000
_cell_angle_beta   90.00000000
_cell_angle_gamma   92.51111075
_symmetry_Int_Tables_number   1
_chemical_formula_structural   NaTmCl4
_chemical_formula_sum   'Na2 Tm2 Cl8'
_cell_volume   319.32441727
_cell_formula_units_Z   2
loop_
 _symmetry_equiv_pos_site_id
 _symmetry_equiv_pos_as_xyz
  1  'x, y, z'
loop_
 _atom_site_type_symbol
 _atom_site_label
 _atom_site_symmetry_multiplicity
 _atom_site_fract_x
 _atom_site_fract_y
 _atom_site_fract_z
 _atom_site_occupancy
  Na  Na0  1  -0.00000000  0.75000000  0.85062636  1
  Na  Na1  1  -0.00000000  0.25000000  0.14937364  1
  Tm  Tm0  1  0.50000000  0.75000000  0.34388740  1
  Tm  Tm1  1  0.50000000  0.25000000  0.65611260  1
  Cl  Cl0  1  0.75433682  0.40519808  0.87662951  1
  Cl  Cl1  1  0.24566318  0.59480192  0.12337049  1
  Cl  Cl2  1  0.24566318  0.09480192  0.87662951  1
  Cl  Cl3  1  0.75433682  0.90519808  0.12337049  1
  Cl  Cl4  1  0.72458012  0.93389741  0.60552891  1
  Cl  Cl5  1  0.27541988  0.06610259  0.39447109  1
  Cl  Cl6  1  0.27541988  0.56610259  0.60552891  1
  Cl  Cl7  1  0.72458012  0.43389741  0.39447109  1
loop_
_geom_bond_atom_site_label_1
_geom_bond_atom_site_label_2
_geom_bond_distance
_geom_bond_site_symmetry_2
Cl0 Tm1 2.508050 1_555
Cl0 Na0 2.731678 1_655
Cl0 Na1 2.807089 1_656
Cl1 Tm0 2.508050 1_555
Cl1 Na1 2.731678 1_555
Cl1 Na0 2.807089 1_554
Cl2 Tm1 2.508050 1_555
Cl2 Na0 2.731678 1_545
Cl2 Na1 2.807089 1_556
Cl3 Tm0 2.508050 1_555
Cl3 Na1 2.731678 1_665
Cl3 Na0 2.807089 1_654
Cl4 Tm1 2.626878 1_565
Cl4 Tm0 2.699796 1_555
Cl4 Na0 2.856570 1_655
Cl5 Tm0 2.626878 1_545
Cl5 Tm1 2.699796 1_555
Cl5 Na1 2.856570 1_555
Cl6 Tm1 2.626878 1_555
Cl6 Tm0 2.699796 1_555
Cl6 Na0 2.856570 1_555
Cl7 Tm0 2.626878 1_555
Cl7 Tm1 2.699796 1_555
Cl7 Na1 2.856570 1_655
