# generated using pymatgen
data_Li3B5(HO5)2
_symmetry_space_group_name_H-M   'P 1'
_cell_length_a   6.94090800
_cell_length_b   6.94090800
_cell_length_c   14.69526700
_cell_angle_alpha   90.00000000
_cell_angle_beta   90.00000000
_cell_angle_gamma   90.00000000
_symmetry_Int_Tables_number   1
_chemical_formula_structural   Li3B5(HO5)2
_chemical_formula_sum   'Li12 B20 H8 O40'
_cell_volume   707.96217883
_cell_formula_units_Z   4
loop_
 _symmetry_equiv_pos_site_id
 _symmetry_equiv_pos_as_xyz
  1  'x, y, z'
loop_
 _atom_site_type_symbol
 _atom_site_label
 _atom_site_symmetry_multiplicity
 _atom_site_fract_x
 _atom_site_fract_y
 _atom_site_fract_z
 _atom_site_occupancy
  Li  Li0  1  0.36483100  0.35180700  0.09293900  1
  Li  Li1  1  0.63516900  0.64819300  0.59293900  1
  Li  Li2  1  0.85180700  0.13516900  0.34293900  1
  Li  Li3  1  0.14819300  0.86483100  0.84293900  1
  Li  Li4  1  0.64819300  0.63516900  0.40706100  1
  Li  Li5  1  0.35180700  0.36483100  0.90706100  1
  Li  Li6  1  0.13516900  0.85180700  0.65706100  1
  Li  Li7  1  0.86483100  0.14819300  0.15706100  1
  Li  Li8  1  0.30565400  0.69434600  0.25000000  1
  Li  Li9  1  0.69434600  0.30565400  0.75000000  1
  Li  Li10  1  0.19434600  0.19434600  0.50000000  1
  Li  Li11  1  0.80565400  0.80565400  0.00000000  1
  B  B0  1  0.25683800  0.99735800  0.14225100  1
  B  B1  1  0.74316200  0.00264200  0.64225100  1
  B  B2  1  0.49735800  0.24316200  0.39225100  1
  B  B3  1  0.50264200  0.75683800  0.89225100  1
  B  B4  1  0.00264200  0.74316200  0.35774900  1
  B  B5  1  0.99735800  0.25683800  0.85774900  1
  B  B6  1  0.24316200  0.49735800  0.60774900  1
  B  B7  1  0.75683800  0.50264200  0.10774900  1
  B  B8  1  0.25704600  0.23895600  0.27216000  1
  B  B9  1  0.74295400  0.76104400  0.77216000  1
  B  B10  1  0.73895600  0.24295400  0.52216000  1
  B  B11  1  0.26104400  0.75704600  0.02216000  1
  B  B12  1  0.76104400  0.74295400  0.22784000  1
  B  B13  1  0.23895600  0.25704600  0.72784000  1
  B  B14  1  0.24295400  0.73895600  0.47784000  1
  B  B15  1  0.75704600  0.26104400  0.97784000  1
  B  B16  1  0.56370800  0.43629200  0.25000000  1
  B  B17  1  0.43629200  0.56370800  0.75000000  1
  B  B18  1  0.93629200  0.93629200  0.50000000  1
  B  B19  1  0.06370800  0.06370800  0.00000000  1
  H  H0  1  0.01494700  0.40158300  0.26610400  1
  H  H1  1  0.98505300  0.59841700  0.76610400  1
  H  H2  1  0.90158300  0.48505300  0.51610400  1
  H  H3  1  0.09841700  0.51494700  0.01610400  1
  H  H4  1  0.59841700  0.98505300  0.23389600  1
  H  H5  1  0.40158300  0.01494700  0.73389600  1
  H  H6  1  0.48505300  0.90158300  0.48389600  1
  H  H7  1  0.51494700  0.09841700  0.98389600  1
  O  O0  1  0.28092500  0.80749800  0.11987800  1
  O  O1  1  0.71907500  0.19250200  0.61987800  1
  O  O2  1  0.30749800  0.21907500  0.36987800  1
  O  O3  1  0.69250200  0.78092500  0.86987800  1
  O  O4  1  0.19250200  0.71907500  0.38012200  1
  O  O5  1  0.80749800  0.28092500  0.88012200  1
  O  O6  1  0.21907500  0.30749800  0.63012200  1
  O  O7  1  0.78092500  0.69250200  0.13012200  1
  O  O8  1  0.35767700  0.40454900  0.23101300  1
  O  O9  1  0.64232300  0.59545100  0.73101300  1
  O  O10  1  0.90454900  0.14232300  0.48101300  1
  O  O11  1  0.09545100  0.85767700  0.98101300  1
  O  O12  1  0.59545100  0.64232300  0.26898700  1
  O  O13  1  0.40454900  0.35767700  0.76898700  1
  O  O14  1  0.14232300  0.90454900  0.51898700  1
  O  O15  1  0.85767700  0.09545100  0.01898700  1
  O  O16  1  0.67619200  0.37132000  0.16802600  1
  O  O17  1  0.32380800  0.62868000  0.66802600  1
  O  O18  1  0.87132000  0.82380800  0.41802600  1
  O  O19  1  0.12868000  0.17619200  0.91802600  1
  O  O20  1  0.62868000  0.32380800  0.33197400  1
  O  O21  1  0.37132000  0.67619200  0.83197400  1
  O  O22  1  0.82380800  0.87132000  0.58197400  1
  O  O23  1  0.17619200  0.12868000  0.08197400  1
  O  O24  1  0.31553800  0.05331200  0.22755300  1
  O  O25  1  0.68446200  0.94668800  0.72755300  1
  O  O26  1  0.55331200  0.18446200  0.47755300  1
  O  O27  1  0.44668800  0.81553800  0.97755300  1
  O  O28  1  0.94668800  0.68446200  0.27244700  1
  O  O29  1  0.05331200  0.31553800  0.77244700  1
  O  O30  1  0.18446200  0.55331200  0.52244700  1
  O  O31  1  0.81553800  0.44668800  0.02244700  1
  O  O32  1  0.04581500  0.26301400  0.26244300  1
  O  O33  1  0.95418500  0.73698600  0.76244300  1
  O  O34  1  0.76301400  0.45418500  0.51244300  1
  O  O35  1  0.23698600  0.54581500  0.01244300  1
  O  O36  1  0.73698600  0.95418500  0.23755700  1
  O  O37  1  0.26301400  0.04581500  0.73755700  1
  O  O38  1  0.45418500  0.76301400  0.48755700  1
  O  O39  1  0.54581500  0.23698600  0.98755700  1
loop_
_geom_bond_atom_site_label_1
_geom_bond_atom_site_label_2
_geom_bond_distance
_geom_bond_site_symmetry_2
Li0 O35 1.999999 1_555
Li0 O23 2.034400 1_555
Li0 O8 2.062391 1_555
Li0 O39 2.147413 1_554
Li0 O16 2.430301 1_555
Li1 O34 1.999999 1_555
Li1 O22 2.034400 1_555
Li1 O9 2.062391 1_555
Li1 O38 2.147413 1_555
Li1 O17 2.430301 1_555
Li2 O32 1.999999 1_655
Li2 O20 2.034400 1_555
Li2 O10 2.062391 1_555
Li2 O36 2.147413 1_545
Li2 O18 2.430301 1_545
Li3 O33 1.999999 1_455
Li3 O21 2.034400 1_555
Li3 O11 2.062391 1_555
Li3 O37 2.147413 1_565
Li3 O19 2.430301 1_565
Li4 O38 1.999999 1_555
Li4 O18 2.034400 1_555
Li4 O12 2.062391 1_555
Li4 O34 2.147413 1_555
Li4 O20 2.430301 1_555
Li5 O39 1.999999 1_555
Li5 O19 2.034400 1_555
Li5 O13 2.062391 1_555
Li5 O35 2.147413 1_556
Li5 O21 2.430301 1_555
Li6 O37 1.999999 1_565
Li6 O17 2.034400 1_555
Li6 O14 2.062391 1_555
Li6 O33 2.147413 1_455
Li6 O22 2.430301 1_455
Li7 O36 1.999999 1_545
Li7 O16 2.034400 1_555
Li7 O15 2.062391 1_555
Li7 O32 2.147413 1_655
Li7 O23 2.430301 1_655
Li8 O12 2.062567 1_555
Li8 O8 2.062567 1_555
Li8 O4 2.074295 1_555
Li8 O0 2.074295 1_555
Li8 O28 2.514227 1_455
Li8 O24 2.514227 1_565
Li9 O13 2.062567 1_555
Li9 O9 2.062567 1_555
Li9 O1 2.074295 1_555
Li9 O5 2.074295 1_555
Li9 O25 2.514227 1_545
Li9 O29 2.514227 1_655
Li10 O10 2.062567 1_455
Li10 O14 2.062567 1_545
Li10 O6 2.074295 1_555
Li10 O2 2.074295 1_555
Li10 O26 2.514227 1_555
Li10 O30 2.514227 1_555
Li11 O15 2.062567 1_565
Li11 O11 2.062567 1_654
Li11 O3 2.074295 1_554
Li11 O7 2.074295 1_555
Li11 O31 2.514227 1_555
Li11 O27 2.514227 1_554
B0 O0 1.368446 1_555
B0 O24 1.374112 1_565
B0 O23 1.388800 1_565
B1 O1 1.368446 1_555
B1 O25 1.374112 1_545
B1 O22 1.388800 1_545
B2 O2 1.368446 1_555
B2 O26 1.374112 1_555
B2 O20 1.388800 1_555
B3 O3 1.368446 1_555
B3 O27 1.374112 1_555
B3 O21 1.388800 1_555
B4 O4 1.368446 1_555
B4 O28 1.374112 1_455
B4 O18 1.388800 1_455
B5 O5 1.368446 1_555
B5 O29 1.374112 1_655
B5 O19 1.388800 1_655
B6 O6 1.368446 1_555
B6 O30 1.374112 1_555
B6 O17 1.388800 1_555
B7 O7 1.368446 1_555
B7 O31 1.374112 1_555
B7 O16 1.388800 1_555
B8 O8 1.474627 1_555
B8 O32 1.482507 1_555
B8 O2 1.484501 1_555
B8 O24 1.501616 1_555
B9 O9 1.474627 1_555
B9 O33 1.482507 1_555
B9 O3 1.484501 1_555
B9 O25 1.501616 1_555
B10 O10 1.474627 1_555
B10 O34 1.482507 1_555
B10 O1 1.484501 1_555
B10 O26 1.501616 1_555
B11 O11 1.474627 1_554
B11 O35 1.482507 1_555
B11 O0 1.484501 1_555
B11 O27 1.501616 1_554
B12 O12 1.474627 1_555
B12 O36 1.482507 1_555
B12 O7 1.484501 1_555
B12 O28 1.501616 1_555
B13 O13 1.474627 1_555
B13 O37 1.482507 1_555
B13 O6 1.484501 1_555
B13 O29 1.501616 1_555
B14 O14 1.474627 1_555
B14 O38 1.482507 1_555
B14 O4 1.484501 1_555
B14 O30 1.501616 1_555
B15 O15 1.474627 1_556
B15 O39 1.482507 1_555
B15 O5 1.484501 1_555
B15 O31 1.501616 1_556
B16 O12 1.473572 1_555
B16 O8 1.473572 1_555
B16 O16 1.504679 1_555
B16 O20 1.504679 1_555
B17 O9 1.473572 1_555
B17 O13 1.473572 1_555
B17 O17 1.504679 1_555
B17 O21 1.504679 1_555
B18 O14 1.473572 1_655
B18 O10 1.473572 1_565
B18 O18 1.504679 1_555
B18 O22 1.504679 1_555
B19 O11 1.473572 1_544
B19 O15 1.473572 1_455
B19 O19 1.504679 1_554
B19 O23 1.504679 1_555
H0 O32 0.986837 1_555
H1 O33 0.986837 1_555
H2 O34 0.986837 1_555
H3 O35 0.986837 1_555
H4 O36 0.986837 1_555
H5 O37 0.986837 1_555
H6 O38 0.986837 1_555
H7 O39 0.986837 1_555
