# generated using pymatgen
data_Rb3Er7S12
_symmetry_space_group_name_H-M   'P 1'
_cell_length_a   3.95246196
_cell_length_b   12.02467672
_cell_length_c   24.86417368
_cell_angle_alpha   90.00000000
_cell_angle_beta   90.00000000
_cell_angle_gamma   90.00000000
_symmetry_Int_Tables_number   1
_chemical_formula_structural   Rb3Er7S12
_chemical_formula_sum   'Rb6 Er14 S24'
_cell_volume   1181.72150492
_cell_formula_units_Z   2
loop_
 _symmetry_equiv_pos_site_id
 _symmetry_equiv_pos_as_xyz
  1  'x, y, z'
loop_
 _atom_site_type_symbol
 _atom_site_label
 _atom_site_symmetry_multiplicity
 _atom_site_fract_x
 _atom_site_fract_y
 _atom_site_fract_z
 _atom_site_occupancy
  Rb  Rb0  1  0.50000000  0.53557809  0.12878033  1
  Rb  Rb1  1  0.50000000  0.95844614  0.86281882  1
  Rb  Rb2  1  0.00000000  0.04155386  0.36281882  1
  Rb  Rb3  1  -0.00000000  0.46442191  0.62878033  1
  Rb  Rb4  1  0.50000000  0.80214075  0.47493674  1
  Rb  Rb5  1  -0.00000000  0.19785925  0.97493674  1
  Er  Er0  1  0.50000000  0.65686851  0.78912489  1
  Er  Er1  1  0.50000000  0.84205701  0.21069383  1
  Er  Er2  1  0.00000000  0.15794299  0.71069383  1
  Er  Er3  1  -0.00000000  0.34313149  0.28912489  1
  Er  Er4  1  0.50000000  0.32742631  0.81724857  1
  Er  Er5  1  0.50000000  0.17782608  0.18186709  1
  Er  Er6  1  0.00000000  0.82217392  0.68186709  1
  Er  Er7  1  0.00000000  0.67257369  0.31724857  1
  Er  Er8  1  0.50000000  0.46770267  0.41899055  1
  Er  Er9  1  0.50000000  0.02718030  0.58385606  1
  Er  Er10  1  -0.00000000  0.97281970  0.08385606  1
  Er  Er11  1  -0.00000000  0.53229733  0.91899055  1
  Er  Er12  1  0.00000000  0.24351207  0.49909197  1
  Er  Er13  1  0.50000000  0.75648793  0.99909197  1
  S  S0  1  0.50000000  0.38017975  0.92218132  1
  S  S1  1  0.50000000  0.12505544  0.07761904  1
  S  S2  1  0.00000000  0.87494456  0.57761904  1
  S  S3  1  0.00000000  0.61982025  0.42218132  1
  S  S4  1  0.50000000  0.50559391  0.30603845  1
  S  S5  1  0.50000000  0.99331210  0.69535006  1
  S  S6  1  -0.00000000  0.00668790  0.19535006  1
  S  S7  1  -0.00000000  0.49440609  0.80603845  1
  S  S8  1  0.50000000  0.39273443  0.51851979  1
  S  S9  1  0.50000000  0.08919452  0.48058971  1
  S  S10  1  0.00000000  0.91080548  0.98058971  1
  S  S11  1  -0.00000000  0.60726557  0.01851979  1
  S  S12  1  0.50000000  0.30405821  0.71126446  1
  S  S13  1  0.50000000  0.19719672  0.28808991  1
  S  S14  1  0.00000000  0.80280328  0.78808991  1
  S  S15  1  -0.00000000  0.69594179  0.21126446  1
  S  S16  1  0.50000000  0.67392147  0.68091907  1
  S  S17  1  0.50000000  0.82329700  0.32103194  1
  S  S18  1  0.00000000  0.17670300  0.82103194  1
  S  S19  1  0.00000000  0.32607853  0.18091907  1
  S  S20  1  0.50000000  0.68056232  0.89736130  1
  S  S21  1  0.50000000  0.82354635  0.10252611  1
  S  S22  1  0.00000000  0.17645365  0.60252611  1
  S  S23  1  -0.00000000  0.31943768  0.39736130  1
loop_
_geom_bond_atom_site_label_1
_geom_bond_atom_site_label_2
_geom_bond_distance
_geom_bond_site_symmetry_2
Rb0 S15 3.439492 1_555
Rb0 S15 3.439492 1_655
Rb0 S19 3.454316 1_655
Rb0 S19 3.454316 1_555
Rb0 S11 3.487777 1_555
Rb0 S11 3.487777 1_655
Rb0 S21 3.523720 1_555
Rb1 S14 3.295549 1_655
Rb1 S14 3.295549 1_555
Rb1 S18 3.445698 1_665
Rb1 S18 3.445698 1_565
Rb1 S20 3.450077 1_555
Rb1 S10 3.578891 1_655
Rb1 S10 3.578891 1_555
Rb2 S13 3.295549 1_455
Rb2 S13 3.295549 1_555
Rb2 S17 3.445698 1_445
Rb2 S17 3.445698 1_545
Rb2 S23 3.450077 1_555
Rb2 S9 3.578891 1_555
Rb2 S9 3.578891 1_455
Rb3 S12 3.439492 1_455
Rb3 S12 3.439492 1_555
Rb3 S16 3.454316 1_455
Rb3 S16 3.454316 1_555
Rb3 S8 3.487777 1_455
Rb3 S8 3.487777 1_555
Rb3 S22 3.523720 1_555
Rb4 S3 3.229934 1_555
Rb4 S3 3.229934 1_655
Rb4 S2 3.345185 1_555
Rb4 S2 3.345185 1_655
Rb4 S9 3.454589 1_565
Rb4 S17 3.835162 1_555
Rb5 S0 3.229934 1_555
Rb5 S0 3.229934 1_455
Rb5 S1 3.345185 1_556
Rb5 S1 3.345185 1_456
Rb5 S10 3.454589 1_545
Rb5 S18 3.835162 1_555
Er0 S14 2.643017 1_655
Er0 S14 2.643017 1_555
Er0 S16 2.698251 1_555
Er0 S20 2.706248 1_555
Er0 S7 2.810469 1_655
Er0 S7 2.810469 1_555
Er1 S15 2.644371 1_655
Er1 S15 2.644371 1_555
Er1 S21 2.698696 1_555
Er1 S17 2.752725 1_555
Er1 S6 2.823116 1_565
Er1 S6 2.823116 1_665
Er2 S12 2.644371 1_455
Er2 S12 2.644371 1_555
Er2 S22 2.698696 1_555
Er2 S18 2.752725 1_555
Er2 S5 2.823116 1_445
Er2 S5 2.823116 1_545
Er3 S13 2.643017 1_455
Er3 S13 2.643017 1_555
Er3 S19 2.698251 1_555
Er3 S23 2.706248 1_555
Er3 S4 2.810469 1_455
Er3 S4 2.810469 1_555
Er4 S12 2.650146 1_555
Er4 S18 2.683119 1_555
Er4 S18 2.683119 1_655
Er4 S0 2.685073 1_555
Er4 S7 2.831034 1_555
Er4 S7 2.831034 1_655
Er5 S13 2.651394 1_555
Er5 S19 2.661582 1_555
Er5 S19 2.661582 1_655
Er5 S1 2.668583 1_555
Er5 S6 2.872760 1_555
Er5 S6 2.872760 1_655
Er6 S14 2.651394 1_555
Er6 S16 2.661582 1_455
Er6 S16 2.661582 1_555
Er6 S2 2.668583 1_555
Er6 S5 2.872760 1_555
Er6 S5 2.872760 1_455
Er7 S15 2.650146 1_555
Er7 S17 2.683119 1_455
Er7 S17 2.683119 1_555
Er7 S3 2.685073 1_555
Er7 S4 2.831034 1_455
Er7 S4 2.831034 1_555
Er8 S8 2.633789 1_555
Er8 S3 2.693998 1_655
Er8 S3 2.693998 1_555
Er8 S23 2.715368 1_655
Er8 S23 2.715368 1_555
Er8 S4 2.845180 1_555
Er9 S9 2.673725 1_555
Er9 S2 2.698255 1_645
Er9 S2 2.698255 1_545
Er9 S22 2.709775 1_555
Er9 S22 2.709775 1_655
Er9 S5 2.801961 1_545
Er10 S10 2.673725 1_554
Er10 S1 2.698255 1_565
Er10 S1 2.698255 1_465
Er10 S21 2.709775 1_455
Er10 S21 2.709775 1_555
Er10 S6 2.801961 1_565
Er11 S11 2.633789 1_556
Er11 S0 2.693998 1_455
Er11 S0 2.693998 1_555
Er11 S20 2.715368 1_455
Er11 S20 2.715368 1_555
Er11 S7 2.845180 1_555
Er12 S23 2.689172 1_555
Er12 S22 2.695253 1_555
Er12 S8 2.712660 1_455
Er12 S8 2.712660 1_555
Er12 S9 2.749627 1_555
Er12 S9 2.749627 1_455
Er13 S20 2.689172 1_555
Er13 S21 2.695253 1_556
Er13 S11 2.712660 1_556
Er13 S11 2.712660 1_656
Er13 S10 2.749627 1_555
Er13 S10 2.749627 1_655
