# generated using pymatgen
data_ScH10N3O14
_symmetry_space_group_name_H-M   'P 1'
_cell_length_a   7.23447400
_cell_length_b   8.31601286
_cell_length_c   20.18416949
_cell_angle_alpha   83.90508728
_cell_angle_beta   82.55262653
_cell_angle_gamma   75.94228219
_symmetry_Int_Tables_number   1
_chemical_formula_structural   ScH10N3O14
_chemical_formula_sum   'Sc4 H40 N12 O56'
_cell_volume   1164.48883289
_cell_formula_units_Z   4
loop_
 _symmetry_equiv_pos_site_id
 _symmetry_equiv_pos_as_xyz
  1  'x, y, z'
loop_
 _atom_site_type_symbol
 _atom_site_label
 _atom_site_symmetry_multiplicity
 _atom_site_fract_x
 _atom_site_fract_y
 _atom_site_fract_z
 _atom_site_occupancy
  Sc  Sc0  1  0.23678000  0.24385600  0.61118300  1
  Sc  Sc1  1  0.76322000  0.75614400  0.38881700  1
  Sc  Sc2  1  0.25063600  0.76870000  0.89013000  1
  Sc  Sc3  1  0.74936400  0.23130000  0.10987000  1
  H  H0  1  0.19854600  0.95133900  0.69473600  1
  H  H1  1  0.80145400  0.04866100  0.30526400  1
  H  H2  1  0.26605900  0.89669200  0.62164000  1
  H  H3  1  0.73394100  0.10330800  0.37836000  1
  H  H4  1  0.95996800  0.38186200  0.71888100  1
  H  H5  1  0.04003200  0.61813800  0.28111900  1
  H  H6  1  0.87010700  0.44350500  0.64900700  1
  H  H7  1  0.12989300  0.55649500  0.35099300  1
  H  H8  1  0.59369200  0.08459500  0.54511300  1
  H  H9  1  0.40630800  0.91540500  0.45488700  1
  H  H10  1  0.62922000  0.08354200  0.62173000  1
  H  H11  1  0.37078000  0.91645800  0.37827000  1
  H  H12  1  0.27515200  0.45949500  0.49088700  1
  H  H13  1  0.72484800  0.54050500  0.50911300  1
  H  H14  1  0.30822300  0.55034700  0.55326100  1
  H  H15  1  0.69177700  0.44965300  0.44673900  1
  H  H16  1  0.90158200  0.96979700  0.94426900  1
  H  H17  1  0.09841800  0.03020300  0.05573100  1
  H  H18  1  0.86289700  0.93690800  0.87117600  1
  H  H19  1  0.13710300  0.06309200  0.12882400  1
  H  H20  1  0.61914400  0.56205900  0.86015100  1
  H  H21  1  0.38085600  0.43794100  0.13984900  1
  H  H22  1  0.51825300  0.58548800  0.79280600  1
  H  H23  1  0.48174700  0.41451200  0.20719400  1
  H  H24  1  0.16889000  0.45659900  0.94116900  1
  H  H25  1  0.83111000  0.54340100  0.05883100  1
  H  H26  1  0.20633300  0.53891500  0.00561700  1
  H  H27  1  0.79366700  0.46108500  0.99438300  1
  H  H28  1  0.24601400  0.11015700  0.87011800  1
  H  H29  1  0.75398600  0.88984300  0.12988200  1
  H  H30  1  0.46353100  0.01216400  0.84554900  1
  H  H31  1  0.53646900  0.98783600  0.15445100  1
  H  H32  1  0.90232000  0.97112400  0.66162100  1
  H  H33  1  0.09768000  0.02887600  0.33837900  1
  H  H34  1  0.74066100  0.87096900  0.67748100  1
  H  H35  1  0.25933900  0.12903100  0.32251900  1
  H  H36  1  0.69672600  0.14058300  0.81877500  1
  H  H37  1  0.30327400  0.85941700  0.18122500  1
  H  H38  1  0.72792500  0.00488300  0.76810500  1
  H  H39  1  0.27207500  0.99511700  0.23189500  1
  N  N0  1  0.38887500  0.32216500  0.71530600  1
  N  N1  1  0.61112500  0.67783500  0.28469400  1
  N  N2  1  0.08286200  0.17578800  0.50383600  1
  N  N3  1  0.91713800  0.82421200  0.49616400  1
  N  N4  1  0.39424400  0.81922500  0.00262100  1
  N  N5  1  0.60575600  0.18077500  0.99737900  1
  N  N6  1  0.10565700  0.70737200  0.77775700  1
  N  N7  1  0.89434300  0.29262800  0.22224300  1
  N  N8  1  0.92612700  0.35076300  0.87527000  1
  N  N9  1  0.07387300  0.64923700  0.12473000  1
  N  N10  1  0.56846200  0.67357400  0.61628800  1
  N  N11  1  0.43153800  0.32642600  0.38371200  1
  O  O0  1  0.18532600  0.99120200  0.64698900  1
  O  O1  1  0.81467400  0.00879800  0.35301100  1
  O  O2  1  0.46581300  0.35421300  0.76166500  1
  O  O3  1  0.53418700  0.64578700  0.23833500  1
  O  O4  1  0.01445400  0.15180400  0.45437600  1
  O  O5  1  0.98554600  0.84819600  0.54562400  1
  O  O6  1  0.97249200  0.36151500  0.67141300  1
  O  O7  1  0.02750800  0.63848500  0.32858700  1
  O  O8  1  0.33269400  0.18624600  0.71568400  1
  O  O9  1  0.66730600  0.81375400  0.28431600  1
  O  O10  1  0.35884400  0.42080800  0.66250200  1
  O  O11  1  0.64115600  0.57919200  0.33749800  1
  O  O12  1  0.53889300  0.13470900  0.58715600  1
  O  O13  1  0.46110700  0.86529100  0.41284400  1
  O  O14  1  0.98386500  0.25587100  0.55236200  1
  O  O15  1  0.01613500  0.74412900  0.44763800  1
  O  O16  1  0.26392300  0.12177500  0.51144000  1
  O  O17  1  0.73607700  0.87822500  0.48856000  1
  O  O18  1  0.25970000  0.45816000  0.54090000  1
  O  O19  1  0.74030000  0.54184000  0.45910000  1
  O  O20  1  0.95614400  0.90325500  0.90562300  1
  O  O21  1  0.04385600  0.09674500  0.09437700  1
  O  O22  1  0.51443600  0.63473400  0.83494200  1
  O  O23  1  0.48556400  0.36526600  0.16505800  1
  O  O24  1  0.20715900  0.55192200  0.95604500  1
  O  O25  1  0.79284100  0.44807800  0.04395500  1
  O  O26  1  0.46061100  0.84511600  0.05221300  1
  O  O27  1  0.53938900  0.15488400  0.94778700  1
  O  O28  1  0.49379700  0.73596900  0.95524300  1
  O  O29  1  0.50620300  0.26403100  0.04475700  1
  O  O30  1  0.21384600  0.87530300  0.99399200  1
  O  O31  1  0.78615400  0.12469700  0.00600800  1
  O  O32  1  0.33147900  0.99960800  0.86212200  1
  O  O33  1  0.66852100  0.00039200  0.13787800  1
  O  O34  1  0.17864100  0.83539500  0.77736800  1
  O  O35  1  0.82135900  0.16460500  0.22263200  1
  O  O36  1  0.03230700  0.67852500  0.73001400  1
  O  O37  1  0.96769300  0.32147500  0.26998600  1
  O  O38  1  0.11597800  0.61374700  0.83243100  1
  O  O39  1  0.88402200  0.38625300  0.16756900  1
  O  O40  1  0.76691300  0.98142700  0.67947000  1
  O  O41  1  0.23308700  0.01857300  0.32053000  1
  O  O42  1  0.69905300  0.02286900  0.81673100  1
  O  O43  1  0.30094700  0.97713100  0.18326900  1
  O  O44  1  0.89825400  0.30781300  0.82026100  1
  O  O45  1  0.10174600  0.69218700  0.17973900  1
  O  O46  1  0.08339600  0.29394600  0.90021300  1
  O  O47  1  0.91660400  0.70605400  0.09978700  1
  O  O48  1  0.79273000  0.45401800  0.90754800  1
  O  O49  1  0.20727000  0.54598200  0.09245200  1
  O  O50  1  0.42244000  0.72607400  0.58423900  1
  O  O51  1  0.57756000  0.27392600  0.41576100  1
  O  O52  1  0.70646100  0.55910900  0.59290500  1
  O  O53  1  0.29353900  0.44089100  0.40709500  1
  O  O54  1  0.57799500  0.73172700  0.67031900  1
  O  O55  1  0.42200500  0.26827300  0.32968100  1
loop_
_geom_bond_atom_site_label_1
_geom_bond_atom_site_label_2
_geom_bond_distance
_geom_bond_site_symmetry_2
H0 O0 0.994219 1_555
H1 O1 0.994219 1_555
H2 O0 1.002770 1_555
H3 O1 1.002770 1_555
H4 O6 0.979425 1_555
H5 O7 0.979425 1_555
H6 O6 0.997031 1_555
H7 O7 0.997031 1_555
H8 O12 0.979081 1_555
H9 O13 0.979081 1_555
H10 O12 1.007546 1_555
H11 O13 1.007546 1_555
H12 O18 1.000310 1_555
H13 O19 1.000310 1_555
H14 O18 0.983490 1_555
H15 O19 0.983490 1_555
H16 O20 0.988034 1_555
H17 O21 0.988034 1_555
H18 O20 1.002682 1_555
H19 O21 1.002682 1_555
H20 O22 1.005081 1_555
H20 O48 1.697142 1_555
H21 O23 1.005081 1_555
H21 O49 1.697142 1_555
H22 O22 0.976818 1_555
H23 O23 0.976818 1_555
H24 O24 0.986863 1_555
H25 O25 0.986863 1_555
H26 O24 0.994312 1_554
H26 O49 1.760846 1_555
H27 O25 0.994312 1_556
H27 O48 1.760846 1_555
H28 O32 0.991464 1_545
H29 O33 0.991464 1_565
H30 O32 0.996820 1_545
H31 O33 0.996820 1_565
H32 O40 0.985414 1_555
H33 O41 0.985414 1_555
H34 O40 0.987932 1_555
H35 O41 0.987932 1_555
H36 O42 0.980124 1_555
H37 O43 0.980124 1_555
H38 O42 0.996066 1_555
H39 O43 0.996066 1_555
N0 O2 1.231439 1_555
N0 O10 1.282127 1_555
N0 O8 1.289721 1_555
N1 O3 1.231439 1_555
N1 O11 1.282127 1_555
N1 O9 1.289721 1_555
N2 O4 1.224595 1_555
N2 O14 1.280916 1_455
N2 O16 1.301058 1_555
N3 O5 1.224595 1_555
N3 O15 1.280916 1_655
N3 O17 1.301058 1_555
N4 O26 1.224501 1_555
N4 O28 1.277640 1_554
N4 O30 1.302716 1_554
N5 O27 1.224501 1_555
N5 O29 1.277640 1_556
N5 O31 1.302716 1_556
N6 O36 1.229331 1_555
N6 O38 1.280725 1_555
N6 O34 1.297127 1_555
N7 O37 1.229331 1_555
N7 O39 1.280725 1_555
N7 O35 1.297127 1_555
N8 O44 1.256290 1_555
N8 O46 1.268080 1_655
N8 O48 1.283102 1_555
N9 O45 1.256290 1_555
N9 O47 1.268080 1_455
N9 O49 1.283102 1_555
N10 O54 1.255255 1_555
N10 O50 1.272066 1_555
N10 O52 1.279509 1_555
N11 O55 1.255255 1_555
N11 O51 1.272066 1_555
N11 O53 1.279509 1_555
O0 Sc0 2.250144 1_565
O1 Sc1 2.250144 1_545
O6 Sc0 2.198222 1_655
O7 Sc1 2.198222 1_455
O8 Sc0 2.272297 1_555
O9 Sc1 2.272297 1_555
O10 Sc0 2.282598 1_555
O11 Sc1 2.282598 1_555
O12 Sc0 2.165869 1_555
O13 Sc1 2.165869 1_555
O14 Sc0 2.283968 1_655
O15 Sc1 2.283968 1_455
O16 Sc0 2.314527 1_555
O17 Sc1 2.314527 1_555
O18 Sc0 2.182138 1_555
O19 Sc1 2.182138 1_555
O20 Sc2 2.152290 1_655
O21 Sc3 2.152290 1_455
O22 Sc2 2.191739 1_555
O23 Sc3 2.191739 1_555
O24 Sc2 2.185520 1_555
O25 Sc3 2.185520 1_555
O28 Sc2 2.277429 1_555
O29 Sc3 2.277429 1_555
O30 Sc2 2.320966 1_555
O31 Sc3 2.320966 1_555
O32 Sc2 2.139695 1_555
O33 Sc3 2.139695 1_555
O34 Sc2 2.378658 1_555
O35 Sc3 2.378658 1_555
O38 Sc2 2.277810 1_555
O39 Sc3 2.277810 1_555
