# generated using pymatgen
data_CoP2O7
_symmetry_space_group_name_H-M   'P 1'
_cell_length_a   6.47340900
_cell_length_b   9.70865984
_cell_length_c   10.64187758
_cell_angle_alpha   116.58942851
_cell_angle_beta   84.56466396
_cell_angle_gamma   107.09773709
_symmetry_Int_Tables_number   1
_chemical_formula_structural   CoP2O7
_chemical_formula_sum   'Co4 P8 O28'
_cell_volume   571.12056051
_cell_formula_units_Z   4
loop_
 _symmetry_equiv_pos_site_id
 _symmetry_equiv_pos_as_xyz
  1  'x, y, z'
loop_
 _atom_site_type_symbol
 _atom_site_label
 _atom_site_symmetry_multiplicity
 _atom_site_fract_x
 _atom_site_fract_y
 _atom_site_fract_z
 _atom_site_occupancy
  Co  Co0  1  0.72424100  0.87156400  0.22051700  1
  Co  Co1  1  0.62453900  0.24677800  0.24566100  1
  Co  Co2  1  0.27575900  0.12843600  0.77948300  1
  Co  Co3  1  0.37546100  0.75322200  0.75433900  1
  P  P0  1  0.88895200  0.85067400  0.69748500  1
  P  P1  1  0.07884200  0.39086200  0.79141800  1
  P  P2  1  0.11104800  0.14932600  0.30251500  1
  P  P3  1  0.92115800  0.60913800  0.20858200  1
  P  P4  1  0.69726800  0.22268400  0.96437400  1
  P  P5  1  0.58218900  0.85356500  0.45636500  1
  P  P6  1  0.41781100  0.14643500  0.54363500  1
  P  P7  1  0.30273200  0.77731600  0.03562600  1
  O  O0  1  0.36352700  0.25936400  0.58409100  1
  O  O1  1  0.99961500  0.00460500  0.71371200  1
  O  O2  1  0.05227300  0.75518400  0.71866600  1
  O  O3  1  0.11897500  0.22921300  0.82517100  1
  O  O4  1  0.38263700  0.72113700  0.93601800  1
  O  O5  1  0.92452200  0.35195700  0.91338000  1
  O  O6  1  0.27862600  0.51491000  0.80174400  1
  O  O7  1  0.96139000  0.44795400  0.64662300  1
  O  O8  1  0.88102500  0.77078700  0.17482900  1
  O  O9  1  0.72137400  0.48509000  0.19825600  1
  O  O10  1  0.69373500  0.74994100  0.78930600  1
  O  O11  1  0.25793400  0.93825300  0.94967300  1
  O  O12  1  0.61736300  0.27886300  0.06398200  1
  O  O13  1  0.44682400  0.75905900  0.16204700  1
  O  O14  1  0.79829900  0.91221800  0.53641000  1
  O  O15  1  0.94772700  0.24481600  0.28133400  1
  O  O16  1  0.00038500  0.99539500  0.28628800  1
  O  O17  1  0.20170100  0.08778200  0.46359000  1
  O  O18  1  0.63647300  0.74063600  0.41590900  1
  O  O19  1  0.59695800  0.21246500  0.43683200  1
  O  O20  1  0.55435200  0.99798000  0.31639200  1
  O  O21  1  0.03583900  0.54297900  0.34957500  1
  O  O22  1  0.30626500  0.25005900  0.21069400  1
  O  O23  1  0.44564800  0.00202000  0.68360800  1
  O  O24  1  0.07547800  0.64804300  0.08662000  1
  O  O25  1  0.74206600  0.06174700  0.05032700  1
  O  O26  1  0.40304200  0.78753500  0.56316800  1
  O  O27  1  0.55569500  0.23406100  0.83307700  1
loop_
_geom_bond_atom_site_label_1
_geom_bond_atom_site_label_2
_geom_bond_distance
_geom_bond_site_symmetry_2
Co0 O8 1.512720 1_555
Co0 O20 1.793578 1_555
Co0 O13 1.804199 1_555
Co0 O16 1.830524 1_655
Co1 O12 2.098073 1_555
Co1 O22 2.139822 1_555
Co1 O15 2.168375 1_555
Co1 O19 2.187379 1_555
Co1 O25 2.299599 1_555
Co1 O9 2.476440 1_555
Co2 O3 1.512720 1_555
Co2 O23 1.793578 1_555
Co2 O27 1.800077 1_555
Co2 O1 1.830524 1_455
Co3 O4 2.098073 1_555
Co3 O10 2.139822 1_555
Co3 O2 2.168375 1_555
Co3 O26 2.187379 1_555
Co3 O11 2.299599 1_555
Co3 O6 2.476440 1_555
O0 P6 1.134124 1_555
O1 P0 1.392597 1_545
O2 P0 1.684219 1_455
O3 P1 1.849750 1_555
O4 P7 1.110466 1_556
O5 P1 1.672284 1_655
O5 P4 1.845712 1_555
O6 P1 1.458662 1_555
O7 P1 2.119902 1_655
O8 P3 1.849750 1_555
O9 P3 1.458662 1_555
O10 P0 1.844744 1_555
O11 P7 2.226706 1_556
O12 P4 1.110466 1_554
O13 P7 1.805514 1_555
O14 P5 1.526466 1_555
O14 P0 2.225596 1_555
O15 P2 1.684219 1_655
O16 P2 1.392597 1_565
O17 P6 1.526466 1_555
O17 P2 2.225596 1_555
O18 P5 1.134124 1_555
O19 P6 1.735822 1_555
O21 P3 2.137551 1_455
O22 P2 1.844744 1_555
O24 P3 1.672284 1_455
O24 P7 1.845712 1_555
O25 P4 2.226706 1_554
O26 P5 1.735822 1_555
O27 P4 1.801295 1_555
