# generated using pymatgen
data_RbLu(WO4)2
_symmetry_space_group_name_H-M   'P 1'
_cell_length_a   8.00839285
_cell_length_b   9.03665289
_cell_length_c   10.31571500
_cell_angle_alpha   90.00000000
_cell_angle_beta   90.00000000
_cell_angle_gamma   99.21496341
_symmetry_Int_Tables_number   1
_chemical_formula_structural   RbLu(WO4)2
_chemical_formula_sum   'Rb4 Lu4 W8 O32'
_cell_volume   736.90419140
_cell_formula_units_Z   4
loop_
 _symmetry_equiv_pos_site_id
 _symmetry_equiv_pos_as_xyz
  1  'x, y, z'
loop_
 _atom_site_type_symbol
 _atom_site_label
 _atom_site_symmetry_multiplicity
 _atom_site_fract_x
 _atom_site_fract_y
 _atom_site_fract_z
 _atom_site_occupancy
  Rb  Rb0  1  0.07320100  0.51198400  0.21311700  1
  Rb  Rb1  1  0.92679900  0.48801600  0.78688300  1
  Rb  Rb2  1  0.42679900  0.48801600  0.71311700  1
  Rb  Rb3  1  0.57320100  0.51198400  0.28688300  1
  Lu  Lu0  1  0.02153000  0.06045100  0.77694500  1
  Lu  Lu1  1  0.97847000  0.93954900  0.22305500  1
  Lu  Lu2  1  0.47847000  0.93954900  0.27694500  1
  Lu  Lu3  1  0.52153000  0.06045100  0.72305500  1
  W  W0  1  0.28605300  0.21896000  0.00974800  1
  W  W1  1  0.71394700  0.78104000  0.99025200  1
  W  W2  1  0.21394700  0.78104000  0.50974800  1
  W  W3  1  0.78605300  0.21896000  0.49025200  1
  W  W4  1  0.17937300  0.16196600  0.48925000  1
  W  W5  1  0.82062700  0.83803400  0.51075000  1
  W  W6  1  0.32062700  0.83803400  0.98925000  1
  W  W7  1  0.67937300  0.16196600  0.01075000  1
  O  O0  1  0.25761800  0.00837600  0.38905600  1
  O  O1  1  0.74238200  0.99162400  0.61094400  1
  O  O2  1  0.24238200  0.99162400  0.88905600  1
  O  O3  1  0.75761800  0.00837600  0.11094400  1
  O  O4  1  0.34952000  0.39454700  0.08651700  1
  O  O5  1  0.65048000  0.60545300  0.91348300  1
  O  O6  1  0.15048000  0.60545300  0.58651700  1
  O  O7  1  0.84952000  0.39454700  0.41348300  1
  O  O8  1  0.11238200  0.13186900  0.11587300  1
  O  O9  1  0.88761800  0.86813100  0.88412700  1
  O  O10  1  0.38761800  0.86813100  0.61587300  1
  O  O11  1  0.61238200  0.13186900  0.38412700  1
  O  O12  1  0.33702100  0.73310200  0.36883000  1
  O  O13  1  0.66297900  0.26689800  0.63117000  1
  O  O14  1  0.16297900  0.26689800  0.86883000  1
  O  O15  1  0.83702100  0.73310200  0.13117000  1
  O  O16  1  0.26825600  0.33016700  0.41224000  1
  O  O17  1  0.73174400  0.66983300  0.58776000  1
  O  O18  1  0.23174400  0.66983300  0.91224000  1
  O  O19  1  0.76825600  0.33016700  0.08776000  1
  O  O20  1  0.00311700  0.22422300  0.60462700  1
  O  O21  1  0.99688300  0.77577700  0.39537300  1
  O  O22  1  0.49688300  0.77577700  0.10462700  1
  O  O23  1  0.50311700  0.22422300  0.89537300  1
  O  O24  1  0.30655000  0.15280700  0.63785300  1
  O  O25  1  0.69345000  0.84719300  0.36214700  1
  O  O26  1  0.19345000  0.84719300  0.13785300  1
  O  O27  1  0.80655000  0.15280700  0.86214700  1
  O  O28  1  0.45163500  0.08931100  0.10337000  1
  O  O29  1  0.54836500  0.91068900  0.89663000  1
  O  O30  1  0.04836500  0.91068900  0.60337000  1
  O  O31  1  0.95163500  0.08931100  0.39663000  1
loop_
_geom_bond_atom_site_label_1
_geom_bond_atom_site_label_2
_geom_bond_distance
_geom_bond_site_symmetry_2
Lu0 O9 2.189985 1_445
Lu0 O27 2.212079 1_455
Lu0 O14 2.232758 1_555
Lu0 O30 2.275292 1_545
Lu0 O2 2.281416 1_545
Lu0 O20 2.332744 1_555
Lu0 O24 2.712048 1_555
Lu0 O1 2.805616 1_445
Lu1 O8 2.189985 1_665
Lu1 O26 2.212079 1_655
Lu1 O15 2.232758 1_555
Lu1 O31 2.275292 1_565
Lu1 O3 2.281416 1_565
Lu1 O21 2.332744 1_555
Lu1 O25 2.712048 1_555
Lu1 O0 2.805616 1_665
Lu2 O11 2.189985 1_565
Lu2 O25 2.212079 1_555
Lu2 O12 2.232758 1_555
Lu2 O28 2.275292 1_565
Lu2 O0 2.281416 1_565
Lu2 O22 2.332744 1_555
Lu2 O26 2.712048 1_555
Lu2 O3 2.805616 1_565
Lu3 O10 2.189985 1_545
Lu3 O24 2.212079 1_555
Lu3 O13 2.232758 1_555
Lu3 O29 2.275292 1_545
Lu3 O1 2.281416 1_545
Lu3 O23 2.332744 1_555
Lu3 O27 2.712048 1_555
Lu3 O2 2.805616 1_545
O0 W4 1.914640 1_555
O0 W2 2.379636 1_545
O1 W5 1.914640 1_555
O1 W3 2.379636 1_565
O2 W6 1.914640 1_555
O2 W0 2.379636 1_566
O3 W7 1.914640 1_555
O3 W1 2.379636 1_544
O4 W0 1.773377 1_555
O4 Rb3 2.828139 1_555
O4 Rb0 2.912167 1_555
O5 W1 1.773377 1_555
O5 Rb2 2.828139 1_555
O5 Rb1 2.912167 1_555
O6 W2 1.773377 1_555
O6 Rb1 2.828139 1_455
O6 Rb2 2.912167 1_555
O7 W3 1.773377 1_555
O7 Rb0 2.828139 1_655
O7 Rb3 2.912167 1_555
O8 W0 1.844369 1_555
O9 W1 1.844369 1_555
O10 W2 1.844369 1_555
O11 W3 1.844369 1_555
O12 W2 1.846354 1_555
O12 Rb3 3.081429 1_555
O12 Rb0 3.112000 1_555
O13 W3 1.846354 1_555
O13 Rb2 3.081429 1_555
O13 Rb1 3.112000 1_555
O14 W0 1.846354 1_556
O14 Rb1 3.081429 1_455
O14 Rb2 3.112000 1_555
O15 W1 1.846354 1_554
O15 Rb0 3.081429 1_655
O15 Rb3 3.112000 1_555
O16 W4 1.761127 1_555
O16 Rb3 3.008419 1_555
O16 Rb0 3.190752 1_555
O17 W5 1.761127 1_555
O17 Rb2 3.008419 1_555
O17 Rb1 3.190752 1_555
O18 W6 1.761127 1_555
O18 Rb1 3.008419 1_455
O18 Rb2 3.190752 1_555
O19 W7 1.761127 1_555
O19 Rb0 3.008419 1_655
O19 Rb3 3.190752 1_555
O20 W4 1.994951 1_555
O20 W3 2.095151 1_455
O20 Rb1 3.171354 1_455
O21 W5 1.994951 1_555
O21 W2 2.095151 1_655
O21 Rb0 3.171354 1_655
O22 W6 1.994951 1_554
O22 W1 2.095151 1_554
O22 Rb3 3.171354 1_555
O23 W7 1.994951 1_556
O23 W0 2.095151 1_556
O23 Rb2 3.171354 1_555
O24 W4 1.849616 1_555
O24 Rb2 3.125979 1_555
O25 W5 1.849616 1_555
O25 Rb3 3.125979 1_555
O26 W6 1.849616 1_554
O26 Rb0 3.125979 1_555
O27 W7 1.849616 1_556
O27 Rb1 3.125979 1_555
O28 W7 2.070441 1_555
O28 W0 2.135728 1_555
O29 W6 2.070441 1_555
O29 W1 2.135728 1_555
O30 W5 2.070441 1_455
O30 W2 2.135728 1_555
O31 W4 2.070441 1_655
O31 W3 2.135728 1_555
