# generated using pymatgen
data_Co3Si
_symmetry_space_group_name_H-M   'P 1'
_cell_length_a   4.97647048
_cell_length_b   4.97647048
_cell_length_c   3.97279400
_cell_angle_alpha   90.00000000
_cell_angle_beta   90.00000000
_cell_angle_gamma   120.00000643
_symmetry_Int_Tables_number   1
_chemical_formula_structural   Co3Si
_chemical_formula_sum   'Co6 Si2'
_cell_volume   85.20586995
_cell_formula_units_Z   2
loop_
 _symmetry_equiv_pos_site_id
 _symmetry_equiv_pos_as_xyz
  1  'x, y, z'
loop_
 _atom_site_type_symbol
 _atom_site_label
 _atom_site_symmetry_multiplicity
 _atom_site_fract_x
 _atom_site_fract_y
 _atom_site_fract_z
 _atom_site_occupancy
  Co  Co0  1  0.83252800  0.16747200  0.25000000  1
  Co  Co1  1  0.83252800  0.66505600  0.25000000  1
  Co  Co2  1  0.33494400  0.16747200  0.25000000  1
  Co  Co3  1  0.16747200  0.83252800  0.75000000  1
  Co  Co4  1  0.16747200  0.33494400  0.75000000  1
  Co  Co5  1  0.66505600  0.83252800  0.75000000  1
  Si  Si0  1  0.33333300  0.66666700  0.25000000  1
  Si  Si1  1  0.66666700  0.33333300  0.75000000  1
loop_
_geom_bond_atom_site_label_1
_geom_bond_atom_site_label_2
_geom_bond_distance
_geom_bond_site_symmetry_2
Co0 Si1 2.447374 1_555
Co0 Si1 2.447374 1_554
Co0 Co5 2.455512 1_545
Co0 Co4 2.455512 1_654
Co0 Co4 2.455512 1_655
Co0 Co5 2.455512 1_544
Co0 Co2 2.476212 1_555
Co0 Co1 2.476212 1_555
Co0 Si0 2.488245 1_545
Co0 Si0 2.488245 1_655
Co0 Co1 2.500258 1_545
Co0 Co2 2.500258 1_655
Co1 Si1 2.447377 1_554
Co1 Si1 2.447377 1_555
Co1 Co3 2.455512 1_655
Co1 Co3 2.455512 1_654
Co1 Co5 2.455512 1_554
Co1 Co5 2.455512 1_555
Co1 Co2 2.476212 1_555
Co1 Si0 2.488242 1_655
Co1 Si0 2.488247 1_555
Co1 Co2 2.500258 1_665
Co2 Si1 2.447377 1_555
Co2 Si1 2.447377 1_554
Co2 Co3 2.455512 1_544
Co2 Co3 2.455512 1_545
Co2 Co4 2.455512 1_554
Co2 Co4 2.455512 1_555
Co2 Si0 2.488242 1_545
Co2 Si0 2.488247 1_555
Co3 Si0 2.447374 1_556
Co3 Si0 2.447374 1_555
Co3 Co4 2.476212 1_555
Co3 Co5 2.476212 1_555
Co3 Si1 2.488245 1_455
Co3 Si1 2.488245 1_565
Co3 Co5 2.500258 1_455
Co3 Co4 2.500258 1_565
Co4 Si0 2.447377 1_556
Co4 Si0 2.447377 1_555
Co4 Co5 2.476212 1_555
Co4 Si1 2.488242 1_455
Co4 Si1 2.488247 1_555
Co4 Co5 2.500258 1_445
Co5 Si0 2.447377 1_556
Co5 Si0 2.447377 1_555
Co5 Si1 2.488242 1_565
Co5 Si1 2.488247 1_555
