# generated using pymatgen
data_Zn89(Cr2Au5)2
_symmetry_space_group_name_H-M   'P 1'
_cell_length_a   13.10852087
_cell_length_b   13.10852087
_cell_length_c   13.10852087
_cell_angle_alpha   60.00000000
_cell_angle_beta   60.00000000
_cell_angle_gamma   60.00000000
_symmetry_Int_Tables_number   1
_chemical_formula_structural   Zn89(Cr2Au5)2
_chemical_formula_sum   'Zn89 Cr4 Au10'
_cell_volume   1592.74434536
_cell_formula_units_Z   1
loop_
 _symmetry_equiv_pos_site_id
 _symmetry_equiv_pos_as_xyz
  1  'x, y, z'
loop_
 _atom_site_type_symbol
 _atom_site_label
 _atom_site_symmetry_multiplicity
 _atom_site_fract_x
 _atom_site_fract_y
 _atom_site_fract_z
 _atom_site_occupancy
  Zn  Zn0  1  0.05350300  0.05350300  0.83949200  1
  Zn  Zn1  1  0.05350300  0.83949200  0.05350300  1
  Zn  Zn2  1  0.83949200  0.05350300  0.05350300  1
  Zn  Zn3  1  0.05350300  0.05350300  0.05350300  1
  Zn  Zn4  1  0.18488300  0.18488300  0.81511700  1
  Zn  Zn5  1  0.81511700  0.18488300  0.81511700  1
  Zn  Zn6  1  0.18488300  0.81511700  0.81511700  1
  Zn  Zn7  1  0.81511700  0.81511700  0.18488300  1
  Zn  Zn8  1  0.18488300  0.81511700  0.18488300  1
  Zn  Zn9  1  0.81511700  0.18488300  0.18488300  1
  Zn  Zn10  1  0.02498700  0.28354100  0.66648500  1
  Zn  Zn11  1  0.02498700  0.02498700  0.66648500  1
  Zn  Zn12  1  0.28354100  0.02498700  0.66648500  1
  Zn  Zn13  1  0.02498700  0.66648500  0.28354100  1
  Zn  Zn14  1  0.28354100  0.66648500  0.02498700  1
  Zn  Zn15  1  0.02498700  0.66648500  0.02498700  1
  Zn  Zn16  1  0.66648500  0.02498700  0.02498700  1
  Zn  Zn17  1  0.66648500  0.28354100  0.02498700  1
  Zn  Zn18  1  0.66648500  0.02498700  0.28354100  1
  Zn  Zn19  1  0.28354100  0.02498700  0.02498700  1
  Zn  Zn20  1  0.02498700  0.02498700  0.28354100  1
  Zn  Zn21  1  0.02498700  0.28354100  0.02498700  1
  Zn  Zn22  1  0.64498100  0.64498100  0.85501900  1
  Zn  Zn23  1  0.85501900  0.64498100  0.85501900  1
  Zn  Zn24  1  0.64498100  0.85501900  0.85501900  1
  Zn  Zn25  1  0.85501900  0.85501900  0.64498100  1
  Zn  Zn26  1  0.64498100  0.85501900  0.64498100  1
  Zn  Zn27  1  0.85501900  0.64498100  0.64498100  1
  Zn  Zn28  1  0.77504800  0.44182900  0.00807500  1
  Zn  Zn29  1  0.77504800  0.77504800  0.00807500  1
  Zn  Zn30  1  0.44182900  0.77504800  0.00807500  1
  Zn  Zn31  1  0.77504800  0.00807500  0.44182900  1
  Zn  Zn32  1  0.44182900  0.00807500  0.77504800  1
  Zn  Zn33  1  0.77504800  0.00807500  0.77504800  1
  Zn  Zn34  1  0.00807500  0.77504800  0.77504800  1
  Zn  Zn35  1  0.00807500  0.44182900  0.77504800  1
  Zn  Zn36  1  0.00807500  0.77504800  0.44182900  1
  Zn  Zn37  1  0.44182900  0.77504800  0.77504800  1
  Zn  Zn38  1  0.77504800  0.77504800  0.44182900  1
  Zn  Zn39  1  0.77504800  0.44182900  0.77504800  1
  Zn  Zn40  1  0.50000000  0.50000000  0.50000000  1
  Zn  Zn41  1  0.41458900  0.41458900  0.75623200  1
  Zn  Zn42  1  0.41458900  0.75623200  0.41458900  1
  Zn  Zn43  1  0.75623200  0.41458900  0.41458900  1
  Zn  Zn44  1  0.41458900  0.41458900  0.41458900  1
  Zn  Zn45  1  0.65283400  0.44339800  0.25093300  1
  Zn  Zn46  1  0.65283400  0.65283400  0.25093300  1
  Zn  Zn47  1  0.44339800  0.65283400  0.25093300  1
  Zn  Zn48  1  0.65283400  0.25093300  0.44339800  1
  Zn  Zn49  1  0.44339800  0.25093300  0.65283400  1
  Zn  Zn50  1  0.65283400  0.25093300  0.65283400  1
  Zn  Zn51  1  0.25093300  0.65283400  0.65283400  1
  Zn  Zn52  1  0.25093300  0.44339800  0.65283400  1
  Zn  Zn53  1  0.25093300  0.65283400  0.44339800  1
  Zn  Zn54  1  0.44339800  0.65283400  0.65283400  1
  Zn  Zn55  1  0.65283400  0.65283400  0.44339800  1
  Zn  Zn56  1  0.65283400  0.44339800  0.65283400  1
  Zn  Zn57  1  0.52587000  0.85113200  0.09712900  1
  Zn  Zn58  1  0.52587000  0.52587000  0.09712900  1
  Zn  Zn59  1  0.85113200  0.52587000  0.09712900  1
  Zn  Zn60  1  0.52587000  0.09712900  0.85113200  1
  Zn  Zn61  1  0.85113200  0.09712900  0.52587000  1
  Zn  Zn62  1  0.52587000  0.09712900  0.52587000  1
  Zn  Zn63  1  0.09712900  0.52587000  0.52587000  1
  Zn  Zn64  1  0.09712900  0.85113200  0.52587000  1
  Zn  Zn65  1  0.09712900  0.52587000  0.85113200  1
  Zn  Zn66  1  0.85113200  0.52587000  0.52587000  1
  Zn  Zn67  1  0.52587000  0.52587000  0.85113200  1
  Zn  Zn68  1  0.52587000  0.85113200  0.52587000  1
  Zn  Zn69  1  0.31974500  0.31974500  0.04076500  1
  Zn  Zn70  1  0.31974500  0.04076500  0.31974500  1
  Zn  Zn71  1  0.04076500  0.31974500  0.31974500  1
  Zn  Zn72  1  0.31974500  0.31974500  0.31974500  1
  Zn  Zn73  1  0.17065100  0.17065100  0.48804600  1
  Zn  Zn74  1  0.17065100  0.48804600  0.17065100  1
  Zn  Zn75  1  0.48804600  0.17065100  0.17065100  1
  Zn  Zn76  1  0.17065100  0.17065100  0.17065100  1
  Zn  Zn77  1  0.27043600  0.89476500  0.56436400  1
  Zn  Zn78  1  0.27043600  0.27043600  0.56436400  1
  Zn  Zn79  1  0.89476500  0.27043600  0.56436400  1
  Zn  Zn80  1  0.27043600  0.56436400  0.89476500  1
  Zn  Zn81  1  0.89476500  0.56436400  0.27043600  1
  Zn  Zn82  1  0.27043600  0.56436400  0.27043600  1
  Zn  Zn83  1  0.56436400  0.27043600  0.27043600  1
  Zn  Zn84  1  0.56436400  0.89476500  0.27043600  1
  Zn  Zn85  1  0.56436400  0.27043600  0.89476500  1
  Zn  Zn86  1  0.89476500  0.27043600  0.27043600  1
  Zn  Zn87  1  0.27043600  0.27043600  0.89476500  1
  Zn  Zn88  1  0.27043600  0.89476500  0.27043600  1
  Cr  Cr0  1  0.64910300  0.64910300  0.05269000  1
  Cr  Cr1  1  0.64910300  0.05269000  0.64910300  1
  Cr  Cr2  1  0.05269000  0.64910300  0.64910300  1
  Cr  Cr3  1  0.64910300  0.64910300  0.64910300  1
  Au  Au0  1  0.91283500  0.91283500  0.26149400  1
  Au  Au1  1  0.91283500  0.26149400  0.91283500  1
  Au  Au2  1  0.26149400  0.91283500  0.91283500  1
  Au  Au3  1  0.91283500  0.91283500  0.91283500  1
  Au  Au4  1  0.07948000  0.07948000  0.42052000  1
  Au  Au5  1  0.42052000  0.07948000  0.42052000  1
  Au  Au6  1  0.07948000  0.42052000  0.42052000  1
  Au  Au7  1  0.42052000  0.42052000  0.07948000  1
  Au  Au8  1  0.07948000  0.42052000  0.07948000  1
  Au  Au9  1  0.42052000  0.07948000  0.07948000  1
loop_
_geom_bond_atom_site_label_1
_geom_bond_atom_site_label_2
_geom_bond_distance
_geom_bond_site_symmetry_2
Zn0 Zn10 2.694035 1_555
Zn0 Zn12 2.694035 1_555
Zn0 Zn11 2.694043 1_555
Zn0 Zn2 2.805368 1_456
Zn0 Zn1 2.805368 1_546
Zn0 Zn3 2.805368 1_556
Zn0 Zn4 2.810593 1_555
Zn0 Zn6 2.810604 1_545
Zn0 Zn5 2.810604 1_455
Zn1 Zn13 2.694035 1_555
Zn1 Zn14 2.694035 1_555
Zn1 Zn15 2.694043 1_555
Zn1 Zn3 2.805368 1_565
Zn1 Zn2 2.805368 1_465
Zn1 Zn8 2.810593 1_555
Zn1 Zn6 2.810604 1_554
Zn1 Zn7 2.810604 1_455
Zn2 Zn3 2.805368 1_655
Zn2 Zn9 2.810593 1_555
Zn2 Zn5 2.810604 1_554
Zn2 Zn7 2.810604 1_545
Zn3 Zn4 2.810599 1_554
Zn3 Zn9 2.810599 1_455
Zn3 Zn8 2.810599 1_545
Zn4 Zn78 2.684197 1_555
Zn4 Zn87 2.684208 1_555
Zn5 Zn79 2.684197 1_555
Zn5 Zn85 2.684197 1_555
Zn6 Zn77 2.684197 1_555
Zn6 Zn80 2.684197 1_555
Zn7 Zn81 2.684197 1_555
Zn7 Zn84 2.684197 1_555
Zn8 Zn82 2.684197 1_555
Zn8 Zn88 2.684208 1_555
Zn10 Zn73 2.734328 1_555
Zn10 Zn79 2.746586 1_455
Zn10 Zn78 2.746598 1_555
Zn10 Zn35 2.925235 1_555
Zn10 Zn39 2.925235 1_455
Zn10 Zn4 2.952140 1_555
Zn10 Zn5 2.952140 1_455
Zn10 Zn66 3.128598 1_455
Zn10 Zn63 3.128605 1_555
Zn11 Zn73 2.734319 1_555
Zn11 Zn77 2.746594 1_545
Zn11 Zn79 2.746594 1_455
Zn11 Zn34 2.925235 1_545
Zn11 Zn33 2.925235 1_455
Zn11 Zn6 2.952140 1_545
Zn11 Zn5 2.952140 1_455
Zn11 Zn64 3.128593 1_545
Zn11 Zn61 3.128593 1_455
Zn12 Zn73 2.734328 1_555
Zn12 Zn77 2.746586 1_545
Zn12 Zn78 2.746598 1_555
Zn12 Zn32 2.925235 1_555
Zn12 Zn37 2.925235 1_545
Zn12 Zn4 2.952140 1_555
Zn12 Zn6 2.952140 1_545
Zn12 Zn68 3.128598 1_545
Zn12 Zn62 3.128605 1_555
Zn13 Zn74 2.734328 1_555
Zn13 Zn81 2.746586 1_455
Zn13 Zn82 2.746598 1_555
Zn13 Zn36 2.925235 1_555
Zn13 Zn38 2.925235 1_455
Zn13 Zn8 2.952140 1_555
Zn13 Zn7 2.952140 1_455
Zn13 Zn66 3.128598 1_455
Zn13 Zn63 3.128605 1_555
Zn14 Zn74 2.734328 1_555
Zn14 Zn80 2.746586 1_554
Zn14 Zn82 2.746598 1_555
Zn14 Zn30 2.925235 1_555
Zn14 Zn37 2.925235 1_554
Zn14 Zn8 2.952140 1_555
Zn14 Zn6 2.952140 1_554
Zn14 Zn67 3.128598 1_554
Zn14 Zn58 3.128605 1_555
Zn15 Zn74 2.734319 1_555
Zn15 Zn80 2.746594 1_554
Zn15 Zn81 2.746594 1_455
Zn15 Zn29 2.925235 1_455
Zn15 Zn34 2.925235 1_554
Zn15 Zn6 2.952140 1_554
Zn15 Zn7 2.952140 1_455
Zn15 Zn65 3.128593 1_554
Zn15 Zn59 3.128593 1_455
Zn16 Zn2 2.694043 1_555
Zn16 Zn75 2.734319 1_555
Zn16 Zn85 2.746594 1_554
Zn16 Zn84 2.746594 1_545
Zn16 Zn33 2.925235 1_554
Zn16 Zn29 2.925235 1_545
Zn16 Zn5 2.952140 1_554
Zn16 Zn7 2.952140 1_545
Zn16 Zn57 3.128593 1_545
Zn16 Zn60 3.128593 1_554
Zn17 Zn2 2.694035 1_555
Zn17 Zn75 2.734328 1_555
Zn17 Zn85 2.746586 1_554
Zn17 Zn83 2.746598 1_555
Zn17 Zn28 2.925235 1_555
Zn17 Zn39 2.925235 1_554
Zn17 Zn9 2.952140 1_555
Zn17 Zn5 2.952140 1_554
Zn17 Zn67 3.128598 1_554
Zn17 Zn58 3.128605 1_555
Zn18 Zn2 2.694035 1_555
Zn18 Zn75 2.734328 1_555
Zn18 Zn84 2.746586 1_545
Zn18 Zn83 2.746598 1_555
Zn18 Zn31 2.925235 1_555
Zn18 Zn38 2.925235 1_545
Zn18 Zn9 2.952140 1_555
Zn18 Zn7 2.952140 1_545
Zn18 Zn68 3.128598 1_545
Zn18 Zn62 3.128605 1_555
Zn19 Zn3 2.694030 1_555
Zn19 Zn76 2.734317 1_555
Zn19 Zn87 2.746597 1_554
Zn19 Zn88 2.746597 1_545
Zn19 Zn30 2.925235 1_545
Zn19 Zn32 2.925235 1_554
Zn19 Zn4 2.952140 1_554
Zn19 Zn8 2.952140 1_545
Zn19 Zn57 3.128604 1_545
Zn19 Zn60 3.128604 1_554
Zn20 Zn3 2.694030 1_555
Zn20 Zn76 2.734317 1_555
Zn20 Zn88 2.746597 1_545
Zn20 Zn86 2.746597 1_455
Zn20 Zn36 2.925235 1_545
Zn20 Zn31 2.925235 1_455
Zn20 Zn8 2.952140 1_545
Zn20 Zn9 2.952140 1_455
Zn20 Zn64 3.128604 1_545
Zn20 Zn61 3.128604 1_455
Zn21 Zn3 2.694030 1_555
Zn21 Zn76 2.734317 1_555
Zn21 Zn86 2.746597 1_455
Zn21 Zn87 2.746597 1_554
Zn21 Zn28 2.925235 1_455
Zn21 Zn35 2.925235 1_554
Zn21 Zn4 2.952140 1_554
Zn21 Zn9 2.952140 1_455
Zn21 Zn65 3.128604 1_554
Zn21 Zn59 3.128604 1_455
Zn22 Zn67 2.734105 1_555
Zn22 Zn58 2.734112 1_556
Zn22 Zn30 2.749817 1_556
Zn22 Zn28 2.749817 1_556
Zn22 Zn39 2.749817 1_555
Zn22 Zn37 2.749817 1_555
Zn22 Zn24 2.753288 1_555
Zn22 Zn26 2.753288 1_555
Zn22 Zn23 2.753288 1_555
Zn22 Zn27 2.753288 1_555
Zn23 Zn59 2.734116 1_556
Zn23 Zn65 2.734116 1_655
Zn23 Zn29 2.749817 1_556
Zn23 Zn34 2.749817 1_655
Zn23 Zn35 2.749817 1_655
Zn23 Zn28 2.749817 1_556
Zn23 Zn25 2.753288 1_555
Zn23 Zn27 2.753288 1_555
Zn23 Zn24 2.753288 1_555
Zn24 Zn57 2.734116 1_556
Zn24 Zn60 2.734116 1_565
Zn24 Zn33 2.749817 1_565
Zn24 Zn29 2.749817 1_556
Zn24 Zn32 2.749817 1_565
Zn24 Zn30 2.749817 1_556
Zn24 Zn25 2.753288 1_555
Zn24 Zn26 2.753288 1_555
Zn25 Zn61 2.734116 1_565
Zn25 Zn64 2.734116 1_655
Zn25 Zn33 2.749817 1_565
Zn25 Zn34 2.749817 1_655
Zn25 Zn31 2.749817 1_565
Zn25 Zn36 2.749817 1_655
Zn25 Zn26 2.753288 1_555
Zn25 Zn27 2.753288 1_555
Zn26 Zn68 2.734105 1_555
Zn26 Zn62 2.734112 1_565
Zn26 Zn31 2.749817 1_565
Zn26 Zn32 2.749817 1_565
Zn26 Zn37 2.749817 1_555
Zn26 Zn38 2.749817 1_555
Zn26 Zn27 2.753288 1_555
Zn27 Zn66 2.734105 1_555
Zn27 Zn63 2.734112 1_655
Zn27 Zn35 2.749817 1_655
Zn27 Zn36 2.749817 1_655
Zn27 Zn38 2.749817 1_555
Zn27 Zn39 2.749817 1_555
Zn28 Zn58 2.668346 1_555
Zn28 Zn59 2.668356 1_555
Zn28 Zn45 2.762988 1_555
Zn28 Zn9 2.938376 1_555
Zn28 Zn39 3.054639 1_554
Zn28 Zn35 3.054639 1_654
Zn29 Zn59 2.668345 1_555
Zn29 Zn57 2.668345 1_555
Zn29 Zn46 2.762992 1_555
Zn29 Zn7 2.938376 1_555
Zn29 Zn34 3.054639 1_654
Zn29 Zn33 3.054639 1_564
Zn30 Zn58 2.668346 1_555
Zn30 Zn57 2.668356 1_555
Zn30 Zn47 2.762988 1_555
Zn30 Zn8 2.938376 1_555
Zn30 Zn37 3.054639 1_554
Zn30 Zn32 3.054639 1_564
Zn31 Zn62 2.668346 1_555
Zn31 Zn61 2.668356 1_555
Zn31 Zn48 2.762988 1_555
Zn31 Zn9 2.938376 1_555
Zn31 Zn38 3.054639 1_545
Zn31 Zn36 3.054639 1_645
Zn32 Zn62 2.668346 1_555
Zn32 Zn60 2.668356 1_555
Zn32 Zn49 2.762988 1_555
Zn32 Zn4 2.938376 1_555
Zn32 Zn37 3.054639 1_545
Zn33 Zn60 2.668345 1_555
Zn33 Zn61 2.668345 1_555
Zn33 Zn50 2.762992 1_555
Zn33 Zn5 2.938376 1_555
Zn33 Zn34 3.054639 1_645
Zn34 Zn64 2.668345 1_555
Zn34 Zn65 2.668345 1_555
Zn34 Zn51 2.762992 1_555
Zn34 Zn6 2.938376 1_555
Zn35 Zn63 2.668346 1_555
Zn35 Zn65 2.668356 1_555
Zn35 Zn52 2.762988 1_555
Zn35 Zn4 2.938376 1_555
Zn35 Zn39 3.054639 1_455
Zn36 Zn63 2.668346 1_555
Zn36 Zn64 2.668356 1_555
Zn36 Zn53 2.762988 1_555
Zn36 Zn8 2.938376 1_555
Zn36 Zn38 3.054639 1_455
Zn37 Zn68 2.668345 1_555
Zn37 Zn67 2.668345 1_555
Zn37 Zn54 2.762999 1_555
Zn37 Zn6 2.938376 1_555
Zn38 Zn66 2.668345 1_555
Zn38 Zn68 2.668345 1_555
Zn38 Zn55 2.762999 1_555
Zn38 Zn7 2.938376 1_555
Zn39 Zn66 2.668345 1_555
Zn39 Zn67 2.668345 1_555
Zn39 Zn56 2.762999 1_555
Zn39 Zn5 2.938376 1_555
Zn40 Zn41 2.742467 1_555
Zn40 Zn42 2.742467 1_555
Zn40 Zn43 2.742467 1_555
Zn40 Zn44 2.742478 1_555
Zn41 Zn87 2.673359 1_555
Zn41 Zn85 2.673378 1_555
Zn41 Zn80 2.673378 1_555
Zn41 Zn54 2.857914 1_555
Zn41 Zn56 2.857914 1_555
Zn41 Zn50 2.857914 1_555
Zn41 Zn51 2.857914 1_555
Zn41 Zn52 2.857914 1_555
Zn41 Zn49 2.857914 1_555
Zn41 Zn69 3.045374 1_556
Zn42 Zn88 2.673359 1_555
Zn42 Zn84 2.673378 1_555
Zn42 Zn77 2.673378 1_555
Zn42 Zn55 2.857914 1_555
Zn42 Zn54 2.857914 1_555
Zn42 Zn51 2.857914 1_555
Zn42 Zn46 2.857914 1_555
Zn42 Zn53 2.857914 1_555
Zn42 Zn47 2.857914 1_555
Zn42 Zn70 3.045374 1_565
Zn43 Zn86 2.673359 1_555
Zn43 Zn81 2.673378 1_555
Zn43 Zn79 2.673378 1_555
Zn43 Zn55 2.857914 1_555
Zn43 Zn56 2.857914 1_555
Zn43 Zn50 2.857914 1_555
Zn43 Zn46 2.857914 1_555
Zn43 Zn45 2.857914 1_555
Zn43 Zn48 2.857914 1_555
Zn43 Zn71 3.045374 1_655
Zn44 Zn82 2.673360 1_555
Zn44 Zn78 2.673360 1_555
Zn44 Zn83 2.673360 1_555
Zn44 Zn53 2.857914 1_555
Zn44 Zn45 2.857914 1_555
Zn44 Zn52 2.857914 1_555
Zn44 Zn49 2.857914 1_555
Zn44 Zn48 2.857914 1_555
Zn44 Zn47 2.857914 1_555
Zn44 Zn72 3.045364 1_555
Zn45 Zn48 2.522931 1_555
Zn45 Zn58 2.716636 1_555
Zn45 Zn59 2.716656 1_555
Zn45 Zn46 2.745396 1_555
Zn45 Zn47 2.745396 1_555
Zn45 Zn83 2.881681 1_555
Zn45 Zn86 2.881701 1_555
Zn46 Zn55 2.522931 1_555
Zn46 Zn59 2.716643 1_555
Zn46 Zn57 2.716643 1_555
Zn46 Zn47 2.745396 1_555
Zn46 Zn81 2.881706 1_555
Zn46 Zn84 2.881706 1_555
Zn47 Zn53 2.522931 1_555
Zn47 Zn58 2.716636 1_555
Zn47 Zn57 2.716656 1_555
Zn47 Zn82 2.881681 1_555
Zn47 Zn88 2.881701 1_555
Zn48 Zn62 2.716636 1_555
Zn48 Zn61 2.716656 1_555
Zn48 Zn49 2.745396 1_555
Zn48 Zn50 2.745396 1_555
Zn48 Zn83 2.881681 1_555
Zn48 Zn86 2.881701 1_555
Zn49 Zn52 2.522931 1_555
Zn49 Zn62 2.716636 1_555
Zn49 Zn60 2.716656 1_555
Zn49 Zn50 2.745396 1_555
Zn49 Zn78 2.881681 1_555
Zn49 Zn87 2.881701 1_555
Zn50 Zn56 2.522931 1_555
Zn50 Zn60 2.716643 1_555
Zn50 Zn61 2.716643 1_555
Zn50 Zn85 2.881706 1_555
Zn50 Zn79 2.881706 1_555
Zn51 Zn54 2.522931 1_555
Zn51 Zn64 2.716643 1_555
Zn51 Zn65 2.716643 1_555
Zn51 Zn52 2.745396 1_555
Zn51 Zn53 2.745396 1_555
Zn51 Zn80 2.881706 1_555
Zn51 Zn77 2.881706 1_555
Zn52 Zn63 2.716636 1_555
Zn52 Zn65 2.716656 1_555
Zn52 Zn53 2.745396 1_555
Zn52 Zn78 2.881681 1_555
Zn52 Zn87 2.881701 1_555
Zn53 Zn63 2.716636 1_555
Zn53 Zn64 2.716656 1_555
Zn53 Zn82 2.881681 1_555
Zn53 Zn88 2.881701 1_555
Zn54 Zn68 2.716658 1_555
Zn54 Zn67 2.716658 1_555
Zn54 Zn56 2.745396 1_555
Zn54 Zn55 2.745396 1_555
Zn54 Zn77 2.881694 1_555
Zn54 Zn80 2.881694 1_555
Zn55 Zn66 2.716658 1_555
Zn55 Zn68 2.716658 1_555
Zn55 Zn56 2.745396 1_555
Zn55 Zn84 2.881694 1_555
Zn55 Zn81 2.881694 1_555
Zn56 Zn66 2.716658 1_555
Zn56 Zn67 2.716658 1_555
Zn56 Zn85 2.881694 1_555
Zn56 Zn79 2.881694 1_555
Zn57 Zn84 2.911560 1_555
Zn57 Zn88 2.911560 1_555
Zn58 Zn82 2.911560 1_555
Zn58 Zn83 2.911560 1_555
Zn59 Zn81 2.911560 1_555
Zn59 Zn86 2.911560 1_555
Zn60 Zn85 2.911560 1_555
Zn60 Zn87 2.911560 1_555
Zn61 Zn79 2.911560 1_555
Zn61 Zn86 2.911560 1_555
Zn62 Zn78 2.911560 1_555
Zn62 Zn83 2.911560 1_555
Zn63 Zn78 2.911560 1_555
Zn63 Zn82 2.911560 1_555
Zn64 Zn77 2.911560 1_555
Zn64 Zn88 2.911560 1_555
Zn65 Zn80 2.911560 1_555
Zn65 Zn87 2.911560 1_555
Zn66 Zn79 2.911560 1_555
Zn66 Zn81 2.911560 1_555
Zn67 Zn80 2.911560 1_555
Zn67 Zn85 2.911560 1_555
Zn68 Zn77 2.911560 1_555
Zn68 Zn84 2.911560 1_555
Zn69 Zn87 2.718505 1_554
Zn69 Zn85 2.718514 1_554
Zn69 Zn80 2.718514 1_554
Zn69 Zn74 2.775377 1_555
Zn69 Zn75 2.775377 1_555
Zn69 Zn76 2.775387 1_555
Zn70 Zn88 2.718505 1_545
Zn70 Zn84 2.718514 1_545
Zn70 Zn77 2.718514 1_545
Zn70 Zn75 2.775377 1_555
Zn70 Zn73 2.775377 1_555
Zn70 Zn76 2.775387 1_555
Zn71 Zn86 2.718505 1_455
Zn71 Zn81 2.718514 1_455
Zn71 Zn79 2.718514 1_455
Zn71 Zn74 2.775377 1_555
Zn71 Zn73 2.775377 1_555
Zn71 Zn76 2.775387 1_555
Zn72 Zn83 2.718517 1_555
Zn72 Zn78 2.718517 1_555
Zn72 Zn82 2.718517 1_555
Zn72 Zn73 2.775385 1_555
Zn72 Zn74 2.775385 1_555
Zn72 Zn75 2.775385 1_555
Zn73 Zn79 2.958161 1_455
Zn73 Zn77 2.958161 1_545
Zn73 Zn78 2.958183 1_555
Zn74 Zn80 2.958161 1_554
Zn74 Zn81 2.958161 1_455
Zn74 Zn82 2.958183 1_555
Zn75 Zn85 2.958161 1_554
Zn75 Zn84 2.958161 1_545
Zn75 Zn83 2.958183 1_555
Zn76 Zn86 2.958162 1_455
Zn76 Zn87 2.958162 1_554
Zn76 Zn88 2.958162 1_545
Zn83 Zn9 2.684197 1_555
Zn86 Zn9 2.684208 1_555
Cr0 Zn58 2.507165 1_555
Cr0 Zn57 2.507187 1_555
Cr0 Zn59 2.507187 1_555
Cr0 Zn28 2.566678 1_555
Cr0 Zn30 2.566678 1_555
Cr0 Zn29 2.566689 1_555
Cr0 Zn22 2.646311 1_554
Cr0 Zn23 2.646318 1_554
Cr0 Zn24 2.646318 1_554
Cr0 Zn46 2.648484 1_555
Cr0 Zn47 2.648484 1_555
Cr0 Zn45 2.648484 1_555
Cr1 Zn62 2.507165 1_555
Cr1 Zn60 2.507187 1_555
Cr1 Zn61 2.507187 1_555
Cr1 Zn31 2.566678 1_555
Cr1 Zn32 2.566678 1_555
Cr1 Zn33 2.566689 1_555
Cr1 Zn26 2.646311 1_545
Cr1 Zn25 2.646318 1_545
Cr1 Zn24 2.646318 1_545
Cr1 Zn50 2.648484 1_555
Cr1 Zn49 2.648484 1_555
Cr1 Zn48 2.648484 1_555
Cr2 Zn63 2.507165 1_555
Cr2 Zn65 2.507187 1_555
Cr2 Zn64 2.507187 1_555
Cr2 Zn35 2.566678 1_555
Cr2 Zn36 2.566678 1_555
Cr2 Zn34 2.566689 1_555
Cr2 Zn27 2.646311 1_455
Cr2 Zn23 2.646318 1_455
Cr2 Zn25 2.646318 1_455
Cr2 Zn51 2.648484 1_555
Cr2 Zn52 2.648484 1_555
Cr2 Zn53 2.648484 1_555
Cr3 Zn66 2.507176 1_555
Cr3 Zn68 2.507176 1_555
Cr3 Zn67 2.507176 1_555
Cr3 Zn39 2.566684 1_555
Cr3 Zn37 2.566684 1_555
Cr3 Zn38 2.566684 1_555
Cr3 Zn22 2.646324 1_555
Cr3 Zn26 2.646324 1_555
Cr3 Zn27 2.646324 1_555
Cr3 Zn54 2.648484 1_555
Cr3 Zn55 2.648484 1_555
Cr3 Zn56 2.648484 1_555
Au0 Zn38 2.614512 1_555
Au0 Zn31 2.614520 1_565
Au0 Zn36 2.614520 1_655
Au0 Zn13 2.723456 1_655
Au0 Zn18 2.723456 1_565
Au0 Zn20 2.723467 1_665
Au0 Zn2 2.753006 1_565
Au0 Zn1 2.753006 1_655
Au0 Zn3 2.753019 1_665
Au0 Zn7 2.916115 1_555
Au0 Zn9 2.916125 1_565
Au0 Zn8 2.916125 1_655
Au1 Zn39 2.614512 1_555
Au1 Zn28 2.614520 1_556
Au1 Zn35 2.614520 1_655
Au1 Zn10 2.723456 1_655
Au1 Zn17 2.723456 1_556
Au1 Zn21 2.723467 1_656
Au1 Zn2 2.753006 1_556
Au1 Zn0 2.753006 1_655
Au1 Zn3 2.753019 1_656
Au1 Zn5 2.916115 1_555
Au1 Zn4 2.916125 1_655
Au1 Zn9 2.916125 1_556
Au2 Zn37 2.614512 1_555
Au2 Zn30 2.614520 1_556
Au2 Zn32 2.614520 1_565
Au2 Zn14 2.723456 1_556
Au2 Zn12 2.723456 1_565
Au2 Zn19 2.723467 1_566
Au2 Zn0 2.753006 1_565
Au2 Zn1 2.753006 1_556
Au2 Zn3 2.753019 1_566
Au2 Zn6 2.916115 1_555
Au2 Zn8 2.916125 1_556
Au2 Zn4 2.916125 1_565
Au3 Zn33 2.614510 1_565
Au3 Zn29 2.614510 1_556
Au3 Zn34 2.614510 1_655
Au3 Zn15 2.723459 1_656
Au3 Zn11 2.723459 1_665
Au3 Zn16 2.723459 1_566
Au3 Zn0 2.753027 1_665
Au3 Zn2 2.753027 1_566
Au3 Zn1 2.753027 1_656
Au3 Zn6 2.916125 1_655
Au3 Zn5 2.916125 1_565
Au3 Zn7 2.916125 1_556
Au4 Zn61 2.532547 1_455
Au4 Zn64 2.532547 1_545
Au4 Zn70 2.614112 1_555
Au4 Zn71 2.614112 1_555
Au4 Zn73 2.680333 1_555
Au4 Zn76 2.680343 1_555
Au4 Zn11 2.705584 1_555
Au4 Zn20 2.705584 1_555
Au4 Zn88 3.126868 1_545
Au4 Zn86 3.126868 1_455
Au4 Zn79 3.126876 1_455
Au4 Zn77 3.126876 1_545
Au5 Zn68 2.532550 1_545
Au5 Zn62 2.532558 1_555
Au5 Zn72 2.614112 1_555
Au5 Zn70 2.614112 1_555
Au5 Zn75 2.680344 1_555
Au5 Zn73 2.680344 1_555
Au5 Zn18 2.705584 1_555
Au5 Zn12 2.705584 1_555
Au5 Zn77 3.126867 1_545
Au5 Zn84 3.126867 1_545
Au5 Zn78 3.126877 1_555
Au5 Zn83 3.126877 1_555
Au6 Zn66 2.532550 1_455
Au6 Zn63 2.532558 1_555
Au6 Zn72 2.614112 1_555
Au6 Zn71 2.614112 1_555
Au6 Zn74 2.680344 1_555
Au6 Zn73 2.680344 1_555
Au6 Zn13 2.705584 1_555
Au6 Zn10 2.705584 1_555
Au6 Zn79 3.126867 1_455
Au6 Zn81 3.126867 1_455
Au6 Zn82 3.126877 1_555
Au6 Zn78 3.126877 1_555
Au7 Zn67 2.532550 1_554
Au7 Zn58 2.532558 1_555
Au7 Zn72 2.614112 1_555
Au7 Zn69 2.614112 1_555
Au7 Zn75 2.680344 1_555
Au7 Zn74 2.680344 1_555
Au7 Zn17 2.705584 1_555
Au7 Zn14 2.705584 1_555
Au7 Zn85 3.126867 1_554
Au7 Zn80 3.126867 1_554
Au7 Zn83 3.126877 1_555
Au7 Zn82 3.126877 1_555
Au8 Zn59 2.532547 1_455
Au8 Zn65 2.532547 1_554
Au8 Zn69 2.614112 1_555
Au8 Zn71 2.614112 1_555
Au8 Zn74 2.680333 1_555
Au8 Zn76 2.680343 1_555
Au8 Zn15 2.705584 1_555
Au8 Zn21 2.705584 1_555
Au8 Zn87 3.126868 1_554
Au8 Zn86 3.126868 1_455
Au8 Zn80 3.126876 1_554
Au8 Zn81 3.126876 1_455
Au9 Zn57 2.532547 1_545
Au9 Zn60 2.532547 1_554
Au9 Zn70 2.614112 1_555
Au9 Zn69 2.614112 1_555
Au9 Zn75 2.680333 1_555
Au9 Zn76 2.680343 1_555
Au9 Zn16 2.705584 1_555
Au9 Zn19 2.705584 1_555
Au9 Zn87 3.126868 1_554
Au9 Zn88 3.126868 1_545
Au9 Zn85 3.126876 1_554
Au9 Zn84 3.126876 1_545
