# generated using pymatgen
data_Sr8Li2B22H2O43
_symmetry_space_group_name_H-M   'P 1'
_cell_length_a   6.54274800
_cell_length_b   8.57015260
_cell_length_c   15.03150545
_cell_angle_alpha   100.84141323
_cell_angle_beta   93.96814166
_cell_angle_gamma   90.36468327
_symmetry_Int_Tables_number   1
_chemical_formula_structural   Sr8Li2B22H2O43
_chemical_formula_sum   'Sr8 Li2 B22 H2 O43'
_cell_volume   825.66212403
_cell_formula_units_Z   1
loop_
 _symmetry_equiv_pos_site_id
 _symmetry_equiv_pos_as_xyz
  1  'x, y, z'
loop_
 _atom_site_type_symbol
 _atom_site_label
 _atom_site_symmetry_multiplicity
 _atom_site_fract_x
 _atom_site_fract_y
 _atom_site_fract_z
 _atom_site_occupancy
  Sr  Sr0  1  0.88072800  0.92449300  0.77928900  1
  Sr  Sr1  1  0.11927200  0.07550700  0.22071100  1
  Sr  Sr2  1  0.48613600  0.61318700  0.89417700  1
  Sr  Sr3  1  0.51386400  0.38681300  0.10582300  1
  Sr  Sr4  1  0.95898700  0.39598700  0.73356700  1
  Sr  Sr5  1  0.04101300  0.60401300  0.26643300  1
  Sr  Sr6  1  0.35692200  0.02614100  0.61901200  1
  Sr  Sr7  1  0.64307800  0.97385900  0.38098800  1
  Li  Li0  1  0.35062600  0.68571200  0.47437600  1
  Li  Li1  1  0.64937400  0.31428800  0.52562400  1
  B  B0  1  0.47314800  0.27000500  0.81948000  1
  B  B1  1  0.52685200  0.72999500  0.18052000  1
  B  B2  1  0.23511400  0.34474100  0.53962500  1
  B  B3  1  0.76488600  0.65525900  0.46037500  1
  B  B4  1  0.67565800  0.64521000  0.62140900  1
  B  B5  1  0.32434200  0.35479000  0.37859100  1
  B  B6  1  0.79475700  0.28917100  0.93581100  1
  B  B7  1  0.20524300  0.71082900  0.06418900  1
  B  B8  1  0.03787800  0.68209000  0.57940300  1
  B  B9  1  0.96212200  0.31791000  0.42059700  1
  B  B10  1  0.35971600  0.73212000  0.69686100  1
  B  B11  1  0.64028400  0.26788000  0.30313900  1
  B  B12  1  0.93880800  0.67850200  0.93844100  1
  B  B13  1  0.06119200  0.32149800  0.06155900  1
  B  B14  1  0.16173100  0.22864500  0.89792300  1
  B  B15  1  0.83826900  0.77135500  0.10207700  1
  B  B16  1  0.46199700  0.44571200  0.68933300  1
  B  B17  1  0.53800300  0.55428800  0.31066700  1
  B  B18  1  0.37063400  0.98690700  0.82749800  1
  B  B19  1  0.62936600  0.01309300  0.17250200  1
  B  B20  1  0.87899200  0.06542200  0.57392500  1
  B  B21  1  0.12100800  0.93457800  0.42607500  1
  H  H0  1  0.55974100  0.96430100  0.94271800  1
  H  H1  1  0.44025900  0.03569900  0.05728200  1
  O  O0  1  0.88075600  0.64772900  0.84977200  1
  O  O1  1  0.11924400  0.35227100  0.15022800  1
  O  O2  1  0.93222200  0.23983900  0.87231100  1
  O  O3  1  0.06777800  0.76016100  0.12768900  1
  O  O4  1  0.57097000  0.77081700  0.67862500  1
  O  O5  1  0.42903000  0.22918300  0.32137500  1
  O  O6  1  0.97117200  0.08763700  0.65987900  1
  O  O7  1  0.02882800  0.91236300  0.34012100  1
  O  O8  1  0.55772800  0.36253500  0.75779200  1
  O  O9  1  0.44227200  0.63746500  0.24220800  1
  O  O10  1  0.62716400  0.65501900  0.52367100  1
  O  O11  1  0.37283600  0.34498100  0.47632900  1
  O  O12  1  0.90199000  0.67501600  0.64356900  1
  O  O13  1  0.09801000  0.32498400  0.35643100  1
  O  O14  1  0.26375200  0.31925000  0.83945700  1
  O  O15  1  0.73624800  0.68075000  0.16054300  1
  O  O16  1  0.26994800  0.86506800  0.75411800  1
  O  O17  1  0.73005200  0.13493200  0.24588200  1
  O  O18  1  0.62863400  0.48483000  0.63578800  1
  O  O19  1  0.37136600  0.51517000  0.36421200  1
  O  O20  1  0.59601000  0.32161000  0.91428500  1
  O  O21  1  0.40399000  0.67839000  0.08571500  1
  O  O22  1  0.02482200  0.34022700  0.51400700  1
  O  O23  1  0.97517800  0.65977300  0.48599300  1
  O  O24  1  0.29493400  0.33754800  0.62830500  1
  O  O25  1  0.70506600  0.66245200  0.37169500  1
  O  O26  1  0.68054500  0.10039700  0.55134200  1
  O  O27  1  0.31945500  0.89960300  0.44865800  1
  O  O28  1  0.21048300  0.06129200  0.88259500  1
  O  O29  1  0.78951700  0.93870800  0.11740500  1
  O  O30  1  0.24144100  0.71045600  0.60071900  1
  O  O31  1  0.75855900  0.28954400  0.39928100  1
  O  O32  1  0.85081100  0.31080600  0.02901900  1
  O  O33  1  0.14918900  0.68919400  0.97098100  1
  O  O34  1  0.34896900  0.58497300  0.73183800  1
  O  O35  1  0.65103100  0.41502700  0.26816200  1
  O  O36  1  0.79746600  0.69678500  0.00425700  1
  O  O37  1  0.20253400  0.30321500  0.99574300  1
  O  O38  1  0.49171900  0.10040300  0.78762900  1
  O  O39  1  0.50828100  0.89959700  0.21237100  1
  O  O40  1  0.52384100  0.90144400  0.88295400  1
  O  O41  1  0.47615900  0.09855600  0.11704600  1
  O  O42  1  0.00000000  0.00000000  0.50000000  1
loop_
_geom_bond_atom_site_label_1
_geom_bond_atom_site_label_2
_geom_bond_distance
_geom_bond_site_symmetry_2
Li0 O10 1.945688 1_555
Li0 O27 1.952341 1_555
Li0 O19 2.004963 1_555
Li0 O30 2.049432 1_555
Li0 O23 2.486189 1_455
Li1 O11 1.945688 1_555
Li1 O26 1.952341 1_555
Li1 O18 2.004963 1_555
Li1 O31 2.049432 1_555
Li1 O22 2.486189 1_655
B0 O38 1.450932 1_555
B0 O8 1.461829 1_555
B0 O14 1.470333 1_555
B0 O20 1.572392 1_555
B1 O39 1.450932 1_555
B1 O9 1.461829 1_555
B1 O15 1.470333 1_555
B1 O21 1.572392 1_555
B2 O11 1.355192 1_555
B2 O24 1.375816 1_555
B2 O22 1.401155 1_555
B3 O10 1.355192 1_555
B3 O25 1.375816 1_555
B3 O23 1.401155 1_555
B4 O4 1.452673 1_555
B4 O18 1.464974 1_555
B4 O10 1.499473 1_555
B4 O12 1.504653 1_555
B5 O5 1.452673 1_555
B5 O19 1.464974 1_555
B5 O11 1.499473 1_555
B5 O13 1.504653 1_555
B6 O20 1.361288 1_555
B6 O2 1.367693 1_555
B6 O32 1.400763 1_556
B7 O21 1.361288 1_555
B7 O3 1.367693 1_555
B7 O33 1.400763 1_554
B8 O30 1.357619 1_555
B8 O12 1.365437 1_455
B8 O23 1.412305 1_455
B9 O31 1.357619 1_555
B9 O13 1.365437 1_655
B9 O22 1.412305 1_655
B10 O16 1.446884 1_555
B10 O34 1.457762 1_555
B10 O4 1.475246 1_555
B10 O30 1.569791 1_555
B11 O17 1.446884 1_555
B11 O35 1.457762 1_555
B11 O5 1.475246 1_555
B11 O31 1.569791 1_555
B12 O0 1.336667 1_555
B12 O36 1.388754 1_556
B12 O33 1.425013 1_655
B13 O1 1.336667 1_555
B13 O37 1.388754 1_554
B13 O32 1.425013 1_455
B14 O28 1.450365 1_555
B14 O14 1.467022 1_555
B14 O37 1.493893 1_555
B14 O2 1.532317 1_455
B15 O29 1.450365 1_555
B15 O15 1.467022 1_555
B15 O36 1.493893 1_555
B15 O3 1.532317 1_655
B16 O8 1.466901 1_555
B16 O18 1.472132 1_555
B16 O34 1.472848 1_555
B16 O24 1.556922 1_555
B17 O9 1.466901 1_555
B17 O19 1.472132 1_555
B17 O35 1.472848 1_555
B17 O25 1.556922 1_555
B18 O28 1.456103 1_565
B18 O16 1.482675 1_555
B18 O38 1.485955 1_565
B18 O40 1.536064 1_555
B19 O29 1.456103 1_545
B19 O17 1.482675 1_555
B19 O39 1.485955 1_545
B19 O41 1.536064 1_555
B20 O6 1.366549 1_555
B20 O26 1.368619 1_555
B20 O42 1.438403 1_655
B21 O7 1.366549 1_555
B21 O27 1.368619 1_555
B21 O42 1.438403 1_565
H0 O40 0.969289 1_555
H1 O41 0.969289 1_555
O0 Sr4 2.586094 1_555
O0 Sr2 2.739065 1_555
O0 Sr0 2.773758 1_555
O1 Sr5 2.586094 1_555
O1 Sr3 2.739065 1_555
O1 Sr1 2.773758 1_555
O2 Sr4 2.695990 1_555
O2 Sr0 2.806091 1_545
O3 Sr5 2.695990 1_555
O3 Sr1 2.806091 1_565
O4 Sr0 2.631242 1_555
O4 Sr6 2.855738 1_565
O5 Sr1 2.631242 1_555
O5 Sr7 2.855738 1_545
O6 Sr0 2.570465 1_545
O6 Sr4 2.670279 1_555
O6 Sr6 2.671092 1_655
O7 Sr1 2.570465 1_565
O7 Sr5 2.670279 1_555
O7 Sr7 2.671092 1_455
O8 Sr4 2.696142 1_555
O8 Sr2 2.743305 1_555
O9 Sr5 2.696142 1_555
O9 Sr3 2.743305 1_555
O12 Sr0 2.674842 1_555
O12 Sr4 2.974230 1_555
O13 Sr1 2.674842 1_555
O13 Sr5 2.974230 1_555
O14 Sr4 2.629297 1_455
O14 Sr2 2.854403 1_555
O15 Sr5 2.629297 1_655
O15 Sr3 2.854403 1_555
O16 Sr0 2.639111 1_455
O16 Sr6 2.749229 1_565
O17 Sr1 2.639111 1_655
O17 Sr7 2.749229 1_545
O18 Sr4 2.722849 1_555
O19 Sr5 2.722849 1_555
O20 Sr2 2.670087 1_555
O20 Sr3 2.916013 1_556
O21 Sr3 2.670087 1_555
O21 Sr2 2.916013 1_554
O24 Sr6 2.681026 1_555
O24 Sr4 2.789779 1_455
O25 Sr7 2.681026 1_555
O25 Sr5 2.789779 1_655
O26 Sr6 2.539174 1_555
O26 Sr7 2.580368 1_545
O27 Sr7 2.539174 1_555
O27 Sr6 2.580368 1_565
O28 Sr0 2.694420 1_445
O29 Sr1 2.694420 1_665
O30 Sr6 2.762502 1_565
O31 Sr7 2.762502 1_545
O32 Sr3 2.589373 1_555
O33 Sr2 2.589373 1_555
O34 Sr2 2.508114 1_555
O34 Sr4 3.017737 1_455
O35 Sr3 2.508114 1_555
O35 Sr5 3.017737 1_655
O36 Sr2 2.543498 1_554
O37 Sr3 2.543498 1_556
O38 Sr6 2.585259 1_555
O38 Sr0 2.964522 1_545
O39 Sr7 2.585259 1_555
O39 Sr1 2.964522 1_565
O40 Sr2 2.519326 1_555
O40 Sr0 2.921124 1_555
O41 Sr3 2.519326 1_555
O41 Sr1 2.921124 1_555
O42 Sr6 2.822806 1_555
O42 Sr7 2.822806 1_445
