# generated using pymatgen
data_MgV6O5F19
_symmetry_space_group_name_H-M   'P 1'
_cell_length_a   5.45773584
_cell_length_b   5.41497328
_cell_length_c   15.59452238
_cell_angle_alpha   89.77460380
_cell_angle_beta   99.81828612
_cell_angle_gamma   90.69208995
_symmetry_Int_Tables_number   1
_chemical_formula_structural   MgV6O5F19
_chemical_formula_sum   'Mg1 V6 O5 F19'
_cell_volume   454.08850850
_cell_formula_units_Z   1
loop_
 _symmetry_equiv_pos_site_id
 _symmetry_equiv_pos_as_xyz
  1  'x, y, z'
loop_
 _atom_site_type_symbol
 _atom_site_label
 _atom_site_symmetry_multiplicity
 _atom_site_fract_x
 _atom_site_fract_y
 _atom_site_fract_z
 _atom_site_occupancy
  Mg  Mg0  1  0.81904200  0.74249600  0.15053100  1
  V  V0  1  0.04294100  0.98218800  0.98620000  1
  V  V1  1  0.14644000  0.47096000  0.34776200  1
  V  V2  1  0.26654300  0.03007200  0.66603600  1
  V  V3  1  0.54048100  0.44823200  0.98022900  1
  V  V4  1  0.66952900  0.00195000  0.34870000  1
  V  V5  1  0.76845000  0.48091200  0.66542900  1
  O  O0  1  0.02286500  0.21201800  0.64810300  1
  O  O1  1  0.52260500  0.29591900  0.64548700  1
  O  O2  1  0.70919900  0.19614200  0.97589200  1
  O  O3  1  0.29675500  0.82350800  0.00547000  1
  O  O4  1  0.91076400  0.25239000  0.33715600  1
  F  F0  1  0.19971200  0.28996200  0.97792800  1
  F  F1  1  0.13061900  0.73871800  0.69242000  1
  F  F2  1  0.01246500  0.01770400  0.10616100  1
  F  F3  1  0.27721500  0.45585900  0.46115300  1
  F  F4  1  0.39654400  0.08519800  0.77671800  1
  F  F5  1  0.07107900  0.56475300  0.22220400  1
  F  F6  1  0.29825000  0.93415200  0.56029400  1
  F  F7  1  0.43960500  0.58288000  0.87530200  1
  F  F8  1  0.40444900  0.23781600  0.31846600  1
  F  F9  1  0.42014500  0.74168200  0.34357500  1
  F  F10  1  0.63248900  0.76989700  0.68873800  1
  F  F11  1  0.56693200  0.49484000  0.10583000  1
  F  F12  1  0.68726100  0.04272700  0.46046900  1
  F  F13  1  0.88767300  0.42224400  0.77674000  1
  F  F14  1  0.65113300  0.93531800  0.22596300  1
  F  F15  1  0.81547600  0.57122000  0.56020100  1
  F  F16  1  0.94716300  0.92659600  0.87507700  1
  F  F17  1  0.82447700  0.69624600  0.00895500  1
  F  F18  1  0.93122000  0.75539900  0.36752800  1
loop_
_geom_bond_atom_site_label_1
_geom_bond_atom_site_label_2
_geom_bond_distance
_geom_bond_site_symmetry_2
O0 V2 1.649317 1_555
O0 V5 2.073885 1_455
O1 V5 1.651716 1_555
O1 V2 2.056348 1_555
O2 V3 1.663792 1_555
O2 V0 2.153026 1_645
O3 V0 1.622431 1_554
O4 V1 1.724765 1_655
O4 V4 1.908060 1_555
F0 V0 1.878227 1_545
F0 V3 2.033155 1_555
F1 V2 1.810906 1_565
F1 V5 2.384800 1_455
F2 V0 1.916774 1_544
F2 Mg0 2.004243 1_445
F3 V1 1.792416 1_555
F4 V2 1.775663 1_555
F5 Mg0 1.888633 1_455
F5 V1 1.995874 1_555
F6 V2 1.767808 1_565
F7 V3 1.790314 1_555
F8 V4 1.937491 1_555
F8 V1 2.013034 1_555
F9 V4 1.939743 1_565
F9 V1 2.089104 1_555
F10 V5 1.804441 1_555
F10 V2 2.433521 1_565
F11 Mg0 1.952754 1_555
F11 V3 1.956417 1_554
F12 V4 1.743875 1_555
F13 V5 1.775644 1_555
F14 Mg0 1.927216 1_555
F14 V4 1.934625 1_565
F15 V5 1.769779 1_555
F16 V0 1.748774 1_655
F17 V0 2.010066 1_654
F17 V3 2.030852 1_554
F17 Mg0 2.228204 1_555
F18 V4 1.951524 1_565
F18 V1 2.004485 1_655
