# generated using pymatgen
data_Tl2P4Pd3O14
_symmetry_space_group_name_H-M   'P 1'
_cell_length_a   9.95281430
_cell_length_b   9.95281430
_cell_length_c   9.95281430
_cell_angle_alpha   119.64573379
_cell_angle_beta   120.04890368
_cell_angle_gamma   90.26500875
_symmetry_Int_Tables_number   1
_chemical_formula_structural   Tl2P4Pd3O14
_chemical_formula_sum   'Tl4 P8 Pd6 O28'
_cell_volume   698.73434621
_cell_formula_units_Z   2
loop_
 _symmetry_equiv_pos_site_id
 _symmetry_equiv_pos_as_xyz
  1  'x, y, z'
loop_
 _atom_site_type_symbol
 _atom_site_label
 _atom_site_symmetry_multiplicity
 _atom_site_fract_x
 _atom_site_fract_y
 _atom_site_fract_z
 _atom_site_occupancy
  Tl  Tl0  1  0.28611994  0.97296984  0.31314910  1
  Tl  Tl1  1  0.71388006  0.02703016  0.68685090  1
  Tl  Tl2  1  0.15982074  0.47296984  0.68685090  1
  Tl  Tl3  1  0.84017926  0.52703016  0.31314910  1
  P  P0  1  0.17484207  0.36846935  0.24491692  1
  P  P1  1  0.82515793  0.07007485  0.19362728  1
  P  P2  1  0.62355243  0.86846935  0.19362728  1
  P  P3  1  0.37644757  0.57007485  0.24491692  1
  P  P4  1  0.82515793  0.63153065  0.75508308  1
  P  P5  1  0.17484207  0.92992515  0.80637272  1
  P  P6  1  0.37644757  0.13153065  0.80637272  1
  P  P7  1  0.62355243  0.42992515  0.75508308  1
  Pd  Pd0  1  0.30666076  0.75000000  0.55666076  1
  Pd  Pd1  1  0.69333924  0.25000000  0.44333924  1
  Pd  Pd2  1  0.00000000  0.00000000  0.00000000  1
  Pd  Pd3  1  0.50000000  0.50000000  0.00000000  1
  Pd  Pd4  1  0.00000000  0.50000000  0.00000000  1
  Pd  Pd5  1  0.00000000  0.00000000  0.50000000  1
  O  O0  1  0.33217589  0.41832108  0.25049597  1
  O  O1  1  0.66782411  0.91832108  0.08614519  1
  O  O2  1  0.66782411  0.58167892  0.74950403  1
  O  O3  1  0.33217589  0.08167892  0.91385481  1
  O  O4  1  0.17259865  0.21501160  0.24217897  1
  O  O5  1  0.82740135  0.06958032  0.04241295  1
  O  O6  1  0.47283263  0.71501160  0.04241295  1
  O  O7  1  0.52716737  0.56958032  0.24217897  1
  O  O8  1  0.82740135  0.78498840  0.75782103  1
  O  O9  1  0.17259865  0.93041968  0.95758705  1
  O  O10  1  0.52716737  0.28498840  0.95758705  1
  O  O11  1  0.47283263  0.43041968  0.75782103  1
  O  O12  1  0.20252758  0.50928674  0.42810955  1
  O  O13  1  0.79747242  0.22558197  0.30675916  1
  O  O14  1  0.58117719  0.00928674  0.30675916  1
  O  O15  1  0.41882281  0.72558197  0.42810955  1
  O  O16  1  0.79747242  0.49071326  0.57189045  1
  O  O17  1  0.20252758  0.77441803  0.69324084  1
  O  O18  1  0.41882281  0.99071326  0.69324084  1
  O  O19  1  0.58117719  0.27441803  0.57189045  1
  O  O20  1  0.02156057  0.33585291  0.06496169  1
  O  O21  1  0.97843943  0.04340112  0.31429134  1
  O  O22  1  0.77089122  0.83585291  0.31429134  1
  O  O23  1  0.22910878  0.54340112  0.06496169  1
  O  O24  1  0.97843943  0.66414709  0.93503831  1
  O  O25  1  0.02156057  0.95659888  0.68570866  1
  O  O26  1  0.22910878  0.16414709  0.68570866  1
  O  O27  1  0.77089122  0.45659888  0.93503831  1
loop_
_geom_bond_atom_site_label_1
_geom_bond_atom_site_label_2
_geom_bond_distance
_geom_bond_site_symmetry_2
O0 P3 1.606172 1_555
O0 P0 1.606185 1_555
O1 P2 1.606179 1_555
O1 P1 1.606179 1_565
O2 P7 1.606172 1_555
O2 P4 1.606185 1_555
O3 P6 1.606179 1_555
O3 P5 1.606179 1_545
O4 P0 1.513902 1_555
O4 Pd2 2.014147 1_555
O5 P1 1.513902 1_555
O5 Pd2 2.014147 1_655
O6 P2 1.513902 1_555
O6 Pd3 2.014147 1_555
O7 P3 1.513902 1_555
O7 Pd3 2.014147 1_555
O8 P4 1.513902 1_555
O8 Pd2 2.014147 1_666
O9 P5 1.513902 1_555
O9 Pd2 2.014147 1_566
O10 P6 1.513902 1_555
O10 Pd3 2.014147 1_556
O11 P7 1.513902 1_555
O11 Pd3 2.014147 1_556
O12 P0 1.526396 1_555
O12 Pd0 2.016812 1_555
O13 P1 1.526396 1_555
O13 Pd1 2.016812 1_555
O14 P2 1.526396 1_545
O14 Pd1 2.016812 1_555
O15 P3 1.526396 1_555
O15 Pd0 2.016812 1_555
O16 P4 1.526396 1_555
O16 Pd1 2.016812 1_555
O17 P5 1.526396 1_555
O17 Pd0 2.016812 1_555
O18 P6 1.526396 1_565
O18 Pd0 2.016812 1_555
O19 P7 1.526396 1_555
O19 Pd1 2.016812 1_555
O20 P0 1.524620 1_555
O20 Pd4 2.010569 1_555
O21 P1 1.524616 1_555
O21 Pd5 2.010579 1_655
O22 P2 1.524616 1_555
O22 Pd5 2.010568 1_665
O23 P3 1.524620 1_555
O23 Pd4 2.010569 1_555
O24 P4 1.524620 1_555
O24 Pd4 2.010569 1_656
O25 P5 1.524616 1_555
O25 Pd5 2.010579 1_565
O26 P6 1.524616 1_555
O26 Pd5 2.010568 1_555
O27 P7 1.524620 1_555
O27 Pd4 2.010569 1_656
