# generated using pymatgen
data_Tb(Fe2Si)2
_symmetry_space_group_name_H-M   'P 1'
_cell_length_a   7.09967100
_cell_length_b   7.09967100
_cell_length_c   3.77351400
_cell_angle_alpha   90.00000000
_cell_angle_beta   90.00000000
_cell_angle_gamma   90.00000000
_symmetry_Int_Tables_number   1
_chemical_formula_structural   Tb(Fe2Si)2
_chemical_formula_sum   'Tb2 Fe8 Si4'
_cell_volume   190.20521205
_cell_formula_units_Z   2
loop_
 _symmetry_equiv_pos_site_id
 _symmetry_equiv_pos_as_xyz
  1  'x, y, z'
loop_
 _atom_site_type_symbol
 _atom_site_label
 _atom_site_symmetry_multiplicity
 _atom_site_fract_x
 _atom_site_fract_y
 _atom_site_fract_z
 _atom_site_occupancy
  Tb  Tb0  1  0.00000000  0.00000000  0.00000000  1
  Tb  Tb1  1  0.50000000  0.50000000  0.50000000  1
  Fe  Fe0  1  0.58825300  0.15087100  0.00000000  1
  Fe  Fe1  1  0.41174700  0.84912900  0.00000000  1
  Fe  Fe2  1  0.65087100  0.91174700  0.50000000  1
  Fe  Fe3  1  0.08825300  0.34912900  0.50000000  1
  Fe  Fe4  1  0.34912900  0.08825300  0.50000000  1
  Fe  Fe5  1  0.91174700  0.65087100  0.50000000  1
  Fe  Fe6  1  0.15087100  0.58825300  0.00000000  1
  Fe  Fe7  1  0.84912900  0.41174700  0.00000000  1
  Si  Si0  1  0.28202500  0.28202500  0.00000000  1
  Si  Si1  1  0.71797500  0.71797500  0.00000000  1
  Si  Si2  1  0.78202500  0.21797500  0.50000000  1
  Si  Si3  1  0.21797500  0.78202500  0.50000000  1
loop_
_geom_bond_atom_site_label_1
_geom_bond_atom_site_label_2
_geom_bond_distance
_geom_bond_site_symmetry_2
Fe0 Si0 2.365128 1_555
Fe0 Si2 2.383154 1_555
Fe0 Si2 2.383154 1_554
Fe0 Fe1 2.481867 1_545
Fe0 Fe4 2.576758 1_554
Fe0 Fe2 2.576758 1_545
Fe0 Fe2 2.576758 1_544
Fe0 Fe4 2.576758 1_555
Fe0 Fe7 2.619313 1_555
Fe0 Tb0 3.113330 1_655
Fe0 Tb1 3.177483 1_554
Fe0 Tb1 3.177483 1_555
Fe1 Si1 2.365128 1_555
Fe1 Si3 2.383154 1_554
Fe1 Si3 2.383154 1_555
Fe1 Fe4 2.576758 1_565
Fe1 Fe4 2.576758 1_564
Fe1 Fe2 2.576758 1_554
Fe1 Fe2 2.576758 1_555
Fe1 Fe6 2.619313 1_555
Fe1 Tb0 3.113330 1_565
Fe1 Tb1 3.177483 1_554
Fe1 Tb1 3.177483 1_555
Fe2 Si2 2.365128 1_565
Fe2 Si1 2.383154 1_555
Fe2 Si1 2.383154 1_556
Fe2 Fe4 2.481867 1_565
Fe2 Fe5 2.619313 1_555
Fe2 Tb1 3.113330 1_555
Fe2 Tb0 3.177483 1_665
Fe2 Tb0 3.177483 1_666
Fe3 Si2 2.365128 1_455
Fe3 Si0 2.383154 1_556
Fe3 Si0 2.383154 1_555
Fe3 Fe5 2.481867 1_455
Fe3 Fe6 2.576758 1_556
Fe3 Fe7 2.576758 1_456
Fe3 Fe6 2.576758 1_555
Fe3 Fe7 2.576758 1_455
Fe3 Fe4 2.619313 1_555
Fe3 Tb1 3.113330 1_555
Fe3 Tb0 3.177483 1_555
Fe3 Tb0 3.177483 1_556
Fe4 Si3 2.365128 1_545
Fe4 Si0 2.383154 1_556
Fe4 Si0 2.383154 1_555
Fe4 Tb1 3.113330 1_555
Fe4 Tb0 3.177483 1_555
Fe4 Tb0 3.177483 1_556
Fe5 Si3 2.365128 1_655
Fe5 Si1 2.383154 1_555
Fe5 Si1 2.383154 1_556
Fe5 Fe6 2.576758 1_656
Fe5 Fe7 2.576758 1_555
Fe5 Fe7 2.576758 1_556
Fe5 Fe6 2.576758 1_655
Fe5 Tb1 3.113330 1_555
Fe5 Tb0 3.177483 1_665
Fe5 Tb0 3.177483 1_666
Fe6 Si0 2.365128 1_555
Fe6 Si3 2.383154 1_554
Fe6 Si3 2.383154 1_555
Fe6 Fe7 2.481867 1_455
Fe6 Tb0 3.113330 1_565
Fe6 Tb1 3.177483 1_554
Fe6 Tb1 3.177483 1_555
Fe7 Si1 2.365128 1_555
Fe7 Si2 2.383154 1_555
Fe7 Si2 2.383154 1_554
Fe7 Tb0 3.113330 1_655
Fe7 Tb1 3.177483 1_554
Fe7 Tb1 3.177483 1_555
Si0 Tb0 2.831658 1_555
Si0 Tb1 2.889581 1_554
Si0 Tb1 2.889581 1_555
Si1 Tb0 2.831658 1_665
Si1 Tb1 2.889581 1_554
Si1 Tb1 2.889581 1_555
Si2 Tb1 2.831658 1_555
Si2 Tb0 2.889581 1_656
Si2 Tb0 2.889581 1_655
Si3 Tb1 2.831658 1_555
Si3 Tb0 2.889581 1_565
Si3 Tb0 2.889581 1_566
