# generated using pymatgen
data_Na3Ca3Zr2Si4(O5F)3
_symmetry_space_group_name_H-M   'P 1'
_cell_length_a   8.98983985
_cell_length_b   10.14866355
_cell_length_c   10.06890698
_cell_angle_alpha   78.78498779
_cell_angle_beta   86.25782305
_cell_angle_gamma   96.87727952
_symmetry_Int_Tables_number   1
_chemical_formula_structural   Na3Ca3Zr2Si4(O5F)3
_chemical_formula_sum   'Na6 Ca6 Zr4 Si8 O30 F6'
_cell_volume   890.90336797
_cell_formula_units_Z   2
loop_
 _symmetry_equiv_pos_site_id
 _symmetry_equiv_pos_as_xyz
  1  'x, y, z'
loop_
 _atom_site_type_symbol
 _atom_site_label
 _atom_site_symmetry_multiplicity
 _atom_site_fract_x
 _atom_site_fract_y
 _atom_site_fract_z
 _atom_site_occupancy
  Na  Na0  1  0.16405200  0.53404600  0.20074800  1
  Na  Na1  1  0.17717700  0.21325400  0.35566200  1
  Na  Na2  1  0.42459900  0.84519100  0.39055100  1
  Na  Na3  1  0.57540100  0.15480900  0.60944900  1
  Na  Na4  1  0.82282300  0.78674600  0.64433800  1
  Na  Na5  1  0.83594800  0.46595400  0.79925200  1
  Ca  Ca0  1  0.16661800  0.51579600  0.56979600  1
  Ca  Ca1  1  0.14920900  0.06305200  0.03939400  1
  Ca  Ca2  1  0.39698000  0.35838700  0.97764700  1
  Ca  Ca3  1  0.60302000  0.64161300  0.02235300  1
  Ca  Ca4  1  0.85079100  0.93694800  0.96060600  1
  Ca  Ca5  1  0.83338200  0.48420400  0.43020400  1
  Zr  Zr0  1  0.38022900  0.85152800  0.06121900  1
  Zr  Zr1  1  0.45075000  0.48833100  0.32815600  1
  Zr  Zr2  1  0.54925000  0.51166900  0.67184400  1
  Zr  Zr3  1  0.61977100  0.14847200  0.93878100  1
  Si  Si0  1  0.75196400  0.37947800  0.13487500  1
  Si  Si1  1  0.83233600  0.94520400  0.34822400  1
  Si  Si2  1  0.08724600  0.78621400  0.84981800  1
  Si  Si3  1  0.94974300  0.18648100  0.70547600  1
  Si  Si4  1  0.05025700  0.81351900  0.29452400  1
  Si  Si5  1  0.91275400  0.21378600  0.15018200  1
  Si  Si6  1  0.16766400  0.05479600  0.65177600  1
  Si  Si7  1  0.24803600  0.62052200  0.86512500  1
  O  O0  1  0.15336600  0.85472200  0.97520800  1
  O  O1  1  0.03358400  0.13334600  0.57235900  1
  O  O2  1  0.14101000  0.89012100  0.70153300  1
  O  O3  1  0.29092700  0.51330000  0.77140300  1
  O  O4  1  0.09617500  0.23712000  0.13580400  1
  O  O5  1  0.03287400  0.64915200  0.33762200  1
  O  O6  1  0.93242000  0.89669100  0.19325000  1
  O  O7  1  0.23828700  0.42709100  0.40081500  1
  O  O8  1  0.37967400  0.70766600  0.93069700  1
  O  O9  1  0.41579400  0.46139000  0.14472300  1
  O  O10  1  0.22108100  0.88601100  0.23486400  1
  O  O11  1  0.55728300  0.29115500  0.79595300  1
  O  O12  1  0.48848100  0.70650100  0.58063600  1
  O  O13  1  0.41389400  0.60605400  0.50500700  1
  O  O14  1  0.39916700  0.07981100  0.01833100  1
  O  O15  1  0.60083300  0.92018900  0.98166900  1
  O  O16  1  0.58610600  0.39394600  0.49499300  1
  O  O17  1  0.51151900  0.29349900  0.41936400  1
  O  O18  1  0.44271700  0.70884500  0.20404700  1
  O  O19  1  0.77891900  0.11398900  0.76513600  1
  O  O20  1  0.58420600  0.53861000  0.85527700  1
  O  O21  1  0.62032600  0.29233400  0.06930300  1
  O  O22  1  0.76171300  0.57290900  0.59918500  1
  O  O23  1  0.06758000  0.10330900  0.80675000  1
  O  O24  1  0.96712600  0.35084800  0.66237800  1
  O  O25  1  0.90382500  0.76288000  0.86419600  1
  O  O26  1  0.70907300  0.48670000  0.22859700  1
  O  O27  1  0.85899000  0.10987900  0.29846700  1
  O  O28  1  0.96641600  0.86665400  0.42764100  1
  O  O29  1  0.84663400  0.14527800  0.02479200  1
  F  F0  1  0.15503800  0.50575000  0.99605800  1
  F  F1  1  0.26352600  0.04789800  0.49992100  1
  F  F2  1  0.32573000  0.12504000  0.69869800  1
  F  F3  1  0.67427000  0.87496000  0.30130200  1
  F  F4  1  0.73647400  0.95210200  0.50007900  1
  F  F5  1  0.84496200  0.49425000  0.00394200  1
loop_
_geom_bond_atom_site_label_1
_geom_bond_atom_site_label_2
_geom_bond_distance
_geom_bond_site_symmetry_2
Na0 O7 2.275967 1_555
Na0 O5 2.323503 1_555
Na0 O9 2.525555 1_555
Na0 O18 2.897133 1_555
Na1 O7 2.312784 1_555
Na1 O4 2.352367 1_555
Na1 O1 2.403763 1_555
Na2 O12 2.294185 1_555
Na2 O13 2.463531 1_555
Na2 O10 2.505930 1_555
Na2 O18 2.548045 1_555
Na3 O17 2.294185 1_555
Na3 O16 2.463531 1_555
Na3 O19 2.505930 1_555
Na3 O11 2.548045 1_555
Na4 O22 2.312784 1_555
Na4 O25 2.352367 1_555
Na4 O28 2.403763 1_555
Na5 O22 2.275967 1_555
Na5 O24 2.323503 1_555
Na5 O20 2.525555 1_555
Na5 O11 2.897133 1_555
Ca0 O7 2.170739 1_555
Ca0 O13 2.301486 1_555
Ca0 O24 2.311570 1_455
Ca0 O3 2.377631 1_555
Ca0 O5 2.875447 1_555
Ca1 O14 2.226099 1_555
Ca1 O4 2.258035 1_555
Ca1 O0 2.331631 1_544
Ca1 O23 2.473159 1_554
Ca1 O10 2.566683 1_545
Ca1 O6 2.617080 1_445
Ca2 O9 2.151798 1_556
Ca2 O21 2.378252 1_556
Ca2 O20 2.410775 1_555
Ca2 O11 2.503225 1_555
Ca2 O3 2.653410 1_555
Ca2 O14 2.779384 1_556
Ca2 F0 2.799272 1_555
Ca2 O4 3.040020 1_556
Ca3 O20 2.151798 1_554
Ca3 O8 2.378252 1_554
Ca3 O9 2.410775 1_555
Ca3 O18 2.503225 1_555
Ca3 O26 2.653410 1_555
Ca3 O15 2.779384 1_554
Ca3 F5 2.799272 1_555
Ca3 O25 3.040020 1_554
Ca4 O15 2.226099 1_555
Ca4 O25 2.258035 1_555
Ca4 O29 2.331631 1_566
Ca4 O6 2.473159 1_556
Ca4 O19 2.566683 1_565
Ca4 O23 2.617080 1_665
Ca5 O22 2.170739 1_555
Ca5 O16 2.301486 1_555
Ca5 O5 2.311570 1_655
Ca5 O26 2.377631 1_555
Ca5 O24 2.875447 1_555
O0 Si2 1.664680 1_555
O0 Zr0 2.268467 1_556
O1 Si6 1.683978 1_555
O1 Si3 1.703530 1_455
O2 Si6 1.632227 1_565
O2 Si2 1.657156 1_555
O3 Si7 1.635762 1_555
O3 Zr2 2.471833 1_555
O4 Si5 1.630332 1_455
O5 Si4 1.625563 1_555
O6 Si4 1.701422 1_655
O6 Si1 1.925747 1_555
O7 Zr1 1.981433 1_555
O8 Si7 1.642252 1_555
O8 Zr0 2.145759 1_556
O9 Zr1 1.958679 1_555
O10 Si4 1.642414 1_555
O10 Zr0 2.292980 1_555
O11 Zr3 1.992690 1_555
O11 Zr2 2.353247 1_555
O12 O13 1.507840 1_555
O12 Zr2 2.160865 1_555
O13 Zr2 2.267203 1_555
O13 Zr1 2.356559 1_555
O14 Zr3 2.074795 1_554
O14 Zr0 2.256027 1_545
O15 Zr0 2.074795 1_556
O15 Zr3 2.256027 1_565
O16 O17 1.507840 1_555
O16 Zr1 2.267203 1_555
O16 Zr2 2.356559 1_555
O17 Zr1 2.160865 1_555
O18 Zr0 1.992690 1_555
O18 Zr1 2.353247 1_555
O19 Si3 1.642414 1_555
O19 Zr3 2.292980 1_555
O20 Zr2 1.958679 1_555
O21 Si0 1.642252 1_555
O21 Zr3 2.145759 1_554
O22 Zr2 1.981433 1_555
O23 Si3 1.701422 1_455
O23 Si6 1.925747 1_555
O24 Si3 1.625563 1_555
O25 Si2 1.630332 1_655
O26 Si0 1.635762 1_555
O26 Zr1 2.471833 1_555
O27 Si1 1.632227 1_545
O27 Si5 1.657156 1_555
O28 Si1 1.683978 1_555
O28 Si4 1.703530 1_655
O29 Si5 1.664680 1_555
O29 Zr3 2.268467 1_554
F0 Si7 1.679084 1_555
F0 Na0 2.140845 1_556
F1 Si6 1.723235 1_555
F1 Na1 2.244902 1_555
F2 Si6 1.651262 1_555
F2 Na3 2.324937 1_555
F3 Si1 1.651262 1_555
F3 Na2 2.324937 1_555
F4 Si1 1.723235 1_555
F4 Na4 2.244902 1_555
F5 Si0 1.679084 1_555
F5 Na5 2.140845 1_554
