# generated using pymatgen
data_Dy2MgTiO6
_symmetry_space_group_name_H-M   'P 1'
_cell_length_a   5.63432700
_cell_length_b   5.33143400
_cell_length_c   9.34122801
_cell_angle_alpha   55.65303451
_cell_angle_beta   90.00000000
_cell_angle_gamma   90.00000000
_symmetry_Int_Tables_number   1
_chemical_formula_structural   Dy2MgTiO6
_chemical_formula_sum   'Dy4 Mg2 Ti2 O12'
_cell_volume   231.67476379
_cell_formula_units_Z   2
loop_
 _symmetry_equiv_pos_site_id
 _symmetry_equiv_pos_as_xyz
  1  'x, y, z'
loop_
 _atom_site_type_symbol
 _atom_site_label
 _atom_site_symmetry_multiplicity
 _atom_site_fract_x
 _atom_site_fract_y
 _atom_site_fract_z
 _atom_site_occupancy
  Dy  Dy0  1  0.06598900  0.72757000  0.75335100  1
  Dy  Dy1  1  0.93401100  0.27243000  0.24664900  1
  Dy  Dy2  1  0.56598900  0.27243000  0.74664900  1
  Dy  Dy3  1  0.43401100  0.72757000  0.25335100  1
  Mg  Mg0  1  0.50000000  0.50000000  0.00000000  1
  Mg  Mg1  1  0.00000000  0.50000000  0.50000000  1
  Ti  Ti0  1  0.50000000  0.00000000  0.50000000  1
  Ti  Ti1  1  0.00000000  0.00000000  0.00000000  1
  O  O0  1  0.45597800  0.87257800  0.74269500  1
  O  O1  1  0.54402200  0.12742200  0.25730500  1
  O  O2  1  0.95597800  0.12742200  0.75730500  1
  O  O3  1  0.04402200  0.87257800  0.24269500  1
  O  O4  1  0.79442500  0.74872600  0.56441900  1
  O  O5  1  0.20557500  0.25127400  0.43558100  1
  O  O6  1  0.29442500  0.25127400  0.93558100  1
  O  O7  1  0.70557500  0.74872600  0.06441900  1
  O  O8  1  0.31094700  0.64626000  0.55476700  1
  O  O9  1  0.68905300  0.35374000  0.44523300  1
  O  O10  1  0.81094700  0.35374000  0.94523300  1
  O  O11  1  0.18905300  0.64626000  0.05476700  1
loop_
_geom_bond_atom_site_label_1
_geom_bond_atom_site_label_2
_geom_bond_distance
_geom_bond_site_symmetry_2
Dy0 O2 2.240294 1_465
Dy0 O10 2.284481 1_455
Dy0 O4 2.289971 1_455
Dy0 O0 2.312790 1_555
Dy0 O6 2.474844 1_555
Dy0 O8 2.537972 1_555
Dy0 O11 2.686819 1_556
Dy0 O5 2.805946 1_565
Dy1 O3 2.240294 1_645
Dy1 O11 2.284481 1_655
Dy1 O5 2.289971 1_655
Dy1 O1 2.312790 1_555
Dy1 O7 2.474844 1_555
Dy1 O9 2.537972 1_555
Dy1 O10 2.686819 1_554
Dy1 O4 2.805946 1_545
Dy2 O0 2.240294 1_545
Dy2 O8 2.284481 1_555
Dy2 O6 2.289971 1_555
Dy2 O2 2.312790 1_555
Dy2 O4 2.474844 1_555
Dy2 O10 2.537972 1_555
Dy2 O9 2.686819 1_555
Dy2 O7 2.805946 1_546
Dy3 O1 2.240294 1_565
Dy3 O9 2.284481 1_555
Dy3 O7 2.289971 1_555
Dy3 O3 2.312790 1_555
Dy3 O5 2.474844 1_555
Dy3 O11 2.537972 1_555
Dy3 O8 2.686819 1_555
Dy3 O6 2.805946 1_564
Mg0 O7 2.088681 1_555
Mg0 O6 2.088681 1_554
Mg0 O11 2.095077 1_555
Mg0 O10 2.095077 1_554
Mg0 O1 2.096864 1_555
Mg0 O0 2.096864 1_554
Mg1 O5 2.088681 1_555
Mg1 O4 2.088681 1_455
Mg1 O8 2.095077 1_555
Mg1 O9 2.095077 1_455
Mg1 O2 2.096864 1_455
Mg1 O3 2.096864 1_555
O0 Ti0 1.981099 1_565
O1 Ti0 1.981099 1_555
O2 Ti1 1.981099 1_656
O3 Ti1 1.981099 1_565
O4 Ti0 1.999756 1_565
O5 Ti0 1.999756 1_555
O6 Ti1 1.999756 1_556
O7 Ti1 1.999756 1_665
O8 Ti0 1.965808 1_565
O9 Ti0 1.965808 1_555
O10 Ti1 1.965808 1_656
O11 Ti1 1.965808 1_565
