# generated using pymatgen
data_FeBi2Se2Cl3O7
_symmetry_space_group_name_H-M   'P 1'
_cell_length_a   7.24219600
_cell_length_b   8.71503100
_cell_length_c   8.75732847
_cell_angle_alpha   73.32934563
_cell_angle_beta   90.00000000
_cell_angle_gamma   90.00000000
_symmetry_Int_Tables_number   1
_chemical_formula_structural   FeBi2Se2Cl3O7
_chemical_formula_sum   'Fe2 Bi4 Se4 Cl6 O14'
_cell_volume   529.49584211
_cell_formula_units_Z   2
loop_
 _symmetry_equiv_pos_site_id
 _symmetry_equiv_pos_as_xyz
  1  'x, y, z'
loop_
 _atom_site_type_symbol
 _atom_site_label
 _atom_site_symmetry_multiplicity
 _atom_site_fract_x
 _atom_site_fract_y
 _atom_site_fract_z
 _atom_site_occupancy
  Fe  Fe0  1  0.00000000  0.50000000  0.50000000  1
  Fe  Fe1  1  0.50000000  0.50000000  0.50000000  1
  Bi  Bi0  1  0.25000000  0.20192400  0.75541600  1
  Bi  Bi1  1  0.75000000  0.79807600  0.24458400  1
  Bi  Bi2  1  0.25000000  0.27687800  0.26847900  1
  Bi  Bi3  1  0.75000000  0.72312200  0.73152100  1
  Se  Se0  1  0.25000000  0.73549900  0.17804500  1
  Se  Se1  1  0.75000000  0.26450100  0.82195500  1
  Se  Se2  1  0.25000000  0.60700000  0.78608100  1
  Se  Se3  1  0.75000000  0.39300000  0.21391900  1
  Cl  Cl0  1  0.25000000  0.02790600  0.52365400  1
  Cl  Cl1  1  0.75000000  0.97209400  0.47634600  1
  Cl  Cl2  1  0.01535500  0.11806700  0.11986200  1
  Cl  Cl3  1  0.51535500  0.88193300  0.88013800  1
  Cl  Cl4  1  0.98464500  0.88193300  0.88013800  1
  Cl  Cl5  1  0.48464500  0.11806700  0.11986200  1
  O  O0  1  0.93841600  0.29698800  0.68478200  1
  O  O1  1  0.43841600  0.70301200  0.31521800  1
  O  O2  1  0.06158400  0.70301200  0.31521800  1
  O  O3  1  0.56158400  0.29698800  0.68478200  1
  O  O4  1  0.93940500  0.37039200  0.34484800  1
  O  O5  1  0.43940500  0.62960800  0.65515200  1
  O  O6  1  0.06059500  0.62960800  0.65515200  1
  O  O7  1  0.56059500  0.37039200  0.34484800  1
  O  O8  1  0.25000000  0.39595800  0.52076500  1
  O  O9  1  0.75000000  0.60404200  0.47923500  1
  O  O10  1  0.25000000  0.40341800  0.87507800  1
  O  O11  1  0.75000000  0.59658200  0.12492200  1
  O  O12  1  0.25000000  0.56350500  0.12617400  1
  O  O13  1  0.75000000  0.43649500  0.87382600  1
loop_
_geom_bond_atom_site_label_1
_geom_bond_atom_site_label_2
_geom_bond_distance
_geom_bond_site_symmetry_2
Fe0 O9 2.009655 1_455
Fe0 O8 2.009655 1_555
Fe0 O6 2.048189 1_555
Fe0 O4 2.048189 1_455
Fe0 O2 2.074880 1_555
Fe0 O0 2.074880 1_455
Fe1 O9 2.009655 1_555
Fe1 O8 2.009655 1_555
Fe1 O5 2.048189 1_555
Fe1 O7 2.048189 1_555
Fe1 O1 2.074880 1_555
Fe1 O3 2.074880 1_555
Bi0 O8 2.255775 1_555
Bi0 O10 2.288568 1_555
Bi0 O3 2.422192 1_555
Bi0 O0 2.422192 1_455
Bi0 Cl0 2.861003 1_555
Bi1 O9 2.255775 1_555
Bi1 O11 2.288568 1_555
Bi1 O1 2.422192 1_555
Bi1 O2 2.422192 1_655
Bi1 Cl1 2.861003 1_555
Bi2 O12 2.450881 1_555
Bi2 O7 2.546357 1_555
Bi2 O4 2.546357 1_455
Bi2 Cl0 2.630547 1_555
Bi2 O8 2.696984 1_555
Bi2 Cl5 2.744213 1_555
Bi2 Cl2 2.744213 1_555
Bi3 O13 2.450881 1_555
Bi3 O6 2.546357 1_655
Bi3 O5 2.546357 1_555
Bi3 Cl1 2.630547 1_555
Bi3 O9 2.696984 1_555
Bi3 Cl3 2.744213 1_555
Bi3 Cl4 2.744213 1_555
O0 Se1 1.786073 1_555
O1 Se0 1.786073 1_555
O2 Se0 1.786073 1_555
O3 Se1 1.786073 1_555
O4 Se3 1.762230 1_555
O5 Se2 1.762230 1_555
O6 Se2 1.762230 1_555
O7 Se3 1.762230 1_555
O10 Se2 1.721028 1_555
O11 Se3 1.721028 1_555
O12 Se0 1.686357 1_555
O13 Se1 1.686357 1_555
