# generated using pymatgen
data_Fe4OF6
_symmetry_space_group_name_H-M   'P 1'
_cell_length_a   5.17965105
_cell_length_b   7.21004114
_cell_length_c   7.10965171
_cell_angle_alpha   90.82515087
_cell_angle_beta   89.22683219
_cell_angle_gamma   90.04708940
_symmetry_Int_Tables_number   1
_chemical_formula_structural   Fe4OF6
_chemical_formula_sum   'Fe8 O2 F12'
_cell_volume   265.46172008
_cell_formula_units_Z   2
loop_
 _symmetry_equiv_pos_site_id
 _symmetry_equiv_pos_as_xyz
  1  'x, y, z'
loop_
 _atom_site_type_symbol
 _atom_site_label
 _atom_site_symmetry_multiplicity
 _atom_site_fract_x
 _atom_site_fract_y
 _atom_site_fract_z
 _atom_site_occupancy
  Fe  Fe0  1  0.55480700  0.49056200  0.25221900  1
  Fe  Fe1  1  0.44385900  0.50981800  0.74735500  1
  Fe  Fe2  1  0.95814700  0.73845700  0.01439500  1
  Fe  Fe3  1  0.46782300  0.02288300  0.74517700  1
  Fe  Fe4  1  0.53122900  0.97601100  0.24933400  1
  Fe  Fe5  1  0.05528400  0.26567100  0.49692100  1
  Fe  Fe6  1  0.03789400  0.25615300  0.98536300  1
  Fe  Fe7  1  0.94411400  0.74816500  0.50535600  1
  O  O0  1  0.24621100  0.25138800  0.74602100  1
  O  O1  1  0.74877300  0.74732800  0.25028200  1
  F  F0  1  0.87314500  0.30439900  0.24234400  1
  F  F1  1  0.36351100  0.22807400  0.27601200  1
  F  F2  1  0.13218100  0.69838700  0.76078900  1
  F  F3  1  0.64252600  0.77107900  0.72911300  1
  F  F4  1  0.74094800  0.05016100  0.97282600  1
  F  F5  1  0.76140100  0.05436800  0.52123400  1
  F  F6  1  0.74488500  0.46630900  0.54706700  1
  F  F7  1  0.74427000  0.46960700  0.94150100  1
  F  F8  1  0.25238500  0.52456300  0.05759900  1
  F  F9  1  0.24950200  0.53901400  0.45153000  1
  F  F10  1  0.24589200  0.95576000  0.02727100  1
  F  F11  1  0.26121300  0.93184200  0.48029400  1
loop_
_geom_bond_atom_site_label_1
_geom_bond_atom_site_label_2
_geom_bond_distance
_geom_bond_site_symmetry_2
Fe0 O1 2.105743 1_555
Fe1 O0 2.125234 1_555
Fe2 O1 1.985124 1_555
Fe3 O0 2.008642 1_555
Fe4 O1 1.997973 1_555
Fe5 O0 2.043961 1_555
Fe6 O0 2.002458 1_555
Fe7 O1 2.088469 1_555
F0 Fe6 2.031600 1_654
F0 Fe5 2.074852 1_655
F0 Fe0 2.126770 1_555
F1 Fe4 2.020336 1_545
F1 Fe0 2.143303 1_555
F1 Fe5 2.238267 1_555
F2 Fe2 2.022030 1_456
F2 Fe7 2.107798 1_455
F2 Fe1 2.111764 1_555
F3 Fe3 2.030254 1_565
F3 Fe1 2.150418 1_555
F3 Fe7 2.219022 1_555
F3 Fe2 2.635450 1_556
F4 Fe6 2.139067 1_655
F4 Fe3 2.170659 1_555
F4 Fe4 2.302642 1_546
F4 Fe2 2.536940 1_546
F5 Fe5 2.159801 1_655
F5 Fe3 2.200754 1_555
F5 Fe4 2.346723 1_545
F5 Fe7 2.403304 1_545
F6 Fe1 2.117847 1_555
F6 Fe5 2.185902 1_655
F6 Fe7 2.299630 1_555
F6 Fe0 2.336828 1_555
F7 Fe1 2.116780 1_555
F7 Fe6 2.193016 1_655
F7 Fe2 2.288301 1_556
F7 Fe0 2.407927 1_556
F8 Fe0 2.120684 1_555
F8 Fe2 2.196714 1_455
F8 Fe6 2.286148 1_554
F8 Fe1 2.407181 1_554
F9 Fe0 2.134698 1_555
F9 Fe7 2.212134 1_455
F9 Fe5 2.237532 1_555
F9 Fe1 2.356163 1_555
F10 Fe2 2.163374 1_455
F10 Fe4 2.180413 1_555
F10 Fe3 2.354323 1_564
F10 Fe6 2.443654 1_564
F11 Fe7 2.116264 1_455
F11 Fe4 2.169362 1_555
F11 Fe3 2.267224 1_565
