# generated using pymatgen
data_MgWO6
_symmetry_space_group_name_H-M   'P 1'
_cell_length_a   10.46152900
_cell_length_b   5.74909900
_cell_length_c   8.61119327
_cell_angle_alpha   87.38571621
_cell_angle_beta   90.00000000
_cell_angle_gamma   90.00000000
_symmetry_Int_Tables_number   1
_chemical_formula_structural   MgWO6
_chemical_formula_sum   'Mg4 W4 O24'
_cell_volume   517.37572893
_cell_formula_units_Z   4
loop_
 _symmetry_equiv_pos_site_id
 _symmetry_equiv_pos_as_xyz
  1  'x, y, z'
loop_
 _atom_site_type_symbol
 _atom_site_label
 _atom_site_symmetry_multiplicity
 _atom_site_fract_x
 _atom_site_fract_y
 _atom_site_fract_z
 _atom_site_occupancy
  Mg  Mg0  1  0.50011600  0.46625300  0.18230300  1
  Mg  Mg1  1  0.00011600  0.53374700  0.31769700  1
  Mg  Mg2  1  0.49988400  0.53374700  0.81769700  1
  Mg  Mg3  1  0.99988400  0.46625300  0.68230300  1
  W  W0  1  0.21401700  0.69690800  0.99141800  1
  W  W1  1  0.71401700  0.30309200  0.50858200  1
  W  W2  1  0.78598300  0.30309200  0.00858200  1
  W  W3  1  0.28598300  0.69690800  0.49141800  1
  O  O0  1  0.35766900  0.65609400  0.68309300  1
  O  O1  1  0.85766900  0.34390600  0.81690700  1
  O  O2  1  0.64233100  0.34390600  0.31690700  1
  O  O3  1  0.14233100  0.65609400  0.18309300  1
  O  O4  1  0.38942600  0.56295700  0.35238800  1
  O  O5  1  0.88942600  0.43704300  0.14761200  1
  O  O6  1  0.61057400  0.43704300  0.64761200  1
  O  O7  1  0.11057400  0.56295700  0.85238800  1
  O  O8  1  0.72095000  0.00030600  0.55191200  1
  O  O9  1  0.22095000  0.99969400  0.94808800  1
  O  O10  1  0.27905000  0.99969400  0.44808800  1
  O  O11  1  0.77905000  0.00030600  0.05191200  1
  O  O12  1  0.38067400  0.57345000  0.00522300  1
  O  O13  1  0.88067400  0.42655000  0.49477700  1
  O  O14  1  0.61932600  0.42655000  0.99477700  1
  O  O15  1  0.11932600  0.57345000  0.50522300  1
  O  O16  1  0.95298500  0.94550700  0.31573100  1
  O  O17  1  0.45298500  0.05449300  0.18426900  1
  O  O18  1  0.04701500  0.05449300  0.68426900  1
  O  O19  1  0.54701500  0.94550700  0.81573100  1
  O  O20  1  0.53772600  0.90496800  0.19602600  1
  O  O21  1  0.03772600  0.09503200  0.30397400  1
  O  O22  1  0.46227400  0.09503200  0.80397400  1
  O  O23  1  0.96227400  0.90496800  0.69602600  1
loop_
_geom_bond_atom_site_label_1
_geom_bond_atom_site_label_2
_geom_bond_distance
_geom_bond_site_symmetry_2
Mg0 O4 1.967095 1_555
Mg0 O2 1.994342 1_555
Mg0 O12 2.044670 1_555
Mg0 O14 2.061233 1_554
Mg0 O17 2.417356 1_555
Mg0 O20 2.560769 1_555
Mg1 O5 1.967095 1_455
Mg1 O3 1.994342 1_555
Mg1 O13 2.044670 1_455
Mg1 O15 2.061233 1_555
Mg1 O16 2.417356 1_455
Mg1 O21 2.560769 1_555
Mg2 O6 1.967095 1_555
Mg2 O0 1.994342 1_555
Mg2 O14 2.044670 1_555
Mg2 O12 2.061233 1_556
Mg2 O19 2.417356 1_555
Mg2 O22 2.560769 1_555
Mg3 O7 1.967095 1_655
Mg3 O1 1.994342 1_555
Mg3 O15 2.044670 1_655
Mg3 O13 2.061233 1_555
Mg3 O18 2.417356 1_655
Mg3 O23 2.560769 1_555
O0 W3 1.818368 1_555
O1 W2 1.818368 1_556
O2 W1 1.818368 1_555
O3 W0 1.818368 1_554
O4 W3 1.811512 1_555
O5 W2 1.811512 1_555
O6 W1 1.811512 1_555
O7 W0 1.811512 1_555
O8 W1 1.765058 1_555
O9 W0 1.765058 1_555
O10 W3 1.765058 1_555
O11 W2 1.765058 1_555
O12 W0 1.884133 1_554
O13 W1 1.884133 1_555
O14 W2 1.884133 1_556
O15 W3 1.884133 1_555
O16 O21 1.235799 1_665
O17 O20 1.235799 1_545
O18 O23 1.235799 1_445
O19 O22 1.235799 1_565
