# generated using pymatgen
data_Ca2HgBi
_symmetry_space_group_name_H-M   'P 1'
_cell_length_a   5.51391968
_cell_length_b   5.51391968
_cell_length_c   5.51391968
_cell_angle_alpha   60.00000000
_cell_angle_beta   60.00000000
_cell_angle_gamma   60.00000000
_symmetry_Int_Tables_number   1
_chemical_formula_structural   Ca2HgBi
_chemical_formula_sum   'Ca2 Hg1 Bi1'
_cell_volume   118.54037859
_cell_formula_units_Z   1
loop_
 _symmetry_equiv_pos_site_id
 _symmetry_equiv_pos_as_xyz
  1  'x, y, z'
loop_
 _atom_site_type_symbol
 _atom_site_label
 _atom_site_symmetry_multiplicity
 _atom_site_fract_x
 _atom_site_fract_y
 _atom_site_fract_z
 _atom_site_occupancy
  Ca  Ca0  1  0.75000000  0.75000000  0.75000000  1
  Ca  Ca1  1  0.25000000  0.25000000  0.25000000  1
  Hg  Hg0  1  0.00000000  0.00000000  0.00000000  1
  Bi  Bi0  1  0.50000000  0.50000000  0.50000000  1
loop_
_geom_bond_atom_site_label_1
_geom_bond_atom_site_label_2
_geom_bond_distance
_geom_bond_site_symmetry_2
Ca0 Hg0 3.376572 1_656
Ca0 Hg0 3.376572 1_665
Ca0 Hg0 3.376572 1_666
Ca0 Hg0 3.376572 1_566
Ca1 Hg0 3.376572 1_556
Ca1 Hg0 3.376572 1_555
Ca1 Hg0 3.376572 1_565
Ca1 Hg0 3.376572 1_655
Bi0 Ca0 3.376572 1_555
Bi0 Ca0 3.376572 1_545
Bi0 Ca1 3.376572 1_556
Bi0 Ca1 3.376572 1_555
Bi0 Ca1 3.376572 1_565
Bi0 Ca0 3.376572 1_554
Bi0 Ca1 3.376572 1_655
Bi0 Ca0 3.376572 1_455
