# generated using pymatgen
data_Pb3Cl4O2F
_symmetry_space_group_name_H-M   'P 1'
_cell_length_a   8.01548900
_cell_length_b   7.27783300
_cell_length_c   17.14278411
_cell_angle_alpha   73.84675903
_cell_angle_beta   90.00000000
_cell_angle_gamma   90.00000000
_symmetry_Int_Tables_number   1
_chemical_formula_structural   Pb3Cl4O2F
_chemical_formula_sum   'Pb12 Cl16 O8 F4'
_cell_volume   960.55082927
_cell_formula_units_Z   4
loop_
 _symmetry_equiv_pos_site_id
 _symmetry_equiv_pos_as_xyz
  1  'x, y, z'
loop_
 _atom_site_type_symbol
 _atom_site_label
 _atom_site_symmetry_multiplicity
 _atom_site_fract_x
 _atom_site_fract_y
 _atom_site_fract_z
 _atom_site_occupancy
  Pb  Pb0  1  0.37672500  0.65730500  0.68400500  1
  Pb  Pb1  1  0.87672500  0.34269500  0.81599500  1
  Pb  Pb2  1  0.62327500  0.34269500  0.31599500  1
  Pb  Pb3  1  0.12327500  0.65730500  0.18400500  1
  Pb  Pb4  1  0.37848100  0.73621200  0.94598100  1
  Pb  Pb5  1  0.87848100  0.26378800  0.55401900  1
  Pb  Pb6  1  0.62151900  0.26378800  0.05401900  1
  Pb  Pb7  1  0.12151900  0.73621200  0.44598100  1
  Pb  Pb8  1  0.85837700  0.74407200  0.95517800  1
  Pb  Pb9  1  0.35837700  0.25592800  0.54482200  1
  Pb  Pb10  1  0.14162300  0.25592800  0.04482200  1
  Pb  Pb11  1  0.64162300  0.74407200  0.45517800  1
  Cl  Cl0  1  0.13351000  0.90872800  0.59225700  1
  Cl  Cl1  1  0.63351000  0.09127200  0.90774300  1
  Cl  Cl2  1  0.86649000  0.09127200  0.40774300  1
  Cl  Cl3  1  0.36649000  0.90872800  0.09225700  1
  Cl  Cl4  1  0.13655300  0.32846900  0.68561200  1
  Cl  Cl5  1  0.63655300  0.67153100  0.81438800  1
  Cl  Cl6  1  0.86344700  0.67153100  0.31438800  1
  Cl  Cl7  1  0.36344700  0.32846900  0.18561200  1
  Cl  Cl8  1  0.62335300  0.90396500  0.59542600  1
  Cl  Cl9  1  0.12335300  0.09603500  0.90457400  1
  Cl  Cl10  1  0.37664700  0.09603500  0.40457400  1
  Cl  Cl11  1  0.87664700  0.90396500  0.09542600  1
  Cl  Cl12  1  0.62228300  0.34134100  0.67895900  1
  Cl  Cl13  1  0.12228300  0.65865900  0.82104100  1
  Cl  Cl14  1  0.37771700  0.65865900  0.32104100  1
  Cl  Cl15  1  0.87771700  0.34134100  0.17895900  1
  O  O0  1  0.39068500  0.40762200  0.98150600  1
  O  O1  1  0.89068500  0.59237800  0.51849400  1
  O  O2  1  0.60931500  0.59237800  0.01849400  1
  O  O3  1  0.10931500  0.40762200  0.48150600  1
  O  O4  1  0.87766900  0.14146100  0.71659800  1
  O  O5  1  0.37766900  0.85853900  0.78340200  1
  O  O6  1  0.12233100  0.85853900  0.28340200  1
  O  O7  1  0.62233100  0.14146100  0.21659800  1
  F  F0  1  0.88177300  0.38795400  0.96702000  1
  F  F1  1  0.38177300  0.61204600  0.53298000  1
  F  F2  1  0.11822700  0.61204600  0.03298000  1
  F  F3  1  0.61822700  0.38795400  0.46702000  1
loop_
_geom_bond_atom_site_label_1
_geom_bond_atom_site_label_2
_geom_bond_distance
_geom_bond_site_symmetry_2
Cl0 Pb0 2.832160 1_555
Cl0 Pb9 3.025177 1_565
Cl0 Pb7 3.102478 1_555
Cl0 Pb5 3.216097 1_465
Cl1 Pb1 2.832160 1_555
Cl1 Pb8 3.025177 1_545
Cl1 Pb6 3.102478 1_556
Cl1 Pb4 3.216097 1_545
Cl2 Pb2 2.832160 1_555
Cl2 Pb11 3.025177 1_545
Cl2 Pb5 3.102478 1_555
Cl2 Pb7 3.216097 1_645
Cl3 Pb3 2.832160 1_555
Cl3 Pb10 3.025177 1_565
Cl3 Pb4 3.102478 1_554
Cl3 Pb6 3.216097 1_565
Cl4 O4 2.457279 1_455
Cl4 Pb0 3.065541 1_555
Cl4 Pb1 3.077775 1_455
Cl4 Pb9 3.158200 1_555
Cl4 Pb5 3.190675 1_455
Cl5 O5 2.457279 1_555
Cl5 Pb1 3.065541 1_555
Cl5 Pb0 3.077775 1_555
Cl5 Pb8 3.158200 1_555
Cl5 Pb4 3.190675 1_555
Cl6 O6 2.457279 1_655
Cl6 Pb2 3.065541 1_555
Cl6 Pb3 3.077775 1_655
Cl6 Pb11 3.158200 1_555
Cl6 Pb7 3.190675 1_655
Cl7 O7 2.457279 1_555
Cl7 Pb3 3.065541 1_555
Cl7 Pb2 3.077775 1_555
Cl7 Pb10 3.158200 1_555
Cl7 Pb6 3.190675 1_555
Cl8 Pb0 2.814169 1_555
Cl8 Pb11 2.951723 1_555
Cl9 Pb1 2.814169 1_455
Cl9 Pb10 2.951723 1_556
Cl10 Pb2 2.814169 1_555
Cl10 Pb9 2.951723 1_555
Cl11 Pb3 2.814169 1_655
Cl11 Pb8 2.951723 1_554
Cl12 Pb0 3.046324 1_555
Cl12 Pb1 3.113051 1_555
Cl13 Pb1 3.046324 1_455
Cl13 Pb0 3.113051 1_555
Cl14 Pb2 3.046324 1_555
Cl14 Pb3 3.113051 1_555
Cl15 Pb3 3.046324 1_655
Cl15 Pb2 3.113051 1_555
O0 Pb4 2.299784 1_555
O0 Pb6 2.310932 1_556
O0 Pb10 2.390737 1_556
O1 Pb5 2.299784 1_555
O1 Pb7 2.310932 1_655
O1 Pb11 2.390737 1_555
O2 Pb6 2.299784 1_555
O2 Pb4 2.310932 1_554
O2 Pb8 2.390737 1_554
O3 Pb7 2.299784 1_555
O3 Pb5 2.310932 1_455
O3 Pb9 2.390737 1_555
O4 Pb1 2.537106 1_555
O4 Pb5 2.679499 1_555
O5 Pb0 2.537106 1_555
O5 Pb4 2.679499 1_555
O6 Pb3 2.537106 1_555
O6 Pb7 2.679499 1_555
O7 Pb2 2.537106 1_555
O7 Pb6 2.679499 1_555
F0 Pb10 2.515396 1_656
F0 Pb8 2.549683 1_555
F0 Pb6 2.577335 1_556
F0 Pb1 2.699536 1_555
F1 Pb11 2.515396 1_555
F1 Pb9 2.549683 1_555
F1 Pb7 2.577335 1_555
F1 Pb0 2.699536 1_555
F2 Pb8 2.515396 1_454
F2 Pb10 2.549683 1_555
F2 Pb4 2.577335 1_554
F2 Pb3 2.699536 1_555
F3 Pb9 2.515396 1_555
F3 Pb11 2.549683 1_555
F3 Pb5 2.577335 1_555
F3 Pb2 2.699536 1_555
