# generated using pymatgen
data_KCaMg14
_symmetry_space_group_name_H-M   'P 1'
_cell_length_a   6.71617712
_cell_length_b   6.71617652
_cell_length_c   10.54856865
_cell_angle_alpha   90.00000000
_cell_angle_beta   90.00000000
_cell_angle_gamma   120.00000295
_symmetry_Int_Tables_number   1
_chemical_formula_structural   KCaMg14
_chemical_formula_sum   'K1 Ca1 Mg14'
_cell_volume   412.06753092
_cell_formula_units_Z   1
loop_
 _symmetry_equiv_pos_site_id
 _symmetry_equiv_pos_as_xyz
  1  'x, y, z'
loop_
 _atom_site_type_symbol
 _atom_site_label
 _atom_site_symmetry_multiplicity
 _atom_site_fract_x
 _atom_site_fract_y
 _atom_site_fract_z
 _atom_site_occupancy
  K  K0  1  0.16666700  0.33333300  0.62500000  1
  Ca  Ca0  1  0.16666700  0.33333300  0.12500000  1
  Mg  Mg0  1  0.17200207  0.83600053  0.12500000  1
  Mg  Mg1  1  0.17049526  0.83524713  0.62500000  1
  Mg  Mg2  1  0.66399947  0.32799793  0.12500000  1
  Mg  Mg3  1  0.66475287  0.32950474  0.62500000  1
  Mg  Mg4  1  0.66399947  0.83600053  0.12500000  1
  Mg  Mg5  1  0.66475287  0.83524713  0.62500000  1
  Mg  Mg6  1  0.33984063  0.16015937  0.37131067  1
  Mg  Mg7  1  0.33984063  0.16015937  0.87868933  1
  Mg  Mg8  1  0.33984063  0.67968225  0.37131067  1
  Mg  Mg9  1  0.33984063  0.67968225  0.87868933  1
  Mg  Mg10  1  0.82031775  0.16015937  0.37131067  1
  Mg  Mg11  1  0.82031775  0.16015937  0.87868933  1
  Mg  Mg12  1  0.83333300  0.66666700  0.37506572  1
  Mg  Mg13  1  0.83333300  0.66666700  0.87493428  1
loop_
_geom_bond_atom_site_label_1
_geom_bond_atom_site_label_2
_geom_bond_distance
_geom_bond_site_symmetry_2
K0 Mg6 3.349545 1_555
K0 Mg7 3.349545 1_555
K0 Mg8 3.349552 1_555
K0 Mg9 3.349552 1_555
K0 Mg10 3.349552 1_455
K0 Mg11 3.349552 1_455
K0 Mg1 3.358162 1_555
K0 Mg5 3.358162 1_555
K0 Mg5 3.358162 1_445
K0 Mg1 3.358162 1_545
K0 Mg3 3.358162 1_455
K0 Mg3 3.358162 1_555
Ca0 Mg7 3.287694 1_554
Ca0 Mg6 3.287694 1_555
Ca0 Mg9 3.287701 1_554
Ca0 Mg8 3.287701 1_555
Ca0 Mg11 3.287701 1_454
Ca0 Mg10 3.287701 1_455
Ca0 Mg0 3.358232 1_555
Ca0 Mg4 3.358232 1_555
Ca0 Mg4 3.358232 1_445
Ca0 Mg0 3.358232 1_545
Ca0 Mg2 3.358232 1_455
Ca0 Mg2 3.358232 1_555
Mg0 Mg8 3.210463 1_555
Mg0 Mg9 3.210463 1_554
Mg0 Mg7 3.210470 1_564
Mg0 Mg6 3.210470 1_565
Mg0 Mg13 3.292172 1_454
Mg0 Mg12 3.292172 1_455
Mg0 Mg2 3.304341 1_565
Mg0 Mg4 3.304342 1_555
Mg0 Mg2 3.411835 1_455
Mg0 Mg4 3.411835 1_455
Mg1 Mg8 3.276398 1_555
Mg1 Mg9 3.276398 1_555
Mg1 Mg6 3.276405 1_565
Mg1 Mg7 3.276405 1_565
Mg1 Mg12 3.285823 1_455
Mg1 Mg13 3.285823 1_455
Mg1 Mg3 3.319521 1_565
Mg1 Mg5 3.319522 1_555
Mg1 Mg3 3.396655 1_455
Mg1 Mg5 3.396655 1_455
Mg2 Mg7 3.210470 1_554
Mg2 Mg6 3.210470 1_555
Mg2 Mg4 3.304341 1_545
Mg2 Mg4 3.411835 1_555
Mg3 Mg6 3.276405 1_555
Mg3 Mg7 3.276405 1_555
Mg3 Mg5 3.319521 1_545
Mg3 Mg5 3.396655 1_555
Mg4 Mg9 3.210470 1_554
Mg4 Mg8 3.210470 1_555
Mg5 Mg8 3.276405 1_555
Mg5 Mg9 3.276405 1_555
Mg6 Mg8 3.226969 1_545
Mg6 Mg8 3.489207 1_555
Mg7 Mg9 3.226969 1_545
Mg7 Mg9 3.489207 1_555
Mg10 Mg2 3.210463 1_555
Mg10 Mg4 3.210470 1_545
Mg10 Mg8 3.226969 1_545
Mg10 Mg6 3.226969 1_555
Mg10 Mg3 3.276398 1_555
Mg10 Mg5 3.276405 1_545
Mg10 Mg12 3.359175 1_545
Mg10 Mg12 3.359175 1_555
Mg10 Mg8 3.489207 1_655
Mg10 Mg6 3.489208 1_655
Mg11 Mg2 3.210463 1_556
Mg11 Mg4 3.210470 1_546
Mg11 Mg9 3.226969 1_545
Mg11 Mg7 3.226969 1_555
Mg11 Mg3 3.276398 1_555
Mg11 Mg5 3.276405 1_545
Mg11 Mg13 3.359175 1_545
Mg11 Mg13 3.359175 1_555
Mg11 Mg9 3.489207 1_655
Mg11 Mg7 3.489208 1_655
Mg12 Mg5 3.285816 1_555
Mg12 Mg3 3.285823 1_555
Mg12 Mg4 3.292165 1_555
Mg12 Mg2 3.292172 1_555
Mg12 Mg6 3.359175 1_555
Mg12 Mg6 3.359175 1_665
Mg12 Mg8 3.359175 1_555
Mg12 Mg8 3.359175 1_655
Mg13 Mg5 3.285816 1_555
Mg13 Mg3 3.285823 1_555
Mg13 Mg4 3.292165 1_556
Mg13 Mg2 3.292172 1_556
Mg13 Mg7 3.359175 1_555
Mg13 Mg7 3.359175 1_665
Mg13 Mg9 3.359175 1_555
Mg13 Mg9 3.359175 1_655
