# generated using pymatgen
data_Ba4NaGa2B8(ClO6)3
_symmetry_space_group_name_H-M   'P 1'
_cell_length_a   6.95806327
_cell_length_b   12.27749113
_cell_length_c   12.27749113
_cell_angle_alpha   90.00000000
_cell_angle_beta   90.00000000
_cell_angle_gamma   90.00000000
_symmetry_Int_Tables_number   1
_chemical_formula_structural   Ba4NaGa2B8(ClO6)3
_chemical_formula_sum   'Ba8 Na2 Ga4 B16 Cl6 O36'
_cell_volume   1048.83611113
_cell_formula_units_Z   2
loop_
 _symmetry_equiv_pos_site_id
 _symmetry_equiv_pos_as_xyz
  1  'x, y, z'
loop_
 _atom_site_type_symbol
 _atom_site_label
 _atom_site_symmetry_multiplicity
 _atom_site_fract_x
 _atom_site_fract_y
 _atom_site_fract_z
 _atom_site_occupancy
  Ba  Ba0  1  0.66788065  0.01464084  0.72120896  1
  Ba  Ba1  1  0.66788065  0.98535916  0.27879104  1
  Ba  Ba2  1  0.16788065  0.51464084  0.77879104  1
  Ba  Ba3  1  0.16788065  0.48535916  0.22120896  1
  Ba  Ba4  1  0.66788065  0.27879104  0.98535916  1
  Ba  Ba5  1  0.66788065  0.72120896  0.01464084  1
  Ba  Ba6  1  0.16788065  0.77879104  0.51464084  1
  Ba  Ba7  1  0.16788065  0.22120896  0.48535916  1
  Na  Na0  1  0.00087937  -0.00000000  -0.00000000  1
  Na  Na1  1  0.50087937  0.50000000  0.50000000  1
  Ga  Ga0  1  0.67301209  0.70034979  0.70034979  1
  Ga  Ga1  1  0.67301209  0.29965021  0.29965021  1
  Ga  Ga2  1  0.17301209  0.20034979  0.79965021  1
  Ga  Ga3  1  0.17301209  0.79965021  0.20034979  1
  B  B0  1  0.20967518  0.96187412  0.76524905  1
  B  B1  1  0.20967518  0.03812588  0.23475095  1
  B  B2  1  0.70967518  0.46187412  0.73475095  1
  B  B3  1  0.70967518  0.53812588  0.26524905  1
  B  B4  1  0.20967518  0.23475095  0.03812588  1
  B  B5  1  0.20967518  0.76524905  0.96187412  1
  B  B6  1  0.70967518  0.73475095  0.46187412  1
  B  B7  1  0.70967518  0.26524905  0.53812588  1
  B  B8  1  0.29772916  0.76394962  0.76394962  1
  B  B9  1  0.29772916  0.23605038  0.23605038  1
  B  B10  1  0.79772916  0.26394962  0.73605038  1
  B  B11  1  0.79772916  0.73605038  0.26394962  1
  B  B12  1  0.97302562  0.81506203  0.81506203  1
  B  B13  1  0.97302562  0.18493797  0.18493797  1
  B  B14  1  0.47302562  0.31506203  0.68493797  1
  B  B15  1  0.47302562  0.68493797  0.31506203  1
  Cl  Cl0  1  0.93916152  0.00000000  0.50000000  1
  Cl  Cl1  1  0.43916152  0.50000000  -0.00000000  1
  Cl  Cl2  1  0.93916152  0.50000000  -0.00000000  1
  Cl  Cl3  1  0.43916152  -0.00000000  0.50000000  1
  Cl  Cl4  1  0.61172435  -0.00000000  -0.00000000  1
  Cl  Cl5  1  0.11172435  0.50000000  0.50000000  1
  O  O0  1  0.76855462  0.80033278  0.80033278  1
  O  O1  1  0.76855462  0.19966722  0.19966722  1
  O  O2  1  0.26855462  0.30033278  0.69966722  1
  O  O3  1  0.26855462  0.69966722  0.30033278  1
  O  O4  1  0.02416869  0.93521985  0.79729753  1
  O  O5  1  0.02416869  0.06478015  0.20270247  1
  O  O6  1  0.52416869  0.43521985  0.70270247  1
  O  O7  1  0.52416869  0.56478015  0.29729753  1
  O  O8  1  0.02416869  0.20270247  0.06478015  1
  O  O9  1  0.02416869  0.79729753  0.93521985  1
  O  O10  1  0.52416869  0.70270247  0.43521985  1
  O  O11  1  0.52416869  0.29729753  0.56478015  1
  O  O12  1  0.40698913  0.69295785  0.69295785  1
  O  O13  1  0.40698913  0.30704215  0.30704215  1
  O  O14  1  0.90698913  0.19295785  0.80704215  1
  O  O15  1  0.90698913  0.80704215  0.19295785  1
  O  O16  1  0.34173594  0.88105430  0.73962962  1
  O  O17  1  0.34173594  0.11894570  0.26037038  1
  O  O18  1  0.84173594  0.38105430  0.76037038  1
  O  O19  1  0.84173594  0.61894570  0.23962962  1
  O  O20  1  0.34173594  0.26037038  0.11894570  1
  O  O21  1  0.34173594  0.73962962  0.88105430  1
  O  O22  1  0.84173594  0.76037038  0.38105430  1
  O  O23  1  0.84173594  0.23962962  0.61894570  1
  O  O24  1  0.77545901  0.56627267  0.73899371  1
  O  O25  1  0.77545901  0.43372733  0.26100629  1
  O  O26  1  0.27545901  0.06627267  0.76100629  1
  O  O27  1  0.27545901  0.93372733  0.23899371  1
  O  O28  1  0.77545901  0.26100629  0.43372733  1
  O  O29  1  0.77545901  0.73899371  0.56627267  1
  O  O30  1  0.27545901  0.76100629  0.06627267  1
  O  O31  1  0.27545901  0.23899371  0.93372733  1
  O  O32  1  0.09083703  0.74520384  0.74520384  1
  O  O33  1  0.09083703  0.25479616  0.25479616  1
  O  O34  1  0.59083703  0.24520384  0.75479616  1
  O  O35  1  0.59083703  0.75479616  0.24520384  1
loop_
_geom_bond_atom_site_label_1
_geom_bond_atom_site_label_2
_geom_bond_distance
_geom_bond_site_symmetry_2
Ba0 O16 2.809090 1_545
Ba0 O4 2.822995 1_645
Ba0 O26 2.845379 1_555
Ba0 O0 2.890921 1_545
Ba0 O34 2.910410 1_555
Ba0 O14 2.944742 1_555
Ba0 Cl3 3.152945 1_555
Ba0 O23 3.266500 1_555
Ba0 Cl0 3.312306 1_555
Ba0 Cl4 3.449771 1_556
Ba1 O17 2.809090 1_565
Ba1 O5 2.822995 1_665
Ba1 O27 2.845379 1_555
Ba1 O1 2.890921 1_565
Ba1 O35 2.910410 1_555
Ba1 O15 2.944742 1_555
Ba1 Cl3 3.152945 1_565
Ba1 O22 3.266500 1_555
Ba1 Cl0 3.312306 1_565
Ba1 Cl4 3.449771 1_565
Ba2 O18 2.809090 1_455
Ba2 O6 2.822995 1_555
Ba2 O24 2.845379 1_455
Ba2 O2 2.890921 1_555
Ba2 O32 2.910410 1_555
Ba2 O12 2.944742 1_555
Ba2 Cl2 3.152945 1_456
Ba2 O21 3.266500 1_555
Ba2 Cl1 3.312306 1_556
Ba2 Cl5 3.449771 1_555
Ba3 O19 2.809090 1_455
Ba3 O7 2.822995 1_555
Ba3 O25 2.845379 1_455
Ba3 O3 2.890921 1_555
Ba3 O33 2.910410 1_555
Ba3 O13 2.944742 1_555
Ba3 Cl2 3.152945 1_455
Ba3 O20 3.266500 1_555
Ba3 Cl1 3.312306 1_555
Ba3 Cl5 3.449771 1_555
Ba4 O20 2.809090 1_556
Ba4 O8 2.822995 1_656
Ba4 O31 2.845379 1_555
Ba4 O1 2.890921 1_556
Ba4 O34 2.910410 1_555
Ba4 O14 2.944742 1_555
Ba4 Cl1 3.152945 1_556
Ba4 O18 3.266500 1_555
Ba4 Cl2 3.312306 1_556
Ba4 Cl4 3.449771 1_556
Ba5 O21 2.809090 1_554
Ba5 O9 2.822995 1_654
Ba5 O30 2.845379 1_555
Ba5 O0 2.890921 1_554
Ba5 O35 2.910410 1_555
Ba5 O15 2.944742 1_555
Ba5 Cl1 3.152945 1_555
Ba5 O19 3.266500 1_555
Ba5 Cl2 3.312306 1_555
Ba5 Cl4 3.449771 1_565
Ba6 O22 2.809090 1_455
Ba6 O10 2.822995 1_555
Ba6 O29 2.845379 1_455
Ba6 O3 2.890921 1_555
Ba6 O32 2.910410 1_555
Ba6 O12 2.944742 1_555
Ba6 Cl0 3.152945 1_465
Ba6 O16 3.266500 1_555
Ba6 Cl3 3.312306 1_565
Ba6 Cl5 3.449771 1_555
Ba7 O23 2.809090 1_455
Ba7 O11 2.822995 1_555
Ba7 O28 2.845379 1_455
Ba7 O2 2.890921 1_555
Ba7 O33 2.910410 1_555
Ba7 O13 2.944742 1_555
Ba7 Cl0 3.152945 1_455
Ba7 O17 3.266500 1_555
Ba7 Cl3 3.312306 1_555
Ba7 Cl5 3.449771 1_555
Na0 O9 2.617697 1_544
Na0 O4 2.617697 1_544
Na0 O5 2.617697 1_555
Na0 O8 2.617697 1_555
Na1 O6 2.617697 1_555
Na1 O10 2.617697 1_555
Na1 O7 2.617697 1_555
Na1 O11 2.617697 1_555
Ga0 O12 1.855449 1_555
Ga0 O24 1.855527 1_555
Ga0 O29 1.855527 1_555
Ga0 O0 1.858940 1_555
Ga1 O13 1.855449 1_555
Ga1 O25 1.855527 1_555
Ga1 O28 1.855527 1_555
Ga1 O1 1.858940 1_555
Ga2 O14 1.855449 1_455
Ga2 O31 1.855527 1_555
Ga2 O26 1.855527 1_555
Ga2 O2 1.858940 1_555
Ga3 O15 1.855449 1_455
Ga3 O27 1.855527 1_555
Ga3 O30 1.855527 1_555
Ga3 O3 1.858940 1_555
B0 O26 1.362027 1_565
B0 O16 1.388481 1_555
B0 O4 1.388521 1_555
B1 O27 1.362027 1_545
B1 O17 1.388481 1_555
B1 O5 1.388521 1_555
B2 O24 1.362027 1_555
B2 O18 1.388481 1_555
B2 O6 1.388521 1_555
B3 O25 1.362027 1_555
B3 O19 1.388481 1_555
B3 O7 1.388521 1_555
B4 O31 1.362027 1_554
B4 O20 1.388481 1_555
B4 O8 1.388521 1_555
B5 O30 1.362027 1_556
B5 O21 1.388481 1_555
B5 O9 1.388521 1_555
B6 O29 1.362027 1_555
B6 O22 1.388481 1_555
B6 O10 1.388521 1_555
B7 O28 1.362027 1_555
B7 O23 1.388481 1_555
B7 O11 1.388521 1_555
B8 O12 1.448219 1_555
B8 O32 1.475905 1_555
B8 O21 1.500015 1_555
B8 O16 1.500015 1_555
B9 O13 1.448219 1_555
B9 O33 1.475905 1_555
B9 O20 1.500015 1_555
B9 O17 1.500015 1_555
B10 O14 1.448219 1_555
B10 O34 1.475905 1_555
B10 O23 1.500015 1_555
B10 O18 1.500015 1_555
B11 O15 1.448219 1_555
B11 O35 1.475905 1_555
B11 O19 1.500015 1_555
B11 O22 1.500015 1_555
B12 O0 1.445525 1_555
B12 O32 1.463972 1_655
B12 O9 1.533143 1_655
B12 O4 1.533143 1_655
B13 O1 1.445525 1_555
B13 O33 1.463972 1_655
B13 O8 1.533143 1_655
B13 O5 1.533143 1_655
B14 O2 1.445525 1_555
B14 O34 1.463972 1_555
B14 O11 1.533143 1_555
B14 O6 1.533143 1_555
B15 O3 1.445525 1_555
B15 O35 1.463972 1_555
B15 O7 1.533143 1_555
B15 O10 1.533143 1_555
Cl4 Na0 2.707765 1_655
Cl5 Na1 2.707765 1_555
