# generated using pymatgen
data_V6Si5
_symmetry_space_group_name_H-M   'P 1'
_cell_length_a   4.93361000
_cell_length_b   8.04813400
_cell_length_c   8.81529995
_cell_angle_alpha   117.16063065
_cell_angle_beta   106.25019164
_cell_angle_gamma   90.00000000
_symmetry_Int_Tables_number   1
_chemical_formula_structural   V6Si5
_chemical_formula_sum   'V12 Si10'
_cell_volume   295.62246437
_cell_formula_units_Z   2
loop_
 _symmetry_equiv_pos_site_id
 _symmetry_equiv_pos_as_xyz
  1  'x, y, z'
loop_
 _atom_site_type_symbol
 _atom_site_label
 _atom_site_symmetry_multiplicity
 _atom_site_fract_x
 _atom_site_fract_y
 _atom_site_fract_z
 _atom_site_occupancy
  V  V0  1  0.65122300  0.65122300  0.30244700  1
  V  V1  1  0.34877700  0.34877700  0.69755300  1
  V  V2  1  0.75319500  0.00000000  0.00000000  1
  V  V3  1  0.24680500  0.00000000  0.00000000  1
  V  V4  1  0.00000000  0.50000000  0.50000000  1
  V  V5  1  0.50000000  0.00000000  0.50000000  1
  V  V6  1  0.00000000  0.00000000  0.50000000  1
  V  V7  1  0.50000000  0.50000000  0.50000000  1
  V  V8  1  0.91265500  0.63290700  0.82531000  1
  V  V9  1  0.91265500  0.19240300  0.82531000  1
  V  V10  1  0.08734500  0.80759700  0.17469000  1
  V  V11  1  0.08734500  0.36709300  0.17469000  1
  Si  Si0  1  0.83264300  0.83264300  0.66528600  1
  Si  Si1  1  0.16735700  0.16735700  0.33471400  1
  Si  Si2  1  0.78754500  0.28754500  0.57509000  1
  Si  Si3  1  0.21245500  0.71245500  0.42491000  1
  Si  Si4  1  0.74222200  0.50000000  0.00000000  1
  Si  Si5  1  0.25777800  0.50000000  0.00000000  1
  Si  Si6  1  0.60506300  0.29630700  0.21012700  1
  Si  Si7  1  0.60506300  0.91381900  0.21012700  1
  Si  Si8  1  0.39493700  0.08618000  0.78987300  1
  Si  Si9  1  0.39493700  0.70369300  0.78987300  1
loop_
_geom_bond_atom_site_label_1
_geom_bond_atom_site_label_2
_geom_bond_distance
_geom_bond_site_symmetry_2
V0 V7 2.780803 1_555
V0 V4 2.780805 1_655
V0 V5 2.780809 1_565
V0 V6 2.780811 1_665
V1 V7 2.780803 1_555
V1 V4 2.780805 1_555
V1 V5 2.780809 1_555
V1 V6 2.780811 1_555
V2 V3 2.435279 1_655
V2 V3 2.498331 1_555
V2 V9 2.871105 1_554
V2 V8 2.871105 1_544
V3 V9 2.871105 1_454
V3 V8 2.871105 1_444
V4 V7 2.466805 1_455
V4 V7 2.466805 1_555
V4 V8 2.728499 1_455
V5 V6 2.466805 1_655
V5 V6 2.466805 1_555
V5 V9 2.728499 1_555
V6 V9 2.728499 1_455
V7 V8 2.728499 1_555
V10 V6 2.728499 1_565
V10 V5 2.728499 1_565
V10 V2 2.871105 1_465
V10 V3 2.871105 1_565
V11 V4 2.728499 1_555
V11 V7 2.728499 1_555
V11 V2 2.871105 1_455
V11 V3 2.871105 1_555
Si0 V8 2.547252 1_555
Si0 V9 2.547252 1_565
Si0 V7 2.661562 1_555
Si0 V4 2.661562 1_655
Si0 V5 2.661562 1_565
Si0 V6 2.661562 1_665
Si0 V0 2.701415 1_555
Si0 V2 2.773590 1_566
Si0 V3 2.773590 1_666
Si1 V10 2.547252 1_545
Si1 V11 2.547252 1_555
Si1 V6 2.661562 1_555
Si1 V5 2.661562 1_555
Si1 V7 2.661562 1_555
Si1 V4 2.661562 1_555
Si1 V1 2.701415 1_555
Si1 V3 2.773590 1_555
Si1 V2 2.773590 1_455
Si2 V5 2.425306 1_555
Si2 V7 2.425306 1_555
Si2 V6 2.425306 1_655
Si2 V4 2.425306 1_655
Si2 V8 2.571522 1_555
Si2 V9 2.571522 1_555
Si2 V1 2.629910 1_555
Si2 V1 2.629915 1_655
Si3 V4 2.425306 1_555
Si3 V6 2.425306 1_565
Si3 V7 2.425306 1_555
Si3 V5 2.425306 1_565
Si3 V11 2.571522 1_555
Si3 V10 2.571522 1_555
Si3 V0 2.629910 1_555
Si3 V0 2.629915 1_455
Si4 Si5 2.390058 1_555
Si4 V10 2.539914 1_655
Si4 V11 2.539914 1_655
Si4 V8 2.539914 1_554
Si4 V9 2.539914 1_554
Si4 Si5 2.543552 1_655
Si4 V1 2.549239 1_554
Si4 V0 2.549241 1_555
Si5 V8 2.539914 1_454
Si5 V9 2.539914 1_454
Si5 V11 2.539914 1_555
Si5 V10 2.539914 1_555
Si5 V0 2.549239 1_555
Si5 V1 2.549241 1_554
Si6 V3 2.525248 1_555
Si6 V2 2.525250 1_555
Si6 V7 2.530332 1_555
Si6 V4 2.530334 1_655
Si6 V0 2.578219 1_555
Si6 V11 2.581102 1_555
Si6 V11 2.581107 1_655
Si7 V3 2.525253 1_565
Si7 V2 2.525255 1_565
Si7 V5 2.530330 1_565
Si7 V6 2.530333 1_665
Si7 V0 2.578219 1_555
Si7 V10 2.581100 1_555
Si7 V10 2.581105 1_655
Si8 V2 2.525248 1_556
Si8 V3 2.525250 1_556
Si8 V5 2.530332 1_555
Si8 V6 2.530334 1_555
Si8 V1 2.578227 1_555
Si8 V9 2.581102 1_555
Si8 V9 2.581107 1_455
Si9 V2 2.525248 1_566
Si9 V3 2.525250 1_566
Si9 V7 2.530332 1_555
Si9 V4 2.530334 1_555
Si9 V1 2.578219 1_555
Si9 V8 2.581102 1_555
Si9 V8 2.581107 1_455
