# generated using pymatgen
data_Al2Co3GeO8
_symmetry_space_group_name_H-M   'P 1'
_cell_length_a   5.88712257
_cell_length_b   5.88712257
_cell_length_c   5.88712257
_cell_angle_alpha   120.69191929
_cell_angle_beta   119.87173940
_cell_angle_gamma   89.51402660
_symmetry_Int_Tables_number   1
_chemical_formula_structural   Al2Co3GeO8
_chemical_formula_sum   'Al2 Co3 Ge1 O8'
_cell_volume   143.64655637
_cell_formula_units_Z   1
loop_
 _symmetry_equiv_pos_site_id
 _symmetry_equiv_pos_as_xyz
  1  'x, y, z'
loop_
 _atom_site_type_symbol
 _atom_site_label
 _atom_site_symmetry_multiplicity
 _atom_site_fract_x
 _atom_site_fract_y
 _atom_site_fract_z
 _atom_site_occupancy
  Al  Al0  1  0.61658800  0.38019900  0.23638900  1
  Al  Al1  1  0.14381000  0.38019900  0.76361100  1
  Co  Co0  1  0.24511400  0.74511400  0.50000000  1
  Co  Co1  1  0.62198300  0.37756700  0.75558300  1
  Co  Co2  1  0.62198300  0.86640000  0.24441700  1
  Ge  Ge0  1  0.00931500  0.00931500  0.00000000  1
  O  O0  1  0.88121900  0.14495400  0.26373500  1
  O  O1  1  0.88121900  0.61748400  0.73626500  1
  O  O2  1  0.89076600  0.13939100  0.75137500  1
  O  O3  1  0.38801600  0.13939100  0.24862500  1
  O  O4  1  0.37409500  0.59227600  0.21818100  1
  O  O5  1  0.37409500  0.15591500  0.78181900  1
  O  O6  1  0.36058600  0.60089800  0.75968800  1
  O  O7  1  0.84121000  0.60089800  0.24031200  1
loop_
_geom_bond_atom_site_label_1
_geom_bond_atom_site_label_2
_geom_bond_distance
_geom_bond_site_symmetry_2
Al0 O7 1.845383 1_555
Al0 O4 1.887394 1_555
Al0 O5 1.887394 1_554
Al0 O3 2.014660 1_555
Al0 O0 2.076579 1_555
Al0 O1 2.076579 1_555
Al1 O6 1.845383 1_555
Al1 O5 1.887390 1_555
Al1 O4 1.887394 1_556
Al1 O2 2.014660 1_455
Al1 O0 2.076579 1_455
Al1 O1 2.076579 1_455
Co0 O7 1.949418 1_455
Co0 O6 1.949418 1_555
Co0 O4 1.964226 1_555
Co0 O5 1.964231 1_565
Co1 O6 2.016842 1_555
Co1 O7 2.016846 1_556
Co1 O5 2.078190 1_555
Co1 O3 2.106297 1_555
Co1 O2 2.106302 1_555
Co1 O1 2.170357 1_555
Co2 O6 2.016845 1_554
Co2 O7 2.016845 1_555
Co2 O4 2.078190 1_555
Co2 O3 2.106298 1_565
Co2 O2 2.106298 1_565
Co2 O0 2.170361 1_565
Ge0 O2 1.825775 1_454
Ge0 O3 1.825775 1_555
Ge0 O1 1.872826 1_444
Ge0 O0 1.872826 1_455
