# generated using pymatgen
data_CeNiB4
_symmetry_space_group_name_H-M   'P 1'
_cell_length_a   6.88199671
_cell_length_b   6.88199671
_cell_length_c   6.88199671
_cell_angle_alpha   112.83165928
_cell_angle_beta   112.83165928
_cell_angle_gamma   102.94115258
_symmetry_Int_Tables_number   1
_chemical_formula_structural   CeNiB4
_chemical_formula_sum   'Ce4 Ni4 B16'
_cell_volume   248.50602717
_cell_formula_units_Z   4
loop_
 _symmetry_equiv_pos_site_id
 _symmetry_equiv_pos_as_xyz
  1  'x, y, z'
loop_
 _atom_site_type_symbol
 _atom_site_label
 _atom_site_symmetry_multiplicity
 _atom_site_fract_x
 _atom_site_fract_y
 _atom_site_fract_z
 _atom_site_occupancy
  Ce  Ce0  1  0.79943800  0.79943800  0.00000000  1
  Ce  Ce1  1  0.20056200  0.20056200  0.00000000  1
  Ce  Ce2  1  0.75000000  0.25000000  0.50000000  1
  Ce  Ce3  1  0.25000000  0.75000000  0.50000000  1
  Ni  Ni0  1  0.27167000  0.50000000  0.77167000  1
  Ni  Ni1  1  0.72833000  0.50000000  0.22833000  1
  Ni  Ni2  1  0.50000000  0.72833000  0.22833000  1
  Ni  Ni3  1  0.50000000  0.27167000  0.77167000  1
  B  B0  1  0.27442200  0.11136300  0.38578500  1
  B  B1  1  0.72557800  0.88863700  0.61421500  1
  B  B2  1  0.27442200  0.88863700  0.16305900  1
  B  B3  1  0.72557800  0.11136300  0.83694100  1
  B  B4  1  0.11136300  0.72557800  0.83694100  1
  B  B5  1  0.88863700  0.27442200  0.16305900  1
  B  B6  1  0.11136300  0.27442200  0.38578500  1
  B  B7  1  0.88863700  0.72557800  0.61421500  1
  B  B8  1  0.11309700  0.11309700  0.53153300  1
  B  B9  1  0.58156300  0.58156300  0.46846700  1
  B  B10  1  0.11309700  0.58156300  0.00000000  1
  B  B11  1  0.58156300  0.11309700  0.00000000  1
  B  B12  1  0.88690300  0.88690300  0.46846700  1
  B  B13  1  0.41843700  0.41843700  0.53153300  1
  B  B14  1  0.88690300  0.41843700  0.00000000  1
  B  B15  1  0.41843700  0.88690300  0.00000000  1
loop_
_geom_bond_atom_site_label_1
_geom_bond_atom_site_label_2
_geom_bond_distance
_geom_bond_site_symmetry_2
Ce0 Ni3 3.100538 1_554
Ce0 Ni1 3.100538 1_555
Ce0 Ni0 3.100538 1_554
Ce0 Ni2 3.100538 1_555
Ce1 Ni3 3.100538 1_554
Ce1 Ni1 3.100538 1_555
Ce1 Ni0 3.100538 1_554
Ce1 Ni2 3.100538 1_555
Ce2 Ni1 2.978715 1_555
Ce2 Ni3 2.978715 1_555
Ce2 Ni2 2.978715 1_545
Ce2 Ni0 2.978715 1_655
Ce3 Ni1 2.978715 1_455
Ce3 Ni2 2.978715 1_555
Ce3 Ni0 2.978715 1_555
Ce3 Ni3 2.978715 1_565
B0 B2 1.695771 1_545
B0 B6 1.755723 1_555
B0 B8 1.760601 1_555
B0 B13 1.760608 1_555
B0 Ni3 2.107001 1_555
B0 Ce1 2.835725 1_555
B0 Ce0 2.835725 1_445
B0 Ce2 2.874554 1_555
B0 Ce3 2.874554 1_545
B1 B3 1.695771 1_565
B1 B7 1.755723 1_555
B1 B12 1.760601 1_555
B1 B9 1.760608 1_555
B1 Ni2 2.107001 1_555
B1 Ce1 2.835725 1_666
B1 Ce0 2.835725 1_556
B1 Ce2 2.874554 1_565
B1 Ce3 2.874554 1_555
B2 B4 1.755723 1_554
B2 Ni2 2.107001 1_555
B2 Ce1 2.835725 1_565
B2 Ce0 2.835725 1_455
B2 Ce2 2.874554 1_565
B2 Ce3 2.874554 1_555
B3 B5 1.755723 1_556
B3 Ni3 2.107001 1_555
B3 Ce0 2.835725 1_546
B3 Ce1 2.835725 1_656
B3 Ce3 2.874554 1_545
B3 Ce2 2.874554 1_555
B4 B7 1.695771 1_455
B4 Ni0 2.107001 1_555
B4 Ce0 2.835725 1_456
B4 Ce1 2.835725 1_566
B4 Ce2 2.874554 1_455
B4 Ce3 2.874554 1_555
B5 B6 1.695771 1_655
B5 Ni1 2.107001 1_555
B5 Ce1 2.835725 1_655
B5 Ce0 2.835725 1_545
B5 Ce3 2.874554 1_655
B5 Ce2 2.874554 1_555
B6 B8 1.760601 1_555
B6 Ni0 2.107001 1_555
B6 Ce1 2.835725 1_555
B6 Ce0 2.835725 1_445
B6 Ce3 2.874554 1_555
B6 Ce2 2.874554 1_455
B7 B9 1.760608 1_555
B7 Ni1 2.107001 1_555
B7 Ce1 2.835725 1_666
B7 Ce0 2.835725 1_556
B7 Ce2 2.874554 1_555
B7 Ce3 2.874554 1_655
B8 Ni3 2.212660 1_555
B8 Ni0 2.212660 1_555
B8 Ce1 2.818584 1_556
B8 Ce3 2.823344 1_545
B8 Ce2 2.823344 1_455
B8 Ce0 2.890928 1_445
B9 Ni1 2.212665 1_555
B9 Ni2 2.212665 1_555
B9 Ce1 2.818580 1_555
B9 Ce3 2.823342 1_555
B9 Ce2 2.823342 1_555
B9 Ce0 2.890927 1_556
B10 B14 1.703167 1_455
B10 B4 1.760607 1_554
B10 B2 1.760607 1_555
B10 Ni2 2.212659 1_555
B10 Ni0 2.212659 1_554
B10 Ce1 2.818577 1_555
B10 Ce2 2.823343 1_454
B10 Ce3 2.823343 1_555
B10 Ce0 2.890933 1_455
B11 B15 1.703167 1_545
B11 B3 1.760607 1_554
B11 B5 1.760607 1_555
B11 Ni1 2.212659 1_555
B11 Ni3 2.212659 1_554
B11 Ce1 2.818577 1_555
B11 Ce3 2.823343 1_544
B11 Ce2 2.823343 1_555
B11 Ce0 2.890933 1_545
B12 B8 1.703174 1_665
B12 B7 1.760601 1_555
B12 Ni2 2.212660 1_555
B12 Ni1 2.212660 1_555
B12 Ce0 2.818584 1_555
B12 Ce3 2.823344 1_655
B12 Ce2 2.823344 1_565
B12 Ce1 2.890928 1_666
B13 B9 1.703157 1_555
B13 B6 1.760608 1_555
B13 Ni3 2.212665 1_555
B13 Ni0 2.212665 1_555
B13 Ce0 2.818580 1_556
B13 Ce3 2.823342 1_555
B13 Ce2 2.823342 1_555
B13 Ce1 2.890927 1_555
B14 B5 1.760607 1_555
B14 B3 1.760607 1_554
B14 Ni1 2.212659 1_555
B14 Ni3 2.212659 1_554
B14 Ce0 2.818577 1_555
B14 Ce3 2.823343 1_655
B14 Ce2 2.823343 1_554
B14 Ce1 2.890933 1_655
B15 B2 1.760607 1_555
B15 B4 1.760607 1_554
B15 Ni0 2.212659 1_554
B15 Ni2 2.212659 1_555
B15 Ce0 2.818577 1_555
B15 Ce3 2.823343 1_554
B15 Ce2 2.823343 1_565
B15 Ce1 2.890933 1_565
