# generated using pymatgen
data_MgCrFeO4
_symmetry_space_group_name_H-M   'P 1'
_cell_length_a   6.02944329
_cell_length_b   6.02944329
_cell_length_c   6.02944329
_cell_angle_alpha   120.08705269
_cell_angle_beta   119.92439758
_cell_angle_gamma   89.99014179
_symmetry_Int_Tables_number   1
_chemical_formula_structural   MgCrFeO4
_chemical_formula_sum   'Mg2 Cr2 Fe2 O8'
_cell_volume   154.98082240
_cell_formula_units_Z   2
loop_
 _symmetry_equiv_pos_site_id
 _symmetry_equiv_pos_as_xyz
  1  'x, y, z'
loop_
 _atom_site_type_symbol
 _atom_site_label
 _atom_site_symmetry_multiplicity
 _atom_site_fract_x
 _atom_site_fract_y
 _atom_site_fract_z
 _atom_site_occupancy
  Mg  Mg0  1  0.12422300  0.87422300  0.25000000  1
  Mg  Mg1  1  0.87577700  0.12577700  0.75000000  1
  Cr  Cr0  1  0.50000000  0.50000000  0.00000000  1
  Cr  Cr1  1  0.00000000  0.50000000  0.50000000  1
  Fe  Fe0  1  0.50000000  0.50000000  0.50000000  1
  Fe  Fe1  1  0.50000000  0.00000000  0.00000000  1
  O  O0  1  0.26006300  0.73759000  0.97752700  1
  O  O1  1  0.26006300  0.28253500  0.52247300  1
  O  O2  1  0.25870500  0.73882300  0.51988200  1
  O  O3  1  0.71894200  0.73882300  0.98011800  1
  O  O4  1  0.73993800  0.26241000  0.02247300  1
  O  O5  1  0.73993800  0.71746500  0.47752700  1
  O  O6  1  0.74129500  0.26117700  0.48011800  1
  O  O7  1  0.28105800  0.26117700  0.01988200  1
loop_
_geom_bond_atom_site_label_1
_geom_bond_atom_site_label_2
_geom_bond_distance
_geom_bond_site_symmetry_2
Mg0 O3 1.996783 1_454
Mg0 O2 1.996788 1_555
Mg0 O1 2.008421 1_565
Mg0 O0 2.008426 1_554
Mg1 O7 1.996783 1_656
Mg1 O6 1.996788 1_555
Mg1 O4 2.008421 1_556
Mg1 O5 2.008421 1_545
Cr0 O1 2.040036 1_554
Cr0 O5 2.040036 1_555
Cr0 O0 2.040036 1_554
Cr0 O4 2.040040 1_555
Cr0 O3 2.040137 1_554
Cr0 O7 2.040137 1_555
Cr1 O4 2.040036 1_455
Cr1 O5 2.040036 1_455
Cr1 O0 2.040036 1_555
Cr1 O1 2.040040 1_555
Cr1 O6 2.040133 1_455
Cr1 O2 2.040133 1_555
Fe0 O3 2.050550 1_555
Fe0 O7 2.050550 1_555
Fe0 O2 2.050550 1_555
Fe0 O6 2.050550 1_555
Fe0 O1 2.050574 1_555
Fe0 O5 2.050578 1_555
Fe1 O6 2.050550 1_555
Fe1 O2 2.050550 1_544
Fe1 O7 2.050554 1_555
Fe1 O3 2.050554 1_544
Fe1 O0 2.050570 1_544
Fe1 O4 2.050574 1_555
