# generated using pymatgen
data_SrCa
_symmetry_space_group_name_H-M   'P 1'
_cell_length_a   7.95451129
_cell_length_b   7.95451129
_cell_length_c   12.58009200
_cell_angle_alpha   90.00000000
_cell_angle_beta   90.00000000
_cell_angle_gamma   107.04150958
_symmetry_Int_Tables_number   1
_chemical_formula_structural   SrCa
_chemical_formula_sum   'Sr8 Ca8'
_cell_volume   761.04584511
_cell_formula_units_Z   8
loop_
 _symmetry_equiv_pos_site_id
 _symmetry_equiv_pos_as_xyz
  1  'x, y, z'
loop_
 _atom_site_type_symbol
 _atom_site_label
 _atom_site_symmetry_multiplicity
 _atom_site_fract_x
 _atom_site_fract_y
 _atom_site_fract_z
 _atom_site_occupancy
  Sr  Sr0_0  1  0.25000000  0.25000000  0.25000000  1
  Sr  Sr0_1  1  0.25000000  0.25000000  0.75000000  1
  Sr  Sr0_2  1  0.25000000  0.75000000  0.25000000  1
  Sr  Sr0_3  1  0.25000000  0.75000000  0.75000000  1
  Sr  Sr0_4  1  0.75000000  0.25000000  0.25000000  1
  Sr  Sr0_5  1  0.75000000  0.25000000  0.75000000  1
  Sr  Sr0_6  1  0.75000000  0.75000000  0.25000000  1
  Sr  Sr0_7  1  0.75000000  0.75000000  0.75000000  1
  Ca  Ca0_0  1  0.00000000  0.00000000  0.00000000  1
  Ca  Ca0_1  1  0.00000000  0.00000000  0.50000000  1
  Ca  Ca0_2  1  0.00000000  0.50000000  0.00000000  1
  Ca  Ca0_3  1  0.00000000  0.50000000  0.50000000  1
  Ca  Ca0_4  1  0.50000000  0.00000000  0.00000000  1
  Ca  Ca0_5  1  0.50000000  0.00000000  0.50000000  1
  Ca  Ca0_6  1  0.50000000  0.50000000  0.00000000  1
  Ca  Ca0_7  1  0.50000000  0.50000000  0.50000000  1
loop_
_geom_bond_atom_site_label_1
_geom_bond_atom_site_label_2
_geom_bond_distance
_geom_bond_site_symmetry_2
Sr0_0 Sr0_2 3.977256 1_555
Sr0_0 Sr0_4 3.977256 1_555
Sr0_0 Sr0_4 3.977256 1_455
Sr0_0 Sr0_2 3.977256 1_545
Sr0_1 Sr0_3 3.977256 1_555
Sr0_1 Sr0_5 3.977256 1_555
Sr0_1 Sr0_5 3.977256 1_455
Sr0_1 Sr0_3 3.977256 1_545
Sr0_2 Sr0_6 3.977256 1_555
Sr0_2 Sr0_6 3.977256 1_455
Sr0_3 Sr0_7 3.977256 1_455
Sr0_3 Sr0_7 3.977256 1_555
Sr0_4 Sr0_6 3.977256 1_555
Sr0_4 Sr0_6 3.977256 1_545
Sr0_5 Sr0_7 3.977256 1_555
Sr0_5 Sr0_7 3.977256 1_545
Ca0_0 Sr0_0 3.934784 1_555
Ca0_0 Sr0_1 3.934784 1_554
Ca0_0 Sr0_7 3.934784 1_444
Ca0_0 Sr0_6 3.934784 1_445
Ca0_0 Ca0_2 3.977256 1_555
Ca0_0 Ca0_2 3.977256 1_545
Ca0_0 Ca0_4 3.977256 1_455
Ca0_0 Ca0_4 3.977256 1_555
Ca0_1 Sr0_0 3.934784 1_555
Ca0_1 Sr0_1 3.934784 1_555
Ca0_1 Sr0_7 3.934784 1_445
Ca0_1 Sr0_6 3.934784 1_445
Ca0_1 Ca0_3 3.977256 1_555
Ca0_1 Ca0_5 3.977256 1_555
Ca0_1 Ca0_3 3.977256 1_545
Ca0_1 Ca0_5 3.977256 1_455
Ca0_2 Sr0_5 3.934784 1_454
Ca0_2 Sr0_2 3.934784 1_555
Ca0_2 Sr0_4 3.934784 1_455
Ca0_2 Sr0_3 3.934784 1_554
Ca0_2 Ca0_6 3.977256 1_455
Ca0_2 Ca0_6 3.977256 1_555
Ca0_3 Sr0_3 3.934784 1_555
Ca0_3 Sr0_5 3.934784 1_455
Ca0_3 Sr0_2 3.934784 1_555
Ca0_3 Sr0_4 3.934784 1_455
Ca0_3 Ca0_7 3.977256 1_455
Ca0_3 Ca0_7 3.977256 1_555
Ca0_4 Sr0_4 3.934784 1_555
Ca0_4 Sr0_5 3.934784 1_554
Ca0_4 Sr0_2 3.934784 1_545
Ca0_4 Sr0_3 3.934784 1_544
Ca0_4 Ca0_6 3.977256 1_555
Ca0_4 Ca0_6 3.977256 1_545
Ca0_5 Sr0_4 3.934784 1_555
Ca0_5 Sr0_5 3.934784 1_555
Ca0_5 Sr0_2 3.934784 1_545
Ca0_5 Sr0_3 3.934784 1_545
Ca0_5 Ca0_7 3.977256 1_555
Ca0_5 Ca0_7 3.977256 1_545
Ca0_6 Sr0_0 3.934784 1_555
Ca0_6 Sr0_7 3.934784 1_554
Ca0_6 Sr0_6 3.934784 1_555
Ca0_6 Sr0_1 3.934784 1_554
Ca0_7 Sr0_0 3.934784 1_555
Ca0_7 Sr0_6 3.934784 1_555
Ca0_7 Sr0_7 3.934784 1_555
Ca0_7 Sr0_1 3.934784 1_555
