# generated using pymatgen
data_YCo9Si2
_symmetry_space_group_name_H-M   'P 1'
_cell_length_a   7.50606898
_cell_length_b   7.50606898
_cell_length_c   7.50606898
_cell_angle_alpha   99.99882696
_cell_angle_beta   99.99882696
_cell_angle_gamma   130.74880631
_symmetry_Int_Tables_number   1
_chemical_formula_structural   YCo9Si2
_chemical_formula_sum   'Y2 Co18 Si4'
_cell_volume   291.24141726
_cell_formula_units_Z   2
loop_
 _symmetry_equiv_pos_site_id
 _symmetry_equiv_pos_as_xyz
  1  'x, y, z'
loop_
 _atom_site_type_symbol
 _atom_site_label
 _atom_site_symmetry_multiplicity
 _atom_site_fract_x
 _atom_site_fract_y
 _atom_site_fract_z
 _atom_site_occupancy
  Y  Y0  1  0.50000000  0.50000000  0.00000000  1
  Y  Y1  1  0.75000000  0.25000000  0.50000000  1
  Co  Co0  1  0.25000000  0.75000000  0.50000000  1
  Co  Co1  1  0.00000000  0.00000000  0.00000000  1
  Co  Co2  1  0.68468900  0.01409300  0.08206000  1
  Co  Co3  1  0.68468900  0.60262900  0.67059700  1
  Co  Co4  1  0.26409300  0.43468900  0.58206000  1
  Co  Co5  1  0.26409300  0.68203300  0.82940300  1
  Co  Co6  1  0.93203300  0.01409300  0.32940300  1
  Co  Co7  1  0.93203300  0.60262900  0.91794000  1
  Co  Co8  1  0.85262900  0.43468900  0.17059700  1
  Co  Co9  1  0.85262900  0.68203300  0.41794000  1
  Co  Co10  1  0.56531100  0.73590700  0.41794000  1
  Co  Co11  1  0.56531100  0.14737100  0.82940300  1
  Co  Co12  1  0.98590700  0.31531100  0.91794000  1
  Co  Co13  1  0.98590700  0.06796700  0.67059700  1
  Co  Co14  1  0.31796700  0.73590700  0.17059700  1
  Co  Co15  1  0.31796700  0.14737100  0.58206000  1
  Co  Co16  1  0.39737100  0.31531100  0.32940300  1
  Co  Co17  1  0.39737100  0.06796700  0.08206000  1
  Si  Si0  1  0.62500000  0.87500000  0.75000000  1
  Si  Si1  1  0.12500000  0.37500000  0.25000000  1
  Si  Si2  1  0.12500000  0.87500000  0.75000000  1
  Si  Si3  1  0.12500000  0.87500000  0.25000000  1
loop_
_geom_bond_atom_site_label_1
_geom_bond_atom_site_label_2
_geom_bond_distance
_geom_bond_site_symmetry_2
Co0 Si0 2.535988 1_555
Co0 Si1 2.535988 1_555
Co0 Si2 2.535988 1_555
Co0 Si3 2.535988 1_555
Co0 Co5 2.608156 1_555
Co0 Co14 2.608156 1_555
Co0 Co11 2.608159 1_565
Co0 Co8 2.608159 1_455
Co0 Co4 2.608163 1_555
Co0 Co9 2.608163 1_455
Co0 Co15 2.608163 1_565
Co0 Co10 2.608163 1_555
Co0 Y1 3.127681 1_455
Co0 Y1 3.127681 1_565
Co1 Si0 2.535988 1_444
Co1 Si1 2.535988 1_555
Co1 Si2 2.535988 1_544
Co1 Si3 2.535988 1_545
Co1 Co6 2.608156 1_455
Co1 Co13 2.608156 1_454
Co1 Co16 2.608159 1_555
Co1 Co3 2.608159 1_444
Co1 Co12 2.608163 1_454
Co1 Co17 2.608163 1_555
Co1 Co2 2.608163 1_455
Co1 Co7 2.608163 1_444
Co1 Y0 3.127681 1_555
Co1 Y0 3.127681 1_445
Co2 Si1 2.351558 1_655
Co2 Si0 2.366655 1_544
Co2 Co6 2.386799 1_555
Co2 Co8 2.404709 1_555
Co2 Co5 2.404713 1_544
Co2 Y0 3.014325 1_545
Co2 Y1 3.101751 1_555
Co3 Si2 2.351559 1_655
Co3 Si0 2.366654 1_555
Co3 Co7 2.386799 1_555
Co3 Co4 2.404709 1_555
Co3 Co9 2.404717 1_555
Co3 Y0 3.014318 1_556
Co3 Y1 3.101753 1_555
Co4 Si0 2.351558 1_555
Co4 Si1 2.366655 1_555
Co4 Co5 2.386799 1_555
Co4 Co6 2.404713 1_455
Co4 Y1 3.014325 1_455
Co4 Y0 3.101751 1_556
Co5 Si0 2.351554 1_555
Co5 Si2 2.366653 1_555
Co5 Co7 2.404714 1_455
Co5 Y1 3.014322 1_455
Co5 Y0 3.101754 1_556
Co6 Si1 2.351554 1_655
Co6 Si3 2.366653 1_645
Co6 Co9 2.404714 1_545
Co6 Y0 3.014322 1_545
Co6 Y1 3.101754 1_555
Co7 Si2 2.351558 1_655
Co7 Si3 2.366655 1_656
Co7 Co8 2.404717 1_556
Co7 Y0 3.014325 1_556
Co7 Y1 3.101751 1_555
Co8 Si3 2.351559 1_655
Co8 Si1 2.366654 1_655
Co8 Co9 2.386799 1_555
Co8 Y1 3.014318 1_555
Co8 Y0 3.101753 1_555
Co9 Si3 2.351558 1_655
Co9 Si2 2.366655 1_655
Co9 Y1 3.014325 1_555
Co9 Y0 3.101751 1_555
Co10 Si1 2.351558 1_555
Co10 Si0 2.366655 1_555
Co10 Co14 2.386799 1_555
Co10 Co16 2.404709 1_555
Co10 Co13 2.404713 1_565
Co10 Co9 2.439896 1_555
Co10 Co6 2.447912 1_565
Co10 Co3 2.576672 1_555
Co10 Co4 2.646183 1_555
Co10 Y1 3.014325 1_565
Co10 Y0 3.101751 1_555
Co11 Si2 2.351559 1_545
Co11 Si0 2.366654 1_545
Co11 Co15 2.386799 1_555
Co11 Co12 2.404709 1_555
Co11 Co17 2.404717 1_556
Co11 Co8 2.439907 1_556
Co11 Co7 2.447906 1_555
Co11 Co2 2.576672 1_556
Co11 Co5 2.646183 1_545
Co11 Y1 3.014318 1_555
Co11 Y0 3.101753 1_556
Co12 Si0 2.351558 1_545
Co12 Si1 2.366655 1_656
Co12 Co13 2.386799 1_555
Co12 Co14 2.404713 1_656
Co12 Co7 2.439896 1_555
Co12 Co5 2.447912 1_655
Co12 Co8 2.576672 1_556
Co12 Co2 2.646183 1_556
Co12 Y0 3.014325 1_656
Co12 Y1 3.101751 1_555
Co13 Si0 2.351554 1_545
Co13 Si2 2.366653 1_645
Co13 Co15 2.404714 1_655
Co13 Co6 2.439910 1_555
Co13 Co4 2.447912 1_655
Co13 Co9 2.576670 1_545
Co13 Co3 2.646183 1_545
Co13 Y0 3.014322 1_656
Co13 Y1 3.101754 1_555
Co14 Si1 2.351554 1_555
Co14 Si3 2.366653 1_555
Co14 Co17 2.404714 1_565
Co14 Co5 2.439910 1_554
Co14 Co2 2.447912 1_565
Co14 Co7 2.576670 1_454
Co14 Co8 2.646183 1_455
Co14 Y1 3.014322 1_565
Co14 Y0 3.101754 1_555
Co15 Si2 2.351558 1_545
Co15 Si3 2.366655 1_545
Co15 Co16 2.404717 1_555
Co15 Co4 2.439896 1_555
Co15 Co3 2.447906 1_555
Co15 Co6 2.576670 1_455
Co15 Co9 2.646183 1_445
Co15 Y1 3.014325 1_555
Co15 Y0 3.101751 1_556
Co16 Si3 2.351559 1_545
Co16 Si1 2.366654 1_555
Co16 Co17 2.386799 1_555
Co16 Co3 2.439907 1_555
Co16 Co9 2.447906 1_555
Co16 Co4 2.576672 1_555
Co16 Co6 2.646183 1_455
Co16 Y0 3.014318 1_555
Co16 Y1 3.101753 1_555
Co17 Si3 2.351558 1_545
Co17 Si2 2.366655 1_544
Co17 Co2 2.439896 1_555
Co17 Co8 2.447906 1_555
Co17 Co5 2.576670 1_544
Co17 Co7 2.646183 1_444
Co17 Y0 3.014325 1_555
Co17 Y1 3.101751 1_555
