# generated using pymatgen
data_Gd3Se2NO
_symmetry_space_group_name_H-M   'P 1'
_cell_length_a   8.08789382
_cell_length_b   8.08789382
_cell_length_c   9.83303081
_cell_angle_alpha   82.90794887
_cell_angle_beta   82.90794887
_cell_angle_gamma   28.39798182
_symmetry_Int_Tables_number   1
_chemical_formula_structural   Gd3Se2NO
_chemical_formula_sum   'Gd6 Se4 N2 O2'
_cell_volume   303.41924115
_cell_formula_units_Z   2
loop_
 _symmetry_equiv_pos_site_id
 _symmetry_equiv_pos_as_xyz
  1  'x, y, z'
loop_
 _atom_site_type_symbol
 _atom_site_label
 _atom_site_symmetry_multiplicity
 _atom_site_fract_x
 _atom_site_fract_y
 _atom_site_fract_z
 _atom_site_occupancy
  Gd  Gd0  1  0.39098000  0.39098000  0.94587300  1
  Gd  Gd1  1  0.60902000  0.60902000  0.05412700  1
  Gd  Gd2  1  0.04394000  0.04394000  0.73819100  1
  Gd  Gd3  1  0.95606000  0.95606000  0.26180900  1
  Gd  Gd4  1  0.19732700  0.19732700  0.32532600  1
  Gd  Gd5  1  0.80267300  0.80267300  0.67467400  1
  Se  Se0  1  0.21182500  0.21182500  0.84947300  1
  Se  Se1  1  0.78817500  0.78817500  0.15052700  1
  Se  Se2  1  0.37125000  0.37125000  0.47415000  1
  Se  Se3  1  0.62875000  0.62875000  0.52585000  1
  N  N0  1  0.09803300  0.09803300  0.18798100  1
  N  N1  1  0.90196700  0.90196700  0.81201900  1
  O  O0  1  0.53500500  0.53500500  0.85998900  1
  O  O1  1  0.46499500  0.46499500  0.14001100  1
loop_
_geom_bond_atom_site_label_1
_geom_bond_atom_site_label_2
_geom_bond_distance
_geom_bond_site_symmetry_2
Gd0 O0 2.308330 1_555
Gd0 O1 2.357046 1_556
Gd0 N1 2.374883 1_455
Gd0 N1 2.374883 1_545
Gd0 Se0 3.077301 1_555
Gd0 Se1 3.123796 1_456
Gd0 Se1 3.123796 1_546
Gd1 O1 2.308330 1_555
Gd1 O0 2.357046 1_554
Gd1 N0 2.374883 1_565
Gd1 N0 2.374883 1_655
Gd1 Se1 3.077301 1_555
Gd1 Se0 3.123796 1_564
Gd1 Se0 3.123796 1_654
Gd2 N1 2.252119 1_445
Gd2 O0 2.312364 1_545
Gd2 O0 2.312364 1_455
Gd2 Se0 2.976958 1_555
Gd2 Se3 3.058894 1_545
Gd2 Se3 3.058894 1_455
Gd3 N0 2.252119 1_665
Gd3 O1 2.312364 1_565
Gd3 O1 2.312364 1_655
Gd3 Se1 2.976958 1_555
Gd3 Se2 3.058894 1_565
Gd3 Se2 3.058894 1_655
Gd4 N0 2.187247 1_555
Gd4 Se1 2.880275 1_545
Gd4 Se1 2.880275 1_455
Gd4 Se3 2.905169 1_545
Gd4 Se3 2.905169 1_455
Gd4 Se2 3.255271 1_555
Gd5 N1 2.187247 1_555
Gd5 Se0 2.880275 1_655
Gd5 Se0 2.880275 1_565
Gd5 Se2 2.905169 1_565
Gd5 Se2 2.905169 1_655
Gd5 Se3 3.255271 1_555
