# generated using pymatgen
data_BaSc6Ni4O15
_symmetry_space_group_name_H-M   'P 1'
_cell_length_a   7.98008442
_cell_length_b   7.98008442
_cell_length_c   9.75626900
_cell_angle_alpha   90.00000000
_cell_angle_beta   90.00000000
_cell_angle_gamma   96.18780975
_symmetry_Int_Tables_number   1
_chemical_formula_structural   BaSc6Ni4O15
_chemical_formula_sum   'Ba2 Sc12 Ni8 O30'
_cell_volume   617.67653485
_cell_formula_units_Z   2
loop_
 _symmetry_equiv_pos_site_id
 _symmetry_equiv_pos_as_xyz
  1  'x, y, z'
loop_
 _atom_site_type_symbol
 _atom_site_label
 _atom_site_symmetry_multiplicity
 _atom_site_fract_x
 _atom_site_fract_y
 _atom_site_fract_z
 _atom_site_occupancy
  Ba  Ba0  1  0.50000000  0.50000000  0.00000000  1
  Ba  Ba1  1  0.00000000  0.00000000  0.50000000  1
  Sc  Sc0  1  0.18716500  0.18716500  0.13942600  1
  Sc  Sc1  1  0.81283500  0.81283500  0.86057400  1
  Sc  Sc2  1  0.31283500  0.31283500  0.63942600  1
  Sc  Sc3  1  0.68716500  0.68716500  0.36057400  1
  Sc  Sc4  1  0.28079700  0.54770800  0.35495600  1
  Sc  Sc5  1  0.71920300  0.45229200  0.64504400  1
  Sc  Sc6  1  0.21920300  0.95229200  0.85495600  1
  Sc  Sc7  1  0.04770800  0.78079700  0.14504400  1
  Sc  Sc8  1  0.78079700  0.04770800  0.14504400  1
  Sc  Sc9  1  0.95229200  0.21920300  0.85495600  1
  Sc  Sc10  1  0.45229200  0.71920300  0.64504400  1
  Sc  Sc11  1  0.54770800  0.28079700  0.35495600  1
  Ni  Ni0  1  0.90525000  0.42057400  0.11657700  1
  Ni  Ni1  1  0.09475000  0.57942600  0.88342300  1
  Ni  Ni2  1  0.59475000  0.07942600  0.61657700  1
  Ni  Ni3  1  0.92057400  0.40525000  0.38342300  1
  Ni  Ni4  1  0.40525000  0.92057400  0.38342300  1
  Ni  Ni5  1  0.07942600  0.59475000  0.61657700  1
  Ni  Ni6  1  0.57942600  0.09475000  0.88342300  1
  Ni  Ni7  1  0.42057400  0.90525000  0.11657700  1
  O  O0  1  0.06009800  0.56009800  0.25000000  1
  O  O1  1  0.93990200  0.43990200  0.75000000  1
  O  O2  1  0.43990200  0.93990200  0.75000000  1
  O  O3  1  0.56009800  0.06009800  0.25000000  1
  O  O4  1  0.95872000  0.21829900  0.24464900  1
  O  O5  1  0.04128000  0.78170100  0.75535100  1
  O  O6  1  0.54128000  0.28170100  0.74464900  1
  O  O7  1  0.71829900  0.45872000  0.25535100  1
  O  O8  1  0.45872000  0.71829900  0.25535100  1
  O  O9  1  0.28170100  0.54128000  0.74464900  1
  O  O10  1  0.78170100  0.04128000  0.75535100  1
  O  O11  1  0.21829900  0.95872000  0.24464900  1
  O  O12  1  0.35293200  0.35293200  0.23817000  1
  O  O13  1  0.64706800  0.64706800  0.76183000  1
  O  O14  1  0.14706800  0.14706800  0.73817000  1
  O  O15  1  0.85293200  0.85293200  0.26183000  1
  O  O16  1  0.10347000  0.36346700  0.99803600  1
  O  O17  1  0.89653000  0.63653300  0.00196400  1
  O  O18  1  0.39653000  0.13653300  0.49803600  1
  O  O19  1  0.86346700  0.60347000  0.50196400  1
  O  O20  1  0.60347000  0.86346700  0.50196400  1
  O  O21  1  0.13653300  0.39653000  0.49803600  1
  O  O22  1  0.63653300  0.89653000  0.00196400  1
  O  O23  1  0.36346700  0.10347000  0.99803600  1
  O  O24  1  0.74873100  0.25126900  0.00000000  1
  O  O25  1  0.25126900  0.74873100  0.00000000  1
  O  O26  1  0.75126900  0.24873100  0.50000000  1
  O  O27  1  0.24873100  0.75126900  0.50000000  1
  O  O28  1  0.00000000  0.00000000  0.00000000  1
  O  O29  1  0.50000000  0.50000000  0.50000000  1
loop_
_geom_bond_atom_site_label_1
_geom_bond_atom_site_label_2
_geom_bond_distance
_geom_bond_site_symmetry_2
Ba0 O13 2.803064 1_554
Ba0 O12 2.803064 1_555
Ba0 O25 2.954478 1_555
Ba0 O24 2.954478 1_555
Ba0 O8 3.077887 1_555
Ba0 O9 3.077887 1_554
Ba0 O6 3.077887 1_554
Ba0 O7 3.077887 1_555
Ba0 O16 3.233775 1_554
Ba0 O22 3.233775 1_555
Ba0 O23 3.233775 1_554
Ba0 O17 3.233775 1_555
Ba1 O14 2.803064 1_555
Ba1 O15 2.803064 1_445
Ba1 O26 2.954478 1_455
Ba1 O27 2.954478 1_545
Ba1 O10 3.077887 1_455
Ba1 O5 3.077887 1_545
Ba1 O4 3.077887 1_455
Ba1 O11 3.077887 1_545
Ba1 O20 3.233775 1_445
Ba1 O19 3.233775 1_445
Ba1 O18 3.233775 1_555
Ba1 O21 3.233775 1_555
Ni0 O0 2.040710 1_655
Ni0 O16 2.050059 1_654
Ni0 O7 2.061402 1_555
Ni0 O17 2.061811 1_555
Ni0 O24 2.077321 1_555
Ni0 O4 2.120698 1_555
Ni1 O1 2.040710 1_455
Ni1 O17 2.050059 1_456
Ni1 O9 2.061402 1_555
Ni1 O16 2.061811 1_555
Ni1 O25 2.077321 1_556
Ni1 O5 2.120698 1_555
Ni2 O2 2.040710 1_545
Ni2 O18 2.050059 1_555
Ni2 O10 2.061402 1_555
Ni2 O20 2.061811 1_545
Ni2 O26 2.077321 1_555
Ni2 O6 2.120698 1_555
Ni3 O0 2.040710 1_655
Ni3 O19 2.050059 1_555
Ni3 O4 2.061402 1_555
Ni3 O21 2.061811 1_655
Ni3 O26 2.077321 1_555
Ni3 O7 2.120698 1_555
Ni4 O3 2.040710 1_565
Ni4 O20 2.050059 1_555
Ni4 O11 2.061402 1_555
Ni4 O18 2.061811 1_565
Ni4 O27 2.077321 1_555
Ni4 O8 2.120698 1_555
Ni5 O1 2.040710 1_455
Ni5 O21 2.050059 1_555
Ni5 O5 2.061402 1_555
Ni5 O19 2.061811 1_455
Ni5 O27 2.077321 1_555
Ni5 O9 2.120698 1_555
Ni6 O2 2.040710 1_545
Ni6 O22 2.050059 1_546
Ni6 O6 2.061402 1_555
Ni6 O23 2.061811 1_555
Ni6 O24 2.077321 1_556
Ni6 O10 2.120698 1_555
Ni7 O3 2.040710 1_565
Ni7 O23 2.050059 1_564
Ni7 O8 2.061402 1_555
Ni7 O22 2.061811 1_555
Ni7 O25 2.077321 1_555
Ni7 O11 2.120698 1_555
O0 Sc4 2.048820 1_555
O0 Sc7 2.048820 1_555
O1 Sc9 2.048820 1_555
O1 Sc5 2.048820 1_555
O2 Sc6 2.048820 1_555
O2 Sc10 2.048820 1_555
O3 Sc11 2.048820 1_555
O3 Sc8 2.048820 1_555
O4 Sc8 2.096862 1_555
O4 Sc0 2.129932 1_655
O5 Sc6 2.096862 1_555
O5 Sc1 2.129932 1_455
O6 Sc5 2.096862 1_555
O6 Sc2 2.129932 1_555
O7 Sc11 2.096862 1_555
O7 Sc3 2.129932 1_555
O8 Sc4 2.096862 1_555
O8 Sc3 2.129932 1_555
O9 Sc10 2.096862 1_555
O9 Sc2 2.129932 1_555
O10 Sc9 2.096862 1_555
O10 Sc1 2.129932 1_545
O11 Sc7 2.096862 1_555
O11 Sc0 2.129932 1_565
O12 Sc0 2.012619 1_555
O12 Sc11 2.058740 1_555
O12 Sc4 2.058740 1_555
O13 Sc1 2.012619 1_555
O13 Sc10 2.058740 1_555
O13 Sc5 2.058740 1_555
O14 Sc2 2.012619 1_555
O14 Sc6 2.058740 1_545
O14 Sc9 2.058740 1_455
O15 Sc3 2.012619 1_555
O15 Sc8 2.058740 1_565
O15 Sc7 2.058740 1_655
O16 Sc9 2.104754 1_455
O16 Sc0 2.128587 1_556
O17 Sc7 2.104754 1_655
O17 Sc1 2.128587 1_554
O18 Sc11 2.104754 1_555
O18 Sc2 2.128587 1_555
O19 Sc5 2.104754 1_555
O19 Sc3 2.128587 1_555
O20 Sc10 2.104754 1_555
O20 Sc3 2.128587 1_555
O21 Sc4 2.104754 1_555
O21 Sc2 2.128587 1_555
O22 Sc8 2.104754 1_565
O22 Sc1 2.128587 1_554
O23 Sc6 2.104754 1_545
O23 Sc0 2.128587 1_556
O24 Sc8 2.190057 1_555
O24 Sc9 2.190057 1_554
O25 Sc7 2.190057 1_555
O25 Sc6 2.190057 1_554
O26 Sc11 2.190057 1_555
O26 Sc5 2.190057 1_555
O27 Sc4 2.190057 1_555
O27 Sc10 2.190057 1_555
O28 Sc8 2.313199 1_455
O28 Sc7 2.313199 1_545
O28 Sc6 2.313199 1_544
O28 Sc9 2.313199 1_454
O28 Sc0 2.414763 1_555
O28 Sc1 2.414763 1_444
O29 Sc5 2.313199 1_555
O29 Sc10 2.313199 1_555
O29 Sc4 2.313199 1_555
O29 Sc11 2.313199 1_555
O29 Sc3 2.414763 1_555
O29 Sc2 2.414763 1_555
