# generated using pymatgen
data_Rb2GaB5(H4O7)2
_symmetry_space_group_name_H-M   'P 1'
_cell_length_a   7.18458800
_cell_length_b   7.18458800
_cell_length_c   13.97907800
_cell_angle_alpha   90.00000000
_cell_angle_beta   90.00000000
_cell_angle_gamma   96.31623573
_symmetry_Int_Tables_number   1
_chemical_formula_structural   Rb2GaB5(H4O7)2
_chemical_formula_sum   'Rb4 Ga2 B10 H16 O28'
_cell_volume   717.19621114
_cell_formula_units_Z   2
loop_
 _symmetry_equiv_pos_site_id
 _symmetry_equiv_pos_as_xyz
  1  'x, y, z'
loop_
 _atom_site_type_symbol
 _atom_site_label
 _atom_site_symmetry_multiplicity
 _atom_site_fract_x
 _atom_site_fract_y
 _atom_site_fract_z
 _atom_site_occupancy
  Rb  Rb0  1  0.61917200  0.08426800  0.15626500  1
  Rb  Rb1  1  0.08426800  0.61917200  0.84373500  1
  Rb  Rb2  1  0.38082800  0.91573200  0.65626500  1
  Rb  Rb3  1  0.91573200  0.38082800  0.34373500  1
  Ga  Ga0  1  0.37221800  0.37221800  0.50000000  1
  Ga  Ga1  1  0.62778200  0.62778200  0.00000000  1
  B  B0  1  0.20062500  0.79937500  0.25000000  1
  B  B1  1  0.79937500  0.20062500  0.75000000  1
  B  B2  1  0.30565500  0.74153100  0.41822700  1
  B  B3  1  0.74153100  0.30565500  0.58177200  1
  B  B4  1  0.69434500  0.25846900  0.91822700  1
  B  B5  1  0.25846900  0.69434500  0.08177300  1
  B  B6  1  0.28373100  0.06337100  0.36873000  1
  B  B7  1  0.06337100  0.28373100  0.63127000  1
  B  B8  1  0.71626900  0.93662900  0.86873000  1
  B  B9  1  0.93662900  0.71626900  0.13127000  1
  H  H0  1  0.56513200  0.56467600  0.21625800  1
  H  H1  1  0.56467600  0.56513200  0.78374200  1
  H  H2  1  0.43486800  0.43532400  0.71625800  1
  H  H3  1  0.43532400  0.43486800  0.28374200  1
  H  H4  1  0.10197900  0.14141900  0.20308400  1
  H  H5  1  0.14141900  0.10197900  0.79691600  1
  H  H6  1  0.89802100  0.85858100  0.70308400  1
  H  H7  1  0.85858100  0.89802100  0.29691600  1
  H  H8  1  0.08931500  0.24284100  0.10560700  1
  H  H9  1  0.24284100  0.08931500  0.89439300  1
  H  H10  1  0.91068500  0.75715900  0.60560700  1
  H  H11  1  0.75715900  0.91068500  0.39439300  1
  H  H12  1  0.38780600  0.25569900  0.01615800  1
  H  H13  1  0.25569900  0.38780600  0.98384200  1
  H  H14  1  0.61219400  0.74430100  0.51615800  1
  H  H15  1  0.74430100  0.61219400  0.48384200  1
  O  O0  1  0.23790800  0.00065100  0.27747300  1
  O  O1  1  0.00065100  0.23790800  0.72252700  1
  O  O2  1  0.76209200  0.99934900  0.77747300  1
  O  O3  1  0.99934900  0.76209200  0.22252700  1
  O  O4  1  0.23783500  0.67755500  0.33143800  1
  O  O5  1  0.67755500  0.23783500  0.66856200  1
  O  O6  1  0.76216500  0.32244500  0.83143800  1
  O  O7  1  0.32244500  0.76216500  0.16856200  1
  O  O8  1  0.32464000  0.93489100  0.43937800  1
  O  O9  1  0.93489100  0.32464000  0.56062200  1
  O  O10  1  0.67536000  0.06510900  0.93937800  1
  O  O11  1  0.06510900  0.67536000  0.06062200  1
  O  O12  1  0.28895500  0.24971300  0.38924100  1
  O  O13  1  0.24971300  0.28895500  0.61075900  1
  O  O14  1  0.71104500  0.75028700  0.88924100  1
  O  O15  1  0.75028700  0.71104500  0.11075900  1
  O  O16  1  0.35854800  0.62919100  0.49014500  1
  O  O17  1  0.62919100  0.35854800  0.50985500  1
  O  O18  1  0.64145200  0.37080900  0.99014500  1
  O  O19  1  0.37080900  0.64145200  0.00985500  1
  O  O20  1  0.55540600  0.44459400  0.25000000  1
  O  O21  1  0.44459400  0.55540600  0.75000000  1
  O  O22  1  0.25352400  0.25352400  0.00000000  1
  O  O23  1  0.74647600  0.74647600  0.50000000  1
  O  O24  1  0.02081400  0.21860100  0.16597600  1
  O  O25  1  0.21860100  0.02081400  0.83402400  1
  O  O26  1  0.97918600  0.78139900  0.66597600  1
  O  O27  1  0.78139900  0.97918600  0.33402500  1
loop_
_geom_bond_atom_site_label_1
_geom_bond_atom_site_label_2
_geom_bond_distance
_geom_bond_site_symmetry_2
Ga0 O12 1.847681 1_555
Ga0 O13 1.847681 1_555
Ga0 O17 1.864710 1_555
Ga0 O16 1.864710 1_555
Ga1 O15 1.847681 1_555
Ga1 O14 1.847681 1_554
Ga1 O18 1.864710 1_554
Ga1 O19 1.864710 1_555
B0 O4 1.478172 1_555
B0 O7 1.478172 1_555
B0 O3 1.491702 1_455
B0 O0 1.491702 1_565
B1 O5 1.478172 1_555
B1 O6 1.478172 1_555
B1 O2 1.491702 1_545
B1 O1 1.491702 1_655
B2 O4 1.367969 1_555
B2 O16 1.368963 1_555
B2 O8 1.412177 1_555
B3 O5 1.367981 1_555
B3 O17 1.368952 1_555
B3 O9 1.412174 1_555
B4 O6 1.367969 1_555
B4 O18 1.368963 1_555
B4 O10 1.412177 1_555
B5 O7 1.367969 1_555
B5 O19 1.368963 1_555
B5 O11 1.412177 1_555
B6 O12 1.365622 1_555
B6 O0 1.380645 1_555
B6 O8 1.404810 1_545
B7 O13 1.365622 1_555
B7 O1 1.380645 1_555
B7 O9 1.404810 1_455
B8 O14 1.365622 1_555
B8 O2 1.380645 1_555
B8 O10 1.404810 1_565
B9 O15 1.365622 1_555
B9 O3 1.380645 1_555
B9 O11 1.404810 1_655
H0 O20 0.978990 1_555
H1 O21 0.978990 1_555
H2 O21 0.978990 1_555
H3 O20 0.978990 1_555
H4 O24 0.993871 1_555
H4 Rb3 3.020163 1_455
H5 O25 0.993871 1_555
H5 Rb2 3.020163 1_545
H6 O26 0.993871 1_555
H6 Rb1 3.020163 1_655
H7 O27 0.993878 1_555
H7 Rb0 3.020163 1_565
H8 O24 0.982780 1_555
H9 O25 0.982780 1_555
H10 O26 0.982780 1_555
H11 O27 0.982768 1_555
H12 O22 0.989298 1_555
H12 Rb0 2.926875 1_555
H13 O22 0.989298 1_556
H13 Rb1 2.926875 1_555
H14 O23 0.989298 1_555
H14 Rb2 2.926875 1_555
H15 O23 0.989298 1_555
H15 Rb3 2.926875 1_555
O0 Rb0 3.220727 1_555
O1 Rb1 3.220727 1_555
O2 Rb2 3.220727 1_555
O3 Rb3 3.220727 1_555
O4 Rb3 2.973932 1_455
O5 Rb2 2.973932 1_545
O6 Rb1 2.973932 1_655
O7 Rb0 2.973932 1_565
O8 Rb2 3.063729 1_555
O9 Rb3 3.063729 1_555
O10 Rb0 3.063729 1_556
O11 Rb1 3.063729 1_554
O12 Rb3 3.006331 1_455
O13 Rb2 3.006331 1_545
O14 Rb1 3.006331 1_655
O15 Rb0 3.006331 1_565
O16 Rb2 3.095789 1_555
O17 Rb3 3.095789 1_555
O18 Rb0 3.095789 1_556
O19 Rb1 3.095789 1_554
O20 Rb0 2.981553 1_555
O20 Rb3 2.981553 1_555
O21 Rb1 2.981553 1_555
O21 Rb2 2.981553 1_555
O24 Rb3 2.880422 1_455
O24 Rb0 2.943464 1_455
O25 Rb2 2.880422 1_545
O25 Rb1 2.943464 1_545
O26 Rb1 2.880422 1_655
O26 Rb2 2.943464 1_655
O27 Rb0 2.880434 1_565
O27 Rb3 2.943464 1_565
