# generated using pymatgen
data_Li4Nb2V3Co3O16
_symmetry_space_group_name_H-M   'P 1'
_cell_length_a   5.97526600
_cell_length_b   5.99027558
_cell_length_c   9.78316281
_cell_angle_alpha   90.33468402
_cell_angle_beta   89.88852597
_cell_angle_gamma   119.75460951
_symmetry_Int_Tables_number   1
_chemical_formula_structural   Li4Nb2V3Co3O16
_chemical_formula_sum   'Li4 Nb2 V3 Co3 O16'
_cell_volume   304.00090213
_cell_formula_units_Z   1
loop_
 _symmetry_equiv_pos_site_id
 _symmetry_equiv_pos_as_xyz
  1  'x, y, z'
loop_
 _atom_site_type_symbol
 _atom_site_label
 _atom_site_symmetry_multiplicity
 _atom_site_fract_x
 _atom_site_fract_y
 _atom_site_fract_z
 _atom_site_occupancy
  Li  Li0  1  0.33154100  0.65804300  0.10009200  1
  Li  Li1  1  0.00469500  0.01261000  0.00641800  1
  Li  Li2  1  0.00298200  0.01228100  0.50979200  1
  Li  Li3  1  0.65532200  0.30869300  0.60040500  1
  Nb  Nb0  1  0.34330000  0.68856700  0.49991200  1
  Nb  Nb1  1  0.66830700  0.34311500  0.00022400  1
  V  V0  1  0.17804100  0.35954200  0.76657500  1
  V  V1  1  0.34753200  0.18122500  0.28322600  1
  V  V2  1  0.82925700  0.18229100  0.27509100  1
  Co  Co0  1  0.17297600  0.83322100  0.79129600  1
  Co  Co1  1  0.66071300  0.83465000  0.79135500  1
  Co  Co2  1  0.82914600  0.65961200  0.28548600  1
  O  O0  1  0.17065100  0.84183900  0.40885900  1
  O  O1  1  0.46961200  0.94086300  0.65392300  1
  O  O2  1  0.31167500  0.62244500  0.89318200  1
  O  O3  1  0.01296800  0.02591100  0.70125500  1
  O  O4  1  0.99756800  0.01734900  0.19784600  1
  O  O5  1  0.66615300  0.83621300  0.40921700  1
  O  O6  1  0.02602500  0.48859100  0.65937200  1
  O  O7  1  0.46025600  0.48717100  0.65873900  1
  O  O8  1  0.83662200  0.67216100  0.91447300  1
  O  O9  1  0.16756000  0.34337500  0.40721900  1
  O  O10  1  0.51203400  0.47070800  0.15731000  1
  O  O11  1  0.96338600  0.47177600  0.15770200  1
  O  O12  1  0.67076500  0.30882000  0.39531700  1
  O  O13  1  0.33914500  0.17997900  0.90648500  1
  O  O14  1  0.52861700  0.03581100  0.15577300  1
  O  O15  1  0.84285100  0.18314100  0.90561500  1
loop_
_geom_bond_atom_site_label_1
_geom_bond_atom_site_label_2
_geom_bond_distance
_geom_bond_site_symmetry_2
Li0 O10 1.986649 1_555
Li0 O11 1.992004 1_455
Li0 O2 2.031712 1_554
Li0 O14 2.036518 1_565
Li1 O4 1.873542 1_455
Li1 O8 1.981406 1_444
Li1 O15 1.986777 1_454
Li1 O13 1.992447 1_554
Li2 O3 1.874192 1_555
Li2 O9 1.997798 1_555
Li2 O5 2.004963 1_445
Li2 O0 2.005215 1_545
Li3 O1 1.986155 1_545
Li3 O6 2.007227 1_655
Li3 O12 2.008338 1_555
Li3 O7 2.013571 1_555
Nb0 O5 1.897376 1_555
Nb0 O0 1.911545 1_555
Nb0 O1 1.992375 1_555
Nb0 O9 2.006829 1_555
Nb0 O6 2.284495 1_555
Nb0 O7 2.284989 1_555
Nb1 O8 1.910184 1_554
Nb1 O13 1.937314 1_554
Nb1 O15 1.959757 1_554
Nb1 O10 2.122958 1_555
Nb1 O11 2.173528 1_555
Nb1 O14 2.214455 1_555
Co0 O3 2.032964 1_565
Co0 O1 2.056715 1_555
Co0 O2 2.081133 1_555
Co0 O13 2.121400 1_565
Co0 O8 2.121751 1_455
Co0 O6 2.207406 1_555
Co1 O3 2.032453 1_665
Co1 O1 2.062405 1_555
Co1 O2 2.081640 1_555
Co1 O15 2.124684 1_565
Co1 O8 2.130055 1_555
Co1 O7 2.224949 1_555
Co2 O4 2.053691 1_565
Co2 O10 2.075506 1_555
Co2 O11 2.085132 1_555
Co2 O12 2.124696 1_555
Co2 O5 2.129796 1_555
Co2 O0 2.143735 1_655
O0 V1 2.156908 1_565
O2 V0 1.839792 1_555
O3 V0 1.845626 1_555
O4 V2 1.879729 1_555
O4 V1 1.998465 1_655
O5 V2 2.234004 1_565
O6 V0 1.797986 1_555
O7 V0 1.806645 1_555
O9 V1 2.142272 1_555
O9 V2 2.178937 1_455
O10 V1 1.954249 1_555
O11 V2 1.899612 1_555
O12 V2 1.884805 1_555
O12 V1 2.012522 1_555
O13 V0 2.237689 1_555
O14 V2 1.947110 1_555
O14 V1 2.098066 1_555
O15 V0 2.209932 1_655
