# generated using pymatgen
data_CoB10H19C11
_symmetry_space_group_name_H-M   'P 1'
_cell_length_a   7.24158800
_cell_length_b   9.23369192
_cell_length_c   12.21562285
_cell_angle_alpha   104.32076385
_cell_angle_beta   88.15180073
_cell_angle_gamma   101.49298980
_symmetry_Int_Tables_number   1
_chemical_formula_structural   CoB10H19C11
_chemical_formula_sum   'Co2 B20 H38 C22'
_cell_volume   775.44163659
_cell_formula_units_Z   2
loop_
 _symmetry_equiv_pos_site_id
 _symmetry_equiv_pos_as_xyz
  1  'x, y, z'
loop_
 _atom_site_type_symbol
 _atom_site_label
 _atom_site_symmetry_multiplicity
 _atom_site_fract_x
 _atom_site_fract_y
 _atom_site_fract_z
 _atom_site_occupancy
  Co  Co0  1  0.73984100  0.06228700  0.77058600  1
  Co  Co1  1  0.26015900  0.93771300  0.22941400  1
  B  B0  1  0.98169500  0.97010900  0.69361600  1
  B  B1  1  0.01830500  0.02989100  0.30638400  1
  B  B2  1  0.75423300  0.88010200  0.85956800  1
  B  B3  1  0.24576700  0.11989800  0.14043200  1
  B  B4  1  0.91476700  0.77372700  0.74200900  1
  B  B5  1  0.08523300  0.22627300  0.25799100  1
  B  B6  1  0.54280100  0.85311900  0.77628400  1
  B  B7  1  0.45719900  0.14688100  0.22371600  1
  B  B8  1  0.65857000  0.69914500  0.76840300  1
  B  B9  1  0.34143000  0.30085500  0.23159700  1
  B  B10  1  0.91258700  0.79209200  0.59073300  1
  B  B11  1  0.08741300  0.20790800  0.40926700  1
  B  B12  1  0.57153900  0.89898000  0.64033500  1
  B  B13  1  0.42846100  0.10102000  0.35966500  1
  B  B14  1  0.75215200  0.64986400  0.63401600  1
  B  B15  1  0.24784800  0.35013600  0.36598400  1
  B  B16  1  0.67923900  0.75830300  0.54686400  1
  B  B17  1  0.32076100  0.24169700  0.45313600  1
  B  B18  1  0.52631900  0.70572600  0.65237600  1
  B  B19  1  0.47368100  0.29427400  0.34762400  1
  H  H0  1  0.05078200  0.01923500  0.87855600  1
  H  H1  1  0.94921800  0.98076500  0.12144400  1
  H  H2  1  0.12704500  0.04308600  0.67099300  1
  H  H3  1  0.87295500  0.95691400  0.32900700  1
  H  H4  1  0.74238800  0.88853500  0.95923000  1
  H  H5  1  0.25761200  0.11146500  0.04077000  1
  H  H6  1  0.03685700  0.71922500  0.76954200  1
  H  H7  1  0.96314300  0.28077500  0.23045800  1
  H  H8  1  0.83144200  0.00557000  0.53994200  1
  H  H9  1  0.16855800  0.99443000  0.46005800  1
  H  H10  1  0.40412600  0.86926800  0.83096000  1
  H  H11  1  0.59587400  0.13073200  0.16904000  1
  H  H12  1  0.61139400  0.60481700  0.82153000  1
  H  H13  1  0.38860600  0.39518300  0.17847000  1
  H  H14  1  0.03494900  0.77194300  0.52402000  1
  H  H15  1  0.96505100  0.22805700  0.47598000  1
  H  H16  1  0.45673200  0.94750200  0.59932700  1
  H  H17  1  0.54326800  0.05249800  0.40067300  1
  H  H18  1  0.77431100  0.52173600  0.59768400  1
  H  H19  1  0.22568900  0.47826400  0.40231600  1
  H  H20  1  0.63995700  0.71971300  0.44849700  1
  H  H21  1  0.36004300  0.28028700  0.55150300  1
  H  H22  1  0.37856400  0.62102100  0.62426300  1
  H  H23  1  0.62143600  0.37897900  0.37573700  1
  H  H24  1  0.62411900  0.25067100  0.64642200  1
  H  H25  1  0.37588100  0.74932900  0.35357800  1
  H  H26  1  0.39377600  0.15042600  0.80042600  1
  H  H27  1  0.60622400  0.84957400  0.19957400  1
  H  H28  1  0.60125100  0.17260800  0.98638600  1
  H  H29  1  0.39874900  0.82739200  0.01361400  1
  H  H30  1  0.00766500  0.29486500  0.04444900  1
  H  H31  1  0.99233500  0.70513500  0.95555100  1
  H  H32  1  0.30581000  0.41168000  0.96880300  1
  H  H33  1  0.69419000  0.58832000  0.03119700  1
  H  H34  1  0.31717600  0.46700400  0.77929700  1
  H  H35  1  0.68282400  0.53299600  0.22070300  1
  H  H36  1  0.03190800  0.39770700  0.65611900  1
  H  H37  1  0.96809200  0.60229300  0.34388100  1
  C  C0  1  0.93766500  0.96278900  0.81656700  1
  C  C1  1  0.06233500  0.03721100  0.18343300  1
  C  C2  1  0.79731900  0.93593400  0.60095400  1
  C  C3  1  0.20268100  0.06406600  0.39904600  1
  C  C4  1  0.85350000  0.30424000  0.77996900  1
  C  C5  1  0.14650000  0.69576000  0.22003100  1
  C  C6  1  0.66699700  0.24783700  0.73019800  1
  C  C7  1  0.33300300  0.75216300  0.26980200  1
  C  C8  1  0.54407200  0.19519200  0.81234800  1
  C  C9  1  0.45592800  0.80480800  0.18765200  1
  C  C10  1  0.65453800  0.20522000  0.90992200  1
  C  C11  1  0.34546200  0.79478000  0.09007800  1
  C  C12  1  0.84605300  0.27675700  0.89205500  1
  C  C13  1  0.15394700  0.72324300  0.10794500  1
  C  C14  1  0.01226100  0.31472600  0.95988400  1
  C  C15  1  0.98773900  0.68527400  0.04011600  1
  C  C16  1  0.17692200  0.38035300  0.91708200  1
  C  C17  1  0.82307800  0.61964700  0.08291800  1
  C  C18  1  0.18392200  0.41118100  0.80814600  1
  C  C19  1  0.81607800  0.58881900  0.19185400  1
  C  C20  1  0.02600600  0.37339300  0.73920800  1
  C  C21  1  0.97399400  0.62660700  0.26079200  1
loop_
_geom_bond_atom_site_label_1
_geom_bond_atom_site_label_2
_geom_bond_distance
_geom_bond_site_symmetry_2
B0 H2 1.195431 1_665
B0 C0 1.540372 1_555
B0 C2 1.707749 1_555
B0 Co0 2.183538 1_565
B1 H3 1.195431 1_445
B1 C1 1.540372 1_555
B1 C3 1.707749 1_555
B1 Co1 2.183538 1_545
B2 H4 1.201913 1_555
B2 C0 1.540322 1_555
B2 Co0 2.236974 1_565
B3 H5 1.201913 1_555
B3 C1 1.540322 1_555
B3 Co1 2.236974 1_545
B4 H6 1.195108 1_655
B4 C0 1.735638 1_555
B5 H7 1.195108 1_455
B5 C1 1.735638 1_555
B6 H10 1.201640 1_555
B6 Co0 2.175549 1_565
B7 H11 1.201640 1_555
B7 Co1 2.175549 1_545
B8 H12 1.201364 1_555
B9 H13 1.201364 1_555
B10 H14 1.194997 1_655
B10 C2 1.682109 1_555
B11 H15 1.194997 1_455
B11 C3 1.682109 1_555
B12 H16 1.195495 1_555
B12 C2 1.682037 1_555
B12 Co0 2.120530 1_565
B13 H17 1.195495 1_555
B13 C3 1.682037 1_555
B13 Co1 2.120530 1_545
B14 H18 1.197389 1_555
B15 H19 1.197389 1_555
B16 H20 1.192311 1_555
B16 C2 1.673141 1_555
B17 H21 1.192311 1_555
B17 C3 1.673141 1_555
B18 H22 1.196608 1_555
B19 H23 1.196608 1_555
C0 H0 1.091187 1_665
C0 Co0 2.010835 1_565
C1 H1 1.091187 1_445
C1 Co1 2.010835 1_545
C2 H8 1.091721 1_565
C2 Co0 2.184078 1_565
C3 H9 1.091721 1_545
C3 Co1 2.184078 1_545
C4 C6 1.442556 1_555
C4 Co0 2.197387 1_555
C5 C7 1.442556 1_555
C5 Co1 2.197387 1_555
C6 H24 1.086913 1_555
C6 Co0 2.062089 1_555
C7 H25 1.086913 1_555
C7 Co1 2.062089 1_555
C8 H26 1.085270 1_555
C8 Co0 2.028060 1_555
C9 H27 1.085270 1_555
C9 Co1 2.028060 1_555
C10 H28 1.087030 1_555
C10 C12 1.447105 1_555
C10 Co0 2.041150 1_555
C11 H29 1.087030 1_555
C11 C13 1.447105 1_555
C11 Co1 2.041150 1_555
C12 C14 1.417953 1_655
C12 C4 1.450410 1_555
C12 Co0 2.174410 1_555
C13 C15 1.417953 1_455
C13 C5 1.450410 1_555
C13 Co1 2.174410 1_555
C14 H30 1.091296 1_556
C15 H31 1.091296 1_554
C16 H32 1.092720 1_555
C17 H33 1.092720 1_555
C18 H34 1.091223 1_555
C19 H35 1.091223 1_555
C20 H36 1.090197 1_555
C20 C4 1.419681 1_455
C21 H37 1.090197 1_555
C21 C5 1.419681 1_655
