# generated using pymatgen
data_La3Mg
_symmetry_space_group_name_H-M   'P 1'
_cell_length_a   7.56328600
_cell_length_b   11.59083504
_cell_length_c   12.22402642
_cell_angle_alpha   90.00000000
_cell_angle_beta   90.00000000
_cell_angle_gamma   90.00000000
_symmetry_Int_Tables_number   1
_chemical_formula_structural   La3Mg
_chemical_formula_sum   'La24 Mg8'
_cell_volume   1071.61683603
_cell_formula_units_Z   8
loop_
 _symmetry_equiv_pos_site_id
 _symmetry_equiv_pos_as_xyz
  1  'x, y, z'
loop_
 _atom_site_type_symbol
 _atom_site_label
 _atom_site_symmetry_multiplicity
 _atom_site_fract_x
 _atom_site_fract_y
 _atom_site_fract_z
 _atom_site_occupancy
  La  La0_0  1  0.00000000  0.00000000  0.00498399  1
  La  La0_1  1  0.00000000  0.00000000  0.50498399  1
  La  La0_2  1  0.00000000  0.50000000  0.00498399  1
  La  La0_3  1  0.00000000  0.50000000  0.50498399  1
  La  La0_4  1  0.50000000  0.00000000  0.00498399  1
  La  La0_5  1  0.50000000  0.00000000  0.50498399  1
  La  La0_6  1  0.50000000  0.50000000  0.00498399  1
  La  La0_7  1  0.50000000  0.50000000  0.50498399  1
  La  La1_0  1  0.25000000  0.00000000  0.22541543  1
  La  La1_1  1  0.25000000  0.00000000  0.72541543  1
  La  La1_2  1  0.25000000  0.50000000  0.22541543  1
  La  La1_3  1  0.25000000  0.50000000  0.72541543  1
  La  La1_4  1  0.75000000  0.00000000  0.22541543  1
  La  La1_5  1  0.75000000  0.00000000  0.72541543  1
  La  La1_6  1  0.75000000  0.50000000  0.22541543  1
  La  La1_7  1  0.75000000  0.50000000  0.72541543  1
  La  La2_0  1  0.25000000  0.25000000  0.43163577  1
  La  La2_1  1  0.25000000  0.25000000  0.93163577  1
  La  La2_2  1  0.25000000  0.75000000  0.43163577  1
  La  La2_3  1  0.25000000  0.75000000  0.93163577  1
  La  La2_4  1  0.75000000  0.25000000  0.43163577  1
  La  La2_5  1  0.75000000  0.25000000  0.93163577  1
  La  La2_6  1  0.75000000  0.75000000  0.43163577  1
  La  La2_7  1  0.75000000  0.75000000  0.93163577  1
  Mg  Mg0_0  1  0.00000000  0.25000000  0.17129731  1
  Mg  Mg0_1  1  0.00000000  0.25000000  0.67129731  1
  Mg  Mg0_2  1  0.00000000  0.75000000  0.17129731  1
  Mg  Mg0_3  1  0.00000000  0.75000000  0.67129731  1
  Mg  Mg0_4  1  0.50000000  0.25000000  0.17129731  1
  Mg  Mg0_5  1  0.50000000  0.25000000  0.67129731  1
  Mg  Mg0_6  1  0.50000000  0.75000000  0.17129731  1
  Mg  Mg0_7  1  0.50000000  0.75000000  0.67129731  1
loop_
_geom_bond_atom_site_label_1
_geom_bond_atom_site_label_2
_geom_bond_distance
_geom_bond_site_symmetry_2
La0_0 La1_4 3.291786 1_455
La0_0 La1_0 3.291786 1_555
La0_0 Mg0_0 3.539757 1_555
La0_0 Mg0_2 3.539757 1_545
La0_0 La2_5 3.574330 1_454
La0_0 La2_1 3.574330 1_554
La0_0 La2_7 3.574330 1_444
La0_0 La2_3 3.574330 1_544
La0_0 La0_4 3.781643 1_555
La0_0 La0_4 3.781643 1_455
La0_0 La1_5 3.905662 1_454
La0_0 La1_1 3.905662 1_554
La0_1 La1_5 3.291786 1_455
La0_1 La1_1 3.291786 1_555
La0_1 Mg0_1 3.539757 1_555
La0_1 Mg0_3 3.539757 1_545
La0_1 La2_4 3.574330 1_455
La0_1 La2_0 3.574330 1_555
La0_1 La2_6 3.574330 1_445
La0_1 La2_2 3.574330 1_545
La0_1 La0_5 3.781643 1_455
La0_1 La0_5 3.781643 1_555
La0_1 La1_4 3.905662 1_455
La0_1 La1_0 3.905662 1_555
La0_2 La1_6 3.291786 1_455
La0_2 La1_2 3.291786 1_555
La0_2 Mg0_0 3.539757 1_555
La0_2 Mg0_2 3.539757 1_555
La0_2 La2_5 3.574330 1_454
La0_2 La2_7 3.574330 1_454
La0_2 La2_3 3.574330 1_554
La0_2 La2_1 3.574330 1_554
La0_2 La0_6 3.781643 1_455
La0_2 La0_6 3.781643 1_555
La0_2 La1_7 3.905662 1_454
La0_2 La1_3 3.905662 1_554
La0_3 La1_7 3.291786 1_455
La0_3 La1_3 3.291786 1_555
La0_3 Mg0_3 3.539757 1_555
La0_3 Mg0_1 3.539757 1_555
La0_3 La2_6 3.574330 1_455
La0_3 La2_4 3.574330 1_455
La0_3 La2_0 3.574330 1_555
La0_3 La2_2 3.574330 1_555
La0_3 La0_7 3.781643 1_555
La0_3 La0_7 3.781643 1_455
La0_3 La1_6 3.905662 1_455
La0_3 La1_2 3.905662 1_555
La0_4 La1_0 3.291786 1_555
La0_4 La1_4 3.291786 1_555
La0_4 Mg0_4 3.539757 1_555
La0_4 Mg0_6 3.539757 1_545
La0_4 La2_1 3.574330 1_554
La0_4 La2_5 3.574330 1_554
La0_4 La2_3 3.574330 1_544
La0_4 La2_7 3.574330 1_544
La0_4 La1_1 3.905662 1_554
La0_4 La1_5 3.905662 1_554
La0_5 La1_1 3.291786 1_555
La0_5 La1_5 3.291786 1_555
La0_5 Mg0_5 3.539757 1_555
La0_5 Mg0_7 3.539757 1_545
La0_5 La2_0 3.574330 1_555
La0_5 La2_4 3.574330 1_555
La0_5 La2_2 3.574330 1_545
La0_5 La2_6 3.574330 1_545
La0_5 La1_0 3.905662 1_555
La0_5 La1_4 3.905662 1_555
La0_6 La1_2 3.291786 1_555
La0_6 La1_6 3.291786 1_555
La0_6 Mg0_6 3.539757 1_555
La0_6 Mg0_4 3.539757 1_555
La0_6 La2_3 3.574330 1_554
La0_6 La2_1 3.574330 1_554
La0_6 La2_5 3.574330 1_554
La0_6 La2_7 3.574330 1_554
La0_6 La1_3 3.905662 1_554
La0_6 La1_7 3.905662 1_554
La0_7 La1_3 3.291786 1_555
La0_7 La1_7 3.291786 1_555
La0_7 Mg0_5 3.539757 1_555
La0_7 Mg0_7 3.539757 1_555
La0_7 La2_0 3.574330 1_555
La0_7 La2_2 3.574330 1_555
La0_7 La2_6 3.574330 1_555
La0_7 La2_4 3.574330 1_555
La0_7 La1_2 3.905662 1_555
La0_7 La1_6 3.905662 1_555
La1_0 Mg0_0 3.522720 1_555
La1_0 Mg0_4 3.522720 1_555
La1_0 Mg0_2 3.522720 1_545
La1_0 Mg0_6 3.522720 1_545
La1_0 La1_4 3.781643 1_455
La1_0 La1_4 3.781643 1_555
La1_0 La2_0 3.840751 1_555
La1_0 La2_2 3.840751 1_545
La1_1 Mg0_5 3.522720 1_555
La1_1 Mg0_1 3.522720 1_555
La1_1 Mg0_7 3.522720 1_545
La1_1 Mg0_3 3.522720 1_545
La1_1 La1_5 3.781643 1_455
La1_1 La1_5 3.781643 1_555
La1_1 La2_1 3.840751 1_555
La1_1 La2_3 3.840751 1_545
La1_2 Mg0_0 3.522720 1_555
La1_2 Mg0_4 3.522720 1_555
La1_2 Mg0_2 3.522720 1_555
La1_2 Mg0_6 3.522720 1_555
La1_2 La1_6 3.781643 1_455
La1_2 La1_6 3.781643 1_555
La1_2 La2_0 3.840751 1_555
La1_2 La2_2 3.840751 1_555
La1_3 Mg0_5 3.522720 1_555
La1_3 Mg0_3 3.522720 1_555
La1_3 Mg0_7 3.522720 1_555
La1_3 Mg0_1 3.522720 1_555
La1_3 La1_7 3.781643 1_455
La1_3 La1_7 3.781643 1_555
La1_3 La2_1 3.840751 1_555
La1_3 La2_3 3.840751 1_555
La1_4 Mg0_0 3.522720 1_655
La1_4 Mg0_4 3.522720 1_555
La1_4 Mg0_2 3.522720 1_645
La1_4 Mg0_6 3.522720 1_545
La1_4 La2_4 3.840751 1_555
La1_4 La2_6 3.840751 1_545
La1_5 Mg0_1 3.522720 1_655
La1_5 Mg0_3 3.522720 1_645
La1_5 Mg0_5 3.522720 1_555
La1_5 Mg0_7 3.522720 1_545
La1_5 La2_5 3.840751 1_555
La1_5 La2_7 3.840751 1_545
La1_6 Mg0_2 3.522720 1_655
La1_6 Mg0_0 3.522720 1_655
La1_6 Mg0_6 3.522720 1_555
La1_6 Mg0_4 3.522720 1_555
La1_6 La2_6 3.840751 1_555
La1_6 La2_4 3.840751 1_555
La1_7 Mg0_3 3.522720 1_655
La1_7 Mg0_1 3.522720 1_655
La1_7 Mg0_7 3.522720 1_555
La1_7 Mg0_5 3.522720 1_555
La1_7 La2_5 3.840751 1_555
La1_7 La2_7 3.840751 1_555
La2_0 Mg0_5 3.486823 1_555
La2_0 Mg0_1 3.486823 1_555
La2_0 Mg0_0 3.701726 1_555
La2_0 Mg0_4 3.701726 1_555
La2_0 La2_4 3.781643 1_455
La2_0 La2_4 3.781643 1_555
La2_1 Mg0_4 3.486823 1_556
La2_1 Mg0_0 3.486823 1_556
La2_1 Mg0_1 3.701726 1_555
La2_1 Mg0_5 3.701726 1_555
La2_1 La2_5 3.781643 1_455
La2_1 La2_5 3.781643 1_555
La2_2 Mg0_3 3.486823 1_555
La2_2 Mg0_7 3.486823 1_555
La2_2 Mg0_2 3.701726 1_555
La2_2 Mg0_6 3.701726 1_555
La2_2 La2_6 3.781643 1_455
La2_2 La2_6 3.781643 1_555
La2_3 Mg0_6 3.486823 1_556
La2_3 Mg0_2 3.486823 1_556
La2_3 Mg0_3 3.701726 1_555
La2_3 Mg0_7 3.701726 1_555
La2_3 La2_7 3.781643 1_455
La2_3 La2_7 3.781643 1_555
La2_4 Mg0_1 3.486823 1_655
La2_4 Mg0_5 3.486823 1_555
La2_4 Mg0_0 3.701726 1_655
La2_4 Mg0_4 3.701726 1_555
La2_5 Mg0_0 3.486823 1_656
La2_5 Mg0_4 3.486823 1_556
La2_5 Mg0_1 3.701726 1_655
La2_5 Mg0_5 3.701726 1_555
La2_6 Mg0_3 3.486823 1_655
La2_6 Mg0_7 3.486823 1_555
La2_6 Mg0_2 3.701726 1_655
La2_6 Mg0_6 3.701726 1_555
La2_7 Mg0_2 3.486823 1_656
La2_7 Mg0_6 3.486823 1_556
La2_7 Mg0_3 3.701726 1_655
La2_7 Mg0_7 3.701726 1_555
