# generated using pymatgen
data_LaTmO3
_symmetry_space_group_name_H-M   'P 1'
_cell_length_a   5.85709000
_cell_length_b   6.05144200
_cell_length_c   8.46815100
_cell_angle_alpha   90.00000000
_cell_angle_beta   90.00000000
_cell_angle_gamma   90.00000000
_symmetry_Int_Tables_number   1
_chemical_formula_structural   LaTmO3
_chemical_formula_sum   'La4 Tm4 O12'
_cell_volume   300.14379273
_cell_formula_units_Z   4
loop_
 _symmetry_equiv_pos_site_id
 _symmetry_equiv_pos_as_xyz
  1  'x, y, z'
loop_
 _atom_site_type_symbol
 _atom_site_label
 _atom_site_symmetry_multiplicity
 _atom_site_fract_x
 _atom_site_fract_y
 _atom_site_fract_z
 _atom_site_occupancy
  La  La0  1  0.98508000  0.04789100  0.25000000  1
  La  La1  1  0.48508000  0.45210900  0.75000000  1
  La  La2  1  0.51492000  0.54789100  0.25000000  1
  La  La3  1  0.01492000  0.95210900  0.75000000  1
  Tm  Tm0  1  0.00000000  0.50000000  0.00000000  1
  Tm  Tm1  1  0.50000000  0.00000000  0.00000000  1
  Tm  Tm2  1  0.50000000  0.00000000  0.50000000  1
  Tm  Tm3  1  0.00000000  0.50000000  0.50000000  1
  O  O0  1  0.30646400  0.69521000  0.56628200  1
  O  O1  1  0.80646400  0.80479000  0.43371800  1
  O  O2  1  0.19353600  0.19521000  0.93371800  1
  O  O3  1  0.69353600  0.30479000  0.06628200  1
  O  O4  1  0.69353600  0.30479000  0.43371800  1
  O  O5  1  0.19353600  0.19521000  0.56628200  1
  O  O6  1  0.80646400  0.80479000  0.06628200  1
  O  O7  1  0.30646400  0.69521000  0.93371800  1
  O  O8  1  0.12435600  0.44545700  0.25000000  1
  O  O9  1  0.62435600  0.05454300  0.75000000  1
  O  O10  1  0.37564400  0.94545700  0.25000000  1
  O  O11  1  0.87564400  0.55454300  0.75000000  1
loop_
_geom_bond_atom_site_label_1
_geom_bond_atom_site_label_2
_geom_bond_distance
_geom_bond_site_symmetry_2
La0 O10 2.370066 1_645
La0 O6 2.383066 1_545
La0 O1 2.383066 1_545
La0 O8 2.540385 1_655
La0 O4 2.784433 1_555
La0 O3 2.784433 1_555
La0 O2 3.075530 1_654
La0 O5 3.075530 1_655
La1 O11 2.370066 1_555
La1 O0 2.383066 1_555
La1 O7 2.383066 1_555
La1 O9 2.540385 1_555
La1 O5 2.784433 1_555
La1 O2 2.784433 1_555
La1 O3 3.075530 1_556
La1 O4 3.075530 1_555
La2 O8 2.370066 1_555
La2 O3 2.383066 1_555
La2 O4 2.383066 1_555
La2 O10 2.540385 1_555
La2 O1 2.784433 1_555
La2 O6 2.784433 1_555
La2 O7 3.075530 1_554
La2 O0 3.075530 1_555
La3 O9 2.370066 1_465
La3 O5 2.383066 1_565
La3 O2 2.383066 1_565
La3 O11 2.540385 1_455
La3 O0 2.784433 1_555
La3 O7 2.784433 1_555
La3 O6 3.075530 1_456
La3 O1 3.075530 1_455
O0 Tm3 2.220922 1_555
O0 Tm2 2.236488 1_565
O1 Tm2 2.220922 1_565
O1 Tm3 2.236488 1_655
O2 Tm1 2.220922 1_556
O2 Tm0 2.236488 1_556
O3 Tm0 2.220922 1_655
O3 Tm1 2.236488 1_555
O4 Tm3 2.220922 1_655
O4 Tm2 2.236488 1_555
O5 Tm2 2.220922 1_555
O5 Tm3 2.236488 1_555
O6 Tm1 2.220922 1_565
O6 Tm0 2.236488 1_655
O7 Tm0 2.220922 1_556
O7 Tm1 2.236488 1_566
O8 Tm3 2.263030 1_555
O8 Tm0 2.263030 1_555
O9 Tm2 2.263030 1_555
O9 Tm1 2.263030 1_556
O10 Tm2 2.263030 1_565
O10 Tm1 2.263030 1_565
O11 Tm3 2.263030 1_655
O11 Tm0 2.263030 1_656
