# generated using pymatgen
data_KCeMg30O32
_symmetry_space_group_name_H-M   'P 1'
_cell_length_a   8.67277300
_cell_length_b   8.67277300
_cell_length_c   8.66685900
_cell_angle_alpha   90.00000000
_cell_angle_beta   90.00000000
_cell_angle_gamma   90.00000000
_symmetry_Int_Tables_number   1
_chemical_formula_structural   KCeMg30O32
_chemical_formula_sum   'K1 Ce1 Mg30 O32'
_cell_volume   651.89505982
_cell_formula_units_Z   1
loop_
 _symmetry_equiv_pos_site_id
 _symmetry_equiv_pos_as_xyz
  1  'x, y, z'
loop_
 _atom_site_type_symbol
 _atom_site_label
 _atom_site_symmetry_multiplicity
 _atom_site_fract_x
 _atom_site_fract_y
 _atom_site_fract_z
 _atom_site_occupancy
  K  K0  1  0.00000000  0.00000000  0.00000000  1
  Ce  Ce0  1  0.50000000  0.50000000  0.00000000  1
  Mg  Mg0  1  0.50000000  0.00000000  0.00000000  1
  Mg  Mg1  1  0.00000000  0.50000000  0.00000000  1
  Mg  Mg2  1  0.00000000  0.00000000  0.50000000  1
  Mg  Mg3  1  0.50000000  0.00000000  0.50000000  1
  Mg  Mg4  1  0.00000000  0.50000000  0.50000000  1
  Mg  Mg5  1  0.50000000  0.50000000  0.50000000  1
  Mg  Mg6  1  0.24245600  0.24245600  0.00000000  1
  Mg  Mg7  1  0.75754400  0.24245600  0.00000000  1
  Mg  Mg8  1  0.24245600  0.75754400  0.00000000  1
  Mg  Mg9  1  0.75754400  0.75754400  0.00000000  1
  Mg  Mg10  1  0.24842400  0.24842400  0.50000000  1
  Mg  Mg11  1  0.75157600  0.24842400  0.50000000  1
  Mg  Mg12  1  0.24842400  0.75157600  0.50000000  1
  Mg  Mg13  1  0.75157600  0.75157600  0.50000000  1
  Mg  Mg14  1  0.25007500  0.00000000  0.25215700  1
  Mg  Mg15  1  0.74992500  0.00000000  0.25215700  1
  Mg  Mg16  1  0.24114300  0.50000000  0.25776200  1
  Mg  Mg17  1  0.75885700  0.50000000  0.25776200  1
  Mg  Mg18  1  0.25007500  0.00000000  0.74784300  1
  Mg  Mg19  1  0.74992500  0.00000000  0.74784300  1
  Mg  Mg20  1  0.24114300  0.50000000  0.74223800  1
  Mg  Mg21  1  0.75885700  0.50000000  0.74223800  1
  Mg  Mg22  1  0.00000000  0.25007500  0.25215700  1
  Mg  Mg23  1  0.50000000  0.24114300  0.25776200  1
  Mg  Mg24  1  0.00000000  0.74992500  0.25215700  1
  Mg  Mg25  1  0.50000000  0.75885700  0.25776200  1
  Mg  Mg26  1  0.00000000  0.25007500  0.74784300  1
  Mg  Mg27  1  0.50000000  0.24114300  0.74223800  1
  Mg  Mg28  1  0.00000000  0.74992500  0.74784300  1
  Mg  Mg29  1  0.50000000  0.75885700  0.74223800  1
  O  O0  1  0.00000000  0.00000000  0.27366700  1
  O  O1  1  0.50000000  0.00000000  0.25638300  1
  O  O2  1  0.00000000  0.50000000  0.25638300  1
  O  O3  1  0.50000000  0.50000000  0.26528800  1
  O  O4  1  0.00000000  0.00000000  0.72633300  1
  O  O5  1  0.50000000  0.00000000  0.74361700  1
  O  O6  1  0.00000000  0.50000000  0.74361700  1
  O  O7  1  0.50000000  0.50000000  0.73471200  1
  O  O8  1  0.25090600  0.25090600  0.24905800  1
  O  O9  1  0.74909400  0.25090600  0.24905800  1
  O  O10  1  0.25090600  0.74909400  0.24905800  1
  O  O11  1  0.74909400  0.74909400  0.24905800  1
  O  O12  1  0.25090600  0.25090600  0.75094200  1
  O  O13  1  0.74909400  0.25090600  0.75094200  1
  O  O14  1  0.25090600  0.74909400  0.75094200  1
  O  O15  1  0.74909400  0.74909400  0.75094200  1
  O  O16  1  0.27221500  0.00000000  0.00000000  1
  O  O17  1  0.72778500  0.00000000  0.00000000  1
  O  O18  1  0.23822200  0.50000000  0.00000000  1
  O  O19  1  0.76177800  0.50000000  0.00000000  1
  O  O20  1  0.25459500  0.00000000  0.50000000  1
  O  O21  1  0.74540500  0.00000000  0.50000000  1
  O  O22  1  0.24919300  0.50000000  0.50000000  1
  O  O23  1  0.75080700  0.50000000  0.50000000  1
  O  O24  1  0.00000000  0.27221500  0.00000000  1
  O  O25  1  0.50000000  0.23822200  0.00000000  1
  O  O26  1  0.00000000  0.72778500  0.00000000  1
  O  O27  1  0.50000000  0.76177800  0.00000000  1
  O  O28  1  0.00000000  0.25459500  0.50000000  1
  O  O29  1  0.50000000  0.24919300  0.50000000  1
  O  O30  1  0.00000000  0.74540500  0.50000000  1
  O  O31  1  0.50000000  0.75080700  0.50000000  1
loop_
_geom_bond_atom_site_label_1
_geom_bond_atom_site_label_2
_geom_bond_distance
_geom_bond_site_symmetry_2
K0 O24 2.360859 1_555
K0 O16 2.360859 1_555
K0 O17 2.360859 1_455
K0 O26 2.360859 1_545
K0 O4 2.371833 1_554
K0 O0 2.371833 1_555
Ce0 O19 2.270341 1_555
Ce0 O27 2.270341 1_555
Ce0 O25 2.270341 1_555
Ce0 O18 2.270341 1_555
Ce0 O7 2.299214 1_554
Ce0 O3 2.299214 1_555
Mg0 O17 1.975528 1_555
Mg0 O16 1.975528 1_555
Mg0 O25 2.066045 1_555
Mg0 O27 2.066045 1_545
Mg0 O1 2.222035 1_555
Mg0 O5 2.222035 1_554
Mg1 O26 1.975528 1_555
Mg1 O24 1.975528 1_555
Mg1 O18 2.066045 1_555
Mg1 O19 2.066045 1_455
Mg1 O2 2.222035 1_555
Mg1 O6 2.222035 1_554
Mg2 O0 1.961596 1_555
Mg2 O4 1.961596 1_555
Mg2 O21 2.208045 1_455
Mg2 O20 2.208045 1_555
Mg2 O28 2.208045 1_555
Mg2 O30 2.208045 1_545
Mg3 O1 2.111394 1_555
Mg3 O5 2.111394 1_555
Mg3 O21 2.128342 1_555
Mg3 O20 2.128342 1_555
Mg3 O31 2.161194 1_545
Mg3 O29 2.161194 1_555
Mg4 O6 2.111394 1_555
Mg4 O2 2.111394 1_555
Mg4 O30 2.128342 1_555
Mg4 O28 2.128342 1_555
Mg4 O22 2.161194 1_555
Mg4 O23 2.161194 1_455
Mg5 O3 2.034216 1_555
Mg5 O7 2.034216 1_555
Mg5 O31 2.175192 1_555
Mg5 O22 2.175192 1_555
Mg5 O23 2.175192 1_555
Mg5 O29 2.175192 1_555
Mg6 O24 2.118546 1_555
Mg6 O16 2.118546 1_555
Mg6 O12 2.161037 1_554
Mg6 O8 2.161037 1_555
Mg6 O25 2.233922 1_555
Mg6 O18 2.233922 1_555
Mg7 O24 2.118546 1_655
Mg7 O17 2.118546 1_555
Mg7 O9 2.161037 1_555
Mg7 O13 2.161037 1_554
Mg7 O25 2.233922 1_555
Mg7 O19 2.233922 1_555
Mg8 O26 2.118546 1_555
Mg8 O16 2.118546 1_565
Mg8 O10 2.161037 1_555
Mg8 O14 2.161037 1_554
Mg8 O27 2.233922 1_555
Mg8 O18 2.233922 1_555
Mg9 O17 2.118546 1_565
Mg9 O26 2.118546 1_655
Mg9 O15 2.161037 1_554
Mg9 O11 2.161037 1_555
Mg9 O27 2.233922 1_555
Mg9 O19 2.233922 1_555
Mg10 O20 2.155190 1_555
Mg10 O28 2.155190 1_555
Mg10 O12 2.175092 1_555
Mg10 O8 2.175092 1_555
Mg10 O22 2.181872 1_555
Mg10 O29 2.181872 1_555
Mg11 O28 2.155190 1_655
Mg11 O21 2.155190 1_555
Mg11 O13 2.175092 1_555
Mg11 O9 2.175092 1_555
Mg11 O29 2.181872 1_555
Mg11 O23 2.181872 1_555
Mg12 O20 2.155190 1_565
Mg12 O30 2.155190 1_555
Mg12 O10 2.175092 1_555
Mg12 O14 2.175092 1_555
Mg12 O22 2.181872 1_555
Mg12 O31 2.181872 1_555
Mg13 O21 2.155190 1_565
Mg13 O30 2.155190 1_655
Mg13 O11 2.175092 1_555
Mg13 O15 2.175092 1_555
Mg13 O31 2.181872 1_555
Mg13 O23 2.181872 1_555
Mg14 O20 2.148378 1_555
Mg14 O1 2.167852 1_555
Mg14 O10 2.176228 1_545
Mg14 O8 2.176228 1_555
Mg14 O0 2.176841 1_555
Mg14 O16 2.193828 1_555
Mg15 O21 2.148378 1_555
Mg15 O1 2.167852 1_555
Mg15 O11 2.176228 1_545
Mg15 O9 2.176228 1_555
Mg15 O0 2.176841 1_655
Mg15 O17 2.193828 1_555
Mg16 O2 2.091413 1_555
Mg16 O22 2.100603 1_555
Mg16 O8 2.163310 1_555
Mg16 O10 2.163310 1_555
Mg16 O18 2.234131 1_555
Mg16 O3 2.245955 1_555
Mg17 O2 2.091413 1_655
Mg17 O23 2.100603 1_555
Mg17 O9 2.163310 1_555
Mg17 O11 2.163310 1_555
Mg17 O19 2.234131 1_555
Mg17 O3 2.245955 1_555
Mg18 O20 2.148378 1_555
Mg18 O5 2.167852 1_555
Mg18 O14 2.176228 1_545
Mg18 O12 2.176228 1_555
Mg18 O4 2.176841 1_555
Mg18 O16 2.193828 1_556
Mg19 O21 2.148378 1_555
Mg19 O5 2.167852 1_555
Mg19 O15 2.176228 1_545
Mg19 O13 2.176228 1_555
Mg19 O4 2.176841 1_655
Mg19 O17 2.193828 1_556
Mg20 O6 2.091413 1_555
Mg20 O22 2.100603 1_555
Mg20 O12 2.163310 1_555
Mg20 O14 2.163310 1_555
Mg20 O18 2.234131 1_556
Mg20 O7 2.245955 1_555
Mg21 O6 2.091413 1_655
Mg21 O23 2.100603 1_555
Mg21 O13 2.163310 1_555
Mg21 O15 2.163310 1_555
Mg21 O19 2.234131 1_556
Mg21 O7 2.245955 1_555
Mg22 O28 2.148378 1_555
Mg22 O2 2.167852 1_555
Mg22 O9 2.176228 1_455
Mg22 O8 2.176228 1_555
Mg22 O0 2.176841 1_555
Mg22 O24 2.193828 1_555
Mg23 O1 2.091413 1_555
Mg23 O29 2.100603 1_555
Mg23 O8 2.163310 1_555
Mg23 O9 2.163310 1_555
Mg23 O25 2.234131 1_555
Mg23 O3 2.245955 1_555
Mg24 O30 2.148378 1_555
Mg24 O2 2.167852 1_555
Mg24 O11 2.176228 1_455
Mg24 O10 2.176228 1_555
Mg24 O0 2.176841 1_565
Mg24 O26 2.193828 1_555
Mg25 O1 2.091413 1_565
Mg25 O31 2.100603 1_555
Mg25 O10 2.163310 1_555
Mg25 O11 2.163310 1_555
Mg25 O27 2.234131 1_555
Mg25 O3 2.245955 1_555
Mg26 O28 2.148378 1_555
Mg26 O6 2.167852 1_555
Mg26 O13 2.176228 1_455
Mg26 O12 2.176228 1_555
Mg26 O4 2.176841 1_555
Mg26 O24 2.193828 1_556
Mg27 O5 2.091413 1_555
Mg27 O29 2.100603 1_555
Mg27 O12 2.163310 1_555
Mg27 O13 2.163310 1_555
Mg27 O25 2.234131 1_556
Mg27 O7 2.245955 1_555
Mg28 O30 2.148378 1_555
Mg28 O6 2.167852 1_555
Mg28 O15 2.176228 1_455
Mg28 O14 2.176228 1_555
Mg28 O4 2.176841 1_565
Mg28 O26 2.193828 1_556
Mg29 O5 2.091413 1_565
Mg29 O31 2.100603 1_555
Mg29 O14 2.163310 1_555
Mg29 O15 2.163310 1_555
Mg29 O27 2.234131 1_556
Mg29 O7 2.245955 1_555
