# generated using pymatgen
data_Mg2SbMoO6
_symmetry_space_group_name_H-M   'P 1'
_cell_length_a   7.81609800
_cell_length_b   5.34283900
_cell_length_c   5.46457909
_cell_angle_alpha   89.40962457
_cell_angle_beta   90.00000000
_cell_angle_gamma   90.00000000
_symmetry_Int_Tables_number   1
_chemical_formula_structural   Mg2SbMoO6
_chemical_formula_sum   'Mg4 Sb2 Mo2 O12'
_cell_volume   228.18954589
_cell_formula_units_Z   2
loop_
 _symmetry_equiv_pos_site_id
 _symmetry_equiv_pos_as_xyz
  1  'x, y, z'
loop_
 _atom_site_type_symbol
 _atom_site_label
 _atom_site_symmetry_multiplicity
 _atom_site_fract_x
 _atom_site_fract_y
 _atom_site_fract_z
 _atom_site_occupancy
  Mg  Mg0  1  0.25000000  0.49257000  0.44487600  1
  Mg  Mg1  1  0.75000000  0.50743000  0.55512400  1
  Mg  Mg2  1  0.25000000  0.98702800  0.96868200  1
  Mg  Mg3  1  0.75000000  0.01297200  0.03131800  1
  Sb  Sb0  1  0.50000000  0.00000000  0.50000000  1
  Sb  Sb1  1  0.00000000  0.00000000  0.50000000  1
  Mo  Mo0  1  0.50000000  0.50000000  0.00000000  1
  Mo  Mo1  1  0.00000000  0.50000000  0.00000000  1
  O  O0  1  0.57064200  0.68639500  0.33579600  1
  O  O1  1  0.92863600  0.84317300  0.81366500  1
  O  O2  1  0.07064200  0.31360500  0.66420400  1
  O  O3  1  0.42863600  0.15682700  0.18633500  1
  O  O4  1  0.57136400  0.84317300  0.81366500  1
  O  O5  1  0.07136400  0.15682700  0.18633500  1
  O  O6  1  0.75000000  0.13780500  0.41659700  1
  O  O7  1  0.92935800  0.68639500  0.33579600  1
  O  O8  1  0.25000000  0.63274700  0.09433400  1
  O  O9  1  0.42935800  0.31360500  0.66420400  1
  O  O10  1  0.25000000  0.86219500  0.58340300  1
  O  O11  1  0.75000000  0.36725300  0.90566600  1
loop_
_geom_bond_atom_site_label_1
_geom_bond_atom_site_label_2
_geom_bond_distance
_geom_bond_site_symmetry_2
Mg0 O8 2.049570 1_555
Mg0 O2 2.071815 1_555
Mg0 O9 2.071815 1_555
Mg0 O10 2.122231 1_555
Mg1 O11 2.049570 1_555
Mg1 O0 2.071815 1_555
Mg1 O7 2.071815 1_555
Mg1 O6 2.122231 1_555
Mg2 O8 2.006895 1_556
Mg2 O5 2.051675 1_566
Mg2 O3 2.051675 1_566
Mg2 O10 2.215047 1_555
Mg3 O11 2.006895 1_554
Mg3 O4 2.051675 1_544
Mg3 O1 2.051675 1_544
Mg3 O6 2.215047 1_555
Mo0 O8 2.143481 1_555
Mo0 O11 2.143481 1_554
Mo0 O4 2.161310 1_554
Mo0 O3 2.161310 1_555
Mo0 O9 2.168286 1_554
Mo0 O0 2.168286 1_555
Mo1 O8 2.143481 1_555
Mo1 O11 2.143481 1_454
Mo1 O1 2.161310 1_454
Mo1 O5 2.161310 1_555
Mo1 O2 2.168286 1_554
Mo1 O7 2.168286 1_455
O0 Sb0 1.987069 1_565
O1 Sb1 1.980295 1_665
O2 Sb1 1.987069 1_555
O3 Sb0 1.980295 1_555
O4 Sb0 1.980295 1_565
O5 Sb1 1.980295 1_555
O6 Sb1 2.135675 1_655
O6 Sb0 2.135675 1_555
O7 Sb1 1.987069 1_665
O9 Sb0 1.987069 1_555
O10 Sb0 2.135675 1_565
O10 Sb1 2.135675 1_565
