# generated using pymatgen
data_Mn5BPd15
_symmetry_space_group_name_H-M   'P 1'
_cell_length_a   4.04474600
_cell_length_b   4.04474600
_cell_length_c   19.32144400
_cell_angle_alpha   90.00000000
_cell_angle_beta   90.00000000
_cell_angle_gamma   90.00000000
_symmetry_Int_Tables_number   1
_chemical_formula_structural   Mn5BPd15
_chemical_formula_sum   'Mn5 B1 Pd15'
_cell_volume   316.09824815
_cell_formula_units_Z   1
loop_
 _symmetry_equiv_pos_site_id
 _symmetry_equiv_pos_as_xyz
  1  'x, y, z'
loop_
 _atom_site_type_symbol
 _atom_site_label
 _atom_site_symmetry_multiplicity
 _atom_site_fract_x
 _atom_site_fract_y
 _atom_site_fract_z
 _atom_site_occupancy
  Mn  Mn0  1  0.00000000  0.00000000  0.99030700  1
  Mn  Mn1  1  0.00000000  0.00000000  0.20969300  1
  Mn  Mn2  1  0.00000000  0.00000000  0.40449500  1
  Mn  Mn3  1  0.00000000  0.00000000  0.60000000  1
  Mn  Mn4  1  0.00000000  0.00000000  0.79550500  1
  B  B0  1  0.50000000  0.50000000  0.10000000  1
  Pd  Pd0  1  0.00000000  0.50000000  0.10000000  1
  Pd  Pd1  1  0.00000000  0.50000000  0.30606000  1
  Pd  Pd2  1  0.00000000  0.50000000  0.50237500  1
  Pd  Pd3  1  0.00000000  0.50000000  0.69762500  1
  Pd  Pd4  1  0.00000000  0.50000000  0.89394000  1
  Pd  Pd5  1  0.50000000  0.50000000  0.99280000  1
  Pd  Pd6  1  0.50000000  0.50000000  0.20720000  1
  Pd  Pd7  1  0.50000000  0.50000000  0.40464900  1
  Pd  Pd8  1  0.50000000  0.50000000  0.60000000  1
  Pd  Pd9  1  0.50000000  0.50000000  0.79535100  1
  Pd  Pd10  1  0.50000000  0.00000000  0.10000000  1
  Pd  Pd11  1  0.50000000  0.00000000  0.30606000  1
  Pd  Pd12  1  0.50000000  0.00000000  0.50237500  1
  Pd  Pd13  1  0.50000000  0.00000000  0.69762500  1
  Pd  Pd14  1  0.50000000  0.00000000  0.89394000  1
loop_
_geom_bond_atom_site_label_1
_geom_bond_atom_site_label_2
_geom_bond_distance
_geom_bond_site_symmetry_2
Mn0 Pd4 2.748972 1_555
Mn0 Pd14 2.748972 1_455
Mn0 Pd14 2.748972 1_555
Mn0 Pd4 2.748972 1_545
Mn0 Pd5 2.860473 1_445
Mn0 Pd5 2.860473 1_545
Mn0 Pd5 2.860473 1_455
Mn0 Pd5 2.860473 1_555
Mn0 Pd0 2.929499 1_546
Mn0 Pd0 2.929499 1_556
Mn0 Pd10 2.929499 1_456
Mn0 Pd10 2.929499 1_556
Mn1 Pd1 2.748972 1_555
Mn1 Pd1 2.748972 1_545
Mn1 Pd11 2.748972 1_555
Mn1 Pd11 2.748972 1_455
Mn1 Pd6 2.860473 1_545
Mn1 Pd6 2.860473 1_445
Mn1 Pd6 2.860473 1_455
Mn1 Pd6 2.860473 1_555
Mn1 Pd10 2.929499 1_455
Mn1 Pd0 2.929499 1_545
Mn1 Pd0 2.929499 1_555
Mn1 Pd10 2.929499 1_555
Mn2 Pd12 2.768856 1_455
Mn2 Pd2 2.768856 1_555
Mn2 Pd12 2.768856 1_555
Mn2 Pd2 2.768856 1_545
Mn2 Pd11 2.776192 1_455
Mn2 Pd1 2.776192 1_555
Mn2 Pd1 2.776192 1_545
Mn2 Pd11 2.776192 1_555
Mn2 Pd7 2.860069 1_555
Mn2 Pd7 2.860069 1_445
Mn2 Pd7 2.860069 1_455
Mn2 Pd7 2.860069 1_545
Mn3 Pd3 2.765493 1_555
Mn3 Pd13 2.765493 1_455
Mn3 Pd13 2.765493 1_555
Mn3 Pd3 2.765493 1_545
Mn3 Pd2 2.765493 1_555
Mn3 Pd2 2.765493 1_545
Mn3 Pd12 2.765493 1_455
Mn3 Pd12 2.765493 1_555
Mn3 Pd8 2.860067 1_555
Mn3 Pd8 2.860067 1_545
Mn3 Pd8 2.860067 1_445
Mn3 Pd8 2.860067 1_455
Mn4 Pd3 2.768856 1_545
Mn4 Pd13 2.768856 1_455
Mn4 Pd3 2.768856 1_555
Mn4 Pd13 2.768856 1_555
Mn4 Pd14 2.776192 1_555
Mn4 Pd4 2.776192 1_545
Mn4 Pd4 2.776192 1_555
Mn4 Pd14 2.776192 1_455
Mn4 Pd9 2.860069 1_455
Mn4 Pd9 2.860069 1_545
Mn4 Pd9 2.860069 1_555
Mn4 Pd9 2.860069 1_445
B0 Pd10 2.022373 1_555
B0 Pd0 2.022373 1_655
B0 Pd10 2.022373 1_565
B0 Pd0 2.022373 1_555
B0 Pd5 2.071259 1_554
B0 Pd6 2.071259 1_555
Pd1 Pd7 2.778231 1_555
Pd1 Pd7 2.778231 1_455
Pd2 Pd8 2.765493 1_455
Pd2 Pd8 2.765493 1_555
Pd2 Pd7 2.766825 1_555
Pd2 Pd7 2.766825 1_455
Pd3 Pd8 2.765493 1_455
Pd3 Pd8 2.765493 1_555
Pd3 Pd9 2.766825 1_555
Pd3 Pd9 2.766825 1_455
Pd4 Pd9 2.778231 1_555
Pd4 Pd9 2.778231 1_455
Pd11 Pd7 2.778231 1_555
Pd11 Pd7 2.778231 1_545
Pd12 Pd8 2.765493 1_555
Pd12 Pd8 2.765493 1_545
Pd12 Pd7 2.766825 1_545
Pd12 Pd7 2.766825 1_555
Pd13 Pd8 2.765493 1_555
Pd13 Pd8 2.765493 1_545
Pd13 Pd9 2.766825 1_555
Pd13 Pd9 2.766825 1_545
Pd14 Pd9 2.778231 1_555
Pd14 Pd9 2.778231 1_545
