# generated using pymatgen
data_Rb2CdI4
_symmetry_space_group_name_H-M   'P 1'
_cell_length_a   8.21561611
_cell_length_b   8.41030450
_cell_length_c   10.15945535
_cell_angle_alpha   90.00000000
_cell_angle_beta   108.39866941
_cell_angle_gamma   90.00000000
_symmetry_Int_Tables_number   1
_chemical_formula_structural   Rb2CdI4
_chemical_formula_sum   'Rb4 Cd2 I8'
_cell_volume   666.09336297
_cell_formula_units_Z   2
loop_
 _symmetry_equiv_pos_site_id
 _symmetry_equiv_pos_as_xyz
  1  'x, y, z'
loop_
 _atom_site_type_symbol
 _atom_site_label
 _atom_site_symmetry_multiplicity
 _atom_site_fract_x
 _atom_site_fract_y
 _atom_site_fract_z
 _atom_site_occupancy
  Rb  Rb0  1  0.21637870  0.25000000  0.55231502  1
  Rb  Rb1  1  0.78362130  0.75000000  0.44768498  1
  Rb  Rb2  1  0.25674025  0.25000000  0.06621261  1
  Rb  Rb3  1  0.74325975  0.75000000  0.93378739  1
  Cd  Cd0  1  0.77549499  0.25000000  0.69982410  1
  Cd  Cd1  1  0.22450501  0.75000000  0.30017590  1
  I  I0  1  0.58947120  0.25000000  0.41657674  1
  I  I1  1  0.41052880  0.75000000  0.58342326  1
  I  I2  1  0.99302233  0.00708615  0.23904312  1
  I  I3  1  0.00697767  0.99291385  0.76095688  1
  I  I4  1  0.00697767  0.50708615  0.76095688  1
  I  I5  1  0.99302233  0.49291385  0.23904312  1
  I  I6  1  0.57794767  0.25000000  0.87877059  1
  I  I7  1  0.42205233  0.75000000  0.12122941  1
loop_
_geom_bond_atom_site_label_1
_geom_bond_atom_site_label_2
_geom_bond_distance
_geom_bond_site_symmetry_2
Cd0 I6 2.793155 1_555
Cd0 I0 2.800057 1_555
Cd0 I3 2.816356 1_645
Cd0 I4 2.816356 1_655
Cd1 I7 2.793155 1_555
Cd1 I1 2.800057 1_555
Cd1 I2 2.816356 1_465
Cd1 I5 2.816356 1_455
I0 Rb0 3.737026 1_555
I0 Rb2 3.741706 1_555
I1 Rb1 3.737026 1_555
I1 Rb3 3.741706 1_555
I2 Rb0 3.739486 1_655
I2 Rb2 3.788464 1_655
I2 Rb1 3.798637 1_545
I2 Rb3 3.806062 1_544
I3 Rb1 3.739486 1_455
I3 Rb3 3.788464 1_455
I3 Rb0 3.798637 1_565
I3 Rb2 3.806062 1_566
I4 Rb1 3.739486 1_455
I4 Rb3 3.788464 1_455
I4 Rb0 3.798637 1_555
I4 Rb2 3.806062 1_556
I5 Rb0 3.739486 1_655
I5 Rb2 3.788464 1_655
I5 Rb1 3.798637 1_555
I5 Rb3 3.806062 1_554
I6 Rb0 3.688457 1_555
I6 Rb2 3.709787 1_556
I7 Rb1 3.688457 1_555
I7 Rb3 3.709787 1_554
