# generated using pymatgen
data_La2TiCo16
_symmetry_space_group_name_H-M   'P 1'
_cell_length_a   6.38763665
_cell_length_b   6.38763701
_cell_length_c   6.38763665
_cell_angle_alpha   83.14700373
_cell_angle_beta   83.14700736
_cell_angle_gamma   83.14700373
_symmetry_Int_Tables_number   1
_chemical_formula_structural   La2TiCo16
_chemical_formula_sum   'La2 Ti1 Co16'
_cell_volume   255.45298766
_cell_formula_units_Z   1
loop_
 _symmetry_equiv_pos_site_id
 _symmetry_equiv_pos_as_xyz
  1  'x, y, z'
loop_
 _atom_site_type_symbol
 _atom_site_label
 _atom_site_symmetry_multiplicity
 _atom_site_fract_x
 _atom_site_fract_y
 _atom_site_fract_z
 _atom_site_occupancy
  La  La0  1  0.65464100  0.65464100  0.65464100  1
  La  La1  1  0.35134700  0.35134700  0.35134700  1
  Ti  Ti0  1  0.09300500  0.09300500  0.09300500  1
  Co  Co0  1  0.71177900  0.99820300  0.28741400  1
  Co  Co1  1  0.99820300  0.28741400  0.71177900  1
  Co  Co2  1  0.28741400  0.71177900  0.99820300  1
  Co  Co3  1  0.99820300  0.71177900  0.28741400  1
  Co  Co4  1  0.71177900  0.28741400  0.99820300  1
  Co  Co5  1  0.28741400  0.99820300  0.71177900  1
  Co  Co6  1  0.99820900  0.50516400  0.99820900  1
  Co  Co7  1  0.50516400  0.99820900  0.99820900  1
  Co  Co8  1  0.99820900  0.99820900  0.50516400  1
  Co  Co9  1  0.34331500  0.34331500  0.85238900  1
  Co  Co10  1  0.34331500  0.85238900  0.34331500  1
  Co  Co11  1  0.85238900  0.34331500  0.34331500  1
  Co  Co12  1  0.65885200  0.65885200  0.14585100  1
  Co  Co13  1  0.65885200  0.14585100  0.65885200  1
  Co  Co14  1  0.14585100  0.65885200  0.65885200  1
  Co  Co15  1  0.90205900  0.90205900  0.90205900  1
loop_
_geom_bond_atom_site_label_1
_geom_bond_atom_site_label_2
_geom_bond_distance
_geom_bond_site_symmetry_2
La0 La1 3.734548 1_555
La1 Ti0 3.181041 1_555
Co0 Co7 2.395053 1_554
Co0 Co8 2.426816 1_555
Co0 Co3 2.428137 1_555
Co0 Co4 2.451763 1_564
Co0 Co12 2.519185 1_555
Co0 Co11 2.555523 1_565
Co0 Co10 2.603410 1_555
Co0 Co13 2.626699 1_565
Co0 Ti0 2.699903 1_665
Co0 Co15 2.717005 1_554
Co0 La0 3.034792 1_555
Co0 La1 3.051542 1_565
Co1 Co8 2.395054 1_545
Co1 Co6 2.426816 1_555
Co1 Co4 2.428137 1_555
Co1 Co5 2.451763 1_645
Co1 Co13 2.519185 1_555
Co1 Co9 2.555523 1_655
Co1 Co11 2.603409 1_555
Co1 Co14 2.626699 1_655
Co1 Ti0 2.699902 1_656
Co1 Co15 2.717005 1_545
Co1 La0 3.034792 1_555
Co1 La1 3.051542 1_655
Co2 Co6 2.395054 1_455
Co2 Co7 2.426816 1_555
Co2 Co5 2.428137 1_555
Co2 Co3 2.451763 1_456
Co2 Co9 2.603410 1_555
Co2 Ti0 2.699903 1_566
Co2 La0 3.034792 1_555
Co2 La1 3.051542 1_556
Co3 Co6 2.395054 1_554
Co3 Co8 2.426816 1_555
Co3 Ti0 2.699903 1_665
Co3 La0 3.034792 1_555
Co3 La1 3.051542 1_655
Co4 Co7 2.395054 1_545
Co4 Co6 2.426816 1_555
Co4 Co9 2.603409 1_555
Co4 Ti0 2.699902 1_656
Co4 La0 3.034792 1_555
Co4 La1 3.051542 1_556
Co5 Co8 2.395053 1_455
Co5 Co7 2.426816 1_555
Co5 Co9 2.555523 1_565
Co5 Ti0 2.699903 1_566
Co5 La0 3.034792 1_555
Co5 La1 3.051542 1_565
Co6 Co9 2.447807 1_655
Co6 Ti0 2.644080 1_656
Co6 La0 3.270066 1_555
Co6 La1 3.361301 1_656
Co7 Co9 2.447807 1_565
Co7 Ti0 2.644080 1_566
Co7 La0 3.270066 1_555
Co7 La1 3.361302 1_566
Co8 Ti0 2.644080 1_665
Co8 La0 3.270066 1_555
Co8 La1 3.361302 1_665
Co9 Ti0 2.629132 1_556
Co9 La0 3.041337 1_555
Co9 La1 3.189131 1_555
Co9 La1 3.200304 1_556
Co10 Co7 2.447807 1_554
Co10 Co8 2.447807 1_455
Co10 Co14 2.520403 1_555
Co10 Co12 2.520403 1_555
Co10 Co2 2.555523 1_554
Co10 Co3 2.555523 1_455
Co10 Co5 2.603410 1_555
Co10 Ti0 2.629132 1_565
Co10 La0 3.041337 1_555
Co10 La1 3.189131 1_555
Co10 La1 3.200304 1_565
Co11 Co6 2.447807 1_554
Co11 Co8 2.447807 1_545
Co11 Co12 2.520403 1_555
Co11 Co13 2.520403 1_555
Co11 Co4 2.555523 1_554
Co11 Co3 2.603410 1_555
Co11 Ti0 2.629132 1_655
Co11 La0 3.041337 1_555
Co11 La1 3.189131 1_555
Co11 La1 3.200304 1_655
Co12 Co6 2.403593 1_554
Co12 Co7 2.403593 1_554
Co12 Co3 2.519185 1_555
Co12 Co15 2.583246 1_554
Co12 Co2 2.626699 1_554
Co12 Co4 2.626699 1_554
Co12 La1 3.021514 1_555
Co12 La0 3.144341 1_554
Co12 La0 3.243790 1_555
Co13 Co8 2.403593 1_545
Co13 Co7 2.403593 1_545
Co13 Co4 2.519185 1_555
Co13 Co9 2.520403 1_555
Co13 Co15 2.583246 1_545
Co13 Co5 2.626699 1_545
Co13 La1 3.021514 1_555
Co13 La0 3.144341 1_545
Co13 La0 3.243790 1_555
Co14 Co6 2.403593 1_455
Co14 Co8 2.403593 1_455
Co14 Co2 2.519185 1_555
Co14 Co5 2.519185 1_555
Co14 Co9 2.520403 1_555
Co14 Co15 2.583246 1_455
Co14 Co3 2.626699 1_455
Co14 La1 3.021514 1_555
Co14 La0 3.144341 1_455
Co14 La0 3.243790 1_555
Co15 Ti0 2.351174 1_666
Co15 Co7 2.555114 1_555
Co15 Co8 2.555114 1_555
Co15 Co6 2.555114 1_555
Co15 Co3 2.717005 1_556
Co15 Co2 2.717005 1_655
Co15 Co5 2.717005 1_655
Co15 Co4 2.717005 1_565
Co15 La0 3.046530 1_555
