# generated using pymatgen
data_Li4MnCo2O7
_symmetry_space_group_name_H-M   'P 1'
_cell_length_a   2.97155100
_cell_length_b   5.96416844
_cell_length_c   14.31517202
_cell_angle_alpha   82.94021351
_cell_angle_beta   84.55545228
_cell_angle_gamma   85.98913098
_symmetry_Int_Tables_number   1
_chemical_formula_structural   Li4MnCo2O7
_chemical_formula_sum   'Li8 Mn2 Co4 O14'
_cell_volume   250.20940861
_cell_formula_units_Z   2
loop_
 _symmetry_equiv_pos_site_id
 _symmetry_equiv_pos_as_xyz
  1  'x, y, z'
loop_
 _atom_site_type_symbol
 _atom_site_label
 _atom_site_symmetry_multiplicity
 _atom_site_fract_x
 _atom_site_fract_y
 _atom_site_fract_z
 _atom_site_occupancy
  Li  Li0  1  0.00544900  0.49668900  0.99543900  1
  Li  Li1  1  0.57790900  0.79658800  0.85250500  1
  Li  Li2  1  0.13715800  0.07656000  0.72179200  1
  Li  Li3  1  0.42609300  0.21286800  0.14475900  1
  Li  Li4  1  0.85722900  0.92873700  0.28623200  1
  Li  Li5  1  0.28597100  0.64137500  0.42732300  1
  Li  Li6  1  0.71176700  0.35664000  0.57309700  1
  Li  Li7  1  0.56599500  0.27646900  0.85414400  1
  Mn  Mn0  1  0.00555300  0.00681000  0.99602600  1
  Mn  Mn1  1  0.71228900  0.85686800  0.57228400  1
  Co  Co0  1  0.13244500  0.55802100  0.72150800  1
  Co  Co1  1  0.28918300  0.14499800  0.42771200  1
  Co  Co2  1  0.85717400  0.42881400  0.28522900  1
  Co  Co3  1  0.43595600  0.71609900  0.14392500  1
  O  O0  1  0.52197700  0.77548400  0.00625400  1
  O  O1  1  0.06129400  0.02951000  0.86780500  1
  O  O2  1  0.61735800  0.34023500  0.71390700  1
  O  O3  1  0.89887300  0.47645500  0.14778200  1
  O  O4  1  0.32854000  0.19042700  0.29167200  1
  O  O5  1  0.75669400  0.90167600  0.43269100  1
  O  O6  1  0.18633700  0.61251400  0.58150500  1
  O  O7  1  0.47706300  0.21972200  0.00083700  1
  O  O8  1  0.08116300  0.54179900  0.84458800  1
  O  O9  1  0.66833600  0.81105600  0.70944700  1
  O  O10  1  0.96185500  0.95037900  0.13786900  1
  O  O11  1  0.38309100  0.66622500  0.27910700  1
  O  O12  1  0.81589800  0.38359000  0.42107500  1
  O  O13  1  0.24135100  0.10339300  0.56348700  1
loop_
_geom_bond_atom_site_label_1
_geom_bond_atom_site_label_2
_geom_bond_distance
_geom_bond_site_symmetry_2
Li0 O7 2.089017 1_556
Li0 O0 2.130656 1_456
Li0 O8 2.135350 1_555
Li0 O3 2.163426 1_456
Li0 O7 2.346997 1_456
Li0 O0 2.368564 1_556
Li1 O1 2.011750 1_565
Li1 O9 2.031976 1_555
Li1 O8 2.061715 1_655
Li1 O1 2.110616 1_665
Li1 O0 2.180145 1_556
Li1 O8 2.211063 1_555
Li2 O1 2.067308 1_555
Li2 O2 2.126333 1_455
Li2 O9 2.167108 1_545
Li2 O2 2.182130 1_555
Li2 O9 2.214420 1_445
Li2 O13 2.245352 1_555
Li3 O7 2.047014 1_555
Li3 O4 2.084576 1_555
Li3 O3 2.141738 1_455
Li3 O10 2.157477 1_545
Li3 O10 2.174751 1_445
Li3 O3 2.187290 1_555
Li4 O5 2.077421 1_555
Li4 O10 2.106407 1_555
Li4 O11 2.137819 1_655
Li4 O4 2.138648 1_565
Li4 O4 2.181714 1_665
Li4 O11 2.195881 1_555
Li5 O11 2.102264 1_555
Li5 O12 2.126008 1_555
Li5 O5 2.134135 1_455
Li5 O12 2.163549 1_455
Li5 O5 2.173978 1_555
Li5 O6 2.185977 1_555
Li6 O2 1.999863 1_555
Li6 O13 2.110504 1_655
Li6 O6 2.111243 1_555
Li6 O13 2.153418 1_555
Li6 O12 2.156551 1_555
Li6 O6 2.170369 1_655
Li7 O2 1.990065 1_555
Li7 O1 2.013569 1_655
Li7 O8 2.064900 1_555
Li7 O7 2.080052 1_556
Li7 O1 2.153947 1_555
Li7 O8 2.261055 1_655
Mn0 O1 1.816371 1_555
Mn0 O7 1.950772 1_456
Mn0 O7 1.966996 1_556
Mn0 O0 1.994156 1_546
Mn0 O10 2.010271 1_446
Mn0 O0 2.043909 1_446
Mn1 O9 1.942046 1_555
Mn1 O6 1.956138 1_655
Mn1 O13 1.958608 1_565
Mn1 O5 1.976272 1_555
Mn1 O6 2.194579 1_555
Mn1 O13 2.211239 1_665
Co0 O8 1.745315 1_555
Co0 O2 1.875764 1_555
Co0 O9 1.974661 1_455
Co0 O6 1.983488 1_555
Co0 O2 2.094335 1_455
Co0 O9 2.250136 1_555
Co1 O13 1.921842 1_555
Co1 O4 1.926424 1_555
Co1 O12 1.929782 1_455
Co1 O5 1.937112 1_545
Co1 O12 2.175732 1_555
Co1 O5 2.211161 1_445
Co2 O12 1.923519 1_555
Co2 O4 1.924990 1_655
Co2 O11 1.926424 1_555
Co2 O3 1.946455 1_555
Co2 O11 2.169792 1_655
Co2 O4 2.179515 1_555
Co3 O3 1.912611 1_555
Co3 O10 1.913819 1_455
Co3 O11 1.914506 1_555
Co3 O0 1.954549 1_555
Co3 O10 2.156860 1_555
Co3 O3 2.208163 1_455
