# generated using pymatgen
data_Pm2Mg
_symmetry_space_group_name_H-M   'P 1'
_cell_length_a   13.89043957
_cell_length_b   13.89043957
_cell_length_c   15.28871502
_cell_angle_alpha   74.07967850
_cell_angle_beta   74.07967850
_cell_angle_gamma   31.83372065
_symmetry_Int_Tables_number   1
_chemical_formula_structural   Pm2Mg
_chemical_formula_sum   'Pm32 Mg16'
_cell_volume   1491.28923508
_cell_formula_units_Z   16
loop_
 _symmetry_equiv_pos_site_id
 _symmetry_equiv_pos_as_xyz
  1  'x, y, z'
loop_
 _atom_site_type_symbol
 _atom_site_label
 _atom_site_symmetry_multiplicity
 _atom_site_fract_x
 _atom_site_fract_y
 _atom_site_fract_z
 _atom_site_occupancy
  Pm  Pm0_0  1  0.42436969  0.42436970  0.28480118  1
  Pm  Pm0_1  1  0.42436969  0.42436970  0.78480118  1
  Pm  Pm0_2  1  0.42436969  0.92436970  0.28480118  1
  Pm  Pm0_3  1  0.42436969  0.92436970  0.78480118  1
  Pm  Pm0_4  1  0.92436969  0.42436970  0.28480118  1
  Pm  Pm0_5  1  0.92436969  0.42436970  0.78480118  1
  Pm  Pm0_6  1  0.92436969  0.92436970  0.28480118  1
  Pm  Pm0_7  1  0.92436969  0.92436970  0.78480118  1
  Pm  Pm1_0  1  0.07563030  0.07563031  0.21519882  1
  Pm  Pm1_1  1  0.07563030  0.07563031  0.71519882  1
  Pm  Pm1_2  1  0.07563030  0.57563031  0.21519882  1
  Pm  Pm1_3  1  0.07563030  0.57563031  0.71519882  1
  Pm  Pm1_4  1  0.57563030  0.07563030  0.21519882  1
  Pm  Pm1_5  1  0.57563030  0.07563031  0.71519882  1
  Pm  Pm1_6  1  0.57563031  0.57563031  0.21519882  1
  Pm  Pm1_7  1  0.57563030  0.57563031  0.71519882  1
  Pm  Pm2_0  1  0.41988709  0.41988709  0.04308333  1
  Pm  Pm2_1  1  0.41988709  0.41988709  0.54308333  1
  Pm  Pm2_2  1  0.41988709  0.91988709  0.04308333  1
  Pm  Pm2_3  1  0.41988709  0.91988709  0.54308333  1
  Pm  Pm2_4  1  0.91988709  0.41988709  0.04308333  1
  Pm  Pm2_5  1  0.91988709  0.41988709  0.54308333  1
  Pm  Pm2_6  1  0.91988709  0.91988709  0.04308333  1
  Pm  Pm2_7  1  0.91988709  0.91988709  0.54308333  1
  Pm  Pm3_0  1  0.08011291  0.08011291  0.45691667  1
  Pm  Pm3_1  1  0.08011291  0.08011291  0.95691667  1
  Pm  Pm3_2  1  0.08011291  0.58011291  0.45691667  1
  Pm  Pm3_3  1  0.08011291  0.58011291  0.95691667  1
  Pm  Pm3_4  1  0.58011291  0.08011291  0.45691667  1
  Pm  Pm3_5  1  0.58011291  0.08011291  0.95691667  1
  Pm  Pm3_6  1  0.58011291  0.58011291  0.45691667  1
  Pm  Pm3_7  1  0.58011291  0.58011291  0.95691667  1
  Mg  Mg0_0  1  0.24768553  0.24768554  0.38186079  1
  Mg  Mg0_1  1  0.24768553  0.24768554  0.88186079  1
  Mg  Mg0_2  1  0.24768553  0.74768554  0.38186079  1
  Mg  Mg0_3  1  0.24768553  0.74768554  0.88186079  1
  Mg  Mg0_4  1  0.74768553  0.24768554  0.38186079  1
  Mg  Mg0_5  1  0.74768553  0.24768554  0.88186079  1
  Mg  Mg0_6  1  0.74768553  0.74768554  0.38186079  1
  Mg  Mg0_7  1  0.74768553  0.74768554  0.88186079  1
  Mg  Mg1_0  1  0.25231446  0.25231447  0.11813921  1
  Mg  Mg1_1  1  0.25231446  0.25231447  0.61813921  1
  Mg  Mg1_2  1  0.25231446  0.75231447  0.11813921  1
  Mg  Mg1_3  1  0.25231446  0.75231447  0.61813921  1
  Mg  Mg1_4  1  0.75231446  0.25231447  0.11813921  1
  Mg  Mg1_5  1  0.75231446  0.25231447  0.61813921  1
  Mg  Mg1_6  1  0.75231446  0.75231447  0.11813921  1
  Mg  Mg1_7  1  0.75231446  0.75231447  0.61813921  1
loop_
_geom_bond_atom_site_label_1
_geom_bond_atom_site_label_2
_geom_bond_distance
_geom_bond_site_symmetry_2
Pm0_0 Pm3_2 3.621201 1_555
Pm0_0 Pm3_4 3.621201 1_555
Pm0_0 Pm1_2 3.649660 1_555
Pm0_0 Pm1_4 3.649660 1_555
Pm0_0 Pm2_0 3.731480 1_555
Pm0_0 Pm0_6 3.809345 1_545
Pm0_0 Pm0_6 3.809345 1_455
Pm0_0 Pm1_6 3.874180 1_555
Pm0_0 Pm2_1 3.916326 1_555
Pm0_1 Pm3_3 3.621201 1_555
Pm0_1 Pm3_5 3.621201 1_555
Pm0_1 Pm1_3 3.649660 1_555
Pm0_1 Pm1_5 3.649660 1_555
Pm0_1 Pm2_1 3.731480 1_555
Pm0_1 Pm0_7 3.809345 1_545
Pm0_1 Pm0_7 3.809345 1_455
Pm0_1 Pm1_7 3.874180 1_555
Pm0_1 Pm2_0 3.916326 1_556
Pm0_2 Pm3_0 3.621201 1_565
Pm0_2 Pm3_6 3.621201 1_555
Pm0_2 Pm1_6 3.649660 1_555
Pm0_2 Pm1_0 3.649660 1_565
Pm0_2 Pm2_2 3.731480 1_555
Pm0_2 Pm0_4 3.809345 1_465
Pm0_2 Pm0_4 3.809345 1_555
Pm0_2 Pm1_4 3.874180 1_565
Pm0_2 Pm2_3 3.916326 1_555
Pm0_3 Pm3_7 3.621201 1_555
Pm0_3 Pm3_1 3.621201 1_565
Pm0_3 Pm1_7 3.649660 1_555
Pm0_3 Pm1_1 3.649660 1_565
Pm0_3 Pm2_3 3.731480 1_555
Pm0_3 Pm0_5 3.809345 1_555
Pm0_3 Pm0_5 3.809345 1_465
Pm0_3 Pm1_5 3.874180 1_565
Pm0_3 Pm2_2 3.916326 1_556
Pm0_4 Pm3_0 3.621201 1_655
Pm0_4 Pm3_6 3.621201 1_555
Pm0_4 Pm1_6 3.649660 1_555
Pm0_4 Pm1_0 3.649660 1_655
Pm0_4 Pm2_4 3.731480 1_555
Pm0_4 Pm1_2 3.874180 1_655
Pm0_4 Pm2_5 3.916326 1_555
Pm0_5 Pm3_7 3.621201 1_555
Pm0_5 Pm3_1 3.621201 1_655
Pm0_5 Pm1_1 3.649660 1_655
Pm0_5 Pm1_7 3.649660 1_555
Pm0_5 Pm2_5 3.731480 1_555
Pm0_5 Pm1_3 3.874180 1_655
Pm0_5 Pm2_4 3.916326 1_556
Pm0_6 Pm3_2 3.621201 1_655
Pm0_6 Pm3_4 3.621201 1_565
Pm0_6 Pm1_2 3.649660 1_655
Pm0_6 Pm1_4 3.649660 1_565
Pm0_6 Pm2_6 3.731480 1_555
Pm0_6 Pm1_0 3.874180 1_665
Pm0_6 Pm2_7 3.916326 1_555
Pm0_7 Pm3_3 3.621201 1_655
Pm0_7 Pm3_5 3.621201 1_565
Pm0_7 Pm1_3 3.649660 1_655
Pm0_7 Pm1_5 3.649660 1_565
Pm0_7 Pm2_7 3.731480 1_555
Pm0_7 Pm1_1 3.874180 1_665
Pm0_7 Pm2_6 3.916326 1_556
Pm1_0 Pm2_2 3.621201 1_545
Pm1_0 Pm2_4 3.621201 1_455
Pm1_0 Pm3_0 3.731480 1_555
Pm1_0 Pm1_6 3.809345 1_545
Pm1_0 Pm1_6 3.809345 1_455
Pm1_0 Pm3_1 3.916326 1_554
Pm1_1 Pm2_3 3.621201 1_545
Pm1_1 Pm2_5 3.621201 1_455
Pm1_1 Pm3_1 3.731480 1_555
Pm1_1 Pm1_7 3.809345 1_545
Pm1_1 Pm1_7 3.809345 1_455
Pm1_1 Pm3_0 3.916326 1_555
Pm1_2 Pm2_0 3.621201 1_555
Pm1_2 Pm2_6 3.621201 1_455
Pm1_2 Pm3_2 3.731480 1_555
Pm1_2 Pm1_4 3.809345 1_465
Pm1_2 Pm1_4 3.809345 1_555
Pm1_2 Pm3_3 3.916326 1_554
Pm1_3 Pm2_7 3.621201 1_455
Pm1_3 Pm2_1 3.621201 1_555
Pm1_3 Pm3_3 3.731480 1_555
Pm1_3 Pm1_5 3.809345 1_465
Pm1_3 Pm1_5 3.809345 1_555
Pm1_3 Pm3_2 3.916326 1_555
Pm1_4 Pm2_6 3.621201 1_545
Pm1_4 Pm2_0 3.621201 1_555
Pm1_4 Pm3_4 3.731480 1_555
Pm1_4 Pm3_5 3.916326 1_554
Pm1_5 Pm2_7 3.621201 1_545
Pm1_5 Pm2_1 3.621201 1_555
Pm1_5 Pm3_5 3.731480 1_555
Pm1_5 Pm3_4 3.916326 1_555
Pm1_6 Pm2_4 3.621201 1_555
Pm1_6 Pm2_2 3.621201 1_555
Pm1_6 Pm3_6 3.731480 1_555
Pm1_6 Pm3_7 3.916326 1_554
Pm1_7 Pm2_5 3.621201 1_555
Pm1_7 Pm2_3 3.621201 1_555
Pm1_7 Pm3_7 3.731480 1_555
Pm1_7 Pm3_6 3.916326 1_555
Pm2_0 Pm3_3 3.594158 1_554
Pm2_0 Pm3_5 3.594158 1_554
Pm2_0 Pm2_6 3.809345 1_545
Pm2_0 Pm2_6 3.809345 1_455
Pm2_1 Pm3_2 3.594158 1_555
Pm2_1 Pm3_4 3.594158 1_555
Pm2_1 Pm2_7 3.809345 1_545
Pm2_1 Pm2_7 3.809345 1_455
Pm2_2 Pm3_7 3.594158 1_554
Pm2_2 Pm3_1 3.594158 1_564
Pm2_2 Pm2_4 3.809345 1_555
Pm2_2 Pm2_4 3.809345 1_465
Pm2_3 Pm3_0 3.594158 1_565
Pm2_3 Pm3_6 3.594158 1_555
Pm2_3 Pm2_5 3.809345 1_555
Pm2_3 Pm2_5 3.809345 1_465
Pm2_4 Pm3_7 3.594158 1_554
Pm2_4 Pm3_1 3.594158 1_654
Pm2_5 Pm3_0 3.594158 1_655
Pm2_5 Pm3_6 3.594158 1_555
Pm2_6 Pm3_3 3.594158 1_654
Pm2_6 Pm3_5 3.594158 1_564
Pm2_7 Pm3_4 3.594158 1_565
Pm2_7 Pm3_2 3.594158 1_655
Pm3_0 Pm3_6 3.809345 1_545
Pm3_0 Pm3_6 3.809345 1_455
Pm3_1 Pm3_7 3.809345 1_545
Pm3_1 Pm3_7 3.809345 1_455
Pm3_2 Pm3_4 3.809345 1_465
Pm3_2 Pm3_4 3.809345 1_555
Pm3_3 Pm3_5 3.809345 1_465
Pm3_3 Pm3_5 3.809345 1_555
Mg0_0 Pm2_3 3.331782 1_545
Mg0_0 Pm2_5 3.331782 1_455
Mg0_0 Pm3_4 3.351924 1_555
Mg0_0 Pm3_2 3.351924 1_555
Mg0_0 Pm0_2 3.365167 1_545
Mg0_0 Pm0_4 3.365167 1_455
Mg0_0 Pm1_4 3.380774 1_555
Mg0_0 Pm1_2 3.380774 1_555
Mg0_1 Pm2_2 3.331782 1_546
Mg0_1 Pm2_4 3.331782 1_456
Mg0_1 Pm3_5 3.351924 1_555
Mg0_1 Pm3_3 3.351924 1_555
Mg0_1 Pm0_3 3.365167 1_545
Mg0_1 Pm0_5 3.365167 1_455
Mg0_1 Pm1_5 3.380774 1_555
Mg0_1 Pm1_3 3.380774 1_555
Mg0_2 Pm2_1 3.331782 1_555
Mg0_2 Pm2_7 3.331782 1_455
Mg0_2 Pm3_0 3.351924 1_565
Mg0_2 Pm3_6 3.351924 1_555
Mg0_2 Pm0_0 3.365167 1_555
Mg0_2 Pm0_6 3.365167 1_455
Mg0_2 Pm1_0 3.380774 1_565
Mg0_2 Pm1_6 3.380774 1_555
Mg0_3 Pm2_0 3.331782 1_556
Mg0_3 Pm2_6 3.331782 1_456
Mg0_3 Pm3_1 3.351924 1_565
Mg0_3 Pm3_7 3.351924 1_555
Mg0_3 Pm0_7 3.365167 1_455
Mg0_3 Pm0_1 3.365167 1_555
Mg0_3 Pm1_7 3.380774 1_555
Mg0_3 Pm1_1 3.380774 1_565
Mg0_4 Pm2_1 3.331782 1_555
Mg0_4 Pm2_7 3.331782 1_545
Mg0_4 Pm3_6 3.351924 1_555
Mg0_4 Pm3_0 3.351924 1_655
Mg0_4 Pm0_0 3.365167 1_555
Mg0_4 Pm0_6 3.365167 1_545
Mg0_4 Pm1_0 3.380774 1_655
Mg0_4 Pm1_6 3.380774 1_555
Mg0_5 Pm2_6 3.331782 1_546
Mg0_5 Pm2_0 3.331782 1_556
Mg0_5 Pm3_7 3.351924 1_555
Mg0_5 Pm3_1 3.351924 1_655
Mg0_5 Pm0_7 3.365167 1_545
Mg0_5 Pm0_1 3.365167 1_555
Mg0_5 Pm1_7 3.380774 1_555
Mg0_5 Pm1_1 3.380774 1_655
Mg0_6 Pm2_3 3.331782 1_555
Mg0_6 Pm2_5 3.331782 1_555
Mg0_6 Pm3_4 3.351924 1_565
Mg0_6 Pm3_2 3.351924 1_655
Mg0_6 Pm0_2 3.365167 1_555
Mg0_6 Pm0_4 3.365167 1_555
Mg0_6 Pm1_4 3.380774 1_565
Mg0_6 Pm1_2 3.380774 1_655
Mg0_7 Pm2_2 3.331782 1_556
Mg0_7 Pm2_4 3.331782 1_556
Mg0_7 Pm3_5 3.351924 1_565
Mg0_7 Pm3_3 3.351924 1_655
Mg0_7 Pm0_3 3.365167 1_555
Mg0_7 Pm0_5 3.365167 1_555
Mg0_7 Pm1_5 3.380774 1_565
Mg0_7 Pm1_3 3.380774 1_655
Mg1_0 Pm3_5 3.331782 1_554
Mg1_0 Pm3_3 3.331782 1_554
Mg1_0 Pm2_2 3.351924 1_545
Mg1_0 Pm2_4 3.351924 1_455
Mg1_0 Pm1_4 3.365167 1_555
Mg1_0 Pm1_2 3.365167 1_555
Mg1_0 Pm0_2 3.380774 1_545
Mg1_0 Pm0_4 3.380774 1_455
Mg1_1 Pm3_4 3.331782 1_555
Mg1_1 Pm3_2 3.331782 1_555
Mg1_1 Pm2_3 3.351924 1_545
Mg1_1 Pm2_5 3.351924 1_455
Mg1_1 Pm1_5 3.365167 1_555
Mg1_1 Pm1_3 3.365167 1_555
Mg1_1 Pm0_3 3.380774 1_545
Mg1_1 Pm0_5 3.380774 1_455
Mg1_2 Pm3_1 3.331782 1_564
Mg1_2 Pm3_7 3.331782 1_554
Mg1_2 Pm2_0 3.351924 1_555
Mg1_2 Pm2_6 3.351924 1_455
Mg1_2 Pm1_0 3.365167 1_565
Mg1_2 Pm1_6 3.365167 1_555
Mg1_2 Pm0_0 3.380774 1_555
Mg1_2 Pm0_6 3.380774 1_455
Mg1_3 Pm3_0 3.331782 1_565
Mg1_3 Pm3_6 3.331782 1_555
Mg1_3 Pm2_1 3.351924 1_555
Mg1_3 Pm2_7 3.351924 1_455
Mg1_3 Pm1_7 3.365167 1_555
Mg1_3 Pm1_1 3.365167 1_565
Mg1_3 Pm0_7 3.380774 1_455
Mg1_3 Pm0_1 3.380774 1_555
Mg1_4 Pm3_7 3.331782 1_554
Mg1_4 Pm3_1 3.331782 1_654
Mg1_4 Pm2_6 3.351924 1_545
Mg1_4 Pm2_0 3.351924 1_555
Mg1_4 Pm1_0 3.365167 1_655
Mg1_4 Pm1_6 3.365167 1_555
Mg1_4 Pm0_0 3.380774 1_555
Mg1_4 Pm0_6 3.380774 1_545
Mg1_5 Pm3_6 3.331782 1_555
Mg1_5 Pm3_0 3.331782 1_655
Mg1_5 Pm2_1 3.351924 1_555
Mg1_5 Pm2_7 3.351924 1_545
Mg1_5 Pm1_7 3.365167 1_555
Mg1_5 Pm1_1 3.365167 1_655
Mg1_5 Pm0_7 3.380774 1_545
Mg1_5 Pm0_1 3.380774 1_555
Mg1_6 Pm3_5 3.331782 1_564
Mg1_6 Pm3_3 3.331782 1_654
Mg1_6 Pm2_2 3.351924 1_555
Mg1_6 Pm2_4 3.351924 1_555
Mg1_6 Pm1_4 3.365167 1_565
Mg1_6 Pm1_2 3.365167 1_655
Mg1_6 Pm0_2 3.380774 1_555
Mg1_6 Pm0_4 3.380774 1_555
Mg1_7 Pm3_4 3.331782 1_565
Mg1_7 Pm3_2 3.331782 1_655
Mg1_7 Pm2_3 3.351924 1_555
Mg1_7 Pm2_5 3.351924 1_555
Mg1_7 Pm1_5 3.365167 1_565
Mg1_7 Pm1_3 3.365167 1_655
Mg1_7 Pm0_3 3.380774 1_555
Mg1_7 Pm0_5 3.380774 1_555
