# generated using pymatgen
data_Y5Ir3
_symmetry_space_group_name_H-M   'P 1'
_cell_length_a   8.35000800
_cell_length_b   8.35000796
_cell_length_c   6.24880600
_cell_angle_alpha   90.00000000
_cell_angle_beta   90.00000000
_cell_angle_gamma   120.00000017
_symmetry_Int_Tables_number   1
_chemical_formula_structural   Y5Ir3
_chemical_formula_sum   'Y10 Ir6'
_cell_volume   377.31272628
_cell_formula_units_Z   2
loop_
 _symmetry_equiv_pos_site_id
 _symmetry_equiv_pos_as_xyz
  1  'x, y, z'
loop_
 _atom_site_type_symbol
 _atom_site_label
 _atom_site_symmetry_multiplicity
 _atom_site_fract_x
 _atom_site_fract_y
 _atom_site_fract_z
 _atom_site_occupancy
  Y  Y0  1  0.66666700  0.33333300  0.50000000  1
  Y  Y1  1  0.33333300  0.66666700  0.50000000  1
  Y  Y2  1  0.33333300  0.66666700  0.00000000  1
  Y  Y3  1  0.66666700  0.33333300  0.00000000  1
  Y  Y4  1  0.74145700  0.74145700  0.25000000  1
  Y  Y5  1  0.25854300  0.00000000  0.25000000  1
  Y  Y6  1  0.00000000  0.25854300  0.25000000  1
  Y  Y7  1  0.25854300  0.25854300  0.75000000  1
  Y  Y8  1  0.74145700  0.00000000  0.75000000  1
  Y  Y9  1  0.00000000  0.74145700  0.75000000  1
  Ir  Ir0  1  0.39097600  0.39097600  0.25000000  1
  Ir  Ir1  1  0.60902400  0.00000000  0.25000000  1
  Ir  Ir2  1  0.00000000  0.60902400  0.25000000  1
  Ir  Ir3  1  0.60902400  0.60902400  0.75000000  1
  Ir  Ir4  1  0.39097600  0.00000000  0.75000000  1
  Ir  Ir5  1  0.00000000  0.39097600  0.75000000  1
loop_
_geom_bond_atom_site_label_1
_geom_bond_atom_site_label_2
_geom_bond_distance
_geom_bond_site_symmetry_2
Y0 Y3 3.124403 1_556
Y0 Y3 3.124403 1_555
Y0 Y8 3.509359 1_555
Y0 Y6 3.509359 1_655
Y0 Y9 3.509363 1_655
Y0 Y5 3.509363 1_555
Y0 Y4 3.509366 1_555
Y0 Y7 3.509366 1_555
Y1 Y2 3.124403 1_556
Y1 Y2 3.124403 1_555
Y1 Y5 3.509359 1_565
Y1 Y9 3.509359 1_555
Y1 Y6 3.509363 1_555
Y1 Y8 3.509363 1_565
Y1 Y7 3.509366 1_555
Y1 Y4 3.509366 1_555
Y2 Y5 3.509359 1_565
Y2 Y9 3.509359 1_554
Y2 Y6 3.509363 1_555
Y2 Y8 3.509363 1_564
Y2 Y7 3.509366 1_554
Y2 Y4 3.509366 1_555
Y3 Y8 3.509359 1_554
Y3 Y6 3.509359 1_655
Y3 Y9 3.509363 1_654
Y3 Y5 3.509363 1_555
Y3 Y4 3.509366 1_555
Y3 Y7 3.509366 1_554
Y4 Y6 3.739214 1_665
Y4 Y5 3.739214 1_665
Y4 Y8 3.797692 1_565
Y4 Y8 3.797692 1_564
Y4 Y9 3.797692 1_655
Y4 Y9 3.797692 1_654
Y5 Y6 3.739214 1_555
Y5 Y7 3.797692 1_554
Y5 Y7 3.797692 1_555
Y5 Y9 3.797692 1_545
Y5 Y9 3.797692 1_544
Y6 Y8 3.797692 1_455
Y6 Y8 3.797692 1_454
Y6 Y7 3.797692 1_555
Y6 Y7 3.797692 1_554
Y7 Y9 3.739214 1_545
Y7 Y8 3.739214 1_455
Y8 Y9 3.739214 1_645
Ir0 Y5 2.875879 1_555
Ir0 Y6 2.875879 1_555
Ir0 Y4 2.926519 1_555
Ir0 Y1 3.013214 1_555
Ir0 Y2 3.013214 1_555
Ir0 Y0 3.013214 1_555
Ir0 Y3 3.013214 1_555
Ir0 Y7 3.314321 1_555
Ir0 Y7 3.314321 1_554
Ir1 Y6 2.875879 1_655
Ir1 Y4 2.875879 1_545
Ir1 Y5 2.926519 1_555
Ir1 Y3 3.013206 1_555
Ir1 Y0 3.013206 1_555
Ir1 Y1 3.013209 1_545
Ir1 Y2 3.013209 1_545
Ir1 Y8 3.314321 1_555
Ir1 Y8 3.314321 1_554
Ir2 Y5 2.875879 1_565
Ir2 Y4 2.875879 1_455
Ir2 Y6 2.926519 1_555
Ir2 Y1 3.013206 1_555
Ir2 Y2 3.013206 1_555
Ir2 Y0 3.013209 1_455
Ir2 Y3 3.013209 1_455
Ir2 Y9 3.314321 1_554
Ir2 Y9 3.314321 1_555
Ir3 Y8 2.875879 1_565
Ir3 Y9 2.875879 1_655
Ir3 Y7 2.926519 1_555
Ir3 Y3 3.013214 1_556
Ir3 Y0 3.013214 1_555
Ir3 Y2 3.013214 1_556
Ir3 Y1 3.013214 1_555
Ir3 Y4 3.314321 1_556
Ir3 Y4 3.314321 1_555
Ir4 Y7 2.875879 1_555
Ir4 Y9 2.875879 1_545
Ir4 Y8 2.926519 1_555
Ir4 Y1 3.013206 1_545
Ir4 Y2 3.013206 1_546
Ir4 Y3 3.013209 1_556
Ir4 Y0 3.013209 1_555
Ir4 Y5 3.314321 1_556
Ir4 Y5 3.314321 1_555
Ir5 Y8 2.875879 1_455
Ir5 Y7 2.875879 1_555
Ir5 Y9 2.926519 1_555
Ir5 Y3 3.013206 1_456
Ir5 Y0 3.013206 1_455
Ir5 Y2 3.013209 1_556
Ir5 Y1 3.013209 1_555
Ir5 Y6 3.314321 1_555
Ir5 Y6 3.314321 1_556
