# generated using pymatgen
data_PuSe2
_symmetry_space_group_name_H-M   'P 1'
_cell_length_a   4.12839600
_cell_length_b   4.12839600
_cell_length_c   8.38134231
_cell_angle_alpha   90.00000000
_cell_angle_beta   90.00000000
_cell_angle_gamma   90.00000000
_symmetry_Int_Tables_number   1
_chemical_formula_structural   PuSe2
_chemical_formula_sum   'Pu2 Se4'
_cell_volume   142.84869447
_cell_formula_units_Z   2
loop_
 _symmetry_equiv_pos_site_id
 _symmetry_equiv_pos_as_xyz
  1  'x, y, z'
loop_
 _atom_site_type_symbol
 _atom_site_label
 _atom_site_symmetry_multiplicity
 _atom_site_fract_x
 _atom_site_fract_y
 _atom_site_fract_z
 _atom_site_occupancy
  Pu  Pu0  1  0.75000000  0.75000000  0.72532257  1
  Pu  Pu1  1  0.25000000  0.25000000  0.27467743  1
  Se  Se0  1  0.75000000  0.75000000  0.36185098  1
  Se  Se1  1  0.25000000  0.25000000  0.63814902  1
  Se  Se2  1  0.75000000  0.25000000  -0.00000000  1
  Se  Se3  1  0.25000000  0.75000000  -0.00000000  1
loop_
_geom_bond_atom_site_label_1
_geom_bond_atom_site_label_2
_geom_bond_distance
_geom_bond_site_symmetry_2
Pu0 Se1 3.009261 1_565
Pu0 Se1 3.009261 1_555
Pu0 Se1 3.009261 1_655
Pu0 Se1 3.009261 1_665
Pu0 Se0 3.046380 1_555
Pu0 Se3 3.092067 1_556
Pu0 Se2 3.092067 1_556
Pu0 Se2 3.092067 1_566
Pu0 Se3 3.092067 1_656
Pu1 Se0 3.009261 1_555
Pu1 Se0 3.009261 1_445
Pu1 Se0 3.009261 1_455
Pu1 Se0 3.009261 1_545
Pu1 Se1 3.046380 1_555
Pu1 Se2 3.092067 1_455
Pu1 Se2 3.092067 1_555
Pu1 Se3 3.092067 1_555
Pu1 Se3 3.092067 1_545
Se2 Se3 2.919217 1_645
Se2 Se3 2.919217 1_555
Se2 Se3 2.919217 1_655
Se2 Se3 2.919217 1_545
