# generated using pymatgen
data_Th4Cu6Sn7
_symmetry_space_group_name_H-M   'P 1'
_cell_length_a   4.42046100
_cell_length_b   4.42046100
_cell_length_c   19.76798600
_cell_angle_alpha   90.00000000
_cell_angle_beta   90.00000000
_cell_angle_gamma   90.00000000
_symmetry_Int_Tables_number   1
_chemical_formula_structural   Th4Cu6Sn7
_chemical_formula_sum   'Th4 Cu6 Sn7'
_cell_volume   386.27584518
_cell_formula_units_Z   1
loop_
 _symmetry_equiv_pos_site_id
 _symmetry_equiv_pos_as_xyz
  1  'x, y, z'
loop_
 _atom_site_type_symbol
 _atom_site_label
 _atom_site_symmetry_multiplicity
 _atom_site_fract_x
 _atom_site_fract_y
 _atom_site_fract_z
 _atom_site_occupancy
  Th  Th0  1  0.50000000  0.50000000  0.37691200  1
  Th  Th1  1  0.50000000  0.50000000  0.89420500  1
  Th  Th2  1  0.00000000  0.00000000  0.11373900  1
  Th  Th3  1  0.00000000  0.00000000  0.62152700  1
  Cu  Cu0  1  0.50000000  0.00000000  0.01120200  1
  Cu  Cu1  1  0.50000000  0.00000000  0.49430200  1
  Cu  Cu2  1  0.00000000  0.50000000  0.01120200  1
  Cu  Cu3  1  0.00000000  0.50000000  0.49430200  1
  Cu  Cu4  1  0.50000000  0.50000000  0.15460300  1
  Cu  Cu5  1  0.50000000  0.50000000  0.68944400  1
  Sn  Sn0  1  0.50000000  0.00000000  0.24599800  1
  Sn  Sn1  1  0.50000000  0.00000000  0.76482200  1
  Sn  Sn2  1  0.00000000  0.50000000  0.24599800  1
  Sn  Sn3  1  0.00000000  0.50000000  0.76482200  1
  Sn  Sn4  1  0.50000000  0.50000000  0.56303100  1
  Sn  Sn5  1  0.00000000  0.00000000  0.41606700  1
  Sn  Sn6  1  0.00000000  0.00000000  0.93492400  1
loop_
_geom_bond_atom_site_label_1
_geom_bond_atom_site_label_2
_geom_bond_distance
_geom_bond_site_symmetry_2
Cu0 Sn6 2.675587 1_554
Cu0 Sn6 2.675587 1_654
Cu0 Th2 2.998941 1_555
Cu0 Th2 2.998941 1_655
Cu0 Cu2 3.125738 1_655
Cu0 Cu2 3.125738 1_555
Cu0 Cu2 3.125738 1_545
Cu0 Cu2 3.125738 1_645
Cu0 Th1 3.199084 1_554
Cu0 Th1 3.199084 1_544
Cu1 Sn4 2.594418 1_545
Cu1 Sn4 2.594418 1_555
Cu1 Sn5 2.697579 1_655
Cu1 Sn5 2.697579 1_555
Cu1 Cu3 3.125738 1_555
Cu1 Cu3 3.125738 1_645
Cu1 Cu3 3.125738 1_655
Cu1 Cu3 3.125738 1_545
Cu1 Th0 3.204705 1_555
Cu1 Th0 3.204705 1_545
Cu1 Th3 3.348172 1_655
Cu1 Th3 3.348172 1_555
Cu2 Sn6 2.675587 1_554
Cu2 Sn6 2.675587 1_564
Cu2 Th2 2.998941 1_555
Cu2 Th2 2.998941 1_565
Cu2 Th1 3.199084 1_554
Cu2 Th1 3.199084 1_454
Cu3 Sn4 2.594418 1_455
Cu3 Sn4 2.594418 1_555
Cu3 Sn5 2.697579 1_555
Cu3 Sn5 2.697579 1_565
Cu3 Th0 3.204705 1_455
Cu3 Th0 3.204705 1_555
Cu3 Th3 3.348172 1_555
Cu3 Th3 3.348172 1_565
Cu4 Sn2 2.854692 1_555
Cu4 Sn0 2.854692 1_565
Cu4 Sn2 2.854692 1_655
Cu4 Sn0 2.854692 1_555
Cu4 Th2 3.228433 1_555
Cu4 Th2 3.228433 1_655
Cu4 Th2 3.228433 1_665
Cu4 Th2 3.228433 1_565
Cu5 Sn4 2.498930 1_555
Cu5 Sn3 2.665601 1_555
Cu5 Sn3 2.665601 1_655
Cu5 Sn1 2.665601 1_565
Cu5 Sn1 2.665601 1_555
Cu5 Th3 3.401877 1_565
Cu5 Th3 3.401877 1_665
Cu5 Th3 3.401877 1_655
Cu5 Th3 3.401877 1_555
Sn0 Sn2 3.125738 1_555
Sn0 Sn2 3.125738 1_545
Sn0 Sn2 3.125738 1_655
Sn0 Sn2 3.125738 1_645
Sn0 Th0 3.403289 1_555
Sn0 Th0 3.403289 1_545
Sn0 Th2 3.423551 1_655
Sn0 Th2 3.423551 1_555
Sn1 Sn3 3.125738 1_645
Sn1 Sn3 3.125738 1_545
Sn1 Sn3 3.125738 1_555
Sn1 Sn3 3.125738 1_655
Sn1 Th1 3.380333 1_555
Sn1 Th1 3.380333 1_545
Sn1 Th3 3.592916 1_655
Sn1 Th3 3.592916 1_555
Sn2 Th0 3.403289 1_555
Sn2 Th0 3.403289 1_455
Sn2 Th2 3.423551 1_565
Sn2 Th2 3.423551 1_555
Sn3 Th1 3.380333 1_555
Sn3 Th1 3.380333 1_455
Sn3 Th3 3.592916 1_555
Sn3 Th3 3.592916 1_565
Sn4 Th3 3.332773 1_555
Sn4 Th3 3.332773 1_655
Sn4 Th3 3.332773 1_565
Sn4 Th3 3.332773 1_665
Sn5 Th0 3.220146 1_445
Sn5 Th0 3.220146 1_555
Sn5 Th0 3.220146 1_545
Sn5 Th0 3.220146 1_455
Sn6 Th1 3.227717 1_445
Sn6 Th1 3.227717 1_555
Sn6 Th1 3.227717 1_545
Sn6 Th1 3.227717 1_455
