# generated using pymatgen
data_Cr2O3
_symmetry_space_group_name_H-M   'P 1'
_cell_length_a   10.20665458
_cell_length_b   10.26634028
_cell_length_c   9.42001176
_cell_angle_alpha   81.91965567
_cell_angle_beta   89.20010067
_cell_angle_gamma   91.45847096
_symmetry_Int_Tables_number   1
_chemical_formula_structural   Cr2O3
_chemical_formula_sum   'Cr32 O48'
_cell_volume   976.80608749
_cell_formula_units_Z   16
loop_
 _symmetry_equiv_pos_site_id
 _symmetry_equiv_pos_as_xyz
  1  'x, y, z'
loop_
 _atom_site_type_symbol
 _atom_site_label
 _atom_site_symmetry_multiplicity
 _atom_site_fract_x
 _atom_site_fract_y
 _atom_site_fract_z
 _atom_site_occupancy
  Cr  Cr0  1  0.16007300  0.47017300  0.47684600  1
  Cr  Cr1  1  0.74517600  0.42300300  0.25632900  1
  Cr  Cr2  1  0.48588700  0.48878200  0.86618900  1
  Cr  Cr3  1  0.86011700  0.26964500  0.54467500  1
  Cr  Cr4  1  0.63371700  0.07988700  0.35053500  1
  Cr  Cr5  1  0.03029400  0.75702700  0.85132400  1
  Cr  Cr6  1  0.08507800  0.88489500  0.26454600  1
  Cr  Cr7  1  0.69156400  0.52208800  0.58929500  1
  Cr  Cr8  1  0.24984900  0.03580100  0.85715100  1
  Cr  Cr9  1  0.56689100  0.80567500  0.46393100  1
  Cr  Cr10  1  0.93243600  0.66745600  0.34908900  1
  Cr  Cr11  1  0.28196000  0.65850800  0.00719200  1
  Cr  Cr12  1  0.35277200  0.00987300  0.41411700  1
  Cr  Cr13  1  0.36074200  0.95426800  0.14464900  1
  Cr  Cr14  1  0.85821200  0.20318900  0.12848900  1
  Cr  Cr15  1  0.51197600  0.18046600  0.90272400  1
  Cr  Cr16  1  0.30944400  0.68136600  0.32783500  1
  Cr  Cr17  1  0.31400100  0.23637800  0.55992200  1
  Cr  Cr18  1  0.06721100  0.26082100  0.81123500  1
  Cr  Cr19  1  0.27070800  0.72956600  0.66469800  1
  Cr  Cr20  1  0.96965300  0.52278500  0.73321600  1
  Cr  Cr21  1  0.05099000  0.97978100  0.61899300  1
  Cr  Cr22  1  0.53901800  0.04145200  0.65053600  1
  Cr  Cr23  1  0.71346800  0.73828000  0.86078000  1
  Cr  Cr24  1  0.14168700  0.14348800  0.10393100  1
  Cr  Cr25  1  0.08184500  0.21128000  0.37629200  1
  Cr  Cr26  1  0.82408700  0.80252400  0.55471800  1
  Cr  Cr27  1  0.77294700  0.86682100  0.18690800  1
  Cr  Cr28  1  0.53151500  0.64144000  0.14740400  1
  Cr  Cr29  1  0.36317800  0.33745700  0.18144800  1
  Cr  Cr30  1  0.97547500  0.48594900  0.04918500  1
  Cr  Cr31  1  0.76026600  0.27561300  0.86764800  1
  O  O0  1  0.00051400  0.36491200  0.43955000  1
  O  O1  1  0.93812200  0.80902600  0.17191900  1
  O  O2  1  0.81427200  0.37814700  0.04831700  1
  O  O3  1  0.06389200  0.42910300  0.88624400  1
  O  O4  1  0.58203500  0.45986700  0.20726100  1
  O  O5  1  0.87607100  0.54788100  0.21758500  1
  O  O6  1  0.89260200  0.34398800  0.71584100  1
  O  O7  1  0.43015300  0.33279000  0.97625500  1
  O  O8  1  0.63026600  0.41488900  0.76612200  1
  O  O9  1  0.11659400  0.62359200  0.33082100  1
  O  O10  1  0.29296700  0.60101700  0.52635800  1
  O  O11  1  0.49626300  0.67336100  0.35217100  1
  O  O12  1  0.33936000  0.62006900  0.83491900  1
  O  O13  1  0.19389800  0.86707200  0.76961100  1
  O  O14  1  0.94100200  0.11442400  0.51039500  1
  O  O15  1  0.67399200  0.96176200  0.52512600  1
  O  O16  1  0.03161100  0.29458100  0.17062400  1
  O  O17  1  0.39061900  0.13705200  0.72754300  1
  O  O18  1  0.31500600  0.12959200  0.21482100  1
  O  O19  1  0.11008300  0.64855200  0.02090300  1
  O  O20  1  0.18083600  0.96003100  0.06754700  1
  O  O21  1  0.50971100  0.95076600  0.30102200  1
  O  O22  1  0.42028000  0.87695500  0.57773100  1
  O  O23  1  0.65763800  0.18765900  0.03179700  1
  O  O24  1  0.21861300  0.20526300  0.92308100  1
  O  O25  1  0.92203000  0.17029700  0.95041600  1
  O  O26  1  0.19364300  0.34067900  0.64769600  1
  O  O27  1  0.77680400  0.03256000  0.23699900  1
  O  O28  1  0.20427500  0.08868000  0.50803100  1
  O  O29  1  0.90060700  0.85771000  0.72888100  1
  O  O30  1  0.09190400  0.66729600  0.69962700  1
  O  O31  1  0.42684800  0.01310600  0.95947600  1
  O  O32  1  0.67291800  0.79029100  0.07038800  1
  O  O33  1  0.86956900  0.60452300  0.55876900  1
  O  O34  1  0.74578400  0.76290900  0.36712700  1
  O  O35  1  0.25186100  0.33766400  0.37538500  1
  O  O36  1  0.04616500  0.06053300  0.26881000  1
  O  O37  1  0.65659600  0.70550900  0.64432400  1
  O  O38  1  0.65588800  0.13898000  0.75879300  1
  O  O39  1  0.08027000  0.08038700  0.76720500  1
  O  O40  1  0.37427000  0.77006700  0.11325400  1
  O  O41  1  0.57409500  0.61793600  0.94730800  1
  O  O42  1  0.99604000  0.83475500  0.45308600  1
  O  O43  1  0.72242800  0.38715600  0.46638100  1
  O  O44  1  0.89305400  0.61482100  0.88604600  1
  O  O45  1  0.26325100  0.86702200  0.33635600  1
  O  O46  1  0.48343300  0.14364800  0.46849700  1
  O  O47  1  0.35131900  0.53784600  0.15290800  1
loop_
_geom_bond_atom_site_label_1
_geom_bond_atom_site_label_2
_geom_bond_distance
_geom_bond_site_symmetry_2
Cr0 O26 1.977897 1_555
Cr0 O10 1.990685 1_555
Cr0 O0 1.994133 1_555
Cr0 O9 2.003355 1_555
Cr0 O35 2.011766 1_555
Cr1 O4 1.770285 1_555
Cr1 O5 1.824659 1_555
Cr1 O43 1.970452 1_555
Cr1 O2 2.186457 1_555
Cr2 O41 1.842786 1_555
Cr2 O7 1.853016 1_555
Cr2 O8 1.963357 1_555
Cr2 O12 2.035535 1_555
Cr3 O14 1.878677 1_555
Cr3 O0 1.899321 1_655
Cr3 O6 1.907942 1_555
Cr3 O43 1.959458 1_555
Cr4 O27 1.910865 1_555
Cr4 O21 1.918751 1_545
Cr4 O15 1.956548 1_545
Cr4 O46 2.055264 1_555
Cr5 O30 1.913251 1_555
Cr5 O29 1.981920 1_455
Cr5 O44 1.987307 1_455
Cr5 O19 2.009376 1_556
Cr5 O13 2.069024 1_555
Cr6 O36 1.862019 1_565
Cr6 O1 1.945748 1_455
Cr6 O45 1.953156 1_555
Cr6 O42 1.979726 1_455
Cr6 O20 2.121927 1_555
Cr7 O8 1.948775 1_555
Cr7 O43 1.954923 1_555
Cr7 O33 1.984576 1_555
Cr7 O37 2.060455 1_555
Cr8 O24 1.959736 1_555
Cr8 O39 1.973692 1_555
Cr8 O17 2.038067 1_555
Cr8 O31 2.062521 1_555
Cr8 O13 2.090721 1_545
Cr8 O20 2.128155 1_546
Cr9 O11 1.961269 1_555
Cr9 O22 2.038482 1_555
Cr9 O15 2.069588 1_555
Cr9 O21 2.083515 1_555
Cr9 O37 2.093689 1_555
Cr9 O34 2.113078 1_555
Cr10 O5 1.945242 1_555
Cr10 O9 1.954810 1_655
Cr10 O1 2.052370 1_555
Cr10 O33 2.077326 1_555
Cr10 O34 2.179762 1_555
Cr10 O42 2.182922 1_555
Cr11 O19 1.756557 1_555
Cr11 O12 1.815970 1_554
Cr11 O40 1.868331 1_555
Cr11 O47 1.874457 1_555
Cr12 O45 1.942859 1_545
Cr12 O28 1.990135 1_555
Cr12 O46 2.012640 1_555
Cr12 O22 2.049037 1_545
Cr12 O21 2.062186 1_545
Cr12 O18 2.139949 1_555
Cr13 O31 1.874300 1_564
Cr13 O40 1.962664 1_555
Cr13 O20 1.983299 1_555
Cr13 O18 2.064768 1_565
Cr13 O45 2.122111 1_555
Cr13 O21 2.129178 1_555
Cr14 O25 1.868710 1_554
Cr14 O2 1.914906 1_555
Cr14 O27 2.050030 1_555
Cr14 O16 2.051810 1_655
Cr14 O23 2.263251 1_555
Cr15 O31 1.909366 1_555
Cr15 O23 1.940169 1_556
Cr15 O7 1.994388 1_555
Cr15 O38 2.077452 1_555
Cr15 O17 2.166061 1_555
Cr16 O11 1.926154 1_555
Cr16 O10 1.938157 1_555
Cr16 O45 1.987283 1_555
Cr16 O9 2.039936 1_555
Cr16 O40 2.183447 1_555
Cr16 O47 2.400810 1_555
Cr17 O26 1.904425 1_555
Cr17 O17 1.940877 1_555
Cr17 O28 1.982327 1_555
Cr17 O35 2.015329 1_555
Cr17 O46 2.216148 1_555
Cr18 O24 1.935135 1_555
Cr18 O3 1.957201 1_555
Cr18 O39 1.961678 1_555
Cr18 O26 2.060642 1_555
Cr18 O25 2.076421 1_455
Cr18 O6 2.149218 1_455
Cr19 O30 1.926720 1_555
Cr19 O12 1.972451 1_555
Cr19 O10 1.995498 1_555
Cr19 O13 2.002767 1_555
Cr19 O22 2.188687 1_555
Cr20 O30 1.902865 1_655
Cr20 O3 1.903742 1_655
Cr20 O44 1.991290 1_555
Cr20 O6 2.007294 1_555
Cr20 O33 2.037385 1_555
Cr21 O39 1.872615 1_565
Cr21 O14 1.982681 1_465
Cr21 O28 2.080147 1_565
Cr21 O29 2.119212 1_455
Cr21 O13 2.271933 1_555
Cr21 O42 2.368531 1_455
Cr22 O38 1.930175 1_555
Cr22 O46 1.978611 1_555
Cr22 O17 2.007191 1_555
Cr22 O15 2.060694 1_545
Cr22 O22 2.244038 1_545
Cr23 O41 1.951788 1_555
Cr23 O32 2.154049 1_556
Cr23 O37 2.196290 1_555
Cr23 O44 2.251346 1_555
Cr23 O29 2.466114 1_555
Cr24 O24 1.885349 1_554
Cr24 O36 1.905717 1_555
Cr24 O20 2.010076 1_545
Cr24 O18 2.064811 1_555
Cr24 O16 2.099064 1_555
Cr25 O0 1.961866 1_555
Cr25 O36 1.993734 1_555
Cr25 O14 2.043151 1_455
Cr25 O16 2.081350 1_555
Cr25 O28 2.090456 1_555
Cr25 O35 2.139319 1_555
Cr26 O29 1.974121 1_555
Cr26 O42 1.985139 1_555
Cr26 O34 2.037583 1_555
Cr26 O37 2.064860 1_555
Cr26 O33 2.091825 1_555
Cr26 O15 2.260194 1_555
Cr27 O32 1.759920 1_555
Cr27 O1 1.811636 1_555
Cr27 O27 1.828177 1_565
Cr27 O34 1.886705 1_555
Cr28 O4 1.954537 1_555
Cr28 O41 1.977449 1_554
Cr28 O11 2.030239 1_555
Cr28 O47 2.097308 1_555
Cr28 O40 2.103809 1_555
Cr28 O32 2.119291 1_555
Cr29 O47 2.043858 1_555
Cr29 O7 2.048556 1_554
Cr29 O35 2.138149 1_555
Cr29 O18 2.155982 1_555
Cr29 O4 2.566408 1_555
Cr30 O3 1.936720 1_654
Cr30 O2 1.960179 1_555
Cr30 O5 2.054635 1_555
Cr30 O44 2.083499 1_554
Cr30 O19 2.119732 1_655
Cr30 O16 2.222735 1_655
Cr31 O23 1.953891 1_556
Cr31 O6 1.994426 1_555
Cr31 O25 2.095893 1_555
Cr31 O8 2.113596 1_555
Cr31 O38 2.124350 1_555
Cr31 O2 2.192871 1_556
