# generated using pymatgen
data_Hf6Ga16Rh7
_symmetry_space_group_name_H-M   'P 1'
_cell_length_a   8.74306281
_cell_length_b   8.74306281
_cell_length_c   8.74306281
_cell_angle_alpha   60.00000000
_cell_angle_beta   60.00000000
_cell_angle_gamma   60.00000000
_symmetry_Int_Tables_number   1
_chemical_formula_structural   Hf6Ga16Rh7
_chemical_formula_sum   'Hf6 Ga16 Rh7'
_cell_volume   472.58049949
_cell_formula_units_Z   1
loop_
 _symmetry_equiv_pos_site_id
 _symmetry_equiv_pos_as_xyz
  1  'x, y, z'
loop_
 _atom_site_type_symbol
 _atom_site_label
 _atom_site_symmetry_multiplicity
 _atom_site_fract_x
 _atom_site_fract_y
 _atom_site_fract_z
 _atom_site_occupancy
  Hf  Hf0  1  0.69082300  0.69082300  0.30917700  1
  Hf  Hf1  1  0.30917700  0.69082300  0.30917700  1
  Hf  Hf2  1  0.69082300  0.30917700  0.30917700  1
  Hf  Hf3  1  0.30917700  0.30917700  0.69082300  1
  Hf  Hf4  1  0.69082300  0.30917700  0.69082300  1
  Hf  Hf5  1  0.30917700  0.69082300  0.69082300  1
  Ga  Ga0  1  0.87821200  0.87821200  0.36536500  1
  Ga  Ga1  1  0.87821200  0.36536500  0.87821200  1
  Ga  Ga2  1  0.36536500  0.87821200  0.87821200  1
  Ga  Ga3  1  0.87821200  0.87821200  0.87821200  1
  Ga  Ga4  1  0.12178800  0.12178800  0.63463500  1
  Ga  Ga5  1  0.12178800  0.63463500  0.12178800  1
  Ga  Ga6  1  0.63463500  0.12178800  0.12178800  1
  Ga  Ga7  1  0.12178800  0.12178800  0.12178800  1
  Ga  Ga8  1  0.65638000  0.65638000  0.03086000  1
  Ga  Ga9  1  0.65638000  0.03086000  0.65638000  1
  Ga  Ga10  1  0.03086000  0.65638000  0.65638000  1
  Ga  Ga11  1  0.65638000  0.65638000  0.65638000  1
  Ga  Ga12  1  0.34362000  0.34362000  0.96914000  1
  Ga  Ga13  1  0.34362000  0.96914000  0.34362000  1
  Ga  Ga14  1  0.96914000  0.34362000  0.34362000  1
  Ga  Ga15  1  0.34362000  0.34362000  0.34362000  1
  Rh  Rh0  1  0.00000000  0.00000000  0.00000000  1
  Rh  Rh1  1  0.00000000  0.00000000  0.50000000  1
  Rh  Rh2  1  0.50000000  0.00000000  0.50000000  1
  Rh  Rh3  1  0.00000000  0.50000000  0.50000000  1
  Rh  Rh4  1  0.50000000  0.50000000  0.00000000  1
  Rh  Rh5  1  0.00000000  0.50000000  0.00000000  1
  Rh  Rh6  1  0.50000000  0.00000000  0.00000000  1
loop_
_geom_bond_atom_site_label_1
_geom_bond_atom_site_label_2
_geom_bond_distance
_geom_bond_site_symmetry_2
Hf0 Rh5 3.176559 1_655
Hf0 Rh6 3.176559 1_565
Hf0 Rh2 3.176559 1_565
Hf0 Rh3 3.176559 1_655
Hf0 Hf2 3.336755 1_555
Hf0 Hf1 3.336755 1_555
Hf0 Hf4 3.336755 1_555
Hf0 Hf5 3.336755 1_555
Hf1 Rh4 3.176559 1_555
Hf1 Rh3 3.176559 1_555
Hf1 Rh1 3.176559 1_565
Hf1 Rh6 3.176559 1_565
Hf1 Hf3 3.336755 1_555
Hf1 Hf2 3.336755 1_555
Hf1 Hf5 3.336755 1_555
Hf2 Rh4 3.176559 1_555
Hf2 Rh2 3.176559 1_555
Hf2 Rh5 3.176559 1_655
Hf2 Rh1 3.176559 1_655
Hf2 Hf3 3.336755 1_555
Hf2 Hf4 3.336755 1_555
Hf3 Rh3 3.176559 1_555
Hf3 Rh2 3.176559 1_555
Hf3 Rh5 3.176559 1_556
Hf3 Rh6 3.176559 1_556
Hf3 Hf4 3.336755 1_555
Hf3 Hf5 3.336755 1_555
Hf4 Rh1 3.176559 1_655
Hf4 Rh6 3.176559 1_556
Hf4 Rh4 3.176559 1_556
Hf4 Rh3 3.176559 1_655
Hf4 Hf5 3.336755 1_555
Hf5 Rh1 3.176559 1_565
Hf5 Rh5 3.176559 1_556
Hf5 Rh2 3.176559 1_565
Hf5 Rh4 3.176559 1_556
Ga0 Rh0 2.608224 1_665
Ga0 Rh1 2.700706 1_665
Ga0 Rh3 2.700713 1_655
Ga0 Rh2 2.700713 1_565
Ga0 Ga10 2.808753 1_655
Ga0 Ga9 2.808753 1_565
Ga0 Ga11 2.808758 1_555
Ga0 Ga7 3.011710 1_665
Ga0 Ga6 3.011722 1_565
Ga0 Ga5 3.011722 1_655
Ga0 Hf1 3.146998 1_655
Ga0 Hf2 3.146998 1_565
Ga0 Hf0 3.147005 1_555
Ga1 Rh0 2.608224 1_656
Ga1 Rh5 2.700706 1_656
Ga1 Rh3 2.700713 1_655
Ga1 Rh4 2.700713 1_556
Ga1 Ga8 2.808753 1_556
Ga1 Ga10 2.808753 1_655
Ga1 Ga11 2.808758 1_555
Ga1 Ga7 3.011710 1_656
Ga1 Ga6 3.011722 1_556
Ga1 Ga4 3.011722 1_655
Ga1 Hf2 3.146998 1_556
Ga1 Hf3 3.146998 1_655
Ga1 Hf4 3.147005 1_555
Ga2 Rh0 2.608224 1_566
Ga2 Rh6 2.700706 1_566
Ga2 Rh2 2.700713 1_565
Ga2 Rh4 2.700713 1_556
Ga2 Ga9 2.808753 1_565
Ga2 Ga8 2.808753 1_556
Ga2 Ga7 3.011710 1_566
Ga2 Ga4 3.011722 1_565
Ga2 Ga5 3.011722 1_556
Ga2 Hf3 3.146998 1_565
Ga2 Hf1 3.146998 1_556
Ga2 Hf5 3.147005 1_555
Ga3 Rh0 2.608217 1_666
Ga3 Rh6 2.700714 1_566
Ga3 Rh5 2.700714 1_656
Ga3 Rh1 2.700714 1_665
Ga3 Ga9 2.808760 1_565
Ga3 Ga8 2.808760 1_556
Ga3 Ga6 3.011710 1_566
Ga3 Ga4 3.011710 1_665
Ga3 Ga5 3.011710 1_656
Ga3 Hf4 3.146999 1_565
Ga3 Hf5 3.146999 1_655
Ga3 Hf0 3.146999 1_556
Ga4 Rh0 2.608224 1_556
Ga4 Rh1 2.700706 1_555
Ga4 Rh2 2.700713 1_555
Ga4 Rh3 2.700713 1_555
Ga4 Hf4 3.146998 1_455
Ga4 Hf5 3.146998 1_545
Ga4 Hf3 3.147005 1_555
Ga5 Rh0 2.608224 1_565
Ga5 Rh5 2.700706 1_555
Ga5 Rh4 2.700713 1_555
Ga5 Rh3 2.700713 1_555
Ga5 Hf5 3.146998 1_554
Ga5 Hf0 3.146998 1_455
Ga5 Hf1 3.147005 1_555
Ga6 Rh0 2.608224 1_655
Ga6 Rh6 2.700706 1_555
Ga6 Rh2 2.700713 1_555
Ga6 Rh4 2.700713 1_555
Ga6 Hf0 3.146998 1_545
Ga6 Hf4 3.146998 1_554
Ga6 Hf2 3.147005 1_555
Ga7 Rh0 2.608217 1_555
Ga7 Rh1 2.700714 1_555
Ga7 Rh6 2.700714 1_555
Ga7 Rh5 2.700714 1_555
Ga7 Hf2 3.146999 1_455
Ga7 Hf1 3.146999 1_545
Ga7 Hf3 3.146999 1_554
Ga8 Rh6 2.533501 1_565
Ga8 Rh5 2.533501 1_655
Ga8 Rh4 2.533501 1_555
Ga8 Hf0 2.767445 1_555
Ga8 Hf1 2.767445 1_555
Ga8 Hf2 2.767445 1_555
Ga9 Rh1 2.533501 1_655
Ga9 Rh6 2.533501 1_556
Ga9 Rh2 2.533501 1_555
Ga9 Hf4 2.767445 1_555
Ga9 Hf3 2.767445 1_555
Ga9 Hf2 2.767445 1_555
Ga10 Rh1 2.533501 1_565
Ga10 Rh5 2.533501 1_556
Ga10 Rh3 2.533501 1_555
Ga10 Hf5 2.767445 1_555
Ga10 Hf1 2.767445 1_555
Ga10 Hf3 2.767445 1_555
Ga10 Ga3 2.808760 1_455
Ga11 Rh3 2.533501 1_655
Ga11 Rh2 2.533501 1_565
Ga11 Rh4 2.533501 1_556
Ga11 Hf0 2.767445 1_555
Ga11 Hf4 2.767445 1_555
Ga11 Hf5 2.767445 1_555
Ga11 Ga2 2.808758 1_555
Ga12 Rh4 2.533501 1_556
Ga12 Rh5 2.533501 1_556
Ga12 Rh6 2.533501 1_556
Ga12 Hf4 2.767445 1_555
Ga12 Hf5 2.767445 1_555
Ga12 Hf3 2.767445 1_555
Ga12 Ga6 2.808753 1_556
Ga12 Ga5 2.808753 1_556
Ga12 Ga7 2.808760 1_556
Ga13 Rh2 2.533501 1_565
Ga13 Rh1 2.533501 1_565
Ga13 Rh6 2.533501 1_565
Ga13 Hf5 2.767445 1_555
Ga13 Hf0 2.767445 1_555
Ga13 Hf1 2.767445 1_555
Ga13 Ga4 2.808753 1_565
Ga13 Ga6 2.808753 1_565
Ga13 Ga7 2.808760 1_565
Ga14 Rh3 2.533501 1_655
Ga14 Rh1 2.533501 1_655
Ga14 Rh5 2.533501 1_655
Ga14 Hf4 2.767445 1_555
Ga14 Hf0 2.767445 1_555
Ga14 Hf2 2.767445 1_555
Ga14 Ga5 2.808753 1_655
Ga14 Ga4 2.808753 1_655
Ga14 Ga7 2.808760 1_655
Ga15 Rh2 2.533501 1_555
Ga15 Rh4 2.533501 1_555
Ga15 Rh3 2.533501 1_555
Ga15 Hf1 2.767445 1_555
Ga15 Hf3 2.767445 1_555
Ga15 Hf2 2.767445 1_555
Ga15 Ga4 2.808758 1_555
Ga15 Ga6 2.808758 1_555
Ga15 Ga5 2.808758 1_555
