# generated using pymatgen
data_Ta3Co2Mo
_symmetry_space_group_name_H-M   'P 1'
_cell_length_a   6.04605688
_cell_length_b   4.97230212
_cell_length_c   4.88774364
_cell_angle_alpha   75.63524921
_cell_angle_beta   52.81794986
_cell_angle_gamma   51.54934430
_symmetry_Int_Tables_number   1
_chemical_formula_structural   Ta3Co2Mo
_chemical_formula_sum   'Ta3 Co2 Mo1'
_cell_volume   89.74103080
_cell_formula_units_Z   1
loop_
 _symmetry_equiv_pos_site_id
 _symmetry_equiv_pos_as_xyz
  1  'x, y, z'
loop_
 _atom_site_type_symbol
 _atom_site_label
 _atom_site_symmetry_multiplicity
 _atom_site_fract_x
 _atom_site_fract_y
 _atom_site_fract_z
 _atom_site_occupancy
  Ta  Ta0  1  0.84123532  0.15876468  0.84123532  1
  Ta  Ta1  1  0.66063726  0.66178782  0.33825653  1
  Ta  Ta2  1  0.33825653  0.33931839  0.66063726  1
  Co  Co0  1  0.74969356  0.75030644  0.74969356  1
  Co  Co1  1  0.24968350  0.25031650  0.24968350  1
  Mo  Mo0  1  0.16049383  0.83950617  0.16049383  1
loop_
_geom_bond_atom_site_label_1
_geom_bond_atom_site_label_2
_geom_bond_distance
_geom_bond_site_symmetry_2
Co0 Co1 2.455613 1_566
Co0 Co1 2.455613 1_655
Co0 Ta1 2.559993 1_556
Co0 Ta2 2.559993 1_655
Co0 Ta1 2.563292 1_555
Co0 Ta2 2.563292 1_565
Co0 Mo0 2.598055 1_556
Co0 Mo0 2.598055 1_655
Co0 Ta0 2.603768 1_565
Co0 Ta0 2.603768 1_555
Co1 Ta1 2.559922 1_545
Co1 Ta2 2.559922 1_555
Co1 Ta1 2.563362 1_455
Co1 Ta2 2.563362 1_554
Co1 Mo0 2.597930 1_545
Co1 Mo0 2.597930 1_555
Co1 Ta0 2.603893 1_455
Co1 Ta0 2.603893 1_554
Mo0 Ta0 2.698443 1_464
Mo0 Ta0 2.892023 1_465
Mo0 Ta0 2.892023 1_554
Mo0 Ta2 3.134675 1_465
Mo0 Ta1 3.134675 1_554
Mo0 Ta1 3.134738 1_465
Mo0 Ta2 3.134738 1_554
Mo0 Ta1 3.186088 1_555
Mo0 Ta2 3.186088 1_555
Mo0 Ta1 3.230450 1_455
Mo0 Ta2 3.230450 1_564
