# generated using pymatgen
data_Al8P8H22C14N4O33F2
_symmetry_space_group_name_H-M   'P 1'
_cell_length_a   13.05099656
_cell_length_b   13.05099656
_cell_length_c   14.37527538
_cell_angle_alpha   82.62023046
_cell_angle_beta   82.62023046
_cell_angle_gamma   64.97698184
_symmetry_Int_Tables_number   1
_chemical_formula_structural   Al8P8H22C14N4O33F2
_chemical_formula_sum   'Al16 P16 H44 C28 N8 O66 F4'
_cell_volume   2192.82145670
_cell_formula_units_Z   2
loop_
 _symmetry_equiv_pos_site_id
 _symmetry_equiv_pos_as_xyz
  1  'x, y, z'
loop_
 _atom_site_type_symbol
 _atom_site_label
 _atom_site_symmetry_multiplicity
 _atom_site_fract_x
 _atom_site_fract_y
 _atom_site_fract_z
 _atom_site_occupancy
  Al  Al0  1  0.95805122  0.36512524  0.59067639  1
  Al  Al1  1  0.63487476  0.04194878  0.90932361  1
  Al  Al2  1  0.04194878  0.63487476  0.40932361  1
  Al  Al3  1  0.36512524  0.95805122  0.09067639  1
  Al  Al4  1  0.35257726  0.13732918  0.44083673  1
  Al  Al5  1  0.86267082  0.64742274  0.05916327  1
  Al  Al6  1  0.64742274  0.86267082  0.55916327  1
  Al  Al7  1  0.13732918  0.35257726  0.94083673  1
  Al  Al8  1  0.18450894  0.98442952  0.49103551  1
  Al  Al9  1  0.01557048  0.81549106  0.00896449  1
  Al  Al10  1  0.81549106  0.01557048  0.50896449  1
  Al  Al11  1  0.98442952  0.18450894  0.99103551  1
  Al  Al12  1  0.05210363  0.26789279  0.30341781  1
  Al  Al13  1  0.73210721  0.94789637  0.19658219  1
  Al  Al14  1  0.94789637  0.73210721  0.69658219  1
  Al  Al15  1  0.26789279  0.05210363  0.80341781  1
  P  P0  1  0.27194979  0.04375985  0.29469215  1
  P  P1  1  0.95624015  0.72805021  0.20530785  1
  P  P2  1  0.72805021  0.95624015  0.70530785  1
  P  P3  1  0.04375985  0.27194979  0.79469215  1
  P  P4  1  0.38729592  0.95607235  0.60605998  1
  P  P5  1  0.04392765  0.61270408  0.89394002  1
  P  P6  1  0.61270408  0.04392765  0.39394002  1
  P  P7  1  0.95607235  0.38729592  0.10605998  1
  P  P8  1  0.93933956  0.17893463  0.48593580  1
  P  P9  1  0.82106537  0.06066044  0.01406420  1
  P  P10  1  0.06066044  0.82106537  0.51406420  1
  P  P11  1  0.17893463  0.93933956  0.98593580  1
  P  P12  1  0.15147521  0.37310367  0.43780849  1
  P  P13  1  0.62689633  0.84852479  0.06219151  1
  P  P14  1  0.84852479  0.62689633  0.56219151  1
  P  P15  1  0.37310367  0.15147521  0.93780849  1
  H  H0  1  0.24967155  0.41574527  0.73464277  1
  H  H1  1  0.58425473  0.75032845  0.76535723  1
  H  H2  1  0.75032845  0.58425473  0.26535723  1
  H  H3  1  0.41574527  0.24967155  0.23464277  1
  H  H4  1  0.56423358  0.23587714  0.69662059  1
  H  H5  1  0.76412286  0.43576642  0.80337941  1
  H  H6  1  0.43576642  0.76412286  0.30337941  1
  H  H7  1  0.23587714  0.56423358  0.19662059  1
  H  H8  1  0.26231526  0.58128892  0.64756445  1
  H  H9  1  0.41871108  0.73768474  0.85243555  1
  H  H10  1  0.73768474  0.41871108  0.35243555  1
  H  H11  1  0.58128892  0.26231526  0.14756445  1
  H  H12  1  0.45793420  0.18753228  0.68770777  1
  H  H13  1  0.81246772  0.54206580  0.81229223  1
  H  H14  1  0.54206580  0.81246772  0.31229223  1
  H  H15  1  0.18753228  0.45793420  0.18770777  1
  H  H16  1  0.66288585  0.52296927  0.59795367  1
  H  H17  1  0.47703073  0.33711415  0.90204633  1
  H  H18  1  0.33711415  0.47703073  0.40204633  1
  H  H19  1  0.52296927  0.66288585  0.09795367  1
  H  H20  1  0.51062243  0.70737375  0.59764360  1
  H  H21  1  0.29262625  0.48937757  0.90235640  1
  H  H22  1  0.48937757  0.29262625  0.40235640  1
  H  H23  1  0.70737375  0.51062243  0.09764360  1
  H  H24  1  0.62227783  0.35318364  0.62245172  1
  H  H25  1  0.64681636  0.37772217  0.87754828  1
  H  H26  1  0.37772217  0.64681636  0.37754828  1
  H  H27  1  0.35318364  0.62227783  0.12245172  1
  H  H28  1  0.53084086  0.22150799  0.58339131  1
  H  H29  1  0.77849201  0.46915914  0.91660869  1
  H  H30  1  0.46915914  0.77849201  0.41660869  1
  H  H31  1  0.22150799  0.53084086  0.08339131  1
  H  H32  1  0.28491241  0.29724645  0.66840884  1
  H  H33  1  0.70275355  0.71508759  0.83159116  1
  H  H34  1  0.71508759  0.70275355  0.33159116  1
  H  H35  1  0.29724645  0.28491241  0.16840884  1
  H  H36  1  0.31829657  0.74046986  0.61769621  1
  H  H37  1  0.25953014  0.68170343  0.88230379  1
  H  H38  1  0.68170343  0.25953014  0.38230379  1
  H  H39  1  0.74046986  0.31829657  0.11769621  1
  H  H40  1  0.24103720  0.43541882  0.60985326  1
  H  H41  1  0.56458118  0.75896280  0.89014674  1
  H  H42  1  0.75896280  0.56458118  0.39014674  1
  H  H43  1  0.43541882  0.24103720  0.10985326  1
  C  C0  1  0.38150976  0.65319153  0.62109335  1
  C  C1  1  0.34680847  0.61849024  0.87890665  1
  C  C2  1  0.61849024  0.34680847  0.37890665  1
  C  C3  1  0.65319153  0.38150976  0.12109335  1
  C  C4  1  0.57620032  0.53001199  0.60884980  1
  C  C5  1  0.46998801  0.42379968  0.89115020  1
  C  C6  1  0.42379968  0.46998801  0.39115020  1
  C  C7  1  0.53001199  0.57620032  0.10884980  1
  C  C8  1  0.28923942  0.37909570  0.66744231  1
  C  C9  1  0.62090430  0.71076058  0.83255769  1
  C  C10  1  0.71076058  0.62090430  0.33255769  1
  C  C11  1  0.37909570  0.28923942  0.16744231  1
  C  C12  1  0.43665615  0.44992440  0.63823743  1
  C  C13  1  0.55007560  0.56334385  0.86176257  1
  C  C14  1  0.56334385  0.55007560  0.36176257  1
  C  C15  1  0.44992440  0.43665615  0.13823743  1
  C  C16  1  0.49546391  0.24537559  0.65509662  1
  C  C17  1  0.75462441  0.50453609  0.84490338  1
  C  C18  1  0.50453609  0.75462441  0.34490338  1
  C  C19  1  0.24537559  0.49546391  0.15509662  1
  C  C20  1  0.55189554  0.43667061  0.62321516  1
  C  C21  1  0.56332939  0.44810446  0.87678484  1
  C  C22  1  0.44810446  0.56332939  0.37678484  1
  C  C23  1  0.43667061  0.55189554  0.12321516  1
  C  C24  1  0.35198172  0.56347127  0.63654769  1
  C  C25  1  0.43652873  0.64801828  0.86345231  1
  C  C26  1  0.64801828  0.43652873  0.36345231  1
  C  C27  1  0.56347127  0.35198172  0.13654769  1
  N  N0  1  0.40831474  0.36125284  0.65335333  1
  N  N1  1  0.63874716  0.59168526  0.84664667  1
  N  N2  1  0.59168526  0.63874716  0.34664667  1
  N  N3  1  0.36125284  0.40831474  0.15335333  1
  N  N4  1  0.49218062  0.63689914  0.60748035  1
  N  N5  1  0.36310086  0.50781938  0.89251965  1
  N  N6  1  0.50781938  0.36310086  0.39251965  1
  N  N7  1  0.63689914  0.49218062  0.10748035  1
  O  O0  1  0.39295487  0.06547619  0.55531083  1
  O  O1  1  0.93452381  0.60704513  0.94468917  1
  O  O2  1  0.60704513  0.93452381  0.44468917  1
  O  O3  1  0.06547619  0.39295487  0.05531083  1
  O  O4  1  0.27804570  0.29043570  0.43652653  1
  O  O5  1  0.70956430  0.72195430  0.06347347  1
  O  O6  1  0.72195430  0.70956430  0.56347347  1
  O  O7  1  0.29043570  0.27804570  0.93652653  1
  O  O8  1  0.08793739  0.35948732  0.53355725  1
  O  O9  1  0.64051268  0.91206261  0.96644275  1
  O  O10  1  0.91206261  0.64051268  0.46644275  1
  O  O11  1  0.35948732  0.08793739  0.03355725  1
  O  O12  1  0.85213501  0.50583504  0.57628263  1
  O  O13  1  0.49416496  0.14786499  0.92371737  1
  O  O14  1  0.14786499  0.49416496  0.42371737  1
  O  O15  1  0.50583504  0.85213501  0.07628263  1
  O  O16  1  0.83908025  0.14673966  0.48917296  1
  O  O17  1  0.85326034  0.16091975  0.01082704  1
  O  O18  1  0.16091975  0.85326034  0.51082704  1
  O  O19  1  0.14673966  0.83908025  0.98917296  1
  O  O20  1  0.90393776  0.28212546  0.54508295  1
  O  O21  1  0.71787454  0.09606224  0.95491705  1
  O  O22  1  0.09606224  0.71787454  0.45491705  1
  O  O23  1  0.28212546  0.90393776  0.04508295  1
  O  O24  1  0.96662034  0.21778559  0.38233464  1
  O  O25  1  0.78221441  0.03337966  0.11766536  1
  O  O26  1  0.03337966  0.78221441  0.61766536  1
  O  O27  1  0.21778559  0.96662034  0.88233464  1
  O  O28  1  0.50591782  0.85520046  0.59400920  1
  O  O29  1  0.14479954  0.49408218  0.90599080  1
  O  O30  1  0.49408218  0.14479954  0.40599080  1
  O  O31  1  0.85520046  0.50591782  0.09400920  1
  O  O32  1  0.30088344  0.92519319  0.56545610  1
  O  O33  1  0.07480681  0.69911656  0.93454390  1
  O  O34  1  0.69911656  0.07480681  0.43454390  1
  O  O35  1  0.92519319  0.30088344  0.06545610  1
  O  O36  1  0.09381308  0.35721753  0.35703071  1
  O  O37  1  0.64278247  0.90618692  0.14296929  1
  O  O38  1  0.90618692  0.64278247  0.64296929  1
  O  O39  1  0.35721753  0.09381308  0.85703071  1
  O  O40  1  0.22610469  0.97192717  0.36703161  1
  O  O41  1  0.02807283  0.77389531  0.13296839  1
  O  O42  1  0.77389531  0.02807283  0.63296839  1
  O  O43  1  0.97192717  0.22610469  0.86703161  1
  O  O44  1  0.17409440  0.15540851  0.25982576  1
  O  O45  1  0.84459149  0.82590560  0.24017424  1
  O  O46  1  0.82590560  0.84459149  0.74017424  1
  O  O47  1  0.15540851  0.17409440  0.75982576  1
  O  O48  1  0.97078929  0.35333289  0.21210438  1
  O  O49  1  0.64666711  0.02921071  0.28789562  1
  O  O50  1  0.02921071  0.64666711  0.78789562  1
  O  O51  1  0.35333289  0.97078929  0.71210438  1
  O  O52  1  0.04286972  0.07941640  0.52537428  1
  O  O53  1  0.92058360  0.95713028  0.97462572  1
  O  O54  1  0.95713028  0.92058360  0.47462572  1
  O  O55  1  0.07941640  0.04286972  0.02537428  1
  O  O56  1  0.36127295  0.07053274  0.33549703  1
  O  O57  1  0.92946726  0.63872705  0.16450297  1
  O  O58  1  0.63872705  0.92946726  0.66450297  1
  O  O59  1  0.07053274  0.36127295  0.83549703  1
  O  O60  1  0.97325273  0.33062544  0.71031732  1
  O  O61  1  0.66937456  0.02674727  0.78968268  1
  O  O62  1  0.02674727  0.66937456  0.28968268  1
  O  O63  1  0.33062544  0.97325273  0.21031732  1
  O  O64  1  0.91271746  0.08728254  0.75000000  1
  O  O65  1  0.08728254  0.91271746  0.25000000  1
  F  F0  1  0.21318695  0.12353825  0.47336694  1
  F  F1  1  0.87646175  0.78681305  0.02663306  1
  F  F2  1  0.78681305  0.87646175  0.52663306  1
  F  F3  1  0.12353825  0.21318695  0.97336694  1
loop_
_geom_bond_atom_site_label_1
_geom_bond_atom_site_label_2
_geom_bond_distance
_geom_bond_site_symmetry_2
Al0 O60 1.735858 1_555
Al0 O20 1.746481 1_555
Al0 O8 1.762265 1_655
Al0 O12 1.776056 1_555
Al1 O61 1.735858 1_555
Al1 O21 1.746481 1_555
Al1 O9 1.762265 1_545
Al1 O13 1.776056 1_555
Al2 O62 1.735858 1_555
Al2 O22 1.746481 1_555
Al2 O10 1.762265 1_455
Al2 O14 1.776056 1_555
Al3 O63 1.735858 1_555
Al3 O23 1.746481 1_555
Al3 O11 1.762265 1_565
Al3 O15 1.776056 1_555
Al4 O0 1.809244 1_555
Al4 O56 1.810301 1_555
Al4 O4 1.811680 1_555
Al4 O30 1.890277 1_555
Al4 F0 1.896663 1_555
Al5 O1 1.809244 1_554
Al5 O57 1.810301 1_555
Al5 O5 1.811680 1_555
Al5 O31 1.890277 1_555
Al5 F1 1.896663 1_555
Al6 O2 1.809244 1_555
Al6 O58 1.810301 1_555
Al6 O6 1.811680 1_555
Al6 O28 1.890277 1_555
Al6 F2 1.896663 1_555
Al7 O3 1.809244 1_556
Al7 O59 1.810301 1_555
Al7 O7 1.811680 1_555
Al7 O29 1.890277 1_555
Al7 F3 1.896663 1_555
Al8 O52 1.783741 1_565
Al8 O40 1.802816 1_555
Al8 O32 1.805706 1_555
Al8 O18 1.845132 1_555
Al8 F0 1.983083 1_565
Al9 O53 1.783741 1_454
Al9 O41 1.802816 1_555
Al9 O33 1.805706 1_554
Al9 O19 1.845132 1_554
Al9 F1 1.983083 1_455
Al10 O54 1.783741 1_545
Al10 O42 1.802816 1_555
Al10 O34 1.805706 1_555
Al10 O16 1.845132 1_555
Al10 F2 1.983083 1_545
Al11 O55 1.783741 1_656
Al11 O43 1.802816 1_555
Al11 O35 1.805706 1_556
Al11 O17 1.845132 1_556
Al11 F3 1.983083 1_655
Al12 O24 1.749505 1_455
Al12 O48 1.753124 1_455
Al12 O44 1.756526 1_555
Al12 O36 1.767697 1_555
Al13 O25 1.749505 1_565
Al13 O49 1.753124 1_565
Al13 O45 1.756526 1_555
Al13 O37 1.767697 1_555
Al14 O26 1.749505 1_655
Al14 O50 1.753124 1_655
Al14 O46 1.756526 1_555
Al14 O38 1.767697 1_555
Al15 O27 1.749505 1_545
Al15 O51 1.753124 1_545
Al15 O47 1.756526 1_555
Al15 O39 1.767697 1_555
H20 N4 1.033929 1_555
H21 N5 1.033929 1_555
H22 N6 1.033929 1_555
H23 N7 1.033929 1_555
C0 H36 1.086998 1_555
C0 N4 1.359399 1_555
C0 C24 1.364507 1_555
C1 H37 1.086998 1_555
C1 N5 1.359399 1_555
C1 C25 1.364507 1_555
C2 H38 1.086998 1_555
C2 N6 1.359399 1_555
C2 C26 1.364507 1_555
C3 H39 1.086998 1_555
C3 N7 1.359399 1_555
C4 H16 1.087706 1_555
C4 N4 1.361332 1_555
C5 H17 1.087706 1_555
C5 N5 1.361332 1_555
C6 H18 1.087706 1_555
C6 N6 1.361332 1_555
C7 H19 1.087706 1_555
C7 N7 1.361332 1_555
C8 H32 1.091550 1_555
C8 H40 1.098953 1_555
C8 H0 1.100114 1_555
C8 N0 1.461314 1_555
C9 H33 1.091550 1_555
C9 H41 1.098953 1_555
C9 H1 1.100114 1_555
C9 N1 1.461314 1_555
C10 H34 1.091550 1_555
C10 H42 1.098953 1_555
C10 H2 1.100114 1_555
C10 N2 1.461314 1_555
C11 H35 1.091550 1_555
C11 H43 1.098953 1_555
C11 H3 1.100114 1_555
C11 N3 1.461314 1_555
C12 N0 1.341690 1_555
C12 C24 1.424818 1_555
C12 C20 1.429902 1_555
C13 N1 1.341690 1_555
C13 C25 1.424818 1_555
C13 C21 1.429902 1_555
C14 N2 1.341690 1_555
C14 C26 1.424818 1_555
C14 C22 1.429902 1_555
C15 N3 1.341690 1_555
C15 C27 1.424818 1_555
C15 C23 1.429902 1_555
C16 H12 1.092001 1_555
C16 H4 1.096223 1_555
C16 H28 1.100579 1_555
C16 N0 1.457333 1_555
C17 H13 1.092001 1_555
C17 H5 1.096223 1_555
C17 H29 1.100579 1_555
C17 N1 1.457333 1_555
C18 H14 1.092001 1_555
C18 H6 1.096223 1_555
C18 H30 1.100579 1_555
C18 N2 1.457333 1_555
C19 H15 1.092001 1_555
C19 H7 1.096223 1_555
C19 H31 1.100579 1_555
C19 N3 1.457333 1_555
C20 H24 1.088518 1_555
C20 C4 1.368469 1_555
C21 H25 1.088518 1_555
C21 C5 1.368469 1_555
C22 H26 1.088518 1_555
C22 C6 1.368469 1_555
C23 H27 1.088518 1_555
C23 C7 1.368469 1_555
C24 H8 1.086394 1_555
C25 H9 1.086394 1_555
C26 H10 1.086394 1_555
C27 H11 1.086394 1_555
C27 C3 1.364507 1_555
O0 P4 1.544068 1_545
O1 P5 1.544068 1_655
O2 P6 1.544068 1_565
O3 P7 1.544068 1_455
O4 P12 1.543583 1_555
O5 P13 1.543583 1_555
O6 P14 1.543583 1_555
O7 P15 1.543583 1_555
O8 P12 1.543484 1_555
O9 P13 1.543484 1_556
O10 P14 1.543484 1_555
O11 P15 1.543484 1_554
O12 P14 1.548166 1_555
O13 P15 1.548166 1_555
O14 P12 1.548166 1_555
O15 P13 1.548166 1_555
O16 P8 1.528164 1_555
O17 P9 1.528164 1_555
O18 P10 1.528164 1_555
O19 P11 1.528164 1_555
O20 P8 1.554663 1_555
O21 P9 1.554663 1_556
O22 P10 1.554663 1_555
O23 P11 1.554663 1_554
O24 P8 1.557041 1_555
O25 P9 1.557041 1_555
O26 P10 1.557041 1_555
O27 P11 1.557041 1_555
O28 P4 1.557366 1_555
O29 P5 1.557366 1_555
O30 P6 1.557366 1_555
O31 P7 1.557366 1_555
O32 P4 1.545636 1_555
O33 P5 1.545636 1_555
O34 P6 1.545636 1_555
O35 P7 1.545636 1_555
O36 P12 1.541439 1_555
O37 P13 1.541439 1_555
O38 P14 1.541439 1_555
O39 P15 1.541439 1_555
O40 P0 1.543538 1_565
O41 P1 1.543538 1_455
O42 P2 1.543538 1_545
O43 P3 1.543538 1_655
O44 P0 1.551773 1_555
O45 P1 1.551773 1_555
O46 P2 1.551773 1_555
O47 P3 1.551773 1_555
O48 P7 1.544935 1_555
O49 P6 1.544935 1_555
O50 P5 1.544935 1_555
O51 P4 1.544935 1_555
O52 P8 1.535260 1_455
O53 P9 1.535260 1_566
O54 P10 1.535260 1_655
O55 P11 1.535260 1_544
O56 P0 1.548567 1_555
O57 P1 1.548567 1_555
O58 P2 1.548567 1_555
O59 P3 1.548567 1_555
O60 P3 1.535028 1_655
O61 P2 1.535028 1_545
O62 P1 1.535028 1_455
O63 P0 1.535028 1_565
