# generated using pymatgen
data_Mg6CrMo
_symmetry_space_group_name_H-M   'P 1'
_cell_length_a   4.93016300
_cell_length_b   5.95022100
_cell_length_c   10.76018900
_cell_angle_alpha   90.00000000
_cell_angle_beta   90.00000000
_cell_angle_gamma   90.00000000
_symmetry_Int_Tables_number   1
_chemical_formula_structural   Mg6CrMo
_chemical_formula_sum   'Mg12 Cr2 Mo2'
_cell_volume   315.65616374
_cell_formula_units_Z   2
loop_
 _symmetry_equiv_pos_site_id
 _symmetry_equiv_pos_as_xyz
  1  'x, y, z'
loop_
 _atom_site_type_symbol
 _atom_site_label
 _atom_site_symmetry_multiplicity
 _atom_site_fract_x
 _atom_site_fract_y
 _atom_site_fract_z
 _atom_site_occupancy
  Mg  Mg0  1  0.50000000  0.25070700  0.41902500  1
  Mg  Mg1  1  0.50000000  0.74929300  0.41902500  1
  Mg  Mg2  1  0.00000000  0.74502200  0.08767000  1
  Mg  Mg3  1  0.00000000  0.25497800  0.08767000  1
  Mg  Mg4  1  0.00000000  0.00000000  0.32497000  1
  Mg  Mg5  1  0.00000000  0.50000000  0.32347600  1
  Mg  Mg6  1  0.50000000  0.75070700  0.91902500  1
  Mg  Mg7  1  0.50000000  0.24929300  0.91902500  1
  Mg  Mg8  1  0.00000000  0.24502200  0.58767000  1
  Mg  Mg9  1  0.00000000  0.75497800  0.58767000  1
  Mg  Mg10  1  0.00000000  0.50000000  0.82497000  1
  Mg  Mg11  1  0.00000000  0.00000000  0.82347600  1
  Cr  Cr0  1  0.50000000  0.00000000  0.16743500  1
  Cr  Cr1  1  0.50000000  0.50000000  0.66743500  1
  Mo  Mo0  1  0.50000000  0.50000000  0.17072500  1
  Mo  Mo1  1  0.50000000  0.00000000  0.67072500  1
loop_
_geom_bond_atom_site_label_1
_geom_bond_atom_site_label_2
_geom_bond_distance
_geom_bond_site_symmetry_2
Mg0 Mg1 2.966697 1_555
Mg0 Mg1 2.983524 1_545
Mg0 Mg4 3.053887 1_655
Mg0 Mg4 3.053887 1_555
Mg0 Mg5 3.055158 1_655
Mg0 Mg5 3.055158 1_555
Mg0 Mo0 3.055912 1_555
Mg0 Mg8 3.061165 1_655
Mg0 Mg8 3.061165 1_555
Mg0 Mo1 3.091999 1_555
Mg1 Mg4 3.053887 1_565
Mg1 Mg4 3.053887 1_665
Mg1 Mg5 3.055158 1_655
Mg1 Mg5 3.055158 1_555
Mg1 Mo0 3.055912 1_555
Mg1 Mg9 3.061165 1_555
Mg1 Mg9 3.061165 1_655
Mg1 Mo1 3.091999 1_565
Mg2 Mg3 2.915870 1_555
Mg2 Mg5 2.926355 1_555
Mg2 Mg4 2.970124 1_565
Mg2 Mo0 3.000146 1_555
Mg2 Mo0 3.000146 1_455
Mg2 Mg3 3.034351 1_565
Mg2 Mg6 3.061165 1_554
Mg2 Mg6 3.061165 1_454
Mg3 Mg5 2.926355 1_555
Mg3 Mg4 2.970124 1_555
Mg3 Mo0 3.000146 1_555
Mg3 Mo0 3.000146 1_455
Mg3 Mg7 3.061165 1_554
Mg3 Mg7 3.061165 1_454
Mg4 Mg5 2.975154 1_545
Mg4 Mg5 2.975154 1_555
Mg4 Mg8 3.180537 1_555
Mg4 Mg9 3.180537 1_545
Mg5 Mo0 2.962793 1_555
Mg5 Mo0 2.962793 1_455
Mg5 Mg9 3.222298 1_555
Mg5 Mg8 3.222298 1_555
Mg6 Mg7 2.966697 1_565
Mg6 Mg7 2.983524 1_555
Mg6 Mo1 3.055912 1_565
Mg6 Mo0 3.091999 1_556
Mg7 Mo1 3.055912 1_555
Mg7 Mo0 3.091999 1_556
Mg8 Mg9 2.915870 1_545
Mg8 Mo1 3.000146 1_455
Mg8 Mo1 3.000146 1_555
Mg8 Mg9 3.034351 1_555
Mg9 Mo1 3.000146 1_465
Mg9 Mo1 3.000146 1_565
Mg10 Mg9 2.970124 1_555
Mg10 Mg8 2.970124 1_555
Mg10 Mg11 2.975154 1_555
Mg10 Mg11 2.975154 1_565
Mg10 Mg6 3.053887 1_455
Mg10 Mg6 3.053887 1_555
Mg10 Mg7 3.053887 1_455
Mg10 Mg7 3.053887 1_555
Mg10 Mg3 3.180537 1_556
Mg10 Mg2 3.180537 1_556
Mg11 Mg8 2.926355 1_555
Mg11 Mg9 2.926355 1_545
Mg11 Mo1 2.962793 1_455
Mg11 Mo1 2.962793 1_555
Mg11 Mg6 3.055158 1_445
Mg11 Mg7 3.055158 1_455
Mg11 Mg6 3.055158 1_545
Mg11 Mg7 3.055158 1_555
Mg11 Mg3 3.222298 1_556
Mg11 Mg2 3.222298 1_546
Cr0 Mo0 2.975321 1_545
Cr0 Mo0 2.975321 1_555
Cr0 Mg4 2.991657 1_555
Cr0 Mg4 2.991657 1_655
Cr0 Mg2 3.019123 1_545
Cr0 Mg3 3.019123 1_555
Cr0 Mg3 3.019123 1_655
Cr0 Mg2 3.019123 1_645
Cr0 Mg7 3.056947 1_554
Cr0 Mg6 3.056947 1_544
Cr0 Mg0 3.090962 1_555
Cr0 Mg1 3.090962 1_545
Cr1 Mo1 2.975321 1_565
Cr1 Mo1 2.975321 1_555
Cr1 Mg10 2.991657 1_555
Cr1 Mg10 2.991657 1_655
Cr1 Mg9 3.019123 1_555
Cr1 Mg9 3.019123 1_655
Cr1 Mg8 3.019123 1_655
Cr1 Mg8 3.019123 1_555
Cr1 Mg0 3.056947 1_555
Cr1 Mg1 3.056947 1_555
Cr1 Mg6 3.090962 1_555
Cr1 Mg7 3.090962 1_555
