# generated using pymatgen
data_Sc3Te
_symmetry_space_group_name_H-M   'P 1'
_cell_length_a   6.36170016
_cell_length_b   6.36170016
_cell_length_c   5.10436300
_cell_angle_alpha   90.00000000
_cell_angle_beta   90.00000000
_cell_angle_gamma   120.00000170
_symmetry_Int_Tables_number   1
_chemical_formula_structural   Sc3Te
_chemical_formula_sum   'Sc6 Te2'
_cell_volume   178.90338950
_cell_formula_units_Z   2
loop_
 _symmetry_equiv_pos_site_id
 _symmetry_equiv_pos_as_xyz
  1  'x, y, z'
loop_
 _atom_site_type_symbol
 _atom_site_label
 _atom_site_symmetry_multiplicity
 _atom_site_fract_x
 _atom_site_fract_y
 _atom_site_fract_z
 _atom_site_occupancy
  Sc  Sc0  1  0.16714700  0.33429400  0.25000000  1
  Sc  Sc1  1  0.66570600  0.83285300  0.25000000  1
  Sc  Sc2  1  0.16714700  0.83285300  0.25000000  1
  Sc  Sc3  1  0.83285300  0.66570600  0.75000000  1
  Sc  Sc4  1  0.33429400  0.16714700  0.75000000  1
  Sc  Sc5  1  0.83285300  0.16714700  0.75000000  1
  Te  Te0  1  0.33333300  0.66666700  0.75000000  1
  Te  Te1  1  0.66666700  0.33333300  0.25000000  1
loop_
_geom_bond_atom_site_label_1
_geom_bond_atom_site_label_2
_geom_bond_distance
_geom_bond_site_symmetry_2
Sc0 Te0 3.141151 1_554
Sc0 Te0 3.141151 1_555
Sc0 Sc5 3.147332 1_455
Sc0 Sc5 3.147332 1_454
Sc0 Sc4 3.147332 1_554
Sc0 Sc4 3.147332 1_555
Sc0 Sc1 3.171683 1_555
Sc0 Sc2 3.171683 1_555
Sc0 Te1 3.180851 1_455
Sc0 Te1 3.180858 1_555
Sc0 Sc1 3.190017 1_445
Sc0 Sc2 3.190017 1_545
Sc1 Te0 3.141151 1_554
Sc1 Te0 3.141151 1_555
Sc1 Sc5 3.147332 1_565
Sc1 Sc5 3.147332 1_564
Sc1 Sc3 3.147332 1_554
Sc1 Sc3 3.147332 1_555
Sc1 Sc2 3.171683 1_555
Sc1 Te1 3.180851 1_565
Sc1 Te1 3.180858 1_555
Sc1 Sc2 3.190017 1_655
Sc2 Te0 3.141148 1_554
Sc2 Te0 3.141148 1_555
Sc2 Sc4 3.147332 1_564
Sc2 Sc4 3.147332 1_565
Sc2 Sc3 3.147332 1_455
Sc2 Sc3 3.147332 1_454
Sc2 Te1 3.180854 1_455
Sc2 Te1 3.180854 1_565
Sc3 Te1 3.141151 1_555
Sc3 Te1 3.141151 1_556
Sc3 Sc4 3.171683 1_555
Sc3 Sc5 3.171683 1_555
Sc3 Te0 3.180851 1_655
Sc3 Te0 3.180858 1_555
Sc3 Sc4 3.190017 1_665
Sc3 Sc5 3.190017 1_565
Sc4 Te1 3.141151 1_555
Sc4 Te1 3.141151 1_556
Sc4 Sc5 3.171683 1_555
Sc4 Te0 3.180851 1_545
Sc4 Te0 3.180858 1_555
Sc4 Sc5 3.190017 1_455
Sc5 Te1 3.141148 1_555
Sc5 Te1 3.141148 1_556
Sc5 Te0 3.180854 1_545
Sc5 Te0 3.180854 1_655
