# generated using pymatgen
data_Mg14GaFe
_symmetry_space_group_name_H-M   'P 1'
_cell_length_a   6.26083044
_cell_length_b   6.26082996
_cell_length_c   9.85619655
_cell_angle_alpha   90.00000000
_cell_angle_beta   90.00000000
_cell_angle_gamma   120.00000256
_symmetry_Int_Tables_number   1
_chemical_formula_structural   Mg14GaFe
_chemical_formula_sum   'Mg14 Ga1 Fe1'
_cell_volume   334.58296583
_cell_formula_units_Z   1
loop_
 _symmetry_equiv_pos_site_id
 _symmetry_equiv_pos_as_xyz
  1  'x, y, z'
loop_
 _atom_site_type_symbol
 _atom_site_label
 _atom_site_symmetry_multiplicity
 _atom_site_fract_x
 _atom_site_fract_y
 _atom_site_fract_z
 _atom_site_occupancy
  Mg  Mg0  1  0.16444691  0.83222295  0.12500000  1
  Mg  Mg1  1  0.16876297  0.83438099  0.62500000  1
  Mg  Mg2  1  0.66777705  0.33555309  0.12500000  1
  Mg  Mg3  1  0.66561901  0.33123703  0.62500000  1
  Mg  Mg4  1  0.66777705  0.83222295  0.12500000  1
  Mg  Mg5  1  0.66561901  0.83438099  0.62500000  1
  Mg  Mg6  1  0.32482944  0.17517056  0.36539881  1
  Mg  Mg7  1  0.32482944  0.17517056  0.88460119  1
  Mg  Mg8  1  0.32482944  0.64965988  0.36539881  1
  Mg  Mg9  1  0.32482944  0.64965988  0.88460119  1
  Mg  Mg10  1  0.85034012  0.17517056  0.36539881  1
  Mg  Mg11  1  0.85034012  0.17517056  0.88460119  1
  Mg  Mg12  1  0.83333300  0.66666700  0.37676921  1
  Mg  Mg13  1  0.83333300  0.66666700  0.87323079  1
  Ga  Ga0  1  0.16666700  0.33333300  0.62500000  1
  Fe  Fe0  1  0.16666700  0.33333300  0.12500000  1
loop_
_geom_bond_atom_site_label_1
_geom_bond_atom_site_label_2
_geom_bond_distance
_geom_bond_site_symmetry_2
Mg0 Mg9 3.012734 1_554
Mg0 Mg8 3.012734 1_555
Mg0 Mg6 3.012741 1_565
Mg0 Mg7 3.012741 1_564
Mg0 Mg13 3.062829 1_454
Mg0 Mg12 3.062829 1_455
Mg0 Mg2 3.109566 1_455
Mg0 Mg4 3.109566 1_455
Mg0 Mg2 3.151264 1_565
Mg0 Mg4 3.151265 1_555
Mg1 Mg12 3.048545 1_455
Mg1 Mg13 3.048545 1_455
Mg1 Mg3 3.110731 1_565
Mg1 Mg5 3.110731 1_555
Mg1 Mg3 3.150099 1_455
Mg1 Mg5 3.150099 1_455
Mg1 Mg9 3.157391 1_555
Mg1 Mg8 3.157391 1_555
Mg1 Mg6 3.157398 1_565
Mg1 Mg7 3.157398 1_565
Mg2 Mg7 3.012741 1_554
Mg2 Mg6 3.012741 1_555
Mg2 Mg4 3.109566 1_555
Mg2 Mg4 3.151264 1_545
Mg3 Mg5 3.110731 1_545
Mg3 Mg5 3.150099 1_555
Mg3 Mg6 3.157398 1_555
Mg3 Mg7 3.157398 1_555
Mg4 Mg9 3.012741 1_554
Mg4 Mg8 3.012741 1_555
Mg5 Mg8 3.157398 1_555
Mg5 Mg9 3.157398 1_555
Mg10 Mg2 3.012735 1_555
Mg10 Mg4 3.012741 1_545
Mg10 Mg12 3.133777 1_545
Mg10 Mg12 3.133777 1_555
Mg10 Mg3 3.157391 1_555
Mg10 Mg5 3.157397 1_545
Mg11 Mg2 3.012735 1_556
Mg11 Mg4 3.012741 1_546
Mg11 Mg13 3.133777 1_545
Mg11 Mg13 3.133777 1_555
Mg11 Mg3 3.157391 1_555
Mg11 Mg5 3.157397 1_545
Mg12 Mg5 3.048539 1_555
Mg12 Mg3 3.048545 1_555
Mg12 Mg4 3.062823 1_555
Mg12 Mg2 3.062829 1_555
Mg12 Mg6 3.133777 1_665
Mg12 Mg6 3.133777 1_555
Mg12 Mg8 3.133778 1_555
Mg12 Mg8 3.133778 1_655
Mg13 Mg5 3.048539 1_555
Mg13 Mg3 3.048545 1_555
Mg13 Mg4 3.062823 1_556
Mg13 Mg2 3.062829 1_556
Mg13 Mg7 3.133777 1_665
Mg13 Mg7 3.133777 1_555
Mg13 Mg9 3.133778 1_655
Mg13 Mg9 3.133778 1_555
Ga0 Mg6 3.080341 1_555
Ga0 Mg7 3.080341 1_555
Ga0 Mg8 3.080347 1_555
Ga0 Mg9 3.080347 1_555
Ga0 Mg10 3.080347 1_455
Ga0 Mg11 3.080347 1_455
Ga0 Mg1 3.130436 1_545
Ga0 Mg5 3.130436 1_555
Ga0 Mg5 3.130436 1_445
Ga0 Mg1 3.130436 1_555
Ga0 Mg3 3.130436 1_555
Ga0 Mg3 3.130436 1_455
Fe0 Mg7 2.925029 1_554
Fe0 Mg6 2.925029 1_555
Fe0 Mg9 2.925036 1_554
Fe0 Mg8 2.925036 1_555
Fe0 Mg11 2.925036 1_454
Fe0 Mg10 2.925036 1_455
Fe0 Mg0 3.130438 1_555
Fe0 Mg4 3.130438 1_445
Fe0 Mg4 3.130438 1_555
Fe0 Mg0 3.130438 1_545
Fe0 Mg2 3.130438 1_455
Fe0 Mg2 3.130438 1_555
