# generated using pymatgen
data_Mg3Mn2(SiO4)3
_symmetry_space_group_name_H-M   'P 1'
_cell_length_a   10.23457813
_cell_length_b   10.23457850
_cell_length_c   10.23457742
_cell_angle_alpha   106.32332702
_cell_angle_beta   111.06772585
_cell_angle_gamma   111.06773174
_symmetry_Int_Tables_number   1
_chemical_formula_structural   Mg3Mn2(SiO4)3
_chemical_formula_sum   'Mg12 Mn8 Si12 O48'
_cell_volume   823.39935804
_cell_formula_units_Z   4
loop_
 _symmetry_equiv_pos_site_id
 _symmetry_equiv_pos_as_xyz
  1  'x, y, z'
loop_
 _atom_site_type_symbol
 _atom_site_label
 _atom_site_symmetry_multiplicity
 _atom_site_fract_x
 _atom_site_fract_y
 _atom_site_fract_z
 _atom_site_occupancy
  Mg  Mg0  1  0.37762800  0.75000000  0.12762800  1
  Mg  Mg1  1  0.12237200  0.25000000  0.37237200  1
  Mg  Mg2  1  0.37762800  0.12762800  0.25000000  1
  Mg  Mg3  1  0.12237200  0.37237200  0.75000000  1
  Mg  Mg4  1  0.87762800  0.75000000  0.62762800  1
  Mg  Mg5  1  0.75000000  0.12500000  0.37500000  1
  Mg  Mg6  1  0.75000000  0.62500000  0.87500000  1
  Mg  Mg7  1  0.62237200  0.25000000  0.87237200  1
  Mg  Mg8  1  0.25000000  0.87500000  0.62500000  1
  Mg  Mg9  1  0.87762800  0.62762800  0.25000000  1
  Mg  Mg10  1  0.62237200  0.87237200  0.75000000  1
  Mg  Mg11  1  0.25000000  0.37500000  0.12500000  1
  Mn  Mn0  1  0.00000000  0.00000000  0.00000000  1
  Mn  Mn1  1  0.00000000  0.50000000  0.00000000  1
  Mn  Mn2  1  0.00000000  0.00000000  0.50000000  1
  Mn  Mn3  1  0.00000000  0.50000000  0.50000000  1
  Mn  Mn4  1  0.50000000  0.00000000  0.50000000  1
  Mn  Mn5  1  0.50000000  0.50000000  0.00000000  1
  Mn  Mn6  1  0.50000000  0.50000000  0.50000000  1
  Mn  Mn7  1  0.50000000  0.00000000  0.00000000  1
  Si  Si0  1  0.25000000  0.12500000  0.87500000  1
  Si  Si1  1  0.75000000  0.87500000  0.12500000  1
  Si  Si2  1  0.37708600  0.25000000  0.62708600  1
  Si  Si3  1  0.62291400  0.37291400  0.25000000  1
  Si  Si4  1  0.12291400  0.75000000  0.87291400  1
  Si  Si5  1  0.87708600  0.12708600  0.75000000  1
  Si  Si6  1  0.75000000  0.37500000  0.62500000  1
  Si  Si7  1  0.37708600  0.62708600  0.75000000  1
  Si  Si8  1  0.12291400  0.87291400  0.25000000  1
  Si  Si9  1  0.87708600  0.25000000  0.12708600  1
  Si  Si10  1  0.62291400  0.75000000  0.37291400  1
  Si  Si11  1  0.25000000  0.62500000  0.37500000  1
  O  O0  1  0.29312200  0.48566500  0.38418600  1
  O  O1  1  0.02843500  0.30404000  0.89649200  1
  O  O2  1  0.12615600  0.60567900  0.91709100  1
  O  O3  1  0.20687800  0.59106300  0.19254300  1
  O  O4  1  0.20687800  0.11581400  0.01433500  1
  O  O5  1  0.59245200  0.19596000  0.22439600  1
  O  O6  1  0.60147900  0.19254300  0.48566500  1
  O  O7  1  0.18858700  0.20906400  0.58290900  1
  O  O8  1  0.89852100  0.38418600  0.59106300  1
  O  O9  1  0.31141300  0.91709100  0.29093600  1
  O  O10  1  0.90754800  0.27560400  0.30404000  1
  O  O11  1  0.02843500  0.22439600  0.13194300  1
  O  O12  1  0.18858700  0.47952300  0.60567900  1
  O  O13  1  0.59245200  0.89649200  0.36805700  1
  O  O14  1  0.12615600  0.02047700  0.20906400  1
  O  O15  1  0.47156500  0.60350800  0.19596000  1
  O  O16  1  0.37384400  0.58290900  0.89432100  1
  O  O17  1  0.89852100  0.01433500  0.30745700  1
  O  O18  1  0.60147900  0.90893700  0.11581400  1
  O  O19  1  0.10147900  0.61581400  0.40893700  1
  O  O20  1  0.90754800  0.13194300  0.60350800  1
  O  O21  1  0.37384400  0.29093600  0.47952300  1
  O  O22  1  0.31141300  0.89432100  0.02047700  1
  O  O23  1  0.29312200  0.30745700  0.90893700  1
  O  O24  1  0.70687800  0.51433500  0.61581400  1
  O  O25  1  0.97156500  0.69596000  0.10350800  1
  O  O26  1  0.87384400  0.39432100  0.08290900  1
  O  O27  1  0.79312200  0.40893700  0.80745700  1
  O  O28  1  0.79312200  0.88418600  0.98566500  1
  O  O29  1  0.40754800  0.80404000  0.77560400  1
  O  O30  1  0.39852100  0.80745700  0.51433500  1
  O  O31  1  0.81141300  0.79093600  0.41709100  1
  O  O32  1  0.70687800  0.69254300  0.09106300  1
  O  O33  1  0.68858700  0.10567900  0.97952300  1
  O  O34  1  0.62615600  0.70906400  0.52047700  1
  O  O35  1  0.52843500  0.63194300  0.72439600  1
  O  O36  1  0.09245200  0.86805700  0.39649200  1
  O  O37  1  0.39852100  0.09106300  0.88418600  1
  O  O38  1  0.10147900  0.98566500  0.69254300  1
  O  O39  1  0.62615600  0.41709100  0.10567900  1
  O  O40  1  0.52843500  0.39649200  0.80404000  1
  O  O41  1  0.87384400  0.97952300  0.79093600  1
  O  O42  1  0.40754800  0.10350800  0.63194300  1
  O  O43  1  0.81141300  0.52047700  0.39432100  1
  O  O44  1  0.97156500  0.77560400  0.86805700  1
  O  O45  1  0.09245200  0.72439600  0.69596000  1
  O  O46  1  0.68858700  0.08290900  0.70906400  1
  O  O47  1  0.47156500  0.36805700  0.27560400  1
loop_
_geom_bond_atom_site_label_1
_geom_bond_atom_site_label_2
_geom_bond_distance
_geom_bond_site_symmetry_2
Mg0 O13 2.191699 1_555
Mg0 O15 2.191699 1_555
Mg0 O22 2.222493 1_555
Mg0 O2 2.222496 1_554
Mg0 O18 2.353684 1_555
Mg0 O3 2.353685 1_555
Mg0 O9 2.493613 1_555
Mg0 O16 2.493614 1_554
Mg1 O10 2.191693 1_455
Mg1 O11 2.191702 1_555
Mg1 O21 2.222493 1_555
Mg1 O7 2.222502 1_555
Mg1 O17 2.353680 1_455
Mg1 O0 2.353680 1_555
Mg1 O12 2.493619 1_555
Mg1 O14 2.493619 1_555
Mg2 O5 2.191693 1_555
Mg2 O47 2.191702 1_555
Mg2 O14 2.222492 1_555
Mg2 O9 2.222502 1_545
Mg2 O4 2.353680 1_555
Mg2 O6 2.353680 1_555
Mg2 O21 2.493619 1_555
Mg2 O22 2.493619 1_545
Mg3 O1 2.191699 1_555
Mg3 O20 2.191699 1_455
Mg3 O12 2.222492 1_555
Mg3 O16 2.222496 1_555
Mg3 O8 2.353684 1_455
Mg3 O23 2.353685 1_555
Mg3 O7 2.493613 1_555
Mg3 O2 2.493615 1_555
Mg4 O45 2.191693 1_655
Mg4 O44 2.191702 1_555
Mg4 O34 2.222493 1_555
Mg4 O31 2.222502 1_555
Mg4 O38 2.353680 1_655
Mg4 O24 2.353680 1_555
Mg4 O43 2.493619 1_555
Mg4 O41 2.493619 1_555
Mg5 O10 2.277611 1_555
Mg5 O5 2.277611 1_555
Mg5 O20 2.277616 1_555
Mg5 O13 2.277616 1_545
Mg5 O18 2.371557 1_545
Mg5 O8 2.371557 1_555
Mg5 O6 2.371561 1_555
Mg5 O17 2.371561 1_555
Mg6 O44 2.277613 1_555
Mg6 O35 2.277613 1_555
Mg6 O25 2.277616 1_556
Mg6 O40 2.277616 1_555
Mg6 O32 2.371552 1_556
Mg6 O27 2.371552 1_555
Mg6 O24 2.371561 1_555
Mg6 O28 2.371561 1_555
Mg7 O42 2.191699 1_555
Mg7 O40 2.191699 1_555
Mg7 O33 2.222493 1_555
Mg7 O26 2.222496 1_556
Mg7 O37 2.353684 1_555
Mg7 O27 2.353685 1_555
Mg7 O46 2.493613 1_555
Mg7 O39 2.493614 1_556
Mg8 O45 2.277611 1_555
Mg8 O29 2.277611 1_555
Mg8 O36 2.277616 1_555
Mg8 O42 2.277616 1_565
Mg8 O37 2.371557 1_565
Mg8 O19 2.371557 1_555
Mg8 O30 2.371561 1_555
Mg8 O38 2.371561 1_555
Mg9 O25 2.191699 1_555
Mg9 O36 2.191699 1_655
Mg9 O43 2.222492 1_555
Mg9 O39 2.222496 1_555
Mg9 O19 2.353684 1_655
Mg9 O32 2.353685 1_555
Mg9 O31 2.493613 1_555
Mg9 O26 2.493615 1_555
Mg10 O29 2.191693 1_555
Mg10 O35 2.191702 1_555
Mg10 O41 2.222492 1_555
Mg10 O46 2.222502 1_565
Mg10 O28 2.353680 1_555
Mg10 O30 2.353680 1_555
Mg10 O34 2.493619 1_555
Mg10 O33 2.493619 1_565
Mg11 O11 2.277613 1_555
Mg11 O47 2.277613 1_555
Mg11 O1 2.277616 1_554
Mg11 O15 2.277616 1_555
Mg11 O23 2.371552 1_554
Mg11 O3 2.371552 1_555
Mg11 O0 2.371561 1_555
Mg11 O4 2.371561 1_555
Mn0 O4 1.945274 1_555
Mn0 O28 1.945274 1_444
Mn0 O41 1.963782 1_444
Mn0 O14 1.963782 1_555
Mn0 O11 2.162467 1_555
Mn0 O44 2.162467 1_444
Mn1 O3 1.945276 1_555
Mn1 O27 1.945276 1_454
Mn1 O2 1.963791 1_554
Mn1 O26 1.963791 1_455
Mn1 O1 2.162458 1_554
Mn1 O25 2.162458 1_455
Mn2 O17 1.945274 1_455
Mn2 O38 1.945274 1_545
Mn2 O7 1.963780 1_555
Mn2 O31 1.963780 1_445
Mn2 O36 2.162458 1_545
Mn2 O20 2.162458 1_455
Mn3 O19 1.945266 1_555
Mn3 O8 1.945266 1_455
Mn3 O12 1.963782 1_555
Mn3 O43 1.963782 1_455
Mn3 O45 2.162465 1_555
Mn3 O10 2.162465 1_455
Mn4 O30 1.945274 1_545
Mn4 O6 1.945274 1_555
Mn4 O46 1.963780 1_555
Mn4 O9 1.963780 1_545
Mn4 O42 2.162458 1_555
Mn4 O13 2.162458 1_545
Mn5 O23 1.945276 1_554
Mn5 O32 1.945276 1_555
Mn5 O39 1.963791 1_555
Mn5 O16 1.963791 1_554
Mn5 O40 2.162458 1_554
Mn5 O15 2.162458 1_555
Mn6 O0 1.945274 1_555
Mn6 O24 1.945274 1_555
Mn6 O34 1.963782 1_555
Mn6 O21 1.963782 1_555
Mn6 O35 2.162467 1_555
Mn6 O47 2.162467 1_555
Mn7 O18 1.945266 1_545
Mn7 O37 1.945266 1_554
Mn7 O22 1.963782 1_545
Mn7 O33 1.963782 1_554
Mn7 O5 2.162465 1_555
Mn7 O29 2.162465 1_544
O0 Si11 1.653843 1_555
O1 Si5 1.647521 1_455
O2 Si4 1.669458 1_555
O3 Si11 1.653841 1_555
O4 Si0 1.653843 1_554
O5 Si3 1.647523 1_555
O6 Si6 1.653843 1_555
O7 Si2 1.669466 1_555
O8 Si6 1.653849 1_555
O9 Si8 1.669466 1_555
O10 Si9 1.647523 1_555
O11 Si9 1.647516 1_455
O12 Si7 1.669464 1_555
O13 Si10 1.647521 1_555
O14 Si8 1.669464 1_545
O15 Si10 1.647521 1_555
O16 Si7 1.669458 1_555
O17 Si1 1.653843 1_545
O18 Si1 1.653849 1_555
O19 Si11 1.653849 1_555
O20 Si5 1.647521 1_555
O21 Si2 1.669464 1_555
O22 Si4 1.669464 1_554
O23 Si0 1.653841 1_555
O24 Si6 1.653843 1_555
O25 Si8 1.647521 1_655
O26 Si9 1.669458 1_555
O27 Si6 1.653841 1_555
O28 Si1 1.653843 1_556
O29 Si7 1.647523 1_555
O30 Si11 1.653843 1_555
O31 Si10 1.669466 1_555
O32 Si1 1.653841 1_555
O33 Si9 1.669464 1_556
O34 Si10 1.669464 1_555
O35 Si7 1.647515 1_555
O36 Si8 1.647521 1_555
O37 Si0 1.653849 1_555
O38 Si0 1.653843 1_565
O39 Si3 1.669458 1_555
O40 Si2 1.647521 1_555
O41 Si5 1.669464 1_565
O42 Si2 1.647521 1_555
O43 Si3 1.669464 1_555
O44 Si4 1.647516 1_655
O45 Si4 1.647523 1_555
O46 Si5 1.669466 1_555
O47 Si3 1.647515 1_555
