# generated using pymatgen
data_Tb3(Co2Sn)4
_symmetry_space_group_name_H-M   'P 1'
_cell_length_a   7.55511600
_cell_length_b   8.85301398
_cell_length_c   8.85301398
_cell_angle_alpha   119.99999984
_cell_angle_beta   90.00000000
_cell_angle_gamma   90.00000000
_symmetry_Int_Tables_number   1
_chemical_formula_structural   Tb3(Co2Sn)4
_chemical_formula_sum   'Tb6 Co16 Sn8'
_cell_volume   512.80714681
_cell_formula_units_Z   2
loop_
 _symmetry_equiv_pos_site_id
 _symmetry_equiv_pos_as_xyz
  1  'x, y, z'
loop_
 _atom_site_type_symbol
 _atom_site_label
 _atom_site_symmetry_multiplicity
 _atom_site_fract_x
 _atom_site_fract_y
 _atom_site_fract_z
 _atom_site_occupancy
  Tb  Tb0  1  0.78462400  0.47549100  0.95098100  1
  Tb  Tb1  1  0.78462400  0.47549100  0.52450900  1
  Tb  Tb2  1  0.28462400  0.52450900  0.04901900  1
  Tb  Tb3  1  0.78462400  0.04901900  0.52450900  1
  Tb  Tb4  1  0.28462400  0.52450900  0.47549100  1
  Tb  Tb5  1  0.28462400  0.95098100  0.47549100  1
  Co  Co0  1  0.62464000  0.66666700  0.33333300  1
  Co  Co1  1  0.12464000  0.33333300  0.66666700  1
  Co  Co2  1  0.75491600  0.09784100  0.19568200  1
  Co  Co3  1  0.75491600  0.09784100  0.90215900  1
  Co  Co4  1  0.25491600  0.90215900  0.80431800  1
  Co  Co5  1  0.75491600  0.80431800  0.90215900  1
  Co  Co6  1  0.25491600  0.90215900  0.09784100  1
  Co  Co7  1  0.25491600  0.19568200  0.09784100  1
  Co  Co8  1  0.94361500  0.84073600  0.68147200  1
  Co  Co9  1  0.94361500  0.84073600  0.15926400  1
  Co  Co10  1  0.44361500  0.15926400  0.31852800  1
  Co  Co11  1  0.94361500  0.31852800  0.15926400  1
  Co  Co12  1  0.44361500  0.15926400  0.84073600  1
  Co  Co13  1  0.44361500  0.68147200  0.84073600  1
  Co  Co14  1  0.99875700  0.00000000  0.00000000  1
  Co  Co15  1  0.49875700  0.00000000  0.00000000  1
  Sn  Sn0  1  0.97435700  0.66666700  0.33333300  1
  Sn  Sn1  1  0.47435700  0.33333300  0.66666700  1
  Sn  Sn2  1  0.57262700  0.82906500  0.65812900  1
  Sn  Sn3  1  0.57262700  0.82906500  0.17093500  1
  Sn  Sn4  1  0.07262700  0.17093500  0.34187100  1
  Sn  Sn5  1  0.57262700  0.34187100  0.17093500  1
  Sn  Sn6  1  0.07262700  0.17093500  0.82906500  1
  Sn  Sn7  1  0.07262700  0.65812900  0.82906500  1
loop_
_geom_bond_atom_site_label_1
_geom_bond_atom_site_label_2
_geom_bond_distance
_geom_bond_site_symmetry_2
Co0 Sn3 2.521005 1_555
Co0 Sn5 2.521005 1_555
Co0 Sn2 2.521005 1_555
Co0 Sn0 2.642153 1_555
Co0 Tb1 3.170876 1_555
Co0 Tb3 3.170876 1_565
Co0 Tb0 3.170876 1_554
Co0 Tb5 3.369072 1_555
Co0 Tb2 3.369072 1_555
Co0 Tb4 3.369082 1_555
Co1 Sn6 2.521005 1_555
Co1 Sn7 2.521005 1_555
Co1 Sn4 2.521005 1_555
Co1 Sn1 2.642153 1_555
Co1 Tb4 3.170876 1_555
Co1 Tb2 3.170876 1_556
Co1 Tb5 3.170876 1_545
Co1 Tb0 3.369072 1_455
Co1 Tb3 3.369072 1_455
Co1 Tb1 3.369082 1_455
Co2 Co9 2.565820 1_545
Co2 Co3 2.598563 1_554
Co2 Co5 2.598563 1_544
Co2 Sn4 2.649130 1_655
Co2 Sn3 2.661827 1_545
Co2 Sn5 2.661835 1_555
Co2 Tb3 3.157531 1_555
Co2 Tb1 3.157536 1_555
Co3 Co8 2.565820 1_545
Co3 Co5 2.598563 1_545
Co3 Sn6 2.649127 1_655
Co3 Sn5 2.661830 1_556
Co3 Sn2 2.661830 1_545
Co3 Tb0 3.157539 1_555
Co3 Tb3 3.157539 1_555
Co4 Co8 2.533494 1_455
Co4 Co6 2.598563 1_556
Co4 Co7 2.598563 1_566
Co4 Sn2 2.649130 1_555
Co4 Sn6 2.661827 1_565
Co4 Sn7 2.661835 1_555
Co4 Tb5 3.157531 1_555
Co4 Tb4 3.157536 1_555
Co5 Co8 2.565820 1_555
Co5 Co9 2.565820 1_556
Co5 Sn7 2.649130 1_655
Co5 Sn3 2.661827 1_556
Co5 Sn2 2.661835 1_555
Co5 Tb0 3.157531 1_555
Co5 Tb1 3.157536 1_555
Co6 Co9 2.533494 1_455
Co6 Co7 2.598563 1_565
Co6 Sn3 2.649127 1_555
Co6 Sn4 2.661830 1_565
Co6 Sn7 2.661830 1_554
Co6 Tb2 3.157539 1_555
Co6 Tb5 3.157539 1_555
Co7 Sn5 2.649130 1_555
Co7 Sn6 2.661827 1_554
Co7 Sn4 2.661835 1_555
Co7 Tb2 3.157531 1_555
Co7 Tb4 3.157536 1_555
Co8 Sn0 2.679245 1_555
Co8 Sn6 2.717192 1_665
Co8 Sn7 2.717199 1_655
Co8 Sn2 2.808565 1_555
Co8 Tb1 3.055521 1_555
Co8 Tb3 3.055528 1_565
Co8 Tb5 3.563054 1_655
Co8 Tb4 3.563059 1_655
Co9 Sn0 2.679238 1_555
Co9 Sn7 2.717193 1_654
Co9 Sn4 2.717193 1_665
Co9 Sn3 2.808565 1_555
Co9 Tb0 3.055522 1_554
Co9 Tb3 3.055522 1_565
Co9 Tb2 3.563060 1_655
Co9 Tb5 3.563060 1_655
Co10 Co15 2.477413 1_555
Co10 Co2 2.533494 1_555
Co10 Co7 2.565820 1_555
Co10 Co6 2.565820 1_545
Co10 Sn1 2.679245 1_555
Co10 Sn3 2.717192 1_545
Co10 Sn5 2.717199 1_555
Co10 Sn4 2.808565 1_555
Co10 Tb4 3.055521 1_555
Co10 Tb5 3.055528 1_545
Co10 Tb3 3.563054 1_555
Co10 Tb1 3.563059 1_555
Co11 Co14 2.477413 1_555
Co11 Co7 2.533494 1_655
Co11 Co2 2.565820 1_555
Co11 Co3 2.565820 1_554
Co11 Sn0 2.679245 1_555
Co11 Sn6 2.717192 1_654
Co11 Sn4 2.717199 1_655
Co11 Sn5 2.808565 1_555
Co11 Tb1 3.055521 1_555
Co11 Tb0 3.055528 1_554
Co11 Tb2 3.563054 1_655
Co11 Tb4 3.563059 1_655
Co12 Co15 2.477413 1_556
Co12 Co3 2.533494 1_555
Co12 Co4 2.565820 1_545
Co12 Co7 2.565820 1_556
Co12 Sn1 2.679238 1_555
Co12 Sn2 2.717193 1_545
Co12 Sn5 2.717193 1_556
Co12 Sn6 2.808565 1_555
Co12 Tb2 3.055522 1_556
Co12 Tb5 3.055522 1_545
Co12 Tb0 3.563060 1_555
Co12 Tb3 3.563060 1_555
Co13 Co15 2.477413 1_566
Co13 Co5 2.533494 1_555
Co13 Co4 2.565820 1_555
Co13 Co6 2.565820 1_556
Co13 Sn1 2.679245 1_555
Co13 Sn3 2.717192 1_556
Co13 Sn2 2.717199 1_555
Co13 Sn7 2.808565 1_555
Co13 Tb4 3.055521 1_555
Co13 Tb2 3.055528 1_556
Co13 Tb0 3.563054 1_555
Co13 Tb1 3.563059 1_555
Co14 Co3 2.375861 1_554
Co14 Co2 2.375861 1_555
Co14 Co5 2.375861 1_544
Co14 Co6 2.448729 1_645
Co14 Co7 2.448729 1_655
Co14 Co4 2.448729 1_644
Co14 Co9 2.477413 1_545
Co14 Co8 2.477413 1_544
Co14 Sn6 2.679853 1_654
Co14 Sn4 2.679860 1_655
Co14 Sn7 2.679860 1_644
Co15 Co6 2.375861 1_545
Co15 Co7 2.375861 1_555
Co15 Co4 2.375861 1_544
Co15 Co3 2.448729 1_554
Co15 Co2 2.448729 1_555
Co15 Co5 2.448729 1_544
Co15 Sn3 2.679853 1_545
Co15 Sn5 2.679860 1_555
Co15 Sn2 2.679860 1_544
Sn0 Tb5 3.201003 1_655
Sn0 Tb2 3.201003 1_655
Sn0 Tb4 3.201014 1_655
Sn0 Tb1 3.263173 1_555
Sn0 Tb3 3.263173 1_565
Sn0 Tb0 3.263173 1_554
Sn1 Tb0 3.201003 1_555
Sn1 Tb3 3.201003 1_555
Sn1 Tb1 3.201014 1_555
Sn1 Tb4 3.263173 1_555
Sn1 Tb2 3.263173 1_556
Sn1 Tb5 3.263173 1_545
Sn2 Tb3 3.171744 1_565
Sn2 Tb1 3.171744 1_555
Sn2 Tb5 3.202963 1_555
Sn2 Tb4 3.202974 1_555
Sn3 Tb3 3.171744 1_565
Sn3 Tb0 3.171744 1_554
Sn3 Tb5 3.202975 1_555
Sn3 Tb2 3.202975 1_555
Sn4 Tb5 3.171744 1_545
Sn4 Tb4 3.171744 1_555
Sn4 Tb3 3.202963 1_455
Sn4 Tb1 3.202974 1_455
Sn5 Tb0 3.171744 1_554
Sn5 Tb1 3.171744 1_555
Sn5 Tb2 3.202963 1_555
Sn5 Tb4 3.202974 1_555
Sn6 Tb2 3.171744 1_556
Sn6 Tb5 3.171744 1_545
Sn6 Tb0 3.202975 1_455
Sn6 Tb3 3.202975 1_455
Sn7 Tb2 3.171744 1_556
Sn7 Tb4 3.171744 1_555
Sn7 Tb0 3.202963 1_455
Sn7 Tb1 3.202974 1_455
