# generated using pymatgen
data_Tm2ReB6
_symmetry_space_group_name_H-M   'P 1'
_cell_length_a   3.63528400
_cell_length_b   9.10042200
_cell_length_c   11.46922200
_cell_angle_alpha   90.00000000
_cell_angle_beta   90.00000000
_cell_angle_gamma   90.00000000
_symmetry_Int_Tables_number   1
_chemical_formula_structural   Tm2ReB6
_chemical_formula_sum   'Tm8 Re4 B24'
_cell_volume   379.43189580
_cell_formula_units_Z   4
loop_
 _symmetry_equiv_pos_site_id
 _symmetry_equiv_pos_as_xyz
  1  'x, y, z'
loop_
 _atom_site_type_symbol
 _atom_site_label
 _atom_site_symmetry_multiplicity
 _atom_site_fract_x
 _atom_site_fract_y
 _atom_site_fract_z
 _atom_site_occupancy
  Tm  Tm0  1  0.00000000  0.32393200  0.41384700  1
  Tm  Tm1  1  0.00000000  0.67606800  0.58615300  1
  Tm  Tm2  1  0.00000000  0.82393200  0.08615300  1
  Tm  Tm3  1  0.00000000  0.17606800  0.91384700  1
  Tm  Tm4  1  0.00000000  0.94383700  0.37025300  1
  Tm  Tm5  1  0.00000000  0.05616300  0.62974700  1
  Tm  Tm6  1  0.00000000  0.44383700  0.12974700  1
  Tm  Tm7  1  0.00000000  0.55616300  0.87025300  1
  Re  Re0  1  0.00000000  0.63894300  0.32087300  1
  Re  Re1  1  0.00000000  0.36105700  0.67912700  1
  Re  Re2  1  0.00000000  0.13894300  0.17912700  1
  Re  Re3  1  0.00000000  0.86105700  0.82087300  1
  B  B0  1  0.50000000  0.55337700  0.43332900  1
  B  B1  1  0.50000000  0.44662300  0.56667100  1
  B  B2  1  0.50000000  0.05337700  0.06667100  1
  B  B3  1  0.50000000  0.94662300  0.93332900  1
  B  B4  1  0.50000000  0.75065700  0.41986100  1
  B  B5  1  0.50000000  0.24934300  0.58013900  1
  B  B6  1  0.50000000  0.25065700  0.08013900  1
  B  B7  1  0.50000000  0.74934300  0.91986100  1
  B  B8  1  0.50000000  0.79348200  0.26558300  1
  B  B9  1  0.50000000  0.20651800  0.73441700  1
  B  B10  1  0.50000000  0.29348200  0.23441700  1
  B  B11  1  0.50000000  0.70651800  0.76558300  1
  B  B12  1  0.50000000  0.63156700  0.18515400  1
  B  B13  1  0.50000000  0.36843300  0.81484600  1
  B  B14  1  0.50000000  0.13156700  0.31484600  1
  B  B15  1  0.50000000  0.86843300  0.68515400  1
  B  B16  1  0.50000000  0.98220800  0.21228900  1
  B  B17  1  0.50000000  0.01779200  0.78771100  1
  B  B18  1  0.50000000  0.48220800  0.28771100  1
  B  B19  1  0.50000000  0.51779200  0.71228900  1
  B  B20  1  0.50000000  0.59984200  0.02789400  1
  B  B21  1  0.50000000  0.40015800  0.97210600  1
  B  B22  1  0.50000000  0.09984200  0.47210600  1
  B  B23  1  0.50000000  0.90015800  0.52789400  1
loop_
_geom_bond_atom_site_label_1
_geom_bond_atom_site_label_2
_geom_bond_distance
_geom_bond_site_symmetry_2
Re0 Tm6 2.820944 1_555
Re0 Tm4 2.831875 1_555
Re0 Tm0 3.058633 1_555
Re0 Tm1 3.061256 1_555
Re0 Tm2 3.175100 1_555
Re1 Tm7 2.820944 1_555
Re1 Tm5 2.831875 1_555
Re1 Tm1 3.058633 1_555
Re1 Tm0 3.061256 1_555
Re1 Tm3 3.175100 1_555
Re2 Tm4 2.820944 1_545
Re2 Tm6 2.831875 1_555
Re2 Tm2 3.058633 1_545
Re2 Tm3 3.061256 1_554
Re2 Tm0 3.175100 1_555
Re3 Tm5 2.820944 1_565
Re3 Tm7 2.831875 1_555
Re3 Tm3 3.058633 1_565
Re3 Tm2 3.061256 1_556
Re3 Tm1 3.175100 1_555
B0 B18 1.791310 1_555
B0 B4 1.801964 1_555
B0 B1 1.811815 1_555
B0 Re0 2.360872 1_655
B0 Re0 2.360872 1_555
B0 Tm1 2.760923 1_655
B0 Tm1 2.760923 1_555
B0 Tm0 2.777352 1_555
B0 Tm0 2.777352 1_655
B1 B19 1.791310 1_555
B1 B5 1.801964 1_555
B1 Re1 2.360872 1_555
B1 Re1 2.360872 1_655
B1 Tm0 2.760923 1_555
B1 Tm0 2.760923 1_655
B1 Tm1 2.777352 1_555
B1 Tm1 2.777352 1_655
B2 B6 1.801964 1_555
B2 B3 1.811815 1_544
B2 Re2 2.360872 1_555
B2 Re2 2.360872 1_655
B2 Tm3 2.760923 1_654
B2 Tm3 2.760923 1_554
B2 Tm2 2.777352 1_645
B2 Tm2 2.777352 1_545
B3 B7 1.801964 1_555
B3 Re3 2.360872 1_655
B3 Re3 2.360872 1_555
B3 Tm2 2.760923 1_656
B3 Tm2 2.760923 1_556
B3 Tm3 2.777352 1_565
B3 Tm3 2.777352 1_665
B4 B8 1.811859 1_555
B4 Re0 2.371989 1_555
B4 Re0 2.371989 1_655
B4 Tm4 2.591945 1_555
B4 Tm4 2.591945 1_655
B4 Tm1 2.720688 1_555
B4 Tm1 2.720688 1_655
B5 B9 1.811859 1_555
B5 Re1 2.371989 1_555
B5 Re1 2.371989 1_655
B5 Tm5 2.591945 1_555
B5 Tm5 2.591945 1_655
B5 Tm0 2.720688 1_555
B5 Tm0 2.720688 1_655
B6 Re2 2.371989 1_555
B6 Re2 2.371989 1_655
B6 Tm6 2.591945 1_555
B6 Tm6 2.591945 1_655
B6 Tm3 2.720688 1_554
B6 Tm3 2.720688 1_654
B7 Re3 2.371989 1_555
B7 Re3 2.371989 1_655
B7 Tm7 2.591945 1_555
B7 Tm7 2.591945 1_655
B7 Tm2 2.720688 1_556
B7 Tm2 2.720688 1_656
B8 Re0 2.384077 1_555
B8 Re0 2.384077 1_655
B8 Tm4 2.572394 1_555
B8 Tm4 2.572394 1_655
B8 Tm2 2.759648 1_555
B8 Tm2 2.759648 1_655
B9 Re1 2.384077 1_655
B9 Re1 2.384077 1_555
B9 Tm5 2.572394 1_555
B9 Tm5 2.572394 1_655
B9 Tm3 2.759648 1_655
B9 Tm3 2.759648 1_555
B10 B14 1.738423 1_555
B10 B6 1.811859 1_555
B10 B18 1.823012 1_555
B10 Re2 2.384077 1_655
B10 Re2 2.384077 1_555
B10 Tm6 2.572394 1_555
B10 Tm6 2.572394 1_655
B10 Tm0 2.759648 1_555
B10 Tm0 2.759648 1_655
B11 B15 1.738423 1_555
B11 B7 1.811859 1_555
B11 B19 1.823012 1_555
B11 Re3 2.384077 1_555
B11 Re3 2.384077 1_655
B11 Tm7 2.572394 1_655
B11 Tm7 2.572394 1_555
B11 Tm1 2.759648 1_655
B11 Tm1 2.759648 1_555
B12 B8 1.738423 1_555
B12 B18 1.797517 1_555
B12 B20 1.826611 1_555
B12 Re0 2.394014 1_655
B12 Re0 2.394014 1_555
B12 Tm6 2.574171 1_555
B12 Tm6 2.574171 1_655
B12 Tm2 2.767257 1_555
B12 Tm2 2.767257 1_655
B13 B9 1.738423 1_555
B13 B19 1.797517 1_555
B13 B21 1.826611 1_555
B13 Re1 2.394014 1_655
B13 Re1 2.394014 1_555
B13 Tm7 2.574171 1_655
B13 Tm7 2.574171 1_555
B13 Tm3 2.767257 1_655
B13 Tm3 2.767257 1_555
B14 B16 1.797517 1_545
B14 B22 1.826611 1_555
B14 Re2 2.394014 1_555
B14 Re2 2.394014 1_655
B14 Tm4 2.574171 1_645
B14 Tm4 2.574171 1_545
B14 Tm0 2.767257 1_555
B14 Tm0 2.767257 1_655
B15 B17 1.797517 1_565
B15 B23 1.826611 1_555
B15 Re3 2.394014 1_555
B15 Re3 2.394014 1_655
B15 Tm5 2.574171 1_565
B15 Tm5 2.574171 1_665
B15 Tm1 2.767257 1_655
B15 Tm1 2.767257 1_555
B16 B2 1.791310 1_565
B16 B8 1.823012 1_555
B16 Re2 2.341574 1_565
B16 Re2 2.341574 1_665
B16 Tm4 2.590000 1_655
B16 Tm4 2.590000 1_555
B16 Tm2 2.733386 1_555
B16 Tm2 2.733386 1_655
B17 B3 1.791310 1_545
B17 B9 1.823012 1_555
B17 Re3 2.341574 1_545
B17 Re3 2.341574 1_645
B17 Tm5 2.590000 1_555
B17 Tm5 2.590000 1_655
B17 Tm3 2.733386 1_655
B17 Tm3 2.733386 1_555
B18 Re0 2.341574 1_655
B18 Re0 2.341574 1_555
B18 Tm6 2.590000 1_655
B18 Tm6 2.590000 1_555
B18 Tm0 2.733386 1_555
B18 Tm0 2.733386 1_655
B19 Re1 2.341574 1_555
B19 Re1 2.341574 1_655
B19 Tm7 2.590000 1_655
B19 Tm7 2.590000 1_555
B19 Tm1 2.733386 1_555
B19 Tm1 2.733386 1_655
B20 B7 1.840184 1_554
B20 B21 1.926564 1_554
B20 Tm6 2.585350 1_555
B20 Tm6 2.585350 1_655
B20 Tm7 2.594371 1_554
B20 Tm7 2.594371 1_654
B20 Tm2 2.812311 1_555
B20 Tm2 2.812311 1_655
B21 B6 1.840184 1_556
B21 Tm7 2.585350 1_555
B21 Tm7 2.585350 1_655
B21 Tm6 2.594371 1_656
B21 Tm6 2.594371 1_556
B21 Tm3 2.812311 1_655
B21 Tm3 2.812311 1_555
B22 B5 1.840184 1_555
B22 B23 1.926564 1_545
B22 Tm4 2.585350 1_645
B22 Tm4 2.585350 1_545
B22 Tm5 2.594371 1_555
B22 Tm5 2.594371 1_655
B22 Tm0 2.812311 1_555
B22 Tm0 2.812311 1_655
B23 B4 1.840184 1_555
B23 Tm5 2.585350 1_565
B23 Tm5 2.585350 1_665
B23 Tm4 2.594371 1_555
B23 Tm4 2.594371 1_655
B23 Tm1 2.812311 1_655
B23 Tm1 2.812311 1_555
