# generated using pymatgen
data_Be3Cd2(NF6)2
_symmetry_space_group_name_H-M   'P 1'
_cell_length_a   10.65596400
_cell_length_b   10.65596400
_cell_length_c   10.65596400
_cell_angle_alpha   90.00000000
_cell_angle_beta   90.00000000
_cell_angle_gamma   90.00000000
_symmetry_Int_Tables_number   1
_chemical_formula_structural   Be3Cd2(NF6)2
_chemical_formula_sum   'Be12 Cd8 N8 F48'
_cell_volume   1209.98011702
_cell_formula_units_Z   4
loop_
 _symmetry_equiv_pos_site_id
 _symmetry_equiv_pos_as_xyz
  1  'x, y, z'
loop_
 _atom_site_type_symbol
 _atom_site_label
 _atom_site_symmetry_multiplicity
 _atom_site_fract_x
 _atom_site_fract_y
 _atom_site_fract_z
 _atom_site_occupancy
  Be  Be0  1  0.01763700  0.21606600  0.37534100  1
  Be  Be1  1  0.48236300  0.78393400  0.87534100  1
  Be  Be2  1  0.98236300  0.71606600  0.12465900  1
  Be  Be3  1  0.37534100  0.01763700  0.21606600  1
  Be  Be4  1  0.51763700  0.28393400  0.62465900  1
  Be  Be5  1  0.87534100  0.48236300  0.78393400  1
  Be  Be6  1  0.12465900  0.98236300  0.71606600  1
  Be  Be7  1  0.62465900  0.51763700  0.28393400  1
  Be  Be8  1  0.21606600  0.37534100  0.01763700  1
  Be  Be9  1  0.71606600  0.12465900  0.98236300  1
  Be  Be10  1  0.28393400  0.62465900  0.51763700  1
  Be  Be11  1  0.78393400  0.87534100  0.48236300  1
  Cd  Cd0  1  0.33505000  0.33505000  0.33505000  1
  Cd  Cd1  1  0.16495000  0.66495000  0.83505000  1
  Cd  Cd2  1  0.66495000  0.83505000  0.16495000  1
  Cd  Cd3  1  0.83505000  0.16495000  0.66495000  1
  Cd  Cd4  1  0.59875800  0.59875800  0.59875800  1
  Cd  Cd5  1  0.90124200  0.40124200  0.09875800  1
  Cd  Cd6  1  0.40124200  0.09875800  0.90124200  1
  Cd  Cd7  1  0.09875800  0.90124200  0.40124200  1
  N  N0  1  0.04851800  0.04851800  0.04851800  1
  N  N1  1  0.45148200  0.95148200  0.54851800  1
  N  N2  1  0.95148200  0.54851800  0.45148200  1
  N  N3  1  0.54851800  0.45148200  0.95148200  1
  N  N4  1  0.81665600  0.81665600  0.81665600  1
  N  N5  1  0.68334400  0.18334400  0.31665600  1
  N  N6  1  0.18334400  0.31665600  0.68334400  1
  N  N7  1  0.31665600  0.68334400  0.18334400  1
  F  F0  1  0.00981100  0.07673000  0.32978200  1
  F  F1  1  0.49018900  0.92327000  0.82978200  1
  F  F2  1  0.99018900  0.57673000  0.17021800  1
  F  F3  1  0.32978200  0.00981100  0.07673000  1
  F  F4  1  0.50981100  0.42327000  0.67021800  1
  F  F5  1  0.82978200  0.49018900  0.92327000  1
  F  F6  1  0.17021800  0.99018900  0.57673000  1
  F  F7  1  0.67021800  0.50981100  0.42327000  1
  F  F8  1  0.07673000  0.32978200  0.00981100  1
  F  F9  1  0.57673000  0.17021800  0.99018900  1
  F  F10  1  0.42327000  0.67021800  0.50981100  1
  F  F11  1  0.92327000  0.82978200  0.49018900  1
  F  F12  1  0.26605500  0.50079800  0.44211400  1
  F  F13  1  0.23394500  0.49920200  0.94211400  1
  F  F14  1  0.73394500  0.00079800  0.05788600  1
  F  F15  1  0.44211400  0.26605500  0.50079800  1
  F  F16  1  0.76605500  0.99920200  0.55788600  1
  F  F17  1  0.94211400  0.23394500  0.49920200  1
  F  F18  1  0.05788600  0.73394500  0.00079800  1
  F  F19  1  0.55788600  0.76605500  0.99920200  1
  F  F20  1  0.50079800  0.44211400  0.26605500  1
  F  F21  1  0.00079800  0.05788600  0.73394500  1
  F  F22  1  0.99920200  0.55788600  0.76605500  1
  F  F23  1  0.49920200  0.94211400  0.23394500  1
  F  F24  1  0.04180800  0.80309300  0.22494600  1
  F  F25  1  0.45819200  0.19690700  0.72494600  1
  F  F26  1  0.95819200  0.30309300  0.27505400  1
  F  F27  1  0.22494600  0.04180800  0.80309300  1
  F  F28  1  0.54180800  0.69690700  0.77505400  1
  F  F29  1  0.72494600  0.45819200  0.19690700  1
  F  F30  1  0.27505400  0.95819200  0.30309300  1
  F  F31  1  0.77505400  0.54180800  0.69690700  1
  F  F32  1  0.80309300  0.22494600  0.04180800  1
  F  F33  1  0.30309300  0.27505400  0.95819200  1
  F  F34  1  0.69690700  0.77505400  0.54180800  1
  F  F35  1  0.19690700  0.72494600  0.45819200  1
  F  F36  1  0.15648900  0.25245100  0.40294700  1
  F  F37  1  0.34351100  0.74754900  0.90294700  1
  F  F38  1  0.84351100  0.75245100  0.09705300  1
  F  F39  1  0.40294700  0.15648900  0.25245100  1
  F  F40  1  0.65648900  0.24754900  0.59705300  1
  F  F41  1  0.90294700  0.34351100  0.74754900  1
  F  F42  1  0.09705300  0.84351100  0.75245100  1
  F  F43  1  0.59705300  0.65648900  0.24754900  1
  F  F44  1  0.25245100  0.40294700  0.15648900  1
  F  F45  1  0.75245100  0.09705300  0.84351100  1
  F  F46  1  0.24754900  0.59705300  0.65648900  1
  F  F47  1  0.74754900  0.90294700  0.34351100  1
loop_
_geom_bond_atom_site_label_1
_geom_bond_atom_site_label_2
_geom_bond_distance
_geom_bond_site_symmetry_2
Be0 F26 1.550246 1_455
Be0 F17 1.557555 1_455
Be0 F36 1.557588 1_555
Be0 F0 1.564337 1_555
Be1 F28 1.550246 1_555
Be1 F19 1.557555 1_555
Be1 F37 1.557588 1_555
Be1 F1 1.564337 1_555
Be2 F24 1.550246 1_655
Be2 F18 1.557555 1_655
Be2 F38 1.557588 1_555
Be2 F2 1.564337 1_555
Be3 F30 1.550246 1_545
Be3 F23 1.557555 1_545
Be3 F39 1.557588 1_555
Be3 F3 1.564337 1_555
Be4 F25 1.550246 1_555
Be4 F15 1.557555 1_555
Be4 F40 1.557588 1_555
Be4 F4 1.564337 1_555
Be5 F31 1.550246 1_555
Be5 F22 1.557555 1_555
Be5 F41 1.557588 1_555
Be5 F5 1.564337 1_555
Be6 F27 1.550246 1_565
Be6 F21 1.557555 1_565
Be6 F42 1.557588 1_555
Be6 F6 1.564337 1_555
Be7 F29 1.550246 1_555
Be7 F20 1.557555 1_555
Be7 F43 1.557588 1_555
Be7 F7 1.564337 1_555
Be8 F33 1.550246 1_554
Be8 F13 1.557555 1_554
Be8 F44 1.557588 1_555
Be8 F8 1.564337 1_555
Be9 F32 1.550246 1_556
Be9 F14 1.557555 1_556
Be9 F45 1.557588 1_555
Be9 F9 1.564337 1_555
Be10 F35 1.550246 1_555
Be10 F12 1.557555 1_555
Be10 F46 1.557588 1_555
Be10 F10 1.564337 1_555
Be11 F34 1.550246 1_555
Be11 F16 1.557555 1_555
Be11 F47 1.557588 1_555
Be11 F11 1.564337 1_555
Cd0 F44 2.217788 1_555
Cd0 F36 2.217788 1_555
Cd0 F39 2.217788 1_555
Cd0 F20 2.227464 1_555
Cd0 F12 2.227464 1_555
Cd0 F15 2.227464 1_555
Cd1 F42 2.217788 1_555
Cd1 F37 2.217788 1_555
Cd1 F46 2.217788 1_555
Cd1 F22 2.227464 1_455
Cd1 F18 2.227464 1_556
Cd1 F13 2.227464 1_555
Cd2 F38 2.217788 1_555
Cd2 F47 2.217788 1_555
Cd2 F43 2.217788 1_555
Cd2 F19 2.227464 1_554
Cd2 F14 2.227464 1_565
Cd2 F23 2.227464 1_555
Cd3 F45 2.217788 1_555
Cd3 F41 2.217788 1_555
Cd3 F40 2.217788 1_555
Cd3 F16 2.227464 1_545
Cd3 F17 2.227464 1_555
Cd3 F21 2.227464 1_655
Cd4 F4 2.230488 1_555
Cd4 F10 2.230488 1_555
Cd4 F7 2.230488 1_555
Cd4 F28 2.234117 1_555
Cd4 F34 2.234117 1_555
Cd4 F31 2.234117 1_555
Cd5 F8 2.230488 1_655
Cd5 F5 2.230488 1_554
Cd5 F2 2.230488 1_555
Cd5 F26 2.234117 1_555
Cd5 F29 2.234117 1_555
Cd5 F32 2.234117 1_555
Cd6 F9 2.230488 1_555
Cd6 F3 2.230488 1_556
Cd6 F1 2.230488 1_545
Cd6 F25 2.234117 1_555
Cd6 F33 2.234117 1_555
Cd6 F27 2.234117 1_555
Cd7 F0 2.230488 1_565
Cd7 F11 2.230488 1_455
Cd7 F6 2.230488 1_555
Cd7 F35 2.234117 1_555
Cd7 F30 2.234117 1_555
Cd7 F24 2.234117 1_555
