# generated using pymatgen
data_ThTe2WO9
_symmetry_space_group_name_H-M   'P 1'
_cell_length_a   14.49630389
_cell_length_b   14.49630389
_cell_length_c   14.49630389
_cell_angle_alpha   94.12631396
_cell_angle_beta   94.12631396
_cell_angle_gamma   148.88024592
_symmetry_Int_Tables_number   1
_chemical_formula_structural   ThTe2WO9
_chemical_formula_sum   'Th8 Te16 W8 O72'
_cell_volume   1516.71058058
_cell_formula_units_Z   8
loop_
 _symmetry_equiv_pos_site_id
 _symmetry_equiv_pos_as_xyz
  1  'x, y, z'
loop_
 _atom_site_type_symbol
 _atom_site_label
 _atom_site_symmetry_multiplicity
 _atom_site_fract_x
 _atom_site_fract_y
 _atom_site_fract_z
 _atom_site_occupancy
  Th  Th0  1  0.28040600  0.63423500  0.11832500  1
  Th  Th1  1  0.51591000  0.16208200  0.88167500  1
  Th  Th2  1  0.41208200  0.03040600  0.14617100  1
  Th  Th3  1  0.88423500  0.26591000  0.85382900  1
  Th  Th4  1  0.96959400  0.11576500  0.38167500  1
  Th  Th5  1  0.73409000  0.58791800  0.61832500  1
  Th  Th6  1  0.83791800  0.71959400  0.35382900  1
  Th  Th7  1  0.36576500  0.48409000  0.64617100  1
  Te  Te0  1  0.57305100  0.97651600  0.34865900  1
  Te  Te1  1  0.62785700  0.22439200  0.65134100  1
  Te  Te2  1  0.47439200  0.32305100  0.09653600  1
  Te  Te3  1  0.22651600  0.37785700  0.90346400  1
  Te  Te4  1  0.67694900  0.77348400  0.15134100  1
  Te  Te5  1  0.62214300  0.52560800  0.84865900  1
  Te  Te6  1  0.77560800  0.42694900  0.40346400  1
  Te  Te7  1  0.02348400  0.37214300  0.59653600  1
  Te  Te8  1  0.80706200  0.20066400  0.12166300  1
  Te  Te9  1  0.07900100  0.68540000  0.87833700  1
  Te  Te10  1  0.93540000  0.55706200  0.10639900  1
  Te  Te11  1  0.45066400  0.82900100  0.89360100  1
  Te  Te12  1  0.44293800  0.54933600  0.37833700  1
  Te  Te13  1  0.17099900  0.06460000  0.62166300  1
  Te  Te14  1  0.31460000  0.19293800  0.39360100  1
  Te  Te15  1  0.79933600  0.92099900  0.60639900  1
  W  W0  1  0.12523200  0.51572900  0.35871100  1
  W  W1  1  0.15701800  0.76652100  0.64128900  1
  W  W2  1  0.01652100  0.87523200  0.10950300  1
  W  W3  1  0.76572900  0.90701800  0.89049700  1
  W  W4  1  0.12476800  0.23427100  0.14128900  1
  W  W5  1  0.09298200  0.98347900  0.85871100  1
  W  W6  1  0.23347900  0.87476800  0.39049700  1
  W  W7  1  0.48427100  0.84298200  0.60950300  1
  O  O0  1  0.36410000  0.71009200  0.30293300  1
  O  O1  1  0.40715900  0.06116700  0.69706700  1
  O  O2  1  0.31116700  0.11410000  0.15400800  1
  O  O3  1  0.96009200  0.15715900  0.84599200  1
  O  O4  1  0.88590000  0.03990800  0.19706700  1
  O  O5  1  0.84284100  0.68883300  0.80293300  1
  O  O6  1  0.93883300  0.63590000  0.34599200  1
  O  O7  1  0.28990800  0.59284100  0.65400800  1
  O  O8  1  0.94898500  0.33848500  0.02946500  1
  O  O9  1  0.30902000  0.91952000  0.97053500  1
  O  O10  1  0.16952000  0.69898500  0.11049900  1
  O  O11  1  0.58848500  0.05902000  0.88950100  1
  O  O12  1  0.30101500  0.41151500  0.47053500  1
  O  O13  1  0.94098000  0.83048000  0.52946500  1
  O  O14  1  0.08048000  0.05101500  0.38950100  1
  O  O15  1  0.66151500  0.69098000  0.61049900  1
  O  O16  1  0.47165100  0.86399300  0.02660600  1
  O  O17  1  0.83738600  0.44504500  0.97339400  1
  O  O18  1  0.69504500  0.22165100  0.10765900  1
  O  O19  1  0.11399300  0.58738600  0.89234100  1
  O  O20  1  0.77834900  0.88600700  0.47339400  1
  O  O21  1  0.41261400  0.30495500  0.52660600  1
  O  O22  1  0.55495500  0.52834900  0.39234100  1
  O  O23  1  0.13600700  0.16261400  0.60765900  1
  O  O24  1  0.15573100  0.38707900  0.15499100  1
  O  O25  1  0.23208800  0.00074000  0.84500900  1
  O  O26  1  0.25074000  0.90573100  0.26865200  1
  O  O27  1  0.63707900  0.98208800  0.73134800  1
  O  O28  1  0.09426900  0.36292100  0.34500900  1
  O  O29  1  0.01791200  0.74926000  0.65499100  1
  O  O30  1  0.99926000  0.84426900  0.23134800  1
  O  O31  1  0.61292100  0.76791200  0.76865200  1
  O  O32  1  0.02552000  0.44552800  0.21475700  1
  O  O33  1  0.23077100  0.81076300  0.78524300  1
  O  O34  1  0.06076300  0.77552000  0.07999200  1
  O  O35  1  0.69552800  0.98077100  0.92000800  1
  O  O36  1  0.22448000  0.30447200  0.28524300  1
  O  O37  1  0.01922900  0.93923700  0.71475700  1
  O  O38  1  0.18923700  0.97448000  0.42000800  1
  O  O39  1  0.55447200  0.76922900  0.57999200  1
  O  O40  1  0.20386300  0.72028000  0.36609200  1
  O  O41  1  0.35418800  0.83777100  0.63390800  1
  O  O42  1  0.08777100  0.95386300  0.98358300  1
  O  O43  1  0.97028000  0.10418800  0.01641700  1
  O  O44  1  0.04613700  0.02972000  0.13390800  1
  O  O45  1  0.89581200  0.91222900  0.86609200  1
  O  O46  1  0.16222900  0.79613700  0.51641700  1
  O  O47  1  0.27972000  0.64581200  0.48358300  1
  O  O48  1  0.73890900  0.02146500  0.35281400  1
  O  O49  1  0.66865100  0.38609500  0.64718600  1
  O  O50  1  0.63609500  0.48890900  0.21744400  1
  O  O51  1  0.27146500  0.41865100  0.78255600  1
  O  O52  1  0.51109100  0.72853500  0.14718600  1
  O  O53  1  0.58134900  0.36390500  0.85281400  1
  O  O54  1  0.61390500  0.26109100  0.28255600  1
  O  O55  1  0.97853500  0.33134900  0.71744400  1
  O  O56  1  0.90398500  0.35646600  0.38078900  1
  O  O57  1  0.97567700  0.52319600  0.61921100  1
  O  O58  1  0.77319600  0.65398500  0.04751900  1
  O  O59  1  0.60646600  0.72567700  0.95248100  1
  O  O60  1  0.34601500  0.39353400  0.11921100  1
  O  O61  1  0.27432300  0.22680400  0.88078900  1
  O  O62  1  0.47680400  0.09601500  0.45248100  1
  O  O63  1  0.64353400  0.02432300  0.54751900  1
  O  O64  1  0.52710400  0.96842000  0.21690900  1
  O  O65  1  0.75151100  0.31019500  0.78309100  1
  O  O66  1  0.56019500  0.27710400  0.05868400  1
  O  O67  1  0.21842000  0.50151100  0.94131600  1
  O  O68  1  0.72289600  0.78158000  0.28309100  1
  O  O69  1  0.49848900  0.43980500  0.71690900  1
  O  O70  1  0.68980500  0.47289600  0.44131600  1
  O  O71  1  0.03158000  0.24848900  0.55868400  1
loop_
_geom_bond_atom_site_label_1
_geom_bond_atom_site_label_2
_geom_bond_distance
_geom_bond_site_symmetry_2
O0 Te0 1.960421 1_555
O0 W0 2.146834 1_555
O0 Th0 2.582216 1_555
O1 Te1 1.960421 1_555
O1 W1 2.146834 1_545
O1 Th1 2.582216 1_555
O2 Te2 1.960412 1_555
O2 W2 2.146834 1_545
O2 Th2 2.582230 1_555
O3 Te3 1.960418 1_655
O3 W3 2.146834 1_545
O3 Th3 2.582216 1_555
O4 Te4 1.960421 1_545
O4 W4 2.146834 1_655
O4 Th4 2.582216 1_555
O5 Te5 1.960421 1_555
O5 W5 2.146834 1_655
O5 Th5 2.582216 1_555
O6 Te6 1.960412 1_555
O6 W6 2.146834 1_655
O6 Th6 2.582230 1_555
O7 Te7 1.960418 1_555
O7 W7 2.146834 1_555
O7 Th7 2.582216 1_555
O8 Te8 1.937241 1_555
O8 Th3 2.459710 1_554
O8 Th0 2.483906 1_655
O9 Te9 1.937238 1_555
O9 Th2 2.459709 1_566
O9 Th1 2.483912 1_565
O10 Te10 1.937234 1_455
O10 Th0 2.459710 1_555
O10 Th2 2.483902 1_565
O11 Te11 1.937234 1_545
O11 Th1 2.459725 1_555
O11 Th3 2.483912 1_555
O12 Te12 1.937241 1_555
O12 Th7 2.459710 1_555
O12 Th4 2.483906 1_455
O13 Te13 1.937238 1_665
O13 Th6 2.459709 1_555
O13 Th5 2.483912 1_555
O14 Te14 1.937234 1_555
O14 Th4 2.459710 1_455
O14 Th6 2.483902 1_445
O15 Te15 1.937234 1_555
O15 Th5 2.459725 1_555
O15 Th7 2.483912 1_555
O16 Te11 1.891551 1_554
O16 Th0 2.430003 1_555
O16 Te8 2.607131 1_565
O17 Te10 1.891548 1_556
O17 Th1 2.429997 1_555
O17 Te9 2.607137 1_655
O18 Te8 1.891536 1_555
O18 Th2 2.429986 1_555
O18 Te10 2.607127 1_555
O19 Te9 1.891563 1_555
O19 Th3 2.429992 1_455
O19 Te11 2.607127 1_555
O20 Te15 1.891551 1_555
O20 Th4 2.430003 1_565
O20 Te12 2.607131 1_555
O21 Te14 1.891548 1_555
O21 Th5 2.429997 1_555
O21 Te13 2.607137 1_555
O22 Te12 1.891536 1_555
O22 Th6 2.429986 1_555
O22 Te14 2.607127 1_555
O23 Te13 1.891563 1_555
O23 Th7 2.429992 1_555
O23 Te15 2.607127 1_445
O24 W4 1.835565 1_555
O24 Th0 2.389781 1_555
O25 W5 1.835565 1_545
O25 Th1 2.389774 1_555
O26 W6 1.835565 1_555
O26 Th2 2.389787 1_565
O27 W7 1.835565 1_555
O27 Th3 2.389781 1_565
O28 W0 1.835565 1_555
O28 Th4 2.389781 1_455
O29 W1 1.835565 1_555
O29 Th5 2.389774 1_455
O30 W2 1.835565 1_655
O30 Th6 2.389787 1_555
O31 W3 1.835565 1_555
O31 Th7 2.389781 1_555
O32 Te8 1.974525 1_455
O32 W0 2.054611 1_555
O32 Th0 2.660327 1_555
O33 Te9 1.974525 1_555
O33 W1 2.054611 1_555
O33 Th1 2.660334 1_565
O34 Te10 1.974537 1_455
O34 W2 2.054611 1_555
O34 Th2 2.660337 1_565
O35 Te11 1.974525 1_555
O35 W3 2.054611 1_555
O35 Th3 2.660327 1_565
O36 Te12 1.974525 1_555
O36 W4 2.054611 1_555
O36 Th4 2.660327 1_455
O37 Te13 1.974525 1_565
O37 W5 2.054611 1_555
O37 Th5 2.660334 1_455
O38 Te14 1.974537 1_565
O38 W6 2.054611 1_555
O38 Th6 2.660337 1_455
O39 Te15 1.974525 1_555
O39 W7 2.054611 1_555
O39 Th7 2.660327 1_555
O40 W6 1.882226 1_555
O40 W0 2.062293 1_555
O41 W7 1.882226 1_555
O41 W1 2.062293 1_555
O42 W5 1.882226 1_555
O42 W2 2.062293 1_556
O43 W4 1.882226 1_655
O43 W3 2.062293 1_544
O44 W2 1.882226 1_545
O44 W4 2.062293 1_555
O45 W3 1.882226 1_555
O45 W5 2.062293 1_655
O46 W1 1.882226 1_555
O46 W6 2.062293 1_555
O47 W0 1.882226 1_555
O47 W7 2.062293 1_555
O48 Te0 1.870863 1_545
O48 Th4 2.261850 1_555
O49 Te1 1.870863 1_555
O49 Th5 2.261837 1_555
O50 Te2 1.870852 1_555
O50 Th6 2.261851 1_555
O51 Te3 1.870849 1_555
O51 Th7 2.261850 1_555
O52 Te4 1.870863 1_555
O52 Th0 2.261850 1_555
O53 Te5 1.870863 1_555
O53 Th1 2.261837 1_555
O54 Te6 1.870852 1_555
O54 Th2 2.261851 1_555
O55 Te7 1.870849 1_655
O55 Th3 2.261850 1_555
O56 W0 1.815240 1_655
O57 W1 1.815240 1_655
O58 W2 1.815240 1_655
O59 W3 1.815240 1_555
O60 W4 1.815240 1_555
O61 W5 1.815240 1_545
O62 W6 1.815240 1_545
O63 W7 1.815240 1_545
O64 Te0 1.938018 1_555
O64 Th0 2.627811 1_555
O64 Th2 2.662892 1_565
O65 Te1 1.938018 1_555
O65 Th1 2.627814 1_555
O65 Th3 2.662905 1_555
O66 Te2 1.938023 1_555
O66 Th2 2.627815 1_555
O66 Th1 2.662900 1_554
O67 Te3 1.938022 1_555
O67 Th3 2.627811 1_455
O67 Th0 2.662905 1_556
O68 Te4 1.938018 1_555
O68 Th4 2.627811 1_565
O68 Th6 2.662892 1_555
O69 Te5 1.938018 1_555
O69 Th5 2.627814 1_555
O69 Th7 2.662905 1_555
O70 Te6 1.938023 1_555
O70 Th6 2.627815 1_555
O70 Th5 2.662900 1_555
O71 Te7 1.938022 1_555
O71 Th7 2.627811 1_555
O71 Th4 2.662905 1_455
