# generated using pymatgen
data_SrC10
_symmetry_space_group_name_H-M   'P 1'
_cell_length_a   9.58137771
_cell_length_b   9.58137771
_cell_length_c   9.58137771
_cell_angle_alpha   109.47122063
_cell_angle_beta   109.47122063
_cell_angle_gamma   109.47122063
_symmetry_Int_Tables_number   1
_chemical_formula_structural   SrC10
_chemical_formula_sum   'Sr6 C60'
_cell_volume   677.11430978
_cell_formula_units_Z   6
loop_
 _symmetry_equiv_pos_site_id
 _symmetry_equiv_pos_as_xyz
  1  'x, y, z'
loop_
 _atom_site_type_symbol
 _atom_site_label
 _atom_site_symmetry_multiplicity
 _atom_site_fract_x
 _atom_site_fract_y
 _atom_site_fract_z
 _atom_site_occupancy
  Sr  Sr0  1  0.50000000  0.27244700  0.77244700  1
  Sr  Sr1  1  0.22755300  0.50000000  0.72755300  1
  Sr  Sr2  1  0.72755300  0.22755300  0.50000000  1
  Sr  Sr3  1  0.27244700  0.77244700  0.50000000  1
  Sr  Sr4  1  0.77244700  0.50000000  0.27244700  1
  Sr  Sr5  1  0.50000000  0.72755300  0.22755300  1
  C  C0  1  0.74714000  0.68144800  0.06569200  1
  C  C1  1  0.06569200  0.38424400  0.31855200  1
  C  C2  1  0.68144800  0.93430800  0.61575600  1
  C  C3  1  0.93430800  0.61575600  0.68144800  1
  C  C4  1  0.31855200  0.93430800  0.25286000  1
  C  C5  1  0.06569200  0.74714000  0.68144800  1
  C  C6  1  0.68144800  0.06569200  0.74714000  1
  C  C7  1  0.31855200  0.06569200  0.38424400  1
  C  C8  1  0.93430800  0.25286000  0.31855200  1
  C  C9  1  0.61575600  0.68144800  0.93430800  1
  C  C10  1  0.25286000  0.31855200  0.93430800  1
  C  C11  1  0.38424400  0.31855200  0.06569200  1
  C  C12  1  0.85298500  0.82819500  0.23668400  1
  C  C13  1  0.02478900  0.40848900  0.17180500  1
  C  C14  1  0.61630100  0.76331600  0.59151100  1
  C  C15  1  0.76331600  0.59151100  0.61630100  1
  C  C16  1  0.38370000  0.97521100  0.14701500  1
  C  C17  1  0.23668400  0.85298500  0.82819500  1
  C  C18  1  0.82819500  0.23668400  0.85298500  1
  C  C19  1  0.17180500  0.02478900  0.40848900  1
  C  C20  1  0.97521100  0.14701500  0.38370000  1
  C  C21  1  0.59151100  0.61630100  0.76331600  1
  C  C22  1  0.14701500  0.38369900  0.97521100  1
  C  C23  1  0.40848900  0.17180500  0.02478900  1
  C  C24  1  0.14701500  0.17180500  0.76331600  1
  C  C25  1  0.97521100  0.59151100  0.82819500  1
  C  C26  1  0.38369900  0.23668400  0.40848900  1
  C  C27  1  0.23668400  0.40848900  0.38369900  1
  C  C28  1  0.61630100  0.02478900  0.85298500  1
  C  C29  1  0.76331600  0.14701500  0.17180500  1
  C  C30  1  0.17180500  0.76331600  0.14701500  1
  C  C31  1  0.82819500  0.97521100  0.59151100  1
  C  C32  1  0.02478900  0.85298500  0.61630100  1
  C  C33  1  0.40848900  0.38369900  0.23668400  1
  C  C34  1  0.85298500  0.61630000  0.02478900  1
  C  C35  1  0.59151100  0.82819500  0.97521100  1
  C  C36  1  0.82993900  0.97578000  0.27549000  1
  C  C37  1  0.85415900  0.29971000  0.02422000  1
  C  C38  1  0.55445000  0.72451000  0.70029000  1
  C  C39  1  0.72451000  0.70029000  0.55445000  1
  C  C40  1  0.44555000  0.14584100  0.17006100  1
  C  C41  1  0.27549000  0.82993900  0.97578000  1
  C  C42  1  0.97578000  0.27549000  0.82993900  1
  C  C43  1  0.02422000  0.85415900  0.29971000  1
  C  C44  1  0.14584100  0.17006100  0.44555000  1
  C  C45  1  0.70029000  0.55445000  0.72451000  1
  C  C46  1  0.17006100  0.44555000  0.14584100  1
  C  C47  1  0.29971000  0.02422000  0.85415900  1
  C  C48  1  0.17006100  0.02422000  0.72451000  1
  C  C49  1  0.14584100  0.70029000  0.97578000  1
  C  C50  1  0.44555000  0.27549000  0.29971000  1
  C  C51  1  0.27549000  0.29971000  0.44555000  1
  C  C52  1  0.55445000  0.85415900  0.82993900  1
  C  C53  1  0.72451000  0.17006100  0.02422000  1
  C  C54  1  0.02422000  0.72451000  0.17006100  1
  C  C55  1  0.97578000  0.14584100  0.70029000  1
  C  C56  1  0.85415900  0.82993900  0.55445000  1
  C  C57  1  0.29971000  0.44555000  0.27549000  1
  C  C58  1  0.82993900  0.55445000  0.85415900  1
  C  C59  1  0.70029000  0.97578000  0.14584100  1
loop_
_geom_bond_atom_site_label_1
_geom_bond_atom_site_label_2
_geom_bond_distance
_geom_bond_site_symmetry_2
C0 C12 1.447613 1_555
C0 C34 1.447622 1_555
C0 C9 1.453583 1_554
C0 Sr4 3.043421 1_555
C0 Sr0 3.300951 1_554
C0 Sr5 3.300951 1_555
C1 C27 1.447613 1_555
C1 C13 1.447613 1_555
C1 C8 1.453583 1_455
C1 Sr3 3.043421 1_555
C1 Sr4 3.300951 1_455
C1 Sr1 3.300951 1_555
C2 C31 1.447613 1_555
C2 C6 1.453583 1_565
C2 Sr5 3.043421 1_555
C2 Sr3 3.300951 1_555
C2 Sr2 3.300951 1_565
C3 C5 1.453583 1_655
C3 Sr2 3.043421 1_555
C3 Sr4 3.300951 1_555
C3 Sr1 3.300951 1_655
C4 C7 1.453583 1_565
C4 Sr5 3.043421 1_555
C4 Sr3 3.300951 1_555
C4 Sr2 3.300951 1_565
C5 Sr3 3.043421 1_555
C5 Sr4 3.300951 1_455
C5 Sr1 3.300951 1_555
C6 Sr0 3.043421 1_555
C6 Sr3 3.300951 1_545
C6 Sr2 3.300951 1_555
C7 Sr0 3.043421 1_555
C7 Sr3 3.300951 1_545
C7 Sr2 3.300951 1_555
C8 Sr2 3.043421 1_555
C8 Sr4 3.300951 1_555
C8 Sr1 3.300951 1_655
C9 Sr1 3.043421 1_555
C9 Sr0 3.300951 1_555
C9 Sr5 3.300951 1_556
C10 C24 1.447613 1_555
C10 C22 1.447617 1_555
C10 C11 1.453583 1_556
C10 Sr1 3.043421 1_555
C10 Sr0 3.300951 1_555
C10 Sr5 3.300951 1_556
C11 C33 1.447613 1_555
C11 C23 1.447613 1_555
C11 Sr4 3.043421 1_555
C11 Sr5 3.300951 1_555
C11 Sr0 3.300951 1_554
C12 C43 1.444155 1_655
C12 C36 1.448784 1_555
C12 Sr4 3.142939 1_555
C12 Sr5 3.154090 1_555
C13 C46 1.444164 1_555
C13 C37 1.448778 1_455
C13 Sr3 3.142939 1_555
C13 Sr4 3.154081 1_455
C14 C39 1.444152 1_555
C14 C2 1.447613 1_555
C14 C38 1.448778 1_555
C14 Sr5 3.142939 1_555
C14 Sr3 3.154090 1_555
C15 C45 1.444152 1_555
C15 C3 1.447613 1_555
C15 C39 1.448778 1_555
C15 Sr2 3.142939 1_555
C15 Sr4 3.154090 1_555
C16 C41 1.444159 1_554
C16 C4 1.447622 1_555
C16 C40 1.448775 1_565
C16 Sr5 3.142943 1_555
C16 Sr2 3.154085 1_565
C17 C47 1.444155 1_565
C17 C5 1.447613 1_555
C17 C41 1.448784 1_555
C17 Sr3 3.142939 1_555
C17 Sr1 3.154090 1_555
C18 C37 1.444155 1_556
C18 C6 1.447613 1_555
C18 C42 1.448784 1_555
C18 Sr0 3.142939 1_555
C18 Sr2 3.154090 1_555
C19 C44 1.444164 1_555
C19 C7 1.447613 1_555
C19 C43 1.448778 1_545
C19 Sr0 3.142939 1_555
C19 Sr3 3.154081 1_545
C20 C36 1.444159 1_545
C20 C8 1.447622 1_555
C20 C44 1.448775 1_655
C20 Sr2 3.142943 1_555
C20 Sr1 3.154085 1_655
C21 C38 1.444152 1_555
C21 C9 1.447613 1_555
C21 C45 1.448778 1_555
C21 Sr1 3.142939 1_555
C21 Sr0 3.154090 1_555
C22 C42 1.444159 1_455
C22 C46 1.448775 1_556
C22 Sr1 3.142948 1_555
C22 Sr5 3.154090 1_556
C23 C40 1.444164 1_555
C23 C47 1.448778 1_554
C23 Sr4 3.142939 1_555
C23 Sr0 3.154081 1_554
C24 C55 1.444155 1_455
C24 C48 1.448784 1_555
C24 Sr1 3.142939 1_555
C24 Sr0 3.154090 1_555
C25 C58 1.444164 1_555
C25 C3 1.447613 1_555
C25 C49 1.448778 1_655
C25 Sr2 3.142939 1_555
C25 Sr1 3.154081 1_655
C26 C51 1.444152 1_555
C26 C7 1.447613 1_555
C26 C50 1.448778 1_555
C26 Sr0 3.142939 1_555
C26 Sr2 3.154090 1_555
C27 C57 1.444152 1_555
C27 C51 1.448778 1_555
C27 Sr3 3.142939 1_555
C27 Sr1 3.154090 1_555
C28 C53 1.444159 1_556
C28 C6 1.447617 1_555
C28 C52 1.448775 1_545
C28 Sr0 3.142948 1_555
C28 Sr3 3.154090 1_545
C29 C59 1.444155 1_545
C29 C8 1.447613 1_555
C29 C53 1.448784 1_555
C29 Sr2 3.142939 1_555
C29 Sr4 3.154090 1_555
C30 C49 1.444155 1_554
C30 C4 1.447613 1_555
C30 C54 1.448784 1_555
C30 Sr5 3.142939 1_555
C30 Sr3 3.154090 1_555
C31 C56 1.444164 1_555
C31 C55 1.448778 1_565
C31 Sr5 3.142939 1_555
C31 Sr2 3.154081 1_565
C32 C48 1.444159 1_565
C32 C5 1.447617 1_555
C32 C56 1.448775 1_455
C32 Sr3 3.142948 1_555
C32 Sr4 3.154090 1_455
C33 C50 1.444152 1_555
C33 C57 1.448778 1_555
C33 Sr4 3.142939 1_555
C33 Sr5 3.154090 1_555
C34 C54 1.444159 1_655
C34 C58 1.448775 1_554
C34 Sr4 3.142943 1_555
C34 Sr0 3.154085 1_554
C35 C52 1.444164 1_555
C35 C9 1.447613 1_555
C35 C59 1.448778 1_556
C35 Sr1 3.142939 1_555
C35 Sr5 3.154081 1_556
C36 C59 1.434388 1_555
C36 Sr5 3.025311 1_555
C36 Sr2 3.306664 1_565
C37 C53 1.434388 1_555
C37 Sr4 3.025311 1_555
C37 Sr0 3.306664 1_554
C38 C52 1.434388 1_555
C38 Sr3 3.025318 1_555
C38 Sr1 3.306671 1_555
C39 C56 1.434388 1_555
C39 Sr4 3.025318 1_555
C39 Sr5 3.306671 1_555
C40 C50 1.434388 1_555
C40 Sr2 3.025315 1_555
C40 Sr4 3.306668 1_555
C41 C49 1.434388 1_555
C41 Sr1 3.025311 1_555
C41 Sr5 3.306664 1_556
C42 C55 1.434388 1_555
C42 Sr2 3.025311 1_555
C42 Sr1 3.306664 1_655
C43 C54 1.434388 1_555
C43 Sr3 3.025311 1_555
C43 Sr4 3.306664 1_455
C44 C51 1.434388 1_555
C44 Sr1 3.025315 1_555
C44 Sr0 3.306668 1_555
C45 C58 1.434388 1_555
C45 Sr0 3.025318 1_555
C45 Sr2 3.306671 1_555
C46 C57 1.434388 1_555
C46 Sr5 3.025315 1_555
C46 Sr3 3.306668 1_555
C47 C48 1.434388 1_555
C47 Sr0 3.025311 1_555
C47 Sr3 3.306664 1_545
C48 Sr0 3.025311 1_555
C48 Sr3 3.306664 1_545
C49 Sr1 3.025311 1_555
C49 Sr5 3.306664 1_556
C50 Sr2 3.025318 1_555
C50 Sr4 3.306671 1_555
C51 Sr1 3.025318 1_555
C51 Sr0 3.306671 1_555
C52 Sr3 3.025315 1_555
C52 Sr1 3.306668 1_555
C53 Sr4 3.025311 1_555
C53 Sr0 3.306664 1_554
C54 Sr3 3.025311 1_555
C54 Sr4 3.306664 1_455
C55 Sr2 3.025311 1_555
C55 Sr1 3.306664 1_655
C56 Sr4 3.025315 1_555
C56 Sr5 3.306668 1_555
C57 Sr5 3.025318 1_555
C57 Sr3 3.306671 1_555
C58 Sr0 3.025315 1_555
C58 Sr2 3.306668 1_555
C59 Sr5 3.025311 1_555
C59 Sr2 3.306664 1_565
