# generated using pymatgen
data_YbNdSe3
_symmetry_space_group_name_H-M   'P 1'
_cell_length_a   7.53347759
_cell_length_b   7.53347759
_cell_length_c   9.28699300
_cell_angle_alpha   90.00000000
_cell_angle_beta   90.00000000
_cell_angle_gamma   148.28107509
_symmetry_Int_Tables_number   1
_chemical_formula_structural   YbNdSe3
_chemical_formula_sum   'Yb2 Nd2 Se6'
_cell_volume   277.10705781
_cell_formula_units_Z   2
loop_
 _symmetry_equiv_pos_site_id
 _symmetry_equiv_pos_as_xyz
  1  'x, y, z'
loop_
 _atom_site_type_symbol
 _atom_site_label
 _atom_site_symmetry_multiplicity
 _atom_site_fract_x
 _atom_site_fract_y
 _atom_site_fract_z
 _atom_site_occupancy
  Yb  Yb0  1  0.00000000  0.00000000  0.00000000  1
  Yb  Yb1  1  0.00000000  0.00000000  0.50000000  1
  Nd  Nd0  1  0.24878100  0.75121900  0.75000000  1
  Nd  Nd1  1  0.75121900  0.24878100  0.25000000  1
  Se  Se0  1  0.10964200  0.89035800  0.25000000  1
  Se  Se1  1  0.89035800  0.10964200  0.75000000  1
  Se  Se2  1  0.64148100  0.35851900  0.57546000  1
  Se  Se3  1  0.35851900  0.64148100  0.42454000  1
  Se  Se4  1  0.64148100  0.35851900  0.92454000  1
  Se  Se5  1  0.35851900  0.64148100  0.07546000  1
loop_
_geom_bond_atom_site_label_1
_geom_bond_atom_site_label_2
_geom_bond_distance
_geom_bond_site_symmetry_2
Nd0 Se1 2.906690 1_455
Nd0 Se1 2.906690 1_565
Nd0 Se4 3.047026 1_455
Nd0 Se2 3.047026 1_455
Nd0 Se4 3.047026 1_565
Nd0 Se2 3.047026 1_565
Nd0 Se3 3.415465 1_555
Nd0 Se5 3.415465 1_556
Nd1 Se0 2.906690 1_545
Nd1 Se0 2.906690 1_655
Nd1 Se3 3.047026 1_545
Nd1 Se5 3.047026 1_545
Nd1 Se5 3.047026 1_655
Nd1 Se3 3.047026 1_655
Nd1 Se2 3.415465 1_555
Nd1 Se4 3.415465 1_554
Se0 Yb1 2.813489 1_565
Se0 Yb0 2.813489 1_565
Se1 Yb1 2.813489 1_655
Se1 Yb0 2.813489 1_656
Se2 Yb1 2.989023 1_665
Se2 Yb1 2.989023 1_555
Se3 Yb1 2.989023 1_665
Se3 Yb1 2.989023 1_555
Se4 Yb0 2.989023 1_666
Se4 Yb0 2.989023 1_556
Se5 Yb0 2.989023 1_665
Se5 Yb0 2.989023 1_555
