# generated using pymatgen
data_Zn3Ag
_symmetry_space_group_name_H-M   'P 1'
_cell_length_a   5.48577519
_cell_length_b   5.48577519
_cell_length_c   4.57055280
_cell_angle_alpha   90.00000000
_cell_angle_beta   90.00000000
_cell_angle_gamma   119.99999632
_symmetry_Int_Tables_number   1
_chemical_formula_structural   Zn3Ag
_chemical_formula_sum   'Zn6 Ag2'
_cell_volume   119.11745089
_cell_formula_units_Z   2
loop_
 _symmetry_equiv_pos_site_id
 _symmetry_equiv_pos_as_xyz
  1  'x, y, z'
loop_
 _atom_site_type_symbol
 _atom_site_label
 _atom_site_symmetry_multiplicity
 _atom_site_fract_x
 _atom_site_fract_y
 _atom_site_fract_z
 _atom_site_occupancy
  Zn  Zn0  1  0.16435803  0.32871705  0.25000000  1
  Zn  Zn1  1  0.67128295  0.83564197  0.25000000  1
  Zn  Zn2  1  0.16435803  0.83564197  0.25000000  1
  Zn  Zn3  1  0.83564197  0.67128295  0.75000000  1
  Zn  Zn4  1  0.32871705  0.16435803  0.75000000  1
  Zn  Zn5  1  0.83564197  0.16435803  0.75000000  1
  Ag  Ag0  1  0.33333300  0.66666700  0.75000000  1
  Ag  Ag1  1  0.66666700  0.33333300  0.25000000  1
loop_
_geom_bond_atom_site_label_1
_geom_bond_atom_site_label_2
_geom_bond_distance
_geom_bond_site_symmetry_2
Zn0 Zn2 2.704899 1_545
Zn0 Zn1 2.704899 1_445
Zn0 Zn5 2.767906 1_454
Zn0 Zn5 2.767906 1_455
Zn0 Zn4 2.767911 1_555
Zn0 Zn4 2.767911 1_554
Zn0 Zn2 2.780876 1_555
Zn0 Zn1 2.780876 1_555
Zn1 Zn2 2.704899 1_655
Zn1 Zn5 2.767906 1_565
Zn1 Zn5 2.767906 1_564
Zn1 Zn3 2.767911 1_554
Zn1 Zn3 2.767911 1_555
Zn1 Zn2 2.780876 1_555
Zn2 Zn3 2.767906 1_455
Zn2 Zn3 2.767906 1_454
Zn2 Zn4 2.767906 1_565
Zn2 Zn4 2.767906 1_564
Zn3 Zn5 2.704899 1_565
Zn3 Zn4 2.704899 1_665
Zn3 Zn5 2.780876 1_555
Zn3 Zn4 2.780876 1_555
Zn4 Zn5 2.704899 1_455
Zn4 Zn5 2.780876 1_555
Ag0 Zn4 2.742970 1_565
Ag0 Zn3 2.742970 1_455
Ag0 Zn5 2.742975 1_565
Ag0 Zn5 2.742975 1_455
Ag0 Zn3 2.742981 1_555
Ag0 Zn4 2.742981 1_555
Ag0 Zn2 2.792892 1_556
Ag0 Zn2 2.792892 1_555
Ag0 Zn0 2.792892 1_556
Ag0 Zn0 2.792892 1_555
Ag0 Zn1 2.792892 1_555
Ag0 Zn1 2.792892 1_556
Ag1 Zn1 2.742970 1_545
Ag1 Zn0 2.742970 1_655
Ag1 Zn2 2.742975 1_655
Ag1 Zn2 2.742975 1_545
Ag1 Zn1 2.742981 1_555
Ag1 Zn0 2.742981 1_555
Ag1 Zn5 2.792892 1_554
Ag1 Zn5 2.792892 1_555
Ag1 Zn4 2.792892 1_554
Ag1 Zn4 2.792892 1_555
Ag1 Zn3 2.792892 1_554
Ag1 Zn3 2.792892 1_555
