# generated using pymatgen
data_NaMg3V3Cr3Si6B3H3O31
_symmetry_space_group_name_H-M   'P 1'
_cell_length_a   7.61734100
_cell_length_b   9.79093791
_cell_length_c   9.81504757
_cell_angle_alpha   113.34029928
_cell_angle_beta   105.13967871
_cell_angle_gamma   104.99257743
_symmetry_Int_Tables_number   1
_chemical_formula_structural   NaMg3V3Cr3Si6B3H3O31
_chemical_formula_sum   'Na1 Mg3 V3 Cr3 Si6 B3 H3 O31'
_cell_volume   592.14646827
_cell_formula_units_Z   1
loop_
 _symmetry_equiv_pos_site_id
 _symmetry_equiv_pos_as_xyz
  1  'x, y, z'
loop_
 _atom_site_type_symbol
 _atom_site_label
 _atom_site_symmetry_multiplicity
 _atom_site_fract_x
 _atom_site_fract_y
 _atom_site_fract_z
 _atom_site_occupancy
  Na  Na0  1  0.77057100  0.99987600  0.00002200  1
  Mg  Mg0  1  0.42319100  0.76967300  0.33793500  1
  Mg  Mg1  1  0.09174200  0.66494200  0.43481100  1
  Mg  Mg2  1  0.42660300  0.33656400  0.77167800  1
  V  V0  1  0.42319500  0.99727600  0.19157400  1
  V  V1  1  0.23909000  0.81280700  0.80749400  1
  V  V2  1  0.40823800  0.18223400  0.99969900  1
  Cr  Cr0  1  0.65465300  0.56377900  0.22758300  1
  Cr  Cr1  1  0.65300000  0.22721900  0.56362600  1
  Cr  Cr2  1  0.09327100  0.43923400  0.66441900  1
  Si  Si0  1  0.00049800  0.81369500  0.18777800  1
  Si  Si1  1  0.81506100  0.80815800  0.62262200  1
  Si  Si2  1  0.18655800  0.37729600  0.18434300  1
  Si  Si3  1  0.00155600  0.18821900  0.81408800  1
  Si  Si4  1  0.18734900  0.18548100  0.37647500  1
  Si  Si5  1  0.81527000  0.62328800  0.80709300  1
  B  B0  1  0.43228700  0.67012900  0.99932800  1
  B  B1  1  0.43743600  0.00129000  0.66968100  1
  B  B2  1  0.75851900  0.33109800  0.32905600  1
  H  H0  1  0.74291200  0.00257200  0.38649000  1
  H  H1  1  0.35681400  0.61182800  0.61471600  1
  H  H2  1  0.73928900  0.38142900  0.00347200  1
  O  O0  1  0.00454100  0.99988600  0.27062400  1
  O  O1  1  0.73488200  0.72803900  0.72739300  1
  O  O2  1  0.00358400  0.26960300  0.99783600  1
  O  O3  1  0.61699100  0.00612000  0.38983300  1
  O  O4  1  0.22741700  0.60838900  0.61405500  1
  O  O5  1  0.61198400  0.38116700  0.00603400  1
  O  O6  1  0.84257800  0.72512800  0.99621900  1
  O  O7  1  0.84048900  0.99853100  0.72273900  1
  O  O8  1  0.11833300  0.27042700  0.26973600  1
  O  O9  1  0.24730000  0.01630300  0.00464400  1
  O  O10  1  0.22285300  0.82881200  0.19826700  1
  O  O11  1  0.02895800  0.80109200  0.63197700  1
  O  O12  1  0.39705800  0.37119700  0.16824100  1
  O  O13  1  0.22526600  0.19754700  0.83099200  1
  O  O14  1  0.39977900  0.17406700  0.37954100  1
  O  O15  1  0.02862200  0.62696900  0.79689900  1
  O  O16  1  0.92090300  0.71658200  0.27437800  1
  O  O17  1  0.65393100  0.71758600  0.43684700  1
  O  O18  1  0.20757200  0.55812600  0.27854800  1
  O  O19  1  0.92967700  0.27902000  0.71656800  1
  O  O20  1  0.20289400  0.28199400  0.55926100  1
  O  O21  1  0.65344600  0.43775500  0.71811100  1
  O  O22  1  0.50849600  0.67707300  0.14531200  1
  O  O23  1  0.35911700  0.85629700  0.53418300  1
  O  O24  1  0.82086800  0.47407300  0.32976600  1
  O  O25  1  0.51020200  0.14925300  0.67787600  1
  O  O26  1  0.82568300  0.32543100  0.47175700  1
  O  O27  1  0.34735000  0.52636700  0.85463900  1
  O  O28  1  0.43926000  0.81721200  0.99873000  1
  O  O29  1  0.44542700  0.00727400  0.82160300  1
  O  O30  1  0.62468600  0.18459400  0.18340300  1
loop_
_geom_bond_atom_site_label_1
_geom_bond_atom_site_label_2
_geom_bond_distance
_geom_bond_site_symmetry_2
Na0 O29 2.670939 1_564
Na0 O28 2.682889 1_554
Na0 O30 2.692698 1_565
Na0 O0 2.785261 1_655
Na0 O2 2.786522 1_664
Na0 O1 2.814308 1_554
Na0 O8 2.862179 1_665
Na0 O6 2.869338 1_554
Na0 O7 2.902239 1_554
Mg0 O23 2.019526 1_555
Mg0 O18 2.027464 1_555
Mg0 O17 2.063153 1_555
Mg0 O22 2.099265 1_555
Mg0 O10 2.129953 1_555
Mg0 O3 2.168585 1_565
Mg1 O18 2.034170 1_555
Mg1 O23 2.037085 1_555
Mg1 O24 2.044451 1_455
Mg1 O16 2.080762 1_455
Mg1 O11 2.125996 1_555
Mg1 O4 2.141963 1_555
Mg2 O27 2.029565 1_555
Mg2 O25 2.046729 1_555
Mg2 O21 2.060424 1_555
Mg2 O20 2.080034 1_555
Mg2 O13 2.134912 1_555
Mg2 O5 2.159646 1_556
Cr0 O16 1.990366 1_555
Cr0 O24 1.997599 1_555
Cr0 O22 2.000276 1_555
Cr0 O17 2.011409 1_555
Cr0 O5 2.068897 1_555
Cr0 O12 2.088857 1_555
Cr1 O25 1.977166 1_555
Cr1 O21 2.016256 1_555
Cr1 O26 2.029807 1_555
Cr1 O19 2.035561 1_555
Cr1 O14 2.042320 1_555
Cr1 O3 2.047821 1_555
Cr2 O27 1.988852 1_555
Cr2 O20 1.997237 1_555
Cr2 O4 2.017033 1_555
Cr2 O26 2.028323 1_455
Cr2 O15 2.054471 1_555
Cr2 O19 2.057554 1_455
B0 O22 1.364755 1_556
B0 O27 1.371706 1_555
B0 O28 1.429676 1_555
B1 O23 1.338391 1_545
B1 O25 1.371621 1_555
B1 O29 1.453307 1_555
B2 O24 1.353432 1_555
B2 O26 1.388712 1_555
B2 O30 1.413443 1_555
H0 O3 0.977288 1_555
H1 O4 0.975715 1_555
H2 O5 0.975965 1_555
O0 Si4 1.661226 1_565
O0 Si0 1.663943 1_555
O1 Si5 1.658076 1_555
O1 Si1 1.662889 1_555
O2 Si3 1.651706 1_555
O2 Si2 1.668196 1_556
O3 V0 2.067164 1_545
O4 V1 2.104074 1_555
O5 V2 2.120352 1_554
O6 Si5 1.645489 1_555
O6 Si0 1.649551 1_656
O7 Si3 1.638737 1_665
O7 Si1 1.655240 1_555
O8 Si4 1.641533 1_555
O8 Si2 1.645745 1_555
O9 V2 1.791013 1_554
O9 V0 2.076546 1_545
O9 V1 2.129641 1_544
O10 Si0 1.633538 1_555
O10 V0 1.972230 1_555
O11 Si1 1.628843 1_455
O11 V1 1.962408 1_555
O12 Si2 1.665541 1_555
O12 V2 1.974011 1_554
O13 Si3 1.643024 1_555
O13 V2 1.950965 1_555
O14 Si4 1.643959 1_555
O14 V0 2.057397 1_545
O15 Si5 1.646206 1_455
O15 V1 2.036048 1_555
O16 Si0 1.614144 1_655
O17 Si1 1.613758 1_555
O18 Si2 1.579273 1_555
O19 Si3 1.630549 1_655
O20 Si4 1.616602 1_555
O21 Si5 1.613714 1_555
O28 V1 2.063189 1_555
O28 V0 2.072242 1_556
O29 V2 2.051168 1_555
O29 V1 2.060061 1_545
O30 V2 2.089118 1_554
O30 V0 2.109549 1_545
