# generated using pymatgen
data_Li6V3P8O29
_symmetry_space_group_name_H-M   'P 1'
_cell_length_a   9.79197400
_cell_length_b   9.81105580
_cell_length_c   13.99262945
_cell_angle_alpha   90.07001439
_cell_angle_beta   89.96627595
_cell_angle_gamma   119.87583862
_symmetry_Int_Tables_number   1
_chemical_formula_structural   Li6V3P8O29
_chemical_formula_sum   'Li12 V6 P16 O58'
_cell_volume   1165.62174136
_cell_formula_units_Z   2
loop_
 _symmetry_equiv_pos_site_id
 _symmetry_equiv_pos_as_xyz
  1  'x, y, z'
loop_
 _atom_site_type_symbol
 _atom_site_label
 _atom_site_symmetry_multiplicity
 _atom_site_fract_x
 _atom_site_fract_y
 _atom_site_fract_z
 _atom_site_occupancy
  Li  Li0  1  0.76862500  0.67481100  0.94276400  1
  Li  Li1  1  0.90541900  0.66411100  0.43500100  1
  Li  Li2  1  0.33945500  0.23823300  0.43508100  1
  Li  Li3  1  0.66418200  0.33248400  0.11674400  1
  Li  Li4  1  0.32596300  0.09468000  0.94033300  1
  Li  Li5  1  0.90548500  0.23032500  0.94287500  1
  Li  Li6  1  0.76308700  0.09797600  0.43515800  1
  Li  Li7  1  0.33290000  0.66832900  0.89174300  1
  Li  Li8  1  0.66455400  0.76394000  0.55684800  1
  Li  Li9  1  0.10042300  0.33548800  0.55718900  1
  Li  Li10  1  0.00283500  0.99975100  0.01648600  1
  Li  Li11  1  0.02862700  0.98349100  0.49533300  1
  V  V0  1  0.43178700  0.00021100  0.74824600  1
  V  V1  1  0.56102900  0.99878400  0.25015700  1
  V  V2  1  0.00379200  0.56494300  0.24810000  1
  V  V3  1  0.99775400  0.43380600  0.74948000  1
  V  V4  1  0.56635900  0.56572000  0.75181000  1
  V  V5  1  0.43509700  0.43804000  0.24741200  1
  P  P0  1  0.77844000  0.68569800  0.15695800  1
  P  P1  1  0.91521500  0.68777700  0.65423500  1
  P  P2  1  0.31467200  0.23011700  0.65731200  1
  P  P3  1  0.66604500  0.33199900  0.87373300  1
  P  P4  1  0.66826400  0.33591200  0.37131600  1
  P  P5  1  0.31315400  0.09121000  0.15422600  1
  P  P6  1  0.22172800  0.91762100  0.33958500  1
  P  P7  1  0.90611600  0.22101000  0.15850900  1
  P  P8  1  0.08716400  0.77749800  0.83971400  1
  P  P9  1  0.76988600  0.08371000  0.65549900  1
  P  P10  1  0.68936800  0.91321000  0.84126500  1
  P  P11  1  0.33384400  0.66615000  0.63135300  1
  P  P12  1  0.33473300  0.66750900  0.13021100  1
  P  P13  1  0.68745200  0.77365000  0.34119700  1
  P  P14  1  0.08582000  0.31153100  0.34218600  1
  P  P15  1  0.22154500  0.31123900  0.84186500  1
  O  O0  1  0.78039000  0.77797500  0.42963700  1
  O  O1  1  0.74649800  0.66264200  0.66299400  1
  O  O2  1  0.99176000  0.78353700  0.92103400  1
  O  O3  1  0.91910000  0.65905300  0.16315900  1
  O  O4  1  0.62705700  0.52128100  0.16917100  1
  O  O5  1  0.67389600  0.48602900  0.83563400  1
  O  O6  1  0.47008600  0.38601900  0.67406900  1
  O  O7  1  0.21468400  0.20982800  0.92306000  1
  O  O8  1  0.33885900  0.25766400  0.16321500  1
  O  O9  1  0.81549900  0.48794500  0.33017300  1
  O  O10  1  0.91535900  0.53151900  0.67149500  1
  O  O11  1  0.51608100  0.33037800  0.32895700  1
  O  O12  1  0.66828000  0.33133700  0.98150200  1
  O  O13  1  0.66690100  0.33845900  0.47832600  1
  O  O14  1  0.51273000  0.18720000  0.83476900  1
  O  O15  1  0.89269000  0.37191300  0.17062900  1
  O  O16  1  0.81268400  0.32571700  0.83311400  1
  O  O17  1  0.34208500  0.08985800  0.66417100  1
  O  O18  1  0.20086800  0.98948100  0.24089000  1
  O  O19  1  0.20880700  0.01228300  0.42039700  1
  O  O20  1  0.23063900  0.01275800  0.06309900  1
  O  O21  1  0.47778800  0.10545000  0.16924900  1
  O  O22  1  0.67522300  0.18938000  0.33194000  1
  O  O23  1  0.25803900  0.92024900  0.84133300  1
  O  O24  1  0.61784000  0.08919200  0.67306400  1
  O  O25  1  0.91666100  0.24985900  0.65957200  1
  O  O26  1  0.01365200  0.80010900  0.74125200  1
  O  O27  1  0.98689000  0.76729400  0.56129200  1
  O  O28  1  0.99776300  0.22106200  0.43108700  1
  O  O29  1  0.08556800  0.74702400  0.34182400  1
  O  O30  1  0.38347400  0.92655000  0.33292500  1
  O  O31  1  0.73751300  0.08029100  0.16597600  1
  O  O32  1  0.32455100  0.80634400  0.67734500  1
  O  O33  1  0.52634000  0.90163300  0.83203900  1
  O  O34  1  0.79194900  0.00660300  0.92251100  1
  O  O35  1  0.76814000  0.00009600  0.56423700  1
  O  O36  1  0.78615900  0.98653700  0.74286900  1
  O  O37  1  0.66302200  0.91732100  0.34143100  1
  O  O38  1  0.18299800  0.65945800  0.17336600  1
  O  O39  1  0.10168800  0.62735000  0.83010700  1
  O  O40  1  0.47648600  0.81453700  0.17391000  1
  O  O41  1  0.33237500  0.66356900  0.02365100  1
  O  O42  1  0.33849900  0.66286600  0.52482200  1
  O  O43  1  0.48922700  0.67413200  0.67229100  1
  O  O44  1  0.08479100  0.46638100  0.33205800  1
  O  O45  1  0.18651600  0.50898600  0.67004700  1
  O  O46  1  0.65970400  0.74119000  0.84221800  1
  O  O47  1  0.79230000  0.79367200  0.24803900  1
  O  O48  1  0.78167600  0.77068700  0.06723300  1
  O  O49  1  0.53226700  0.61875900  0.33195100  1
  O  O50  1  0.33911500  0.52206600  0.17378200  1
  O  O51  1  0.37098900  0.47530700  0.83216700  1
  O  O52  1  0.07793700  0.33876000  0.84162100  1
  O  O53  1  0.98554500  0.21543700  0.06821300  1
  O  O54  1  0.00024500  0.20626600  0.24882900  1
  O  O55  1  0.25355800  0.33666400  0.34196300  1
  O  O56  1  0.23299600  0.22924600  0.56529500  1
  O  O57  1  0.20007500  0.21468300  0.74348600  1
loop_
_geom_bond_atom_site_label_1
_geom_bond_atom_site_label_2
_geom_bond_distance
_geom_bond_site_symmetry_2
Li0 O2 1.918939 1_555
Li0 O48 1.952174 1_556
Li0 O46 2.058402 1_555
Li0 O5 2.195733 1_555
Li1 O27 1.994181 1_555
Li1 O29 2.010884 1_655
Li1 O0 2.028625 1_555
Li1 O9 2.096026 1_555
Li2 O19 1.940863 1_555
Li2 O55 2.037485 1_555
Li2 O56 2.078670 1_555
Li2 O11 2.110967 1_555
Li3 O12 1.892932 1_554
Li3 O4 2.183692 1_555
Li3 O21 2.187402 1_555
Li3 O15 2.205381 1_555
Li4 O20 1.929311 1_556
Li4 O7 1.936325 1_555
Li4 O23 2.037498 1_545
Li4 O14 2.167183 1_555
Li5 O34 1.924255 1_555
Li5 O53 1.956546 1_556
Li5 O52 2.049830 1_655
Li5 O16 2.216502 1_555
Li6 O28 1.994372 1_555
Li6 O37 2.021686 1_545
Li6 O35 2.058764 1_555
Li6 O22 2.098493 1_555
Li7 O41 1.846327 1_556
Li7 O51 2.262687 1_555
Li7 O39 2.264041 1_555
Li7 O33 2.282221 1_555
Li8 O35 2.016431 1_565
Li8 O0 2.077642 1_555
Li8 O1 2.153375 1_555
Li8 O43 2.196888 1_555
Li9 O56 2.032991 1_555
Li9 O28 2.063310 1_455
Li9 O25 2.118929 1_455
Li9 O45 2.160410 1_555
Li10 O20 2.266147 1_565
Li10 O53 2.320234 1_465
Li10 O48 2.323385 1_455
Li10 O7 2.450334 1_564
Li10 O2 2.461621 1_454
Li10 O34 2.477807 1_464
Li11 O19 1.947847 1_565
Li11 O27 2.158406 1_455
Li11 O0 2.436068 1_455
Li11 O56 2.442565 1_565
O0 P13 1.524512 1_555
O1 P1 1.548916 1_555
O1 V4 1.972153 1_555
O2 P8 1.491552 1_655
O3 P0 1.527034 1_555
O3 V2 1.928622 1_655
O4 P0 1.564234 1_555
O4 V5 1.967012 1_555
O5 P3 1.568441 1_555
O5 V4 1.979831 1_555
O6 P2 1.546295 1_555
O6 V4 1.876457 1_555
O7 P15 1.490407 1_555
O8 P5 1.528457 1_555
O8 V5 1.934584 1_555
O9 P4 1.579112 1_555
O9 V2 1.975099 1_655
O10 P1 1.552949 1_555
O10 V3 1.880129 1_555
O11 P4 1.579629 1_555
O11 V5 1.971039 1_555
O12 P3 1.508212 1_555
O13 P4 1.497692 1_555
O14 P3 1.563191 1_555
O14 V0 2.001667 1_555
O15 P7 1.559245 1_555
O15 V2 1.972063 1_655
O16 P3 1.573444 1_555
O16 V3 1.965743 1_555
O17 P2 1.530762 1_555
O17 V0 1.924180 1_555
O18 P5 1.607394 1_565
O18 P6 1.610008 1_555
O19 P6 1.507160 1_545
O20 P5 1.500138 1_555
O21 P5 1.561569 1_555
O21 V1 1.973580 1_545
O22 P4 1.571821 1_555
O22 V1 1.992431 1_545
O23 P8 1.557887 1_555
O23 V0 1.968953 1_565
O24 P9 1.535978 1_555
O24 V0 1.898257 1_555
O25 P9 1.546584 1_555
O25 V3 2.009520 1_555
O26 P1 1.601885 1_455
O26 P8 1.620659 1_555
O27 P1 1.499492 1_555
O28 P14 1.522405 1_655
O29 P6 1.535222 1_555
O29 V2 2.030457 1_555
O30 P6 1.544811 1_555
O30 V1 1.907469 1_555
O31 P7 1.540140 1_555
O31 V1 1.906971 1_545
O32 P11 1.561013 1_555
O32 V0 1.926522 1_565
O33 P10 1.548393 1_555
O33 V0 2.015803 1_565
O34 P10 1.490916 1_545
O35 P9 1.512436 1_555
O36 P9 1.607271 1_565
O36 P10 1.622673 1_555
O37 P13 1.542732 1_555
O37 V1 2.016572 1_555
O38 P12 1.568622 1_555
O38 V2 1.847104 1_555
O39 P8 1.554529 1_555
O39 V3 1.996276 1_455
O40 P12 1.544496 1_555
O40 V1 1.896499 1_555
O41 P12 1.491403 1_555
O42 P11 1.492118 1_555
O43 P11 1.591056 1_555
O43 V4 1.934947 1_555
O44 P14 1.531032 1_555
O44 V2 1.926720 1_555
O45 P11 1.592779 1_555
O45 V3 1.958878 1_455
O46 P10 1.563503 1_555
O46 V4 1.956506 1_555
O47 P13 1.609331 1_555
O47 P0 1.618193 1_555
O48 P0 1.499574 1_555
O49 P13 1.527862 1_555
O49 V5 1.940058 1_555
O50 P12 1.572540 1_555
O50 V5 1.843776 1_555
O51 P15 1.550646 1_555
O51 V4 2.005053 1_555
O52 P15 1.558398 1_555
O52 V3 1.970237 1_455
O53 P7 1.498442 1_555
O54 P7 1.613178 1_455
O54 P14 1.615871 1_555
O55 P14 1.534628 1_555
O55 V5 2.034359 1_555
O56 P2 1.513899 1_555
O57 P2 1.601761 1_555
O57 P15 1.623368 1_555
