# generated using pymatgen
data_Mg4CuNi
_symmetry_space_group_name_H-M   'P 1'
_cell_length_a   5.16541160
_cell_length_b   5.16541160
_cell_length_c   13.35890552
_cell_angle_alpha   90.00000000
_cell_angle_beta   90.00000000
_cell_angle_gamma   119.99998303
_symmetry_Int_Tables_number   1
_chemical_formula_structural   Mg4CuNi
_chemical_formula_sum   'Mg12 Cu3 Ni3'
_cell_volume   308.68210309
_cell_formula_units_Z   3
loop_
 _symmetry_equiv_pos_site_id
 _symmetry_equiv_pos_as_xyz
  1  'x, y, z'
loop_
 _atom_site_type_symbol
 _atom_site_label
 _atom_site_symmetry_multiplicity
 _atom_site_fract_x
 _atom_site_fract_y
 _atom_site_fract_z
 _atom_site_occupancy
  Mg  Mg0  1  0.16129055  0.83870945  0.33333300  1
  Mg  Mg1  1  0.16129055  0.32258110  -0.00000000  1
  Mg  Mg2  1  0.67741890  0.83870945  0.66666700  1
  Mg  Mg3  1  0.83870945  0.16129055  0.33333300  1
  Mg  Mg4  1  0.83870945  0.67741890  -0.00000000  1
  Mg  Mg5  1  0.32258110  0.16129055  0.66666700  1
  Mg  Mg6  1  0.50000000  0.50000000  0.21862472  1
  Mg  Mg7  1  0.50000000  0.00000000  0.88529172  1
  Mg  Mg8  1  0.00000000  0.50000000  0.55195872  1
  Mg  Mg9  1  0.50000000  0.50000000  0.44804128  1
  Mg  Mg10  1  0.00000000  0.50000000  0.78137528  1
  Mg  Mg11  1  0.50000000  0.00000000  0.11470828  1
  Cu  Cu0  1  0.50000000  0.50000000  0.83333300  1
  Cu  Cu1  1  0.50000000  0.00000000  0.50000000  1
  Cu  Cu2  1  0.00000000  0.50000000  0.16666700  1
  Ni  Ni0  1  0.00000000  0.00000000  0.83333300  1
  Ni  Ni1  1  0.00000000  0.00000000  0.50000000  1
  Ni  Ni2  1  0.00000000  0.00000000  0.16666700  1
loop_
_geom_bond_atom_site_label_1
_geom_bond_atom_site_label_2
_geom_bond_distance
_geom_bond_site_symmetry_2
Mg0 Ni2 2.653209 1_565
Mg0 Ni1 2.653220 1_565
Mg1 Ni2 2.653221 1_555
Mg1 Ni0 2.653221 1_554
Mg2 Ni0 2.653209 1_665
Mg2 Ni1 2.653221 1_665
Mg3 Ni2 2.653209 1_655
Mg3 Ni1 2.653220 1_655
Mg4 Ni0 2.653221 1_664
Mg4 Ni2 2.653221 1_665
Mg5 Ni0 2.653209 1_555
Mg5 Ni1 2.653221 1_555
Mg6 Ni2 2.674349 1_665
Mg6 Ni2 2.674349 1_555
Mg7 Ni0 2.674352 1_555
Mg7 Ni0 2.674352 1_655
Mg8 Ni1 2.674352 1_555
Mg8 Ni1 2.674352 1_565
Mg9 Ni1 2.674353 1_665
Mg9 Ni1 2.674353 1_555
Mg10 Ni0 2.674349 1_555
Mg10 Ni0 2.674349 1_565
Mg11 Ni2 2.674352 1_655
Mg11 Ni2 2.674352 1_555
Cu0 Ni0 2.582706 1_665
Cu0 Ni0 2.582706 1_555
Cu0 Mg10 2.674349 1_655
Cu0 Mg10 2.674349 1_555
Cu0 Mg7 2.674352 1_555
Cu0 Mg7 2.674352 1_565
Cu0 Mg2 2.693452 1_555
Cu0 Mg5 2.693452 1_555
Cu0 Mg4 2.693463 1_556
Cu0 Mg1 2.693463 1_556
Cu1 Ni1 2.582706 1_655
Cu1 Ni1 2.582706 1_555
Cu1 Mg9 2.674352 1_545
Cu1 Mg9 2.674352 1_555
Cu1 Mg8 2.674353 1_655
Cu1 Mg8 2.674353 1_545
Cu1 Mg5 2.693463 1_555
Cu1 Mg2 2.693463 1_545
Cu1 Mg0 2.693463 1_545
Cu1 Mg3 2.693463 1_555
Cu2 Ni2 2.582706 1_555
Cu2 Ni2 2.582706 1_565
Cu2 Mg6 2.674349 1_455
Cu2 Mg6 2.674349 1_555
Cu2 Mg11 2.674353 1_455
Cu2 Mg11 2.674353 1_565
Cu2 Mg0 2.693452 1_555
Cu2 Mg3 2.693452 1_455
Cu2 Mg1 2.693463 1_555
Cu2 Mg4 2.693463 1_455
