# generated using pymatgen
data_Ca2Be4P3O20
_symmetry_space_group_name_H-M   'P 1'
_cell_length_a   15.92569300
_cell_length_b   6.70019800
_cell_length_c   15.84991843
_cell_angle_alpha   79.59640456
_cell_angle_beta   90.00000000
_cell_angle_gamma   90.00000000
_symmetry_Int_Tables_number   1
_chemical_formula_structural   Ca2Be4P3O20
_chemical_formula_sum   'Ca8 Be16 P12 O80'
_cell_volume   1663.46599882
_cell_formula_units_Z   4
loop_
 _symmetry_equiv_pos_site_id
 _symmetry_equiv_pos_as_xyz
  1  'x, y, z'
loop_
 _atom_site_type_symbol
 _atom_site_label
 _atom_site_symmetry_multiplicity
 _atom_site_fract_x
 _atom_site_fract_y
 _atom_site_fract_z
 _atom_site_occupancy
  Ca  Ca0  1  0.58135300  0.19133100  0.43286800  1
  Ca  Ca1  1  0.91864700  0.19133100  0.93286800  1
  Ca  Ca2  1  0.41864700  0.80866900  0.56713200  1
  Ca  Ca3  1  0.08135300  0.80866900  0.06713200  1
  Ca  Ca4  1  0.58979600  0.31582200  0.05790300  1
  Ca  Ca5  1  0.91020400  0.31582200  0.55790300  1
  Ca  Ca6  1  0.41020400  0.68417800  0.94209700  1
  Ca  Ca7  1  0.08979600  0.68417800  0.44209700  1
  Be  Be0  1  0.76430100  0.90402700  0.36979000  1
  Be  Be1  1  0.73569900  0.90402700  0.86979000  1
  Be  Be2  1  0.23569900  0.09597300  0.63021000  1
  Be  Be3  1  0.26430100  0.09597300  0.13021000  1
  Be  Be4  1  0.66509500  0.57895400  0.32218300  1
  Be  Be5  1  0.83490500  0.57895400  0.82218300  1
  Be  Be6  1  0.33490500  0.42104600  0.67781700  1
  Be  Be7  1  0.16509500  0.42104600  0.17781700  1
  Be  Be8  1  0.66355800  0.92574300  0.16962700  1
  Be  Be9  1  0.83644200  0.92574300  0.66962700  1
  Be  Be10  1  0.33644200  0.07425700  0.83037300  1
  Be  Be11  1  0.16355800  0.07425700  0.33037300  1
  Be  Be12  1  0.76661800  0.60877400  0.11914800  1
  Be  Be13  1  0.73338200  0.60877400  0.61914800  1
  Be  Be14  1  0.23338200  0.39122600  0.88085200  1
  Be  Be15  1  0.26661800  0.39122600  0.38085200  1
  P  P0  1  0.61758500  0.72640100  0.47194200  1
  P  P1  1  0.88241500  0.72640100  0.97194200  1
  P  P2  1  0.38241500  0.27359900  0.52805800  1
  P  P3  1  0.11758500  0.27359900  0.02805800  1
  P  P4  1  0.62198300  0.78530300  0.01692600  1
  P  P5  1  0.87801700  0.78530300  0.51692600  1
  P  P6  1  0.37801700  0.21469700  0.98307400  1
  P  P7  1  0.12198300  0.21469700  0.48307400  1
  P  P8  1  0.71885000  0.25321300  0.24461400  1
  P  P9  1  0.78115000  0.25321300  0.74461400  1
  P  P10  1  0.28115000  0.74678700  0.75538600  1
  P  P11  1  0.21885000  0.74678700  0.25538600  1
  O  O0  1  0.67396800  0.90923900  0.42614000  1
  O  O1  1  0.82603200  0.90923900  0.92614000  1
  O  O2  1  0.32603200  0.09076100  0.57386000  1
  O  O3  1  0.17396800  0.09076100  0.07386000  1
  O  O4  1  0.61468500  0.56014900  0.41397300  1
  O  O5  1  0.88531500  0.56014900  0.91397300  1
  O  O6  1  0.38531500  0.43985100  0.58602700  1
  O  O7  1  0.11468500  0.43985100  0.08602700  1
  O  O8  1  0.65109600  0.63242000  0.56020900  1
  O  O9  1  0.84890400  0.63242000  0.06020900  1
  O  O10  1  0.34890400  0.36758000  0.43979100  1
  O  O11  1  0.15109600  0.36758000  0.93979100  1
  O  O12  1  0.53087300  0.82215800  0.47838800  1
  O  O13  1  0.96912700  0.82215800  0.97838800  1
  O  O14  1  0.46912700  0.17784200  0.52161200  1
  O  O15  1  0.03087300  0.17784200  0.02161200  1
  O  O16  1  0.67900600  0.60249100  0.05992600  1
  O  O17  1  0.82099400  0.60249100  0.55992600  1
  O  O18  1  0.32099400  0.39750900  0.94007400  1
  O  O19  1  0.17900600  0.39750900  0.44007400  1
  O  O20  1  0.61199300  0.94155800  0.07914100  1
  O  O21  1  0.88800700  0.94155800  0.57914100  1
  O  O22  1  0.38800700  0.05844200  0.92085900  1
  O  O23  1  0.11199300  0.05844200  0.42085900  1
  O  O24  1  0.65827800  0.89858300  0.93306600  1
  O  O25  1  0.84172200  0.89858300  0.43306600  1
  O  O26  1  0.34172200  0.10141700  0.06693400  1
  O  O27  1  0.15827800  0.10141700  0.56693400  1
  O  O28  1  0.53782900  0.68431900  0.00265300  1
  O  O29  1  0.96217100  0.68431900  0.50265300  1
  O  O30  1  0.46217100  0.31568100  0.99734700  1
  O  O31  1  0.03782900  0.31568100  0.49734700  1
  O  O32  1  0.77457200  0.09436000  0.29688300  1
  O  O33  1  0.72542800  0.09436000  0.79688300  1
  O  O34  1  0.22542800  0.90564000  0.70311700  1
  O  O35  1  0.27457200  0.90564000  0.20311700  1
  O  O36  1  0.66089400  0.34930100  0.30678100  1
  O  O37  1  0.83910600  0.34930100  0.80678100  1
  O  O38  1  0.33910600  0.65069900  0.69321900  1
  O  O39  1  0.16089400  0.65069900  0.19321900  1
  O  O40  1  0.65698400  0.15685700  0.18567900  1
  O  O41  1  0.84301600  0.15685700  0.68567900  1
  O  O42  1  0.34301600  0.84314300  0.81432100  1
  O  O43  1  0.15698400  0.84314300  0.31432100  1
  O  O44  1  0.77337500  0.41073600  0.18921100  1
  O  O45  1  0.72662500  0.41073600  0.68921100  1
  O  O46  1  0.22662500  0.58926400  0.81078900  1
  O  O47  1  0.27337500  0.58926400  0.31078900  1
  O  O48  1  0.75136900  0.70149300  0.32546100  1
  O  O49  1  0.74863100  0.70149300  0.82546100  1
  O  O50  1  0.24863100  0.29850700  0.67453900  1
  O  O51  1  0.25136900  0.29850700  0.17453900  1
  O  O52  1  0.75122200  0.80697500  0.16634200  1
  O  O53  1  0.74877800  0.80697500  0.66634200  1
  O  O54  1  0.24877800  0.19302500  0.83365800  1
  O  O55  1  0.25122200  0.19302500  0.33365800  1
  O  O56  1  0.63283900  0.75168900  0.24604900  1
  O  O57  1  0.86716100  0.75168900  0.74604900  1
  O  O58  1  0.36716100  0.24831100  0.75395100  1
  O  O59  1  0.13283900  0.24831100  0.25395100  1
  O  O60  1  0.69487200  0.17014300  0.53642500  1
  O  O61  1  0.80512800  0.17014300  0.03642500  1
  O  O62  1  0.30512800  0.82985700  0.46357500  1
  O  O63  1  0.19487200  0.82985700  0.96357500  1
  O  O64  1  0.46834000  0.12536800  0.30266500  1
  O  O65  1  0.03166000  0.12536800  0.80266500  1
  O  O66  1  0.53166000  0.87463200  0.69733500  1
  O  O67  1  0.96834000  0.87463200  0.19733500  1
  O  O68  1  0.59976700  0.40353500  0.86976400  1
  O  O69  1  0.90023300  0.40353500  0.36976400  1
  O  O70  1  0.40023300  0.59646500  0.13023600  1
  O  O71  1  0.09976700  0.59646500  0.63023600  1
  O  O72  1  0.46188100  0.51380100  0.16795700  1
  O  O73  1  0.03811900  0.51380100  0.66795700  1
  O  O74  1  0.53811900  0.48619900  0.83204300  1
  O  O75  1  0.96188100  0.48619900  0.33204300  1
  O  O76  1  0.94518200  0.04559200  0.20551900  1
  O  O77  1  0.55481800  0.04559200  0.70551900  1
  O  O78  1  0.05481800  0.95440800  0.79448100  1
  O  O79  1  0.44518200  0.95440800  0.29448100  1
loop_
_geom_bond_atom_site_label_1
_geom_bond_atom_site_label_2
_geom_bond_distance
_geom_bond_site_symmetry_2
Ca0 O14 2.266075 1_555
Ca0 O0 2.414962 1_545
Ca0 O60 2.428679 1_555
Ca0 O36 2.440257 1_555
Ca0 O4 2.492146 1_555
Ca0 O12 2.576950 1_545
Ca0 O64 2.832481 1_555
Ca1 O15 2.266075 1_656
Ca1 O1 2.414962 1_545
Ca1 O61 2.428679 1_556
Ca1 O37 2.440257 1_555
Ca1 O5 2.492146 1_555
Ca1 O13 2.576950 1_545
Ca1 O65 2.832481 1_655
Ca2 O12 2.266075 1_555
Ca2 O2 2.414962 1_565
Ca2 O62 2.428679 1_555
Ca2 O38 2.440257 1_555
Ca2 O6 2.492146 1_555
Ca2 O14 2.576950 1_565
Ca2 O66 2.832481 1_555
Ca3 O13 2.266075 1_454
Ca3 O3 2.414962 1_565
Ca3 O63 2.428679 1_554
Ca3 O39 2.440257 1_555
Ca3 O7 2.492146 1_555
Ca3 O15 2.576950 1_565
Ca3 O67 2.832481 1_455
Ca4 O30 2.247817 1_554
Ca4 O40 2.366834 1_555
Ca4 O16 2.393948 1_555
Ca4 O20 2.494331 1_545
Ca4 O28 2.601327 1_555
Ca4 O68 2.937672 1_554
Ca5 O31 2.247817 1_655
Ca5 O41 2.366834 1_555
Ca5 O17 2.393948 1_555
Ca5 O21 2.494331 1_545
Ca5 O29 2.601327 1_555
Ca5 O69 2.937672 1_555
Ca6 O28 2.247817 1_556
Ca6 O42 2.366834 1_555
Ca6 O18 2.393948 1_555
Ca6 O22 2.494331 1_565
Ca6 O30 2.601327 1_555
Ca6 O70 2.937672 1_556
Ca7 O29 2.247817 1_455
Ca7 O43 2.366834 1_555
Ca7 O19 2.393948 1_555
Ca7 O23 2.494331 1_565
Ca7 O31 2.601327 1_555
Ca7 O71 2.937672 1_555
Be0 O32 1.567220 1_565
Be0 O25 1.585627 1_555
Be0 O48 1.649826 1_555
Be0 O0 1.696998 1_555
Be1 O33 1.567220 1_565
Be1 O24 1.585627 1_555
Be1 O49 1.649826 1_555
Be1 O1 1.696998 1_555
Be2 O34 1.567220 1_545
Be2 O27 1.585627 1_555
Be2 O50 1.649826 1_555
Be2 O2 1.696998 1_555
Be3 O35 1.567220 1_545
Be3 O26 1.585627 1_555
Be3 O51 1.649826 1_555
Be3 O3 1.696998 1_555
Be4 O56 1.598478 1_555
Be4 O36 1.602310 1_555
Be4 O48 1.606240 1_555
Be4 O4 1.646454 1_555
Be5 O57 1.598478 1_555
Be5 O37 1.602310 1_555
Be5 O49 1.606240 1_555
Be5 O5 1.646454 1_555
Be6 O58 1.598478 1_555
Be6 O38 1.602310 1_555
Be6 O50 1.606240 1_555
Be6 O6 1.646454 1_555
Be7 O59 1.598478 1_555
Be7 O39 1.602310 1_555
Be7 O51 1.606240 1_555
Be7 O7 1.646454 1_555
Be8 O56 1.598869 1_555
Be8 O52 1.612466 1_555
Be8 O40 1.617363 1_565
Be8 O20 1.639403 1_555
Be9 O57 1.598869 1_555
Be9 O53 1.612466 1_555
Be9 O41 1.617363 1_565
Be9 O21 1.639403 1_555
Be10 O58 1.598869 1_555
Be10 O54 1.612466 1_555
Be10 O42 1.617363 1_545
Be10 O22 1.639403 1_555
Be11 O59 1.598869 1_555
Be11 O55 1.612466 1_555
Be11 O43 1.617363 1_545
Be11 O23 1.639403 1_555
Be12 O44 1.572656 1_555
Be12 O9 1.600514 1_555
Be12 O52 1.655888 1_555
Be12 O16 1.686400 1_555
Be13 O45 1.572656 1_555
Be13 O8 1.600514 1_555
Be13 O53 1.655888 1_555
Be13 O17 1.686400 1_555
Be14 O46 1.572656 1_555
Be14 O11 1.600514 1_555
Be14 O54 1.655888 1_555
Be14 O18 1.686400 1_555
Be15 O47 1.572656 1_555
Be15 O10 1.600514 1_555
Be15 O55 1.655888 1_555
Be15 O19 1.686400 1_555
O0 P0 1.585202 1_555
O1 P1 1.585202 1_555
O2 P2 1.585202 1_555
O3 P3 1.585202 1_555
O4 P0 1.567416 1_555
O5 P1 1.567416 1_555
O6 P2 1.567416 1_555
O7 P3 1.567416 1_555
O8 P0 1.523297 1_555
O9 P1 1.523297 1_554
O10 P2 1.523297 1_555
O11 P3 1.523297 1_556
O12 P0 1.533874 1_555
O13 P1 1.533874 1_555
O14 P2 1.533874 1_555
O15 P3 1.533874 1_555
O16 P4 1.577348 1_555
O17 P5 1.577348 1_555
O18 P6 1.577348 1_555
O19 P7 1.577348 1_555
O20 P4 1.570558 1_555
O21 P5 1.570558 1_555
O22 P6 1.570558 1_555
O23 P7 1.570558 1_555
O24 P4 1.520703 1_556
O25 P5 1.520703 1_555
O26 P6 1.520703 1_554
O27 P7 1.520703 1_555
O28 P4 1.536369 1_555
O29 P5 1.536369 1_555
O30 P6 1.536369 1_555
O31 P7 1.536369 1_555
O32 P8 1.512685 1_555
O33 P9 1.512685 1_555
O34 P10 1.512685 1_555
O35 P11 1.512685 1_555
O36 P8 1.570480 1_555
O37 P9 1.570480 1_555
O38 P10 1.570480 1_555
O39 P11 1.570480 1_555
O40 P8 1.574140 1_555
O41 P9 1.574140 1_555
O42 P10 1.574140 1_555
O43 P11 1.574140 1_555
O44 P8 1.518012 1_555
O45 P9 1.518012 1_555
O46 P10 1.518012 1_555
O47 P11 1.518012 1_555
O64 O79 1.232315 1_545
O65 O78 1.232315 1_545
O66 O77 1.232315 1_565
O67 O76 1.232315 1_565
O68 O74 1.228223 1_555
O69 O75 1.228223 1_555
O70 O72 1.228223 1_555
O71 O73 1.228223 1_555
