# generated using pymatgen
data_Mg3Si4
_symmetry_space_group_name_H-M   'P 1'
_cell_length_a   5.96454800
_cell_length_b   6.49639387
_cell_length_c   7.94719003
_cell_angle_alpha   108.88891340
_cell_angle_beta   106.45405621
_cell_angle_gamma   93.95524257
_symmetry_Int_Tables_number   1
_chemical_formula_structural   Mg3Si4
_chemical_formula_sum   'Mg6 Si8'
_cell_volume   275.00785416
_cell_formula_units_Z   2
loop_
 _symmetry_equiv_pos_site_id
 _symmetry_equiv_pos_as_xyz
  1  'x, y, z'
loop_
 _atom_site_type_symbol
 _atom_site_label
 _atom_site_symmetry_multiplicity
 _atom_site_fract_x
 _atom_site_fract_y
 _atom_site_fract_z
 _atom_site_occupancy
  Mg  Mg0  1  0.42604900  0.15243800  0.48956200  1
  Mg  Mg1  1  0.06447700  0.61417300  0.32535100  1
  Mg  Mg2  1  0.77814100  0.64723900  0.94160000  1
  Mg  Mg3  1  0.26236700  0.03386300  0.06362000  1
  Mg  Mg4  1  0.97032400  0.04220900  0.61497800  1
  Mg  Mg5  1  0.67223100  0.12018800  0.91190900  1
  Si  Si0  1  0.72188600  0.26699600  0.31572100  1
  Si  Si1  1  0.49976100  0.50615300  0.16399200  1
  Si  Si2  1  0.29743000  0.74322400  0.74029700  1
  Si  Si3  1  0.34203200  0.40548700  0.80422400  1
  Si  Si4  1  0.96776700  0.00032800  0.25356500  1
  Si  Si5  1  0.86475600  0.57833100  0.61004700  1
  Si  Si6  1  0.54142200  0.77278300  0.54100300  1
  Si  Si7  1  0.09112900  0.36991700  0.97748800  1
loop_
_geom_bond_atom_site_label_1
_geom_bond_atom_site_label_2
_geom_bond_distance
_geom_bond_site_symmetry_2
Mg0 Si3 2.714558 1_555
Mg0 Si0 2.727937 1_555
Mg0 Si6 2.729717 1_545
Mg0 Si4 2.736597 1_455
Mg1 Si7 2.762117 1_554
Mg1 Si6 2.789612 1_555
Mg1 Si4 2.809125 1_465
Mg1 Si5 2.902068 1_455
Mg1 Si0 2.903795 1_455
Mg1 Si2 2.993596 1_555
Mg1 Mg2 3.128585 1_454
Mg1 Si1 3.182227 1_455
Mg1 Mg4 3.185775 1_465
Mg1 Si1 3.229897 1_555
Mg2 Si4 2.656865 1_566
Mg2 Si3 2.672481 1_555
Mg2 Si7 2.703181 1_655
Mg2 Si5 2.729359 1_555
Mg2 Si1 3.036778 1_556
Mg2 Si2 3.076229 1_555
Mg3 Si4 2.660162 1_455
Mg3 Si7 2.675245 1_554
Mg3 Si2 2.725574 1_544
Mg3 Si0 2.858645 1_555
Mg3 Si1 3.038281 1_555
Mg4 Si4 2.791511 1_555
Mg4 Si6 2.796007 1_545
Mg4 Si3 2.799657 1_655
Mg4 Si7 2.827118 1_655
Mg4 Si5 3.021124 1_545
Mg4 Si2 3.040653 1_645
Mg5 Si7 2.702219 1_655
Mg5 Si2 2.865282 1_545
Mg5 Si6 2.921969 1_545
Mg5 Si3 2.936350 1_555
Mg5 Si0 2.955842 1_556
Mg5 Si1 3.103154 1_556
Mg5 Si4 3.151633 1_556
Si0 Si4 2.367021 1_555
Si0 Si5 2.420349 1_555
Si0 Si1 2.493009 1_555
Si1 Si7 2.393161 1_554
Si1 Si3 2.582282 1_554
Si1 Si6 2.863172 1_555
Si2 Si3 2.422500 1_555
Si2 Si6 2.475357 1_555
Si2 Si5 2.503278 1_455
Si3 Si7 2.348330 1_555
Si5 Si6 2.408636 1_555
