# generated using pymatgen
data_Sr2NiTeO6
_symmetry_space_group_name_H-M   'P 1'
_cell_length_a   8.03307865
_cell_length_b   9.76452659
_cell_length_c   8.03307897
_cell_angle_alpha   114.11196601
_cell_angle_beta   89.29723031
_cell_angle_gamma   66.16725320
_symmetry_Int_Tables_number   1
_chemical_formula_structural   Sr2NiTeO6
_chemical_formula_sum   'Sr8 Ni4 Te4 O24'
_cell_volume   514.08491238
_cell_formula_units_Z   4
loop_
 _symmetry_equiv_pos_site_id
 _symmetry_equiv_pos_as_xyz
  1  'x, y, z'
loop_
 _atom_site_type_symbol
 _atom_site_label
 _atom_site_symmetry_multiplicity
 _atom_site_fract_x
 _atom_site_fract_y
 _atom_site_fract_z
 _atom_site_occupancy
  Sr  Sr0  1  0.62701600  0.25018300  0.37719900  1
  Sr  Sr1  1  0.87701600  0.75018300  0.62719900  1
  Sr  Sr2  1  0.12701600  0.25018300  0.87719900  1
  Sr  Sr3  1  0.37701600  0.75018300  0.12719900  1
  Sr  Sr4  1  0.87298400  0.74981700  0.12280100  1
  Sr  Sr5  1  0.12298400  0.24981700  0.37280100  1
  Sr  Sr6  1  0.37298400  0.74981700  0.62280100  1
  Sr  Sr7  1  0.62298400  0.24981700  0.87280100  1
  Ni  Ni0  1  0.75000000  0.50000000  0.25000000  1
  Ni  Ni1  1  0.00000000  0.00000000  0.50000000  1
  Ni  Ni2  1  0.25000000  0.50000000  0.75000000  1
  Ni  Ni3  1  0.50000000  0.00000000  0.00000000  1
  Te  Te0  1  0.50000000  0.00000000  0.50000000  1
  Te  Te1  1  0.75000000  0.50000000  0.75000000  1
  Te  Te2  1  0.00000000  0.00000000  0.00000000  1
  Te  Te3  1  0.25000000  0.50000000  0.25000000  1
  O  O0  1  0.65165900  0.75956400  0.41122300  1
  O  O1  1  0.90165900  0.25956400  0.66122300  1
  O  O2  1  0.15165900  0.75956400  0.91122300  1
  O  O3  1  0.40165900  0.25956400  0.16122300  1
  O  O4  1  0.84834100  0.24043600  0.08877700  1
  O  O5  1  0.09834100  0.74043600  0.33877700  1
  O  O6  1  0.34834100  0.24043600  0.58877700  1
  O  O7  1  0.59834100  0.74043600  0.83877700  1
  O  O8  1  0.76884700  0.46599000  0.49237600  1
  O  O9  1  0.01884700  0.96599000  0.74237600  1
  O  O10  1  0.26884700  0.46599000  0.99237600  1
  O  O11  1  0.51884700  0.96599000  0.24237600  1
  O  O12  1  0.47361400  0.53401000  0.26516400  1
  O  O13  1  0.72361400  0.03401000  0.51516400  1
  O  O14  1  0.97361400  0.53401000  0.76516400  1
  O  O15  1  0.22361400  0.03401000  0.01516400  1
  O  O16  1  0.73115300  0.53401000  0.00762400  1
  O  O17  1  0.98115300  0.03401000  0.25762400  1
  O  O18  1  0.23115300  0.53401000  0.50762400  1
  O  O19  1  0.48115300  0.03401000  0.75762400  1
  O  O20  1  0.02638600  0.46599000  0.23483600  1
  O  O21  1  0.27638600  0.96599000  0.48483600  1
  O  O22  1  0.52638600  0.46599000  0.73483600  1
  O  O23  1  0.77638600  0.96599000  0.98483600  1
loop_
_geom_bond_atom_site_label_1
_geom_bond_atom_site_label_2
_geom_bond_distance
_geom_bond_site_symmetry_2
Ni0 O0 2.097637 1_555
Ni0 O4 2.097637 1_555
Ni0 O12 2.102143 1_555
Ni0 O20 2.102143 1_655
Ni0 O8 2.102143 1_555
Ni0 O16 2.102143 1_555
Ni1 O1 2.097637 1_455
Ni1 O5 2.097637 1_545
Ni1 O21 2.102143 1_545
Ni1 O13 2.102143 1_455
Ni1 O9 2.102143 1_545
Ni1 O17 2.102143 1_455
Ni2 O2 2.097637 1_555
Ni2 O6 2.097637 1_555
Ni2 O14 2.102143 1_455
Ni2 O22 2.102143 1_555
Ni2 O10 2.102143 1_555
Ni2 O18 2.102143 1_555
Ni3 O3 2.097637 1_555
Ni3 O7 2.097637 1_544
Ni3 O23 2.102143 1_544
Ni3 O15 2.102143 1_555
Ni3 O11 2.102143 1_545
Ni3 O19 2.102143 1_554
O0 Te0 1.950378 1_565
O0 Sr1 2.523600 1_555
O0 Sr6 2.849597 1_555
O0 Sr4 2.849597 1_555
O0 Sr3 3.193355 1_555
O1 Te1 1.950378 1_555
O1 Sr2 2.523600 1_655
O1 Sr7 2.849597 1_555
O1 Sr5 2.849597 1_655
O1 Sr0 3.193355 1_555
O2 Te2 1.950378 1_566
O2 Sr3 2.523600 1_556
O2 Sr4 2.849597 1_456
O2 Sr6 2.849597 1_555
O2 Sr1 3.193355 1_455
O3 Te3 1.950378 1_555
O3 Sr0 2.523600 1_555
O3 Sr5 2.849597 1_555
O3 Sr7 2.849597 1_554
O3 Sr2 3.193355 1_554
O4 Te2 1.950378 1_655
O4 Sr7 2.523600 1_554
O4 Sr2 2.849597 1_654
O4 Sr0 2.849597 1_555
O4 Sr5 3.193355 1_655
O5 Te3 1.950378 1_555
O5 Sr4 2.523600 1_455
O5 Sr3 2.849597 1_555
O5 Sr1 2.849597 1_455
O5 Sr6 3.193355 1_555
O6 Te0 1.950378 1_555
O6 Sr5 2.523600 1_555
O6 Sr0 2.849597 1_555
O6 Sr2 2.849597 1_555
O6 Sr7 3.193355 1_555
O7 Te1 1.950378 1_555
O7 Sr6 2.523600 1_555
O7 Sr1 2.849597 1_555
O7 Sr3 2.849597 1_556
O7 Sr4 3.193355 1_556
O8 Te1 1.950961 1_555
O8 Sr5 2.625792 1_655
O8 Sr0 2.639654 1_555
O8 Sr1 3.024046 1_555
O8 Sr6 3.051977 1_555
O9 Te2 1.950961 1_566
O9 Sr6 2.625792 1_555
O9 Sr1 2.639654 1_455
O9 Sr2 3.024046 1_565
O9 Sr7 3.051977 1_465
O10 Te3 1.950961 1_556
O10 Sr7 2.625792 1_555
O10 Sr2 2.639654 1_555
O10 Sr3 3.024046 1_556
O10 Sr4 3.051977 1_456
O11 Te0 1.950961 1_565
O11 Sr4 2.625792 1_555
O11 Sr3 2.639654 1_555
O11 Sr0 3.024046 1_565
O11 Sr5 3.051977 1_565
O12 Te3 1.950961 1_555
O12 Sr3 2.625798 1_555
O12 Sr6 2.639648 1_555
O12 Sr7 3.024052 1_554
O12 Sr0 3.051972 1_555
O13 Te0 1.950961 1_555
O13 Sr0 2.625798 1_555
O13 Sr7 2.639648 1_555
O13 Sr4 3.024052 1_545
O13 Sr1 3.051972 1_545
O14 Te1 1.950961 1_555
O14 Sr1 2.625798 1_555
O14 Sr4 2.639648 1_556
O14 Sr5 3.024052 1_655
O14 Sr2 3.051972 1_655
O15 Te2 1.950961 1_555
O15 Sr2 2.625798 1_554
O15 Sr5 2.639648 1_555
O15 Sr6 3.024052 1_544
O15 Sr3 3.051972 1_545
O16 Te1 1.950961 1_554
O16 Sr3 2.625792 1_555
O16 Sr4 2.639654 1_555
O16 Sr7 3.024046 1_554
O16 Sr2 3.051977 1_654
O17 Te2 1.950961 1_655
O17 Sr0 2.625792 1_555
O17 Sr5 2.639654 1_655
O17 Sr4 3.024046 1_545
O17 Sr3 3.051977 1_645
O18 Te3 1.950961 1_555
O18 Sr1 2.625792 1_455
O18 Sr6 2.639654 1_555
O18 Sr5 3.024046 1_555
O18 Sr0 3.051977 1_555
O19 Te0 1.950961 1_555
O19 Sr2 2.625792 1_555
O19 Sr7 2.639654 1_555
O19 Sr6 3.024046 1_545
O19 Sr1 3.051977 1_545
O20 Te3 1.950961 1_555
O20 Sr5 2.625798 1_555
O20 Sr2 2.639648 1_554
O20 Sr1 3.024052 1_455
O20 Sr4 3.051972 1_455
O21 Te0 1.950961 1_565
O21 Sr6 2.625798 1_555
O21 Sr3 2.639648 1_555
O21 Sr2 3.024052 1_565
O21 Sr5 3.051972 1_565
O22 Te1 1.950961 1_555
O22 Sr7 2.625798 1_555
O22 Sr0 2.639648 1_555
O22 Sr3 3.024052 1_556
O22 Sr6 3.051972 1_555
O23 Te2 1.950961 1_666
O23 Sr4 2.625798 1_556
O23 Sr1 2.639648 1_555
O23 Sr0 3.024052 1_566
O23 Sr7 3.051972 1_565
