# generated using pymatgen
data_YBO3
_symmetry_space_group_name_H-M   'P 1'
_cell_length_a   4.52037900
_cell_length_b   7.90144494
_cell_length_c   8.47554000
_cell_angle_alpha   90.00000000
_cell_angle_beta   90.00000000
_cell_angle_gamma   124.89646246
_symmetry_Int_Tables_number   1
_chemical_formula_structural   YBO3
_chemical_formula_sum   'Y4 B4 O12'
_cell_volume   248.29143123
_cell_formula_units_Z   4
loop_
 _symmetry_equiv_pos_site_id
 _symmetry_equiv_pos_as_xyz
  1  'x, y, z'
loop_
 _atom_site_type_symbol
 _atom_site_label
 _atom_site_symmetry_multiplicity
 _atom_site_fract_x
 _atom_site_fract_y
 _atom_site_fract_z
 _atom_site_occupancy
  Y  Y0  1  0.00000000  0.50000000  0.00000000  1
  Y  Y1  1  0.00000000  0.50000000  0.50000000  1
  Y  Y2  1  0.00000000  0.00000000  0.00000000  1
  Y  Y3  1  0.00000000  0.00000000  0.50000000  1
  B  B0  1  0.33013100  0.86681500  0.25000000  1
  B  B1  1  0.40349800  0.36681500  0.25000000  1
  B  B2  1  0.59650200  0.63318500  0.75000000  1
  B  B3  1  0.66986900  0.13318500  0.75000000  1
  O  O0  1  0.41978700  0.82233500  0.10603900  1
  O  O1  1  0.41978700  0.82233500  0.39396100  1
  O  O2  1  0.22975200  0.54300600  0.75000000  1
  O  O3  1  0.85626000  0.04300600  0.75000000  1
  O  O4  1  0.22488400  0.32233500  0.10603900  1
  O  O5  1  0.77511600  0.67766500  0.89396100  1
  O  O6  1  0.77511600  0.67766500  0.60603900  1
  O  O7  1  0.22488400  0.32233500  0.39396100  1
  O  O8  1  0.14374000  0.95699400  0.25000000  1
  O  O9  1  0.77024800  0.45699400  0.25000000  1
  O  O10  1  0.58021300  0.17766500  0.89396100  1
  O  O11  1  0.58021300  0.17766500  0.60603900  1
loop_
_geom_bond_atom_site_label_1
_geom_bond_atom_site_label_2
_geom_bond_distance
_geom_bond_site_symmetry_2
B0 O8 1.380054 1_555
B0 O0 1.392662 1_555
B0 O1 1.392662 1_555
B1 O9 1.380058 1_555
B1 O7 1.392658 1_555
B1 O4 1.392658 1_555
B2 O2 1.380058 1_555
B2 O6 1.392658 1_555
B2 O5 1.392658 1_555
B3 O3 1.380054 1_555
B3 O11 1.392662 1_555
B3 O10 1.392662 1_555
O0 Y0 2.316350 1_555
O0 Y2 2.333371 1_665
O1 Y1 2.316350 1_555
O1 Y3 2.333371 1_665
O2 Y0 2.297817 1_556
O2 Y1 2.297817 1_555
O3 Y3 2.297817 1_655
O3 Y2 2.297817 1_656
O4 Y2 2.316349 1_555
O4 Y0 2.333374 1_555
O5 Y2 2.316349 1_666
O5 Y0 2.333374 1_656
O6 Y3 2.316349 1_665
O6 Y1 2.333374 1_655
O7 Y3 2.316349 1_555
O7 Y1 2.333374 1_555
O8 Y2 2.297817 1_565
O8 Y3 2.297817 1_565
O9 Y1 2.297817 1_655
O9 Y0 2.297817 1_655
O10 Y0 2.316350 1_656
O10 Y2 2.333371 1_556
O11 Y1 2.316350 1_655
O11 Y3 2.333371 1_555
