# generated using pymatgen
data_Rb3NdN6
_symmetry_space_group_name_H-M   'P 1'
_cell_length_a   8.31267826
_cell_length_b   8.31267826
_cell_length_c   8.31267785
_cell_angle_alpha   90.96326457
_cell_angle_beta   90.96326457
_cell_angle_gamma   90.96325712
_symmetry_Int_Tables_number   1
_chemical_formula_structural   Rb3NdN6
_chemical_formula_sum   'Rb6 Nd2 N12'
_cell_volume   574.16490077
_cell_formula_units_Z   2
loop_
 _symmetry_equiv_pos_site_id
 _symmetry_equiv_pos_as_xyz
  1  'x, y, z'
loop_
 _atom_site_type_symbol
 _atom_site_label
 _atom_site_symmetry_multiplicity
 _atom_site_fract_x
 _atom_site_fract_y
 _atom_site_fract_z
 _atom_site_occupancy
  Rb  Rb0  1  0.00000000  0.66482500  0.33517500  1
  Rb  Rb1  1  0.66482500  0.33517500  0.00000000  1
  Rb  Rb2  1  0.33517500  0.00000000  0.66482500  1
  Rb  Rb3  1  0.50000000  0.84349900  0.15650100  1
  Rb  Rb4  1  0.84349900  0.15650100  0.50000000  1
  Rb  Rb5  1  0.15650100  0.50000000  0.84349900  1
  Nd  Nd0  1  0.74624900  0.74624900  0.74624900  1
  Nd  Nd1  1  0.25375100  0.25375100  0.25375100  1
  N  N0  1  0.47628700  0.68405900  0.81669500  1
  N  N1  1  0.68405900  0.81669500  0.47628700  1
  N  N2  1  0.81669500  0.47628700  0.68405900  1
  N  N3  1  0.52371300  0.18330500  0.31594100  1
  N  N4  1  0.31594100  0.52371300  0.18330500  1
  N  N5  1  0.18330500  0.31594100  0.52371300  1
  N  N6  1  0.81678100  0.68703600  0.01840800  1
  N  N7  1  0.68703600  0.01840800  0.81678100  1
  N  N8  1  0.01840800  0.81678100  0.68703600  1
  N  N9  1  0.18321900  0.98159200  0.31296400  1
  N  N10  1  0.31296400  0.18321900  0.98159200  1
  N  N11  1  0.98159200  0.31296400  0.18321900  1
loop_
_geom_bond_atom_site_label_1
_geom_bond_atom_site_label_2
_geom_bond_distance
_geom_bond_site_symmetry_2
N0 Nd0 2.379401 1_555
N0 Rb5 3.058053 1_555
N0 Rb3 3.101775 1_556
N0 Rb2 3.167420 1_565
N1 Nd0 2.379401 1_555
N1 Rb3 3.058052 1_555
N1 Rb4 3.101775 1_565
N1 Rb0 3.167420 1_655
N2 Nd0 2.379401 1_555
N2 Rb4 3.058052 1_555
N2 Rb5 3.101775 1_655
N2 Rb1 3.167420 1_556
N3 Nd1 2.379401 1_555
N3 Rb4 3.058052 1_555
N3 Rb3 3.101775 1_545
N3 Rb1 3.167420 1_555
N4 Nd1 2.379401 1_555
N4 Rb3 3.058053 1_555
N4 Rb5 3.101775 1_554
N4 Rb0 3.167420 1_555
N5 Nd1 2.379401 1_555
N5 Rb5 3.058052 1_555
N5 Rb4 3.101775 1_455
N5 Rb2 3.167420 1_555
N6 Nd0 2.388912 1_554
N6 Rb0 3.029579 1_655
N6 Rb1 3.166750 1_555
N6 Rb3 3.179655 1_555
N6 Rb5 3.565931 1_654
N7 Nd0 2.388913 1_545
N7 Rb1 3.029579 1_556
N7 Rb2 3.166750 1_555
N7 Rb4 3.179655 1_555
N7 Rb3 3.565932 1_546
N8 Nd0 2.388913 1_455
N8 Rb2 3.029579 1_565
N8 Rb0 3.166750 1_555
N8 Rb5 3.179655 1_555
N8 Rb4 3.565931 1_465
N9 Nd1 2.388913 1_565
N9 Rb0 3.029579 1_555
N9 Rb2 3.166750 1_565
N9 Rb3 3.179655 1_555
N9 Rb4 3.565931 1_465
N10 Nd1 2.388912 1_556
N10 Rb2 3.029579 1_555
N10 Rb1 3.166750 1_556
N10 Rb5 3.179655 1_555
N10 Rb3 3.565931 1_546
N11 Nd1 2.388913 1_655
N11 Rb1 3.029579 1_555
N11 Rb0 3.166750 1_655
N11 Rb4 3.179655 1_555
N11 Rb5 3.565932 1_654
