# generated using pymatgen
data_LiZn3
_symmetry_space_group_name_H-M   'P 1'
_cell_length_a   5.59631342
_cell_length_b   5.59631342
_cell_length_c   17.65388000
_cell_angle_alpha   90.00000000
_cell_angle_beta   90.00000000
_cell_angle_gamma   120.00001680
_symmetry_Int_Tables_number   1
_chemical_formula_structural   LiZn3
_chemical_formula_sum   'Li8 Zn24'
_cell_volume   478.82276104
_cell_formula_units_Z   8
loop_
 _symmetry_equiv_pos_site_id
 _symmetry_equiv_pos_as_xyz
  1  'x, y, z'
loop_
 _atom_site_type_symbol
 _atom_site_label
 _atom_site_symmetry_multiplicity
 _atom_site_fract_x
 _atom_site_fract_y
 _atom_site_fract_z
 _atom_site_occupancy
  Li  Li0_0  1  0.00000000  0.00000000  0.00000000  1
  Li  Li0_1  1  0.00000000  0.00000000  0.50000000  1
  Li  Li0_2  1  1.00000000  0.50000000  0.00000000  1
  Li  Li0_3  1  1.00000000  0.50000000  0.50000000  1
  Li  Li0_4  1  0.50000000  0.00000000  0.00000000  1
  Li  Li0_5  1  0.50000000  0.00000000  0.50000000  1
  Li  Li0_6  1  0.50000000  0.50000000  0.00000000  1
  Li  Li0_7  1  0.50000000  0.50000000  0.50000000  1
  Zn  Zn0_0  1  0.00000000  0.00000000  0.25000000  1
  Zn  Zn0_1  1  0.00000000  0.00000000  0.75000000  1
  Zn  Zn0_2  1  1.00000000  0.50000000  0.25000000  1
  Zn  Zn0_3  1  1.00000000  0.50000000  0.75000000  1
  Zn  Zn0_4  1  0.50000000  0.00000000  0.25000000  1
  Zn  Zn0_5  1  0.50000000  0.00000000  0.75000000  1
  Zn  Zn0_6  1  0.50000000  0.50000000  0.25000000  1
  Zn  Zn0_7  1  0.50000000  0.50000000  0.75000000  1
  Zn  Zn1_0  1  0.33333350  0.16666650  0.12469200  1
  Zn  Zn1_1  1  0.33333350  0.16666650  0.62469200  1
  Zn  Zn1_2  1  0.33333350  0.66666650  0.12469200  1
  Zn  Zn1_3  1  0.33333350  0.66666650  0.62469200  1
  Zn  Zn1_4  1  0.83333350  0.16666650  0.12469200  1
  Zn  Zn1_5  1  0.83333350  0.16666650  0.62469200  1
  Zn  Zn1_6  1  0.83333350  0.66666650  0.12469200  1
  Zn  Zn1_7  1  0.83333350  0.66666650  0.62469200  1
  Zn  Zn2_0  1  0.33333350  0.16666650  0.37530800  1
  Zn  Zn2_1  1  0.33333350  0.16666650  0.87530800  1
  Zn  Zn2_2  1  0.33333350  0.66666650  0.37530800  1
  Zn  Zn2_3  1  0.33333350  0.66666650  0.87530800  1
  Zn  Zn2_4  1  0.83333350  0.16666650  0.37530800  1
  Zn  Zn2_5  1  0.83333350  0.16666650  0.87530800  1
  Zn  Zn2_6  1  0.83333350  0.66666650  0.37530800  1
  Zn  Zn2_7  1  0.83333350  0.66666650  0.87530800  1
loop_
_geom_bond_atom_site_label_1
_geom_bond_atom_site_label_2
_geom_bond_distance
_geom_bond_site_symmetry_2
Li0_0 Zn1_4 2.730494 1_455
Li0_0 Zn2_5 2.730494 1_454
Li0_0 Zn1_0 2.730496 1_555
Li0_0 Zn2_1 2.730496 1_554
Li0_0 Zn1_6 2.730496 1_445
Li0_0 Zn2_7 2.730496 1_444
Li0_0 Li0_6 2.798156 1_555
Li0_0 Li0_6 2.798156 1_445
Li0_0 Li0_4 2.798157 1_555
Li0_0 Li0_4 2.798157 1_455
Li0_0 Li0_2 2.798157 1_445
Li0_0 Li0_2 2.798157 1_455
Li0_1 Zn2_4 2.730494 1_455
Li0_1 Zn1_5 2.730494 1_455
Li0_1 Zn2_0 2.730496 1_555
Li0_1 Zn1_1 2.730496 1_555
Li0_1 Zn1_7 2.730496 1_445
Li0_1 Zn2_6 2.730496 1_445
Li0_1 Li0_7 2.798156 1_555
Li0_1 Li0_7 2.798156 1_445
Li0_1 Li0_5 2.798157 1_555
Li0_1 Li0_5 2.798157 1_455
Li0_1 Li0_3 2.798157 1_445
Li0_1 Li0_3 2.798157 1_455
Li0_2 Zn1_6 2.730494 1_555
Li0_2 Zn2_7 2.730494 1_554
Li0_2 Zn1_2 2.730496 1_655
Li0_2 Zn2_3 2.730496 1_654
Li0_2 Zn1_4 2.730496 1_555
Li0_2 Zn2_5 2.730496 1_554
Li0_2 Li0_4 2.798156 1_555
Li0_2 Li0_4 2.798156 1_665
Li0_2 Li0_6 2.798157 1_555
Li0_2 Li0_6 2.798157 1_655
Li0_3 Zn2_6 2.730494 1_555
Li0_3 Zn1_7 2.730494 1_555
Li0_3 Zn1_3 2.730496 1_655
Li0_3 Zn2_2 2.730496 1_655
Li0_3 Zn2_4 2.730496 1_555
Li0_3 Zn1_5 2.730496 1_555
Li0_3 Li0_5 2.798156 1_555
Li0_3 Li0_5 2.798156 1_665
Li0_3 Li0_7 2.798157 1_555
Li0_3 Li0_7 2.798157 1_655
Li0_4 Zn1_0 2.730494 1_555
Li0_4 Zn2_1 2.730494 1_554
Li0_4 Zn1_2 2.730496 1_545
Li0_4 Zn1_4 2.730496 1_555
Li0_4 Zn2_3 2.730496 1_544
Li0_4 Zn2_5 2.730496 1_554
Li0_4 Li0_6 2.798157 1_545
Li0_4 Li0_6 2.798157 1_555
Li0_5 Zn2_0 2.730494 1_555
Li0_5 Zn1_1 2.730494 1_555
Li0_5 Zn1_5 2.730496 1_555
Li0_5 Zn2_4 2.730496 1_555
Li0_5 Zn1_3 2.730496 1_545
Li0_5 Zn2_2 2.730496 1_545
Li0_5 Li0_7 2.798157 1_545
Li0_5 Li0_7 2.798157 1_555
Li0_6 Zn1_2 2.730494 1_555
Li0_6 Zn2_3 2.730494 1_554
Li0_6 Zn1_6 2.730496 1_555
Li0_6 Zn2_7 2.730496 1_554
Li0_6 Zn1_0 2.730496 1_555
Li0_6 Zn2_1 2.730496 1_554
Li0_7 Zn2_2 2.730494 1_555
Li0_7 Zn1_3 2.730494 1_555
Li0_7 Zn1_7 2.730496 1_555
Li0_7 Zn2_6 2.730496 1_555
Li0_7 Zn2_0 2.730496 1_555
Li0_7 Zn1_1 2.730496 1_555
Zn0_0 Zn2_4 2.739269 1_455
Zn0_0 Zn1_4 2.739269 1_455
Zn0_0 Zn2_0 2.739270 1_555
Zn0_0 Zn1_0 2.739270 1_555
Zn0_0 Zn2_6 2.739270 1_445
Zn0_0 Zn1_6 2.739270 1_445
Zn0_0 Zn0_6 2.798156 1_555
Zn0_0 Zn0_6 2.798156 1_445
Zn0_0 Zn0_4 2.798157 1_555
Zn0_0 Zn0_4 2.798157 1_455
Zn0_0 Zn0_2 2.798157 1_445
Zn0_0 Zn0_2 2.798157 1_455
Zn0_1 Zn1_5 2.739269 1_455
Zn0_1 Zn2_5 2.739269 1_455
Zn0_1 Zn1_1 2.739270 1_555
Zn0_1 Zn2_1 2.739270 1_555
Zn0_1 Zn1_7 2.739270 1_445
Zn0_1 Zn2_7 2.739270 1_445
Zn0_1 Zn0_7 2.798156 1_555
Zn0_1 Zn0_7 2.798156 1_445
Zn0_1 Zn0_5 2.798157 1_555
Zn0_1 Zn0_5 2.798157 1_455
Zn0_1 Zn0_3 2.798157 1_445
Zn0_1 Zn0_3 2.798157 1_455
Zn0_2 Zn2_6 2.739269 1_555
Zn0_2 Zn1_6 2.739269 1_555
Zn0_2 Zn2_2 2.739270 1_655
Zn0_2 Zn2_4 2.739270 1_555
Zn0_2 Zn1_2 2.739270 1_655
Zn0_2 Zn1_4 2.739270 1_555
Zn0_2 Zn0_4 2.798156 1_555
Zn0_2 Zn0_4 2.798156 1_665
Zn0_2 Zn0_6 2.798157 1_555
Zn0_2 Zn0_6 2.798157 1_655
Zn0_3 Zn2_7 2.739269 1_555
Zn0_3 Zn1_7 2.739269 1_555
Zn0_3 Zn1_3 2.739270 1_655
Zn0_3 Zn1_5 2.739270 1_555
Zn0_3 Zn2_3 2.739270 1_655
Zn0_3 Zn2_5 2.739270 1_555
Zn0_3 Zn0_5 2.798156 1_555
Zn0_3 Zn0_5 2.798156 1_665
Zn0_3 Zn0_7 2.798157 1_555
Zn0_3 Zn0_7 2.798157 1_655
Zn0_4 Zn2_0 2.739269 1_555
Zn0_4 Zn1_0 2.739269 1_555
Zn0_4 Zn2_2 2.739270 1_545
Zn0_4 Zn2_4 2.739270 1_555
Zn0_4 Zn1_2 2.739270 1_545
Zn0_4 Zn1_4 2.739270 1_555
Zn0_4 Zn0_6 2.798157 1_545
Zn0_4 Zn0_6 2.798157 1_555
Zn0_5 Zn2_1 2.739269 1_555
Zn0_5 Zn1_1 2.739269 1_555
Zn0_5 Zn1_5 2.739270 1_555
Zn0_5 Zn2_3 2.739270 1_545
Zn0_5 Zn1_3 2.739270 1_545
Zn0_5 Zn2_5 2.739270 1_555
Zn0_5 Zn0_7 2.798157 1_545
Zn0_5 Zn0_7 2.798157 1_555
Zn0_6 Zn2_2 2.739269 1_555
Zn0_6 Zn1_2 2.739269 1_555
Zn0_6 Zn2_6 2.739270 1_555
Zn0_6 Zn2_0 2.739270 1_555
Zn0_6 Zn1_6 2.739270 1_555
Zn0_6 Zn1_0 2.739270 1_555
Zn0_7 Zn2_3 2.739269 1_555
Zn0_7 Zn1_3 2.739269 1_555
Zn0_7 Zn2_7 2.739270 1_555
Zn0_7 Zn1_7 2.739270 1_555
Zn0_7 Zn1_1 2.739270 1_555
Zn0_7 Zn2_1 2.739270 1_555
Zn1_0 Zn1_6 2.798156 1_555
Zn1_0 Zn1_6 2.798156 1_445
Zn1_0 Zn1_2 2.798157 1_545
Zn1_0 Zn1_4 2.798157 1_555
Zn1_0 Zn1_4 2.798157 1_455
Zn1_0 Zn1_2 2.798157 1_555
Zn1_1 Zn1_7 2.798156 1_555
Zn1_1 Zn1_7 2.798156 1_445
Zn1_1 Zn1_3 2.798157 1_545
Zn1_1 Zn1_5 2.798157 1_555
Zn1_1 Zn1_3 2.798157 1_555
Zn1_1 Zn1_5 2.798157 1_455
Zn1_2 Zn1_4 2.798156 1_565
Zn1_2 Zn1_4 2.798156 1_455
Zn1_2 Zn1_6 2.798157 1_555
Zn1_2 Zn1_6 2.798157 1_455
Zn1_3 Zn1_5 2.798156 1_455
Zn1_3 Zn1_5 2.798156 1_565
Zn1_3 Zn1_7 2.798157 1_555
Zn1_3 Zn1_7 2.798157 1_455
Zn1_4 Zn1_6 2.798157 1_545
Zn1_4 Zn1_6 2.798157 1_555
Zn1_5 Zn1_7 2.798157 1_545
Zn1_5 Zn1_7 2.798157 1_555
Zn2_0 Zn2_6 2.798156 1_555
Zn2_0 Zn2_6 2.798156 1_445
Zn2_0 Zn2_4 2.798157 1_555
Zn2_0 Zn2_2 2.798157 1_545
Zn2_0 Zn2_2 2.798157 1_555
Zn2_0 Zn2_4 2.798157 1_455
Zn2_1 Zn2_7 2.798156 1_555
Zn2_1 Zn2_7 2.798156 1_445
Zn2_1 Zn2_5 2.798157 1_555
Zn2_1 Zn2_3 2.798157 1_545
Zn2_1 Zn2_3 2.798157 1_555
Zn2_1 Zn2_5 2.798157 1_455
Zn2_2 Zn2_4 2.798156 1_455
Zn2_2 Zn2_4 2.798156 1_565
Zn2_2 Zn2_6 2.798157 1_555
Zn2_2 Zn2_6 2.798157 1_455
Zn2_3 Zn2_5 2.798156 1_455
Zn2_3 Zn2_5 2.798156 1_565
Zn2_3 Zn2_7 2.798157 1_555
Zn2_3 Zn2_7 2.798157 1_455
Zn2_4 Zn2_6 2.798157 1_545
Zn2_4 Zn2_6 2.798157 1_555
Zn2_5 Zn2_7 2.798157 1_545
Zn2_5 Zn2_7 2.798157 1_555
