# generated using pymatgen
data_Re2Pb3N4
_symmetry_space_group_name_H-M   'P 1'
_cell_length_a   7.83781200
_cell_length_b   8.85905200
_cell_length_c   10.74993000
_cell_angle_alpha   90.00000000
_cell_angle_beta   90.00000000
_cell_angle_gamma   90.00000000
_symmetry_Int_Tables_number   1
_chemical_formula_structural   Re2Pb3N4
_chemical_formula_sum   'Re8 Pb12 N16'
_cell_volume   746.42766831
_cell_formula_units_Z   4
loop_
 _symmetry_equiv_pos_site_id
 _symmetry_equiv_pos_as_xyz
  1  'x, y, z'
loop_
 _atom_site_type_symbol
 _atom_site_label
 _atom_site_symmetry_multiplicity
 _atom_site_fract_x
 _atom_site_fract_y
 _atom_site_fract_z
 _atom_site_occupancy
  Re  Re0  1  0.75000000  0.50000000  0.63992000  1
  Re  Re1  1  0.75000000  0.00000000  0.86008000  1
  Re  Re2  1  0.25000000  0.50000000  0.36008000  1
  Re  Re3  1  0.25000000  0.00000000  0.13992000  1
  Re  Re4  1  0.65658500  0.25000000  0.75000000  1
  Re  Re5  1  0.84341500  0.75000000  0.75000000  1
  Re  Re6  1  0.34341500  0.75000000  0.25000000  1
  Re  Re7  1  0.15658500  0.25000000  0.25000000  1
  Pb  Pb0  1  0.56440400  0.13657300  0.40346500  1
  Pb  Pb1  1  0.93559600  0.86342700  0.40346500  1
  Pb  Pb2  1  0.56440400  0.36342700  0.09653500  1
  Pb  Pb3  1  0.93559600  0.63657300  0.09653500  1
  Pb  Pb4  1  0.43559600  0.86342700  0.59653500  1
  Pb  Pb5  1  0.06440400  0.13657300  0.59653500  1
  Pb  Pb6  1  0.43559600  0.63657300  0.90346500  1
  Pb  Pb7  1  0.06440400  0.36342700  0.90346500  1
  Pb  Pb8  1  0.75000000  0.50000000  0.35921900  1
  Pb  Pb9  1  0.75000000  0.00000000  0.14078100  1
  Pb  Pb10  1  0.25000000  0.50000000  0.64078100  1
  Pb  Pb11  1  0.25000000  0.00000000  0.85921900  1
  N  N0  1  0.80360000  0.27480200  0.61409700  1
  N  N1  1  0.69640000  0.72519800  0.61409700  1
  N  N2  1  0.80360000  0.22519800  0.88590300  1
  N  N3  1  0.69640000  0.77480200  0.88590300  1
  N  N4  1  0.19640000  0.72519800  0.38590300  1
  N  N5  1  0.30360000  0.27480200  0.38590300  1
  N  N6  1  0.19640000  0.77480200  0.11409700  1
  N  N7  1  0.30360000  0.22519800  0.11409700  1
  N  N8  1  0.55848500  0.45837900  0.74637800  1
  N  N9  1  0.94151500  0.54162100  0.74637800  1
  N  N10  1  0.55848500  0.04162100  0.75362200  1
  N  N11  1  0.94151500  0.95837900  0.75362200  1
  N  N12  1  0.44151500  0.54162100  0.25362200  1
  N  N13  1  0.05848500  0.45837900  0.25362200  1
  N  N14  1  0.44151500  0.95837900  0.24637800  1
  N  N15  1  0.05848500  0.04162100  0.24637800  1
loop_
_geom_bond_atom_site_label_1
_geom_bond_atom_site_label_2
_geom_bond_distance
_geom_bond_site_symmetry_2
Pb8 Re0 3.017516 1_555
Pb9 Re1 3.017516 1_554
Pb10 Re2 3.017516 1_555
Pb11 Re3 3.017516 1_556
N0 Re4 1.873602 1_555
N0 Re0 2.057605 1_555
N0 Pb5 2.390337 1_655
N1 Re5 1.873602 1_555
N1 Re0 2.057605 1_555
N1 Pb4 2.390337 1_555
N2 Re4 1.873602 1_555
N2 Re1 2.057605 1_555
N2 Pb7 2.390337 1_655
N3 Re5 1.873602 1_555
N3 Re1 2.057605 1_565
N3 Pb6 2.390337 1_555
N4 Re6 1.873602 1_555
N4 Re2 2.057605 1_555
N4 Pb1 2.390337 1_455
N5 Re7 1.873602 1_555
N5 Re2 2.057605 1_555
N5 Pb0 2.390337 1_555
N6 Re6 1.873602 1_555
N6 Re3 2.057605 1_565
N6 Pb3 2.390337 1_455
N7 Re7 1.873602 1_555
N7 Re3 2.057605 1_555
N7 Pb2 2.390337 1_555
N8 Re0 1.923232 1_555
N8 Re4 2.000143 1_555
N8 Pb6 2.504278 1_555
N8 Pb10 2.696392 1_555
N9 Re0 1.923232 1_555
N9 Re5 2.000143 1_555
N9 Pb7 2.504278 1_655
N9 Pb10 2.696392 1_655
N10 Re1 1.923232 1_555
N10 Re4 2.000143 1_555
N10 Pb4 2.504278 1_545
N10 Pb11 2.696392 1_555
N11 Re1 1.923232 1_565
N11 Re5 2.000143 1_555
N11 Pb5 2.504278 1_665
N11 Pb11 2.696392 1_665
N12 Re2 1.923232 1_555
N12 Re6 2.000143 1_555
N12 Pb2 2.504278 1_555
N12 Pb8 2.696392 1_555
N13 Re2 1.923232 1_555
N13 Re7 2.000143 1_555
N13 Pb3 2.504278 1_455
N13 Pb8 2.696392 1_455
N14 Re3 1.923232 1_565
N14 Re6 2.000143 1_555
N14 Pb0 2.504278 1_565
N14 Pb9 2.696392 1_565
N15 Re3 1.923232 1_555
N15 Re7 2.000143 1_555
N15 Pb1 2.504278 1_445
N15 Pb9 2.696392 1_455
