# generated using pymatgen
data_Ce(Sn2Rh)2
_symmetry_space_group_name_H-M   'P 1'
_cell_length_a   4.53852500
_cell_length_b   7.20781500
_cell_length_c   18.67297200
_cell_angle_alpha   90.00000000
_cell_angle_beta   90.00000000
_cell_angle_gamma   90.00000000
_symmetry_Int_Tables_number   1
_chemical_formula_structural   Ce(Sn2Rh)2
_chemical_formula_sum   'Ce4 Sn16 Rh8'
_cell_volume   610.84610544
_cell_formula_units_Z   4
loop_
 _symmetry_equiv_pos_site_id
 _symmetry_equiv_pos_as_xyz
  1  'x, y, z'
loop_
 _atom_site_type_symbol
 _atom_site_label
 _atom_site_symmetry_multiplicity
 _atom_site_fract_x
 _atom_site_fract_y
 _atom_site_fract_z
 _atom_site_occupancy
  Ce  Ce0  1  0.25000000  0.99875300  0.85886000  1
  Ce  Ce1  1  0.25000000  0.50124700  0.35886000  1
  Ce  Ce2  1  0.75000000  0.00124700  0.14114000  1
  Ce  Ce3  1  0.75000000  0.49875300  0.64114000  1
  Sn  Sn0  1  0.25000000  0.30049300  0.18206700  1
  Sn  Sn1  1  0.25000000  0.19950700  0.68206700  1
  Sn  Sn2  1  0.75000000  0.69950700  0.81793300  1
  Sn  Sn3  1  0.75000000  0.80049300  0.31793300  1
  Sn  Sn4  1  0.25000000  0.72383700  0.19457200  1
  Sn  Sn5  1  0.25000000  0.77616300  0.69457200  1
  Sn  Sn6  1  0.75000000  0.27616300  0.80542800  1
  Sn  Sn7  1  0.75000000  0.22383700  0.30542800  1
  Sn  Sn8  1  0.25000000  0.86415800  0.03186400  1
  Sn  Sn9  1  0.25000000  0.63584200  0.53186400  1
  Sn  Sn10  1  0.75000000  0.13584200  0.96813600  1
  Sn  Sn11  1  0.75000000  0.36415800  0.46813600  1
  Sn  Sn12  1  0.25000000  0.51750600  0.93169600  1
  Sn  Sn13  1  0.25000000  0.98249400  0.43169600  1
  Sn  Sn14  1  0.75000000  0.48249400  0.06830400  1
  Sn  Sn15  1  0.75000000  0.01750600  0.56830400  1
  Rh  Rh0  1  0.25000000  0.25086600  0.03437100  1
  Rh  Rh1  1  0.25000000  0.24913400  0.53437100  1
  Rh  Rh2  1  0.75000000  0.74913400  0.96562900  1
  Rh  Rh3  1  0.75000000  0.75086600  0.46562900  1
  Rh  Rh4  1  0.25000000  0.01796100  0.28755900  1
  Rh  Rh5  1  0.25000000  0.48203900  0.78755900  1
  Rh  Rh6  1  0.75000000  0.98203900  0.71244100  1
  Rh  Rh7  1  0.75000000  0.51796100  0.21244100  1
loop_
_geom_bond_atom_site_label_1
_geom_bond_atom_site_label_2
_geom_bond_distance
_geom_bond_site_symmetry_2
Ce0 Sn6 3.184824 1_465
Ce0 Sn6 3.184824 1_565
Ce0 Sn10 3.207739 1_565
Ce0 Sn10 3.207739 1_465
Ce0 Sn2 3.222710 1_555
Ce0 Sn2 3.222710 1_455
Ce0 Sn8 3.373023 1_556
Ce1 Sn7 3.184824 1_455
Ce1 Sn7 3.184824 1_555
Ce1 Sn11 3.207739 1_555
Ce1 Sn11 3.207739 1_455
Ce1 Sn3 3.222710 1_455
Ce1 Sn3 3.222710 1_555
Ce1 Sn9 3.373023 1_555
Ce2 Sn4 3.184824 1_645
Ce2 Sn4 3.184824 1_545
Ce2 Sn8 3.207739 1_645
Ce2 Sn8 3.207739 1_545
Ce2 Sn0 3.222710 1_555
Ce2 Sn0 3.222710 1_655
Ce2 Sn10 3.373023 1_554
Ce3 Sn5 3.184824 1_655
Ce3 Sn5 3.184824 1_555
Ce3 Sn9 3.207739 1_655
Ce3 Sn9 3.207739 1_555
Ce3 Sn1 3.222710 1_655
Ce3 Sn1 3.222710 1_555
Ce3 Sn11 3.373023 1_555
Rh0 Sn10 2.714148 1_554
Rh0 Sn10 2.714148 1_454
Rh0 Sn12 2.714683 1_554
Rh0 Sn0 2.781023 1_555
Rh0 Sn8 2.787713 1_545
Rh0 Sn14 2.887625 1_455
Rh0 Sn14 2.887625 1_555
Rh1 Sn11 2.714148 1_555
Rh1 Sn11 2.714148 1_455
Rh1 Sn13 2.714683 1_545
Rh1 Sn1 2.781023 1_555
Rh1 Sn9 2.787713 1_555
Rh1 Sn15 2.887625 1_455
Rh1 Sn15 2.887625 1_555
Rh2 Sn8 2.714148 1_556
Rh2 Sn8 2.714148 1_656
Rh2 Sn14 2.714683 1_556
Rh2 Sn2 2.781023 1_555
Rh2 Sn10 2.787713 1_565
Rh2 Sn12 2.887625 1_655
Rh2 Sn12 2.887625 1_555
Rh3 Sn9 2.714148 1_555
Rh3 Sn9 2.714148 1_655
Rh3 Sn15 2.714683 1_565
Rh3 Sn3 2.781023 1_555
Rh3 Sn11 2.787713 1_555
Rh3 Sn13 2.887625 1_555
Rh3 Sn13 2.887625 1_655
Rh4 Sn13 2.703579 1_545
Rh4 Sn7 2.731830 1_455
Rh4 Sn7 2.731830 1_555
Rh4 Sn4 2.740302 1_545
Rh4 Sn3 2.815705 1_445
Rh4 Sn3 2.815705 1_545
Rh4 Sn0 2.833264 1_555
Rh5 Sn12 2.703579 1_555
Rh5 Sn6 2.731830 1_555
Rh5 Sn6 2.731830 1_455
Rh5 Sn5 2.740302 1_555
Rh5 Sn2 2.815705 1_555
Rh5 Sn2 2.815705 1_455
Rh5 Sn1 2.833264 1_555
Rh6 Sn15 2.703579 1_565
Rh6 Sn5 2.731830 1_655
Rh6 Sn5 2.731830 1_555
Rh6 Sn6 2.740302 1_565
Rh6 Sn1 2.815705 1_665
Rh6 Sn1 2.815705 1_565
Rh6 Sn2 2.833264 1_555
Rh7 Sn14 2.703579 1_555
Rh7 Sn4 2.731830 1_655
Rh7 Sn4 2.731830 1_555
Rh7 Sn7 2.740302 1_555
Rh7 Sn0 2.815705 1_555
Rh7 Sn0 2.815705 1_655
Rh7 Sn3 2.833264 1_555
