# generated using pymatgen
data_VCuSnS4
_symmetry_space_group_name_H-M   'P 1'
_cell_length_a   7.28047057
_cell_length_b   7.01888050
_cell_length_c   7.39708364
_cell_angle_alpha   90.00000000
_cell_angle_beta   59.46872416
_cell_angle_gamma   118.81838325
_symmetry_Int_Tables_number   1
_chemical_formula_structural   VCuSnS4
_chemical_formula_sum   'V2 Cu2 Sn2 S8'
_cell_volume   269.82961780
_cell_formula_units_Z   2
loop_
 _symmetry_equiv_pos_site_id
 _symmetry_equiv_pos_as_xyz
  1  'x, y, z'
loop_
 _atom_site_type_symbol
 _atom_site_label
 _atom_site_symmetry_multiplicity
 _atom_site_fract_x
 _atom_site_fract_y
 _atom_site_fract_z
 _atom_site_occupancy
  V  V0  1  0.50000000  0.50000000  0.00000000  1
  V  V1  1  0.50000000  0.00000000  0.00000000  1
  Cu  Cu0  1  0.73556600  0.36778300  0.38221700  1
  Cu  Cu1  1  0.26443400  0.63221700  0.61778300  1
  Sn  Sn0  1  0.00000000  0.00000000  0.50000000  1
  Sn  Sn1  1  0.00000000  0.00000000  0.00000000  1
  S  S0  1  0.02922600  0.76018900  0.23538700  1
  S  S1  1  0.02922600  0.26903700  0.23538700  1
  S  S2  1  0.49942100  0.24971100  0.76824800  1
  S  S3  1  0.49942100  0.24971100  0.23233100  1
  S  S4  1  0.97077400  0.23981100  0.76461300  1
  S  S5  1  0.97077400  0.73096300  0.76461300  1
  S  S6  1  0.50057900  0.75028900  0.23175200  1
  S  S7  1  0.50057900  0.75028900  0.76766900  1
loop_
_geom_bond_atom_site_label_1
_geom_bond_atom_site_label_2
_geom_bond_distance
_geom_bond_site_symmetry_2
Cu0 S1 2.302230 1_655
Cu0 S0 2.302230 1_655
Cu0 S2 2.331299 1_555
Cu0 S3 2.331299 1_555
Cu1 S4 2.302230 1_455
Cu1 S5 2.302230 1_455
Cu1 S7 2.331299 1_555
Cu1 S6 2.331299 1_555
S0 V1 2.446858 1_565
S0 Sn1 2.575239 1_565
S0 Sn0 2.575239 1_565
S1 V0 2.446858 1_555
S1 Sn1 2.575239 1_555
S1 Sn0 2.575239 1_555
S2 V0 2.454623 1_556
S2 V1 2.454628 1_556
S2 Sn1 2.598939 1_556
S3 V0 2.454623 1_555
S3 V1 2.454628 1_555
S3 Sn0 2.598939 1_555
S4 V1 2.446858 1_556
S4 Sn0 2.575239 1_655
S4 Sn1 2.575239 1_656
S5 V0 2.446858 1_556
S5 Sn0 2.575239 1_665
S5 Sn1 2.575239 1_666
S6 V0 2.454623 1_555
S6 V1 2.454628 1_565
S6 Sn1 2.598939 1_665
S7 V0 2.454623 1_556
S7 V1 2.454628 1_566
S7 Sn0 2.598939 1_665
