# generated using pymatgen
data_Lu2InPd2
_symmetry_space_group_name_H-M   'P 1'
_cell_length_a   3.53747743
_cell_length_b   7.64503054
_cell_length_c   7.64503054
_cell_angle_alpha   90.00000000
_cell_angle_beta   90.00000000
_cell_angle_gamma   90.00000000
_symmetry_Int_Tables_number   1
_chemical_formula_structural   Lu2InPd2
_chemical_formula_sum   'Lu4 In2 Pd4'
_cell_volume   206.75314616
_cell_formula_units_Z   2
loop_
 _symmetry_equiv_pos_site_id
 _symmetry_equiv_pos_as_xyz
  1  'x, y, z'
loop_
 _atom_site_type_symbol
 _atom_site_label
 _atom_site_symmetry_multiplicity
 _atom_site_fract_x
 _atom_site_fract_y
 _atom_site_fract_z
 _atom_site_occupancy
  Lu  Lu0  1  0.50000000  0.82833154  0.32833154  1
  Lu  Lu1  1  0.50000000  0.67166846  0.82833154  1
  Lu  Lu2  1  0.50000000  0.32833154  0.17166846  1
  Lu  Lu3  1  0.50000000  0.17166846  0.67166846  1
  In  In0  1  -0.00000000  -0.00000000  0.00000000  1
  In  In1  1  -0.00000000  0.50000000  0.50000000  1
  Pd  Pd0  1  -0.00000000  0.12856543  0.37143457  1
  Pd  Pd1  1  0.00000000  0.37143457  0.87143457  1
  Pd  Pd2  1  -0.00000000  0.62856543  0.12856543  1
  Pd  Pd3  1  0.00000000  0.87143457  0.62856543  1
loop_
_geom_bond_atom_site_label_1
_geom_bond_atom_site_label_2
_geom_bond_distance
_geom_bond_site_symmetry_2
Lu0 Pd2 2.791635 1_655
Lu0 Pd2 2.791635 1_555
Lu0 Pd3 2.916404 1_555
Lu0 Pd3 2.916404 1_655
Lu0 Pd0 2.916404 1_565
Lu0 Pd0 2.916404 1_665
Lu1 Pd3 2.791635 1_555
Lu1 Pd3 2.791635 1_655
Lu1 Pd1 2.916404 1_555
Lu1 Pd1 2.916404 1_655
Lu1 Pd2 2.916404 1_656
Lu1 Pd2 2.916404 1_556
Lu2 Pd0 2.791635 1_655
Lu2 Pd0 2.791635 1_555
Lu2 Pd2 2.916404 1_555
Lu2 Pd2 2.916404 1_655
Lu2 Pd1 2.916404 1_654
Lu2 Pd1 2.916404 1_554
Lu3 Pd1 2.791635 1_655
Lu3 Pd1 2.791635 1_555
Lu3 Pd3 2.916404 1_545
Lu3 Pd0 2.916404 1_555
Lu3 Pd3 2.916404 1_645
Lu3 Pd0 2.916404 1_655
In0 Pd0 3.004922 1_555
In0 Pd3 3.004922 1_544
In0 Pd2 3.004922 1_545
In0 Pd1 3.004922 1_554
In0 Lu2 3.339384 1_555
In0 Lu1 3.339384 1_444
In0 Lu2 3.339384 1_455
In0 Lu1 3.339384 1_544
In0 Lu0 3.339384 1_545
In0 Lu3 3.339384 1_554
In0 Lu3 3.339384 1_454
In0 Lu0 3.339384 1_445
In1 Pd1 3.004922 1_555
In1 Pd0 3.004922 1_555
In1 Pd2 3.004922 1_555
In1 Pd3 3.004922 1_555
In1 Lu3 3.339384 1_455
In1 Lu0 3.339384 1_555
In1 Lu3 3.339384 1_555
In1 Lu1 3.339384 1_455
In1 Lu2 3.339384 1_455
In1 Lu1 3.339384 1_555
In1 Lu0 3.339384 1_455
In1 Lu2 3.339384 1_555
Pd0 Pd3 2.780023 1_545
Pd1 Pd2 2.780023 1_556
