# generated using pymatgen
data_Ca4Te3W5O18
_symmetry_space_group_name_H-M   'P 1'
_cell_length_a   10.33049037
_cell_length_b   10.33049037
_cell_length_c   10.03593691
_cell_angle_alpha   89.13513330
_cell_angle_beta   89.13513330
_cell_angle_gamma   67.55572146
_symmetry_Int_Tables_number   1
_chemical_formula_structural   Ca4Te3W5O18
_chemical_formula_sum   'Ca8 Te6 W10 O36'
_cell_volume   989.73340723
_cell_formula_units_Z   2
loop_
 _symmetry_equiv_pos_site_id
 _symmetry_equiv_pos_as_xyz
  1  'x, y, z'
loop_
 _atom_site_type_symbol
 _atom_site_label
 _atom_site_symmetry_multiplicity
 _atom_site_fract_x
 _atom_site_fract_y
 _atom_site_fract_z
 _atom_site_occupancy
  Ca  Ca0  1  0.11215200  0.47225500  0.63344600  1
  Ca  Ca1  1  0.45951100  0.53022300  0.80553000  1
  Ca  Ca2  1  0.52774500  0.88784800  0.36655400  1
  Ca  Ca3  1  0.46977700  0.54048900  0.19447000  1
  Ca  Ca4  1  0.93447000  0.06384700  0.31265900  1
  Ca  Ca5  1  0.86246900  0.73081900  0.13305800  1
  Ca  Ca6  1  0.26918100  0.13753100  0.86694200  1
  Ca  Ca7  1  0.93615300  0.06553000  0.68734100  1
  Te  Te0  1  0.65809700  0.19045300  0.05108800  1
  Te  Te1  1  0.19969100  0.79461100  0.74152000  1
  Te  Te2  1  0.20538900  0.80030900  0.25848000  1
  Te  Te3  1  0.58673200  0.26143000  0.54999600  1
  Te  Te4  1  0.73857000  0.41326800  0.45000400  1
  Te  Te5  1  0.80954700  0.34190300  0.94891200  1
  W  W0  1  0.17043300  0.47595900  0.01268100  1
  W  W1  1  0.86259500  0.78207200  0.51581000  1
  W  W2  1  0.67354300  0.66303100  0.71551700  1
  W  W3  1  0.05374600  0.28510400  0.21038800  1
  W  W4  1  0.33696900  0.32645700  0.28448300  1
  W  W5  1  0.03812800  0.96187200  0.00000000  1
  W  W6  1  0.35810300  0.64189700  0.50000000  1
  W  W7  1  0.71489600  0.94625400  0.78961200  1
  W  W8  1  0.21792800  0.13740500  0.48419000  1
  W  W9  1  0.52404100  0.82956700  0.98731900  1
  O  O0  1  0.61605000  0.86908100  0.13033300  1
  O  O1  1  0.23968400  0.50166400  0.19505900  1
  O  O2  1  0.38709700  0.45353200  0.41271000  1
  O  O3  1  0.33225900  0.95797700  0.51499500  1
  O  O4  1  0.49833600  0.76031600  0.80494100  1
  O  O5  1  0.04202300  0.66774100  0.48500500  1
  O  O6  1  0.69573400  0.13183500  0.70428800  1
  O  O7  1  0.97431900  0.88454800  0.16608400  1
  O  O8  1  0.42842700  0.72447000  0.33905100  1
  O  O9  1  0.85733100  0.60631400  0.63416800  1
  O  O10  1  0.34533700  0.46293200  0.95797900  1
  O  O11  1  0.52877200  0.00396000  0.86634300  1
  O  O12  1  0.15280600  0.10984300  0.29992500  1
  O  O13  1  0.24460800  0.26875500  0.11686400  1
  O  O14  1  0.53706800  0.65466300  0.04202100  1
  O  O15  1  0.69691700  0.47607300  0.79941400  1
  O  O16  1  0.04358200  0.14252800  0.53447900  1
  O  O17  1  0.73124500  0.75539200  0.88313600  1
  O  O18  1  0.54646800  0.61290300  0.58729000  1
  O  O19  1  0.85747200  0.95641800  0.46552100  1
  O  O20  1  0.25009300  0.23036600  0.62997400  1
  O  O21  1  0.14495400  0.34285900  0.37788900  1
  O  O22  1  0.11545200  0.02568100  0.83391600  1
  O  O23  1  0.52392700  0.30308300  0.20058600  1
  O  O24  1  0.01031700  0.15241700  0.08072300  1
  O  O25  1  0.34161300  0.93940500  0.01536600  1
  O  O26  1  0.99604000  0.47122800  0.13365700  1
  O  O27  1  0.86816500  0.30426600  0.29571200  1
  O  O28  1  0.89015700  0.84719400  0.70007500  1
  O  O29  1  0.65714100  0.85504600  0.62211100  1
  O  O30  1  0.76963400  0.74990700  0.37002600  1
  O  O31  1  0.06059500  0.65838700  0.98463400  1
  O  O32  1  0.27553000  0.57157300  0.66094900  1
  O  O33  1  0.39368600  0.14266900  0.36583200  1
  O  O34  1  0.84758300  0.98968300  0.91927700  1
  O  O35  1  0.13091900  0.38395000  0.86966700  1
loop_
_geom_bond_atom_site_label_1
_geom_bond_atom_site_label_2
_geom_bond_distance
_geom_bond_site_symmetry_2
Ca0 O32 2.307014 1_555
Ca0 O20 2.357580 1_555
Ca0 O5 2.376355 1_555
Ca0 O9 2.462455 1_455
Ca0 O35 2.510681 1_555
Ca0 O21 2.865486 1_555
Ca1 O10 2.180520 1_555
Ca1 O15 2.297929 1_555
Ca1 O32 2.311891 1_555
Ca1 O4 2.557023 1_555
Ca1 O18 2.608379 1_555
Ca2 O8 2.307014 1_555
Ca2 O30 2.357580 1_555
Ca2 O3 2.376355 1_555
Ca2 O33 2.462455 1_565
Ca2 O0 2.510681 1_555
Ca2 O29 2.865486 1_555
Ca3 O14 2.180520 1_555
Ca3 O23 2.297929 1_555
Ca3 O8 2.311891 1_555
Ca3 O1 2.557023 1_555
Ca3 O2 2.608379 1_555
Ca4 O19 2.191726 1_545
Ca4 O7 2.290399 1_545
Ca4 O27 2.314816 1_555
Ca4 O12 2.477354 1_655
Ca4 O24 2.701357 1_655
Ca4 O16 2.777947 1_655
Ca5 O7 2.322843 1_555
Ca5 O31 2.395845 1_654
Ca5 O0 2.397013 1_555
Ca5 O26 2.503966 1_555
Ca5 O30 2.532853 1_555
Ca5 O17 2.830875 1_554
Ca6 O22 2.322843 1_555
Ca6 O25 2.395845 1_546
Ca6 O35 2.397013 1_555
Ca6 O11 2.503966 1_555
Ca6 O20 2.532853 1_555
Ca6 O13 2.830875 1_556
Ca7 O16 2.191726 1_655
Ca7 O22 2.290399 1_655
Ca7 O6 2.314816 1_555
Ca7 O28 2.477354 1_545
Ca7 O34 2.701357 1_545
Ca7 O19 2.777947 1_545
O0 W9 1.866877 1_554
O1 W4 1.918514 1_555
O1 W0 2.032655 1_555
O2 W4 2.058572 1_555
O2 W6 2.059658 1_555
O2 Te3 2.639688 1_555
O3 W8 1.802331 1_565
O4 W2 1.918514 1_555
O4 W9 2.032655 1_555
O5 W1 1.802331 1_455
O6 W7 2.028217 1_545
O6 Te3 2.072922 1_555
O7 W5 2.044391 1_655
O7 Te2 2.402402 1_655
O8 W6 2.064145 1_555
O8 Te2 2.288066 1_555
O9 W2 1.932049 1_555
O9 W1 2.172299 1_555
O10 W0 1.835974 1_556
O11 W7 1.933727 1_545
O11 W9 2.172899 1_545
O12 W3 1.922660 1_555
O12 W8 2.037933 1_555
O13 W3 2.119371 1_555
O13 W4 2.146752 1_555
O13 W0 2.228547 1_555
O14 W9 1.835974 1_554
O15 W2 2.024444 1_555
O15 Te5 2.069897 1_555
O16 W8 1.844449 1_555
O17 W7 2.119371 1_555
O17 W2 2.146752 1_555
O17 W9 2.228547 1_555
O18 W2 2.058572 1_555
O18 W6 2.059658 1_555
O18 Te4 2.639688 1_555
O19 W1 1.844449 1_555
O20 W8 1.863866 1_555
O21 W4 2.129363 1_555
O21 W3 2.139385 1_555
O21 W8 2.223821 1_555
O22 W5 2.044391 1_546
O22 Te1 2.402402 1_545
O23 W4 2.024444 1_555
O23 Te0 2.069897 1_555
O24 W5 2.054954 1_545
O24 W3 2.077163 1_555
O24 Te5 2.605375 1_454
O25 W9 1.810845 1_554
O26 W3 1.933727 1_655
O26 W0 2.172899 1_655
O27 W3 2.028217 1_655
O27 Te4 2.072922 1_555
O28 W7 1.922660 1_555
O28 W1 2.037933 1_555
O29 W2 2.129363 1_555
O29 W7 2.139385 1_555
O29 W1 2.223821 1_555
O30 W1 1.863866 1_555
O31 W0 1.810845 1_556
O32 W6 2.064145 1_555
O32 Te1 2.288066 1_555
O33 W4 1.932049 1_555
O33 W8 2.172299 1_555
O34 W5 2.054954 1_656
O34 W7 2.077163 1_555
O34 Te0 2.605375 1_566
O35 W0 1.866877 1_556
