# generated using pymatgen
data_Na2(CoO2)3
_symmetry_space_group_name_H-M   'P 1'
_cell_length_a   17.17808607
_cell_length_b   11.13120585
_cell_length_c   6.74893800
_cell_angle_alpha   90.00000000
_cell_angle_beta   90.00000000
_cell_angle_gamma   13.59461417
_symmetry_Int_Tables_number   1
_chemical_formula_structural   Na2(CoO2)3
_chemical_formula_sum   'Na4 Co6 O12'
_cell_volume   303.32909092
_cell_formula_units_Z   2
loop_
 _symmetry_equiv_pos_site_id
 _symmetry_equiv_pos_as_xyz
  1  'x, y, z'
loop_
 _atom_site_type_symbol
 _atom_site_label
 _atom_site_symmetry_multiplicity
 _atom_site_fract_x
 _atom_site_fract_y
 _atom_site_fract_z
 _atom_site_occupancy
  Na  Na0  1  0.33333300  0.24439400  0.25000000  1
  Na  Na1  1  0.33333300  0.77533800  0.75000000  1
  Na  Na2  1  0.67298900  0.23919000  0.25000000  1
  Na  Na3  1  0.99367800  0.25815700  0.25000000  1
  Co  Co0  1  0.99519100  0.01717700  0.00037000  1
  Co  Co1  1  0.33333300  0.01419700  0.49425800  1
  Co  Co2  1  0.33333300  0.01419700  0.00574200  1
  Co  Co3  1  0.67147600  0.00275100  0.00037000  1
  Co  Co4  1  0.67147600  0.00275100  0.49963000  1
  Co  Co5  1  0.99519100  0.01717700  0.49963000  1
  O  O0  1  0.00260700  0.39646900  0.99914200  1
  O  O1  1  0.99251200  0.63420600  0.47696100  1
  O  O2  1  0.33333300  0.40464800  0.48525300  1
  O  O3  1  0.33333300  0.40464800  0.01474700  1
  O  O4  1  0.33333300  0.62098200  0.48659300  1
  O  O5  1  0.33333300  0.62098200  0.01340700  1
  O  O6  1  0.66406000  0.40429000  0.50085800  1
  O  O7  1  0.66406000  0.40429000  0.99914200  1
  O  O8  1  0.67415500  0.61174100  0.02303900  1
  O  O9  1  0.67415500  0.61174100  0.47696100  1
  O  O10  1  0.00260700  0.39646900  0.50085800  1
  O  O11  1  0.99251200  0.63420600  0.02303900  1
loop_
_geom_bond_atom_site_label_1
_geom_bond_atom_site_label_2
_geom_bond_distance
_geom_bond_site_symmetry_2
Na0 O3 2.388060 1_555
Na0 O2 2.388060 1_555
Na0 O11 2.463064 1_455
Na0 O1 2.463064 1_455
Na0 O9 2.463069 1_545
Na0 O8 2.463069 1_545
Na1 O5 2.472323 1_556
Na1 O4 2.472323 1_555
Na1 O10 2.558865 1_565
Na1 O0 2.558865 1_565
Na1 O6 2.558870 1_555
Na1 O7 2.558870 1_555
Na2 O6 2.391498 1_555
Na2 O7 2.391498 1_554
Na2 O11 2.443040 1_545
Na2 O1 2.443040 1_545
Na2 O4 2.539830 1_555
Na2 O5 2.539830 1_555
Na3 O10 2.391490 1_655
Na3 O0 2.391490 1_654
Na3 O8 2.443046 1_555
Na3 O9 2.443046 1_555
Na3 O4 2.539830 1_645
Na3 O5 2.539830 1_645
Co0 O3 1.802164 1_645
Co0 O7 1.809857 1_554
Co0 O8 1.812757 1_555
Co0 O5 1.843628 1_645
Co1 O9 1.836705 1_545
Co1 O1 1.836705 1_455
Co1 O6 1.841278 1_545
Co1 O10 1.841280 1_555
Co2 O8 1.836705 1_545
Co2 O11 1.836705 1_455
Co2 O7 1.841278 1_544
Co2 O0 1.841280 1_554
Co3 O3 1.802178 1_555
Co3 O0 1.809872 1_644
Co3 O11 1.812749 1_545
Co3 O5 1.843619 1_555
Co4 O2 1.802178 1_555
Co4 O10 1.809872 1_645
Co4 O1 1.812749 1_545
Co4 O4 1.843619 1_555
Co5 O2 1.802164 1_645
Co5 O6 1.809857 1_555
Co5 O9 1.812757 1_555
Co5 O4 1.843628 1_645
