# generated using pymatgen
data_Yb(ZnGa)2
_symmetry_space_group_name_H-M   'P 1'
_cell_length_a   6.20247829
_cell_length_b   6.20247829
_cell_length_c   6.20247829
_cell_angle_alpha   140.55264496
_cell_angle_beta   140.55264496
_cell_angle_gamma   57.01513968
_symmetry_Int_Tables_number   1
_chemical_formula_structural   Yb(ZnGa)2
_chemical_formula_sum   'Yb1 Zn2 Ga2'
_cell_volume   95.52789889
_cell_formula_units_Z   1
loop_
 _symmetry_equiv_pos_site_id
 _symmetry_equiv_pos_as_xyz
  1  'x, y, z'
loop_
 _atom_site_type_symbol
 _atom_site_label
 _atom_site_symmetry_multiplicity
 _atom_site_fract_x
 _atom_site_fract_y
 _atom_site_fract_z
 _atom_site_occupancy
  Yb  Yb0  1  0.00000000  0.00000000  0.00000000  1
  Zn  Zn0  1  0.75000000  0.25000000  0.50000000  1
  Zn  Zn1  1  0.25000000  0.75000000  0.50000000  1
  Ga  Ga0  1  0.38675600  0.38675600  0.00000000  1
  Ga  Ga1  1  0.61324400  0.61324400  0.00000000  1
loop_
_geom_bond_atom_site_label_1
_geom_bond_atom_site_label_2
_geom_bond_distance
_geom_bond_site_symmetry_2
Yb0 Zn0 3.436351 1_555
Yb0 Zn1 3.436351 1_444
Yb0 Zn1 3.436351 1_545
Yb0 Zn1 3.436351 1_544
Yb0 Zn0 3.436351 1_455
Yb0 Zn0 3.436351 1_454
Yb0 Zn0 3.436351 1_444
Yb0 Zn1 3.436351 1_555
Ga0 Ga1 2.468924 1_555
Ga0 Zn1 2.569830 1_544
Ga0 Zn0 2.569830 1_454
Ga0 Zn0 2.569830 1_555
Ga0 Zn1 2.569830 1_555
Ga0 Yb0 3.207366 1_554
Ga0 Yb0 3.207366 1_666
Ga0 Yb0 3.207366 1_655
Ga0 Yb0 3.207366 1_565
Ga1 Zn1 2.569830 1_655
Ga1 Zn0 2.569830 1_565
Ga1 Zn0 2.569830 1_554
Ga1 Zn1 2.569830 1_554
Ga1 Yb0 3.207366 1_554
Ga1 Yb0 3.207366 1_666
Ga1 Yb0 3.207366 1_655
Ga1 Yb0 3.207366 1_565
