# generated using pymatgen
data_Ni4Ge
_symmetry_space_group_name_H-M   'P 1'
_cell_length_a   19.61971330
_cell_length_b   19.61971330
_cell_length_c   19.61971173
_cell_angle_alpha   15.44771540
_cell_angle_beta   15.44771540
_cell_angle_gamma   15.44771415
_symmetry_Int_Tables_number   1
_chemical_formula_structural   Ni4Ge
_chemical_formula_sum   'Ni32 Ge8'
_cell_volume   466.83737616
_cell_formula_units_Z   8
loop_
 _symmetry_equiv_pos_site_id
 _symmetry_equiv_pos_as_xyz
  1  'x, y, z'
loop_
 _atom_site_type_symbol
 _atom_site_label
 _atom_site_symmetry_multiplicity
 _atom_site_fract_x
 _atom_site_fract_y
 _atom_site_fract_z
 _atom_site_occupancy
  Ni  Ni0_0  1  0.30021900  0.30021900  0.30021900  1
  Ni  Ni0_1  1  0.30021900  0.30021900  0.80021900  1
  Ni  Ni0_2  1  0.30021900  0.80021900  0.30021900  1
  Ni  Ni0_3  1  0.30021900  0.80021900  0.80021900  1
  Ni  Ni0_4  1  0.80021900  0.30021900  0.30021900  1
  Ni  Ni0_5  1  0.80021900  0.30021900  0.80021900  1
  Ni  Ni0_6  1  0.80021900  0.80021900  0.30021900  1
  Ni  Ni0_7  1  0.80021900  0.80021900  0.80021900  1
  Ni  Ni1_0  1  0.09981350  0.09981350  0.09981350  1
  Ni  Ni1_1  1  0.09981350  0.09981350  0.59981350  1
  Ni  Ni1_2  1  0.09981350  0.59981350  0.09981350  1
  Ni  Ni1_3  1  0.09981350  0.59981350  0.59981350  1
  Ni  Ni1_4  1  0.59981350  0.09981350  0.09981350  1
  Ni  Ni1_5  1  0.59981350  0.09981350  0.59981350  1
  Ni  Ni1_6  1  0.59981350  0.59981350  0.09981350  1
  Ni  Ni1_7  1  0.59981350  0.59981350  0.59981350  1
  Ni  Ni2_0  1  0.40018650  0.40018650  0.40018650  1
  Ni  Ni2_1  1  0.40018650  0.40018650  0.90018650  1
  Ni  Ni2_2  1  0.40018650  0.90018650  0.40018650  1
  Ni  Ni2_3  1  0.40018650  0.90018650  0.90018650  1
  Ni  Ni2_4  1  0.90018650  0.40018650  0.40018650  1
  Ni  Ni2_5  1  0.90018650  0.40018650  0.90018650  1
  Ni  Ni2_6  1  0.90018650  0.90018650  0.40018650  1
  Ni  Ni2_7  1  0.90018650  0.90018650  0.90018650  1
  Ni  Ni3_0  1  0.19978100  0.19978100  0.19978100  1
  Ni  Ni3_1  1  0.19978100  0.19978100  0.69978100  1
  Ni  Ni3_2  1  0.19978100  0.69978100  0.19978100  1
  Ni  Ni3_3  1  0.19978100  0.69978100  0.69978100  1
  Ni  Ni3_4  1  0.69978100  0.19978100  0.19978100  1
  Ni  Ni3_5  1  0.69978100  0.19978100  0.69978100  1
  Ni  Ni3_6  1  0.69978100  0.69978100  0.19978100  1
  Ni  Ni3_7  1  0.69978100  0.69978100  0.69978100  1
  Ge  Ge0_0  1  0.00000000  0.00000000  0.00000000  1
  Ge  Ge0_1  1  0.00000000  0.00000000  0.50000000  1
  Ge  Ge0_2  1  0.00000000  0.50000000  0.00000000  1
  Ge  Ge0_3  1  0.00000000  0.50000000  0.50000000  1
  Ge  Ge0_4  1  0.50000000  0.00000000  0.00000000  1
  Ge  Ge0_5  1  0.50000000  0.00000000  0.50000000  1
  Ge  Ge0_6  1  0.50000000  0.50000000  0.00000000  1
  Ge  Ge0_7  1  0.50000000  0.50000000  0.50000000  1
loop_
_geom_bond_atom_site_label_1
_geom_bond_atom_site_label_2
_geom_bond_distance
_geom_bond_site_symmetry_2
Ni0_0 Ni1_2 2.483196 1_555
Ni0_0 Ni1_4 2.483196 1_555
Ni0_0 Ni1_1 2.483197 1_555
Ni0_0 Ni0_6 2.636866 1_545
Ni0_0 Ni0_6 2.636866 1_455
Ni0_0 Ni0_5 2.636866 1_455
Ni0_0 Ni0_3 2.636866 1_545
Ni0_0 Ni0_5 2.636866 1_554
Ni0_0 Ni0_3 2.636866 1_554
Ni0_1 Ni1_3 2.483196 1_555
Ni0_1 Ni1_5 2.483196 1_555
Ni0_1 Ni1_0 2.483197 1_556
Ni0_1 Ni0_7 2.636866 1_455
Ni0_1 Ni0_7 2.636866 1_545
Ni0_1 Ni0_4 2.636866 1_555
Ni0_1 Ni0_2 2.636866 1_555
Ni0_1 Ni0_2 2.636866 1_546
Ni0_1 Ni0_4 2.636866 1_456
Ni0_2 Ni1_6 2.483196 1_555
Ni0_2 Ni1_0 2.483196 1_565
Ni0_2 Ni1_3 2.483197 1_555
Ni0_2 Ni0_4 2.636866 1_465
Ni0_2 Ni0_4 2.636866 1_555
Ni0_2 Ni0_7 2.636866 1_455
Ni0_2 Ni0_7 2.636866 1_554
Ni0_3 Ni1_1 2.483196 1_565
Ni0_3 Ni1_7 2.483196 1_555
Ni0_3 Ni1_2 2.483197 1_556
Ni0_3 Ni0_5 2.636866 1_465
Ni0_3 Ni0_5 2.636866 1_555
Ni0_3 Ni0_6 2.636866 1_555
Ni0_3 Ni0_6 2.636866 1_456
Ni0_4 Ni1_0 2.483196 1_655
Ni0_4 Ni1_6 2.483196 1_555
Ni0_4 Ni1_5 2.483197 1_555
Ni0_4 Ni0_7 2.636866 1_545
Ni0_4 Ni0_7 2.636866 1_554
Ni0_5 Ni1_1 2.483196 1_655
Ni0_5 Ni1_7 2.483196 1_555
Ni0_5 Ni1_4 2.483197 1_556
Ni0_5 Ni0_6 2.636866 1_555
Ni0_5 Ni0_6 2.636866 1_546
Ni0_6 Ni1_2 2.483196 1_655
Ni0_6 Ni1_4 2.483196 1_565
Ni0_6 Ni1_7 2.483197 1_555
Ni0_7 Ni1_3 2.483196 1_655
Ni0_7 Ni1_5 2.483196 1_565
Ni0_7 Ni1_6 2.483197 1_556
Ni1_0 Ni2_3 2.447592 1_544
Ni1_0 Ni2_5 2.447592 1_454
Ni1_0 Ni2_6 2.447593 1_445
Ni1_0 Ni1_6 2.636866 1_545
Ni1_0 Ni1_6 2.636866 1_455
Ni1_0 Ni1_3 2.636866 1_545
Ni1_0 Ni1_5 2.636866 1_554
Ni1_0 Ni1_5 2.636866 1_455
Ni1_0 Ni1_3 2.636866 1_554
Ni1_1 Ni2_2 2.447592 1_545
Ni1_1 Ni2_4 2.447592 1_455
Ni1_1 Ni2_7 2.447593 1_445
Ni1_1 Ni1_7 2.636866 1_545
Ni1_1 Ni1_7 2.636866 1_455
Ni1_1 Ni1_2 2.636866 1_555
Ni1_1 Ni1_4 2.636866 1_555
Ni1_1 Ni1_2 2.636866 1_546
Ni1_1 Ni1_4 2.636866 1_456
Ni1_2 Ni2_1 2.447592 1_554
Ni1_2 Ni2_7 2.447592 1_454
Ni1_2 Ni2_4 2.447593 1_455
Ni1_2 Ni1_4 2.636866 1_555
Ni1_2 Ni1_4 2.636866 1_465
Ni1_2 Ni1_7 2.636866 1_554
Ni1_2 Ni1_7 2.636866 1_455
Ni1_3 Ni2_0 2.447592 1_555
Ni1_3 Ni2_6 2.447592 1_455
Ni1_3 Ni2_5 2.447593 1_455
Ni1_3 Ni1_5 2.636866 1_555
Ni1_3 Ni1_5 2.636866 1_465
Ni1_3 Ni1_6 2.636866 1_555
Ni1_3 Ni1_6 2.636866 1_456
Ni1_4 Ni2_1 2.447592 1_554
Ni1_4 Ni2_7 2.447592 1_544
Ni1_4 Ni2_2 2.447593 1_545
Ni1_4 Ni1_7 2.636866 1_554
Ni1_4 Ni1_7 2.636866 1_545
Ni1_5 Ni2_0 2.447592 1_555
Ni1_5 Ni2_6 2.447592 1_545
Ni1_5 Ni2_3 2.447593 1_545
Ni1_5 Ni1_6 2.636866 1_555
Ni1_5 Ni1_6 2.636866 1_546
Ni1_6 Ni2_5 2.447592 1_554
Ni1_6 Ni2_3 2.447592 1_554
Ni1_6 Ni2_0 2.447593 1_555
Ni1_7 Ni2_4 2.447592 1_555
Ni1_7 Ni2_2 2.447592 1_555
Ni1_7 Ni2_1 2.447593 1_555
Ni2_0 Ni3_4 2.483196 1_555
Ni2_0 Ni3_2 2.483196 1_555
Ni2_0 Ni3_1 2.483197 1_555
Ni2_0 Ni2_6 2.636866 1_455
Ni2_0 Ni2_6 2.636866 1_545
Ni2_0 Ni2_5 2.636866 1_455
Ni2_0 Ni2_5 2.636866 1_554
Ni2_0 Ni2_3 2.636866 1_545
Ni2_0 Ni2_3 2.636866 1_554
Ni2_1 Ni3_3 2.483196 1_555
Ni2_1 Ni3_5 2.483196 1_555
Ni2_1 Ni3_0 2.483197 1_556
Ni2_1 Ni2_7 2.636866 1_545
Ni2_1 Ni2_7 2.636866 1_455
Ni2_1 Ni2_4 2.636866 1_555
Ni2_1 Ni2_2 2.636866 1_555
Ni2_1 Ni2_4 2.636866 1_456
Ni2_1 Ni2_2 2.636866 1_546
Ni2_2 Ni3_6 2.483196 1_555
Ni2_2 Ni3_0 2.483196 1_565
Ni2_2 Ni3_3 2.483197 1_555
Ni2_2 Ni2_4 2.636866 1_555
Ni2_2 Ni2_4 2.636866 1_465
Ni2_2 Ni2_7 2.636866 1_554
Ni2_2 Ni2_7 2.636866 1_455
Ni2_3 Ni3_7 2.483196 1_555
Ni2_3 Ni3_1 2.483196 1_565
Ni2_3 Ni3_2 2.483197 1_556
Ni2_3 Ni2_5 2.636866 1_465
Ni2_3 Ni2_5 2.636866 1_555
Ni2_3 Ni2_6 2.636866 1_456
Ni2_3 Ni2_6 2.636866 1_555
Ni2_4 Ni3_6 2.483196 1_555
Ni2_4 Ni3_0 2.483196 1_655
Ni2_4 Ni3_5 2.483197 1_555
Ni2_4 Ni2_7 2.636866 1_554
Ni2_4 Ni2_7 2.636866 1_545
Ni2_5 Ni3_7 2.483196 1_555
Ni2_5 Ni3_1 2.483196 1_655
Ni2_5 Ni3_4 2.483197 1_556
Ni2_5 Ni2_6 2.636866 1_546
Ni2_5 Ni2_6 2.636866 1_555
Ni2_6 Ni3_2 2.483196 1_655
Ni2_6 Ni3_4 2.483196 1_565
Ni2_6 Ni3_7 2.483197 1_555
Ni2_7 Ni3_3 2.483196 1_655
Ni2_7 Ni3_5 2.483196 1_565
Ni2_7 Ni3_6 2.483197 1_556
Ni3_0 Ni3_6 2.636866 1_455
Ni3_0 Ni3_6 2.636866 1_545
Ni3_0 Ni3_3 2.636866 1_554
Ni3_0 Ni3_5 2.636866 1_554
Ni3_0 Ni3_5 2.636866 1_455
Ni3_0 Ni3_3 2.636866 1_545
Ni3_1 Ni3_7 2.636866 1_455
Ni3_1 Ni3_7 2.636866 1_545
Ni3_1 Ni3_4 2.636866 1_456
Ni3_1 Ni3_2 2.636866 1_546
Ni3_1 Ni3_2 2.636866 1_555
Ni3_1 Ni3_4 2.636866 1_555
Ni3_2 Ni3_4 2.636866 1_555
Ni3_2 Ni3_4 2.636866 1_465
Ni3_2 Ni3_7 2.636866 1_455
Ni3_2 Ni3_7 2.636866 1_554
Ni3_3 Ni3_5 2.636866 1_555
Ni3_3 Ni3_5 2.636866 1_465
Ni3_3 Ni3_6 2.636866 1_456
Ni3_3 Ni3_6 2.636866 1_555
Ni3_4 Ni3_7 2.636866 1_545
Ni3_4 Ni3_7 2.636866 1_554
Ni3_5 Ni3_6 2.636866 1_546
Ni3_5 Ni3_6 2.636866 1_555
Ge0_0 Ni0_5 2.454610 1_454
Ge0_0 Ni0_3 2.454610 1_544
Ge0_0 Ni3_2 2.454610 1_545
Ge0_0 Ni3_4 2.454610 1_455
Ge0_0 Ni3_1 2.454611 1_554
Ge0_0 Ni0_6 2.454611 1_445
Ge0_0 Ge0_6 2.636866 1_545
Ge0_0 Ge0_6 2.636866 1_455
Ge0_0 Ge0_3 2.636866 1_545
Ge0_0 Ge0_5 2.636866 1_455
Ge0_0 Ge0_5 2.636866 1_554
Ge0_0 Ge0_3 2.636866 1_554
Ge0_1 Ni3_3 2.454610 1_545
Ge0_1 Ni3_5 2.454610 1_455
Ge0_1 Ni0_2 2.454610 1_545
Ge0_1 Ni0_4 2.454610 1_455
Ge0_1 Ni0_7 2.454611 1_445
Ge0_1 Ni3_0 2.454611 1_555
Ge0_1 Ge0_7 2.636866 1_455
Ge0_1 Ge0_7 2.636866 1_545
Ge0_1 Ge0_2 2.636866 1_546
Ge0_1 Ge0_4 2.636866 1_456
Ge0_1 Ge0_2 2.636866 1_555
Ge0_1 Ge0_4 2.636866 1_555
Ge0_2 Ni0_7 2.454610 1_454
Ge0_2 Ni0_1 2.454610 1_554
Ge0_2 Ni3_6 2.454610 1_455
Ge0_2 Ni3_0 2.454610 1_555
Ge0_2 Ni3_3 2.454611 1_554
Ge0_2 Ni0_4 2.454611 1_455
Ge0_2 Ge0_4 2.636866 1_555
Ge0_2 Ge0_4 2.636866 1_465
Ge0_2 Ge0_7 2.636866 1_455
Ge0_2 Ge0_7 2.636866 1_554
Ge0_3 Ni3_1 2.454610 1_555
Ge0_3 Ni0_0 2.454610 1_555
Ge0_3 Ni0_6 2.454610 1_455
Ge0_3 Ni3_7 2.454610 1_455
Ge0_3 Ni0_5 2.454611 1_455
Ge0_3 Ni3_2 2.454611 1_555
Ge0_3 Ge0_5 2.636866 1_555
Ge0_3 Ge0_5 2.636866 1_465
Ge0_3 Ge0_6 2.636866 1_555
Ge0_3 Ge0_6 2.636866 1_456
Ge0_4 Ni0_7 2.454610 1_544
Ge0_4 Ni0_1 2.454610 1_554
Ge0_4 Ni3_6 2.454610 1_545
Ge0_4 Ni3_0 2.454610 1_555
Ge0_4 Ni3_5 2.454611 1_554
Ge0_4 Ni0_2 2.454611 1_545
Ge0_4 Ge0_7 2.636866 1_554
Ge0_4 Ge0_7 2.636866 1_545
Ge0_5 Ni3_1 2.454610 1_555
Ge0_5 Ni0_0 2.454610 1_555
Ge0_5 Ni0_6 2.454610 1_545
Ge0_5 Ni3_7 2.454610 1_545
Ge0_5 Ni0_3 2.454611 1_545
Ge0_5 Ni3_4 2.454611 1_555
Ge0_5 Ge0_6 2.636866 1_555
Ge0_5 Ge0_6 2.636866 1_546
Ge0_6 Ni0_5 2.454610 1_554
Ge0_6 Ni0_3 2.454610 1_554
Ge0_6 Ni3_4 2.454610 1_555
Ge0_6 Ni3_2 2.454610 1_555
Ge0_6 Ni0_0 2.454611 1_555
Ge0_6 Ni3_7 2.454611 1_554
Ge0_7 Ni3_3 2.454610 1_555
Ge0_7 Ni3_5 2.454610 1_555
Ge0_7 Ni0_4 2.454610 1_555
Ge0_7 Ni0_2 2.454610 1_555
Ge0_7 Ni0_1 2.454611 1_555
Ge0_7 Ni3_6 2.454611 1_555
