# generated using pymatgen
data_ErCo5
_symmetry_space_group_name_H-M   'P 1'
_cell_length_a   4.97983390
_cell_length_b   4.86987647
_cell_length_c   3.89752198
_cell_angle_alpha   90.00039057
_cell_angle_beta   89.99952585
_cell_angle_gamma   120.35111478
_symmetry_Int_Tables_number   1
_chemical_formula_structural   ErCo5
_chemical_formula_sum   'Er1 Co5'
_cell_volume   81.56513250
_cell_formula_units_Z   1
loop_
 _symmetry_equiv_pos_site_id
 _symmetry_equiv_pos_as_xyz
  1  'x, y, z'
loop_
 _atom_site_type_symbol
 _atom_site_label
 _atom_site_symmetry_multiplicity
 _atom_site_fract_x
 _atom_site_fract_y
 _atom_site_fract_z
 _atom_site_occupancy
  Er  Er0  1  -0.00000393  -0.00000288  0.00000295  1
  Co  Co0  1  0.32705448  0.65456843  -0.00000713  1
  Co  Co1  1  0.67294972  0.34542940  -0.00000960  1
  Co  Co2  1  0.50000557  -0.00000203  0.50000302  1
  Co  Co3  1  0.49998900  0.50000113  0.50000650  1
  Co  Co4  1  0.00000516  0.50000594  0.50000425  1
loop_
_geom_bond_atom_site_label_1
_geom_bond_atom_site_label_2
_geom_bond_distance
_geom_bond_site_symmetry_2
Co0 Co3 2.400156 1_554
Co0 Co3 2.400262 1_555
Co0 Co4 2.403688 1_554
Co0 Co4 2.403747 1_555
Co0 Co2 2.430007 1_564
Co0 Co2 2.430063 1_565
Co0 Er0 2.750853 1_555
Co0 Co1 2.802515 1_555
Co0 Co1 2.814407 1_455
Co0 Er0 2.872498 1_565
Co0 Er0 2.891869 1_665
Co0 Co1 2.903386 1_565
Co1 Co3 2.400247 1_554
Co1 Co3 2.400329 1_555
Co1 Co4 2.403681 1_654
Co1 Co4 2.403782 1_655
Co1 Co2 2.429997 1_554
Co1 Co2 2.430083 1_555
Co1 Er0 2.750837 1_665
Co1 Er0 2.872462 1_655
Co1 Er0 2.891921 1_555
Co2 Co3 2.434881 1_545
Co2 Co3 2.434995 1_555
Co2 Co4 2.449794 1_545
Co2 Co4 2.449830 1_655
Co2 Er0 3.161811 1_655
Co2 Er0 3.161836 1_656
Co2 Er0 3.161882 1_556
Co2 Er0 3.161908 1_555
Co3 Co4 2.489848 1_555
Co3 Co4 2.489986 1_655
Co3 Er0 3.130357 1_556
Co3 Er0 3.130376 1_666
Co3 Er0 3.130379 1_555
Co3 Er0 3.130388 1_665
Co4 Er0 3.118720 1_566
Co4 Er0 3.118747 1_565
Co4 Er0 3.118757 1_555
Co4 Er0 3.118772 1_556
