# generated using pymatgen
data_Mg(FeS2)2
_symmetry_space_group_name_H-M   'P 1'
_cell_length_a   6.97169951
_cell_length_b   6.97169951
_cell_length_c   6.97169951
_cell_angle_alpha   60.00000000
_cell_angle_beta   60.00000000
_cell_angle_gamma   60.00000000
_symmetry_Int_Tables_number   1
_chemical_formula_structural   Mg(FeS2)2
_chemical_formula_sum   'Mg2 Fe4 S8'
_cell_volume   239.60781710
_cell_formula_units_Z   2
loop_
 _symmetry_equiv_pos_site_id
 _symmetry_equiv_pos_as_xyz
  1  'x, y, z'
loop_
 _atom_site_type_symbol
 _atom_site_label
 _atom_site_symmetry_multiplicity
 _atom_site_fract_x
 _atom_site_fract_y
 _atom_site_fract_z
 _atom_site_occupancy
  Mg  Mg0  1  0.50000000  0.50000000  0.50000000  1
  Mg  Mg1  1  0.75000000  0.75000000  0.75000000  1
  Fe  Fe0  1  0.12500000  0.12500000  0.12500000  1
  Fe  Fe1  1  0.62500000  0.12500000  0.12500000  1
  Fe  Fe2  1  0.12500000  0.62500000  0.12500000  1
  Fe  Fe3  1  0.12500000  0.12500000  0.62500000  1
  S  S0  1  0.35798300  0.35798300  0.35798300  1
  S  S1  1  0.32394900  0.89201700  0.89201700  1
  S  S2  1  0.89201700  0.89201700  0.32394900  1
  S  S3  1  0.89201700  0.32394900  0.89201700  1
  S  S4  1  0.35798300  0.35798300  0.92605100  1
  S  S5  1  0.35798300  0.92605100  0.35798300  1
  S  S6  1  0.89201700  0.89201700  0.89201700  1
  S  S7  1  0.92605100  0.35798300  0.35798300  1
loop_
_geom_bond_atom_site_label_1
_geom_bond_atom_site_label_2
_geom_bond_distance
_geom_bond_site_symmetry_2
Mg0 S7 2.425239 1_555
Mg0 S5 2.425239 1_555
Mg0 S4 2.425239 1_555
Mg0 S0 2.425239 1_555
Mg1 S6 2.425239 1_555
Mg1 S1 2.425239 1_555
Mg1 S3 2.425239 1_555
Mg1 S2 2.425239 1_555
Fe0 S5 2.309311 1_545
Fe0 S7 2.309311 1_455
Fe0 S4 2.309311 1_554
Fe0 S3 2.309311 1_454
Fe0 S1 2.309311 1_544
Fe0 S2 2.309311 1_445
Fe1 S0 2.309311 1_555
Fe1 S2 2.309311 1_545
Fe1 S3 2.309311 1_554
Fe1 S5 2.309311 1_545
Fe1 S4 2.309311 1_554
Fe1 S6 2.309311 1_544
Fe2 S0 2.309311 1_555
Fe2 S1 2.309311 1_554
Fe2 S2 2.309311 1_455
Fe2 S7 2.309311 1_455
Fe2 S4 2.309311 1_554
Fe2 S6 2.309311 1_454
Fe3 S0 2.309311 1_555
Fe3 S1 2.309311 1_545
Fe3 S3 2.309311 1_455
Fe3 S5 2.309311 1_545
Fe3 S7 2.309311 1_455
Fe3 S6 2.309311 1_445
