# generated using pymatgen
data_AcPr3
_symmetry_space_group_name_H-M   'P 1'
_cell_length_a   7.70819942
_cell_length_b   7.70817550
_cell_length_c   6.07214085
_cell_angle_alpha   90.00000000
_cell_angle_beta   90.00000000
_cell_angle_gamma   120.00006286
_symmetry_Int_Tables_number   1
_chemical_formula_structural   AcPr3
_chemical_formula_sum   'Ac2 Pr6'
_cell_volume   312.44726680
_cell_formula_units_Z   2
loop_
 _symmetry_equiv_pos_site_id
 _symmetry_equiv_pos_as_xyz
  1  'x, y, z'
loop_
 _atom_site_type_symbol
 _atom_site_label
 _atom_site_symmetry_multiplicity
 _atom_site_fract_x
 _atom_site_fract_y
 _atom_site_fract_z
 _atom_site_occupancy
  Ac  Ac0  1  0.33332754  0.66666572  0.75000000  1
  Ac  Ac1  1  0.66665686  0.33332467  0.25000000  1
  Pr  Pr0  1  0.16393347  0.32785780  0.25000000  1
  Pr  Pr1  1  0.67213328  0.83606858  0.25000000  1
  Pr  Pr2  1  0.16394102  0.83608054  0.25000000  1
  Pr  Pr3  1  0.83607284  0.67213803  0.75000000  1
  Pr  Pr4  1  0.32786169  0.16392717  0.75000000  1
  Pr  Pr5  1  0.83607330  0.16393750  0.75000000  1
loop_
_geom_bond_atom_site_label_1
_geom_bond_atom_site_label_2
_geom_bond_distance
_geom_bond_site_symmetry_2
Ac0 Pr2 3.785875 1_556
Ac0 Pr2 3.785875 1_555
Ac0 Pr1 3.785893 1_556
Ac0 Pr1 3.785893 1_555
Ac0 Pr0 3.785898 1_555
Ac0 Pr0 3.785898 1_556
Ac0 Pr5 3.854196 1_455
Ac0 Pr3 3.854202 1_455
Ac0 Pr4 3.854217 1_565
Ac0 Pr4 3.854304 1_555
Ac0 Pr5 3.854331 1_565
Ac0 Pr3 3.854343 1_555
Ac1 Pr4 3.785851 1_554
Ac1 Pr4 3.785851 1_555
Ac1 Pr5 3.785884 1_555
Ac1 Pr5 3.785884 1_554
Ac1 Pr3 3.785920 1_554
Ac1 Pr3 3.785920 1_555
Ac1 Pr2 3.854109 1_545
Ac1 Pr0 3.854195 1_555
Ac1 Pr1 3.854217 1_545
Ac1 Pr1 3.854305 1_555
Ac1 Pr0 3.854350 1_655
Ac1 Pr2 3.854417 1_655
Pr0 Pr4 3.742696 1_555
Pr0 Pr4 3.742696 1_554
Pr0 Pr5 3.742702 1_455
Pr0 Pr5 3.742702 1_454
Pr0 Pr2 3.790735 1_545
Pr0 Pr1 3.790842 1_445
Pr0 Pr1 3.917338 1_555
Pr0 Pr2 3.917441 1_555
Pr1 Pr5 3.742732 1_565
Pr1 Pr5 3.742732 1_564
Pr1 Pr3 3.742740 1_554
Pr1 Pr3 3.742740 1_555
Pr1 Pr2 3.790906 1_655
Pr1 Pr2 3.917293 1_555
Pr2 Pr4 3.742645 1_565
Pr2 Pr4 3.742645 1_564
Pr2 Pr3 3.742733 1_455
Pr2 Pr3 3.742733 1_454
Pr3 Pr4 3.790798 1_665
Pr3 Pr5 3.790875 1_565
Pr3 Pr5 3.917301 1_555
Pr3 Pr4 3.917382 1_555
Pr4 Pr5 3.790843 1_455
Pr4 Pr5 3.917357 1_555
