# generated using pymatgen
data_Tb2(Ni5B3)3
_symmetry_space_group_name_H-M   'P 1'
_cell_length_a   9.81397532
_cell_length_b   9.81397532
_cell_length_c   11.25186100
_cell_angle_alpha   90.00000000
_cell_angle_beta   90.00000000
_cell_angle_gamma   107.79489160
_symmetry_Int_Tables_number   1
_chemical_formula_structural   Tb2(Ni5B3)3
_chemical_formula_sum   'Tb8 Ni60 B36'
_cell_volume   1031.86452986
_cell_formula_units_Z   4
loop_
 _symmetry_equiv_pos_site_id
 _symmetry_equiv_pos_as_xyz
  1  'x, y, z'
loop_
 _atom_site_type_symbol
 _atom_site_label
 _atom_site_symmetry_multiplicity
 _atom_site_fract_x
 _atom_site_fract_y
 _atom_site_fract_z
 _atom_site_occupancy
  Tb  Tb0  1  0.25954800  0.25954800  0.95854300  1
  Tb  Tb1  1  0.74045200  0.74045200  0.04145700  1
  Tb  Tb2  1  0.24045200  0.24045200  0.45854300  1
  Tb  Tb3  1  0.75954800  0.75954800  0.54145700  1
  Tb  Tb4  1  0.19228300  0.69228300  0.75000000  1
  Tb  Tb5  1  0.30771700  0.80771700  0.25000000  1
  Tb  Tb6  1  0.80771700  0.30771700  0.25000000  1
  Tb  Tb7  1  0.69228300  0.19228300  0.75000000  1
  Ni  Ni0  1  0.50000000  0.50000000  0.00000000  1
  Ni  Ni1  1  0.00000000  0.00000000  0.50000000  1
  Ni  Ni2  1  0.50000000  0.50000000  0.50000000  1
  Ni  Ni3  1  0.00000000  0.00000000  0.00000000  1
  Ni  Ni4  1  0.23374900  0.23374900  0.71170200  1
  Ni  Ni5  1  0.76625100  0.76625100  0.28829800  1
  Ni  Ni6  1  0.26625100  0.26625100  0.21170200  1
  Ni  Ni7  1  0.73374900  0.73374900  0.78829800  1
  Ni  Ni8  1  0.93141000  0.43141000  0.75000000  1
  Ni  Ni9  1  0.56859000  0.06859000  0.25000000  1
  Ni  Ni10  1  0.06859000  0.56859000  0.25000000  1
  Ni  Ni11  1  0.43141000  0.93141000  0.75000000  1
  Ni  Ni12  1  0.99030200  0.18338300  0.83956300  1
  Ni  Ni13  1  0.81661700  0.00969800  0.16043700  1
  Ni  Ni14  1  0.31661700  0.50969800  0.33956300  1
  Ni  Ni15  1  0.49030200  0.68338300  0.66043700  1
  Ni  Ni16  1  0.00969800  0.81661700  0.16043700  1
  Ni  Ni17  1  0.18338300  0.99030200  0.83956300  1
  Ni  Ni18  1  0.68338300  0.49030200  0.66043700  1
  Ni  Ni19  1  0.50969800  0.31661700  0.33956300  1
  Ni  Ni20  1  0.25691400  0.47164800  0.59748100  1
  Ni  Ni21  1  0.52835200  0.74308600  0.40251900  1
  Ni  Ni22  1  0.02835200  0.24308600  0.09748100  1
  Ni  Ni23  1  0.75691400  0.97164800  0.90251900  1
  Ni  Ni24  1  0.74308600  0.52835200  0.40251900  1
  Ni  Ni25  1  0.47164800  0.25691400  0.59748100  1
  Ni  Ni26  1  0.97164800  0.75691400  0.90251900  1
  Ni  Ni27  1  0.24308600  0.02835200  0.09748100  1
  Ni  Ni28  1  0.99448700  0.22658500  0.61839200  1
  Ni  Ni29  1  0.77341500  0.00551300  0.38160800  1
  Ni  Ni30  1  0.27341500  0.50551300  0.11839200  1
  Ni  Ni31  1  0.49448700  0.72658500  0.88160800  1
  Ni  Ni32  1  0.00551300  0.77341500  0.38160800  1
  Ni  Ni33  1  0.22658500  0.99448700  0.61839200  1
  Ni  Ni34  1  0.72658500  0.49448700  0.88160800  1
  Ni  Ni35  1  0.50551300  0.27341500  0.11839200  1
  Ni  Ni36  1  0.10625800  0.44659700  0.91488700  1
  Ni  Ni37  1  0.55340300  0.89374200  0.08511300  1
  Ni  Ni38  1  0.05340300  0.39374200  0.41488700  1
  Ni  Ni39  1  0.60625800  0.94659700  0.58511300  1
  Ni  Ni40  1  0.89374200  0.55340300  0.08511300  1
  Ni  Ni41  1  0.44659700  0.10625800  0.91488700  1
  Ni  Ni42  1  0.94659700  0.60625800  0.58511300  1
  Ni  Ni43  1  0.39374200  0.05340300  0.41488700  1
  Ni  Ni44  1  0.33081000  0.48899900  0.80614200  1
  Ni  Ni45  1  0.51100100  0.66919000  0.19385800  1
  Ni  Ni46  1  0.01100100  0.16919000  0.30614200  1
  Ni  Ni47  1  0.83081000  0.98899900  0.69385800  1
  Ni  Ni48  1  0.66919000  0.51100100  0.19385800  1
  Ni  Ni49  1  0.48899900  0.33081000  0.80614200  1
  Ni  Ni50  1  0.98899900  0.83081000  0.69385800  1
  Ni  Ni51  1  0.16919000  0.01100100  0.30614200  1
  Ni  Ni52  1  0.83798200  0.36346200  0.52959200  1
  Ni  Ni53  1  0.63653800  0.16201800  0.47040800  1
  Ni  Ni54  1  0.13653800  0.66201800  0.02959200  1
  Ni  Ni55  1  0.33798200  0.86346200  0.97040800  1
  Ni  Ni56  1  0.16201800  0.63653800  0.47040800  1
  Ni  Ni57  1  0.36346200  0.83798200  0.52959200  1
  Ni  Ni58  1  0.86346200  0.33798200  0.97040800  1
  Ni  Ni59  1  0.66201800  0.13653800  0.02959200  1
  B  B0  1  0.36468900  0.63531100  0.50000000  1
  B  B1  1  0.86468900  0.13531100  0.00000000  1
  B  B2  1  0.63531100  0.36468900  0.50000000  1
  B  B3  1  0.13531100  0.86468900  0.00000000  1
  B  B4  1  0.45259900  0.45259900  0.67173400  1
  B  B5  1  0.54740100  0.54740100  0.32826600  1
  B  B6  1  0.04740100  0.04740100  0.17173400  1
  B  B7  1  0.95259900  0.95259900  0.82826600  1
  B  B8  1  0.05633400  0.05633400  0.69985300  1
  B  B9  1  0.94366600  0.94366600  0.30014700  1
  B  B10  1  0.44366600  0.44366600  0.19985300  1
  B  B11  1  0.55633400  0.55633400  0.80014700  1
  B  B12  1  0.11969000  0.37774800  0.74443300  1
  B  B13  1  0.62225200  0.88031000  0.25556700  1
  B  B14  1  0.12225200  0.38031000  0.24443300  1
  B  B15  1  0.61969000  0.87774800  0.75556700  1
  B  B16  1  0.88031000  0.62225200  0.25556700  1
  B  B17  1  0.37774800  0.11969000  0.74443300  1
  B  B18  1  0.87774800  0.61969000  0.75556700  1
  B  B19  1  0.38031000  0.12225200  0.24443300  1
  B  B20  1  0.29789500  0.59189000  0.95001400  1
  B  B21  1  0.40811000  0.70210500  0.04998600  1
  B  B22  1  0.90811000  0.20210500  0.45001400  1
  B  B23  1  0.79789500  0.09189000  0.54998600  1
  B  B24  1  0.70210500  0.40811000  0.04998600  1
  B  B25  1  0.59189000  0.29789500  0.95001400  1
  B  B26  1  0.09189000  0.79789500  0.54998600  1
  B  B27  1  0.20210500  0.90811000  0.45001400  1
  B  B28  1  0.04887700  0.44913600  0.59978600  1
  B  B29  1  0.55086400  0.95112300  0.40021400  1
  B  B30  1  0.05086400  0.45112300  0.09978600  1
  B  B31  1  0.54887700  0.94913600  0.90021400  1
  B  B32  1  0.95112300  0.55086400  0.40021400  1
  B  B33  1  0.44913600  0.04887700  0.59978600  1
  B  B34  1  0.94913600  0.54887700  0.90021400  1
  B  B35  1  0.45112300  0.05086400  0.09978600  1
loop_
_geom_bond_atom_site_label_1
_geom_bond_atom_site_label_2
_geom_bond_distance
_geom_bond_site_symmetry_2
Ni0 Tb0 2.819780 1_554
Ni0 Tb1 2.819780 1_555
Ni1 Tb3 2.819780 1_445
Ni1 Tb2 2.819780 1_555
Ni2 Tb3 3.037810 1_555
Ni2 Tb2 3.037810 1_555
Ni3 Tb0 3.037810 1_554
Ni3 Tb1 3.037810 1_445
Ni4 Tb0 2.793402 1_555
Ni4 Tb2 2.849565 1_555
Ni5 Tb1 2.793402 1_555
Ni5 Tb3 2.849565 1_555
Ni6 Tb2 2.793402 1_555
Ni6 Tb0 2.849565 1_554
Ni7 Tb3 2.793402 1_555
Ni7 Tb1 2.849565 1_556
Ni8 Tb7 2.765605 1_555
Ni8 Tb4 3.017107 1_655
Ni9 Tb6 2.765605 1_555
Ni9 Tb5 3.017107 1_545
Ni10 Tb5 2.765605 1_555
Ni10 Tb6 3.017107 1_455
Ni11 Tb4 2.765605 1_555
Ni11 Tb7 3.017107 1_565
Ni12 Tb0 2.850591 1_655
Ni12 Tb7 3.119856 1_555
Ni13 Tb1 2.850591 1_545
Ni13 Tb6 3.119856 1_555
Ni14 Tb2 2.850591 1_555
Ni14 Tb5 3.119856 1_555
Ni15 Tb3 2.850591 1_555
Ni15 Tb4 3.119856 1_555
Ni16 Tb1 2.850591 1_455
Ni16 Tb5 3.119856 1_555
Ni17 Tb0 2.850591 1_565
Ni17 Tb4 3.119856 1_555
Ni18 Tb3 2.850591 1_555
Ni18 Tb7 3.119856 1_555
Ni19 Tb2 2.850591 1_555
Ni19 Tb6 3.119856 1_555
Ni20 Tb2 2.719215 1_555
Ni20 Tb4 2.979164 1_555
Ni21 Tb3 2.719215 1_555
Ni21 Tb5 2.979164 1_555
Ni22 Tb0 2.719215 1_554
Ni22 Tb6 2.979164 1_455
Ni23 Tb1 2.719215 1_556
Ni23 Tb7 2.979164 1_565
Ni24 Tb3 2.719215 1_555
Ni24 Tb6 2.979164 1_555
Ni25 Tb2 2.719215 1_555
Ni25 Tb7 2.979164 1_555
Ni26 Tb1 2.719215 1_556
Ni26 Tb4 2.979164 1_655
Ni27 Tb0 2.719215 1_554
Ni27 Tb5 2.979164 1_545
Ni28 Tb2 2.979861 1_655
Ni28 Tb7 3.239144 1_555
Ni29 Tb3 2.979861 1_545
Ni29 Tb6 3.239144 1_555
Ni30 Tb0 2.979861 1_554
Ni30 Tb5 3.239144 1_555
Ni31 Tb1 2.979861 1_556
Ni31 Tb4 3.239144 1_555
Ni32 Tb3 2.979861 1_455
Ni32 Tb5 3.239144 1_555
Ni33 Tb2 2.979861 1_565
Ni33 Tb4 3.239144 1_555
Ni34 Tb1 2.979861 1_556
Ni34 Tb7 3.239144 1_555
Ni35 Tb0 2.979861 1_554
Ni35 Tb6 3.239144 1_555
Ni36 Tb0 2.749941 1_555
Ni36 Tb4 2.953693 1_555
Ni37 Tb1 2.749941 1_555
Ni37 Tb5 2.953693 1_555
Ni38 Tb2 2.749941 1_555
Ni38 Tb6 2.953693 1_455
Ni39 Tb3 2.749941 1_555
Ni39 Tb7 2.953693 1_565
Ni40 Tb1 2.749941 1_555
Ni40 Tb6 2.953693 1_555
Ni41 Tb0 2.749941 1_555
Ni41 Tb7 2.953693 1_555
Ni42 Tb3 2.749941 1_555
Ni42 Tb4 2.953693 1_655
Ni43 Tb2 2.749941 1_555
Ni43 Tb5 2.953693 1_545
Ni44 Tb0 2.745501 1_555
Ni44 Tb4 2.808057 1_555
Ni45 Tb1 2.745501 1_555
Ni45 Tb5 2.808057 1_555
Ni46 Tb2 2.745501 1_555
Ni46 Tb6 2.808057 1_455
Ni47 Tb3 2.745501 1_555
Ni47 Tb7 2.808057 1_565
Ni48 Tb1 2.745501 1_555
Ni48 Tb6 2.808057 1_555
Ni49 Tb0 2.745501 1_555
Ni49 Tb7 2.808057 1_555
Ni50 Tb3 2.745501 1_555
Ni50 Tb4 2.808057 1_655
Ni51 Tb2 2.745501 1_555
Ni51 Tb5 2.808057 1_545
Ni52 Tb7 3.090140 1_555
Ni52 Tb6 3.191407 1_555
Ni53 Tb6 3.090140 1_555
Ni53 Tb7 3.191407 1_555
Ni54 Tb5 3.090140 1_555
Ni54 Tb4 3.191407 1_554
Ni55 Tb4 3.090140 1_555
Ni55 Tb5 3.191407 1_556
Ni56 Tb5 3.090140 1_555
Ni56 Tb4 3.191407 1_555
Ni57 Tb4 3.090140 1_555
Ni57 Tb5 3.191407 1_555
Ni58 Tb7 3.090140 1_555
Ni58 Tb6 3.191407 1_556
Ni59 Tb6 3.090140 1_555
Ni59 Tb7 3.191407 1_554
B0 Ni20 1.965514 1_555
B0 Ni21 1.965514 1_555
B0 Ni56 2.020347 1_555
B0 Ni57 2.020347 1_555
B0 Ni2 2.145852 1_555
B0 Ni14 2.155365 1_555
B0 Ni15 2.155365 1_555
B1 Ni22 1.965514 1_655
B1 Ni23 1.965514 1_544
B1 Ni58 2.020347 1_554
B1 Ni59 2.020347 1_555
B1 Ni3 2.145852 1_655
B1 Ni13 2.155365 1_555
B1 Ni12 2.155365 1_554
B2 Ni25 1.965514 1_555
B2 Ni24 1.965514 1_555
B2 Ni53 2.020347 1_555
B2 Ni52 2.020347 1_555
B2 Ni2 2.145852 1_555
B2 Ni19 2.155365 1_555
B2 Ni18 2.155365 1_555
B3 Ni27 1.965514 1_565
B3 Ni26 1.965514 1_454
B3 Ni55 2.020347 1_554
B3 Ni54 2.020347 1_555
B3 Ni3 2.145852 1_565
B3 Ni16 2.155365 1_555
B3 Ni17 2.155365 1_554
B4 Ni2 2.008588 1_555
B4 Ni44 2.025918 1_555
B4 Ni49 2.025918 1_555
B4 Ni25 2.154192 1_555
B4 Ni20 2.154192 1_555
B4 Ni18 2.184181 1_555
B4 Ni15 2.184181 1_555
B4 Ni4 2.570734 1_555
B5 Ni2 2.008588 1_555
B5 Ni45 2.025918 1_555
B5 Ni48 2.025918 1_555
B5 Ni21 2.154192 1_555
B5 Ni24 2.154192 1_555
B5 Ni14 2.184181 1_555
B5 Ni19 2.184181 1_555
B5 Ni5 2.570734 1_555
B6 B9 1.878049 1_445
B6 Ni3 2.008588 1_555
B6 Ni46 2.025918 1_555
B6 Ni51 2.025918 1_555
B6 Ni22 2.154192 1_555
B6 Ni27 2.154192 1_555
B6 Ni16 2.184181 1_545
B6 Ni13 2.184181 1_455
B6 Ni6 2.570734 1_555
B7 B8 1.878049 1_665
B7 Ni3 2.008588 1_666
B7 Ni47 2.025918 1_555
B7 Ni50 2.025918 1_555
B7 Ni26 2.154192 1_555
B7 Ni23 2.154192 1_555
B7 Ni12 2.184181 1_565
B7 Ni17 2.184181 1_655
B7 Ni7 2.570734 1_555
B8 Ni4 2.056207 1_555
B8 Ni50 2.108533 1_445
B8 Ni47 2.108533 1_445
B8 Ni28 2.149443 1_455
B8 Ni33 2.149443 1_545
B8 Ni12 2.222532 1_455
B8 Ni17 2.222532 1_545
B8 Ni1 2.341201 1_555
B9 Ni5 2.056207 1_555
B9 Ni46 2.108533 1_665
B9 Ni51 2.108533 1_665
B9 Ni29 2.149443 1_565
B9 Ni32 2.149443 1_655
B9 Ni13 2.222532 1_565
B9 Ni16 2.222532 1_655
B9 Ni1 2.341201 1_665
B10 B5 1.878049 1_555
B10 Ni6 2.056207 1_555
B10 Ni48 2.108533 1_555
B10 Ni45 2.108533 1_555
B10 Ni30 2.149443 1_555
B10 Ni35 2.149443 1_555
B10 Ni19 2.222532 1_555
B10 Ni14 2.222532 1_555
B10 Ni0 2.341201 1_555
B11 B4 1.878049 1_555
B11 Ni7 2.056207 1_555
B11 Ni44 2.108533 1_555
B11 Ni49 2.108533 1_555
B11 Ni34 2.149443 1_555
B11 Ni31 2.149443 1_555
B11 Ni15 2.222532 1_555
B11 Ni18 2.222532 1_555
B11 Ni0 2.341201 1_556
B12 B28 1.979978 1_555
B12 Ni36 2.051048 1_555
B12 Ni8 2.071311 1_455
B12 Ni4 2.086303 1_555
B12 Ni44 2.141114 1_555
B12 Ni28 2.146560 1_455
B12 Ni20 2.153675 1_555
B12 Ni12 2.217253 1_455
B12 Tb4 2.948879 1_555
B13 B29 1.979978 1_555
B13 Ni37 2.051048 1_555
B13 Ni9 2.071311 1_565
B13 Ni5 2.086303 1_555
B13 Ni45 2.141114 1_555
B13 Ni29 2.146560 1_565
B13 Ni21 2.153675 1_555
B13 Ni13 2.217253 1_565
B13 Tb5 2.948879 1_555
B14 B30 1.979978 1_555
B14 Ni38 2.051048 1_555
B14 Ni10 2.071311 1_555
B14 Ni6 2.086303 1_555
B14 Ni46 2.141114 1_555
B14 Ni30 2.146560 1_555
B14 Ni22 2.153675 1_555
B14 Ni14 2.217253 1_555
B14 Tb6 2.948879 1_455
B15 B31 1.979978 1_555
B15 Ni39 2.051048 1_555
B15 Ni11 2.071311 1_555
B15 Ni7 2.086303 1_555
B15 Ni47 2.141114 1_555
B15 Ni31 2.146560 1_555
B15 Ni23 2.153675 1_555
B15 Ni15 2.217253 1_555
B15 Tb7 2.948879 1_565
B16 B32 1.979978 1_555
B16 Ni40 2.051048 1_555
B16 Ni10 2.071311 1_655
B16 Ni5 2.086303 1_555
B16 Ni48 2.141114 1_555
B16 Ni32 2.146560 1_655
B16 Ni24 2.153675 1_555
B16 Ni16 2.217253 1_655
B16 Tb6 2.948879 1_555
B17 B33 1.979978 1_555
B17 Ni41 2.051048 1_555
B17 Ni11 2.071311 1_545
B17 Ni4 2.086303 1_555
B17 Ni49 2.141114 1_555
B17 Ni33 2.146560 1_545
B17 Ni25 2.153675 1_555
B17 Ni17 2.217253 1_545
B17 Tb7 2.948879 1_555
B18 B34 1.979978 1_555
B18 Ni42 2.051048 1_555
B18 Ni8 2.071311 1_555
B18 Ni7 2.086303 1_555
B18 Ni50 2.141114 1_555
B18 Ni34 2.146560 1_555
B18 Ni26 2.153675 1_555
B18 Ni18 2.217253 1_555
B18 Tb4 2.948879 1_655
B19 B35 1.979978 1_555
B19 Ni43 2.051048 1_555
B19 Ni9 2.071311 1_555
B19 Ni6 2.086303 1_555
B19 Ni51 2.141114 1_555
B19 Ni35 2.146560 1_555
B19 Ni27 2.153675 1_555
B19 Ni19 2.217253 1_555
B19 Tb5 2.948879 1_545
B20 B21 1.700045 1_556
B20 Ni44 1.985939 1_555
B20 Ni36 2.021732 1_555
B20 Ni30 2.059421 1_556
B20 Ni54 2.109311 1_556
B20 Ni31 2.122114 1_555
B20 Ni0 2.481322 1_556
B20 Tb4 2.781018 1_555
B21 Ni45 1.985939 1_555
B21 Ni37 2.021732 1_555
B21 Ni31 2.059421 1_554
B21 Ni55 2.109311 1_554
B21 Ni30 2.122114 1_555
B21 Ni0 2.481322 1_555
B21 Tb5 2.781018 1_555
B22 B23 1.700045 1_555
B22 Ni46 1.985939 1_655
B22 Ni38 2.021732 1_655
B22 Ni28 2.059421 1_555
B22 Ni52 2.109311 1_555
B22 Ni29 2.122114 1_555
B22 Ni1 2.481322 1_655
B22 Tb6 2.781018 1_555
B23 Ni47 1.985939 1_545
B23 Ni39 2.021732 1_545
B23 Ni29 2.059421 1_555
B23 Ni53 2.109311 1_555
B23 Ni28 2.122114 1_555
B23 Ni1 2.481322 1_655
B23 Tb7 2.781018 1_555
B24 B25 1.700045 1_554
B24 Ni48 1.985939 1_555
B24 Ni40 2.021732 1_555
B24 Ni34 2.059421 1_554
B24 Ni58 2.109311 1_554
B24 Ni35 2.122114 1_555
B24 Ni0 2.481322 1_555
B24 Tb6 2.781018 1_555
B25 Ni49 1.985939 1_555
B25 Ni41 2.021732 1_555
B25 Ni35 2.059421 1_556
B25 Ni59 2.109311 1_556
B25 Ni34 2.122114 1_555
B25 Ni0 2.481322 1_556
B25 Tb7 2.781018 1_555
B26 B27 1.700045 1_555
B26 Ni50 1.985939 1_455
B26 Ni42 2.021732 1_455
B26 Ni32 2.059421 1_555
B26 Ni56 2.109311 1_555
B26 Ni33 2.122114 1_555
B26 Ni1 2.481322 1_565
B26 Tb4 2.781018 1_555
B27 Ni51 1.985939 1_565
B27 Ni43 2.021732 1_565
B27 Ni33 2.059421 1_555
B27 Ni57 2.109311 1_555
B27 Ni32 2.122114 1_555
B27 Ni1 2.481322 1_565
B27 Tb5 2.781018 1_555
B28 Ni20 1.985496 1_555
B28 Ni8 2.023217 1_455
B28 Ni42 2.087728 1_455
B28 Ni28 2.094398 1_455
B28 Ni52 2.133267 1_455
B28 Ni38 2.154200 1_555
B28 Ni56 2.342307 1_555
B28 Tb4 2.911855 1_555
B29 Ni21 1.985496 1_555
B29 Ni9 2.023217 1_565
B29 Ni43 2.087728 1_565
B29 Ni29 2.094398 1_565
B29 Ni53 2.133267 1_565
B29 Ni39 2.154200 1_555
B29 Ni57 2.342307 1_555
B29 Tb5 2.911855 1_555
B30 Ni22 1.985496 1_555
B30 Ni10 2.023217 1_555
B30 Ni40 2.087728 1_455
B30 Ni30 2.094398 1_555
B30 Ni54 2.133267 1_555
B30 Ni36 2.154200 1_554
B30 Ni58 2.342307 1_454
B30 Tb6 2.911855 1_455
B31 Ni23 1.985496 1_555
B31 Ni11 2.023217 1_555
B31 Ni41 2.087728 1_565
B31 Ni31 2.094398 1_555
B31 Ni55 2.133267 1_555
B31 Ni37 2.154200 1_556
B31 Ni59 2.342307 1_566
B31 Tb7 2.911855 1_565
B32 Ni24 1.985496 1_555
B32 Ni10 2.023217 1_655
B32 Ni38 2.087728 1_655
B32 Ni32 2.094398 1_655
B32 Ni56 2.133267 1_655
B32 Ni42 2.154200 1_555
B32 Ni52 2.342307 1_555
B32 Tb6 2.911855 1_555
B33 Ni25 1.985496 1_555
B33 Ni11 2.023217 1_545
B33 Ni39 2.087728 1_545
B33 Ni33 2.094398 1_545
B33 Ni57 2.133267 1_545
B33 Ni43 2.154200 1_555
B33 Ni53 2.342307 1_555
B33 Tb7 2.911855 1_555
B34 Ni26 1.985496 1_555
B34 Ni8 2.023217 1_555
B34 Ni36 2.087728 1_655
B34 Ni34 2.094398 1_555
B34 Ni58 2.133267 1_555
B34 Ni40 2.154200 1_556
B34 Ni54 2.342307 1_656
B34 Tb4 2.911855 1_655
B35 Ni27 1.985496 1_555
B35 Ni9 2.023217 1_555
B35 Ni37 2.087728 1_545
B35 Ni35 2.094398 1_555
B35 Ni59 2.133267 1_555
B35 Ni41 2.154200 1_554
B35 Ni55 2.342307 1_544
B35 Tb5 2.911855 1_545
