# generated using pymatgen
data_Er4Mo4O11
_symmetry_space_group_name_H-M   'P 1'
_cell_length_a   5.70257400
_cell_length_b   10.73796200
_cell_length_c   15.93310800
_cell_angle_alpha   90.00000000
_cell_angle_beta   90.00000000
_cell_angle_gamma   90.00000000
_symmetry_Int_Tables_number   1
_chemical_formula_structural   Er4Mo4O11
_chemical_formula_sum   'Er16 Mo16 O44'
_cell_volume   975.64830037
_cell_formula_units_Z   4
loop_
 _symmetry_equiv_pos_site_id
 _symmetry_equiv_pos_as_xyz
  1  'x, y, z'
loop_
 _atom_site_type_symbol
 _atom_site_label
 _atom_site_symmetry_multiplicity
 _atom_site_fract_x
 _atom_site_fract_y
 _atom_site_fract_z
 _atom_site_occupancy
  Er  Er0  1  0.00000000  0.61491200  0.57721100  1
  Er  Er1  1  0.00000000  0.38508800  0.42278900  1
  Er  Er2  1  0.00000000  0.11491200  0.92278900  1
  Er  Er3  1  0.00000000  0.88508800  0.07721100  1
  Er  Er4  1  0.00000000  0.40340800  0.73628200  1
  Er  Er5  1  0.00000000  0.59659200  0.26371800  1
  Er  Er6  1  0.00000000  0.90340800  0.76371800  1
  Er  Er7  1  0.00000000  0.09659200  0.23628200  1
  Er  Er8  1  0.50000000  0.42401600  0.59883600  1
  Er  Er9  1  0.50000000  0.57598400  0.40116400  1
  Er  Er10  1  0.50000000  0.92401600  0.90116400  1
  Er  Er11  1  0.50000000  0.07598400  0.09883600  1
  Er  Er12  1  0.50000000  0.18442100  0.77693200  1
  Er  Er13  1  0.50000000  0.81557900  0.22306800  1
  Er  Er14  1  0.50000000  0.68442100  0.72306800  1
  Er  Er15  1  0.50000000  0.31557900  0.27693200  1
  Mo  Mo0  1  0.00000000  0.91629100  0.56079900  1
  Mo  Mo1  1  0.00000000  0.08370900  0.43920100  1
  Mo  Mo2  1  0.00000000  0.41629100  0.93920100  1
  Mo  Mo3  1  0.00000000  0.58370900  0.06079900  1
  Mo  Mo4  1  0.50000000  0.90378500  0.57138900  1
  Mo  Mo5  1  0.50000000  0.09621500  0.42861100  1
  Mo  Mo6  1  0.50000000  0.40378500  0.92861100  1
  Mo  Mo7  1  0.50000000  0.59621500  0.07138900  1
  Mo  Mo8  1  0.27495500  0.86369200  0.41405800  1
  Mo  Mo9  1  0.27495500  0.13630800  0.58594200  1
  Mo  Mo10  1  0.72504500  0.36369200  0.08594200  1
  Mo  Mo11  1  0.72504500  0.63630800  0.91405800  1
  Mo  Mo12  1  0.72504500  0.13630800  0.58594200  1
  Mo  Mo13  1  0.72504500  0.86369200  0.41405800  1
  Mo  Mo14  1  0.27495500  0.63630800  0.91405800  1
  Mo  Mo15  1  0.27495500  0.36369200  0.08594200  1
  O  O0  1  0.24560500  0.00000000  0.00000000  1
  O  O1  1  0.75439500  0.50000000  0.50000000  1
  O  O2  1  0.75439500  0.00000000  0.00000000  1
  O  O3  1  0.24560500  0.50000000  0.50000000  1
  O  O4  1  0.00000000  0.23289800  0.52266100  1
  O  O5  1  0.00000000  0.76710200  0.47733900  1
  O  O6  1  0.00000000  0.73289800  0.97733900  1
  O  O7  1  0.00000000  0.26710200  0.02266100  1
  O  O8  1  0.00000000  0.04795000  0.65505000  1
  O  O9  1  0.00000000  0.95205000  0.34495000  1
  O  O10  1  0.00000000  0.54795000  0.84495000  1
  O  O11  1  0.00000000  0.45205000  0.15505000  1
  O  O12  1  0.50000000  0.24864900  0.51346300  1
  O  O13  1  0.50000000  0.75135100  0.48653700  1
  O  O14  1  0.50000000  0.74864900  0.98653700  1
  O  O15  1  0.50000000  0.25135100  0.01346300  1
  O  O16  1  0.50000000  0.04120300  0.66744800  1
  O  O17  1  0.50000000  0.95879700  0.33255200  1
  O  O18  1  0.76265900  0.30988900  0.85972700  1
  O  O19  1  0.50000000  0.54120300  0.83255200  1
  O  O20  1  0.24743400  0.95987600  0.17233300  1
  O  O21  1  0.24743400  0.04012400  0.82766700  1
  O  O22  1  0.75256600  0.45987600  0.32766700  1
  O  O23  1  0.75256600  0.54012400  0.67233300  1
  O  O24  1  0.75256600  0.04012400  0.82766700  1
  O  O25  1  0.75256600  0.95987600  0.17233300  1
  O  O26  1  0.24743400  0.54012400  0.67233300  1
  O  O27  1  0.24743400  0.45987600  0.32766700  1
  O  O28  1  0.23734100  0.69011100  0.14027300  1
  O  O29  1  0.23734100  0.30988900  0.85972700  1
  O  O30  1  0.76265900  0.19011100  0.35972700  1
  O  O31  1  0.76265900  0.80988900  0.64027300  1
  O  O32  1  0.26429000  0.22301700  0.17503700  1
  O  O33  1  0.26429000  0.77698300  0.82496300  1
  O  O34  1  0.73571000  0.72301700  0.32496300  1
  O  O35  1  0.73571000  0.27698300  0.67503700  1
  O  O36  1  0.73571000  0.77698300  0.82496300  1
  O  O37  1  0.73571000  0.22301700  0.17503700  1
  O  O38  1  0.26429000  0.27698300  0.67503700  1
  O  O39  1  0.26429000  0.72301700  0.32496300  1
  O  O40  1  0.23734100  0.19011100  0.35972700  1
  O  O41  1  0.23734100  0.80988900  0.64027300  1
  O  O42  1  0.76265900  0.69011100  0.14027300  1
  O  O43  1  0.50000000  0.45879700  0.16744800  1
loop_
_geom_bond_atom_site_label_1
_geom_bond_atom_site_label_2
_geom_bond_distance
_geom_bond_site_symmetry_2
Er0 O23 2.221010 1_455
Er0 O26 2.221010 1_555
Er0 O3 2.235533 1_555
Er0 O1 2.235533 1_455
Er0 O5 2.280962 1_555
Er0 O41 2.687899 1_555
Er0 O31 2.687899 1_455
Er1 O27 2.221010 1_555
Er1 O22 2.221010 1_455
Er1 O3 2.235533 1_555
Er1 O1 2.235533 1_455
Er1 O4 2.280962 1_555
Er1 O40 2.687899 1_555
Er1 O30 2.687899 1_455
Er2 O21 2.221010 1_555
Er2 O24 2.221010 1_455
Er2 O0 2.235533 1_556
Er2 O2 2.235533 1_456
Er2 O7 2.280962 1_556
Er2 O29 2.687899 1_555
Er2 O18 2.687899 1_455
Er3 O20 2.221010 1_555
Er3 O25 2.221010 1_455
Er3 O2 2.235533 1_465
Er3 O0 2.235533 1_565
Er3 O6 2.280962 1_554
Er3 O28 2.687899 1_555
Er3 O42 2.687899 1_455
Er4 O35 2.250914 1_455
Er4 O38 2.250914 1_555
Er4 O23 2.276905 1_455
Er4 O26 2.276905 1_555
Er4 O10 2.325249 1_555
Er4 O18 2.590137 1_455
Er4 O29 2.590137 1_555
Er5 O39 2.250914 1_555
Er5 O34 2.250914 1_455
Er5 O27 2.276905 1_555
Er5 O22 2.276905 1_455
Er5 O11 2.325249 1_555
Er5 O28 2.590137 1_555
Er5 O42 2.590137 1_455
Er6 O36 2.250914 1_455
Er6 O33 2.250914 1_555
Er6 O24 2.276905 1_465
Er6 O21 2.276905 1_565
Er6 O8 2.325249 1_565
Er6 O31 2.590137 1_455
Er6 O41 2.590137 1_555
Er7 O32 2.250914 1_555
Er7 O37 2.250914 1_455
Er7 O20 2.276905 1_545
Er7 O25 2.276905 1_445
Er7 O9 2.325249 1_545
Er7 O30 2.590137 1_455
Er7 O40 2.590137 1_555
Er8 O23 2.236099 1_555
Er8 O26 2.236099 1_555
Er8 O1 2.291320 1_555
Er8 O3 2.291320 1_555
Er8 O12 2.322995 1_555
Er8 O38 2.402822 1_555
Er8 O35 2.402822 1_555
Er9 O22 2.236099 1_555
Er9 O27 2.236099 1_555
Er9 O3 2.291320 1_555
Er9 O1 2.291320 1_555
Er9 O13 2.322995 1_555
Er9 O34 2.402822 1_555
Er9 O39 2.402822 1_555
Er10 O21 2.236099 1_565
Er10 O24 2.236099 1_565
Er10 O0 2.291320 1_566
Er10 O2 2.291320 1_566
Er10 O14 2.322995 1_555
Er10 O33 2.402822 1_555
Er10 O36 2.402822 1_555
Er11 O25 2.236099 1_545
Er11 O20 2.236099 1_545
Er11 O2 2.291320 1_555
Er11 O0 2.291320 1_555
Er11 O15 2.322995 1_555
Er11 O37 2.402822 1_555
Er11 O32 2.402822 1_555
Er12 O24 2.264656 1_555
Er12 O21 2.264656 1_555
Er12 O16 2.325520 1_555
Er12 O38 2.330323 1_555
Er12 O35 2.330323 1_555
Er12 O29 2.408086 1_555
Er12 O18 2.408086 1_555
Er13 O25 2.264656 1_555
Er13 O20 2.264656 1_555
Er13 O17 2.325520 1_555
Er13 O39 2.330323 1_555
Er13 O34 2.330323 1_555
Er13 O28 2.408086 1_555
Er13 O42 2.408086 1_555
Er14 O23 2.264656 1_555
Er14 O26 2.264656 1_555
Er14 O19 2.325520 1_555
Er14 O36 2.330323 1_555
Er14 O33 2.330323 1_555
Er14 O31 2.408086 1_555
Er14 O41 2.408086 1_555
Er15 O22 2.264656 1_555
Er15 O27 2.264656 1_555
Er15 O43 2.325520 1_555
Er15 O37 2.330323 1_555
Er15 O32 2.330323 1_555
Er15 O40 2.408086 1_555
Er15 O30 2.408086 1_555
Mo0 O8 2.062480 1_565
Mo0 O5 2.081986 1_555
Mo0 O41 2.177309 1_555
Mo0 O31 2.177309 1_455
Mo1 O9 2.062480 1_545
Mo1 O4 2.081986 1_555
Mo1 O40 2.177309 1_555
Mo1 O30 2.177309 1_455
Mo2 O10 2.062480 1_555
Mo2 O7 2.081986 1_556
Mo2 O29 2.177309 1_555
Mo2 O18 2.177309 1_455
Mo3 O11 2.062480 1_555
Mo3 O6 2.081986 1_554
Mo3 O28 2.177309 1_555
Mo3 O42 2.177309 1_455
Mo4 O41 2.112974 1_555
Mo4 O31 2.112974 1_555
Mo4 O13 2.122969 1_555
Mo4 O16 2.125994 1_565
Mo5 O40 2.112974 1_555
Mo5 O30 2.112974 1_555
Mo5 O12 2.122969 1_555
Mo5 O17 2.125994 1_545
Mo6 O29 2.112974 1_555
Mo6 O18 2.112974 1_555
Mo6 O15 2.122969 1_556
Mo6 O19 2.125994 1_555
Mo7 O28 2.112974 1_555
Mo7 O42 2.112974 1_555
Mo7 O14 2.122969 1_554
Mo7 O43 2.125994 1_555
Mo8 O39 2.073801 1_555
Mo8 O17 2.091972 1_555
Mo8 O13 2.106120 1_555
Mo8 O5 2.133262 1_555
Mo8 O9 2.138012 1_555
Mo9 O38 2.073801 1_555
Mo9 O16 2.091972 1_555
Mo9 O12 2.106120 1_555
Mo9 O4 2.133262 1_555
Mo9 O8 2.138012 1_555
Mo10 O37 2.073801 1_555
Mo10 O43 2.091972 1_555
Mo10 O15 2.106120 1_555
Mo10 O7 2.133262 1_655
Mo10 O11 2.138012 1_655
Mo11 O36 2.073801 1_555
Mo11 O19 2.091972 1_555
Mo11 O14 2.106120 1_555
Mo11 O6 2.133262 1_655
Mo11 O10 2.138012 1_655
Mo12 O35 2.073801 1_555
Mo12 O16 2.091972 1_555
Mo12 O12 2.106120 1_555
Mo12 O4 2.133262 1_655
Mo12 O8 2.138012 1_655
Mo13 O34 2.073801 1_555
Mo13 O17 2.091972 1_555
Mo13 O13 2.106120 1_555
Mo13 O5 2.133262 1_655
Mo13 O9 2.138012 1_655
Mo14 O33 2.073801 1_555
Mo14 O19 2.091972 1_555
Mo14 O14 2.106120 1_555
Mo14 O6 2.133262 1_555
Mo14 O10 2.138012 1_555
Mo15 O32 2.073801 1_555
Mo15 O43 2.091972 1_555
Mo15 O15 2.106120 1_555
Mo15 O7 2.133262 1_555
Mo15 O11 2.138012 1_555
