# generated using pymatgen
data_K(PRu)2
_symmetry_space_group_name_H-M   'P 1'
_cell_length_a   6.86402420
_cell_length_b   6.86402420
_cell_length_c   6.86402420
_cell_angle_alpha   145.91802082
_cell_angle_beta   145.91802082
_cell_angle_gamma   48.96854546
_symmetry_Int_Tables_number   1
_chemical_formula_structural   K(PRu)2
_chemical_formula_sum   'K1 P2 Ru2'
_cell_volume   101.10536202
_cell_formula_units_Z   1
loop_
 _symmetry_equiv_pos_site_id
 _symmetry_equiv_pos_as_xyz
  1  'x, y, z'
loop_
 _atom_site_type_symbol
 _atom_site_label
 _atom_site_symmetry_multiplicity
 _atom_site_fract_x
 _atom_site_fract_y
 _atom_site_fract_z
 _atom_site_occupancy
  K  K0  1  -0.00000000  -0.00000000  0.00000000  1
  P  P0  1  0.33872204  0.33872204  -0.00000000  1
  P  P1  1  0.66127796  0.66127796  0.00000000  1
  Ru  Ru0  1  0.75000000  0.25000000  0.50000000  1
  Ru  Ru1  1  0.25000000  0.75000000  0.50000000  1
loop_
_geom_bond_atom_site_label_1
_geom_bond_atom_site_label_2
_geom_bond_distance
_geom_bond_site_symmetry_2
K0 P0 3.486053 1_545
K0 P0 3.486053 1_455
K0 P0 3.486053 1_556
K0 P1 3.486053 1_556
K0 P0 3.486053 1_444
K0 P1 3.486053 1_444
K0 P1 3.486053 1_545
K0 P1 3.486053 1_455
P0 Ru1 2.296730 1_544
P0 Ru1 2.296730 1_555
P0 Ru0 2.296730 1_454
P0 Ru0 2.296730 1_555
P1 Ru1 2.296730 1_655
P1 Ru1 2.296730 1_554
P1 Ru0 2.296730 1_565
P1 Ru0 2.296730 1_554
