# generated using pymatgen
data_Li4Mn3CoO8
_symmetry_space_group_name_H-M   'P 1'
_cell_length_a   5.05874443
_cell_length_b   5.09601213
_cell_length_c   6.14449056
_cell_angle_alpha   87.77255658
_cell_angle_beta   86.35407143
_cell_angle_gamma   106.08795127
_symmetry_Int_Tables_number   1
_chemical_formula_structural   Li4Mn3CoO8
_chemical_formula_sum   'Li4 Mn3 Co1 O8'
_cell_volume   151.62619437
_cell_formula_units_Z   1
loop_
 _symmetry_equiv_pos_site_id
 _symmetry_equiv_pos_as_xyz
  1  'x, y, z'
loop_
 _atom_site_type_symbol
 _atom_site_label
 _atom_site_symmetry_multiplicity
 _atom_site_fract_x
 _atom_site_fract_y
 _atom_site_fract_z
 _atom_site_occupancy
  Li  Li0  1  0.49998700  0.50008900  0.49998100  1
  Li  Li1  1  0.49999200  0.50011200  0.99996300  1
  Li  Li2  1  0.99139800  0.49803100  0.24855700  1
  Li  Li3  1  0.00848100  0.50197700  0.75142600  1
  Mn  Mn0  1  0.99996100  0.99969600  0.49998600  1
  Mn  Mn1  1  0.49765200  0.99200200  0.24928500  1
  Mn  Mn2  1  0.50236400  0.00808600  0.75072300  1
  Co  Co0  1  0.99996700  0.00013400  0.00001600  1
  O  O0  1  0.75306300  0.22615000  0.01459300  1
  O  O1  1  0.24687000  0.77405100  0.98537800  1
  O  O2  1  0.23988200  0.21817500  0.25054100  1
  O  O3  1  0.76011400  0.78173300  0.74957700  1
  O  O4  1  0.75167700  0.23206300  0.51205800  1
  O  O5  1  0.24858800  0.76758300  0.48795600  1
  O  O6  1  0.26343000  0.24264100  0.75441900  1
  O  O7  1  0.73657400  0.75747900  0.24554200  1
loop_
_geom_bond_atom_site_label_1
_geom_bond_atom_site_label_2
_geom_bond_distance
_geom_bond_site_symmetry_2
Li0 O7 2.080784 1_555
Li0 O6 2.080857 1_555
Li0 O5 2.108544 1_555
Li0 O4 2.111916 1_555
Li0 O2 2.350395 1_555
Li0 O3 2.350464 1_555
Li1 O0 2.142813 1_556
Li1 O1 2.142904 1_555
Li1 O3 2.163889 1_555
Li1 O2 2.165381 1_556
Li1 O7 2.223291 1_556
Li1 O6 2.223338 1_555
Li2 O7 2.087083 1_555
Li2 O4 2.144255 1_555
Li2 O2 2.146694 1_655
Li2 O1 2.194004 1_654
Li2 O0 2.211199 1_555
Li2 O5 2.270111 1_655
Li3 O6 2.087122 1_555
Li3 O5 2.143970 1_555
Li3 O3 2.145804 1_455
Li3 O0 2.193413 1_456
Li3 O1 2.211752 1_555
Li3 O4 2.269976 1_455
Mn0 O4 1.950519 1_565
Mn0 O5 1.950901 1_655
Mn0 O3 1.985415 1_555
Mn0 O2 1.985877 1_665
Mn0 O7 2.290558 1_555
Mn0 O6 2.292207 1_665
Mn1 O7 1.920643 1_555
Mn1 O2 1.965015 1_565
Mn1 O5 1.970300 1_555
Mn1 O0 1.986847 1_565
Mn1 O1 2.256827 1_554
Mn1 O4 2.302398 1_565
Mn2 O6 1.920822 1_555
Mn2 O3 1.965649 1_545
Mn2 O4 1.969977 1_555
Mn2 O1 1.986655 1_545
Mn2 O0 2.256664 1_556
Mn2 O5 2.302708 1_545
Co0 O0 1.919839 1_555
Co0 O1 1.920113 1_644
Co0 O7 2.065583 1_545
Co0 O6 2.065732 1_654
Co0 O2 2.168035 1_655
Co0 O3 2.168193 1_544
