# generated using pymatgen
data_Sr2Ca6Mn7FeO20
_symmetry_space_group_name_H-M   'P 1'
_cell_length_a   10.96801270
_cell_length_b   11.16127312
_cell_length_c   17.29634795
_cell_angle_alpha   108.73664956
_cell_angle_beta   108.34476525
_cell_angle_gamma   90.11975375
_symmetry_Int_Tables_number   1
_chemical_formula_structural   Sr2Ca6Mn7FeO20
_chemical_formula_sum   'Sr8 Ca24 Mn28 Fe4 O80'
_cell_volume   1890.67208054
_cell_formula_units_Z   4
loop_
 _symmetry_equiv_pos_site_id
 _symmetry_equiv_pos_as_xyz
  1  'x, y, z'
loop_
 _atom_site_type_symbol
 _atom_site_label
 _atom_site_symmetry_multiplicity
 _atom_site_fract_x
 _atom_site_fract_y
 _atom_site_fract_z
 _atom_site_occupancy
  Sr  Sr0  1  0.30829800  0.56047000  0.60945500  1
  Sr  Sr1  1  0.80682400  0.05996900  0.60954800  1
  Sr  Sr2  1  0.19907300  0.44073400  0.89177800  1
  Sr  Sr3  1  0.05781800  0.29793700  0.60841400  1
  Sr  Sr4  1  0.05855200  0.80025700  0.60952200  1
  Sr  Sr5  1  0.55887600  0.29941200  0.61038300  1
  Sr  Sr6  1  0.44894400  0.20056300  0.88983900  1
  Sr  Sr7  1  0.94571400  0.19991800  0.38665200  1
  Ca  Ca0  1  0.30579600  0.06448400  0.10874700  1
  Ca  Ca1  1  0.30748400  0.05970000  0.60376600  1
  Ca  Ca2  1  0.30568400  0.56556700  0.10924300  1
  Ca  Ca3  1  0.80362900  0.06207700  0.10515400  1
  Ca  Ca4  1  0.80681400  0.56326000  0.10801800  1
  Ca  Ca5  1  0.80685600  0.56157800  0.60601700  1
  Ca  Ca6  1  0.19901000  0.43656500  0.39215900  1
  Ca  Ca7  1  0.19940100  0.93530000  0.39152000  1
  Ca  Ca8  1  0.19915500  0.93836200  0.89566100  1
  Ca  Ca9  1  0.69861700  0.43680100  0.39250800  1
  Ca  Ca10  1  0.70126300  0.43734600  0.89521100  1
  Ca  Ca11  1  0.69892300  0.93550400  0.39209800  1
  Ca  Ca12  1  0.69946600  0.93673900  0.89345100  1
  Ca  Ca13  1  0.05760100  0.29374300  0.10875000  1
  Ca  Ca14  1  0.05618700  0.79278200  0.10788800  1
  Ca  Ca15  1  0.55801000  0.29388500  0.10918900  1
  Ca  Ca16  1  0.55646600  0.79332500  0.10801100  1
  Ca  Ca17  1  0.55766000  0.79422900  0.60570400  1
  Ca  Ca18  1  0.45049500  0.20566200  0.39170200  1
  Ca  Ca19  1  0.44895600  0.70648800  0.39261800  1
  Ca  Ca20  1  0.45097700  0.70829500  0.89510800  1
  Ca  Ca21  1  0.95075400  0.20722600  0.89464000  1
  Ca  Ca22  1  0.94936900  0.70504500  0.39169900  1
  Ca  Ca23  1  0.94830600  0.70740400  0.89422600  1
  Mn  Mn0  1  0.00442200  0.99810600  0.49760900  1
  Mn  Mn1  1  0.00292200  0.50016100  0.49697400  1
  Mn  Mn2  1  0.50410500  0.99868600  0.49760700  1
  Mn  Mn3  1  0.50727100  0.50110400  0.00214400  1
  Mn  Mn4  1  0.50437900  0.49934600  0.49723900  1
  Mn  Mn5  1  0.25683800  0.25153600  0.00288100  1
  Mn  Mn6  1  0.25435200  0.24720000  0.49676700  1
  Mn  Mn7  1  0.25646200  0.75267900  0.00188100  1
  Mn  Mn8  1  0.25501800  0.74986500  0.49690600  1
  Mn  Mn9  1  0.75725100  0.25080700  0.00098600  1
  Mn  Mn10  1  0.75292900  0.25011300  0.49788300  1
  Mn  Mn11  1  0.75278600  0.74748100  0.49669500  1
  Mn  Mn12  1  0.11174600  0.09411200  0.24736100  1
  Mn  Mn13  1  0.11167000  0.09281700  0.75294000  1
  Mn  Mn14  1  0.11084200  0.59608400  0.25006700  1
  Mn  Mn15  1  0.10824200  0.60097600  0.75125500  1
  Mn  Mn16  1  0.60755300  0.09610100  0.24977100  1
  Mn  Mn17  1  0.61102200  0.09245700  0.74931600  1
  Mn  Mn18  1  0.60836300  0.59490200  0.24962900  1
  Mn  Mn19  1  0.61523500  0.60327400  0.75277300  1
  Mn  Mn20  1  0.35793800  0.40527200  0.25069200  1
  Mn  Mn21  1  0.36740300  0.40617000  0.75165700  1
  Mn  Mn22  1  0.35865200  0.90332500  0.25005100  1
  Mn  Mn23  1  0.36466900  0.90160800  0.74976900  1
  Mn  Mn24  1  0.85713700  0.40674300  0.24820400  1
  Mn  Mn25  1  0.86088100  0.40735700  0.75253600  1
  Mn  Mn26  1  0.85790400  0.89910800  0.24761200  1
  Mn  Mn27  1  0.85836300  0.89938200  0.75154500  1
  Fe  Fe0  1  0.00578500  0.00023800  0.00061400  1
  Fe  Fe1  1  0.00639400  0.50083200  0.00222500  1
  Fe  Fe2  1  0.50679000  0.00144700  0.00286600  1
  Fe  Fe3  1  0.75572900  0.74962100  0.00092100  1
  O  O0  1  0.12734300  0.11782400  0.49006200  1
  O  O1  1  0.12549700  0.12291200  0.99004600  1
  O  O2  1  0.12276800  0.62126700  0.48559200  1
  O  O3  1  0.12508300  0.62816100  0.99144000  1
  O  O4  1  0.61994700  0.11790400  0.48417300  1
  O  O5  1  0.63082400  0.12159100  0.99181800  1
  O  O6  1  0.62310000  0.61933700  0.48799200  1
  O  O7  1  0.62341400  0.61832600  0.98993700  1
  O  O8  1  0.13861900  0.37858200  0.01540400  1
  O  O9  1  0.13172600  0.37735100  0.50334100  1
  O  O10  1  0.13745300  0.88115800  0.01257200  1
  O  O11  1  0.13532500  0.87921600  0.50555200  1
  O  O12  1  0.64112200  0.37897900  0.01493500  1
  O  O13  1  0.63447800  0.38105500  0.50714200  1
  O  O14  1  0.63404700  0.87789400  0.01284900  1
  O  O15  1  0.62980600  0.87306600  0.50576800  1
  O  O16  1  0.37109800  0.11503100  0.48530800  1
  O  O17  1  0.37273600  0.12021400  0.99329900  1
  O  O18  1  0.37449300  0.61978800  0.48710400  1
  O  O19  1  0.37688800  0.62725000  0.99356600  1
  O  O20  1  0.87104800  0.11608800  0.48866800  1
  O  O21  1  0.87462700  0.11935500  0.98890900  1
  O  O22  1  0.87100600  0.61747100  0.48671000  1
  O  O23  1  0.87231900  0.61578500  0.98770800  1
  O  O24  1  0.38834600  0.38561300  0.01706100  1
  O  O25  1  0.38191400  0.37772500  0.50288300  1
  O  O26  1  0.38368700  0.88219200  0.01251200  1
  O  O27  1  0.38565100  0.88094900  0.51034800  1
  O  O28  1  0.88610400  0.37967300  0.01369900  1
  O  O29  1  0.87907700  0.38340400  0.50681200  1
  O  O30  1  0.88670600  0.88352300  0.01394300  1
  O  O31  1  0.88022800  0.87569000  0.50268900  1
  O  O32  1  0.08477300  0.09519900  0.13407000  1
  O  O33  1  0.07569700  0.07889000  0.63410400  1
  O  O34  1  0.08165100  0.59623200  0.13189000  1
  O  O35  1  0.07154900  0.58547100  0.63309600  1
  O  O36  1  0.58088900  0.09605000  0.13298300  1
  O  O37  1  0.57509300  0.08421500  0.62914700  1
  O  O38  1  0.58019400  0.59429700  0.13422400  1
  O  O39  1  0.57669800  0.58921500  0.63332100  1
  O  O40  1  0.44501100  0.40874100  0.36534400  1
  O  O41  1  0.44787800  0.41252600  0.87023800  1
  O  O42  1  0.44332600  0.90584000  0.36505900  1
  O  O43  1  0.45130500  0.91061000  0.86738300  1
  O  O44  1  0.94246000  0.41380700  0.36230800  1
  O  O45  1  0.94815900  0.40424800  0.86894300  1
  O  O46  1  0.94449900  0.90990900  0.36389400  1
  O  O47  1  0.94622300  0.90467300  0.86736200  1
  O  O48  1  0.32947700  0.29143700  0.13744700  1
  O  O49  1  0.32563600  0.29312000  0.63144400  1
  O  O50  1  0.32999700  0.79220300  0.13471400  1
  O  O51  1  0.32445600  0.79514100  0.63096000  1
  O  O52  1  0.82995000  0.29047800  0.13383900  1
  O  O53  1  0.82046000  0.29851400  0.63174500  1
  O  O54  1  0.82804600  0.78535500  0.13407400  1
  O  O55  1  0.82175200  0.79376100  0.63239200  1
  O  O56  1  0.19107900  0.20487000  0.36331900  1
  O  O57  1  0.19382500  0.20590200  0.86715200  1
  O  O58  1  0.19934400  0.71279900  0.36914200  1
  O  O59  1  0.19649800  0.71098300  0.86839400  1
  O  O60  1  0.69018000  0.21123500  0.36771400  1
  O  O61  1  0.69586600  0.21192100  0.86920600  1
  O  O62  1  0.69233500  0.70721800  0.36534100  1
  O  O63  1  0.69881500  0.71430100  0.86735800  1
  O  O64  1  0.42230100  0.07017300  0.24982200  1
  O  O65  1  0.42418200  0.06435000  0.74247900  1
  O  O66  1  0.42570400  0.57294600  0.25005000  1
  O  O67  1  0.43853300  0.57878200  0.75771100  1
  O  O68  1  0.92904300  0.06076400  0.24026300  1
  O  O69  1  0.93286500  0.06894500  0.75750000  1
  O  O70  1  0.92272600  0.57162200  0.24937200  1
  O  O71  1  0.92687100  0.57910200  0.75153900  1
  O  O72  1  0.17752100  0.42237800  0.25024200  1
  O  O73  1  0.18602700  0.44168300  0.75003600  1
  O  O74  1  0.17554600  0.92417000  0.24906400  1
  O  O75  1  0.18607600  0.93145400  0.75891800  1
  O  O76  1  0.67412300  0.42491000  0.24973300  1
  O  O77  1  0.68236200  0.43917000  0.75898500  1
  O  O78  1  0.67947900  0.92551300  0.25020200  1
  O  O79  1  0.67701500  0.92096800  0.75058000  1
loop_
_geom_bond_atom_site_label_1
_geom_bond_atom_site_label_2
_geom_bond_distance
_geom_bond_site_symmetry_2
Ca0 O64 2.351237 1_555
Ca0 O48 2.416332 1_555
Ca0 O10 2.495436 1_545
Ca0 O26 2.523245 1_545
Ca0 O17 2.575298 1_554
Ca0 O32 2.600268 1_555
Ca0 O1 2.619339 1_554
Ca0 O36 2.916849 1_555
Ca1 O65 2.320335 1_555
Ca1 O27 2.476758 1_545
Ca1 O49 2.488534 1_555
Ca1 O11 2.505133 1_545
Ca1 O0 2.563484 1_555
Ca1 O16 2.603286 1_555
Ca1 O33 2.748456 1_555
Ca1 O37 2.826839 1_555
Ca2 O66 2.350249 1_555
Ca2 O50 2.423035 1_555
Ca2 O24 2.501695 1_555
Ca2 O8 2.506642 1_555
Ca2 O34 2.613743 1_555
Ca2 O3 2.634987 1_554
Ca2 O19 2.636913 1_554
Ca2 O38 2.905628 1_555
Ca3 O68 2.313452 1_555
Ca3 O52 2.433591 1_555
Ca3 O30 2.486639 1_545
Ca3 O14 2.498143 1_545
Ca3 O5 2.525735 1_554
Ca3 O21 2.620475 1_554
Ca3 O36 2.640192 1_555
Ca3 O32 2.966649 1_655
Ca4 O70 2.344974 1_555
Ca4 O54 2.369793 1_555
Ca4 O12 2.477985 1_555
Ca4 O28 2.523748 1_555
Ca4 O7 2.611672 1_554
Ca4 O23 2.629292 1_554
Ca4 O38 2.667474 1_555
Ca4 O34 2.916658 1_655
Ca5 O71 2.388170 1_555
Ca5 O55 2.478363 1_555
Ca5 O29 2.489258 1_555
Ca5 O13 2.508789 1_555
Ca5 O22 2.623301 1_555
Ca5 O6 2.627919 1_555
Ca5 O39 2.711226 1_555
Ca5 O35 2.789159 1_655
Ca6 O72 2.343476 1_555
Ca6 O56 2.467158 1_555
Ca6 O2 2.505650 1_555
Ca6 O9 2.527304 1_555
Ca6 O18 2.533729 1_555
Ca6 O25 2.553144 1_555
Ca6 O44 2.692038 1_455
Ca6 O40 2.879273 1_555
Ca7 O74 2.356363 1_555
Ca7 O58 2.387338 1_555
Ca7 O16 2.484485 1_565
Ca7 O0 2.510739 1_565
Ca7 O11 2.537659 1_555
Ca7 O27 2.632212 1_555
Ca7 O46 2.682115 1_455
Ca7 O42 2.855339 1_555
Ca8 O75 2.299937 1_555
Ca8 O59 2.426110 1_555
Ca8 O1 2.497489 1_565
Ca8 O17 2.520748 1_565
Ca8 O10 2.577536 1_556
Ca8 O26 2.611257 1_556
Ca8 O47 2.664508 1_455
Ca8 O43 2.956575 1_555
Ca9 O76 2.357930 1_555
Ca9 O60 2.410649 1_555
Ca9 O22 2.496023 1_555
Ca9 O6 2.504155 1_555
Ca9 O29 2.545618 1_555
Ca9 O13 2.545981 1_555
Ca9 O40 2.671154 1_555
Ca9 O44 2.878826 1_555
Ca10 O77 2.306186 1_555
Ca10 O61 2.406616 1_555
Ca10 O23 2.468595 1_555
Ca10 O7 2.501072 1_555
Ca10 O12 2.621515 1_556
Ca10 O28 2.638590 1_556
Ca10 O41 2.674165 1_555
Ca10 O45 2.889073 1_555
Ca11 O78 2.361362 1_555
Ca11 O62 2.435598 1_555
Ca11 O4 2.494784 1_565
Ca11 O20 2.500553 1_565
Ca11 O31 2.547651 1_555
Ca11 O15 2.596533 1_555
Ca11 O42 2.694198 1_555
Ca11 O46 2.883609 1_555
Ca12 O79 2.352769 1_555
Ca12 O63 2.376038 1_555
Ca12 O5 2.505178 1_565
Ca12 O21 2.529090 1_565
Ca12 O43 2.614656 1_555
Ca12 O14 2.648240 1_556
Ca12 O30 2.649503 1_556
Ca12 O47 2.885401 1_555
Ca13 O72 2.342896 1_555
Ca13 O32 2.394862 1_555
Ca13 O8 2.484909 1_555
Ca13 O28 2.496947 1_455
Ca13 O1 2.618937 1_554
Ca13 O21 2.624070 1_454
Ca13 O52 2.667557 1_455
Ca13 O48 2.866330 1_555
Ca14 O74 2.346520 1_555
Ca14 O34 2.361682 1_555
Ca14 O30 2.507043 1_455
Ca14 O10 2.539959 1_555
Ca14 O3 2.567107 1_554
Ca14 O23 2.645177 1_454
Ca14 O54 2.685131 1_455
Ca14 O50 2.891216 1_555
Ca15 O76 2.330113 1_555
Ca15 O36 2.372577 1_555
Ca15 O24 2.497940 1_555
Ca15 O12 2.513416 1_555
Ca15 O17 2.613050 1_554
Ca15 O5 2.641216 1_554
Ca15 O48 2.702202 1_555
Ca15 O52 2.879200 1_555
Ca16 O78 2.370138 1_555
Ca16 O38 2.404811 1_555
Ca16 O14 2.490082 1_555
Ca16 O26 2.528520 1_555
Ca16 O19 2.531191 1_554
Ca16 O7 2.629123 1_554
Ca16 O50 2.666278 1_555
Ca16 O54 2.874956 1_555
Ca17 O79 2.375718 1_555
Ca17 O39 2.479742 1_555
Ca17 O15 2.494677 1_555
Ca17 O27 2.508162 1_555
Ca17 O6 2.615963 1_555
Ca17 O18 2.618864 1_555
Ca17 O51 2.726494 1_555
Ca17 O55 2.786245 1_555
Ca18 O64 2.353907 1_555
Ca18 O40 2.448713 1_555
Ca18 O4 2.472780 1_555
Ca18 O16 2.517707 1_555
Ca18 O25 2.548711 1_555
Ca18 O13 2.612885 1_555
Ca18 O56 2.730302 1_555
Ca18 O60 2.790957 1_555
Ca19 O66 2.368256 1_555
Ca19 O42 2.417678 1_555
Ca19 O18 2.475294 1_555
Ca19 O6 2.524061 1_555
Ca19 O15 2.534717 1_555
Ca19 O27 2.601640 1_555
Ca19 O58 2.642825 1_555
Ca19 O62 2.853663 1_555
Ca20 O67 2.311676 1_555
Ca20 O43 2.454724 1_555
Ca20 O19 2.497260 1_555
Ca20 O7 2.527641 1_555
Ca20 O14 2.587628 1_556
Ca20 O26 2.617773 1_556
Ca20 O59 2.683702 1_555
Ca20 O63 2.909493 1_555
Ca21 O69 2.323979 1_555
Ca21 O45 2.377864 1_555
Ca21 O21 2.489675 1_555
Ca21 O1 2.509245 1_655
Ca21 O28 2.612766 1_556
Ca21 O8 2.640907 1_656
Ca21 O61 2.693142 1_555
Ca21 O57 2.850855 1_655
Ca22 O70 2.356563 1_555
Ca22 O46 2.480569 1_555
Ca22 O2 2.483463 1_655
Ca22 O22 2.512404 1_555
Ca22 O31 2.541933 1_555
Ca22 O11 2.610106 1_655
Ca22 O62 2.711903 1_555
Ca22 O58 2.893238 1_655
Ca23 O71 2.357895 1_555
Ca23 O47 2.390607 1_555
Ca23 O23 2.502306 1_555
Ca23 O3 2.505842 1_655
Ca23 O30 2.622862 1_556
Ca23 O63 2.633111 1_555
Ca23 O10 2.648515 1_656
Ca23 O59 2.896215 1_655
Mn0 O0 1.958425 1_565
Mn0 O11 1.960101 1_555
Mn0 O31 1.968430 1_455
Mn0 O20 1.973413 1_465
Mn0 O46 2.080335 1_455
Mn0 O33 2.113185 1_565
Mn1 O22 1.958269 1_455
Mn1 O29 1.962854 1_455
Mn1 O9 1.973302 1_555
Mn1 O2 1.979924 1_555
Mn1 O44 2.092084 1_455
Mn1 O35 2.111329 1_555
Mn2 O4 1.953526 1_565
Mn2 O27 1.955115 1_555
Mn2 O16 1.962068 1_565
Mn2 O15 1.974655 1_555
Mn2 O37 2.044598 1_565
Mn2 O42 2.069558 1_555
Mn3 O7 1.928436 1_554
Mn3 O24 1.961636 1_555
Mn3 O19 2.014552 1_554
Mn3 O12 2.014899 1_555
Mn3 O41 2.054187 1_554
Mn3 O38 2.064064 1_555
Mn4 O6 1.943230 1_555
Mn4 O13 1.951385 1_555
Mn4 O25 1.953565 1_555
Mn4 O18 1.967103 1_555
Mn4 O40 2.056959 1_555
Mn4 O39 2.116607 1_555
Mn5 O8 1.930291 1_555
Mn5 O1 1.941839 1_554
Mn5 O17 1.943199 1_554
Mn5 O24 1.978015 1_555
Mn5 O48 2.101354 1_555
Mn5 O57 2.111260 1_554
Mn6 O0 1.954853 1_555
Mn6 O16 1.958275 1_555
Mn6 O25 1.972391 1_555
Mn6 O9 1.982516 1_555
Mn6 O56 2.078988 1_555
Mn6 O49 2.094057 1_555
Mn7 O3 1.925375 1_554
Mn7 O19 1.929532 1_554
Mn7 O26 1.931274 1_555
Mn7 O10 1.945177 1_555
Mn7 O50 2.074773 1_555
Mn7 O59 2.081453 1_554
Mn8 O27 1.952051 1_555
Mn8 O11 1.955230 1_555
Mn8 O2 1.958216 1_555
Mn8 O18 1.960450 1_555
Mn8 O58 1.997415 1_555
Mn8 O51 2.084609 1_555
Mn9 O12 1.925191 1_555
Mn9 O28 1.925382 1_555
Mn9 O5 1.932419 1_554
Mn9 O21 1.958024 1_554
Mn9 O61 2.057715 1_554
Mn9 O52 2.074511 1_555
Mn10 O13 1.959070 1_555
Mn10 O29 1.964869 1_555
Mn10 O4 1.977256 1_555
Mn10 O20 1.981514 1_555
Mn10 O60 2.031432 1_555
Mn10 O53 2.077610 1_555
Mn11 O22 1.950525 1_555
Mn11 O15 1.951557 1_555
Mn11 O6 1.951895 1_555
Mn11 O31 1.953805 1_555
Mn11 O62 2.048882 1_555
Mn11 O55 2.109421 1_555
Mn12 O32 1.891500 1_555
Mn12 O56 1.900544 1_555
Mn12 O68 1.995456 1_455
Mn12 O74 2.028973 1_545
Mn13 O57 1.892186 1_555
Mn13 O33 1.920579 1_555
Mn13 O75 1.998252 1_545
Mn13 O69 2.007970 1_455
Mn14 O34 1.967434 1_555
Mn14 O58 1.973240 1_555
Mn14 O72 2.074134 1_555
Mn14 O70 2.076451 1_455
Mn15 O35 1.903539 1_555
Mn15 O59 1.926622 1_555
Mn15 O73 1.970497 1_555
Mn15 O71 2.005431 1_455
Mn16 O60 1.944593 1_555
Mn16 O36 1.947653 1_555
Mn16 O64 2.052067 1_555
Mn16 O78 2.063790 1_545
Mn17 O37 1.960941 1_555
Mn17 O61 1.986888 1_555
Mn17 O65 2.032933 1_555
Mn17 O79 2.051981 1_545
Mn18 O62 1.910070 1_555
Mn18 O38 1.919112 1_555
Mn18 O66 2.020401 1_555
Mn18 O76 2.031541 1_555
Mn19 O63 1.891485 1_555
Mn19 O39 1.927101 1_555
Mn19 O67 1.988747 1_555
Mn19 O77 1.997667 1_555
Mn20 O48 1.887589 1_555
Mn20 O40 1.898548 1_555
Mn20 O72 1.986219 1_555
Mn20 O66 2.016837 1_555
Mn21 O41 1.938426 1_555
Mn21 O49 1.959019 1_555
Mn21 O73 2.022541 1_555
Mn21 O67 2.035674 1_555
Mn22 O42 1.903001 1_555
Mn22 O50 1.905485 1_555
Mn22 O64 1.989053 1_565
Mn22 O74 2.017585 1_555
Mn23 O51 1.920410 1_555
Mn23 O43 1.924286 1_555
Mn23 O65 1.983758 1_565
Mn23 O75 2.033944 1_555
Mn24 O44 1.874608 1_555
Mn24 O52 1.914089 1_555
Mn24 O70 1.966191 1_555
Mn24 O76 2.025522 1_555
Mn25 O45 1.950182 1_555
Mn25 O53 1.954852 1_555
Mn25 O77 2.021687 1_555
Mn25 O71 2.054732 1_555
Mn26 O54 1.888742 1_555
Mn26 O46 1.898175 1_555
Mn26 O78 1.991908 1_555
Mn26 O68 2.020962 1_565
Mn27 O47 1.911440 1_555
Mn27 O55 1.927329 1_555
Mn27 O79 1.999561 1_555
Mn27 O69 2.018751 1_565
Fe0 O30 1.957371 1_445
Fe0 O21 1.968640 1_454
Fe0 O10 1.972659 1_545
Fe0 O1 1.984045 1_554
Fe0 O47 2.084812 1_444
Fe0 O32 2.089923 1_555
Fe1 O23 1.963185 1_454
Fe1 O28 1.984567 1_455
Fe1 O8 2.004230 1_555
Fe1 O3 2.016073 1_554
Fe1 O34 2.035148 1_555
Fe1 O45 2.087621 1_454
Fe2 O14 1.972037 1_545
Fe2 O26 1.974709 1_545
Fe2 O17 1.985520 1_554
Fe2 O5 2.001506 1_554
Fe2 O36 2.039318 1_555
Fe2 O43 2.112586 1_544
Fe3 O14 1.965969 1_555
Fe3 O23 1.972679 1_554
Fe3 O30 1.979674 1_555
Fe3 O7 1.982000 1_554
Fe3 O54 2.085902 1_555
Fe3 O63 2.094765 1_554
O0 Sr7 2.612437 1_455
O0 Sr3 2.675528 1_555
O2 Sr4 2.699440 1_555
O2 Sr0 2.717827 1_555
O3 Sr2 2.564599 1_555
O4 Sr5 2.720868 1_555
O4 Sr1 2.725865 1_555
O5 Sr6 2.580480 1_555
O8 Sr2 2.708611 1_554
O9 Sr0 2.575383 1_555
O9 Sr3 2.589368 1_555
O9 Sr7 2.642176 1_455
O11 Sr4 2.586079 1_555
O12 Sr6 2.726452 1_554
O13 Sr5 2.584744 1_555
O15 Sr1 2.593653 1_565
O16 Sr5 2.733936 1_555
O17 Sr6 2.583505 1_555
O18 Sr0 2.703533 1_555
O19 Sr2 2.589206 1_555
O20 Sr7 2.574219 1_555
O20 Sr1 2.650742 1_555
O20 Sr3 2.686424 1_655
O22 Sr4 2.711738 1_655
O24 Sr2 2.722838 1_554
O24 Sr6 2.748865 1_554
O25 Sr0 2.595822 1_555
O25 Sr5 2.601521 1_555
O29 Sr3 2.599554 1_655
O29 Sr7 2.697350 1_555
O31 Sr4 2.584583 1_655
O31 Sr1 2.606919 1_565
O33 Sr3 2.618821 1_555
O33 Sr1 2.841295 1_455
O33 Sr4 2.997560 1_545
O35 Sr4 2.554675 1_555
O35 Sr0 2.754238 1_555
O35 Sr3 3.095404 1_555
O37 Sr5 2.524323 1_555
O37 Sr1 2.671012 1_555
O39 Sr0 2.843488 1_555
O39 Sr5 3.127645 1_555
O41 Sr6 2.494969 1_555
O41 Sr2 2.872805 1_555
O43 Sr6 3.134320 1_565
O44 Sr7 2.552315 1_555
O45 Sr2 2.665197 1_655
O46 Sr7 3.132158 1_565
O49 Sr5 2.698924 1_555
O49 Sr3 2.840414 1_555
O49 Sr0 3.125829 1_555
O51 Sr0 2.522060 1_555
O51 Sr4 2.824880 1_555
O53 Sr1 2.562028 1_555
O53 Sr3 2.756808 1_655
O53 Sr5 2.775486 1_555
O55 Sr4 2.751663 1_655
O55 Sr1 3.118749 1_565
O56 Sr7 2.847046 1_455
O57 Sr2 2.514205 1_555
O57 Sr6 2.704021 1_555
O59 Sr2 3.168519 1_555
O60 Sr7 2.725538 1_555
O61 Sr6 2.848513 1_555
O65 Sr6 2.440197 1_555
O67 Sr0 2.452373 1_555
O68 Sr7 2.457162 1_555
O69 Sr1 2.465285 1_555
O73 Sr2 2.413896 1_555
O73 Sr3 2.418525 1_555
O75 Sr4 2.462354 1_555
O77 Sr5 2.469424 1_555
