# generated using pymatgen
data_AlZnAu2
_symmetry_space_group_name_H-M   'P 1'
_cell_length_a   10.58880803
_cell_length_b   10.58880803
_cell_length_c   10.58880803
_cell_angle_alpha   124.37197749
_cell_angle_beta   118.58190008
_cell_angle_gamma   87.53679122
_symmetry_Int_Tables_number   1
_chemical_formula_structural   AlZnAu2
_chemical_formula_sum   'Al1 Zn1 Au2'
_cell_volume   817.18239959
_cell_formula_units_Z   1
loop_
 _symmetry_equiv_pos_site_id
 _symmetry_equiv_pos_as_xyz
  1  'x, y, z'
loop_
 _atom_site_type_symbol
 _atom_site_label
 _atom_site_symmetry_multiplicity
 _atom_site_fract_x
 _atom_site_fract_y
 _atom_site_fract_z
 _atom_site_occupancy
  Al  Al0  1  0.00000000  0.00000000  0.00000000  1
  Zn  Zn0  1  0.00000000  0.50000000  0.50000000  1
  Au  Au0  1  0.00000000  0.24348300  0.24348300  1
  Au  Au1  1  0.00000000  0.75651700  0.75651700  1
loop_
_geom_bond_atom_site_label_1
_geom_bond_atom_site_label_2
_geom_bond_distance
_geom_bond_site_symmetry_2
Al0 Au0 2.405987 1_555
Al0 Au1 2.405987 1_544
Au0 Zn0 2.534782 1_555
Au1 Zn0 2.534782 1_555
