# generated using pymatgen
data_RbH(CO)4
_symmetry_space_group_name_H-M   'P 1'
_cell_length_a   16.17724000
_cell_length_b   4.43773400
_cell_length_c   8.45806157
_cell_angle_alpha   79.06165462
_cell_angle_beta   90.00000000
_cell_angle_gamma   90.00000000
_symmetry_Int_Tables_number   1
_chemical_formula_structural   RbH(CO)4
_chemical_formula_sum   'Rb4 H4 C16 O16'
_cell_volume   596.17490850
_cell_formula_units_Z   4
loop_
 _symmetry_equiv_pos_site_id
 _symmetry_equiv_pos_as_xyz
  1  'x, y, z'
loop_
 _atom_site_type_symbol
 _atom_site_label
 _atom_site_symmetry_multiplicity
 _atom_site_fract_x
 _atom_site_fract_y
 _atom_site_fract_z
 _atom_site_occupancy
  Rb  Rb0  1  0.43389500  0.29400000  0.75860000  1
  Rb  Rb1  1  0.93389500  0.70600000  0.74140000  1
  Rb  Rb2  1  0.56610500  0.70600000  0.24140000  1
  Rb  Rb3  1  0.06610500  0.29400000  0.25860000  1
  H  H0  1  0.23782100  0.49971600  0.52060000  1
  H  H1  1  0.73782100  0.50028400  0.97940000  1
  H  H2  1  0.76217900  0.50028400  0.47940000  1
  H  H3  1  0.26217900  0.49971600  0.02060000  1
  C  C0  1  0.21010700  0.14552600  0.70067300  1
  C  C1  1  0.71010700  0.85447400  0.79932700  1
  C  C2  1  0.78989300  0.85447400  0.29932700  1
  C  C3  1  0.28989300  0.14552600  0.20067300  1
  C  C4  1  0.22227500  0.89885500  0.83578000  1
  C  C5  1  0.72227500  0.10114500  0.66422000  1
  C  C6  1  0.77772500  0.10114500  0.16422000  1
  C  C7  1  0.27772500  0.89885500  0.33578000  1
  C  C8  1  0.13121300  0.88409600  0.86468200  1
  C  C9  1  0.63121300  0.11590400  0.63531800  1
  C  C10  1  0.86878700  0.11590400  0.13531800  1
  C  C11  1  0.36878700  0.88409600  0.36468200  1
  C  C12  1  0.12027500  0.12948900  0.71680500  1
  C  C13  1  0.62027500  0.87051100  0.78319500  1
  C  C14  1  0.87972500  0.87051100  0.28319500  1
  C  C15  1  0.37972500  0.12948900  0.21680500  1
  O  O0  1  0.26356700  0.31006800  0.60562000  1
  O  O1  1  0.76356700  0.68993200  0.89438000  1
  O  O2  1  0.73643300  0.68993200  0.39438000  1
  O  O3  1  0.23643300  0.31006800  0.10562000  1
  O  O4  1  0.28561200  0.75403400  0.90021900  1
  O  O5  1  0.78561200  0.24596600  0.59978100  1
  O  O6  1  0.71438800  0.24596600  0.09978100  1
  O  O7  1  0.21438800  0.75403400  0.40021900  1
  O  O8  1  0.08302500  0.73798600  0.96490000  1
  O  O9  1  0.58302500  0.26201400  0.53510000  1
  O  O10  1  0.91697500  0.26201400  0.03510000  1
  O  O11  1  0.41697500  0.73798600  0.46490000  1
  O  O12  1  0.05923000  0.25384700  0.64016700  1
  O  O13  1  0.55923000  0.74615300  0.85983300  1
  O  O14  1  0.94077000  0.74615300  0.35983300  1
  O  O15  1  0.44077000  0.25384700  0.14016700  1
loop_
_geom_bond_atom_site_label_1
_geom_bond_atom_site_label_2
_geom_bond_distance
_geom_bond_site_symmetry_2
H0 O0 1.081299 1_555
H0 O7 1.420578 1_555
H1 O1 1.081299 1_555
H1 O6 1.420578 1_556
H2 O2 1.081299 1_555
H2 O5 1.420578 1_555
H3 O3 1.081299 1_555
H3 O4 1.420578 1_554
C0 O0 1.305639 1_555
C1 O1 1.305639 1_555
C2 O2 1.305639 1_555
C3 O3 1.305639 1_555
C4 O4 1.275539 1_555
C5 O5 1.275539 1_555
C6 O6 1.275539 1_555
C7 O7 1.275539 1_555
C8 O8 1.240179 1_555
C9 O9 1.240179 1_555
C10 O10 1.240179 1_555
C11 O11 1.240179 1_555
C12 O12 1.250683 1_555
C13 O13 1.250683 1_555
C14 O14 1.250683 1_555
C15 O15 1.250683 1_555
O0 Rb0 3.039197 1_555
O1 Rb1 3.039197 1_555
O2 Rb2 3.039197 1_555
O3 Rb3 3.039197 1_555
O4 Rb0 3.441175 1_565
O4 Rb0 3.504975 1_555
O5 Rb1 3.441175 1_545
O5 Rb1 3.504975 1_555
O6 Rb2 3.441175 1_545
O6 Rb2 3.504975 1_555
O7 Rb3 3.441175 1_565
O7 Rb3 3.504975 1_555
O8 Rb3 2.875832 1_556
O8 Rb1 3.084756 1_455
O9 Rb2 2.875832 1_555
O9 Rb0 3.084756 1_555
O10 Rb1 2.875832 1_554
O10 Rb3 3.084756 1_655
O11 Rb0 2.875832 1_555
O11 Rb2 3.084756 1_555
O12 Rb1 3.085837 1_455
O12 Rb1 3.156726 1_445
O12 Rb3 3.200227 1_555
O13 Rb0 3.085837 1_555
O13 Rb0 3.156726 1_565
O13 Rb2 3.200227 1_556
O14 Rb3 3.085837 1_655
O14 Rb3 3.156726 1_665
O14 Rb1 3.200227 1_555
O15 Rb2 3.085837 1_555
O15 Rb2 3.156726 1_545
O15 Rb0 3.200227 1_554
