# generated using pymatgen
data_Th(AlC)4
_symmetry_space_group_name_H-M   'P 1'
_cell_length_a   3.33104140
_cell_length_b   6.04265489
_cell_length_c   6.04265516
_cell_angle_alpha   85.64302318
_cell_angle_beta   74.00059610
_cell_angle_gamma   74.00060366
_symmetry_Int_Tables_number   1
_chemical_formula_structural   Th(AlC)4
_chemical_formula_sum   'Th1 Al4 C4'
_cell_volume   112.38840677
_cell_formula_units_Z   1
loop_
 _symmetry_equiv_pos_site_id
 _symmetry_equiv_pos_as_xyz
  1  'x, y, z'
loop_
 _atom_site_type_symbol
 _atom_site_label
 _atom_site_symmetry_multiplicity
 _atom_site_fract_x
 _atom_site_fract_y
 _atom_site_fract_z
 _atom_site_occupancy
  Th  Th0  1  0.00000000  -0.00000000  -0.00000000  1
  Al  Al0  1  0.17983482  0.17846510  0.46186427  1
  Al  Al1  1  0.82016518  0.82153490  0.53813573  1
  Al  Al2  1  0.64169909  0.53813573  0.17846510  1
  Al  Al3  1  0.35830091  0.46186427  0.82153490  1
  C  C0  1  0.58932379  0.16328464  0.65806678  1
  C  C1  1  0.41067621  0.83671536  0.34193322  1
  C  C2  1  0.24739057  0.34193322  0.16328464  1
  C  C3  1  0.75260943  0.65806678  0.83671536  1
loop_
_geom_bond_atom_site_label_1
_geom_bond_atom_site_label_2
_geom_bond_distance
_geom_bond_site_symmetry_2
Al0 C2 1.977240 1_555
Al0 C0 2.020039 1_455
Al0 C0 2.020039 1_555
Al0 C1 2.103771 1_545
Al1 C3 1.977240 1_555
Al1 C1 2.020039 1_655
Al1 C1 2.020039 1_555
Al1 C0 2.103771 1_565
Al2 C1 1.977239 1_555
Al2 C2 2.020039 1_555
Al2 C2 2.020039 1_655
Al2 C3 2.103771 1_554
Al3 C0 1.977239 1_555
Al3 C3 2.020039 1_555
Al3 C3 2.020039 1_455
Al3 C2 2.103771 1_556
C0 Th0 2.760128 1_556
C0 Th0 2.760131 1_656
C1 Th0 2.760128 1_665
C1 Th0 2.760131 1_565
C2 Th0 2.760128 1_555
C2 Th0 2.760131 1_655
C3 Th0 2.760128 1_666
C3 Th0 2.760131 1_566
