# generated using pymatgen
data_U4Si3Ru2
_symmetry_space_group_name_H-M   'P 1'
_cell_length_a   5.73874342
_cell_length_b   12.53846866
_cell_length_c   7.98642782
_cell_angle_alpha   38.28061539
_cell_angle_beta   111.05604487
_cell_angle_gamma   117.23820430
_symmetry_Int_Tables_number   1
_chemical_formula_structural   U4Si3Ru2
_chemical_formula_sum   'U8 Si6 Ru4'
_cell_volume   316.53432751
_cell_formula_units_Z   2
loop_
 _symmetry_equiv_pos_site_id
 _symmetry_equiv_pos_as_xyz
  1  'x, y, z'
loop_
 _atom_site_type_symbol
 _atom_site_label
 _atom_site_symmetry_multiplicity
 _atom_site_fract_x
 _atom_site_fract_y
 _atom_site_fract_z
 _atom_site_occupancy
  U  U0  1  0.00000000  0.75770600  0.98458900  1
  U  U1  1  0.50000000  0.75770600  0.98458900  1
  U  U2  1  0.50000000  0.50000000  0.00000000  1
  U  U3  1  0.00000000  0.00000000  0.00000000  1
  U  U4  1  0.50000000  0.24229400  0.01541100  1
  U  U5  1  0.00000000  0.50000000  0.00000000  1
  U  U6  1  0.50000000  0.00000000  0.00000000  1
  U  U7  1  0.00000000  0.24229400  0.01541100  1
  Si  Si0  1  0.15201900  0.90201900  0.50000000  1
  Si  Si1  1  0.18690600  0.67719800  0.50000000  1
  Si  Si2  1  0.33251000  0.32280200  0.50000000  1
  Si  Si3  1  0.66749000  0.67719800  0.50000000  1
  Si  Si4  1  0.81309400  0.32280200  0.50000000  1
  Si  Si5  1  0.84798100  0.09798100  0.50000000  1
  Ru  Ru0  1  0.61539200  0.86539200  0.50000000  1
  Ru  Ru1  1  0.24463700  0.49463700  0.50000000  1
  Ru  Ru2  1  0.75536300  0.50536300  0.50000000  1
  Ru  Ru3  1  0.38460800  0.13460800  0.50000000  1
loop_
_geom_bond_atom_site_label_1
_geom_bond_atom_site_label_2
_geom_bond_distance
_geom_bond_site_symmetry_2
U0 U1 2.869372 1_455
U0 U1 2.869372 1_555
U0 U3 3.135538 1_566
U0 U6 3.135541 1_566
U0 U2 3.135548 1_456
U0 U5 3.135551 1_556
U1 U6 3.135538 1_566
U1 U3 3.135541 1_666
U1 U5 3.135548 1_556
U1 U2 3.135551 1_556
U2 U5 2.869372 1_655
U2 U5 2.869372 1_555
U2 U7 3.135548 1_555
U2 U4 3.135551 1_555
U3 U6 2.869372 1_455
U3 U6 2.869372 1_555
U3 U7 3.135538 1_555
U3 U4 3.135541 1_555
U4 U7 2.869372 1_655
U4 U7 2.869372 1_555
U4 U6 3.135538 1_555
U4 U5 3.135548 1_655
U5 U7 3.135551 1_555
U6 U7 3.135541 1_655
Si0 U3 2.998669 1_565
Si0 U5 2.998669 1_556
Si0 U7 2.999986 1_565
Si0 U4 2.999989 1_565
Si0 U1 2.999990 1_555
Si0 U0 2.999993 1_555
Si1 U2 2.946218 1_556
Si1 U6 2.946219 1_565
Si1 U3 2.999986 1_565
Si1 U5 2.999986 1_556
Si1 U0 3.226201 1_554
Si1 U7 3.226208 1_556
Si2 U6 2.946218 1_556
Si2 U2 2.946218 1_555
Si2 U5 2.999986 1_555
Si2 U3 2.999987 1_556
Si2 U4 3.226201 1_556
Si2 U1 3.226208 1_554
Si3 U6 2.946218 1_565
Si3 U2 2.946218 1_556
Si3 U5 2.999986 1_656
Si3 U3 2.999987 1_665
Si3 U1 3.226201 1_554
Si3 U4 3.226208 1_556
Si4 U2 2.946218 1_555
Si4 U6 2.946219 1_556
Si4 U3 2.999986 1_656
Si4 U5 2.999986 1_655
Si4 U7 3.226201 1_656
Si4 U0 3.226208 1_654
Si5 U3 2.998669 1_656
Si5 U5 2.998669 1_655
Si5 U0 2.999986 1_645
Si5 U1 2.999989 1_545
Si5 U4 2.999990 1_555
Si5 U7 2.999993 1_655
Ru0 Si3 2.510616 1_555
Ru0 Si1 2.510616 1_555
Ru0 Si5 2.592924 1_565
Ru0 U6 2.788326 1_565
Ru0 U2 2.788326 1_556
Ru0 Si0 2.898279 1_555
Ru0 Si0 2.898279 1_655
Ru0 U4 3.171539 1_565
Ru0 U7 3.171541 1_665
Ru0 U0 3.171544 1_655
Ru0 U1 3.171546 1_555
Ru1 Si2 2.427125 1_555
Ru1 Si4 2.427125 1_455
Ru1 Si1 2.458381 1_555
Ru1 Si3 2.458381 1_555
Ru1 U7 2.926584 1_556
Ru1 U1 2.926584 1_554
Ru1 U4 2.926587 1_556
Ru1 U0 2.926587 1_554
Ru2 Si3 2.427125 1_555
Ru2 Si1 2.427125 1_655
Ru2 Si4 2.458381 1_555
Ru2 Si2 2.458381 1_555
Ru2 U0 2.926584 1_654
Ru2 U4 2.926584 1_556
Ru2 U1 2.926587 1_554
Ru2 U7 2.926587 1_656
Ru3 Si2 2.510616 1_555
Ru3 Si4 2.510616 1_555
Ru3 Si0 2.592924 1_545
Ru3 U6 2.788326 1_556
Ru3 U2 2.788326 1_555
Ru3 Si5 2.898279 1_555
Ru3 Si5 2.898279 1_455
Ru3 U1 3.171539 1_545
Ru3 U0 3.171541 1_545
Ru3 U7 3.171544 1_555
Ru3 U4 3.171546 1_555
