# generated using pymatgen
data_Tb2Mn3Cu9P7
_symmetry_space_group_name_H-M   'P 1'
_cell_length_a   3.75229800
_cell_length_b   9.43332100
_cell_length_c   9.43472740
_cell_angle_alpha   60.40086510
_cell_angle_beta   90.00000000
_cell_angle_gamma   90.00000000
_symmetry_Int_Tables_number   1
_chemical_formula_structural   Tb2Mn3Cu9P7
_chemical_formula_sum   'Tb2 Mn3 Cu9 P7'
_cell_volume   290.37690383
_cell_formula_units_Z   1
loop_
 _symmetry_equiv_pos_site_id
 _symmetry_equiv_pos_as_xyz
  1  'x, y, z'
loop_
 _atom_site_type_symbol
 _atom_site_label
 _atom_site_symmetry_multiplicity
 _atom_site_fract_x
 _atom_site_fract_y
 _atom_site_fract_z
 _atom_site_occupancy
  Tb  Tb0  1  0.00000000  0.33461400  0.33032100  1
  Tb  Tb1  1  0.50000000  0.66538500  0.67072100  1
  Mn  Mn0  1  0.50000000  0.87279200  0.91979200  1
  Mn  Mn1  1  0.50000000  0.91374200  0.21235500  1
  Mn  Mn2  1  0.50000000  0.21828500  0.86349900  1
  Cu  Cu0  1  0.00000000  0.61548200  0.95375300  1
  Cu  Cu1  1  0.00000000  0.95243200  0.43401700  1
  Cu  Cu2  1  0.00000000  0.43385400  0.61628900  1
  Cu  Cu3  1  0.00000000  0.12098700  0.71414000  1
  Cu  Cu4  1  0.00000000  0.71972200  0.16564900  1
  Cu  Cu5  1  0.00000000  0.15881500  0.11509700  1
  Cu  Cu6  1  0.50000000  0.03755800  0.57606900  1
  Cu  Cu7  1  0.50000000  0.57426400  0.38643000  1
  Cu  Cu8  1  0.50000000  0.38315000  0.04248900  1
  P  P0  1  0.00000000  0.87028400  0.72200700  1
  P  P1  1  0.00000000  0.71714500  0.41424100  1
  P  P2  1  0.00000000  0.40919000  0.87330200  1
  P  P3  1  0.50000000  0.29469200  0.58123900  1
  P  P4  1  0.50000000  0.58778900  0.12123300  1
  P  P5  1  0.50000000  0.12028400  0.29220100  1
  P  P6  1  0.00000000  0.99953300  0.99515500  1
loop_
_geom_bond_atom_site_label_1
_geom_bond_atom_site_label_2
_geom_bond_distance
_geom_bond_site_symmetry_2
Mn0 P4 2.406785 1_556
Mn0 P6 2.508925 1_555
Mn0 P6 2.508925 1_655
Mn0 P0 2.654476 1_555
Mn0 P0 2.654476 1_655
Mn1 P5 2.411143 1_565
Mn1 P6 2.595365 1_554
Mn1 P6 2.595365 1_654
Mn1 P1 2.664170 1_555
Mn1 P1 2.664170 1_655
Mn2 P3 2.390645 1_555
Mn2 P6 2.605574 1_645
Mn2 P6 2.605574 1_545
Mn2 P2 2.633658 1_655
Mn2 P2 2.633658 1_555
Cu0 P0 2.316553 1_555
Cu0 P4 2.382689 1_556
Cu0 P4 2.382689 1_456
Cu0 P2 2.412940 1_555
Cu0 Tb1 3.103290 1_555
Cu0 Tb1 3.103290 1_455
Cu1 P1 2.317381 1_555
Cu1 P5 2.392586 1_565
Cu1 P5 2.392586 1_465
Cu1 P0 2.429648 1_555
Cu1 Cu6 2.650308 1_465
Cu1 Cu6 2.650308 1_565
Cu1 Tb1 3.140980 1_455
Cu1 Tb1 3.140980 1_555
Cu2 P2 2.318770 1_555
Cu2 P1 2.396464 1_555
Cu2 P3 2.404469 1_555
Cu2 P3 2.404469 1_455
Cu2 Cu7 2.672044 1_455
Cu2 Cu7 2.672044 1_555
Cu2 Tb1 3.108379 1_455
Cu2 Tb1 3.108379 1_555
Cu3 P6 2.311126 1_545
Cu3 P0 2.329195 1_545
Cu3 P3 2.397402 1_555
Cu3 P3 2.397402 1_455
Cu3 Cu6 2.617062 1_455
Cu3 Cu6 2.617062 1_555
Cu4 P6 2.315246 1_554
Cu4 P1 2.333486 1_555
Cu4 P4 2.399936 1_455
Cu4 P4 2.399936 1_555
Cu4 Cu7 2.630240 1_555
Cu4 Cu7 2.630240 1_455
Cu5 P6 2.284278 1_544
Cu5 P2 2.336660 1_554
Cu5 P5 2.417454 1_455
Cu5 P5 2.417454 1_555
Cu6 P5 2.391065 1_555
Cu6 P0 2.399875 1_645
Cu6 P0 2.399875 1_545
Cu6 P3 2.450087 1_555
Cu6 Mn0 2.820138 1_545
Cu6 Tb1 3.166422 1_545
Cu6 Tb0 3.214015 1_655
Cu6 Tb0 3.214015 1_555
Cu7 P3 2.354791 1_555
Cu7 P1 2.398922 1_555
Cu7 P1 2.398922 1_655
Cu7 P4 2.441565 1_555
Cu7 Mn1 2.785158 1_555
Cu7 Tb0 3.176969 1_655
Cu7 Tb0 3.176969 1_555
Cu7 Tb1 3.195413 1_555
Cu8 P4 2.386470 1_555
Cu8 P2 2.396016 1_554
Cu8 P2 2.396016 1_654
Cu8 P5 2.434817 1_555
Cu8 Tb1 3.188434 1_554
P0 Tb1 2.900687 1_555
P0 Tb1 2.900687 1_455
P1 Tb1 2.906319 1_555
P1 Tb1 2.906319 1_455
P2 Tb1 2.907007 1_455
P2 Tb1 2.907007 1_555
P3 Tb0 2.895749 1_555
P3 Tb0 2.895749 1_655
P4 Tb0 2.908813 1_655
P4 Tb0 2.908813 1_555
P5 Tb0 2.907828 1_555
P5 Tb0 2.907828 1_655
