# generated using pymatgen
data_Nd3Ta(ClO2)3
_symmetry_space_group_name_H-M   'P 1'
_cell_length_a   9.49510599
_cell_length_b   9.49510599
_cell_length_c   5.32289200
_cell_angle_alpha   90.00000000
_cell_angle_beta   90.00000000
_cell_angle_gamma   119.99999995
_symmetry_Int_Tables_number   1
_chemical_formula_structural   Nd3Ta(ClO2)3
_chemical_formula_sum   'Nd6 Ta2 Cl6 O12'
_cell_volume   415.60227926
_cell_formula_units_Z   2
loop_
 _symmetry_equiv_pos_site_id
 _symmetry_equiv_pos_as_xyz
  1  'x, y, z'
loop_
 _atom_site_type_symbol
 _atom_site_label
 _atom_site_symmetry_multiplicity
 _atom_site_fract_x
 _atom_site_fract_y
 _atom_site_fract_z
 _atom_site_occupancy
  Nd  Nd0  1  0.40366000  0.08979000  0.25000000  1
  Nd  Nd1  1  0.59634000  0.91021000  0.75000000  1
  Nd  Nd2  1  0.91021000  0.31387000  0.25000000  1
  Nd  Nd3  1  0.08979000  0.68613000  0.75000000  1
  Nd  Nd4  1  0.68613000  0.59634000  0.25000000  1
  Nd  Nd5  1  0.31387000  0.40366000  0.75000000  1
  Ta  Ta0  1  0.33333300  0.66666700  0.25000000  1
  Ta  Ta1  1  0.66666700  0.33333300  0.75000000  1
  Cl  Cl0  1  0.19011700  0.24040400  0.25000000  1
  Cl  Cl1  1  0.80988300  0.75959600  0.75000000  1
  Cl  Cl2  1  0.75959600  0.94971300  0.25000000  1
  Cl  Cl3  1  0.24040400  0.05028700  0.75000000  1
  Cl  Cl4  1  0.05028700  0.80988300  0.25000000  1
  Cl  Cl5  1  0.94971300  0.19011700  0.75000000  1
  O  O0  1  0.15697100  0.52145300  0.01213100  1
  O  O1  1  0.84302900  0.47854700  0.98786900  1
  O  O2  1  0.47854700  0.63551900  0.01213100  1
  O  O3  1  0.84302900  0.47854700  0.51213100  1
  O  O4  1  0.52145300  0.36448100  0.98786900  1
  O  O5  1  0.15697100  0.52145300  0.48786900  1
  O  O6  1  0.36448100  0.84302900  0.01213100  1
  O  O7  1  0.52145300  0.36448100  0.51213100  1
  O  O8  1  0.63551900  0.15697100  0.98786900  1
  O  O9  1  0.47854700  0.63551900  0.48786900  1
  O  O10  1  0.63551900  0.15697100  0.51213100  1
  O  O11  1  0.36448100  0.84302900  0.48786900  1
loop_
_geom_bond_atom_site_label_1
_geom_bond_atom_site_label_2
_geom_bond_distance
_geom_bond_site_symmetry_2
Nd0 O10 2.407516 1_555
Nd0 O8 2.407516 1_554
Nd0 O11 2.521836 1_545
Nd0 O6 2.521836 1_545
Nd0 O7 2.661470 1_555
Nd0 O4 2.661470 1_554
Nd1 O6 2.407516 1_556
Nd1 O11 2.407516 1_555
Nd1 O8 2.521836 1_565
Nd1 O10 2.521836 1_565
Nd1 O2 2.661470 1_556
Nd1 O9 2.661470 1_555
Nd2 O3 2.407509 1_555
Nd2 O1 2.407509 1_554
Nd2 O5 2.521839 1_655
Nd2 O0 2.521839 1_655
Nd2 O10 2.661471 1_555
Nd2 O8 2.661471 1_554
Nd3 O0 2.407509 1_556
Nd3 O5 2.407509 1_555
Nd3 O3 2.521839 1_455
Nd3 O1 2.521839 1_455
Nd3 O6 2.661471 1_556
Nd3 O11 2.661471 1_555
Nd4 O7 2.407515 1_555
Nd4 O4 2.407515 1_554
Nd4 O9 2.521844 1_555
Nd4 O2 2.521844 1_555
Nd4 O3 2.661478 1_555
Nd4 O1 2.661478 1_554
Nd5 O2 2.407515 1_556
Nd5 O9 2.407515 1_555
Nd5 O7 2.521844 1_555
Nd5 O4 2.521844 1_555
Nd5 O0 2.661478 1_556
Nd5 O5 2.661478 1_555
Cl0 Nd5 3.007568 1_555
Cl0 Nd5 3.007568 1_554
Cl0 Nd0 3.009331 1_555
Cl0 Nd2 3.066623 1_455
Cl1 Nd4 3.007568 1_556
Cl1 Nd4 3.007568 1_555
Cl1 Nd1 3.009331 1_555
Cl1 Nd3 3.066623 1_655
Cl2 Nd1 3.007568 1_555
Cl2 Nd1 3.007568 1_554
Cl2 Nd2 3.009331 1_565
Cl2 Nd4 3.066623 1_555
Cl3 Nd0 3.007568 1_556
Cl3 Nd0 3.007568 1_555
Cl3 Nd3 3.009331 1_545
Cl3 Nd5 3.066623 1_555
Cl4 Nd3 3.007568 1_554
Cl4 Nd3 3.007568 1_555
Cl4 Nd4 3.009331 1_455
Cl4 Nd0 3.066623 1_565
Cl5 Nd2 3.007568 1_555
Cl5 Nd2 3.007568 1_556
Cl5 Nd5 3.009331 1_655
Cl5 Nd1 3.066623 1_545
O0 Ta0 1.999888 1_555
O1 Ta1 1.999888 1_555
O2 Ta0 1.999888 1_555
O3 Ta1 1.999888 1_555
O4 Ta1 1.999888 1_555
O5 Ta0 1.999888 1_555
O6 Ta0 1.999888 1_555
O7 Ta1 1.999888 1_555
O8 Ta1 1.999888 1_555
O9 Ta0 1.999888 1_555
O10 Ta1 1.999888 1_555
O11 Ta0 1.999888 1_555
