# generated using pymatgen
data_Ba2YCu3SO6
_symmetry_space_group_name_H-M   'P 1'
_cell_length_a   3.79749200
_cell_length_b   4.17163300
_cell_length_c   12.11787200
_cell_angle_alpha   90.00000000
_cell_angle_beta   90.00000000
_cell_angle_gamma   90.00000000
_symmetry_Int_Tables_number   1
_chemical_formula_structural   Ba2YCu3SO6
_chemical_formula_sum   'Ba2 Y1 Cu3 S1 O6'
_cell_volume   191.96821326
_cell_formula_units_Z   1
loop_
 _symmetry_equiv_pos_site_id
 _symmetry_equiv_pos_as_xyz
  1  'x, y, z'
loop_
 _atom_site_type_symbol
 _atom_site_label
 _atom_site_symmetry_multiplicity
 _atom_site_fract_x
 _atom_site_fract_y
 _atom_site_fract_z
 _atom_site_occupancy
  Ba  Ba0  1  0.50000000  0.50000000  0.20152900  1
  Ba  Ba1  1  0.50000000  0.50000000  0.79847100  1
  Y  Y0  1  0.50000000  0.50000000  0.50000000  1
  Cu  Cu0  1  0.00000000  0.00000000  0.35820300  1
  Cu  Cu1  1  0.00000000  0.00000000  0.64179700  1
  Cu  Cu2  1  0.00000000  0.00000000  0.00000000  1
  S  S0  1  0.00000000  0.50000000  0.00000000  1
  O  O0  1  0.50000000  0.00000000  0.38304600  1
  O  O1  1  0.50000000  0.00000000  0.61695400  1
  O  O2  1  0.00000000  0.50000000  0.37957500  1
  O  O3  1  0.00000000  0.50000000  0.62042500  1
  O  O4  1  0.00000000  0.00000000  0.15977200  1
  O  O5  1  0.00000000  0.00000000  0.84022800  1
loop_
_geom_bond_atom_site_label_1
_geom_bond_atom_site_label_2
_geom_bond_distance
_geom_bond_site_symmetry_2
Ba0 O4 2.865643 1_655
Ba0 O4 2.865643 1_565
Ba0 O4 2.865643 1_665
Ba0 O4 2.865643 1_555
Ba0 O2 2.874058 1_555
Ba0 O2 2.874058 1_655
Ba0 O0 3.031315 1_555
Ba0 O0 3.031315 1_565
Ba0 S0 3.093396 1_655
Ba0 S0 3.093396 1_555
Ba1 O5 2.865643 1_665
Ba1 O5 2.865643 1_555
Ba1 O5 2.865643 1_655
Ba1 O5 2.865643 1_565
Ba1 O3 2.874058 1_655
Ba1 O3 2.874058 1_555
Ba1 O1 3.031315 1_565
Ba1 O1 3.031315 1_555
Ba1 S0 3.093396 1_656
Ba1 S0 3.093396 1_556
Cu0 O0 1.922463 1_555
Cu0 O0 1.922463 1_455
Cu0 O2 2.101833 1_545
Cu0 O2 2.101833 1_555
Cu0 O4 2.404561 1_555
Cu1 O1 1.922463 1_455
Cu1 O1 1.922463 1_555
Cu1 O3 2.101833 1_555
Cu1 O3 2.101833 1_545
Cu1 O5 2.404561 1_555
Cu2 O4 1.936097 1_555
Cu2 O5 1.936097 1_554
Cu2 S0 2.085816 1_555
Cu2 S0 2.085816 1_545
O0 Y0 2.521742 1_545
O0 Y0 2.521742 1_555
O1 Y0 2.521742 1_545
O1 Y0 2.521742 1_555
O2 Y0 2.394740 1_455
O2 Y0 2.394740 1_555
O3 Y0 2.394740 1_555
O3 Y0 2.394740 1_455
