# generated using pymatgen
data_CeSi2OsRu
_symmetry_space_group_name_H-M   'P 1'
_cell_length_a   5.71864612
_cell_length_b   5.71864612
_cell_length_c   5.71864612
_cell_angle_alpha   136.83349030
_cell_angle_beta   136.83349030
_cell_angle_gamma   62.69434462
_symmetry_Int_Tables_number   1
_chemical_formula_structural   CeSi2OsRu
_chemical_formula_sum   'Ce1 Si2 Os1 Ru1'
_cell_volume   86.44927126
_cell_formula_units_Z   1
loop_
 _symmetry_equiv_pos_site_id
 _symmetry_equiv_pos_as_xyz
  1  'x, y, z'
loop_
 _atom_site_type_symbol
 _atom_site_label
 _atom_site_symmetry_multiplicity
 _atom_site_fract_x
 _atom_site_fract_y
 _atom_site_fract_z
 _atom_site_occupancy
  Ce  Ce0  1  0.00000000  0.00000000  0.00000000  1
  Si  Si0  1  0.63181200  0.63181200  0.00000000  1
  Si  Si1  1  0.36818800  0.36818800  0.00000000  1
  Os  Os0  1  0.25000000  0.75000000  0.50000000  1
  Ru  Ru0  1  0.75000000  0.25000000  0.50000000  1
loop_
_geom_bond_atom_site_label_1
_geom_bond_atom_site_label_2
_geom_bond_distance
_geom_bond_site_symmetry_2
Ce0 Os0 3.223094 1_545
Ce0 Ru0 3.223094 1_444
Ce0 Ru0 3.223094 1_455
Ce0 Ru0 3.223094 1_454
Ce0 Os0 3.223094 1_544
Ce0 Os0 3.223094 1_555
Ce0 Os0 3.223094 1_444
Ce0 Ru0 3.223094 1_555
Ce0 Si1 3.241624 1_556
Ce0 Si0 3.241624 1_444
Ce0 Si1 3.241624 1_545
Ce0 Si1 3.241624 1_455
Ce0 Si0 3.241624 1_455
Ce0 Si0 3.241624 1_545
Ce0 Si0 3.241624 1_556
Ce0 Si1 3.241624 1_444
Os0 Si0 2.399571 1_455
Os0 Si1 2.399571 1_566
Os0 Si0 2.399571 1_556
Os0 Si1 2.399571 1_555
Ru0 Si1 2.399571 1_656
Ru0 Si0 2.399571 1_545
Ru0 Si0 2.399571 1_556
Ru0 Si1 2.399571 1_555
