# generated using pymatgen
data_CdCu(SeO3)2
_symmetry_space_group_name_H-M   'P 1'
_cell_length_a   10.54723100
_cell_length_b   7.35969200
_cell_length_c   7.62502288
_cell_angle_alpha   85.59950520
_cell_angle_beta   90.00000000
_cell_angle_gamma   90.00000000
_symmetry_Int_Tables_number   1
_chemical_formula_structural   CdCu(SeO3)2
_chemical_formula_sum   'Cd4 Cu4 Se8 O24'
_cell_volume   590.14277828
_cell_formula_units_Z   4
loop_
 _symmetry_equiv_pos_site_id
 _symmetry_equiv_pos_as_xyz
  1  'x, y, z'
loop_
 _atom_site_type_symbol
 _atom_site_label
 _atom_site_symmetry_multiplicity
 _atom_site_fract_x
 _atom_site_fract_y
 _atom_site_fract_z
 _atom_site_occupancy
  Cd  Cd0  1  0.95023200  0.51357100  0.26053800  1
  Cd  Cd1  1  0.45023200  0.98642900  0.73946200  1
  Cd  Cd2  1  0.04976800  0.48642900  0.73946200  1
  Cd  Cd3  1  0.54976800  0.01357100  0.26053800  1
  Cu  Cu0  1  0.91779100  0.97702300  0.31647900  1
  Cu  Cu1  1  0.41779100  0.52297700  0.68352100  1
  Cu  Cu2  1  0.08220900  0.02297700  0.68352100  1
  Cu  Cu3  1  0.58220900  0.47702300  0.31647900  1
  Se  Se0  1  0.10795900  0.19657300  0.05375600  1
  Se  Se1  1  0.60795900  0.30342700  0.94624400  1
  Se  Se2  1  0.89204100  0.80342700  0.94624400  1
  Se  Se3  1  0.39204100  0.69657300  0.05375600  1
  Se  Se4  1  0.77920600  0.25352000  0.56854400  1
  Se  Se5  1  0.27920600  0.24648000  0.43145600  1
  Se  Se6  1  0.22079400  0.74648000  0.43145600  1
  Se  Se7  1  0.72079400  0.75352000  0.56854400  1
  O  O0  1  0.01383300  0.16914700  0.86707300  1
  O  O1  1  0.51383300  0.33085300  0.13292700  1
  O  O2  1  0.98616700  0.83085300  0.13292700  1
  O  O3  1  0.48616700  0.66914700  0.86707300  1
  O  O4  1  0.13845300  0.42474500  0.01344900  1
  O  O5  1  0.63845300  0.07525500  0.98655100  1
  O  O6  1  0.86154700  0.57525500  0.98655100  1
  O  O7  1  0.36154700  0.92474500  0.01344900  1
  O  O8  1  0.98857000  0.21218200  0.21255700  1
  O  O9  1  0.48857000  0.28781800  0.78744300  1
  O  O10  1  0.01143000  0.78781800  0.78744300  1
  O  O11  1  0.51143000  0.71218200  0.21255700  1
  O  O12  1  0.88032200  0.07127500  0.54295500  1
  O  O13  1  0.38032200  0.42872500  0.45704500  1
  O  O14  1  0.11967800  0.92872500  0.45704500  1
  O  O15  1  0.61967800  0.57127500  0.54295500  1
  O  O16  1  0.71038400  0.27878200  0.36000500  1
  O  O17  1  0.21038400  0.22121800  0.63999500  1
  O  O18  1  0.28961600  0.72121800  0.63999500  1
  O  O19  1  0.78961600  0.77878200  0.36000500  1
  O  O20  1  0.88660100  0.43254200  0.54759800  1
  O  O21  1  0.38660100  0.06745800  0.45240200  1
  O  O22  1  0.11339900  0.56745800  0.45240200  1
  O  O23  1  0.61339900  0.93254200  0.54759800  1
loop_
_geom_bond_atom_site_label_1
_geom_bond_atom_site_label_2
_geom_bond_distance
_geom_bond_site_symmetry_2
Cd0 O6 2.302188 1_554
Cd0 O8 2.311275 1_555
Cd0 O22 2.312639 1_655
Cd0 O20 2.323092 1_555
Cd0 O2 2.488868 1_555
Cd0 O19 2.735328 1_555
Cd0 O4 2.847299 1_655
Cd1 O7 2.302188 1_556
Cd1 O9 2.311275 1_565
Cd1 O23 2.312639 1_555
Cd1 O21 2.323092 1_565
Cd1 O3 2.488868 1_555
Cd1 O18 2.735328 1_555
Cd1 O5 2.847299 1_565
Cd2 O4 2.302188 1_556
Cd2 O10 2.311275 1_555
Cd2 O20 2.312639 1_455
Cd2 O22 2.323092 1_555
Cd2 O0 2.488868 1_555
Cd2 O17 2.735328 1_555
Cd2 O6 2.847299 1_455
Cd3 O5 2.302188 1_554
Cd3 O11 2.311275 1_545
Cd3 O21 2.312639 1_555
Cd3 O23 2.323092 1_545
Cd3 O1 2.488868 1_555
Cd3 O16 2.735328 1_555
Cd3 O7 2.847299 1_545
Cu0 O12 1.950206 1_565
Cu0 O2 1.966536 1_555
Cu0 O8 1.992503 1_565
Cu0 O19 1.998027 1_555
Cu0 O14 2.398084 1_655
Cu1 O13 1.950206 1_555
Cu1 O3 1.966536 1_555
Cu1 O9 1.992503 1_555
Cu1 O18 1.998027 1_555
Cu1 O15 2.398084 1_555
Cu2 O14 1.950206 1_545
Cu2 O0 1.966536 1_555
Cu2 O10 1.992503 1_545
Cu2 O17 1.998027 1_555
Cu2 O12 2.398084 1_455
Cu3 O15 1.950206 1_555
Cu3 O1 1.966536 1_555
Cu3 O11 1.992503 1_555
Cu3 O16 1.998027 1_555
Cu3 O13 2.398084 1_555
O0 Se0 1.759735 1_556
O1 Se1 1.759735 1_554
O2 Se2 1.759735 1_554
O3 Se3 1.759735 1_556
O4 Se0 1.714255 1_555
O5 Se1 1.714255 1_555
O6 Se2 1.714255 1_555
O7 Se3 1.714255 1_555
O8 Se0 1.756807 1_655
O9 Se1 1.756807 1_555
O10 Se2 1.756807 1_455
O11 Se3 1.756807 1_555
O12 Se4 1.736271 1_555
O13 Se5 1.736271 1_555
O14 Se6 1.736271 1_555
O15 Se7 1.736271 1_555
O16 Se4 1.744869 1_555
O17 Se5 1.744869 1_555
O18 Se6 1.744869 1_555
O19 Se7 1.744869 1_555
O20 Se4 1.735569 1_555
O21 Se5 1.735569 1_555
O22 Se6 1.735569 1_555
O23 Se7 1.735569 1_555
