# generated using pymatgen
data_NaCo2BiO6
_symmetry_space_group_name_H-M   'P 1'
_cell_length_a   5.63294482
_cell_length_b   5.63294482
_cell_length_c   5.63294526
_cell_angle_alpha   56.82030304
_cell_angle_beta   56.82030304
_cell_angle_gamma   56.82030767
_symmetry_Int_Tables_number   1
_chemical_formula_structural   NaCo2BiO6
_chemical_formula_sum   'Na1 Co2 Bi1 O6'
_cell_volume   117.10963938
_cell_formula_units_Z   1
loop_
 _symmetry_equiv_pos_site_id
 _symmetry_equiv_pos_as_xyz
  1  'x, y, z'
loop_
 _atom_site_type_symbol
 _atom_site_label
 _atom_site_symmetry_multiplicity
 _atom_site_fract_x
 _atom_site_fract_y
 _atom_site_fract_z
 _atom_site_occupancy
  Na  Na0  1  0.28227400  0.28227400  0.28227400  1
  Co  Co0  1  0.01027000  0.01027000  0.01027000  1
  Co  Co1  1  0.51045900  0.51045900  0.51045900  1
  Bi  Bi0  1  0.79782700  0.79782700  0.79782700  1
  O  O0  1  0.12666700  0.73785400  0.37679300  1
  O  O1  1  0.37679300  0.12666700  0.73785400  1
  O  O2  1  0.73785400  0.37679300  0.12666700  1
  O  O3  1  0.23007500  0.66424300  0.82933900  1
  O  O4  1  0.66424300  0.82933900  0.23007500  1
  O  O5  1  0.82933900  0.23007500  0.66424300  1
loop_
_geom_bond_atom_site_label_1
_geom_bond_atom_site_label_2
_geom_bond_distance
_geom_bond_site_symmetry_2
Na0 O5 2.312031 1_455
Na0 O3 2.312032 1_554
Na0 O4 2.312032 1_545
Na0 O2 2.481956 1_555
Na0 O0 2.481956 1_555
Na0 O1 2.481956 1_555
Co0 O1 1.989965 1_554
Co0 O2 1.989965 1_455
Co0 O0 1.989965 1_545
Co0 O4 2.126635 1_445
Co0 O3 2.126635 1_544
Co0 O5 2.126635 1_454
Co1 O4 1.889917 1_555
Co1 O5 1.889917 1_555
Co1 O3 1.889917 1_555
Co1 O1 2.139259 1_555
Co1 O0 2.139259 1_555
Co1 O2 2.139259 1_555
Bi0 O2 2.133933 1_556
Bi0 O1 2.133933 1_565
Bi0 O0 2.133933 1_655
Bi0 O5 2.201734 1_565
Bi0 O3 2.201735 1_655
Bi0 O4 2.201735 1_556
