# generated using pymatgen
data_NiAs3NF18
_symmetry_space_group_name_H-M   'P 1'
_cell_length_a   9.52829538
_cell_length_b   10.53593913
_cell_length_c   14.09315379
_cell_angle_alpha   90.00000000
_cell_angle_beta   90.00000000
_cell_angle_gamma   90.00000000
_symmetry_Int_Tables_number   1
_chemical_formula_structural   NiAs3NF18
_chemical_formula_sum   'Ni4 As12 N4 F72'
_cell_volume   1414.80522805
_cell_formula_units_Z   4
loop_
 _symmetry_equiv_pos_site_id
 _symmetry_equiv_pos_as_xyz
  1  'x, y, z'
loop_
 _atom_site_type_symbol
 _atom_site_label
 _atom_site_symmetry_multiplicity
 _atom_site_fract_x
 _atom_site_fract_y
 _atom_site_fract_z
 _atom_site_occupancy
  Ni  Ni0  1  0.00000000  0.00000000  -0.00000000  1
  Ni  Ni1  1  0.50000000  0.50000000  -0.00000000  1
  Ni  Ni2  1  0.00000000  0.00000000  0.50000000  1
  Ni  Ni3  1  0.50000000  0.50000000  0.50000000  1
  As  As0  1  0.12157747  0.02287462  0.25000000  1
  As  As1  1  0.87842253  0.97712538  0.75000000  1
  As  As2  1  0.62157747  0.47712538  0.75000000  1
  As  As3  1  0.37842253  0.52287462  0.25000000  1
  As  As4  1  0.19510271  0.29607187  0.55443346  1
  As  As5  1  0.80489729  0.70392813  0.44556654  1
  As  As6  1  0.69510271  0.20392813  0.44556654  1
  As  As7  1  0.80489729  0.70392813  0.05443346  1
  As  As8  1  0.30489729  0.79607187  0.55443346  1
  As  As9  1  0.19510271  0.29607187  0.94556654  1
  As  As10  1  0.30489729  0.79607187  0.94556654  1
  As  As11  1  0.69510271  0.20392813  0.05443346  1
  N  N0  1  0.51496935  0.92312105  0.25000000  1
  N  N1  1  0.48503065  0.07687895  0.75000000  1
  N  N2  1  0.01496935  0.57687895  0.75000000  1
  N  N3  1  0.98503065  0.42312105  0.25000000  1
  F  F0  1  0.04182649  0.17295630  0.25000000  1
  F  F1  1  0.95817351  0.82704370  0.75000000  1
  F  F2  1  0.54182649  0.32704370  0.75000000  1
  F  F3  1  0.45817351  0.67295630  0.25000000  1
  F  F4  1  0.28638655  0.09704184  0.25000000  1
  F  F5  1  0.71361345  0.90295816  0.75000000  1
  F  F6  1  0.78638655  0.40295816  0.75000000  1
  F  F7  1  0.21361345  0.59704184  0.25000000  1
  F  F8  1  0.54240011  0.44985578  0.25000000  1
  F  F9  1  0.45759989  0.55014422  0.75000000  1
  F  F10  1  0.04240011  0.05014422  0.75000000  1
  F  F11  1  0.95759989  0.94985578  0.25000000  1
  F  F12  1  0.29373814  0.21761787  0.03173941  1
  F  F13  1  0.70626186  0.78238213  0.96826059  1
  F  F14  1  0.79373814  0.28238213  0.96826059  1
  F  F15  1  0.70626186  0.78238213  0.53173941  1
  F  F16  1  0.20626186  0.71761787  0.03173941  1
  F  F17  1  0.29373814  0.21761787  0.46826059  1
  F  F18  1  0.20626186  0.71761787  0.46826059  1
  F  F19  1  0.79373814  0.28238213  0.53173941  1
  F  F20  1  0.28303416  0.21225357  0.64440995  1
  F  F21  1  0.71696584  0.78774643  0.35559005  1
  F  F22  1  0.78303416  0.28774643  0.35559005  1
  F  F23  1  0.71696584  0.78774643  0.14440995  1
  F  F24  1  0.21696584  0.71225357  0.64440995  1
  F  F25  1  0.28303416  0.21225357  0.85559005  1
  F  F26  1  0.21696584  0.71225357  0.85559005  1
  F  F27  1  0.78303416  0.28774643  0.14440995  1
  F  F28  1  0.06228503  0.17084985  0.55025046  1
  F  F29  1  0.93771497  0.82915015  0.44974954  1
  F  F30  1  0.56228503  0.32915015  0.44974954  1
  F  F31  1  0.93771497  0.82915015  0.05025046  1
  F  F32  1  0.43771497  0.67084985  0.55025046  1
  F  F33  1  0.06228503  0.17084985  0.94974954  1
  F  F34  1  0.43771497  0.67084985  0.94974954  1
  F  F35  1  0.56228503  0.32915015  0.05025046  1
  F  F36  1  0.59625867  0.12601872  0.14205154  1
  F  F37  1  0.40374133  0.87398128  0.85794846  1
  F  F38  1  0.09625867  0.37398128  0.85794846  1
  F  F39  1  0.40374133  0.87398128  0.64205154  1
  F  F40  1  0.90374133  0.62601872  0.14205154  1
  F  F41  1  0.59625867  0.12601872  0.35794846  1
  F  F42  1  0.90374133  0.62601872  0.35794846  1
  F  F43  1  0.09625867  0.37398128  0.64205154  1
  F  F44  1  0.32784374  0.42176680  0.56264922  1
  F  F45  1  0.67215626  0.57823320  0.43735078  1
  F  F46  1  0.82784374  0.07823320  0.43735078  1
  F  F47  1  0.67215626  0.57823320  0.06264922  1
  F  F48  1  0.17215626  0.92176680  0.56264922  1
  F  F49  1  0.32784374  0.42176680  0.93735078  1
  F  F50  1  0.17215626  0.92176680  0.93735078  1
  F  F51  1  0.82784374  0.07823320  0.06264922  1
  F  F52  1  0.29313720  0.37669411  0.25000000  1
  F  F53  1  0.70686280  0.62330589  0.75000000  1
  F  F54  1  0.79313720  0.12330589  0.75000000  1
  F  F55  1  0.20686280  0.87669411  0.25000000  1
  F  F56  1  0.12009366  0.02342046  0.11998898  1
  F  F57  1  0.87990634  0.97657954  0.88001102  1
  F  F58  1  0.62009366  0.47657954  0.88001102  1
  F  F59  1  0.87990634  0.97657954  0.61998898  1
  F  F60  1  0.37990634  0.52342046  0.11998898  1
  F  F61  1  0.12009366  0.02342046  0.38001102  1
  F  F62  1  0.37990634  0.52342046  0.38001102  1
  F  F63  1  0.62009366  0.47657954  0.61998898  1
  F  F64  1  0.10598855  0.38023701  0.03362442  1
  F  F65  1  0.89401145  0.61976299  0.96637558  1
  F  F66  1  0.60598855  0.11976299  0.96637558  1
  F  F67  1  0.89401145  0.61976299  0.53362442  1
  F  F68  1  0.39401145  0.88023701  0.03362442  1
  F  F69  1  0.10598855  0.38023701  0.46637558  1
  F  F70  1  0.39401145  0.88023701  0.46637558  1
  F  F71  1  0.60598855  0.11976299  0.53362442  1
loop_
_geom_bond_atom_site_label_1
_geom_bond_atom_site_label_2
_geom_bond_distance
_geom_bond_site_symmetry_2
As0 F55 1.741383 1_545
As0 F11 1.741561 1_445
As0 F4 1.754029 1_555
As0 F0 1.754363 1_555
As0 F56 1.832329 1_555
As0 F61 1.832329 1_555
As1 F54 1.741383 1_565
As1 F10 1.741561 1_665
As1 F5 1.754029 1_555
As1 F1 1.754363 1_555
As1 F59 1.832329 1_555
As1 F57 1.832329 1_555
As2 F53 1.741383 1_555
As2 F9 1.741561 1_555
As2 F6 1.754029 1_555
As2 F2 1.754363 1_555
As2 F63 1.832329 1_555
As2 F58 1.832329 1_555
As3 F52 1.741383 1_555
As3 F8 1.741561 1_555
As3 F7 1.754029 1_555
As3 F3 1.754363 1_555
As3 F60 1.832329 1_555
As3 F62 1.832329 1_555
As4 F17 1.743962 1_555
As4 F69 1.745691 1_555
As4 F43 1.756581 1_555
As4 F20 1.757783 1_555
As4 F28 1.829117 1_555
As4 F44 1.834918 1_555
As5 F15 1.743962 1_555
As5 F67 1.745691 1_555
As5 F42 1.756581 1_555
As5 F21 1.757783 1_555
As5 F29 1.829117 1_555
As5 F45 1.834918 1_555
As6 F19 1.743962 1_555
As6 F71 1.745691 1_555
As6 F41 1.756581 1_555
As6 F22 1.757783 1_555
As6 F30 1.829117 1_555
As6 F46 1.834918 1_555
As7 F13 1.743962 1_554
As7 F65 1.745691 1_554
As7 F40 1.756581 1_555
As7 F23 1.757783 1_555
As7 F31 1.829117 1_555
As7 F47 1.834918 1_555
As8 F18 1.743962 1_555
As8 F70 1.745691 1_555
As8 F39 1.756581 1_555
As8 F24 1.757783 1_555
As8 F32 1.829117 1_555
As8 F48 1.834918 1_555
As9 F12 1.743962 1_556
As9 F64 1.745691 1_556
As9 F38 1.756581 1_555
As9 F25 1.757783 1_555
As9 F33 1.829117 1_555
As9 F49 1.834918 1_555
As10 F16 1.743962 1_556
As10 F68 1.745691 1_556
As10 F37 1.756581 1_555
As10 F26 1.757783 1_555
As10 F34 1.829117 1_555
As10 F50 1.834918 1_555
As11 F14 1.743962 1_554
As11 F66 1.745691 1_554
As11 F36 1.756581 1_555
As11 F27 1.757783 1_555
As11 F35 1.829117 1_555
As11 F51 1.834918 1_555
F28 Ni2 2.023355 1_555
F29 Ni2 2.023355 1_665
F30 Ni3 2.023355 1_555
F31 Ni0 2.023355 1_665
F32 Ni3 2.023355 1_555
F33 Ni0 2.023355 1_556
F34 Ni1 2.023355 1_556
F35 Ni1 2.023355 1_555
F44 Ni3 2.037088 1_555
F45 Ni3 2.037088 1_555
F46 Ni2 2.037088 1_655
F47 Ni1 2.037088 1_555
F48 Ni2 2.037088 1_565
F49 Ni1 2.037088 1_556
F50 Ni0 2.037088 1_566
F51 Ni0 2.037088 1_655
F56 Ni0 2.056658 1_555
F57 Ni0 2.056658 1_666
F58 Ni1 2.056658 1_556
F59 Ni2 2.056658 1_665
F60 Ni1 2.056658 1_555
F61 Ni2 2.056658 1_555
F62 Ni3 2.056658 1_555
F63 Ni3 2.056658 1_555
