# generated using pymatgen
data_Be4Si2O9
_symmetry_space_group_name_H-M   'P 1'
_cell_length_a   4.65480200
_cell_length_b   8.69600900
_cell_length_c   9.07554789
_cell_angle_alpha   118.62599080
_cell_angle_beta   90.00000000
_cell_angle_gamma   90.00000000
_symmetry_Int_Tables_number   1
_chemical_formula_structural   Be4Si2O9
_chemical_formula_sum   'Be8 Si4 O18'
_cell_volume   322.45763991
_cell_formula_units_Z   2
loop_
 _symmetry_equiv_pos_site_id
 _symmetry_equiv_pos_as_xyz
  1  'x, y, z'
loop_
 _atom_site_type_symbol
 _atom_site_label
 _atom_site_symmetry_multiplicity
 _atom_site_fract_x
 _atom_site_fract_y
 _atom_site_fract_z
 _atom_site_occupancy
  Be  Be0  1  0.62348500  0.13036500  0.90505300  1
  Be  Be1  1  0.62348500  0.77468800  0.90505300  1
  Be  Be2  1  0.12348500  0.86963500  0.09494700  1
  Be  Be3  1  0.12348500  0.22531200  0.09494700  1
  Be  Be4  1  0.62227100  0.10200300  0.56771600  1
  Be  Be5  1  0.62227100  0.46571300  0.56771600  1
  Be  Be6  1  0.12227100  0.89799700  0.43228400  1
  Be  Be7  1  0.12227100  0.53428700  0.43228400  1
  Si  Si0  1  0.12456700  0.20140100  0.76462100  1
  Si  Si1  1  0.12456700  0.56322000  0.76462100  1
  Si  Si2  1  0.62456700  0.79859900  0.23537900  1
  Si  Si3  1  0.62456700  0.43678000  0.23537900  1
  O  O0  1  0.46707500  0.14579900  0.74868800  1
  O  O1  1  0.46707500  0.60288900  0.74868800  1
  O  O2  1  0.96707500  0.85420100  0.25131200  1
  O  O3  1  0.96707500  0.39711100  0.25131200  1
  O  O4  1  0.96582800  0.18136400  0.91612400  1
  O  O5  1  0.96582800  0.73476100  0.91612400  1
  O  O6  1  0.46582800  0.81863600  0.08387600  1
  O  O7  1  0.46582800  0.26523900  0.08387600  1
  O  O8  1  0.96738400  0.06917300  0.58550200  1
  O  O9  1  0.96738400  0.51632900  0.58550200  1
  O  O10  1  0.46738400  0.93082700  0.41449800  1
  O  O11  1  0.46738400  0.48367100  0.41449800  1
  O  O12  1  0.08636400  0.40541300  0.81082600  1
  O  O13  1  0.58636400  0.59458700  0.18917400  1
  O  O14  1  0.55200000  0.27545600  0.55091100  1
  O  O15  1  0.05200000  0.72454400  0.44908900  1
  O  O16  1  0.55341400  0.94225200  0.88450500  1
  O  O17  1  0.05341400  0.05774800  0.11549500  1
loop_
_geom_bond_atom_site_label_1
_geom_bond_atom_site_label_2
_geom_bond_distance
_geom_bond_site_symmetry_2
Be0 O16 1.588965 1_545
Be0 O4 1.644216 1_555
Be0 O7 1.650505 1_556
Be0 O0 1.656629 1_555
Be1 O16 1.588956 1_555
Be1 O5 1.644214 1_555
Be1 O6 1.650507 1_556
Be1 O1 1.656629 1_555
Be2 O17 1.588965 1_565
Be2 O6 1.644216 1_555
Be2 O5 1.650505 1_454
Be2 O2 1.656629 1_455
Be3 O17 1.588956 1_555
Be3 O7 1.644214 1_555
Be3 O4 1.650507 1_454
Be3 O3 1.656629 1_455
Be4 O14 1.620430 1_555
Be4 O10 1.638855 1_545
Be4 O8 1.652980 1_555
Be4 O0 1.662860 1_555
Be5 O14 1.620422 1_555
Be5 O11 1.638855 1_555
Be5 O9 1.652980 1_555
Be5 O1 1.662860 1_555
Be6 O15 1.620430 1_555
Be6 O8 1.638855 1_465
Be6 O10 1.652980 1_555
Be6 O2 1.662860 1_455
Be7 O15 1.620422 1_555
Be7 O9 1.638855 1_455
Be7 O11 1.652980 1_555
Be7 O3 1.662860 1_455
O0 Si0 1.652125 1_555
O1 Si1 1.652125 1_555
O2 Si2 1.652125 1_555
O3 Si3 1.652125 1_555
O4 Si0 1.642084 1_655
O5 Si1 1.642088 1_655
O6 Si2 1.642084 1_555
O7 Si3 1.642088 1_555
O8 Si0 1.645915 1_655
O9 Si1 1.645915 1_655
O10 Si2 1.645915 1_555
O11 Si3 1.645915 1_555
O12 Si0 1.625433 1_555
O12 Si1 1.625433 1_555
O13 Si2 1.625433 1_555
O13 Si3 1.625433 1_555
