# generated using pymatgen
data_SrCaCd2
_symmetry_space_group_name_H-M   'P 1'
_cell_length_a   13.64963064
_cell_length_b   13.64963064
_cell_length_c   13.64963064
_cell_angle_alpha   121.20610849
_cell_angle_beta   116.36327969
_cell_angle_gamma   92.16748718
_symmetry_Int_Tables_number   1
_chemical_formula_structural   SrCaCd2
_chemical_formula_sum   'Sr1 Ca1 Cd2'
_cell_volume   1825.95262719
_cell_formula_units_Z   1
loop_
 _symmetry_equiv_pos_site_id
 _symmetry_equiv_pos_as_xyz
  1  'x, y, z'
loop_
 _atom_site_type_symbol
 _atom_site_label
 _atom_site_symmetry_multiplicity
 _atom_site_fract_x
 _atom_site_fract_y
 _atom_site_fract_z
 _atom_site_occupancy
  Sr  Sr0  1  0.50000000  0.00000000  0.50000000  1
  Ca  Ca0  1  0.00000000  0.00000000  0.00000000  1
  Cd  Cd0  1  0.24527700  0.00000000  0.24527700  1
  Cd  Cd1  1  0.75472300  0.00000000  0.75472300  1
loop_
_geom_bond_atom_site_label_1
_geom_bond_atom_site_label_2
_geom_bond_distance
_geom_bond_site_symmetry_2
Ca0 Cd0 3.530257 1_555
Ca0 Cd1 3.530257 1_454
Cd0 Sr0 3.666212 1_555
Cd1 Sr0 3.666212 1_555
