# generated using pymatgen
data_BaAl4O7
_symmetry_space_group_name_H-M   'P 1'
_cell_length_a   5.63127300
_cell_length_b   9.28150000
_cell_length_c   12.94800600
_cell_angle_alpha   90.00000000
_cell_angle_beta   90.00000000
_cell_angle_gamma   90.00000000
_symmetry_Int_Tables_number   1
_chemical_formula_structural   BaAl4O7
_chemical_formula_sum   'Ba4 Al16 O28'
_cell_volume   676.74903181
_cell_formula_units_Z   4
loop_
 _symmetry_equiv_pos_site_id
 _symmetry_equiv_pos_as_xyz
  1  'x, y, z'
loop_
 _atom_site_type_symbol
 _atom_site_label
 _atom_site_symmetry_multiplicity
 _atom_site_fract_x
 _atom_site_fract_y
 _atom_site_fract_z
 _atom_site_occupancy
  Ba  Ba0  1  0.87446800  0.54907700  0.75000000  1
  Ba  Ba1  1  0.62553200  0.04907700  0.25000000  1
  Ba  Ba2  1  0.37446800  0.95092300  0.75000000  1
  Ba  Ba3  1  0.12553200  0.45092300  0.25000000  1
  Al  Al0  1  0.32152600  0.66386700  0.57437500  1
  Al  Al1  1  0.32152600  0.66386700  0.92562500  1
  Al  Al2  1  0.17847400  0.16386700  0.42562500  1
  Al  Al3  1  0.17847400  0.16386700  0.07437500  1
  Al  Al4  1  0.82152600  0.83613300  0.57437500  1
  Al  Al5  1  0.82152600  0.83613300  0.92562500  1
  Al  Al6  1  0.67847400  0.33613300  0.42562500  1
  Al  Al7  1  0.67847400  0.33613300  0.07437500  1
  Al  Al8  1  0.12935900  0.81603000  0.37304500  1
  Al  Al9  1  0.12935900  0.81603000  0.12695500  1
  Al  Al10  1  0.37064100  0.31603000  0.62695500  1
  Al  Al11  1  0.37064100  0.31603000  0.87304500  1
  Al  Al12  1  0.62935900  0.68397000  0.37304500  1
  Al  Al13  1  0.62935900  0.68397000  0.12695500  1
  Al  Al14  1  0.87064100  0.18397000  0.62695500  1
  Al  Al15  1  0.87064100  0.18397000  0.87304500  1
  O  O0  1  0.83702600  0.80869700  0.43570400  1
  O  O1  1  0.83702600  0.80869700  0.06429600  1
  O  O2  1  0.66297400  0.30869700  0.56429600  1
  O  O3  1  0.66297400  0.30869700  0.93570400  1
  O  O4  1  0.33702600  0.69130300  0.43570400  1
  O  O5  1  0.33702600  0.69130300  0.06429600  1
  O  O6  1  0.16297400  0.19130300  0.56429600  1
  O  O7  1  0.16297400  0.19130300  0.93570400  1
  O  O8  1  0.25901500  0.48930000  0.61558100  1
  O  O9  1  0.25901500  0.48930000  0.88441900  1
  O  O10  1  0.24098500  0.98930000  0.38441900  1
  O  O11  1  0.24098500  0.98930000  0.11558100  1
  O  O12  1  0.09335600  0.77390000  0.62370400  1
  O  O13  1  0.09335600  0.77390000  0.87629600  1
  O  O14  1  0.40664400  0.27390000  0.37629600  1
  O  O15  1  0.40664400  0.27390000  0.12370400  1
  O  O16  1  0.59335600  0.72610000  0.62370400  1
  O  O17  1  0.59335600  0.72610000  0.87629600  1
  O  O18  1  0.90664400  0.22610000  0.37629600  1
  O  O19  1  0.90664400  0.22610000  0.12370400  1
  O  O20  1  0.74098500  0.51070000  0.38441900  1
  O  O21  1  0.74098500  0.51070000  0.11558100  1
  O  O22  1  0.75901500  0.01070000  0.61558100  1
  O  O23  1  0.75901500  0.01070000  0.88441900  1
  O  O24  1  0.56116100  0.75144600  0.25000000  1
  O  O25  1  0.93883900  0.25144600  0.75000000  1
  O  O26  1  0.06116100  0.74855400  0.25000000  1
  O  O27  1  0.43883900  0.24855400  0.75000000  1
loop_
_geom_bond_atom_site_label_1
_geom_bond_atom_site_label_2
_geom_bond_distance
_geom_bond_site_symmetry_2
Ba0 O25 2.786144 1_555
Ba0 O16 2.807075 1_555
Ba0 O17 2.807075 1_555
Ba0 O9 2.833084 1_655
Ba0 O8 2.833084 1_655
Ba0 O12 2.923660 1_655
Ba0 O13 2.923660 1_655
Ba1 O24 2.786144 1_545
Ba1 O19 2.807075 1_555
Ba1 O18 2.807075 1_555
Ba1 O11 2.833084 1_545
Ba1 O10 2.833084 1_545
Ba1 O15 2.923660 1_555
Ba1 O14 2.923660 1_555
Ba2 O27 2.786144 1_565
Ba2 O12 2.807075 1_555
Ba2 O13 2.807075 1_555
Ba2 O22 2.833084 1_565
Ba2 O23 2.833084 1_565
Ba2 O16 2.923660 1_555
Ba2 O17 2.923660 1_555
Ba3 O26 2.786144 1_555
Ba3 O14 2.807075 1_555
Ba3 O15 2.807075 1_555
Ba3 O21 2.833084 1_455
Ba3 O20 2.833084 1_455
Ba3 O18 2.923660 1_455
Ba3 O19 2.923660 1_455
Al0 O8 1.741771 1_555
Al0 O16 1.756356 1_555
Al0 O12 1.761217 1_555
Al0 O4 1.815580 1_555
Al1 O9 1.741771 1_555
Al1 O17 1.756356 1_555
Al1 O13 1.761217 1_555
Al1 O5 1.815580 1_556
Al2 O10 1.741771 1_545
Al2 O18 1.756356 1_455
Al2 O14 1.761217 1_555
Al2 O6 1.815580 1_555
Al3 O11 1.741771 1_545
Al3 O19 1.756356 1_455
Al3 O15 1.761217 1_555
Al3 O7 1.815580 1_554
Al4 O22 1.741771 1_565
Al4 O12 1.756356 1_655
Al4 O16 1.761217 1_555
Al4 O0 1.815580 1_555
Al5 O23 1.741771 1_565
Al5 O13 1.756356 1_655
Al5 O17 1.761217 1_555
Al5 O1 1.815580 1_556
Al6 O20 1.741771 1_555
Al6 O14 1.756356 1_555
Al6 O18 1.761217 1_555
Al6 O2 1.815580 1_555
Al7 O21 1.741771 1_555
Al7 O15 1.756356 1_555
Al7 O19 1.761217 1_555
Al7 O3 1.815580 1_554
Al8 O10 1.732959 1_555
Al8 O26 1.754411 1_555
Al8 O4 1.834653 1_555
Al8 O0 1.836533 1_455
Al9 O11 1.732959 1_555
Al9 O26 1.754411 1_555
Al9 O5 1.834653 1_555
Al9 O1 1.836533 1_455
Al10 O8 1.732959 1_555
Al10 O27 1.754411 1_555
Al10 O6 1.834653 1_555
Al10 O2 1.836533 1_555
Al11 O9 1.732959 1_555
Al11 O27 1.754411 1_555
Al11 O7 1.834653 1_555
Al11 O3 1.836533 1_555
Al12 O20 1.732959 1_555
Al12 O24 1.754411 1_555
Al12 O0 1.834653 1_555
Al12 O4 1.836533 1_555
Al13 O21 1.732959 1_555
Al13 O24 1.754411 1_555
Al13 O1 1.834653 1_555
Al13 O5 1.836533 1_555
Al14 O22 1.732959 1_555
Al14 O25 1.754411 1_555
Al14 O2 1.834653 1_555
Al14 O6 1.836533 1_655
Al15 O23 1.732959 1_555
Al15 O25 1.754411 1_555
Al15 O3 1.834653 1_555
Al15 O7 1.836533 1_655
