# generated using pymatgen
data_Li9Co7O16
_symmetry_space_group_name_H-M   'P 1'
_cell_length_a   7.69542489
_cell_length_b   7.69542489
_cell_length_c   5.10461436
_cell_angle_alpha   77.00834505
_cell_angle_beta   77.00834505
_cell_angle_gamma   97.75813693
_symmetry_Int_Tables_number   1
_chemical_formula_structural   Li9Co7O16
_chemical_formula_sum   'Li9 Co7 O16'
_cell_volume   281.48242041
_cell_formula_units_Z   1
loop_
 _symmetry_equiv_pos_site_id
 _symmetry_equiv_pos_as_xyz
  1  'x, y, z'
loop_
 _atom_site_type_symbol
 _atom_site_label
 _atom_site_symmetry_multiplicity
 _atom_site_fract_x
 _atom_site_fract_y
 _atom_site_fract_z
 _atom_site_occupancy
  Li  Li0  1  0.62155600  0.37844400  0.50000000  1
  Li  Li1  1  0.25376700  0.25376700  0.49100600  1
  Li  Li2  1  0.87448200  0.12551800  0.50000000  1
  Li  Li3  1  0.50000000  0.00000000  0.50000000  1
  Li  Li4  1  0.12551800  0.87448200  0.50000000  1
  Li  Li5  1  0.74623300  0.74623300  0.50899400  1
  Li  Li6  1  0.37844400  0.62155600  0.50000000  1
  Li  Li7  1  0.00000000  0.50000000  0.50000000  1
  Li  Li8  1  0.50000000  0.50000000  0.00000000  1
  Co  Co0  1  0.74818200  0.25181800  0.00000000  1
  Co  Co1  1  0.25181800  0.74818200  0.00000000  1
  Co  Co2  1  0.37760300  0.13048000  0.99993100  1
  Co  Co3  1  0.00000000  0.00000000  0.00000000  1
  Co  Co4  1  0.62239700  0.86952000  0.00006900  1
  Co  Co5  1  0.86952000  0.62239700  0.00006900  1
  Co  Co6  1  0.13048000  0.37760300  0.99993100  1
  O  O0  1  0.75679700  0.48231800  0.77484300  1
  O  O1  1  0.36000100  0.36000100  0.76465900  1
  O  O2  1  0.98357800  0.24720000  0.77793200  1
  O  O3  1  0.63036800  0.12649700  0.78075100  1
  O  O4  1  0.24720000  0.98357800  0.77793200  1
  O  O5  1  0.87453500  0.87453500  0.76363800  1
  O  O6  1  0.48231800  0.75679700  0.77484300  1
  O  O7  1  0.12649700  0.63036800  0.78075100  1
  O  O8  1  0.51768200  0.24320300  0.22515700  1
  O  O9  1  0.12546500  0.12546500  0.23636200  1
  O  O10  1  0.75280000  0.01642200  0.22206800  1
  O  O11  1  0.36963200  0.87350300  0.21924900  1
  O  O12  1  0.01642200  0.75280000  0.22206800  1
  O  O13  1  0.63999900  0.63999900  0.23534100  1
  O  O14  1  0.24320300  0.51768200  0.22515700  1
  O  O15  1  0.87350300  0.36963200  0.21924900  1
loop_
_geom_bond_atom_site_label_1
_geom_bond_atom_site_label_2
_geom_bond_distance
_geom_bond_site_symmetry_2
Li0 O1 2.123822 1_555
Li0 O13 2.123822 1_555
Li0 O8 2.150940 1_555
Li0 O0 2.150940 1_555
Li0 O3 2.155789 1_555
Li0 O15 2.155789 1_555
Li1 O1 2.033334 1_555
Li1 O9 2.128427 1_555
Li1 O14 2.197250 1_555
Li1 O8 2.197250 1_555
Li1 O2 2.244998 1_455
Li1 O4 2.244998 1_545
Li2 O9 2.091237 1_655
Li2 O5 2.091237 1_545
Li2 O15 2.093109 1_555
Li2 O3 2.093109 1_555
Li2 O10 2.124871 1_555
Li2 O2 2.124871 1_555
Li3 O6 2.038228 1_545
Li3 O8 2.038228 1_555
Li3 O4 2.103672 1_545
Li3 O10 2.103672 1_555
Li3 O11 2.240082 1_545
Li3 O3 2.240082 1_555
Li4 O9 2.091237 1_565
Li4 O5 2.091237 1_455
Li4 O11 2.093109 1_555
Li4 O7 2.093109 1_555
Li4 O12 2.124871 1_555
Li4 O4 2.124871 1_555
Li5 O13 2.033334 1_555
Li5 O5 2.128427 1_555
Li5 O6 2.197250 1_555
Li5 O0 2.197250 1_555
Li5 O10 2.244998 1_565
Li5 O12 2.244998 1_655
Li6 O1 2.123822 1_555
Li6 O13 2.123822 1_555
Li6 O14 2.150940 1_555
Li6 O6 2.150940 1_555
Li6 O7 2.155789 1_555
Li6 O11 2.155789 1_555
Li7 O0 2.038228 1_455
Li7 O14 2.038228 1_555
Li7 O2 2.103672 1_455
Li7 O12 2.103672 1_555
Li7 O15 2.240082 1_455
Li7 O7 2.240082 1_555
Li8 O14 2.089597 1_555
Li8 O8 2.089597 1_555
Li8 O0 2.089597 1_554
Li8 O6 2.089597 1_554
Li8 O13 2.148261 1_555
Li8 O1 2.148261 1_554
Co0 O8 1.867909 1_555
Co0 O0 1.867909 1_554
Co0 O2 1.918309 1_554
Co0 O10 1.918309 1_555
Co0 O3 1.926151 1_554
Co0 O15 1.926151 1_555
Co1 O14 1.867909 1_555
Co1 O6 1.867909 1_554
Co1 O4 1.918309 1_554
Co1 O12 1.918309 1_555
Co1 O7 1.926151 1_554
Co1 O11 1.926151 1_555
Co2 O1 1.940195 1_555
Co2 O8 1.997361 1_556
Co2 O3 2.022199 1_555
Co2 O11 2.027008 1_546
Co2 O9 2.031951 1_556
Co2 O4 2.085713 1_545
Co3 O12 2.019775 1_545
Co3 O10 2.019775 1_455
Co3 O2 2.019775 1_454
Co3 O4 2.019775 1_544
Co3 O9 2.028792 1_555
Co3 O5 2.028792 1_444
Co4 O13 1.940195 1_555
Co4 O6 1.997361 1_554
Co4 O11 2.022199 1_555
Co4 O3 2.027008 1_564
Co4 O5 2.031951 1_554
Co4 O10 2.085713 1_565
Co5 O13 1.940195 1_555
Co5 O0 1.997361 1_554
Co5 O15 2.022199 1_555
Co5 O7 2.027008 1_654
Co5 O5 2.031951 1_554
Co5 O12 2.085713 1_655
Co6 O1 1.940195 1_555
Co6 O14 1.997361 1_556
Co6 O7 2.022199 1_555
Co6 O15 2.027008 1_456
Co6 O9 2.031951 1_556
Co6 O2 2.085713 1_455
