# generated using pymatgen
data_Ce(SnPd)2
_symmetry_space_group_name_H-M   'P 1'
_cell_length_a   4.57782822
_cell_length_b   4.57782822
_cell_length_c   10.73489944
_cell_angle_alpha   90.00000000
_cell_angle_beta   90.00000000
_cell_angle_gamma   90.00000000
_symmetry_Int_Tables_number   1
_chemical_formula_structural   Ce(SnPd)2
_chemical_formula_sum   'Ce2 Sn4 Pd4'
_cell_volume   224.96604047
_cell_formula_units_Z   2
loop_
 _symmetry_equiv_pos_site_id
 _symmetry_equiv_pos_as_xyz
  1  'x, y, z'
loop_
 _atom_site_type_symbol
 _atom_site_label
 _atom_site_symmetry_multiplicity
 _atom_site_fract_x
 _atom_site_fract_y
 _atom_site_fract_z
 _atom_site_occupancy
  Ce  Ce0  1  -0.00000000  0.50000000  0.24440480  1
  Ce  Ce1  1  0.50000000  0.00000000  0.75565303  1
  Sn  Sn0  1  -0.00000000  0.00000000  0.50002173  1
  Sn  Sn1  1  0.50000000  0.50000000  0.50002173  1
  Sn  Sn2  1  0.00000000  0.50000000  0.87271979  1
  Sn  Sn3  1  0.50000000  0.00000000  0.12721685  1
  Pd  Pd0  1  0.00000000  0.00000000  -0.00003335  1
  Pd  Pd1  1  0.50000000  0.50000000  -0.00003335  1
  Pd  Pd2  1  0.00000000  0.50000000  0.63031298  1
  Pd  Pd3  1  0.50000000  0.00000000  0.36971579  1
loop_
_geom_bond_atom_site_label_1
_geom_bond_atom_site_label_2
_geom_bond_distance
_geom_bond_site_symmetry_2
Ce0 Sn3 3.472869 1_555
Ce0 Sn3 3.472869 1_465
Ce0 Sn3 3.472869 1_565
Ce0 Sn3 3.472869 1_455
Ce0 Pd1 3.482040 1_455
Ce0 Pd1 3.482040 1_555
Ce0 Pd0 3.482040 1_555
Ce0 Pd0 3.482040 1_565
Ce0 Pd3 3.505399 1_565
Ce0 Pd3 3.505399 1_455
Ce0 Pd3 3.505399 1_465
Ce0 Pd3 3.505399 1_555
Ce0 Sn0 3.573344 1_565
Ce0 Sn1 3.573344 1_455
Ce0 Sn0 3.573344 1_555
Ce0 Sn1 3.573344 1_555
Ce1 Sn2 3.472398 1_655
Ce1 Sn2 3.472398 1_645
Ce1 Sn2 3.472398 1_555
Ce1 Sn2 3.472398 1_545
Ce1 Pd0 3.481033 1_556
Ce1 Pd1 3.481033 1_546
Ce1 Pd0 3.481033 1_656
Ce1 Pd1 3.481033 1_556
Ce1 Pd2 3.505519 1_645
Ce1 Pd2 3.505519 1_655
Ce1 Pd2 3.505519 1_555
Ce1 Pd2 3.505519 1_545
Ce1 Sn0 3.573462 1_555
Ce1 Sn0 3.573462 1_655
Ce1 Sn1 3.573462 1_555
Ce1 Sn1 3.573462 1_545
Pd0 Sn2 2.665527 1_554
Pd0 Sn2 2.665527 1_544
Pd0 Sn3 2.665546 1_455
Pd0 Sn3 2.665546 1_555
Pd1 Sn2 2.665527 1_554
Pd1 Sn2 2.665527 1_654
Pd1 Sn3 2.665546 1_565
Pd1 Sn3 2.665546 1_555
Pd2 Sn2 2.602213 1_555
Pd2 Sn1 2.682422 1_455
Pd2 Sn0 2.682422 1_565
Pd2 Sn0 2.682422 1_555
Pd2 Sn1 2.682422 1_555
Pd3 Sn3 2.603202 1_555
Pd3 Sn0 2.682504 1_655
Pd3 Sn1 2.682504 1_555
Pd3 Sn1 2.682504 1_545
Pd3 Sn0 2.682504 1_555
