# generated using pymatgen
data_Ag6SnSb
_symmetry_space_group_name_H-M   'P 1'
_cell_length_a   4.80520136
_cell_length_b   5.30286556
_cell_length_c   6.02456770
_cell_angle_alpha   90.00000000
_cell_angle_beta   90.00000000
_cell_angle_gamma   90.00000000
_symmetry_Int_Tables_number   1
_chemical_formula_structural   Ag6SnSb
_chemical_formula_sum   'Ag6 Sn1 Sb1'
_cell_volume   153.51403864
_cell_formula_units_Z   1
loop_
 _symmetry_equiv_pos_site_id
 _symmetry_equiv_pos_as_xyz
  1  'x, y, z'
loop_
 _atom_site_type_symbol
 _atom_site_label
 _atom_site_symmetry_multiplicity
 _atom_site_fract_x
 _atom_site_fract_y
 _atom_site_fract_z
 _atom_site_occupancy
  Ag  Ag0  1  0.50000000  0.16018633  0.75400161  1
  Ag  Ag1  1  0.50000000  0.16018633  0.24599839  1
  Ag  Ag2  1  -0.00000000  0.84279851  0.75267154  1
  Ag  Ag3  1  -0.00000000  0.84279851  0.24732846  1
  Ag  Ag4  1  -0.00000000  0.31970322  0.50000000  1
  Ag  Ag5  1  0.50000000  0.66972327  -0.00000000  1
  Sn  Sn0  1  0.00000000  0.33428976  -0.00000000  1
  Sb  Sb0  1  0.50000000  0.67031507  0.50000000  1
loop_
_geom_bond_atom_site_label_1
_geom_bond_atom_site_label_2
_geom_bond_distance
_geom_bond_site_symmetry_2
Ag0 Ag2 2.933473 1_545
Ag0 Ag2 2.933473 1_645
Ag0 Ag1 2.964068 1_556
Ag0 Sn0 2.970067 1_556
Ag0 Sn0 2.970067 1_656
Ag0 Ag4 2.971480 1_555
Ag0 Ag4 2.971480 1_655
Ag0 Ag5 2.993476 1_546
Ag0 Sb0 3.014933 1_545
Ag0 Ag1 3.060500 1_555
Ag0 Ag5 3.081763 1_556
Ag0 Sb0 3.107969 1_555
Ag1 Ag3 2.933473 1_545
Ag1 Ag3 2.933473 1_645
Ag1 Sn0 2.970067 1_555
Ag1 Sn0 2.970067 1_655
Ag1 Ag4 2.971480 1_555
Ag1 Ag4 2.971480 1_655
Ag1 Ag5 2.993476 1_545
Ag1 Sb0 3.014933 1_545
Ag1 Ag5 3.081763 1_555
Ag1 Sb0 3.107969 1_555
Ag2 Ag4 2.951754 1_565
Ag2 Ag5 2.972386 1_556
Ag2 Ag5 2.972386 1_456
Ag2 Ag3 2.980094 1_556
Ag2 Sb0 2.987690 1_455
Ag2 Sb0 2.987690 1_555
Ag2 Sn0 3.002183 1_566
Ag2 Ag3 3.044474 1_555
Ag2 Sn0 3.080851 1_556
Ag2 Ag4 3.164135 1_555
Ag3 Ag4 2.951754 1_565
Ag3 Ag5 2.972386 1_555
Ag3 Ag5 2.972386 1_455
Ag3 Sb0 2.987690 1_455
Ag3 Sb0 2.987690 1_555
Ag3 Sn0 3.002183 1_565
Ag3 Sn0 3.080851 1_555
Ag3 Ag4 3.164135 1_555
Ag4 Sn0 3.013277 1_555
Ag4 Sn0 3.013277 1_556
Ag4 Sb0 3.037975 1_455
Ag4 Sb0 3.037975 1_555
Ag5 Sn0 2.989393 1_555
Ag5 Sn0 2.989393 1_655
Ag5 Sb0 3.012285 1_554
Ag5 Sb0 3.012285 1_555
