# generated using pymatgen
data_CaCu3(SnO3)4
_symmetry_space_group_name_H-M   'P 1'
_cell_length_a   6.72614045
_cell_length_b   6.72614045
_cell_length_c   6.72614045
_cell_angle_alpha   109.47122063
_cell_angle_beta   109.47122063
_cell_angle_gamma   109.47122063
_symmetry_Int_Tables_number   1
_chemical_formula_structural   CaCu3(SnO3)4
_chemical_formula_sum   'Ca1 Cu3 Sn4 O12'
_cell_volume   234.24800694
_cell_formula_units_Z   1
loop_
 _symmetry_equiv_pos_site_id
 _symmetry_equiv_pos_as_xyz
  1  'x, y, z'
loop_
 _atom_site_type_symbol
 _atom_site_label
 _atom_site_symmetry_multiplicity
 _atom_site_fract_x
 _atom_site_fract_y
 _atom_site_fract_z
 _atom_site_occupancy
  Ca  Ca0  1  0.00000000  0.00000000  0.00000000  1
  Cu  Cu0  1  0.50000000  0.00000000  0.50000000  1
  Cu  Cu1  1  0.50000000  0.50000000  0.00000000  1
  Cu  Cu2  1  0.00000000  0.50000000  0.50000000  1
  Sn  Sn0  1  0.50000000  0.50000000  0.50000000  1
  Sn  Sn1  1  0.50000000  0.00000000  0.00000000  1
  Sn  Sn2  1  0.00000000  0.50000000  0.00000000  1
  Sn  Sn3  1  0.00000000  0.00000000  0.50000000  1
  O  O0  1  0.30714200  0.13756000  0.83041700  1
  O  O1  1  0.69285800  0.86244000  0.16958300  1
  O  O2  1  0.69285800  0.52327500  0.83041700  1
  O  O3  1  0.47672500  0.16958300  0.30714200  1
  O  O4  1  0.16958300  0.30714200  0.47672500  1
  O  O5  1  0.83041700  0.30714200  0.13756000  1
  O  O6  1  0.86244000  0.16958300  0.69285800  1
  O  O7  1  0.83041700  0.69285800  0.52327500  1
  O  O8  1  0.30714200  0.47672500  0.16958300  1
  O  O9  1  0.52327500  0.83041700  0.69285800  1
  O  O10  1  0.16958300  0.69285800  0.86244000  1
  O  O11  1  0.13756000  0.83041700  0.30714200  1
loop_
_geom_bond_atom_site_label_1
_geom_bond_atom_site_label_2
_geom_bond_distance
_geom_bond_site_symmetry_2
Ca0 O8 2.724927 1_555
Ca0 O3 2.724927 1_555
Ca0 O4 2.724927 1_555
Ca0 O2 2.724927 1_444
Ca0 O7 2.724927 1_444
Ca0 O9 2.724927 1_444
Ca0 O11 2.724928 1_545
Ca0 O1 2.724928 1_445
Ca0 O5 2.724928 1_455
Ca0 O6 2.724928 1_454
Ca0 O10 2.724928 1_544
Ca0 O0 2.724928 1_554
Cu0 O11 1.994574 1_545
Cu0 O6 1.994574 1_555
Cu0 O9 1.994579 1_545
Cu0 O3 1.994579 1_555
Cu1 O0 1.994574 1_554
Cu1 O1 1.994574 1_555
Cu1 O2 1.994579 1_554
Cu1 O8 1.994579 1_555
Cu2 O5 1.994574 1_455
Cu2 O10 1.994574 1_555
Cu2 O7 1.994579 1_455
Cu2 O4 1.994579 1_555
O0 Sn3 2.087373 1_555
O0 Sn1 2.087380 1_556
O1 Sn3 2.087373 1_665
O1 Sn1 2.087380 1_565
O2 Sn2 2.087375 1_656
O2 Sn0 2.087375 1_555
O3 Sn1 2.087375 1_555
O3 Sn0 2.087375 1_555
O4 Sn3 2.087375 1_555
O4 Sn0 2.087375 1_555
O5 Sn1 2.087373 1_555
O5 Sn2 2.087380 1_655
O6 Sn2 2.087373 1_656
O6 Sn3 2.087380 1_655
O7 Sn3 2.087375 1_665
O7 Sn0 2.087375 1_555
O8 Sn2 2.087375 1_555
O8 Sn0 2.087375 1_555
O9 Sn1 2.087375 1_566
O9 Sn0 2.087375 1_555
O10 Sn1 2.087373 1_566
O10 Sn2 2.087380 1_556
O11 Sn2 2.087373 1_555
O11 Sn3 2.087380 1_565
