# generated using pymatgen
data_Tb7Mg3Ge8
_symmetry_space_group_name_H-M   'P 1'
_cell_length_a   7.17971000
_cell_length_b   7.84535200
_cell_length_c   14.49944511
_cell_angle_alpha   89.99281997
_cell_angle_beta   90.00000000
_cell_angle_gamma   90.00000000
_symmetry_Int_Tables_number   1
_chemical_formula_structural   Tb7Mg3Ge8
_chemical_formula_sum   'Tb14 Mg6 Ge16'
_cell_volume   816.71534533
_cell_formula_units_Z   2
loop_
 _symmetry_equiv_pos_site_id
 _symmetry_equiv_pos_as_xyz
  1  'x, y, z'
loop_
 _atom_site_type_symbol
 _atom_site_label
 _atom_site_symmetry_multiplicity
 _atom_site_fract_x
 _atom_site_fract_y
 _atom_site_fract_z
 _atom_site_occupancy
  Tb  Tb0  1  0.49003400  0.93385800  0.65318900  1
  Tb  Tb1  1  0.99003400  0.06614200  0.34681100  1
  Tb  Tb2  1  0.51276000  0.56631400  0.15559100  1
  Tb  Tb3  1  0.01276000  0.43368600  0.84440900  1
  Tb  Tb4  1  0.51053600  0.56592200  0.84360200  1
  Tb  Tb5  1  0.01053600  0.43407800  0.15639800  1
  Tb  Tb6  1  0.48833700  0.93502900  0.34742600  1
  Tb  Tb7  1  0.98833700  0.06497100  0.65257400  1
  Tb  Tb8  1  0.67128100  0.07238100  0.12473800  1
  Tb  Tb9  1  0.17128100  0.92761900  0.87526200  1
  Tb  Tb10  1  0.67040700  0.07373300  0.87623600  1
  Tb  Tb11  1  0.17040700  0.92626700  0.12376400  1
  Tb  Tb12  1  0.32959200  0.43076900  0.37963200  1
  Tb  Tb13  1  0.82959200  0.56923100  0.62036800  1
  Mg  Mg0  1  0.15763300  0.76695400  0.49942300  1
  Mg  Mg1  1  0.65763300  0.23304600  0.50057700  1
  Mg  Mg2  1  0.84028500  0.73030500  0.99996500  1
  Mg  Mg3  1  0.34028500  0.26969500  0.00003500  1
  Mg  Mg4  1  0.32721400  0.42770200  0.62564300  1
  Mg  Mg5  1  0.82721400  0.57229800  0.37435700  1
  Ge  Ge0  1  0.28488400  0.11249400  0.49982600  1
  Ge  Ge1  1  0.78488400  0.88750600  0.50017400  1
  Ge  Ge2  1  0.71330600  0.38723800  0.99971300  1
  Ge  Ge3  1  0.21330600  0.61276200  0.00028700  1
  Ge  Ge4  1  0.52705600  0.65816100  0.49941600  1
  Ge  Ge5  1  0.02705600  0.34183900  0.50058400  1
  Ge  Ge6  1  0.47796400  0.83687500  0.99930700  1
  Ge  Ge7  1  0.97796400  0.16312500  0.00069300  1
  Ge  Ge8  1  0.33181500  0.21851400  0.78466700  1
  Ge  Ge9  1  0.83181500  0.78148600  0.21533300  1
  Ge  Ge10  1  0.67065600  0.28614800  0.28935400  1
  Ge  Ge11  1  0.17065600  0.71385200  0.71064600  1
  Ge  Ge12  1  0.66535300  0.28512200  0.71226400  1
  Ge  Ge13  1  0.16535300  0.71487800  0.28773600  1
  Ge  Ge14  1  0.33089000  0.21737800  0.21518100  1
  Ge  Ge15  1  0.83089000  0.78262200  0.78481900  1
loop_
_geom_bond_atom_site_label_1
_geom_bond_atom_site_label_2
_geom_bond_distance
_geom_bond_site_symmetry_2
Ge0 Ge5 2.581523 1_555
Ge0 Mg1 2.838453 1_555
Ge0 Mg0 2.860705 1_545
Ge0 Tb6 2.992622 1_545
Ge0 Tb0 3.012897 1_545
Ge0 Tb12 3.061701 1_555
Ge0 Tb1 3.088073 1_455
Ge0 Mg4 3.088172 1_555
Ge0 Tb7 3.094693 1_455
Ge1 Ge4 2.581523 1_555
Ge1 Mg0 2.838453 1_655
Ge1 Mg1 2.860705 1_565
Ge1 Tb7 2.992622 1_565
Ge1 Tb1 3.012897 1_565
Ge1 Tb13 3.061701 1_555
Ge1 Tb0 3.088073 1_555
Ge1 Mg5 3.088172 1_555
Ge1 Tb6 3.094693 1_555
Ge2 Ge7 2.588872 1_556
Ge2 Mg3 2.832503 1_556
Ge2 Mg2 2.841696 1_555
Ge2 Tb2 3.025894 1_556
Ge2 Tb4 3.034359 1_555
Ge2 Tb10 3.057897 1_555
Ge2 Tb8 3.078611 1_556
Ge2 Tb3 3.134606 1_655
Ge2 Tb5 3.138566 1_656
Ge3 Ge6 2.588872 1_554
Ge3 Mg2 2.832503 1_454
Ge3 Mg3 2.841696 1_555
Ge3 Tb3 3.025894 1_554
Ge3 Tb5 3.034359 1_555
Ge3 Tb11 3.057897 1_555
Ge3 Tb9 3.078611 1_554
Ge3 Tb2 3.134606 1_555
Ge3 Tb4 3.138566 1_554
Ge4 Mg0 2.786298 1_555
Ge4 Tb12 2.865271 1_555
Ge4 Tb13 2.877527 1_555
Ge4 Mg5 2.895913 1_555
Ge4 Mg4 2.945596 1_555
Ge4 Tb6 3.106577 1_555
Ge4 Tb0 3.117915 1_555
Ge5 Mg1 2.786298 1_455
Ge5 Tb13 2.865271 1_455
Ge5 Tb12 2.877527 1_555
Ge5 Mg4 2.895913 1_555
Ge5 Mg5 2.945596 1_455
Ge5 Tb7 3.106577 1_455
Ge5 Tb1 3.117915 1_455
Ge6 Mg2 2.732433 1_555
Ge6 Tb10 2.923279 1_565
Ge6 Tb9 2.930828 1_555
Ge6 Tb11 2.936767 1_556
Ge6 Tb8 2.940850 1_566
Ge6 Tb4 3.109904 1_555
Ge6 Tb2 3.114760 1_556
Ge7 Mg3 2.732433 1_655
Ge7 Tb11 2.923279 1_645
Ge7 Tb8 2.930828 1_555
Ge7 Tb10 2.936767 1_554
Ge7 Tb9 2.940850 1_644
Ge7 Tb5 3.109904 1_655
Ge7 Tb3 3.114760 1_654
Ge8 Mg4 2.830204 1_555
Ge8 Tb9 2.874284 1_545
Ge8 Tb3 2.974526 1_555
Ge8 Tb10 2.993711 1_555
Ge8 Tb4 3.131432 1_555
Ge8 Tb0 3.148490 1_545
Ge8 Mg3 3.149063 1_556
Ge8 Tb7 3.346854 1_455
Ge9 Mg5 2.830204 1_555
Ge9 Tb8 2.874284 1_565
Ge9 Tb2 2.974526 1_555
Ge9 Tb11 2.993711 1_655
Ge9 Tb5 3.131432 1_655
Ge9 Tb1 3.148490 1_565
Ge9 Mg2 3.149063 1_554
Ge9 Tb6 3.346854 1_555
Ge10 Ge14 2.720044 1_555
Ge10 Mg5 2.796962 1_555
Ge10 Tb8 2.917297 1_555
Ge10 Tb1 2.988459 1_555
Ge10 Tb12 2.999576 1_555
Ge10 Mg1 3.092184 1_555
Ge10 Tb2 3.142756 1_555
Ge10 Tb6 3.163856 1_545
Ge10 Tb5 3.319259 1_655
Ge11 Ge15 2.720044 1_455
Ge11 Mg4 2.796962 1_555
Ge11 Tb9 2.917297 1_555
Ge11 Tb0 2.988459 1_555
Ge11 Tb13 2.999576 1_455
Ge11 Mg0 3.092184 1_555
Ge11 Tb3 3.142756 1_555
Ge11 Tb7 3.163856 1_465
Ge11 Tb4 3.319259 1_555
Ge12 Ge8 2.666391 1_555
Ge12 Tb13 2.851893 1_555
Ge12 Tb10 2.898829 1_555
Ge12 Mg4 2.953344 1_555
Ge12 Tb7 3.018269 1_555
Ge12 Mg1 3.096962 1_555
Ge12 Tb4 3.117072 1_555
Ge12 Tb0 3.148504 1_545
Ge12 Tb3 3.354347 1_655
Ge13 Ge9 2.666391 1_455
Ge13 Tb12 2.851893 1_555
Ge13 Tb11 2.898829 1_555
Ge13 Mg5 2.953344 1_455
Ge13 Tb6 3.018269 1_555
Ge13 Mg0 3.096962 1_555
Ge13 Tb5 3.117072 1_555
Ge13 Tb1 3.148504 1_465
Ge13 Tb2 3.354347 1_555
Ge14 Tb11 2.881209 1_545
Ge14 Tb12 2.913655 1_555
Ge14 Tb5 2.984395 1_555
Ge14 Tb8 2.997797 1_555
Ge14 Tb6 3.140113 1_545
Ge14 Mg3 3.147056 1_555
Ge14 Tb2 3.153575 1_555
Ge14 Tb1 3.322475 1_455
Ge15 Tb10 2.881209 1_565
Ge15 Tb13 2.913655 1_555
Ge15 Tb4 2.984395 1_555
Ge15 Tb9 2.997797 1_655
Ge15 Tb7 3.140113 1_565
Ge15 Mg2 3.147056 1_555
Ge15 Tb3 3.153575 1_655
Ge15 Tb0 3.322475 1_555
