# generated using pymatgen
data_Cr4(P2O7)3
_symmetry_space_group_name_H-M   'P 1'
_cell_length_a   7.54620400
_cell_length_b   9.62611200
_cell_length_c   21.67048800
_cell_angle_alpha   90.00000000
_cell_angle_beta   90.00000000
_cell_angle_gamma   90.00000000
_symmetry_Int_Tables_number   1
_chemical_formula_structural   Cr4(P2O7)3
_chemical_formula_sum   'Cr16 P24 O84'
_cell_volume   1574.15735634
_cell_formula_units_Z   4
loop_
 _symmetry_equiv_pos_site_id
 _symmetry_equiv_pos_as_xyz
  1  'x, y, z'
loop_
 _atom_site_type_symbol
 _atom_site_label
 _atom_site_symmetry_multiplicity
 _atom_site_fract_x
 _atom_site_fract_y
 _atom_site_fract_z
 _atom_site_occupancy
  Cr  Cr0  1  0.55589500  0.23845100  0.00334800  1
  Cr  Cr1  1  0.44410500  0.76154900  0.99665200  1
  Cr  Cr2  1  0.44410500  0.73845100  0.49665200  1
  Cr  Cr3  1  0.05589500  0.76154900  0.99665200  1
  Cr  Cr4  1  0.55589500  0.26154900  0.50334800  1
  Cr  Cr5  1  0.94410500  0.23845100  0.00334800  1
  Cr  Cr6  1  0.94410500  0.26154900  0.50334800  1
  Cr  Cr7  1  0.05589500  0.73845100  0.49665200  1
  Cr  Cr8  1  0.05561200  0.22055800  0.25582800  1
  Cr  Cr9  1  0.94438800  0.77944200  0.74417200  1
  Cr  Cr10  1  0.94438800  0.72055800  0.24417200  1
  Cr  Cr11  1  0.55561200  0.77944200  0.74417200  1
  Cr  Cr12  1  0.05561200  0.27944200  0.75582800  1
  Cr  Cr13  1  0.44438800  0.22055800  0.25582800  1
  Cr  Cr14  1  0.44438800  0.27944200  0.75582800  1
  Cr  Cr15  1  0.55561200  0.72055800  0.24417200  1
  P  P0  1  0.25000000  0.65771300  0.35729600  1
  P  P1  1  0.75000000  0.34228700  0.64270400  1
  P  P2  1  0.75000000  0.15771300  0.14270400  1
  P  P3  1  0.25000000  0.84228700  0.85729600  1
  P  P4  1  0.25000000  0.03083900  0.06062200  1
  P  P5  1  0.75000000  0.96916100  0.93937800  1
  P  P6  1  0.75000000  0.53083900  0.43937800  1
  P  P7  1  0.25000000  0.46916100  0.56062200  1
  P  P8  1  0.25000000  0.55477600  0.69926200  1
  P  P9  1  0.75000000  0.44522400  0.30073800  1
  P  P10  1  0.75000000  0.05477600  0.80073800  1
  P  P11  1  0.25000000  0.94522400  0.19926200  1
  P  P12  1  0.25000000  0.50109900  0.18910500  1
  P  P13  1  0.75000000  0.49890100  0.81089500  1
  P  P14  1  0.75000000  0.00109900  0.31089500  1
  P  P15  1  0.25000000  0.99890100  0.68910500  1
  P  P16  1  0.25000000  0.46695700  0.04665500  1
  P  P17  1  0.75000000  0.53304300  0.95334500  1
  P  P18  1  0.75000000  0.96695700  0.45334500  1
  P  P19  1  0.25000000  0.03304300  0.54665500  1
  P  P20  1  0.25000000  0.32970100  0.39016900  1
  P  P21  1  0.75000000  0.67029900  0.60983100  1
  P  P22  1  0.75000000  0.82970100  0.10983100  1
  P  P23  1  0.25000000  0.17029900  0.89016900  1
  O  O0  1  0.25000000  0.60396500  0.52120300  1
  O  O1  1  0.75000000  0.39603500  0.47879700  1
  O  O2  1  0.75000000  0.10396500  0.97879700  1
  O  O3  1  0.25000000  0.89603500  0.02120300  1
  O  O4  1  0.25000000  0.08795300  0.23250300  1
  O  O5  1  0.75000000  0.91204700  0.76749700  1
  O  O6  1  0.75000000  0.58795300  0.26749700  1
  O  O7  1  0.25000000  0.41204700  0.73250300  1
  O  O8  1  0.07839000  0.57831200  0.20009400  1
  O  O9  1  0.92161000  0.42168800  0.79990600  1
  O  O10  1  0.92161000  0.07831200  0.29990600  1
  O  O11  1  0.57839000  0.42168800  0.79990600  1
  O  O12  1  0.07839000  0.92168800  0.70009400  1
  O  O13  1  0.42161000  0.57831200  0.20009400  1
  O  O14  1  0.42161000  0.92168800  0.70009400  1
  O  O15  1  0.57839000  0.07831200  0.29990600  1
  O  O16  1  0.25000000  0.24675800  0.32780000  1
  O  O17  1  0.75000000  0.75324200  0.67220000  1
  O  O18  1  0.75000000  0.74675800  0.17220000  1
  O  O19  1  0.25000000  0.25324200  0.82780000  1
  O  O20  1  0.08096400  0.39746000  0.02703900  1
  O  O21  1  0.91903600  0.60254000  0.97296100  1
  O  O22  1  0.91903600  0.89746000  0.47296100  1
  O  O23  1  0.58096400  0.60254000  0.97296100  1
  O  O24  1  0.08096400  0.10254000  0.52703900  1
  O  O25  1  0.41903600  0.39746000  0.02703900  1
  O  O26  1  0.41903600  0.10254000  0.52703900  1
  O  O27  1  0.58096400  0.89746000  0.47296100  1
  O  O28  1  0.25000000  0.52214900  0.62845800  1
  O  O29  1  0.75000000  0.47785100  0.37154200  1
  O  O30  1  0.75000000  0.02214900  0.87154200  1
  O  O31  1  0.25000000  0.97785100  0.12845800  1
  O  O32  1  0.25000000  0.35487300  0.22052700  1
  O  O33  1  0.75000000  0.64512700  0.77947300  1
  O  O34  1  0.75000000  0.85487300  0.27947300  1
  O  O35  1  0.25000000  0.14512700  0.72052700  1
  O  O36  1  0.07886600  0.29951100  0.42527100  1
  O  O37  1  0.92113400  0.70048900  0.57472900  1
  O  O38  1  0.92113400  0.79951100  0.07472900  1
  O  O39  1  0.57886600  0.70048900  0.57472900  1
  O  O40  1  0.07886600  0.20048900  0.92527100  1
  O  O41  1  0.42113400  0.29951100  0.42527100  1
  O  O42  1  0.42113400  0.20048900  0.92527100  1
  O  O43  1  0.57886600  0.79951100  0.07472900  1
  O  O44  1  0.25000000  0.62502200  0.02878400  1
  O  O45  1  0.75000000  0.37497800  0.97121600  1
  O  O46  1  0.75000000  0.12502200  0.47121600  1
  O  O47  1  0.25000000  0.87497800  0.52878400  1
  O  O48  1  0.57987000  0.19155100  0.17761000  1
  O  O49  1  0.42013000  0.80844900  0.82239000  1
  O  O50  1  0.42013000  0.69155100  0.32239000  1
  O  O51  1  0.07987000  0.80844900  0.82239000  1
  O  O52  1  0.57987000  0.30844900  0.67761000  1
  O  O53  1  0.92013000  0.19155100  0.17761000  1
  O  O54  1  0.92013000  0.30844900  0.67761000  1
  O  O55  1  0.07987000  0.69155100  0.32239000  1
  O  O56  1  0.25000000  0.45993500  0.11887200  1
  O  O57  1  0.75000000  0.54006500  0.88112800  1
  O  O58  1  0.75000000  0.95993500  0.38112800  1
  O  O59  1  0.25000000  0.04006500  0.61887200  1
  O  O60  1  0.57845000  0.37259600  0.28807200  1
  O  O61  1  0.42155000  0.62740400  0.71192800  1
  O  O62  1  0.42155000  0.87259600  0.21192800  1
  O  O63  1  0.07845000  0.62740400  0.71192800  1
  O  O64  1  0.57845000  0.12740400  0.78807200  1
  O  O65  1  0.92155000  0.37259600  0.28807200  1
  O  O66  1  0.92155000  0.12740400  0.78807200  1
  O  O67  1  0.07845000  0.87259600  0.21192800  1
  O  O68  1  0.07837000  0.10775000  0.05164900  1
  O  O69  1  0.92163000  0.89225000  0.94835100  1
  O  O70  1  0.92163000  0.60775000  0.44835100  1
  O  O71  1  0.57837000  0.89225000  0.94835100  1
  O  O72  1  0.07837000  0.39225000  0.55164900  1
  O  O73  1  0.42163000  0.10775000  0.05164900  1
  O  O74  1  0.42163000  0.39225000  0.55164900  1
  O  O75  1  0.57837000  0.60775000  0.44835100  1
  O  O76  1  0.25000000  0.49220600  0.37120000  1
  O  O77  1  0.75000000  0.50779400  0.62880000  1
  O  O78  1  0.75000000  0.99220600  0.12880000  1
  O  O79  1  0.25000000  0.00779400  0.87120000  1
  O  O80  1  0.25000000  0.73565200  0.42132300  1
  O  O81  1  0.75000000  0.26434800  0.57867700  1
  O  O82  1  0.75000000  0.23565200  0.07867700  1
  O  O83  1  0.25000000  0.76434800  0.92132300  1
loop_
_geom_bond_atom_site_label_1
_geom_bond_atom_site_label_2
_geom_bond_distance
_geom_bond_site_symmetry_2
Cr0 O25 1.916516 1_555
Cr0 O73 1.924857 1_555
Cr0 O42 2.007596 1_554
Cr0 O2 2.025956 1_554
Cr0 O45 2.087475 1_554
Cr0 O82 2.193403 1_555
Cr1 O23 1.916516 1_555
Cr1 O71 1.924857 1_555
Cr1 O43 2.007596 1_556
Cr1 O3 2.025956 1_556
Cr1 O44 2.087475 1_556
Cr1 O83 2.193403 1_555
Cr2 O27 1.916516 1_555
Cr2 O75 1.924857 1_555
Cr2 O39 2.007596 1_555
Cr2 O0 2.025956 1_555
Cr2 O47 2.087475 1_555
Cr2 O80 2.193403 1_555
Cr3 O21 1.916516 1_455
Cr3 O69 1.924857 1_455
Cr3 O38 2.007596 1_456
Cr3 O3 2.025956 1_556
Cr3 O44 2.087475 1_556
Cr3 O83 2.193403 1_555
Cr4 O26 1.916516 1_555
Cr4 O74 1.924857 1_555
Cr4 O41 2.007596 1_555
Cr4 O1 2.025956 1_555
Cr4 O46 2.087475 1_555
Cr4 O81 2.193403 1_555
Cr5 O20 1.916516 1_655
Cr5 O68 1.924857 1_655
Cr5 O40 2.007596 1_654
Cr5 O2 2.025956 1_554
Cr5 O45 2.087475 1_554
Cr5 O82 2.193403 1_555
Cr6 O24 1.916516 1_655
Cr6 O72 1.924857 1_655
Cr6 O36 2.007596 1_655
Cr6 O1 2.025956 1_555
Cr6 O46 2.087475 1_555
Cr6 O81 2.193403 1_555
Cr7 O22 1.916516 1_455
Cr7 O70 1.924857 1_455
Cr7 O37 2.007596 1_455
Cr7 O0 2.025956 1_555
Cr7 O47 2.087475 1_555
Cr7 O80 2.193403 1_555
Cr8 O65 1.911447 1_455
Cr8 O10 1.951883 1_455
Cr8 O53 1.999079 1_455
Cr8 O4 2.009140 1_555
Cr8 O32 2.099679 1_555
Cr8 O16 2.155909 1_555
Cr9 O63 1.911447 1_655
Cr9 O12 1.951883 1_655
Cr9 O51 1.999079 1_655
Cr9 O5 2.009140 1_555
Cr9 O33 2.099679 1_555
Cr9 O17 2.155909 1_555
Cr10 O67 1.911447 1_655
Cr10 O8 1.951883 1_655
Cr10 O55 1.999079 1_655
Cr10 O6 2.009140 1_555
Cr10 O34 2.099679 1_555
Cr10 O18 2.155909 1_555
Cr11 O61 1.911447 1_555
Cr11 O14 1.951883 1_555
Cr11 O49 1.999079 1_555
Cr11 O5 2.009140 1_555
Cr11 O33 2.099679 1_555
Cr11 O17 2.155909 1_555
Cr12 O66 1.911447 1_455
Cr12 O9 1.951883 1_455
Cr12 O54 1.999079 1_455
Cr12 O7 2.009140 1_555
Cr12 O35 2.099679 1_555
Cr12 O19 2.155909 1_555
Cr13 O60 1.911447 1_555
Cr13 O15 1.951883 1_555
Cr13 O48 1.999079 1_555
Cr13 O4 2.009140 1_555
Cr13 O32 2.099679 1_555
Cr13 O16 2.155909 1_555
Cr14 O64 1.911447 1_555
Cr14 O11 1.951883 1_555
Cr14 O52 1.999079 1_555
Cr14 O7 2.009140 1_555
Cr14 O35 2.099679 1_555
Cr14 O19 2.155909 1_555
Cr15 O62 1.911447 1_555
Cr15 O13 1.951883 1_555
Cr15 O50 1.999079 1_555
Cr15 O6 2.009140 1_555
Cr15 O34 2.099679 1_555
Cr15 O18 2.155909 1_555
O0 P7 1.553568 1_555
O1 P6 1.553568 1_555
O2 P5 1.553568 1_545
O3 P4 1.553568 1_565
O4 P11 1.551313 1_545
O5 P10 1.551313 1_565
O6 P9 1.551313 1_555
O7 P8 1.551313 1_555
O8 P12 1.512012 1_555
O9 P13 1.512012 1_555
O10 P14 1.512012 1_555
O11 P13 1.512012 1_555
O12 P15 1.512012 1_555
O13 P12 1.512012 1_555
O14 P15 1.512012 1_555
O15 P14 1.512012 1_555
O16 P20 1.569779 1_555
O17 P21 1.569779 1_555
O18 P22 1.569779 1_555
O19 P23 1.569779 1_555
O20 P16 1.501781 1_555
O21 P17 1.501781 1_555
O22 P18 1.501781 1_555
O23 P17 1.501781 1_555
O24 P19 1.501781 1_555
O25 P16 1.501781 1_555
O26 P19 1.501781 1_555
O27 P18 1.501781 1_555
O28 P7 1.556016 1_555
O28 P8 1.566171 1_555
O29 P6 1.556016 1_555
O29 P9 1.566171 1_555
O30 P5 1.556016 1_545
O30 P10 1.566171 1_555
O31 P4 1.556016 1_565
O31 P11 1.566171 1_555
O32 P12 1.563640 1_555
O33 P13 1.563640 1_555
O34 P14 1.563640 1_565
O35 P15 1.563640 1_545
O36 P20 1.526706 1_555
O37 P21 1.526706 1_555
O38 P22 1.526706 1_555
O39 P21 1.526706 1_555
O40 P23 1.526706 1_555
O41 P20 1.526706 1_555
O42 P23 1.526706 1_555
O43 P22 1.526706 1_555
O44 P16 1.570063 1_555
O45 P17 1.570063 1_555
O46 P18 1.570063 1_545
O47 P19 1.570063 1_565
O48 P2 1.525293 1_555
O49 P3 1.525293 1_555
O50 P0 1.525293 1_555
O51 P3 1.525293 1_555
O52 P1 1.525293 1_555
O53 P2 1.525293 1_555
O54 P1 1.525293 1_555
O55 P0 1.525293 1_555
O56 P16 1.566437 1_555
O56 P12 1.572720 1_555
O57 P17 1.566437 1_555
O57 P13 1.572720 1_555
O58 P18 1.566437 1_555
O58 P14 1.572720 1_565
O59 P19 1.566437 1_555
O59 P15 1.572720 1_545
O60 P9 1.496655 1_555
O61 P8 1.496655 1_555
O62 P11 1.496655 1_555
O63 P8 1.496655 1_555
O64 P10 1.496655 1_555
O65 P9 1.496655 1_555
O66 P10 1.496655 1_555
O67 P11 1.496655 1_555
O68 P4 1.504447 1_555
O69 P5 1.504447 1_555
O70 P6 1.504447 1_555
O71 P5 1.504447 1_555
O72 P7 1.504447 1_555
O73 P4 1.504447 1_555
O74 P7 1.504447 1_555
O75 P6 1.504447 1_555
O76 P20 1.617400 1_555
O76 P0 1.621430 1_555
O77 P21 1.617400 1_555
O77 P1 1.621430 1_555
O78 P22 1.617400 1_555
O78 P2 1.621430 1_565
O79 P23 1.617400 1_555
O79 P3 1.621430 1_545
O80 P0 1.577346 1_555
O81 P1 1.577346 1_555
O82 P2 1.577346 1_555
O83 P3 1.577346 1_555
