# generated using pymatgen
data_BaLiV2Ni3(HO5)2
_symmetry_space_group_name_H-M   'P 1'
_cell_length_a   6.15641170
_cell_length_b   6.21853938
_cell_length_c   7.81624183
_cell_angle_alpha   68.48732867
_cell_angle_beta   67.92027509
_cell_angle_gamma   57.95184664
_symmetry_Int_Tables_number   1
_chemical_formula_structural   BaLiV2Ni3(HO5)2
_chemical_formula_sum   'Ba1 Li1 V2 Ni3 H2 O10'
_cell_volume   229.64232067
_cell_formula_units_Z   1
loop_
 _symmetry_equiv_pos_site_id
 _symmetry_equiv_pos_as_xyz
  1  'x, y, z'
loop_
 _atom_site_type_symbol
 _atom_site_label
 _atom_site_symmetry_multiplicity
 _atom_site_fract_x
 _atom_site_fract_y
 _atom_site_fract_z
 _atom_site_occupancy
  Ba  Ba0  1  0.94473400  0.51502900  0.48283900  1
  Li  Li0  1  0.60158700  0.13301000  0.10974400  1
  V  V0  1  0.59718900  0.09200000  0.73904500  1
  V  V1  1  0.37898200  0.88010800  0.28514100  1
  Ni  Ni0  1  0.04158200  0.01258600  0.97518900  1
  Ni  Ni1  1  0.00525000  0.50491900  0.00799400  1
  Ni  Ni2  1  0.50687700  0.56030800  0.97600600  1
  H  H0  1  0.26744400  0.73718900  0.72075800  1
  H  H1  1  0.75777000  0.25873400  0.26122500  1
  O  O0  1  0.24920100  0.22594900  0.81020100  1
  O  O1  1  0.71716800  0.22455700  0.83282500  1
  O  O2  1  0.74240100  0.77763700  0.17492700  1
  O  O3  1  0.25106900  0.76636800  0.17687600  1
  O  O4  1  0.72953700  0.74803300  0.81170200  1
  O  O5  1  0.24627900  0.24308200  0.20204700  1
  O  O6  1  0.38825200  0.77343000  0.52148100  1
  O  O7  1  0.70222500  0.16231700  0.50052300  1
  O  O8  1  0.20856600  0.71022500  0.86603600  1
  O  O9  1  0.78888600  0.29951900  0.12043900  1
loop_
_geom_bond_atom_site_label_1
_geom_bond_atom_site_label_2
_geom_bond_distance
_geom_bond_site_symmetry_2
Ba0 O2 2.687604 1_555
Ba0 O5 2.729528 1_655
Ba0 O6 2.854122 1_555
Ba0 O4 2.931915 1_555
Ba0 O3 2.952101 1_655
Ba0 O1 2.981491 1_555
Ba0 O0 3.154108 1_655
Ba0 O7 3.186954 1_555
Li0 O5 1.833195 1_555
Li0 O2 1.835186 1_545
Li0 O9 1.952383 1_555
Li0 O1 1.970693 1_554
Li0 Ni2 2.295664 1_554
Ni0 O8 1.945719 1_545
Ni0 O9 2.026045 1_456
Ni0 O3 2.038468 1_546
Ni0 O0 2.088760 1_555
Ni0 O1 2.183063 1_455
Ni1 O8 2.010159 1_554
Ni1 O9 2.068904 1_455
Ni1 O2 2.078524 1_455
Ni1 O5 2.114302 1_555
Ni1 O4 2.248123 1_454
Ni1 O0 2.260881 1_554
Ni2 O8 1.939799 1_555
Ni2 O9 2.015298 1_556
Ni2 O3 2.015487 1_556
Ni2 O4 2.041165 1_555
Ni2 O1 2.245799 1_555
H0 O8 1.031673 1_555
H0 O6 1.442072 1_555
H1 O9 1.000167 1_555
O0 V0 1.772855 1_555
O1 V0 1.805197 1_555
O2 V1 1.895916 1_555
O3 V1 1.835093 1_555
O4 V0 1.780165 1_565
O5 V1 1.884354 1_545
O6 V1 1.730932 1_555
O7 V0 1.697347 1_555
