# generated using pymatgen
data_Zr3Fe3C
_symmetry_space_group_name_H-M   'P 1'
_cell_length_a   8.37019267
_cell_length_b   8.37019267
_cell_length_c   8.37019267
_cell_angle_alpha   60.00000000
_cell_angle_beta   60.00000000
_cell_angle_gamma   60.00000000
_symmetry_Int_Tables_number   1
_chemical_formula_structural   Zr3Fe3C
_chemical_formula_sum   'Zr12 Fe12 C4'
_cell_volume   414.65925945
_cell_formula_units_Z   4
loop_
 _symmetry_equiv_pos_site_id
 _symmetry_equiv_pos_as_xyz
  1  'x, y, z'
loop_
 _atom_site_type_symbol
 _atom_site_label
 _atom_site_symmetry_multiplicity
 _atom_site_fract_x
 _atom_site_fract_y
 _atom_site_fract_z
 _atom_site_occupancy
  Zr  Zr0  1  0.79884300  0.79884300  0.20115700  1
  Zr  Zr1  1  0.20115700  0.20115700  0.79884300  1
  Zr  Zr2  1  0.79884300  0.20115700  0.79884300  1
  Zr  Zr3  1  0.20115700  0.79884300  0.20115700  1
  Zr  Zr4  1  0.20115700  0.79884300  0.79884300  1
  Zr  Zr5  1  0.79884300  0.20115700  0.20115700  1
  Zr  Zr6  1  0.45115700  0.45115700  0.04884300  1
  Zr  Zr7  1  0.04884300  0.04884300  0.45115700  1
  Zr  Zr8  1  0.45115700  0.04884300  0.45115700  1
  Zr  Zr9  1  0.04884300  0.45115700  0.04884300  1
  Zr  Zr10  1  0.04884300  0.45115700  0.45115700  1
  Zr  Zr11  1  0.45115700  0.04884300  0.04884300  1
  Fe  Fe0  1  0.12500000  0.62500000  0.62500000  1
  Fe  Fe1  1  0.62500000  0.12500000  0.62500000  1
  Fe  Fe2  1  0.62500000  0.62500000  0.12500000  1
  Fe  Fe3  1  0.62500000  0.62500000  0.62500000  1
  Fe  Fe4  1  0.71357600  0.42880800  0.42880800  1
  Fe  Fe5  1  0.42880800  0.71357600  0.42880800  1
  Fe  Fe6  1  0.42880800  0.42880800  0.71357600  1
  Fe  Fe7  1  0.42880800  0.42880800  0.42880800  1
  Fe  Fe8  1  0.53642400  0.82119200  0.82119200  1
  Fe  Fe9  1  0.82119200  0.53642400  0.82119200  1
  Fe  Fe10  1  0.82119200  0.82119200  0.53642400  1
  Fe  Fe11  1  0.82119200  0.82119200  0.82119200  1
  C  C0  1  0.62500000  0.12500000  0.12500000  1
  C  C1  1  0.12500000  0.62500000  0.12500000  1
  C  C2  1  0.12500000  0.12500000  0.62500000  1
  C  C3  1  0.12500000  0.12500000  0.12500000  1
loop_
_geom_bond_atom_site_label_1
_geom_bond_atom_site_label_2
_geom_bond_distance
_geom_bond_site_symmetry_2
Fe0 Fe5 2.490942 1_555
Fe0 Fe6 2.490942 1_555
Fe0 Fe11 2.490942 1_455
Fe0 Fe7 2.490942 1_555
Fe0 Fe9 2.490942 1_455
Fe0 Fe10 2.490942 1_455
Fe0 Zr7 2.934857 1_565
Fe0 Zr9 2.934857 1_556
Fe0 Zr1 2.934857 1_555
Fe0 Zr3 2.934857 1_555
Fe0 Zr4 2.934857 1_555
Fe0 Zr10 2.934857 1_555
Fe1 Fe4 2.490942 1_555
Fe1 Fe6 2.490942 1_555
Fe1 Fe11 2.490942 1_545
Fe1 Fe7 2.490942 1_555
Fe1 Fe10 2.490942 1_545
Fe1 Fe8 2.490942 1_545
Fe1 Zr5 2.934857 1_555
Fe1 Zr11 2.934857 1_556
Fe1 Zr7 2.934857 1_655
Fe1 Zr2 2.934857 1_555
Fe1 Zr1 2.934857 1_555
Fe1 Zr8 2.934857 1_555
Fe2 Fe5 2.490942 1_555
Fe2 Fe4 2.490942 1_555
Fe2 Fe7 2.490942 1_555
Fe2 Fe8 2.490942 1_554
Fe2 Fe9 2.490942 1_554
Fe2 Zr5 2.934857 1_555
Fe2 Zr11 2.934857 1_565
Fe2 Zr0 2.934857 1_555
Fe2 Zr3 2.934857 1_555
Fe2 Zr9 2.934857 1_655
Fe2 Zr6 2.934857 1_555
Fe3 Fe8 2.490942 1_555
Fe3 Fe9 2.490942 1_555
Fe3 Fe4 2.490942 1_555
Fe3 Fe6 2.490942 1_555
Fe3 Fe5 2.490942 1_555
Fe3 Zr8 2.934857 1_565
Fe3 Zr10 2.934857 1_655
Fe3 Zr0 2.934857 1_555
Fe3 Zr2 2.934857 1_555
Fe3 Zr6 2.934857 1_556
Fe3 Zr4 2.934857 1_555
Fe4 Fe7 2.383563 1_555
Fe4 Fe6 2.383563 1_555
Fe4 Fe5 2.383563 1_555
Fe4 Zr5 2.946536 1_555
Fe4 Zr0 2.946536 1_555
Fe4 Zr2 2.946536 1_555
Fe4 Zr9 3.004983 1_655
Fe4 Zr7 3.004983 1_655
Fe4 Zr10 3.004983 1_655
Fe5 Fe7 2.383563 1_555
Fe5 Fe6 2.383563 1_555
Fe5 Zr3 2.946536 1_555
Fe5 Zr4 2.946536 1_555
Fe5 Zr0 2.946536 1_555
Fe5 Zr11 3.004983 1_565
Fe5 Zr7 3.004983 1_565
Fe5 Zr8 3.004983 1_565
Fe6 Fe7 2.383563 1_555
Fe6 Zr1 2.946536 1_555
Fe6 Zr4 2.946536 1_555
Fe6 Zr2 2.946536 1_555
Fe6 Zr11 3.004983 1_556
Fe6 Zr9 3.004983 1_556
Fe6 Zr6 3.004983 1_556
Fe7 Zr5 2.946536 1_555
Fe7 Zr3 2.946536 1_555
Fe7 Zr1 2.946536 1_555
Fe7 Zr10 3.004983 1_555
Fe7 Zr6 3.004983 1_555
Fe7 Zr8 3.004983 1_555
Fe8 Fe9 2.383563 1_555
Fe8 Zr8 2.946536 1_565
Fe8 Zr6 2.946536 1_556
Fe8 Zr11 2.946536 1_566
Fe8 Zr4 3.004983 1_555
Fe8 Zr3 3.004983 1_556
Fe8 Zr1 3.004983 1_565
Fe9 Zr10 2.946536 1_655
Fe9 Zr6 2.946536 1_556
Fe9 Zr9 2.946536 1_656
Fe9 Zr2 3.004983 1_555
Fe9 Zr5 3.004983 1_556
Fe9 Zr1 3.004983 1_655
Fe10 Fe11 2.383563 1_555
Fe10 Fe8 2.383563 1_555
Fe10 Fe9 2.383563 1_555
Fe10 Fe3 2.490942 1_555
Fe10 Zr10 2.946536 1_655
Fe10 Zr8 2.946536 1_565
Fe10 Zr7 2.946536 1_665
Fe10 Zr0 3.004983 1_555
Fe10 Zr3 3.004983 1_655
Fe10 Zr5 3.004983 1_565
Fe11 Fe8 2.383563 1_555
Fe11 Fe9 2.383563 1_555
Fe11 Fe2 2.490942 1_556
Fe11 Zr11 2.946536 1_566
Fe11 Zr7 2.946536 1_665
Fe11 Zr9 2.946536 1_656
Fe11 Zr2 3.004983 1_565
Fe11 Zr4 3.004983 1_655
Fe11 Zr0 3.004983 1_556
C0 Zr2 2.278473 1_554
C0 Zr8 2.278473 1_555
C0 Zr6 2.278473 1_555
C0 Zr0 2.278473 1_545
C0 Zr5 2.278473 1_555
C0 Zr11 2.278473 1_555
C1 Zr0 2.278473 1_455
C1 Zr3 2.278473 1_555
C1 Zr4 2.278473 1_554
C1 Zr6 2.278473 1_555
C1 Zr10 2.278473 1_555
C1 Zr9 2.278473 1_555
C2 Zr8 2.278473 1_555
C2 Zr4 2.278473 1_545
C2 Zr1 2.278473 1_555
C2 Zr10 2.278473 1_555
C2 Zr2 2.278473 1_455
C2 Zr7 2.278473 1_555
C3 Zr9 2.278473 1_555
C3 Zr7 2.278473 1_555
C3 Zr11 2.278473 1_555
C3 Zr5 2.278473 1_455
C3 Zr1 2.278473 1_554
C3 Zr3 2.278473 1_545
