# generated using pymatgen
data_NiTeO4
_symmetry_space_group_name_H-M   'P 1'
_cell_length_a   4.65013404
_cell_length_b   10.19410169
_cell_length_c   5.55763435
_cell_angle_alpha   83.25483879
_cell_angle_beta   90.00026697
_cell_angle_gamma   89.99931051
_symmetry_Int_Tables_number   1
_chemical_formula_structural   NiTeO4
_chemical_formula_sum   'Ni4 Te4 O16'
_cell_volume   261.63023423
_cell_formula_units_Z   4
loop_
 _symmetry_equiv_pos_site_id
 _symmetry_equiv_pos_as_xyz
  1  'x, y, z'
loop_
 _atom_site_type_symbol
 _atom_site_label
 _atom_site_symmetry_multiplicity
 _atom_site_fract_x
 _atom_site_fract_y
 _atom_site_fract_z
 _atom_site_occupancy
  Ni  Ni0  1  0.50002880  0.62500290  0.12501290  1
  Ni  Ni1  1  -0.00002602  0.12499738  0.12499676  1
  Ni  Ni2  1  0.50003011  0.12499876  0.62501209  1
  Ni  Ni3  1  -0.00002691  0.62500093  0.62499829  1
  Te  Te0  1  -0.00001620  0.37500359  0.37499308  1
  Te  Te1  1  0.00002402  0.87502721  0.87495139  1
  Te  Te2  1  0.49995377  0.37504069  0.87496906  1
  Te  Te3  1  0.49999435  0.87501305  0.37496381  1
  O  O0  1  0.81715770  0.21058774  0.39974709  1
  O  O1  1  0.81714949  0.71058210  0.89974935  1
  O  O2  1  0.68284699  0.21058411  0.89974508  1
  O  O3  1  0.68284778  0.71058224  0.39975150  1
  O  O4  1  0.31705219  0.03939932  0.35030369  1
  O  O5  1  0.31705994  0.53939854  0.85030243  1
  O  O6  1  0.18295206  0.03940097  0.85030109  1
  O  O7  1  0.18294512  0.53940686  0.35030359  1
  O  O8  1  0.28571057  0.30062827  0.61703813  1
  O  O9  1  0.28569805  0.80062067  0.11704699  1
  O  O10  1  0.21430202  0.30062865  0.11703712  1
  O  O11  1  0.21430318  0.80062279  0.61704330  1
  O  O12  1  0.78580945  0.44937180  0.63292944  1
  O  O13  1  0.78580357  0.94936489  0.13293414  1
  O  O14  1  0.71420165  0.44937109  0.13293380  1
  O  O15  1  0.71419631  0.94936446  0.63293487  1
loop_
_geom_bond_atom_site_label_1
_geom_bond_atom_site_label_2
_geom_bond_distance
_geom_bond_site_symmetry_2
Ni0 O3 2.031784 1_555
Ni0 O5 2.032083 1_554
Ni0 O14 2.044706 1_555
Ni0 O9 2.044919 1_555
Ni0 O1 2.060706 1_554
Ni0 O7 2.060728 1_555
Ni1 O0 2.031887 1_455
Ni1 O6 2.031990 1_554
Ni1 O13 2.044721 1_445
Ni1 O10 2.045057 1_555
Ni1 O2 2.060694 1_454
Ni1 O4 2.060744 1_555
Ni2 O2 2.031787 1_555
Ni2 O4 2.032065 1_555
Ni2 O15 2.044713 1_545
Ni2 O8 2.044994 1_555
Ni2 O6 2.060710 1_555
Ni2 O0 2.060769 1_555
Ni3 O1 2.031856 1_455
Ni3 O7 2.031961 1_555
Ni3 O12 2.044678 1_455
Ni3 O11 2.044980 1_555
Ni3 O3 2.060654 1_455
Ni3 O5 2.060779 1_555
O0 Te0 1.869972 1_655
O1 Te1 1.870331 1_655
O2 Te2 1.870460 1_555
O3 Te3 1.870140 1_555
O4 Te3 1.869947 1_545
O5 Te2 1.869587 1_555
O6 Te1 1.869825 1_545
O7 Te0 1.870156 1_555
O8 Te2 1.969335 1_555
O8 Te0 1.977408 1_555
O9 Te3 1.969303 1_555
O9 Te1 1.977518 1_554
O10 Te0 1.969437 1_555
O10 Te2 1.977389 1_554
O11 Te1 1.969281 1_555
O11 Te3 1.977485 1_555
O12 Te0 1.968982 1_655
O12 Te2 1.977675 1_555
O13 Te1 1.969144 1_654
O13 Te3 1.977559 1_555
O14 Te2 1.969098 1_554
O14 Te0 1.977607 1_655
O15 Te3 1.969118 1_555
O15 Te1 1.977505 1_655
