# generated using pymatgen
data_CsMgInF6
_symmetry_space_group_name_H-M   'P 1'
_cell_length_a   7.65087436
_cell_length_b   7.65087436
_cell_length_c   7.65087436
_cell_angle_alpha   121.15354197
_cell_angle_beta   118.36916265
_cell_angle_gamma   90.43064072
_symmetry_Int_Tables_number   1
_chemical_formula_structural   CsMgInF6
_chemical_formula_sum   'Cs2 Mg2 In2 F12'
_cell_volume   317.57839707
_cell_formula_units_Z   2
loop_
 _symmetry_equiv_pos_site_id
 _symmetry_equiv_pos_as_xyz
  1  'x, y, z'
loop_
 _atom_site_type_symbol
 _atom_site_label
 _atom_site_symmetry_multiplicity
 _atom_site_fract_x
 _atom_site_fract_y
 _atom_site_fract_z
 _atom_site_occupancy
  Cs  Cs0  1  0.85671800  0.60671800  0.25000000  1
  Cs  Cs1  1  0.14328200  0.39328200  0.75000000  1
  Mg  Mg0  1  0.50000000  0.00000000  0.00000000  1
  Mg  Mg1  1  0.50000000  0.50000000  0.50000000  1
  In  In0  1  0.50000000  0.00000000  0.50000000  1
  In  In1  1  0.00000000  0.00000000  0.00000000  1
  F  F0  1  0.55751700  0.32598300  0.63976000  1
  F  F1  1  0.81377700  0.67401700  0.73153500  1
  F  F2  1  0.44248300  0.08224200  0.76846500  1
  F  F3  1  0.18622300  0.91775800  0.86024000  1
  F  F4  1  0.44248300  0.67401700  0.36024000  1
  F  F5  1  0.18622300  0.32598300  0.26846500  1
  F  F6  1  0.55751700  0.91775800  0.23153500  1
  F  F7  1  0.81377700  0.08224200  0.13976000  1
  F  F8  1  0.83266100  0.08266100  0.75000000  1
  F  F9  1  0.16733900  0.91733900  0.25000000  1
  F  F10  1  0.55118700  0.30118700  0.25000000  1
  F  F11  1  0.44881300  0.69881300  0.75000000  1
loop_
_geom_bond_atom_site_label_1
_geom_bond_atom_site_label_2
_geom_bond_distance
_geom_bond_site_symmetry_2
Cs0 F10 3.293390 1_555
Cs0 F5 3.323499 1_655
Cs0 F3 3.323499 1_655
Cs0 F0 3.323499 1_554
Cs0 F6 3.323504 1_555
Cs0 F9 3.348256 1_655
Cs1 F11 3.293390 1_555
Cs1 F7 3.323499 1_455
Cs1 F1 3.323499 1_455
Cs1 F4 3.323499 1_556
Cs1 F2 3.323504 1_555
Cs1 F8 3.348256 1_455
F0 Mg1 2.035738 1_555
F0 In0 2.081914 1_555
F1 Mg1 2.035738 1_555
F1 In1 2.081913 1_666
F2 Mg0 2.035739 1_556
F2 In0 2.081908 1_555
F3 Mg0 2.035738 1_566
F3 In1 2.081913 1_566
F4 Mg1 2.035738 1_555
F4 In0 2.081914 1_565
F5 Mg1 2.035738 1_555
F5 In1 2.081913 1_555
F6 Mg0 2.035739 1_565
F6 In0 2.081908 1_565
F7 Mg0 2.035738 1_555
F7 In1 2.081913 1_655
F8 In0 2.152727 1_555
F8 In1 2.152727 1_656
F9 In0 2.152727 1_565
F9 In1 2.152727 1_565
F10 Mg0 1.958597 1_555
F10 Mg1 1.958597 1_555
F11 Mg1 1.958597 1_555
F11 Mg0 1.958597 1_566
