# generated using pymatgen
data_KBeF3
_symmetry_space_group_name_H-M   'P 1'
_cell_length_a   4.45356696
_cell_length_b   5.41615052
_cell_length_c   11.98714706
_cell_angle_alpha   90.00000000
_cell_angle_beta   90.00000000
_cell_angle_gamma   90.00000000
_symmetry_Int_Tables_number   1
_chemical_formula_structural   KBeF3
_chemical_formula_sum   'K4 Be4 F12'
_cell_volume   289.14423988
_cell_formula_units_Z   4
loop_
 _symmetry_equiv_pos_site_id
 _symmetry_equiv_pos_as_xyz
  1  'x, y, z'
loop_
 _atom_site_type_symbol
 _atom_site_label
 _atom_site_symmetry_multiplicity
 _atom_site_fract_x
 _atom_site_fract_y
 _atom_site_fract_z
 _atom_site_occupancy
  K  K0  1  0.27846680  0.31699622  0.35964014  1
  K  K1  1  0.22153320  0.68300378  0.85964014  1
  K  K2  1  0.72153320  0.81699622  0.14035986  1
  K  K3  1  0.77846680  0.18300378  0.64035986  1
  Be  Be0  1  0.15728643  0.29976018  0.07051315  1
  Be  Be1  1  0.34271357  0.70023982  0.57051315  1
  Be  Be2  1  0.84271357  0.79976018  0.42948685  1
  Be  Be3  1  0.65728643  0.20023982  0.92948685  1
  F  F0  1  0.23003785  0.11875978  0.16301210  1
  F  F1  1  0.26996215  0.88124022  0.66301210  1
  F  F2  1  0.76996215  0.61875978  0.33698790  1
  F  F3  1  0.73003785  0.38124022  0.83698790  1
  F  F4  1  0.23190115  0.56936408  0.09096365  1
  F  F5  1  0.26809885  0.43063592  0.59096365  1
  F  F6  1  0.76809885  0.06936408  0.40903635  1
  F  F7  1  0.73190115  0.93063592  0.90903635  1
  F  F8  1  0.80581074  0.28539384  0.04441160  1
  F  F9  1  0.69418926  0.71460616  0.54441160  1
  F  F10  1  0.19418926  0.78539384  0.45558840  1
  F  F11  1  0.30581074  0.21460616  0.95558840  1
loop_
_geom_bond_atom_site_label_1
_geom_bond_atom_site_label_2
_geom_bond_distance
_geom_bond_site_symmetry_2
Be0 F0 1.515074 1_555
Be0 F4 1.517481 1_555
Be0 F11 1.596271 1_554
Be0 F8 1.598180 1_455
Be1 F1 1.515074 1_555
Be1 F5 1.517481 1_555
Be1 F10 1.596271 1_555
Be1 F9 1.598180 1_555
Be2 F2 1.515074 1_555
Be2 F6 1.517481 1_565
Be2 F9 1.596271 1_555
Be2 F10 1.598180 1_655
Be3 F3 1.515074 1_555
Be3 F7 1.517481 1_545
Be3 F8 1.596271 1_556
Be3 F11 1.598180 1_555
F0 K0 2.598999 1_555
F0 K2 2.745232 1_545
F0 K2 2.806006 1_445
F1 K1 2.598999 1_555
F1 K3 2.745232 1_465
F1 K3 2.806006 1_565
F2 K2 2.598999 1_555
F2 K0 2.745232 1_555
F2 K0 2.806006 1_655
F3 K3 2.598999 1_555
F3 K1 2.745232 1_655
F3 K1 2.806006 1_555
F4 K2 2.627644 1_555
F4 K2 2.704773 1_455
F4 K1 2.840772 1_554
F5 K3 2.627644 1_455
F5 K3 2.704773 1_555
F5 K0 2.840772 1_555
F6 K0 2.627644 1_555
F6 K0 2.704773 1_655
F6 K3 2.840772 1_555
F7 K1 2.627644 1_655
F7 K1 2.704773 1_555
F7 K2 2.840772 1_556
F8 K2 2.810629 1_545
F8 K2 3.123096 1_555
F9 K3 2.810629 1_565
F9 K3 3.123096 1_555
F10 K0 2.810629 1_555
F10 K0 3.123096 1_565
F11 K1 2.810629 1_555
F11 K1 3.123096 1_545
