# generated using pymatgen
data_Nb6Tl3SBr17
_symmetry_space_group_name_H-M   'P 1'
_cell_length_a   14.91462598
_cell_length_b   14.91462598
_cell_length_c   9.94630687
_cell_angle_alpha   84.54527964
_cell_angle_beta   84.54527964
_cell_angle_gamma   115.83338319
_symmetry_Int_Tables_number   1
_chemical_formula_structural   Nb6Tl3SBr17
_chemical_formula_sum   'Nb12 Tl6 S2 Br34'
_cell_volume   1959.25760872
_cell_formula_units_Z   2
loop_
 _symmetry_equiv_pos_site_id
 _symmetry_equiv_pos_as_xyz
  1  'x, y, z'
loop_
 _atom_site_type_symbol
 _atom_site_label
 _atom_site_symmetry_multiplicity
 _atom_site_fract_x
 _atom_site_fract_y
 _atom_site_fract_z
 _atom_site_occupancy
  Nb  Nb0  1  0.07816900  0.30163200  0.46455800  1
  Nb  Nb1  1  0.07273700  0.74043700  0.38372000  1
  Nb  Nb2  1  0.33273800  0.67461100  0.47350200  1
  Nb  Nb3  1  0.92726300  0.25956300  0.61628000  1
  Nb  Nb4  1  0.69836800  0.92183100  0.03544200  1
  Nb  Nb5  1  0.92183100  0.69836800  0.53544200  1
  Nb  Nb6  1  0.74043700  0.07273700  0.88372000  1
  Nb  Nb7  1  0.66726200  0.32538900  0.52649800  1
  Nb  Nb8  1  0.67461100  0.33273800  0.97350200  1
  Nb  Nb9  1  0.30163200  0.07816900  0.96455800  1
  Nb  Nb10  1  0.25956300  0.92726300  0.11628000  1
  Nb  Nb11  1  0.32538900  0.66726200  0.02649800  1
  Tl  Tl0  1  0.60071100  0.80346500  0.61787300  1
  Tl  Tl1  1  0.97179500  0.02820500  0.25000000  1
  Tl  Tl2  1  0.19653500  0.39928900  0.88212700  1
  Tl  Tl3  1  0.80346500  0.60071100  0.11787300  1
  Tl  Tl4  1  0.39928900  0.19653500  0.38212700  1
  Tl  Tl5  1  0.02820500  0.97179500  0.75000000  1
  S  S0  1  0.68996600  0.31003400  0.75000000  1
  S  S1  1  0.31003400  0.68996600  0.25000000  1
  Br  Br0  1  0.02670400  0.27776900  0.23127800  1
  Br  Br1  1  0.97329600  0.72223100  0.76872200  1
  Br  Br2  1  0.16794500  0.13587200  0.01958500  1
  Br  Br3  1  0.27776900  0.02670400  0.73127800  1
  Br  Br4  1  0.21909200  0.46935300  0.51458300  1
  Br  Br5  1  0.14527500  0.56417200  0.99477200  1
  Br  Br6  1  0.64477700  0.48842900  0.91696800  1
  Br  Br7  1  0.13587200  0.16794500  0.51958500  1
  Br  Br8  1  0.35522300  0.51157100  0.08303200  1
  Br  Br9  1  0.98230200  0.42697600  0.69797600  1
  Br  Br10  1  0.30209200  0.82959800  0.92946600  1
  Br  Br11  1  0.43582800  0.85472500  0.50522800  1
  Br  Br12  1  0.82959800  0.30209200  0.42946600  1
  Br  Br13  1  0.94455200  0.18306700  0.87142900  1
  Br  Br14  1  0.81693300  0.05544800  0.62857100  1
  Br  Br15  1  0.46935300  0.21909200  0.01458300  1
  Br  Br16  1  0.86412800  0.83205500  0.48041500  1
  Br  Br17  1  0.18306700  0.94455200  0.37142900  1
  Br  Br18  1  0.57302400  0.01769800  0.80202400  1
  Br  Br19  1  0.63318000  0.36682000  0.25000000  1
  Br  Br20  1  0.56417200  0.14527500  0.49477200  1
  Br  Br21  1  0.17040200  0.69790800  0.57053400  1
  Br  Br22  1  0.36682000  0.63318000  0.75000000  1
  Br  Br23  1  0.42697600  0.98230200  0.19797600  1
  Br  Br24  1  0.48842900  0.64477700  0.41696800  1
  Br  Br25  1  0.83205500  0.86412800  0.98041500  1
  Br  Br26  1  0.01769800  0.57302400  0.30202400  1
  Br  Br27  1  0.51157100  0.35522300  0.58303200  1
  Br  Br28  1  0.53064700  0.78090800  0.98541700  1
  Br  Br29  1  0.78090800  0.53064700  0.48541700  1
  Br  Br30  1  0.85472500  0.43582800  0.00522800  1
  Br  Br31  1  0.05544800  0.81693300  0.12857100  1
  Br  Br32  1  0.69790800  0.17040200  0.07053400  1
  Br  Br33  1  0.72223100  0.97329600  0.26872200  1
loop_
_geom_bond_atom_site_label_1
_geom_bond_atom_site_label_2
_geom_bond_distance
_geom_bond_site_symmetry_2
Nb2 S1 2.285353 1_555
Nb7 S0 2.285353 1_555
Nb8 S0 2.285353 1_555
Nb11 S1 2.285353 1_555
Br0 Nb0 2.521317 1_555
Br1 Nb5 2.521317 1_555
Br2 Nb9 2.528517 1_554
Br2 Tl1 3.212620 1_455
Br3 Nb9 2.521317 1_555
Br4 Nb0 2.603075 1_555
Br4 Nb2 2.742275 1_555
Br5 Nb11 2.516696 1_556
Br5 Tl2 3.144328 1_555
Br6 Nb8 2.570215 1_555
Br6 Tl3 3.237317 1_556
Br7 Nb0 2.528517 1_555
Br7 Tl5 3.212620 1_545
Br8 Nb11 2.570215 1_555
Br8 Tl2 3.237317 1_554
Br9 Nb3 2.508961 1_555
Br10 Nb10 2.659405 1_556
Br10 Nb11 2.695733 1_556
Br11 Nb2 2.516696 1_555
Br11 Tl0 3.144328 1_555
Br12 Nb3 2.659405 1_555
Br12 Nb7 2.695733 1_555
Br13 Nb6 2.741468 1_555
Br13 Nb3 2.763853 1_555
Br14 Nb3 2.741468 1_555
Br14 Nb6 2.763853 1_555
Br15 Nb9 2.603075 1_554
Br15 Nb8 2.742275 1_554
Br16 Nb5 2.528517 1_555
Br16 Tl1 3.212620 1_565
Br17 Nb1 2.741468 1_555
Br17 Nb10 2.763853 1_555
Br18 Nb6 2.508961 1_555
Br19 Nb7 2.901706 1_555
Br19 Nb8 2.901706 1_554
Br19 Tl4 3.334496 1_555
Br19 Tl3 3.334496 1_555
Br20 Nb7 2.516696 1_555
Br20 Tl4 3.144328 1_555
Br21 Nb1 2.659405 1_555
Br21 Nb2 2.695733 1_555
Br22 Nb11 2.901706 1_556
Br22 Nb2 2.901706 1_555
Br22 Tl0 3.334496 1_555
Br22 Tl2 3.334496 1_555
Br23 Nb10 2.508961 1_555
Br24 Nb2 2.570215 1_555
Br24 Tl0 3.237317 1_555
Br25 Nb4 2.528517 1_556
Br25 Tl5 3.212620 1_655
Br26 Nb1 2.508961 1_555
Br27 Nb7 2.570215 1_555
Br27 Tl4 3.237317 1_555
Br28 Nb4 2.603075 1_556
Br28 Nb11 2.742275 1_556
Br29 Nb5 2.603075 1_555
Br29 Nb7 2.742275 1_555
Br30 Nb8 2.516696 1_554
Br30 Tl3 3.144328 1_555
Br31 Nb10 2.741468 1_555
Br31 Nb1 2.763853 1_555
Br32 Nb6 2.659405 1_554
Br32 Nb8 2.695733 1_554
Br33 Nb4 2.521317 1_555
