# generated using pymatgen
data_Zr(U5Ti2)2
_symmetry_space_group_name_H-M   'P 1'
_cell_length_a   5.65274800
_cell_length_b   9.65915498
_cell_length_c   42.21849624
_cell_angle_alpha   96.52864218
_cell_angle_beta   90.00380417
_cell_angle_gamma   90.00243967
_symmetry_Int_Tables_number   1
_chemical_formula_structural   Zr(U5Ti2)2
_chemical_formula_sum   'Zr8 U80 Ti32'
_cell_volume   2290.21370190
_cell_formula_units_Z   8
loop_
 _symmetry_equiv_pos_site_id
 _symmetry_equiv_pos_as_xyz
  1  'x, y, z'
loop_
 _atom_site_type_symbol
 _atom_site_label
 _atom_site_symmetry_multiplicity
 _atom_site_fract_x
 _atom_site_fract_y
 _atom_site_fract_z
 _atom_site_occupancy
  Zr  Zr0_0  1  0.49999950  0.49997250  0.49999400  1
  Zr  Zr0_1  1  0.49999950  0.49997250  0.99999400  1
  Zr  Zr0_2  1  0.49999950  0.99997250  0.49999400  1
  Zr  Zr0_3  1  0.49999950  0.99997250  0.99999400  1
  Zr  Zr0_4  1  0.99999950  0.49997250  0.49999400  1
  Zr  Zr0_5  1  0.99999950  0.49997250  0.99999400  1
  Zr  Zr0_6  1  0.99999950  0.99997250  0.49999400  1
  Zr  Zr0_7  1  0.99999950  0.99997250  0.99999400  1
  U  U0_0  1  0.25001000  0.03504950  0.06994800  1
  U  U0_1  1  0.25001000  0.03504950  0.56994800  1
  U  U0_2  1  0.25001000  0.53504950  0.06994800  1
  U  U0_3  1  0.25001000  0.53504950  0.56994800  1
  U  U0_4  1  0.75001000  0.03504950  0.06994800  1
  U  U0_5  1  0.75001000  0.03504950  0.56994800  1
  U  U0_6  1  0.75001000  0.53504950  0.06994800  1
  U  U0_7  1  0.75001000  0.53504950  0.56994800  1
  U  U1_0  1  0.25001050  0.33368100  0.16762500  1
  U  U1_1  1  0.25001050  0.33368100  0.66762500  1
  U  U1_2  1  0.25001050  0.83368100  0.16762500  1
  U  U1_3  1  0.25001050  0.83368100  0.66762500  1
  U  U1_4  1  0.75001050  0.33368100  0.16762500  1
  U  U1_5  1  0.75001050  0.33368100  0.66762500  1
  U  U1_6  1  0.75001050  0.83368100  0.16762500  1
  U  U1_7  1  0.75001050  0.83368100  0.66762500  1
  U  U2_0  1  0.24999550  0.13330300  0.26638350  1
  U  U2_1  1  0.24999550  0.13330300  0.76638350  1
  U  U2_2  1  0.24999550  0.63330300  0.26638350  1
  U  U2_3  1  0.24999550  0.63330300  0.76638350  1
  U  U2_4  1  0.74999550  0.13330300  0.26638350  1
  U  U2_5  1  0.74999550  0.13330300  0.76638350  1
  U  U2_6  1  0.74999550  0.63330300  0.26638350  1
  U  U2_7  1  0.74999550  0.63330300  0.76638350  1
  U  U3_0  1  0.24997750  0.43242400  0.36481800  1
  U  U3_1  1  0.24997750  0.43242400  0.86481800  1
  U  U3_2  1  0.24997750  0.93242400  0.36481800  1
  U  U3_3  1  0.24997750  0.93242400  0.86481800  1
  U  U3_4  1  0.74997750  0.43242400  0.36481800  1
  U  U3_5  1  0.74997750  0.43242400  0.86481800  1
  U  U3_6  1  0.74997750  0.93242400  0.36481800  1
  U  U3_7  1  0.74997750  0.93242400  0.86481800  1
  U  U4_0  1  0.24999250  0.23110450  0.46274000  1
  U  U4_1  1  0.24999250  0.23110450  0.96274000  1
  U  U4_2  1  0.24999250  0.73110450  0.46274000  1
  U  U4_3  1  0.24999250  0.73110450  0.96274000  1
  U  U4_4  1  0.74999250  0.23110450  0.46274000  1
  U  U4_5  1  0.74999250  0.23110450  0.96274000  1
  U  U4_6  1  0.74999250  0.73110450  0.46274000  1
  U  U4_7  1  0.74999250  0.73110450  0.96274000  1
  U  U5_0  1  0.25000300  0.26890700  0.03730850  1
  U  U5_1  1  0.25000300  0.26890700  0.53730850  1
  U  U5_2  1  0.25000300  0.76890700  0.03730850  1
  U  U5_3  1  0.25000300  0.76890700  0.53730850  1
  U  U5_4  1  0.75000300  0.26890700  0.03730850  1
  U  U5_5  1  0.75000300  0.26890700  0.53730850  1
  U  U5_6  1  0.75000300  0.76890700  0.03730850  1
  U  U5_7  1  0.75000300  0.76890700  0.53730850  1
  U  U6_0  1  0.25002250  0.06750150  0.13509400  1
  U  U6_1  1  0.25002250  0.06750150  0.63509400  1
  U  U6_2  1  0.25002250  0.56750150  0.13509400  1
  U  U6_3  1  0.25002250  0.56750150  0.63509400  1
  U  U6_4  1  0.75002250  0.06750150  0.13509400  1
  U  U6_5  1  0.75002250  0.06750150  0.63509400  1
  U  U6_6  1  0.75002250  0.56750150  0.13509400  1
  U  U6_7  1  0.75002250  0.56750150  0.63509400  1
  U  U7_0  1  0.25000550  0.36671150  0.23370400  1
  U  U7_1  1  0.25000550  0.36671150  0.73370400  1
  U  U7_2  1  0.25000550  0.86671150  0.23370400  1
  U  U7_3  1  0.25000550  0.86671150  0.73370400  1
  U  U7_4  1  0.75000550  0.36671150  0.23370400  1
  U  U7_5  1  0.75000550  0.36671150  0.73370400  1
  U  U7_6  1  0.75000550  0.86671150  0.23370400  1
  U  U7_7  1  0.75000550  0.86671150  0.73370400  1
  U  U8_0  1  0.24999000  0.16624000  0.33228400  1
  U  U8_1  1  0.24999000  0.16624000  0.83228400  1
  U  U8_2  1  0.24999000  0.66624000  0.33228400  1
  U  U8_3  1  0.24999000  0.66624000  0.83228400  1
  U  U8_4  1  0.74999000  0.16624000  0.33228400  1
  U  U8_5  1  0.74999000  0.16624000  0.83228400  1
  U  U8_6  1  0.74999000  0.66624000  0.33228400  1
  U  U8_7  1  0.74999000  0.66624000  0.83228400  1
  U  U9_0  1  0.24999100  0.46490300  0.43010200  1
  U  U9_1  1  0.24999100  0.46490300  0.93010200  1
  U  U9_2  1  0.24999100  0.96490300  0.43010200  1
  U  U9_3  1  0.24999100  0.96490300  0.93010200  1
  U  U9_4  1  0.74999100  0.46490300  0.43010200  1
  U  U9_5  1  0.74999100  0.46490300  0.93010200  1
  U  U9_6  1  0.74999100  0.96490300  0.43010200  1
  U  U9_7  1  0.74999100  0.96490300  0.93010200  1
  Ti  Ti0_0  1  0.00001100  0.30118950  0.10213650  1
  Ti  Ti0_1  1  0.00001100  0.30118950  0.60213650  1
  Ti  Ti0_2  1  0.00001100  0.80118950  0.10213650  1
  Ti  Ti0_3  1  0.00001100  0.80118950  0.60213650  1
  Ti  Ti0_4  1  0.50001100  0.30118950  0.10213650  1
  Ti  Ti0_5  1  0.50001100  0.30118950  0.60213650  1
  Ti  Ti0_6  1  0.50001100  0.80118950  0.10213650  1
  Ti  Ti0_7  1  0.50001100  0.80118950  0.60213650  1
  Ti  Ti1_0  1  0.00000450  0.10017700  0.20079450  1
  Ti  Ti1_1  1  0.00000450  0.10017700  0.70079450  1
  Ti  Ti1_2  1  0.00000450  0.60017700  0.20079450  1
  Ti  Ti1_3  1  0.00000450  0.60017700  0.70079450  1
  Ti  Ti1_4  1  0.50000450  0.10017700  0.20079450  1
  Ti  Ti1_5  1  0.50000450  0.10017700  0.70079450  1
  Ti  Ti1_6  1  0.50000450  0.60017700  0.20079450  1
  Ti  Ti1_7  1  0.50000450  0.60017700  0.70079450  1
  Ti  Ti2_0  1  0.49999700  0.39980050  0.29920500  1
  Ti  Ti2_1  1  0.49999700  0.39980050  0.79920500  1
  Ti  Ti2_2  1  0.49999700  0.89980050  0.29920500  1
  Ti  Ti2_3  1  0.49999700  0.89980050  0.79920500  1
  Ti  Ti2_4  1  0.99999700  0.39980050  0.29920500  1
  Ti  Ti2_5  1  0.99999700  0.39980050  0.79920500  1
  Ti  Ti2_6  1  0.99999700  0.89980050  0.29920500  1
  Ti  Ti2_7  1  0.99999700  0.89980050  0.79920500  1
  Ti  Ti3_0  1  0.49998900  0.19878550  0.39786350  1
  Ti  Ti3_1  1  0.49998900  0.19878550  0.89786350  1
  Ti  Ti3_2  1  0.49998900  0.69878550  0.39786350  1
  Ti  Ti3_3  1  0.49998900  0.69878550  0.89786350  1
  Ti  Ti3_4  1  0.99998900  0.19878550  0.39786350  1
  Ti  Ti3_5  1  0.99998900  0.19878550  0.89786350  1
  Ti  Ti3_6  1  0.99998900  0.69878550  0.39786350  1
  Ti  Ti3_7  1  0.99998900  0.69878550  0.89786350  1
loop_
_geom_bond_atom_site_label_1
_geom_bond_atom_site_label_2
_geom_bond_distance
_geom_bond_site_symmetry_2
Zr0_0 Zr0_4 2.826374 1_455
Zr0_0 Zr0_4 2.826374 1_555
Zr0_1 Zr0_5 2.826374 1_455
Zr0_1 Zr0_5 2.826374 1_555
Zr0_2 Zr0_6 2.826374 1_455
Zr0_2 Zr0_6 2.826374 1_555
Zr0_3 Zr0_7 2.826374 1_455
Zr0_3 Zr0_7 2.826374 1_555
U0_0 U6_0 2.732531 1_555
U0_0 U5_2 2.775225 1_545
U0_0 U5_0 2.776537 1_555
U0_0 U0_4 2.826374 1_455
U0_0 U0_4 2.826374 1_555
U0_0 Zr0_7 3.256718 1_444
U0_0 Zr0_3 3.256849 1_544
U0_1 U6_1 2.732531 1_555
U0_1 U5_3 2.775225 1_545
U0_1 U5_1 2.776537 1_555
U0_1 U0_5 2.826374 1_455
U0_1 U0_5 2.826374 1_555
U0_1 Zr0_6 3.256718 1_445
U0_1 Zr0_2 3.256849 1_545
U0_2 U6_2 2.732531 1_555
U0_2 U5_0 2.775225 1_555
U0_2 U5_2 2.776537 1_555
U0_2 U0_6 2.826374 1_455
U0_2 U0_6 2.826374 1_555
U0_2 Zr0_5 3.256718 1_454
U0_2 Zr0_1 3.256849 1_554
U0_3 U6_3 2.732531 1_555
U0_3 U5_1 2.775225 1_555
U0_3 U5_3 2.776537 1_555
U0_3 U0_7 2.826374 1_455
U0_3 U0_7 2.826374 1_555
U0_3 Zr0_4 3.256718 1_455
U0_3 Zr0_0 3.256849 1_555
U0_4 U6_4 2.732531 1_555
U0_4 U5_6 2.775225 1_545
U0_4 U5_4 2.776537 1_555
U0_4 Zr0_3 3.256718 1_544
U0_4 Zr0_7 3.256849 1_544
U0_5 U6_5 2.732531 1_555
U0_5 U5_7 2.775225 1_545
U0_5 U5_5 2.776537 1_555
U0_5 Zr0_2 3.256718 1_545
U0_5 Zr0_6 3.256849 1_545
U0_6 U6_6 2.732531 1_555
U0_6 U5_4 2.775225 1_555
U0_6 U5_6 2.776537 1_555
U0_6 Zr0_1 3.256718 1_554
U0_6 Zr0_5 3.256849 1_554
U0_7 U6_7 2.732531 1_555
U0_7 U5_5 2.775225 1_555
U0_7 U5_7 2.776537 1_555
U0_7 Zr0_0 3.256718 1_555
U0_7 Zr0_4 3.256849 1_555
U1_0 U7_0 2.771665 1_555
U1_0 U6_2 2.773531 1_555
U1_0 U6_0 2.773747 1_555
U1_0 U1_4 2.826374 1_455
U1_0 U1_4 2.826374 1_555
U1_1 U7_1 2.771665 1_555
U1_1 U6_3 2.773531 1_555
U1_1 U6_1 2.773747 1_555
U1_1 U1_5 2.826374 1_455
U1_1 U1_5 2.826374 1_555
U1_2 U7_2 2.771665 1_555
U1_2 U6_0 2.773531 1_565
U1_2 U6_2 2.773747 1_555
U1_2 U1_6 2.826374 1_555
U1_2 U1_6 2.826374 1_455
U1_3 U7_3 2.771665 1_555
U1_3 U6_1 2.773531 1_565
U1_3 U6_3 2.773747 1_555
U1_3 U1_7 2.826374 1_455
U1_3 U1_7 2.826374 1_555
U1_4 U7_4 2.771665 1_555
U1_4 U6_6 2.773531 1_555
U1_4 U6_4 2.773747 1_555
U1_5 U7_5 2.771665 1_555
U1_5 U6_7 2.773531 1_555
U1_5 U6_5 2.773747 1_555
U1_6 U7_6 2.771665 1_555
U1_6 U6_4 2.773531 1_565
U1_6 U6_6 2.773747 1_555
U1_7 U7_7 2.771665 1_555
U1_7 U6_5 2.773531 1_565
U1_7 U6_7 2.773747 1_555
U2_0 U8_0 2.764178 1_555
U2_0 U7_0 2.773761 1_555
U2_0 U7_2 2.779658 1_545
U2_0 U2_4 2.826374 1_455
U2_0 U2_4 2.826374 1_555
U2_1 U8_1 2.764178 1_555
U2_1 U7_1 2.773761 1_555
U2_1 U7_3 2.779658 1_545
U2_1 U2_5 2.826374 1_455
U2_1 U2_5 2.826374 1_555
U2_2 U8_2 2.764178 1_555
U2_2 U7_2 2.773761 1_555
U2_2 U7_0 2.779658 1_555
U2_2 U2_6 2.826374 1_455
U2_2 U2_6 2.826374 1_555
U2_3 U8_3 2.764178 1_555
U2_3 U7_3 2.773761 1_555
U2_3 U7_1 2.779658 1_555
U2_3 U2_7 2.826374 1_555
U2_3 U2_7 2.826374 1_455
U2_4 U8_4 2.764178 1_555
U2_4 U7_4 2.773761 1_555
U2_4 U7_6 2.779658 1_545
U2_5 U8_5 2.764178 1_555
U2_5 U7_5 2.773761 1_555
U2_5 U7_7 2.779658 1_545
U2_6 U8_6 2.764178 1_555
U2_6 U7_6 2.773761 1_555
U2_6 U7_4 2.779658 1_555
U2_7 U8_7 2.764178 1_555
U2_7 U7_7 2.773761 1_555
U2_7 U7_5 2.779658 1_555
U3_0 U9_0 2.738319 1_555
U3_0 U8_2 2.773568 1_555
U3_0 U8_0 2.773834 1_555
U3_0 U3_4 2.826374 1_455
U3_0 U3_4 2.826374 1_555
U3_1 U9_1 2.738319 1_555
U3_1 U8_3 2.773568 1_555
U3_1 U8_1 2.773834 1_555
U3_1 U3_5 2.826374 1_555
U3_1 U3_5 2.826374 1_455
U3_2 U9_2 2.738319 1_555
U3_2 U8_0 2.773568 1_565
U3_2 U8_2 2.773834 1_555
U3_2 U3_6 2.826374 1_455
U3_2 U3_6 2.826374 1_555
U3_3 U9_3 2.738319 1_555
U3_3 U8_1 2.773568 1_565
U3_3 U8_3 2.773834 1_555
U3_3 U3_7 2.826374 1_555
U3_3 U3_7 2.826374 1_455
U3_4 U9_4 2.738319 1_555
U3_4 U8_6 2.773568 1_555
U3_4 U8_4 2.773834 1_555
U3_5 U9_5 2.738319 1_555
U3_5 U8_7 2.773568 1_555
U3_5 U8_5 2.773834 1_555
U3_6 U9_6 2.738319 1_555
U3_6 U8_4 2.773568 1_565
U3_6 U8_6 2.773834 1_555
U3_7 U9_7 2.738319 1_555
U3_7 U8_5 2.773568 1_565
U3_7 U8_7 2.773834 1_555
U4_0 U9_2 2.775696 1_545
U4_0 U9_0 2.776004 1_555
U4_0 U4_4 2.826374 1_455
U4_0 U4_4 2.826374 1_555
U4_0 U5_1 3.127763 1_555
U4_0 Zr0_6 3.202101 1_445
U4_0 Zr0_2 3.202128 1_545
U4_0 Zr0_0 3.207193 1_555
U4_0 Zr0_4 3.207347 1_455
U4_1 U9_3 2.775696 1_545
U4_1 U9_1 2.776004 1_555
U4_1 U4_5 2.826374 1_455
U4_1 U4_5 2.826374 1_555
U4_1 U5_0 3.127763 1_556
U4_1 Zr0_7 3.202101 1_445
U4_1 Zr0_3 3.202128 1_545
U4_1 Zr0_1 3.207193 1_555
U4_1 Zr0_5 3.207347 1_455
U4_2 U9_0 2.775696 1_555
U4_2 U9_2 2.776004 1_555
U4_2 U4_6 2.826374 1_555
U4_2 U4_6 2.826374 1_455
U4_2 U5_3 3.127763 1_555
U4_2 Zr0_4 3.202101 1_455
U4_2 Zr0_0 3.202128 1_555
U4_2 Zr0_2 3.207193 1_555
U4_2 Zr0_6 3.207347 1_455
U4_3 U9_1 2.775696 1_555
U4_3 U9_3 2.776004 1_555
U4_3 U4_7 2.826374 1_555
U4_3 U4_7 2.826374 1_455
U4_3 U5_2 3.127763 1_556
U4_3 Zr0_5 3.202101 1_455
U4_3 Zr0_1 3.202128 1_555
U4_3 Zr0_3 3.207193 1_555
U4_3 Zr0_7 3.207347 1_455
U4_4 U9_6 2.775696 1_545
U4_4 U9_4 2.776004 1_555
U4_4 U5_5 3.127763 1_555
U4_4 Zr0_2 3.202101 1_545
U4_4 Zr0_6 3.202128 1_545
U4_4 Zr0_4 3.207193 1_555
U4_4 Zr0_0 3.207347 1_555
U4_5 U9_7 2.775696 1_545
U4_5 U9_5 2.776004 1_555
U4_5 U5_4 3.127763 1_556
U4_5 Zr0_3 3.202101 1_545
U4_5 Zr0_7 3.202128 1_545
U4_5 Zr0_5 3.207193 1_555
U4_5 Zr0_1 3.207347 1_555
U4_6 U9_4 2.775696 1_555
U4_6 U9_6 2.776004 1_555
U4_6 U5_7 3.127763 1_555
U4_6 Zr0_0 3.202101 1_555
U4_6 Zr0_4 3.202128 1_555
U4_6 Zr0_6 3.207193 1_555
U4_6 Zr0_2 3.207347 1_555
U4_7 U9_5 2.775696 1_555
U4_7 U9_7 2.776004 1_555
U4_7 U5_6 3.127763 1_556
U4_7 Zr0_1 3.202101 1_555
U4_7 Zr0_5 3.202128 1_555
U4_7 Zr0_7 3.207193 1_555
U4_7 Zr0_3 3.207347 1_555
U5_0 U5_4 2.826374 1_455
U5_0 U5_4 2.826374 1_555
U5_0 Zr0_1 3.203084 1_554
U5_0 Zr0_5 3.203093 1_454
U5_0 Zr0_7 3.208686 1_444
U5_0 Zr0_3 3.208858 1_544
U5_1 U5_5 2.826374 1_455
U5_1 U5_5 2.826374 1_555
U5_1 Zr0_0 3.203084 1_555
U5_1 Zr0_4 3.203093 1_455
U5_1 Zr0_6 3.208686 1_445
U5_1 Zr0_2 3.208858 1_545
U5_2 U5_6 2.826374 1_555
U5_2 U5_6 2.826374 1_455
U5_2 Zr0_3 3.203084 1_554
U5_2 Zr0_7 3.203093 1_454
U5_2 Zr0_5 3.208686 1_454
U5_2 Zr0_1 3.208858 1_554
U5_3 U5_7 2.826374 1_455
U5_3 U5_7 2.826374 1_555
U5_3 Zr0_2 3.203084 1_555
U5_3 Zr0_6 3.203093 1_455
U5_3 Zr0_4 3.208686 1_455
U5_3 Zr0_0 3.208858 1_555
U5_4 Zr0_5 3.203084 1_554
U5_4 Zr0_1 3.203093 1_554
U5_4 Zr0_3 3.208686 1_544
U5_4 Zr0_7 3.208858 1_544
U5_5 Zr0_4 3.203084 1_555
U5_5 Zr0_0 3.203093 1_555
U5_5 Zr0_2 3.208686 1_545
U5_5 Zr0_6 3.208858 1_545
U5_6 Zr0_7 3.203084 1_554
U5_6 Zr0_3 3.203093 1_554
U5_6 Zr0_1 3.208686 1_554
U5_6 Zr0_5 3.208858 1_554
U5_7 Zr0_6 3.203084 1_555
U5_7 Zr0_2 3.203093 1_555
U5_7 Zr0_0 3.208686 1_555
U5_7 Zr0_4 3.208858 1_555
U6_0 U6_4 2.826374 1_455
U6_0 U6_4 2.826374 1_555
U6_1 U6_5 2.826374 1_455
U6_1 U6_5 2.826374 1_555
U6_2 U6_6 2.826374 1_455
U6_2 U6_6 2.826374 1_555
U6_3 U6_7 2.826374 1_555
U6_3 U6_7 2.826374 1_455
U7_0 U7_4 2.826374 1_455
U7_0 U7_4 2.826374 1_555
U7_1 U7_5 2.826374 1_455
U7_1 U7_5 2.826374 1_555
U7_2 U7_6 2.826374 1_455
U7_2 U7_6 2.826374 1_555
U7_3 U7_7 2.826374 1_455
U7_3 U7_7 2.826374 1_555
U8_0 U8_4 2.826374 1_455
U8_0 U8_4 2.826374 1_555
U8_1 U8_5 2.826374 1_455
U8_1 U8_5 2.826374 1_555
U8_2 U8_6 2.826374 1_455
U8_2 U8_6 2.826374 1_555
U8_3 U8_7 2.826374 1_555
U8_3 U8_7 2.826374 1_455
U9_0 U9_4 2.826374 1_455
U9_0 U9_4 2.826374 1_555
U9_0 Zr0_0 3.254371 1_555
U9_0 Zr0_4 3.254512 1_455
U9_1 U9_5 2.826374 1_555
U9_1 U9_5 2.826374 1_455
U9_1 Zr0_1 3.254371 1_555
U9_1 Zr0_5 3.254512 1_455
U9_2 U9_6 2.826374 1_555
U9_2 U9_6 2.826374 1_455
U9_2 Zr0_2 3.254371 1_555
U9_2 Zr0_6 3.254512 1_455
U9_3 U9_7 2.826374 1_455
U9_3 U9_7 2.826374 1_555
U9_3 Zr0_3 3.254371 1_555
U9_3 Zr0_7 3.254512 1_455
U9_4 Zr0_4 3.254371 1_555
U9_4 Zr0_0 3.254512 1_555
U9_5 Zr0_5 3.254371 1_555
U9_5 Zr0_1 3.254512 1_555
U9_6 Zr0_6 3.254371 1_555
U9_6 Zr0_2 3.254512 1_555
U9_7 Zr0_7 3.254371 1_555
U9_7 Zr0_3 3.254512 1_555
Ti0_0 Ti0_4 2.826374 1_455
Ti0_0 Ti0_4 2.826374 1_555
Ti0_0 U5_4 3.064422 1_455
Ti0_0 U5_0 3.064560 1_555
Ti0_0 U1_0 3.089008 1_555
Ti0_0 U1_4 3.089191 1_455
Ti0_0 U0_2 3.105551 1_555
Ti0_0 U0_6 3.105562 1_455
Ti0_0 U0_4 3.107623 1_455
Ti0_0 U0_0 3.107800 1_555
Ti0_0 U6_2 3.120227 1_555
Ti0_0 U6_6 3.120351 1_455
Ti0_0 U6_4 3.121254 1_455
Ti0_0 U6_0 3.121316 1_555
Ti0_1 Ti0_5 2.826374 1_455
Ti0_1 Ti0_5 2.826374 1_555
Ti0_1 U5_5 3.064422 1_455
Ti0_1 U5_1 3.064560 1_555
Ti0_1 U1_1 3.089008 1_555
Ti0_1 U1_5 3.089191 1_455
Ti0_1 U0_3 3.105551 1_555
Ti0_1 U0_7 3.105562 1_455
Ti0_1 U0_5 3.107623 1_455
Ti0_1 U0_1 3.107800 1_555
Ti0_1 U6_3 3.120227 1_555
Ti0_1 U6_7 3.120351 1_455
Ti0_1 U6_5 3.121254 1_455
Ti0_1 U6_1 3.121316 1_555
Ti0_2 Ti0_6 2.826374 1_455
Ti0_2 Ti0_6 2.826374 1_555
Ti0_2 U5_6 3.064422 1_455
Ti0_2 U5_2 3.064560 1_555
Ti0_2 U1_2 3.089008 1_555
Ti0_2 U1_6 3.089191 1_455
Ti0_2 U0_0 3.105551 1_565
Ti0_2 U0_4 3.105562 1_465
Ti0_2 U0_6 3.107623 1_455
Ti0_2 U0_2 3.107800 1_555
Ti0_2 U6_0 3.120227 1_565
Ti0_2 U6_4 3.120351 1_465
Ti0_2 U6_6 3.121254 1_455
Ti0_2 U6_2 3.121316 1_555
Ti0_3 Ti0_7 2.826374 1_455
Ti0_3 Ti0_7 2.826374 1_555
Ti0_3 U5_7 3.064422 1_455
Ti0_3 U5_3 3.064560 1_555
Ti0_3 U1_3 3.089008 1_555
Ti0_3 U1_7 3.089191 1_455
Ti0_3 U0_1 3.105551 1_565
Ti0_3 U0_5 3.105562 1_465
Ti0_3 U0_7 3.107623 1_455
Ti0_3 U0_3 3.107800 1_555
Ti0_3 U6_1 3.120227 1_565
Ti0_3 U6_5 3.120351 1_465
Ti0_3 U6_7 3.121254 1_455
Ti0_3 U6_3 3.121316 1_555
Ti0_4 U5_0 3.064422 1_555
Ti0_4 U5_4 3.064560 1_555
Ti0_4 U1_4 3.089008 1_555
Ti0_4 U1_0 3.089191 1_555
Ti0_4 U0_6 3.105551 1_555
Ti0_4 U0_2 3.105562 1_555
Ti0_4 U0_0 3.107623 1_555
Ti0_4 U0_4 3.107800 1_555
Ti0_4 U6_6 3.120227 1_555
Ti0_4 U6_2 3.120351 1_555
Ti0_4 U6_0 3.121254 1_555
Ti0_4 U6_4 3.121316 1_555
Ti0_5 U5_1 3.064422 1_555
Ti0_5 U5_5 3.064560 1_555
Ti0_5 U1_5 3.089008 1_555
Ti0_5 U1_1 3.089191 1_555
Ti0_5 U0_7 3.105551 1_555
Ti0_5 U0_3 3.105562 1_555
Ti0_5 U0_1 3.107623 1_555
Ti0_5 U0_5 3.107800 1_555
Ti0_5 U6_7 3.120227 1_555
Ti0_5 U6_3 3.120351 1_555
Ti0_5 U6_1 3.121254 1_555
Ti0_5 U6_5 3.121316 1_555
Ti0_6 U5_2 3.064422 1_555
Ti0_6 U5_6 3.064560 1_555
Ti0_6 U1_6 3.089008 1_555
Ti0_6 U1_2 3.089191 1_555
Ti0_6 U0_4 3.105551 1_565
Ti0_6 U0_0 3.105562 1_565
Ti0_6 U0_2 3.107623 1_555
Ti0_6 U0_6 3.107800 1_555
Ti0_6 U6_4 3.120227 1_565
Ti0_6 U6_0 3.120351 1_565
Ti0_6 U6_2 3.121254 1_555
Ti0_6 U6_6 3.121316 1_555
Ti0_7 U5_3 3.064422 1_555
Ti0_7 U5_7 3.064560 1_555
Ti0_7 U1_7 3.089008 1_555
Ti0_7 U1_3 3.089191 1_555
Ti0_7 U0_5 3.105551 1_565
Ti0_7 U0_1 3.105562 1_565
Ti0_7 U0_3 3.107623 1_555
Ti0_7 U0_7 3.107800 1_555
Ti0_7 U6_5 3.120227 1_565
Ti0_7 U6_1 3.120351 1_565
Ti0_7 U6_3 3.121254 1_555
Ti0_7 U6_7 3.121316 1_555
Ti1_0 Ti1_4 2.826374 1_455
Ti1_0 Ti1_4 2.826374 1_555
Ti1_0 U2_0 3.092740 1_555
Ti1_0 U2_4 3.092967 1_455
Ti1_0 U6_4 3.096873 1_455
Ti1_0 U6_0 3.097146 1_555
Ti1_0 U7_6 3.118548 1_445
Ti1_0 U7_2 3.118557 1_545
Ti1_0 U7_0 3.121151 1_555
Ti1_0 U7_4 3.121328 1_455
Ti1_0 U1_4 3.124633 1_455
Ti1_0 U1_0 3.124661 1_555
Ti1_0 U1_6 3.124719 1_445
Ti1_0 U1_2 3.124933 1_545
Ti1_1 Ti1_5 2.826374 1_455
Ti1_1 Ti1_5 2.826374 1_555
Ti1_1 U2_1 3.092740 1_555
Ti1_1 U2_5 3.092967 1_455
Ti1_1 U6_5 3.096873 1_455
Ti1_1 U6_1 3.097146 1_555
Ti1_1 U7_7 3.118548 1_445
Ti1_1 U7_3 3.118557 1_545
Ti1_1 U7_1 3.121151 1_555
Ti1_1 U7_5 3.121328 1_455
Ti1_1 U1_5 3.124633 1_455
Ti1_1 U1_1 3.124661 1_555
Ti1_1 U1_7 3.124719 1_445
Ti1_1 U1_3 3.124933 1_545
Ti1_2 Ti1_6 2.826374 1_455
Ti1_2 Ti1_6 2.826374 1_555
Ti1_2 U2_2 3.092740 1_555
Ti1_2 U2_6 3.092967 1_455
Ti1_2 U6_6 3.096873 1_455
Ti1_2 U6_2 3.097146 1_555
Ti1_2 U7_4 3.118548 1_455
Ti1_2 U7_0 3.118557 1_555
Ti1_2 U7_2 3.121151 1_555
Ti1_2 U7_6 3.121328 1_455
Ti1_2 U1_6 3.124633 1_455
Ti1_2 U1_2 3.124661 1_555
Ti1_2 U1_4 3.124719 1_455
Ti1_2 U1_0 3.124933 1_555
Ti1_3 Ti1_7 2.826374 1_555
Ti1_3 Ti1_7 2.826374 1_455
Ti1_3 U2_3 3.092740 1_555
Ti1_3 U2_7 3.092967 1_455
Ti1_3 U6_7 3.096873 1_455
Ti1_3 U6_3 3.097146 1_555
Ti1_3 U7_5 3.118548 1_455
Ti1_3 U7_1 3.118557 1_555
Ti1_3 U7_3 3.121151 1_555
Ti1_3 U7_7 3.121328 1_455
Ti1_3 U1_7 3.124633 1_455
Ti1_3 U1_3 3.124661 1_555
Ti1_3 U1_5 3.124719 1_455
Ti1_3 U1_1 3.124933 1_555
Ti1_4 U2_4 3.092740 1_555
Ti1_4 U2_0 3.092967 1_555
Ti1_4 U6_0 3.096873 1_555
Ti1_4 U6_4 3.097146 1_555
Ti1_4 U7_2 3.118548 1_545
Ti1_4 U7_6 3.118557 1_545
Ti1_4 U7_4 3.121151 1_555
Ti1_4 U7_0 3.121328 1_555
Ti1_4 U1_0 3.124633 1_555
Ti1_4 U1_4 3.124661 1_555
Ti1_4 U1_2 3.124719 1_545
Ti1_4 U1_6 3.124933 1_545
Ti1_5 U2_5 3.092740 1_555
Ti1_5 U2_1 3.092967 1_555
Ti1_5 U6_1 3.096873 1_555
Ti1_5 U6_5 3.097146 1_555
Ti1_5 U7_3 3.118548 1_545
Ti1_5 U7_7 3.118557 1_545
Ti1_5 U7_5 3.121151 1_555
Ti1_5 U7_1 3.121328 1_555
Ti1_5 U1_1 3.124633 1_555
Ti1_5 U1_5 3.124661 1_555
Ti1_5 U1_3 3.124719 1_545
Ti1_5 U1_7 3.124933 1_545
Ti1_6 U2_6 3.092740 1_555
Ti1_6 U2_2 3.092967 1_555
Ti1_6 U6_2 3.096873 1_555
Ti1_6 U6_6 3.097146 1_555
Ti1_6 U7_0 3.118548 1_555
Ti1_6 U7_4 3.118557 1_555
Ti1_6 U7_6 3.121151 1_555
Ti1_6 U7_2 3.121328 1_555
Ti1_6 U1_2 3.124633 1_555
Ti1_6 U1_6 3.124661 1_555
Ti1_6 U1_0 3.124719 1_555
Ti1_6 U1_4 3.124933 1_555
Ti1_7 U2_7 3.092740 1_555
Ti1_7 U2_3 3.092967 1_555
Ti1_7 U6_3 3.096873 1_555
Ti1_7 U6_7 3.097146 1_555
Ti1_7 U7_1 3.118548 1_555
Ti1_7 U7_5 3.118557 1_555
Ti1_7 U7_7 3.121151 1_555
Ti1_7 U7_3 3.121328 1_555
Ti1_7 U1_3 3.124633 1_555
Ti1_7 U1_7 3.124661 1_555
Ti1_7 U1_1 3.124719 1_555
Ti1_7 U1_5 3.124933 1_555
Ti2_0 Ti2_4 2.826374 1_455
Ti2_0 Ti2_4 2.826374 1_555
Ti2_0 U7_0 3.089458 1_555
Ti2_0 U7_4 3.089683 1_555
Ti2_0 U3_4 3.093604 1_555
Ti2_0 U3_0 3.093885 1_555
Ti2_0 U2_6 3.116864 1_555
Ti2_0 U2_2 3.116876 1_555
Ti2_0 U2_0 3.119572 1_555
Ti2_0 U2_4 3.119747 1_555
Ti2_0 U8_6 3.122942 1_555
Ti2_0 U8_4 3.123028 1_555
Ti2_0 U8_0 3.123061 1_555
Ti2_0 U8_2 3.123161 1_555
Ti2_1 Ti2_5 2.826374 1_455
Ti2_1 Ti2_5 2.826374 1_555
Ti2_1 U7_1 3.089458 1_555
Ti2_1 U7_5 3.089683 1_555
Ti2_1 U3_5 3.093604 1_555
Ti2_1 U3_1 3.093885 1_555
Ti2_1 U2_7 3.116864 1_555
Ti2_1 U2_3 3.116876 1_555
Ti2_1 U2_1 3.119572 1_555
Ti2_1 U2_5 3.119747 1_555
Ti2_1 U8_7 3.122942 1_555
Ti2_1 U8_5 3.123028 1_555
Ti2_1 U8_1 3.123061 1_555
Ti2_1 U8_3 3.123161 1_555
Ti2_2 Ti2_6 2.826374 1_455
Ti2_2 Ti2_6 2.826374 1_555
Ti2_2 U7_2 3.089458 1_555
Ti2_2 U7_6 3.089683 1_555
Ti2_2 U3_6 3.093604 1_555
Ti2_2 U3_2 3.093885 1_555
Ti2_2 U2_4 3.116864 1_565
Ti2_2 U2_0 3.116876 1_565
Ti2_2 U2_2 3.119572 1_555
Ti2_2 U2_6 3.119747 1_555
Ti2_2 U8_4 3.122942 1_565
Ti2_2 U8_6 3.123028 1_555
Ti2_2 U8_2 3.123061 1_555
Ti2_2 U8_0 3.123161 1_565
Ti2_3 Ti2_7 2.826374 1_555
Ti2_3 Ti2_7 2.826374 1_455
Ti2_3 U7_3 3.089458 1_555
Ti2_3 U7_7 3.089683 1_555
Ti2_3 U3_7 3.093604 1_555
Ti2_3 U3_3 3.093885 1_555
Ti2_3 U2_5 3.116864 1_565
Ti2_3 U2_1 3.116876 1_565
Ti2_3 U2_3 3.119572 1_555
Ti2_3 U2_7 3.119747 1_555
Ti2_3 U8_5 3.122942 1_565
Ti2_3 U8_7 3.123028 1_555
Ti2_3 U8_3 3.123061 1_555
Ti2_3 U8_1 3.123161 1_565
Ti2_4 U7_4 3.089458 1_555
Ti2_4 U7_0 3.089683 1_655
Ti2_4 U3_0 3.093604 1_655
Ti2_4 U3_4 3.093885 1_555
Ti2_4 U2_2 3.116864 1_655
Ti2_4 U2_6 3.116876 1_555
Ti2_4 U2_4 3.119572 1_555
Ti2_4 U2_0 3.119747 1_655
Ti2_4 U8_2 3.122942 1_655
Ti2_4 U8_0 3.123028 1_655
Ti2_4 U8_4 3.123061 1_555
Ti2_4 U8_6 3.123161 1_555
Ti2_5 U7_5 3.089458 1_555
Ti2_5 U7_1 3.089683 1_655
Ti2_5 U3_1 3.093604 1_655
Ti2_5 U3_5 3.093885 1_555
Ti2_5 U2_3 3.116864 1_655
Ti2_5 U2_7 3.116876 1_555
Ti2_5 U2_5 3.119572 1_555
Ti2_5 U2_1 3.119747 1_655
Ti2_5 U8_3 3.122942 1_655
Ti2_5 U8_1 3.123028 1_655
Ti2_5 U8_5 3.123061 1_555
Ti2_5 U8_7 3.123161 1_555
Ti2_6 U7_6 3.089458 1_555
Ti2_6 U7_2 3.089683 1_655
Ti2_6 U3_2 3.093604 1_655
Ti2_6 U3_6 3.093885 1_555
Ti2_6 U2_0 3.116864 1_665
Ti2_6 U2_4 3.116876 1_565
Ti2_6 U2_6 3.119572 1_555
Ti2_6 U2_2 3.119747 1_655
Ti2_6 U8_0 3.122942 1_665
Ti2_6 U8_2 3.123028 1_655
Ti2_6 U8_6 3.123061 1_555
Ti2_6 U8_4 3.123161 1_565
Ti2_7 U7_7 3.089458 1_555
Ti2_7 U7_3 3.089683 1_655
Ti2_7 U3_3 3.093604 1_655
Ti2_7 U3_7 3.093885 1_555
Ti2_7 U2_1 3.116864 1_665
Ti2_7 U2_5 3.116876 1_565
Ti2_7 U2_7 3.119572 1_555
Ti2_7 U2_3 3.119747 1_655
Ti2_7 U8_1 3.122942 1_665
Ti2_7 U8_3 3.123028 1_655
Ti2_7 U8_7 3.123061 1_555
Ti2_7 U8_5 3.123161 1_565
Ti3_0 Ti3_4 2.826374 1_555
Ti3_0 Ti3_4 2.826374 1_455
Ti3_0 U4_4 3.066215 1_555
Ti3_0 U4_0 3.066377 1_555
Ti3_0 U8_0 3.092402 1_555
Ti3_0 U8_4 3.092587 1_555
Ti3_0 U9_2 3.106816 1_545
Ti3_0 U9_6 3.106832 1_545
Ti3_0 U9_4 3.108182 1_555
Ti3_0 U9_0 3.108353 1_555
Ti3_0 U3_2 3.121907 1_545
Ti3_0 U3_6 3.122031 1_545
Ti3_0 U3_4 3.122848 1_555
Ti3_0 U3_0 3.122910 1_555
Ti3_1 Ti3_5 2.826374 1_455
Ti3_1 Ti3_5 2.826374 1_555
Ti3_1 U4_5 3.066215 1_555
Ti3_1 U4_1 3.066377 1_555
Ti3_1 U8_1 3.092402 1_555
Ti3_1 U8_5 3.092587 1_555
Ti3_1 U9_3 3.106816 1_545
Ti3_1 U9_7 3.106832 1_545
Ti3_1 U9_5 3.108182 1_555
Ti3_1 U9_1 3.108353 1_555
Ti3_1 U3_3 3.121907 1_545
Ti3_1 U3_7 3.122031 1_545
Ti3_1 U3_5 3.122848 1_555
Ti3_1 U3_1 3.122910 1_555
Ti3_2 Ti3_6 2.826374 1_455
Ti3_2 Ti3_6 2.826374 1_555
Ti3_2 U4_6 3.066215 1_555
Ti3_2 U4_2 3.066377 1_555
Ti3_2 U8_2 3.092402 1_555
Ti3_2 U8_6 3.092587 1_555
Ti3_2 U9_0 3.106816 1_555
Ti3_2 U9_4 3.106832 1_555
Ti3_2 U9_6 3.108182 1_555
Ti3_2 U9_2 3.108353 1_555
Ti3_2 U3_0 3.121907 1_555
Ti3_2 U3_4 3.122031 1_555
Ti3_2 U3_6 3.122848 1_555
Ti3_2 U3_2 3.122910 1_555
Ti3_3 Ti3_7 2.826374 1_555
Ti3_3 Ti3_7 2.826374 1_455
Ti3_3 U4_7 3.066215 1_555
Ti3_3 U4_3 3.066377 1_555
Ti3_3 U8_3 3.092402 1_555
Ti3_3 U8_7 3.092587 1_555
Ti3_3 U9_1 3.106816 1_555
Ti3_3 U9_5 3.106832 1_555
Ti3_3 U9_7 3.108182 1_555
Ti3_3 U9_3 3.108353 1_555
Ti3_3 U3_1 3.121907 1_555
Ti3_3 U3_5 3.122031 1_555
Ti3_3 U3_7 3.122848 1_555
Ti3_3 U3_3 3.122910 1_555
Ti3_4 U4_0 3.066215 1_655
Ti3_4 U4_4 3.066377 1_555
Ti3_4 U8_4 3.092402 1_555
Ti3_4 U8_0 3.092587 1_655
Ti3_4 U9_6 3.106816 1_545
Ti3_4 U9_2 3.106832 1_645
Ti3_4 U9_0 3.108182 1_655
Ti3_4 U9_4 3.108353 1_555
Ti3_4 U3_6 3.121907 1_545
Ti3_4 U3_2 3.122031 1_645
Ti3_4 U3_0 3.122848 1_655
Ti3_4 U3_4 3.122910 1_555
Ti3_5 U4_1 3.066215 1_655
Ti3_5 U4_5 3.066377 1_555
Ti3_5 U8_5 3.092402 1_555
Ti3_5 U8_1 3.092587 1_655
Ti3_5 U9_7 3.106816 1_545
Ti3_5 U9_3 3.106832 1_645
Ti3_5 U9_1 3.108182 1_655
Ti3_5 U9_5 3.108353 1_555
Ti3_5 U3_7 3.121907 1_545
Ti3_5 U3_3 3.122031 1_645
Ti3_5 U3_1 3.122848 1_655
Ti3_5 U3_5 3.122910 1_555
Ti3_6 U4_2 3.066215 1_655
Ti3_6 U4_6 3.066377 1_555
Ti3_6 U8_6 3.092402 1_555
Ti3_6 U8_2 3.092587 1_655
Ti3_6 U9_4 3.106816 1_555
Ti3_6 U9_0 3.106832 1_655
Ti3_6 U9_2 3.108182 1_655
Ti3_6 U9_6 3.108353 1_555
Ti3_6 U3_4 3.121907 1_555
Ti3_6 U3_0 3.122031 1_655
Ti3_6 U3_2 3.122848 1_655
Ti3_6 U3_6 3.122910 1_555
Ti3_7 U4_3 3.066215 1_655
Ti3_7 U4_7 3.066377 1_555
Ti3_7 U8_7 3.092402 1_555
Ti3_7 U8_3 3.092587 1_655
Ti3_7 U9_5 3.106816 1_555
Ti3_7 U9_1 3.106832 1_655
Ti3_7 U9_3 3.108182 1_655
Ti3_7 U9_7 3.108353 1_555
Ti3_7 U3_5 3.121907 1_555
Ti3_7 U3_1 3.122031 1_655
Ti3_7 U3_3 3.122848 1_655
Ti3_7 U3_7 3.122910 1_555
