# generated using pymatgen
data_Mg(AgO2)2
_symmetry_space_group_name_H-M   'P 1'
_cell_length_a   6.38438227
_cell_length_b   6.38438227
_cell_length_c   6.38438227
_cell_angle_alpha   60.00000000
_cell_angle_beta   60.00000000
_cell_angle_gamma   60.00000000
_symmetry_Int_Tables_number   1
_chemical_formula_structural   Mg(AgO2)2
_chemical_formula_sum   'Mg2 Ag4 O8'
_cell_volume   184.01009589
_cell_formula_units_Z   2
loop_
 _symmetry_equiv_pos_site_id
 _symmetry_equiv_pos_as_xyz
  1  'x, y, z'
loop_
 _atom_site_type_symbol
 _atom_site_label
 _atom_site_symmetry_multiplicity
 _atom_site_fract_x
 _atom_site_fract_y
 _atom_site_fract_z
 _atom_site_occupancy
  Mg  Mg0  1  0.75000000  0.75000000  0.75000000  1
  Mg  Mg1  1  0.50000000  0.50000000  0.50000000  1
  Ag  Ag0  1  0.12500000  0.12500000  0.62500000  1
  Ag  Ag1  1  0.62500000  0.12500000  0.12500000  1
  Ag  Ag2  1  0.12500000  0.12500000  0.12500000  1
  Ag  Ag3  1  0.12500000  0.62500000  0.12500000  1
  O  O0  1  0.88685100  0.37105000  0.37105000  1
  O  O1  1  0.37105000  0.37105000  0.88685100  1
  O  O2  1  0.37105000  0.37105000  0.37105000  1
  O  O3  1  0.36314900  0.87895000  0.87895000  1
  O  O4  1  0.87895000  0.36314900  0.87895000  1
  O  O5  1  0.87895000  0.87895000  0.36314900  1
  O  O6  1  0.37105000  0.88685100  0.37105000  1
  O  O7  1  0.87895000  0.87895000  0.87895000  1
loop_
_geom_bond_atom_site_label_1
_geom_bond_atom_site_label_2
_geom_bond_distance
_geom_bond_site_symmetry_2
Mg0 O7 2.016582 1_555
Mg0 O5 2.016587 1_555
Mg0 O3 2.016587 1_555
Mg0 O4 2.016587 1_555
Mg1 O2 2.016582 1_555
Mg1 O6 2.016587 1_555
Mg1 O1 2.016587 1_555
Mg1 O0 2.016587 1_555
Ag0 O3 2.222124 1_545
Ag0 O6 2.222124 1_545
Ag0 O0 2.222124 1_455
Ag0 O4 2.222124 1_455
Ag0 O2 2.222128 1_555
Ag0 O7 2.222128 1_445
Ag1 O1 2.222124 1_554
Ag1 O6 2.222124 1_545
Ag1 O4 2.222124 1_554
Ag1 O5 2.222124 1_545
Ag1 O2 2.222128 1_555
Ag1 O7 2.222128 1_544
Ag2 O3 2.222129 1_544
Ag2 O0 2.222129 1_455
Ag2 O5 2.222129 1_445
Ag2 O4 2.222129 1_454
Ag2 O6 2.222129 1_545
Ag2 O1 2.222129 1_554
Ag3 O5 2.222124 1_455
Ag3 O1 2.222124 1_554
Ag3 O0 2.222124 1_455
Ag3 O3 2.222124 1_554
Ag3 O2 2.222128 1_555
Ag3 O7 2.222128 1_454
