# generated using pymatgen
data_FeNiPt2
_symmetry_space_group_name_H-M   'P 1'
_cell_length_a   3.85791340
_cell_length_b   3.85791340
_cell_length_c   3.63962714
_cell_angle_alpha   90.00000000
_cell_angle_beta   90.00000000
_cell_angle_gamma   90.00000000
_symmetry_Int_Tables_number   1
_chemical_formula_structural   FeNiPt2
_chemical_formula_sum   'Fe1 Ni1 Pt2'
_cell_volume   54.17037526
_cell_formula_units_Z   1
loop_
 _symmetry_equiv_pos_site_id
 _symmetry_equiv_pos_as_xyz
  1  'x, y, z'
loop_
 _atom_site_type_symbol
 _atom_site_label
 _atom_site_symmetry_multiplicity
 _atom_site_fract_x
 _atom_site_fract_y
 _atom_site_fract_z
 _atom_site_occupancy
  Fe  Fe0  1  0.00000000  -0.00000000  -0.00000000  1
  Ni  Ni0  1  0.50000000  0.50000000  0.00000000  1
  Pt  Pt0  1  0.50000000  -0.00000000  0.50000000  1
  Pt  Pt1  1  0.00000000  0.50000000  0.50000000  1
loop_
_geom_bond_atom_site_label_1
_geom_bond_atom_site_label_2
_geom_bond_distance
_geom_bond_site_symmetry_2
Fe0 Pt1 2.651904 1_555
Fe0 Pt1 2.651904 1_544
Fe0 Pt0 2.651904 1_455
Fe0 Pt1 2.651904 1_545
Fe0 Pt0 2.651904 1_555
Fe0 Pt0 2.651904 1_554
Fe0 Pt1 2.651904 1_554
Fe0 Pt0 2.651904 1_454
Fe0 Ni0 2.727957 1_445
Fe0 Ni0 2.727957 1_545
Fe0 Ni0 2.727957 1_455
Fe0 Ni0 2.727957 1_555
Ni0 Pt1 2.651904 1_555
Ni0 Pt1 2.651904 1_655
Ni0 Pt1 2.651904 1_654
Ni0 Pt0 2.651904 1_555
Ni0 Pt0 2.651904 1_554
Ni0 Pt1 2.651904 1_554
Ni0 Pt0 2.651904 1_565
Ni0 Pt0 2.651904 1_564
Pt0 Pt1 2.727957 1_645
Pt0 Pt1 2.727957 1_655
Pt0 Pt1 2.727957 1_555
Pt0 Pt1 2.727957 1_545
