# generated using pymatgen
data_YMg14Cr
_symmetry_space_group_name_H-M   'P 1'
_cell_length_a   6.43023377
_cell_length_b   6.43023324
_cell_length_c   10.33570366
_cell_angle_alpha   90.00000000
_cell_angle_beta   90.00000000
_cell_angle_gamma   120.00000279
_symmetry_Int_Tables_number   1
_chemical_formula_structural   YMg14Cr
_chemical_formula_sum   'Y1 Mg14 Cr1'
_cell_volume   370.10432168
_cell_formula_units_Z   1
loop_
 _symmetry_equiv_pos_site_id
 _symmetry_equiv_pos_as_xyz
  1  'x, y, z'
loop_
 _atom_site_type_symbol
 _atom_site_label
 _atom_site_symmetry_multiplicity
 _atom_site_fract_x
 _atom_site_fract_y
 _atom_site_fract_z
 _atom_site_occupancy
  Y  Y0  1  0.16666700  0.33333300  0.12500000  1
  Mg  Mg0  1  0.17629258  0.83814579  0.12500000  1
  Mg  Mg1  1  0.16627051  0.83313476  0.62500000  1
  Mg  Mg2  1  0.66185421  0.32370742  0.12500000  1
  Mg  Mg3  1  0.66686524  0.33372949  0.62500000  1
  Mg  Mg4  1  0.66185421  0.83814579  0.12500000  1
  Mg  Mg5  1  0.66686524  0.83313476  0.62500000  1
  Mg  Mg6  1  0.33158724  0.16841276  0.38317403  1
  Mg  Mg7  1  0.33158724  0.16841276  0.86682597  1
  Mg  Mg8  1  0.33158724  0.66317548  0.38317403  1
  Mg  Mg9  1  0.33158724  0.66317548  0.86682597  1
  Mg  Mg10  1  0.83682452  0.16841276  0.38317403  1
  Mg  Mg11  1  0.83682452  0.16841276  0.86682597  1
  Mg  Mg12  1  0.83333300  0.66666700  0.37043042  1
  Mg  Mg13  1  0.83333300  0.66666700  0.87956958  1
  Cr  Cr0  1  0.16666700  0.33333300  0.62500000  1
loop_
_geom_bond_atom_site_label_1
_geom_bond_atom_site_label_2
_geom_bond_distance
_geom_bond_site_symmetry_2
Mg0 Mg2 3.122275 1_565
Mg0 Mg4 3.122275 1_555
Mg0 Mg12 3.175275 1_455
Mg0 Mg13 3.175275 1_454
Mg0 Y0 3.215563 1_555
Mg0 Y0 3.215563 1_565
Mg0 Mg8 3.241440 1_555
Mg0 Mg9 3.241440 1_554
Mg0 Mg6 3.241446 1_565
Mg0 Mg7 3.241446 1_564
Mg0 Mg2 3.307959 1_455
Mg0 Mg4 3.307959 1_455
Mg1 Mg9 3.119835 1_555
Mg1 Mg8 3.119835 1_555
Mg1 Mg7 3.119841 1_565
Mg1 Mg6 3.119841 1_565
Mg1 Mg3 3.211292 1_455
Mg1 Mg5 3.211293 1_455
Mg1 Mg13 3.218767 1_455
Mg1 Mg12 3.218767 1_455
Mg1 Mg3 3.218941 1_565
Mg1 Mg5 3.218941 1_555
Mg2 Mg4 3.122275 1_545
Mg2 Y0 3.215564 1_655
Mg2 Y0 3.215564 1_555
Mg2 Mg6 3.241446 1_555
Mg2 Mg7 3.241446 1_554
Mg2 Mg4 3.307959 1_555
Mg3 Mg7 3.119842 1_555
Mg3 Mg6 3.119842 1_555
Mg3 Mg5 3.211292 1_555
Mg3 Mg5 3.218941 1_545
Mg4 Y0 3.215563 1_555
Mg4 Y0 3.215563 1_665
Mg4 Mg8 3.241446 1_555
Mg4 Mg9 3.241446 1_554
Mg5 Mg9 3.119841 1_555
Mg5 Mg8 3.119841 1_555
Mg6 Mg8 3.181440 1_555
Mg6 Y0 3.239481 1_555
Mg6 Mg8 3.248794 1_545
Mg7 Mg9 3.181440 1_555
Mg7 Y0 3.239481 1_556
Mg7 Mg9 3.248794 1_545
Mg8 Y0 3.239488 1_555
Mg9 Y0 3.239488 1_556
Mg10 Mg3 3.119835 1_555
Mg10 Mg5 3.119841 1_545
Mg10 Mg8 3.181440 1_655
Mg10 Mg6 3.181440 1_655
Mg10 Mg12 3.217872 1_545
Mg10 Mg12 3.217872 1_555
Mg10 Y0 3.239488 1_655
Mg10 Mg2 3.241440 1_555
Mg10 Mg4 3.241446 1_545
Mg10 Mg8 3.248794 1_545
Mg10 Mg6 3.248794 1_555
Mg11 Mg3 3.119835 1_555
Mg11 Mg5 3.119841 1_545
Mg11 Mg9 3.181440 1_655
Mg11 Mg7 3.181440 1_655
Mg11 Mg13 3.217872 1_545
Mg11 Mg13 3.217872 1_555
Mg11 Y0 3.239488 1_656
Mg11 Mg2 3.241440 1_556
Mg11 Mg4 3.241446 1_546
Mg11 Mg9 3.248794 1_545
Mg11 Mg7 3.248794 1_555
Mg12 Mg4 3.175268 1_555
Mg12 Mg2 3.175275 1_555
Mg12 Mg6 3.217872 1_665
Mg12 Mg6 3.217872 1_555
Mg12 Mg8 3.217872 1_555
Mg12 Mg8 3.217872 1_655
Mg12 Mg5 3.218761 1_555
Mg12 Mg3 3.218767 1_555
Mg13 Mg4 3.175268 1_556
Mg13 Mg2 3.175275 1_556
Mg13 Mg7 3.217872 1_665
Mg13 Mg7 3.217872 1_555
Mg13 Mg9 3.217872 1_555
Mg13 Mg9 3.217872 1_655
Mg13 Mg5 3.218761 1_555
Mg13 Mg3 3.218767 1_555
Cr0 Mg7 3.101779 1_555
Cr0 Mg6 3.101779 1_555
Cr0 Mg9 3.101786 1_555
Cr0 Mg8 3.101786 1_555
Cr0 Mg11 3.101786 1_455
Cr0 Mg10 3.101786 1_455
Cr0 Mg1 3.215117 1_545
Cr0 Mg5 3.215117 1_445
Cr0 Mg5 3.215117 1_555
Cr0 Mg1 3.215117 1_555
Cr0 Mg3 3.215118 1_555
Cr0 Mg3 3.215118 1_455
