# generated using pymatgen
data_AgSb2F12
_symmetry_space_group_name_H-M   'P 1'
_cell_length_a   5.10237038
_cell_length_b   5.41949407
_cell_length_c   8.58171227
_cell_angle_alpha   76.38617937
_cell_angle_beta   89.18491701
_cell_angle_gamma   66.62457252
_symmetry_Int_Tables_number   1
_chemical_formula_structural   AgSb2F12
_chemical_formula_sum   'Ag1 Sb2 F12'
_cell_volume   210.87195923
_cell_formula_units_Z   1
loop_
 _symmetry_equiv_pos_site_id
 _symmetry_equiv_pos_as_xyz
  1  'x, y, z'
loop_
 _atom_site_type_symbol
 _atom_site_label
 _atom_site_symmetry_multiplicity
 _atom_site_fract_x
 _atom_site_fract_y
 _atom_site_fract_z
 _atom_site_occupancy
  Ag  Ag0  1  0.50000000  0.50000000  0.50000000  1
  Sb  Sb0  1  0.73529313  0.01867847  0.22827865  1
  Sb  Sb1  1  0.26470687  0.98132153  0.77172135  1
  F  F0  1  0.20576407  0.76726029  0.62974435  1
  F  F1  1  0.79423593  0.23273871  0.37025565  1
  F  F2  1  0.65512459  0.76249432  0.77266711  1
  F  F3  1  0.67924326  0.77105305  0.12807058  1
  F  F4  1  0.32075674  0.22894695  0.87192942  1
  F  F5  1  0.13291489  0.79786088  0.27981647  1
  F  F6  1  0.86708511  0.20213912  0.72018353  1
  F  F7  1  0.70118671  0.77882863  0.43429879  1
  F  F8  1  0.29881229  0.22117137  0.56570121  1
  F  F9  1  0.79920672  0.24721612  0.04776451  1
  F  F10  1  0.20079328  0.75278388  0.95223549  1
  F  F11  1  0.34487541  0.23750568  0.22733289  1
loop_
_geom_bond_atom_site_label_1
_geom_bond_atom_site_label_2
_geom_bond_distance
_geom_bond_site_symmetry_2
Ag0 F7 2.113872 1_555
Ag0 F8 2.113876 1_555
Ag0 F0 2.139550 1_555
Ag0 F1 2.139553 1_555
Ag0 F6 2.439259 1_555
Ag0 F5 2.439259 1_555
F0 Sb1 1.968116 1_555
F1 Sb0 1.968112 1_555
F2 Sb1 1.869786 1_555
F3 Sb0 1.864702 1_565
F4 Sb1 1.864702 1_545
F5 Sb0 1.895686 1_465
F6 Sb1 1.895686 1_645
F7 Sb0 1.983595 1_565
F8 Sb1 1.983594 1_545
F9 Sb0 1.855548 1_555
F10 Sb1 1.855548 1_555
F11 Sb0 1.869786 1_555
