# generated using pymatgen
data_Al2H15SClO13
_symmetry_space_group_name_H-M   'P 1'
_cell_length_a   7.56605296
_cell_length_b   9.74295005
_cell_length_c   10.19128401
_cell_angle_alpha   117.50327568
_cell_angle_beta   110.50780854
_cell_angle_gamma   92.50202040
_symmetry_Int_Tables_number   1
_chemical_formula_structural   Al2H15SClO13
_chemical_formula_sum   'Al4 H30 S2 Cl2 O26'
_cell_volume   604.73921537
_cell_formula_units_Z   2
loop_
 _symmetry_equiv_pos_site_id
 _symmetry_equiv_pos_as_xyz
  1  'x, y, z'
loop_
 _atom_site_type_symbol
 _atom_site_label
 _atom_site_symmetry_multiplicity
 _atom_site_fract_x
 _atom_site_fract_y
 _atom_site_fract_z
 _atom_site_occupancy
  Al  Al0  1  0.11023700  0.50881200  0.65637700  1
  Al  Al1  1  0.04614000  0.14756500  0.65637700  1
  Al  Al2  1  0.88976300  0.49118800  0.34362300  1
  Al  Al3  1  0.95386000  0.85243500  0.34362300  1
  H  H0  1  0.27241100  0.76540900  0.93973200  1
  H  H1  1  0.16732100  0.17432300  0.93973200  1
  H  H2  1  0.72758900  0.23459100  0.06026800  1
  H  H3  1  0.83267900  0.82567700  0.06026800  1
  H  H4  1  0.31157200  0.35973400  0.49540900  1
  H  H5  1  0.68383700  0.13567500  0.49540900  1
  H  H6  1  0.68842800  0.64026600  0.50459100  1
  H  H7  1  0.31616300  0.86432500  0.50459100  1
  H  H8  1  0.17894900  0.42894900  0.85789900  1
  H  H9  1  0.82105100  0.57105100  0.14210100  1
  H  H10  1  0.44394400  0.44532200  0.68622300  1
  H  H11  1  0.74228000  0.24090100  0.68622300  1
  H  H12  1  0.55605600  0.55467800  0.31377700  1
  H  H13  1  0.25772000  0.75909900  0.31377700  1
  H  H14  1  0.86258100  0.67599300  0.73777800  1
  H  H15  1  0.37519700  0.06178600  0.73777800  1
  H  H16  1  0.13741900  0.32400700  0.26222200  1
  H  H17  1  0.62480300  0.93821400  0.26222200  1
  H  H18  1  0.85184300  0.53520200  0.77973300  1
  H  H19  1  0.42789000  0.24453100  0.77973300  1
  H  H20  1  0.14815700  0.46479800  0.22026700  1
  H  H21  1  0.57211000  0.75546900  0.22026700  1
  H  H22  1  0.82914700  0.27330000  0.40390000  1
  H  H23  1  0.07475300  0.13060000  0.40390000  1
  H  H24  1  0.17085300  0.72670000  0.59610000  1
  H  H25  1  0.92524700  0.86940000  0.59610000  1
  H  H26  1  0.43233300  0.73328600  0.86580100  1
  H  H27  1  0.93346800  0.13251500  0.86580100  1
  H  H28  1  0.56766700  0.26671400  0.13419900  1
  H  H29  1  0.06653200  0.86748500  0.13419900  1
  S  S0  1  0.35211400  0.10211400  0.20422800  1
  S  S1  1  0.64788600  0.89788600  0.79577200  1
  Cl  Cl0  1  0.32806600  0.57806600  0.15613300  1
  Cl  Cl1  1  0.67193400  0.42193400  0.84386700  1
  O  O0  1  0.93053500  0.36478300  0.44235700  1
  O  O1  1  0.01182200  0.07757400  0.44235700  1
  O  O2  1  0.06946500  0.63521700  0.55764300  1
  O  O3  1  0.98817800  0.92242600  0.55764300  1
  O  O4  1  0.30786100  0.68148500  0.85781700  1
  O  O5  1  0.04995600  0.17633200  0.85781700  1
  O  O6  1  0.69213900  0.31851500  0.14218300  1
  O  O7  1  0.95004400  0.82366800  0.14218300  1
  O  O8  1  0.33040000  0.45105900  0.60263300  1
  O  O9  1  0.77223300  0.15157400  0.60263300  1
  O  O10  1  0.66960000  0.54894100  0.39736700  1
  O  O11  1  0.22776700  0.84842600  0.39736700  1
  O  O12  1  0.11917200  0.36917200  0.73834300  1
  O  O13  1  0.88082800  0.63082800  0.26165700  1
  O  O14  1  0.55527000  0.11174000  0.30911000  1
  O  O15  1  0.25384100  0.19737000  0.30911000  1
  O  O16  1  0.44473000  0.88826000  0.69089000  1
  O  O17  1  0.74615900  0.80263000  0.69089000  1
  O  O18  1  0.92662000  0.59231600  0.74928600  1
  O  O19  1  0.32266600  0.15697000  0.74928600  1
  O  O20  1  0.07338000  0.40768400  0.25071400  1
  O  O21  1  0.67733400  0.84303000  0.25071400  1
  O  O22  1  0.23831600  0.93253600  0.10082000  1
  O  O23  1  0.36250400  0.16828400  0.10082000  1
  O  O24  1  0.76168400  0.06746400  0.89918000  1
  O  O25  1  0.63749600  0.83171600  0.89918000  1
loop_
_geom_bond_atom_site_label_1
_geom_bond_atom_site_label_2
_geom_bond_distance
_geom_bond_site_symmetry_2
Al0 O0 1.871844 1_455
Al0 O12 1.889829 1_555
Al0 O2 1.893308 1_555
Al0 O4 1.928797 1_555
Al0 O18 1.948683 1_455
Al0 O8 1.956488 1_555
Al1 O1 1.871844 1_555
Al1 O12 1.889839 1_555
Al1 O3 1.893308 1_445
Al1 O5 1.928796 1_555
Al1 O19 1.948683 1_555
Al1 O9 1.956488 1_455
Al2 O2 1.871844 1_655
Al2 O13 1.889829 1_555
Al2 O0 1.893308 1_555
Al2 O6 1.928797 1_555
Al2 O20 1.948683 1_655
Al2 O10 1.956488 1_555
Al3 O3 1.871844 1_555
Al3 O13 1.889839 1_555
Al3 O1 1.893308 1_665
Al3 O7 1.928796 1_555
Al3 O21 1.948683 1_555
Al3 O11 1.956488 1_655
H0 O4 0.991477 1_555
H1 O5 0.991477 1_555
H2 O6 0.991477 1_555
H3 O7 0.991477 1_555
H4 O8 0.993953 1_555
H4 O15 1.697826 1_555
H5 O9 0.993953 1_555
H5 O14 1.697825 1_555
H6 O10 0.993953 1_555
H6 O17 1.697826 1_555
H7 O11 0.993953 1_555
H7 O16 1.697825 1_555
H8 O12 0.981734 1_555
H9 O13 0.981734 1_555
H10 O8 1.001124 1_555
H11 O9 1.001120 1_555
H12 O10 1.001124 1_555
H13 O11 1.001120 1_555
H14 O18 0.998073 1_555
H14 O17 1.694418 1_555
H15 O19 0.998064 1_555
H15 O16 1.694423 1_545
H16 O20 0.998073 1_555
H16 O15 1.694418 1_555
H17 O21 0.998064 1_555
H17 O14 1.694423 1_565
H18 O18 0.990461 1_555
H19 O19 0.990461 1_555
H20 O20 0.990461 1_555
H21 O21 0.990461 1_555
H22 O0 0.971343 1_555
H23 O1 0.971343 1_555
H24 O2 0.971343 1_555
H25 O3 0.971343 1_555
H26 O4 1.007539 1_555
H26 O25 1.625944 1_555
H27 O5 1.007539 1_655
H27 O24 1.625944 1_555
H28 O6 1.007539 1_555
H28 O23 1.625944 1_555
H29 O7 1.007539 1_455
H29 O22 1.625944 1_555
Cl0 H12 2.009796 1_555
Cl0 H13 2.009801 1_555
Cl1 H10 2.009796 1_555
Cl1 H11 2.009801 1_555
O14 S0 1.502530 1_555
O15 S0 1.502524 1_555
O16 S1 1.502530 1_555
O17 S1 1.502524 1_555
O22 S0 1.487803 1_565
O23 S0 1.487802 1_555
O24 S1 1.487803 1_545
O25 S1 1.487802 1_555
