# generated using pymatgen
data_Bi3Pd8
_symmetry_space_group_name_H-M   'P 1'
_cell_length_a   15.29084284
_cell_length_b   15.29084284
_cell_length_c   15.29084289
_cell_angle_alpha   30.25208717
_cell_angle_beta   30.25208717
_cell_angle_gamma   30.25209100
_symmetry_Int_Tables_number   1
_chemical_formula_structural   Bi3Pd8
_chemical_formula_sum   'Bi12 Pd32'
_cell_volume   804.09949658
_cell_formula_units_Z   4
loop_
 _symmetry_equiv_pos_site_id
 _symmetry_equiv_pos_as_xyz
  1  'x, y, z'
loop_
 _atom_site_type_symbol
 _atom_site_label
 _atom_site_symmetry_multiplicity
 _atom_site_fract_x
 _atom_site_fract_y
 _atom_site_fract_z
 _atom_site_occupancy
  Bi  Bi0  1  0.99238700  0.36154200  0.66455200  1
  Bi  Bi1  1  0.66455200  0.99238700  0.36154200  1
  Bi  Bi2  1  0.36154200  0.66455200  0.99238700  1
  Bi  Bi3  1  0.49306900  0.16219500  0.86169900  1
  Bi  Bi4  1  0.86169900  0.49306900  0.16219500  1
  Bi  Bi5  1  0.16219500  0.86169900  0.49306900  1
  Bi  Bi6  1  0.07497500  0.07497500  0.07497500  1
  Bi  Bi7  1  0.26845100  0.26845100  0.26845100  1
  Bi  Bi8  1  0.42840500  0.42840500  0.42840500  1
  Bi  Bi9  1  0.57536800  0.57536800  0.57536800  1
  Bi  Bi10  1  0.76988800  0.76988800  0.76988800  1
  Bi  Bi11  1  0.92716400  0.92716400  0.92716400  1
  Pd  Pd0  1  0.04076400  0.74528900  0.33125300  1
  Pd  Pd1  1  0.33125300  0.04076400  0.74528900  1
  Pd  Pd2  1  0.74528900  0.33125300  0.04076400  1
  Pd  Pd3  1  0.54175900  0.83173300  0.24472700  1
  Pd  Pd4  1  0.24472700  0.54175900  0.83173300  1
  Pd  Pd5  1  0.83173300  0.24472700  0.54175900  1
  Pd  Pd6  1  0.06905600  0.43716200  0.70836800  1
  Pd  Pd7  1  0.70836800  0.06905600  0.43716200  1
  Pd  Pd8  1  0.43716200  0.70836800  0.06905600  1
  Pd  Pd9  1  0.56744300  0.20966400  0.93730000  1
  Pd  Pd10  1  0.93730000  0.56744300  0.20966400  1
  Pd  Pd11  1  0.20966400  0.93730000  0.56744300  1
  Pd  Pd12  1  0.11396600  0.79324500  0.41046600  1
  Pd  Pd13  1  0.41046600  0.11396600  0.79324500  1
  Pd  Pd14  1  0.79324500  0.41046600  0.11396600  1
  Pd  Pd15  1  0.61971800  0.90812300  0.29188900  1
  Pd  Pd16  1  0.29188900  0.61971800  0.90812300  1
  Pd  Pd17  1  0.90812300  0.29188900  0.61971800  1
  Pd  Pd18  1  0.11673400  0.50739100  0.79171700  1
  Pd  Pd19  1  0.79171700  0.11673400  0.50739100  1
  Pd  Pd20  1  0.50739100  0.79171700  0.11673400  1
  Pd  Pd21  1  0.60629800  0.29428900  0.01671100  1
  Pd  Pd22  1  0.01671100  0.60629800  0.29428900  1
  Pd  Pd23  1  0.29428900  0.01671100  0.60629800  1
  Pd  Pd24  1  0.13917700  0.13917700  0.13917700  1
  Pd  Pd25  1  0.20563100  0.20563100  0.20563100  1
  Pd  Pd26  1  0.36229500  0.36229500  0.36229500  1
  Pd  Pd27  1  0.49375500  0.49375500  0.49375500  1
  Pd  Pd28  1  0.63996300  0.63996300  0.63996300  1
  Pd  Pd29  1  0.70699400  0.70699400  0.70699400  1
  Pd  Pd30  1  0.86170400  0.86170400  0.86170400  1
  Pd  Pd31  1  0.99172100  0.99172100  0.99172100  1
loop_
_geom_bond_atom_site_label_1
_geom_bond_atom_site_label_2
_geom_bond_distance
_geom_bond_site_symmetry_2
Bi0 Pd31 2.853425 1_545
Bi0 Pd6 2.863133 1_655
Bi0 Pd26 2.865461 1_655
Bi0 Pd22 2.891238 1_655
Bi0 Pd28 2.899214 1_555
Bi0 Pd17 2.902195 1_555
Bi0 Pd2 2.907311 1_556
Bi0 Pd29 2.927892 1_555
Bi0 Pd23 2.977263 1_655
Bi0 Pd1 3.018731 1_655
Bi0 Pd0 3.205171 1_655
Bi0 Pd21 3.302561 1_556
Bi1 Pd31 2.853425 1_554
Bi1 Pd7 2.863133 1_565
Bi1 Pd26 2.865461 1_565
Bi1 Pd23 2.891238 1_565
Bi1 Pd28 2.899214 1_555
Bi1 Pd15 2.902195 1_555
Bi1 Pd0 2.907311 1_655
Bi1 Pd29 2.927891 1_555
Bi1 Pd21 2.977263 1_565
Bi1 Pd2 3.018731 1_565
Bi1 Pd1 3.205171 1_565
Bi1 Pd22 3.302561 1_655
Bi2 Pd31 2.853426 1_455
Bi2 Pd8 2.863133 1_556
Bi2 Pd26 2.865461 1_556
Bi2 Pd21 2.891239 1_556
Bi2 Pd28 2.899214 1_555
Bi2 Pd16 2.902195 1_555
Bi2 Pd1 2.907311 1_565
Bi2 Pd29 2.927891 1_555
Bi2 Pd22 2.977263 1_556
Bi2 Pd0 3.018731 1_556
Bi2 Pd2 3.205171 1_556
Bi2 Pd23 3.302561 1_565
Bi3 Pd27 2.840499 1_555
Bi3 Pd30 2.853066 1_545
Bi3 Pd9 2.881570 1_555
Bi3 Pd24 2.907401 1_556
Bi3 Pd13 2.908901 1_555
Bi3 Pd25 2.911028 1_556
Bi3 Pd20 2.917716 1_546
Bi3 Pd4 2.941150 1_555
Bi3 Pd19 2.994672 1_555
Bi3 Pd5 3.032961 1_555
Bi3 Pd3 3.208553 1_546
Bi3 Pd18 3.244210 1_555
Bi4 Pd27 2.840499 1_555
Bi4 Pd30 2.853066 1_554
Bi4 Pd10 2.881570 1_555
Bi4 Pd24 2.907401 1_655
Bi4 Pd14 2.908901 1_555
Bi4 Pd25 2.911029 1_655
Bi4 Pd18 2.917716 1_654
Bi4 Pd5 2.941150 1_555
Bi4 Pd20 2.994672 1_555
Bi4 Pd3 3.032961 1_555
Bi4 Pd4 3.208553 1_654
Bi4 Pd19 3.244210 1_555
Bi5 Pd27 2.840500 1_555
Bi5 Pd30 2.853066 1_455
Bi5 Pd11 2.881570 1_555
Bi5 Pd24 2.907401 1_565
Bi5 Pd12 2.908901 1_555
Bi5 Pd25 2.911028 1_565
Bi5 Pd19 2.917716 1_465
Bi5 Pd3 2.941150 1_555
Bi5 Pd18 2.994672 1_555
Bi5 Pd4 3.032961 1_555
Bi5 Pd5 3.208553 1_465
Bi5 Pd20 3.244210 1_555
Bi6 Pd24 2.808237 1_555
Bi6 Pd13 2.810165 1_554
Bi6 Pd12 2.810165 1_545
Bi6 Pd14 2.810166 1_455
Bi6 Pd0 2.815773 1_545
Bi6 Pd1 2.815773 1_554
Bi6 Pd2 2.815773 1_455
Bi6 Pd7 2.911875 1_455
Bi6 Pd6 2.911875 1_554
Bi6 Pd8 2.911875 1_545
Bi7 Pd25 2.747787 1_555
Bi7 Pd11 2.849337 1_545
Bi7 Pd9 2.849337 1_554
Bi7 Pd10 2.849337 1_455
Bi7 Pd16 2.849937 1_554
Bi7 Pd17 2.849937 1_455
Bi7 Pd15 2.849937 1_545
Bi7 Pd21 2.864343 1_555
Bi7 Pd23 2.864343 1_555
Bi7 Pd22 2.864343 1_555
Bi8 Pd13 2.758538 1_555
Bi8 Pd14 2.758538 1_555
Bi8 Pd12 2.758538 1_555
Bi8 Pd8 2.759944 1_555
Bi8 Pd6 2.759944 1_555
Bi8 Pd7 2.759944 1_555
Bi8 Pd27 2.858451 1_555
Bi8 Pd26 2.891694 1_555
Bi8 Pd20 3.307684 1_555
Bi8 Pd18 3.307684 1_555
Bi8 Pd19 3.307684 1_555
Bi9 Pd15 2.813789 1_555
Bi9 Pd16 2.813789 1_555
Bi9 Pd17 2.813790 1_555
Bi9 Pd4 2.821410 1_555
Bi9 Pd3 2.821410 1_555
Bi9 Pd5 2.821410 1_555
Bi9 Pd28 2.825427 1_555
Bi9 Pd9 2.908437 1_555
Bi9 Pd10 2.908437 1_555
Bi9 Pd11 2.908437 1_555
Bi10 Pd29 2.751024 1_555
Bi10 Pd12 2.813061 1_655
Bi10 Pd14 2.813061 1_556
Bi10 Pd13 2.813061 1_565
Bi10 Pd19 2.883858 1_565
Bi10 Pd20 2.883858 1_556
Bi10 Pd18 2.883858 1_655
Bi10 Pd8 2.884628 1_556
Bi10 Pd7 2.884628 1_565
Bi10 Pd6 2.884628 1_655
Bi11 Pd15 2.748120 1_556
Bi11 Pd17 2.748120 1_565
Bi11 Pd16 2.748120 1_655
Bi11 Pd11 2.751999 1_655
Bi11 Pd10 2.751999 1_556
Bi11 Pd9 2.752000 1_565
Bi11 Pd31 2.823764 1_555
Bi11 Pd30 2.863262 1_555
Bi11 Pd23 3.398530 1_665
Bi11 Pd22 3.398530 1_656
Bi11 Pd21 3.398531 1_566
Pd0 Pd29 2.844629 1_455
Pd0 Pd26 2.860059 1_555
Pd0 Pd12 2.924448 1_555
Pd0 Pd22 2.959130 1_555
Pd0 Pd7 3.020629 1_465
Pd0 Pd8 3.024383 1_555
Pd0 Pd6 3.080279 1_555
Pd0 Pd31 3.124361 1_454
Pd1 Pd29 2.844630 1_545
Pd1 Pd26 2.860059 1_555
Pd1 Pd13 2.924448 1_555
Pd1 Pd23 2.959130 1_555
Pd1 Pd8 3.020628 1_546
Pd1 Pd6 3.024384 1_555
Pd1 Pd7 3.080279 1_555
Pd1 Pd31 3.124361 1_445
Pd2 Pd29 2.844629 1_554
Pd2 Pd26 2.860059 1_555
Pd2 Pd21 2.959130 1_555
Pd2 Pd6 3.020628 1_654
Pd2 Pd7 3.024383 1_555
Pd2 Pd8 3.080280 1_555
Pd2 Pd31 3.124361 1_544
Pd3 Pd30 2.860180 1_554
Pd3 Pd9 3.073576 1_564
Pd4 Pd9 3.008525 1_555
Pd5 Pd9 3.018848 1_555
Pd10 Pd25 2.895144 1_655
Pd10 Pd22 2.964944 1_655
Pd10 Pd5 3.008524 1_555
Pd10 Pd3 3.018848 1_555
Pd10 Pd4 3.073576 1_654
Pd11 Pd25 2.895143 1_565
Pd11 Pd23 2.964944 1_565
Pd11 Pd3 3.008525 1_555
Pd11 Pd4 3.018848 1_555
Pd11 Pd5 3.073576 1_465
Pd12 Pd24 2.861436 1_565
Pd12 Pd19 2.980582 1_465
Pd12 Pd6 3.012259 1_555
Pd12 Pd18 3.029264 1_555
Pd12 Pd8 3.068098 1_555
Pd12 Pd20 3.101926 1_555
Pd12 Pd7 3.135203 1_465
Pd13 Pd24 2.861436 1_556
Pd13 Pd20 2.980582 1_546
Pd13 Pd7 3.012259 1_555
Pd13 Pd19 3.029264 1_555
Pd13 Pd6 3.068098 1_555
Pd13 Pd18 3.101926 1_555
Pd13 Pd8 3.135203 1_546
Pd14 Pd24 2.861437 1_655
Pd14 Pd2 2.924448 1_555
Pd14 Pd18 2.980582 1_654
Pd14 Pd8 3.012260 1_555
Pd14 Pd20 3.029264 1_555
Pd14 Pd7 3.068098 1_555
Pd14 Pd19 3.101926 1_555
Pd14 Pd6 3.135203 1_654
Pd15 Pd28 2.861213 1_555
Pd15 Pd3 2.941332 1_555
Pd15 Pd23 2.969468 1_565
Pd15 Pd21 3.014584 1_565
Pd15 Pd22 3.137151 1_655
Pd16 Pd28 2.861213 1_555
Pd16 Pd4 2.941332 1_555
Pd16 Pd21 2.969469 1_556
Pd16 Pd22 3.014584 1_556
Pd16 Pd23 3.137151 1_565
Pd17 Pd28 2.861213 1_555
Pd17 Pd5 2.941332 1_555
Pd17 Pd22 2.969468 1_655
Pd17 Pd23 3.014584 1_655
Pd17 Pd21 3.137151 1_556
Pd18 Pd24 2.859677 1_556
Pd18 Pd27 2.867626 1_555
Pd18 Pd6 2.937885 1_555
Pd18 Pd4 2.980294 1_555
Pd19 Pd24 2.859677 1_655
Pd19 Pd27 2.867626 1_555
Pd19 Pd7 2.937885 1_555
Pd19 Pd5 2.980294 1_555
Pd20 Pd24 2.859678 1_565
Pd20 Pd27 2.867626 1_555
Pd20 Pd8 2.937885 1_555
Pd20 Pd3 2.980294 1_555
Pd21 Pd31 2.888095 1_544
Pd21 Pd28 2.891642 1_554
Pd21 Pd9 2.964944 1_554
Pd21 Pd26 3.413835 1_555
Pd22 Pd31 2.888095 1_454
Pd22 Pd28 2.891642 1_455
Pd22 Pd26 3.413835 1_555
Pd23 Pd31 2.888095 1_445
Pd23 Pd28 2.891642 1_545
Pd23 Pd26 3.413834 1_555
Pd24 Pd25 2.906740 1_555
Pd25 Pd4 2.845667 1_554
Pd25 Pd5 2.845667 1_455
Pd25 Pd3 2.845667 1_545
Pd25 Pd9 2.895143 1_554
Pd26 Pd8 3.165996 1_555
Pd26 Pd6 3.165996 1_555
Pd26 Pd7 3.165996 1_555
Pd27 Pd3 3.077881 1_555
Pd27 Pd4 3.077881 1_555
Pd27 Pd5 3.077881 1_555
Pd28 Pd29 2.931979 1_555
Pd29 Pd7 2.874362 1_565
Pd29 Pd8 2.874362 1_556
Pd29 Pd6 2.874362 1_655
Pd30 Pd5 2.860180 1_565
Pd30 Pd4 2.860181 1_655
