# generated using pymatgen
data_Nd6Ti4Al43
_symmetry_space_group_name_H-M   'P 1'
_cell_length_a   11.07934009
_cell_length_b   11.07933671
_cell_length_c   18.00162822
_cell_angle_alpha   90.00008508
_cell_angle_beta   89.99977609
_cell_angle_gamma   120.00013794
_symmetry_Int_Tables_number   1
_chemical_formula_structural   Nd6Ti4Al43
_chemical_formula_sum   'Nd12 Ti8 Al86'
_cell_volume   1913.68067373
_cell_formula_units_Z   2
loop_
 _symmetry_equiv_pos_site_id
 _symmetry_equiv_pos_as_xyz
  1  'x, y, z'
loop_
 _atom_site_type_symbol
 _atom_site_label
 _atom_site_symmetry_multiplicity
 _atom_site_fract_x
 _atom_site_fract_y
 _atom_site_fract_z
 _atom_site_occupancy
  Nd  Nd0  1  0.52949222  -0.00000488  0.59613029  1
  Nd  Nd1  1  0.47050219  -0.00000127  0.40386277  1
  Nd  Nd2  1  0.00000282  0.52949730  0.59612909  1
  Nd  Nd3  1  0.47050173  -0.00000166  0.09614220  1
  Nd  Nd4  1  0.00000020  0.52949809  0.90386458  1
  Nd  Nd5  1  0.00000110  0.47050348  0.40386395  1
  Nd  Nd6  1  0.52949545  -0.00000137  0.90386421  1
  Nd  Nd7  1  -0.00000022  0.47050236  0.09614132  1
  Nd  Nd8  1  0.47050679  0.47050973  0.59612773  1
  Nd  Nd9  1  0.52950121  0.52950164  0.40386187  1
  Nd  Nd10  1  0.52949874  0.52950082  0.09614179  1
  Nd  Nd11  1  0.47050663  0.47050693  0.90386386  1
  Ti  Ti0  1  0.00000848  -0.00000804  0.49997917  1
  Ti  Ti1  1  0.00001373  -0.00000615  0.00002861  1
  Ti  Ti2  1  0.72836487  -0.00003291  0.74999556  1
  Ti  Ti3  1  0.27158345  -0.00003437  0.25000396  1
  Ti  Ti4  1  0.00003626  0.72840364  0.74999848  1
  Ti  Ti5  1  0.00003967  0.27163723  0.25000003  1
  Ti  Ti6  1  0.27160987  0.27161726  0.74999647  1
  Ti  Ti7  1  0.72838751  0.72838944  0.25000102  1
  Al  Al0  1  0.15384155  0.59930789  0.74999322  1
  Al  Al1  1  0.84614720  0.40068609  0.25000624  1
  Al  Al2  1  0.40068243  0.55454129  0.74999523  1
  Al  Al3  1  0.59930610  0.15383994  0.74999274  1
  Al  Al4  1  0.59932352  0.44547326  0.25000440  1
  Al  Al5  1  0.40068201  0.84614294  0.25000496  1
  Al  Al6  1  0.44546356  0.84615241  0.74999454  1
  Al  Al7  1  0.55454172  0.40069594  0.74999048  1
  Al  Al8  1  0.55453940  0.15386237  0.25000484  1
  Al  Al9  1  0.44545886  0.59931795  0.25000474  1
  Al  Al10  1  0.84615458  0.44546875  0.74999009  1
  Al  Al11  1  0.15384390  0.55453307  0.25000532  1
  Al  Al12  1  0.15457540  -0.00000054  0.11714234  1
  Al  Al13  1  0.84541639  0.00000660  0.88285238  1
  Al  Al14  1  -0.00000386  0.15458329  0.11714848  1
  Al  Al15  1  0.84540419  -0.00000056  0.61714118  1
  Al  Al16  1  -0.00000244  0.15459754  0.38285575  1
  Al  Al17  1  -0.00000243  0.84541403  0.88285325  1
  Al  Al18  1  0.15459387  0.00000019  0.38285738  1
  Al  Al19  1  -0.00000003  0.84540569  0.61714438  1
  Al  Al20  1  0.84541781  0.84541558  0.11714926  1
  Al  Al21  1  0.15457823  0.15457662  0.88285463  1
  Al  Al22  1  0.15460062  0.15459929  0.61714289  1
  Al  Al23  1  0.84540062  0.84539920  0.38285600  1
  Al  Al24  1  0.24742868  0.49486112  0.49999984  1
  Al  Al25  1  0.75256851  0.50513999  0.49999832  1
  Al  Al26  1  0.50513342  0.75256618  0.49999351  1
  Al  Al27  1  0.75256706  0.50513211  0.00000367  1
  Al  Al28  1  0.49487046  0.24743352  0.00000523  1
  Al  Al29  1  0.49485949  0.24742905  0.50000052  1
  Al  Al30  1  0.24743342  0.49487119  0.00000575  1
  Al  Al31  1  0.50512932  0.75256403  0.00000516  1
  Al  Al32  1  0.24743053  0.75256954  0.49999775  1
  Al  Al33  1  0.75256859  0.24743082  0.49999773  1
  Al  Al34  1  0.75256727  0.24743636  0.00000433  1
  Al  Al35  1  0.24743286  0.75256473  0.00000428  1
  Al  Al36  1  0.14572716  -0.00000992  0.74999052  1
  Al  Al37  1  0.85426586  -0.00000298  0.25001061  1
  Al  Al38  1  0.00000095  0.14573479  0.74998963  1
  Al  Al39  1  0.00000034  0.85426689  0.25001158  1
  Al  Al40  1  0.85426668  0.85426548  0.74999122  1
  Al  Al41  1  0.14572965  0.14573502  0.25001112  1
  Al  Al42  1  0.33333333  0.66666818  0.62609921  1
  Al  Al43  1  0.66666877  0.33333657  0.37389583  1
  Al  Al44  1  0.66666966  0.33333551  0.12611884  1
  Al  Al45  1  0.66667047  0.33333581  0.87388430  1
  Al  Al46  1  0.33333124  0.66666810  0.87388613  1
  Al  Al47  1  0.33333269  0.66666603  0.12611971  1
  Al  Al48  1  0.33333392  0.66666512  0.37389291  1
  Al  Al49  1  0.66667000  0.33333329  0.62609615  1
  Al  Al50  1  0.24924266  -0.00000460  0.52971086  1
  Al  Al51  1  0.75075273  -0.00000122  0.47028265  1
  Al  Al52  1  -0.00000159  0.24924708  0.52970887  1
  Al  Al53  1  0.75075419  -0.00000164  0.02971910  1
  Al  Al54  1  -0.00000125  0.24924611  0.97028759  1
  Al  Al55  1  0.99999720  0.75075295  0.47028661  1
  Al  Al56  1  0.24924373  -0.00000241  0.97028851  1
  Al  Al57  1  0.99999748  0.75075459  0.02971701  1
  Al  Al58  1  0.75075429  0.75075487  0.52970909  1
  Al  Al59  1  0.24924375  0.24924663  0.47028264  1
  Al  Al60  1  0.24924334  0.24924423  0.02971844  1
  Al  Al61  1  0.75075536  0.75075622  0.97028922  1
  Al  Al62  1  0.15832323  0.39182349  0.66537341  1
  Al  Al63  1  0.84168613  0.60818240  0.33461882  1
  Al  Al64  1  0.60817867  0.76649851  0.66537973  1
  Al  Al65  1  0.84167783  0.60817368  0.16538693  1
  Al  Al66  1  0.39182784  0.15832458  0.83461603  1
  Al  Al67  1  0.39182446  0.23350590  0.33462385  1
  Al  Al68  1  0.15832666  0.39182943  0.83461631  1
  Al  Al69  1  0.60816956  0.84167223  0.16538773  1
  Al  Al70  1  0.23349151  0.84166690  0.66538204  1
  Al  Al71  1  0.39183144  0.23350894  0.16538828  1
  Al  Al72  1  0.76650278  0.60817324  0.83461534  1
  Al  Al73  1  0.76649675  0.15831975  0.33462123  1
  Al  Al74  1  0.60817174  0.76650145  0.83461333  1
  Al  Al75  1  0.23350081  0.39182994  0.16538789  1
  Al  Al76  1  0.60817434  0.84167179  0.33462032  1
  Al  Al77  1  0.39181881  0.15831734  0.66537274  1
  Al  Al78  1  0.76649764  0.15832295  0.16539027  1
  Al  Al79  1  0.23349576  0.39182398  0.33462008  1
  Al  Al80  1  0.23349733  0.84166939  0.83461381  1
  Al  Al81  1  0.76650583  0.60818164  0.66537215  1
  Al  Al82  1  0.84167359  0.23350525  0.83461272  1
  Al  Al83  1  0.15832794  0.76650006  0.16538852  1
  Al  Al84  1  0.15832625  0.76650452  0.33462452  1
  Al  Al85  1  0.84168504  0.23350721  0.66537884  1
loop_
_geom_bond_atom_site_label_1
_geom_bond_atom_site_label_2
_geom_bond_distance
_geom_bond_site_symmetry_2
Nd0 Nd1 3.522302 1_555
Nd0 Ti2 3.539426 1_555
Nd1 Ti3 3.539442 1_555
Nd2 Nd5 3.522258 1_555
Nd2 Ti4 3.539495 1_555
Nd3 Nd6 3.522485 1_554
Nd3 Ti3 3.539469 1_555
Nd4 Nd7 3.522471 1_556
Nd4 Ti4 3.539439 1_555
Nd5 Ti5 3.539390 1_555
Nd6 Ti2 3.539450 1_555
Nd7 Ti5 3.539318 1_555
Nd8 Nd9 3.522271 1_555
Nd8 Ti6 3.539517 1_555
Nd9 Ti7 3.539353 1_555
Nd10 Nd11 3.522487 1_554
Nd10 Ti7 3.539350 1_555
Nd11 Ti6 3.539496 1_555
Al0 Ti4 2.717883 1_555
Al0 Al68 2.778749 1_555
Al0 Al62 2.778751 1_555
Al0 Al70 2.817674 1_555
Al0 Al80 2.817776 1_555
Al0 Al46 2.828716 1_555
Al0 Al42 2.828734 1_555
Al0 Al10 2.952249 1_455
Al0 Al2 3.013596 1_555
Al0 Al6 3.013703 1_555
Al0 Nd2 3.139564 1_555
Al0 Nd4 3.139682 1_555
Al1 Ti5 2.718307 1_655
Al1 Al63 2.778692 1_555
Al1 Al65 2.778721 1_555
Al1 Al78 2.817757 1_555
Al1 Al73 2.817775 1_555
Al1 Al44 2.828570 1_555
Al1 Al43 2.828597 1_555
Al1 Al11 2.952343 1_655
Al1 Al8 3.013520 1_555
Al1 Al4 3.013548 1_555
Al1 Nd5 3.139531 1_655
Al1 Nd7 3.139630 1_655
Al2 Ti6 2.718117 1_555
Al2 Al64 2.778715 1_555
Al2 Al74 2.778729 1_555
Al2 Al68 2.817747 1_555
Al2 Al62 2.817797 1_555
Al2 Al46 2.828615 1_555
Al2 Al42 2.828684 1_555
Al2 Al7 2.952425 1_555
Al2 Al6 3.013573 1_555
Al2 Nd8 3.139686 1_555
Al2 Nd11 3.139724 1_555
Al3 Ti2 2.718205 1_555
Al3 Al66 2.778740 1_555
Al3 Al77 2.778767 1_555
Al3 Al82 2.817812 1_555
Al3 Al85 2.817840 1_555
Al3 Al45 2.828726 1_555
Al3 Al49 2.828782 1_555
Al3 Al6 2.952254 1_545
Al3 Al7 3.013745 1_555
Al3 Nd0 3.139560 1_555
Al3 Nd6 3.139687 1_555
Al4 Ti7 2.718045 1_555
Al4 Al71 2.778742 1_555
Al4 Al67 2.778815 1_555
Al4 Al65 2.817681 1_555
Al4 Al63 2.817733 1_555
Al4 Al44 2.828581 1_555
Al4 Al43 2.828660 1_555
Al4 Al9 2.952470 1_555
Al4 Al8 3.013558 1_555
Al4 Nd9 3.139503 1_555
Al4 Nd10 3.139600 1_555
Al5 Ti3 2.718081 1_565
Al5 Al69 2.778700 1_555
Al5 Al76 2.778738 1_555
Al5 Al83 2.817700 1_555
Al5 Al84 2.817743 1_555
Al5 Al8 2.952560 1_565
Al5 Al9 3.013491 1_555
Al5 Nd1 3.139536 1_565
Al5 Nd3 3.139612 1_565
Al6 Ti2 2.717885 1_565
Al6 Al70 2.778725 1_555
Al6 Al80 2.778739 1_555
Al6 Al74 2.817755 1_555
Al6 Al64 2.817789 1_555
Al6 Nd0 3.139577 1_565
Al6 Nd6 3.139682 1_565
Al7 Ti6 2.718192 1_555
Al7 Al81 2.778728 1_555
Al7 Al72 2.778747 1_555
Al7 Al77 2.817900 1_555
Al7 Nd8 3.139588 1_555
Al7 Nd11 3.139737 1_555
Al8 Ti3 2.718440 1_555
Al8 Nd1 3.139571 1_555
Al8 Nd3 3.139649 1_555
Al9 Ti7 2.718164 1_555
Al9 Nd9 3.139545 1_555
Al9 Nd10 3.139621 1_555
Al10 Ti4 2.718235 1_655
Al10 Al85 2.778679 1_555
Al10 Al82 2.778762 1_555
Al10 Al81 2.817771 1_555
Al10 Al72 2.817783 1_555
Al10 Al45 2.828697 1_555
Al10 Al49 2.828707 1_555
Al10 Al7 3.013627 1_555
Al10 Al3 3.013765 1_555
Al10 Nd2 3.139546 1_655
Al10 Nd4 3.139759 1_655
Al11 Ti5 2.717828 1_555
Al11 Al83 2.778723 1_555
Al11 Al84 2.778792 1_555
Al11 Al79 2.817729 1_555
Al11 Al75 2.817731 1_555
Al11 Al47 2.828600 1_555
Al11 Al48 2.828643 1_555
Al11 Al5 3.013593 1_555
Al11 Al9 3.013600 1_555
Al11 Nd5 3.139485 1_555
Al11 Nd7 3.139586 1_555
Al12 Ti1 2.716071 1_555
Al12 Ti3 2.720559 1_555
Al12 Al83 2.748866 1_545
Al12 Al71 2.748935 1_555
Al12 Al56 2.844077 1_554
Al12 Al60 2.882041 1_555
Al12 Al57 2.882058 1_445
Al12 Al39 2.914748 1_545
Al12 Al41 2.914774 1_555
Al12 Al20 2.966360 1_445
Al12 Al14 2.966418 1_555
Al12 Nd3 3.520615 1_555
Al13 Ti1 2.717258 1_656
Al13 Ti2 2.720519 1_555
Al13 Al82 2.748769 1_555
Al13 Al74 2.748812 1_545
Al13 Al53 2.844247 1_556
Al13 Al54 2.882121 1_655
Al13 Al61 2.882226 1_545
Al13 Al38 2.914672 1_655
Al13 Al40 2.914713 1_545
Al13 Al21 2.966401 1_655
Al13 Al17 2.966521 1_645
Al13 Nd6 3.520528 1_555
Al14 Ti1 2.716425 1_555
Al14 Ti5 2.720431 1_555
Al14 Al78 2.748759 1_455
Al14 Al75 2.748822 1_555
Al14 Al54 2.844169 1_554
Al14 Al53 2.882089 1_455
Al14 Al60 2.882127 1_555
Al14 Al37 2.914675 1_455
Al14 Al41 2.914687 1_555
Al14 Al20 2.966456 1_445
Al14 Nd7 3.520524 1_555
Al15 Ti0 2.717079 1_655
Al15 Ti2 2.720426 1_555
Al15 Al64 2.748681 1_545
Al15 Al85 2.748724 1_555
Al15 Al51 2.844090 1_555
Al15 Al58 2.882143 1_545
Al15 Al52 2.882165 1_655
Al15 Al38 2.914530 1_655
Al15 Al40 2.914550 1_545
Al15 Al19 2.966672 1_645
Al15 Al22 2.966733 1_655
Al15 Nd0 3.520451 1_555
Al16 Ti0 2.716568 1_555
Al16 Ti5 2.720429 1_555
Al16 Al73 2.748654 1_455
Al16 Al79 2.748655 1_555
Al16 Al52 2.843985 1_555
Al16 Al51 2.882094 1_455
Al16 Al59 2.882113 1_555
Al16 Al41 2.914451 1_555
Al16 Al37 2.914484 1_455
Al16 Al18 2.966712 1_555
Al16 Al23 2.966750 1_445
Al16 Nd5 3.520380 1_555
Al17 Ti1 2.717015 1_566
Al17 Ti4 2.720469 1_555
Al17 Al72 2.748732 1_455
Al17 Al80 2.748786 1_555
Al17 Al57 2.844208 1_456
Al17 Al61 2.882147 1_455
Al17 Al56 2.882176 1_565
Al17 Al36 2.914647 1_565
Al17 Al40 2.914673 1_455
Al17 Al21 2.966407 1_565
Al17 Nd4 3.520532 1_555
Al18 Ti0 2.716330 1_555
Al18 Ti3 2.720325 1_555
Al18 Al84 2.748640 1_545
Al18 Al67 2.748704 1_555
Al18 Al50 2.844005 1_555
Al18 Al59 2.882092 1_555
Al18 Al55 2.882135 1_445
Al18 Al39 2.914474 1_545
Al18 Al41 2.914505 1_555
Al18 Al23 2.966702 1_445
Al18 Nd1 3.520432 1_555
Al19 Ti0 2.716949 1_565
Al19 Ti4 2.720412 1_555
Al19 Al81 2.748577 1_455
Al19 Al70 2.748664 1_555
Al19 Al55 2.844072 1_455
Al19 Al50 2.882132 1_565
Al19 Al58 2.882189 1_455
Al19 Al36 2.914430 1_565
Al19 Al40 2.914481 1_455
Al19 Al22 2.966704 1_565
Al19 Nd2 3.520456 1_555
Al20 Ti1 2.716354 1_665
Al20 Ti7 2.720412 1_555
Al20 Al65 2.748777 1_555
Al20 Al69 2.748827 1_555
Al20 Al61 2.844152 1_554
Al20 Al57 2.882096 1_555
Al20 Al53 2.882130 1_565
Al20 Al37 2.914659 1_565
Al20 Al39 2.914678 1_655
Al20 Nd10 3.520514 1_555
Al21 Ti1 2.717006 1_556
Al21 Ti6 2.720555 1_555
Al21 Al66 2.748818 1_555
Al21 Al68 2.748852 1_555
Al21 Al60 2.844238 1_556
Al21 Al56 2.882148 1_555
Al21 Al54 2.882164 1_555
Al21 Al38 2.914712 1_555
Al21 Al36 2.914723 1_555
Al21 Nd11 3.520655 1_555
Al22 Ti0 2.717051 1_555
Al22 Ti6 2.720369 1_555
Al22 Al77 2.748598 1_555
Al22 Al62 2.748637 1_555
Al22 Al59 2.844087 1_555
Al22 Al50 2.882164 1_555
Al22 Al52 2.882220 1_555
Al22 Al38 2.914508 1_555
Al22 Al36 2.914562 1_555
Al22 Nd8 3.520432 1_555
Al23 Ti0 2.716488 1_665
Al23 Ti7 2.720379 1_555
Al23 Al63 2.748639 1_555
Al23 Al76 2.748669 1_555
Al23 Al58 2.843968 1_555
Al23 Al51 2.882117 1_565
Al23 Al55 2.882127 1_555
Al23 Al39 2.914465 1_655
Al23 Al37 2.914481 1_565
Al23 Nd9 3.520306 1_555
Al24 Al52 2.783218 1_555
Al24 Al59 2.783250 1_555
Al24 Al42 2.805419 1_555
Al24 Al48 2.805511 1_555
Al24 Al26 2.855194 1_555
Al24 Al32 2.855228 1_555
Al24 Nd8 3.137313 1_555
Al24 Nd5 3.137350 1_555
Al24 Al62 3.164381 1_555
Al24 Al79 3.164485 1_555
Al24 Nd2 3.421780 1_555
Al24 Nd9 3.421941 1_555
Al25 Al55 2.783212 1_555
Al25 Al58 2.783228 1_555
Al25 Al49 2.805393 1_555
Al25 Al43 2.805444 1_555
Al25 Al33 2.855247 1_555
Al25 Al29 2.855250 1_555
Al25 Nd9 3.137353 1_555
Al25 Nd2 3.137362 1_655
Al25 Al81 3.164395 1_555
Al25 Al63 3.164510 1_555
Al25 Nd8 3.421799 1_555
Al25 Nd5 3.421892 1_655
Al26 Al51 2.783265 1_565
Al26 Al58 2.783297 1_555
Al26 Al48 2.805399 1_555
Al26 Al42 2.805467 1_555
Al26 Al32 2.855197 1_555
Al26 Nd9 3.137304 1_555
Al26 Nd0 3.137359 1_565
Al26 Al76 3.164382 1_555
Al26 Al64 3.164631 1_555
Al26 Nd8 3.421813 1_555
Al26 Nd1 3.421836 1_565
Al27 Al57 2.783281 1_555
Al27 Al61 2.783328 1_554
Al27 Al44 2.805589 1_555
Al27 Al45 2.805650 1_554
Al27 Al34 2.855099 1_555
Al27 Al28 2.855113 1_555
Al27 Nd4 3.137389 1_654
Al27 Nd10 3.137406 1_555
Al27 Al65 3.164566 1_555
Al27 Al72 3.164643 1_554
Al27 Nd7 3.421896 1_655
Al27 Nd11 3.421913 1_554
Al28 Al56 2.783346 1_554
Al28 Al60 2.783349 1_555
Al28 Al44 2.805587 1_555
Al28 Al45 2.805688 1_554
Al28 Al34 2.855095 1_555
Al28 Nd3 3.137383 1_555
Al28 Nd11 3.137466 1_554
Al28 Al71 3.164557 1_555
Al28 Al66 3.164667 1_554
Al28 Nd6 3.421911 1_554
Al28 Nd10 3.421928 1_555
Al29 Al50 2.783256 1_555
Al29 Al59 2.783284 1_555
Al29 Al49 2.805389 1_555
Al29 Al43 2.805504 1_555
Al29 Al33 2.855237 1_555
Al29 Nd8 3.137328 1_555
Al29 Nd1 3.137387 1_555
Al29 Al77 3.164374 1_555
Al29 Al67 3.164444 1_555
Al29 Nd0 3.421849 1_555
Al29 Nd9 3.421949 1_555
Al30 Al54 2.783335 1_554
Al30 Al60 2.783343 1_555
Al30 Al47 2.805563 1_555
Al30 Al46 2.805656 1_554
Al30 Al35 2.855077 1_555
Al30 Al31 2.855077 1_555
Al30 Nd7 3.137348 1_555
Al30 Nd11 3.137465 1_554
Al30 Al75 3.164543 1_555
Al30 Al68 3.164666 1_554
Al30 Nd10 3.421908 1_555
Al30 Nd4 3.421917 1_554
Al31 Al53 2.783318 1_565
Al31 Al61 2.783331 1_554
Al31 Al47 2.805576 1_555
Al31 Al46 2.805659 1_554
Al31 Al35 2.855111 1_555
Al31 Nd10 3.137355 1_555
Al31 Nd6 3.137427 1_564
Al31 Al69 3.164549 1_555
Al31 Al74 3.164700 1_554
Al31 Nd3 3.421884 1_565
Al31 Nd11 3.421896 1_554
Al32 Al50 2.783212 1_565
Al32 Al55 2.783266 1_455
Al32 Al42 2.805439 1_555
Al32 Al48 2.805500 1_555
Al32 Nd2 3.137301 1_555
Al32 Nd1 3.137343 1_565
Al32 Al84 3.164384 1_555
Al32 Al70 3.164549 1_555
Al32 Nd0 3.421810 1_565
Al32 Nd5 3.421860 1_555
Al33 Al52 2.783229 1_655
Al33 Al51 2.783266 1_555
Al33 Al49 2.805369 1_555
Al33 Al43 2.805453 1_555
Al33 Nd5 3.137352 1_655
Al33 Nd0 3.137372 1_555
Al33 Al73 3.164444 1_555
Al33 Al85 3.164537 1_555
Al33 Nd2 3.421858 1_655
Al33 Nd1 3.421884 1_555
Al34 Al54 2.783298 1_654
Al34 Al53 2.783346 1_555
Al34 Al44 2.805579 1_555
Al34 Al45 2.805665 1_554
Al34 Nd7 3.137366 1_655
Al34 Nd6 3.137446 1_554
Al34 Al78 3.164621 1_555
Al34 Al82 3.164687 1_554
Al34 Nd4 3.421897 1_654
Al34 Nd3 3.421920 1_555
Al35 Al56 2.783305 1_564
Al35 Al57 2.783324 1_455
Al35 Al47 2.805611 1_555
Al35 Al46 2.805622 1_554
Al35 Nd3 3.137391 1_565
Al35 Nd4 3.137396 1_554
Al35 Al83 3.164566 1_555
Al35 Al80 3.164677 1_554
Al35 Nd7 3.421876 1_555
Al35 Nd6 3.421907 1_564
Al36 Ti4 2.608171 1_545
Al36 Ti6 2.608577 1_555
Al36 Al40 2.796556 1_445
Al36 Al38 2.796662 1_555
Al36 Al70 2.836877 1_545
Al36 Al77 2.836998 1_555
Al36 Al80 2.837047 1_545
Al36 Al66 2.837157 1_555
Al37 Ti7 2.608387 1_545
Al37 Ti5 2.608712 1_655
Al37 Al41 2.796588 1_655
Al37 Al39 2.796602 1_645
Al37 Al76 2.836916 1_545
Al37 Al73 2.836928 1_555
Al37 Al78 2.837051 1_555
Al37 Al69 2.837085 1_545
Al38 Ti6 2.608399 1_555
Al38 Ti2 2.608672 1_455
Al38 Al40 2.796640 1_445
Al38 Al85 2.836902 1_455
Al38 Al62 2.836956 1_555
Al38 Al82 2.837098 1_455
Al38 Al68 2.837108 1_555
Al39 Ti3 2.608144 1_565
Al39 Ti7 2.608440 1_455
Al39 Al41 2.796629 1_565
Al39 Al63 2.836826 1_455
Al39 Al84 2.836938 1_555
Al39 Al65 2.837073 1_455
Al39 Al83 2.837074 1_555
Al40 Ti2 2.608341 1_565
Al40 Ti4 2.608634 1_655
Al40 Al64 2.836912 1_555
Al40 Al81 2.836952 1_555
Al40 Al74 2.837070 1_555
Al40 Al72 2.837070 1_555
Al41 Ti5 2.608230 1_555
Al41 Ti3 2.608557 1_555
Al41 Al79 2.836891 1_555
Al41 Al67 2.836977 1_555
Al41 Al75 2.837074 1_555
Al41 Al71 2.837122 1_555
Al42 Al70 2.761822 1_555
Al42 Al62 2.761831 1_555
Al42 Al64 2.761880 1_555
Al42 Al6 2.828717 1_555
Al42 Nd0 3.259865 1_565
Al42 Nd2 3.259906 1_555
Al42 Nd8 3.259923 1_555
Al43 Al67 2.761829 1_555
Al43 Al73 2.761850 1_555
Al43 Al63 2.761865 1_555
Al43 Al8 2.828601 1_555
Al43 Nd9 3.259920 1_555
Al43 Nd5 3.259923 1_655
Al43 Nd1 3.259964 1_555
Al44 Al65 2.761747 1_555
Al44 Al71 2.761758 1_555
Al44 Al78 2.761796 1_555
Al44 Al8 2.828522 1_555
Al44 Nd7 3.259925 1_655
Al44 Nd10 3.259988 1_555
Al44 Nd3 3.259990 1_555
Al45 Al82 2.761720 1_555
Al45 Al72 2.761741 1_555
Al45 Al66 2.761792 1_555
Al45 Al7 2.828725 1_555
Al45 Nd4 3.259931 1_655
Al45 Nd11 3.259980 1_555
Al45 Nd6 3.259994 1_555
Al46 Al80 2.761737 1_555
Al46 Al68 2.761753 1_555
Al46 Al74 2.761785 1_555
Al46 Al6 2.828663 1_555
Al46 Nd6 3.259931 1_565
Al46 Nd4 3.259933 1_555
Al46 Nd11 3.259989 1_555
Al47 Al75 2.761724 1_555
Al47 Al69 2.761734 1_555
Al47 Al83 2.761753 1_555
Al47 Al9 2.828519 1_555
Al47 Al5 2.828531 1_555
Al47 Nd10 3.259945 1_555
Al47 Nd3 3.259945 1_565
Al47 Nd7 3.259955 1_555
Al48 Al76 2.761781 1_555
Al48 Al79 2.761786 1_555
Al48 Al84 2.761829 1_555
Al48 Al9 2.828542 1_555
Al48 Al5 2.828576 1_555
Al48 Nd9 3.259918 1_555
Al48 Nd5 3.259926 1_555
Al48 Nd1 3.259936 1_565
Al49 Al85 2.761858 1_555
Al49 Al81 2.761876 1_555
Al49 Al77 2.761905 1_555
Al49 Al7 2.828733 1_555
Al49 Nd2 3.259917 1_655
Al49 Nd0 3.259959 1_555
Al49 Nd8 3.259991 1_555
Al50 Ti0 2.812725 1_555
Al50 Al77 2.960630 1_555
Al50 Al70 2.960795 1_545
Al50 Al55 2.961412 1_445
Al50 Al59 2.961512 1_555
Al50 Nd0 3.327242 1_555
Al50 Nd1 3.337908 1_555
Al51 Ti0 2.812895 1_655
Al51 Al73 2.960622 1_555
Al51 Al76 2.960661 1_545
Al51 Al58 2.961438 1_545
Al51 Al52 2.961456 1_655
Al51 Nd1 3.327253 1_555
Al51 Nd0 3.337909 1_555
Al52 Ti0 2.813016 1_555
Al52 Al62 2.960681 1_555
Al52 Al85 2.960705 1_455
Al52 Al59 2.961441 1_555
Al52 Nd2 3.327223 1_555
Al52 Nd5 3.337855 1_555
Al53 Ti1 2.812899 1_655
Al53 Al69 2.960761 1_545
Al53 Al78 2.960787 1_555
Al53 Al61 2.961437 1_544
Al53 Al54 2.961477 1_654
Al53 Nd3 3.327285 1_555
Al53 Nd6 3.338013 1_554
Al54 Ti1 2.813051 1_556
Al54 Al68 2.960803 1_555
Al54 Al82 2.960860 1_455
Al54 Al60 2.961479 1_556
Al54 Nd4 3.327278 1_555
Al54 Nd7 3.337963 1_556
Al55 Ti0 2.812597 1_665
Al55 Al84 2.960656 1_655
Al55 Al63 2.960664 1_555
Al55 Al58 2.961399 1_555
Al55 Nd5 3.327274 1_655
Al55 Nd2 3.337853 1_655
Al56 Ti1 2.812702 1_556
Al56 Al66 2.960820 1_555
Al56 Al80 2.960855 1_545
Al56 Al57 2.961442 1_446
Al56 Al60 2.961480 1_556
Al56 Nd6 3.327280 1_555
Al56 Nd3 3.337988 1_556
Al57 Ti1 2.812560 1_665
Al57 Al65 2.960747 1_555
Al57 Al83 2.960831 1_655
Al57 Al61 2.961432 1_554
Al57 Nd7 3.327308 1_655
Al57 Nd4 3.337965 1_654
Al58 Ti0 2.812853 1_665
Al58 Al81 2.960651 1_555
Al58 Al64 2.960743 1_555
Al58 Nd8 3.327188 1_555
Al58 Nd9 3.337866 1_555
Al59 Ti0 2.812731 1_555
Al59 Al67 2.960588 1_555
Al59 Al79 2.960657 1_555
Al59 Nd9 3.327305 1_555
Al59 Nd8 3.337921 1_555
Al60 Ti1 2.812657 1_555
Al60 Al75 2.960787 1_555
Al60 Al71 2.960789 1_555
Al60 Nd10 3.327324 1_555
Al60 Nd11 3.338028 1_554
Al61 Ti1 2.812913 1_666
Al61 Al72 2.960853 1_555
Al61 Al74 2.960887 1_555
Al61 Nd11 3.327265 1_555
Al61 Nd10 3.337946 1_556
Al62 Ti6 2.709487 1_555
Al62 Al85 3.038136 1_455
Al62 Al68 3.046648 1_555
Al62 Nd2 3.103684 1_555
Al62 Nd8 3.355845 1_555
Al63 Ti7 2.709534 1_555
Al63 Al84 3.038155 1_655
Al63 Al65 3.046450 1_555
Al63 Nd5 3.103684 1_655
Al63 Nd9 3.355857 1_555
Al64 Ti2 2.709213 1_565
Al64 Al81 3.038198 1_555
Al64 Al74 3.046480 1_555
Al64 Nd8 3.103682 1_555
Al64 Nd0 3.355875 1_565
Al65 Ti7 2.709494 1_555
Al65 Al83 3.038250 1_655
Al65 Nd7 3.103678 1_655
Al65 Nd10 3.355844 1_555
Al66 Ti6 2.709593 1_555
Al66 Al7 2.817905 1_555
Al66 Al80 3.038298 1_545
Al66 Al77 3.046655 1_555
Al66 Nd6 3.103708 1_555
Al66 Nd11 3.355872 1_555
Al67 Ti3 2.709826 1_555
Al67 Al8 2.817756 1_555
Al67 Al79 3.038224 1_555
Al67 Al71 3.046516 1_555
Al67 Nd9 3.103642 1_555
Al67 Nd1 3.355847 1_555
Al68 Ti6 2.709467 1_555
Al68 Al82 3.038279 1_455
Al68 Nd4 3.103715 1_555
Al68 Nd11 3.355856 1_555
Al69 Ti7 2.709452 1_555
Al69 Al9 2.817697 1_555
Al69 Al78 3.038255 1_565
Al69 Al76 3.046462 1_555
Al69 Nd3 3.103692 1_565
Al69 Nd10 3.355772 1_555
Al70 Ti4 2.709110 1_555
Al70 Al77 3.038253 1_565
Al70 Al80 3.046447 1_555
Al70 Nd0 3.103783 1_565
Al70 Nd2 3.355772 1_555
Al71 Ti3 2.709806 1_555
Al71 Al8 2.817700 1_555
Al71 Al75 3.038271 1_555
Al71 Nd10 3.103671 1_555
Al71 Nd3 3.355871 1_555
Al72 Ti4 2.709735 1_655
Al72 Al74 3.038344 1_555
Al72 Al81 3.046653 1_555
Al72 Nd11 3.103722 1_555
Al72 Nd4 3.355803 1_655
Al73 Ti5 2.709852 1_655
Al73 Al8 2.778753 1_555
Al73 Al76 3.038229 1_545
Al73 Al78 3.046433 1_555
Al73 Nd1 3.103654 1_555
Al73 Nd5 3.355849 1_655
Al74 Ti2 2.709209 1_565
Al74 Nd11 3.103725 1_555
Al74 Nd6 3.355812 1_565
Al75 Ti5 2.709113 1_555
Al75 Al9 2.778701 1_555
Al75 Al79 3.046455 1_555
Al75 Nd10 3.103718 1_555
Al75 Nd7 3.355801 1_555
Al76 Ti7 2.709463 1_555
Al76 Al9 2.817692 1_555
Al76 Nd1 3.103707 1_565
Al76 Nd9 3.355725 1_555
Al77 Ti6 2.709612 1_555
Al77 Nd0 3.103676 1_555
Al77 Nd8 3.355928 1_555
Al78 Ti5 2.709739 1_655
Al78 Al8 2.778719 1_555
Al78 Nd3 3.103722 1_555
Al78 Nd7 3.355850 1_655
Al79 Ti5 2.709162 1_555
Al79 Al9 2.778731 1_555
Al79 Nd9 3.103760 1_555
Al79 Nd5 3.355762 1_555
Al80 Ti4 2.709155 1_555
Al80 Nd6 3.103760 1_565
Al80 Nd4 3.355790 1_555
Al81 Ti4 2.709815 1_655
Al81 Nd8 3.103724 1_555
Al81 Nd2 3.355814 1_655
Al82 Ti2 2.709779 1_555
Al82 Al85 3.046485 1_555
Al82 Nd4 3.103720 1_655
Al82 Nd6 3.355869 1_555
Al83 Ti3 2.709189 1_565
Al83 Al84 3.046524 1_555
Al83 Nd7 3.103728 1_555
Al83 Nd3 3.355780 1_565
Al84 Ti3 2.709203 1_565
Al84 Nd5 3.103698 1_555
Al84 Nd1 3.355737 1_565
Al85 Ti2 2.709788 1_555
Al85 Nd2 3.103676 1_655
Al85 Nd0 3.355977 1_555
