# generated using pymatgen
data_MgFe6Sb10(IO3)6
_symmetry_space_group_name_H-M   'P 1'
_cell_length_a   8.26617376
_cell_length_b   9.08603523
_cell_length_c   13.32299594
_cell_angle_alpha   78.49798126
_cell_angle_beta   87.90778378
_cell_angle_gamma   73.85648759
_symmetry_Int_Tables_number   1
_chemical_formula_structural   MgFe6Sb10(IO3)6
_chemical_formula_sum   'Mg1 Fe6 Sb10 I6 O18'
_cell_volume   941.69613241
_cell_formula_units_Z   1
loop_
 _symmetry_equiv_pos_site_id
 _symmetry_equiv_pos_as_xyz
  1  'x, y, z'
loop_
 _atom_site_type_symbol
 _atom_site_label
 _atom_site_symmetry_multiplicity
 _atom_site_fract_x
 _atom_site_fract_y
 _atom_site_fract_z
 _atom_site_occupancy
  Mg  Mg0  1  0.97364520  0.05677533  0.67287825  1
  Fe  Fe0  1  0.75084753  0.95909978  0.32153309  1
  Fe  Fe1  1  0.33202033  0.03536467  0.61225548  1
  Fe  Fe2  1  0.04446516  0.95174410  0.12364794  1
  Fe  Fe3  1  0.97179243  0.04766236  0.89200924  1
  Fe  Fe4  1  0.63437218  0.09159361  0.05875852  1
  Fe  Fe5  1  0.39654633  0.91633764  0.96012556  1
  Sb  Sb0  1  0.81174436  0.22289961  0.43462954  1
  Sb  Sb1  1  0.08156014  0.83717253  0.51589269  1
  Sb  Sb2  1  0.26943964  0.15893440  0.24544627  1
  Sb  Sb3  1  0.71382482  0.82843770  0.76496394  1
  Sb  Sb4  1  0.52681922  0.20235650  0.77008171  1
  Sb  Sb5  1  0.47665641  0.78625858  0.23424822  1
  Sb  Sb6  1  0.21631024  0.26405675  0.99186709  1
  Sb  Sb7  1  0.80368199  0.73140650  0.02195966  1
  Sb  Sb8  1  0.83690262  0.29489064  0.20694202  1
  Sb  Sb9  1  0.15126577  0.71409071  0.79598608  1
  I  I0  1  0.75011036  0.34343214  0.92862473  1
  I  I1  1  0.27860549  0.64941927  0.04615908  1
  I  I2  1  0.94403055  0.66907156  0.28854402  1
  I  I3  1  0.08031697  0.32387045  0.70008290  1
  I  I4  1  0.43149357  0.26839791  0.48222698  1
  I  I5  1  0.47131836  0.70725970  0.59844019  1
  O  O0  1  0.16720132  0.05569584  0.99094814  1
  O  O1  1  0.85980503  0.93666205  0.01698011  1
  O  O2  1  0.85169418  0.98132251  0.45165392  1
  O  O3  1  0.12227177  0.02768090  0.54927482  1
  O  O4  1  0.81823154  0.08621634  0.18359309  1
  O  O5  1  0.13569106  0.93581267  0.79600077  1
  O  O6  1  0.46095149  0.13400497  0.91460125  1
  O  O7  1  0.57444093  0.85727653  0.09587848  1
  O  O8  1  0.77217826  0.04628350  0.77089434  1
  O  O9  1  0.24353487  0.94563007  0.21529372  1
  O  O10  1  0.47836171  0.01508696  0.73132689  1
  O  O11  1  0.52520917  0.94637502  0.29812651  1
  O  O12  1  0.08109863  0.26025363  0.13057646  1
  O  O13  1  0.93107071  0.72742563  0.86877190  1
  O  O14  1  0.99647680  0.81032849  0.66279035  1
  O  O15  1  0.01458933  0.19565237  0.32167715  1
  O  O16  1  0.62028398  0.80076311  0.90946799  1
  O  O17  1  0.39913954  0.19128198  0.10192392  1
loop_
_geom_bond_atom_site_label_1
_geom_bond_atom_site_label_2
_geom_bond_distance
_geom_bond_site_symmetry_2
Mg0 O3 2.033815 1_655
Mg0 O5 2.077442 1_645
Mg0 O8 2.089893 1_555
Mg0 O14 2.225078 1_545
Fe0 O11 1.940677 1_555
Fe0 O2 2.019844 1_555
Fe0 O4 2.111437 1_565
Fe0 I2 2.785335 1_555
Fe1 O3 1.977871 1_555
Fe1 O10 1.978263 1_555
Fe1 I4 2.749856 1_555
Fe1 I5 2.922602 1_545
Fe2 O9 2.066532 1_555
Fe2 O4 2.153462 1_465
Fe2 O1 2.172735 1_455
Fe2 O0 2.187023 1_564
Fe2 I1 3.222734 1_555
Fe2 I2 3.303713 1_455
Fe3 O5 2.032414 1_645
Fe3 O1 2.093621 1_546
Fe3 O0 2.147423 1_655
Fe3 O8 2.353831 1_555
Fe3 I0 2.921809 1_555
Fe4 O17 2.019607 1_555
Fe4 O1 2.131194 1_545
Fe4 O7 2.274077 1_545
Fe4 O4 2.277986 1_555
Fe4 O6 2.343268 1_554
Fe4 I0 2.944704 1_554
Fe5 O16 2.022432 1_555
Fe5 O0 2.044907 1_565
Fe5 O6 2.155524 1_565
Fe5 O7 2.256066 1_556
Fe5 I1 2.875872 1_556
I1 Sb9 3.419601 1_554
I3 Mg0 2.891801 1_455
I4 Sb0 3.112762 1_555
I5 Sb1 3.257160 1_555
O0 Sb6 2.045977 1_555
O1 Sb7 2.031560 1_555
O2 Sb1 2.084738 1_655
O2 Sb0 2.093386 1_565
O3 Sb1 1.987254 1_545
O4 Sb8 2.029025 1_555
O5 Sb9 1.982677 1_555
O6 Sb4 2.006003 1_555
O6 Sb6 2.355794 1_555
O7 Sb5 2.043296 1_555
O7 Sb7 2.230790 1_555
O8 Sb4 2.126192 1_555
O8 Sb3 2.180101 1_545
O9 Sb5 2.052321 1_555
O9 Sb2 2.123910 1_565
O10 Sb4 2.016620 1_555
O10 Sb3 2.188682 1_545
O11 Sb5 1.960939 1_555
O11 Sb2 2.447387 1_565
O12 Sb2 2.104412 1_555
O12 Sb6 2.123864 1_554
O12 Sb8 2.198470 1_455
O13 Sb9 2.015790 1_655
O13 Sb3 2.176832 1_555
O13 Sb7 2.264254 1_556
O14 Sb1 2.046696 1_655
O14 Sb9 2.115570 1_655
O14 Sb3 2.642425 1_555
O15 Sb8 2.045683 1_455
O15 Sb0 2.207012 1_455
O15 Sb2 2.273498 1_555
O16 Sb3 2.043029 1_555
O16 Sb7 2.049278 1_556
O17 Sb6 2.022542 1_554
O17 Sb2 2.166460 1_555
