# generated using pymatgen
data_KMg(CO5)2
_symmetry_space_group_name_H-M   'P 1'
_cell_length_a   5.07417700
_cell_length_b   6.81529243
_cell_length_c   7.18042099
_cell_angle_alpha   74.17121917
_cell_angle_beta   78.76922943
_cell_angle_gamma   79.51811201
_symmetry_Int_Tables_number   1
_chemical_formula_structural   KMg(CO5)2
_chemical_formula_sum   'K1 Mg1 C2 O10'
_cell_volume   232.12987149
_cell_formula_units_Z   1
loop_
 _symmetry_equiv_pos_site_id
 _symmetry_equiv_pos_as_xyz
  1  'x, y, z'
loop_
 _atom_site_type_symbol
 _atom_site_label
 _atom_site_symmetry_multiplicity
 _atom_site_fract_x
 _atom_site_fract_y
 _atom_site_fract_z
 _atom_site_occupancy
  K  K0  1  0.00000000  0.00000000  0.00000000  1
  Mg  Mg0  1  0.50000000  0.50000000  0.50000000  1
  C  C0  1  0.62126300  0.78102600  0.70832900  1
  C  C1  1  0.37873700  0.21897400  0.29167100  1
  O  O0  1  0.40962300  0.30570900  0.79458000  1
  O  O1  1  0.59037700  0.69429100  0.20542000  1
  O  O2  1  0.70334000  0.67006100  0.58261000  1
  O  O3  1  0.29666000  0.32993900  0.41739000  1
  O  O4  1  0.80355100  0.56130800  0.19782000  1
  O  O5  1  0.19644900  0.43869200  0.80218000  1
  O  O6  1  0.76286200  0.90908000  0.72698700  1
  O  O7  1  0.23713800  0.09092000  0.27301300  1
  O  O8  1  0.60780100  0.23126400  0.17955000  1
  O  O9  1  0.39219900  0.76873600  0.82045000  1
loop_
_geom_bond_atom_site_label_1
_geom_bond_atom_site_label_2
_geom_bond_distance
_geom_bond_site_symmetry_2
K0 O9 2.659821 1_544
K0 O8 2.659821 1_455
K0 O7 2.743645 1_555
K0 O6 2.743645 1_444
K0 O0 3.088969 1_554
K0 O1 3.088969 1_445
K0 O5 3.188472 1_554
K0 O4 3.188472 1_445
Mg0 O3 1.951488 1_555
Mg0 O2 1.951488 1_555
Mg0 O1 2.180125 1_555
Mg0 O0 2.180125 1_555
Mg0 O4 2.385948 1_555
Mg0 O5 2.385948 1_555
C0 O6 1.274860 1_555
C0 O9 1.280731 1_555
C0 O2 1.292925 1_555
C1 O7 1.274860 1_555
C1 O8 1.280731 1_555
C1 O3 1.292925 1_555
O0 O5 1.281295 1_555
O1 O4 1.281295 1_555
