# generated using pymatgen
data_Na5CeO6
_symmetry_space_group_name_H-M   'P 1'
_cell_length_a   5.90725421
_cell_length_b   5.90725421
_cell_length_c   11.18312642
_cell_angle_alpha   94.85315876
_cell_angle_beta   94.85315876
_cell_angle_gamma   119.54981006
_symmetry_Int_Tables_number   1
_chemical_formula_structural   Na5CeO6
_chemical_formula_sum   'Na10 Ce2 O12'
_cell_volume   334.65391014
_cell_formula_units_Z   2
loop_
 _symmetry_equiv_pos_site_id
 _symmetry_equiv_pos_as_xyz
  1  'x, y, z'
loop_
 _atom_site_type_symbol
 _atom_site_label
 _atom_site_symmetry_multiplicity
 _atom_site_fract_x
 _atom_site_fract_y
 _atom_site_fract_z
 _atom_site_occupancy
  Na  Na0  1  0.66973900  0.82908400  0.99856600  1
  Na  Na1  1  0.33026100  0.17091600  0.00143400  1
  Na  Na2  1  0.17091600  0.33026100  0.50143400  1
  Na  Na3  1  0.82908400  0.66973900  0.49856600  1
  Na  Na4  1  0.50000000  0.00000000  0.50000000  1
  Na  Na5  1  0.00000000  0.50000000  0.00000000  1
  Na  Na6  1  0.91521300  0.08478700  0.75000000  1
  Na  Na7  1  0.08478700  0.91521300  0.25000000  1
  Na  Na8  1  0.58149700  0.41850300  0.75000000  1
  Na  Na9  1  0.41850300  0.58149700  0.25000000  1
  Ce  Ce0  1  0.24783100  0.75216900  0.75000000  1
  Ce  Ce1  1  0.75216900  0.24783100  0.25000000  1
  O  O0  1  0.57773700  0.08213500  0.86000000  1
  O  O1  1  0.42226300  0.91786500  0.14000000  1
  O  O2  1  0.91786500  0.42226300  0.64000000  1
  O  O3  1  0.08213500  0.57773700  0.36000000  1
  O  O4  1  0.79062800  0.98733000  0.36671300  1
  O  O5  1  0.20937200  0.01267000  0.63328700  1
  O  O6  1  0.01267000  0.20937200  0.13328700  1
  O  O7  1  0.98733000  0.79062800  0.86671300  1
  O  O8  1  0.50711700  0.70993500  0.63364000  1
  O  O9  1  0.49288300  0.29006500  0.36636000  1
  O  O10  1  0.29006500  0.49288300  0.86636000  1
  O  O11  1  0.70993500  0.50711700  0.13364000  1
loop_
_geom_bond_atom_site_label_1
_geom_bond_atom_site_label_2
_geom_bond_distance
_geom_bond_site_symmetry_2
Na0 O10 2.389352 1_555
Na0 O6 2.417096 1_666
Na0 O1 2.433317 1_556
Na0 O0 2.445802 1_565
Na0 O7 2.564632 1_555
Na0 O11 2.612739 1_556
Na1 O11 2.389352 1_555
Na1 O7 2.417096 1_444
Na1 O0 2.433317 1_554
Na1 O1 2.445802 1_545
Na1 O6 2.564632 1_555
Na1 O10 2.612739 1_554
Na2 O8 2.389352 1_555
Na2 O4 2.417096 1_445
Na2 O3 2.433317 1_555
Na2 O2 2.445802 1_455
Na2 O5 2.564632 1_555
Na2 O9 2.612739 1_555
Na3 O9 2.389352 1_555
Na3 O5 2.417096 1_665
Na3 O2 2.433317 1_555
Na3 O3 2.445802 1_655
Na3 O4 2.564632 1_555
Na3 O8 2.612739 1_555
Na4 O9 2.380148 1_555
Na4 O8 2.380148 1_545
Na4 O4 2.390753 1_545
Na4 O5 2.390753 1_555
Na4 O3 2.716332 1_545
Na4 O2 2.716332 1_555
Na5 O10 2.380148 1_554
Na5 O11 2.380148 1_455
Na5 O6 2.390753 1_555
Na5 O7 2.390753 1_454
Na5 O0 2.716332 1_454
Na5 O1 2.716332 1_555
Na6 O2 2.423876 1_555
Na6 O0 2.423876 1_555
Na6 O7 2.434016 1_545
Na6 O5 2.434016 1_655
Na6 O10 2.474775 1_655
Na6 O8 2.474775 1_545
Na7 O1 2.423876 1_555
Na7 O3 2.423876 1_555
Na7 O4 2.434016 1_455
Na7 O6 2.434016 1_565
Na7 O9 2.474775 1_565
Na7 O11 2.474775 1_455
Na8 O2 2.415914 1_555
Na8 O0 2.415914 1_555
Na8 O8 2.424573 1_555
Na8 O10 2.424573 1_555
Na8 O7 2.463768 1_555
Na8 O5 2.463768 1_555
Na9 O3 2.415914 1_555
Na9 O1 2.415914 1_555
Na9 O11 2.424573 1_555
Na9 O9 2.424573 1_555
Na9 O6 2.463768 1_555
Na9 O4 2.463768 1_555
Ce0 O2 2.133628 1_455
Ce0 O0 2.133628 1_565
Ce0 O7 2.181230 1_455
Ce0 O5 2.181230 1_565
Ce0 O8 2.181922 1_555
Ce0 O10 2.181922 1_555
Ce1 O1 2.133628 1_545
Ce1 O3 2.133628 1_655
Ce1 O4 2.181230 1_545
Ce1 O6 2.181230 1_655
Ce1 O11 2.181922 1_555
Ce1 O9 2.181922 1_555
