# generated using pymatgen
data_KPu2F9
_symmetry_space_group_name_H-M   'P 1'
_cell_length_a   6.85702143
_cell_length_b   8.66074824
_cell_length_c   11.38213198
_cell_angle_alpha   90.00000000
_cell_angle_beta   90.00000000
_cell_angle_gamma   90.00000000
_symmetry_Int_Tables_number   1
_chemical_formula_structural   KPu2F9
_chemical_formula_sum   'K4 Pu8 F36'
_cell_volume   675.94994664
_cell_formula_units_Z   4
loop_
 _symmetry_equiv_pos_site_id
 _symmetry_equiv_pos_as_xyz
  1  'x, y, z'
loop_
 _atom_site_type_symbol
 _atom_site_label
 _atom_site_symmetry_multiplicity
 _atom_site_fract_x
 _atom_site_fract_y
 _atom_site_fract_z
 _atom_site_occupancy
  K  K0  1  0.63063055  0.02967801  0.25000000  1
  K  K1  1  0.36936945  0.97032199  0.75000000  1
  K  K2  1  0.13063055  0.47032199  0.75000000  1
  K  K3  1  0.86936945  0.52967801  0.25000000  1
  Pu  Pu0  1  0.15438264  0.16981847  0.05026560  1
  Pu  Pu1  1  0.84561736  0.83018153  0.94973440  1
  Pu  Pu2  1  0.65438264  0.33018153  0.94973440  1
  Pu  Pu3  1  0.84561736  0.83018153  0.55026560  1
  Pu  Pu4  1  0.34561736  0.66981847  0.05026560  1
  Pu  Pu5  1  0.15438264  0.16981847  0.44973440  1
  Pu  Pu6  1  0.34561736  0.66981847  0.44973440  1
  Pu  Pu7  1  0.65438264  0.33018153  0.55026560  1
  F  F0  1  0.19491035  0.43362762  0.07654137  1
  F  F1  1  0.80508965  0.56637238  0.92345863  1
  F  F2  1  0.69491035  0.06637238  0.92345863  1
  F  F3  1  0.80508965  0.56637238  0.57654137  1
  F  F4  1  0.30508965  0.93362762  0.07654137  1
  F  F5  1  0.19491035  0.43362762  0.42345863  1
  F  F6  1  0.30508965  0.93362762  0.42345863  1
  F  F7  1  0.69491035  0.06637238  0.57654137  1
  F  F8  1  0.07831869  0.00627563  0.60088414  1
  F  F9  1  0.92168131  0.99372437  0.39911586  1
  F  F10  1  0.57831869  0.49372437  0.39911586  1
  F  F11  1  0.92168131  0.99372437  0.10088414  1
  F  F12  1  0.42168131  0.50627563  0.60088414  1
  F  F13  1  0.07831869  0.00627563  0.89911586  1
  F  F14  1  0.42168131  0.50627563  0.89911586  1
  F  F15  1  0.57831869  0.49372437  0.10088414  1
  F  F16  1  0.47281507  0.21208403  0.09568894  1
  F  F17  1  0.52718493  0.78791597  0.90431106  1
  F  F18  1  0.97281507  0.28791597  0.90431106  1
  F  F19  1  0.52718493  0.78791597  0.59568894  1
  F  F20  1  0.02718493  0.71208403  0.09568894  1
  F  F21  1  0.47281507  0.21208403  0.40431106  1
  F  F22  1  0.02718493  0.71208403  0.40431106  1
  F  F23  1  0.97281507  0.28791597  0.59568894  1
  F  F24  1  0.16944295  0.17831259  0.25000000  1
  F  F25  1  0.83055705  0.82168741  0.75000000  1
  F  F26  1  0.66944295  0.32168741  0.75000000  1
  F  F27  1  0.33055705  0.67831259  0.25000000  1
  F  F28  1  0.35732091  0.21826280  0.60701074  1
  F  F29  1  0.64267909  0.78173720  0.39298926  1
  F  F30  1  0.85732091  0.28173720  0.39298926  1
  F  F31  1  0.64267909  0.78173720  0.10701074  1
  F  F32  1  0.14267909  0.71826280  0.60701074  1
  F  F33  1  0.35732091  0.21826280  0.89298926  1
  F  F34  1  0.14267909  0.71826280  0.89298926  1
  F  F35  1  0.85732091  0.28173720  0.10701074  1
loop_
_geom_bond_atom_site_label_1
_geom_bond_atom_site_label_2
_geom_bond_distance
_geom_bond_site_symmetry_2
F0 Pu4 2.311233 1_555
F0 Pu0 2.320973 1_555
F1 Pu2 2.311233 1_555
F1 Pu1 2.320973 1_555
F2 Pu1 2.311233 1_545
F2 Pu2 2.320973 1_555
F3 Pu7 2.311233 1_555
F3 Pu3 2.320973 1_555
F4 Pu0 2.311233 1_565
F4 Pu4 2.320973 1_555
F5 Pu6 2.311233 1_555
F5 Pu5 2.320973 1_555
F6 Pu5 2.311233 1_565
F6 Pu6 2.320973 1_555
F7 Pu3 2.311233 1_545
F7 Pu7 2.320973 1_555
F8 Pu3 2.281218 1_445
F8 Pu5 2.288675 1_555
F8 K1 2.638299 1_545
F9 Pu5 2.281218 1_665
F9 Pu3 2.288675 1_555
F9 K0 2.638299 1_565
F10 Pu6 2.281218 1_555
F10 Pu7 2.288675 1_555
F10 K3 2.638299 1_555
F11 Pu0 2.281218 1_665
F11 Pu1 2.288675 1_554
F11 K0 2.638299 1_565
F12 Pu7 2.281218 1_555
F12 Pu6 2.288675 1_555
F12 K2 2.638299 1_555
F13 Pu1 2.281218 1_445
F13 Pu0 2.288675 1_556
F13 K1 2.638299 1_545
F14 Pu2 2.281218 1_555
F14 Pu4 2.288675 1_556
F14 K2 2.638299 1_555
F15 Pu4 2.281218 1_555
F15 Pu2 2.288675 1_554
F15 K3 2.638299 1_555
F16 Pu0 2.273535 1_555
F16 Pu2 2.314311 1_554
F16 K0 2.598388 1_555
F17 Pu1 2.273535 1_555
F17 Pu4 2.314311 1_556
F17 K1 2.598388 1_555
F18 Pu2 2.273535 1_555
F18 Pu0 2.314311 1_656
F18 K2 2.598388 1_655
F19 Pu3 2.273535 1_555
F19 Pu6 2.314311 1_555
F19 K1 2.598388 1_555
F20 Pu4 2.273535 1_555
F20 Pu1 2.314311 1_454
F20 K3 2.598388 1_455
F21 Pu5 2.273535 1_555
F21 Pu7 2.314311 1_555
F21 K0 2.598388 1_555
F22 Pu6 2.273535 1_555
F22 Pu3 2.314311 1_455
F22 K3 2.598388 1_455
F23 Pu7 2.273535 1_555
F23 Pu5 2.314311 1_655
F23 K2 2.598388 1_655
F24 Pu5 2.276936 1_555
F24 Pu0 2.276936 1_555
F25 Pu1 2.276936 1_555
F25 Pu3 2.276936 1_555
F26 Pu2 2.276936 1_555
F26 Pu7 2.276936 1_555
F27 Pu6 2.276936 1_555
F27 Pu4 2.276936 1_555
F28 Pu5 2.305874 1_555
F28 Pu7 2.346466 1_555
F28 K1 2.695697 1_545
F29 Pu3 2.305874 1_555
F29 Pu6 2.346466 1_555
F29 K0 2.695697 1_565
F30 Pu7 2.305874 1_555
F30 Pu5 2.346466 1_655
F30 K3 2.695697 1_555
F31 Pu1 2.305874 1_554
F31 Pu4 2.346466 1_555
F31 K0 2.695697 1_565
F32 Pu6 2.305874 1_555
F32 Pu3 2.346466 1_455
F32 K2 2.695697 1_555
F33 Pu0 2.305874 1_556
F33 Pu2 2.346466 1_555
F33 K1 2.695697 1_545
F34 Pu4 2.305874 1_556
F34 Pu1 2.346466 1_455
F34 K2 2.695697 1_555
F35 Pu2 2.305874 1_554
F35 Pu0 2.346466 1_655
F35 K3 2.695697 1_555
