# generated using pymatgen
data_Al4Fe5Rh
_symmetry_space_group_name_H-M   'P 1'
_cell_length_a   5.70740600
_cell_length_b   5.70740600
_cell_length_c   30.09663800
_cell_angle_alpha   90.00000000
_cell_angle_beta   90.00000000
_cell_angle_gamma   90.00000000
_symmetry_Int_Tables_number   1
_chemical_formula_structural   Al4Fe5Rh
_chemical_formula_sum   'Al32 Fe40 Rh8'
_cell_volume   980.38243038
_cell_formula_units_Z   8
loop_
 _symmetry_equiv_pos_site_id
 _symmetry_equiv_pos_as_xyz
  1  'x, y, z'
loop_
 _atom_site_type_symbol
 _atom_site_label
 _atom_site_symmetry_multiplicity
 _atom_site_fract_x
 _atom_site_fract_y
 _atom_site_fract_z
 _atom_site_occupancy
  Al  Al0_0  1  0.00000000  0.00000000  0.10642500  1
  Al  Al0_1  1  0.00000000  0.00000000  0.60642500  1
  Al  Al0_2  1  0.00000000  0.50000000  0.10642500  1
  Al  Al0_3  1  0.00000000  0.50000000  0.60642500  1
  Al  Al0_4  1  0.50000000  0.00000000  0.10642500  1
  Al  Al0_5  1  0.50000000  0.00000000  0.60642500  1
  Al  Al0_6  1  0.50000000  0.50000000  0.10642500  1
  Al  Al0_7  1  0.50000000  0.50000000  0.60642500  1
  Al  Al1_0  1  0.00000000  0.00000000  0.19986150  1
  Al  Al1_1  1  0.00000000  0.00000000  0.69986150  1
  Al  Al1_2  1  0.00000000  0.50000000  0.19986150  1
  Al  Al1_3  1  0.00000000  0.50000000  0.69986150  1
  Al  Al1_4  1  0.50000000  0.00000000  0.19986150  1
  Al  Al1_5  1  0.50000000  0.00000000  0.69986150  1
  Al  Al1_6  1  0.50000000  0.50000000  0.19986150  1
  Al  Al1_7  1  0.50000000  0.50000000  0.69986150  1
  Al  Al2_0  1  0.00000000  0.00000000  0.30013850  1
  Al  Al2_1  1  0.00000000  0.00000000  0.80013850  1
  Al  Al2_2  1  0.00000000  0.50000000  0.30013850  1
  Al  Al2_3  1  0.00000000  0.50000000  0.80013850  1
  Al  Al2_4  1  0.50000000  0.00000000  0.30013850  1
  Al  Al2_5  1  0.50000000  0.00000000  0.80013850  1
  Al  Al2_6  1  0.50000000  0.50000000  0.30013850  1
  Al  Al2_7  1  0.50000000  0.50000000  0.80013850  1
  Al  Al3_0  1  0.00000000  0.00000000  0.39357500  1
  Al  Al3_1  1  0.00000000  0.00000000  0.89357500  1
  Al  Al3_2  1  0.00000000  0.50000000  0.39357500  1
  Al  Al3_3  1  0.00000000  0.50000000  0.89357500  1
  Al  Al3_4  1  0.50000000  0.00000000  0.39357500  1
  Al  Al3_5  1  0.50000000  0.00000000  0.89357500  1
  Al  Al3_6  1  0.50000000  0.50000000  0.39357500  1
  Al  Al3_7  1  0.50000000  0.50000000  0.89357500  1
  Fe  Fe0_0  1  0.25000000  0.25000000  0.05406600  1
  Fe  Fe0_1  1  0.25000000  0.25000000  0.55406600  1
  Fe  Fe0_2  1  0.25000000  0.75000000  0.05406600  1
  Fe  Fe0_3  1  0.25000000  0.75000000  0.55406600  1
  Fe  Fe0_4  1  0.75000000  0.25000000  0.05406600  1
  Fe  Fe0_5  1  0.75000000  0.25000000  0.55406600  1
  Fe  Fe0_6  1  0.75000000  0.75000000  0.05406600  1
  Fe  Fe0_7  1  0.75000000  0.75000000  0.55406600  1
  Fe  Fe1_0  1  0.25000000  0.25000000  0.15297700  1
  Fe  Fe1_1  1  0.25000000  0.25000000  0.65297700  1
  Fe  Fe1_2  1  0.25000000  0.75000000  0.15297700  1
  Fe  Fe1_3  1  0.25000000  0.75000000  0.65297700  1
  Fe  Fe1_4  1  0.75000000  0.25000000  0.15297700  1
  Fe  Fe1_5  1  0.75000000  0.25000000  0.65297700  1
  Fe  Fe1_6  1  0.75000000  0.75000000  0.15297700  1
  Fe  Fe1_7  1  0.75000000  0.75000000  0.65297700  1
  Fe  Fe2_0  1  0.25000000  0.25000000  0.25000000  1
  Fe  Fe2_1  1  0.25000000  0.25000000  0.75000000  1
  Fe  Fe2_2  1  0.25000000  0.75000000  0.25000000  1
  Fe  Fe2_3  1  0.25000000  0.75000000  0.75000000  1
  Fe  Fe2_4  1  0.75000000  0.25000000  0.25000000  1
  Fe  Fe2_5  1  0.75000000  0.25000000  0.75000000  1
  Fe  Fe2_6  1  0.75000000  0.75000000  0.25000000  1
  Fe  Fe2_7  1  0.75000000  0.75000000  0.75000000  1
  Fe  Fe3_0  1  0.25000000  0.25000000  0.34702300  1
  Fe  Fe3_1  1  0.25000000  0.25000000  0.84702300  1
  Fe  Fe3_2  1  0.25000000  0.75000000  0.34702300  1
  Fe  Fe3_3  1  0.25000000  0.75000000  0.84702300  1
  Fe  Fe3_4  1  0.75000000  0.25000000  0.34702300  1
  Fe  Fe3_5  1  0.75000000  0.25000000  0.84702300  1
  Fe  Fe3_6  1  0.75000000  0.75000000  0.34702300  1
  Fe  Fe3_7  1  0.75000000  0.75000000  0.84702300  1
  Fe  Fe4_0  1  0.25000000  0.25000000  0.44593400  1
  Fe  Fe4_1  1  0.25000000  0.25000000  0.94593400  1
  Fe  Fe4_2  1  0.25000000  0.75000000  0.44593400  1
  Fe  Fe4_3  1  0.25000000  0.75000000  0.94593400  1
  Fe  Fe4_4  1  0.75000000  0.25000000  0.44593400  1
  Fe  Fe4_5  1  0.75000000  0.25000000  0.94593400  1
  Fe  Fe4_6  1  0.75000000  0.75000000  0.44593400  1
  Fe  Fe4_7  1  0.75000000  0.75000000  0.94593400  1
  Rh  Rh0_0  1  0.00000000  0.00000000  0.00000000  1
  Rh  Rh0_1  1  0.00000000  0.00000000  0.50000000  1
  Rh  Rh0_2  1  0.00000000  0.50000000  0.00000000  1
  Rh  Rh0_3  1  0.00000000  0.50000000  0.50000000  1
  Rh  Rh0_4  1  0.50000000  0.00000000  0.00000000  1
  Rh  Rh0_5  1  0.50000000  0.00000000  0.50000000  1
  Rh  Rh0_6  1  0.50000000  0.50000000  0.00000000  1
  Rh  Rh0_7  1  0.50000000  0.50000000  0.50000000  1
loop_
_geom_bond_atom_site_label_1
_geom_bond_atom_site_label_2
_geom_bond_distance
_geom_bond_site_symmetry_2
Al0_0 Fe1_0 2.456578 1_555
Al0_0 Fe1_6 2.456578 1_445
Al0_0 Fe1_2 2.456578 1_545
Al0_0 Fe1_4 2.456578 1_455
Al0_0 Fe0_0 2.560283 1_555
Al0_0 Fe0_4 2.560283 1_455
Al0_0 Fe0_2 2.560283 1_545
Al0_0 Fe0_6 2.560283 1_445
Al0_1 Fe1_3 2.456578 1_545
Al0_1 Fe1_1 2.456578 1_555
Al0_1 Fe1_7 2.456578 1_445
Al0_1 Fe1_5 2.456578 1_455
Al0_1 Fe0_3 2.560283 1_545
Al0_1 Fe0_7 2.560283 1_445
Al0_1 Fe0_1 2.560283 1_555
Al0_1 Fe0_5 2.560283 1_455
Al0_2 Fe1_0 2.456578 1_555
Al0_2 Fe1_2 2.456578 1_555
Al0_2 Fe1_6 2.456578 1_455
Al0_2 Fe1_4 2.456578 1_455
Al0_2 Fe0_6 2.560283 1_455
Al0_2 Fe0_2 2.560283 1_555
Al0_2 Fe0_0 2.560283 1_555
Al0_2 Fe0_4 2.560283 1_455
Al0_3 Fe1_3 2.456578 1_555
Al0_3 Fe1_7 2.456578 1_455
Al0_3 Fe1_1 2.456578 1_555
Al0_3 Fe1_5 2.456578 1_455
Al0_3 Fe0_7 2.560283 1_455
Al0_3 Fe0_3 2.560283 1_555
Al0_3 Fe0_1 2.560283 1_555
Al0_3 Fe0_5 2.560283 1_455
Al0_4 Fe1_0 2.456578 1_555
Al0_4 Fe1_6 2.456578 1_545
Al0_4 Fe1_4 2.456578 1_555
Al0_4 Fe1_2 2.456578 1_545
Al0_4 Fe0_4 2.560283 1_555
Al0_4 Fe0_6 2.560283 1_545
Al0_4 Fe0_0 2.560283 1_555
Al0_4 Fe0_2 2.560283 1_545
Al0_5 Fe1_3 2.456578 1_545
Al0_5 Fe1_7 2.456578 1_545
Al0_5 Fe1_1 2.456578 1_555
Al0_5 Fe1_5 2.456578 1_555
Al0_5 Fe0_3 2.560283 1_545
Al0_5 Fe0_5 2.560283 1_555
Al0_5 Fe0_7 2.560283 1_545
Al0_5 Fe0_1 2.560283 1_555
Al0_6 Fe1_0 2.456578 1_555
Al0_6 Fe1_2 2.456578 1_555
Al0_6 Fe1_4 2.456578 1_555
Al0_6 Fe1_6 2.456578 1_555
Al0_6 Fe0_4 2.560283 1_555
Al0_6 Fe0_2 2.560283 1_555
Al0_6 Fe0_0 2.560283 1_555
Al0_6 Fe0_6 2.560283 1_555
Al0_7 Fe1_3 2.456578 1_555
Al0_7 Fe1_7 2.456578 1_555
Al0_7 Fe1_1 2.456578 1_555
Al0_7 Fe1_5 2.456578 1_555
Al0_7 Fe0_5 2.560283 1_555
Al0_7 Fe0_3 2.560283 1_555
Al0_7 Fe0_1 2.560283 1_555
Al0_7 Fe0_7 2.560283 1_555
Al1_0 Fe1_2 2.462299 1_545
Al1_0 Fe1_4 2.462299 1_455
Al1_0 Fe1_0 2.462299 1_555
Al1_0 Fe1_6 2.462299 1_445
Al1_0 Fe2_0 2.519701 1_555
Al1_0 Fe2_6 2.519701 1_445
Al1_0 Fe2_2 2.519701 1_545
Al1_0 Fe2_4 2.519701 1_455
Al1_1 Fe1_1 2.462299 1_555
Al1_1 Fe1_5 2.462299 1_455
Al1_1 Fe1_7 2.462299 1_445
Al1_1 Fe1_3 2.462299 1_545
Al1_1 Fe2_7 2.519701 1_445
Al1_1 Fe2_1 2.519701 1_555
Al1_1 Fe2_3 2.519701 1_545
Al1_1 Fe2_5 2.519701 1_455
Al1_2 Fe1_6 2.462299 1_455
Al1_2 Fe1_4 2.462299 1_455
Al1_2 Fe1_0 2.462299 1_555
Al1_2 Fe1_2 2.462299 1_555
Al1_2 Fe2_6 2.519701 1_455
Al1_2 Fe2_2 2.519701 1_555
Al1_2 Fe2_0 2.519701 1_555
Al1_2 Fe2_4 2.519701 1_455
Al1_3 Fe1_1 2.462299 1_555
Al1_3 Fe1_5 2.462299 1_455
Al1_3 Fe1_3 2.462299 1_555
Al1_3 Fe1_7 2.462299 1_455
Al1_3 Fe2_3 2.519701 1_555
Al1_3 Fe2_7 2.519701 1_455
Al1_3 Fe2_1 2.519701 1_555
Al1_3 Fe2_5 2.519701 1_455
Al1_4 Fe1_4 2.462299 1_555
Al1_4 Fe1_2 2.462299 1_545
Al1_4 Fe1_0 2.462299 1_555
Al1_4 Fe1_6 2.462299 1_545
Al1_4 Fe2_6 2.519701 1_545
Al1_4 Fe2_0 2.519701 1_555
Al1_4 Fe2_2 2.519701 1_545
Al1_4 Fe2_4 2.519701 1_555
Al1_5 Fe1_1 2.462299 1_555
Al1_5 Fe1_7 2.462299 1_545
Al1_5 Fe1_5 2.462299 1_555
Al1_5 Fe1_3 2.462299 1_545
Al1_5 Fe2_1 2.519701 1_555
Al1_5 Fe2_3 2.519701 1_545
Al1_5 Fe2_5 2.519701 1_555
Al1_5 Fe2_7 2.519701 1_545
Al1_6 Fe1_4 2.462299 1_555
Al1_6 Fe1_6 2.462299 1_555
Al1_6 Fe1_0 2.462299 1_555
Al1_6 Fe1_2 2.462299 1_555
Al1_6 Fe2_2 2.519701 1_555
Al1_6 Fe2_6 2.519701 1_555
Al1_6 Fe2_0 2.519701 1_555
Al1_6 Fe2_4 2.519701 1_555
Al1_7 Fe1_7 2.462299 1_555
Al1_7 Fe1_1 2.462299 1_555
Al1_7 Fe1_5 2.462299 1_555
Al1_7 Fe1_3 2.462299 1_555
Al1_7 Fe2_3 2.519701 1_555
Al1_7 Fe2_7 2.519701 1_555
Al1_7 Fe2_1 2.519701 1_555
Al1_7 Fe2_5 2.519701 1_555
Al2_0 Fe3_2 2.462299 1_545
Al2_0 Fe3_0 2.462299 1_555
Al2_0 Fe3_4 2.462299 1_455
Al2_0 Fe3_6 2.462299 1_445
Al2_0 Fe2_0 2.519701 1_555
Al2_0 Fe2_6 2.519701 1_445
Al2_0 Fe2_2 2.519701 1_545
Al2_0 Fe2_4 2.519701 1_455
Al2_1 Fe3_5 2.462299 1_455
Al2_1 Fe3_7 2.462299 1_445
Al2_1 Fe3_3 2.462299 1_545
Al2_1 Fe3_1 2.462299 1_555
Al2_1 Fe2_1 2.519701 1_555
Al2_1 Fe2_3 2.519701 1_545
Al2_1 Fe2_7 2.519701 1_445
Al2_1 Fe2_5 2.519701 1_455
Al2_2 Fe3_2 2.462299 1_555
Al2_2 Fe3_6 2.462299 1_455
Al2_2 Fe3_0 2.462299 1_555
Al2_2 Fe3_4 2.462299 1_455
Al2_2 Fe2_6 2.519701 1_455
Al2_2 Fe2_2 2.519701 1_555
Al2_2 Fe2_0 2.519701 1_555
Al2_2 Fe2_4 2.519701 1_455
Al2_3 Fe3_5 2.462299 1_455
Al2_3 Fe3_7 2.462299 1_455
Al2_3 Fe3_3 2.462299 1_555
Al2_3 Fe3_1 2.462299 1_555
Al2_3 Fe2_7 2.519701 1_455
Al2_3 Fe2_1 2.519701 1_555
Al2_3 Fe2_5 2.519701 1_455
Al2_3 Fe2_3 2.519701 1_555
Al2_4 Fe3_2 2.462299 1_545
Al2_4 Fe3_0 2.462299 1_555
Al2_4 Fe3_6 2.462299 1_545
Al2_4 Fe3_4 2.462299 1_555
Al2_4 Fe2_6 2.519701 1_545
Al2_4 Fe2_0 2.519701 1_555
Al2_4 Fe2_2 2.519701 1_545
Al2_4 Fe2_4 2.519701 1_555
Al2_5 Fe3_7 2.462299 1_545
Al2_5 Fe3_5 2.462299 1_555
Al2_5 Fe3_3 2.462299 1_545
Al2_5 Fe3_1 2.462299 1_555
Al2_5 Fe2_1 2.519701 1_555
Al2_5 Fe2_3 2.519701 1_545
Al2_5 Fe2_5 2.519701 1_555
Al2_5 Fe2_7 2.519701 1_545
Al2_6 Fe3_2 2.462299 1_555
Al2_6 Fe3_0 2.462299 1_555
Al2_6 Fe3_6 2.462299 1_555
Al2_6 Fe3_4 2.462299 1_555
Al2_6 Fe2_2 2.519701 1_555
Al2_6 Fe2_6 2.519701 1_555
Al2_6 Fe2_0 2.519701 1_555
Al2_6 Fe2_4 2.519701 1_555
Al2_7 Fe3_5 2.462299 1_555
Al2_7 Fe3_3 2.462299 1_555
Al2_7 Fe3_7 2.462299 1_555
Al2_7 Fe3_1 2.462299 1_555
Al2_7 Fe2_1 2.519701 1_555
Al2_7 Fe2_5 2.519701 1_555
Al2_7 Fe2_7 2.519701 1_555
Al2_7 Fe2_3 2.519701 1_555
Al3_0 Fe3_2 2.456578 1_545
Al3_0 Fe3_4 2.456578 1_455
Al3_0 Fe3_0 2.456578 1_555
Al3_0 Fe3_6 2.456578 1_445
Al3_0 Fe4_2 2.560283 1_545
Al3_0 Fe4_0 2.560283 1_555
Al3_0 Fe4_4 2.560283 1_455
Al3_0 Fe4_6 2.560283 1_445
Al3_1 Fe3_5 2.456578 1_455
Al3_1 Fe3_3 2.456578 1_545
Al3_1 Fe3_1 2.456578 1_555
Al3_1 Fe3_7 2.456578 1_445
Al3_1 Fe4_7 2.560283 1_445
Al3_1 Fe4_1 2.560283 1_555
Al3_1 Fe4_3 2.560283 1_545
Al3_1 Fe4_5 2.560283 1_455
Al3_2 Fe3_6 2.456578 1_455
Al3_2 Fe3_4 2.456578 1_455
Al3_2 Fe3_2 2.456578 1_555
Al3_2 Fe3_0 2.456578 1_555
Al3_2 Fe4_6 2.560283 1_455
Al3_2 Fe4_2 2.560283 1_555
Al3_2 Fe4_0 2.560283 1_555
Al3_2 Fe4_4 2.560283 1_455
Al3_3 Fe3_5 2.456578 1_455
Al3_3 Fe3_7 2.456578 1_455
Al3_3 Fe3_3 2.456578 1_555
Al3_3 Fe3_1 2.456578 1_555
Al3_3 Fe4_3 2.560283 1_555
Al3_3 Fe4_7 2.560283 1_455
Al3_3 Fe4_1 2.560283 1_555
Al3_3 Fe4_5 2.560283 1_455
Al3_4 Fe3_4 2.456578 1_555
Al3_4 Fe3_2 2.456578 1_545
Al3_4 Fe3_6 2.456578 1_545
Al3_4 Fe3_0 2.456578 1_555
Al3_4 Fe4_2 2.560283 1_545
Al3_4 Fe4_0 2.560283 1_555
Al3_4 Fe4_6 2.560283 1_545
Al3_4 Fe4_4 2.560283 1_555
Al3_5 Fe3_5 2.456578 1_555
Al3_5 Fe3_3 2.456578 1_545
Al3_5 Fe3_1 2.456578 1_555
Al3_5 Fe3_7 2.456578 1_545
Al3_5 Fe4_1 2.560283 1_555
Al3_5 Fe4_3 2.560283 1_545
Al3_5 Fe4_7 2.560283 1_545
Al3_5 Fe4_5 2.560283 1_555
Al3_6 Fe3_4 2.456578 1_555
Al3_6 Fe3_6 2.456578 1_555
Al3_6 Fe3_2 2.456578 1_555
Al3_6 Fe3_0 2.456578 1_555
Al3_6 Fe4_2 2.560283 1_555
Al3_6 Fe4_0 2.560283 1_555
Al3_6 Fe4_6 2.560283 1_555
Al3_6 Fe4_4 2.560283 1_555
Al3_7 Fe3_5 2.456578 1_555
Al3_7 Fe3_3 2.456578 1_555
Al3_7 Fe3_7 2.456578 1_555
Al3_7 Fe3_1 2.456578 1_555
Al3_7 Fe4_3 2.560283 1_555
Al3_7 Fe4_7 2.560283 1_555
Al3_7 Fe4_1 2.560283 1_555
Al3_7 Fe4_5 2.560283 1_555
Fe0_0 Rh0_0 2.592220 1_555
Fe0_0 Rh0_4 2.592220 1_555
Fe0_0 Rh0_6 2.592220 1_555
Fe0_0 Rh0_2 2.592220 1_555
Fe0_1 Rh0_1 2.592220 1_555
Fe0_1 Rh0_5 2.592220 1_555
Fe0_1 Rh0_3 2.592220 1_555
Fe0_1 Rh0_7 2.592220 1_555
Fe0_2 Rh0_4 2.592220 1_565
Fe0_2 Rh0_0 2.592220 1_565
Fe0_2 Rh0_6 2.592220 1_555
Fe0_2 Rh0_2 2.592220 1_555
Fe0_3 Rh0_1 2.592220 1_565
Fe0_3 Rh0_5 2.592220 1_565
Fe0_3 Rh0_3 2.592220 1_555
Fe0_3 Rh0_7 2.592220 1_555
Fe0_4 Rh0_2 2.592220 1_655
Fe0_4 Rh0_4 2.592220 1_555
Fe0_4 Rh0_6 2.592220 1_555
Fe0_4 Rh0_0 2.592220 1_655
Fe0_5 Rh0_3 2.592220 1_655
Fe0_5 Rh0_1 2.592220 1_655
Fe0_5 Rh0_5 2.592220 1_555
Fe0_5 Rh0_7 2.592220 1_555
Fe0_6 Rh0_4 2.592220 1_565
Fe0_6 Rh0_2 2.592220 1_655
Fe0_6 Rh0_6 2.592220 1_555
Fe0_6 Rh0_0 2.592220 1_665
Fe0_7 Rh0_3 2.592220 1_655
Fe0_7 Rh0_5 2.592220 1_565
Fe0_7 Rh0_1 2.592220 1_665
Fe0_7 Rh0_7 2.592220 1_555
Fe4_0 Rh0_5 2.592220 1_555
Fe4_0 Rh0_3 2.592220 1_555
Fe4_0 Rh0_7 2.592220 1_555
Fe4_0 Rh0_1 2.592220 1_555
Fe4_1 Rh0_2 2.592220 1_556
Fe4_1 Rh0_0 2.592220 1_556
Fe4_1 Rh0_6 2.592220 1_556
Fe4_1 Rh0_4 2.592220 1_556
Fe4_2 Rh0_1 2.592220 1_565
Fe4_2 Rh0_5 2.592220 1_565
Fe4_2 Rh0_3 2.592220 1_555
Fe4_2 Rh0_7 2.592220 1_555
Fe4_3 Rh0_2 2.592220 1_556
Fe4_3 Rh0_4 2.592220 1_566
Fe4_3 Rh0_6 2.592220 1_556
Fe4_3 Rh0_0 2.592220 1_566
Fe4_4 Rh0_1 2.592220 1_655
Fe4_4 Rh0_5 2.592220 1_555
Fe4_4 Rh0_7 2.592220 1_555
Fe4_4 Rh0_3 2.592220 1_655
Fe4_5 Rh0_0 2.592220 1_656
Fe4_5 Rh0_6 2.592220 1_556
Fe4_5 Rh0_2 2.592220 1_656
Fe4_5 Rh0_4 2.592220 1_556
Fe4_6 Rh0_1 2.592220 1_665
Fe4_6 Rh0_5 2.592220 1_565
Fe4_6 Rh0_7 2.592220 1_555
Fe4_6 Rh0_3 2.592220 1_655
Fe4_7 Rh0_0 2.592220 1_666
Fe4_7 Rh0_4 2.592220 1_566
Fe4_7 Rh0_6 2.592220 1_556
Fe4_7 Rh0_2 2.592220 1_656
Rh0_0 Rh0_4 2.853703 1_455
Rh0_0 Rh0_2 2.853703 1_555
Rh0_0 Rh0_4 2.853703 1_555
Rh0_0 Rh0_2 2.853703 1_545
Rh0_1 Rh0_5 2.853703 1_555
Rh0_1 Rh0_3 2.853703 1_555
Rh0_1 Rh0_3 2.853703 1_545
Rh0_1 Rh0_5 2.853703 1_455
Rh0_2 Rh0_6 2.853703 1_455
Rh0_2 Rh0_6 2.853703 1_555
Rh0_3 Rh0_7 2.853703 1_455
Rh0_3 Rh0_7 2.853703 1_555
Rh0_4 Rh0_6 2.853703 1_555
Rh0_4 Rh0_6 2.853703 1_545
Rh0_5 Rh0_7 2.853703 1_545
Rh0_5 Rh0_7 2.853703 1_555
