# generated using pymatgen
data_MgSnAs2O7
_symmetry_space_group_name_H-M   'P 1'
_cell_length_a   9.32886700
_cell_length_b   7.61175000
_cell_length_c   9.99900533
_cell_angle_alpha   61.57420743
_cell_angle_beta   90.00000000
_cell_angle_gamma   90.00000000
_symmetry_Int_Tables_number   1
_chemical_formula_structural   MgSnAs2O7
_chemical_formula_sum   'Mg4 Sn4 As8 O28'
_cell_volume   624.41547001
_cell_formula_units_Z   4
loop_
 _symmetry_equiv_pos_site_id
 _symmetry_equiv_pos_as_xyz
  1  'x, y, z'
loop_
 _atom_site_type_symbol
 _atom_site_label
 _atom_site_symmetry_multiplicity
 _atom_site_fract_x
 _atom_site_fract_y
 _atom_site_fract_z
 _atom_site_occupancy
  Mg  Mg0  1  0.06200600  0.73161400  0.90094100  1
  Mg  Mg1  1  0.56200600  0.26838600  0.59905900  1
  Mg  Mg2  1  0.93799400  0.26838600  0.09905900  1
  Mg  Mg3  1  0.43799400  0.73161400  0.40094100  1
  Sn  Sn0  1  0.96043200  0.23102400  0.62924200  1
  Sn  Sn1  1  0.46043200  0.76897600  0.87075800  1
  Sn  Sn2  1  0.03956800  0.76897600  0.37075800  1
  Sn  Sn3  1  0.53956800  0.23102400  0.12924200  1
  As  As0  1  0.78029000  0.57025100  0.75104500  1
  As  As1  1  0.28029000  0.42974900  0.74895500  1
  As  As2  1  0.21971000  0.42974900  0.24895500  1
  As  As3  1  0.71971000  0.57025100  0.25104500  1
  As  As4  1  0.74505000  0.00479700  0.94088900  1
  As  As5  1  0.24505000  0.99520300  0.55911100  1
  As  As6  1  0.25495000  0.99520300  0.05911100  1
  As  As7  1  0.75495000  0.00479700  0.44088900  1
  O  O0  1  0.77493200  0.13592900  0.03604200  1
  O  O1  1  0.27493200  0.86407100  0.46395800  1
  O  O2  1  0.22506800  0.86407100  0.96395800  1
  O  O3  1  0.72506800  0.13592900  0.53604200  1
  O  O4  1  0.61282200  0.63476000  0.77498300  1
  O  O5  1  0.11282200  0.36524000  0.72501700  1
  O  O6  1  0.38717800  0.36524000  0.22501700  1
  O  O7  1  0.88717800  0.63476000  0.27498300  1
  O  O8  1  0.90472400  0.54031300  0.88835600  1
  O  O9  1  0.40472400  0.45968700  0.61164400  1
  O  O10  1  0.09527600  0.45968700  0.11164400  1
  O  O11  1  0.59527600  0.54031300  0.38835600  1
  O  O12  1  0.84036300  0.77587300  0.57665000  1
  O  O13  1  0.34036300  0.22412700  0.92335000  1
  O  O14  1  0.15963700  0.22412700  0.42335000  1
  O  O15  1  0.65963700  0.77587300  0.07665000  1
  O  O16  1  0.89921700  0.06392000  0.32109900  1
  O  O17  1  0.39921700  0.93608000  0.17890100  1
  O  O18  1  0.10078300  0.93608000  0.67890100  1
  O  O19  1  0.60078300  0.06392000  0.82109900  1
  O  O20  1  0.72212300  0.37955500  0.20606100  1
  O  O21  1  0.22212300  0.62044500  0.29393900  1
  O  O22  1  0.27787700  0.62044500  0.79393900  1
  O  O23  1  0.77787700  0.37955500  0.70606100  1
  O  O24  1  0.60102900  0.95954300  0.36672900  1
  O  O25  1  0.10102900  0.04045700  0.13327100  1
  O  O26  1  0.39897100  0.04045700  0.63327100  1
  O  O27  1  0.89897100  0.95954300  0.86672900  1
loop_
_geom_bond_atom_site_label_1
_geom_bond_atom_site_label_2
_geom_bond_distance
_geom_bond_site_symmetry_2
Mg0 O18 2.047588 1_555
Mg0 O2 2.081439 1_555
Mg0 O8 2.112694 1_455
Mg0 O10 2.160468 1_556
Mg0 O27 2.207993 1_455
Mg0 O22 2.603498 1_555
Mg1 O19 2.047588 1_555
Mg1 O3 2.081439 1_555
Mg1 O9 2.112694 1_555
Mg1 O11 2.160468 1_555
Mg1 O26 2.207993 1_555
Mg1 O23 2.603498 1_555
Mg2 O16 2.047588 1_555
Mg2 O0 2.081439 1_555
Mg2 O10 2.112694 1_655
Mg2 O8 2.160468 1_554
Mg2 O25 2.207993 1_655
Mg2 O20 2.603498 1_555
Mg3 O17 2.047588 1_555
Mg3 O1 2.081439 1_555
Mg3 O11 2.112694 1_555
Mg3 O9 2.160468 1_555
Mg3 O24 2.207993 1_555
Mg3 O21 2.603498 1_555
As0 O4 1.688500 1_555
As0 O23 1.712116 1_555
As0 O8 1.728190 1_555
As0 O12 1.790566 1_555
As1 O5 1.688500 1_555
As1 O22 1.712116 1_555
As1 O9 1.728190 1_555
As1 O13 1.790566 1_555
As2 O6 1.688500 1_555
As2 O21 1.712116 1_555
As2 O10 1.728190 1_555
As2 O14 1.790566 1_555
As3 O7 1.688500 1_555
As3 O20 1.712116 1_555
As3 O11 1.728190 1_555
As3 O15 1.790566 1_555
As4 O0 1.698044 1_556
As4 O19 1.713280 1_555
As4 O27 1.724392 1_545
As4 O15 1.806105 1_546
As5 O1 1.698044 1_555
As5 O18 1.713280 1_555
As5 O26 1.724392 1_565
As5 O14 1.806105 1_565
As6 O2 1.698044 1_554
As6 O17 1.713280 1_555
As6 O25 1.724392 1_565
As6 O13 1.806105 1_564
As7 O3 1.698044 1_555
As7 O16 1.713280 1_555
As7 O24 1.724392 1_545
As7 O12 1.806105 1_545
O0 Sn3 2.618321 1_555
O1 Sn2 2.618321 1_555
O2 Sn1 2.618321 1_555
O3 Sn0 2.618321 1_555
O4 Sn1 2.216588 1_555
O5 Sn0 2.216588 1_455
O6 Sn3 2.216588 1_555
O7 Sn2 2.216588 1_655
O16 Sn2 2.437165 1_645
O17 Sn3 2.437165 1_565
O18 Sn0 2.437165 1_465
O19 Sn1 2.437165 1_545
O20 Sn3 2.365437 1_555
O21 Sn2 2.365437 1_555
O22 Sn1 2.365437 1_555
O23 Sn0 2.365437 1_555
O24 Sn3 2.359262 1_565
O25 Sn2 2.359262 1_545
O26 Sn1 2.359262 1_545
O27 Sn0 2.359262 1_565
