# generated using pymatgen
data_RbTi3AlO8
_symmetry_space_group_name_H-M   'P 1'
_cell_length_a   2.98418100
_cell_length_b   7.31750857
_cell_length_c   7.33243804
_cell_angle_alpha   87.68447532
_cell_angle_beta   101.62847596
_cell_angle_gamma   101.72157613
_symmetry_Int_Tables_number   1
_chemical_formula_structural   RbTi3AlO8
_chemical_formula_sum   'Rb1 Ti3 Al1 O8'
_cell_volume   153.55989067
_cell_formula_units_Z   1
loop_
 _symmetry_equiv_pos_site_id
 _symmetry_equiv_pos_as_xyz
  1  'x, y, z'
loop_
 _atom_site_type_symbol
 _atom_site_label
 _atom_site_symmetry_multiplicity
 _atom_site_fract_x
 _atom_site_fract_y
 _atom_site_fract_z
 _atom_site_occupancy
  Rb  Rb0  1  0.06359700  0.00480500  0.00427200  1
  Ti  Ti0  1  0.84027500  0.50967600  0.16887500  1
  Ti  Ti1  1  0.67213100  0.80461600  0.52158800  1
  Ti  Ti2  1  0.33103400  0.18543700  0.49166000  1
  Al  Al0  1  0.16872300  0.48575200  0.81560000  1
  O  O0  1  0.35038300  0.37105400  0.29039900  1
  O  O1  1  0.68257700  0.62186700  0.70675200  1
  O  O2  1  0.98556400  0.29963000  0.63088100  1
  O  O3  1  0.05889500  0.70961200  0.37127100  1
  O  O4  1  0.36129000  0.63971400  0.04404100  1
  O  O5  1  0.67665000  0.36504800  0.94582000  1
  O  O6  1  0.73323500  0.05392100  0.36587000  1
  O  O7  1  0.31564500  0.94886800  0.64297100  1
loop_
_geom_bond_atom_site_label_1
_geom_bond_atom_site_label_2
_geom_bond_distance
_geom_bond_site_symmetry_2
Al0 O2 1.880510 1_455
Al0 O1 1.946546 1_555
Al0 O1 1.946749 1_455
Al0 O5 1.954030 1_455
Al0 O5 1.970203 1_555
Al0 O4 1.976517 1_556
O0 Ti0 1.951858 1_555
O0 Ti2 1.966341 1_555
O0 Ti0 2.036601 1_455
O1 Ti1 1.867024 1_555
O2 Ti2 1.909553 1_655
O2 Ti2 2.038977 1_555
O3 Ti1 1.943946 1_555
O3 Ti1 1.982673 1_455
O3 Ti0 2.041037 1_455
O4 Ti0 1.934228 1_555
O4 Ti0 2.015669 1_455
O4 Rb0 2.967891 1_565
O4 Rb0 3.085955 1_665
O5 Ti0 1.908244 1_556
O5 Rb0 2.957171 1_556
O5 Rb0 3.067895 1_656
O6 Ti2 1.915770 1_655
O6 Ti2 2.050557 1_555
O6 Ti1 2.108421 1_545
O6 Rb0 2.966753 1_555
O6 Rb0 3.066871 1_655
O7 Ti1 1.987954 1_555
O7 Ti2 2.015636 1_565
O7 Ti1 2.038980 1_455
O7 Rb0 2.961019 1_566
O7 Rb0 3.082286 1_666
