# generated using pymatgen
data_Ba2AlNi2F11
_symmetry_space_group_name_H-M   'P 1'
_cell_length_a   7.39039628
_cell_length_b   7.39039628
_cell_length_c   14.22427400
_cell_angle_alpha   90.00000000
_cell_angle_beta   90.00000000
_cell_angle_gamma   120.00000248
_symmetry_Int_Tables_number   1
_chemical_formula_structural   Ba2AlNi2F11
_chemical_formula_sum   'Ba6 Al3 Ni6 F33'
_cell_volume   672.81580144
_cell_formula_units_Z   3
loop_
 _symmetry_equiv_pos_site_id
 _symmetry_equiv_pos_as_xyz
  1  'x, y, z'
loop_
 _atom_site_type_symbol
 _atom_site_label
 _atom_site_symmetry_multiplicity
 _atom_site_fract_x
 _atom_site_fract_y
 _atom_site_fract_z
 _atom_site_occupancy
  Ba  Ba0  1  0.87354500  0.85907300  0.66710400  1
  Ba  Ba1  1  0.51293000  0.17075200  0.80053500  1
  Ba  Ba2  1  0.98552700  0.12645500  0.00043700  1
  Ba  Ba3  1  0.82924800  0.34217800  0.46720200  1
  Ba  Ba4  1  0.65782200  0.48707000  0.13386900  1
  Ba  Ba5  1  0.14092700  0.01447300  0.33377000  1
  Al  Al0  1  0.50121900  0.67548000  0.87438200  1
  Al  Al1  1  0.17426100  0.49878100  0.20771500  1
  Al  Al2  1  0.32452000  0.82573900  0.54104800  1
  Ni  Ni0  1  0.98299400  0.66357100  0.88484800  1
  Ni  Ni1  1  0.13754100  0.43712400  0.71902700  1
  Ni  Ni2  1  0.56287600  0.70041700  0.38569400  1
  Ni  Ni3  1  0.68057700  0.01700600  0.21818100  1
  Ni  Ni4  1  0.29958300  0.86245900  0.05236100  1
  Ni  Ni5  1  0.33642900  0.31942300  0.55151500  1
  F  F0  1  0.00066300  0.74966600  0.02039600  1
  F  F1  1  0.84415900  0.37039800  0.92628600  1
  F  F2  1  0.74900300  0.99933700  0.35372900  1
  F  F3  1  0.41176800  0.09153100  0.49591600  1
  F  F4  1  0.86363700  0.90826900  0.17773500  1
  F  F5  1  0.24844100  0.30067400  0.18778500  1
  F  F6  1  0.90846900  0.32023700  0.16258300  1
  F  F7  1  0.69932600  0.94776700  0.85445200  1
  F  F8  1  0.04463100  0.13636300  0.51106900  1
  F  F9  1  0.59295500  0.00043700  0.08653800  1
  F  F10  1  0.67976300  0.58823200  0.82924900  1
  F  F11  1  0.25033400  0.25099700  0.68706300  1
  F  F12  1  0.60360300  0.68335000  0.98758000  1
  F  F13  1  0.36006800  0.14778900  0.01991500  1
  F  F14  1  0.07974700  0.39639700  0.32091300  1
  F  F15  1  0.62960200  0.47376100  0.59295300  1
  F  F16  1  0.32100200  0.77716500  0.91257800  1
  F  F17  1  0.40748200  0.40704500  0.41987100  1
  F  F18  1  0.32496400  0.74853800  0.41854000  1
  F  F19  1  0.31665000  0.92025300  0.65424600  1
  F  F20  1  0.42357400  0.67503600  0.75187300  1
  F  F21  1  0.85221100  0.21227900  0.68658200  1
  F  F22  1  0.78772100  0.63993200  0.35324800  1
  F  F23  1  0.45616400  0.67899800  0.24591100  1
  F  F24  1  0.99956300  0.59251800  0.75320500  1
  F  F25  1  0.09173100  0.95536900  0.84440200  1
  F  F26  1  0.52623900  0.15584100  0.25962000  1
  F  F27  1  0.28096600  0.41065900  0.87880500  1
  F  F28  1  0.12969300  0.71903400  0.21213900  1
  F  F29  1  0.25146200  0.57642600  0.08520600  1
  F  F30  1  0.05223300  0.75155900  0.52111900  1
  F  F31  1  0.22283500  0.54383600  0.57924400  1
  F  F32  1  0.58934100  0.87030700  0.54547200  1
loop_
_geom_bond_atom_site_label_1
_geom_bond_atom_site_label_2
_geom_bond_distance
_geom_bond_site_symmetry_2
Ba0 F21 2.706847 1_565
Ba0 F15 2.708838 1_555
Ba0 F32 2.754308 1_555
Ba0 F30 2.781462 1_655
Ba0 F24 2.843002 1_555
Ba0 F8 2.851888 1_665
Ba0 F11 2.856342 1_665
Ba0 F25 2.884298 1_655
Ba0 F10 2.917252 1_555
Ba0 F19 3.079130 1_655
Ba0 F20 3.136800 1_555
Ba0 F7 3.167497 1_555
Ba1 F19 2.678800 1_545
Ba1 F10 2.720706 1_555
Ba1 F7 2.733431 1_545
Ba1 F25 2.767285 1_545
Ba1 F1 2.785134 1_555
Ba1 F11 2.806076 1_555
Ba1 F21 2.870389 1_555
Ba1 F16 2.981099 1_545
Ba1 F27 3.218912 1_555
Ba1 F13 3.294083 1_556
Ba2 F13 2.706854 1_655
Ba2 F1 2.708833 1_554
Ba2 F27 2.754311 1_654
Ba2 F7 2.781458 1_544
Ba2 F9 2.842996 1_555
Ba2 F25 2.851888 1_644
Ba2 F0 2.856346 1_645
Ba2 F4 2.884298 1_545
Ba2 F6 2.917260 1_555
Ba2 F12 3.079126 1_544
Ba2 F29 3.136801 1_655
Ba2 F5 3.167500 1_655
Ba3 F14 2.678800 1_655
Ba3 F3 2.720706 1_555
Ba3 F30 2.733431 1_655
Ba3 F8 2.767279 1_655
Ba3 F15 2.785134 1_555
Ba3 F2 2.806084 1_545
Ba3 F22 2.870397 1_555
Ba3 F31 2.981091 1_655
Ba3 F32 3.218911 1_545
Ba3 F21 3.294083 1_555
Ba4 F12 2.678800 1_554
Ba4 F6 2.720707 1_555
Ba4 F5 2.733427 1_555
Ba4 F4 2.767282 1_555
Ba4 F26 2.785134 1_555
Ba4 F0 2.806084 1_655
Ba4 F13 2.870397 1_555
Ba4 F23 2.981086 1_555
Ba4 F28 3.218911 1_655
Ba4 F22 3.294069 1_555
Ba5 F22 2.706850 1_445
Ba5 F26 2.708834 1_555
Ba5 F28 2.754304 1_545
Ba5 F5 2.781458 1_555
Ba5 F17 2.842997 1_555
Ba5 F4 2.851888 1_445
Ba5 F2 2.856339 1_445
Ba5 F8 2.884310 1_555
Ba5 F3 2.917264 1_555
Ba5 F14 3.079122 1_555
Ba5 F18 3.136812 1_545
Ba5 F30 3.167513 1_545
Al0 F12 1.767631 1_555
Al0 F27 1.816090 1_555
Al0 F7 1.824037 1_555
Al0 F20 1.834139 1_555
Al0 F10 1.849279 1_555
Al0 F16 1.906492 1_555
Al1 F14 1.767631 1_555
Al1 F28 1.816090 1_555
Al1 F5 1.824037 1_555
Al1 F29 1.834139 1_555
Al1 F6 1.849274 1_455
Al1 F23 1.906498 1_555
Al2 F19 1.767631 1_555
Al2 F32 1.816090 1_555
Al2 F30 1.824035 1_555
Al2 F18 1.834125 1_555
Al2 F3 1.849274 1_565
Al2 F31 1.906499 1_555
F0 Ni4 1.985039 1_555
F0 Ni0 2.014019 1_454
F1 Ni0 1.967621 1_555
F2 Ni2 1.985039 1_555
F2 Ni3 2.014019 1_565
F3 Ni5 2.170202 1_555
F4 Ni3 1.973390 1_565
F6 Ni3 2.170197 1_555
F8 Ni5 1.973395 1_555
F9 Ni4 1.940640 1_545
F9 Ni3 1.965042 1_555
F10 Ni0 2.170202 1_555
F11 Ni1 1.985036 1_555
F11 Ni5 2.014019 1_555
F13 Ni4 1.979099 1_545
F15 Ni5 1.967621 1_555
F16 Ni4 2.115555 1_556
F16 Ni0 2.236812 1_455
F17 Ni2 1.940640 1_555
F17 Ni5 1.965055 1_555
F18 Ni2 2.015329 1_555
F20 Ni1 2.015329 1_555
F21 Ni1 1.979096 1_655
F22 Ni2 1.979099 1_555
F23 Ni2 2.115552 1_555
F23 Ni3 2.236810 1_565
F24 Ni1 1.940644 1_655
F24 Ni0 1.965042 1_555
F25 Ni0 1.973397 1_455
F26 Ni3 1.967625 1_555
F29 Ni4 2.015325 1_555
F31 Ni1 2.115553 1_555
F31 Ni5 2.236802 1_555
