# generated using pymatgen
data_Mg3Si4
_symmetry_space_group_name_H-M   'P 1'
_cell_length_a   7.13175921
_cell_length_b   13.32853429
_cell_length_c   6.65002594
_cell_angle_alpha   116.38735247
_cell_angle_beta   107.93206398
_cell_angle_gamma   96.73128258
_symmetry_Int_Tables_number   1
_chemical_formula_structural   Mg3Si4
_chemical_formula_sum   'Mg12 Si16'
_cell_volume   514.26421019
_cell_formula_units_Z   4
loop_
 _symmetry_equiv_pos_site_id
 _symmetry_equiv_pos_as_xyz
  1  'x, y, z'
loop_
 _atom_site_type_symbol
 _atom_site_label
 _atom_site_symmetry_multiplicity
 _atom_site_fract_x
 _atom_site_fract_y
 _atom_site_fract_z
 _atom_site_occupancy
  Mg  Mg0  1  0.83387000  0.56021400  0.88075000  1
  Mg  Mg1  1  0.54039600  0.61898900  0.22184300  1
  Mg  Mg2  1  0.01918200  0.06240800  0.19842500  1
  Mg  Mg3  1  0.23161800  0.90552100  0.86628400  1
  Mg  Mg4  1  0.41935000  0.22279000  0.92834600  1
  Mg  Mg5  1  0.82583900  0.15576000  0.84336700  1
  Mg  Mg6  1  0.45705700  0.65145900  0.69796000  1
  Mg  Mg7  1  0.95776500  0.61652900  0.52647500  1
  Mg  Mg8  1  0.14748100  0.44510400  0.12820800  1
  Mg  Mg9  1  0.90218800  0.34260500  0.36375200  1
  Mg  Mg10  1  0.32945300  0.96148000  0.45599900  1
  Mg  Mg11  1  0.65867100  0.90718800  0.21032400  1
  Si  Si0  1  0.05060500  0.05261000  0.60168600  1
  Si  Si1  1  0.55658900  0.87134600  0.72842200  1
  Si  Si2  1  0.18533300  0.53063000  0.81128400  1
  Si  Si3  1  0.54391200  0.44717200  0.38747500  1
  Si  Si4  1  0.73775500  0.28717700  0.63521000  1
  Si  Si5  1  0.44765000  0.12103900  0.32717700  1
  Si  Si6  1  0.23864100  0.72598500  0.39327200  1
  Si  Si7  1  0.89707000  0.76404500  0.32018900  1
  Si  Si8  1  0.06251900  0.24623900  0.66091100  1
  Si  Si9  1  0.42028300  0.42570500  0.69913600  1
  Si  Si10  1  0.86047500  0.91710200  0.66866500  1
  Si  Si11  1  0.61959400  0.07507700  0.04516100  1
  Si  Si12  1  0.70068600  0.40762300  0.01197500  1
  Si  Si13  1  0.25685400  0.27069400  0.27879900  1
  Si  Si14  1  0.27439200  0.74840600  0.05097100  1
  Si  Si15  1  0.91821500  0.79294000  0.97475900  1
loop_
_geom_bond_atom_site_label_1
_geom_bond_atom_site_label_2
_geom_bond_distance
_geom_bond_site_symmetry_2
Mg0 Si2 2.726622 1_655
Mg0 Si12 2.726762 1_556
Mg0 Si7 2.822881 1_556
Mg0 Si15 2.825200 1_555
Mg0 Si3 2.829502 1_555
Mg0 Si9 2.831085 1_555
Mg0 Si4 3.134295 1_555
Mg0 Si6 3.253304 1_656
Mg1 Si7 2.708308 1_555
Mg1 Si2 2.727432 1_554
Mg1 Si3 2.949036 1_555
Mg1 Si6 2.957997 1_555
Mg1 Si14 3.007899 1_555
Mg1 Si9 3.023671 1_554
Mg1 Si12 3.071436 1_555
Mg2 Si0 2.684559 1_555
Mg2 Si11 2.768703 1_455
Mg2 Si13 2.808173 1_555
Mg2 Si5 2.813476 1_555
Mg2 Si8 2.845491 1_555
Mg2 Si10 2.899821 1_444
Mg2 Si15 3.101007 1_444
Mg3 Si10 2.625087 1_455
Mg3 Si1 2.757532 1_555
Mg3 Si14 2.862158 1_556
Mg3 Si5 2.871936 1_566
Mg3 Si11 2.880298 1_566
Mg3 Si15 2.989392 1_455
Mg3 Si6 3.009584 1_555
Mg3 Si7 3.155852 1_455
Mg4 Si12 2.709322 1_556
Mg4 Si0 2.735653 1_555
Mg4 Si8 2.762307 1_555
Mg4 Si13 2.774149 1_556
Mg4 Si11 2.802589 1_556
Mg4 Si3 2.940407 1_556
Mg5 Si0 2.679876 1_655
Mg5 Si11 2.692236 1_556
Mg5 Si4 2.693799 1_555
Mg5 Si8 2.803612 1_655
Mg5 Si10 2.933475 1_545
Mg5 Si13 3.106847 1_656
Mg6 Si6 2.779700 1_555
Mg6 Si1 2.833790 1_555
Mg6 Si2 2.857157 1_555
Mg6 Si3 2.871661 1_555
Mg6 Si14 2.908462 1_556
Mg6 Si9 2.993314 1_555
Mg6 Si15 3.081196 1_555
Mg7 Si2 2.828825 1_655
Mg7 Si7 2.857692 1_555
Mg7 Si6 2.912354 1_655
Mg7 Si15 2.989623 1_555
Mg7 Si14 3.020643 1_656
Mg7 Si12 3.048459 1_555
Mg7 Si3 3.092672 1_555
Mg8 Si3 2.811509 1_555
Mg8 Si8 2.862179 1_554
Mg8 Si2 2.868415 1_554
Mg8 Si12 2.960971 1_455
Mg8 Si13 3.004753 1_555
Mg8 Si4 3.200381 1_454
Mg8 Si6 3.225417 1_555
Mg9 Si4 2.732339 1_555
Mg9 Si2 2.774669 1_655
Mg9 Si8 2.840989 1_655
Mg9 Si12 2.883123 1_555
Mg9 Si13 2.933017 1_655
Mg9 Si3 3.063282 1_555
Mg9 Si11 3.199378 1_555
Mg10 Si0 2.659971 1_565
Mg10 Si5 2.758819 1_565
Mg10 Si14 2.786084 1_555
Mg10 Si1 2.816542 1_555
Mg10 Si6 2.939187 1_555
Mg10 Si15 3.189874 1_454
Mg11 Si14 2.823324 1_555
Mg11 Si0 2.847756 1_665
Mg11 Si1 2.854662 1_554
Mg11 Si10 2.876659 1_555
Mg11 Si7 2.880806 1_555
Mg11 Si11 2.904089 1_565
Mg11 Si15 2.919747 1_554
Si0 Si10 2.410802 1_445
Si0 Si8 2.418123 1_555
Si1 Si10 2.379639 1_555
Si1 Si6 2.425410 1_555
Si1 Si11 2.461556 1_566
Si2 Si9 2.389856 1_555
Si3 Si9 2.597680 1_555
Si4 Si5 2.380007 1_555
Si4 Si8 2.413884 1_655
Si6 Si7 2.491476 1_455
Si10 Si7 2.427987 1_555
Si11 Si5 2.442787 1_555
Si12 Si4 2.420063 1_554
Si12 Si9 2.526262 1_554
Si12 Si3 2.907016 1_555
Si13 Si9 2.395085 1_555
Si13 Si3 2.587527 1_555
Si13 Si5 2.621242 1_555
Si14 Si2 2.490232 1_554
Si14 Si6 2.506010 1_555
Si14 Si15 2.624835 1_454
Si15 Si7 2.536511 1_556
