# generated using pymatgen
data_Mg6ZnFe
_symmetry_space_group_name_H-M   'P 1'
_cell_length_a   4.80195800
_cell_length_b   6.03599200
_cell_length_c   10.37731800
_cell_angle_alpha   90.00000000
_cell_angle_beta   90.00000000
_cell_angle_gamma   90.00000000
_symmetry_Int_Tables_number   1
_chemical_formula_structural   Mg6ZnFe
_chemical_formula_sum   'Mg12 Zn2 Fe2'
_cell_volume   300.78220451
_cell_formula_units_Z   2
loop_
 _symmetry_equiv_pos_site_id
 _symmetry_equiv_pos_as_xyz
  1  'x, y, z'
loop_
 _atom_site_type_symbol
 _atom_site_label
 _atom_site_symmetry_multiplicity
 _atom_site_fract_x
 _atom_site_fract_y
 _atom_site_fract_z
 _atom_site_occupancy
  Mg  Mg0  1  0.00000000  0.26589500  0.09301300  1
  Mg  Mg1  1  0.00000000  0.73410500  0.09301300  1
  Mg  Mg2  1  0.00000000  0.50000000  0.83515300  1
  Mg  Mg3  1  0.50000000  0.24276300  0.91262600  1
  Mg  Mg4  1  0.50000000  0.75723700  0.91262600  1
  Mg  Mg5  1  0.50000000  0.50000000  0.66532700  1
  Mg  Mg6  1  0.00000000  0.76589500  0.59301300  1
  Mg  Mg7  1  0.00000000  0.23410500  0.59301300  1
  Mg  Mg8  1  0.00000000  0.00000000  0.33515300  1
  Mg  Mg9  1  0.50000000  0.74276300  0.41262600  1
  Mg  Mg10  1  0.50000000  0.25723700  0.41262600  1
  Mg  Mg11  1  0.50000000  0.00000000  0.16532700  1
  Zn  Zn0  1  0.00000000  0.50000000  0.32218300  1
  Zn  Zn1  1  0.00000000  0.00000000  0.82218300  1
  Fe  Fe0  1  0.50000000  0.50000000  0.16605900  1
  Fe  Fe1  1  0.50000000  0.00000000  0.66605900  1
loop_
_geom_bond_atom_site_label_1
_geom_bond_atom_site_label_2
_geom_bond_distance
_geom_bond_site_symmetry_2
Mg0 Zn0 2.766301 1_555
Mg0 Mg1 2.826112 1_555
Mg0 Mg8 2.981579 1_555
Mg0 Mg11 2.983902 1_455
Mg0 Mg11 2.983902 1_555
Mg0 Mg2 3.026077 1_554
Mg0 Mg3 3.047676 1_554
Mg0 Mg3 3.047676 1_454
Mg0 Mg1 3.209880 1_545
Mg0 Zn1 3.236461 1_554
Mg1 Zn0 2.766301 1_555
Mg1 Mg8 2.981579 1_565
Mg1 Mg11 2.983902 1_565
Mg1 Mg11 2.983902 1_465
Mg1 Mg2 3.026077 1_554
Mg1 Mg4 3.047676 1_554
Mg1 Mg4 3.047676 1_454
Mg1 Zn1 3.236461 1_564
Mg2 Mg4 2.970164 1_555
Mg2 Mg4 2.970164 1_455
Mg2 Mg3 2.970164 1_455
Mg2 Mg3 2.970164 1_555
Mg2 Mg5 2.978345 1_455
Mg2 Mg5 2.978345 1_555
Mg2 Mg6 2.981579 1_555
Mg2 Mg7 2.981579 1_555
Mg2 Zn1 3.020996 1_555
Mg2 Zn1 3.020996 1_565
Mg3 Mg4 2.930631 1_545
Mg3 Zn1 2.965255 1_555
Mg3 Zn1 2.965255 1_655
Mg3 Mg5 2.999452 1_555
Mg3 Mg4 3.105361 1_555
Mg4 Zn1 2.965255 1_565
Mg4 Zn1 2.965255 1_665
Mg4 Mg5 2.999452 1_555
Mg5 Mg6 2.983902 1_555
Mg5 Mg6 2.983902 1_655
Mg5 Mg7 2.983902 1_555
Mg5 Mg7 2.983902 1_655
Mg5 Mg9 3.003983 1_555
Mg6 Zn1 2.766301 1_565
Mg6 Mg7 2.826112 1_565
Mg6 Mg8 3.026077 1_565
Mg6 Mg9 3.047676 1_455
Mg6 Mg9 3.047676 1_555
Mg6 Mg7 3.209880 1_555
Mg6 Zn0 3.236461 1_555
Mg7 Zn1 2.766301 1_555
Mg7 Mg8 3.026077 1_555
Mg7 Zn0 3.236461 1_555
Mg8 Mg9 2.970164 1_545
Mg8 Mg9 2.970164 1_445
Mg8 Zn0 3.020996 1_555
Mg8 Zn0 3.020996 1_545
Mg9 Zn0 2.965255 1_655
Mg9 Zn0 2.965255 1_555
Mg10 Mg9 2.930631 1_555
Mg10 Zn0 2.965255 1_655
Mg10 Zn0 2.965255 1_555
Mg10 Mg8 2.970164 1_555
Mg10 Mg8 2.970164 1_655
Mg10 Mg11 2.999452 1_555
Mg10 Mg5 3.003983 1_555
Mg10 Mg7 3.047676 1_555
Mg10 Mg7 3.047676 1_655
Mg10 Mg9 3.105361 1_545
Mg11 Mg8 2.978345 1_655
Mg11 Mg8 2.978345 1_555
Mg11 Mg9 2.999452 1_545
Mg11 Mg3 3.003983 1_554
Mg11 Mg4 3.003983 1_544
Fe0 Mg1 2.887217 1_655
Fe0 Mg0 2.887217 1_555
Fe0 Mg0 2.887217 1_655
Fe0 Mg1 2.887217 1_555
Fe0 Zn0 2.896477 1_555
Fe0 Zn0 2.896477 1_655
Fe0 Mg9 2.948579 1_555
Fe0 Mg10 2.948579 1_555
Fe0 Mg11 3.018006 1_565
Fe0 Mg11 3.018006 1_555
Fe0 Mg4 3.054092 1_554
Fe0 Mg3 3.054092 1_554
Fe1 Mg7 2.887217 1_555
Fe1 Mg7 2.887217 1_655
Fe1 Mg6 2.887217 1_545
Fe1 Mg6 2.887217 1_645
Fe1 Zn1 2.896477 1_555
Fe1 Zn1 2.896477 1_655
Fe1 Mg3 2.948579 1_555
Fe1 Mg4 2.948579 1_545
Fe1 Mg5 3.018006 1_545
Fe1 Mg5 3.018006 1_555
Fe1 Mg9 3.054092 1_545
Fe1 Mg10 3.054092 1_555
