# generated using pymatgen
data_Li9Mn2Co5O16
_symmetry_space_group_name_H-M   'P 1'
_cell_length_a   5.01851359
_cell_length_b   9.76960748
_cell_length_c   5.85435100
_cell_angle_alpha   90.00000000
_cell_angle_beta   90.00000000
_cell_angle_gamma   99.45411945
_symmetry_Int_Tables_number   1
_chemical_formula_structural   Li9Mn2Co5O16
_chemical_formula_sum   'Li9 Mn2 Co5 O16'
_cell_volume   283.13380353
_cell_formula_units_Z   1
loop_
 _symmetry_equiv_pos_site_id
 _symmetry_equiv_pos_as_xyz
  1  'x, y, z'
loop_
 _atom_site_type_symbol
 _atom_site_label
 _atom_site_symmetry_multiplicity
 _atom_site_fract_x
 _atom_site_fract_y
 _atom_site_fract_z
 _atom_site_occupancy
  Li  Li0  1  0.24934500  0.25005400  0.24990400  1
  Li  Li1  1  0.75065500  0.74994600  0.24990400  1
  Li  Li2  1  0.74899700  0.25338800  0.50440400  1
  Li  Li3  1  0.25100300  0.74661200  0.50440400  1
  Li  Li4  1  0.24738800  0.25210500  0.74931300  1
  Li  Li5  1  0.75261200  0.74789500  0.74931300  1
  Li  Li6  1  0.76164100  0.25816700  0.99618500  1
  Li  Li7  1  0.23835900  0.74183300  0.99618500  1
  Li  Li8  1  0.00000000  0.50000000  0.75033500  1
  Mn  Mn0  1  0.00000000  0.00000000  0.00167900  1
  Mn  Mn1  1  0.50000000  0.50000000  0.50058600  1
  Co  Co0  1  0.50000000  0.50000000  0.98983400  1
  Co  Co1  1  0.50000000  0.00000000  0.25214100  1
  Co  Co2  1  0.00000000  0.50000000  0.25490300  1
  Co  Co3  1  0.00000000  0.00000000  0.50650800  1
  Co  Co4  1  0.50000000  0.00000000  0.74628900  1
  O  O0  1  0.87628400  0.11461800  0.23799800  1
  O  O1  1  0.35639100  0.61096200  0.26044900  1
  O  O2  1  0.36502000  0.11571500  0.49012900  1
  O  O3  1  0.86050400  0.60834200  0.48227100  1
  O  O4  1  0.89090000  0.11928500  0.76229800  1
  O  O5  1  0.39603700  0.61720600  0.73582600  1
  O  O6  1  0.35631900  0.11324700  0.00528500  1
  O  O7  1  0.86338600  0.60615200  0.02480100  1
  O  O8  1  0.64360900  0.38903800  0.26044900  1
  O  O9  1  0.12371600  0.88538200  0.23799800  1
  O  O10  1  0.13949600  0.39165800  0.48227100  1
  O  O11  1  0.63498000  0.88428500  0.49012900  1
  O  O12  1  0.60396300  0.38279400  0.73582600  1
  O  O13  1  0.10910000  0.88071500  0.76229800  1
  O  O14  1  0.13661400  0.39384800  0.02480100  1
  O  O15  1  0.64368100  0.88675300  0.00528500  1
loop_
_geom_bond_atom_site_label_1
_geom_bond_atom_site_label_2
_geom_bond_distance
_geom_bond_site_symmetry_2
Li0 O2 2.070662 1_555
Li0 O14 2.071553 1_555
Li0 O10 2.078187 1_555
Li0 O6 2.088340 1_555
Li0 O0 2.108784 1_455
Li0 O8 2.209033 1_555
Li1 O11 2.070662 1_555
Li1 O7 2.071553 1_555
Li1 O3 2.078187 1_555
Li1 O15 2.088340 1_555
Li1 O9 2.108784 1_655
Li1 O1 2.209033 1_555
Li2 O12 2.065415 1_555
Li2 O8 2.075094 1_555
Li2 O2 2.162843 1_555
Li2 O4 2.193081 1_555
Li2 O10 2.193722 1_655
Li2 O0 2.227783 1_555
Li3 O5 2.065415 1_555
Li3 O1 2.075094 1_555
Li3 O11 2.162843 1_555
Li3 O13 2.193081 1_555
Li3 O3 2.193722 1_455
Li3 O9 2.227783 1_555
Li4 O12 2.021892 1_555
Li4 O4 2.031643 1_455
Li4 O6 2.151386 1_556
Li4 O2 2.164433 1_555
Li4 O10 2.199676 1_555
Li4 O14 2.254036 1_556
Li5 O5 2.021892 1_555
Li5 O13 2.031643 1_655
Li5 O15 2.151386 1_556
Li5 O11 2.164433 1_555
Li5 O3 2.199676 1_555
Li5 O7 2.254036 1_556
Li6 O4 2.103752 1_555
Li6 O14 2.122943 1_656
Li6 O0 2.137041 1_556
Li6 O8 2.151252 1_556
Li6 O12 2.179086 1_555
Li6 O6 2.280105 1_556
Li7 O13 2.103752 1_555
Li7 O7 2.122943 1_456
Li7 O9 2.137041 1_556
Li7 O1 2.151252 1_556
Li7 O5 2.179086 1_555
Li7 O15 2.280105 1_556
Li8 O3 2.077662 1_455
Li8 O10 2.077662 1_555
Li8 O14 2.088300 1_556
Li8 O7 2.088300 1_456
Li8 O12 2.126253 1_455
Li8 O5 2.126253 1_555
Mn0 O6 1.942217 1_555
Mn0 O15 1.942217 1_445
Mn0 O9 1.944691 1_545
Mn0 O0 1.944691 1_455
Mn0 O13 1.957410 1_544
Mn0 O4 1.957410 1_454
Mn1 O12 1.917354 1_555
Mn1 O5 1.917354 1_555
Mn1 O10 1.943173 1_555
Mn1 O3 1.943173 1_555
Mn1 O1 1.981832 1_555
Mn1 O8 1.981832 1_555
Co0 O14 1.954950 1_556
Co0 O7 1.954950 1_556
Co0 O12 1.997737 1_555
Co0 O5 1.997737 1_555
Co0 O1 2.112151 1_556
Co0 O8 2.112151 1_556
Co1 O11 1.982332 1_545
Co1 O2 1.982332 1_555
Co1 O15 2.023521 1_545
Co1 O6 2.023521 1_555
Co1 O0 2.032753 1_555
Co1 O9 2.032753 1_545
Co2 O14 1.895731 1_555
Co2 O7 1.895731 1_455
Co2 O10 1.904115 1_555
Co2 O3 1.904115 1_455
Co2 O8 1.933442 1_455
Co2 O1 1.933442 1_555
Co3 O2 1.990624 1_555
Co3 O11 1.990624 1_445
Co3 O13 2.027297 1_545
Co3 O4 2.027297 1_455
Co3 O0 2.082978 1_455
Co3 O9 2.082978 1_545
Co4 O2 2.058496 1_555
Co4 O11 2.058496 1_545
Co4 O15 2.074877 1_546
Co4 O6 2.074877 1_556
Co4 O13 2.112876 1_545
Co4 O4 2.112876 1_555
