# generated using pymatgen
data_NdSm3
_symmetry_space_group_name_H-M   'P 1'
_cell_length_a   5.15155301
_cell_length_b   5.15155301
_cell_length_c   5.15155301
_cell_angle_alpha   90.00000000
_cell_angle_beta   90.00000000
_cell_angle_gamma   90.00000000
_symmetry_Int_Tables_number   1
_chemical_formula_structural   NdSm3
_chemical_formula_sum   'Nd1 Sm3'
_cell_volume   136.71448139
_cell_formula_units_Z   1
loop_
 _symmetry_equiv_pos_site_id
 _symmetry_equiv_pos_as_xyz
  1  'x, y, z'
loop_
 _atom_site_type_symbol
 _atom_site_label
 _atom_site_symmetry_multiplicity
 _atom_site_fract_x
 _atom_site_fract_y
 _atom_site_fract_z
 _atom_site_occupancy
  Nd  Nd0  1  -0.00000000  0.00000000  -0.00000000  1
  Sm  Sm0  1  -0.00000000  0.50000000  0.50000000  1
  Sm  Sm1  1  0.50000000  -0.00000000  0.50000000  1
  Sm  Sm2  1  0.50000000  0.50000000  -0.00000000  1
loop_
_geom_bond_atom_site_label_1
_geom_bond_atom_site_label_2
_geom_bond_distance
_geom_bond_site_symmetry_2
Nd0 Sm0 3.642698 1_544
Nd0 Sm0 3.642698 1_555
Nd0 Sm0 3.642698 1_545
Nd0 Sm1 3.642698 1_455
Nd0 Sm2 3.642698 1_545
Nd0 Sm2 3.642698 1_555
Nd0 Sm2 3.642698 1_445
Nd0 Sm1 3.642698 1_554
Nd0 Sm0 3.642698 1_554
Nd0 Sm2 3.642698 1_455
Nd0 Sm1 3.642698 1_555
Nd0 Sm1 3.642698 1_454
Sm0 Sm2 3.642698 1_556
Sm0 Sm1 3.642698 1_565
Sm0 Sm1 3.642698 1_455
Sm0 Sm2 3.642698 1_555
Sm0 Sm1 3.642698 1_465
Sm0 Sm2 3.642698 1_455
Sm0 Sm2 3.642698 1_456
Sm0 Sm1 3.642698 1_555
Sm1 Sm2 3.642698 1_556
Sm1 Sm2 3.642698 1_545
Sm1 Sm2 3.642698 1_555
Sm1 Sm2 3.642698 1_546
