# generated using pymatgen
data_Mg3Co2O7
_symmetry_space_group_name_H-M   'P 1'
_cell_length_a   9.09144362
_cell_length_b   9.09144362
_cell_length_c   5.18755000
_cell_angle_alpha   90.00000000
_cell_angle_beta   90.00000000
_cell_angle_gamma   148.26932065
_symmetry_Int_Tables_number   1
_chemical_formula_structural   Mg3Co2O7
_chemical_formula_sum   'Mg6 Co4 O14'
_cell_volume   225.50365438
_cell_formula_units_Z   2
loop_
 _symmetry_equiv_pos_site_id
 _symmetry_equiv_pos_as_xyz
  1  'x, y, z'
loop_
 _atom_site_type_symbol
 _atom_site_label
 _atom_site_symmetry_multiplicity
 _atom_site_fract_x
 _atom_site_fract_y
 _atom_site_fract_z
 _atom_site_occupancy
  Mg  Mg0  1  0.22810800  0.22810800  0.32117000  1
  Mg  Mg1  1  0.77189200  0.77189200  0.82117000  1
  Mg  Mg2  1  0.05068700  0.43494700  0.17429100  1
  Mg  Mg3  1  0.94931300  0.56505300  0.67429100  1
  Mg  Mg4  1  0.43494700  0.05068700  0.17429100  1
  Mg  Mg5  1  0.56505300  0.94931300  0.67429100  1
  Co  Co0  1  0.85047200  0.64696400  0.25102200  1
  Co  Co1  1  0.14952800  0.35303600  0.75102200  1
  Co  Co2  1  0.35303600  0.14952800  0.75102200  1
  Co  Co3  1  0.64696400  0.85047200  0.25102200  1
  O  O0  1  0.65848200  0.06365600  0.29269000  1
  O  O1  1  0.34151800  0.93634400  0.79269000  1
  O  O2  1  0.93634400  0.34151800  0.79269000  1
  O  O3  1  0.06365600  0.65848200  0.29269000  1
  O  O4  1  0.42417300  0.68984300  0.95144700  1
  O  O5  1  0.57582700  0.31015700  0.45144700  1
  O  O6  1  0.31015700  0.57582700  0.45144700  1
  O  O7  1  0.68984300  0.42417300  0.95144700  1
  O  O8  1  0.98686000  0.13849300  0.06137500  1
  O  O9  1  0.01314000  0.86150700  0.56137500  1
  O  O10  1  0.61986100  0.61986100  0.19717600  1
  O  O11  1  0.38013900  0.38013900  0.69717600  1
  O  O12  1  0.13849300  0.98686000  0.06137500  1
  O  O13  1  0.86150700  0.01314000  0.56137500  1
loop_
_geom_bond_atom_site_label_1
_geom_bond_atom_site_label_2
_geom_bond_distance
_geom_bond_site_symmetry_2
Mg0 O10 2.050805 1_555
Mg0 O8 2.061776 1_455
Mg0 O12 2.061776 1_545
Mg0 O11 2.091829 1_555
Mg0 O13 2.323871 1_455
Mg0 O9 2.323871 1_545
Mg0 O5 2.644893 1_555
Mg0 O6 2.644893 1_555
Mg1 O11 2.050805 1_555
Mg1 O9 2.061776 1_655
Mg1 O13 2.061776 1_565
Mg1 O10 2.091829 1_556
Mg1 O8 2.323871 1_566
Mg1 O12 2.323871 1_656
Mg1 O7 2.644893 1_555
Mg1 O4 2.644893 1_555
Mg2 O0 2.002882 1_455
Mg2 O3 2.028203 1_555
Mg2 O6 2.032924 1_555
Mg2 O2 2.053979 1_454
Mg2 O4 2.202513 1_554
Mg2 O8 2.298589 1_455
Mg3 O1 2.002882 1_655
Mg3 O2 2.028203 1_555
Mg3 O7 2.032924 1_555
Mg3 O3 2.053979 1_655
Mg3 O5 2.202513 1_555
Mg3 O9 2.298589 1_655
Mg4 O3 2.002882 1_545
Mg4 O0 2.028203 1_555
Mg4 O5 2.032924 1_555
Mg4 O1 2.053979 1_544
Mg4 O7 2.202513 1_554
Mg4 O12 2.298589 1_545
Mg5 O2 2.002882 1_565
Mg5 O1 2.028203 1_555
Mg5 O4 2.032924 1_555
Mg5 O0 2.053979 1_565
Mg5 O6 2.202513 1_555
Mg5 O13 2.298589 1_565
Co0 O3 1.862492 1_655
Co0 O12 1.899792 1_655
Co0 O7 1.902297 1_554
Co0 O10 1.911971 1_555
Co0 O9 1.917486 1_655
Co0 O5 1.919899 1_555
Co1 O2 1.862492 1_455
Co1 O13 1.899792 1_455
Co1 O6 1.902297 1_555
Co1 O11 1.911971 1_555
Co1 O8 1.917486 1_456
Co1 O4 1.919899 1_555
Co2 O1 1.862492 1_545
Co2 O9 1.899792 1_545
Co2 O5 1.902297 1_555
Co2 O11 1.911971 1_555
Co2 O12 1.917486 1_546
Co2 O7 1.919899 1_555
Co3 O0 1.862492 1_565
Co3 O8 1.899792 1_565
Co3 O4 1.902297 1_554
Co3 O10 1.911971 1_555
Co3 O13 1.917486 1_565
Co3 O6 1.919899 1_555
