# generated using pymatgen
data_KAlSi3O8
_symmetry_space_group_name_H-M   'P 1'
_cell_length_a   7.96330968
_cell_length_b   7.96330968
_cell_length_c   7.22998264
_cell_angle_alpha   76.14148229
_cell_angle_beta   76.14148229
_cell_angle_gamma   113.54285351
_symmetry_Int_Tables_number   1
_chemical_formula_structural   KAlSi3O8
_chemical_formula_sum   'K2 Al2 Si6 O16'
_cell_volume   378.04085354
_cell_formula_units_Z   2
loop_
 _symmetry_equiv_pos_site_id
 _symmetry_equiv_pos_as_xyz
  1  'x, y, z'
loop_
 _atom_site_type_symbol
 _atom_site_label
 _atom_site_symmetry_multiplicity
 _atom_site_fract_x
 _atom_site_fract_y
 _atom_site_fract_z
 _atom_site_occupancy
  K  K0  1  0.28241400  0.29466600  0.86128700  1
  K  K1  1  0.70533400  0.71758600  0.13871300  1
  Al  Al0  1  0.59269400  0.82819500  0.65674300  1
  Al  Al1  1  0.17180500  0.40730600  0.34325700  1
  Si  Si0  1  0.83419800  0.59585600  0.65469800  1
  Si  Si1  1  0.40414400  0.16580200  0.34530200  1
  Si  Si2  1  0.82985600  0.19954000  0.77415100  1
  Si  Si3  1  0.19659600  0.82045900  0.77843100  1
  Si  Si4  1  0.17954100  0.80340400  0.22156900  1
  Si  Si5  1  0.80046000  0.17014400  0.22584900  1
  O  O0  1  0.84682300  0.15317700  0.00000000  1
  O  O1  1  0.14724300  0.85275700  0.00000000  1
  O  O2  1  0.64697400  0.63260500  0.71578500  1
  O  O3  1  0.36739500  0.35302600  0.28421500  1
  O  O4  1  0.74115000  0.35517000  0.73726600  1
  O  O5  1  0.33250900  0.71718200  0.75145400  1
  O  O6  1  0.28281800  0.66749100  0.24854600  1
  O  O7  1  0.64483000  0.25885000  0.26273400  1
  O  O8  1  0.05391700  0.30353000  0.61067400  1
  O  O9  1  0.30363800  0.04379400  0.59721500  1
  O  O10  1  0.95620600  0.69636200  0.40278500  1
  O  O11  1  0.69647000  0.94608300  0.38932600  1
  O  O12  1  0.68129200  0.98890800  0.77866600  1
  O  O13  1  0.97972000  0.68912300  0.77227400  1
  O  O14  1  0.31087700  0.02028000  0.22772600  1
  O  O15  1  0.01109200  0.31870800  0.22133400  1
loop_
_geom_bond_atom_site_label_1
_geom_bond_atom_site_label_2
_geom_bond_distance
_geom_bond_site_symmetry_2
K0 O2 2.777826 1_555
K0 O8 2.867007 1_555
K0 O0 2.996237 1_456
K0 O1 3.051937 1_546
K0 O15 3.058772 1_556
K0 O5 3.099431 1_555
K0 O9 3.099548 1_555
K0 O14 3.123281 1_556
K0 O4 3.346456 1_555
K0 O3 3.382995 1_556
K1 O3 2.777826 1_555
K1 O11 2.867007 1_555
K1 O0 2.996237 1_565
K1 O1 3.051937 1_655
K1 O12 3.058772 1_554
K1 O6 3.099431 1_555
K1 O10 3.099548 1_555
K1 O13 3.123281 1_554
K1 O7 3.346456 1_555
K1 O2 3.382995 1_554
Al0 O12 1.740623 1_555
Al0 O11 1.745758 1_555
Al0 O2 1.761454 1_555
Al0 O5 1.763634 1_555
Al1 O15 1.740623 1_555
Al1 O8 1.745758 1_555
Al1 O3 1.761454 1_555
Al1 O6 1.763634 1_555
O0 Si5 1.636342 1_555
O0 Si2 1.636342 1_554
O1 Si4 1.662332 1_555
O1 Si3 1.662332 1_554
O2 Si0 1.612011 1_555
O3 Si1 1.612011 1_555
O4 Si0 1.638419 1_555
O4 Si2 1.654490 1_555
O5 Si3 1.603948 1_555
O6 Si4 1.603948 1_555
O7 Si1 1.638419 1_555
O7 Si5 1.654490 1_555
O8 Si2 1.614564 1_455
O9 Si1 1.653643 1_555
O9 Si3 1.656457 1_545
O10 Si0 1.653643 1_555
O10 Si4 1.656457 1_655
O11 Si5 1.614564 1_565
O12 Si2 1.607525 1_565
O13 Si3 1.641550 1_655
O13 Si0 1.644366 1_555
O14 Si4 1.641550 1_545
O14 Si1 1.644366 1_555
O15 Si5 1.607525 1_455
