# generated using pymatgen
data_CaMn4O8
_symmetry_space_group_name_H-M   'P 1'
_cell_length_a   5.81000100
_cell_length_b   6.46595976
_cell_length_c   9.40720800
_cell_angle_alpha   90.00064003
_cell_angle_beta   90.00127769
_cell_angle_gamma   63.32100191
_symmetry_Int_Tables_number   1
_chemical_formula_structural   CaMn4O8
_chemical_formula_sum   'Ca2 Mn8 O16'
_cell_volume   315.77810904
_cell_formula_units_Z   2
loop_
 _symmetry_equiv_pos_site_id
 _symmetry_equiv_pos_as_xyz
  1  'x, y, z'
loop_
 _atom_site_type_symbol
 _atom_site_label
 _atom_site_symmetry_multiplicity
 _atom_site_fract_x
 _atom_site_fract_y
 _atom_site_fract_z
 _atom_site_occupancy
  Ca  Ca0  1  0.38309500  0.98443800  0.54702200  1
  Ca  Ca1  1  0.11707200  0.51556100  0.04701600  1
  Mn  Mn0  1  0.08766700  0.57465600  0.36612800  1
  Mn  Mn1  1  0.59597100  0.55800400  0.35779100  1
  Mn  Mn2  1  0.90401900  0.94200700  0.85779700  1
  Mn  Mn3  1  0.41233400  0.92534400  0.86613500  1
  Mn  Mn4  1  0.11709800  0.01290400  0.14804200  1
  Mn  Mn5  1  0.62007000  0.01295500  0.14803100  1
  Mn  Mn6  1  0.87992100  0.48699700  0.64804000  1
  Mn  Mn7  1  0.38282400  0.48715900  0.64801900  1
  O  O0  1  0.95935400  0.83128100  0.22958900  1
  O  O1  1  0.43819400  0.87368000  0.25273400  1
  O  O2  1  0.09074400  0.08725900  0.76186100  1
  O  O3  1  0.57210100  0.08726200  0.76186600  1
  O  O4  1  0.92790700  0.41272100  0.26185100  1
  O  O5  1  0.40925700  0.41274200  0.26184800  1
  O  O6  1  0.06176800  0.62632900  0.75273300  1
  O  O7  1  0.54063500  0.66872700  0.72959100  1
  O  O8  1  0.30607200  0.13798600  0.02903600  1
  O  O9  1  0.80053800  0.14912100  0.02954700  1
  O  O10  1  0.73625100  0.78534300  0.96313600  1
  O  O11  1  0.22835500  0.78531700  0.96312400  1
  O  O12  1  0.19390600  0.36202000  0.52902800  1
  O  O13  1  0.69940200  0.35088300  0.52953900  1
  O  O14  1  0.76379400  0.71461900  0.46311800  1
  O  O15  1  0.27165000  0.71470400  0.46311700  1
loop_
_geom_bond_atom_site_label_1
_geom_bond_atom_site_label_2
_geom_bond_distance
_geom_bond_site_symmetry_2
Ca0 O12 2.188065 1_565
Ca0 O14 2.256970 1_555
Ca0 O15 2.257906 1_555
Ca0 O7 2.505359 1_555
Ca0 O3 2.527483 1_565
Ca0 O2 2.529379 1_565
Ca0 O1 2.841422 1_555
Ca1 O8 2.188013 1_555
Ca1 O10 2.257240 1_454
Ca1 O11 2.257419 1_554
Ca1 O0 2.505419 1_455
Ca1 O4 2.528024 1_455
Ca1 O5 2.528745 1_555
Ca1 O6 2.841391 1_554
Mn0 O14 1.913938 1_455
Mn0 O15 1.914230 1_555
Mn0 O4 1.947528 1_455
Mn0 O5 1.947549 1_555
Mn0 O0 1.961664 1_455
Mn0 O12 1.964082 1_555
Mn1 O5 1.946414 1_555
Mn1 O4 1.946671 1_555
Mn1 O15 1.960757 1_555
Mn1 O14 1.960758 1_555
Mn1 O13 2.010566 1_555
Mn1 O1 2.074396 1_555
Mn2 O2 1.946418 1_665
Mn2 O3 1.946514 1_565
Mn2 O11 1.960789 1_655
Mn2 O10 1.960850 1_555
Mn2 O9 2.010555 1_566
Mn2 O6 2.074435 1_655
Mn3 O11 1.914146 1_555
Mn3 O10 1.914162 1_555
Mn3 O3 1.947469 1_565
Mn3 O2 1.947491 1_565
Mn3 O7 1.961657 1_555
Mn3 O8 1.964109 1_566
Mn4 O1 1.937146 1_545
Mn4 O0 1.942713 1_445
Mn4 O8 1.977466 1_555
Mn4 O9 1.986530 1_455
Mn4 O11 2.180650 1_544
Mn4 O4 2.546758 1_455
Mn5 O1 1.937097 1_545
Mn5 O0 1.942916 1_545
Mn5 O8 1.977463 1_555
Mn5 O9 1.986447 1_555
Mn5 O10 2.180564 1_544
Mn5 O5 2.546699 1_555
Mn6 O6 1.937149 1_655
Mn6 O7 1.942977 1_555
Mn6 O12 1.977536 1_655
Mn6 O13 1.986487 1_555
Mn6 O14 2.180802 1_555
Mn6 O2 2.546464 1_655
Mn7 O6 1.937096 1_555
Mn7 O7 1.942779 1_555
Mn7 O12 1.977350 1_555
Mn7 O13 1.986573 1_555
Mn7 O15 2.180389 1_555
Mn7 O3 2.547325 1_555
