# generated using pymatgen
data_Fe5(OF4)2
_symmetry_space_group_name_H-M   'P 1'
_cell_length_a   4.78924300
_cell_length_b   4.79064400
_cell_length_c   16.05825200
_cell_angle_alpha   90.00000000
_cell_angle_beta   90.00000000
_cell_angle_gamma   90.00000000
_symmetry_Int_Tables_number   1
_chemical_formula_structural   Fe5(OF4)2
_chemical_formula_sum   'Fe10 O4 F16'
_cell_volume   368.43344003
_cell_formula_units_Z   2
loop_
 _symmetry_equiv_pos_site_id
 _symmetry_equiv_pos_as_xyz
  1  'x, y, z'
loop_
 _atom_site_type_symbol
 _atom_site_label
 _atom_site_symmetry_multiplicity
 _atom_site_fract_x
 _atom_site_fract_y
 _atom_site_fract_z
 _atom_site_occupancy
  Fe  Fe0  1  0.98223900  0.73178500  0.90103800  1
  Fe  Fe1  1  0.98223900  0.73178500  0.09896200  1
  Fe  Fe2  1  0.01062100  0.74507000  0.30633600  1
  Fe  Fe3  1  0.02992300  0.72000000  0.50000000  1
  Fe  Fe4  1  0.01062100  0.74507000  0.69366400  1
  Fe  Fe5  1  0.52992300  0.28000000  0.00000000  1
  Fe  Fe6  1  0.48223900  0.26821500  0.40103800  1
  Fe  Fe7  1  0.51062100  0.25493000  0.19366400  1
  Fe  Fe8  1  0.48223900  0.26821500  0.59896200  1
  Fe  Fe9  1  0.51062100  0.25493000  0.80633600  1
  O  O0  1  0.19693600  0.55339800  0.40578400  1
  O  O1  1  0.19693600  0.55339800  0.59421600  1
  O  O2  1  0.69693600  0.44660200  0.90578400  1
  O  O3  1  0.69693600  0.44660200  0.09421600  1
  F  F0  1  0.19914100  0.54824300  0.00000000  1
  F  F1  1  0.19675900  0.55472000  0.19751500  1
  F  F2  1  0.19675900  0.55472000  0.80248500  1
  F  F3  1  0.69675900  0.44528000  0.30248500  1
  F  F4  1  0.69914100  0.45175700  0.50000000  1
  F  F5  1  0.69675900  0.44528000  0.69751500  1
  F  F6  1  0.29040000  0.03930600  0.90888600  1
  F  F7  1  0.29040000  0.03930600  0.09111400  1
  F  F8  1  0.30936400  0.05923400  0.30002200  1
  F  F9  1  0.29829800  0.05067900  0.50000000  1
  F  F10  1  0.30936400  0.05923400  0.69997800  1
  F  F11  1  0.79829800  0.94932100  0.00000000  1
  F  F12  1  0.79040000  0.96069400  0.40888600  1
  F  F13  1  0.80936400  0.94076600  0.19997800  1
  F  F14  1  0.80936400  0.94076600  0.80002200  1
  F  F15  1  0.79040000  0.96069400  0.59111400  1
loop_
_geom_bond_atom_site_label_1
_geom_bond_atom_site_label_2
_geom_bond_distance
_geom_bond_site_symmetry_2
Fe0 O2 1.933739 1_555
Fe1 O3 1.933739 1_555
Fe2 O0 2.046863 1_555
Fe3 O1 1.888332 1_555
Fe3 O0 1.888332 1_555
Fe4 O1 2.046863 1_555
Fe5 O2 1.888332 1_554
Fe5 O3 1.888332 1_555
Fe6 O0 1.933739 1_555
Fe7 O3 2.046863 1_555
Fe8 O1 1.933739 1_555
Fe9 O2 2.046863 1_555
F0 Fe5 2.039864 1_555
F0 Fe1 2.092285 1_455
F0 Fe0 2.092285 1_454
F1 Fe1 2.068732 1_455
F1 Fe7 2.079892 1_555
F1 Fe2 2.163315 1_555
F2 Fe0 2.068732 1_455
F2 Fe9 2.079892 1_555
F2 Fe4 2.163315 1_555
F3 Fe6 2.068732 1_555
F3 Fe2 2.079892 1_655
F3 Fe7 2.163315 1_555
F4 Fe3 2.039864 1_655
F4 Fe8 2.092285 1_555
F4 Fe6 2.092285 1_555
F5 Fe8 2.068732 1_555
F5 Fe4 2.079892 1_655
F5 Fe9 2.163315 1_555
F6 Fe0 2.089121 1_445
F6 Fe5 2.187753 1_556
F6 Fe9 2.211624 1_555
F7 Fe1 2.089121 1_445
F7 Fe5 2.187753 1_555
F7 Fe7 2.211624 1_555
F8 Fe6 2.078252 1_555
F8 Fe2 2.079063 1_545
F8 Fe7 2.173700 1_555
F9 Fe3 2.040002 1_545
F9 Fe6 2.094641 1_555
F9 Fe8 2.094641 1_555
F10 Fe8 2.078252 1_555
F10 Fe4 2.079063 1_545
F10 Fe9 2.173700 1_555
F11 Fe5 2.040002 1_565
F11 Fe1 2.094641 1_555
F11 Fe0 2.094641 1_554
F12 Fe6 2.089121 1_565
F12 Fe3 2.187753 1_655
F12 Fe2 2.211624 1_655
F13 Fe1 2.078252 1_555
F13 Fe7 2.079063 1_565
F13 Fe2 2.173700 1_655
F14 Fe0 2.078252 1_555
F14 Fe9 2.079063 1_565
F14 Fe4 2.173700 1_655
F15 Fe8 2.089121 1_565
F15 Fe3 2.187753 1_655
F15 Fe4 2.211624 1_655
