# generated using pymatgen
data_NpH28C12(N2O3)6
_symmetry_space_group_name_H-M   'P 1'
_cell_length_a   11.67848047
_cell_length_b   11.67848047
_cell_length_c   12.89789026
_cell_angle_alpha   66.71623679
_cell_angle_beta   66.71623679
_cell_angle_gamma   62.77760983
_symmetry_Int_Tables_number   1
_chemical_formula_structural   NpH28C12(N2O3)6
_chemical_formula_sum   'Np2 H56 C24 N24 O36'
_cell_volume   1386.45348577
_cell_formula_units_Z   2
loop_
 _symmetry_equiv_pos_site_id
 _symmetry_equiv_pos_as_xyz
  1  'x, y, z'
loop_
 _atom_site_type_symbol
 _atom_site_label
 _atom_site_symmetry_multiplicity
 _atom_site_fract_x
 _atom_site_fract_y
 _atom_site_fract_z
 _atom_site_occupancy
  Np  Np0  1  0.44923400  0.55076600  0.75000000  1
  Np  Np1  1  0.55076600  0.44923400  0.25000000  1
  H  H0  1  0.77429700  0.54635200  0.72872300  1
  H  H1  1  0.45364800  0.22570300  0.77127700  1
  H  H2  1  0.22570300  0.45364800  0.27127700  1
  H  H3  1  0.54635200  0.77429700  0.22872300  1
  H  H4  1  0.88137700  0.56841900  0.75347500  1
  H  H5  1  0.43158100  0.11862300  0.74652500  1
  H  H6  1  0.11862300  0.43158100  0.24652500  1
  H  H7  1  0.56841900  0.88137700  0.25347500  1
  H  H8  1  0.35618900  0.96004600  0.44870100  1
  H  H9  1  0.03995400  0.64381100  0.05129900  1
  H  H10  1  0.64381100  0.03995400  0.55129900  1
  H  H11  1  0.96004600  0.35618900  0.94870100  1
  H  H12  1  0.28203200  0.83977300  0.54708700  1
  H  H13  1  0.16022700  0.71796800  0.95291300  1
  H  H14  1  0.71796800  0.16022700  0.45291300  1
  H  H15  1  0.83977300  0.28203200  0.04708700  1
  H  H16  1  0.05629300  0.90968100  0.64223000  1
  H  H17  1  0.09031900  0.94370700  0.85777000  1
  H  H18  1  0.94370700  0.09031900  0.35777000  1
  H  H19  1  0.90968100  0.05629300  0.14223000  1
  H  H20  1  0.96882900  0.08339700  0.63363500  1
  H  H21  1  0.91660300  0.03117100  0.86636500  1
  H  H22  1  0.03117100  0.91660300  0.36636500  1
  H  H23  1  0.08339700  0.96882900  0.13363500  1
  H  H24  1  0.23239400  0.18445700  0.42890200  1
  H  H25  1  0.81554300  0.76760600  0.07109800  1
  H  H26  1  0.76760600  0.81554300  0.57109800  1
  H  H27  1  0.18445700  0.23239400  0.92890200  1
  H  H28  1  0.06222900  0.23517900  0.50572300  1
  H  H29  1  0.76482100  0.93777100  0.99427700  1
  H  H30  1  0.93777100  0.76482100  0.49427700  1
  H  H31  1  0.23517900  0.06222900  0.00572300  1
  H  H32  1  0.78638500  0.52856100  0.50346200  1
  H  H33  1  0.47143900  0.21361500  0.99653800  1
  H  H34  1  0.21361500  0.47143900  0.49653800  1
  H  H35  1  0.52856100  0.78638500  0.00346200  1
  H  H36  1  0.94713400  0.50699100  0.40596900  1
  H  H37  1  0.49300900  0.05286600  0.09403100  1
  H  H38  1  0.05286600  0.49300900  0.59403100  1
  H  H39  1  0.50699100  0.94713400  0.90596900  1
  H  H40  1  0.61885400  0.75182000  0.46446400  1
  H  H41  1  0.24818000  0.38114600  0.03553600  1
  H  H42  1  0.38114600  0.24818000  0.53553600  1
  H  H43  1  0.75182000  0.61885400  0.96446400  1
  H  H44  1  0.67087600  0.87924300  0.35257500  1
  H  H45  1  0.12075700  0.32912400  0.14742500  1
  H  H46  1  0.32912400  0.12075700  0.64742500  1
  H  H47  1  0.87924300  0.67087600  0.85257500  1
  H  H48  1  0.00069600  0.67040800  0.26050000  1
  H  H49  1  0.32959200  0.99930400  0.23950000  1
  H  H50  1  0.99930400  0.32959200  0.73950000  1
  H  H51  1  0.67040800  0.00069600  0.76050000  1
  H  H52  1  0.87784000  0.83135400  0.22783700  1
  H  H53  1  0.16864600  0.12216000  0.27216300  1
  H  H54  1  0.12216000  0.16864600  0.77216300  1
  H  H55  1  0.83135400  0.87784000  0.72783700  1
  C  C0  1  0.34226400  0.85928000  0.77154300  1
  C  C1  1  0.14072000  0.65773600  0.72845700  1
  C  C2  1  0.65773600  0.14072000  0.22845700  1
  C  C3  1  0.85928000  0.34226400  0.27154300  1
  C  C4  1  0.48135800  0.84360300  0.68309700  1
  C  C5  1  0.15639700  0.51864200  0.81690300  1
  C  C6  1  0.51864200  0.15639700  0.31690300  1
  C  C7  1  0.84360300  0.48135800  0.18309700  1
  C  C8  1  0.75096200  0.32380000  0.69121800  1
  C  C9  1  0.67620000  0.24903800  0.80878200  1
  C  C10  1  0.24903800  0.67620000  0.30878200  1
  C  C11  1  0.32380000  0.75096200  0.19121800  1
  C  C12  1  0.56767300  0.50834300  0.96720100  1
  C  C13  1  0.49165700  0.43232700  0.53279900  1
  C  C14  1  0.43232700  0.49165700  0.03279900  1
  C  C15  1  0.50834300  0.56767300  0.46720100  1
  C  C16  1  0.15911500  0.03445600  0.53130800  1
  C  C17  1  0.96554400  0.84088500  0.96869200  1
  C  C18  1  0.84088500  0.96554400  0.46869200  1
  C  C19  1  0.03445600  0.15911500  0.03130800  1
  C  C20  1  0.81321800  0.69323600  0.36709200  1
  C  C21  1  0.30676400  0.18678200  0.13290800  1
  C  C22  1  0.18678200  0.30676400  0.63290800  1
  C  C23  1  0.69323600  0.81321800  0.86709200  1
  N  N0  1  0.27401000  0.93624300  0.50195600  1
  N  N1  1  0.06375700  0.72599000  0.99804400  1
  N  N2  1  0.72599000  0.06375700  0.49804400  1
  N  N3  1  0.93624300  0.27401000  0.00195600  1
  N  N4  1  0.05211700  0.00668600  0.60664600  1
  N  N5  1  0.99331400  0.94788300  0.89335400  1
  N  N6  1  0.94788300  0.99331400  0.39335400  1
  N  N7  1  0.00668600  0.05211700  0.10664600  1
  N  N8  1  0.15017600  0.16194300  0.48283600  1
  N  N9  1  0.83805700  0.84982400  0.01716400  1
  N  N10  1  0.84982400  0.83805700  0.51716400  1
  N  N11  1  0.16194300  0.15017600  0.98283600  1
  N  N12  1  0.84897400  0.56555300  0.42891500  1
  N  N13  1  0.43444700  0.15102600  0.07108500  1
  N  N14  1  0.15102600  0.43444700  0.57108500  1
  N  N15  1  0.56555300  0.84897400  0.92891500  1
  N  N16  1  0.68786100  0.77959500  0.39135000  1
  N  N17  1  0.22040500  0.31213900  0.10865000  1
  N  N18  1  0.31213900  0.22040500  0.60865000  1
  N  N19  1  0.77959500  0.68786100  0.89135000  1
  N  N20  1  0.90491300  0.73570800  0.27717900  1
  N  N21  1  0.26429200  0.09508700  0.22282100  1
  N  N22  1  0.09508700  0.26429200  0.72282100  1
  N  N23  1  0.73570800  0.90491300  0.77717900  1
  O  O0  1  0.31817300  0.75009800  0.82172900  1
  O  O1  1  0.24990200  0.68182700  0.67827100  1
  O  O2  1  0.68182700  0.24990200  0.17827100  1
  O  O3  1  0.75009800  0.31817300  0.32172900  1
  O  O4  1  0.26278700  0.97152900  0.78791400  1
  O  O5  1  0.02847100  0.73721300  0.71208600  1
  O  O6  1  0.73721300  0.02847100  0.21208600  1
  O  O7  1  0.97152900  0.26278700  0.28791400  1
  O  O8  1  0.52384300  0.93769800  0.64324000  1
  O  O9  1  0.06230200  0.47615700  0.85676000  1
  O  O10  1  0.47615700  0.06230200  0.35676000  1
  O  O11  1  0.93769800  0.52384300  0.14324000  1
  O  O12  1  0.54116500  0.73102800  0.65717700  1
  O  O13  1  0.26897200  0.45883500  0.84282300  1
  O  O14  1  0.45883400  0.26897200  0.34282300  1
  O  O15  1  0.73102800  0.54116600  0.15717700  1
  O  O16  1  0.68267000  0.44799000  0.65372900  1
  O  O17  1  0.55201000  0.31733000  0.84627100  1
  O  O18  1  0.31733000  0.55201000  0.34627100  1
  O  O19  1  0.44799000  0.68267000  0.15372900  1
  O  O20  1  0.86780400  0.26345700  0.64094900  1
  O  O21  1  0.73654300  0.13219600  0.85905100  1
  O  O22  1  0.13219600  0.73654300  0.35905100  1
  O  O23  1  0.26345700  0.86780400  0.14094900  1
  O  O24  1  0.59821600  0.53561700  0.85638500  1
  O  O25  1  0.46438300  0.40178400  0.64361500  1
  O  O26  1  0.40178400  0.46438300  0.14361500  1
  O  O27  1  0.53561700  0.59821600  0.35638500  1
  O  O28  1  0.63730900  0.49433700  0.02876300  1
  O  O29  1  0.50566300  0.36269100  0.47123700  1
  O  O30  1  0.36269100  0.50566300  0.97123700  1
  O  O31  1  0.49433700  0.63730900  0.52876300  1
  O  O32  1  0.86931600  0.53504300  0.70139200  1
  O  O33  1  0.46495700  0.13068400  0.79860800  1
  O  O34  1  0.13068400  0.46495700  0.29860800  1
  O  O35  1  0.53504300  0.86931600  0.20139200  1
loop_
_geom_bond_atom_site_label_1
_geom_bond_atom_site_label_2
_geom_bond_distance
_geom_bond_site_symmetry_2
Np0 O17 2.433707 1_555
Np0 O16 2.433707 1_555
Np0 O0 2.437427 1_555
Np0 O1 2.437427 1_555
Np0 O13 2.465137 1_555
Np0 O12 2.465137 1_555
Np0 O25 2.520936 1_555
Np0 O24 2.520936 1_555
Np0 O30 2.541683 1_555
Np0 O31 2.541683 1_555
Np1 O18 2.433707 1_555
Np1 O19 2.433707 1_555
Np1 O3 2.437427 1_555
Np1 O2 2.437427 1_555
Np1 O14 2.465144 1_555
Np1 O15 2.465144 1_555
Np1 O26 2.520936 1_555
Np1 O27 2.520936 1_555
Np1 O29 2.541683 1_555
Np1 O28 2.541683 1_555
H0 O32 0.983140 1_555
H1 O33 0.983140 1_555
H2 O34 0.983140 1_555
H3 O35 0.983140 1_555
H4 O32 0.977276 1_555
H5 O33 0.977276 1_555
H6 O34 0.977276 1_555
H7 O35 0.977276 1_555
H8 N0 1.020844 1_555
H9 N1 1.020844 1_554
H10 N2 1.020844 1_555
H11 N3 1.020844 1_556
H12 N0 1.022243 1_555
H13 N1 1.022243 1_555
H14 N2 1.022243 1_555
H15 N3 1.022243 1_555
H16 N4 1.025922 1_565
H17 N5 1.025922 1_455
H18 N6 1.025922 1_545
H19 N7 1.025922 1_655
H20 N4 1.025422 1_655
H21 N5 1.025422 1_545
H22 N6 1.025422 1_455
H23 N7 1.025422 1_565
H24 N8 1.016520 1_555
H25 N9 1.016520 1_555
H26 N10 1.016520 1_555
H27 N11 1.016520 1_555
H28 N8 1.014780 1_555
H29 N9 1.014780 1_556
H30 N10 1.014780 1_555
H31 N11 1.014780 1_554
H32 N12 1.024838 1_555
H33 N13 1.024838 1_556
H34 N14 1.024838 1_555
H35 N15 1.024838 1_554
H36 N12 1.021755 1_555
H37 N13 1.021755 1_555
H38 N14 1.021755 1_555
H39 N15 1.021755 1_555
H40 N16 1.020043 1_555
H41 N17 1.020043 1_555
H42 N18 1.020043 1_555
H43 N19 1.020043 1_555
H44 N16 1.025118 1_555
H45 N17 1.025118 1_555
H46 N18 1.025118 1_555
H47 N19 1.025118 1_555
H48 N20 1.018881 1_455
H49 N21 1.018881 1_565
H50 N22 1.018881 1_655
H51 N23 1.018881 1_545
H52 N20 1.013235 1_555
H53 N21 1.013235 1_555
H54 N22 1.013235 1_555
H55 N23 1.013235 1_555
C0 O4 1.255088 1_555
C0 O0 1.286743 1_555
C1 O5 1.255088 1_555
C1 O1 1.286743 1_555
C2 O6 1.255088 1_555
C2 O2 1.286743 1_555
C3 O7 1.255088 1_555
C3 O3 1.286743 1_555
C4 O8 1.252427 1_555
C4 O12 1.284842 1_555
C5 O9 1.252427 1_555
C5 O13 1.284842 1_555
C6 O10 1.252427 1_555
C6 O14 1.284841 1_555
C7 O11 1.252427 1_555
C7 O15 1.284841 1_555
C8 O20 1.249393 1_555
C8 O16 1.290573 1_555
C9 O21 1.249393 1_555
C9 O17 1.290573 1_555
C10 O22 1.249393 1_555
C10 O18 1.290573 1_555
C11 O23 1.249393 1_555
C11 O19 1.290573 1_555
C12 O28 1.266770 1_556
C12 O24 1.269860 1_555
C13 O29 1.266770 1_555
C13 O25 1.269860 1_555
C14 O30 1.266770 1_554
C14 O26 1.269860 1_555
C15 O31 1.266770 1_555
C15 O27 1.269860 1_555
C16 N4 1.331361 1_555
C16 N8 1.338645 1_555
C16 N0 1.339017 1_545
C17 N5 1.331361 1_555
C17 N9 1.338645 1_556
C17 N1 1.339017 1_655
C18 N6 1.331361 1_555
C18 N10 1.338645 1_555
C18 N2 1.339017 1_565
C19 N7 1.331361 1_555
C19 N11 1.338645 1_554
C19 N3 1.339017 1_455
C20 N20 1.336810 1_555
C20 N12 1.336887 1_555
C20 N16 1.339705 1_555
C21 N21 1.336810 1_555
C21 N13 1.336887 1_555
C21 N17 1.339705 1_555
C22 N22 1.336810 1_555
C22 N14 1.336887 1_555
C22 N18 1.339705 1_555
C23 N23 1.336810 1_555
C23 N15 1.336887 1_555
C23 N19 1.339705 1_555
