# generated using pymatgen
data_Ti6Al16Ru7
_symmetry_space_group_name_H-M   'P 1'
_cell_length_a   8.61315881
_cell_length_b   8.61315881
_cell_length_c   8.61315881
_cell_angle_alpha   60.00000000
_cell_angle_beta   60.00000000
_cell_angle_gamma   60.00000000
_symmetry_Int_Tables_number   1
_chemical_formula_structural   Ti6Al16Ru7
_chemical_formula_sum   'Ti6 Al16 Ru7'
_cell_volume   451.82719414
_cell_formula_units_Z   1
loop_
 _symmetry_equiv_pos_site_id
 _symmetry_equiv_pos_as_xyz
  1  'x, y, z'
loop_
 _atom_site_type_symbol
 _atom_site_label
 _atom_site_symmetry_multiplicity
 _atom_site_fract_x
 _atom_site_fract_y
 _atom_site_fract_z
 _atom_site_occupancy
  Ti  Ti0  1  0.70762300  0.70762300  0.29237700  1
  Ti  Ti1  1  0.29237700  0.70762300  0.29237700  1
  Ti  Ti2  1  0.70762300  0.29237700  0.29237700  1
  Ti  Ti3  1  0.29237700  0.29237700  0.70762300  1
  Ti  Ti4  1  0.70762300  0.29237700  0.70762300  1
  Ti  Ti5  1  0.29237700  0.70762300  0.70762300  1
  Al  Al0  1  0.87978100  0.87978100  0.36065800  1
  Al  Al1  1  0.87978100  0.36065800  0.87978100  1
  Al  Al2  1  0.36065800  0.87978100  0.87978100  1
  Al  Al3  1  0.87978100  0.87978100  0.87978100  1
  Al  Al4  1  0.12021900  0.12021900  0.63934200  1
  Al  Al5  1  0.12021900  0.63934200  0.12021900  1
  Al  Al6  1  0.63934200  0.12021900  0.12021900  1
  Al  Al7  1  0.12021900  0.12021900  0.12021900  1
  Al  Al8  1  0.65754600  0.65754600  0.02736200  1
  Al  Al9  1  0.65754600  0.02736200  0.65754600  1
  Al  Al10  1  0.02736200  0.65754600  0.65754600  1
  Al  Al11  1  0.65754600  0.65754600  0.65754600  1
  Al  Al12  1  0.34245400  0.34245400  0.97263800  1
  Al  Al13  1  0.34245400  0.97263800  0.34245400  1
  Al  Al14  1  0.97263800  0.34245400  0.34245400  1
  Al  Al15  1  0.34245400  0.34245400  0.34245400  1
  Ru  Ru0  1  0.00000000  0.00000000  0.00000000  1
  Ru  Ru1  1  0.00000000  0.00000000  0.50000000  1
  Ru  Ru2  1  0.50000000  0.00000000  0.50000000  1
  Ru  Ru3  1  0.00000000  0.50000000  0.50000000  1
  Ru  Ru4  1  0.50000000  0.50000000  0.00000000  1
  Ru  Ru5  1  0.00000000  0.50000000  0.00000000  1
  Ru  Ru6  1  0.50000000  0.00000000  0.00000000  1
loop_
_geom_bond_atom_site_label_1
_geom_bond_atom_site_label_2
_geom_bond_distance
_geom_bond_site_symmetry_2
Al0 Ru0 2.536369 1_665
Al0 Ru1 2.672539 1_665
Al0 Ru3 2.672546 1_655
Al0 Ru2 2.672546 1_565
Al0 Ti2 2.947250 1_565
Al0 Ti1 2.947250 1_655
Al0 Ti0 2.947257 1_555
Al1 Ru0 2.536369 1_656
Al1 Ru5 2.672539 1_656
Al1 Ru4 2.672546 1_556
Al1 Ru3 2.672546 1_655
Al1 Ti3 2.947250 1_655
Al1 Ti2 2.947250 1_556
Al1 Ti4 2.947257 1_555
Al2 Ru0 2.536369 1_566
Al2 Ru6 2.672539 1_566
Al2 Ru4 2.672546 1_556
Al2 Ru2 2.672546 1_565
Al2 Ti3 2.947250 1_565
Al2 Ti1 2.947250 1_556
Al2 Ti5 2.947257 1_555
Al3 Ru0 2.536362 1_666
Al3 Ru1 2.672546 1_665
Al3 Ru6 2.672546 1_566
Al3 Ru5 2.672546 1_656
Al3 Ti5 2.947251 1_655
Al3 Ti4 2.947251 1_565
Al3 Ti0 2.947251 1_556
Al4 Ru0 2.536369 1_556
Al4 Ru1 2.672539 1_555
Al4 Ru2 2.672546 1_555
Al4 Ru3 2.672546 1_555
Al4 Ti5 2.947250 1_545
Al4 Ti4 2.947250 1_455
Al4 Ti3 2.947257 1_555
Al5 Ru0 2.536369 1_565
Al5 Ru5 2.672539 1_555
Al5 Ru4 2.672546 1_555
Al5 Ru3 2.672546 1_555
Al5 Ti5 2.947250 1_554
Al5 Ti0 2.947250 1_455
Al5 Ti1 2.947257 1_555
Al6 Ru0 2.536369 1_655
Al6 Ru6 2.672539 1_555
Al6 Ru4 2.672546 1_555
Al6 Ru2 2.672546 1_555
Al6 Ti4 2.947250 1_554
Al6 Ti0 2.947250 1_545
Al6 Ti2 2.947257 1_555
Al7 Ru0 2.536362 1_555
Al7 Ru1 2.672546 1_555
Al7 Ru6 2.672546 1_555
Al7 Ru5 2.672546 1_555
Al7 Ti1 2.947251 1_545
Al7 Ti2 2.947251 1_455
Al7 Ti3 2.947251 1_554
Al8 Ru4 2.493840 1_555
Al8 Ru6 2.493840 1_565
Al8 Ru5 2.493840 1_655
Al8 Ti2 2.781642 1_555
Al8 Ti1 2.781642 1_555
Al8 Ti0 2.781642 1_555
Al9 Ru2 2.493840 1_555
Al9 Ru6 2.493840 1_556
Al9 Ru1 2.493840 1_655
Al9 Ti2 2.781642 1_555
Al9 Ti3 2.781642 1_555
Al9 Ti4 2.781642 1_555
Al10 Ru3 2.493840 1_555
Al10 Ru1 2.493840 1_565
Al10 Ru5 2.493840 1_556
Al10 Ti1 2.781642 1_555
Al10 Ti3 2.781642 1_555
Al10 Ti5 2.781642 1_555
Al11 Ru4 2.493840 1_556
Al11 Ru2 2.493840 1_565
Al11 Ru3 2.493840 1_655
Al11 Ti0 2.781642 1_555
Al11 Ti4 2.781642 1_555
Al11 Ti5 2.781642 1_555
Al12 Ru5 2.493840 1_556
Al12 Ru6 2.493840 1_556
Al12 Ru4 2.493840 1_556
Al12 Ti3 2.781642 1_555
Al12 Ti4 2.781642 1_555
Al12 Ti5 2.781642 1_555
Al13 Ru6 2.493840 1_565
Al13 Ru1 2.493840 1_565
Al13 Ru2 2.493840 1_565
Al13 Ti0 2.781642 1_555
Al13 Ti1 2.781642 1_555
Al13 Ti5 2.781642 1_555
Al14 Ru1 2.493840 1_655
Al14 Ru5 2.493840 1_655
Al14 Ru3 2.493840 1_655
Al14 Ti2 2.781642 1_555
Al14 Ti0 2.781642 1_555
Al14 Ti4 2.781642 1_555
Al15 Ru3 2.493840 1_555
Al15 Ru4 2.493840 1_555
Al15 Ru2 2.493840 1_555
Al15 Ti2 2.781642 1_555
Al15 Ti1 2.781642 1_555
Al15 Ti3 2.781642 1_555
Ru1 Ti1 3.088651 1_545
Ru1 Ti2 3.088651 1_455
Ru1 Ti4 3.088651 1_455
Ru1 Ti5 3.088651 1_545
Ru2 Ti0 3.088651 1_545
Ru2 Ti2 3.088651 1_555
Ru2 Ti5 3.088651 1_545
Ru2 Ti3 3.088651 1_555
Ru3 Ti1 3.088651 1_555
Ru3 Ti0 3.088651 1_455
Ru3 Ti4 3.088651 1_455
Ru3 Ti3 3.088651 1_555
Ru4 Ti5 3.088651 1_554
Ru4 Ti2 3.088651 1_555
Ru4 Ti1 3.088651 1_555
Ru4 Ti4 3.088651 1_554
Ru5 Ti5 3.088651 1_554
Ru5 Ti2 3.088651 1_455
Ru5 Ti3 3.088651 1_554
Ru5 Ti0 3.088651 1_455
Ru6 Ti1 3.088651 1_545
Ru6 Ti0 3.088651 1_545
Ru6 Ti3 3.088651 1_554
Ru6 Ti4 3.088651 1_554
