# generated using pymatgen
data_Sr2ZrCrO6
_symmetry_space_group_name_H-M   'P 1'
_cell_length_a   8.08204316
_cell_length_b   8.08678785
_cell_length_c   9.83858673
_cell_angle_alpha   114.25939916
_cell_angle_beta   65.75584280
_cell_angle_gamma   89.98931571
_symmetry_Int_Tables_number   1
_chemical_formula_structural   Sr2ZrCrO6
_chemical_formula_sum   'Sr8 Zr4 Cr4 O24'
_cell_volume   523.39111099
_cell_formula_units_Z   4
loop_
 _symmetry_equiv_pos_site_id
 _symmetry_equiv_pos_as_xyz
  1  'x, y, z'
loop_
 _atom_site_type_symbol
 _atom_site_label
 _atom_site_symmetry_multiplicity
 _atom_site_fract_x
 _atom_site_fract_y
 _atom_site_fract_z
 _atom_site_occupancy
  Sr  Sr0  1  0.12503900  0.37514700  0.24993400  1
  Sr  Sr1  1  0.37505900  0.62501400  0.74994500  1
  Sr  Sr2  1  0.62501500  0.87476700  0.24993100  1
  Sr  Sr3  1  0.87499800  0.12492500  0.74994200  1
  Sr  Sr4  1  0.62504600  0.37538600  0.25008800  1
  Sr  Sr5  1  0.87509600  0.62499700  0.75010100  1
  Sr  Sr6  1  0.12488700  0.87471200  0.25008700  1
  Sr  Sr7  1  0.37483100  0.12509800  0.75009100  1
  Zr  Zr0  1  0.75011400  0.24987100  0.49977900  1
  Zr  Zr1  1  0.99999700  0.49999600  0.99997100  1
  Zr  Zr2  1  0.25003200  0.74997200  0.49994200  1
  Zr  Zr3  1  0.49996500  0.00002500  0.00005800  1
  Cr  Cr0  1  0.50004000  0.49995200  0.99990800  1
  Cr  Cr1  1  0.74994700  0.75011400  0.50007700  1
  Cr  Cr2  1  0.99998000  0.00004100  0.00008000  1
  Cr  Cr3  1  0.24993000  0.24995500  0.49995900  1
  O  O0  1  0.88080700  0.11922600  0.23846000  1
  O  O1  1  0.13087600  0.36912700  0.73831100  1
  O  O2  1  0.38087300  0.61917900  0.23830700  1
  O  O3  1  0.63076300  0.86918500  0.73842600  1
  O  O4  1  0.61920900  0.38071600  0.76149700  1
  O  O5  1  0.86913800  0.63089100  0.26174400  1
  O  O6  1  0.11917800  0.88084900  0.76161500  1
  O  O7  1  0.36920000  0.13081100  0.26158100  1
  O  O8  1  0.99996000  0.24423400  0.00019100  1
  O  O9  1  0.25048100  0.48886400  0.49978100  1
  O  O10  1  0.50026500  0.74400700  0.00000600  1
  O  O11  1  0.74959600  0.98890800  0.50010800  1
  O  O12  1  0.75031600  0.51118600  0.50010700  1
  O  O13  1  0.99987900  0.75597300  0.00019600  1
  O  O14  1  0.24972800  0.01091800  0.49978500  1
  O  O15  1  0.49979000  0.25593500  0.99989500  1
  O  O16  1  0.49371200  0.25036200  0.50023500  1
  O  O17  1  0.73894700  0.50026100  0.99991200  1
  O  O18  1  0.99392500  0.74963600  0.50000200  1
  O  O19  1  0.23870600  0.00003200  0.99989600  1
  O  O20  1  0.00604800  0.24986500  0.50023700  1
  O  O21  1  0.26116500  0.49960200  0.99986800  1
  O  O22  1  0.50604500  0.75039200  0.50006100  1
  O  O23  1  0.76141600  0.99987100  0.99988700  1
loop_
_geom_bond_atom_site_label_1
_geom_bond_atom_site_label_2
_geom_bond_distance
_geom_bond_site_symmetry_2
Cr0 O2 1.909122 1_556
Cr0 O4 1.909218 1_555
Cr0 O21 1.930762 1_555
Cr0 O17 1.930875 1_555
Cr0 O10 1.973227 1_556
Cr0 O15 1.973263 1_555
Cr1 O5 1.908593 1_555
Cr1 O3 1.908721 1_555
Cr1 O11 1.930952 1_555
Cr1 O12 1.932283 1_555
Cr1 O22 1.971292 1_555
Cr1 O18 1.971540 1_555
Cr2 O0 1.908969 1_555
Cr2 O6 1.909650 1_644
Cr2 O19 1.928651 1_654
Cr2 O23 1.928865 1_544
Cr2 O13 1.974195 1_545
Cr2 O8 1.974288 1_555
Cr3 O1 1.908745 1_555
Cr3 O7 1.908953 1_555
Cr3 O14 1.932340 1_555
Cr3 O9 1.932731 1_555
Cr3 O20 1.969944 1_555
Cr3 O16 1.971375 1_555
O0 Zr0 2.092667 1_555
O0 Sr6 2.860783 1_645
O0 Sr0 2.860891 1_655
O0 Sr4 2.861203 1_555
O0 Sr2 2.861450 1_545
O1 Zr1 2.095398 1_455
O1 Sr7 2.858210 1_555
O1 Sr5 2.858770 1_455
O1 Sr1 2.860457 1_555
O1 Sr3 2.860513 1_455
O2 Zr2 2.095198 1_555
O2 Sr6 2.858076 1_555
O2 Sr4 2.858112 1_555
O2 Sr2 2.858511 1_555
O2 Sr0 2.859289 1_555
O3 Zr3 2.095174 1_566
O3 Sr1 2.859313 1_555
O3 Sr3 2.859883 1_565
O3 Sr7 2.860565 1_565
O3 Sr5 2.860650 1_555
O4 Zr0 2.095862 1_555
O4 Sr1 2.859499 1_555
O4 Sr3 2.859651 1_555
O4 Sr7 2.859975 1_555
O4 Sr5 2.860955 1_555
O5 Zr1 2.096303 1_554
O5 Sr6 2.857606 1_655
O5 Sr4 2.857759 1_555
O5 Sr2 2.858492 1_555
O5 Sr0 2.858632 1_655
O6 Zr2 2.095502 1_555
O6 Sr3 2.859124 1_465
O6 Sr7 2.859469 1_565
O6 Sr5 2.859650 1_455
O6 Sr1 2.859801 1_555
O7 Zr3 2.094301 1_555
O7 Sr0 2.860346 1_555
O7 Sr2 2.860728 1_545
O7 Sr6 2.862376 1_545
O7 Sr4 2.862427 1_555
O8 Zr1 2.069183 1_554
O8 Sr0 2.843035 1_655
O8 Sr4 2.844101 1_555
O8 Sr7 2.844386 1_654
O8 Sr3 2.846621 1_554
O9 Zr2 2.110876 1_555
O9 Sr4 2.842593 1_555
O9 Sr1 2.844736 1_555
O9 Sr0 2.847006 1_555
O9 Sr5 2.848911 1_455
O10 Zr3 2.070154 1_565
O10 Sr2 2.842661 1_555
O10 Sr5 2.843621 1_554
O10 Sr1 2.846453 1_554
O10 Sr6 2.847201 1_555
O11 Zr0 2.111687 1_565
O11 Sr7 2.844479 1_565
O11 Sr2 2.844806 1_555
O11 Sr3 2.846667 1_565
O11 Sr6 2.847525 1_655
O12 Zr0 2.111877 1_555
O12 Sr5 2.844451 1_555
O12 Sr0 2.844702 1_655
O12 Sr1 2.846894 1_555
O12 Sr4 2.847403 1_555
O13 Zr1 2.069123 1_554
O13 Sr2 2.843359 1_555
O13 Sr6 2.843894 1_655
O13 Sr5 2.844314 1_554
O13 Sr1 2.846556 1_654
O14 Zr2 2.110852 1_545
O14 Sr6 2.842357 1_545
O14 Sr3 2.844747 1_455
O14 Sr2 2.847125 1_545
O14 Sr7 2.848903 1_555
O15 Zr3 2.070150 1_556
O15 Sr7 2.842850 1_555
O15 Sr0 2.843514 1_556
O15 Sr3 2.845920 1_555
O15 Sr4 2.847810 1_556
O16 Zr0 2.070413 1_555
O16 Sr1 2.842930 1_555
O16 Sr7 2.845889 1_555
O16 Sr4 2.847031 1_555
O16 Sr2 2.849970 1_545
O17 Zr1 2.110057 1_555
O17 Sr5 2.843527 1_555
O17 Sr2 2.843917 1_556
O17 Sr4 2.847386 1_556
O17 Sr3 2.848526 1_555
O18 Zr2 2.069628 1_655
O18 Sr0 2.842956 1_655
O18 Sr5 2.844390 1_555
O18 Sr6 2.845320 1_655
O18 Sr3 2.847203 1_565
O19 Zr3 2.112161 1_556
O19 Sr7 2.845366 1_555
O19 Sr1 2.846727 1_545
O19 Sr0 2.847537 1_556
O19 Sr6 2.850092 1_546
O20 Zr0 2.070324 1_455
O20 Sr3 2.842780 1_455
O20 Sr5 2.846077 1_455
O20 Sr6 2.847028 1_545
O20 Sr0 2.849810 1_555
O21 Zr1 2.110356 1_455
O21 Sr7 2.843274 1_555
O21 Sr0 2.844044 1_556
O21 Sr6 2.847941 1_556
O21 Sr1 2.848289 1_555
O22 Zr2 2.069592 1_555
O22 Sr2 2.843121 1_555
O22 Sr7 2.844113 1_565
O22 Sr4 2.845659 1_555
O22 Sr1 2.846798 1_555
O23 Zr3 2.112368 1_566
O23 Sr5 2.845421 1_555
O23 Sr3 2.846502 1_565
O23 Sr2 2.847657 1_556
O23 Sr4 2.850243 1_566
