# generated using pymatgen
data_Ba2Li(CO3)2
_symmetry_space_group_name_H-M   'P 1'
_cell_length_a   7.19414522
_cell_length_b   5.48645468
_cell_length_c   4.65583312
_cell_angle_alpha   89.92709375
_cell_angle_beta   113.40592214
_cell_angle_gamma   90.43918257
_symmetry_Int_Tables_number   1
_chemical_formula_structural   Ba2Li(CO3)2
_chemical_formula_sum   'Ba2 Li1 C2 O6'
_cell_volume   168.64054120
_cell_formula_units_Z   1
loop_
 _symmetry_equiv_pos_site_id
 _symmetry_equiv_pos_as_xyz
  1  'x, y, z'
loop_
 _atom_site_type_symbol
 _atom_site_label
 _atom_site_symmetry_multiplicity
 _atom_site_fract_x
 _atom_site_fract_y
 _atom_site_fract_z
 _atom_site_occupancy
  Ba  Ba0  1  0.18619900  0.77060200  0.89551500  1
  Ba  Ba1  1  0.77284900  0.26569600  0.11840900  1
  Li  Li0  1  0.60906000  0.76153400  0.74114600  1
  C  C0  1  0.24770400  0.27130300  0.52080400  1
  C  C1  1  0.76685900  0.76728500  0.43947400  1
  O  O0  1  0.18195000  0.06466700  0.37505700  1
  O  O1  1  0.18327000  0.47769800  0.37598800  1
  O  O2  1  0.36574500  0.27168200  0.81554200  1
  O  O3  1  0.62389000  0.76812200  0.13943900  1
  O  O4  1  0.77649000  0.55567700  0.60664700  1
  O  O5  1  0.77672500  0.97623300  0.61086700  1
loop_
_geom_bond_atom_site_label_1
_geom_bond_atom_site_label_2
_geom_bond_distance
_geom_bond_site_symmetry_2
Ba0 O1 2.759505 1_556
Ba0 O0 2.766380 1_566
Ba0 O3 2.892141 1_556
Ba0 O1 2.898712 1_555
Ba0 O0 2.899586 1_565
Ba0 C1 2.918873 1_455
Ba0 O5 2.941504 1_455
Ba0 O4 2.947600 1_455
Ba0 O2 3.112873 1_565
Ba0 O2 3.120705 1_555
Ba1 O2 2.699514 1_554
Ba1 O4 2.767735 1_555
Ba1 O5 2.778575 1_545
Ba1 O5 2.858219 1_544
Ba1 O4 2.871989 1_554
Ba1 O0 2.925523 1_655
Ba1 O1 2.940541 1_655
Ba1 O3 2.940793 1_545
Ba1 O3 2.980909 1_555
Li0 O3 1.815038 1_556
Li0 O4 1.934039 1_555
Li0 O5 1.941147 1_555
C0 O2 1.295521 1_555
C0 O0 1.306988 1_555
C0 O1 1.307496 1_555
C1 O3 1.366688 1_555
C1 O5 1.382781 1_555
C1 O4 1.383675 1_555
