# generated using pymatgen
data_LiSi
_symmetry_space_group_name_H-M   'P 1'
_cell_length_a   4.39905978
_cell_length_b   4.39905978
_cell_length_c   4.39905978
_cell_angle_alpha   60.00000000
_cell_angle_beta   60.00000000
_cell_angle_gamma   60.00000000
_symmetry_Int_Tables_number   1
_chemical_formula_structural   LiSi
_chemical_formula_sum   'Li2 Si2'
_cell_volume   60.19557855
_cell_formula_units_Z   2
loop_
 _symmetry_equiv_pos_site_id
 _symmetry_equiv_pos_as_xyz
  1  'x, y, z'
loop_
 _atom_site_type_symbol
 _atom_site_label
 _atom_site_symmetry_multiplicity
 _atom_site_fract_x
 _atom_site_fract_y
 _atom_site_fract_z
 _atom_site_occupancy
  Li  Li0  1  0.00000000  0.00000000  0.00000000  1
  Li  Li1  1  0.25000000  0.25000000  0.25000000  1
  Si  Si0  1  0.75000000  0.75000000  0.75000000  1
  Si  Si1  1  0.50000000  0.50000000  0.50000000  1
loop_
_geom_bond_atom_site_label_1
_geom_bond_atom_site_label_2
_geom_bond_distance
_geom_bond_site_symmetry_2
Li0 Si0 2.693863 1_445
Li0 Si0 2.693863 1_444
Li0 Si0 2.693863 1_454
Li0 Si0 2.693863 1_544
Li1 Si1 2.693863 1_554
Li1 Si1 2.693863 1_555
Li1 Si1 2.693863 1_455
Li1 Si1 2.693863 1_545
