# generated using pymatgen
data_K4MgCu3F12
_symmetry_space_group_name_H-M   'P 1'
_cell_length_a   9.09257011
_cell_length_b   9.09257011
_cell_length_c   4.10176700
_cell_angle_alpha   90.00000000
_cell_angle_beta   90.00000000
_cell_angle_gamma   127.09103696
_symmetry_Int_Tables_number   1
_chemical_formula_structural   K4MgCu3F12
_chemical_formula_sum   'K4 Mg1 Cu3 F12'
_cell_volume   270.50299093
_cell_formula_units_Z   1
loop_
 _symmetry_equiv_pos_site_id
 _symmetry_equiv_pos_as_xyz
  1  'x, y, z'
loop_
 _atom_site_type_symbol
 _atom_site_label
 _atom_site_symmetry_multiplicity
 _atom_site_fract_x
 _atom_site_fract_y
 _atom_site_fract_z
 _atom_site_occupancy
  K  K0  1  0.87385200  0.62189500  0.50000000  1
  K  K1  1  0.62189500  0.87385200  0.50000000  1
  K  K2  1  0.37810500  0.12614800  0.50000000  1
  K  K3  1  0.12614800  0.37810500  0.50000000  1
  Mg  Mg0  1  0.00000000  0.00000000  0.00000000  1
  Cu  Cu0  1  0.75071700  0.24928300  0.00000000  1
  Cu  Cu1  1  0.50000000  0.50000000  0.00000000  1
  Cu  Cu2  1  0.24928300  0.75071700  0.00000000  1
  F  F0  1  0.25008500  0.25008500  0.00000000  1
  F  F1  1  0.00000000  0.50000000  0.00000000  1
  F  F2  1  0.74991500  0.74991500  0.00000000  1
  F  F3  1  0.50000000  0.00000000  0.00000000  1
  F  F4  1  0.62761000  0.37239000  0.00000000  1
  F  F5  1  0.37239000  0.62761000  0.00000000  1
  F  F6  1  0.12339400  0.87660600  0.00000000  1
  F  F7  1  0.87660600  0.12339400  0.00000000  1
  F  F8  1  0.50000000  0.50000000  0.50000000  1
  F  F9  1  0.24942200  0.75057800  0.50000000  1
  F  F10  1  0.00000000  0.00000000  0.50000000  1
  F  F11  1  0.75057800  0.24942200  0.50000000  1
loop_
_geom_bond_atom_site_label_1
_geom_bond_atom_site_label_2
_geom_bond_distance
_geom_bond_site_symmetry_2
Cu0 F4 2.004299 1_555
Cu0 F3 2.025343 1_555
Cu0 F1 2.025343 1_655
Cu0 F7 2.049592 1_555
Cu0 F11 2.050885 1_554
Cu0 F11 2.050885 1_555
Cu1 F0 2.024621 1_555
Cu1 F2 2.024621 1_555
Cu1 F8 2.050883 1_554
Cu1 F8 2.050883 1_555
Cu1 F4 2.077612 1_555
Cu1 F5 2.077612 1_555
Cu2 F5 2.004299 1_555
Cu2 F1 2.025343 1_555
Cu2 F3 2.025343 1_565
Cu2 F6 2.049592 1_555
Cu2 F9 2.050885 1_554
Cu2 F9 2.050885 1_555
F0 Mg0 2.025998 1_555
F0 K2 2.900552 1_554
F0 K2 2.900552 1_555
F0 K3 2.900552 1_555
F0 K3 2.900552 1_554
F1 K3 2.878114 1_555
F1 K0 2.878114 1_454
F1 K3 2.878114 1_554
F1 K0 2.878114 1_455
F2 Mg0 2.025998 1_665
F2 K1 2.900552 1_554
F2 K0 2.900552 1_554
F2 K0 2.900552 1_555
F2 K1 2.900552 1_555
F3 K2 2.878114 1_555
F3 K2 2.878114 1_554
F3 K1 2.878114 1_544
F3 K1 2.878114 1_545
F4 K0 2.870405 1_555
F4 K0 2.870405 1_554
F4 K2 2.870405 1_554
F4 K2 2.870405 1_555
F5 K1 2.870405 1_555
F5 K1 2.870405 1_554
F5 K3 2.870405 1_554
F5 K3 2.870405 1_555
F6 Mg0 2.008971 1_565
F6 K2 2.894797 1_564
F6 K2 2.894797 1_565
F6 K0 2.894797 1_455
F6 K0 2.894797 1_454
F7 Mg0 2.008971 1_655
F7 K3 2.894797 1_654
F7 K3 2.894797 1_655
F7 K1 2.894797 1_544
F7 K1 2.894797 1_545
F8 K0 2.870400 1_555
F8 K1 2.870400 1_555
F8 K2 2.870400 1_555
F8 K3 2.870400 1_555
F9 K3 2.854401 1_555
F9 K1 2.854401 1_555
F9 K2 2.865512 1_565
F9 K0 2.865512 1_455
F10 Mg0 2.050883 1_555
F10 Mg0 2.050883 1_556
F10 K2 2.894609 1_555
F10 K3 2.894609 1_555
F10 K1 2.894609 1_445
F10 K0 2.894609 1_445
F11 K0 2.854401 1_555
F11 K2 2.854401 1_555
F11 K3 2.865512 1_655
F11 K1 2.865512 1_545
