# generated using pymatgen
data_CaMn6(OF2)4
_symmetry_space_group_name_H-M   'P 1'
_cell_length_a   5.63149896
_cell_length_b   7.95919476
_cell_length_c   6.05547046
_cell_angle_alpha   95.86527312
_cell_angle_beta   86.05459155
_cell_angle_gamma   91.72602536
_symmetry_Int_Tables_number   1
_chemical_formula_structural   CaMn6(OF2)4
_chemical_formula_sum   'Ca1 Mn6 O4 F8'
_cell_volume   269.28580117
_cell_formula_units_Z   1
loop_
 _symmetry_equiv_pos_site_id
 _symmetry_equiv_pos_as_xyz
  1  'x, y, z'
loop_
 _atom_site_type_symbol
 _atom_site_label
 _atom_site_symmetry_multiplicity
 _atom_site_fract_x
 _atom_site_fract_y
 _atom_site_fract_z
 _atom_site_occupancy
  Ca  Ca0  1  0.46902200  0.81294900  0.85742600  1
  Mn  Mn0  1  0.52178300  0.01722000  0.44636300  1
  Mn  Mn1  1  0.73183100  0.64046400  0.23113700  1
  Mn  Mn2  1  0.48276200  0.34099800  0.82877100  1
  Mn  Mn3  1  0.95366400  0.67234300  0.67962300  1
  Mn  Mn4  1  0.10249100  0.31673200  0.39693400  1
  Mn  Mn5  1  0.97677900  0.02820400  0.99475800  1
  O  O0  1  0.82233300  0.77930500  0.99857000  1
  O  O1  1  0.67223900  0.78444500  0.50331800  1
  O  O2  1  0.60391300  0.44929000  0.09115700  1
  O  O3  1  0.35599800  0.23205400  0.56746300  1
  F  F0  1  0.79236300  0.42061400  0.64900300  1
  F  F1  1  0.84489000  0.12479500  0.31402700  1
  F  F2  1  0.65713200  0.09249400  0.83846300  1
  F  F3  1  0.27829300  0.56297500  0.78018000  1
  F  F4  1  0.30609500  0.94093300  0.17473300  1
  F  F5  1  0.06267200  0.56979000  0.34376100  1
  F  F6  1  0.19064000  0.25430700  0.03437100  1
  F  F7  1  0.16120900  0.91008400  0.69702600  1
loop_
_geom_bond_atom_site_label_1
_geom_bond_atom_site_label_2
_geom_bond_distance
_geom_bond_site_symmetry_2
Ca0 F4 2.232736 1_556
Ca0 F7 2.238721 1_555
Ca0 O0 2.252528 1_555
Ca0 F3 2.254139 1_555
Ca0 O1 2.353224 1_555
Ca0 F2 2.445260 1_565
Mn0 O3 2.019618 1_555
Mn0 O1 2.129490 1_545
Mn1 O2 1.818535 1_555
Mn1 O0 1.910393 1_554
Mn1 O1 1.924425 1_555
Mn2 O2 1.888584 1_556
Mn2 O3 1.898165 1_555
Mn3 O0 2.123035 1_555
Mn3 O1 2.227179 1_555
Mn4 O3 1.990414 1_555
Mn5 O0 2.141100 1_545
F0 Mn2 2.107049 1_555
F0 Mn3 2.170571 1_555
F0 Mn4 2.350729 1_655
F1 Mn5 2.100821 1_554
F1 Mn4 2.121378 1_655
F1 Mn0 2.128815 1_555
F2 Mn5 2.187881 1_555
F2 Mn2 2.242412 1_555
F2 Mn0 2.551130 1_555
F3 Mn2 2.193014 1_555
F3 Mn3 2.197278 1_455
F4 Mn0 2.139147 1_565
F4 Mn5 2.370653 1_464
F5 Mn4 2.092941 1_555
F5 Mn1 2.137563 1_455
F5 Mn3 2.167611 1_455
F6 Mn2 2.134894 1_554
F6 Mn5 2.137180 1_454
F6 Mn4 2.226072 1_555
F7 Mn5 2.160505 1_465
F7 Mn3 2.191042 1_455
F7 Mn0 2.624957 1_565
