# generated using pymatgen
data_Cs2CoHgF6
_symmetry_space_group_name_H-M   'P 1'
_cell_length_a   5.89318900
_cell_length_b   5.89318892
_cell_length_c   5.89318948
_cell_angle_alpha   59.99999912
_cell_angle_beta   59.99999710
_cell_angle_gamma   59.99999393
_symmetry_Int_Tables_number   1
_chemical_formula_structural   Cs2CoHgF6
_chemical_formula_sum   'Cs2 Co1 Hg1 F6'
_cell_volume   144.72251730
_cell_formula_units_Z   1
loop_
 _symmetry_equiv_pos_site_id
 _symmetry_equiv_pos_as_xyz
  1  'x, y, z'
loop_
 _atom_site_type_symbol
 _atom_site_label
 _atom_site_symmetry_multiplicity
 _atom_site_fract_x
 _atom_site_fract_y
 _atom_site_fract_z
 _atom_site_occupancy
  Cs  Cs0  1  0.25000000  0.25000000  0.25000000  1
  Cs  Cs1  1  0.75000000  0.75000000  0.75000000  1
  Co  Co0  1  0.00000000  0.00000000  0.00000000  1
  Hg  Hg0  1  0.50000000  0.50000000  0.50000000  1
  F  F0  1  0.22528800  0.77471200  0.22528800  1
  F  F1  1  0.77471200  0.77471200  0.22528800  1
  F  F2  1  0.77471200  0.22528800  0.77471200  1
  F  F3  1  0.77471200  0.22528800  0.22528800  1
  F  F4  1  0.22528800  0.77471200  0.77471200  1
  F  F5  1  0.22528800  0.22528800  0.77471200  1
loop_
_geom_bond_atom_site_label_1
_geom_bond_atom_site_label_2
_geom_bond_distance
_geom_bond_site_symmetry_2
Cs0 F1 2.953783 1_545
Cs0 F1 2.953783 1_455
Cs0 F0 2.953783 1_555
Cs0 F2 2.953783 1_554
Cs0 F3 2.953783 1_555
Cs0 F0 2.953783 1_545
Cs0 F2 2.953783 1_455
Cs0 F3 2.953783 1_455
Cs0 F4 2.953784 1_554
Cs0 F4 2.953784 1_545
Cs0 F5 2.953784 1_554
Cs0 F5 2.953784 1_555
Cs1 F5 2.953783 1_565
Cs1 F5 2.953783 1_655
Cs1 F2 2.953783 1_555
Cs1 F0 2.953783 1_556
Cs1 F4 2.953783 1_555
Cs1 F2 2.953783 1_565
Cs1 F0 2.953783 1_655
Cs1 F4 2.953783 1_655
Cs1 F3 2.953784 1_556
Cs1 F3 2.953784 1_565
Cs1 F1 2.953784 1_556
Cs1 F1 2.953784 1_555
Co0 F3 1.877601 1_455
Co0 F4 1.877601 1_544
Co0 F0 1.877602 1_545
Co0 F5 1.877602 1_554
Co0 F1 1.877602 1_445
Co0 F2 1.877602 1_454
F0 Hg0 2.289512 1_555
F1 Hg0 2.289512 1_555
F2 Hg0 2.289512 1_555
F3 Hg0 2.289512 1_555
F4 Hg0 2.289512 1_555
F5 Hg0 2.289512 1_555
