# generated using pymatgen
data_Li2V3O6
_symmetry_space_group_name_H-M   'P 1'
_cell_length_a   5.09780727
_cell_length_b   6.74553018
_cell_length_c   6.74556830
_cell_angle_alpha   96.26052040
_cell_angle_beta   82.35745301
_cell_angle_gamma   97.64201947
_symmetry_Int_Tables_number   1
_chemical_formula_structural   Li2V3O6
_chemical_formula_sum   'Li4 V6 O12'
_cell_volume   226.87250029
_cell_formula_units_Z   2
loop_
 _symmetry_equiv_pos_site_id
 _symmetry_equiv_pos_as_xyz
  1  'x, y, z'
loop_
 _atom_site_type_symbol
 _atom_site_label
 _atom_site_symmetry_multiplicity
 _atom_site_fract_x
 _atom_site_fract_y
 _atom_site_fract_z
 _atom_site_occupancy
  Li  Li0  1  0.99999100  0.66771800  0.66771100  1
  Li  Li1  1  0.50001100  0.16770900  0.16771600  1
  Li  Li2  1  0.99998900  0.33215200  0.33214900  1
  Li  Li3  1  0.50000600  0.83215100  0.83215300  1
  V  V0  1  0.25000700  0.74738200  0.24738100  1
  V  V1  1  0.25000500  0.08854800  0.58855200  1
  V  V2  1  0.74999700  0.91411600  0.41411500  1
  V  V3  1  0.74998100  0.24734500  0.74734500  1
  V  V4  1  0.74999900  0.58852000  0.08851600  1
  V  V5  1  0.25001000  0.41399200  0.91399600  1
  O  O0  1  0.38177400  0.14281400  0.86409100  1
  O  O1  1  0.88188400  0.64280300  0.36408500  1
  O  O2  1  0.61811100  0.86408000  0.14281200  1
  O  O3  1  0.11823400  0.36410000  0.64280400  1
  O  O4  1  0.89163700  0.31582100  0.02727900  1
  O  O5  1  0.39163200  0.81579900  0.52726000  1
  O  O6  1  0.36855300  0.46437700  0.18585600  1
  O  O7  1  0.86840100  0.96433100  0.68585400  1
  O  O8  1  0.60836200  0.52727300  0.81582300  1
  O  O9  1  0.10836900  0.02726200  0.31579600  1
  O  O10  1  0.13144300  0.68585500  0.96437800  1
  O  O11  1  0.63160300  0.18585300  0.46432800  1
loop_
_geom_bond_atom_site_label_1
_geom_bond_atom_site_label_2
_geom_bond_distance
_geom_bond_site_symmetry_2
Li0 O7 2.179440 1_555
Li0 O10 2.179511 1_655
Li0 O1 2.193537 1_555
Li0 O3 2.193741 1_655
Li0 O5 2.248177 1_655
Li0 O8 2.248193 1_555
Li1 O11 2.179455 1_555
Li1 O6 2.179512 1_555
Li1 O2 2.193530 1_545
Li1 O0 2.193796 1_554
Li1 O4 2.248163 1_555
Li1 O9 2.248169 1_555
Li2 O11 2.132897 1_555
Li2 O6 2.133682 1_655
Li2 O4 2.187021 1_555
Li2 O9 2.187176 1_655
Li2 O1 2.236661 1_555
Li2 O3 2.236973 1_655
Li3 O7 2.132934 1_555
Li3 O10 2.133687 1_555
Li3 O8 2.187065 1_555
Li3 O5 2.187201 1_555
Li3 O2 2.236732 1_556
Li3 O0 2.236985 1_565
O0 V3 2.004145 1_555
O0 V5 2.010717 1_555
O0 V1 2.039158 1_555
O1 V0 2.003787 1_655
O1 V2 2.011860 1_555
O1 V4 2.039604 1_555
O2 V0 2.003675 1_555
O2 V2 2.011812 1_555
O2 V4 2.039541 1_555
O3 V3 2.004378 1_455
O3 V5 2.010846 1_555
O3 V1 2.039225 1_555
O4 V5 1.943543 1_654
O4 V4 2.045468 1_555
O4 V3 2.093877 1_554
O5 V2 1.943479 1_555
O5 V1 2.045775 1_565
O5 V0 2.093435 1_555
O6 V5 1.986936 1_554
O6 V0 2.061343 1_555
O6 V4 2.064181 1_555
O7 V2 1.985845 1_555
O7 V3 2.061136 1_565
O7 V1 2.064959 1_665
O8 V5 1.943452 1_555
O8 V4 2.045448 1_556
O8 V3 2.093742 1_555
O9 V2 1.943515 1_445
O9 V1 2.045854 1_555
O9 V0 2.093452 1_545
O10 V5 1.986988 1_555
O10 V0 2.061383 1_556
O10 V4 2.064153 1_456
O11 V2 1.985795 1_545
O11 V3 2.061088 1_555
O11 V1 2.064952 1_555
