# generated using pymatgen
data_MgFeWS4
_symmetry_space_group_name_H-M   'P 1'
_cell_length_a   7.35769275
_cell_length_b   7.26024636
_cell_length_c   7.25886049
_cell_angle_alpha   57.49505406
_cell_angle_beta   59.49479913
_cell_angle_gamma   59.49589759
_symmetry_Int_Tables_number   1
_chemical_formula_structural   MgFeWS4
_chemical_formula_sum   'Mg2 Fe2 W2 S8'
_cell_volume   266.63132393
_cell_formula_units_Z   2
loop_
 _symmetry_equiv_pos_site_id
 _symmetry_equiv_pos_as_xyz
  1  'x, y, z'
loop_
 _atom_site_type_symbol
 _atom_site_label
 _atom_site_symmetry_multiplicity
 _atom_site_fract_x
 _atom_site_fract_y
 _atom_site_fract_z
 _atom_site_occupancy
  Mg  Mg0  1  0.85808888  0.89022427  0.89006888  1
  Mg  Mg1  1  0.12264357  0.12694240  0.12705413  1
  Fe  Fe0  1  0.47933774  0.52404660  0.52397771  1
  Fe  Fe1  1  0.97511264  0.52336981  0.52324018  1
  W  W0  1  0.51497274  0.52309187  0.94641248  1
  W  W1  1  0.51491235  0.94643631  0.52302294  1
  S  S0  1  0.75545228  0.74507795  0.74520973  1
  S  S1  1  0.27343608  0.24654032  0.70700197  1
  S  S2  1  0.27339945  0.70697016  0.24664025  1
  S  S3  1  0.70894934  0.25458855  0.25460269  1
  S  S4  1  0.74427759  0.28927211  0.72387495  1
  S  S5  1  0.25262472  0.74565801  0.74575220  1
  S  S6  1  0.28266763  0.25377122  0.25377190  1
  S  S7  1  0.74412898  0.72400543  0.28937101  1
loop_
_geom_bond_atom_site_label_1
_geom_bond_atom_site_label_2
_geom_bond_distance
_geom_bond_site_symmetry_2
Mg0 S4 2.314424 1_565
Mg0 S7 2.315422 1_556
Mg0 S0 2.364616 1_555
Mg0 S5 2.372128 1_655
Mg1 S1 2.445410 1_554
Mg1 S2 2.445462 1_545
Mg1 S3 2.485628 1_455
Mg1 S6 2.488113 1_555
Fe0 S5 2.301223 1_555
Fe0 S7 2.376827 1_555
Fe0 S4 2.377200 1_555
Fe0 S2 2.508580 1_555
Fe0 S1 2.509575 1_555
Fe0 S3 2.811939 1_555
Fe1 S0 2.302560 1_555
Fe1 S7 2.377026 1_555
Fe1 S4 2.377672 1_555
Fe1 S2 2.498948 1_655
Fe1 S1 2.499844 1_655
Fe1 S6 2.811133 1_655
S0 W0 2.367047 1_555
S0 W1 2.368089 1_555
S1 W1 2.544774 1_545
S2 W0 2.544840 1_554
S3 W0 2.563545 1_554
S3 W1 2.563884 1_545
S4 W0 2.368627 1_555
S5 W0 2.370012 1_555
S5 W1 2.370320 1_555
S6 W1 2.559585 1_545
S6 W0 2.560338 1_554
S7 W1 2.367183 1_555
