# generated using pymatgen
data_AlCuO4F
_symmetry_space_group_name_H-M   'P 1'
_cell_length_a   5.33897550
_cell_length_b   5.33897550
_cell_length_c   10.59098005
_cell_angle_alpha   81.88438307
_cell_angle_beta   81.88438307
_cell_angle_gamma   31.42050855
_symmetry_Int_Tables_number   1
_chemical_formula_structural   AlCuO4F
_chemical_formula_sum   'Al2 Cu2 O8 F2'
_cell_volume   155.67948962
_cell_formula_units_Z   2
loop_
 _symmetry_equiv_pos_site_id
 _symmetry_equiv_pos_as_xyz
  1  'x, y, z'
loop_
 _atom_site_type_symbol
 _atom_site_label
 _atom_site_symmetry_multiplicity
 _atom_site_fract_x
 _atom_site_fract_y
 _atom_site_fract_z
 _atom_site_occupancy
  Al  Al0  1  0.50000000  0.50000000  0.50000000  1
  Al  Al1  1  0.00000000  0.00000000  0.00000000  1
  Cu  Cu0  1  0.67308200  0.67308200  0.19445400  1
  Cu  Cu1  1  0.32691800  0.32691800  0.80554600  1
  O  O0  1  0.34925800  0.34925800  0.62448800  1
  O  O1  1  0.65074200  0.65074200  0.37551200  1
  O  O2  1  0.06932300  0.06932300  0.15073000  1
  O  O3  1  0.93067700  0.93067700  0.84927000  1
  O  O4  1  0.37976700  0.37976700  0.05818900  1
  O  O5  1  0.62023300  0.62023300  0.94181100  1
  O  O6  1  0.31294500  0.31294500  0.18737700  1
  O  O7  1  0.68705500  0.68705500  0.81262300  1
  F  F0  1  0.07032100  0.07032100  0.57881900  1
  F  F1  1  0.92967900  0.92967900  0.42118100  1
loop_
_geom_bond_atom_site_label_1
_geom_bond_atom_site_label_2
_geom_bond_distance
_geom_bond_site_symmetry_2
Al0 F0 1.867139 1_655
Al0 F0 1.867139 1_565
Al0 F1 1.867139 1_455
Al0 F1 1.867139 1_545
Al0 O1 1.881497 1_555
Al0 O0 1.881497 1_555
Al1 O3 1.841148 1_444
Al1 O2 1.841148 1_555
Al1 O5 1.942605 1_454
Al1 O5 1.942605 1_544
Al1 O4 1.942605 1_455
Al1 O4 1.942605 1_545
Cu0 O2 1.893864 1_655
Cu0 O2 1.893864 1_565
Cu0 O1 1.897551 1_555
Cu0 O6 2.032432 1_655
Cu0 O6 2.032432 1_565
Cu1 O3 1.893864 1_545
Cu1 O3 1.893864 1_455
Cu1 O0 1.897551 1_555
Cu1 O7 2.032432 1_455
Cu1 O7 2.032432 1_545
O4 O6 1.438122 1_555
O5 O7 1.438122 1_555
