# generated using pymatgen
data_Li9Mn2Co5O16
_symmetry_space_group_name_H-M   'P 1'
_cell_length_a   6.60674540
_cell_length_b   6.60674540
_cell_length_c   15.41892274
_cell_angle_alpha   88.10155948
_cell_angle_beta   88.10155948
_cell_angle_gamma   25.58860747
_symmetry_Int_Tables_number   1
_chemical_formula_structural   Li9Mn2Co5O16
_chemical_formula_sum   'Li9 Mn2 Co5 O16'
_cell_volume   290.51468565
_cell_formula_units_Z   1
loop_
 _symmetry_equiv_pos_site_id
 _symmetry_equiv_pos_as_xyz
  1  'x, y, z'
loop_
 _atom_site_type_symbol
 _atom_site_label
 _atom_site_symmetry_multiplicity
 _atom_site_fract_x
 _atom_site_fract_y
 _atom_site_fract_z
 _atom_site_occupancy
  Li  Li0  1  0.69024600  0.69024600  0.93240900  1
  Li  Li1  1  0.06842400  0.06842400  0.80424300  1
  Li  Li2  1  0.43515800  0.43515800  0.68188700  1
  Li  Li3  1  0.30893200  0.30893200  0.06473900  1
  Li  Li4  1  0.93732800  0.93732800  0.19152500  1
  Li  Li5  1  0.56225500  0.56225500  0.31652600  1
  Li  Li6  1  0.81197600  0.81197600  0.56536400  1
  Li  Li7  1  0.18686300  0.18686300  0.44026400  1
  Li  Li8  1  0.74687800  0.74687800  0.74960900  1
  Mn  Mn0  1  0.00008500  0.00008500  0.99960400  1
  Mn  Mn1  1  0.36645800  0.36645800  0.87113500  1
  Co  Co0  1  0.13456500  0.13456500  0.63134700  1
  Co  Co1  1  0.50474400  0.50474400  0.50342600  1
  Co  Co2  1  0.87858500  0.87858500  0.37676200  1
  Co  Co3  1  0.25125700  0.25125700  0.25190200  1
  Co  Co4  1  0.62811500  0.62811500  0.12698100  1
  O  O0  1  0.52090200  0.52090200  0.91506400  1
  O  O1  1  0.90251000  0.90251000  0.79468000  1
  O  O2  1  0.27057900  0.27057900  0.65203800  1
  O  O3  1  0.15197200  0.15197200  0.03815900  1
  O  O4  1  0.77748500  0.77748500  0.16121700  1
  O  O5  1  0.40216100  0.40216100  0.28478700  1
  O  O6  1  0.64686400  0.64686400  0.53327100  1
  O  O7  1  0.02669400  0.02669500  0.40996800  1
  O  O8  1  0.84825900  0.84825900  0.95963200  1
  O  O9  1  0.22912600  0.22912600  0.84810000  1
  O  O10  1  0.59266600  0.59266600  0.71191700  1
  O  O11  1  0.47241300  0.47241300  0.08380300  1
  O  O12  1  0.09770900  0.09770900  0.21127800  1
  O  O13  1  0.72464600  0.72464600  0.33631700  1
  O  O14  1  0.97292700  0.97292700  0.58877100  1
  O  O15  1  0.35121600  0.35121600  0.46327500  1
loop_
_geom_bond_atom_site_label_1
_geom_bond_atom_site_label_2
_geom_bond_distance
_geom_bond_site_symmetry_2
Li0 O9 2.009279 1_655
Li0 O9 2.009279 1_565
Li0 O8 2.092800 1_555
Li0 O0 2.207396 1_555
Li0 O3 2.233354 1_656
Li0 O3 2.233354 1_566
Li1 O10 2.057788 1_455
Li1 O10 2.057788 1_545
Li1 O1 2.147942 1_445
Li1 O9 2.200062 1_555
Li1 O0 2.316085 1_455
Li1 O0 2.316085 1_545
Li2 O14 2.095551 1_545
Li2 O14 2.095551 1_455
Li2 O10 2.096985 1_555
Li2 O2 2.185262 1_555
Li2 O1 2.300539 1_455
Li2 O1 2.300539 1_545
Li3 O3 2.077202 1_555
Li3 O4 2.115830 1_545
Li3 O4 2.115830 1_455
Li3 O11 2.136798 1_555
Li3 O8 2.228910 1_454
Li3 O8 2.228910 1_544
Li4 O5 2.090333 1_565
Li4 O5 2.090333 1_655
Li4 O12 2.099110 1_665
Li4 O4 2.127419 1_555
Li4 O11 2.247827 1_565
Li4 O11 2.247827 1_655
Li5 O7 2.093207 1_655
Li5 O7 2.093209 1_565
Li5 O13 2.124843 1_555
Li5 O5 2.136247 1_555
Li5 O12 2.220908 1_655
Li5 O12 2.220908 1_565
Li6 O2 2.040270 1_655
Li6 O2 2.040270 1_565
Li6 O14 2.117135 1_555
Li6 O15 2.195441 1_565
Li6 O15 2.195441 1_655
Li6 O6 2.200639 1_555
Li7 O6 2.100609 1_545
Li7 O6 2.100609 1_455
Li7 O7 2.131465 1_555
Li7 O15 2.159128 1_555
Li7 O13 2.212104 1_455
Li7 O13 2.212104 1_545
Li8 O10 2.089194 1_555
Li8 O2 2.113285 1_565
Li8 O2 2.113285 1_655
Li8 O9 2.115545 1_655
Li8 O9 2.115545 1_565
Li8 O1 2.144575 1_555
Mn0 O0 1.971784 1_455
Mn0 O0 1.971784 1_545
Mn0 O11 1.980340 1_456
Mn0 O11 1.980340 1_546
Mn0 O3 2.064655 1_556
Mn0 O8 2.071002 1_445
Mn1 O9 1.816663 1_555
Mn1 O1 1.925844 1_455
Mn1 O1 1.925844 1_545
Mn1 O8 2.008924 1_545
Mn1 O8 2.008924 1_455
Mn1 O0 2.123858 1_555
Co0 O2 1.792029 1_555
Co0 O10 1.982375 1_545
Co0 O10 1.982375 1_455
Co0 O6 2.106240 1_455
Co0 O6 2.106240 1_545
Co0 O14 2.204950 1_445
Co1 O6 1.903310 1_555
Co1 O14 2.000919 1_455
Co1 O14 2.000919 1_545
Co1 O7 2.066260 1_655
Co1 O7 2.066262 1_565
Co1 O15 2.092854 1_555
Co2 O7 1.992668 1_665
Co2 O15 2.003093 1_655
Co2 O15 2.003093 1_565
Co2 O5 2.052989 1_565
Co2 O5 2.052989 1_655
Co2 O13 2.099402 1_555
Co3 O13 1.980397 1_455
Co3 O13 1.980397 1_545
Co3 O5 2.026084 1_555
Co3 O4 2.043976 1_455
Co3 O4 2.043976 1_545
Co3 O12 2.095503 1_555
Co4 O12 1.987181 1_655
Co4 O12 1.987181 1_565
Co4 O4 2.012993 1_555
Co4 O3 2.020425 1_655
Co4 O3 2.020425 1_565
Co4 O11 2.135220 1_555
