# generated using pymatgen
data_HfInNi2
_symmetry_space_group_name_H-M   'P 1'
_cell_length_a   6.45111200
_cell_length_b   6.45111200
_cell_length_c   12.41907600
_cell_angle_alpha   90.00000000
_cell_angle_beta   90.00000000
_cell_angle_gamma   90.00000000
_symmetry_Int_Tables_number   1
_chemical_formula_structural   HfInNi2
_chemical_formula_sum   'Hf8 In8 Ni16'
_cell_volume   516.84277381
_cell_formula_units_Z   8
loop_
 _symmetry_equiv_pos_site_id
 _symmetry_equiv_pos_as_xyz
  1  'x, y, z'
loop_
 _atom_site_type_symbol
 _atom_site_label
 _atom_site_symmetry_multiplicity
 _atom_site_fract_x
 _atom_site_fract_y
 _atom_site_fract_z
 _atom_site_occupancy
  Hf  Hf0_0  1  0.00000000  0.00000000  0.00000000  1
  Hf  Hf0_1  1  0.00000000  0.00000000  0.50000000  1
  Hf  Hf0_2  1  0.00000000  0.50000000  0.00000000  1
  Hf  Hf0_3  1  0.00000000  0.50000000  0.50000000  1
  Hf  Hf0_4  1  0.50000000  0.00000000  0.00000000  1
  Hf  Hf0_5  1  0.50000000  0.00000000  0.50000000  1
  Hf  Hf0_6  1  0.50000000  0.50000000  0.00000000  1
  Hf  Hf0_7  1  0.50000000  0.50000000  0.50000000  1
  In  In0_0  1  0.00000000  0.00000000  0.25000000  1
  In  In0_1  1  0.00000000  0.00000000  0.75000000  1
  In  In0_2  1  0.00000000  0.50000000  0.25000000  1
  In  In0_3  1  0.00000000  0.50000000  0.75000000  1
  In  In0_4  1  0.50000000  0.00000000  0.25000000  1
  In  In0_5  1  0.50000000  0.00000000  0.75000000  1
  In  In0_6  1  0.50000000  0.50000000  0.25000000  1
  In  In0_7  1  0.50000000  0.50000000  0.75000000  1
  Ni  Ni0_0  1  0.25000000  0.25000000  0.11193850  1
  Ni  Ni0_1  1  0.25000000  0.25000000  0.61193850  1
  Ni  Ni0_2  1  0.25000000  0.75000000  0.11193850  1
  Ni  Ni0_3  1  0.25000000  0.75000000  0.61193850  1
  Ni  Ni0_4  1  0.75000000  0.25000000  0.11193850  1
  Ni  Ni0_5  1  0.75000000  0.25000000  0.61193850  1
  Ni  Ni0_6  1  0.75000000  0.75000000  0.11193850  1
  Ni  Ni0_7  1  0.75000000  0.75000000  0.61193850  1
  Ni  Ni1_0  1  0.25000000  0.25000000  0.38806150  1
  Ni  Ni1_1  1  0.25000000  0.25000000  0.88806150  1
  Ni  Ni1_2  1  0.25000000  0.75000000  0.38806150  1
  Ni  Ni1_3  1  0.25000000  0.75000000  0.88806150  1
  Ni  Ni1_4  1  0.75000000  0.25000000  0.38806150  1
  Ni  Ni1_5  1  0.75000000  0.25000000  0.88806150  1
  Ni  Ni1_6  1  0.75000000  0.75000000  0.38806150  1
  Ni  Ni1_7  1  0.75000000  0.75000000  0.88806150  1
loop_
_geom_bond_atom_site_label_1
_geom_bond_atom_site_label_2
_geom_bond_distance
_geom_bond_site_symmetry_2
Hf0_0 Ni1_5 2.671083 1_454
Hf0_0 Ni1_1 2.671083 1_554
Hf0_0 Ni1_3 2.671083 1_544
Hf0_0 Ni1_7 2.671083 1_444
Hf0_0 Ni0_4 2.671083 1_455
Hf0_0 Ni0_2 2.671083 1_545
Hf0_0 Ni0_6 2.671083 1_445
Hf0_0 Ni0_0 2.671083 1_555
Hf0_0 In0_0 3.104769 1_555
Hf0_0 In0_1 3.104769 1_554
Hf0_1 Ni0_1 2.671083 1_555
Hf0_1 Ni1_4 2.671083 1_455
Hf0_1 Ni1_6 2.671083 1_445
Hf0_1 Ni0_5 2.671083 1_455
Hf0_1 Ni1_0 2.671083 1_555
Hf0_1 Ni0_3 2.671083 1_545
Hf0_1 Ni0_7 2.671083 1_445
Hf0_1 Ni1_2 2.671083 1_545
Hf0_1 In0_1 3.104769 1_555
Hf0_1 In0_0 3.104769 1_555
Hf0_2 Ni1_5 2.671083 1_454
Hf0_2 Ni1_3 2.671083 1_554
Hf0_2 Ni1_1 2.671083 1_554
Hf0_2 Ni1_7 2.671083 1_454
Hf0_2 Ni0_4 2.671083 1_455
Hf0_2 Ni0_2 2.671083 1_555
Hf0_2 Ni0_6 2.671083 1_455
Hf0_2 Ni0_0 2.671083 1_555
Hf0_2 In0_2 3.104769 1_555
Hf0_2 In0_3 3.104769 1_554
Hf0_3 Ni0_7 2.671083 1_455
Hf0_3 Ni1_4 2.671083 1_455
Hf0_3 Ni0_1 2.671083 1_555
Hf0_3 Ni0_5 2.671083 1_455
Hf0_3 Ni1_0 2.671083 1_555
Hf0_3 Ni1_2 2.671083 1_555
Hf0_3 Ni0_3 2.671083 1_555
Hf0_3 Ni1_6 2.671083 1_455
Hf0_3 In0_3 3.104769 1_555
Hf0_3 In0_2 3.104769 1_555
Hf0_4 Ni1_5 2.671083 1_554
Hf0_4 Ni1_1 2.671083 1_554
Hf0_4 Ni1_3 2.671083 1_544
Hf0_4 Ni1_7 2.671083 1_544
Hf0_4 Ni0_2 2.671083 1_545
Hf0_4 Ni0_6 2.671083 1_545
Hf0_4 Ni0_0 2.671083 1_555
Hf0_4 Ni0_4 2.671083 1_555
Hf0_4 In0_4 3.104769 1_555
Hf0_4 In0_5 3.104769 1_554
Hf0_5 Ni0_1 2.671083 1_555
Hf0_5 Ni0_7 2.671083 1_545
Hf0_5 Ni1_0 2.671083 1_555
Hf0_5 Ni0_5 2.671083 1_555
Hf0_5 Ni1_4 2.671083 1_555
Hf0_5 Ni0_3 2.671083 1_545
Hf0_5 Ni1_2 2.671083 1_545
Hf0_5 Ni1_6 2.671083 1_545
Hf0_5 In0_5 3.104769 1_555
Hf0_5 In0_4 3.104769 1_555
Hf0_6 Ni1_5 2.671083 1_554
Hf0_6 Ni1_3 2.671083 1_554
Hf0_6 Ni1_7 2.671083 1_554
Hf0_6 Ni1_1 2.671083 1_554
Hf0_6 Ni0_2 2.671083 1_555
Hf0_6 Ni0_6 2.671083 1_555
Hf0_6 Ni0_0 2.671083 1_555
Hf0_6 Ni0_4 2.671083 1_555
Hf0_6 In0_6 3.104769 1_555
Hf0_6 In0_7 3.104769 1_554
Hf0_7 Ni0_1 2.671083 1_555
Hf0_7 Ni1_6 2.671083 1_555
Hf0_7 Ni1_0 2.671083 1_555
Hf0_7 Ni0_5 2.671083 1_555
Hf0_7 Ni1_4 2.671083 1_555
Hf0_7 Ni1_2 2.671083 1_555
Hf0_7 Ni0_3 2.671083 1_555
Hf0_7 Ni0_7 2.671083 1_555
Hf0_7 In0_7 3.104769 1_555
Hf0_7 In0_6 3.104769 1_555
In0_0 Ni1_2 2.853410 1_545
In0_0 Ni0_4 2.853410 1_455
In0_0 Ni1_4 2.853410 1_455
In0_0 Ni1_6 2.853410 1_445
In0_0 Ni1_0 2.853410 1_555
In0_0 Ni0_2 2.853410 1_545
In0_0 Ni0_0 2.853410 1_555
In0_0 Ni0_6 2.853410 1_445
In0_0 In0_4 3.225556 1_555
In0_0 In0_2 3.225556 1_545
In0_0 In0_2 3.225556 1_555
In0_0 In0_4 3.225556 1_455
In0_1 Ni0_5 2.853410 1_455
In0_1 Ni0_3 2.853410 1_545
In0_1 Ni0_7 2.853410 1_445
In0_1 Ni0_1 2.853410 1_555
In0_1 Ni1_5 2.853410 1_455
In0_1 Ni1_7 2.853410 1_445
In0_1 Ni1_3 2.853410 1_545
In0_1 Ni1_1 2.853410 1_555
In0_1 In0_5 3.225556 1_455
In0_1 In0_5 3.225556 1_555
In0_1 In0_3 3.225556 1_555
In0_1 In0_3 3.225556 1_545
In0_2 Ni0_4 2.853410 1_455
In0_2 Ni1_4 2.853410 1_455
In0_2 Ni0_2 2.853410 1_555
In0_2 Ni1_0 2.853410 1_555
In0_2 Ni0_0 2.853410 1_555
In0_2 Ni1_2 2.853410 1_555
In0_2 Ni0_6 2.853410 1_455
In0_2 Ni1_6 2.853410 1_455
In0_2 In0_6 3.225556 1_455
In0_2 In0_6 3.225556 1_555
In0_3 Ni0_5 2.853410 1_455
In0_3 Ni0_3 2.853410 1_555
In0_3 Ni0_7 2.853410 1_455
In0_3 Ni0_1 2.853410 1_555
In0_3 Ni1_5 2.853410 1_455
In0_3 Ni1_3 2.853410 1_555
In0_3 Ni1_7 2.853410 1_455
In0_3 Ni1_1 2.853410 1_555
In0_3 In0_7 3.225556 1_455
In0_3 In0_7 3.225556 1_555
In0_4 Ni1_2 2.853410 1_545
In0_4 Ni1_6 2.853410 1_545
In0_4 Ni1_0 2.853410 1_555
In0_4 Ni0_2 2.853410 1_545
In0_4 Ni1_4 2.853410 1_555
In0_4 Ni0_0 2.853410 1_555
In0_4 Ni0_6 2.853410 1_545
In0_4 Ni0_4 2.853410 1_555
In0_4 In0_6 3.225556 1_555
In0_4 In0_6 3.225556 1_545
In0_5 Ni0_5 2.853410 1_555
In0_5 Ni0_3 2.853410 1_545
In0_5 Ni0_1 2.853410 1_555
In0_5 Ni0_7 2.853410 1_545
In0_5 Ni1_7 2.853410 1_545
In0_5 Ni1_3 2.853410 1_545
In0_5 Ni1_1 2.853410 1_555
In0_5 Ni1_5 2.853410 1_555
In0_5 In0_7 3.225556 1_545
In0_5 In0_7 3.225556 1_555
In0_6 Ni1_6 2.853410 1_555
In0_6 Ni0_6 2.853410 1_555
In0_6 Ni0_2 2.853410 1_555
In0_6 Ni1_0 2.853410 1_555
In0_6 Ni0_0 2.853410 1_555
In0_6 Ni1_4 2.853410 1_555
In0_6 Ni1_2 2.853410 1_555
In0_6 Ni0_4 2.853410 1_555
In0_7 Ni0_5 2.853410 1_555
In0_7 Ni0_3 2.853410 1_555
In0_7 Ni0_7 2.853410 1_555
In0_7 Ni0_1 2.853410 1_555
In0_7 Ni1_3 2.853410 1_555
In0_7 Ni1_7 2.853410 1_555
In0_7 Ni1_1 2.853410 1_555
In0_7 Ni1_5 2.853410 1_555
Ni0_0 Ni1_1 2.780345 1_554
Ni0_1 Ni1_0 2.780345 1_555
Ni0_2 Ni1_3 2.780345 1_554
Ni0_3 Ni1_2 2.780345 1_555
Ni0_4 Ni1_5 2.780345 1_554
Ni0_5 Ni1_4 2.780345 1_555
Ni0_6 Ni1_7 2.780345 1_554
Ni0_7 Ni1_6 2.780345 1_555
