# generated using pymatgen
data_RbMg6Mo
_symmetry_space_group_name_H-M   'P 1'
_cell_length_a   6.30933863
_cell_length_b   6.30933863
_cell_length_c   5.22257200
_cell_angle_alpha   90.00000000
_cell_angle_beta   90.00000000
_cell_angle_gamma   110.81618308
_symmetry_Int_Tables_number   1
_chemical_formula_structural   RbMg6Mo
_chemical_formula_sum   'Rb1 Mg6 Mo1'
_cell_volume   194.32833350
_cell_formula_units_Z   1
loop_
 _symmetry_equiv_pos_site_id
 _symmetry_equiv_pos_as_xyz
  1  'x, y, z'
loop_
 _atom_site_type_symbol
 _atom_site_label
 _atom_site_symmetry_multiplicity
 _atom_site_fract_x
 _atom_site_fract_y
 _atom_site_fract_z
 _atom_site_occupancy
  Rb  Rb0  1  0.39765900  0.60234100  0.50000000  1
  Mg  Mg0  1  0.92254100  0.68316200  0.50000000  1
  Mg  Mg1  1  0.31683800  0.07745900  0.50000000  1
  Mg  Mg2  1  0.84343600  0.15656400  0.50000000  1
  Mg  Mg3  1  0.66049700  0.88909200  0.00000000  1
  Mg  Mg4  1  0.11090800  0.33950300  0.00000000  1
  Mg  Mg5  1  0.63576000  0.36424000  0.00000000  1
  Mo  Mo0  1  0.11236100  0.88763900  0.00000000  1
loop_
_geom_bond_atom_site_label_1
_geom_bond_atom_site_label_2
_geom_bond_distance
_geom_bond_site_symmetry_2
Mg0 Mg1 2.824732 1_665
Mg0 Mo0 2.969745 1_655
Mg0 Mo0 2.969745 1_656
Mg0 Rb0 3.166524 1_555
Mg0 Mg2 3.179531 1_555
Mg0 Mg2 3.198426 1_565
Mg0 Rb0 3.214429 1_655
Mg0 Mg5 3.399107 1_556
Mg0 Mg5 3.399107 1_555
Mg1 Mo0 2.969745 1_545
Mg1 Mo0 2.969745 1_546
Mg1 Rb0 3.166524 1_555
Mg1 Mg2 3.179531 1_555
Mg1 Mg2 3.198426 1_455
Mg1 Rb0 3.214429 1_545
Mg1 Mg5 3.399107 1_556
Mg1 Mg5 3.399107 1_555
Mg2 Mg3 3.100732 1_545
Mg2 Mg3 3.100732 1_546
Mg2 Mg4 3.100732 1_656
Mg2 Mg4 3.100732 1_655
Mg2 Mg5 3.387158 1_556
Mg2 Mg5 3.387158 1_555
Mg2 Rb0 3.626001 1_545
Mg2 Rb0 3.626001 1_655
Mg3 Mo0 2.854234 1_655
Mg3 Mg5 3.056817 1_565
Mg3 Mg4 3.226731 1_665
Mg3 Mg5 3.259271 1_555
Mg3 Rb0 3.272568 1_555
Mg3 Rb0 3.272568 1_554
Mg3 Mo0 3.455128 1_555
Mg4 Mo0 2.854234 1_545
Mg4 Mg5 3.056817 1_455
Mg4 Mg5 3.259271 1_555
Mg4 Rb0 3.272568 1_555
Mg4 Rb0 3.272568 1_554
Mg4 Mo0 3.455128 1_555
Mg5 Mo0 3.590223 1_655
Mg5 Mo0 3.590223 1_545
Mg5 Rb0 3.596717 1_555
Mg5 Rb0 3.596717 1_554
