# generated using pymatgen
data_DyV2Fe10N
_symmetry_space_group_name_H-M   'P 1'
_cell_length_a   4.74096300
_cell_length_b   6.49311222
_cell_length_c   6.49311222
_cell_angle_alpha   97.27870255
_cell_angle_beta   111.41228424
_cell_angle_gamma   68.58771576
_symmetry_Int_Tables_number   1
_chemical_formula_structural   DyV2Fe10N
_chemical_formula_sum   'Dy1 V2 Fe10 N1'
_cell_volume   173.23605284
_cell_formula_units_Z   1
loop_
 _symmetry_equiv_pos_site_id
 _symmetry_equiv_pos_as_xyz
  1  'x, y, z'
loop_
 _atom_site_type_symbol
 _atom_site_label
 _atom_site_symmetry_multiplicity
 _atom_site_fract_x
 _atom_site_fract_y
 _atom_site_fract_z
 _atom_site_occupancy
  Dy  Dy0  1  0.00000000  0.00000000  0.00000000  1
  V  V0  1  0.00000000  0.35866700  0.35866700  1
  V  V1  1  0.00000000  0.64133300  0.64133300  1
  Fe  Fe0  1  0.72466600  0.77533400  0.22466600  1
  Fe  Fe1  1  0.27533400  0.22466600  0.77533400  1
  Fe  Fe2  1  0.50000000  0.77686700  0.77686700  1
  Fe  Fe3  1  0.50000000  0.22313300  0.22313300  1
  Fe  Fe4  1  0.50000000  0.00000000  0.50000000  1
  Fe  Fe5  1  0.00000000  0.00000000  0.50000000  1
  Fe  Fe6  1  0.50000000  0.50000000  0.00000000  1
  Fe  Fe7  1  0.00000000  0.50000000  0.00000000  1
  Fe  Fe8  1  0.63969600  0.36030400  0.63969600  1
  Fe  Fe9  1  0.36030400  0.63969600  0.36030400  1
  N  N0  1  0.50000000  0.00000000  0.00000000  1
loop_
_geom_bond_atom_site_label_1
_geom_bond_atom_site_label_2
_geom_bond_distance
_geom_bond_site_symmetry_2
Dy0 N0 2.370481 1_555
Dy0 N0 2.370481 1_455
Dy0 Fe8 3.068458 1_454
Dy0 Fe9 3.068458 1_545
Dy0 V1 3.077812 1_544
Dy0 V0 3.077812 1_555
Dy0 Fe6 3.246556 1_455
Dy0 Fe6 3.246556 1_545
Dy0 Fe4 3.246556 1_555
Dy0 Fe4 3.246556 1_454
Dy0 Fe5 3.246556 1_555
Dy0 Fe5 3.246556 1_554
Dy0 Fe7 3.246556 1_545
Dy0 Fe7 3.246556 1_555
V0 V1 2.425628 1_555
Fe0 N0 1.913324 1_565
Fe0 Fe7 2.460429 1_655
Fe0 Fe5 2.460429 1_665
Fe0 Fe4 2.460429 1_565
Fe0 Fe6 2.460429 1_555
Fe0 Fe9 2.636952 1_655
Fe0 Fe9 2.636952 1_555
Fe0 V0 2.639912 1_655
Fe0 V1 2.639912 1_655
Fe1 N0 1.913324 1_556
Fe1 Fe5 2.460429 1_555
Fe1 Fe7 2.460429 1_556
Fe1 Fe4 2.460429 1_555
Fe1 Fe6 2.460429 1_556
Fe1 Fe8 2.636952 1_455
Fe1 Fe8 2.636952 1_555
Fe1 V1 2.639912 1_555
Fe1 V0 2.639912 1_555
Fe2 N0 1.914761 1_566
Fe2 Fe7 2.447634 1_656
Fe2 Fe5 2.447634 1_565
Fe2 Fe4 2.447634 1_565
Fe2 Fe6 2.447634 1_556
Fe2 V1 2.640430 1_555
Fe2 V1 2.640430 1_655
Fe2 Fe9 2.657086 1_555
Fe2 Fe8 2.657086 1_555
Fe3 N0 1.914761 1_555
Fe3 Fe5 2.447634 1_655
Fe3 Fe7 2.447634 1_555
Fe3 Fe6 2.447634 1_555
Fe3 Fe4 2.447634 1_555
Fe3 V0 2.640430 1_655
Fe3 V0 2.640430 1_555
Fe3 Fe9 2.657086 1_555
Fe3 Fe8 2.657086 1_555
Fe4 Fe5 2.370481 1_555
Fe4 Fe5 2.370481 1_655
Fe4 V0 2.609083 1_555
Fe4 V1 2.609083 1_645
Fe4 Fe9 2.624805 1_545
Fe4 Fe8 2.624805 1_555
Fe5 V1 2.609083 1_545
Fe5 V0 2.609083 1_555
Fe5 Fe8 2.624805 1_455
Fe5 Fe9 2.624805 1_545
Fe6 Fe7 2.370481 1_655
Fe6 Fe7 2.370481 1_555
Fe6 V1 2.609083 1_554
Fe6 V0 2.609083 1_655
Fe6 Fe9 2.624805 1_555
Fe6 Fe8 2.624805 1_554
Fe7 V1 2.609083 1_554
Fe7 V0 2.609083 1_555
Fe7 Fe8 2.624805 1_454
Fe7 Fe9 2.624805 1_555
Fe8 Fe9 2.379387 1_555
Fe8 V0 2.916414 1_555
Fe8 V1 2.916414 1_555
Fe8 V1 2.916414 1_655
Fe8 V0 2.916414 1_655
Fe9 V1 2.916414 1_655
Fe9 V0 2.916414 1_655
Fe9 V0 2.916414 1_555
Fe9 V1 2.916414 1_555
