# generated using pymatgen
data_Eu5As3
_symmetry_space_group_name_H-M   'P 1'
_cell_length_a   6.87098022
_cell_length_b   8.83403861
_cell_length_c   8.83372552
_cell_angle_alpha   120.00147889
_cell_angle_beta   90.00121334
_cell_angle_gamma   90.00026066
_symmetry_Int_Tables_number   1
_chemical_formula_structural   Eu5As3
_chemical_formula_sum   'Eu10 As6'
_cell_volume   464.35064345
_cell_formula_units_Z   2
loop_
 _symmetry_equiv_pos_site_id
 _symmetry_equiv_pos_as_xyz
  1  'x, y, z'
loop_
 _atom_site_type_symbol
 _atom_site_label
 _atom_site_symmetry_multiplicity
 _atom_site_fract_x
 _atom_site_fract_y
 _atom_site_fract_z
 _atom_site_occupancy
  Eu  Eu0  1  0.49998747  0.33334164  0.66655425  1
  Eu  Eu1  1  0.49998123  0.66679517  0.33345299  1
  Eu  Eu2  1  0.00002530  0.66679077  0.33345827  1
  Eu  Eu3  1  0.00001942  0.33334309  0.66654912  1
  Eu  Eu4  1  0.74999309  0.25628247  0.00000097  1
  Eu  Eu5  1  0.74998534  0.74392021  0.74403282  1
  Eu  Eu6  1  0.74999091  -0.00011735  0.25595896  1
  Eu  Eu7  1  0.24998059  0.74363535  -0.00000348  1
  Eu  Eu8  1  0.24999614  0.25641162  0.25644013  1
  Eu  Eu9  1  0.24999212  -0.00005334  0.74354622  1
  As  As0  1  0.75003234  0.61049745  0.00001209  1
  As  As1  1  0.74999205  0.38932713  0.38933905  1
  As  As2  1  0.75001207  0.99998598  0.61065255  1
  As  As3  1  0.25001777  0.38882912  0.00000090  1
  As  As4  1  0.25001535  0.61091831  0.61093292  1
  As  As5  1  0.24997481  0.00009138  0.38907323  1
loop_
_geom_bond_atom_site_label_1
_geom_bond_atom_site_label_2
_geom_bond_distance
_geom_bond_site_symmetry_2
As0 Eu6 3.027668 1_565
As0 Eu5 3.027849 1_554
As0 Eu4 3.129100 1_555
As0 Eu2 3.226309 1_655
As0 Eu3 3.226436 1_654
As0 Eu1 3.226540 1_555
As0 Eu0 3.226549 1_554
As0 Eu7 3.630922 1_655
As0 Eu7 3.631605 1_555
As1 Eu4 3.027827 1_555
As1 Eu6 3.028302 1_555
As1 Eu5 3.132808 1_555
As1 Eu3 3.225441 1_655
As1 Eu0 3.225456 1_555
As1 Eu1 3.226915 1_555
As1 Eu2 3.226939 1_655
As1 Eu8 3.630511 1_555
As1 Eu8 3.630621 1_655
As2 Eu4 3.027895 1_566
As2 Eu5 3.028325 1_555
As2 Eu6 3.132809 1_565
As2 Eu1 3.225390 1_555
As2 Eu2 3.225402 1_655
As2 Eu3 3.226879 1_665
As2 Eu0 3.226943 1_565
As2 Eu9 3.630432 1_665
As2 Eu9 3.630739 1_565
As3 Eu8 3.024909 1_555
As3 Eu9 3.025091 1_554
As3 Eu7 3.134391 1_555
As3 Eu1 3.228395 1_555
As3 Eu0 3.228456 1_554
As3 Eu3 3.228533 1_554
As3 Eu2 3.228592 1_555
As3 Eu4 3.629397 1_555
As3 Eu4 3.629708 1_455
As4 Eu9 3.026058 1_565
As4 Eu7 3.026064 1_556
As4 Eu8 3.131539 1_555
As4 Eu0 3.226330 1_555
As4 Eu3 3.226382 1_555
As4 Eu2 3.226734 1_555
As4 Eu1 3.226758 1_555
As4 Eu5 3.630753 1_555
As4 Eu5 3.631201 1_455
As5 Eu8 3.025413 1_555
As5 Eu7 3.026321 1_545
As5 Eu9 3.131957 1_555
As5 Eu3 3.226210 1_555
As5 Eu0 3.226357 1_555
As5 Eu2 3.227006 1_545
As5 Eu1 3.227193 1_545
As5 Eu6 3.630733 1_455
As5 Eu6 3.630990 1_555
