# generated using pymatgen
data_SrLaMgRuO6
_symmetry_space_group_name_H-M   'P 1'
_cell_length_a   5.65088000
_cell_length_b   5.64066700
_cell_length_c   9.72354631
_cell_angle_alpha   54.82612378
_cell_angle_beta   90.00000000
_cell_angle_gamma   90.00000000
_symmetry_Int_Tables_number   1
_chemical_formula_structural   SrLaMgRuO6
_chemical_formula_sum   'Sr2 La2 Mg2 Ru2 O12'
_cell_volume   253.34359196
_cell_formula_units_Z   2
loop_
 _symmetry_equiv_pos_site_id
 _symmetry_equiv_pos_as_xyz
  1  'x, y, z'
loop_
 _atom_site_type_symbol
 _atom_site_label
 _atom_site_symmetry_multiplicity
 _atom_site_fract_x
 _atom_site_fract_y
 _atom_site_fract_z
 _atom_site_occupancy
  Sr  Sr0  1  0.22631000  0.24506900  0.25096900  1
  Sr  Sr1  1  0.77369000  0.24506900  0.75096900  1
  La  La0  1  0.28235200  0.76000900  0.75047100  1
  La  La1  1  0.71764800  0.76000900  0.25047100  1
  Mg  Mg0  1  0.75277300  0.50009300  0.00065000  1
  Mg  Mg1  1  0.24722700  0.50009300  0.50065000  1
  Ru  Ru0  1  0.75115700  0.99920200  0.50042800  1
  Ru  Ru1  1  0.24884300  0.99920200  0.00042800  1
  O  O0  1  0.96185300  0.76658900  0.45764600  1
  O  O1  1  0.03814700  0.76658900  0.95764600  1
  O  O2  1  0.52661600  0.22607200  0.53812800  1
  O  O3  1  0.47338400  0.22607200  0.03812800  1
  O  O4  1  0.02884900  0.16631900  0.54203500  1
  O  O5  1  0.97115100  0.16631900  0.04203500  1
  O  O6  1  0.48418200  0.81759100  0.45986800  1
  O  O7  1  0.51581800  0.81759100  0.95986800  1
  O  O8  1  0.76033400  0.32762400  0.25678000  1
  O  O9  1  0.23966600  0.32762400  0.75678000  1
  O  O10  1  0.73258900  0.69143200  0.74302600  1
  O  O11  1  0.26741100  0.69143200  0.24302600  1
loop_
_geom_bond_atom_site_label_1
_geom_bond_atom_site_label_2
_geom_bond_distance
_geom_bond_site_symmetry_2
La0 O9 2.416194 1_555
La0 O1 2.459666 1_555
La0 O4 2.461868 1_565
La0 O10 2.580749 1_555
La0 O7 2.598762 1_555
La0 O2 2.612627 1_565
La0 O6 2.886764 1_555
La0 O3 2.890328 1_556
La1 O8 2.416194 1_555
La1 O0 2.459666 1_555
La1 O5 2.461868 1_565
La1 O11 2.580749 1_555
La1 O6 2.598762 1_555
La1 O3 2.612627 1_565
La1 O7 2.886764 1_554
La1 O2 2.890328 1_555
Mg0 O1 2.076257 1_654
Mg0 O10 2.082807 1_554
Mg0 O7 2.083099 1_554
Mg0 O5 2.087218 1_555
Mg0 O8 2.087913 1_555
Mg0 O3 2.089380 1_555
Mg1 O0 2.076257 1_455
Mg1 O11 2.082807 1_555
Mg1 O6 2.083099 1_555
Mg1 O4 2.087218 1_555
Mg1 O9 2.087913 1_555
Mg1 O2 2.089380 1_555
O0 Ru0 1.985210 1_555
O0 Sr0 2.703191 1_665
O0 Sr1 2.872715 1_555
O1 Ru1 1.985210 1_556
O1 Sr1 2.703191 1_465
O1 Sr0 2.872715 1_556
O2 Ru0 1.980522 1_545
O2 Sr1 2.549399 1_555
O3 Ru1 1.980522 1_545
O3 Sr0 2.549399 1_555
O4 Ru0 1.988479 1_445
O4 Sr1 2.728248 1_455
O4 Sr0 2.829128 1_555
O5 Ru1 1.988479 1_645
O5 Sr0 2.728248 1_655
O5 Sr1 2.829128 1_554
O6 Ru0 1.986562 1_555
O6 Sr0 2.533900 1_565
O7 Ru1 1.986562 1_556
O7 Sr1 2.533900 1_565
O8 Ru0 1.997695 1_545
O8 Sr0 2.680291 1_655
O8 Sr0 3.058905 1_555
O9 Ru1 1.997695 1_546
O9 Sr1 2.680291 1_455
O9 Sr1 3.058905 1_555
O10 Ru0 1.967532 1_555
O10 Sr1 2.484977 1_555
O11 Ru1 1.967532 1_555
O11 Sr0 2.484977 1_555
