# generated using pymatgen
data_K5(CN2)3
_symmetry_space_group_name_H-M   'P 1'
_cell_length_a   6.99635770
_cell_length_b   6.99635770
_cell_length_c   6.99635770
_cell_angle_alpha   109.47122063
_cell_angle_beta   109.47122063
_cell_angle_gamma   109.47122063
_symmetry_Int_Tables_number   1
_chemical_formula_structural   K5(CN2)3
_chemical_formula_sum   'K5 C3 N6'
_cell_volume   263.62957221
_cell_formula_units_Z   1
loop_
 _symmetry_equiv_pos_site_id
 _symmetry_equiv_pos_as_xyz
  1  'x, y, z'
loop_
 _atom_site_type_symbol
 _atom_site_label
 _atom_site_symmetry_multiplicity
 _atom_site_fract_x
 _atom_site_fract_y
 _atom_site_fract_z
 _atom_site_occupancy
  K  K0  1  0.00000000  0.00000000  0.00000000  1
  K  K1  1  0.00000000  0.00000000  0.50000000  1
  K  K2  1  0.00000000  0.50000000  0.00000000  1
  K  K3  1  0.50000000  0.00000000  0.00000000  1
  K  K4  1  0.50000000  0.50000000  0.50000000  1
  C  C0  1  0.50000000  0.00000000  0.50000000  1
  C  C1  1  0.00000000  0.50000000  0.50000000  1
  C  C2  1  0.50000000  0.50000000  0.00000000  1
  N  N0  1  0.34636900  0.00000000  0.34636900  1
  N  N1  1  0.00000000  0.34636900  0.34636900  1
  N  N2  1  0.65363100  0.65363100  0.00000000  1
  N  N3  1  0.65363100  0.00000000  0.65363100  1
  N  N4  1  0.34636900  0.34636900  0.00000000  1
  N  N5  1  0.00000000  0.65363100  0.65363100  1
loop_
_geom_bond_atom_site_label_1
_geom_bond_atom_site_label_2
_geom_bond_distance
_geom_bond_site_symmetry_2
K0 N0 2.798211 1_555
K0 N1 2.798211 1_555
K0 N4 2.798211 1_555
K0 N5 2.798211 1_544
K0 N3 2.798211 1_454
K0 N2 2.798211 1_445
K1 N0 2.960454 1_555
K1 N1 2.960454 1_555
K1 N2 2.960454 1_445
K1 N4 2.960454 1_556
K1 N3 2.960454 1_455
K1 N5 2.960454 1_545
K2 N1 2.960454 1_555
K2 N0 2.960454 1_565
K2 N3 2.960454 1_454
K2 N5 2.960454 1_554
K2 N2 2.960454 1_455
K2 N4 2.960454 1_555
K3 N0 2.960454 1_555
K3 N1 2.960454 1_655
K3 N3 2.960454 1_554
K3 N4 2.960454 1_555
K3 N5 2.960454 1_544
K3 N2 2.960454 1_545
K4 N0 2.960454 1_555
K4 N1 2.960454 1_555
K4 N3 2.960454 1_565
K4 N5 2.960454 1_655
K4 N4 2.960454 1_555
K4 N2 2.960454 1_556
C0 N3 1.241138 1_555
C0 N0 1.241138 1_555
C1 N5 1.241138 1_555
C1 N1 1.241138 1_555
C2 N2 1.241138 1_555
C2 N4 1.241138 1_555
