# generated using pymatgen
data_NpB3O8
_symmetry_space_group_name_H-M   'P 1'
_cell_length_a   12.81353000
_cell_length_b   8.74390100
_cell_length_c   5.62763700
_cell_angle_alpha   90.00000000
_cell_angle_beta   90.00000000
_cell_angle_gamma   90.00000000
_symmetry_Int_Tables_number   1
_chemical_formula_structural   NpB3O8
_chemical_formula_sum   'Np4 B12 O32'
_cell_volume   630.52178762
_cell_formula_units_Z   4
loop_
 _symmetry_equiv_pos_site_id
 _symmetry_equiv_pos_as_xyz
  1  'x, y, z'
loop_
 _atom_site_type_symbol
 _atom_site_label
 _atom_site_symmetry_multiplicity
 _atom_site_fract_x
 _atom_site_fract_y
 _atom_site_fract_z
 _atom_site_occupancy
  Np  Np0  1  0.87171900  0.55014900  0.54349400  1
  Np  Np1  1  0.12828100  0.44985100  0.04349400  1
  Np  Np2  1  0.62828100  0.55014900  0.04349400  1
  Np  Np3  1  0.37171900  0.44985100  0.54349400  1
  B  B0  1  0.91419600  0.05159300  0.97995000  1
  B  B1  1  0.08580400  0.94840700  0.47995000  1
  B  B2  1  0.58580400  0.05159300  0.47995000  1
  B  B3  1  0.41419600  0.94840700  0.97995000  1
  B  B4  1  0.08405400  0.76771200  0.79679700  1
  B  B5  1  0.91594600  0.23228800  0.29679700  1
  B  B6  1  0.41594600  0.76771200  0.29679700  1
  B  B7  1  0.58405400  0.23228800  0.79679700  1
  B  B8  1  0.91502600  0.87365200  0.65283500  1
  B  B9  1  0.08497400  0.12634800  0.15283500  1
  B  B10  1  0.58497400  0.87365200  0.15283500  1
  B  B11  1  0.41502600  0.12634800  0.65283500  1
  O  O0  1  0.13990200  0.85524800  0.64214100  1
  O  O1  1  0.86009800  0.14475200  0.14214100  1
  O  O2  1  0.36009800  0.85524800  0.14214100  1
  O  O3  1  0.63990200  0.14475200  0.64214100  1
  O  O4  1  0.96880000  0.56440900  0.30614000  1
  O  O5  1  0.03120000  0.43559100  0.80614000  1
  O  O6  1  0.53120000  0.56440900  0.80614000  1
  O  O7  1  0.46880000  0.43559100  0.30614000  1
  O  O8  1  0.97810500  0.95309300  0.48279900  1
  O  O9  1  0.02189500  0.04690700  0.98279900  1
  O  O10  1  0.52189500  0.95309300  0.98279900  1
  O  O11  1  0.47810500  0.04690700  0.48279900  1
  O  O12  1  0.86067300  0.96651000  0.81937100  1
  O  O13  1  0.13932700  0.03349000  0.31937100  1
  O  O14  1  0.63932700  0.96651000  0.31937100  1
  O  O15  1  0.36067300  0.03349000  0.81937100  1
  O  O16  1  0.78292600  0.52169200  0.80015800  1
  O  O17  1  0.21707400  0.47830800  0.30015800  1
  O  O18  1  0.71707400  0.52169200  0.30015800  1
  O  O19  1  0.28292600  0.47830800  0.80015800  1
  O  O20  1  0.83620800  0.76929300  0.52169400  1
  O  O21  1  0.16379200  0.23070700  0.02169400  1
  O  O22  1  0.66379200  0.76929300  0.02169400  1
  O  O23  1  0.33620800  0.23070700  0.52169400  1
  O  O24  1  0.86719900  0.31953000  0.47337000  1
  O  O25  1  0.13280100  0.68047000  0.97337000  1
  O  O26  1  0.63280100  0.31953000  0.97337000  1
  O  O27  1  0.36719900  0.68047000  0.47337000  1
  O  O28  1  0.97724900  0.74723900  0.77335200  1
  O  O29  1  0.02275100  0.25276100  0.27335200  1
  O  O30  1  0.52275100  0.74723900  0.27335200  1
  O  O31  1  0.47724900  0.25276100  0.77335200  1
loop_
_geom_bond_atom_site_label_1
_geom_bond_atom_site_label_2
_geom_bond_distance
_geom_bond_site_symmetry_2
Np0 O4 1.829526 1_555
Np0 O16 1.855456 1_555
Np0 O20 1.973275 1_555
Np0 O24 2.055578 1_555
Np0 O18 2.421512 1_555
Np0 O28 2.543944 1_555
Np0 O5 2.713675 1_655
Np1 O5 1.829526 1_554
Np1 O17 1.855456 1_555
Np1 O21 1.973275 1_555
Np1 O25 2.055578 1_554
Np1 O19 2.421512 1_554
Np1 O29 2.543944 1_555
Np1 O4 2.713675 1_455
Np2 O6 1.829526 1_554
Np2 O18 1.855456 1_555
Np2 O22 1.973275 1_555
Np2 O26 2.055578 1_554
Np2 O16 2.421512 1_554
Np2 O30 2.543944 1_555
Np2 O7 2.713675 1_555
Np3 O7 1.829526 1_555
Np3 O19 1.855456 1_555
Np3 O23 1.973275 1_555
Np3 O27 2.055578 1_555
Np3 O17 2.421512 1_555
Np3 O31 2.543944 1_555
Np3 O6 2.713675 1_555
B0 O12 1.356635 1_545
B0 O9 1.380706 1_655
B0 O1 1.406113 1_556
B1 O13 1.356635 1_565
B1 O8 1.380706 1_455
B1 O0 1.406113 1_555
B2 O14 1.356635 1_545
B2 O11 1.380706 1_555
B2 O3 1.406113 1_555
B3 O15 1.356635 1_565
B3 O10 1.380706 1_555
B3 O2 1.406113 1_556
B4 O0 1.362149 1_555
B4 O28 1.386499 1_455
B4 O25 1.399817 1_555
B5 O1 1.362149 1_555
B5 O29 1.386499 1_655
B5 O24 1.399817 1_555
B6 O2 1.362149 1_555
B6 O30 1.386499 1_555
B6 O27 1.399817 1_555
B7 O3 1.362149 1_555
B7 O31 1.386499 1_555
B7 O26 1.399817 1_555
B8 O12 1.422198 1_555
B8 O8 1.432290 1_555
B8 O28 1.522319 1_555
B8 O20 1.548322 1_555
B9 O13 1.422198 1_555
B9 O9 1.432290 1_554
B9 O29 1.522319 1_555
B9 O21 1.548322 1_555
B10 O14 1.422198 1_555
B10 O10 1.432290 1_554
B10 O30 1.522319 1_555
B10 O22 1.548322 1_555
B11 O15 1.422198 1_555
B11 O11 1.432290 1_555
B11 O31 1.522319 1_555
B11 O23 1.548322 1_555
