# generated using pymatgen
data_TaMo2C3
_symmetry_space_group_name_H-M   'P 1'
_cell_length_a   3.11663604
_cell_length_b   3.11663604
_cell_length_c   7.68631600
_cell_angle_alpha   90.00000000
_cell_angle_beta   90.00000000
_cell_angle_gamma   120.00000091
_symmetry_Int_Tables_number   1
_chemical_formula_structural   TaMo2C3
_chemical_formula_sum   'Ta1 Mo2 C3'
_cell_volume   64.65781743
_cell_formula_units_Z   1
loop_
 _symmetry_equiv_pos_site_id
 _symmetry_equiv_pos_as_xyz
  1  'x, y, z'
loop_
 _atom_site_type_symbol
 _atom_site_label
 _atom_site_symmetry_multiplicity
 _atom_site_fract_x
 _atom_site_fract_y
 _atom_site_fract_z
 _atom_site_occupancy
  Ta  Ta0  1  0.00000000  0.00000000  0.00000000  1
  Mo  Mo0  1  0.33333300  0.66666700  0.66923000  1
  Mo  Mo1  1  0.66666700  0.33333300  0.33077000  1
  C  C0  1  0.00000000  0.00000000  0.50000000  1
  C  C1  1  0.33333300  0.66666700  0.16792100  1
  C  C2  1  0.66666700  0.33333300  0.83207900  1
loop_
_geom_bond_atom_site_label_1
_geom_bond_atom_site_label_2
_geom_bond_distance
_geom_bond_site_symmetry_2
C0 Mo1 2.220307 1_455
C0 Mo0 2.220307 1_545
C0 Mo1 2.220309 1_555
C0 Mo1 2.220309 1_445
C0 Mo0 2.220309 1_445
C0 Mo0 2.220309 1_555
C1 Mo1 2.191934 1_455
C1 Mo1 2.191934 1_565
C1 Mo1 2.191939 1_555
C1 Ta0 2.214428 1_565
C1 Ta0 2.214430 1_555
C1 Ta0 2.214430 1_665
C2 Mo0 2.191934 1_545
C2 Mo0 2.191934 1_655
C2 Mo0 2.191939 1_555
C2 Ta0 2.214428 1_656
C2 Ta0 2.214430 1_666
C2 Ta0 2.214430 1_556
