# generated using pymatgen
data_UMnS2O15
_symmetry_space_group_name_H-M   'P 1'
_cell_length_a   11.52411000
_cell_length_b   6.30969000
_cell_length_c   8.57026842
_cell_angle_alpha   89.54653042
_cell_angle_beta   90.00000000
_cell_angle_gamma   90.00000000
_symmetry_Int_Tables_number   1
_chemical_formula_structural   UMnS2O15
_chemical_formula_sum   'U2 Mn2 S4 O30'
_cell_volume   623.15522313
_cell_formula_units_Z   2
loop_
 _symmetry_equiv_pos_site_id
 _symmetry_equiv_pos_as_xyz
  1  'x, y, z'
loop_
 _atom_site_type_symbol
 _atom_site_label
 _atom_site_symmetry_multiplicity
 _atom_site_fract_x
 _atom_site_fract_y
 _atom_site_fract_z
 _atom_site_occupancy
  U  U0  1  0.73519100  0.00299900  0.61768300  1
  U  U1  1  0.23519100  0.99700100  0.38231700  1
  Mn  Mn0  1  0.38319400  0.50539200  0.83592200  1
  Mn  Mn1  1  0.88319400  0.49460800  0.16407800  1
  S  S0  1  0.54186100  0.02597700  0.26237600  1
  S  S1  1  0.04186100  0.97402300  0.73762400  1
  S  S2  1  0.42056400  0.00402500  0.75464400  1
  S  S3  1  0.92056400  0.99597500  0.24535600  1
  O  O0  1  0.76873400  0.27230600  0.66620000  1
  O  O1  1  0.26873400  0.72769400  0.33380000  1
  O  O2  1  0.70617600  0.73199500  0.57147700  1
  O  O3  1  0.20617600  0.26800500  0.42852300  1
  O  O4  1  0.61217500  0.10557100  0.39408400  1
  O  O5  1  0.11217500  0.89442900  0.60591600  1
  O  O6  1  0.42038600  0.10281200  0.28673600  1
  O  O7  1  0.92038600  0.89718800  0.71326400  1
  O  O8  1  0.58616900  0.10082800  0.10922800  1
  O  O9  1  0.08616900  0.89917200  0.89077200  1
  O  O10  1  0.54849200  0.79261800  0.24633700  1
  O  O11  1  0.04849200  0.20738200  0.75366300  1
  O  O12  1  0.36683700  0.96619700  0.60079800  1
  O  O13  1  0.86683700  0.03380300  0.39920200  1
  O  O14  1  0.54719100  0.04066200  0.73182700  1
  O  O15  1  0.04719100  0.95933800  0.26817300  1
  O  O16  1  0.40110400  0.82213800  0.86415200  1
  O  O17  1  0.90110400  0.17786200  0.13584800  1
  O  O18  1  0.36570400  0.18599800  0.83572400  1
  O  O19  1  0.86570400  0.81400200  0.16427600  1
  O  O20  1  0.73058400  0.90663800  0.87834300  1
  O  O21  1  0.23058400  0.09336200  0.12165700  1
  O  O22  1  0.57651700  0.48459500  0.86769800  1
  O  O23  1  0.07651700  0.51540500  0.13230200  1
  O  O24  1  0.43427600  0.48403900  0.01942900  1
  O  O25  1  0.93427600  0.51596100  0.98057100  1
  O  O26  1  0.24914100  0.52989800  0.79923100  1
  O  O27  1  0.74914100  0.47010200  0.20076900  1
  O  O28  1  0.47130300  0.50338500  0.67489200  1
  O  O29  1  0.97130300  0.49661500  0.32510800  1
loop_
_geom_bond_atom_site_label_1
_geom_bond_atom_site_label_2
_geom_bond_distance
_geom_bond_site_symmetry_2
Mn0 O26 1.583842 1_555
Mn0 O24 1.683667 1_556
Mn0 O28 1.713483 1_555
Mn0 O18 2.025345 1_555
Mn0 O16 2.025603 1_555
Mn0 O22 2.248165 1_555
Mn1 O27 1.583842 1_555
Mn1 O25 1.683667 1_554
Mn1 O29 1.713483 1_555
Mn1 O19 2.025345 1_555
Mn1 O17 2.025603 1_555
Mn1 O23 2.248165 1_655
O0 U0 1.794695 1_555
O1 U1 1.794695 1_555
O2 U0 1.789768 1_565
O3 U1 1.789768 1_545
O4 S0 1.480512 1_555
O4 U0 2.466006 1_555
O5 S1 1.480512 1_555
O5 U1 2.466006 1_555
O6 S0 1.496636 1_555
O6 U1 2.379692 1_545
O7 S1 1.496636 1_655
O7 U0 2.379692 1_565
O8 S0 1.482118 1_555
O9 S1 1.482118 1_555
O10 S0 1.481880 1_565
O11 S1 1.481880 1_545
O12 S2 1.477752 1_565
O12 U1 2.416537 1_555
O13 S3 1.477752 1_545
O13 U0 2.416537 1_555
O14 S2 1.490105 1_555
O14 U0 2.389766 1_555
O15 S3 1.490105 1_455
O15 U1 2.389766 1_555
O16 S2 1.493704 1_565
O17 S3 1.493704 1_545
O18 S2 1.487792 1_555
O19 S3 1.487792 1_555
O20 U0 2.311151 1_565
O21 U1 2.311151 1_545
