# generated using pymatgen
data_AgAuF4
_symmetry_space_group_name_H-M   'P 1'
_cell_length_a   5.71447185
_cell_length_b   5.71447149
_cell_length_c   6.71450963
_cell_angle_alpha   115.18432159
_cell_angle_beta   115.18431692
_cell_angle_gamma   89.99999814
_symmetry_Int_Tables_number   1
_chemical_formula_structural   AgAuF4
_chemical_formula_sum   'Ag2 Au2 F8'
_cell_volume   175.11537154
_cell_formula_units_Z   2
loop_
 _symmetry_equiv_pos_site_id
 _symmetry_equiv_pos_as_xyz
  1  'x, y, z'
loop_
 _atom_site_type_symbol
 _atom_site_label
 _atom_site_symmetry_multiplicity
 _atom_site_fract_x
 _atom_site_fract_y
 _atom_site_fract_z
 _atom_site_occupancy
  Ag  Ag0  1  0.25000000  0.25000000  0.50000000  1
  Ag  Ag1  1  0.75000000  0.75000000  0.50000000  1
  Au  Au0  1  0.00000000  0.50000000  -0.00000000  1
  Au  Au1  1  0.50000000  0.00000000  -0.00000000  1
  F  F0  1  0.69913651  0.19913651  0.74259667  1
  F  F1  1  0.95653984  0.45653984  0.25740333  1
  F  F2  1  0.30086349  0.80086349  0.25740333  1
  F  F3  1  0.45653984  0.30086349  0.25740333  1
  F  F4  1  0.04346016  0.54346016  0.74259667  1
  F  F5  1  0.19913651  0.04346016  0.74259667  1
  F  F6  1  0.54346016  0.69913651  0.74259667  1
  F  F7  1  0.80086349  0.95653984  0.25740333  1
loop_
_geom_bond_atom_site_label_1
_geom_bond_atom_site_label_2
_geom_bond_distance
_geom_bond_site_symmetry_2
Ag0 F2 2.483957 1_545
Ag0 F6 2.483957 1_555
Ag0 F4 2.483957 1_555
Ag0 F7 2.483957 1_445
Ag0 F0 2.483957 1_555
Ag0 F1 2.483957 1_455
Ag0 F5 2.483957 1_555
Ag0 F3 2.483957 1_555
Ag1 F0 2.483957 1_565
Ag1 F3 2.483957 1_555
Ag1 F1 2.483957 1_555
Ag1 F5 2.483957 1_665
Ag1 F2 2.483957 1_555
Ag1 F4 2.483957 1_655
Ag1 F7 2.483957 1_555
Ag1 F6 2.483957 1_555
Au0 F2 1.959877 1_555
Au0 F0 1.959877 1_454
Au0 F1 1.959878 1_455
Au0 F4 1.959878 1_554
Au1 F3 1.959877 1_555
Au1 F6 1.959877 1_544
Au1 F7 1.959878 1_545
Au1 F5 1.959878 1_554
