# generated using pymatgen
data_LiU2Cl3O8
_symmetry_space_group_name_H-M   'P 1'
_cell_length_a   7.85185574
_cell_length_b   8.69444372
_cell_length_c   8.71341464
_cell_angle_alpha   111.14802653
_cell_angle_beta   93.68284366
_cell_angle_gamma   95.14357800
_symmetry_Int_Tables_number   1
_chemical_formula_structural   LiU2Cl3O8
_chemical_formula_sum   'Li2 U4 Cl6 O16'
_cell_volume   549.55274229
_cell_formula_units_Z   2
loop_
 _symmetry_equiv_pos_site_id
 _symmetry_equiv_pos_as_xyz
  1  'x, y, z'
loop_
 _atom_site_type_symbol
 _atom_site_label
 _atom_site_symmetry_multiplicity
 _atom_site_fract_x
 _atom_site_fract_y
 _atom_site_fract_z
 _atom_site_occupancy
  Li  Li0  1  0.63810000  0.19193100  0.77629600  1
  Li  Li1  1  0.36190000  0.80806900  0.22370400  1
  U  U0  1  0.18669100  0.19329700  0.20544900  1
  U  U1  1  0.81330900  0.80670300  0.79455100  1
  U  U2  1  0.62958400  0.51636900  0.33803300  1
  U  U3  1  0.37041600  0.48363100  0.66196700  1
  Cl  Cl0  1  0.44622700  0.29579300  0.02172300  1
  Cl  Cl1  1  0.55377300  0.70420700  0.97827700  1
  Cl  Cl2  1  0.88794400  0.97039200  0.14103700  1
  Cl  Cl3  1  0.11205600  0.02960800  0.85896300  1
  Cl  Cl4  1  0.09023000  0.24566900  0.52048900  1
  Cl  Cl5  1  0.90977000  0.75433100  0.47951100  1
  O  O0  1  0.30766500  0.02586900  0.21287600  1
  O  O1  1  0.69233400  0.97413100  0.78712400  1
  O  O2  1  0.07011100  0.35406300  0.18626500  1
  O  O3  1  0.92988900  0.64593700  0.81373500  1
  O  O4  1  0.74724800  0.35180900  0.34766400  1
  O  O5  1  0.25275200  0.64819100  0.65233600  1
  O  O6  1  0.50577500  0.67701800  0.31540200  1
  O  O7  1  0.49422500  0.32298200  0.68459800  1
  O  O8  1  0.38555000  0.38405900  0.38549400  1
  O  O9  1  0.61445000  0.61594100  0.61450600  1
  O  O10  1  0.71839300  0.46072700  0.06984600  1
  O  O11  1  0.28160700  0.53927300  0.93015400  1
  O  O12  1  0.87174500  0.32126200  0.83340400  1
  O  O13  1  0.12825500  0.67873800  0.16659600  1
  O  O14  1  0.56721100  0.02105700  0.47555600  1
  O  O15  1  0.43278900  0.97894300  0.52444400  1
loop_
_geom_bond_atom_site_label_1
_geom_bond_atom_site_label_2
_geom_bond_distance
_geom_bond_site_symmetry_2
Li0 O7 1.996148 1_555
Li0 O12 1.996670 1_555
Li0 O1 2.011092 1_545
Li0 O14 2.497819 1_555
Li1 O6 1.996148 1_555
Li1 O13 1.996670 1_555
Li1 O0 2.011095 1_565
Li1 O15 2.497819 1_555
Cl0 O10 2.387582 1_555
Cl0 Li0 2.631121 1_554
Cl0 U2 2.920305 1_555
Cl0 U0 2.938132 1_555
Cl1 O11 2.387582 1_555
Cl1 Li1 2.631121 1_556
Cl1 U3 2.920305 1_555
Cl1 U1 2.938132 1_555
Cl2 U0 2.793611 1_665
Cl2 U1 2.829584 1_554
Cl3 U1 2.793611 1_445
Cl3 U0 2.829584 1_556
Cl4 U3 2.763200 1_555
Cl4 U0 2.782704 1_555
Cl5 U2 2.763200 1_555
Cl5 U1 2.782704 1_555
O0 U0 1.825784 1_555
O1 U1 1.825789 1_555
O2 U0 1.788283 1_555
O3 U1 1.788283 1_555
O4 U2 1.794813 1_555
O5 U3 1.794813 1_555
O6 U2 1.830961 1_555
O7 U3 1.830961 1_555
O8 U0 2.234616 1_555
O8 U3 2.262161 1_555
O8 U2 2.283792 1_555
O9 U1 2.234616 1_555
O9 U2 2.262161 1_555
O9 U3 2.283792 1_555
O10 U2 2.373845 1_555
O11 U3 2.373845 1_555
O14 O15 1.237151 1_545
