# generated using pymatgen
data_LiPH3NO3
_symmetry_space_group_name_H-M   'P 1'
_cell_length_a   5.07828975
_cell_length_b   8.60424724
_cell_length_c   8.99535295
_cell_angle_alpha   100.74271714
_cell_angle_beta   103.79628885
_cell_angle_gamma   94.61916072
_symmetry_Int_Tables_number   1
_chemical_formula_structural   LiPH3NO3
_chemical_formula_sum   'Li4 P4 H12 N4 O12'
_cell_volume   371.78986293
_cell_formula_units_Z   4
loop_
 _symmetry_equiv_pos_site_id
 _symmetry_equiv_pos_as_xyz
  1  'x, y, z'
loop_
 _atom_site_type_symbol
 _atom_site_label
 _atom_site_symmetry_multiplicity
 _atom_site_fract_x
 _atom_site_fract_y
 _atom_site_fract_z
 _atom_site_occupancy
  Li  Li0  1  0.64415600  0.13272200  0.98995600  1
  Li  Li1  1  0.35584400  0.86727800  0.01004400  1
  Li  Li2  1  0.68502700  0.43000200  0.57172200  1
  Li  Li3  1  0.31497300  0.56999800  0.42827800  1
  P  P0  1  0.89990100  0.76962300  0.50881400  1
  P  P1  1  0.10009900  0.23037700  0.49118600  1
  P  P2  1  0.96579200  0.92688000  0.23248100  1
  P  P3  1  0.03420800  0.07312000  0.76751900  1
  H  H0  1  0.59599000  0.82434700  0.29757900  1
  H  H1  1  0.40401000  0.17565300  0.70242100  1
  H  H2  1  0.63639200  0.90224900  0.65067000  1
  H  H3  1  0.36360800  0.09775100  0.34933000  1
  H  H4  1  0.00258100  0.54348400  0.82911500  1
  H  H5  1  0.99741900  0.45651600  0.17088500  1
  H  H6  1  0.84578800  0.37534300  0.82694800  1
  H  H7  1  0.15421200  0.62465700  0.17305200  1
  H  H8  1  0.30879700  0.70455000  0.74349100  1
  H  H9  1  0.69120300  0.29545000  0.25650900  1
  H  H10  1  0.50320500  0.61149000  0.84783700  1
  H  H11  1  0.49679500  0.38851000  0.15216300  1
  N  N0  1  0.83754700  0.90905600  0.64990400  1
  N  N1  1  0.16245300  0.09094400  0.35009600  1
  N  N2  1  0.80375000  0.83092100  0.33833100  1
  N  N3  1  0.19625000  0.16907900  0.66166900  1
  O  O0  1  0.70692400  0.62076600  0.49159000  1
  O  O1  1  0.29307600  0.37923400  0.50841000  1
  O  O2  1  0.20369400  0.75809900  0.54786600  1
  O  O3  1  0.79630600  0.24190100  0.45213400  1
  O  O4  1  0.83267800  0.17262600  0.82991400  1
  O  O5  1  0.16732200  0.82737400  0.17008600  1
  O  O6  1  0.73440300  0.97020100  0.11282700  1
  O  O7  1  0.26559700  0.02979900  0.88717300  1
  O  O8  1  0.81917100  0.48175000  0.80065800  1
  O  O9  1  0.18082900  0.51825000  0.19934200  1
  O  O10  1  0.34771500  0.67290000  0.84644000  1
  O  O11  1  0.65228500  0.32710000  0.15356000  1
loop_
_geom_bond_atom_site_label_1
_geom_bond_atom_site_label_2
_geom_bond_distance
_geom_bond_site_symmetry_2
Li0 O6 1.955739 1_546
Li0 O4 1.973744 1_555
Li0 O7 1.976777 1_555
Li0 O11 2.001757 1_556
Li1 O7 1.955739 1_564
Li1 O5 1.973744 1_555
Li1 O6 1.976777 1_555
Li1 O10 2.001757 1_554
Li2 O0 1.917282 1_555
Li2 O1 1.924468 1_555
Li2 O8 1.960485 1_555
Li2 O3 1.970832 1_555
Li3 O1 1.917282 1_555
Li3 O0 1.924468 1_555
Li3 O9 1.960485 1_555
Li3 O2 1.970832 1_555
H0 N2 1.024176 1_555
H1 N3 1.024176 1_555
H2 N0 1.020225 1_555
H3 N1 1.020225 1_555
H4 O8 0.985448 1_455
H5 O9 0.985448 1_655
H6 O8 0.998918 1_555
H7 O9 0.998918 1_555
H8 O10 0.993079 1_555
H9 O11 0.993079 1_555
H10 O10 0.983768 1_555
H11 O11 0.983768 1_555
N0 P3 1.679792 1_665
N0 P0 1.683914 1_555
N1 P2 1.679792 1_445
N1 P1 1.683914 1_555
N2 P2 1.680122 1_555
N2 P0 1.689455 1_555
N3 P3 1.680122 1_555
N3 P1 1.689455 1_555
O0 P0 1.508737 1_555
O1 P1 1.508737 1_555
O2 P0 1.514086 1_455
O3 P1 1.514086 1_655
O4 P3 1.526894 1_655
O5 P2 1.526894 1_455
O6 P2 1.514956 1_555
O7 P3 1.514956 1_555
