# generated using pymatgen
data_YbMgSe3
_symmetry_space_group_name_H-M   'P 1'
_cell_length_a   7.68366790
_cell_length_b   12.55097900
_cell_length_c   6.64730883
_cell_angle_alpha   90.00000000
_cell_angle_beta   112.24727618
_cell_angle_gamma   90.00000000
_symmetry_Int_Tables_number   1
_chemical_formula_structural   YbMgSe3
_chemical_formula_sum   'Yb4 Mg4 Se12'
_cell_volume   593.32947069
_cell_formula_units_Z   4
loop_
 _symmetry_equiv_pos_site_id
 _symmetry_equiv_pos_as_xyz
  1  'x, y, z'
loop_
 _atom_site_type_symbol
 _atom_site_label
 _atom_site_symmetry_multiplicity
 _atom_site_fract_x
 _atom_site_fract_y
 _atom_site_fract_z
 _atom_site_occupancy
  Yb  Yb0  1  0.10881700  0.00000000  0.27798300  1
  Yb  Yb1  1  0.89118300  0.00000000  0.72201700  1
  Yb  Yb2  1  0.60881700  0.50000000  0.27798300  1
  Yb  Yb3  1  0.39118300  0.50000000  0.72201700  1
  Mg  Mg0  1  0.00000000  0.36648400  0.00000000  1
  Mg  Mg1  1  0.00000000  0.63351600  0.00000000  1
  Mg  Mg2  1  0.50000000  0.86648400  0.00000000  1
  Mg  Mg3  1  0.50000000  0.13351600  0.00000000  1
  Se  Se0  1  0.28171300  0.20845200  0.17995900  1
  Se  Se1  1  0.71828700  0.79154800  0.82004100  1
  Se  Se2  1  0.71828700  0.20845200  0.82004100  1
  Se  Se3  1  0.28171300  0.79154800  0.17995900  1
  Se  Se4  1  0.78171300  0.70845200  0.17995900  1
  Se  Se5  1  0.21828700  0.29154800  0.82004100  1
  Se  Se6  1  0.21828700  0.70845200  0.82004100  1
  Se  Se7  1  0.78171300  0.29154800  0.17995900  1
  Se  Se8  1  0.26941300  0.00000000  0.72221700  1
  Se  Se9  1  0.73058700  0.00000000  0.27778300  1
  Se  Se10  1  0.76941300  0.50000000  0.72221700  1
  Se  Se11  1  0.23058700  0.50000000  0.27778300  1
loop_
_geom_bond_atom_site_label_1
_geom_bond_atom_site_label_2
_geom_bond_distance
_geom_bond_site_symmetry_2
Mg0 Se7 2.578369 1_455
Mg0 Se5 2.578369 1_554
Mg0 Se10 2.622902 1_454
Mg0 Se11 2.622902 1_555
Mg0 Se0 2.844265 1_555
Mg0 Se2 2.844265 1_454
Mg1 Se4 2.578369 1_455
Mg1 Se6 2.578369 1_554
Mg1 Se10 2.622902 1_454
Mg1 Se11 2.622902 1_555
Mg1 Se3 2.844265 1_555
Mg1 Se1 2.844265 1_454
Mg2 Se1 2.578369 1_554
Mg2 Se3 2.578369 1_555
Mg2 Se8 2.622902 1_564
Mg2 Se9 2.622902 1_565
Mg2 Se4 2.844265 1_555
Mg2 Se6 2.844265 1_554
Mg3 Se2 2.578369 1_554
Mg3 Se0 2.578369 1_555
Mg3 Se8 2.622902 1_554
Mg3 Se9 2.622902 1_555
Mg3 Se5 2.844265 1_554
Mg3 Se7 2.844265 1_555
Se0 Se5 2.483210 1_554
Se0 Yb0 3.112843 1_555
Se1 Se4 2.483210 1_556
Se1 Yb1 3.112843 1_565
Se2 Se7 2.483210 1_556
Se2 Yb1 3.112843 1_555
Se3 Se6 2.483210 1_554
Se3 Yb0 3.112843 1_565
Se4 Yb2 3.112843 1_555
Se5 Yb3 3.112843 1_555
Se6 Yb3 3.112843 1_555
Se7 Yb2 3.112843 1_555
Se8 Yb0 2.735597 1_555
Se8 Yb1 2.905691 1_455
Se9 Yb1 2.735597 1_555
Se9 Yb0 2.905691 1_655
Se10 Yb2 2.735597 1_555
Se10 Yb3 2.905691 1_555
Se11 Yb3 2.735597 1_555
Se11 Yb2 2.905691 1_555
