# generated using pymatgen
data_YMnAl
_symmetry_space_group_name_H-M   'P 1'
_cell_length_a   5.46269481
_cell_length_b   5.46269481
_cell_length_c   5.46269481
_cell_angle_alpha   119.56258101
_cell_angle_beta   119.04396810
_cell_angle_gamma   91.21163490
_symmetry_Int_Tables_number   1
_chemical_formula_structural   YMnAl
_chemical_formula_sum   'Y2 Mn2 Al2'
_cell_volume   116.45000957
_cell_formula_units_Z   2
loop_
 _symmetry_equiv_pos_site_id
 _symmetry_equiv_pos_as_xyz
  1  'x, y, z'
loop_
 _atom_site_type_symbol
 _atom_site_label
 _atom_site_symmetry_multiplicity
 _atom_site_fract_x
 _atom_site_fract_y
 _atom_site_fract_z
 _atom_site_occupancy
  Y  Y0  1  0.12899900  0.87899900  0.25000000  1
  Y  Y1  1  0.87100100  0.12100100  0.75000000  1
  Mn  Mn0  1  0.50000000  0.00000000  0.00000000  1
  Mn  Mn1  1  0.50000000  0.50000000  0.50000000  1
  Al  Al0  1  0.00000000  0.50000000  0.50000000  1
  Al  Al1  1  0.50000000  0.50000000  0.00000000  1
loop_
_geom_bond_atom_site_label_1
_geom_bond_atom_site_label_2
_geom_bond_distance
_geom_bond_site_symmetry_2
Y0 Y1 3.331406 1_565
Y0 Y1 3.331406 1_464
Y0 Y1 3.383450 1_465
Y0 Y1 3.383450 1_454
Mn0 Mn1 2.749386 1_544
Mn0 Mn1 2.749386 1_555
Mn0 Y1 3.151320 1_554
Mn0 Y0 3.151320 1_545
Mn0 Y1 3.246356 1_454
Mn0 Y1 3.246356 1_555
Mn0 Y0 3.246356 1_544
Mn0 Y0 3.246356 1_645
Mn1 Y1 3.151320 1_565
Mn1 Y0 3.151320 1_545
Mn1 Y1 3.246356 1_454
Mn1 Y0 3.246356 1_656
Mn1 Y1 3.246356 1_555
Mn1 Y0 3.246356 1_555
Al0 Mn1 2.731347 1_555
Al0 Mn0 2.731347 1_455
Al0 Mn0 2.731347 1_566
Al0 Mn1 2.731347 1_455
Al0 Al1 2.770721 1_556
Al0 Al1 2.770721 1_455
Al0 Y1 3.211027 1_455
Al0 Y0 3.211027 1_555
Al0 Y1 3.214606 1_465
Al0 Y0 3.214606 1_545
Al0 Y0 3.214606 1_556
Al0 Y1 3.214606 1_454
Al1 Mn0 2.731347 1_565
Al1 Mn1 2.731347 1_555
Al1 Mn0 2.731347 1_555
Al1 Mn1 2.731347 1_554
Al1 Y0 3.211027 1_655
Al1 Y1 3.211027 1_454
Al1 Y1 3.214606 1_565
Al1 Y0 3.214606 1_544
Al1 Y1 3.214606 1_554
Al1 Y0 3.214606 1_555
