# generated using pymatgen
data_KLaTiO4
_symmetry_space_group_name_H-M   'P 1'
_cell_length_a   3.87038800
_cell_length_b   3.87038800
_cell_length_c   13.60485000
_cell_angle_alpha   90.00000000
_cell_angle_beta   90.00000000
_cell_angle_gamma   90.00000000
_symmetry_Int_Tables_number   1
_chemical_formula_structural   KLaTiO4
_chemical_formula_sum   'K2 La2 Ti2 O8'
_cell_volume   203.79933701
_cell_formula_units_Z   2
loop_
 _symmetry_equiv_pos_site_id
 _symmetry_equiv_pos_as_xyz
  1  'x, y, z'
loop_
 _atom_site_type_symbol
 _atom_site_label
 _atom_site_symmetry_multiplicity
 _atom_site_fract_x
 _atom_site_fract_y
 _atom_site_fract_z
 _atom_site_occupancy
  K  K0  1  0.75000000  0.75000000  0.40495900  1
  K  K1  1  0.25000000  0.25000000  0.59504100  1
  La  La0  1  0.75000000  0.75000000  0.10434100  1
  La  La1  1  0.25000000  0.25000000  0.89565900  1
  Ti  Ti0  1  0.25000000  0.25000000  0.25738300  1
  Ti  Ti1  1  0.75000000  0.75000000  0.74261700  1
  O  O0  1  0.75000000  0.25000000  0.22613600  1
  O  O1  1  0.25000000  0.75000000  0.22613600  1
  O  O2  1  0.25000000  0.75000000  0.77386400  1
  O  O3  1  0.75000000  0.25000000  0.77386400  1
  O  O4  1  0.75000000  0.75000000  0.61341900  1
  O  O5  1  0.25000000  0.25000000  0.38658100  1
  O  O6  1  0.75000000  0.75000000  0.93283200  1
  O  O7  1  0.25000000  0.25000000  0.06716800  1
loop_
_geom_bond_atom_site_label_1
_geom_bond_atom_site_label_2
_geom_bond_distance
_geom_bond_site_symmetry_2
K0 O5 2.748175 1_565
K0 O5 2.748175 1_655
K0 O5 2.748175 1_665
K0 O5 2.748175 1_555
K0 O4 2.836067 1_555
K0 O1 3.108663 1_655
K0 O1 3.108663 1_555
K0 O0 3.108663 1_555
K0 O0 3.108663 1_565
K1 O4 2.748175 1_555
K1 O4 2.748175 1_545
K1 O4 2.748175 1_445
K1 O4 2.748175 1_455
K1 O5 2.836067 1_555
K1 O2 3.108663 1_555
K1 O3 3.108663 1_555
K1 O3 3.108663 1_455
K1 O2 3.108663 1_545
La0 O6 2.333354 1_554
La0 O1 2.547672 1_555
La0 O0 2.547672 1_555
La0 O0 2.547672 1_565
La0 O1 2.547672 1_655
La0 O7 2.783113 1_555
La0 O7 2.783113 1_655
La0 O7 2.783113 1_565
La0 O7 2.783113 1_665
La1 O7 2.333354 1_556
La1 O2 2.547672 1_545
La1 O3 2.547672 1_555
La1 O2 2.547672 1_555
La1 O3 2.547672 1_455
La1 O6 2.783113 1_555
La1 O6 2.783113 1_445
La1 O6 2.783113 1_545
La1 O6 2.783113 1_455
O0 Ti0 1.981337 1_655
O0 Ti0 1.981337 1_555
O1 Ti0 1.981337 1_565
O1 Ti0 1.981337 1_555
O2 Ti1 1.981337 1_555
O2 Ti1 1.981337 1_455
O3 Ti1 1.981337 1_555
O3 Ti1 1.981337 1_545
O4 Ti1 1.757719 1_555
O5 Ti0 1.757719 1_555
O6 Ti1 2.587847 1_555
O7 Ti0 2.587847 1_555
