# generated using pymatgen
data_Tl3Os
_symmetry_space_group_name_H-M   'P 1'
_cell_length_a   6.26383814
_cell_length_b   6.26383814
_cell_length_c   5.44515700
_cell_angle_alpha   90.00000000
_cell_angle_beta   90.00000000
_cell_angle_gamma   120.00000153
_symmetry_Int_Tables_number   1
_chemical_formula_structural   Tl3Os
_chemical_formula_sum   'Tl6 Os2'
_cell_volume   185.02145232
_cell_formula_units_Z   2
loop_
 _symmetry_equiv_pos_site_id
 _symmetry_equiv_pos_as_xyz
  1  'x, y, z'
loop_
 _atom_site_type_symbol
 _atom_site_label
 _atom_site_symmetry_multiplicity
 _atom_site_fract_x
 _atom_site_fract_y
 _atom_site_fract_z
 _atom_site_occupancy
  Tl  Tl0  1  0.82810600  0.17189400  0.75000000  1
  Tl  Tl1  1  0.34378800  0.17189400  0.75000000  1
  Tl  Tl2  1  0.82810600  0.65621200  0.75000000  1
  Tl  Tl3  1  0.17189400  0.82810600  0.25000000  1
  Tl  Tl4  1  0.65621200  0.82810600  0.25000000  1
  Tl  Tl5  1  0.17189400  0.34378800  0.25000000  1
  Os  Os0  1  0.66666700  0.33333300  0.25000000  1
  Os  Os1  1  0.33333300  0.66666700  0.75000000  1
loop_
_geom_bond_atom_site_label_1
_geom_bond_atom_site_label_2
_geom_bond_distance
_geom_bond_site_symmetry_2
Tl0 Tl1 3.033690 1_555
Tl0 Tl2 3.033690 1_555
Tl0 Tl2 3.230149 1_545
Tl0 Tl1 3.230149 1_655
Tl0 Tl4 3.300059 1_546
Tl0 Tl5 3.300059 1_655
Tl0 Tl5 3.300059 1_656
Tl0 Tl4 3.300059 1_545
Tl1 Tl2 3.033689 1_555
Tl1 Tl2 3.230149 1_445
Tl1 Tl3 3.300059 1_545
Tl1 Tl3 3.300059 1_546
Tl1 Tl5 3.300059 1_555
Tl1 Tl5 3.300059 1_556
Tl2 Tl3 3.300059 1_656
Tl2 Tl3 3.300059 1_655
Tl2 Tl4 3.300059 1_555
Tl2 Tl4 3.300059 1_556
Tl3 Tl4 3.033690 1_555
Tl3 Tl5 3.033690 1_555
Tl3 Tl4 3.230149 1_455
Tl3 Tl5 3.230149 1_565
Tl4 Tl5 3.033689 1_555
Tl4 Tl5 3.230149 1_665
Os0 Tl4 3.132429 1_545
Os0 Tl5 3.132429 1_655
Os0 Tl3 3.132432 1_545
Os0 Tl3 3.132432 1_655
Os0 Tl4 3.132436 1_555
Os0 Tl5 3.132436 1_555
Os0 Tl0 3.237310 1_554
Os0 Tl0 3.237310 1_555
Os0 Tl1 3.237313 1_554
Os0 Tl1 3.237313 1_555
Os0 Tl2 3.237313 1_554
Os0 Tl2 3.237313 1_555
Os1 Tl1 3.132429 1_565
Os1 Tl2 3.132429 1_455
Os1 Tl0 3.132432 1_565
Os1 Tl0 3.132432 1_455
Os1 Tl1 3.132436 1_555
Os1 Tl2 3.132436 1_555
Os1 Tl3 3.237310 1_555
Os1 Tl3 3.237310 1_556
Os1 Tl4 3.237313 1_555
Os1 Tl4 3.237313 1_556
Os1 Tl5 3.237313 1_555
Os1 Tl5 3.237313 1_556
