# generated using pymatgen
data_NbSiRu
_symmetry_space_group_name_H-M   'P 1'
_cell_length_a   7.45680374
_cell_length_b   7.45680374
_cell_length_c   7.45680374
_cell_angle_alpha   127.88347717
_cell_angle_beta   121.55770480
_cell_angle_gamma   82.10172952
_symmetry_Int_Tables_number   1
_chemical_formula_structural   NbSiRu
_chemical_formula_sum   'Nb6 Si6 Ru6'
_cell_volume   268.21951744
_cell_formula_units_Z   6
loop_
 _symmetry_equiv_pos_site_id
 _symmetry_equiv_pos_as_xyz
  1  'x, y, z'
loop_
 _atom_site_type_symbol
 _atom_site_label
 _atom_site_symmetry_multiplicity
 _atom_site_fract_x
 _atom_site_fract_y
 _atom_site_fract_z
 _atom_site_occupancy
  Nb  Nb0  1  0.55336500  0.09550100  0.04213700  1
  Nb  Nb1  1  0.44663500  0.48877200  0.54213700  1
  Nb  Nb2  1  0.96864600  0.49744700  0.02880100  1
  Nb  Nb3  1  0.03135400  0.06015500  0.52880100  1
  Nb  Nb4  1  0.75167000  0.91716700  0.66549700  1
  Nb  Nb5  1  0.24833000  0.91382700  0.16549700  1
  Si  Si0  1  0.77868800  0.52996500  0.25127700  1
  Si  Si1  1  0.22131200  0.47258900  0.75127700  1
  Si  Si2  1  0.33669900  0.82941100  0.49936700  1
  Si  Si3  1  0.66330100  0.16266700  0.49271100  1
  Si  Si4  1  0.83004400  0.82941100  0.99271100  1
  Si  Si5  1  0.16995600  0.16266700  0.99936700  1
  Ru  Ru0  1  0.50000000  0.25087400  0.75087400  1
  Ru  Ru1  1  0.00000000  0.25087400  0.25087400  1
  Ru  Ru2  1  0.15687800  0.74440000  0.65291400  1
  Ru  Ru3  1  0.84312200  0.49603600  0.58752200  1
  Ru  Ru4  1  0.59148600  0.74440000  0.08752200  1
  Ru  Ru5  1  0.40851400  0.49603600  0.15291400  1
loop_
_geom_bond_atom_site_label_1
_geom_bond_atom_site_label_2
_geom_bond_distance
_geom_bond_site_symmetry_2
Nb0 Si4 2.664979 1_544
Nb0 Si2 2.664983 1_544
Nb0 Si3 2.715633 1_555
Nb0 Si5 2.715640 1_554
Nb0 Ru3 2.790483 1_555
Nb0 Ru5 2.790487 1_555
Nb0 Ru4 2.798689 1_545
Nb0 Ru2 2.798693 1_544
Nb0 Ru1 2.876933 1_655
Nb0 Ru0 2.876938 1_554
Nb0 Si0 2.880843 1_555
Nb1 Si5 2.664983 1_554
Nb1 Si3 2.664987 1_555
Nb1 Si4 2.715639 1_555
Nb1 Si2 2.715640 1_555
Nb1 Ru2 2.790481 1_555
Nb1 Ru4 2.790481 1_556
Nb1 Ru3 2.798696 1_555
Nb1 Ru5 2.798696 1_555
Nb1 Ru0 2.876931 1_555
Nb1 Ru1 2.876931 1_555
Nb1 Si1 2.880837 1_555
Nb2 Si0 2.586231 1_555
Nb2 Si2 2.663085 1_655
Nb2 Si4 2.663088 1_554
Nb2 Si3 2.678726 1_554
Nb2 Si5 2.678728 1_654
Nb2 Ru3 2.905196 1_554
Nb2 Ru5 2.905196 1_655
Nb2 Ru0 3.064856 1_554
Nb2 Ru1 3.064856 1_655
Nb3 Si1 2.586231 1_555
Nb3 Si3 2.663081 1_455
Nb3 Si5 2.663088 1_555
Nb3 Si2 2.678722 1_545
Nb3 Si4 2.678728 1_444
Nb3 Ru2 2.905196 1_545
Nb3 Ru4 2.905196 1_445
Nb3 Ru1 3.064856 1_555
Nb3 Ru0 3.064856 1_555
Nb4 Si4 2.662033 1_555
Nb4 Si2 2.662041 1_555
Nb4 Si5 2.668714 1_665
Nb4 Si3 2.668715 1_565
Nb4 Si0 2.730648 1_555
Nb4 Ru1 2.853205 1_666
Nb4 Ru0 2.853205 1_565
Nb4 Ru3 2.872040 1_555
Nb4 Ru5 2.872040 1_555
Nb5 Si5 2.662033 1_564
Nb5 Si3 2.662039 1_565
Nb5 Si4 2.668714 1_454
Nb5 Si2 2.668716 1_555
Nb5 Si1 2.730648 1_554
Nb5 Ru0 2.853205 1_565
Nb5 Ru1 2.853205 1_565
Nb5 Ru4 2.872040 1_555
Nb5 Ru2 2.872040 1_554
Ru0 Si0 2.471467 1_556
Ru0 Si1 2.471467 1_555
Ru0 Si2 2.509943 1_545
Ru0 Si3 2.509947 1_555
Ru0 Ru4 2.803959 1_556
Ru0 Ru5 2.803959 1_556
Ru1 Si1 2.471467 1_555
Ru1 Si0 2.471467 1_455
Ru1 Si4 2.509941 1_444
Ru1 Si5 2.509941 1_554
Ru1 Ru2 2.803959 1_555
Ru1 Ru3 2.803959 1_455
Ru2 Si0 2.448831 1_455
Ru2 Si1 2.462959 1_555
Ru2 Si2 2.498552 1_555
Ru2 Si5 2.517075 1_565
Ru3 Si1 2.448831 1_655
Ru3 Si0 2.462959 1_555
Ru3 Si3 2.498554 1_555
Ru3 Si4 2.517075 1_555
Ru4 Si0 2.448831 1_555
Ru4 Si1 2.462959 1_554
Ru4 Si4 2.498558 1_554
Ru4 Si3 2.517073 1_565
Ru5 Si1 2.448831 1_554
Ru5 Si0 2.462959 1_555
Ru5 Si5 2.498558 1_554
Ru5 Si2 2.517079 1_555
