# generated using pymatgen
data_Li7Mn4CoO12
_symmetry_space_group_name_H-M   'P 1'
_cell_length_a   5.90637818
_cell_length_b   5.94372961
_cell_length_c   6.47153345
_cell_angle_alpha   103.60947684
_cell_angle_beta   104.56002002
_cell_angle_gamma   87.43182840
_symmetry_Int_Tables_number   1
_chemical_formula_structural   Li7Mn4CoO12
_chemical_formula_sum   'Li7 Mn4 Co1 O12'
_cell_volume   213.69389991
_cell_formula_units_Z   1
loop_
 _symmetry_equiv_pos_site_id
 _symmetry_equiv_pos_as_xyz
  1  'x, y, z'
loop_
 _atom_site_type_symbol
 _atom_site_label
 _atom_site_symmetry_multiplicity
 _atom_site_fract_x
 _atom_site_fract_y
 _atom_site_fract_z
 _atom_site_occupancy
  Li  Li0  1  0.17090900  0.15791700  0.64829900  1
  Li  Li1  1  0.83333300  0.33333300  0.33333300  1
  Li  Li2  1  0.49575700  0.50874900  0.01836700  1
  Li  Li3  1  0.16527000  0.66267700  0.65416600  1
  Li  Li4  1  0.83333300  0.83333300  0.33333300  1
  Li  Li5  1  0.50139600  0.00399000  0.01250000  1
  Li  Li6  1  0.33333300  0.83333300  0.33333300  1
  Mn  Mn0  1  0.01048200  0.00251600  0.00299600  1
  Mn  Mn1  1  0.65618600  0.66415100  0.66367000  1
  Mn  Mn2  1  0.66070400  0.16334100  0.65970800  1
  Mn  Mn3  1  0.00596400  0.50332500  0.00695900  1
  Co  Co0  1  0.33333300  0.33333200  0.33333300  1
  O  O0  1  0.91281200  0.93812400  0.67484100  1
  O  O1  1  0.57899800  0.09904700  0.34953300  1
  O  O2  1  0.25001600  0.27685900  0.01549200  1
  O  O3  1  0.89292900  0.41016800  0.68150600  1
  O  O4  1  0.56769800  0.56881900  0.35329700  1
  O  O5  1  0.21449100  0.73364200  0.98960500  1
  O  O6  1  0.41665100  0.38980900  0.65117600  1
  O  O7  1  0.08766900  0.56762000  0.31713500  1
  O  O8  1  0.75385500  0.72854200  0.99182600  1
  O  O9  1  0.45217600  0.93302500  0.67706200  1
  O  O10  1  0.09896900  0.09784800  0.31336900  1
  O  O11  1  0.77373800  0.25649800  0.98516200  1
loop_
_geom_bond_atom_site_label_1
_geom_bond_atom_site_label_2
_geom_bond_distance
_geom_bond_site_symmetry_2
Li0 O6 2.039700 1_555
Li0 O10 2.047551 1_555
Li0 O9 2.084187 1_545
Li0 O0 2.115593 1_445
Li0 O3 2.189743 1_455
Li0 O2 2.246258 1_556
Li1 O4 2.063334 1_555
Li1 O10 2.063335 1_655
Li1 O11 2.130905 1_554
Li1 O3 2.130917 1_555
Li1 O1 2.131218 1_555
Li1 O7 2.131222 1_655
Li2 O2 2.039691 1_555
Li2 O4 2.047550 1_555
Li2 O5 2.084186 1_554
Li2 O8 2.115595 1_554
Li2 O11 2.189745 1_554
Li2 O6 2.246246 1_554
Li3 O7 2.056007 1_555
Li3 O5 2.058544 1_555
Li3 O6 2.149220 1_555
Li3 O0 2.167980 1_455
Li3 O3 2.314235 1_455
Li3 O9 2.341221 1_555
Li4 O8 2.085545 1_554
Li4 O0 2.085550 1_555
Li4 O7 2.133197 1_655
Li4 O1 2.133198 1_565
Li4 O4 2.317033 1_555
Li4 O10 2.317042 1_665
Li5 O1 2.056019 1_555
Li5 O9 2.058538 1_544
Li5 O2 2.149220 1_555
Li5 O8 2.167987 1_544
Li5 O11 2.314230 1_554
Li5 O5 2.341219 1_544
Li6 O4 2.053116 1_555
Li6 O10 2.053117 1_565
Li6 O5 2.103306 1_554
Li6 O9 2.103313 1_555
Li6 O7 2.159072 1_555
Li6 O1 2.159077 1_565
Mn0 O10 1.895197 1_555
Mn0 O5 1.956566 1_544
Mn0 O0 2.002635 1_444
Mn0 O11 2.014730 1_454
Mn0 O2 2.180418 1_555
Mn0 O8 2.250593 1_444
Mn1 O4 1.895197 1_555
Mn1 O9 1.956570 1_555
Mn1 O8 2.002641 1_555
Mn1 O3 2.014732 1_555
Mn1 O6 2.180421 1_555
Mn1 O0 2.250582 1_555
Mn2 O1 1.891214 1_555
Mn2 O9 1.922640 1_545
Mn2 O6 1.927135 1_555
Mn2 O0 1.956660 1_545
Mn2 O11 1.991393 1_555
Mn2 O3 2.009768 1_555
Mn3 O7 1.891220 1_555
Mn3 O5 1.922640 1_554
Mn3 O2 1.927123 1_555
Mn3 O8 1.956664 1_454
Mn3 O3 1.991387 1_454
Mn3 O11 2.009773 1_454
Co0 O2 1.940799 1_555
Co0 O6 1.940810 1_555
Co0 O1 1.966378 1_555
Co0 O7 1.966386 1_555
Co0 O10 1.972424 1_555
Co0 O4 1.972441 1_555
