# generated using pymatgen
data_Sr2CdWO6
_symmetry_space_group_name_H-M   'P 1'
_cell_length_a   5.89416700
_cell_length_b   5.95290000
_cell_length_c   8.34868100
_cell_angle_alpha   90.00000000
_cell_angle_beta   90.00000000
_cell_angle_gamma   90.00000000
_symmetry_Int_Tables_number   1
_chemical_formula_structural   Sr2CdWO6
_chemical_formula_sum   'Sr4 Cd2 W2 O12'
_cell_volume   292.93339897
_cell_formula_units_Z   2
loop_
 _symmetry_equiv_pos_site_id
 _symmetry_equiv_pos_as_xyz
  1  'x, y, z'
loop_
 _atom_site_type_symbol
 _atom_site_label
 _atom_site_symmetry_multiplicity
 _atom_site_fract_x
 _atom_site_fract_y
 _atom_site_fract_z
 _atom_site_occupancy
  Sr  Sr0  1  0.00000000  0.51568300  0.25431400  1
  Sr  Sr1  1  0.50000000  0.99028600  0.24856700  1
  Sr  Sr2  1  0.00000000  0.51568300  0.74568600  1
  Sr  Sr3  1  0.50000000  0.99028600  0.75143300  1
  Cd  Cd0  1  0.50000000  0.47149600  0.00000000  1
  Cd  Cd1  1  0.00000000  0.99809200  0.50000000  1
  W  W0  1  0.00000000  0.96779600  0.00000000  1
  W  W1  1  0.50000000  0.49106600  0.50000000  1
  O  O0  1  0.26876800  0.72512300  0.50000000  1
  O  O1  1  0.26469000  0.26284200  0.50000000  1
  O  O2  1  0.00000000  0.95876900  0.23290400  1
  O  O3  1  0.00000000  0.95876900  0.76709600  1
  O  O4  1  0.50000000  0.48526600  0.73246500  1
  O  O5  1  0.22296400  0.72412700  0.00000000  1
  O  O6  1  0.73123200  0.72512300  0.50000000  1
  O  O7  1  0.77703600  0.72412700  0.00000000  1
  O  O8  1  0.75531500  0.18367900  0.00000000  1
  O  O9  1  0.73531000  0.26284200  0.50000000  1
  O  O10  1  0.50000000  0.48526600  0.26753500  1
  O  O11  1  0.24468500  0.18367900  0.00000000  1
loop_
_geom_bond_atom_site_label_1
_geom_bond_atom_site_label_2
_geom_bond_distance
_geom_bond_site_symmetry_2
Cd0 O7 2.219916 1_555
Cd0 O5 2.219916 1_555
Cd0 O4 2.235068 1_554
Cd0 O10 2.235068 1_555
Cd0 O8 2.280391 1_555
Cd0 O11 2.280391 1_555
Cd1 O9 2.217627 1_465
Cd1 O1 2.217627 1_565
Cd1 O2 2.242152 1_555
Cd1 O3 2.242152 1_555
Cd1 O0 2.269374 1_555
Cd1 O6 2.269374 1_455
O0 W1 1.949073 1_555
O0 Sr2 2.875979 1_555
O0 Sr0 2.875979 1_555
O0 Sr1 2.958976 1_555
O0 Sr3 2.958976 1_555
O1 W1 1.941501 1_555
O1 Sr2 2.984404 1_555
O1 Sr0 2.984404 1_555
O1 Sr1 2.993746 1_545
O1 Sr3 2.993746 1_545
O2 W0 1.945184 1_555
O2 Sr0 2.643696 1_555
O2 Sr1 2.955943 1_455
O2 Sr1 2.955943 1_555
O2 Sr0 3.320068 1_565
O3 W0 1.945184 1_556
O3 Sr2 2.643696 1_555
O3 Sr3 2.955943 1_555
O3 Sr3 2.955943 1_455
O3 Sr2 3.320068 1_565
O4 W1 1.941083 1_555
O4 Sr3 2.950819 1_545
O4 Sr2 2.954703 1_555
O4 Sr2 2.954703 1_655
O4 Sr3 3.010501 1_555
O5 W0 1.957331 1_555
O5 Sr0 2.788316 1_555
O5 Sr2 2.788316 1_554
O5 Sr3 3.079483 1_554
O5 Sr1 3.079483 1_555
O6 W1 1.949073 1_555
O6 Sr2 2.875979 1_655
O6 Sr0 2.875979 1_655
O6 Sr1 2.958976 1_555
O6 Sr3 2.958976 1_555
O7 W0 1.957331 1_655
O7 Sr0 2.788316 1_655
O7 Sr2 2.788316 1_654
O7 Sr1 3.079483 1_555
O7 Sr3 3.079483 1_554
O8 W0 1.931720 1_645
O8 Sr1 2.810069 1_545
O8 Sr3 2.810069 1_544
O8 Sr0 3.239445 1_655
O8 Sr2 3.239445 1_654
O9 W1 1.941501 1_555
O9 Sr2 2.984404 1_655
O9 Sr0 2.984404 1_655
O9 Sr1 2.993746 1_545
O9 Sr3 2.993746 1_545
O10 W1 1.941083 1_555
O10 Sr1 2.950819 1_545
O10 Sr0 2.954703 1_555
O10 Sr0 2.954703 1_655
O10 Sr1 3.010501 1_555
O11 W0 1.931720 1_545
O11 Sr1 2.810069 1_545
O11 Sr3 2.810069 1_544
O11 Sr0 3.239445 1_555
O11 Sr2 3.239445 1_554
