# generated using pymatgen
data_Ba2Cr3O8
_symmetry_space_group_name_H-M   'P 1'
_cell_length_a   3.86816500
_cell_length_b   3.86816500
_cell_length_c   12.14680200
_cell_angle_alpha   90.00000000
_cell_angle_beta   90.00000000
_cell_angle_gamma   90.00000000
_symmetry_Int_Tables_number   1
_chemical_formula_structural   Ba2Cr3O8
_chemical_formula_sum   'Ba2 Cr3 O8'
_cell_volume   181.74895996
_cell_formula_units_Z   1
loop_
 _symmetry_equiv_pos_site_id
 _symmetry_equiv_pos_as_xyz
  1  'x, y, z'
loop_
 _atom_site_type_symbol
 _atom_site_label
 _atom_site_symmetry_multiplicity
 _atom_site_fract_x
 _atom_site_fract_y
 _atom_site_fract_z
 _atom_site_occupancy
  Ba  Ba0  1  0.50000000  0.50000000  0.17212400  1
  Ba  Ba1  1  0.50000000  0.50000000  0.82787600  1
  Cr  Cr0  1  0.00000000  0.00000000  0.33200000  1
  Cr  Cr1  1  0.00000000  0.00000000  0.00000000  1
  Cr  Cr2  1  0.00000000  0.00000000  0.66800000  1
  O  O0  1  0.00000000  0.50000000  0.34767100  1
  O  O1  1  0.50000000  0.00000000  0.34767100  1
  O  O2  1  0.50000000  0.00000000  0.00000000  1
  O  O3  1  0.00000000  0.00000000  0.17373200  1
  O  O4  1  0.00000000  0.50000000  0.65232900  1
  O  O5  1  0.50000000  0.00000000  0.65232900  1
  O  O6  1  0.00000000  0.00000000  0.82626800  1
  O  O7  1  0.00000000  0.50000000  0.00000000  1
loop_
_geom_bond_atom_site_label_1
_geom_bond_atom_site_label_2
_geom_bond_distance
_geom_bond_site_symmetry_2
Ba0 O3 2.735275 1_565
Ba0 O3 2.735275 1_665
Ba0 O3 2.735275 1_555
Ba0 O3 2.735275 1_655
Ba0 O7 2.848146 1_555
Ba0 O7 2.848146 1_655
Ba0 O2 2.848146 1_555
Ba0 O2 2.848146 1_565
Ba0 O0 2.878806 1_555
Ba0 O0 2.878806 1_655
Ba0 O1 2.878806 1_555
Ba0 O1 2.878806 1_565
Ba1 O6 2.735275 1_555
Ba1 O6 2.735275 1_565
Ba1 O6 2.735275 1_655
Ba1 O6 2.735275 1_665
Ba1 O2 2.848146 1_556
Ba1 O2 2.848146 1_566
Ba1 O7 2.848146 1_556
Ba1 O7 2.848146 1_656
Ba1 O5 2.878806 1_555
Ba1 O4 2.878806 1_555
Ba1 O5 2.878806 1_565
Ba1 O4 2.878806 1_655
Cr0 O3 1.922450 1_555
Cr0 O0 1.943427 1_545
Cr0 O1 1.943427 1_555
Cr0 O1 1.943427 1_455
Cr0 O0 1.943427 1_555
Cr1 O2 1.934082 1_555
Cr1 O7 1.934082 1_545
Cr1 O7 1.934082 1_555
Cr1 O2 1.934082 1_455
Cr1 O6 2.110288 1_554
Cr1 O3 2.110288 1_555
Cr2 O6 1.922450 1_555
Cr2 O5 1.943427 1_455
Cr2 O5 1.943427 1_555
Cr2 O4 1.943427 1_545
Cr2 O4 1.943427 1_555
