# generated using pymatgen
data_Dy3Ga8Ag3
_symmetry_space_group_name_H-M   'P 1'
_cell_length_a   4.43159600
_cell_length_b   8.31032640
_cell_length_c   8.31032640
_cell_angle_alpha   69.30034268
_cell_angle_beta   74.53605770
_cell_angle_gamma   74.53605770
_symmetry_Int_Tables_number   1
_chemical_formula_structural   Dy3Ga8Ag3
_chemical_formula_sum   'Dy3 Ga8 Ag3'
_cell_volume   270.84070162
_cell_formula_units_Z   1
loop_
 _symmetry_equiv_pos_site_id
 _symmetry_equiv_pos_as_xyz
  1  'x, y, z'
loop_
 _atom_site_type_symbol
 _atom_site_label
 _atom_site_symmetry_multiplicity
 _atom_site_fract_x
 _atom_site_fract_y
 _atom_site_fract_z
 _atom_site_occupancy
  Dy  Dy0  1  0.50000000  0.50000000  0.50000000  1
  Dy  Dy1  1  0.79668400  0.20331600  0.20331600  1
  Dy  Dy2  1  0.20331600  0.79668400  0.79668400  1
  Ga  Ga0  1  0.64349500  0.07504600  0.63796400  1
  Ga  Ga1  1  0.35650500  0.92495400  0.36203600  1
  Ga  Ga2  1  0.64349500  0.63796400  0.07504600  1
  Ga  Ga3  1  0.35650500  0.36203600  0.92495400  1
  Ga  Ga4  1  0.84173900  0.79095400  0.52556800  1
  Ga  Ga5  1  0.15826100  0.20904600  0.47443200  1
  Ga  Ga6  1  0.84173900  0.52556800  0.79095400  1
  Ga  Ga7  1  0.15826100  0.47443200  0.20904600  1
  Ag  Ag0  1  0.50000000  0.00000000  0.00000000  1
  Ag  Ag1  1  0.00000000  0.80963200  0.19036800  1
  Ag  Ag2  1  0.00000000  0.19036800  0.80963200  1
loop_
_geom_bond_atom_site_label_1
_geom_bond_atom_site_label_2
_geom_bond_distance
_geom_bond_site_symmetry_2
Dy0 Ga3 3.243348 1_555
Dy0 Ga1 3.243348 1_555
Dy0 Ga0 3.243348 1_555
Dy0 Ga2 3.243348 1_555
Dy0 Ga4 3.266889 1_555
Dy0 Ga6 3.266889 1_555
Dy0 Ga6 3.266889 1_455
Dy0 Ga4 3.266889 1_455
Dy0 Ga7 3.266889 1_655
Dy0 Ga5 3.266889 1_655
Dy0 Ga7 3.266889 1_555
Dy0 Ga5 3.266889 1_555
Dy1 Ga5 3.112533 1_655
Dy1 Ga7 3.112533 1_655
Dy1 Ga5 3.112533 1_555
Dy1 Ga7 3.112533 1_555
Dy1 Ga1 3.126259 1_645
Dy1 Ga3 3.126259 1_654
Dy1 Ga1 3.126259 1_545
Dy1 Ga3 3.126259 1_554
Dy1 Ga2 3.316699 1_555
Dy1 Ga0 3.316699 1_555
Dy1 Ga4 3.519601 1_545
Dy1 Ga6 3.519601 1_554
Dy2 Ga4 3.112533 1_555
Dy2 Ga6 3.112533 1_555
Dy2 Ga4 3.112533 1_455
Dy2 Ga6 3.112533 1_455
Dy2 Ga0 3.126259 1_565
Dy2 Ga2 3.126259 1_556
Dy2 Ga2 3.126259 1_456
Dy2 Ga0 3.126259 1_465
Dy2 Ga3 3.316699 1_555
Dy2 Ga1 3.316699 1_555
Dy2 Ga5 3.519601 1_565
Dy2 Ga7 3.519601 1_556
Ga0 Ga5 2.631080 1_655
Ga0 Ga5 2.631080 1_555
Ga0 Ga4 2.689496 1_545
Ga1 Ga4 2.631080 1_455
Ga1 Ga4 2.631080 1_555
Ga1 Ga5 2.689496 1_565
Ga2 Ga7 2.631080 1_655
Ga2 Ga7 2.631080 1_555
Ga2 Ga6 2.689496 1_554
Ga3 Ga6 2.631080 1_455
Ga3 Ga6 2.631080 1_555
Ga3 Ga7 2.689496 1_556
Ga4 Ga6 2.507874 1_555
Ga5 Ga7 2.507874 1_555
Ag0 Ga3 2.776687 1_554
Ag0 Ga1 2.776687 1_545
Ag0 Ga0 2.776687 1_554
Ag0 Ga2 2.776687 1_545
Ag0 Ag2 2.854123 1_654
Ag0 Ag1 2.854123 1_645
Ag0 Ag1 2.854123 1_545
Ag0 Ag2 2.854123 1_554
Ag0 Dy1 3.438861 1_555
Ag0 Dy1 3.438861 1_455
Ag0 Dy2 3.438861 1_544
Ag0 Dy2 3.438861 1_644
Ag1 Ga4 2.643146 1_455
Ag1 Ga7 2.643146 1_555
Ag1 Ga1 2.902691 1_555
Ag1 Ga2 2.902691 1_555
Ag1 Ga2 2.902691 1_455
Ag1 Ga1 2.902691 1_455
Ag1 Dy2 3.186262 1_554
Ag1 Dy1 3.186262 1_465
Ag2 Ga6 2.643146 1_455
Ag2 Ga5 2.643146 1_555
Ag2 Ga3 2.902691 1_555
Ag2 Ga0 2.902691 1_555
Ag2 Ga0 2.902691 1_455
Ag2 Ga3 2.902691 1_455
Ag2 Dy2 3.186262 1_545
Ag2 Dy1 3.186262 1_456
