# generated using pymatgen
data_CsY2CuTe4
_symmetry_space_group_name_H-M   'P 1'
_cell_length_a   18.89573430
_cell_length_b   18.89573430
_cell_length_c   21.03779624
_cell_angle_alpha   72.15375452
_cell_angle_beta   72.15375452
_cell_angle_gamma   13.81175444
_symmetry_Int_Tables_number   1
_chemical_formula_structural   CsY2CuTe4
_chemical_formula_sum   'Cs6 Y12 Cu6 Te24'
_cell_volume   1705.66016593
_cell_formula_units_Z   6
loop_
 _symmetry_equiv_pos_site_id
 _symmetry_equiv_pos_as_xyz
  1  'x, y, z'
loop_
 _atom_site_type_symbol
 _atom_site_label
 _atom_site_symmetry_multiplicity
 _atom_site_fract_x
 _atom_site_fract_y
 _atom_site_fract_z
 _atom_site_occupancy
  Cs  Cs0  1  0.23899200  0.23899200  0.88493000  1
  Cs  Cs1  1  0.76100800  0.76100800  0.11507000  1
  Cs  Cs2  1  0.11096300  0.11096300  0.54847500  1
  Cs  Cs3  1  0.88903700  0.88903700  0.45152500  1
  Cs  Cs4  1  0.01738700  0.01738700  0.75215600  1
  Cs  Cs5  1  0.98261300  0.98261300  0.24784400  1
  Y  Y0  1  0.00000000  0.00000000  0.00000000  1
  Y  Y1  1  0.00000000  0.00000000  0.50000000  1
  Y  Y2  1  0.36914800  0.36914800  0.68993500  1
  Y  Y3  1  0.63085200  0.63085200  0.31006500  1
  Y  Y4  1  0.12188000  0.12188000  0.13766200  1
  Y  Y5  1  0.87812000  0.87812000  0.86233800  1
  Y  Y6  1  0.39755900  0.39755900  0.02605700  1
  Y  Y7  1  0.60244100  0.60244100  0.97394300  1
  Y  Y8  1  0.16706100  0.16706100  0.72118000  1
  Y  Y9  1  0.83293900  0.83293900  0.27882000  1
  Y  Y10  1  0.24142300  0.24142300  0.41655300  1
  Y  Y11  1  0.75857700  0.75857700  0.58344700  1
  Cu  Cu0  1  0.39054300  0.39054300  0.17252900  1
  Cu  Cu1  1  0.60945700  0.60945700  0.82747100  1
  Cu  Cu2  1  0.45231200  0.45231200  0.63965400  1
  Cu  Cu3  1  0.54768800  0.54768800  0.36034600  1
  Cu  Cu4  1  0.20108200  0.20108200  0.31974800  1
  Cu  Cu5  1  0.79891800  0.79891800  0.68025200  1
  Te  Te0  1  0.13971700  0.13971700  0.87000600  1
  Te  Te1  1  0.86028300  0.86028300  0.12999400  1
  Te  Te2  1  0.38343100  0.38343100  0.29767500  1
  Te  Te3  1  0.61656900  0.61656900  0.70232500  1
  Te  Te4  1  0.46050300  0.46050300  0.09451000  1
  Te  Te5  1  0.53949700  0.53949700  0.90549000  1
  Te  Te6  1  0.08006500  0.08006500  0.39499700  1
  Te  Te7  1  0.91993500  0.91993500  0.60500300  1
  Te  Te8  1  0.47656400  0.47656400  0.41877700  1
  Te  Te9  1  0.52343600  0.52343600  0.58122300  1
  Te  Te10  1  0.42422300  0.42422300  0.77388400  1
  Te  Te11  1  0.57577700  0.57577700  0.22611600  1
  Te  Te12  1  0.31752300  0.31752300  0.60022300  1
  Te  Te13  1  0.68247700  0.68247700  0.39977700  1
  Te  Te14  1  0.17620100  0.17620100  0.21875200  1
  Te  Te15  1  0.82379900  0.82379900  0.78124800  1
  Te  Te16  1  0.27589700  0.27589700  0.26785600  1
  Te  Te17  1  0.72410300  0.72410300  0.73214400  1
  Te  Te18  1  0.06195000  0.06195000  0.06536400  1
  Te  Te19  1  0.93805000  0.93805000  0.93463600  1
  Te  Te20  1  0.33579200  0.33579200  0.95944400  1
  Te  Te21  1  0.66420800  0.66420800  0.04055600  1
  Te  Te22  1  0.20775400  0.20775400  0.56825900  1
  Te  Te23  1  0.79224600  0.79224600  0.43174100  1
loop_
_geom_bond_atom_site_label_1
_geom_bond_atom_site_label_2
_geom_bond_distance
_geom_bond_site_symmetry_2
Cs0 Te0 3.833103 1_555
Cs0 Te15 3.969674 1_455
Cs0 Te15 3.969674 1_545
Cs0 Te17 4.112681 1_455
Cs0 Te17 4.112681 1_545
Cs0 Te21 4.252258 1_546
Cs0 Te21 4.252258 1_456
Cs0 Te20 4.377372 1_555
Cs1 Te1 3.833103 1_555
Cs1 Te14 3.969674 1_565
Cs1 Te14 3.969674 1_655
Cs1 Te16 4.112681 1_565
Cs1 Te16 4.112681 1_655
Cs1 Te20 4.252258 1_654
Cs1 Te20 4.252258 1_564
Cs1 Te21 4.377372 1_555
Cs2 Te6 3.752340 1_555
Cs2 Te22 3.780607 1_555
Cs2 Te9 3.875954 1_545
Cs2 Te9 3.875954 1_455
Cs2 Te3 4.012793 1_455
Cs2 Te3 4.012793 1_545
Cs2 Te13 4.118814 1_455
Cs2 Te13 4.118814 1_545
Cs3 Te7 3.752340 1_555
Cs3 Te23 3.780607 1_555
Cs3 Te8 3.875954 1_565
Cs3 Te8 3.875954 1_655
Cs3 Te2 4.012793 1_655
Cs3 Te2 4.012793 1_565
Cs3 Te12 4.118814 1_565
Cs3 Te12 4.118814 1_655
Cs4 Te19 4.067235 1_445
Cs4 Te10 4.074473 1_455
Cs4 Te10 4.074473 1_545
Cs4 Te9 4.200145 1_545
Cs4 Te9 4.200145 1_455
Cs4 Te3 4.206980 1_545
Cs4 Te3 4.206980 1_455
Cs4 Te5 4.231782 1_545
Cs4 Te5 4.231782 1_455
Cs5 Te18 4.067235 1_665
Cs5 Te11 4.074473 1_655
Cs5 Te11 4.074473 1_565
Cs5 Te8 4.200145 1_655
Cs5 Te8 4.200145 1_565
Cs5 Te2 4.206980 1_565
Cs5 Te2 4.206980 1_655
Cs5 Te4 4.231782 1_655
Cs5 Te4 4.231782 1_565
Cu0 Te2 2.563023 1_555
Cu0 Te4 2.631216 1_555
Cu0 Te1 2.806917 1_545
Cu0 Te1 2.806917 1_455
Cu0 Y6 3.010619 1_555
Cu0 Y9 3.442255 1_455
Cu0 Y9 3.442255 1_545
Cu1 Te3 2.563023 1_555
Cu1 Te5 2.631216 1_555
Cu1 Te0 2.806917 1_565
Cu1 Te0 2.806917 1_655
Cu1 Y7 3.010619 1_555
Cu1 Y8 3.442255 1_565
Cu1 Y8 3.442255 1_655
Cu2 Te9 2.570244 1_555
Cu2 Te10 2.692143 1_555
Cu2 Te7 2.777694 1_455
Cu2 Te7 2.777694 1_545
Cu2 Y2 2.969206 1_555
Cu3 Te8 2.570244 1_555
Cu3 Te11 2.692143 1_555
Cu3 Te6 2.777694 1_655
Cu3 Te6 2.777694 1_565
Cu3 Y3 2.969206 1_555
Cu4 Te14 2.571070 1_555
Cu4 Te16 2.679247 1_555
Cu4 Te13 2.785362 1_455
Cu4 Te13 2.785362 1_545
Cu4 Y10 2.888125 1_555
Cu5 Te15 2.571070 1_555
Cu5 Te17 2.679247 1_555
Cu5 Te12 2.785362 1_565
Cu5 Te12 2.785362 1_655
Cu5 Y11 2.888125 1_555
Te0 Y8 2.978640 1_555
Te0 Y7 3.164017 1_455
Te0 Y7 3.164017 1_545
Te1 Y9 2.978640 1_555
Te1 Y6 3.164017 1_655
Te1 Y6 3.164017 1_565
Te2 Y9 3.061325 1_545
Te2 Y9 3.061325 1_455
Te3 Y8 3.061325 1_655
Te3 Y8 3.061325 1_565
Te4 Y0 3.080906 1_565
Te4 Y0 3.080906 1_655
Te4 Y6 3.122528 1_555
Te5 Y0 3.080906 1_566
Te5 Y0 3.080906 1_656
Te5 Y7 3.122528 1_555
Te6 Y1 3.131444 1_555
Te6 Y3 3.143741 1_545
Te6 Y3 3.143741 1_455
Te7 Y1 3.131444 1_665
Te7 Y2 3.143741 1_655
Te7 Y2 3.143741 1_565
Te8 Y1 3.127701 1_655
Te8 Y1 3.127701 1_565
Te9 Y1 3.127701 1_565
Te9 Y1 3.127701 1_655
Te10 Y5 3.103115 1_455
Te10 Y5 3.103115 1_545
Te10 Y2 3.105097 1_555
Te11 Y4 3.103115 1_565
Te11 Y4 3.103115 1_655
Te11 Y3 3.105097 1_555
Te12 Y2 3.093587 1_555
Te12 Y11 3.264832 1_545
Te12 Y11 3.264832 1_455
Te13 Y3 3.093587 1_555
Te13 Y10 3.264832 1_655
Te13 Y10 3.264832 1_565
Te14 Y4 3.034826 1_555
Te14 Y3 3.119144 1_545
Te14 Y3 3.119144 1_455
Te15 Y5 3.034826 1_555
Te15 Y2 3.119144 1_565
Te15 Y2 3.119144 1_655
Te16 Y10 2.993456 1_555
Te16 Y9 3.178019 1_545
Te16 Y9 3.178019 1_455
Te17 Y11 2.993456 1_555
Te17 Y8 3.178019 1_655
Te17 Y8 3.178019 1_565
Te18 Y0 3.044024 1_555
Te18 Y7 3.060207 1_454
Te18 Y7 3.060207 1_544
Te18 Y4 3.078990 1_555
Te19 Y0 3.044024 1_666
Te19 Y6 3.060207 1_656
Te19 Y6 3.060207 1_566
Te19 Y5 3.078990 1_555
Te20 Y6 3.055967 1_556
Te20 Y5 3.139150 1_545
Te20 Y5 3.139150 1_455
Te21 Y7 3.055967 1_554
Te21 Y4 3.139150 1_565
Te21 Y4 3.139150 1_655
Te22 Y11 3.045634 1_545
Te22 Y11 3.045634 1_455
Te22 Y10 3.048375 1_555
Te22 Y8 3.106160 1_555
Te23 Y10 3.045634 1_565
Te23 Y10 3.045634 1_655
Te23 Y11 3.048375 1_555
Te23 Y9 3.106160 1_555
