# generated using pymatgen
data_Pu2C3
_symmetry_space_group_name_H-M   'P 1'
_cell_length_a   7.07698433
_cell_length_b   7.07723997
_cell_length_c   7.07628914
_cell_angle_alpha   109.47610742
_cell_angle_beta   109.46212947
_cell_angle_gamma   109.47314245
_symmetry_Int_Tables_number   1
_chemical_formula_structural   Pu2C3
_chemical_formula_sum   'Pu8 C12'
_cell_volume   272.84001403
_cell_formula_units_Z   4
loop_
 _symmetry_equiv_pos_site_id
 _symmetry_equiv_pos_as_xyz
  1  'x, y, z'
loop_
 _atom_site_type_symbol
 _atom_site_label
 _atom_site_symmetry_multiplicity
 _atom_site_fract_x
 _atom_site_fract_y
 _atom_site_fract_z
 _atom_site_occupancy
  Pu  Pu0  1  0.59641995  0.59647890  0.59642728  1
  Pu  Pu1  1  0.40350033  0.49994071  -0.00003933  1
  Pu  Pu2  1  0.49999262  0.99991849  0.40355365  1
  Pu  Pu3  1  0.00004553  0.40354415  0.49995498  1
  Pu  Pu4  1  0.50003554  0.99994590  0.90343660  1
  Pu  Pu5  1  -0.00000866  0.90353872  0.49997326  1
  Pu  Pu6  1  0.90357588  0.50003825  0.00003636  1
  Pu  Pu7  1  0.09643279  0.09657749  0.09648761  1
  C  C0  1  0.75000858  0.79015945  0.04005016  1
  C  C1  1  0.74992010  0.95978363  0.20992701  1
  C  C2  1  0.29018289  0.25002887  0.54019349  1
  C  C3  1  0.54024453  0.29014643  0.25005904  1
  C  C4  1  0.20979688  0.75002730  0.95986485  1
  C  C5  1  0.95986156  0.20981879  0.75002829  1
  C  C6  1  0.25009406  0.70988986  0.45998342  1
  C  C7  1  0.70984460  0.45988516  0.25000173  1
  C  C8  1  0.25003198  0.54019551  0.29006259  1
  C  C9  1  0.45969847  0.24987636  0.70975850  1
  C  C10  1  0.04016435  0.75000090  0.79017813  1
  C  C11  1  0.79015903  0.04020714  0.75005839  1
loop_
_geom_bond_atom_site_label_1
_geom_bond_atom_site_label_2
_geom_bond_distance
_geom_bond_site_symmetry_2
C0 C1 1.387402 1_555
C0 Pu7 2.469438 1_665
C0 Pu1 2.470296 1_555
C0 Pu0 2.603553 1_554
C0 Pu6 2.604289 1_555
C1 Pu5 2.469219 1_655
C1 Pu4 2.470286 1_554
C1 Pu2 2.603225 1_555
C1 Pu3 2.604484 1_665
C2 C9 1.386160 1_555
C2 Pu0 2.469598 1_555
C2 Pu5 2.469679 1_545
C2 Pu3 2.604145 1_555
C2 Pu7 2.604298 1_555
C3 C7 1.386731 1_555
C3 Pu0 2.469479 1_555
C3 Pu4 2.470101 1_544
C3 Pu2 2.604545 1_545
C3 Pu7 2.605120 1_555
C4 Pu6 2.469199 1_456
C4 Pu4 2.470242 1_555
C4 Pu2 2.604230 1_556
C4 Pu1 2.604933 1_556
C5 Pu5 2.469391 1_645
C5 Pu6 2.469663 1_556
C5 Pu1 2.604100 1_656
C5 Pu3 2.604862 1_655
C6 C8 1.387253 1_555
C6 Pu3 2.469111 1_555
C6 Pu2 2.469245 1_555
C6 Pu4 2.602814 1_555
C6 Pu5 2.604538 1_555
C7 Pu1 2.469671 1_555
C7 Pu3 2.470018 1_655
C7 Pu6 2.603973 1_555
C7 Pu5 2.604107 1_655
C8 Pu6 2.469352 1_455
C8 Pu0 2.469740 1_555
C8 Pu1 2.603261 1_555
C8 Pu7 2.603766 1_555
C9 Pu1 2.469291 1_556
C9 Pu2 2.469369 1_545
C9 Pu4 2.604038 1_545
C9 Pu6 2.605532 1_556
C10 C4 1.386404 1_555
C10 Pu3 2.469783 1_555
C10 Pu7 2.470108 1_566
C10 Pu5 2.604548 1_555
C10 Pu0 2.604773 1_455
C11 C5 1.386519 1_555
C11 Pu7 2.469274 1_656
C11 Pu2 2.469513 1_545
C11 Pu4 2.603059 1_545
C11 Pu0 2.604439 1_545
