# generated using pymatgen
data_Pr4(ErS2)11
_symmetry_space_group_name_H-M   'P 1'
_cell_length_a   19.68732006
_cell_length_b   19.68732006
_cell_length_c   11.36293244
_cell_angle_alpha   88.58981488
_cell_angle_beta   88.58981488
_cell_angle_gamma   11.50962076
_symmetry_Int_Tables_number   1
_chemical_formula_structural   Pr4(ErS2)11
_chemical_formula_sum   'Pr4 Er11 S22'
_cell_volume   878.50517888
_cell_formula_units_Z   1
loop_
 _symmetry_equiv_pos_site_id
 _symmetry_equiv_pos_as_xyz
  1  'x, y, z'
loop_
 _atom_site_type_symbol
 _atom_site_label
 _atom_site_symmetry_multiplicity
 _atom_site_fract_x
 _atom_site_fract_y
 _atom_site_fract_z
 _atom_site_occupancy
  Pr  Pr0  1  0.10415200  0.10415200  0.98742200  1
  Pr  Pr1  1  0.89584800  0.89584800  0.01257800  1
  Pr  Pr2  1  0.36716800  0.36716800  0.65218000  1
  Pr  Pr3  1  0.63283200  0.63283200  0.34782000  1
  Er  Er0  1  0.79800000  0.79800000  0.94221300  1
  Er  Er1  1  0.20200000  0.20200000  0.05778700  1
  Er  Er2  1  0.46180800  0.46180800  0.72852200  1
  Er  Er3  1  0.53819200  0.53819200  0.27147800  1
  Er  Er4  1  0.65767400  0.65767400  0.69806100  1
  Er  Er5  1  0.34232600  0.34232600  0.30193900  1
  Er  Er6  1  0.26410800  0.26410800  0.64798100  1
  Er  Er7  1  0.73589200  0.73589200  0.35201900  1
  Er  Er8  1  0.06934000  0.06934000  0.64010200  1
  Er  Er9  1  0.93066000  0.93066000  0.35989800  1
  Er  Er10  1  0.00000000  0.00000000  0.00000000  1
  S  S0  1  0.08725400  0.08725400  0.24753300  1
  S  S1  1  0.91274600  0.91274600  0.75246700  1
  S  S2  1  0.18882700  0.18882700  0.30775700  1
  S  S3  1  0.81117300  0.81117300  0.69224300  1
  S  S4  1  0.27999800  0.27999800  0.40994400  1
  S  S5  1  0.72000200  0.72000200  0.59005600  1
  S  S6  1  0.44578400  0.44578400  0.50454700  1
  S  S7  1  0.55421600  0.55421600  0.49545300  1
  S  S8  1  0.13436700  0.13436700  0.54664300  1
  S  S9  1  0.86563300  0.86563300  0.45335700  1
  S  S10  1  0.59290100  0.59290100  0.78755300  1
  S  S11  1  0.40709900  0.40709900  0.21244700  1
  S  S12  1  0.45323200  0.45323200  0.96852200  1
  S  S13  1  0.54676800  0.54676800  0.03147800  1
  S  S14  1  0.35058400  0.35058400  0.90816400  1
  S  S15  1  0.64941600  0.64941600  0.09183600  1
  S  S16  1  0.16837300  0.16837300  0.84838900  1
  S  S17  1  0.83162700  0.83162700  0.15161100  1
  S  S18  1  0.00777400  0.00777400  0.76127100  1
  S  S19  1  0.99222600  0.99222600  0.23872900  1
  S  S20  1  0.25525000  0.25525000  0.88076400  1
  S  S21  1  0.74475000  0.74475000  0.11923600  1
loop_
_geom_bond_atom_site_label_1
_geom_bond_atom_site_label_2
_geom_bond_distance
_geom_bond_site_symmetry_2
Pr0 S15 2.924589 1_456
Pr0 S15 2.924589 1_546
Pr0 S16 2.937540 1_555
Pr0 S0 3.012833 1_556
Pr0 S13 3.024205 1_456
Pr0 S13 3.024205 1_546
Pr0 S10 3.049373 1_455
Pr0 S10 3.049373 1_545
Pr1 S14 2.924589 1_654
Pr1 S14 2.924589 1_564
Pr1 S17 2.937540 1_555
Pr1 S1 3.012833 1_554
Pr1 S12 3.024205 1_564
Pr1 S12 3.024205 1_654
Pr1 S11 3.049373 1_655
Pr1 S11 3.049373 1_565
Pr2 S1 2.912816 1_455
Pr2 S1 2.912816 1_545
Pr2 S14 2.964680 1_555
Pr2 S3 2.977754 1_545
Pr2 S3 2.977754 1_455
Pr2 S9 3.001894 1_545
Pr2 S9 3.001894 1_455
Pr2 S6 3.470475 1_555
Pr3 S0 2.912816 1_565
Pr3 S0 2.912816 1_655
Pr3 S15 2.964680 1_555
Pr3 S2 2.977754 1_565
Pr3 S2 2.977754 1_655
Pr3 S8 3.001894 1_565
Pr3 S8 3.001894 1_655
Pr3 S7 3.470475 1_555
Er0 S20 2.692076 1_655
Er0 S20 2.692076 1_565
Er0 S17 2.748086 1_556
Er0 S21 2.861904 1_556
Er0 S14 2.872459 1_565
Er0 S14 2.872459 1_655
Er0 S3 2.874307 1_555
Er1 S21 2.692076 1_455
Er1 S21 2.692076 1_545
Er1 S16 2.748086 1_554
Er1 S20 2.861904 1_554
Er1 S15 2.872459 1_455
Er1 S15 2.872459 1_545
Er1 S2 2.874307 1_555
Er2 S6 2.636324 1_555
Er2 S18 2.703960 1_565
Er2 S18 2.703960 1_655
Er2 S12 2.739461 1_555
Er2 S1 2.763960 1_545
Er2 S1 2.763960 1_455
Er3 S7 2.636324 1_555
Er3 S19 2.703960 1_455
Er3 S19 2.703960 1_545
Er3 S13 2.739461 1_555
Er3 S0 2.763960 1_655
Er3 S0 2.763960 1_565
Er4 S16 2.650646 1_565
Er4 S16 2.650646 1_655
Er4 S5 2.705581 1_555
Er4 S10 2.710282 1_555
Er4 S8 2.787242 1_565
Er4 S8 2.787242 1_655
Er5 S17 2.650646 1_455
Er5 S17 2.650646 1_545
Er5 S4 2.705581 1_555
Er5 S11 2.710282 1_555
Er5 S9 2.787242 1_455
Er5 S9 2.787242 1_545
Er6 S20 2.659240 1_555
Er6 S5 2.715167 1_545
Er6 S5 2.715167 1_455
Er6 S3 2.755997 1_545
Er6 S3 2.755997 1_455
Er6 S4 2.760463 1_555
Er7 S21 2.659240 1_555
Er7 S4 2.715167 1_655
Er7 S4 2.715167 1_565
Er7 S2 2.755997 1_565
Er7 S2 2.755997 1_655
Er7 S5 2.760463 1_555
Er8 S7 2.645328 1_545
Er8 S7 2.645328 1_455
Er8 S8 2.735645 1_555
Er8 S18 2.747501 1_555
Er8 S10 2.762734 1_545
Er8 S10 2.762734 1_455
Er9 S6 2.645328 1_655
Er9 S6 2.645328 1_565
Er9 S9 2.735645 1_555
Er9 S19 2.747501 1_555
Er9 S11 2.762734 1_655
Er9 S11 2.762734 1_565
Er10 S19 2.722208 1_445
Er10 S18 2.722208 1_554
Er10 S12 2.722916 1_454
Er10 S12 2.722916 1_544
Er10 S13 2.722916 1_545
Er10 S13 2.722916 1_455
