# generated using pymatgen
data_HoAl7Au3
_symmetry_space_group_name_H-M   'P 1'
_cell_length_a   8.37462184
_cell_length_b   8.37462184
_cell_length_c   8.37462167
_cell_angle_alpha   57.33956240
_cell_angle_beta   57.33956240
_cell_angle_gamma   57.33956532
_symmetry_Int_Tables_number   1
_chemical_formula_structural   HoAl7Au3
_chemical_formula_sum   'Ho2 Al14 Au6'
_cell_volume   389.88419722
_cell_formula_units_Z   2
loop_
 _symmetry_equiv_pos_site_id
 _symmetry_equiv_pos_as_xyz
  1  'x, y, z'
loop_
 _atom_site_type_symbol
 _atom_site_label
 _atom_site_symmetry_multiplicity
 _atom_site_fract_x
 _atom_site_fract_y
 _atom_site_fract_z
 _atom_site_occupancy
  Ho  Ho0  1  0.00000000  -0.00000000  -0.00000000  1
  Ho  Ho1  1  0.50000000  0.50000000  0.50000000  1
  Al  Al0  1  0.93187397  0.14707596  0.33208725  1
  Al  Al1  1  0.33208725  0.93187397  0.14707596  1
  Al  Al2  1  0.14707596  0.33208725  0.93187397  1
  Al  Al3  1  0.56812603  0.16791275  0.35292404  1
  Al  Al4  1  0.35292404  0.56812603  0.16791275  1
  Al  Al5  1  0.16791275  0.35292404  0.56812603  1
  Al  Al6  1  0.06812603  0.85292404  0.66791275  1
  Al  Al7  1  0.66791275  0.06812603  0.85292404  1
  Al  Al8  1  0.75000000  0.75000000  0.75000000  1
  Al  Al9  1  0.25000000  0.25000000  0.25000000  1
  Al  Al10  1  0.83208725  0.64707596  0.43187397  1
  Al  Al11  1  0.64707596  0.43187397  0.83208725  1
  Al  Al12  1  0.43187397  0.83208725  0.64707596  1
  Al  Al13  1  0.85292404  0.66791275  0.06812603  1
  Au  Au0  1  0.25000000  0.57480563  0.92519437  1
  Au  Au1  1  0.92519437  0.25000000  0.57480563  1
  Au  Au2  1  0.57480563  0.92519437  0.25000000  1
  Au  Au3  1  0.75000000  0.42519437  0.07480563  1
  Au  Au4  1  0.07480563  0.75000000  0.42519437  1
  Au  Au5  1  0.42519437  0.07480563  0.75000000  1
loop_
_geom_bond_atom_site_label_1
_geom_bond_atom_site_label_2
_geom_bond_distance
_geom_bond_site_symmetry_2
Al0 Au1 2.567902 1_555
Al0 Au3 2.585321 1_555
Al0 Au4 2.647914 1_645
Al0 Ho0 3.286843 1_655
Al0 Ho1 3.354543 1_555
Al1 Au2 2.567902 1_555
Al1 Au4 2.585321 1_555
Al1 Au5 2.647914 1_564
Al1 Ho0 3.286843 1_565
Al1 Ho1 3.354543 1_555
Al2 Au0 2.567902 1_555
Al2 Au5 2.585321 1_555
Al2 Au3 2.647914 1_456
Al2 Ho0 3.286843 1_556
Al2 Ho1 3.354543 1_555
Al3 Au2 2.567902 1_545
Al3 Au3 2.585321 1_555
Al3 Au5 2.647914 1_555
Al3 Ho1 3.286843 1_555
Al3 Ho0 3.354543 1_655
Al4 Au0 2.567902 1_554
Al4 Au4 2.585321 1_555
Al4 Au3 2.647914 1_555
Al4 Ho1 3.286843 1_555
Al4 Ho0 3.354543 1_565
Al5 Au1 2.567902 1_455
Al5 Au5 2.585321 1_555
Al5 Au4 2.647914 1_555
Al5 Ho1 3.286843 1_555
Al5 Ho0 3.354543 1_556
Al6 Au4 2.567902 1_555
Al6 Au0 2.585321 1_555
Al6 Au1 2.647914 1_465
Al6 Ho0 3.286843 1_566
Al6 Ho1 3.354543 1_555
Al7 Au5 2.567902 1_555
Al7 Au1 2.585321 1_555
Al7 Au2 2.647914 1_546
Al7 Ho0 3.286843 1_656
Al7 Ho1 3.354543 1_555
Al8 Au4 2.610018 1_655
Al8 Au3 2.610018 1_556
Al8 Au5 2.610018 1_565
Al9 Au1 2.610018 1_455
Al9 Au0 2.610018 1_554
Al9 Au2 2.610018 1_545
Al10 Au4 2.567902 1_655
Al10 Au2 2.585321 1_555
Al10 Au1 2.647914 1_555
Al10 Ho1 3.286843 1_555
Al10 Ho0 3.354543 1_665
Al11 Au3 2.567902 1_556
Al11 Au1 2.585321 1_555
Al11 Au0 2.647914 1_555
Al11 Ho1 3.286843 1_555
Al11 Ho0 3.354543 1_656
Al12 Au5 2.567902 1_565
Al12 Au0 2.585321 1_555
Al12 Au2 2.647914 1_555
Al12 Ho1 3.286843 1_555
Al12 Ho0 3.354543 1_566
Al13 Au3 2.567902 1_555
Al13 Au2 2.585321 1_555
Al13 Au0 2.647914 1_654
Al13 Ho0 3.286843 1_665
Al13 Ho1 3.354543 1_555
Au0 Ho1 3.225058 1_555
Au0 Ho0 3.225058 1_566
Au1 Ho0 3.225058 1_656
Au1 Ho1 3.225058 1_555
Au2 Ho1 3.225058 1_555
Au2 Ho0 3.225058 1_665
Au3 Ho1 3.225058 1_555
Au3 Ho0 3.225058 1_655
Au4 Ho0 3.225058 1_565
Au4 Ho1 3.225058 1_555
Au5 Ho1 3.225058 1_555
Au5 Ho0 3.225058 1_556
