# generated using pymatgen
data_Mg2Al3CrS8
_symmetry_space_group_name_H-M   'P 1'
_cell_length_a   7.21769091
_cell_length_b   7.24441045
_cell_length_c   7.21778520
_cell_angle_alpha   60.12257360
_cell_angle_beta   59.99987265
_cell_angle_gamma   60.12411017
_symmetry_Int_Tables_number   1
_chemical_formula_structural   Mg2Al3CrS8
_chemical_formula_sum   'Mg2 Al3 Cr1 S8'
_cell_volume   267.36035785
_cell_formula_units_Z   1
loop_
 _symmetry_equiv_pos_site_id
 _symmetry_equiv_pos_as_xyz
  1  'x, y, z'
loop_
 _atom_site_type_symbol
 _atom_site_label
 _atom_site_symmetry_multiplicity
 _atom_site_fract_x
 _atom_site_fract_y
 _atom_site_fract_z
 _atom_site_occupancy
  Mg  Mg0  1  0.87451345  0.87642018  0.87454238  1
  Mg  Mg1  1  0.12549304  0.12361228  0.12544117  1
  Al  Al0  1  0.49999813  0.50002311  0.49997186  1
  Al  Al1  1  0.49999391  0.49998827  0.00001529  1
  Al  Al2  1  0.00001434  0.49998718  0.50000724  1
  Cr  Cr0  1  0.50001140  0.99993540  0.49998822  1
  S  S0  1  0.73729015  0.73794926  0.73728971  1
  S  S1  1  0.26271730  0.26204819  0.71250490  1
  S  S2  1  0.26183176  0.71451960  0.26182675  1
  S  S3  1  0.71250303  0.26204568  0.26272900  1
  S  S4  1  0.73813726  0.28552160  0.73815900  1
  S  S5  1  0.28747784  0.73794975  0.73729771  1
  S  S6  1  0.26274107  0.26203033  0.26273739  1
  S  S7  1  0.73728131  0.73796418  0.28749037  1
loop_
_geom_bond_atom_site_label_1
_geom_bond_atom_site_label_2
_geom_bond_distance
_geom_bond_site_symmetry_2
Mg0 S4 2.424352 1_565
Mg0 S0 2.435108 1_555
Mg0 S7 2.435148 1_556
Mg0 S5 2.435251 1_655
Mg1 S2 2.424300 1_545
Mg1 S1 2.435078 1_554
Mg1 S6 2.435197 1_555
Mg1 S3 2.435401 1_455
Al0 S7 2.436626 1_555
Al0 S3 2.436666 1_555
Al0 S1 2.436769 1_555
Al0 S5 2.436827 1_555
Al0 S2 2.440642 1_555
Al0 S4 2.440718 1_555
Al1 S6 2.436557 1_555
Al1 S3 2.436706 1_555
Al1 S5 2.436761 1_554
Al1 S0 2.436782 1_554
Al1 S4 2.440691 1_554
Al1 S2 2.440767 1_555
Al2 S1 2.436595 1_555
Al2 S6 2.436708 1_555
Al2 S0 2.436793 1_455
Al2 S7 2.436849 1_455
Al2 S4 2.440725 1_455
Al2 S2 2.440732 1_555
Cr0 S7 2.433609 1_555
Cr0 S5 2.433786 1_555
Cr0 S6 2.433961 1_565
Cr0 S0 2.434183 1_555
Cr0 S3 2.434256 1_565
Cr0 S1 2.434462 1_565
