# generated using pymatgen
data_Ca2CrO5
_symmetry_space_group_name_H-M   'P 1'
_cell_length_a   8.62213033
_cell_length_b   8.62213033
_cell_length_c   8.62213033
_cell_angle_alpha   144.41955215
_cell_angle_beta   142.53543664
_cell_angle_gamma   52.62500658
_symmetry_Int_Tables_number   1
_chemical_formula_structural   Ca2CrO5
_chemical_formula_sum   'Ca4 Cr2 O10'
_cell_volume   225.50795407
_cell_formula_units_Z   2
loop_
 _symmetry_equiv_pos_site_id
 _symmetry_equiv_pos_as_xyz
  1  'x, y, z'
loop_
 _atom_site_type_symbol
 _atom_site_label
 _atom_site_symmetry_multiplicity
 _atom_site_fract_x
 _atom_site_fract_y
 _atom_site_fract_z
 _atom_site_occupancy
  Ca  Ca0  1  0.81590200  0.40985600  0.51091300  1
  Ca  Ca1  1  0.60105700  0.19501000  0.51091300  1
  Ca  Ca2  1  0.10105700  0.59014400  0.40604600  1
  Ca  Ca3  1  0.31590200  0.80499000  0.40604600  1
  Cr  Cr0  1  0.45702600  0.50000000  0.95702600  1
  Cr  Cr1  1  0.95702600  0.00000000  0.95702600  1
  O  O0  1  0.46726500  0.52044400  0.48770900  1
  O  O1  1  0.96726500  0.47955600  0.94682100  1
  O  O2  1  0.45160500  0.27506400  0.92546600  1
  O  O3  1  0.65040200  0.72493600  0.17654100  1
  O  O4  1  0.95160500  0.02613900  0.17654100  1
  O  O5  1  0.15040200  0.97386100  0.92546600  1
  O  O6  1  0.79359700  0.25353600  0.96518200  1
  O  O7  1  0.71164600  0.74646400  0.54006200  1
  O  O8  1  0.21164600  0.67158400  0.96518200  1
  O  O9  1  0.29359700  0.32841600  0.54006200  1
loop_
_geom_bond_atom_site_label_1
_geom_bond_atom_site_label_2
_geom_bond_distance
_geom_bond_site_symmetry_2
Ca0 O7 2.302010 1_555
Ca0 O1 2.383691 1_555
Ca0 O4 2.401425 1_555
Ca0 O8 2.414896 1_655
Ca0 O0 2.420955 1_555
Ca0 O2 2.533150 1_554
Ca1 O9 2.302015 1_555
Ca1 O1 2.383696 1_555
Ca1 O3 2.401420 1_545
Ca1 O6 2.414894 1_555
Ca1 O0 2.420963 1_555
Ca1 O5 2.533149 1_544
Ca2 O6 2.302015 1_454
Ca2 O0 2.383691 1_555
Ca2 O5 2.401425 1_555
Ca2 O9 2.414898 1_555
Ca2 O1 2.420955 1_454
Ca2 O3 2.533150 1_455
Ca3 O8 2.302005 1_554
Ca3 O0 2.383699 1_555
Ca3 O2 2.401421 1_565
Ca3 O7 2.414893 1_555
Ca3 O1 2.420960 1_454
Ca3 O4 2.533144 1_465
Cr0 O9 1.713694 1_555
Cr0 O8 1.713697 1_555
Cr0 O2 1.751868 1_555
Cr0 O3 1.751868 1_556
Cr0 O6 2.318275 1_555
Cr0 O7 2.318281 1_556
Cr1 O7 1.713697 1_545
Cr1 O6 1.713697 1_555
Cr1 O5 1.751868 1_645
Cr1 O4 1.751868 1_556
Cr1 O9 2.318279 1_656
Cr1 O8 2.318281 1_645
