# generated using pymatgen
data_U2Ga3Cu
_symmetry_space_group_name_H-M   'P 1'
_cell_length_a   5.85999200
_cell_length_b   9.33769566
_cell_length_c   16.28318213
_cell_angle_alpha   89.99690177
_cell_angle_beta   90.00000000
_cell_angle_gamma   90.00000000
_symmetry_Int_Tables_number   1
_chemical_formula_structural   U2Ga3Cu
_chemical_formula_sum   'U16 Ga24 Cu8'
_cell_volume   890.99654119
_cell_formula_units_Z   8
loop_
 _symmetry_equiv_pos_site_id
 _symmetry_equiv_pos_as_xyz
  1  'x, y, z'
loop_
 _atom_site_type_symbol
 _atom_site_label
 _atom_site_symmetry_multiplicity
 _atom_site_fract_x
 _atom_site_fract_y
 _atom_site_fract_z
 _atom_site_occupancy
  U  U0_0  1  0.00000000  0.49997200  0.00144350  1
  U  U0_1  1  0.00000000  0.49997200  0.50144350  1
  U  U0_2  1  0.00000000  0.99997200  0.00144350  1
  U  U0_3  1  0.00000000  0.99997200  0.50144350  1
  U  U0_4  1  0.50000000  0.49997200  0.00144350  1
  U  U0_5  1  0.50000000  0.49997200  0.50144350  1
  U  U0_6  1  0.50000000  0.99997200  0.00144350  1
  U  U0_7  1  0.50000000  0.99997200  0.50144350  1
  U  U1_0  1  0.00000000  0.25001350  0.25013050  1
  U  U1_1  1  0.00000000  0.25001350  0.75013050  1
  U  U1_2  1  0.00000000  0.75001350  0.25013050  1
  U  U1_3  1  0.00000000  0.75001350  0.75013050  1
  U  U1_4  1  0.50000000  0.25001350  0.25013050  1
  U  U1_5  1  0.50000000  0.25001350  0.75013050  1
  U  U1_6  1  0.50000000  0.75001350  0.25013050  1
  U  U1_7  1  0.50000000  0.75001350  0.75013050  1
  Ga  Ga0_0  1  0.25000000  0.24998050  0.41627600  1
  Ga  Ga0_1  1  0.25000000  0.24998050  0.91627600  1
  Ga  Ga0_2  1  0.25000000  0.74998050  0.41627600  1
  Ga  Ga0_3  1  0.25000000  0.74998050  0.91627600  1
  Ga  Ga0_4  1  0.75000000  0.24998050  0.41627600  1
  Ga  Ga0_5  1  0.75000000  0.24998050  0.91627600  1
  Ga  Ga0_6  1  0.75000000  0.74998050  0.41627600  1
  Ga  Ga0_7  1  0.75000000  0.74998050  0.91627600  1
  Ga  Ga1_0  1  0.25000000  0.24997750  0.08760850  1
  Ga  Ga1_1  1  0.25000000  0.24997750  0.58760850  1
  Ga  Ga1_2  1  0.25000000  0.74997750  0.08760850  1
  Ga  Ga1_3  1  0.25000000  0.74997750  0.58760850  1
  Ga  Ga1_4  1  0.75000000  0.24997750  0.08760850  1
  Ga  Ga1_5  1  0.75000000  0.24997750  0.58760850  1
  Ga  Ga1_6  1  0.75000000  0.74997750  0.08760850  1
  Ga  Ga1_7  1  0.75000000  0.74997750  0.58760850  1
  Ga  Ga2_0  1  0.25000000  0.49997600  0.32861350  1
  Ga  Ga2_1  1  0.25000000  0.49997600  0.82861350  1
  Ga  Ga2_2  1  0.25000000  0.99997600  0.32861350  1
  Ga  Ga2_3  1  0.25000000  0.99997600  0.82861350  1
  Ga  Ga2_4  1  0.75000000  0.49997600  0.32861350  1
  Ga  Ga2_5  1  0.75000000  0.49997600  0.82861350  1
  Ga  Ga2_6  1  0.75000000  0.99997600  0.32861350  1
  Ga  Ga2_7  1  0.75000000  0.99997600  0.82861350  1
  Cu  Cu0_0  1  0.25000000  0.49998000  0.16592800  1
  Cu  Cu0_1  1  0.25000000  0.49998000  0.66592800  1
  Cu  Cu0_2  1  0.25000000  0.99998000  0.16592800  1
  Cu  Cu0_3  1  0.25000000  0.99998000  0.66592800  1
  Cu  Cu0_4  1  0.75000000  0.49998000  0.16592800  1
  Cu  Cu0_5  1  0.75000000  0.49998000  0.66592800  1
  Cu  Cu0_6  1  0.75000000  0.99998000  0.16592800  1
  Cu  Cu0_7  1  0.75000000  0.99998000  0.66592800  1
loop_
_geom_bond_atom_site_label_1
_geom_bond_atom_site_label_2
_geom_bond_distance
_geom_bond_site_symmetry_2
U0_0 U0_4 2.929996 1_555
U0_0 U0_4 2.929996 1_455
U0_1 U0_5 2.929996 1_555
U0_1 U0_5 2.929996 1_455
U0_2 U0_6 2.929996 1_455
U0_2 U0_6 2.929996 1_555
U0_3 U0_7 2.929996 1_455
U0_3 U0_7 2.929996 1_555
U1_0 U1_4 2.929996 1_455
U1_0 U1_4 2.929996 1_555
U1_1 U1_5 2.929996 1_455
U1_1 U1_5 2.929996 1_555
U1_2 U1_6 2.929996 1_555
U1_2 U1_6 2.929996 1_455
U1_3 U1_7 2.929996 1_555
U1_3 U1_7 2.929996 1_455
Ga0_0 Ga2_0 2.736150 1_555
Ga0_0 Ga2_2 2.736354 1_545
Ga0_0 Ga1_1 2.789838 1_555
Ga0_0 Ga0_4 2.929996 1_455
Ga0_0 Ga0_4 2.929996 1_555
Ga0_0 U1_4 3.076571 1_555
Ga0_0 U1_0 3.076571 1_555
Ga0_0 U0_1 3.085278 1_555
Ga0_0 U0_5 3.085278 1_555
Ga0_0 U0_7 3.085285 1_545
Ga0_0 U0_3 3.085285 1_545
Ga0_1 Ga2_1 2.736150 1_555
Ga0_1 Ga2_3 2.736354 1_545
Ga0_1 Ga1_0 2.789838 1_556
Ga0_1 Ga0_5 2.929996 1_555
Ga0_1 Ga0_5 2.929996 1_455
Ga0_1 U1_1 3.076571 1_555
Ga0_1 U1_5 3.076571 1_555
Ga0_1 U0_4 3.085278 1_556
Ga0_1 U0_0 3.085278 1_556
Ga0_1 U0_2 3.085285 1_546
Ga0_1 U0_6 3.085285 1_546
Ga0_2 Ga2_2 2.736150 1_555
Ga0_2 Ga2_0 2.736354 1_555
Ga0_2 Ga1_3 2.789838 1_555
Ga0_2 Ga0_6 2.929996 1_555
Ga0_2 Ga0_6 2.929996 1_455
Ga0_2 U1_6 3.076571 1_555
Ga0_2 U1_2 3.076571 1_555
Ga0_2 U0_3 3.085278 1_555
Ga0_2 U0_7 3.085278 1_555
Ga0_2 U0_5 3.085285 1_555
Ga0_2 U0_1 3.085285 1_555
Ga0_3 Ga2_3 2.736150 1_555
Ga0_3 Ga2_1 2.736354 1_555
Ga0_3 Ga1_2 2.789838 1_556
Ga0_3 Ga0_7 2.929996 1_455
Ga0_3 Ga0_7 2.929996 1_555
Ga0_3 U1_3 3.076571 1_555
Ga0_3 U1_7 3.076571 1_555
Ga0_3 U0_6 3.085278 1_556
Ga0_3 U0_2 3.085278 1_556
Ga0_3 U0_4 3.085285 1_556
Ga0_3 U0_0 3.085285 1_556
Ga0_4 Ga2_4 2.736150 1_555
Ga0_4 Ga2_6 2.736354 1_545
Ga0_4 Ga1_5 2.789838 1_555
Ga0_4 U1_0 3.076571 1_655
Ga0_4 U1_4 3.076571 1_555
Ga0_4 U0_1 3.085278 1_655
Ga0_4 U0_5 3.085278 1_555
Ga0_4 U0_7 3.085285 1_545
Ga0_4 U0_3 3.085285 1_645
Ga0_5 Ga2_5 2.736150 1_555
Ga0_5 Ga2_7 2.736354 1_545
Ga0_5 Ga1_4 2.789838 1_556
Ga0_5 U1_1 3.076571 1_655
Ga0_5 U1_5 3.076571 1_555
Ga0_5 U0_4 3.085278 1_556
Ga0_5 U0_0 3.085278 1_656
Ga0_5 U0_6 3.085285 1_546
Ga0_5 U0_2 3.085285 1_646
Ga0_6 Ga2_6 2.736150 1_555
Ga0_6 Ga2_4 2.736354 1_555
Ga0_6 Ga1_7 2.789838 1_555
Ga0_6 U1_2 3.076571 1_655
Ga0_6 U1_6 3.076571 1_555
Ga0_6 U0_7 3.085278 1_555
Ga0_6 U0_3 3.085278 1_655
Ga0_6 U0_1 3.085285 1_655
Ga0_6 U0_5 3.085285 1_555
Ga0_7 Ga2_7 2.736150 1_555
Ga0_7 Ga2_5 2.736354 1_555
Ga0_7 Ga1_6 2.789838 1_556
Ga0_7 U1_3 3.076571 1_655
Ga0_7 U1_7 3.076571 1_555
Ga0_7 U0_2 3.085278 1_656
Ga0_7 U0_6 3.085278 1_556
Ga0_7 U0_4 3.085285 1_556
Ga0_7 U0_0 3.085285 1_656
Ga1_0 Ga1_4 2.929996 1_555
Ga1_0 Ga1_4 2.929996 1_455
Ga1_0 U1_0 3.024818 1_555
Ga1_0 U1_4 3.024818 1_555
Ga1_0 U0_0 3.092520 1_555
Ga1_0 U0_4 3.092520 1_555
Ga1_0 U0_6 3.092712 1_545
Ga1_0 U0_2 3.092712 1_545
Ga1_1 Ga1_5 2.929996 1_455
Ga1_1 Ga1_5 2.929996 1_555
Ga1_1 U1_1 3.024818 1_555
Ga1_1 U1_5 3.024818 1_555
Ga1_1 U0_1 3.092520 1_555
Ga1_1 U0_5 3.092520 1_555
Ga1_1 U0_3 3.092712 1_545
Ga1_1 U0_7 3.092712 1_545
Ga1_2 Ga1_6 2.929996 1_555
Ga1_2 Ga1_6 2.929996 1_455
Ga1_2 U1_6 3.024818 1_555
Ga1_2 U1_2 3.024818 1_555
Ga1_2 U0_2 3.092520 1_555
Ga1_2 U0_6 3.092520 1_555
Ga1_2 U0_0 3.092712 1_555
Ga1_2 U0_4 3.092712 1_555
Ga1_3 Ga1_7 2.929996 1_455
Ga1_3 Ga1_7 2.929996 1_555
Ga1_3 U1_3 3.024818 1_555
Ga1_3 U1_7 3.024818 1_555
Ga1_3 U0_7 3.092520 1_555
Ga1_3 U0_3 3.092520 1_555
Ga1_3 U0_5 3.092712 1_555
Ga1_3 U0_1 3.092712 1_555
Ga1_4 U1_4 3.024818 1_555
Ga1_4 U1_0 3.024818 1_655
Ga1_4 U0_0 3.092520 1_655
Ga1_4 U0_4 3.092520 1_555
Ga1_4 U0_6 3.092712 1_545
Ga1_4 U0_2 3.092712 1_645
Ga1_5 U1_1 3.024818 1_655
Ga1_5 U1_5 3.024818 1_555
Ga1_5 U0_5 3.092520 1_555
Ga1_5 U0_1 3.092520 1_655
Ga1_5 U0_7 3.092712 1_545
Ga1_5 U0_3 3.092712 1_645
Ga1_6 U1_6 3.024818 1_555
Ga1_6 U1_2 3.024818 1_655
Ga1_6 U0_2 3.092520 1_655
Ga1_6 U0_6 3.092520 1_555
Ga1_6 U0_0 3.092712 1_655
Ga1_6 U0_4 3.092712 1_555
Ga1_7 U1_3 3.024818 1_655
Ga1_7 U1_7 3.024818 1_555
Ga1_7 U0_7 3.092520 1_555
Ga1_7 U0_3 3.092520 1_655
Ga1_7 U0_5 3.092712 1_555
Ga1_7 U0_1 3.092712 1_655
Ga2_0 Ga2_4 2.929996 1_455
Ga2_0 Ga2_4 2.929996 1_555
Ga2_0 U1_0 3.037697 1_555
Ga2_0 U1_4 3.037697 1_555
Ga2_0 U1_2 3.038129 1_555
Ga2_0 U1_6 3.038129 1_555
Ga2_0 U0_1 3.172707 1_555
Ga2_0 U0_5 3.172707 1_555
Ga2_1 Ga2_5 2.929996 1_555
Ga2_1 Ga2_5 2.929996 1_455
Ga2_1 U1_1 3.037697 1_555
Ga2_1 U1_5 3.037697 1_555
Ga2_1 U1_3 3.038129 1_555
Ga2_1 U1_7 3.038129 1_555
Ga2_1 U0_0 3.172707 1_556
Ga2_1 U0_4 3.172707 1_556
Ga2_2 Ga2_6 2.929996 1_555
Ga2_2 Ga2_6 2.929996 1_455
Ga2_2 U1_6 3.037697 1_555
Ga2_2 U1_2 3.037697 1_555
Ga2_2 U1_0 3.038129 1_565
Ga2_2 U1_4 3.038129 1_565
Ga2_2 U0_3 3.172707 1_555
Ga2_2 U0_7 3.172707 1_555
Ga2_3 Ga2_7 2.929996 1_455
Ga2_3 Ga2_7 2.929996 1_555
Ga2_3 U1_3 3.037697 1_555
Ga2_3 U1_7 3.037697 1_555
Ga2_3 U1_1 3.038129 1_565
Ga2_3 U1_5 3.038129 1_565
Ga2_3 U0_2 3.172707 1_556
Ga2_3 U0_6 3.172707 1_556
Ga2_4 U1_4 3.037697 1_555
Ga2_4 U1_0 3.037697 1_655
Ga2_4 U1_6 3.038129 1_555
Ga2_4 U1_2 3.038129 1_655
Ga2_4 U0_1 3.172707 1_655
Ga2_4 U0_5 3.172707 1_555
Ga2_5 U1_1 3.037697 1_655
Ga2_5 U1_5 3.037697 1_555
Ga2_5 U1_3 3.038129 1_655
Ga2_5 U1_7 3.038129 1_555
Ga2_5 U0_4 3.172707 1_556
Ga2_5 U0_0 3.172707 1_656
Ga2_6 U1_6 3.037697 1_555
Ga2_6 U1_2 3.037697 1_655
Ga2_6 U1_0 3.038129 1_665
Ga2_6 U1_4 3.038129 1_565
Ga2_6 U0_7 3.172707 1_555
Ga2_6 U0_3 3.172707 1_655
Ga2_7 U1_3 3.037697 1_655
Ga2_7 U1_7 3.037697 1_555
Ga2_7 U1_5 3.038129 1_565
Ga2_7 U1_1 3.038129 1_665
Ga2_7 U0_6 3.172707 1_556
Ga2_7 U0_2 3.172707 1_656
Cu0_0 Ga2_0 2.649038 1_555
Cu0_0 Ga1_2 2.659976 1_555
Cu0_0 Ga1_0 2.660138 1_555
Cu0_0 Cu0_4 2.929996 1_555
Cu0_0 Cu0_4 2.929996 1_455
Cu0_0 U0_0 3.052815 1_555
Cu0_0 U0_4 3.052815 1_555
Cu0_0 U1_0 3.077957 1_555
Cu0_0 U1_4 3.077957 1_555
Cu0_0 U1_2 3.078544 1_555
Cu0_0 U1_6 3.078544 1_555
Cu0_1 Ga2_1 2.649038 1_555
Cu0_1 Ga1_3 2.659976 1_555
Cu0_1 Ga1_1 2.660138 1_555
Cu0_1 Cu0_5 2.929996 1_455
Cu0_1 Cu0_5 2.929996 1_555
Cu0_1 U0_1 3.052815 1_555
Cu0_1 U0_5 3.052815 1_555
Cu0_1 U1_1 3.077957 1_555
Cu0_1 U1_5 3.077957 1_555
Cu0_1 U1_3 3.078544 1_555
Cu0_1 U1_7 3.078544 1_555
Cu0_2 Ga2_2 2.649038 1_555
Cu0_2 Ga1_0 2.659976 1_565
Cu0_2 Ga1_2 2.660138 1_555
Cu0_2 Cu0_6 2.929996 1_555
Cu0_2 Cu0_6 2.929996 1_455
Cu0_2 U0_2 3.052815 1_555
Cu0_2 U0_6 3.052815 1_555
Cu0_2 U1_6 3.077957 1_555
Cu0_2 U1_2 3.077957 1_555
Cu0_2 U1_0 3.078544 1_565
Cu0_2 U1_4 3.078544 1_565
Cu0_3 Ga2_3 2.649038 1_555
Cu0_3 Ga1_1 2.659976 1_565
Cu0_3 Ga1_3 2.660138 1_555
Cu0_3 Cu0_7 2.929996 1_555
Cu0_3 Cu0_7 2.929996 1_455
Cu0_3 U0_7 3.052815 1_555
Cu0_3 U0_3 3.052815 1_555
Cu0_3 U1_7 3.077957 1_555
Cu0_3 U1_3 3.077957 1_555
Cu0_3 U1_1 3.078544 1_565
Cu0_3 U1_5 3.078544 1_565
Cu0_4 Ga2_4 2.649038 1_555
Cu0_4 Ga1_6 2.659976 1_555
Cu0_4 Ga1_4 2.660138 1_555
Cu0_4 U0_0 3.052815 1_655
Cu0_4 U0_4 3.052815 1_555
Cu0_4 U1_0 3.077957 1_655
Cu0_4 U1_4 3.077957 1_555
Cu0_4 U1_6 3.078544 1_555
Cu0_4 U1_2 3.078544 1_655
Cu0_5 Ga2_5 2.649038 1_555
Cu0_5 Ga1_7 2.659976 1_555
Cu0_5 Ga1_5 2.660138 1_555
Cu0_5 U0_5 3.052815 1_555
Cu0_5 U0_1 3.052815 1_655
Cu0_5 U1_1 3.077957 1_655
Cu0_5 U1_5 3.077957 1_555
Cu0_5 U1_3 3.078544 1_655
Cu0_5 U1_7 3.078544 1_555
Cu0_6 Ga2_6 2.649038 1_555
Cu0_6 Ga1_4 2.659976 1_565
Cu0_6 Ga1_6 2.660138 1_555
Cu0_6 U0_2 3.052815 1_655
Cu0_6 U0_6 3.052815 1_555
Cu0_6 U1_2 3.077957 1_655
Cu0_6 U1_6 3.077957 1_555
Cu0_6 U1_0 3.078544 1_665
Cu0_6 U1_4 3.078544 1_565
Cu0_7 Ga2_7 2.649038 1_555
Cu0_7 Ga1_5 2.659976 1_565
Cu0_7 Ga1_7 2.660138 1_555
Cu0_7 U0_7 3.052815 1_555
Cu0_7 U0_3 3.052815 1_655
Cu0_7 U1_3 3.077957 1_655
Cu0_7 U1_7 3.077957 1_555
Cu0_7 U1_5 3.078544 1_565
Cu0_7 U1_1 3.078544 1_665
