# generated using pymatgen
data_MgTi2ZnO6
_symmetry_space_group_name_H-M   'P 1'
_cell_length_a   5.53855859
_cell_length_b   5.53855859
_cell_length_c   5.53855896
_cell_angle_alpha   54.98787811
_cell_angle_beta   54.98787811
_cell_angle_gamma   54.98787704
_symmetry_Int_Tables_number   1
_chemical_formula_structural   MgTi2ZnO6
_chemical_formula_sum   'Mg1 Ti2 Zn1 O6'
_cell_volume   106.12592482
_cell_formula_units_Z   1
loop_
 _symmetry_equiv_pos_site_id
 _symmetry_equiv_pos_as_xyz
  1  'x, y, z'
loop_
 _atom_site_type_symbol
 _atom_site_label
 _atom_site_symmetry_multiplicity
 _atom_site_fract_x
 _atom_site_fract_y
 _atom_site_fract_z
 _atom_site_occupancy
  Mg  Mg0  1  0.35627200  0.35627200  0.35627200  1
  Ti  Ti0  1  0.14459900  0.14459900  0.14459900  1
  Ti  Ti1  1  0.85429000  0.85429000  0.85429000  1
  Zn  Zn0  1  0.63983000  0.63983000  0.63983000  1
  O  O0  1  0.95358700  0.22390900  0.56323800  1
  O  O1  1  0.22390900  0.56323800  0.95358700  1
  O  O2  1  0.56323800  0.95358700  0.22390900  1
  O  O3  1  0.05224900  0.77465900  0.43736800  1
  O  O4  1  0.77465900  0.43736800  0.05224900  1
  O  O5  1  0.43736800  0.05224900  0.77465900  1
loop_
_geom_bond_atom_site_label_1
_geom_bond_atom_site_label_2
_geom_bond_distance
_geom_bond_site_symmetry_2
Mg0 O3 2.062959 1_555
Mg0 O4 2.062959 1_555
Mg0 O5 2.062959 1_555
Mg0 O0 2.191773 1_455
Mg0 O2 2.191773 1_545
Mg0 O1 2.191773 1_554
O0 Ti1 1.892011 1_545
O0 Zn0 2.046515 1_555
O0 Ti0 2.123446 1_655
O1 Ti1 1.892011 1_455
O1 Zn0 2.046515 1_555
O1 Ti0 2.123445 1_556
O2 Ti1 1.892011 1_554
O2 Zn0 2.046516 1_555
O2 Ti0 2.123445 1_565
O3 Ti0 1.878164 1_565
O3 Ti1 2.106501 1_455
O3 Zn0 2.256088 1_455
O4 Ti0 1.878164 1_655
O4 Ti1 2.106501 1_554
O4 Zn0 2.256089 1_554
O5 Ti0 1.878164 1_556
O5 Ti1 2.106501 1_545
O5 Zn0 2.256088 1_545
