# generated using pymatgen
data_ZrCrAgS4
_symmetry_space_group_name_H-M   'P 1'
_cell_length_a   7.58404400
_cell_length_b   7.44108200
_cell_length_c   10.26384600
_cell_angle_alpha   90.00000000
_cell_angle_beta   90.00000000
_cell_angle_gamma   90.00000000
_symmetry_Int_Tables_number   1
_chemical_formula_structural   ZrCrAgS4
_chemical_formula_sum   'Zr4 Cr4 Ag4 S16'
_cell_volume   579.22468443
_cell_formula_units_Z   4
loop_
 _symmetry_equiv_pos_site_id
 _symmetry_equiv_pos_as_xyz
  1  'x, y, z'
loop_
 _atom_site_type_symbol
 _atom_site_label
 _atom_site_symmetry_multiplicity
 _atom_site_fract_x
 _atom_site_fract_y
 _atom_site_fract_z
 _atom_site_occupancy
  Zr  Zr0  1  0.75000000  0.00278800  0.37500000  1
  Zr  Zr1  1  0.75000000  0.49721200  0.87500000  1
  Zr  Zr2  1  0.25000000  0.99721200  0.37500000  1
  Zr  Zr3  1  0.25000000  0.50278800  0.87500000  1
  Cr  Cr0  1  0.00050800  0.25000000  0.62500000  1
  Cr  Cr1  1  0.99949200  0.75000000  0.62500000  1
  Cr  Cr2  1  0.50050800  0.75000000  0.12500000  1
  Cr  Cr3  1  0.49949200  0.25000000  0.12500000  1
  Ag  Ag0  1  0.00000000  0.00000000  0.01937500  1
  Ag  Ag1  1  0.50000000  0.50000000  0.51937500  1
  Ag  Ag2  1  0.50000000  0.00000000  0.73062500  1
  Ag  Ag3  1  0.00000000  0.50000000  0.23062500  1
  S  S0  1  0.00130000  0.23554400  0.38623900  1
  S  S1  1  0.79212600  0.99979800  0.62407100  1
  S  S2  1  0.99870000  0.76445600  0.38623900  1
  S  S3  1  0.70787400  0.50020200  0.12407100  1
  S  S4  1  0.50130000  0.76445600  0.36376100  1
  S  S5  1  0.29212600  0.00020200  0.12592900  1
  S  S6  1  0.49870000  0.23554400  0.36376100  1
  S  S7  1  0.70787400  0.99979800  0.12592900  1
  S  S8  1  0.50130000  0.73554400  0.88623900  1
  S  S9  1  0.29212600  0.49979800  0.12407100  1
  S  S10  1  0.49870000  0.26445600  0.88623900  1
  S  S11  1  0.20787400  0.00020200  0.62407100  1
  S  S12  1  0.00130000  0.26445600  0.86376100  1
  S  S13  1  0.79212600  0.50020200  0.62592900  1
  S  S14  1  0.99870000  0.73554400  0.86376100  1
  S  S15  1  0.20787400  0.49979800  0.62592900  1
loop_
_geom_bond_atom_site_label_1
_geom_bond_atom_site_label_2
_geom_bond_distance
_geom_bond_site_symmetry_2
Cr0 S15 2.434832 1_555
Cr0 S11 2.434832 1_555
Cr0 S13 2.442107 1_455
Cr0 S1 2.442107 1_445
Cr0 S12 2.452973 1_555
Cr0 S0 2.452973 1_555
Cr1 S1 2.434832 1_555
Cr1 S13 2.434832 1_555
Cr1 S11 2.442107 1_665
Cr1 S15 2.442107 1_655
Cr1 S2 2.452973 1_555
Cr1 S14 2.452973 1_555
Cr2 S7 2.434832 1_555
Cr2 S3 2.434832 1_555
Cr2 S5 2.442107 1_565
Cr2 S9 2.442107 1_555
Cr2 S4 2.452973 1_555
Cr2 S8 2.452973 1_554
Cr3 S9 2.434832 1_555
Cr3 S5 2.434832 1_555
Cr3 S3 2.442107 1_555
Cr3 S7 2.442107 1_545
Cr3 S10 2.452973 1_554
Cr3 S6 2.452973 1_555
Ag0 S5 2.470730 1_555
Ag0 S7 2.470730 1_445
Ag0 S12 2.534468 1_554
Ag0 S14 2.534468 1_444
Ag1 S13 2.470730 1_555
Ag1 S15 2.470730 1_555
Ag1 S4 2.534468 1_555
Ag1 S6 2.534468 1_555
Ag2 S11 2.470730 1_555
Ag2 S1 2.470730 1_545
Ag2 S10 2.534468 1_555
Ag2 S8 2.534468 1_545
Ag3 S3 2.470730 1_455
Ag3 S9 2.470730 1_555
Ag3 S2 2.534468 1_455
Ag3 S0 2.534468 1_555
S0 Zr0 2.577852 1_455
S0 Zr2 2.591523 1_545
S1 Zr0 2.576409 1_565
S2 Zr2 2.577852 1_655
S2 Zr0 2.591523 1_565
S3 Zr1 2.576409 1_554
S4 Zr2 2.577852 1_555
S4 Zr0 2.591523 1_565
S5 Zr2 2.576409 1_545
S6 Zr0 2.577852 1_555
S6 Zr2 2.591523 1_545
S7 Zr0 2.576409 1_565
S8 Zr3 2.577852 1_555
S8 Zr1 2.591523 1_555
S9 Zr3 2.576409 1_554
S10 Zr1 2.577852 1_555
S10 Zr3 2.591523 1_555
S11 Zr2 2.576409 1_545
S12 Zr1 2.577852 1_455
S12 Zr3 2.591523 1_555
S13 Zr1 2.576409 1_555
S14 Zr3 2.577852 1_655
S14 Zr1 2.591523 1_555
S15 Zr3 2.576409 1_555
