# generated using pymatgen
data_SmIn7Cu5
_symmetry_space_group_name_H-M   'P 1'
_cell_length_a   7.25643827
_cell_length_b   7.25643827
_cell_length_c   7.25643827
_cell_angle_alpha   134.57528735
_cell_angle_beta   98.62153224
_cell_angle_gamma   98.52536319
_symmetry_Int_Tables_number   1
_chemical_formula_structural   SmIn7Cu5
_chemical_formula_sum   'Sm1 In7 Cu5'
_cell_volume   251.07064957
_cell_formula_units_Z   1
loop_
 _symmetry_equiv_pos_site_id
 _symmetry_equiv_pos_as_xyz
  1  'x, y, z'
loop_
 _atom_site_type_symbol
 _atom_site_label
 _atom_site_symmetry_multiplicity
 _atom_site_fract_x
 _atom_site_fract_y
 _atom_site_fract_z
 _atom_site_occupancy
  Sm  Sm0  1  0.00085400  0.00085400  0.00000000  1
  In  In0  1  0.65747800  0.65747800  0.00000000  1
  In  In1  1  0.33530500  0.33530500  0.00000000  1
  In  In2  1  0.32961500  0.98798700  0.34162800  1
  In  In3  1  0.64635900  0.98798700  0.65837200  1
  In  In4  1  0.77503900  0.27503900  0.50000000  1
  In  In5  1  0.81066600  0.51207700  0.29858900  1
  In  In6  1  0.21348800  0.51207700  0.70141100  1
  Cu  Cu0  1  0.49550900  0.49925800  0.49138400  1
  Cu  Cu1  1  0.49550900  0.00412500  0.99625100  1
  Cu  Cu2  1  0.00787400  0.49925800  0.00374900  1
  Cu  Cu3  1  0.00787400  0.00412500  0.50861600  1
  Cu  Cu4  1  0.22443000  0.72443000  0.50000000  1
loop_
_geom_bond_atom_site_label_1
_geom_bond_atom_site_label_2
_geom_bond_distance
_geom_bond_site_symmetry_2
In0 In4 3.014878 1_554
In0 In4 3.014878 1_565
In0 In1 3.051297 1_555
In0 In5 3.142929 1_555
In0 In6 3.142929 1_554
In0 Sm0 3.252110 1_665
In1 Sm0 3.167581 1_555
In1 In5 3.283989 1_555
In1 In6 3.283989 1_554
In1 In2 3.490885 1_555
In1 In2 3.490885 1_544
In1 In3 3.490885 1_555
In1 In3 3.490885 1_544
In2 In3 2.996954 1_555
In2 In4 3.104284 1_565
In2 In6 3.108371 1_554
In2 In6 3.108371 1_565
In2 Sm0 3.234697 1_565
In3 In4 3.104284 1_565
In3 In5 3.108371 1_555
In3 In5 3.108371 1_566
In3 Sm0 3.234697 1_666
In4 In6 2.944767 1_655
In4 In5 2.944767 1_555
In4 Sm0 3.524739 1_666
In4 Sm0 3.524739 1_655
In5 Sm0 3.390101 1_655
In5 Sm0 3.390101 1_666
In6 Sm0 3.390101 1_566
In6 Sm0 3.390101 1_555
Cu0 In6 2.704061 1_555
Cu0 Cu4 2.718360 1_555
Cu0 In3 2.768191 1_555
Cu0 Cu1 2.774475 1_554
Cu0 In4 2.801569 1_555
Cu0 In1 2.805979 1_555
Cu0 Cu1 2.829019 1_565
Cu0 In5 2.876575 1_555
Cu0 In0 2.944910 1_556
Cu0 In2 3.003102 1_545
Cu0 Sm0 3.590301 1_555
Cu0 Sm0 3.666747 1_666
Cu1 In6 2.704061 1_545
Cu1 Cu4 2.718360 1_545
Cu1 In3 2.768191 1_545
Cu1 In4 2.801569 1_556
Cu1 In1 2.805979 1_556
Cu1 In5 2.876575 1_556
Cu1 In0 2.944910 1_546
Cu1 In2 3.003102 1_546
Cu1 Sm0 3.590301 1_556
Cu1 Sm0 3.666747 1_656
Cu2 In5 2.704061 1_455
Cu2 Cu4 2.718360 1_555
Cu2 In2 2.768191 1_555
Cu2 Cu3 2.774475 1_554
Cu2 In4 2.801569 1_454
Cu2 In1 2.805979 1_555
Cu2 Cu3 2.829019 1_565
Cu2 In6 2.876575 1_554
Cu2 In0 2.944910 1_455
Cu2 In3 3.003102 1_444
Cu2 Sm0 3.590301 1_555
Cu2 Sm0 3.666747 1_565
Cu3 In5 2.704061 1_445
Cu3 Cu4 2.718360 1_545
Cu3 In2 2.768191 1_545
Cu3 In4 2.801569 1_455
Cu3 In1 2.805979 1_556
Cu3 In6 2.876575 1_555
Cu3 In0 2.944910 1_445
Cu3 In3 3.003102 1_445
Cu3 Sm0 3.590301 1_556
Cu3 Sm0 3.666747 1_555
Cu4 In5 2.770667 1_455
Cu4 In6 2.770667 1_555
Cu4 In2 2.911387 1_555
Cu4 In3 2.911387 1_555
Cu4 In1 2.992071 1_566
Cu4 In1 2.992071 1_555
Cu4 Sm0 3.511913 1_555
Cu4 Sm0 3.511913 1_566
