# generated using pymatgen
data_SiIr2
_symmetry_space_group_name_H-M   'P 1'
_cell_length_a   3.99197600
_cell_length_b   5.28767911
_cell_length_c   7.68344449
_cell_angle_alpha   89.99888646
_cell_angle_beta   90.00000000
_cell_angle_gamma   90.00000000
_symmetry_Int_Tables_number   1
_chemical_formula_structural   SiIr2
_chemical_formula_sum   'Si4 Ir8'
_cell_volume   162.18435990
_cell_formula_units_Z   4
loop_
 _symmetry_equiv_pos_site_id
 _symmetry_equiv_pos_as_xyz
  1  'x, y, z'
loop_
 _atom_site_type_symbol
 _atom_site_label
 _atom_site_symmetry_multiplicity
 _atom_site_fract_x
 _atom_site_fract_y
 _atom_site_fract_z
 _atom_site_occupancy
  Si  Si0  1  0.75000000  0.20594202  0.60091183  1
  Si  Si1  1  0.75000000  0.70595367  0.89908962  1
  Si  Si2  1  0.25000000  0.79405765  0.39910698  1
  Si  Si3  1  0.25000000  0.29405262  0.10088983  1
  Ir  Ir0  1  0.75000000  0.66022215  0.57420487  1
  Ir  Ir1  1  0.75000000  0.16019607  0.92580608  1
  Ir  Ir2  1  0.25000000  0.33978673  0.42579515  1
  Ir  Ir3  1  0.25000000  0.83979909  0.07420166  1
  Ir  Ir4  1  0.75000000  0.52340146  0.20016239  1
  Ir  Ir5  1  0.75000000  0.02336880  0.29982343  1
  Ir  Ir6  1  0.25000000  0.47662027  0.79983172  1
  Ir  Ir7  1  0.25000000  0.97659949  0.70017645  1
loop_
_geom_bond_atom_site_label_1
_geom_bond_atom_site_label_2
_geom_bond_distance
_geom_bond_site_symmetry_2
Ir0 Si0 2.410832 1_555
Ir0 Si1 2.507924 1_555
Ir0 Si2 2.508928 1_555
Ir0 Si2 2.508928 1_655
Ir0 Si0 2.892883 1_565
Ir1 Si1 2.410648 1_545
Ir1 Si0 2.507994 1_555
Ir1 Si3 2.508916 1_556
Ir1 Si3 2.508916 1_656
Ir1 Si1 2.893079 1_555
Ir2 Si2 2.410772 1_555
Ir2 Si3 2.508082 1_555
Ir2 Si0 2.509019 1_455
Ir2 Si0 2.509019 1_555
Ir2 Si2 2.892921 1_545
Ir3 Si3 2.410688 1_565
Ir3 Si2 2.508077 1_555
Ir3 Si1 2.509016 1_554
Ir3 Si1 2.509016 1_454
Ir3 Si3 2.893005 1_555
Ir4 Si3 2.456928 1_555
Ir4 Si3 2.456928 1_655
Ir4 Si1 2.506575 1_554
Ir4 Si2 2.892884 1_555
Ir4 Si2 2.892884 1_655
Ir5 Si2 2.456842 1_645
Ir5 Si2 2.456842 1_545
Ir5 Si0 2.506763 1_555
Ir5 Si3 2.892883 1_555
Ir5 Si3 2.892883 1_655
Ir6 Si1 2.456853 1_455
Ir6 Si1 2.456853 1_555
Ir6 Si3 2.506503 1_556
Ir6 Si0 2.892842 1_555
Ir6 Si0 2.892842 1_455
Ir7 Si0 2.456878 1_465
Ir7 Si0 2.456878 1_565
Ir7 Si2 2.506565 1_555
Ir7 Si1 2.892700 1_455
Ir7 Si1 2.892700 1_555
