# generated using pymatgen
data_BaPrCu2O5
_symmetry_space_group_name_H-M   'P 1'
_cell_length_a   3.92330200
_cell_length_b   7.90106700
_cell_length_c   11.69391300
_cell_angle_alpha   90.00000000
_cell_angle_beta   90.00000000
_cell_angle_gamma   90.00000000
_symmetry_Int_Tables_number   1
_chemical_formula_structural   BaPrCu2O5
_chemical_formula_sum   'Ba3 Pr3 Cu6 O15'
_cell_volume   362.49109549
_cell_formula_units_Z   3
loop_
 _symmetry_equiv_pos_site_id
 _symmetry_equiv_pos_as_xyz
  1  'x, y, z'
loop_
 _atom_site_type_symbol
 _atom_site_label
 _atom_site_symmetry_multiplicity
 _atom_site_fract_x
 _atom_site_fract_y
 _atom_site_fract_z
 _atom_site_occupancy
  Ba  Ba0  1  0.50000000  0.00000000  0.81949800  1
  Ba  Ba1  1  0.50000000  0.50000000  0.82805200  1
  Ba  Ba2  1  0.50000000  0.00000000  0.18237000  1
  Pr  Pr0  1  0.50000000  0.00000000  0.49937100  1
  Pr  Pr1  1  0.50000000  0.50000000  0.49631900  1
  Pr  Pr2  1  0.50000000  0.50000000  0.15452700  1
  Cu  Cu0  1  0.00000000  0.74911500  0.65463900  1
  Cu  Cu1  1  0.00000000  0.25088500  0.65463900  1
  Cu  Cu2  1  0.00000000  0.74717300  0.34528400  1
  Cu  Cu3  1  0.00000000  0.25282700  0.34528400  1
  Cu  Cu4  1  0.00000000  0.74572000  0.00022600  1
  Cu  Cu5  1  0.00000000  0.25428000  0.00022600  1
  O  O0  1  0.00000000  0.76054200  0.83882700  1
  O  O1  1  0.00000000  0.23945800  0.83882700  1
  O  O2  1  0.00000000  0.73453900  0.16495400  1
  O  O3  1  0.00000000  0.26546100  0.16495400  1
  O  O4  1  0.00000000  0.00000000  0.63095200  1
  O  O5  1  0.00000000  0.50000000  0.62911500  1
  O  O6  1  0.50000000  0.75072100  0.62855300  1
  O  O7  1  0.50000000  0.24927900  0.62855300  1
  O  O8  1  0.00000000  0.00000000  0.36628600  1
  O  O9  1  0.00000000  0.50000000  0.36015500  1
  O  O10  1  0.50000000  0.74671000  0.36477400  1
  O  O11  1  0.50000000  0.25329000  0.36477400  1
  O  O12  1  0.50000000  0.75509900  0.01145200  1
  O  O13  1  0.50000000  0.24490100  0.01145200  1
  O  O14  1  0.00000000  0.50000000  0.01593900  1
loop_
_geom_bond_atom_site_label_1
_geom_bond_atom_site_label_2
_geom_bond_distance
_geom_bond_site_symmetry_2
Ba0 O1 2.734727 1_555
Ba0 O1 2.734727 1_655
Ba0 O0 2.734727 1_545
Ba0 O0 2.734727 1_645
Ba0 O4 2.951169 1_655
Ba0 O4 2.951169 1_555
Ba0 O13 2.963578 1_556
Ba0 O12 2.963578 1_546
Ba0 O7 2.977419 1_555
Ba0 O6 2.977419 1_545
Ba1 O0 2.846334 1_655
Ba1 O0 2.846334 1_555
Ba1 O1 2.846334 1_655
Ba1 O1 2.846334 1_555
Ba1 O12 2.943135 1_556
Ba1 O13 2.943135 1_556
Ba1 O14 2.945416 1_556
Ba1 O14 2.945416 1_656
Ba1 O5 3.043023 1_555
Ba1 O5 3.043023 1_655
Ba1 O6 3.060515 1_555
Ba1 O7 3.060515 1_555
Ba2 O13 2.781896 1_555
Ba2 O12 2.781896 1_545
Ba2 O3 2.879018 1_555
Ba2 O3 2.879018 1_655
Ba2 O2 2.879018 1_645
Ba2 O2 2.879018 1_545
Ba2 O8 2.910941 1_555
Ba2 O8 2.910941 1_655
Ba2 O10 2.924860 1_545
Ba2 O11 2.924860 1_555
Cu0 O6 1.985268 1_555
Cu0 O6 1.985268 1_455
Cu0 O5 1.990777 1_555
Cu0 O4 2.001519 1_565
Cu0 O0 2.155770 1_555
Cu1 O7 1.985268 1_455
Cu1 O7 1.985268 1_555
Cu1 O5 1.990777 1_555
Cu1 O4 2.001519 1_555
Cu1 O1 2.155770 1_555
Cu2 O9 1.960658 1_555
Cu2 O10 1.974850 1_555
Cu2 O10 1.974850 1_455
Cu2 O8 2.012644 1_565
Cu2 O2 2.111125 1_555
Cu3 O9 1.960658 1_555
Cu3 O11 1.974850 1_555
Cu3 O11 1.974850 1_455
Cu3 O8 2.012644 1_555
Cu3 O3 2.111125 1_555
Cu4 O0 1.891016 1_554
Cu4 O2 1.928340 1_555
Cu4 O14 1.950126 1_555
Cu4 O12 1.967435 1_455
Cu4 O12 1.967435 1_555
Cu5 O1 1.891016 1_554
Cu5 O3 1.928340 1_555
Cu5 O14 1.950126 1_555
Cu5 O13 1.967435 1_455
Cu5 O13 1.967435 1_555
O2 Pr2 2.701287 1_555
O2 Pr2 2.701287 1_455
O3 Pr2 2.701287 1_555
O3 Pr2 2.701287 1_455
O4 Pr0 2.493123 1_555
O4 Pr0 2.493123 1_455
O5 Pr1 2.501917 1_455
O5 Pr1 2.501917 1_555
O6 Pr0 2.482186 1_565
O6 Pr1 2.513038 1_555
O7 Pr0 2.482186 1_555
O7 Pr1 2.513038 1_555
O8 Pr0 2.504016 1_555
O8 Pr0 2.504016 1_455
O9 Pr1 2.526551 1_555
O9 Pr1 2.526551 1_455
O9 Pr2 3.103249 1_455
O9 Pr2 3.103249 1_555
O10 Pr1 2.483134 1_555
O10 Pr0 2.546059 1_565
O10 Pr2 3.137583 1_555
O11 Pr1 2.483134 1_555
O11 Pr0 2.546059 1_555
O11 Pr2 3.137583 1_555
O12 Pr2 2.619493 1_555
O13 Pr2 2.619493 1_555
O14 Pr2 2.544511 1_555
O14 Pr2 2.544511 1_455
