# generated using pymatgen
data_Ce4UC10
_symmetry_space_group_name_H-M   'P 1'
_cell_length_a   3.73153400
_cell_length_b   6.23027500
_cell_length_c   9.95741253
_cell_angle_alpha   108.23082958
_cell_angle_beta   100.79960723
_cell_angle_gamma   90.00000000
_symmetry_Int_Tables_number   1
_chemical_formula_structural   Ce4UC10
_chemical_formula_sum   'Ce4 U1 C10'
_cell_volume   215.55356422
_cell_formula_units_Z   1
loop_
 _symmetry_equiv_pos_site_id
 _symmetry_equiv_pos_as_xyz
  1  'x, y, z'
loop_
 _atom_site_type_symbol
 _atom_site_label
 _atom_site_symmetry_multiplicity
 _atom_site_fract_x
 _atom_site_fract_y
 _atom_site_fract_z
 _atom_site_occupancy
  Ce  Ce0  1  0.59640100  0.59640100  0.19280200  1
  Ce  Ce1  1  0.19500100  0.19500100  0.39000200  1
  Ce  Ce2  1  0.80499900  0.80499900  0.60999800  1
  Ce  Ce3  1  0.40359900  0.40359900  0.80719800  1
  U  U0  1  0.00000000  0.00000000  0.00000000  1
  C  C0  1  0.40583400  0.79819100  0.81166800  1
  C  C1  1  0.20063300  0.59637200  0.40126500  1
  C  C2  1  0.00000000  0.39111700  0.00000000  1
  C  C3  1  0.79936700  0.19510700  0.59873400  1
  C  C4  1  0.59416600  0.98652300  0.18833200  1
  C  C5  1  0.79936700  0.40362800  0.59873400  1
  C  C6  1  0.59416600  0.20180900  0.18833200  1
  C  C7  1  0.40583400  0.01347700  0.81166800  1
  C  C8  1  0.20063300  0.80489300  0.40126500  1
  C  C9  1  0.00000000  0.60888300  0.00000000  1
loop_
_geom_bond_atom_site_label_1
_geom_bond_atom_site_label_2
_geom_bond_distance
_geom_bond_site_symmetry_2
C0 C7 1.341291 1_565
C0 Ce3 2.444843 1_555
C0 U0 2.641957 1_566
C0 U0 2.641957 1_666
C0 Ce2 2.725273 1_555
C0 Ce2 2.725273 1_455
C1 C8 1.299143 1_555
C1 Ce1 2.467776 1_555
C1 Ce0 2.763835 1_555
C1 Ce0 2.763838 1_455
C1 Ce2 2.765586 1_555
C1 Ce2 2.765589 1_455
C2 C9 1.356742 1_555
C2 U0 2.436766 1_555
C2 Ce3 2.671481 1_554
C2 Ce0 2.671481 1_455
C2 Ce3 2.671482 1_454
C2 Ce0 2.671482 1_555
C3 C5 1.299143 1_555
C3 Ce2 2.467780 1_545
C3 Ce3 2.763842 1_555
C3 Ce3 2.763842 1_655
C3 Ce1 2.765580 1_655
C3 Ce1 2.765580 1_555
C4 C6 1.341291 1_565
C4 Ce0 2.444843 1_555
C4 U0 2.641957 1_665
C4 U0 2.641957 1_565
C4 Ce1 2.725273 1_565
C4 Ce1 2.725273 1_665
C5 Ce2 2.467774 1_555
C5 Ce3 2.763843 1_555
C5 Ce3 2.763844 1_655
C5 Ce1 2.765582 1_655
C5 Ce1 2.765582 1_555
C6 Ce0 2.444843 1_555
C6 U0 2.641957 1_655
C6 U0 2.641957 1_555
C6 Ce1 2.725273 1_555
C6 Ce1 2.725273 1_655
C7 Ce3 2.444843 1_555
C7 U0 2.641957 1_556
C7 U0 2.641957 1_656
C7 Ce2 2.725273 1_545
C7 Ce2 2.725273 1_445
C8 Ce1 2.467776 1_565
C8 Ce0 2.763835 1_555
C8 Ce0 2.763838 1_455
C8 Ce2 2.765586 1_555
C8 Ce2 2.765589 1_455
C9 U0 2.436766 1_565
C9 Ce0 2.671481 1_455
C9 Ce3 2.671481 1_554
C9 Ce0 2.671482 1_555
C9 Ce3 2.671482 1_454
