# generated using pymatgen
data_BN2Cl
_symmetry_space_group_name_H-M   'P 1'
_cell_length_a   7.27624489
_cell_length_b   7.27624489
_cell_length_c   5.41148100
_cell_angle_alpha   90.00000000
_cell_angle_beta   90.00000000
_cell_angle_gamma   70.52258907
_symmetry_Int_Tables_number   1
_chemical_formula_structural   BN2Cl
_chemical_formula_sum   'B4 N8 Cl4'
_cell_volume   270.10828080
_cell_formula_units_Z   4
loop_
 _symmetry_equiv_pos_site_id
 _symmetry_equiv_pos_as_xyz
  1  'x, y, z'
loop_
 _atom_site_type_symbol
 _atom_site_label
 _atom_site_symmetry_multiplicity
 _atom_site_fract_x
 _atom_site_fract_y
 _atom_site_fract_z
 _atom_site_occupancy
  B  B0  1  0.70734200  0.29265800  0.07381300  1
  B  B1  1  0.29265800  0.70734200  0.92618700  1
  B  B2  1  0.79265800  0.20734200  0.57381300  1
  B  B3  1  0.20734200  0.79265800  0.42618700  1
  N  N0  1  0.72481700  0.27518300  0.33263900  1
  N  N1  1  0.27518300  0.72481700  0.66736100  1
  N  N2  1  0.77518300  0.22481700  0.83263900  1
  N  N3  1  0.22481700  0.77518300  0.16736100  1
  N  N4  1  0.57146500  0.42853500  0.23803500  1
  N  N5  1  0.42853500  0.57146500  0.76196500  1
  N  N6  1  0.92853500  0.07146500  0.73803500  1
  N  N7  1  0.07146500  0.92853500  0.26196500  1
  Cl  Cl0  1  0.81829600  0.81829600  0.50000000  1
  Cl  Cl1  1  0.31829600  0.31829600  0.00000000  1
  Cl  Cl2  1  0.18170400  0.18170400  0.50000000  1
  Cl  Cl3  1  0.68170400  0.68170400  0.00000000  1
loop_
_geom_bond_atom_site_label_1
_geom_bond_atom_site_label_2
_geom_bond_distance
_geom_bond_site_symmetry_2
B0 N0 1.408305 1_555
B0 N2 1.424131 1_554
B0 N4 1.446673 1_555
B1 N1 1.408305 1_555
B1 N3 1.424131 1_556
B1 N5 1.446673 1_555
B2 N2 1.408305 1_555
B2 N0 1.424131 1_555
B2 N6 1.446673 1_555
B3 N3 1.408305 1_555
B3 N1 1.424131 1_555
B3 N7 1.446673 1_555
