# generated using pymatgen
data_MgBi2P2O9
_symmetry_space_group_name_H-M   'P 1'
_cell_length_a   6.59723200
_cell_length_b   7.17957800
_cell_length_c   16.09591200
_cell_angle_alpha   90.00000000
_cell_angle_beta   90.00000000
_cell_angle_gamma   90.00000000
_symmetry_Int_Tables_number   1
_chemical_formula_structural   MgBi2P2O9
_chemical_formula_sum   'Mg4 Bi8 P8 O36'
_cell_volume   762.38837231
_cell_formula_units_Z   4
loop_
 _symmetry_equiv_pos_site_id
 _symmetry_equiv_pos_as_xyz
  1  'x, y, z'
loop_
 _atom_site_type_symbol
 _atom_site_label
 _atom_site_symmetry_multiplicity
 _atom_site_fract_x
 _atom_site_fract_y
 _atom_site_fract_z
 _atom_site_occupancy
  Mg  Mg0  1  0.06171000  0.75000000  0.76325300  1
  Mg  Mg1  1  0.43829000  0.75000000  0.26325300  1
  Mg  Mg2  1  0.56171000  0.25000000  0.73674700  1
  Mg  Mg3  1  0.93829000  0.25000000  0.23674700  1
  Bi  Bi0  1  0.58854400  0.75000000  0.88362600  1
  Bi  Bi1  1  0.41145600  0.25000000  0.11637400  1
  Bi  Bi2  1  0.08854400  0.25000000  0.61637400  1
  Bi  Bi3  1  0.91145600  0.75000000  0.38362600  1
  Bi  Bi4  1  0.00000000  0.00000000  0.00000000  1
  Bi  Bi5  1  0.50000000  0.00000000  0.50000000  1
  Bi  Bi6  1  0.50000000  0.50000000  0.50000000  1
  Bi  Bi7  1  0.00000000  0.50000000  0.00000000  1
  P  P0  1  0.56360300  0.25000000  0.91487700  1
  P  P1  1  0.43639700  0.75000000  0.08512300  1
  P  P2  1  0.06360300  0.75000000  0.58512300  1
  P  P3  1  0.93639700  0.25000000  0.41487700  1
  P  P4  1  0.56008300  0.75000000  0.69640900  1
  P  P5  1  0.93991700  0.75000000  0.19640900  1
  P  P6  1  0.06008300  0.25000000  0.80359100  1
  P  P7  1  0.43991700  0.25000000  0.30359100  1
  O  O0  1  0.43254400  0.43182900  0.35443800  1
  O  O1  1  0.56745600  0.93182900  0.64556200  1
  O  O2  1  0.93254400  0.56817100  0.14556200  1
  O  O3  1  0.06745600  0.06817100  0.85443800  1
  O  O4  1  0.56745600  0.56817100  0.64556200  1
  O  O5  1  0.43254400  0.06817100  0.35443800  1
  O  O6  1  0.06745600  0.43182900  0.85443800  1
  O  O7  1  0.93254400  0.93182900  0.14556200  1
  O  O8  1  0.75459000  0.25000000  0.47974300  1
  O  O9  1  0.24541000  0.75000000  0.52025700  1
  O  O10  1  0.25459000  0.75000000  0.02025700  1
  O  O11  1  0.74541000  0.25000000  0.97974300  1
  O  O12  1  0.91086200  0.75000000  0.91310000  1
  O  O13  1  0.08913800  0.25000000  0.08690000  1
  O  O14  1  0.41086200  0.25000000  0.58690000  1
  O  O15  1  0.58913800  0.75000000  0.41310000  1
  O  O16  1  0.74882800  0.75000000  0.75806600  1
  O  O17  1  0.25117200  0.25000000  0.24193400  1
  O  O18  1  0.24882800  0.25000000  0.74193400  1
  O  O19  1  0.75117200  0.75000000  0.25806600  1
  O  O20  1  0.92225900  0.07987200  0.35596000  1
  O  O21  1  0.07774100  0.57987200  0.64404000  1
  O  O22  1  0.42225900  0.92012800  0.14404000  1
  O  O23  1  0.57774100  0.42012800  0.85596000  1
  O  O24  1  0.07774100  0.92012800  0.64404000  1
  O  O25  1  0.92225900  0.42012800  0.35596000  1
  O  O26  1  0.57774100  0.07987200  0.85596000  1
  O  O27  1  0.42225900  0.57987200  0.14404000  1
  O  O28  1  0.63184500  0.75000000  0.03261600  1
  O  O29  1  0.87313700  0.25000000  0.74309500  1
  O  O30  1  0.62686300  0.25000000  0.24309500  1
  O  O31  1  0.37313700  0.75000000  0.75690500  1
  O  O32  1  0.86815500  0.75000000  0.53261600  1
  O  O33  1  0.13184500  0.25000000  0.46738400  1
  O  O34  1  0.36815500  0.25000000  0.96738400  1
  O  O35  1  0.12686300  0.75000000  0.25690500  1
loop_
_geom_bond_atom_site_label_1
_geom_bond_atom_site_label_2
_geom_bond_distance
_geom_bond_site_symmetry_2
Mg0 O31 2.057095 1_555
Mg0 O16 2.065843 1_455
Mg0 O24 2.277076 1_555
Mg0 O21 2.277076 1_555
Mg0 O12 2.609168 1_455
Mg0 O3 2.715470 1_565
Mg0 O6 2.715470 1_555
Mg1 O35 2.057095 1_555
Mg1 O19 2.065843 1_555
Mg1 O22 2.277076 1_555
Mg1 O27 2.277076 1_555
Mg1 O15 2.609168 1_555
Mg1 O5 2.715470 1_565
Mg1 O0 2.715470 1_555
Mg2 O29 2.057095 1_555
Mg2 O18 2.065843 1_555
Mg2 O26 2.277076 1_555
Mg2 O23 2.277076 1_555
Mg2 O14 2.609168 1_555
Mg2 O4 2.715470 1_555
Mg2 O1 2.715470 1_545
Mg3 O30 2.057095 1_555
Mg3 O17 2.065843 1_655
Mg3 O25 2.277076 1_555
Mg3 O20 2.277076 1_555
Mg3 O13 2.609168 1_655
Mg3 O2 2.715470 1_555
Mg3 O7 2.715470 1_545
Bi0 O12 2.178686 1_555
Bi0 O16 2.280923 1_555
Bi0 O23 2.410897 1_555
Bi0 O26 2.410897 1_565
Bi0 O28 2.415084 1_556
Bi0 O31 2.485927 1_555
Bi1 O13 2.178686 1_555
Bi1 O17 2.280923 1_555
Bi1 O27 2.410897 1_555
Bi1 O22 2.410897 1_545
Bi1 O34 2.415084 1_554
Bi1 O30 2.485927 1_555
Bi2 O14 2.178686 1_555
Bi2 O18 2.280923 1_555
Bi2 O21 2.410897 1_555
Bi2 O24 2.410897 1_545
Bi2 O33 2.415084 1_555
Bi2 O29 2.485927 1_455
Bi3 O15 2.178686 1_555
Bi3 O19 2.280923 1_555
Bi3 O25 2.410897 1_555
Bi3 O20 2.410897 1_565
Bi3 O32 2.415084 1_555
Bi3 O35 2.485927 1_655
Bi4 O12 2.350303 1_444
Bi4 O13 2.350303 1_555
Bi4 O7 2.434548 1_445
Bi4 O3 2.434548 1_554
Bi4 O10 2.479713 1_545
Bi4 O11 2.479713 1_454
Bi5 O15 2.350303 1_545
Bi5 O14 2.350303 1_555
Bi5 O5 2.434548 1_555
Bi5 O1 2.434548 1_545
Bi5 O9 2.479713 1_545
Bi5 O8 2.479713 1_555
Bi6 O15 2.350303 1_555
Bi6 O14 2.350303 1_555
Bi6 O4 2.434548 1_555
Bi6 O0 2.434548 1_555
Bi6 O9 2.479713 1_555
Bi6 O8 2.479713 1_555
Bi7 O12 2.350303 1_454
Bi7 O13 2.350303 1_555
Bi7 O2 2.434548 1_455
Bi7 O6 2.434548 1_554
Bi7 O10 2.479713 1_555
Bi7 O11 2.479713 1_454
O0 P7 1.541560 1_555
O1 P4 1.541560 1_555
O2 P5 1.541560 1_555
O3 P6 1.541560 1_555
O4 P4 1.541560 1_555
O5 P7 1.541560 1_555
O6 P6 1.541560 1_555
O7 P5 1.541560 1_555
O8 P3 1.590193 1_555
O9 P2 1.590193 1_555
O10 P1 1.590193 1_555
O11 P0 1.590193 1_555
O16 P4 1.592300 1_555
O17 P7 1.592300 1_555
O18 P6 1.592300 1_555
O19 P5 1.592300 1_555
O20 P3 1.549177 1_555
O21 P2 1.549177 1_555
O22 P1 1.549177 1_555
O23 P0 1.549177 1_555
O24 P2 1.549177 1_555
O25 P3 1.549177 1_555
O26 P0 1.549177 1_555
O27 P1 1.549177 1_555
O28 P1 1.541710 1_555
O29 P6 1.571388 1_655
O30 P7 1.571388 1_555
O31 P4 1.571388 1_555
O32 P2 1.541710 1_655
O33 P3 1.541710 1_455
O34 P0 1.541710 1_555
O35 P5 1.571388 1_455
