# generated using pymatgen
data_Mg15Cu
_symmetry_space_group_name_H-M   'P 1'
_cell_length_a   6.28754120
_cell_length_b   6.28754120
_cell_length_c   10.00180052
_cell_angle_alpha   90.00000000
_cell_angle_beta   90.00000000
_cell_angle_gamma   119.99999219
_symmetry_Int_Tables_number   1
_chemical_formula_structural   Mg15Cu
_chemical_formula_sum   'Mg15 Cu1'
_cell_volume   342.42900333
_cell_formula_units_Z   1
loop_
 _symmetry_equiv_pos_site_id
 _symmetry_equiv_pos_as_xyz
  1  'x, y, z'
loop_
 _atom_site_type_symbol
 _atom_site_label
 _atom_site_symmetry_multiplicity
 _atom_site_fract_x
 _atom_site_fract_y
 _atom_site_fract_z
 _atom_site_occupancy
  Mg  Mg0  1  0.33333300  0.66666700  0.50000000  1
  Mg  Mg1  1  0.83142158  0.66284215  -0.00000000  1
  Mg  Mg2  1  0.83468894  0.66937887  0.50000000  1
  Mg  Mg3  1  0.83142158  0.16857842  0.00000000  1
  Mg  Mg4  1  0.83468894  0.16531106  0.50000000  1
  Mg  Mg5  1  0.33715785  0.16857842  -0.00000000  1
  Mg  Mg6  1  0.33062113  0.16531106  0.50000000  1
  Mg  Mg7  1  0.65824761  0.82912381  0.24082572  1
  Mg  Mg8  1  0.65824761  0.82912381  0.75917428  1
  Mg  Mg9  1  0.17087619  0.82912381  0.24082572  1
  Mg  Mg10  1  0.17087619  0.82912381  0.75917428  1
  Mg  Mg11  1  0.17087619  0.34175239  0.24082572  1
  Mg  Mg12  1  0.17087619  0.34175239  0.75917428  1
  Mg  Mg13  1  0.66666700  0.33333300  0.25290773  1
  Mg  Mg14  1  0.66666700  0.33333300  0.74709227  1
  Cu  Cu0  1  0.33333300  0.66666700  0.00000000  1
loop_
_geom_bond_atom_site_label_1
_geom_bond_atom_site_label_2
_geom_bond_distance
_geom_bond_site_symmetry_2
Mg0 Mg9 3.138416 1_555
Mg0 Mg10 3.138416 1_555
Mg0 Mg11 3.138419 1_555
Mg0 Mg12 3.138419 1_555
Mg0 Mg7 3.138419 1_555
Mg0 Mg8 3.138419 1_555
Mg0 Mg2 3.143805 1_455
Mg0 Mg6 3.143805 1_565
Mg0 Mg2 3.143805 1_555
Mg0 Mg6 3.143805 1_555
Mg0 Mg4 3.143806 1_455
Mg0 Mg4 3.143806 1_565
Mg1 Mg9 3.036248 1_655
Mg1 Mg10 3.036248 1_654
Mg1 Mg8 3.036251 1_554
Mg1 Mg7 3.036251 1_555
Mg1 Mg14 3.101259 1_554
Mg1 Mg13 3.101259 1_555
Mg1 Mg3 3.107704 1_555
Mg1 Mg5 3.107704 1_555
Mg1 Mg3 3.179838 1_565
Mg1 Mg5 3.179838 1_665
Mg2 Mg4 3.118194 1_565
Mg2 Mg6 3.118194 1_665
Mg2 Mg4 3.169347 1_555
Mg2 Mg6 3.169347 1_555
Mg2 Mg7 3.173857 1_555
Mg2 Mg8 3.173857 1_555
Mg2 Mg9 3.173861 1_655
Mg3 Mg8 3.036248 1_544
Mg3 Mg7 3.036248 1_545
Mg3 Mg5 3.107704 1_555
Mg3 Mg5 3.179838 1_655
Mg4 Mg6 3.118194 1_655
Mg4 Mg6 3.169347 1_555
Mg4 Mg8 3.173860 1_545
Mg4 Mg7 3.173860 1_545
Mg5 Mg9 3.036248 1_545
Mg6 Mg9 3.173861 1_545
Mg10 Mg5 3.036248 1_566
Mg10 Mg14 3.146427 1_455
Mg10 Mg14 3.146427 1_565
Mg10 Mg6 3.173861 1_565
Mg10 Mg2 3.173861 1_455
Mg11 Mg3 3.036248 1_455
Mg11 Mg5 3.036251 1_555
Mg11 Mg13 3.146423 1_455
Mg11 Mg13 3.146429 1_555
Mg11 Mg6 3.173857 1_555
Mg11 Mg4 3.173860 1_455
Mg12 Mg3 3.036248 1_456
Mg12 Mg5 3.036251 1_556
Mg12 Mg14 3.146423 1_455
Mg12 Mg14 3.146429 1_555
Mg12 Mg6 3.173857 1_555
Mg12 Mg4 3.173860 1_455
Mg13 Mg4 3.075042 1_555
Mg13 Mg2 3.075049 1_555
Mg13 Mg6 3.075049 1_555
Mg13 Mg3 3.101259 1_555
Mg13 Mg5 3.101259 1_555
Mg13 Mg7 3.146423 1_545
Mg13 Mg9 3.146427 1_545
Mg13 Mg9 3.146427 1_655
Mg13 Mg7 3.146429 1_555
Mg14 Mg4 3.075042 1_555
Mg14 Mg2 3.075049 1_555
Mg14 Mg6 3.075049 1_555
Mg14 Mg3 3.101259 1_556
Mg14 Mg5 3.101259 1_556
Mg14 Mg8 3.146423 1_545
Mg14 Mg8 3.146429 1_555
Cu0 Mg10 2.988628 1_554
Cu0 Mg9 2.988628 1_555
Cu0 Mg8 2.988631 1_554
Cu0 Mg7 2.988631 1_555
Cu0 Mg12 2.988631 1_554
Cu0 Mg11 2.988631 1_555
Cu0 Mg1 3.143833 1_455
Cu0 Mg5 3.143833 1_565
Cu0 Mg3 3.143840 1_455
Cu0 Mg3 3.143840 1_565
Cu0 Mg5 3.143846 1_555
Cu0 Mg1 3.143846 1_555
