# generated using pymatgen
data_BaSr4Cl10
_symmetry_space_group_name_H-M   'P 1'
_cell_length_a   18.18596121
_cell_length_b   18.18596121
_cell_length_c   18.18596121
_cell_angle_alpha   164.09801406
_cell_angle_beta   164.09801406
_cell_angle_gamma   22.56218844
_symmetry_Int_Tables_number   1
_chemical_formula_structural   BaSr4Cl10
_chemical_formula_sum   'Ba1 Sr4 Cl10'
_cell_volume   451.44375821
_cell_formula_units_Z   1
loop_
 _symmetry_equiv_pos_site_id
 _symmetry_equiv_pos_as_xyz
  1  'x, y, z'
loop_
 _atom_site_type_symbol
 _atom_site_label
 _atom_site_symmetry_multiplicity
 _atom_site_fract_x
 _atom_site_fract_y
 _atom_site_fract_z
 _atom_site_occupancy
  Ba  Ba0  1  0.00000000  0.00000000  0.00000000  1
  Sr  Sr0  1  0.39805400  0.39805400  0.00000000  1
  Sr  Sr1  1  0.79964200  0.79964200  0.00000000  1
  Sr  Sr2  1  0.20035800  0.20035800  0.00000000  1
  Sr  Sr3  1  0.60194600  0.60194600  0.00000000  1
  Cl  Cl0  1  0.55323700  0.05323700  0.50000000  1
  Cl  Cl1  1  0.75000000  0.25000000  0.50000000  1
  Cl  Cl2  1  0.15105100  0.65105100  0.50000000  1
  Cl  Cl3  1  0.94676300  0.44676300  0.50000000  1
  Cl  Cl4  1  0.34894900  0.84894900  0.50000000  1
  Cl  Cl5  1  0.44676300  0.94676300  0.50000000  1
  Cl  Cl6  1  0.65105100  0.15105100  0.50000000  1
  Cl  Cl7  1  0.05323700  0.55323700  0.50000000  1
  Cl  Cl8  1  0.84894900  0.34894900  0.50000000  1
  Cl  Cl9  1  0.25000000  0.75000000  0.50000000  1
loop_
_geom_bond_atom_site_label_1
_geom_bond_atom_site_label_2
_geom_bond_distance
_geom_bond_site_symmetry_2
Ba0 Cl5 3.151841 1_444
Ba0 Cl0 3.151841 1_454
Ba0 Cl7 3.151841 1_544
Ba0 Cl3 3.151841 1_455
Ba0 Cl0 3.151841 1_555
Ba0 Cl3 3.151841 1_444
Ba0 Cl7 3.151841 1_555
Ba0 Cl5 3.151841 1_545
Cl0 Sr3 3.057253 1_556
Cl0 Sr3 3.057253 1_545
Cl1 Sr1 3.076288 1_556
Cl1 Sr2 3.076288 1_656
Cl1 Sr1 3.076288 1_545
Cl1 Sr2 3.076288 1_555
Cl2 Sr3 3.065303 1_455
Cl2 Sr3 3.065303 1_556
Cl2 Sr2 3.069425 1_566
Cl2 Sr2 3.069425 1_555
Cl3 Sr0 3.057253 1_656
Cl3 Sr0 3.057253 1_555
Cl4 Sr0 3.065303 1_555
Cl4 Sr0 3.065303 1_566
Cl4 Sr1 3.069425 1_455
Cl4 Sr1 3.069425 1_556
Cl5 Sr0 3.057253 1_566
Cl5 Sr0 3.057253 1_555
Cl6 Sr3 3.065303 1_545
Cl6 Sr3 3.065303 1_556
Cl6 Sr2 3.069425 1_555
Cl6 Sr2 3.069425 1_656
Cl7 Sr3 3.057253 1_455
Cl7 Sr3 3.057253 1_556
Cl8 Sr0 3.065303 1_555
Cl8 Sr0 3.065303 1_656
Cl8 Sr1 3.069425 1_556
Cl8 Sr1 3.069425 1_545
Cl9 Sr1 3.076288 1_455
Cl9 Sr1 3.076288 1_556
Cl9 Sr2 3.076288 1_566
Cl9 Sr2 3.076288 1_555
