# generated using pymatgen
data_Mo6N2Cl14O
_symmetry_space_group_name_H-M   'P 1'
_cell_length_a   12.65813065
_cell_length_b   12.65813065
_cell_length_c   9.29547305
_cell_angle_alpha   71.62770261
_cell_angle_beta   71.62770261
_cell_angle_gamma   76.78892538
_symmetry_Int_Tables_number   1
_chemical_formula_structural   Mo6N2Cl14O
_chemical_formula_sum   'Mo12 N4 Cl28 O2'
_cell_volume   1327.56091560
_cell_formula_units_Z   2
loop_
 _symmetry_equiv_pos_site_id
 _symmetry_equiv_pos_as_xyz
  1  'x, y, z'
loop_
 _atom_site_type_symbol
 _atom_site_label
 _atom_site_symmetry_multiplicity
 _atom_site_fract_x
 _atom_site_fract_y
 _atom_site_fract_z
 _atom_site_occupancy
  Mo  Mo0  1  0.51862100  0.06942300  0.14511300  1
  Mo  Mo1  1  0.93057700  0.48137900  0.35488700  1
  Mo  Mo2  1  0.48137900  0.93057700  0.85488700  1
  Mo  Mo3  1  0.06942300  0.51862100  0.64511300  1
  Mo  Mo4  1  0.67795900  0.93883200  0.94256600  1
  Mo  Mo5  1  0.06116800  0.32204100  0.55743400  1
  Mo  Mo6  1  0.32204100  0.06116800  0.05743400  1
  Mo  Mo7  1  0.93883200  0.67795900  0.44256600  1
  Mo  Mo8  1  0.46964000  0.84288100  0.18490000  1
  Mo  Mo9  1  0.15711900  0.53036000  0.31510000  1
  Mo  Mo10  1  0.53036000  0.15711900  0.81510000  1
  Mo  Mo11  1  0.84288100  0.46964000  0.68490000  1
  N  N0  1  0.00000000  0.00000000  0.00000000  1
  N  N1  1  0.00000000  0.00000000  0.50000000  1
  N  N2  1  0.82582500  0.17417500  0.25000000  1
  N  N3  1  0.17417500  0.82582500  0.75000000  1
  Cl  Cl0  1  0.34640300  0.98278800  0.33743700  1
  Cl  Cl1  1  0.01721200  0.65359700  0.16256300  1
  Cl  Cl2  1  0.65359700  0.01721200  0.66256300  1
  Cl  Cl3  1  0.98278800  0.34640300  0.83743700  1
  Cl  Cl4  1  0.39332200  0.24360400  0.02825700  1
  Cl  Cl5  1  0.75639600  0.60667800  0.47174300  1
  Cl  Cl6  1  0.60667800  0.75639600  0.97174300  1
  Cl  Cl7  1  0.24360400  0.39332200  0.52825700  1
  Cl  Cl8  1  0.63803400  0.88389300  0.24348100  1
  Cl  Cl9  1  0.11610700  0.36196600  0.25651900  1
  Cl  Cl10  1  0.36196600  0.11610700  0.75651900  1
  Cl  Cl11  1  0.88389300  0.63803400  0.74348100  1
  Cl  Cl12  1  0.69226600  0.13903100  0.93495400  1
  Cl  Cl13  1  0.86096900  0.30773400  0.56504600  1
  Cl  Cl14  1  0.30773400  0.86096900  0.06504600  1
  Cl  Cl15  1  0.13903100  0.69226600  0.43495400  1
  Cl  Cl16  1  0.44093600  0.67162800  0.38464900  1
  Cl  Cl17  1  0.32837200  0.55906400  0.11535100  1
  Cl  Cl18  1  0.55906400  0.32837200  0.61535100  1
  Cl  Cl19  1  0.67162800  0.44093600  0.88464900  1
  Cl  Cl20  1  0.54148200  0.15970000  0.31822700  1
  Cl  Cl21  1  0.84030000  0.45851800  0.18177300  1
  Cl  Cl22  1  0.45851800  0.84030000  0.68177300  1
  Cl  Cl23  1  0.15970000  0.54148200  0.81822700  1
  Cl  Cl24  1  0.87560700  0.87238100  0.87578300  1
  Cl  Cl25  1  0.12761900  0.12439300  0.62421700  1
  Cl  Cl26  1  0.12439300  0.12761900  0.12421700  1
  Cl  Cl27  1  0.87238100  0.87560700  0.37578300  1
  O  O0  1  0.44961800  0.55038200  0.75000000  1
  O  O1  1  0.55038200  0.44961800  0.25000000  1
loop_
_geom_bond_atom_site_label_1
_geom_bond_atom_site_label_2
_geom_bond_distance
_geom_bond_site_symmetry_2
Cl0 Mo8 2.550701 1_555
Cl0 Mo0 2.559486 1_565
Cl0 Mo6 2.567506 1_565
Cl1 Mo9 2.550701 1_555
Cl1 Mo1 2.559486 1_455
Cl1 Mo7 2.567506 1_455
Cl2 Mo10 2.550701 1_555
Cl2 Mo2 2.559486 1_545
Cl2 Mo4 2.567506 1_545
Cl3 Mo11 2.550701 1_555
Cl3 Mo3 2.559486 1_655
Cl3 Mo5 2.567506 1_655
Cl4 Mo10 2.542858 1_554
Cl4 Mo0 2.556280 1_555
Cl4 Mo6 2.573683 1_555
Cl5 Mo11 2.542858 1_555
Cl5 Mo1 2.556280 1_555
Cl5 Mo7 2.573683 1_555
Cl6 Mo8 2.542858 1_556
Cl6 Mo2 2.556280 1_555
Cl6 Mo4 2.573683 1_555
Cl7 Mo9 2.542858 1_555
Cl7 Mo3 2.556280 1_555
Cl7 Mo5 2.573683 1_555
Cl8 Mo8 2.554451 1_555
Cl8 Mo0 2.555619 1_565
Cl8 Mo4 2.570284 1_554
Cl9 Mo9 2.554451 1_555
Cl9 Mo1 2.555619 1_455
Cl9 Mo5 2.570284 1_555
Cl10 Mo10 2.554451 1_555
Cl10 Mo2 2.555619 1_545
Cl10 Mo6 2.570284 1_556
Cl11 Mo11 2.554451 1_555
Cl11 Mo3 2.555619 1_655
Cl11 Mo7 2.570284 1_555
Cl12 Mo0 2.552899 1_556
Cl12 Mo4 2.558975 1_545
Cl12 Mo10 2.560828 1_555
Cl13 Mo1 2.552899 1_555
Cl13 Mo5 2.558975 1_655
Cl13 Mo11 2.560828 1_555
Cl14 Mo2 2.552899 1_554
Cl14 Mo6 2.558975 1_565
Cl14 Mo8 2.560828 1_555
Cl15 Mo3 2.552899 1_555
Cl15 Mo7 2.558975 1_455
Cl15 Mo9 2.560828 1_555
Cl16 Mo8 2.382467 1_555
Cl17 Mo9 2.382467 1_555
Cl18 Mo10 2.382467 1_555
Cl19 Mo11 2.382467 1_555
Cl20 Mo0 2.362819 1_555
Cl21 Mo1 2.362819 1_555
Cl22 Mo2 2.362819 1_555
Cl23 Mo3 2.362819 1_555
Cl24 Mo4 2.395913 1_555
Cl25 Mo5 2.395913 1_555
Cl26 Mo6 2.395913 1_555
Cl27 Mo7 2.395913 1_555
