# generated using pymatgen
data_HfSiNi
_symmetry_space_group_name_H-M   'P 1'
_cell_length_a   3.76647914
_cell_length_b   6.38491665
_cell_length_c   7.17285610
_cell_angle_alpha   90.00000000
_cell_angle_beta   90.00000000
_cell_angle_gamma   90.00000000
_symmetry_Int_Tables_number   1
_chemical_formula_structural   HfSiNi
_chemical_formula_sum   'Hf4 Si4 Ni4'
_cell_volume   172.49754439
_cell_formula_units_Z   4
loop_
 _symmetry_equiv_pos_site_id
 _symmetry_equiv_pos_as_xyz
  1  'x, y, z'
loop_
 _atom_site_type_symbol
 _atom_site_label
 _atom_site_symmetry_multiplicity
 _atom_site_fract_x
 _atom_site_fract_y
 _atom_site_fract_z
 _atom_site_occupancy
  Hf  Hf0  1  0.25000000  0.01694205  0.31472356  1
  Hf  Hf1  1  0.25000000  0.51694205  0.18527644  1
  Hf  Hf2  1  0.75000000  0.98305795  0.68527644  1
  Hf  Hf3  1  0.75000000  0.48305795  0.81472356  1
  Si  Si0  1  0.25000000  0.27218685  0.61484950  1
  Si  Si1  1  0.25000000  0.77218685  0.88515050  1
  Si  Si2  1  0.75000000  0.72781315  0.38515050  1
  Si  Si3  1  0.75000000  0.22781315  0.11484950  1
  Ni  Ni0  1  0.25000000  0.13998433  0.93857327  1
  Ni  Ni1  1  0.25000000  0.63998433  0.56142673  1
  Ni  Ni2  1  0.75000000  0.86001567  0.06142673  1
  Ni  Ni3  1  0.75000000  0.36001567  0.43857327  1
loop_
_geom_bond_atom_site_label_1
_geom_bond_atom_site_label_2
_geom_bond_distance
_geom_bond_site_symmetry_2
Hf0 Si2 2.685094 1_445
Hf0 Si2 2.685094 1_545
Hf0 Si0 2.700065 1_555
Hf0 Si3 2.723008 1_555
Hf0 Si3 2.723008 1_455
Hf0 Ni2 2.802054 1_445
Hf0 Ni2 2.802054 1_545
Hf0 Ni0 2.810121 1_554
Hf0 Ni1 2.987350 1_545
Hf0 Ni3 3.022258 1_555
Hf0 Ni3 3.022258 1_455
Hf1 Si3 2.685094 1_455
Hf1 Si3 2.685094 1_555
Hf1 Si1 2.700065 1_554
Hf1 Si2 2.723008 1_455
Hf1 Si2 2.723008 1_555
Hf1 Ni3 2.802054 1_555
Hf1 Ni3 2.802054 1_455
Hf1 Ni1 2.810121 1_555
Hf1 Ni0 2.987350 1_554
Hf1 Ni2 3.022258 1_555
Hf1 Ni2 3.022258 1_455
Hf2 Si0 2.685094 1_565
Hf2 Si0 2.685094 1_665
Hf2 Si2 2.700065 1_555
Hf2 Si1 2.723008 1_655
Hf2 Si1 2.723008 1_555
Hf2 Ni0 2.802054 1_665
Hf2 Ni0 2.802054 1_565
Hf2 Ni2 2.810121 1_556
Hf2 Ni3 2.987350 1_565
Hf2 Ni1 3.022258 1_655
Hf2 Ni1 3.022258 1_555
Hf3 Si1 2.685094 1_655
Hf3 Si1 2.685094 1_555
Hf3 Si3 2.700065 1_556
Hf3 Si0 2.723008 1_655
Hf3 Si0 2.723008 1_555
Hf3 Ni1 2.802054 1_555
Hf3 Ni1 2.802054 1_655
Hf3 Ni3 2.810121 1_555
Hf3 Ni2 2.987350 1_556
Hf3 Ni0 3.022258 1_555
Hf3 Ni0 3.022258 1_655
Ni0 Si3 2.336618 1_556
Ni0 Si3 2.336618 1_456
Ni0 Si1 2.379415 1_545
Ni0 Si0 2.470689 1_555
Ni0 Ni2 2.741998 1_546
Ni0 Ni2 2.741998 1_446
Ni1 Si2 2.336618 1_455
Ni1 Si2 2.336618 1_555
Ni1 Si0 2.379415 1_555
Ni1 Si1 2.470689 1_555
Ni1 Ni3 2.741998 1_455
Ni1 Ni3 2.741998 1_555
Ni2 Si1 2.336618 1_654
Ni2 Si1 2.336618 1_554
Ni2 Si3 2.379415 1_565
Ni2 Si2 2.470689 1_555
Ni3 Si0 2.336618 1_555
Ni3 Si0 2.336618 1_655
Ni3 Si2 2.379415 1_555
Ni3 Si3 2.470689 1_555
