# generated using pymatgen
data_Ce2Si9Ni17
_symmetry_space_group_name_H-M   'P 1'
_cell_length_a   8.02086343
_cell_length_b   7.87435202
_cell_length_c   7.81843086
_cell_angle_alpha   61.47542905
_cell_angle_beta   59.60563329
_cell_angle_gamma   58.91893766
_symmetry_Int_Tables_number   1
_chemical_formula_structural   Ce2Si9Ni17
_chemical_formula_sum   'Ce2 Si9 Ni17'
_cell_volume   348.79634200
_cell_formula_units_Z   1
loop_
 _symmetry_equiv_pos_site_id
 _symmetry_equiv_pos_as_xyz
  1  'x, y, z'
loop_
 _atom_site_type_symbol
 _atom_site_label
 _atom_site_symmetry_multiplicity
 _atom_site_fract_x
 _atom_site_fract_y
 _atom_site_fract_z
 _atom_site_occupancy
  Ce  Ce0  1  0.25000000  0.25000000  0.25000000  1
  Ce  Ce1  1  0.75000000  0.75000000  0.75000000  1
  Si  Si0  1  0.69790000  0.05912400  0.94087600  1
  Si  Si1  1  0.05912400  0.69790000  0.30210000  1
  Si  Si2  1  0.20987700  0.55641500  0.79012300  1
  Si  Si3  1  0.55641500  0.20987700  0.44358500  1
  Si  Si4  1  0.30210000  0.94087600  0.05912400  1
  Si  Si5  1  0.94087600  0.30210000  0.69790000  1
  Si  Si6  1  0.79012300  0.44358500  0.20987700  1
  Si  Si7  1  0.44358500  0.79012300  0.55641500  1
  Si  Si8  1  0.00000000  0.00000000  0.00000000  1
  Ni  Ni0  1  0.71419900  0.28580100  0.05958800  1
  Ni  Ni1  1  0.28580100  0.71419900  0.94041200  1
  Ni  Ni2  1  0.20362200  0.79637800  0.43485600  1
  Ni  Ni3  1  0.79637800  0.20362200  0.56514400  1
  Ni  Ni4  1  0.43485600  0.56514400  0.20362200  1
  Ni  Ni5  1  0.56514400  0.43485600  0.79637800  1
  Ni  Ni6  1  0.05958800  0.94041200  0.71419900  1
  Ni  Ni7  1  0.94041200  0.05958800  0.28580100  1
  Ni  Ni8  1  0.44166600  0.18811600  0.81188400  1
  Ni  Ni9  1  0.18811600  0.44166600  0.55833400  1
  Ni  Ni10  1  0.94178300  0.68792200  0.05821700  1
  Ni  Ni11  1  0.68792200  0.94178300  0.31207800  1
  Ni  Ni12  1  0.55833400  0.81188400  0.18811600  1
  Ni  Ni13  1  0.81188400  0.55833400  0.44166600  1
  Ni  Ni14  1  0.05821700  0.31207800  0.94178300  1
  Ni  Ni15  1  0.31207800  0.05821700  0.68792200  1
  Ni  Ni16  1  0.50000000  0.50000000  0.50000000  1
loop_
_geom_bond_atom_site_label_1
_geom_bond_atom_site_label_2
_geom_bond_distance
_geom_bond_site_symmetry_2
Ce0 Ni8 3.134673 1_554
Ce0 Ni12 3.134673 1_545
Ce0 Ni13 3.134673 1_455
Ce0 Ni9 3.134673 1_555
Ce0 Si0 3.180396 1_554
Ce0 Si1 3.180396 1_555
Ce0 Si5 3.180396 1_455
Ce0 Si4 3.180396 1_545
Ce0 Ni14 3.203401 1_554
Ce0 Ni10 3.203401 1_455
Ce0 Ni11 3.203401 1_545
Ce0 Ni15 3.203401 1_555
Ce0 Ni5 3.299028 1_554
Ce0 Ni3 3.299028 1_455
Ce0 Ni4 3.299028 1_555
Ce0 Ni2 3.299028 1_545
Ce0 Si7 3.307052 1_545
Ce0 Si3 3.307052 1_555
Ce0 Si2 3.307052 1_554
Ce0 Si6 3.307052 1_455
Ce0 Ni7 3.351506 1_455
Ce0 Ni1 3.351506 1_554
Ce0 Ni6 3.351506 1_545
Ce0 Ni0 3.351506 1_555
Ce1 Ni13 3.134673 1_555
Ce1 Ni8 3.134673 1_565
Ce1 Ni12 3.134673 1_556
Ce1 Ni9 3.134673 1_655
Ce1 Si0 3.180396 1_565
Ce1 Si4 3.180396 1_556
Ce1 Si5 3.180396 1_555
Ce1 Si1 3.180396 1_655
Ce1 Ni11 3.203401 1_555
Ce1 Ni14 3.203401 1_655
Ce1 Ni15 3.203401 1_565
Ce1 Ni10 3.203401 1_556
Ce1 Ni3 3.299028 1_565
Ce1 Ni5 3.299028 1_555
Ce1 Ni4 3.299028 1_556
Ce1 Ni2 3.299028 1_655
Ce1 Si7 3.307052 1_555
Ce1 Si3 3.307052 1_565
Ce1 Si2 3.307052 1_655
Ce1 Si6 3.307052 1_556
Ce1 Ni0 3.351506 1_556
Ce1 Ni1 3.351506 1_555
Ce1 Ni7 3.351506 1_565
Ce1 Ni6 3.351506 1_655
Si0 Si8 2.462716 1_656
Si1 Si8 2.462716 1_565
Si2 Si7 2.669019 1_555
Si3 Si6 2.669019 1_555
Si4 Si8 2.462716 1_565
Si5 Si8 2.462716 1_656
Ni0 Si8 2.265124 1_655
Ni0 Ni5 2.403277 1_554
Ni0 Ni4 2.418823 1_555
Ni0 Si0 2.451628 1_554
Ni0 Si5 2.451628 1_554
Ni0 Si6 2.488937 1_555
Ni0 Si3 2.488937 1_555
Ni0 Ni14 2.518089 1_654
Ni0 Ni11 2.518089 1_545
Ni0 Ni7 2.548422 1_555
Ni1 Si8 2.265124 1_566
Ni1 Ni4 2.403277 1_556
Ni1 Ni5 2.418823 1_555
Ni1 Si4 2.451628 1_556
Ni1 Si1 2.451628 1_556
Ni1 Si7 2.488937 1_555
Ni1 Si2 2.488937 1_555
Ni1 Ni15 2.518089 1_565
Ni1 Ni10 2.518089 1_456
Ni1 Ni6 2.548422 1_555
Ni2 Ni7 2.403277 1_465
Ni2 Ni6 2.418823 1_555
Ni2 Si4 2.436367 1_555
Ni2 Si1 2.436367 1_555
Ni2 Ni4 2.507563 1_555
Ni2 Si7 2.513686 1_555
Ni2 Si2 2.513686 1_555
Ni2 Ni9 2.531969 1_555
Ni3 Ni6 2.403277 1_645
Ni3 Ni7 2.418823 1_555
Ni3 Si5 2.436367 1_555
Ni3 Si0 2.436367 1_555
Ni3 Ni5 2.507563 1_555
Ni3 Si3 2.513686 1_555
Ni3 Si6 2.513686 1_555
Ni3 Ni8 2.531969 1_555
Ni4 Si1 2.436367 1_555
Ni4 Si4 2.436367 1_555
Ni4 Si6 2.513686 1_555
Ni4 Si3 2.513686 1_555
Ni4 Ni9 2.531969 1_555
Ni5 Si0 2.436367 1_555
Ni5 Si5 2.436367 1_555
Ni5 Si2 2.513686 1_555
Ni5 Si7 2.513686 1_555
Ni5 Ni8 2.531969 1_555
Ni6 Si8 2.265124 1_566
Ni6 Si5 2.451628 1_465
Ni6 Si0 2.451628 1_465
Ni6 Si2 2.488937 1_555
Ni6 Si7 2.488937 1_555
Ni7 Si8 2.265124 1_655
Ni7 Si4 2.451628 1_645
Ni7 Si1 2.451628 1_645
Ni7 Si6 2.488937 1_555
Ni7 Si3 2.488937 1_555
Ni8 Si0 2.288310 1_555
Ni8 Si4 2.290482 1_546
Ni8 Si2 2.485537 1_555
Ni8 Si3 2.485537 1_555
Ni9 Si1 2.288310 1_555
Ni9 Si5 2.290482 1_455
Ni9 Si2 2.485537 1_555
Ni9 Si3 2.485537 1_555
Ni10 Si2 2.302789 1_654
Ni10 Si6 2.316369 1_555
Ni10 Ni13 2.475858 1_555
Ni10 Ni12 2.475858 1_555
Ni10 Ni6 2.518089 1_654
Ni10 Si8 2.523001 1_665
Ni10 Si1 2.561877 1_655
Ni10 Si0 2.561877 1_564
Ni11 Si3 2.302789 1_565
Ni11 Si7 2.316369 1_555
Ni11 Ni12 2.475858 1_555
Ni11 Ni13 2.475858 1_555
Ni11 Ni7 2.518089 1_565
Ni11 Si8 2.523001 1_665
Ni11 Si1 2.561877 1_655
Ni11 Si0 2.561877 1_564
Ni12 Si4 2.288310 1_555
Ni12 Si0 2.290482 1_564
Ni12 Si7 2.485537 1_555
Ni12 Si6 2.485537 1_555
Ni12 Ni2 2.531969 1_555
Ni12 Ni4 2.531969 1_555
Ni12 Ni16 2.551225 1_555
Ni13 Si5 2.288310 1_555
Ni13 Si1 2.290482 1_655
Ni13 Si6 2.485537 1_555
Ni13 Si7 2.485537 1_555
Ni13 Ni3 2.531969 1_555
Ni13 Ni5 2.531969 1_555
Ni13 Ni16 2.551225 1_555
Ni14 Si6 2.302789 1_456
Ni14 Si2 2.316369 1_555
Ni14 Ni8 2.475858 1_555
Ni14 Ni9 2.475858 1_555
Ni14 Ni7 2.518089 1_456
Ni14 Si8 2.523001 1_556
Ni14 Si4 2.561877 1_546
Ni14 Si5 2.561877 1_455
Ni15 Si7 2.302789 1_545
Ni15 Si3 2.316369 1_555
Ni15 Ni8 2.475858 1_555
Ni15 Ni9 2.475858 1_555
Ni15 Ni6 2.518089 1_545
Ni15 Si8 2.523001 1_556
Ni15 Si4 2.561877 1_546
Ni15 Si5 2.561877 1_455
Ni16 Si6 2.304661 1_555
Ni16 Si3 2.304661 1_555
Ni16 Si7 2.304661 1_555
Ni16 Si2 2.304661 1_555
Ni16 Ni3 2.391402 1_555
Ni16 Ni4 2.391402 1_555
Ni16 Ni5 2.391402 1_555
Ni16 Ni2 2.391402 1_555
Ni16 Ni9 2.551225 1_555
Ni16 Ni8 2.551225 1_555
