# generated using pymatgen
data_TbTe2
_symmetry_space_group_name_H-M   'P 1'
_cell_length_a   4.44730960
_cell_length_b   4.44730960
_cell_length_c   8.92064022
_cell_angle_alpha   90.00000000
_cell_angle_beta   90.00000000
_cell_angle_gamma   90.00000000
_symmetry_Int_Tables_number   1
_chemical_formula_structural   TbTe2
_chemical_formula_sum   'Tb2 Te4'
_cell_volume   176.43744172
_cell_formula_units_Z   2
loop_
 _symmetry_equiv_pos_site_id
 _symmetry_equiv_pos_as_xyz
  1  'x, y, z'
loop_
 _atom_site_type_symbol
 _atom_site_label
 _atom_site_symmetry_multiplicity
 _atom_site_fract_x
 _atom_site_fract_y
 _atom_site_fract_z
 _atom_site_occupancy
  Tb  Tb0  1  0.75000000  0.75000000  0.72905239  1
  Tb  Tb1  1  0.25000000  0.25000000  0.27094761  1
  Te  Te0  1  0.75000000  0.25000000  -0.00000000  1
  Te  Te1  1  0.25000000  0.75000000  -0.00000000  1
  Te  Te2  1  0.75000000  0.75000000  0.37171246  1
  Te  Te3  1  0.25000000  0.25000000  0.62828754  1
loop_
_geom_bond_atom_site_label_1
_geom_bond_atom_site_label_2
_geom_bond_distance
_geom_bond_site_symmetry_2
Tb0 Te2 3.187701 1_555
Tb0 Te3 3.270670 1_555
Tb0 Te3 3.270670 1_565
Tb0 Te3 3.270670 1_655
Tb0 Te3 3.270670 1_665
Tb0 Te1 3.284305 1_656
Tb0 Te0 3.284305 1_556
Tb0 Te1 3.284305 1_556
Tb0 Te0 3.284305 1_566
Tb1 Te3 3.187701 1_555
Tb1 Te2 3.270670 1_545
Tb1 Te2 3.270670 1_445
Tb1 Te2 3.270670 1_455
Tb1 Te2 3.270670 1_555
Tb1 Te0 3.284305 1_455
Tb1 Te0 3.284305 1_555
Tb1 Te1 3.284305 1_545
Tb1 Te1 3.284305 1_555
Te0 Te1 3.144723 1_555
Te0 Te1 3.144723 1_655
Te0 Te1 3.144723 1_645
Te0 Te1 3.144723 1_545
