# generated using pymatgen
data_Li2Mn2(PO4)3
_symmetry_space_group_name_H-M   'P 1'
_cell_length_a   8.53309600
_cell_length_b   8.87209400
_cell_length_c   11.98658400
_cell_angle_alpha   90.00000000
_cell_angle_beta   90.00000000
_cell_angle_gamma   90.00000000
_symmetry_Int_Tables_number   1
_chemical_formula_structural   Li2Mn2(PO4)3
_chemical_formula_sum   'Li8 Mn8 P12 O48'
_cell_volume   907.46148041
_cell_formula_units_Z   4
loop_
 _symmetry_equiv_pos_site_id
 _symmetry_equiv_pos_as_xyz
  1  'x, y, z'
loop_
 _atom_site_type_symbol
 _atom_site_label
 _atom_site_symmetry_multiplicity
 _atom_site_fract_x
 _atom_site_fract_y
 _atom_site_fract_z
 _atom_site_occupancy
  Li  Li0  1  0.21750000  0.72215300  0.18122500  1
  Li  Li1  1  0.21750000  0.77784700  0.81877500  1
  Li  Li2  1  0.28250000  0.22215300  0.31877500  1
  Li  Li3  1  0.28250000  0.27784700  0.68122500  1
  Li  Li4  1  0.71750000  0.72215300  0.31877500  1
  Li  Li5  1  0.71750000  0.77784700  0.68122500  1
  Li  Li6  1  0.78250000  0.22215300  0.18122500  1
  Li  Li7  1  0.78250000  0.27784700  0.81877500  1
  Mn  Mn0  1  0.24952000  0.96361800  0.61391100  1
  Mn  Mn1  1  0.24952000  0.53638200  0.38608900  1
  Mn  Mn2  1  0.25048000  0.03638200  0.11391100  1
  Mn  Mn3  1  0.25048000  0.46361800  0.88608900  1
  Mn  Mn4  1  0.74952000  0.53638200  0.11391100  1
  Mn  Mn5  1  0.74952000  0.96361800  0.88608900  1
  Mn  Mn6  1  0.75048000  0.03638200  0.38608900  1
  Mn  Mn7  1  0.75048000  0.46361800  0.61391100  1
  P  P0  1  0.03329100  0.25000000  0.50000000  1
  P  P1  1  0.46670900  0.75000000  0.00000000  1
  P  P2  1  0.53329100  0.25000000  0.00000000  1
  P  P3  1  0.96670900  0.75000000  0.50000000  1
  P  P4  1  0.10454500  0.39596400  0.14747600  1
  P  P5  1  0.10454500  0.10403600  0.85252400  1
  P  P6  1  0.39545500  0.60403600  0.64747600  1
  P  P7  1  0.39545500  0.89596400  0.35252400  1
  P  P8  1  0.60454500  0.10403600  0.64747600  1
  P  P9  1  0.60454500  0.39596400  0.35252400  1
  P  P10  1  0.89545500  0.60403600  0.85252400  1
  P  P11  1  0.89545500  0.89596400  0.14747600  1
  O  O0  1  0.06071900  0.64157600  0.42552700  1
  O  O1  1  0.06071900  0.85842400  0.57447300  1
  O  O2  1  0.07758700  0.89778100  0.15738200  1
  O  O3  1  0.07758700  0.60221900  0.84261800  1
  O  O4  1  0.13994900  0.16511100  0.58361800  1
  O  O5  1  0.13994900  0.33488900  0.41638200  1
  O  O6  1  0.15472900  0.43841600  0.02896300  1
  O  O7  1  0.15472900  0.06158400  0.97103700  1
  O  O8  1  0.15651100  0.23602200  0.18175200  1
  O  O9  1  0.15651100  0.26397800  0.81824800  1
  O  O10  1  0.17688500  0.51760700  0.22609000  1
  O  O11  1  0.17688500  0.98239300  0.77391000  1
  O  O12  1  0.32311500  0.01760700  0.27391000  1
  O  O13  1  0.32311500  0.48239300  0.72609000  1
  O  O14  1  0.34348900  0.76397800  0.68175200  1
  O  O15  1  0.34348900  0.73602200  0.31824800  1
  O  O16  1  0.34527100  0.56158400  0.52896300  1
  O  O17  1  0.34527100  0.93841600  0.47103700  1
  O  O18  1  0.36005100  0.83488900  0.08361800  1
  O  O19  1  0.36005100  0.66511100  0.91638200  1
  O  O20  1  0.42241300  0.10221900  0.65738200  1
  O  O21  1  0.42241300  0.39778100  0.34261800  1
  O  O22  1  0.43928100  0.14157600  0.07447300  1
  O  O23  1  0.43928100  0.35842400  0.92552700  1
  O  O24  1  0.56071900  0.64157600  0.07447300  1
  O  O25  1  0.56071900  0.85842400  0.92552700  1
  O  O26  1  0.57758700  0.60221900  0.65738200  1
  O  O27  1  0.57758700  0.89778100  0.34261800  1
  O  O28  1  0.63994900  0.33488900  0.08361800  1
  O  O29  1  0.63994900  0.16511100  0.91638200  1
  O  O30  1  0.65472900  0.06158400  0.52896300  1
  O  O31  1  0.65472900  0.43841600  0.47103700  1
  O  O32  1  0.65651100  0.23602200  0.31824800  1
  O  O33  1  0.65651100  0.26397800  0.68175200  1
  O  O34  1  0.67688500  0.51760700  0.27391000  1
  O  O35  1  0.67688500  0.98239300  0.72609000  1
  O  O36  1  0.82311500  0.01760700  0.22609000  1
  O  O37  1  0.82311500  0.48239300  0.77391000  1
  O  O38  1  0.84348900  0.73602200  0.18175200  1
  O  O39  1  0.84348900  0.76397800  0.81824800  1
  O  O40  1  0.84527100  0.56158400  0.97103700  1
  O  O41  1  0.84527100  0.93841600  0.02896300  1
  O  O42  1  0.86005100  0.66511100  0.58361800  1
  O  O43  1  0.86005100  0.83488900  0.41638200  1
  O  O44  1  0.92241300  0.10221900  0.84261800  1
  O  O45  1  0.92241300  0.39778100  0.15738200  1
  O  O46  1  0.93928100  0.14157600  0.42552700  1
  O  O47  1  0.93928100  0.35842400  0.57447300  1
loop_
_geom_bond_atom_site_label_1
_geom_bond_atom_site_label_2
_geom_bond_distance
_geom_bond_site_symmetry_2
Li0 O10 1.924224 1_555
Li0 O18 1.961857 1_555
Li0 O15 1.966858 1_555
Li0 O2 1.983685 1_555
Li1 O11 1.924224 1_555
Li1 O19 1.961857 1_555
Li1 O14 1.966858 1_555
Li1 O3 1.983685 1_555
Li2 O12 1.924224 1_555
Li2 O5 1.961857 1_555
Li2 O8 1.966858 1_555
Li2 O21 1.983685 1_555
Li3 O13 1.924224 1_555
Li3 O4 1.961857 1_555
Li3 O9 1.966858 1_555
Li3 O20 1.983685 1_555
Li4 O34 1.924224 1_555
Li4 O43 1.961857 1_555
Li4 O38 1.966858 1_555
Li4 O27 1.983685 1_555
Li5 O35 1.924224 1_555
Li5 O42 1.961857 1_555
Li5 O39 1.966858 1_555
Li5 O26 1.983685 1_555
Li6 O36 1.924224 1_555
Li6 O28 1.961857 1_555
Li6 O32 1.966858 1_555
Li6 O45 1.983685 1_555
Li7 O37 1.924224 1_555
Li7 O29 1.961857 1_555
Li7 O33 1.966858 1_555
Li7 O44 1.983685 1_555
Mn0 O17 1.910620 1_555
Mn0 O1 1.920939 1_555
Mn0 O20 1.990019 1_565
Mn0 O11 2.022379 1_555
Mn0 O4 2.049825 1_565
Mn0 O14 2.107477 1_555
Mn1 O16 1.910620 1_555
Mn1 O0 1.920939 1_555
Mn1 O21 1.990019 1_555
Mn1 O10 2.022379 1_555
Mn1 O5 2.049825 1_555
Mn1 O15 2.107477 1_555
Mn2 O7 1.910620 1_554
Mn2 O22 1.920939 1_555
Mn2 O2 1.990019 1_545
Mn2 O12 2.022379 1_555
Mn2 O18 2.049825 1_545
Mn2 O8 2.107477 1_555
Mn3 O6 1.910620 1_556
Mn3 O23 1.920939 1_555
Mn3 O3 1.990019 1_555
Mn3 O13 2.022379 1_555
Mn3 O19 2.049825 1_555
Mn3 O9 2.107477 1_555
Mn4 O40 1.910620 1_554
Mn4 O24 1.920939 1_555
Mn4 O45 1.990019 1_555
Mn4 O34 2.022379 1_555
Mn4 O28 2.049825 1_555
Mn4 O38 2.107477 1_555
Mn5 O41 1.910620 1_556
Mn5 O25 1.920939 1_555
Mn5 O44 1.990019 1_565
Mn5 O35 2.022379 1_555
Mn5 O29 2.049825 1_565
Mn5 O39 2.107477 1_555
Mn6 O30 1.910620 1_555
Mn6 O46 1.920939 1_555
Mn6 O27 1.990019 1_545
Mn6 O36 2.022379 1_555
Mn6 O43 2.049825 1_545
Mn6 O32 2.107477 1_555
Mn7 O31 1.910620 1_555
Mn7 O47 1.920939 1_555
Mn7 O26 1.990019 1_555
Mn7 O37 2.022379 1_555
Mn7 O42 2.049825 1_555
Mn7 O33 2.107477 1_555
O0 P3 1.538095 1_455
O1 P3 1.538095 1_455
O2 P11 1.558763 1_455
O3 P10 1.558763 1_455
O4 P0 1.549239 1_555
O5 P0 1.549239 1_555
O6 P4 1.530765 1_555
O7 P5 1.530765 1_555
O8 P4 1.542417 1_555
O9 P5 1.542417 1_555
O10 P4 1.560041 1_555
O11 P5 1.560041 1_565
O12 P7 1.560041 1_545
O13 P6 1.560041 1_555
O14 P6 1.542417 1_555
O15 P7 1.542417 1_555
O16 P6 1.530765 1_555
O17 P7 1.530765 1_555
O18 P1 1.549239 1_555
O19 P1 1.549239 1_556
O20 P8 1.558763 1_555
O21 P9 1.558763 1_555
O22 P2 1.538095 1_555
O23 P2 1.538095 1_556
O24 P1 1.538095 1_555
O25 P1 1.538095 1_556
O26 P6 1.558763 1_555
O27 P7 1.558763 1_555
O28 P2 1.549239 1_555
O29 P2 1.549239 1_556
O30 P8 1.530765 1_555
O31 P9 1.530765 1_555
O32 P9 1.542417 1_555
O33 P8 1.542417 1_555
O34 P9 1.560041 1_555
O35 P8 1.560041 1_565
O36 P11 1.560041 1_545
O37 P10 1.560041 1_555
O38 P11 1.542417 1_555
O39 P10 1.542417 1_555
O40 P10 1.530765 1_555
O41 P11 1.530765 1_555
O42 P3 1.549239 1_555
O43 P3 1.549239 1_555
O44 P5 1.558763 1_655
O45 P4 1.558763 1_655
O46 P0 1.538095 1_655
O47 P0 1.538095 1_655
