# generated using pymatgen
data_Cs2NaCr(CN)6
_symmetry_space_group_name_H-M   'P 1'
_cell_length_a   8.02868100
_cell_length_b   7.69762500
_cell_length_c   13.50810264
_cell_angle_alpha   55.38538797
_cell_angle_beta   90.00000000
_cell_angle_gamma   90.00000000
_symmetry_Int_Tables_number   1
_chemical_formula_structural   Cs2NaCr(CN)6
_chemical_formula_sum   'Cs4 Na2 Cr2 C12 N12'
_cell_volume   687.05367645
_cell_formula_units_Z   2
loop_
 _symmetry_equiv_pos_site_id
 _symmetry_equiv_pos_as_xyz
  1  'x, y, z'
loop_
 _atom_site_type_symbol
 _atom_site_label
 _atom_site_symmetry_multiplicity
 _atom_site_fract_x
 _atom_site_fract_y
 _atom_site_fract_z
 _atom_site_occupancy
  Cs  Cs0  1  0.55547200  0.73646500  0.24965700  1
  Cs  Cs1  1  0.05547200  0.26353500  0.25034300  1
  Cs  Cs2  1  0.44452800  0.26353500  0.75034300  1
  Cs  Cs3  1  0.94452800  0.73646500  0.74965700  1
  Na  Na0  1  0.00000000  0.50000000  0.50000000  1
  Na  Na1  1  0.50000000  0.50000000  0.00000000  1
  Cr  Cr0  1  0.00000000  0.00000000  0.00000000  1
  Cr  Cr1  1  0.50000000  0.00000000  0.50000000  1
  C  C0  1  0.14407300  0.24087700  0.97486300  1
  C  C1  1  0.35592700  0.24087700  0.47486300  1
  C  C2  1  0.85592700  0.75912300  0.02513700  1
  C  C3  1  0.64407300  0.75912300  0.52513700  1
  C  C4  1  0.28987500  0.82682000  0.52965600  1
  C  C5  1  0.78987500  0.17318000  0.97034400  1
  C  C6  1  0.71012500  0.17318000  0.47034400  1
  C  C7  1  0.21012500  0.82682000  0.02965600  1
  C  C8  1  0.01258800  0.12581400  0.82044600  1
  C  C9  1  0.51258800  0.87418600  0.67955400  1
  C  C10  1  0.98741200  0.87418600  0.17955400  1
  C  C11  1  0.48741200  0.12581400  0.32044600  1
  N  N0  1  0.02204300  0.19900300  0.71692600  1
  N  N1  1  0.52204300  0.80099700  0.78307400  1
  N  N2  1  0.97795700  0.80099700  0.28307400  1
  N  N3  1  0.47795700  0.19900300  0.21692600  1
  N  N4  1  0.16936300  0.72586000  0.54765400  1
  N  N5  1  0.33063700  0.72586000  0.04765400  1
  N  N6  1  0.83063700  0.27414000  0.45234600  1
  N  N7  1  0.66936300  0.27414000  0.95234600  1
  N  N8  1  0.22851500  0.37865900  0.96014400  1
  N  N9  1  0.72851500  0.62134100  0.53985600  1
  N  N10  1  0.77148500  0.62134100  0.03985600  1
  N  N11  1  0.27148500  0.37865900  0.46014400  1
loop_
_geom_bond_atom_site_label_1
_geom_bond_atom_site_label_2
_geom_bond_distance
_geom_bond_site_symmetry_2
Cs0 N5 3.311178 1_555
Cs0 N3 3.386902 1_565
Cs0 N11 3.460023 1_555
Cs0 N2 3.494411 1_555
Cs1 N6 3.311178 1_455
Cs1 N2 3.386902 1_445
Cs1 N10 3.460023 1_455
Cs1 N3 3.494411 1_555
Cs2 N7 3.311178 1_555
Cs2 N1 3.386902 1_545
Cs2 N9 3.460023 1_555
Cs2 N0 3.494411 1_555
Cs3 N4 3.311178 1_655
Cs3 N0 3.386902 1_665
Cs3 N8 3.460023 1_655
Cs3 N1 3.494411 1_555
C0 N8 1.176624 1_555
C0 Cr0 2.043524 1_556
C1 N11 1.176624 1_555
C1 Cr1 2.043524 1_555
C2 N10 1.176624 1_555
C2 Cr0 2.043524 1_665
C3 N9 1.176624 1_555
C3 Cr1 2.043524 1_565
C4 N4 1.176679 1_555
C4 Cr1 2.043750 1_565
C5 N7 1.176679 1_555
C5 Cr0 2.043750 1_656
C6 N6 1.176679 1_555
C6 Cr1 2.043750 1_555
C7 N5 1.176679 1_555
C7 Cr0 2.043750 1_565
C8 N0 1.176237 1_555
C8 Cr0 2.040149 1_556
C9 N1 1.176237 1_555
C9 Cr1 2.040149 1_565
C10 N2 1.176237 1_555
C10 Cr0 2.040149 1_665
C11 N3 1.176237 1_555
C11 Cr1 2.040149 1_555
N0 Na0 2.504532 1_555
N1 Na1 2.504532 1_556
N2 Na0 2.504532 1_655
N3 Na1 2.504532 1_555
N4 Na0 2.560758 1_555
N5 Na1 2.560758 1_555
N6 Na0 2.560758 1_655
N7 Na1 2.560758 1_556
N8 Na1 2.546475 1_556
N9 Na0 2.546475 1_655
N10 Na1 2.546475 1_555
N11 Na0 2.546475 1_555
