# generated using pymatgen
data_Rb2VCl6
_symmetry_space_group_name_H-M   'P 1'
_cell_length_a   7.01518395
_cell_length_b   7.01518909
_cell_length_c   7.01517001
_cell_angle_alpha   60.00004151
_cell_angle_beta   60.00011423
_cell_angle_gamma   59.99984425
_symmetry_Int_Tables_number   1
_chemical_formula_structural   Rb2VCl6
_chemical_formula_sum   'Rb2 V1 Cl6'
_cell_volume   244.11903707
_cell_formula_units_Z   1
loop_
 _symmetry_equiv_pos_site_id
 _symmetry_equiv_pos_as_xyz
  1  'x, y, z'
loop_
 _atom_site_type_symbol
 _atom_site_label
 _atom_site_symmetry_multiplicity
 _atom_site_fract_x
 _atom_site_fract_y
 _atom_site_fract_z
 _atom_site_occupancy
  Rb  Rb0  1  0.25000000  0.25000000  0.25000000  1
  Rb  Rb1  1  0.75000000  0.75000000  0.75000000  1
  V  V0  1  0.00000000  0.00000000  -0.00000000  1
  Cl  Cl0  1  0.76626456  0.23373544  0.23373544  1
  Cl  Cl1  1  0.23373544  0.76626456  0.76626456  1
  Cl  Cl2  1  0.23373544  0.76626456  0.23373544  1
  Cl  Cl3  1  0.76626456  0.23373544  0.76626456  1
  Cl  Cl4  1  0.23373744  0.23373744  0.76626256  1
  Cl  Cl5  1  0.76626256  0.76626256  0.23373744  1
loop_
_geom_bond_atom_site_label_1
_geom_bond_atom_site_label_2
_geom_bond_distance
_geom_bond_site_symmetry_2
Cl0 V0 2.318879 1_655
Cl0 Rb1 3.511302 1_554
Cl0 Rb0 3.511302 1_655
Cl0 Rb1 3.511302 1_545
Cl0 Rb0 3.511302 1_555
Cl1 V0 2.318879 1_566
Cl1 Rb1 3.511302 1_455
Cl1 Rb0 3.511302 1_556
Cl1 Rb1 3.511302 1_555
Cl1 Rb0 3.511302 1_565
Cl2 V0 2.318876 1_565
Cl2 Rb0 3.511304 1_565
Cl2 Rb0 3.511304 1_555
Cl2 Rb1 3.511304 1_455
Cl2 Rb1 3.511304 1_554
Cl3 V0 2.318876 1_656
Cl3 Rb0 3.511304 1_655
Cl3 Rb1 3.511304 1_545
Cl3 Rb1 3.511304 1_555
Cl3 Rb0 3.511304 1_556
Cl4 V0 2.318908 1_556
Cl4 Rb0 3.511294 1_556
Cl4 Rb1 3.511294 1_455
Cl4 Rb1 3.511294 1_545
Cl4 Rb0 3.511294 1_555
Cl5 V0 2.318908 1_665
Cl5 Rb1 3.511294 1_555
Cl5 Rb0 3.511294 1_565
Cl5 Rb0 3.511294 1_655
Cl5 Rb1 3.511294 1_554
