# generated using pymatgen
data_MgTiCoS4
_symmetry_space_group_name_H-M   'P 1'
_cell_length_a   7.26072133
_cell_length_b   7.14593679
_cell_length_c   7.15425621
_cell_angle_alpha   59.47410922
_cell_angle_beta   59.54646897
_cell_angle_gamma   59.50847729
_symmetry_Int_Tables_number   1
_chemical_formula_structural   MgTiCoS4
_chemical_formula_sum   'Mg2 Ti2 Co2 S8'
_cell_volume   259.54837371
_cell_formula_units_Z   2
loop_
 _symmetry_equiv_pos_site_id
 _symmetry_equiv_pos_as_xyz
  1  'x, y, z'
loop_
 _atom_site_type_symbol
 _atom_site_label
 _atom_site_symmetry_multiplicity
 _atom_site_fract_x
 _atom_site_fract_y
 _atom_site_fract_z
 _atom_site_occupancy
  Mg  Mg0  1  0.87343000  0.87631100  0.87664000  1
  Mg  Mg1  1  0.12656500  0.12369300  0.12336900  1
  Ti  Ti0  1  0.50000600  0.49999200  0.00000100  1
  Ti  Ti1  1  0.49999500  0.99999400  0.50000800  1
  Co  Co0  1  0.50000100  0.50000700  0.49999000  1
  Co  Co1  1  0.00000000  0.49999700  0.50000400  1
  S  S0  1  0.75311400  0.73074800  0.73057300  1
  S  S1  1  0.25771800  0.28066100  0.70394100  1
  S  S2  1  0.25765400  0.70387900  0.28084400  1
  S  S3  1  0.71431000  0.26930500  0.26946800  1
  S  S4  1  0.74233700  0.29612400  0.71914600  1
  S  S5  1  0.28569300  0.73069200  0.73052500  1
  S  S6  1  0.24688600  0.26924900  0.26943600  1
  S  S7  1  0.74229500  0.71934200  0.29605700  1
loop_
_geom_bond_atom_site_label_1
_geom_bond_atom_site_label_2
_geom_bond_distance
_geom_bond_site_symmetry_2
Mg0 S0 2.426708 1_555
Mg0 S5 2.430586 1_655
Mg0 S4 2.435337 1_565
Mg0 S7 2.436613 1_556
Mg1 S6 2.426696 1_555
Mg1 S3 2.430536 1_455
Mg1 S2 2.435338 1_545
Mg1 S1 2.436675 1_554
Co0 S5 2.327282 1_555
Co0 S3 2.327302 1_555
Co0 S4 2.356133 1_555
Co0 S2 2.356150 1_555
Co0 S1 2.356575 1_555
Co0 S7 2.356592 1_555
Co1 S6 2.327942 1_555
Co1 S0 2.327961 1_455
Co1 S2 2.356438 1_555
Co1 S4 2.356451 1_455
Co1 S7 2.356854 1_455
Co1 S1 2.356881 1_555
S0 Ti1 2.461894 1_555
S0 Ti0 2.463228 1_556
S1 Ti1 2.456869 1_545
S2 Ti0 2.458502 1_555
S3 Ti1 2.461362 1_545
S3 Ti0 2.462618 1_555
S4 Ti0 2.458479 1_556
S5 Ti1 2.461256 1_555
S5 Ti0 2.462707 1_556
S6 Ti1 2.461881 1_545
S6 Ti0 2.463231 1_555
S7 Ti1 2.456871 1_555
