# generated using pymatgen
data_CuTeSCl
_symmetry_space_group_name_H-M   'P 1'
_cell_length_a   4.92594000
_cell_length_b   7.84932900
_cell_length_c   12.00358717
_cell_angle_alpha   63.75081878
_cell_angle_beta   90.00000000
_cell_angle_gamma   90.00000000
_symmetry_Int_Tables_number   1
_chemical_formula_structural   CuTeSCl
_chemical_formula_sum   'Cu4 Te4 S4 Cl4'
_cell_volume   416.26182721
_cell_formula_units_Z   4
loop_
 _symmetry_equiv_pos_site_id
 _symmetry_equiv_pos_as_xyz
  1  'x, y, z'
loop_
 _atom_site_type_symbol
 _atom_site_label
 _atom_site_symmetry_multiplicity
 _atom_site_fract_x
 _atom_site_fract_y
 _atom_site_fract_z
 _atom_site_occupancy
  Cu  Cu0  1  0.86894900  0.81419700  0.25219500  1
  Cu  Cu1  1  0.13105100  0.18580300  0.74780500  1
  Cu  Cu2  1  0.36894900  0.18580300  0.24780500  1
  Cu  Cu3  1  0.63105100  0.81419700  0.75219500  1
  Te  Te0  1  0.50747400  0.71356100  0.14323200  1
  Te  Te1  1  0.49252600  0.28643900  0.85676800  1
  Te  Te2  1  0.00747400  0.28643900  0.35676800  1
  Te  Te3  1  0.99252600  0.71356100  0.64323200  1
  S  S0  1  0.68370500  0.41487600  0.16890300  1
  S  S1  1  0.31629500  0.58512400  0.83109700  1
  S  S2  1  0.18370500  0.58512400  0.33109700  1
  S  S3  1  0.81629500  0.41487600  0.66890300  1
  Cl  Cl0  1  0.65219300  0.92532800  0.37766100  1
  Cl  Cl1  1  0.34780700  0.07467200  0.62233900  1
  Cl  Cl2  1  0.15219300  0.07467200  0.12233900  1
  Cl  Cl3  1  0.84780700  0.92532800  0.87766100  1
loop_
_geom_bond_atom_site_label_1
_geom_bond_atom_site_label_2
_geom_bond_distance
_geom_bond_site_symmetry_2
Cu0 S2 2.242244 1_655
Cu0 Te0 2.533606 1_555
Cu1 S3 2.242244 1_455
Cu1 Te1 2.533606 1_555
Cu2 S0 2.242244 1_555
Cu2 Te2 2.533606 1_555
Cu3 S1 2.242244 1_555
Cu3 Te3 2.533606 1_555
S0 Te0 2.388743 1_555
S0 Te2 2.575707 1_655
S1 Te1 2.388743 1_555
S1 Te3 2.575707 1_455
S2 Te2 2.388743 1_555
S2 Te0 2.575707 1_555
S3 Te3 2.388743 1_555
S3 Te1 2.575707 1_555
Cl0 Cu0 2.308934 1_555
Cl0 Cu2 2.395322 1_565
Cl1 Cu1 2.308934 1_555
Cl1 Cu3 2.395322 1_545
Cl2 Cu2 2.308934 1_555
Cl2 Cu0 2.395322 1_445
Cl3 Cu3 2.308934 1_555
Cl3 Cu1 2.395322 1_665
