# generated using pymatgen
data_Co3Mo
_symmetry_space_group_name_H-M   'P 1'
_cell_length_a   5.04827121
_cell_length_b   5.04820983
_cell_length_c   4.11934544
_cell_angle_alpha   90.00000000
_cell_angle_beta   90.00000000
_cell_angle_gamma   120.00038031
_symmetry_Int_Tables_number   1
_chemical_formula_structural   Co3Mo
_chemical_formula_sum   'Co6 Mo2'
_cell_volume   90.91535868
_cell_formula_units_Z   2
loop_
 _symmetry_equiv_pos_site_id
 _symmetry_equiv_pos_as_xyz
  1  'x, y, z'
loop_
 _atom_site_type_symbol
 _atom_site_label
 _atom_site_symmetry_multiplicity
 _atom_site_fract_x
 _atom_site_fract_y
 _atom_site_fract_z
 _atom_site_occupancy
  Co  Co0  1  0.83691776  0.67383114  0.25000000  1
  Co  Co1  1  0.16308833  0.83692027  0.75000000  1
  Co  Co2  1  0.67382964  0.83692091  0.75000000  1
  Co  Co3  1  0.32617036  0.16307909  0.25000000  1
  Co  Co4  1  0.83691167  0.16307973  0.25000000  1
  Co  Co5  1  0.16308224  0.32616886  0.75000000  1
  Mo  Mo0  1  0.33333723  0.66667982  0.25000000  1
  Mo  Mo1  1  0.66666277  0.33332018  0.75000000  1
loop_
_geom_bond_atom_site_label_1
_geom_bond_atom_site_label_2
_geom_bond_distance
_geom_bond_site_symmetry_2
Co0 Co3 2.469839 1_665
Co0 Co4 2.469845 1_565
Co0 Co1 2.505134 1_655
Co0 Co1 2.505134 1_654
Co0 Co2 2.505152 1_554
Co0 Co2 2.505152 1_555
Co0 Mo0 2.524305 1_655
Co0 Mo0 2.524354 1_555
Co0 Mo1 2.541334 1_554
Co0 Mo1 2.541334 1_555
Co0 Co4 2.578365 1_555
Co0 Co3 2.578373 1_555
Co1 Co5 2.469845 1_565
Co1 Co2 2.469912 1_455
Co1 Co3 2.505095 1_565
Co1 Co3 2.505095 1_566
Co1 Mo1 2.524236 1_565
Co1 Mo1 2.524365 1_455
Co1 Mo0 2.541289 1_555
Co1 Mo0 2.541289 1_556
Co1 Co2 2.578359 1_555
Co1 Co5 2.578365 1_555
Co2 Co5 2.469839 1_665
Co2 Co4 2.505095 1_565
Co2 Co4 2.505095 1_566
Co2 Mo1 2.524213 1_565
Co2 Mo1 2.524386 1_555
Co2 Mo0 2.541297 1_556
Co2 Mo0 2.541297 1_555
Co2 Co5 2.578373 1_555
Co3 Co4 2.469912 1_455
Co3 Co5 2.505152 1_554
Co3 Co5 2.505152 1_555
Co3 Mo0 2.524213 1_545
Co3 Mo0 2.524386 1_555
Co3 Mo1 2.541297 1_555
Co3 Mo1 2.541297 1_554
Co3 Co4 2.578359 1_555
Co4 Co5 2.505134 1_655
Co4 Co5 2.505134 1_654
Co4 Mo0 2.524236 1_545
Co4 Mo0 2.524365 1_655
Co4 Mo1 2.541289 1_554
Co4 Mo1 2.541289 1_555
Co5 Mo1 2.524305 1_455
Co5 Mo1 2.524354 1_555
Co5 Mo0 2.541334 1_555
Co5 Mo0 2.541334 1_556
