# generated using pymatgen
data_PrNi5Sn
_symmetry_space_group_name_H-M   'P 1'
_cell_length_a   4.93130353
_cell_length_b   4.93130353
_cell_length_c   19.74810800
_cell_angle_alpha   90.00000000
_cell_angle_beta   90.00000000
_cell_angle_gamma   119.99999375
_symmetry_Int_Tables_number   1
_chemical_formula_structural   PrNi5Sn
_chemical_formula_sum   'Pr4 Ni20 Sn4'
_cell_volume   415.89109677
_cell_formula_units_Z   4
loop_
 _symmetry_equiv_pos_site_id
 _symmetry_equiv_pos_as_xyz
  1  'x, y, z'
loop_
 _atom_site_type_symbol
 _atom_site_label
 _atom_site_symmetry_multiplicity
 _atom_site_fract_x
 _atom_site_fract_y
 _atom_site_fract_z
 _atom_site_occupancy
  Pr  Pr0  1  0.33333300  0.66666700  0.25000000  1
  Pr  Pr1  1  0.66666700  0.33333300  0.75000000  1
  Pr  Pr2  1  0.00000000  0.00000000  0.50000000  1
  Pr  Pr3  1  0.00000000  0.00000000  0.00000000  1
  Ni  Ni0  1  0.83434200  0.16565800  0.35401700  1
  Ni  Ni1  1  0.83434200  0.66868400  0.35401700  1
  Ni  Ni2  1  0.33131600  0.16565800  0.35401700  1
  Ni  Ni3  1  0.16565800  0.83434200  0.64598300  1
  Ni  Ni4  1  0.16565800  0.33131600  0.64598300  1
  Ni  Ni5  1  0.66868400  0.83434200  0.64598300  1
  Ni  Ni6  1  0.16565800  0.83434200  0.85401700  1
  Ni  Ni7  1  0.16565800  0.33131600  0.85401700  1
  Ni  Ni8  1  0.66868400  0.83434200  0.85401700  1
  Ni  Ni9  1  0.83434200  0.16565800  0.14598300  1
  Ni  Ni10  1  0.83434200  0.66868400  0.14598300  1
  Ni  Ni11  1  0.33131600  0.16565800  0.14598300  1
  Ni  Ni12  1  0.33333300  0.66666700  0.95655300  1
  Ni  Ni13  1  0.66666700  0.33333300  0.04344700  1
  Ni  Ni14  1  0.66666700  0.33333300  0.45655300  1
  Ni  Ni15  1  0.33333300  0.66666700  0.54344700  1
  Ni  Ni16  1  0.33333300  0.66666700  0.75000000  1
  Ni  Ni17  1  0.66666700  0.33333300  0.25000000  1
  Ni  Ni18  1  0.00000000  0.00000000  0.25000000  1
  Ni  Ni19  1  0.00000000  0.00000000  0.75000000  1
  Sn  Sn0  1  0.33333300  0.66666700  0.41237800  1
  Sn  Sn1  1  0.66666700  0.33333300  0.58762200  1
  Sn  Sn2  1  0.66666700  0.33333300  0.91237800  1
  Sn  Sn3  1  0.33333300  0.66666700  0.08762200  1
loop_
_geom_bond_atom_site_label_1
_geom_bond_atom_site_label_2
_geom_bond_distance
_geom_bond_site_symmetry_2
Pr0 Sn3 3.206658 1_555
Pr0 Sn0 3.206658 1_555
Pr1 Sn1 3.206658 1_555
Pr1 Sn2 3.206658 1_555
Pr2 Sn0 3.331678 1_545
Pr2 Sn1 3.331678 1_455
Pr2 Sn0 3.331682 1_445
Pr2 Sn1 3.331682 1_445
Pr2 Sn1 3.331682 1_555
Pr2 Sn0 3.331682 1_555
Pr3 Sn2 3.331678 1_454
Pr3 Sn3 3.331678 1_545
Pr3 Sn2 3.331682 1_444
Pr3 Sn2 3.331682 1_554
Pr3 Sn3 3.331682 1_555
Pr3 Sn3 3.331682 1_445
Ni0 Ni2 2.450730 1_655
Ni0 Ni1 2.450730 1_545
Ni0 Ni14 2.480174 1_555
Ni0 Ni2 2.480574 1_555
Ni0 Ni1 2.480574 1_555
Ni0 Ni18 2.494296 1_655
Ni0 Ni17 2.504109 1_555
Ni0 Sn0 2.721730 1_545
Ni0 Sn0 2.721730 1_655
Ni0 Pr0 3.209206 1_545
Ni0 Pr0 3.209206 1_655
Ni0 Pr2 3.211397 1_655
Ni1 Ni2 2.450730 1_665
Ni1 Ni14 2.480176 1_555
Ni1 Ni2 2.480574 1_555
Ni1 Ni18 2.494296 1_665
Ni1 Ni17 2.504111 1_555
Ni1 Sn0 2.721728 1_655
Ni1 Sn0 2.721732 1_555
Ni1 Pr0 3.209204 1_655
Ni1 Pr0 3.209207 1_555
Ni1 Pr2 3.211397 1_665
Ni2 Sn0 2.721728 1_545
Ni2 Sn0 2.721732 1_555
Ni2 Pr0 3.209204 1_545
Ni2 Pr0 3.209207 1_555
Ni2 Pr2 3.211397 1_555
Ni3 Ni4 2.450730 1_565
Ni3 Ni5 2.450730 1_455
Ni3 Ni4 2.480574 1_555
Ni3 Ni5 2.480574 1_555
Ni3 Sn1 2.721730 1_455
Ni3 Sn1 2.721730 1_565
Ni3 Pr1 3.209206 1_455
Ni3 Pr1 3.209206 1_565
Ni3 Pr2 3.211397 1_565
Ni4 Ni5 2.450730 1_445
Ni4 Ni5 2.480574 1_555
Ni4 Sn1 2.721728 1_455
Ni4 Sn1 2.721732 1_555
Ni4 Pr1 3.209204 1_455
Ni4 Pr1 3.209207 1_555
Ni4 Pr2 3.211397 1_555
Ni5 Sn1 2.721728 1_565
Ni5 Sn1 2.721732 1_555
Ni5 Pr1 3.209204 1_565
Ni5 Pr1 3.209207 1_555
Ni5 Pr2 3.211397 1_665
Ni6 Ni7 2.450730 1_565
Ni6 Ni8 2.450730 1_455
Ni6 Ni8 2.480574 1_555
Ni6 Ni7 2.480574 1_555
Ni6 Sn2 2.721730 1_455
Ni6 Sn2 2.721730 1_565
Ni6 Pr1 3.209206 1_455
Ni6 Pr1 3.209206 1_565
Ni6 Pr3 3.211397 1_566
Ni7 Ni8 2.450730 1_445
Ni7 Ni8 2.480574 1_555
Ni7 Sn2 2.721728 1_455
Ni7 Sn2 2.721732 1_555
Ni7 Pr1 3.209204 1_455
Ni7 Pr1 3.209207 1_555
Ni7 Pr3 3.211397 1_556
Ni8 Sn2 2.721728 1_565
Ni8 Sn2 2.721732 1_555
Ni8 Pr1 3.209204 1_565
Ni8 Pr1 3.209207 1_555
Ni8 Pr3 3.211397 1_666
Ni9 Sn3 2.721730 1_545
Ni9 Sn3 2.721730 1_655
Ni9 Pr0 3.209206 1_545
Ni9 Pr0 3.209206 1_655
Ni9 Pr3 3.211397 1_655
Ni10 Ni9 2.450730 1_565
Ni10 Ni11 2.450730 1_665
Ni10 Ni13 2.480176 1_555
Ni10 Ni9 2.480574 1_555
Ni10 Ni11 2.480574 1_555
Ni10 Ni18 2.494296 1_665
Ni10 Ni17 2.504111 1_555
Ni10 Sn3 2.721728 1_655
Ni10 Sn3 2.721732 1_555
Ni10 Pr0 3.209204 1_655
Ni10 Pr0 3.209207 1_555
Ni10 Pr3 3.211397 1_665
Ni11 Ni9 2.450730 1_455
Ni11 Ni13 2.480176 1_555
Ni11 Ni9 2.480574 1_555
Ni11 Ni18 2.494296 1_555
Ni11 Ni17 2.504111 1_555
Ni11 Sn3 2.721728 1_545
Ni11 Sn3 2.721732 1_555
Ni11 Pr0 3.209204 1_545
Ni11 Pr0 3.209207 1_555
Ni11 Pr3 3.211397 1_555
Ni12 Ni6 2.480174 1_555
Ni12 Ni7 2.480176 1_555
Ni12 Ni8 2.480176 1_555
Ni12 Sn3 2.588365 1_556
Ni12 Pr3 2.973560 1_566
Ni12 Pr3 2.973564 1_666
Ni12 Pr3 2.973564 1_556
Ni12 Sn2 2.977740 1_455
Ni12 Sn2 2.977740 1_565
Ni12 Sn2 2.977748 1_555
Ni13 Ni9 2.480174 1_555
Ni13 Sn2 2.588365 1_554
Ni13 Pr3 2.973560 1_655
Ni13 Pr3 2.973564 1_665
Ni13 Pr3 2.973564 1_555
Ni13 Sn3 2.977740 1_545
Ni13 Sn3 2.977740 1_655
Ni13 Sn3 2.977748 1_555
Ni14 Ni2 2.480176 1_555
Ni14 Sn1 2.588365 1_555
Ni14 Pr2 2.973560 1_655
Ni14 Pr2 2.973564 1_665
Ni14 Pr2 2.973564 1_555
Ni14 Sn0 2.977740 1_545
Ni14 Sn0 2.977740 1_655
Ni14 Sn0 2.977748 1_555
Ni15 Ni3 2.480174 1_555
Ni15 Ni4 2.480176 1_555
Ni15 Ni5 2.480176 1_555
Ni15 Sn0 2.588365 1_555
Ni15 Pr2 2.973560 1_565
Ni15 Pr2 2.973564 1_665
Ni15 Pr2 2.973564 1_555
Ni15 Sn1 2.977740 1_455
Ni15 Sn1 2.977740 1_565
Ni15 Sn1 2.977748 1_555
Ni16 Ni3 2.504109 1_555
Ni16 Ni6 2.504109 1_555
Ni16 Ni7 2.504111 1_555
Ni16 Ni8 2.504111 1_555
Ni16 Ni5 2.504111 1_555
Ni16 Ni4 2.504111 1_555
Ni16 Ni19 2.847086 1_565
Ni16 Pr1 2.847087 1_455
Ni16 Pr1 2.847087 1_565
Ni16 Ni19 2.847091 1_665
Ni16 Ni19 2.847091 1_555
Ni16 Pr1 2.847095 1_555
Ni17 Ni9 2.504109 1_555
Ni17 Ni2 2.504111 1_555
Ni17 Ni18 2.847086 1_655
Ni17 Pr0 2.847087 1_545
Ni17 Pr0 2.847087 1_655
Ni17 Ni18 2.847091 1_665
Ni17 Ni18 2.847091 1_555
Ni17 Pr0 2.847095 1_555
Ni18 Ni9 2.494296 1_455
Ni18 Ni2 2.494296 1_555
Ni18 Pr0 2.847086 1_545
Ni18 Pr0 2.847091 1_555
Ni18 Pr0 2.847091 1_445
Ni19 Ni6 2.494296 1_545
Ni19 Ni3 2.494296 1_545
Ni19 Ni7 2.494296 1_555
Ni19 Ni4 2.494296 1_555
Ni19 Ni5 2.494296 1_445
Ni19 Ni8 2.494296 1_445
Ni19 Pr1 2.847086 1_455
Ni19 Pr1 2.847091 1_555
Ni19 Pr1 2.847091 1_445
