# generated using pymatgen
data_Th(Mg4Al3)4
_symmetry_space_group_name_H-M   'P 1'
_cell_length_a   9.17405479
_cell_length_b   9.17405479
_cell_length_c   9.17405479
_cell_angle_alpha   109.47122063
_cell_angle_beta   109.47122063
_cell_angle_gamma   109.47122063
_symmetry_Int_Tables_number   1
_chemical_formula_structural   Th(Mg4Al3)4
_chemical_formula_sum   'Th1 Mg16 Al12'
_cell_volume   594.37713903
_cell_formula_units_Z   1
loop_
 _symmetry_equiv_pos_site_id
 _symmetry_equiv_pos_as_xyz
  1  'x, y, z'
loop_
 _atom_site_type_symbol
 _atom_site_label
 _atom_site_symmetry_multiplicity
 _atom_site_fract_x
 _atom_site_fract_y
 _atom_site_fract_z
 _atom_site_occupancy
  Th  Th0  1  0.00000000  0.00000000  0.00000000  1
  Mg  Mg0  1  0.63377900  0.00000000  0.00000000  1
  Mg  Mg1  1  0.71676000  0.32043400  0.32043400  1
  Mg  Mg2  1  0.36622100  0.36622100  0.36622100  1
  Mg  Mg3  1  0.28324000  0.60367400  0.60367400  1
  Mg  Mg4  1  0.00000000  0.67956600  0.39632600  1
  Mg  Mg5  1  0.39632600  0.00000000  0.67956600  1
  Mg  Mg6  1  0.60367400  0.60367400  0.28324000  1
  Mg  Mg7  1  0.00000000  0.00000000  0.63377900  1
  Mg  Mg8  1  0.67956600  0.39632600  0.00000000  1
  Mg  Mg9  1  0.32043400  0.71676000  0.32043400  1
  Mg  Mg10  1  0.67956600  0.00000000  0.39632600  1
  Mg  Mg11  1  0.32043400  0.32043400  0.71676000  1
  Mg  Mg12  1  0.00000000  0.63377900  0.00000000  1
  Mg  Mg13  1  0.60367400  0.28324000  0.60367400  1
  Mg  Mg14  1  0.39632600  0.67956600  0.00000000  1
  Mg  Mg15  1  0.00000000  0.39632600  0.67956600  1
  Al  Al0  1  0.18310600  0.81332300  0.81332300  1
  Al  Al1  1  0.81689400  0.63021800  0.63021800  1
  Al  Al2  1  0.00000000  0.36978200  0.18667700  1
  Al  Al3  1  0.36978200  0.18667700  0.00000000  1
  Al  Al4  1  0.63021800  0.81689400  0.63021800  1
  Al  Al5  1  0.18667700  0.36978200  0.00000000  1
  Al  Al6  1  0.81332300  0.18310600  0.81332300  1
  Al  Al7  1  0.18667700  0.00000000  0.36978200  1
  Al  Al8  1  0.81332300  0.81332300  0.18310600  1
  Al  Al9  1  0.63021800  0.63021800  0.81689400  1
  Al  Al10  1  0.36978200  0.00000000  0.18667700  1
  Al  Al11  1  0.00000000  0.18667700  0.36978200  1
loop_
_geom_bond_atom_site_label_1
_geom_bond_atom_site_label_2
_geom_bond_distance
_geom_bond_site_symmetry_2
Mg0 Mg1 3.019596 1_555
Mg0 Mg5 3.019596 1_554
Mg0 Mg14 3.019596 1_545
Mg0 Th0 3.359732 1_655
Mg1 Mg4 3.106281 1_655
Mg1 Mg15 3.106281 1_655
Mg1 Mg10 3.177582 1_555
Mg1 Mg8 3.177582 1_555
Mg1 Mg6 3.177582 1_555
Mg1 Mg13 3.177582 1_555
Mg2 Mg3 3.019596 1_555
Mg2 Mg6 3.019596 1_555
Mg2 Th0 3.359732 1_555
Mg3 Mg4 3.106281 1_555
Mg3 Mg9 3.177582 1_555
Mg3 Mg5 3.177582 1_565
Mg4 Mg7 3.019596 1_565
Mg4 Mg9 3.177582 1_555
Mg4 Mg8 3.177582 1_455
Mg4 Mg5 3.177582 1_565
Mg4 Mg6 3.177582 1_455
Mg5 Mg9 3.106281 1_545
Mg5 Mg8 3.177582 1_556
Mg6 Mg8 3.106281 1_555
Mg6 Mg9 3.177582 1_555
Mg7 Th0 3.359732 1_556
Mg10 Mg7 3.019596 1_655
Mg10 Mg9 3.106281 1_545
Mg10 Mg13 3.106281 1_555
Mg10 Mg14 3.177582 1_545
Mg10 Mg15 3.177582 1_655
Mg10 Mg6 3.177582 1_545
Mg11 Mg7 3.019596 1_555
Mg11 Mg14 3.106281 1_556
Mg11 Mg8 3.106281 1_556
Mg11 Mg5 3.177582 1_555
Mg11 Mg15 3.177582 1_555
Mg11 Mg3 3.177582 1_555
Mg11 Mg13 3.177582 1_555
Mg12 Mg9 3.019596 1_555
Mg12 Mg15 3.019596 1_554
Mg12 Mg8 3.019596 1_455
Mg12 Th0 3.359732 1_565
Mg13 Mg2 3.019596 1_555
Mg13 Mg5 3.106281 1_555
Mg13 Mg8 3.177582 1_556
Mg13 Mg15 3.177582 1_655
Mg14 Mg6 3.106281 1_555
Mg14 Mg9 3.177582 1_555
Mg14 Mg15 3.177582 1_554
Mg14 Mg3 3.177582 1_554
Mg15 Mg3 3.106281 1_555
Al0 Al1 2.743142 1_455
Al0 Al3 2.796640 1_566
Al0 Al10 2.796640 1_566
Al0 Mg3 2.851657 1_555
Al0 Mg14 3.005477 1_556
Al0 Mg5 3.005477 1_565
Al0 Mg4 3.189751 1_555
Al0 Mg15 3.189751 1_555
Al0 Mg7 3.228269 1_565
Al0 Mg12 3.228269 1_556
Al0 Th0 3.250876 1_566
Al1 Al9 2.796625 1_555
Al1 Al4 2.796625 1_555
Al1 Mg1 2.851667 1_555
Al1 Mg6 3.005480 1_555
Al1 Mg13 3.005480 1_555
Al1 Mg15 3.189758 1_655
Al1 Mg4 3.189758 1_655
Al1 Mg7 3.228265 1_665
Al1 Mg12 3.228265 1_656
Al1 Th0 3.250867 1_666
Al2 Al5 2.796640 1_555
Al2 Al6 2.796640 1_454
Al2 Mg4 2.851664 1_555
Al2 Mg8 3.005483 1_455
Al2 Mg9 3.005483 1_555
Al2 Mg3 3.189751 1_555
Al2 Mg1 3.189751 1_455
Al2 Mg2 3.228264 1_555
Al2 Mg0 3.228264 1_455
Al2 Th0 3.250868 1_555
Al3 Al5 2.743127 1_555
Al3 Mg8 2.851664 1_555
Al3 Mg5 3.005483 1_554
Al3 Mg1 3.005483 1_555
Al3 Mg6 3.189751 1_555
Al3 Mg11 3.189751 1_554
Al3 Mg2 3.228264 1_555
Al3 Mg7 3.228264 1_554
Al3 Th0 3.250868 1_555
Al4 Al6 2.743142 1_565
Al4 Al9 2.796625 1_555
Al4 Mg9 2.851667 1_555
Al4 Mg3 3.005480 1_555
Al4 Mg6 3.005480 1_555
Al4 Mg10 3.189758 1_565
Al4 Mg5 3.189758 1_565
Al4 Mg7 3.228265 1_665
Al4 Mg0 3.228265 1_566
Al4 Th0 3.250867 1_666
Al5 Al6 2.796640 1_454
Al5 Mg14 2.851664 1_555
Al5 Mg15 3.005483 1_554
Al5 Mg9 3.005483 1_555
Al5 Mg6 3.189751 1_555
Al5 Mg11 3.189751 1_554
Al5 Mg2 3.228264 1_555
Al5 Mg7 3.228264 1_554
Al5 Th0 3.250868 1_555
Al6 Mg13 2.851657 1_555
Al6 Mg8 3.005477 1_556
Al6 Mg15 3.005477 1_655
Al6 Mg5 3.189751 1_555
Al6 Mg10 3.189751 1_555
Al6 Mg7 3.228269 1_655
Al6 Mg0 3.228269 1_556
Al6 Th0 3.250876 1_656
Al7 Al8 2.796640 1_445
Al7 Mg5 2.851664 1_555
Al7 Mg4 3.005483 1_545
Al7 Mg11 3.005483 1_555
Al7 Mg13 3.189751 1_555
Al7 Mg9 3.189751 1_545
Al7 Mg2 3.228264 1_555
Al7 Mg12 3.228264 1_545
Al7 Th0 3.250868 1_555
Al8 Al9 2.743142 1_554
Al8 Mg6 2.851657 1_555
Al8 Mg10 3.005477 1_565
Al8 Mg4 3.005477 1_655
Al8 Mg14 3.189751 1_555
Al8 Mg8 3.189751 1_555
Al8 Mg12 3.228269 1_655
Al8 Mg0 3.228269 1_565
Al8 Th0 3.250876 1_665
Al9 Mg11 2.851667 1_555
Al9 Mg3 3.005480 1_555
Al9 Mg13 3.005480 1_555
Al9 Mg14 3.189758 1_556
Al9 Mg8 3.189758 1_556
Al9 Mg12 3.228265 1_656
Al9 Mg0 3.228265 1_566
Al9 Th0 3.250867 1_666
Al10 Al7 2.743127 1_555
Al10 Al3 2.796640 1_555
Al10 Mg10 2.851664 1_555
Al10 Mg14 3.005483 1_545
Al10 Mg1 3.005483 1_555
Al10 Mg13 3.189751 1_555
Al10 Mg9 3.189751 1_545
Al10 Mg2 3.228264 1_555
Al10 Mg12 3.228264 1_545
Al10 Th0 3.250868 1_555
Al11 Al2 2.743127 1_555
Al11 Al7 2.796640 1_555
Al11 Al8 2.796640 1_445
Al11 Mg15 2.851664 1_555
Al11 Mg10 3.005483 1_455
Al11 Mg11 3.005483 1_555
Al11 Mg3 3.189751 1_555
Al11 Mg1 3.189751 1_455
Al11 Mg2 3.228264 1_555
Al11 Mg0 3.228264 1_455
Al11 Th0 3.250868 1_555
