# generated using pymatgen
data_BaEuTiBiO6
_symmetry_space_group_name_H-M   'P 1'
_cell_length_a   5.94750283
_cell_length_b   5.93298754
_cell_length_c   8.35957594
_cell_angle_alpha   90.33360420
_cell_angle_beta   90.16969910
_cell_angle_gamma   90.51144948
_symmetry_Int_Tables_number   1
_chemical_formula_structural   BaEuTiBiO6
_chemical_formula_sum   'Ba2 Eu2 Ti2 Bi2 O12'
_cell_volume   294.96175156
_cell_formula_units_Z   2
loop_
 _symmetry_equiv_pos_site_id
 _symmetry_equiv_pos_as_xyz
  1  'x, y, z'
loop_
 _atom_site_type_symbol
 _atom_site_label
 _atom_site_symmetry_multiplicity
 _atom_site_fract_x
 _atom_site_fract_y
 _atom_site_fract_z
 _atom_site_occupancy
  Ba  Ba0  1  0.50408691  0.51131357  0.25017458  1
  Ba  Ba1  1  0.49591309  0.48868643  0.74982542  1
  Eu  Eu0  1  0.99969833  0.01751626  0.25136924  1
  Eu  Eu1  1  0.00030167  0.98248374  0.74863076  1
  Ti  Ti0  1  0.50000000  0.00000000  0.00000000  1
  Ti  Ti1  1  -0.00000000  0.50000000  0.50000000  1
  Bi  Bi0  1  -0.00000000  0.50000000  0.00000000  1
  Bi  Bi1  1  0.50000000  0.00000000  0.50000000  1
  O  O0  1  0.22821747  0.19509713  0.96516045  1
  O  O1  1  0.24866207  0.71498230  0.52878548  1
  O  O2  1  0.77178253  0.80490287  0.03483955  1
  O  O3  1  0.75133793  0.28501770  0.47121452  1
  O  O4  1  0.28737691  0.75052305  0.96821119  1
  O  O5  1  0.19355793  0.22461651  0.53189699  1
  O  O6  1  0.71262309  0.24947695  0.03178881  1
  O  O7  1  0.80644207  0.77538349  0.46810301  1
  O  O8  1  0.42453224  0.99825463  0.23247116  1
  O  O9  1  0.04580471  0.48370613  0.26756123  1
  O  O10  1  0.57546776  0.00174537  0.76752884  1
  O  O11  1  0.95419529  0.51629387  0.73243877  1
loop_
_geom_bond_atom_site_label_1
_geom_bond_atom_site_label_2
_geom_bond_distance
_geom_bond_site_symmetry_2
Ba0 O6 2.701702 1_555
Ba0 O3 2.725336 1_555
Ba0 O9 2.733440 1_555
Ba0 O8 2.936180 1_555
Ba0 O2 2.968721 1_555
Ba0 O7 2.984012 1_555
Ba0 O1 3.035366 1_555
Ba0 O4 3.047119 1_554
Ba0 O8 3.078988 1_545
Ba1 O4 2.701702 1_555
Ba1 O1 2.725336 1_555
Ba1 O11 2.733440 1_555
Ba1 O10 2.936180 1_555
Ba1 O0 2.968721 1_555
Ba1 O5 2.984012 1_555
Ba1 O3 3.035366 1_555
Ba1 O6 3.047119 1_556
Ba1 O10 3.078988 1_565
Eu0 O8 2.535655 1_645
Eu0 O2 2.575553 1_545
Eu0 O7 2.584692 1_545
Eu0 O9 2.779495 1_655
Eu0 O3 2.846446 1_555
Eu0 O6 2.869034 1_555
Eu0 O5 2.874669 1_655
Eu0 O0 2.950382 1_654
Eu0 O9 3.185003 1_645
Eu1 O10 2.535655 1_465
Eu1 O0 2.575553 1_565
Eu1 O5 2.584692 1_565
Eu1 O11 2.779495 1_455
Eu1 O1 2.846446 1_555
Eu1 O4 2.869034 1_555
Eu1 O7 2.874669 1_455
Eu1 O2 2.950382 1_456
Eu1 O11 3.185003 1_465
Bi0 O11 2.255163 1_454
Bi0 O9 2.255163 1_555
Bi0 O6 2.272239 1_455
Bi0 O4 2.272239 1_554
Bi0 O0 2.289022 1_554
Bi0 O2 2.289022 1_455
Bi1 O1 2.261344 1_545
Bi1 O3 2.261344 1_555
Bi1 O8 2.279666 1_545
Bi1 O10 2.279666 1_555
Bi1 O5 2.282738 1_555
Bi1 O7 2.282738 1_545
O0 Ti0 2.017926 1_556
O1 Ti1 1.957706 1_555
O2 Ti0 2.017926 1_565
O3 Ti1 1.957706 1_655
O4 Ti0 1.954638 1_566
O5 Ti1 2.025492 1_555
O6 Ti0 1.954638 1_555
O7 Ti1 2.025492 1_655
O8 Ti0 1.995880 1_565
O9 Ti1 1.964835 1_555
O10 Ti0 1.995880 1_556
O11 Ti1 1.964835 1_655
