# generated using pymatgen
data_Mg14SiSn
_symmetry_space_group_name_H-M   'P 1'
_cell_length_a   6.30699949
_cell_length_b   6.30699899
_cell_length_c   10.24204600
_cell_angle_alpha   90.00000000
_cell_angle_beta   90.00000000
_cell_angle_gamma   120.00000267
_symmetry_Int_Tables_number   1
_chemical_formula_structural   Mg14SiSn
_chemical_formula_sum   'Mg14 Si1 Sn1'
_cell_volume   352.82788339
_cell_formula_units_Z   1
loop_
 _symmetry_equiv_pos_site_id
 _symmetry_equiv_pos_as_xyz
  1  'x, y, z'
loop_
 _atom_site_type_symbol
 _atom_site_label
 _atom_site_symmetry_multiplicity
 _atom_site_fract_x
 _atom_site_fract_y
 _atom_site_fract_z
 _atom_site_occupancy
  Mg  Mg0  1  0.16685841  0.83342870  0.12500000  1
  Mg  Mg1  1  0.16473895  0.83236898  0.62500000  1
  Mg  Mg2  1  0.66657130  0.33314159  0.12500000  1
  Mg  Mg3  1  0.66763102  0.33526105  0.62500000  1
  Mg  Mg4  1  0.66657130  0.83342870  0.12500000  1
  Mg  Mg5  1  0.66763102  0.83236898  0.62500000  1
  Mg  Mg6  1  0.33368986  0.16631014  0.38113972  1
  Mg  Mg7  1  0.33368986  0.16631014  0.86886028  1
  Mg  Mg8  1  0.33368986  0.66738072  0.38113972  1
  Mg  Mg9  1  0.33368986  0.66738072  0.86886028  1
  Mg  Mg10  1  0.83261928  0.16631014  0.38113972  1
  Mg  Mg11  1  0.83261928  0.16631014  0.86886028  1
  Mg  Mg12  1  0.83333300  0.66666700  0.37526708  1
  Mg  Mg13  1  0.83333300  0.66666700  0.87473292  1
  Si  Si0  1  0.16666700  0.33333300  0.62500000  1
  Sn  Sn0  1  0.16666700  0.33333300  0.12500000  1
loop_
_geom_bond_atom_site_label_1
_geom_bond_atom_site_label_2
_geom_bond_distance
_geom_bond_site_symmetry_2
Mg0 Mg13 3.144664 1_454
Mg0 Mg12 3.144664 1_455
Mg0 Mg2 3.151689 1_565
Mg0 Mg4 3.151689 1_555
Mg0 Sn0 3.153500 1_555
Mg0 Sn0 3.153500 1_565
Mg0 Mg2 3.155310 1_455
Mg0 Mg4 3.155311 1_455
Mg0 Mg9 3.191871 1_554
Mg0 Mg8 3.191871 1_555
Mg0 Mg7 3.191877 1_564
Mg0 Mg6 3.191877 1_565
Mg1 Mg8 3.092768 1_555
Mg1 Mg9 3.092768 1_555
Mg1 Mg6 3.092775 1_565
Mg1 Mg7 3.092775 1_565
Mg1 Mg12 3.133504 1_455
Mg1 Mg13 3.133504 1_455
Mg1 Mg3 3.135259 1_455
Mg1 Mg5 3.135259 1_455
Mg1 Si0 3.153517 1_565
Mg1 Si0 3.153517 1_555
Mg1 Mg3 3.171740 1_565
Mg1 Mg5 3.171740 1_555
Mg2 Mg4 3.151689 1_545
Mg2 Sn0 3.153500 1_655
Mg2 Sn0 3.153500 1_555
Mg2 Mg4 3.155310 1_555
Mg2 Mg7 3.191877 1_554
Mg2 Mg6 3.191877 1_555
Mg3 Mg6 3.092775 1_555
Mg3 Mg7 3.092775 1_555
Mg3 Mg5 3.135259 1_555
Mg3 Si0 3.153517 1_555
Mg3 Si0 3.153517 1_655
Mg3 Mg5 3.171740 1_545
Mg4 Sn0 3.153500 1_555
Mg4 Sn0 3.153500 1_665
Mg4 Mg9 3.191877 1_554
Mg4 Mg8 3.191877 1_555
Mg5 Mg8 3.092775 1_555
Mg5 Mg9 3.092775 1_555
Mg5 Si0 3.153517 1_665
Mg5 Si0 3.153517 1_555
Mg6 Si0 3.093086 1_555
Mg6 Mg8 3.146747 1_545
Mg6 Mg8 3.160252 1_555
Mg6 Sn0 3.195503 1_555
Mg7 Si0 3.093086 1_555
Mg7 Mg9 3.146747 1_545
Mg7 Mg9 3.160252 1_555
Mg7 Sn0 3.195503 1_556
Mg8 Si0 3.093093 1_555
Mg8 Sn0 3.195509 1_555
Mg9 Si0 3.093093 1_555
Mg9 Sn0 3.195509 1_556
Mg10 Mg3 3.092768 1_555
Mg10 Mg5 3.092775 1_545
Mg10 Si0 3.093093 1_655
Mg10 Mg8 3.146747 1_545
Mg10 Mg6 3.146748 1_555
Mg10 Mg12 3.154075 1_555
Mg10 Mg12 3.154075 1_545
Mg10 Mg8 3.160252 1_655
Mg10 Mg6 3.160252 1_655
Mg10 Mg2 3.191871 1_555
Mg10 Mg4 3.191877 1_545
Mg10 Sn0 3.195509 1_655
Mg11 Mg3 3.092768 1_555
Mg11 Mg5 3.092775 1_545
Mg11 Si0 3.093093 1_655
Mg11 Mg9 3.146747 1_545
Mg11 Mg7 3.146748 1_555
Mg11 Mg13 3.154075 1_555
Mg11 Mg13 3.154075 1_545
Mg11 Mg9 3.160252 1_655
Mg11 Mg7 3.160252 1_655
Mg11 Mg2 3.191871 1_556
Mg11 Mg4 3.191877 1_546
Mg11 Sn0 3.195509 1_656
Mg12 Mg5 3.133498 1_555
Mg12 Mg3 3.133504 1_555
Mg12 Mg4 3.144657 1_555
Mg12 Mg2 3.144664 1_555
Mg12 Mg6 3.154075 1_555
Mg12 Mg6 3.154075 1_665
Mg12 Mg8 3.154076 1_655
Mg12 Mg8 3.154076 1_555
Mg13 Mg5 3.133498 1_555
Mg13 Mg3 3.133504 1_555
Mg13 Mg4 3.144657 1_556
Mg13 Mg2 3.144664 1_556
Mg13 Mg7 3.154075 1_555
Mg13 Mg7 3.154075 1_665
Mg13 Mg9 3.154076 1_655
Mg13 Mg9 3.154076 1_555
