# generated using pymatgen
data_CeTa7O19
_symmetry_space_group_name_H-M   'P 1'
_cell_length_a   6.29426879
_cell_length_b   6.29426879
_cell_length_c   20.18391999
_cell_angle_alpha   90.00000000
_cell_angle_beta   90.00000000
_cell_angle_gamma   119.99999046
_symmetry_Int_Tables_number   1
_chemical_formula_structural   CeTa7O19
_chemical_formula_sum   'Ce2 Ta14 O38'
_cell_volume   692.51113326
_cell_formula_units_Z   2
loop_
 _symmetry_equiv_pos_site_id
 _symmetry_equiv_pos_as_xyz
  1  'x, y, z'
loop_
 _atom_site_type_symbol
 _atom_site_label
 _atom_site_symmetry_multiplicity
 _atom_site_fract_x
 _atom_site_fract_y
 _atom_site_fract_z
 _atom_site_occupancy
  Ce  Ce0  1  0.00000000  -0.00000000  0.00000000  1
  Ce  Ce1  1  0.00000000  -0.00000000  0.50000000  1
  Ta  Ta0  1  0.97413729  0.30883091  0.84401316  1
  Ta  Ta1  1  0.33469361  0.02586271  0.84401316  1
  Ta  Ta2  1  0.97413729  0.30883091  0.65598684  1
  Ta  Ta3  1  0.33469361  0.30883091  0.34401316  1
  Ta  Ta4  1  0.69116909  0.66530639  0.84401316  1
  Ta  Ta5  1  0.33469361  0.02586271  0.65598684  1
  Ta  Ta6  1  0.69116909  0.02586271  0.34401316  1
  Ta  Ta7  1  0.33469361  0.30883091  0.15598684  1
  Ta  Ta8  1  0.69116909  0.66530639  0.65598684  1
  Ta  Ta9  1  0.69116909  0.02586271  0.15598684  1
  Ta  Ta10  1  0.97413729  0.66530639  0.34401316  1
  Ta  Ta11  1  0.97413729  0.66530639  0.15598684  1
  Ta  Ta12  1  0.66666700  0.33333300  -0.00000000  1
  Ta  Ta13  1  0.66666700  0.33333300  0.50000000  1
  O  O0  1  0.95721843  0.25281556  0.75000000  1
  O  O1  1  0.29559713  0.04278157  0.75000000  1
  O  O2  1  0.29559713  0.25281556  0.25000000  1
  O  O3  1  0.74718444  0.70440287  0.75000000  1
  O  O4  1  0.74718444  0.04278157  0.25000000  1
  O  O5  1  0.95721843  0.70440287  0.25000000  1
  O  O6  1  0.57880238  0.91180792  0.84666376  1
  O  O7  1  0.33300554  0.42119762  0.84666376  1
  O  O8  1  0.57880238  0.91180792  0.65333624  1
  O  O9  1  0.33300554  0.91180792  0.34666376  1
  O  O10  1  0.08819208  0.66699446  0.84666376  1
  O  O11  1  0.33300554  0.42119762  0.65333624  1
  O  O12  1  0.08819208  0.42119762  0.34666376  1
  O  O13  1  0.33300554  0.91180792  0.15333624  1
  O  O14  1  0.08819208  0.66699446  0.65333624  1
  O  O15  1  0.08819208  0.42119762  0.15333624  1
  O  O16  1  0.57880238  0.66699446  0.34666376  1
  O  O17  1  0.57880238  0.66699446  0.15333624  1
  O  O18  1  0.66666700  0.33333300  0.83452645  1
  O  O19  1  0.66666700  0.33333300  0.66547355  1
  O  O20  1  0.66666700  0.33333300  0.33452645  1
  O  O21  1  0.66666700  0.33333300  0.16547355  1
  O  O22  1  0.00000000  -0.00000000  0.86745867  1
  O  O23  1  0.00000000  -0.00000000  0.63254133  1
  O  O24  1  0.00000000  -0.00000000  0.36745867  1
  O  O25  1  0.00000000  -0.00000000  0.13254133  1
  O  O26  1  0.90504750  0.28915640  0.94364184  1
  O  O27  1  0.38410890  0.09495250  0.94364184  1
  O  O28  1  0.90504750  0.28915640  0.55635816  1
  O  O29  1  0.38410890  0.28915640  0.44364184  1
  O  O30  1  0.71084360  0.61589110  0.94364184  1
  O  O31  1  0.38410890  0.09495250  0.55635816  1
  O  O32  1  0.71084360  0.09495250  0.44364184  1
  O  O33  1  0.38410890  0.28915640  0.05635816  1
  O  O34  1  0.71084360  0.61589110  0.55635816  1
  O  O35  1  0.71084360  0.09495250  0.05635816  1
  O  O36  1  0.90504750  0.61589110  0.44364184  1
  O  O37  1  0.90504750  0.61589110  0.05635816  1
loop_
_geom_bond_atom_site_label_1
_geom_bond_atom_site_label_2
_geom_bond_distance
_geom_bond_site_symmetry_2
Ce0 O35 2.459963 1_455
Ce0 O26 2.459963 1_454
Ce0 O37 2.459963 1_445
Ce0 O27 2.459963 1_554
Ce0 O33 2.459963 1_555
Ce0 O30 2.459963 1_444
Ce0 O25 2.675204 1_555
Ce0 O22 2.675204 1_554
Ce1 O32 2.459963 1_455
Ce1 O28 2.459963 1_455
Ce1 O36 2.459963 1_445
Ce1 O31 2.459963 1_555
Ce1 O29 2.459963 1_555
Ce1 O34 2.459963 1_445
Ce1 O23 2.675204 1_555
Ce1 O24 2.675204 1_555
O0 Ta2 1.923230 1_555
O0 Ta0 1.923230 1_555
O1 Ta5 1.923230 1_555
O1 Ta1 1.923230 1_555
O2 Ta3 1.923230 1_555
O2 Ta7 1.923230 1_555
O3 Ta8 1.923230 1_555
O3 Ta4 1.923230 1_555
O4 Ta6 1.923230 1_555
O4 Ta9 1.923230 1_555
O5 Ta10 1.923230 1_555
O5 Ta11 1.923230 1_555
O6 Ta1 1.995508 1_565
O6 Ta4 2.001935 1_555
O6 Ta0 2.494248 1_565
O7 Ta4 1.995508 1_555
O7 Ta0 2.001935 1_455
O7 Ta1 2.494248 1_555
O8 Ta5 1.995508 1_565
O8 Ta8 2.001935 1_555
O8 Ta2 2.494248 1_565
O9 Ta6 1.995508 1_565
O9 Ta10 2.001935 1_455
O9 Ta3 2.494248 1_565
O10 Ta0 1.995508 1_455
O10 Ta1 2.001935 1_565
O10 Ta4 2.494248 1_455
O11 Ta8 1.995508 1_555
O11 Ta2 2.001935 1_455
O11 Ta5 2.494248 1_555
O12 Ta10 1.995508 1_455
O12 Ta3 2.001935 1_555
O12 Ta6 2.494248 1_455
O13 Ta9 1.995508 1_565
O13 Ta11 2.001935 1_455
O13 Ta7 2.494248 1_565
O14 Ta2 1.995508 1_455
O14 Ta5 2.001935 1_565
O14 Ta8 2.494248 1_455
O15 Ta11 1.995508 1_455
O15 Ta7 2.001935 1_555
O15 Ta9 2.494248 1_455
O16 Ta3 1.995508 1_555
O16 Ta6 2.001935 1_565
O16 Ta10 2.494248 1_555
O17 Ta7 1.995508 1_555
O17 Ta9 2.001935 1_565
O17 Ta11 2.494248 1_555
O18 Ta0 2.025908 1_555
O18 Ta1 2.025912 1_555
O18 Ta4 2.025915 1_555
O19 Ta2 2.025908 1_555
O19 Ta5 2.025912 1_555
O19 Ta8 2.025915 1_555
O20 Ta6 2.025908 1_555
O20 Ta10 2.025912 1_555
O20 Ta3 2.025915 1_555
O21 Ta9 2.025908 1_555
O21 Ta11 2.025912 1_555
O21 Ta7 2.025915 1_555
O22 Ta1 2.084583 1_555
O22 Ta0 2.084583 1_455
O22 Ta4 2.084583 1_445
O23 Ta5 2.084583 1_555
O23 Ta2 2.084583 1_455
O23 Ta8 2.084583 1_445
O24 Ta10 2.084583 1_445
O24 Ta6 2.084583 1_455
O24 Ta3 2.084583 1_555
O25 Ta11 2.084583 1_445
O25 Ta9 2.084583 1_455
O25 Ta7 2.084583 1_555
O26 Ta12 2.009923 1_556
O26 Ta0 2.048000 1_555
O27 Ta12 2.009926 1_556
O27 Ta1 2.048000 1_555
O28 Ta13 2.009923 1_555
O28 Ta2 2.048000 1_555
O29 Ta13 2.009928 1_555
O29 Ta3 2.048000 1_555
O30 Ta12 2.009928 1_556
O30 Ta4 2.048000 1_555
O31 Ta13 2.009926 1_555
O31 Ta5 2.048000 1_555
O32 Ta13 2.009923 1_555
O32 Ta6 2.048000 1_555
O33 Ta12 2.009928 1_555
O33 Ta7 2.048000 1_555
O34 Ta13 2.009928 1_555
O34 Ta8 2.048000 1_555
O35 Ta12 2.009923 1_555
O35 Ta9 2.048000 1_555
O36 Ta13 2.009926 1_555
O36 Ta10 2.048000 1_555
O37 Ta12 2.009926 1_555
O37 Ta11 2.048000 1_555
