# generated using pymatgen
data_Ca5(OsN3)2
_symmetry_space_group_name_H-M   'P 1'
_cell_length_a   6.01428077
_cell_length_b   6.01428077
_cell_length_c   12.61305598
_cell_angle_alpha   78.95194107
_cell_angle_beta   78.95194107
_cell_angle_gamma   66.57241019
_symmetry_Int_Tables_number   1
_chemical_formula_structural   Ca5(OsN3)2
_chemical_formula_sum   'Ca10 Os4 N12'
_cell_volume   407.47547963
_cell_formula_units_Z   2
loop_
 _symmetry_equiv_pos_site_id
 _symmetry_equiv_pos_as_xyz
  1  'x, y, z'
loop_
 _atom_site_type_symbol
 _atom_site_label
 _atom_site_symmetry_multiplicity
 _atom_site_fract_x
 _atom_site_fract_y
 _atom_site_fract_z
 _atom_site_occupancy
  Ca  Ca0  1  0.38535200  0.61464800  0.75000000  1
  Ca  Ca1  1  0.61464800  0.38535200  0.25000000  1
  Ca  Ca2  1  0.67771900  0.18940300  0.00198100  1
  Ca  Ca3  1  0.81059700  0.32228100  0.49801900  1
  Ca  Ca4  1  0.32228100  0.81059700  0.99801900  1
  Ca  Ca5  1  0.18940300  0.67771900  0.50198100  1
  Ca  Ca6  1  0.73166700  0.94963600  0.71721200  1
  Ca  Ca7  1  0.05036400  0.26833300  0.78278800  1
  Ca  Ca8  1  0.26833300  0.05036400  0.28278800  1
  Ca  Ca9  1  0.94963600  0.73166700  0.21721200  1
  Os  Os0  1  0.31902900  0.14271500  0.55750000  1
  Os  Os1  1  0.85728500  0.68097100  0.94250000  1
  Os  Os2  1  0.68097100  0.85728500  0.44250000  1
  Os  Os3  1  0.14271500  0.31902900  0.05750000  1
  N  N0  1  0.39841000  0.31998800  0.64344900  1
  N  N1  1  0.68001200  0.60159000  0.85655100  1
  N  N2  1  0.60159000  0.68001200  0.35655100  1
  N  N3  1  0.31998800  0.39841000  0.14344900  1
  N  N4  1  0.70522200  0.71609100  0.58812700  1
  N  N5  1  0.28390900  0.29477800  0.91187300  1
  N  N6  1  0.29477800  0.28390900  0.41187300  1
  N  N7  1  0.71609100  0.70522200  0.08812700  1
  N  N8  1  0.08996900  0.00488200  0.62643400  1
  N  N9  1  0.99511800  0.91003100  0.87356600  1
  N  N10  1  0.91003100  0.99511800  0.37356600  1
  N  N11  1  0.00488200  0.08996900  0.12643400  1
loop_
_geom_bond_atom_site_label_1
_geom_bond_atom_site_label_2
_geom_bond_distance
_geom_bond_site_symmetry_2
Ca0 N0 2.390522 1_555
Ca0 N1 2.390522 1_555
Ca0 N4 2.681843 1_555
Ca0 N5 2.681843 1_555
Ca0 N9 2.727116 1_455
Ca0 N8 2.727116 1_565
Ca1 N2 2.390522 1_555
Ca1 N3 2.390522 1_555
Ca1 N6 2.681843 1_555
Ca1 N7 2.681843 1_555
Ca1 N11 2.727116 1_655
Ca1 N10 2.727116 1_545
Ca2 N9 2.529455 1_544
Ca2 N11 2.565473 1_655
Ca2 N3 2.575009 1_555
Ca2 N5 2.620138 1_554
Ca2 N1 2.790173 1_554
Ca2 N7 2.839484 1_545
Ca3 N8 2.529455 1_655
Ca3 N10 2.565473 1_545
Ca3 N2 2.575009 1_555
Ca3 N4 2.620138 1_555
Ca3 N0 2.790173 1_555
Ca3 N6 2.839484 1_655
Ca4 N11 2.529455 1_566
Ca4 N9 2.565473 1_455
Ca4 N1 2.575009 1_555
Ca4 N7 2.620138 1_556
Ca4 N3 2.790173 1_556
Ca4 N5 2.839484 1_565
Ca5 N10 2.529455 1_455
Ca5 N8 2.565473 1_565
Ca5 N0 2.575009 1_555
Ca5 N6 2.620138 1_555
Ca5 N2 2.790173 1_555
Ca5 N4 2.839484 1_455
Ca6 N8 2.354359 1_665
Ca6 N4 2.408836 1_555
Ca6 N0 2.492910 1_565
Ca6 N1 2.542605 1_555
Ca6 N9 2.678416 1_555
Ca7 N9 2.354359 1_445
Ca7 N5 2.408836 1_555
Ca7 N1 2.492910 1_455
Ca7 N0 2.542605 1_555
Ca7 N8 2.678416 1_555
Ca8 N10 2.354359 1_445
Ca8 N6 2.408836 1_555
Ca8 N2 2.492910 1_545
Ca8 N3 2.542605 1_555
Ca8 N11 2.678416 1_555
Ca9 N11 2.354359 1_665
Ca9 N7 2.408836 1_555
Ca9 N3 2.492910 1_655
Ca9 N2 2.542605 1_555
Ca9 N10 2.678416 1_555
N0 Os0 1.893667 1_555
N1 Os1 1.893667 1_555
N2 Os2 1.893667 1_555
N3 Os3 1.893667 1_555
N4 Os2 1.876860 1_555
N4 Os0 2.711568 1_565
N5 Os3 1.876860 1_556
N5 Os1 2.711568 1_455
N6 Os0 1.876860 1_555
N6 Os2 2.711568 1_545
N7 Os1 1.876860 1_554
N7 Os3 2.711568 1_655
N8 Os0 1.874517 1_555
N9 Os1 1.874517 1_555
N10 Os2 1.874517 1_555
N11 Os3 1.874517 1_555
