# generated using pymatgen
data_GaFe2N3
_symmetry_space_group_name_H-M   'P 1'
_cell_length_a   5.37449125
_cell_length_b   5.29419126
_cell_length_c   5.04717900
_cell_angle_alpha   90.00000000
_cell_angle_beta   90.00000000
_cell_angle_gamma   119.50698156
_symmetry_Int_Tables_number   1
_chemical_formula_structural   GaFe2N3
_chemical_formula_sum   'Ga2 Fe4 N6'
_cell_volume   124.98345489
_cell_formula_units_Z   2
loop_
 _symmetry_equiv_pos_site_id
 _symmetry_equiv_pos_as_xyz
  1  'x, y, z'
loop_
 _atom_site_type_symbol
 _atom_site_label
 _atom_site_symmetry_multiplicity
 _atom_site_fract_x
 _atom_site_fract_y
 _atom_site_fract_z
 _atom_site_occupancy
  Ga  Ga0  1  0.00000000  0.66592900  0.50307700  1
  Ga  Ga1  1  0.00000000  0.33407100  0.00307700  1
  Fe  Fe0  1  0.35437500  0.34210800  0.48825400  1
  Fe  Fe1  1  0.64562500  0.98773400  0.48825400  1
  Fe  Fe2  1  0.64562500  0.65789200  0.98825400  1
  Fe  Fe3  1  0.35437500  0.01226600  0.98825400  1
  N  N0  1  0.33650200  0.32715700  0.85207700  1
  N  N1  1  0.66349800  0.99065600  0.85207700  1
  N  N2  1  0.66349800  0.67284300  0.35207700  1
  N  N3  1  0.33650200  0.00934400  0.35207700  1
  N  N4  1  0.00000000  0.68549100  0.88826300  1
  N  N5  1  0.00000000  0.31450900  0.38826300  1
loop_
_geom_bond_atom_site_label_1
_geom_bond_atom_site_label_2
_geom_bond_distance
_geom_bond_site_symmetry_2
Ga0 N4 1.946859 1_555
Ga0 N5 1.948643 1_555
Ga0 N3 1.979430 1_565
Ga0 N2 1.979433 1_455
Ga1 N5 1.946859 1_555
Ga1 N4 1.948643 1_554
Ga1 N1 1.979430 1_444
Ga1 N0 1.979433 1_554
Fe0 N0 1.838458 1_555
Fe0 N3 1.848937 1_555
Fe0 N2 1.852813 1_555
Fe0 N5 1.905088 1_555
Fe1 N1 1.838458 1_555
Fe1 N2 1.848937 1_555
Fe1 N3 1.852808 1_565
Fe1 N5 1.905085 1_665
Fe2 N2 1.838458 1_556
Fe2 N1 1.848937 1_555
Fe2 N0 1.852813 1_555
Fe2 N4 1.905088 1_655
Fe3 N3 1.838458 1_556
Fe3 N0 1.848937 1_555
Fe3 N1 1.852808 1_545
Fe3 N4 1.905085 1_545
