# generated using pymatgen
data_Mg149Ga
_symmetry_space_group_name_H-M   'P 1'
_cell_length_a   15.89894295
_cell_length_b   15.89894874
_cell_length_c   15.54142610
_cell_angle_alpha   90.00000000
_cell_angle_beta   90.00000000
_cell_angle_gamma   120.00001436
_symmetry_Int_Tables_number   1
_chemical_formula_structural   Mg149Ga
_chemical_formula_sum   'Mg149 Ga1'
_cell_volume   3402.18634194
_cell_formula_units_Z   1
loop_
 _symmetry_equiv_pos_site_id
 _symmetry_equiv_pos_as_xyz
  1  'x, y, z'
loop_
 _atom_site_type_symbol
 _atom_site_label
 _atom_site_symmetry_multiplicity
 _atom_site_fract_x
 _atom_site_fract_y
 _atom_site_fract_z
 _atom_site_occupancy
  Mg  Mg0  1  0.19811173  0.00089642  0.00000000  1
  Mg  Mg1  1  0.80278369  0.00089642  0.00000000  1
  Mg  Mg2  1  0.19811173  0.19721531  0.00000000  1
  Mg  Mg3  1  0.99910358  0.19721531  0.00000000  1
  Mg  Mg4  1  0.39921463  0.19960781  0.00000000  1
  Mg  Mg5  1  0.80039219  0.19960781  0.00000000  1
  Mg  Mg6  1  0.59989921  0.19979742  0.00000000  1
  Mg  Mg7  1  0.19924986  0.39849872  0.00000000  1
  Mg  Mg8  1  0.39948512  0.39954307  0.00000000  1
  Mg  Mg9  1  0.00005894  0.39954307  0.00000000  1
  Mg  Mg10  1  0.59989921  0.40010079  0.00000000  1
  Mg  Mg11  1  0.80020258  0.40010079  0.00000000  1
  Mg  Mg12  1  0.19977024  0.59988562  0.00000000  1
  Mg  Mg13  1  0.40011438  0.59988562  0.00000000  1
  Mg  Mg14  1  0.60045693  0.60051488  0.00000000  1
  Mg  Mg15  1  0.00005894  0.60051488  0.00000000  1
  Mg  Mg16  1  0.80039219  0.60078537  0.00000000  1
  Mg  Mg17  1  0.40011438  0.80022976  0.00000000  1
  Mg  Mg18  1  0.19924986  0.80075014  0.00000000  1
  Mg  Mg19  1  0.60150028  0.80075014  0.00000000  1
  Mg  Mg20  1  0.80278369  0.80188727  0.00000000  1
  Mg  Mg21  1  0.99910358  0.80188827  0.00000000  1
  Mg  Mg22  1  0.39948512  0.99994106  0.00000000  1
  Mg  Mg23  1  0.60045693  0.99994206  0.00000000  1
  Mg  Mg24  1  0.06573153  0.13146306  0.16472015  1
  Mg  Mg25  1  0.86853694  0.93426847  0.16472015  1
  Mg  Mg26  1  0.06573153  0.93426847  0.16472015  1
  Mg  Mg27  1  0.26613399  0.33241683  0.16608523  1
  Mg  Mg28  1  0.06628383  0.33241683  0.16608523  1
  Mg  Mg29  1  0.06628383  0.73386601  0.16608523  1
  Mg  Mg30  1  0.66758317  0.73386601  0.16608523  1
  Mg  Mg31  1  0.26613399  0.93371617  0.16608523  1
  Mg  Mg32  1  0.66758317  0.93371717  0.16608523  1
  Mg  Mg33  1  0.66658154  0.13327747  0.16644670  1
  Mg  Mg34  1  0.46669593  0.13327847  0.16644670  1
  Mg  Mg35  1  0.46669593  0.33341846  0.16644670  1
  Mg  Mg36  1  0.86672153  0.33341846  0.16644670  1
  Mg  Mg37  1  0.86672153  0.53330307  0.16644670  1
  Mg  Mg38  1  0.66658154  0.53330407  0.16644670  1
  Mg  Mg39  1  0.66666700  0.33333300  0.16659482  1
  Mg  Mg40  1  0.46667026  0.53332874  0.16637105  1
  Mg  Mg41  1  0.06665849  0.53332974  0.16637105  1
  Mg  Mg42  1  0.46667026  0.93334151  0.16637105  1
  Mg  Mg43  1  0.26651175  0.53302451  0.16655441  1
  Mg  Mg44  1  0.26651175  0.73348825  0.16655441  1
  Mg  Mg45  1  0.46697549  0.73348825  0.16655441  1
  Mg  Mg46  1  0.86634330  0.13365570  0.16711195  1
  Mg  Mg47  1  0.26731340  0.13365670  0.16711195  1
  Mg  Mg48  1  0.86634330  0.73268660  0.16711195  1
  Mg  Mg49  1  0.00000000  0.00000000  0.33262183  1
  Mg  Mg50  1  0.19941355  0.99982992  0.33313275  1
  Mg  Mg51  1  0.80041637  0.99982992  0.33313275  1
  Mg  Mg52  1  0.00016908  0.19958363  0.33313275  1
  Mg  Mg53  1  0.19941355  0.19958363  0.33313275  1
  Mg  Mg54  1  0.80041637  0.80058545  0.33313275  1
  Mg  Mg55  1  0.00016908  0.80058645  0.33313275  1
  Mg  Mg56  1  0.19992376  0.39984752  0.33303756  1
  Mg  Mg57  1  0.19992376  0.80007624  0.33303756  1
  Mg  Mg58  1  0.60015248  0.80007624  0.33303756  1
  Mg  Mg59  1  0.60026957  0.99999226  0.33314083  1
  Mg  Mg60  1  0.39972169  0.99999226  0.33314083  1
  Mg  Mg61  1  0.39972169  0.39973043  0.33314083  1
  Mg  Mg62  1  0.00000774  0.39973043  0.33314083  1
  Mg  Mg63  1  0.60026957  0.60027831  0.33314083  1
  Mg  Mg64  1  0.00000774  0.60027731  0.33314083  1
  Mg  Mg65  1  0.60003095  0.20006290  0.33310664  1
  Mg  Mg66  1  0.60003095  0.39996905  0.33310664  1
  Mg  Mg67  1  0.79993710  0.39996905  0.33310664  1
  Mg  Mg68  1  0.80005194  0.19994806  0.33328466  1
  Mg  Mg69  1  0.39989713  0.19994806  0.33328466  1
  Mg  Mg70  1  0.80005194  0.60010387  0.33328466  1
  Mg  Mg71  1  0.20004799  0.60002449  0.33322547  1
  Mg  Mg72  1  0.39997551  0.60002449  0.33322547  1
  Mg  Mg73  1  0.39997551  0.79995101  0.33322547  1
  Mg  Mg74  1  0.06650152  0.13300204  0.50000000  1
  Mg  Mg75  1  0.86679561  0.13320439  0.50000000  1
  Mg  Mg76  1  0.26640977  0.13320439  0.50000000  1
  Mg  Mg77  1  0.46669282  0.13322048  0.50000000  1
  Mg  Mg78  1  0.66652766  0.13322048  0.50000000  1
  Mg  Mg79  1  0.06640909  0.33303871  0.50000000  1
  Mg  Mg80  1  0.26663063  0.33303871  0.50000000  1
  Mg  Mg81  1  0.66666700  0.33333300  0.50000000  1
  Mg  Mg82  1  0.86678052  0.33347334  0.50000000  1
  Mg  Mg83  1  0.46669282  0.33347334  0.50000000  1
  Mg  Mg84  1  0.86678052  0.53330718  0.50000000  1
  Mg  Mg85  1  0.66652766  0.53330718  0.50000000  1
  Mg  Mg86  1  0.26652263  0.53304526  0.50000000  1
  Mg  Mg87  1  0.06649934  0.53324967  0.50000000  1
  Mg  Mg88  1  0.46675033  0.53324967  0.50000000  1
  Mg  Mg89  1  0.46695474  0.73347737  0.50000000  1
  Mg  Mg90  1  0.26652263  0.73347837  0.50000000  1
  Mg  Mg91  1  0.66696129  0.73336937  0.50000000  1
  Mg  Mg92  1  0.06640909  0.73336937  0.50000000  1
  Mg  Mg93  1  0.86679561  0.73359123  0.50000000  1
  Mg  Mg94  1  0.46675033  0.93349966  0.50000000  1
  Mg  Mg95  1  0.86699796  0.93349948  0.50000000  1
  Mg  Mg96  1  0.06650152  0.93349948  0.50000000  1
  Mg  Mg97  1  0.26663063  0.93359191  0.50000000  1
  Mg  Mg98  1  0.66696129  0.93359191  0.50000000  1
  Mg  Mg99  1  0.20004799  0.60002449  0.66677353  1
  Mg  Mg100  1  0.39997551  0.60002449  0.66677353  1
  Mg  Mg101  1  0.39997551  0.79995101  0.66677353  1
  Mg  Mg102  1  0.80005194  0.19994806  0.66671534  1
  Mg  Mg103  1  0.39989713  0.19994806  0.66671534  1
  Mg  Mg104  1  0.80005194  0.60010387  0.66671534  1
  Mg  Mg105  1  0.60003095  0.20006290  0.66689336  1
  Mg  Mg106  1  0.60003095  0.39996905  0.66689336  1
  Mg  Mg107  1  0.79993710  0.39996905  0.66689336  1
  Mg  Mg108  1  0.60026957  0.99999226  0.66685917  1
  Mg  Mg109  1  0.39972169  0.99999226  0.66685917  1
  Mg  Mg110  1  0.39972169  0.39973043  0.66685917  1
  Mg  Mg111  1  0.00000774  0.39973043  0.66685917  1
  Mg  Mg112  1  0.60026957  0.60027831  0.66685917  1
  Mg  Mg113  1  0.00000774  0.60027731  0.66685917  1
  Mg  Mg114  1  0.19992376  0.39984752  0.66696244  1
  Mg  Mg115  1  0.19992376  0.80007624  0.66696244  1
  Mg  Mg116  1  0.60015248  0.80007624  0.66696244  1
  Mg  Mg117  1  0.19941355  0.99982992  0.66686725  1
  Mg  Mg118  1  0.80041637  0.99982992  0.66686725  1
  Mg  Mg119  1  0.00016908  0.19958363  0.66686725  1
  Mg  Mg120  1  0.19941355  0.19958363  0.66686725  1
  Mg  Mg121  1  0.80041637  0.80058545  0.66686725  1
  Mg  Mg122  1  0.00016908  0.80058645  0.66686725  1
  Mg  Mg123  1  0.00000000  0.00000000  0.66737817  1
  Mg  Mg124  1  0.86634330  0.13365570  0.83288805  1
  Mg  Mg125  1  0.26731340  0.13365670  0.83288805  1
  Mg  Mg126  1  0.86634330  0.73268660  0.83288805  1
  Mg  Mg127  1  0.26651175  0.53302451  0.83344559  1
  Mg  Mg128  1  0.26651175  0.73348825  0.83344559  1
  Mg  Mg129  1  0.46697549  0.73348825  0.83344559  1
  Mg  Mg130  1  0.46667026  0.53332874  0.83362895  1
  Mg  Mg131  1  0.06665849  0.53332974  0.83362895  1
  Mg  Mg132  1  0.46667026  0.93334151  0.83362895  1
  Mg  Mg133  1  0.66666700  0.33333300  0.83340518  1
  Mg  Mg134  1  0.66658154  0.13327747  0.83355230  1
  Mg  Mg135  1  0.46669593  0.13327847  0.83355230  1
  Mg  Mg136  1  0.46669593  0.33341846  0.83355230  1
  Mg  Mg137  1  0.86672153  0.33341846  0.83355230  1
  Mg  Mg138  1  0.86672153  0.53330307  0.83355230  1
  Mg  Mg139  1  0.66658154  0.53330407  0.83355230  1
  Mg  Mg140  1  0.26613399  0.33241683  0.83391477  1
  Mg  Mg141  1  0.06628383  0.33241683  0.83391477  1
  Mg  Mg142  1  0.06628383  0.73386601  0.83391477  1
  Mg  Mg143  1  0.66758317  0.73386601  0.83391477  1
  Mg  Mg144  1  0.26613399  0.93371617  0.83391477  1
  Mg  Mg145  1  0.66758317  0.93371717  0.83391477  1
  Mg  Mg146  1  0.06573153  0.13146306  0.83527985  1
  Mg  Mg147  1  0.86853694  0.93426847  0.83527985  1
  Mg  Mg148  1  0.06573153  0.93426847  0.83527985  1
  Ga  Ga0  1  0.00000000  0.00000000  0.00000000  1
loop_
_geom_bond_atom_site_label_1
_geom_bond_atom_site_label_2
_geom_bond_distance
_geom_bond_site_symmetry_2
Mg0 Mg2 3.121264 1_555
Mg0 Mg148 3.142597 1_544
Mg0 Mg26 3.142597 1_545
Mg0 Mg21 3.164019 1_445
Mg0 Mg47 3.176269 1_555
Mg0 Mg125 3.176269 1_554
Mg0 Mg4 3.178483 1_555
Mg0 Mg31 3.182477 1_545
Mg0 Mg144 3.182477 1_544
Mg0 Mg18 3.191201 1_545
Mg0 Mg22 3.209246 1_545
Mg1 Mg3 3.121271 1_555
Mg1 Mg147 3.142605 1_544
Mg1 Mg25 3.142605 1_545
Mg1 Mg20 3.164036 1_545
Mg1 Mg46 3.176261 1_555
Mg1 Mg124 3.176261 1_554
Mg1 Mg5 3.178484 1_555
Mg1 Mg145 3.182460 1_544
Mg1 Mg32 3.182460 1_545
Mg1 Mg19 3.191192 1_545
Mg1 Mg23 3.209222 1_545
Mg2 Mg24 3.142597 1_555
Mg2 Mg3 3.164019 1_455
Mg2 Mg47 3.176269 1_555
Mg2 Mg4 3.178475 1_555
Mg2 Mg27 3.182469 1_555
Mg2 Mg7 3.191186 1_555
Mg2 Mg8 3.209238 1_555
Mg3 Mg46 3.176269 1_555
Mg3 Mg5 3.178491 1_555
Mg3 Mg7 3.191192 1_655
Mg3 Mg9 3.209231 1_655
Mg4 Mg47 3.169159 1_555
Mg4 Mg8 3.176612 1_555
Mg4 Mg6 3.189166 1_555
Mg5 Mg9 3.176627 1_655
Mg5 Mg6 3.189135 1_555
Mg7 Mg8 3.175259 1_555
Mg7 Mg9 3.175260 1_555
Mg10 Mg35 3.171027 1_555
Mg10 Mg38 3.171028 1_555
Mg10 Mg136 3.171040 1_554
Mg10 Mg139 3.171040 1_554
Mg10 Mg39 3.175553 1_555
Mg10 Mg133 3.175553 1_554
Mg10 Mg8 3.181948 1_555
Mg10 Mg14 3.181949 1_555
Mg10 Mg11 3.184612 1_555
Mg10 Mg6 3.184613 1_555
Mg10 Mg4 3.189151 1_555
Mg10 Mg16 3.189151 1_555
Mg11 Mg36 3.171012 1_555
Mg11 Mg37 3.171020 1_555
Mg11 Mg137 3.171024 1_554
Mg11 Mg138 3.171032 1_554
Mg11 Mg39 3.175552 1_555
Mg11 Mg133 3.175552 1_554
Mg11 Mg15 3.181948 1_655
Mg11 Mg9 3.181948 1_655
Mg11 Mg6 3.184612 1_555
Mg11 Mg5 3.189136 1_555
Mg11 Mg16 3.189168 1_555
Mg12 Mg131 3.169339 1_554
Mg12 Mg41 3.169339 1_555
Mg12 Mg43 3.175575 1_555
Mg12 Mg127 3.175575 1_554
Mg12 Mg44 3.175575 1_555
Mg12 Mg128 3.175575 1_554
Mg12 Mg15 3.180213 1_555
Mg12 Mg9 3.180228 1_555
Mg12 Mg17 3.185260 1_555
Mg12 Mg13 3.185260 1_555
Mg12 Mg18 3.197679 1_555
Mg12 Mg7 3.197711 1_555
Mg13 Mg130 3.169347 1_554
Mg13 Mg40 3.169347 1_555
Mg13 Mg43 3.175575 1_555
Mg13 Mg45 3.175575 1_555
Mg13 Mg14 3.180244 1_555
Mg13 Mg8 3.180245 1_555
Mg13 Mg17 3.185261 1_555
Mg13 Mg19 3.197686 1_555
Mg13 Mg7 3.197694 1_555
Mg14 Mg143 3.167634 1_554
Mg14 Mg30 3.167634 1_555
Mg14 Mg38 3.172092 1_555
Mg14 Mg40 3.174725 1_555
Mg14 Mg19 3.175269 1_555
Mg14 Mg16 3.176611 1_555
Mg14 Mg8 3.195239 1_555
Mg14 Mg20 3.209222 1_555
Mg15 Mg29 3.167634 1_555
Mg15 Mg37 3.172107 1_455
Mg15 Mg41 3.174710 1_555
Mg15 Mg18 3.175259 1_555
Mg15 Mg16 3.176643 1_455
Mg15 Mg9 3.195241 1_555
Mg15 Mg21 3.209247 1_455
Mg16 Mg48 3.169159 1_555
Mg16 Mg38 3.175884 1_555
Mg16 Mg37 3.175893 1_555
Mg16 Mg20 3.178468 1_555
Mg16 Mg21 3.178483 1_555
Mg17 Mg42 3.169339 1_555
Mg17 Mg44 3.175575 1_555
Mg17 Mg45 3.175575 1_555
Mg17 Mg22 3.180214 1_555
Mg17 Mg23 3.180236 1_555
Mg17 Mg18 3.197678 1_555
Mg17 Mg19 3.197694 1_555
Mg18 Mg29 3.164561 1_555
Mg18 Mg31 3.164562 1_555
Mg18 Mg22 3.175259 1_555
Mg18 Mg44 3.182939 1_555
Mg18 Mg21 3.191200 1_455
Mg19 Mg30 3.164570 1_555
Mg19 Mg32 3.164570 1_555
Mg19 Mg23 3.175269 1_555
Mg19 Mg45 3.182947 1_555
Mg19 Mg20 3.191192 1_555
Mg20 Mg21 3.121271 1_555
Mg20 Mg25 3.142605 1_555
Mg20 Mg48 3.176269 1_555
Mg20 Mg30 3.182460 1_555
Mg21 Mg26 3.142597 1_655
Mg21 Mg48 3.176269 1_555
Mg21 Mg29 3.182477 1_655
Mg22 Mg31 3.167634 1_555
Mg22 Mg34 3.172108 1_565
Mg22 Mg42 3.174710 1_555
Mg22 Mg4 3.176644 1_565
Mg22 Mg6 3.181948 1_565
Mg22 Mg23 3.195231 1_555
Mg23 Mg32 3.167634 1_555
Mg23 Mg33 3.172092 1_565
Mg23 Mg42 3.174725 1_555
Mg23 Mg5 3.176619 1_565
Mg23 Mg6 3.181933 1_565
Mg24 Mg25 3.135185 1_445
Mg24 Mg26 3.135187 1_545
Mg24 Mg3 3.142597 1_455
Mg24 Mg49 3.175783 1_555
Mg24 Mg46 3.187852 1_455
Mg24 Mg47 3.187860 1_555
Mg24 Mg28 3.190643 1_555
Mg24 Mg27 3.190649 1_555
Mg24 Mg53 3.199852 1_555
Mg24 Mg52 3.199860 1_555
Mg25 Mg26 3.135186 1_655
Mg25 Mg49 3.175783 1_665
Mg25 Mg46 3.187845 1_565
Mg25 Mg48 3.187861 1_555
Mg25 Mg30 3.190649 1_555
Mg25 Mg32 3.190650 1_555
Mg25 Mg51 3.199852 1_555
Mg25 Mg54 3.199860 1_555
Mg26 Mg49 3.175783 1_565
Mg26 Mg47 3.187860 1_565
Mg26 Mg48 3.187860 1_455
Mg26 Mg31 3.190657 1_555
Mg26 Mg29 3.190659 1_555
Mg26 Mg50 3.199852 1_555
Mg26 Mg55 3.199852 1_555
Mg27 Mg7 3.164562 1_555
Mg27 Mg8 3.167634 1_555
Mg27 Mg47 3.169535 1_555
Mg27 Mg53 3.175716 1_555
Mg27 Mg28 3.177406 1_555
Mg27 Mg35 3.180795 1_555
Mg27 Mg56 3.180938 1_555
Mg27 Mg61 3.181819 1_555
Mg27 Mg43 3.186461 1_555
Mg27 Mg40 3.191308 1_555
Mg28 Mg7 3.164561 1_555
Mg28 Mg9 3.167634 1_555
Mg28 Mg46 3.169549 1_455
Mg28 Mg52 3.175715 1_555
Mg28 Mg36 3.180827 1_455
Mg28 Mg56 3.180930 1_555
Mg28 Mg62 3.181835 1_555
Mg28 Mg3 3.182469 1_455
Mg28 Mg43 3.186444 1_555
Mg28 Mg41 3.191333 1_555
Mg29 Mg48 3.169549 1_455
Mg29 Mg55 3.175731 1_555
Mg29 Mg31 3.177406 1_555
Mg29 Mg37 3.180819 1_455
Mg29 Mg57 3.180930 1_555
Mg29 Mg64 3.181827 1_555
Mg29 Mg44 3.186428 1_555
Mg29 Mg41 3.191301 1_555
Mg30 Mg48 3.169533 1_555
Mg30 Mg54 3.175715 1_555
Mg30 Mg32 3.177423 1_555
Mg30 Mg38 3.180796 1_555
Mg30 Mg58 3.180938 1_555
Mg30 Mg63 3.181819 1_555
Mg30 Mg45 3.186460 1_555
Mg30 Mg40 3.191324 1_555
Mg31 Mg47 3.169550 1_565
Mg31 Mg50 3.175723 1_555
Mg31 Mg34 3.180811 1_565
Mg31 Mg57 3.180930 1_555
Mg31 Mg60 3.181819 1_555
Mg31 Mg44 3.186429 1_555
Mg31 Mg42 3.191300 1_555
Mg32 Mg46 3.169525 1_565
Mg32 Mg51 3.175715 1_555
Mg32 Mg33 3.180796 1_565
Mg32 Mg58 3.180938 1_555
Mg32 Mg59 3.181827 1_555
Mg32 Mg45 3.186452 1_555
Mg32 Mg42 3.191324 1_555
Mg33 Mg6 3.171020 1_555
Mg33 Mg46 3.173015 1_555
Mg33 Mg65 3.174789 1_555
Mg33 Mg59 3.174821 1_545
Mg33 Mg5 3.175884 1_555
Mg33 Mg34 3.177978 1_555
Mg33 Mg68 3.178115 1_555
Mg33 Mg42 3.178574 1_545
Mg33 Mg39 3.179994 1_555
Mg33 Mg36 3.182022 1_555
Mg34 Mg6 3.171027 1_555
Mg34 Mg47 3.172999 1_555
Mg34 Mg65 3.174780 1_555
Mg34 Mg60 3.174829 1_545
Mg34 Mg4 3.175885 1_555
Mg34 Mg69 3.178099 1_555
Mg34 Mg42 3.178584 1_545
Mg34 Mg39 3.179993 1_555
Mg34 Mg35 3.182015 1_555
Mg35 Mg8 3.172092 1_555
Mg35 Mg47 3.173007 1_555
Mg35 Mg66 3.174780 1_555
Mg35 Mg61 3.174829 1_555
Mg35 Mg4 3.175885 1_555
Mg35 Mg38 3.177970 1_555
Mg35 Mg69 3.178115 1_555
Mg35 Mg40 3.178568 1_555
Mg35 Mg39 3.180009 1_555
Mg36 Mg9 3.172107 1_655
Mg36 Mg46 3.173032 1_555
Mg36 Mg67 3.174781 1_555
Mg36 Mg62 3.174829 1_655
Mg36 Mg5 3.175885 1_555
Mg36 Mg37 3.177955 1_555
Mg36 Mg68 3.178115 1_555
Mg36 Mg41 3.178582 1_655
Mg36 Mg39 3.179977 1_555
Mg37 Mg48 3.173016 1_555
Mg37 Mg67 3.174773 1_555
Mg37 Mg64 3.174829 1_655
Mg37 Mg70 3.178115 1_555
Mg37 Mg41 3.178575 1_655
Mg37 Mg39 3.179985 1_555
Mg37 Mg38 3.182022 1_555
Mg38 Mg48 3.173007 1_555
Mg38 Mg66 3.174781 1_555
Mg38 Mg63 3.174829 1_555
Mg38 Mg70 3.178115 1_555
Mg38 Mg40 3.178574 1_555
Mg38 Mg39 3.180010 1_555
Mg39 Mg67 3.172385 1_555
Mg39 Mg65 3.172385 1_555
Mg39 Mg66 3.172401 1_555
Mg39 Mg6 3.175553 1_555
Mg40 Mg8 3.174718 1_555
Mg40 Mg72 3.177688 1_555
Mg40 Mg61 3.178271 1_555
Mg40 Mg63 3.178278 1_555
Mg40 Mg43 3.179894 1_555
Mg40 Mg45 3.179903 1_555
Mg41 Mg9 3.174726 1_555
Mg41 Mg71 3.177680 1_555
Mg41 Mg64 3.178271 1_555
Mg41 Mg62 3.178279 1_555
Mg41 Mg43 3.179886 1_555
Mg41 Mg44 3.179886 1_555
Mg42 Mg73 3.177688 1_555
Mg42 Mg59 3.178278 1_555
Mg42 Mg60 3.178279 1_555
Mg42 Mg44 3.179886 1_555
Mg42 Mg45 3.179887 1_555
Mg43 Mg56 3.171280 1_555
Mg43 Mg72 3.175949 1_555
Mg43 Mg71 3.175949 1_555
Mg43 Mg7 3.182955 1_555
Mg43 Mg45 3.187161 1_555
Mg43 Mg44 3.187163 1_555
Mg44 Mg57 3.171272 1_555
Mg44 Mg73 3.175949 1_555
Mg44 Mg71 3.175949 1_555
Mg44 Mg45 3.187162 1_555
Mg45 Mg58 3.171280 1_555
Mg45 Mg73 3.175941 1_555
Mg45 Mg72 3.175949 1_555
Mg46 Mg68 3.162623 1_555
Mg46 Mg5 3.169175 1_555
Mg46 Mg52 3.170642 1_655
Mg46 Mg51 3.170642 1_545
Mg47 Mg69 3.162623 1_555
Mg47 Mg50 3.170650 1_545
Mg47 Mg53 3.170650 1_555
Mg48 Mg70 3.162615 1_555
Mg48 Mg55 3.170642 1_655
Mg48 Mg54 3.170642 1_555
Mg49 Mg55 3.171821 1_545
Mg49 Mg53 3.171827 1_555
Mg49 Mg51 3.171828 1_445
Mg49 Mg50 3.171828 1_545
Mg49 Mg54 3.171835 1_445
Mg49 Mg52 3.171837 1_555
Mg49 Mg95 3.181252 1_445
Mg49 Mg74 3.181252 1_555
Mg49 Mg96 3.181252 1_545
Mg50 Mg55 3.167768 1_555
Mg50 Mg96 3.174048 1_555
Mg50 Mg53 3.175874 1_565
Mg50 Mg76 3.177727 1_565
Mg50 Mg97 3.178374 1_555
Mg50 Mg57 3.179938 1_555
Mg50 Mg60 3.183398 1_555
Mg50 Mg69 3.184577 1_565
Mg51 Mg54 3.167778 1_555
Mg51 Mg95 3.174048 1_555
Mg51 Mg52 3.175865 1_665
Mg51 Mg75 3.177727 1_565
Mg51 Mg98 3.178374 1_555
Mg51 Mg58 3.179936 1_555
Mg51 Mg59 3.183414 1_555
Mg51 Mg68 3.184570 1_565
Mg52 Mg53 3.167776 1_555
Mg52 Mg74 3.174064 1_555
Mg52 Mg75 3.177718 1_455
Mg52 Mg79 3.178374 1_555
Mg52 Mg56 3.179944 1_555
Mg52 Mg62 3.183407 1_555
Mg52 Mg68 3.184553 1_455
Mg53 Mg74 3.174048 1_555
Mg53 Mg76 3.177735 1_555
Mg53 Mg80 3.178374 1_555
Mg53 Mg56 3.179938 1_555
Mg53 Mg61 3.183406 1_555
Mg53 Mg69 3.184585 1_555
Mg54 Mg95 3.174064 1_555
Mg54 Mg55 3.175849 1_655
Mg54 Mg93 3.177719 1_555
Mg54 Mg91 3.178374 1_555
Mg54 Mg58 3.179944 1_555
Mg54 Mg63 3.183398 1_555
Mg54 Mg70 3.184554 1_555
Mg55 Mg96 3.174056 1_555
Mg55 Mg93 3.177718 1_455
Mg55 Mg92 3.178390 1_555
Mg55 Mg57 3.179952 1_555
Mg55 Mg64 3.183423 1_555
Mg55 Mg70 3.184561 1_455
Mg56 Mg61 3.177508 1_555
Mg56 Mg62 3.177523 1_555
Mg56 Mg86 3.177525 1_555
Mg56 Mg79 3.180046 1_555
Mg56 Mg80 3.180054 1_555
Mg56 Mg72 3.181608 1_555
Mg56 Mg71 3.181618 1_555
Mg57 Mg60 3.177515 1_555
Mg57 Mg90 3.177517 1_555
Mg57 Mg64 3.177523 1_555
Mg57 Mg92 3.180046 1_555
Mg57 Mg97 3.180054 1_555
Mg57 Mg71 3.181602 1_555
Mg57 Mg73 3.181609 1_555
Mg58 Mg63 3.177509 1_555
Mg58 Mg59 3.177525 1_555
Mg58 Mg89 3.177525 1_555
Mg58 Mg98 3.180054 1_555
Mg58 Mg91 3.180054 1_555
Mg58 Mg72 3.181608 1_555
Mg58 Mg73 3.181609 1_555
Mg59 Mg98 3.175376 1_555
Mg59 Mg78 3.176462 1_565
Mg59 Mg68 3.177709 1_565
Mg59 Mg94 3.178775 1_555
Mg59 Mg73 3.182456 1_555
Mg59 Mg65 3.182811 1_565
Mg59 Mg60 3.188499 1_555
Mg60 Mg97 3.175367 1_555
Mg60 Mg77 3.176462 1_565
Mg60 Mg69 3.177694 1_565
Mg60 Mg94 3.178792 1_555
Mg60 Mg73 3.182466 1_555
Mg60 Mg65 3.182810 1_565
Mg61 Mg80 3.175367 1_555
Mg61 Mg83 3.176462 1_555
Mg61 Mg69 3.177726 1_555
Mg61 Mg88 3.178776 1_555
Mg61 Mg72 3.182449 1_555
Mg61 Mg66 3.182810 1_555
Mg61 Mg63 3.188499 1_555
Mg62 Mg79 3.175384 1_555
Mg62 Mg82 3.176454 1_455
Mg62 Mg68 3.177709 1_455
Mg62 Mg87 3.178776 1_555
Mg62 Mg71 3.182448 1_555
Mg62 Mg67 3.182810 1_455
Mg62 Mg64 3.188485 1_555
Mg63 Mg91 3.175368 1_555
Mg63 Mg85 3.176470 1_555
Mg63 Mg70 3.177717 1_555
Mg63 Mg88 3.178775 1_555
Mg63 Mg72 3.182448 1_555
Mg63 Mg66 3.182811 1_555
Mg64 Mg92 3.175376 1_555
Mg64 Mg84 3.176454 1_455
Mg64 Mg70 3.177709 1_455
Mg64 Mg87 3.178776 1_555
Mg64 Mg71 3.182440 1_555
Mg64 Mg67 3.182802 1_455
Mg65 Mg81 3.177224 1_555
Mg65 Mg77 3.177766 1_555
Mg65 Mg78 3.177774 1_555
Mg65 Mg67 3.178296 1_555
Mg65 Mg66 3.178298 1_555
Mg65 Mg69 3.181005 1_555
Mg65 Mg68 3.181037 1_555
Mg66 Mg81 3.177240 1_555
Mg66 Mg83 3.177766 1_555
Mg66 Mg85 3.177766 1_555
Mg66 Mg67 3.178296 1_555
Mg66 Mg69 3.181021 1_555
Mg66 Mg70 3.181029 1_555
Mg67 Mg81 3.177224 1_555
Mg67 Mg84 3.177766 1_555
Mg67 Mg82 3.177774 1_555
Mg67 Mg70 3.181022 1_555
Mg67 Mg68 3.181038 1_555
Mg68 Mg75 3.176696 1_555
Mg68 Mg78 3.176989 1_555
Mg68 Mg82 3.176998 1_555
Mg69 Mg76 3.176695 1_555
Mg69 Mg77 3.176982 1_555
Mg69 Mg83 3.176998 1_555
Mg70 Mg93 3.176696 1_555
Mg70 Mg85 3.176989 1_555
Mg70 Mg84 3.176998 1_555
Mg71 Mg86 3.177182 1_555
Mg71 Mg90 3.177182 1_555
Mg71 Mg87 3.177934 1_555
Mg71 Mg73 3.178628 1_555
Mg71 Mg72 3.178636 1_555
Mg72 Mg86 3.177174 1_555
Mg72 Mg89 3.177174 1_555
Mg72 Mg88 3.177942 1_555
Mg72 Mg73 3.178621 1_555
Mg73 Mg90 3.177174 1_555
Mg73 Mg89 3.177174 1_555
Mg73 Mg94 3.177934 1_555
Mg74 Mg96 3.171881 1_545
Mg74 Mg95 3.171888 1_445
Mg74 Mg76 3.176723 1_555
Mg74 Mg75 3.176723 1_455
Mg74 Mg80 3.181107 1_555
Mg74 Mg79 3.181108 1_555
Mg75 Mg98 3.175392 1_545
Mg75 Mg79 3.175400 1_655
Mg75 Mg95 3.176708 1_545
Mg75 Mg78 3.184177 1_555
Mg75 Mg82 3.184186 1_555
Mg76 Mg97 3.175386 1_545
Mg76 Mg80 3.175401 1_555
Mg76 Mg96 3.176715 1_545
Mg76 Mg77 3.184161 1_555
Mg76 Mg83 3.184177 1_555
Mg77 Mg94 3.175808 1_545
Mg77 Mg78 3.177163 1_555
Mg77 Mg97 3.177336 1_545
Mg77 Mg81 3.180478 1_555
Mg77 Mg83 3.183810 1_555
Mg78 Mg94 3.175799 1_545
Mg78 Mg98 3.177337 1_545
Mg78 Mg81 3.180472 1_555
Mg78 Mg82 3.183809 1_555
Mg79 Mg82 3.177344 1_455
Mg79 Mg86 3.180743 1_555
Mg79 Mg87 3.182427 1_555
Mg79 Mg80 3.183311 1_555
Mg80 Mg83 3.177328 1_555
Mg80 Mg86 3.180753 1_555
Mg80 Mg88 3.182417 1_555
Mg81 Mg82 3.180478 1_555
Mg81 Mg84 3.180486 1_555
Mg81 Mg85 3.180487 1_555
Mg81 Mg83 3.180494 1_555
Mg82 Mg87 3.175775 1_655
Mg82 Mg84 3.177148 1_555
Mg83 Mg88 3.175777 1_555
Mg83 Mg85 3.177155 1_555
Mg84 Mg87 3.175775 1_655
Mg84 Mg92 3.177336 1_655
Mg84 Mg85 3.183809 1_555
Mg84 Mg93 3.184186 1_555
Mg85 Mg88 3.175791 1_555
Mg85 Mg91 3.177337 1_555
Mg85 Mg93 3.184177 1_555
Mg86 Mg99 3.177169 1_555
Mg86 Mg88 3.181785 1_555
Mg86 Mg87 3.181785 1_555
Mg86 Mg89 3.186659 1_555
Mg86 Mg90 3.186676 1_555
Mg87 Mg99 3.177921 1_555
Mg87 Mg90 3.181793 1_555
Mg87 Mg92 3.182411 1_555
Mg88 Mg89 3.181786 1_555
Mg88 Mg91 3.182417 1_555
Mg89 Mg98 3.180751 1_555
Mg89 Mg91 3.180752 1_555
Mg89 Mg94 3.181770 1_555
Mg89 Mg90 3.186667 1_555
Mg90 Mg99 3.177169 1_555
Mg90 Mg92 3.180728 1_555
Mg90 Mg97 3.180737 1_555
Mg90 Mg94 3.181769 1_555
Mg91 Mg93 3.175392 1_555
Mg91 Mg95 3.181115 1_555
Mg91 Mg98 3.183328 1_555
Mg92 Mg93 3.175408 1_455
Mg92 Mg96 3.181124 1_555
Mg92 Mg97 3.183319 1_555
Mg93 Mg96 3.176722 1_655
Mg93 Mg95 3.176724 1_555
Mg94 Mg98 3.182410 1_555
Mg94 Mg97 3.182425 1_555
Mg95 Mg96 3.171896 1_655
Mg95 Mg98 3.181107 1_555
Mg96 Mg97 3.181107 1_555
Mg100 Mg127 3.175962 1_555
Mg100 Mg129 3.175962 1_555
Mg100 Mg86 3.177161 1_555
Mg100 Mg89 3.177161 1_555
Mg100 Mg130 3.177701 1_555
Mg100 Mg88 3.177929 1_555
Mg100 Mg101 3.178621 1_555
Mg100 Mg99 3.178636 1_555
Mg100 Mg116 3.181609 1_555
Mg100 Mg114 3.181609 1_555
Mg100 Mg112 3.182448 1_555
Mg100 Mg110 3.182449 1_555
Mg101 Mg129 3.175954 1_555
Mg101 Mg128 3.175962 1_555
Mg101 Mg90 3.177161 1_555
Mg101 Mg89 3.177161 1_555
Mg101 Mg132 3.177701 1_555
Mg101 Mg94 3.177922 1_555
Mg101 Mg99 3.178628 1_555
Mg101 Mg116 3.181609 1_555
Mg101 Mg115 3.181609 1_555
Mg101 Mg108 3.182456 1_555
Mg101 Mg109 3.182466 1_555
Mg102 Mg124 3.162623 1_555
Mg102 Mg75 3.176696 1_555
Mg102 Mg78 3.176989 1_555
Mg102 Mg82 3.176998 1_555
Mg102 Mg111 3.177709 1_655
Mg102 Mg108 3.177709 1_545
Mg102 Mg134 3.178102 1_555
Mg102 Mg137 3.178103 1_555
Mg102 Mg105 3.181037 1_555
Mg102 Mg107 3.181038 1_555
Mg102 Mg119 3.184553 1_655
Mg102 Mg118 3.184570 1_545
Mg103 Mg125 3.162623 1_555
Mg103 Mg76 3.176695 1_555
Mg103 Mg77 3.176982 1_555
Mg103 Mg83 3.176998 1_555
Mg103 Mg109 3.177694 1_545
Mg103 Mg110 3.177726 1_555
Mg103 Mg135 3.178087 1_555
Mg103 Mg136 3.178103 1_555
Mg103 Mg105 3.181005 1_555
Mg103 Mg106 3.181021 1_555
Mg103 Mg117 3.184577 1_545
Mg103 Mg120 3.184585 1_555
Mg104 Mg126 3.162615 1_555
Mg104 Mg93 3.176696 1_555
Mg104 Mg85 3.176989 1_555
Mg104 Mg84 3.176998 1_555
Mg104 Mg113 3.177709 1_655
Mg104 Mg112 3.177717 1_555
Mg104 Mg139 3.178102 1_555
Mg104 Mg138 3.178103 1_555
Mg104 Mg107 3.181022 1_555
Mg104 Mg106 3.181029 1_555
Mg104 Mg121 3.184554 1_555
Mg104 Mg122 3.184561 1_655
Mg105 Mg133 3.172385 1_555
Mg105 Mg135 3.174768 1_555
Mg105 Mg134 3.174776 1_555
Mg105 Mg81 3.177224 1_555
Mg105 Mg77 3.177766 1_555
Mg105 Mg78 3.177774 1_555
Mg105 Mg107 3.178296 1_555
Mg105 Mg106 3.178298 1_555
Mg105 Mg109 3.182810 1_545
Mg105 Mg108 3.182811 1_545
Mg106 Mg133 3.172401 1_555
Mg106 Mg136 3.174768 1_555
Mg106 Mg139 3.174768 1_555
Mg106 Mg81 3.177240 1_555
Mg106 Mg83 3.177766 1_555
Mg106 Mg85 3.177766 1_555
Mg106 Mg107 3.178296 1_555
Mg106 Mg110 3.182810 1_555
Mg106 Mg112 3.182811 1_555
Mg107 Mg133 3.172385 1_555
Mg107 Mg138 3.174760 1_555
Mg107 Mg137 3.174768 1_555
Mg107 Mg81 3.177224 1_555
Mg107 Mg84 3.177766 1_555
Mg107 Mg82 3.177774 1_555
Mg107 Mg113 3.182802 1_655
Mg107 Mg111 3.182810 1_655
Mg108 Mg134 3.174809 1_565
Mg108 Mg98 3.175376 1_555
Mg108 Mg78 3.176462 1_565
Mg108 Mg116 3.177525 1_555
Mg108 Mg132 3.178278 1_555
Mg108 Mg94 3.178775 1_555
Mg108 Mg145 3.181827 1_555
Mg108 Mg118 3.183414 1_555
Mg108 Mg109 3.188499 1_555
Mg109 Mg135 3.174817 1_565
Mg109 Mg97 3.175367 1_555
Mg109 Mg77 3.176462 1_565
Mg109 Mg115 3.177515 1_555
Mg109 Mg132 3.178279 1_555
Mg109 Mg94 3.178792 1_555
Mg109 Mg144 3.181819 1_555
Mg109 Mg117 3.183398 1_555
Mg110 Mg136 3.174817 1_555
Mg110 Mg80 3.175367 1_555
Mg110 Mg83 3.176462 1_555
Mg110 Mg114 3.177508 1_555
Mg110 Mg130 3.178271 1_555
Mg110 Mg88 3.178776 1_555
Mg110 Mg140 3.181819 1_555
Mg110 Mg120 3.183406 1_555
Mg110 Mg112 3.188499 1_555
Mg111 Mg137 3.174816 1_455
Mg111 Mg79 3.175384 1_555
Mg111 Mg82 3.176454 1_455
Mg111 Mg114 3.177523 1_555
Mg111 Mg131 3.178279 1_555
Mg111 Mg87 3.178776 1_555
Mg111 Mg141 3.181835 1_555
Mg111 Mg99 3.182448 1_555
Mg111 Mg119 3.183407 1_555
Mg111 Mg113 3.188485 1_555
Mg112 Mg139 3.174817 1_555
Mg112 Mg91 3.175368 1_555
Mg112 Mg85 3.176470 1_555
Mg112 Mg116 3.177509 1_555
Mg112 Mg130 3.178278 1_555
Mg112 Mg88 3.178775 1_555
Mg112 Mg143 3.181819 1_555
Mg112 Mg121 3.183398 1_555
Mg113 Mg138 3.174816 1_455
Mg113 Mg92 3.175376 1_555
Mg113 Mg84 3.176454 1_455
Mg113 Mg115 3.177523 1_555
Mg113 Mg131 3.178271 1_555
Mg113 Mg87 3.178776 1_555
Mg113 Mg142 3.181827 1_555
Mg113 Mg99 3.182440 1_555
Mg113 Mg122 3.183423 1_555
Mg114 Mg127 3.171280 1_555
Mg114 Mg86 3.177525 1_555
Mg114 Mg120 3.179938 1_555
Mg114 Mg119 3.179944 1_555
Mg114 Mg79 3.180046 1_555
Mg114 Mg80 3.180054 1_555
Mg114 Mg141 3.180930 1_555
Mg114 Mg140 3.180938 1_555
Mg114 Mg99 3.181618 1_555
Mg115 Mg128 3.171272 1_555
Mg115 Mg90 3.177517 1_555
Mg115 Mg117 3.179938 1_555
Mg115 Mg122 3.179952 1_555
Mg115 Mg92 3.180046 1_555
Mg115 Mg97 3.180054 1_555
Mg115 Mg142 3.180930 1_555
Mg115 Mg144 3.180930 1_555
Mg115 Mg99 3.181602 1_555
Mg116 Mg129 3.171280 1_555
Mg116 Mg89 3.177525 1_555
Mg116 Mg118 3.179936 1_555
Mg116 Mg121 3.179944 1_555
Mg116 Mg98 3.180054 1_555
Mg116 Mg91 3.180054 1_555
Mg116 Mg143 3.180938 1_555
Mg116 Mg145 3.180938 1_555
Mg117 Mg122 3.167768 1_555
Mg117 Mg125 3.170650 1_565
Mg117 Mg123 3.171828 1_565
Mg117 Mg96 3.174048 1_555
Mg117 Mg144 3.175723 1_555
Mg117 Mg120 3.175874 1_565
Mg117 Mg76 3.177727 1_565
Mg117 Mg97 3.178374 1_555
Mg117 Mg148 3.199852 1_555
Mg118 Mg121 3.167778 1_555
Mg118 Mg124 3.170642 1_565
Mg118 Mg123 3.171828 1_665
Mg118 Mg95 3.174048 1_555
Mg118 Mg145 3.175715 1_555
Mg118 Mg119 3.175865 1_665
Mg118 Mg75 3.177727 1_565
Mg118 Mg98 3.178374 1_555
Mg118 Mg147 3.199852 1_555
Mg119 Mg120 3.167776 1_555
Mg119 Mg124 3.170642 1_455
Mg119 Mg123 3.171837 1_555
Mg119 Mg74 3.174064 1_555
Mg119 Mg141 3.175715 1_555
Mg119 Mg75 3.177718 1_455
Mg119 Mg79 3.178374 1_555
Mg119 Mg146 3.199860 1_555
Mg120 Mg125 3.170650 1_555
Mg120 Mg123 3.171827 1_555
Mg120 Mg74 3.174048 1_555
Mg120 Mg140 3.175716 1_555
Mg120 Mg76 3.177735 1_555
Mg120 Mg80 3.178374 1_555
Mg120 Mg146 3.199852 1_555
Mg121 Mg126 3.170642 1_555
Mg121 Mg123 3.171835 1_665
Mg121 Mg95 3.174064 1_555
Mg121 Mg143 3.175715 1_555
Mg121 Mg122 3.175849 1_655
Mg121 Mg93 3.177719 1_555
Mg121 Mg91 3.178374 1_555
Mg121 Mg147 3.199860 1_555
Mg122 Mg126 3.170642 1_455
Mg122 Mg123 3.171821 1_565
Mg122 Mg96 3.174056 1_555
Mg122 Mg142 3.175731 1_555
Mg122 Mg93 3.177718 1_455
Mg122 Mg92 3.178390 1_555
Mg122 Mg148 3.199852 1_555
Mg123 Mg147 3.175783 1_445
Mg123 Mg146 3.175783 1_555
Mg123 Mg148 3.175783 1_545
Mg123 Mg95 3.181252 1_445
Mg123 Mg74 3.181252 1_555
Mg123 Mg96 3.181252 1_545
Mg124 Mg5 3.169175 1_556
Mg124 Mg145 3.169525 1_545
Mg124 Mg141 3.169549 1_655
Mg124 Mg134 3.173015 1_555
Mg124 Mg137 3.173032 1_555
Mg124 Mg3 3.176269 1_556
Mg124 Mg147 3.187845 1_545
Mg124 Mg146 3.187852 1_655
Mg125 Mg4 3.169159 1_556
Mg125 Mg140 3.169535 1_555
Mg125 Mg144 3.169550 1_545
Mg125 Mg135 3.172999 1_555
Mg125 Mg136 3.173007 1_555
Mg125 Mg2 3.176269 1_556
Mg125 Mg148 3.187860 1_545
Mg125 Mg146 3.187860 1_555
Mg126 Mg16 3.169159 1_556
Mg126 Mg143 3.169533 1_555
Mg126 Mg142 3.169549 1_655
Mg126 Mg139 3.173007 1_555
Mg126 Mg138 3.173016 1_555
Mg126 Mg21 3.176269 1_556
Mg126 Mg20 3.176269 1_556
Mg126 Mg148 3.187860 1_655
Mg126 Mg147 3.187861 1_555
Mg127 Mg13 3.175575 1_556
Mg127 Mg99 3.175962 1_555
Mg127 Mg131 3.179886 1_555
Mg127 Mg130 3.179894 1_555
Mg127 Mg7 3.182955 1_556
Mg127 Mg141 3.186444 1_555
Mg127 Mg140 3.186461 1_555
Mg127 Mg129 3.187161 1_555
Mg127 Mg128 3.187163 1_555
Mg128 Mg17 3.175575 1_556
Mg128 Mg99 3.175962 1_555
Mg128 Mg132 3.179886 1_555
Mg128 Mg131 3.179886 1_555
Mg128 Mg18 3.182939 1_556
Mg128 Mg142 3.186428 1_555
Mg128 Mg144 3.186429 1_555
Mg128 Mg129 3.187162 1_555
Mg129 Mg17 3.175575 1_556
Mg129 Mg13 3.175575 1_556
Mg129 Mg132 3.179887 1_555
Mg129 Mg130 3.179903 1_555
Mg129 Mg19 3.182947 1_556
Mg129 Mg145 3.186452 1_555
Mg129 Mg143 3.186460 1_555
Mg130 Mg8 3.174718 1_556
Mg130 Mg14 3.174725 1_556
Mg130 Mg136 3.178568 1_555
Mg130 Mg139 3.178574 1_555
Mg130 Mg140 3.191308 1_555
Mg130 Mg143 3.191324 1_555
Mg131 Mg15 3.174710 1_556
Mg131 Mg9 3.174726 1_556
Mg131 Mg99 3.177692 1_555
Mg131 Mg138 3.178575 1_455
Mg131 Mg137 3.178582 1_455
Mg131 Mg142 3.191301 1_555
Mg131 Mg141 3.191333 1_555
Mg132 Mg17 3.169339 1_556
Mg132 Mg22 3.174710 1_556
Mg132 Mg23 3.174725 1_556
Mg132 Mg134 3.178574 1_565
Mg132 Mg135 3.178584 1_565
Mg132 Mg144 3.191300 1_555
Mg132 Mg145 3.191324 1_555
Mg133 Mg6 3.175553 1_556
Mg133 Mg137 3.179977 1_555
Mg133 Mg138 3.179985 1_555
Mg133 Mg135 3.179993 1_555
Mg133 Mg134 3.179994 1_555
Mg133 Mg136 3.180009 1_555
Mg133 Mg139 3.180010 1_555
Mg134 Mg6 3.171032 1_556
Mg134 Mg23 3.172104 1_546
Mg134 Mg5 3.175897 1_556
Mg134 Mg135 3.177978 1_555
Mg134 Mg145 3.180796 1_545
Mg134 Mg137 3.182022 1_555
Mg135 Mg6 3.171040 1_556
Mg135 Mg22 3.172120 1_546
Mg135 Mg4 3.175897 1_556
Mg135 Mg144 3.180811 1_545
Mg135 Mg136 3.182015 1_555
Mg136 Mg8 3.172105 1_556
Mg136 Mg4 3.175897 1_556
Mg136 Mg139 3.177970 1_555
Mg136 Mg140 3.180795 1_555
Mg137 Mg9 3.172120 1_656
Mg137 Mg5 3.175897 1_556
Mg137 Mg138 3.177955 1_555
Mg137 Mg141 3.180827 1_655
Mg138 Mg15 3.172120 1_656
Mg138 Mg16 3.175905 1_556
Mg138 Mg142 3.180819 1_655
Mg138 Mg139 3.182022 1_555
Mg139 Mg14 3.172105 1_556
Mg139 Mg16 3.175897 1_556
Mg139 Mg143 3.180796 1_555
Mg140 Mg7 3.164562 1_556
Mg140 Mg8 3.167634 1_556
Mg140 Mg141 3.177406 1_555
Mg140 Mg2 3.182469 1_556
Mg140 Mg146 3.190649 1_555
Mg141 Mg7 3.164561 1_556
Mg141 Mg9 3.167634 1_556
Mg141 Mg3 3.182469 1_456
Mg141 Mg146 3.190643 1_555
Mg142 Mg18 3.164561 1_556
Mg142 Mg15 3.167634 1_556
Mg142 Mg144 3.177406 1_555
Mg142 Mg21 3.182477 1_456
Mg142 Mg148 3.190659 1_555
Mg143 Mg19 3.164570 1_556
Mg143 Mg145 3.177423 1_555
Mg143 Mg20 3.182460 1_556
Mg143 Mg147 3.190649 1_555
Mg144 Mg18 3.164562 1_556
Mg144 Mg22 3.167634 1_556
Mg144 Mg148 3.190657 1_555
Mg145 Mg19 3.164570 1_556
Mg145 Mg23 3.167634 1_556
Mg145 Mg147 3.190650 1_555
Mg146 Mg147 3.135185 1_445
Mg146 Mg148 3.135187 1_545
Mg146 Mg2 3.142597 1_556
Mg146 Mg3 3.142597 1_456
Mg147 Mg148 3.135186 1_655
Mg147 Mg20 3.142605 1_556
Mg148 Mg21 3.142597 1_456
Ga0 Mg147 3.135282 1_444
Ga0 Mg25 3.135282 1_445
Ga0 Mg146 3.135282 1_554
Ga0 Mg24 3.135282 1_555
Ga0 Mg148 3.135282 1_544
Ga0 Mg26 3.135282 1_545
Ga0 Mg2 3.142665 1_555
Ga0 Mg0 3.142665 1_555
Ga0 Mg21 3.142666 1_445
Ga0 Mg3 3.142666 1_455
Ga0 Mg20 3.142681 1_445
Ga0 Mg1 3.142681 1_455
