# generated using pymatgen
data_CaTl6C2(O3F)2
_symmetry_space_group_name_H-M   'P 1'
_cell_length_a   7.39887571
_cell_length_b   7.94716083
_cell_length_c   7.57661948
_cell_angle_alpha   121.47269761
_cell_angle_beta   87.86989156
_cell_angle_gamma   91.61103455
_symmetry_Int_Tables_number   1
_chemical_formula_structural   CaTl6C2(O3F)2
_chemical_formula_sum   'Ca1 Tl6 C2 O6 F2'
_cell_volume   379.68450558
_cell_formula_units_Z   1
loop_
 _symmetry_equiv_pos_site_id
 _symmetry_equiv_pos_as_xyz
  1  'x, y, z'
loop_
 _atom_site_type_symbol
 _atom_site_label
 _atom_site_symmetry_multiplicity
 _atom_site_fract_x
 _atom_site_fract_y
 _atom_site_fract_z
 _atom_site_occupancy
  Ca  Ca0  1  0.01364500  0.92779400  0.12796100  1
  Tl  Tl0  1  0.19377700  0.68208900  0.42821100  1
  Tl  Tl1  1  0.70398500  0.91863500  0.66963300  1
  Tl  Tl2  1  0.75863700  0.41879400  0.62381400  1
  Tl  Tl3  1  0.42625300  0.17234800  0.35110300  1
  Tl  Tl4  1  0.18220300  0.25693600  0.83281200  1
  Tl  Tl5  1  0.60097200  0.64504500  0.12914100  1
  C  C0  1  0.26496700  0.66608900  0.83901900  1
  C  C1  1  0.79146900  0.30403500  0.11833500  1
  O  O0  1  0.22390600  0.67004500  0.01143000  1
  O  O1  1  0.20216700  0.80986200  0.82292500  1
  O  O2  1  0.35919800  0.52483900  0.69327400  1
  O  O3  1  0.71239000  0.28747900  0.95791400  1
  O  O4  1  0.87679100  0.15327800  0.09615200  1
  O  O5  1  0.78365300  0.46889500  0.29416300  1
  F  F0  1  0.97367200  0.97860000  0.44080500  1
  F  F1  1  0.40106600  0.00690200  0.56330800  1
loop_
_geom_bond_atom_site_label_1
_geom_bond_atom_site_label_2
_geom_bond_distance
_geom_bond_site_symmetry_2
Ca0 F0 2.196382 1_455
Ca0 O4 2.205811 1_465
Ca0 O0 2.363088 1_555
Ca0 O1 2.395303 1_554
C0 O2 1.287633 1_555
C0 O1 1.309892 1_555
C0 O0 1.314473 1_556
C1 O5 1.292527 1_555
C1 O4 1.298680 1_555
C1 O3 1.310921 1_554
O1 Tl0 2.611122 1_555
O2 Tl3 2.685846 1_555
O3 Tl5 2.576883 1_556
O3 Tl1 2.584838 1_545
O5 Tl5 2.722047 1_555
O5 Tl2 2.725966 1_555
F0 Tl1 2.786861 1_555
F1 Tl4 2.537431 1_555
F1 Tl3 2.553396 1_555
F1 Tl1 2.641393 1_545
F1 Tl0 2.682989 1_545
