# generated using pymatgen
data_LaYAl4
_symmetry_space_group_name_H-M   'P 1'
_cell_length_a   5.67281082
_cell_length_b   5.67281082
_cell_length_c   5.67281082
_cell_angle_alpha   60.00000000
_cell_angle_beta   60.00000000
_cell_angle_gamma   60.00000000
_symmetry_Int_Tables_number   1
_chemical_formula_structural   LaYAl4
_chemical_formula_sum   'La1 Y1 Al4'
_cell_volume   129.08622622
_cell_formula_units_Z   1
loop_
 _symmetry_equiv_pos_site_id
 _symmetry_equiv_pos_as_xyz
  1  'x, y, z'
loop_
 _atom_site_type_symbol
 _atom_site_label
 _atom_site_symmetry_multiplicity
 _atom_site_fract_x
 _atom_site_fract_y
 _atom_site_fract_z
 _atom_site_occupancy
  La  La0  1  0.75000000  0.75000000  0.75000000  1
  Y  Y0  1  0.00000000  0.00000000  0.00000000  1
  Al  Al0  1  0.37501100  0.37501100  0.37501100  1
  Al  Al1  1  0.37501100  0.87496800  0.37501100  1
  Al  Al2  1  0.87496800  0.37501100  0.37501100  1
  Al  Al3  1  0.37501100  0.37501100  0.87496800  1
loop_
_geom_bond_atom_site_label_1
_geom_bond_atom_site_label_2
_geom_bond_distance
_geom_bond_site_symmetry_2
La0 Y0 3.473873 1_665
La0 Y0 3.473873 1_666
La0 Y0 3.473873 1_656
La0 Y0 3.473873 1_566
Al0 Al3 2.836161 1_555
Al0 Al1 2.836161 1_555
Al0 Al2 2.836161 1_555
Al0 Al1 2.836649 1_545
Al0 Al2 2.836649 1_455
Al0 Al3 2.836649 1_554
Al0 La0 3.325954 1_554
Al0 La0 3.325954 1_455
Al0 La0 3.325954 1_545
Al0 Y0 3.326007 1_655
Al0 Y0 3.326007 1_556
Al0 Y0 3.326007 1_565
Al1 Al3 2.836161 1_555
Al1 Al2 2.836161 1_555
Al1 Al3 2.836649 1_564
Al1 Al2 2.836649 1_465
Al1 La0 3.325951 1_555
Al1 La0 3.325956 1_554
Al1 La0 3.325956 1_455
Al1 Y0 3.326004 1_566
Al1 Y0 3.326004 1_665
Al1 Y0 3.326009 1_565
Al2 Al3 2.836161 1_555
Al2 Al3 2.836649 1_654
Al2 La0 3.325951 1_555
Al2 La0 3.325956 1_545
Al2 La0 3.325956 1_554
Al2 Y0 3.326004 1_656
Al2 Y0 3.326004 1_665
Al2 Y0 3.326009 1_655
Al3 La0 3.325951 1_555
Al3 La0 3.325956 1_455
Al3 La0 3.325956 1_545
Al3 Y0 3.326004 1_566
Al3 Y0 3.326004 1_656
Al3 Y0 3.326009 1_556
