# generated using pymatgen
data_Dy(Ni2B)6
_symmetry_space_group_name_H-M   'P 1'
_cell_length_a   6.00350851
_cell_length_b   6.00350851
_cell_length_c   6.00350830
_cell_angle_alpha   104.32091900
_cell_angle_beta   104.32091900
_cell_angle_gamma   104.32092270
_symmetry_Int_Tables_number   1
_chemical_formula_structural   Dy(Ni2B)6
_chemical_formula_sum   'Dy1 Ni12 B6'
_cell_volume   191.85667782
_cell_formula_units_Z   1
loop_
 _symmetry_equiv_pos_site_id
 _symmetry_equiv_pos_as_xyz
  1  'x, y, z'
loop_
 _atom_site_type_symbol
 _atom_site_label
 _atom_site_symmetry_multiplicity
 _atom_site_fract_x
 _atom_site_fract_y
 _atom_site_fract_z
 _atom_site_occupancy
  Dy  Dy0  1  0.00000000  0.00000000  0.00000000  1
  Ni  Ni0  1  0.86950900  0.13049100  0.50000000  1
  Ni  Ni1  1  0.13049100  0.50000000  0.86950900  1
  Ni  Ni2  1  0.50000000  0.86950900  0.13049100  1
  Ni  Ni3  1  0.86950900  0.50000000  0.13049100  1
  Ni  Ni4  1  0.50000000  0.13049100  0.86950900  1
  Ni  Ni5  1  0.13049100  0.86950900  0.50000000  1
  Ni  Ni6  1  0.81217400  0.54647700  0.54647700  1
  Ni  Ni7  1  0.54647700  0.54647700  0.81217400  1
  Ni  Ni8  1  0.54647700  0.81217400  0.54647700  1
  Ni  Ni9  1  0.18782600  0.45352300  0.45352300  1
  Ni  Ni10  1  0.45352300  0.45352300  0.18782600  1
  Ni  Ni11  1  0.45352300  0.18782600  0.45352300  1
  B  B0  1  0.33296400  0.76628900  0.76628900  1
  B  B1  1  0.76628900  0.76628900  0.33296400  1
  B  B2  1  0.76628900  0.33296400  0.76628900  1
  B  B3  1  0.66703600  0.23371100  0.23371100  1
  B  B4  1  0.23371100  0.23371100  0.66703600  1
  B  B5  1  0.23371100  0.66703600  0.23371100  1
loop_
_geom_bond_atom_site_label_1
_geom_bond_atom_site_label_2
_geom_bond_distance
_geom_bond_site_symmetry_2
Dy0 Ni10 3.064794 1_555
Dy0 Ni7 3.064794 1_444
Dy0 Ni11 3.064794 1_555
Dy0 Ni9 3.064794 1_555
Dy0 Ni6 3.064794 1_444
Dy0 Ni8 3.064794 1_444
Dy0 Ni0 3.246780 1_454
Dy0 Ni5 3.246780 1_545
Dy0 Ni5 3.246780 1_544
Dy0 Ni0 3.246780 1_455
Dy0 Ni3 3.246780 1_445
Dy0 Ni2 3.246780 1_445
Dy0 Ni1 3.246780 1_554
Dy0 Ni4 3.246780 1_554
Dy0 Ni4 3.246780 1_454
Dy0 Ni2 3.246780 1_545
Dy0 Ni3 3.246780 1_455
Dy0 Ni1 3.246780 1_544
B0 Ni2 2.026807 1_556
B0 Ni4 2.026807 1_565
B0 Ni8 2.074222 1_555
B0 Ni7 2.074222 1_555
B0 Ni1 2.078146 1_555
B0 Ni5 2.078146 1_555
B0 Ni9 2.108960 1_555
B0 Dy0 3.119970 1_566
B1 Ni0 2.026807 1_565
B1 Ni5 2.026807 1_655
B1 Ni8 2.074222 1_555
B1 Ni6 2.074222 1_555
B1 Ni3 2.078146 1_555
B1 Ni2 2.078146 1_555
B1 Ni10 2.108960 1_555
B1 Dy0 3.119970 1_665
B2 Ni3 2.026807 1_556
B2 Ni1 2.026807 1_655
B2 Ni6 2.074222 1_555
B2 Ni7 2.074222 1_555
B2 Ni4 2.078146 1_555
B2 Ni0 2.078146 1_555
B2 Ni11 2.108960 1_555
B2 Dy0 3.119970 1_656
B3 Ni4 2.026807 1_554
B3 Ni2 2.026807 1_545
B3 Ni11 2.074222 1_555
B3 Ni10 2.074222 1_555
B3 Ni3 2.078146 1_555
B3 Ni0 2.078146 1_555
B3 Ni6 2.108960 1_555
B3 Dy0 3.119970 1_655
B4 Ni0 2.026807 1_455
B4 Ni5 2.026807 1_545
B4 Ni9 2.074222 1_555
B4 Ni11 2.074222 1_555
B4 Ni1 2.078146 1_555
B4 Ni4 2.078146 1_555
B4 Ni7 2.108960 1_555
B4 Dy0 3.119970 1_556
B5 Ni1 2.026807 1_554
B5 Ni3 2.026807 1_455
B5 Ni9 2.074222 1_555
B5 Ni10 2.074222 1_555
B5 Ni2 2.078146 1_555
B5 Ni5 2.078146 1_555
B5 Ni8 2.108960 1_555
B5 Dy0 3.119970 1_565
