# generated using pymatgen
data_LaSb2Pd
_symmetry_space_group_name_H-M   'P 1'
_cell_length_a   4.53368656
_cell_length_b   4.53368656
_cell_length_c   10.13899602
_cell_angle_alpha   90.00000000
_cell_angle_beta   90.00000000
_cell_angle_gamma   90.00000000
_symmetry_Int_Tables_number   1
_chemical_formula_structural   LaSb2Pd
_chemical_formula_sum   'La2 Sb4 Pd2'
_cell_volume   208.40010606
_cell_formula_units_Z   2
loop_
 _symmetry_equiv_pos_site_id
 _symmetry_equiv_pos_as_xyz
  1  'x, y, z'
loop_
 _atom_site_type_symbol
 _atom_site_label
 _atom_site_symmetry_multiplicity
 _atom_site_fract_x
 _atom_site_fract_y
 _atom_site_fract_z
 _atom_site_occupancy
  La  La0  1  -0.00000000  0.50000000  0.74957203  1
  La  La1  1  0.50000000  0.00000000  0.25042797  1
  Sb  Sb0  1  0.50000000  0.50000000  -0.00000000  1
  Sb  Sb1  1  -0.00000000  -0.00000000  -0.00000000  1
  Sb  Sb2  1  -0.00000000  0.50000000  0.35765992  1
  Sb  Sb3  1  0.50000000  0.00000000  0.64234008  1
  Pd  Pd0  1  0.50000000  0.50000000  0.50000000  1
  Pd  Pd1  1  0.00000000  -0.00000000  0.50000000  1
loop_
_geom_bond_atom_site_label_1
_geom_bond_atom_site_label_2
_geom_bond_distance
_geom_bond_site_symmetry_2
La0 Sb3 3.385146 1_455
La0 Sb3 3.385146 1_565
La0 Sb3 3.385146 1_555
La0 Sb3 3.385146 1_465
La0 Pd1 3.397286 1_555
La0 Pd0 3.397286 1_455
La0 Pd1 3.397286 1_565
La0 Pd0 3.397286 1_555
La0 Sb0 3.403755 1_556
La0 Sb1 3.403755 1_556
La0 Sb0 3.403755 1_456
La0 Sb1 3.403755 1_566
La1 Sb2 3.385146 1_545
La1 Sb2 3.385146 1_655
La1 Sb2 3.385146 1_645
La1 Sb2 3.385146 1_555
La1 Pd0 3.397286 1_545
La1 Pd1 3.397286 1_555
La1 Pd0 3.397286 1_555
La1 Pd1 3.397286 1_655
La1 Sb1 3.403755 1_655
La1 Sb0 3.403755 1_545
La1 Sb0 3.403755 1_555
La1 Sb1 3.403755 1_555
Sb0 Sb1 3.205801 1_655
Sb0 Sb1 3.205801 1_665
Sb0 Sb1 3.205801 1_565
Sb0 Sb1 3.205801 1_555
Pd0 Sb2 2.687259 1_655
Pd0 Sb3 2.687259 1_565
Pd0 Sb3 2.687259 1_555
Pd0 Sb2 2.687259 1_555
Pd1 Sb3 2.687259 1_455
Pd1 Sb2 2.687259 1_545
Pd1 Sb3 2.687259 1_555
Pd1 Sb2 2.687259 1_555
