# generated using pymatgen
data_Mg2Ti3WS8
_symmetry_space_group_name_H-M   'P 1'
_cell_length_a   7.27502281
_cell_length_b   7.28352992
_cell_length_c   7.27488804
_cell_angle_alpha   60.52454824
_cell_angle_beta   60.60278179
_cell_angle_gamma   60.52282800
_symmetry_Int_Tables_number   1
_chemical_formula_structural   Mg2Ti3WS8
_chemical_formula_sum   'Mg2 Ti3 W1 S8'
_cell_volume   275.96295426
_cell_formula_units_Z   1
loop_
 _symmetry_equiv_pos_site_id
 _symmetry_equiv_pos_as_xyz
  1  'x, y, z'
loop_
 _atom_site_type_symbol
 _atom_site_label
 _atom_site_symmetry_multiplicity
 _atom_site_fract_x
 _atom_site_fract_y
 _atom_site_fract_z
 _atom_site_occupancy
  Mg  Mg0  1  0.87487900  0.87474600  0.87490300  1
  Mg  Mg1  1  0.12512200  0.12526700  0.12509000  1
  Ti  Ti0  1  0.50000900  0.49999700  0.00000700  1
  Ti  Ti1  1  0.99998900  0.49998800  0.50002500  1
  Ti  Ti2  1  0.49999200  0.99998800  0.50000300  1
  W  W0  1  0.49999200  0.50002800  0.49998600  1
  S  S0  1  0.74010300  0.74050400  0.74013100  1
  S  S1  1  0.25884300  0.25921600  0.72294900  1
  S  S2  1  0.25943900  0.72256200  0.25945900  1
  S  S3  1  0.72294000  0.25919900  0.25883600  1
  S  S4  1  0.74055300  0.27743600  0.74052700  1
  S  S5  1  0.27706400  0.74078800  0.74116800  1
  S  S6  1  0.25989700  0.25949100  0.25987700  1
  S  S7  1  0.74118200  0.74078500  0.27703900  1
loop_
_geom_bond_atom_site_label_1
_geom_bond_atom_site_label_2
_geom_bond_distance
_geom_bond_site_symmetry_2
Mg0 S0 2.389419 1_555
Mg0 S7 2.405833 1_556
Mg0 S5 2.406130 1_655
Mg0 S4 2.410095 1_565
Mg1 S6 2.389396 1_555
Mg1 S1 2.405864 1_554
Mg1 S3 2.406111 1_455
Mg1 S2 2.410183 1_545
S0 Ti2 2.484460 1_555
S0 Ti0 2.490786 1_556
S0 Ti1 2.490808 1_555
S1 Ti1 2.490188 1_455
S1 W0 2.494016 1_555
S1 Ti2 2.496714 1_545
S2 W0 2.484987 1_555
S2 Ti0 2.495874 1_555
S2 Ti1 2.495995 1_455
S3 Ti0 2.490091 1_555
S3 W0 2.494029 1_555
S3 Ti2 2.496722 1_545
S4 W0 2.485086 1_555
S4 Ti1 2.495807 1_555
S4 Ti0 2.496002 1_556
S5 Ti0 2.490213 1_556
S5 W0 2.493838 1_555
S5 Ti2 2.496564 1_555
S6 Ti2 2.484381 1_545
S6 Ti0 2.490866 1_555
S6 Ti1 2.490931 1_455
S7 Ti1 2.490245 1_555
S7 W0 2.493946 1_555
S7 Ti2 2.496673 1_555
