# generated using pymatgen
data_Nd2Ir7
_symmetry_space_group_name_H-M   'P 1'
_cell_length_a   13.49626601
_cell_length_b   13.49626601
_cell_length_c   13.49626569
_cell_angle_alpha   22.82115140
_cell_angle_beta   22.82115140
_cell_angle_gamma   22.82115154
_symmetry_Int_Tables_number   1
_chemical_formula_structural   Nd2Ir7
_chemical_formula_sum   'Nd4 Ir14'
_cell_volume   324.49914275
_cell_formula_units_Z   2
loop_
 _symmetry_equiv_pos_site_id
 _symmetry_equiv_pos_as_xyz
  1  'x, y, z'
loop_
 _atom_site_type_symbol
 _atom_site_label
 _atom_site_symmetry_multiplicity
 _atom_site_fract_x
 _atom_site_fract_y
 _atom_site_fract_z
 _atom_site_occupancy
  Nd  Nd0  1  0.94994637  0.94994637  0.94994637  1
  Nd  Nd1  1  0.05005363  0.05005363  0.05005363  1
  Nd  Nd2  1  0.85255897  0.85255897  0.85255897  1
  Nd  Nd3  1  0.14744103  0.14744103  0.14744103  1
  Ir  Ir0  1  0.50000000  0.50000000  0.50000000  1
  Ir  Ir1  1  0.72223352  0.72223352  0.72223352  1
  Ir  Ir2  1  0.27776648  0.27776648  0.27776648  1
  Ir  Ir3  1  0.61151246  0.61151246  0.61151246  1
  Ir  Ir4  1  0.38848754  0.38848754  0.38848754  1
  Ir  Ir5  1  0.50000000  0.50000000  0.00000000  1
  Ir  Ir6  1  -0.00000000  0.50000000  0.50000000  1
  Ir  Ir7  1  0.50000000  -0.00000000  0.50000000  1
  Ir  Ir8  1  0.39172503  0.88930359  0.39172503  1
  Ir  Ir9  1  0.39172503  0.39172503  0.88930359  1
  Ir  Ir10  1  0.88930359  0.39172503  0.39172503  1
  Ir  Ir11  1  0.60827497  0.11069641  0.60827497  1
  Ir  Ir12  1  0.60827497  0.60827497  0.11069641  1
  Ir  Ir13  1  0.11069641  0.60827497  0.60827497  1
loop_
_geom_bond_atom_site_label_1
_geom_bond_atom_site_label_2
_geom_bond_distance
_geom_bond_site_symmetry_2
Ir0 Ir12 2.739675 1_555
Ir0 Ir9 2.739675 1_555
Ir0 Ir11 2.739675 1_555
Ir0 Ir13 2.739675 1_555
Ir0 Ir8 2.739675 1_555
Ir0 Ir10 2.739675 1_555
Ir0 Nd3 3.174913 1_565
Ir0 Nd2 3.174913 1_545
Ir0 Nd2 3.174913 1_455
Ir0 Nd3 3.174913 1_655
Ir0 Nd3 3.174913 1_556
Ir0 Nd2 3.174913 1_554
Ir1 Ir12 2.617134 1_556
Ir1 Ir11 2.617134 1_565
Ir1 Ir13 2.617134 1_655
Ir1 Ir7 2.678440 1_565
Ir1 Ir6 2.678440 1_655
Ir1 Ir5 2.678440 1_556
Ir1 Nd1 3.090790 1_665
Ir1 Nd1 3.090790 1_566
Ir1 Nd1 3.090790 1_656
Ir2 Ir9 2.617134 1_554
Ir2 Ir8 2.617134 1_545
Ir2 Ir7 2.678440 1_555
Ir2 Ir6 2.678440 1_555
Ir2 Ir5 2.678440 1_555
Ir2 Nd0 3.090790 1_445
Ir2 Nd0 3.090790 1_454
Ir2 Nd0 3.090790 1_544
Ir3 Ir8 2.621496 1_555
Ir3 Ir9 2.621496 1_555
Ir3 Ir5 2.665155 1_556
Ir3 Ir7 2.665155 1_565
Ir3 Ir6 2.665155 1_655
Ir3 Nd0 3.089689 1_554
Ir3 Nd0 3.089689 1_545
Ir3 Nd0 3.089689 1_455
Ir4 Ir5 2.665155 1_555
Ir4 Ir6 2.665155 1_555
Ir4 Ir7 2.665155 1_555
Ir4 Nd1 3.089689 1_556
Ir4 Nd1 3.089689 1_565
Ir4 Nd1 3.089689 1_655
Ir5 Ir6 2.670078 1_555
Ir5 Ir7 2.670078 1_564
Ir5 Ir6 2.670078 1_654
Ir5 Ir7 2.670078 1_555
Ir5 Nd0 3.319960 1_454
Ir5 Nd0 3.319960 1_544
Ir5 Nd1 3.319960 1_655
Ir5 Nd1 3.319960 1_565
Ir6 Ir7 2.670078 1_555
Ir6 Ir7 2.670078 1_465
Ir6 Nd0 3.319959 1_454
Ir6 Nd1 3.319959 1_556
Ir6 Nd0 3.319960 1_445
Ir6 Nd1 3.319960 1_565
Ir7 Nd0 3.319959 1_544
Ir7 Nd1 3.319959 1_556
Ir7 Nd0 3.319960 1_445
Ir7 Nd1 3.319960 1_655
Ir8 Ir9 2.657147 1_555
Ir8 Ir9 2.683009 1_564
Ir8 Nd2 3.068490 1_554
Ir8 Nd2 3.068490 1_455
Ir8 Nd3 3.400967 1_565
Ir8 Nd0 3.541658 1_455
Ir8 Nd0 3.541658 1_554
Ir9 Nd2 3.068490 1_545
Ir9 Nd2 3.068490 1_455
Ir9 Nd3 3.400967 1_556
Ir9 Nd0 3.541658 1_545
Ir9 Nd0 3.541658 1_455
Ir10 Ir2 2.617134 1_655
Ir10 Ir3 2.621496 1_555
Ir10 Ir9 2.657147 1_555
Ir10 Ir8 2.657147 1_555
Ir10 Ir9 2.683009 1_654
Ir10 Ir8 2.683009 1_645
Ir10 Nd2 3.068490 1_554
Ir10 Nd2 3.068490 1_545
Ir10 Nd3 3.400967 1_655
Ir10 Nd0 3.541658 1_545
Ir10 Nd0 3.541658 1_554
Ir11 Ir4 2.621496 1_555
Ir11 Ir12 2.657147 1_555
Ir11 Ir13 2.657147 1_555
Ir11 Ir12 2.683009 1_546
Ir11 Ir13 2.683009 1_645
Ir11 Nd3 3.068490 1_556
Ir11 Nd3 3.068490 1_655
Ir11 Nd2 3.400967 1_545
Ir11 Nd1 3.541658 1_655
Ir11 Nd1 3.541658 1_556
Ir12 Ir4 2.621496 1_555
Ir12 Ir13 2.657147 1_555
Ir12 Ir13 2.683009 1_654
Ir12 Nd3 3.068490 1_655
Ir12 Nd3 3.068490 1_565
Ir12 Nd2 3.400967 1_554
Ir12 Nd1 3.541658 1_655
Ir12 Nd1 3.541658 1_565
Ir13 Ir4 2.621496 1_555
Ir13 Nd3 3.068490 1_556
Ir13 Nd3 3.068490 1_565
Ir13 Nd2 3.400967 1_455
Ir13 Nd1 3.541658 1_565
Ir13 Nd1 3.541658 1_556
