# generated using pymatgen
data_Mg2VWO6
_symmetry_space_group_name_H-M   'P 1'
_cell_length_a   5.20531344
_cell_length_b   5.55136273
_cell_length_c   9.03442728
_cell_angle_alpha   74.62706146
_cell_angle_beta   90.95135868
_cell_angle_gamma   62.58621971
_symmetry_Int_Tables_number   1
_chemical_formula_structural   Mg2VWO6
_chemical_formula_sum   'Mg4 V2 W2 O12'
_cell_volume   220.50449104
_cell_formula_units_Z   2
loop_
 _symmetry_equiv_pos_site_id
 _symmetry_equiv_pos_as_xyz
  1  'x, y, z'
loop_
 _atom_site_type_symbol
 _atom_site_label
 _atom_site_symmetry_multiplicity
 _atom_site_fract_x
 _atom_site_fract_y
 _atom_site_fract_z
 _atom_site_occupancy
  Mg  Mg0  1  0.67572400  0.64273600  0.88534300  1
  Mg  Mg1  1  0.17577100  0.64269100  0.38534100  1
  Mg  Mg2  1  0.93484800  0.14111600  0.63318000  1
  Mg  Mg3  1  0.43495700  0.14117200  0.13316500  1
  V  V0  1  0.73883200  0.51773700  0.23884900  1
  V  V1  1  0.23880200  0.51777000  0.73881400  1
  W  W0  1  0.98694100  0.02367800  0.98772300  1
  W  W1  1  0.48686200  0.02369900  0.48770400  1
  O  O0  1  0.48834400  0.29641900  0.59329100  1
  O  O1  1  0.98854000  0.29641000  0.09321200  1
  O  O2  1  0.96047400  0.81066200  0.85595800  1
  O  O3  1  0.46067700  0.81074900  0.35584800  1
  O  O4  1  0.39743800  0.80964500  0.68023400  1
  O  O5  1  0.89748200  0.80944300  0.18016000  1
  O  O6  1  0.43047600  0.80640300  0.04448900  1
  O  O7  1  0.93036100  0.80632400  0.54453100  1
  O  O8  1  0.04440300  0.30775800  0.43183800  1
  O  O9  1  0.54438600  0.30774900  0.93183100  1
  O  O10  1  0.01259100  0.30850100  0.79330800  1
  O  O11  1  0.51256600  0.30852700  0.29327500  1
loop_
_geom_bond_atom_site_label_1
_geom_bond_atom_site_label_2
_geom_bond_distance
_geom_bond_site_symmetry_2
Mg0 O4 2.038438 1_555
Mg0 O6 2.051334 1_556
Mg0 O2 2.071392 1_555
Mg0 O9 2.206386 1_555
Mg0 O1 2.230680 1_556
Mg0 O10 2.253731 1_655
Mg1 O5 2.039050 1_455
Mg1 O7 2.051962 1_455
Mg1 O3 2.072709 1_555
Mg1 O8 2.206213 1_555
Mg1 O0 2.230626 1_555
Mg1 O11 2.253525 1_555
Mg2 O8 2.029243 1_655
Mg2 O10 2.039508 1_655
Mg2 O0 2.058482 1_555
Mg2 O4 2.199103 1_645
Mg2 O7 2.219177 1_545
Mg2 O2 2.289558 1_545
Mg3 O9 2.028729 1_554
Mg3 O11 2.038974 1_555
Mg3 O1 2.058139 1_455
Mg3 O5 2.199293 1_545
Mg3 O6 2.219187 1_545
Mg3 O3 2.288734 1_545
O0 W1 1.994579 1_555
O0 V1 2.090258 1_555
O1 W0 1.994247 1_554
O1 V0 2.091327 1_555
O2 W0 1.930129 1_565
O2 V1 2.157982 1_655
O3 W1 1.929969 1_565
O3 V0 2.157147 1_555
O4 W1 2.023500 1_565
O4 V1 2.092660 1_555
O5 W0 2.023468 1_564
O5 V0 2.091935 1_555
O6 W0 2.028938 1_464
O6 V0 2.067264 1_555
O7 W1 2.028821 1_565
O7 V1 2.066885 1_655
O8 V0 2.012893 1_455
O8 W1 2.059357 1_555
O9 V1 2.013101 1_555
O9 W0 2.059755 1_555
O10 V1 1.988500 1_555
O10 W0 2.081498 1_455
O11 V0 1.988426 1_555
O11 W1 2.081716 1_555
