# generated using pymatgen
data_Mg2NiN2
_symmetry_space_group_name_H-M   'P 1'
_cell_length_a   5.54024062
_cell_length_b   5.54024062
_cell_length_c   6.47145333
_cell_angle_alpha   62.12014885
_cell_angle_beta   62.12014885
_cell_angle_gamma   44.74990179
_symmetry_Int_Tables_number   1
_chemical_formula_structural   Mg2NiN2
_chemical_formula_sum   'Mg4 Ni2 N4'
_cell_volume   120.64440761
_cell_formula_units_Z   2
loop_
 _symmetry_equiv_pos_site_id
 _symmetry_equiv_pos_as_xyz
  1  'x, y, z'
loop_
 _atom_site_type_symbol
 _atom_site_label
 _atom_site_symmetry_multiplicity
 _atom_site_fract_x
 _atom_site_fract_y
 _atom_site_fract_z
 _atom_site_occupancy
  Mg  Mg0  1  0.32322100  0.32322100  0.57706200  1
  Mg  Mg1  1  0.67677900  0.67677900  0.42293800  1
  Mg  Mg2  1  0.96364400  0.96364400  0.74644400  1
  Mg  Mg3  1  0.03635600  0.03635600  0.25355600  1
  Ni  Ni0  1  0.62700400  0.62700400  0.87734900  1
  Ni  Ni1  1  0.37299600  0.37299600  0.12265100  1
  N  N0  1  0.82009000  0.82009000  0.60096600  1
  N  N1  1  0.17991000  0.17991000  0.39903400  1
  N  N2  1  0.52927900  0.52927900  0.20334400  1
  N  N3  1  0.47072100  0.47072100  0.79665600  1
loop_
_geom_bond_atom_site_label_1
_geom_bond_atom_site_label_2
_geom_bond_distance
_geom_bond_site_symmetry_2
Mg0 N0 2.113704 1_545
Mg0 N0 2.113704 1_455
Mg0 N2 2.267701 1_555
Mg0 N1 2.279153 1_555
Mg0 N3 2.544755 1_555
Mg1 N1 2.113704 1_565
Mg1 N1 2.113704 1_655
Mg1 N3 2.267701 1_555
Mg1 N0 2.279153 1_555
Mg1 N2 2.544755 1_555
Mg2 N0 2.109596 1_555
Mg2 N3 2.140673 1_655
Mg2 N3 2.140673 1_565
Mg2 N1 2.219520 1_665
Mg3 N1 2.109596 1_555
Mg3 N2 2.140673 1_545
Mg3 N2 2.140673 1_455
Mg3 N0 2.219520 1_445
N0 Ni0 1.879982 1_555
N1 Ni1 1.879982 1_555
N2 Ni0 1.821215 1_554
N2 Ni1 1.919019 1_555
N3 Ni1 1.821215 1_556
N3 Ni0 1.919019 1_555
