# generated using pymatgen
data_Mg14SnBiO16
_symmetry_space_group_name_H-M   'P 1'
_cell_length_a   8.83115183
_cell_length_b   8.83115183
_cell_length_c   4.53227518
_cell_angle_alpha   90.00000000
_cell_angle_beta   90.00000000
_cell_angle_gamma   90.00000000
_symmetry_Int_Tables_number   1
_chemical_formula_structural   Mg14SnBiO16
_chemical_formula_sum   'Mg14 Sn1 Bi1 O16'
_cell_volume   353.46870874
_cell_formula_units_Z   1
loop_
 _symmetry_equiv_pos_site_id
 _symmetry_equiv_pos_as_xyz
  1  'x, y, z'
loop_
 _atom_site_type_symbol
 _atom_site_label
 _atom_site_symmetry_multiplicity
 _atom_site_fract_x
 _atom_site_fract_y
 _atom_site_fract_z
 _atom_site_occupancy
  Mg  Mg0  1  -0.00000000  0.50000000  0.00000000  1
  Mg  Mg1  1  0.50000000  -0.00000000  0.00000000  1
  Mg  Mg2  1  -0.00000000  0.25698640  0.50000000  1
  Mg  Mg3  1  -0.00000000  0.74301360  0.50000000  1
  Mg  Mg4  1  0.50000000  0.23885768  0.50000000  1
  Mg  Mg5  1  0.50000000  0.76114232  0.50000000  1
  Mg  Mg6  1  0.25698640  -0.00000000  0.50000000  1
  Mg  Mg7  1  0.23885768  0.50000000  0.50000000  1
  Mg  Mg8  1  0.74301360  -0.00000000  0.50000000  1
  Mg  Mg9  1  0.76114232  0.50000000  0.50000000  1
  Mg  Mg10  1  0.24702199  0.24702199  0.00000000  1
  Mg  Mg11  1  0.24702199  0.75297801  0.00000000  1
  Mg  Mg12  1  0.75297801  0.24702199  -0.00000000  1
  Mg  Mg13  1  0.75297801  0.75297801  -0.00000000  1
  Sn  Sn0  1  -0.00000000  -0.00000000  0.00000000  1
  Bi  Bi0  1  0.50000000  0.50000000  0.00000000  1
  O  O0  1  0.27010572  -0.00000000  0.00000000  1
  O  O1  1  0.23259829  0.50000000  0.00000000  1
  O  O2  1  0.72989428  -0.00000000  0.00000000  1
  O  O3  1  0.76740171  0.50000000  -0.00000000  1
  O  O4  1  0.24942773  0.24942773  0.50000000  1
  O  O5  1  0.24942773  0.75057227  0.50000000  1
  O  O6  1  0.75057227  0.24942773  0.50000000  1
  O  O7  1  0.75057227  0.75057227  0.50000000  1
  O  O8  1  -0.00000000  -0.00000000  0.50000000  1
  O  O9  1  -0.00000000  0.50000000  0.50000000  1
  O  O10  1  0.50000000  -0.00000000  0.50000000  1
  O  O11  1  0.50000000  0.50000000  0.50000000  1
  O  O12  1  -0.00000000  0.27010572  -0.00000000  1
  O  O13  1  -0.00000000  0.72989428  -0.00000000  1
  O  O14  1  0.50000000  0.23259829  0.00000000  1
  O  O15  1  0.50000000  0.76740171  -0.00000000  1
loop_
_geom_bond_atom_site_label_1
_geom_bond_atom_site_label_2
_geom_bond_distance
_geom_bond_site_symmetry_2
Mg0 O12 2.030231 1_555
Mg0 O13 2.030231 1_555
Mg0 O3 2.054111 1_455
Mg0 O1 2.054111 1_555
Mg0 O9 2.266138 1_554
Mg0 O9 2.266138 1_555
Mg1 O0 2.030231 1_555
Mg1 O2 2.030231 1_555
Mg1 O14 2.054111 1_555
Mg1 O15 2.054111 1_545
Mg1 O10 2.266138 1_555
Mg1 O10 2.266138 1_554
Mg2 O9 2.146090 1_555
Mg2 O6 2.203745 1_455
Mg2 O4 2.203745 1_555
Mg2 O12 2.269097 1_555
Mg2 O12 2.269097 1_556
Mg2 O8 2.269486 1_555
Mg3 O9 2.146090 1_555
Mg3 O5 2.203745 1_555
Mg3 O7 2.203745 1_455
Mg3 O13 2.269097 1_555
Mg3 O13 2.269097 1_556
Mg3 O8 2.269486 1_565
Mg4 O10 2.109388 1_555
Mg4 O4 2.214810 1_555
Mg4 O6 2.214810 1_555
Mg4 O14 2.266812 1_556
Mg4 O14 2.266812 1_555
Mg4 O11 2.306187 1_555
Mg5 O10 2.109388 1_565
Mg5 O7 2.214810 1_555
Mg5 O5 2.214810 1_555
Mg5 O15 2.266812 1_556
Mg5 O15 2.266812 1_555
Mg5 O11 2.306187 1_555
Mg6 O10 2.146090 1_555
Mg6 O5 2.203745 1_545
Mg6 O4 2.203745 1_555
Mg6 O0 2.269097 1_555
Mg6 O0 2.269097 1_556
Mg6 O8 2.269486 1_555
Mg7 O9 2.109388 1_555
Mg7 O4 2.214810 1_555
Mg7 O5 2.214810 1_555
Mg7 O1 2.266812 1_556
Mg7 O1 2.266812 1_555
Mg7 O11 2.306187 1_555
Mg8 O10 2.146090 1_555
Mg8 O6 2.203745 1_555
Mg8 O7 2.203745 1_545
Mg8 O2 2.269097 1_556
Mg8 O2 2.269097 1_555
Mg8 O8 2.269486 1_655
Mg9 O9 2.109388 1_655
Mg9 O7 2.214810 1_555
Mg9 O6 2.214810 1_555
Mg9 O3 2.266812 1_556
Mg9 O3 2.266812 1_555
Mg9 O11 2.306187 1_555
Mg10 O0 2.190993 1_555
Mg10 O12 2.190993 1_555
Mg10 O1 2.237716 1_555
Mg10 O14 2.237716 1_555
Mg10 O4 2.266337 1_554
Mg10 O4 2.266337 1_555
Mg11 O13 2.190993 1_555
Mg11 O0 2.190993 1_565
Mg11 O1 2.237716 1_555
Mg11 O15 2.237716 1_555
Mg11 O5 2.266337 1_554
Mg11 O5 2.266337 1_555
Mg12 O2 2.190993 1_555
Mg12 O12 2.190993 1_655
Mg12 O3 2.237716 1_555
Mg12 O14 2.237716 1_555
Mg12 O6 2.266337 1_555
Mg12 O6 2.266337 1_554
Mg13 O13 2.190993 1_655
Mg13 O2 2.190993 1_565
Mg13 O3 2.237716 1_555
Mg13 O15 2.237716 1_555
Mg13 O7 2.266337 1_555
Mg13 O7 2.266337 1_554
Bi0 O11 2.266138 1_555
Bi0 O11 2.266138 1_554
Bi0 O1 2.361465 1_555
Bi0 O14 2.361465 1_555
Bi0 O15 2.361465 1_555
Bi0 O3 2.361465 1_555
O0 Sn0 2.385345 1_555
O2 Sn0 2.385345 1_655
O8 Sn0 2.266138 1_556
O8 Sn0 2.266138 1_555
O12 Sn0 2.385345 1_555
O13 Sn0 2.385345 1_565
