# generated using pymatgen
data_Mg2VMo3S8
_symmetry_space_group_name_H-M   'P 1'
_cell_length_a   7.38743608
_cell_length_b   7.38450798
_cell_length_c   7.39036761
_cell_angle_alpha   60.31181594
_cell_angle_beta   60.28759075
_cell_angle_gamma   60.36852057
_symmetry_Int_Tables_number   1
_chemical_formula_structural   Mg2VMo3S8
_chemical_formula_sum   'Mg2 V1 Mo3 S8'
_cell_volume   287.16053962
_cell_formula_units_Z   1
loop_
 _symmetry_equiv_pos_site_id
 _symmetry_equiv_pos_as_xyz
  1  'x, y, z'
loop_
 _atom_site_type_symbol
 _atom_site_label
 _atom_site_symmetry_multiplicity
 _atom_site_fract_x
 _atom_site_fract_y
 _atom_site_fract_z
 _atom_site_occupancy
  Mg  Mg0  1  0.87662200  0.87668200  0.87638400  1
  Mg  Mg1  1  0.12337000  0.12334500  0.12360700  1
  V  V0  1  0.50002300  0.50006500  0.49989800  1
  Mo  Mo0  1  0.50001000  0.49999700  0.00003300  1
  Mo  Mo1  1  0.00000200  0.49997900  0.50002900  1
  Mo  Mo2  1  0.49998000  0.99996400  0.50001400  1
  S  S0  1  0.73911600  0.73919000  0.73953400  1
  S  S1  1  0.26384400  0.26384500  0.71578900  1
  S  S2  1  0.26346600  0.71583500  0.26381500  1
  S  S3  1  0.71582100  0.26338800  0.26375200  1
  S  S4  1  0.73646400  0.28420300  0.73617300  1
  S  S5  1  0.28417900  0.73654400  0.73630600  1
  S  S6  1  0.26088000  0.26080400  0.26048700  1
  S  S7  1  0.73622800  0.73615500  0.28418000  1
loop_
_geom_bond_atom_site_label_1
_geom_bond_atom_site_label_2
_geom_bond_distance
_geom_bond_site_symmetry_2
Mg0 S4 2.468908 1_565
Mg0 S5 2.469422 1_655
Mg0 S7 2.470454 1_556
Mg0 S0 2.478116 1_555
Mg1 S2 2.468831 1_545
Mg1 S3 2.469369 1_455
Mg1 S1 2.470593 1_554
Mg1 S6 2.478122 1_555
Mo0 S0 2.508408 1_554
Mo0 S6 2.508504 1_555
Mo0 S2 2.518155 1_555
Mo0 S4 2.518367 1_554
Mo0 S3 2.519051 1_555
Mo0 S5 2.519195 1_554
Mo1 S0 2.513332 1_455
Mo1 S6 2.513333 1_555
Mo1 S2 2.513915 1_555
Mo1 S4 2.513926 1_455
Mo1 S1 2.519546 1_555
Mo1 S7 2.519614 1_455
Mo2 S5 2.513340 1_555
Mo2 S3 2.513561 1_565
Mo2 S6 2.514239 1_565
Mo2 S0 2.514349 1_555
Mo2 S7 2.518293 1_555
Mo2 S1 2.518399 1_565
S1 V0 2.475027 1_555
S2 V0 2.480356 1_555
S3 V0 2.479932 1_555
S4 V0 2.480732 1_555
S5 V0 2.480260 1_555
S7 V0 2.474532 1_555
