# generated using pymatgen
data_Ca3Co2O7
_symmetry_space_group_name_H-M   'P 1'
_cell_length_a   10.00815756
_cell_length_b   10.00815756
_cell_length_c   5.30808500
_cell_angle_alpha   90.00000000
_cell_angle_beta   90.00000000
_cell_angle_gamma   149.54018023
_symmetry_Int_Tables_number   1
_chemical_formula_structural   Ca3Co2O7
_chemical_formula_sum   'Ca6 Co4 O14'
_cell_volume   269.52406915
_cell_formula_units_Z   2
loop_
 _symmetry_equiv_pos_site_id
 _symmetry_equiv_pos_as_xyz
  1  'x, y, z'
loop_
 _atom_site_type_symbol
 _atom_site_label
 _atom_site_symmetry_multiplicity
 _atom_site_fract_x
 _atom_site_fract_y
 _atom_site_fract_z
 _atom_site_occupancy
  Ca  Ca0  1  0.24256500  0.24256500  0.29460900  1
  Ca  Ca1  1  0.75743500  0.75743500  0.79460900  1
  Ca  Ca2  1  0.05796000  0.43076500  0.21099700  1
  Ca  Ca3  1  0.94204000  0.56923500  0.71099700  1
  Ca  Ca4  1  0.43076500  0.05796000  0.21099700  1
  Ca  Ca5  1  0.56923500  0.94204000  0.71099700  1
  Co  Co0  1  0.84764300  0.65315400  0.25167600  1
  Co  Co1  1  0.15235700  0.34684600  0.75167600  1
  Co  Co2  1  0.34684600  0.15235700  0.75167600  1
  Co  Co3  1  0.65315400  0.84764300  0.25167600  1
  O  O0  1  0.60278300  0.99265900  0.25717100  1
  O  O1  1  0.39721700  0.00734100  0.75717100  1
  O  O2  1  0.00734100  0.39721700  0.75717100  1
  O  O3  1  0.99265900  0.60278300  0.25717100  1
  O  O4  1  0.42902700  0.65219200  0.96120800  1
  O  O5  1  0.57097300  0.34780800  0.46120800  1
  O  O6  1  0.34780800  0.57097300  0.46120800  1
  O  O7  1  0.65219200  0.42902700  0.96120800  1
  O  O8  1  0.96019200  0.12551700  0.04384900  1
  O  O9  1  0.03980800  0.87448300  0.54384900  1
  O  O10  1  0.67463000  0.67463000  0.23558700  1
  O  O11  1  0.32537000  0.32537000  0.73558700  1
  O  O12  1  0.12551700  0.96019200  0.04384900  1
  O  O13  1  0.87448300  0.03980800  0.54384900  1
loop_
_geom_bond_atom_site_label_1
_geom_bond_atom_site_label_2
_geom_bond_distance
_geom_bond_site_symmetry_2
Ca0 O10 2.293360 1_555
Ca0 O12 2.328778 1_545
Ca0 O8 2.328778 1_455
Ca0 O11 2.380899 1_555
Ca0 O13 2.559570 1_455
Ca0 O9 2.559570 1_545
Ca0 O5 2.593454 1_555
Ca0 O6 2.593454 1_555
Ca1 O11 2.293360 1_555
Ca1 O9 2.328778 1_655
Ca1 O13 2.328778 1_565
Ca1 O10 2.380899 1_556
Ca1 O12 2.559570 1_656
Ca1 O8 2.559570 1_566
Ca1 O7 2.593454 1_555
Ca1 O4 2.593454 1_555
Ca2 O6 2.265042 1_555
Ca2 O3 2.321794 1_455
Ca2 O0 2.367007 1_445
Ca2 O2 2.424699 1_554
Ca2 O8 2.433952 1_455
Ca2 O4 2.504509 1_554
Ca3 O7 2.265042 1_555
Ca3 O2 2.321794 1_655
Ca3 O1 2.367007 1_665
Ca3 O3 2.424699 1_555
Ca3 O9 2.433952 1_655
Ca3 O5 2.504509 1_555
Ca4 O5 2.265042 1_555
Ca4 O0 2.321794 1_545
Ca4 O3 2.367007 1_445
Ca4 O1 2.424699 1_554
Ca4 O12 2.433952 1_545
Ca4 O7 2.504509 1_554
Ca5 O4 2.265042 1_555
Ca5 O1 2.321794 1_565
Ca5 O2 2.367007 1_665
Ca5 O0 2.424699 1_555
Ca5 O13 2.433952 1_565
Ca5 O6 2.504509 1_555
Co0 O3 1.903347 1_555
Co0 O5 1.911831 1_555
Co0 O12 1.913384 1_655
Co0 O9 1.914768 1_655
Co0 O7 1.915920 1_554
Co0 O10 1.921805 1_555
Co1 O2 1.903347 1_555
Co1 O4 1.911831 1_555
Co1 O13 1.913384 1_455
Co1 O8 1.914768 1_456
Co1 O6 1.915920 1_555
Co1 O11 1.921805 1_555
Co2 O1 1.903347 1_555
Co2 O7 1.911831 1_555
Co2 O9 1.913384 1_545
Co2 O12 1.914768 1_546
Co2 O5 1.915920 1_555
Co2 O11 1.921805 1_555
Co3 O0 1.903347 1_555
Co3 O6 1.911831 1_555
Co3 O8 1.913384 1_565
Co3 O13 1.914768 1_565
Co3 O4 1.915920 1_554
Co3 O10 1.921805 1_555
