# generated using pymatgen
data_Tm4Ge6Ir7
_symmetry_space_group_name_H-M   'P 1'
_cell_length_a   7.18492829
_cell_length_b   7.18492829
_cell_length_c   7.18492829
_cell_angle_alpha   109.47122063
_cell_angle_beta   109.47122063
_cell_angle_gamma   109.47122063
_symmetry_Int_Tables_number   1
_chemical_formula_structural   Tm4Ge6Ir7
_chemical_formula_sum   'Tm4 Ge6 Ir7'
_cell_volume   285.52584298
_cell_formula_units_Z   1
loop_
 _symmetry_equiv_pos_site_id
 _symmetry_equiv_pos_as_xyz
  1  'x, y, z'
loop_
 _atom_site_type_symbol
 _atom_site_label
 _atom_site_symmetry_multiplicity
 _atom_site_fract_x
 _atom_site_fract_y
 _atom_site_fract_z
 _atom_site_occupancy
  Tm  Tm0  1  0.00000000  0.00000000  0.50000000  1
  Tm  Tm1  1  0.00000000  0.50000000  0.00000000  1
  Tm  Tm2  1  0.50000000  0.00000000  0.00000000  1
  Tm  Tm3  1  0.50000000  0.50000000  0.50000000  1
  Ge  Ge0  1  0.68265963  0.68265963  -0.00000000  1
  Ge  Ge1  1  0.31734037  0.00000000  0.31734037  1
  Ge  Ge2  1  0.00000000  0.31734037  0.31734037  1
  Ge  Ge3  1  0.31734037  0.31734037  0.00000000  1
  Ge  Ge4  1  0.68265963  -0.00000000  0.68265963  1
  Ge  Ge5  1  -0.00000000  0.68265963  0.68265963  1
  Ir  Ir0  1  0.75000000  0.25000000  0.50000000  1
  Ir  Ir1  1  0.75000000  0.50000000  0.25000000  1
  Ir  Ir2  1  0.50000000  0.25000000  0.75000000  1
  Ir  Ir3  1  0.25000000  0.50000000  0.75000000  1
  Ir  Ir4  1  0.25000000  0.75000000  0.50000000  1
  Ir  Ir5  1  0.50000000  0.75000000  0.25000000  1
  Ir  Ir6  1  0.00000000  0.00000000  0.00000000  1
loop_
_geom_bond_atom_site_label_1
_geom_bond_atom_site_label_2
_geom_bond_distance
_geom_bond_site_symmetry_2
Ge0 Ir1 2.568744 1_555
Ge0 Ir5 2.568744 1_555
Ge0 Ir2 2.568744 1_554
Ge0 Ir3 2.568744 1_554
Ge0 Ir6 2.632796 1_665
Ge0 Tm3 2.985966 1_554
Ge0 Tm0 2.985966 1_665
Ge0 Tm1 2.985966 1_655
Ge0 Tm2 2.985966 1_565
Ge1 Ir5 2.568744 1_545
Ge1 Ir2 2.568744 1_555
Ge1 Ir0 2.568744 1_555
Ge1 Ir4 2.568744 1_545
Ge1 Ir6 2.632796 1_555
Ge1 Tm1 2.985966 1_545
Ge1 Tm0 2.985966 1_555
Ge1 Tm2 2.985966 1_555
Ge1 Tm3 2.985966 1_555
Ge2 Ir4 2.568744 1_555
Ge2 Ir0 2.568744 1_455
Ge2 Ir3 2.568744 1_555
Ge2 Ir1 2.568744 1_455
Ge2 Ir6 2.632796 1_555
Ge2 Tm0 2.985966 1_555
Ge2 Tm3 2.985966 1_555
Ge2 Tm2 2.985966 1_455
Ge2 Tm1 2.985966 1_555
Ge3 Ir1 2.568744 1_555
Ge3 Ir5 2.568744 1_555
Ge3 Ir2 2.568744 1_554
Ge3 Ir3 2.568744 1_554
Ge3 Ir6 2.632796 1_555
Ge3 Tm3 2.985966 1_555
Ge3 Tm2 2.985966 1_555
Ge3 Tm0 2.985966 1_554
Ge3 Tm1 2.985966 1_555
Ge4 Ir5 2.568744 1_545
Ge4 Ir2 2.568744 1_555
Ge4 Ir0 2.568744 1_555
Ge4 Ir4 2.568744 1_545
Ge4 Ir6 2.632796 1_656
Ge4 Tm2 2.985966 1_556
Ge4 Tm0 2.985966 1_655
Ge4 Tm3 2.985966 1_545
Ge4 Tm1 2.985966 1_656
Ge5 Ir4 2.568744 1_555
Ge5 Ir0 2.568744 1_455
Ge5 Ir3 2.568744 1_555
Ge5 Ir1 2.568744 1_455
Ge5 Ir6 2.632796 1_566
Ge5 Tm3 2.985966 1_455
Ge5 Tm0 2.985966 1_565
Ge5 Tm2 2.985966 1_566
Ge5 Tm1 2.985966 1_556
Ir0 Tm2 2.933235 1_555
Ir0 Tm0 2.933235 1_655
Ir0 Tm3 2.933235 1_555
Ir0 Tm1 2.933235 1_656
Ir1 Tm2 2.933235 1_555
Ir1 Tm3 2.933235 1_555
Ir1 Tm1 2.933235 1_655
Ir1 Tm0 2.933235 1_665
Ir2 Tm3 2.933235 1_555
Ir2 Tm1 2.933235 1_656
Ir2 Tm2 2.933235 1_556
Ir2 Tm0 2.933235 1_555
Ir3 Tm2 2.933235 1_566
Ir3 Tm3 2.933235 1_555
Ir3 Tm1 2.933235 1_556
Ir3 Tm0 2.933235 1_555
Ir4 Tm0 2.933235 1_565
Ir4 Tm2 2.933235 1_566
Ir4 Tm3 2.933235 1_555
Ir4 Tm1 2.933235 1_555
Ir5 Tm3 2.933235 1_555
Ir5 Tm1 2.933235 1_555
Ir5 Tm0 2.933235 1_665
Ir5 Tm2 2.933235 1_565
