# generated using pymatgen
data_BaCoSe2
_symmetry_space_group_name_H-M   'P 1'
_cell_length_a   4.19959078
_cell_length_b   4.19959112
_cell_length_c   6.31234051
_cell_angle_alpha   109.42963785
_cell_angle_beta   109.42963843
_cell_angle_gamma   90.00000899
_symmetry_Int_Tables_number   1
_chemical_formula_structural   BaCoSe2
_chemical_formula_sum   'Ba1 Co1 Se2'
_cell_volume   98.23957830
_cell_formula_units_Z   1
loop_
 _symmetry_equiv_pos_site_id
 _symmetry_equiv_pos_as_xyz
  1  'x, y, z'
loop_
 _atom_site_type_symbol
 _atom_site_label
 _atom_site_symmetry_multiplicity
 _atom_site_fract_x
 _atom_site_fract_y
 _atom_site_fract_z
 _atom_site_occupancy
  Ba  Ba0  1  0.00000000  0.00000000  0.00000000  1
  Co  Co0  1  0.25000000  0.75000000  0.50000000  1
  Se  Se0  1  0.65870300  0.65870300  0.31740700  1
  Se  Se1  1  0.34129700  0.34129700  0.68259300  1
loop_
_geom_bond_atom_site_label_1
_geom_bond_atom_site_label_2
_geom_bond_distance
_geom_bond_site_symmetry_2
Ba0 Se0 3.456036 1_555
Ba0 Se1 3.456036 1_444
Ba0 Se0 3.456039 1_545
Ba0 Se1 3.456039 1_454
Ba0 Se1 3.456039 1_544
Ba0 Se0 3.456039 1_455
Ba0 Se1 3.456040 1_554
Ba0 Se0 3.456040 1_445
Ba0 Co0 3.487977 1_544
Ba0 Co0 3.487977 1_545
Ba0 Co0 3.487977 1_444
Ba0 Co0 3.487978 1_555
Ba0 Se1 3.802195 1_555
Ba0 Se0 3.802195 1_444
Co0 Se0 2.333150 1_555
Co0 Se1 2.333150 1_555
Co0 Se0 2.333154 1_455
Co0 Se1 2.333155 1_565
