# generated using pymatgen
data_YGeAu
_symmetry_space_group_name_H-M   'P 1'
_cell_length_a   4.41942326
_cell_length_b   4.41942301
_cell_length_c   7.42055347
_cell_angle_alpha   90.00000000
_cell_angle_beta   90.00000000
_cell_angle_gamma   120.00000933
_symmetry_Int_Tables_number   1
_chemical_formula_structural   YGeAu
_chemical_formula_sum   'Y2 Ge2 Au2'
_cell_volume   125.51570207
_cell_formula_units_Z   2
loop_
 _symmetry_equiv_pos_site_id
 _symmetry_equiv_pos_as_xyz
  1  'x, y, z'
loop_
 _atom_site_type_symbol
 _atom_site_label
 _atom_site_symmetry_multiplicity
 _atom_site_fract_x
 _atom_site_fract_y
 _atom_site_fract_z
 _atom_site_occupancy
  Y  Y0  1  0.00000000  0.00000000  0.53386465  1
  Y  Y1  1  0.00000000  0.00000000  0.03386465  1
  Ge  Ge0  1  0.66666700  0.33333300  0.32525029  1
  Ge  Ge1  1  0.33333300  0.66666700  0.82525029  1
  Au  Au0  1  0.33333300  0.66666700  0.24998506  1
  Au  Au1  1  0.66666700  0.33333300  0.74998506  1
loop_
_geom_bond_atom_site_label_1
_geom_bond_atom_site_label_2
_geom_bond_distance
_geom_bond_site_symmetry_2
Ge0 Y0 2.984431 1_655
Ge0 Y0 2.984434 1_665
Ge0 Y0 2.984434 1_555
Ge0 Y1 3.344505 1_655
Ge0 Y1 3.344508 1_665
Ge0 Y1 3.344508 1_555
Ge1 Y1 2.984431 1_566
Ge1 Y1 2.984434 1_556
Ge1 Y1 2.984434 1_666
Ge1 Y0 3.344505 1_565
Ge1 Y0 3.344508 1_555
Ge1 Y0 3.344508 1_665
Au0 Ge0 2.611963 1_565
Au0 Ge0 2.611963 1_455
Au0 Ge0 2.611971 1_555
Au0 Y1 3.013699 1_565
Au0 Y1 3.013702 1_555
Au0 Y1 3.013702 1_665
Au0 Ge1 3.151767 1_554
Au0 Y0 3.308768 1_565
Au0 Y0 3.308771 1_555
Au0 Y0 3.308771 1_665
Au1 Ge1 2.611963 1_545
Au1 Ge1 2.611963 1_655
Au1 Ge1 2.611971 1_555
Au1 Y0 3.013699 1_655
Au1 Y0 3.013702 1_665
Au1 Y0 3.013702 1_555
Au1 Ge0 3.151767 1_555
Au1 Y1 3.308768 1_656
Au1 Y1 3.308771 1_666
Au1 Y1 3.308771 1_556
