# generated using pymatgen
data_NaMg30FeO32
_symmetry_space_group_name_H-M   'P 1'
_cell_length_a   8.51867500
_cell_length_b   8.51867500
_cell_length_c   8.53363200
_cell_angle_alpha   90.00000000
_cell_angle_beta   90.00000000
_cell_angle_gamma   90.00000000
_symmetry_Int_Tables_number   1
_chemical_formula_structural   NaMg30FeO32
_chemical_formula_sum   'Na1 Mg30 Fe1 O32'
_cell_volume   619.26710297
_cell_formula_units_Z   1
loop_
 _symmetry_equiv_pos_site_id
 _symmetry_equiv_pos_as_xyz
  1  'x, y, z'
loop_
 _atom_site_type_symbol
 _atom_site_label
 _atom_site_symmetry_multiplicity
 _atom_site_fract_x
 _atom_site_fract_y
 _atom_site_fract_z
 _atom_site_occupancy
  Na  Na0  1  0.50000000  0.50000000  0.00000000  1
  Mg  Mg0  1  0.00000000  0.50000000  0.00000000  1
  Mg  Mg1  1  0.50000000  0.00000000  0.00000000  1
  Mg  Mg2  1  0.00000000  0.00000000  0.50000000  1
  Mg  Mg3  1  0.00000000  0.50000000  0.50000000  1
  Mg  Mg4  1  0.50000000  0.00000000  0.50000000  1
  Mg  Mg5  1  0.50000000  0.50000000  0.50000000  1
  Mg  Mg6  1  0.25286000  0.25286000  0.00000000  1
  Mg  Mg7  1  0.25286000  0.74714000  0.00000000  1
  Mg  Mg8  1  0.74714000  0.25286000  0.00000000  1
  Mg  Mg9  1  0.74714000  0.74714000  0.00000000  1
  Mg  Mg10  1  0.25102400  0.25102400  0.50000000  1
  Mg  Mg11  1  0.25102400  0.74897600  0.50000000  1
  Mg  Mg12  1  0.74897600  0.25102400  0.50000000  1
  Mg  Mg13  1  0.74897600  0.74897600  0.50000000  1
  Mg  Mg14  1  0.00000000  0.25037700  0.25044700  1
  Mg  Mg15  1  0.00000000  0.74962300  0.25044700  1
  Mg  Mg16  1  0.50000000  0.25193500  0.24918800  1
  Mg  Mg17  1  0.50000000  0.74806500  0.24918800  1
  Mg  Mg18  1  0.00000000  0.25037700  0.74955300  1
  Mg  Mg19  1  0.00000000  0.74962300  0.74955300  1
  Mg  Mg20  1  0.50000000  0.25193500  0.75081200  1
  Mg  Mg21  1  0.50000000  0.74806500  0.75081200  1
  Mg  Mg22  1  0.25037700  0.00000000  0.25044700  1
  Mg  Mg23  1  0.25193500  0.50000000  0.24918800  1
  Mg  Mg24  1  0.74962300  0.00000000  0.25044700  1
  Mg  Mg25  1  0.74806500  0.50000000  0.24918800  1
  Mg  Mg26  1  0.25037700  0.00000000  0.74955300  1
  Mg  Mg27  1  0.25193500  0.50000000  0.75081200  1
  Mg  Mg28  1  0.74962300  0.00000000  0.74955300  1
  Mg  Mg29  1  0.74806500  0.50000000  0.75081200  1
  Fe  Fe0  1  0.00000000  0.00000000  0.00000000  1
  O  O0  1  0.00000000  0.00000000  0.24278600  1
  O  O1  1  0.00000000  0.50000000  0.24978900  1
  O  O2  1  0.50000000  0.00000000  0.24978900  1
  O  O3  1  0.50000000  0.50000000  0.26264200  1
  O  O4  1  0.00000000  0.00000000  0.75721400  1
  O  O5  1  0.00000000  0.50000000  0.75021100  1
  O  O6  1  0.50000000  0.00000000  0.75021100  1
  O  O7  1  0.50000000  0.50000000  0.73735800  1
  O  O8  1  0.24920800  0.24920800  0.24915200  1
  O  O9  1  0.24920800  0.75079200  0.24915200  1
  O  O10  1  0.75079200  0.24920800  0.24915200  1
  O  O11  1  0.75079200  0.75079200  0.24915200  1
  O  O12  1  0.24920800  0.24920800  0.75084800  1
  O  O13  1  0.24920800  0.75079200  0.75084800  1
  O  O14  1  0.75079200  0.24920800  0.75084800  1
  O  O15  1  0.75079200  0.75079200  0.75084800  1
  O  O16  1  0.00000000  0.23491700  0.00000000  1
  O  O17  1  0.00000000  0.76508300  0.00000000  1
  O  O18  1  0.50000000  0.23463100  0.00000000  1
  O  O19  1  0.50000000  0.76536900  0.00000000  1
  O  O20  1  0.00000000  0.24721000  0.50000000  1
  O  O21  1  0.00000000  0.75279000  0.50000000  1
  O  O22  1  0.50000000  0.24681600  0.50000000  1
  O  O23  1  0.50000000  0.75318400  0.50000000  1
  O  O24  1  0.23491700  0.00000000  0.00000000  1
  O  O25  1  0.23463100  0.50000000  0.00000000  1
  O  O26  1  0.76508300  0.00000000  0.00000000  1
  O  O27  1  0.76536900  0.50000000  0.00000000  1
  O  O28  1  0.24721000  0.00000000  0.50000000  1
  O  O29  1  0.24681600  0.50000000  0.50000000  1
  O  O30  1  0.75279000  0.00000000  0.50000000  1
  O  O31  1  0.75318400  0.50000000  0.50000000  1
loop_
_geom_bond_atom_site_label_1
_geom_bond_atom_site_label_2
_geom_bond_distance
_geom_bond_site_symmetry_2
Na0 O3 2.241290 1_555
Na0 O7 2.241290 1_554
Na0 O27 2.260592 1_555
Na0 O25 2.260592 1_555
Na0 O18 2.260592 1_555
Na0 O19 2.260592 1_555
Mg0 O25 1.998745 1_555
Mg0 O27 1.998745 1_455
Mg0 O1 2.131607 1_555
Mg0 O5 2.131607 1_554
Mg0 O17 2.258156 1_555
Mg0 O16 2.258156 1_555
Mg1 O18 1.998745 1_555
Mg1 O19 1.998745 1_545
Mg1 O2 2.131607 1_555
Mg1 O6 2.131607 1_554
Mg1 O26 2.258156 1_555
Mg1 O24 2.258156 1_555
Mg2 O20 2.105902 1_555
Mg2 O28 2.105902 1_555
Mg2 O30 2.105902 1_455
Mg2 O21 2.105902 1_545
Mg2 O0 2.194970 1_555
Mg2 O4 2.194970 1_555
Mg3 O29 2.102545 1_555
Mg3 O31 2.102545 1_455
Mg3 O5 2.135209 1_555
Mg3 O1 2.135209 1_555
Mg3 O21 2.153436 1_555
Mg3 O20 2.153436 1_555
Mg4 O22 2.102545 1_555
Mg4 O23 2.102545 1_545
Mg4 O2 2.135209 1_555
Mg4 O6 2.135209 1_555
Mg4 O30 2.153436 1_555
Mg4 O28 2.153436 1_555
Mg5 O7 2.025526 1_555
Mg5 O3 2.025526 1_555
Mg5 O22 2.156792 1_555
Mg5 O23 2.156792 1_555
Mg5 O29 2.156792 1_555
Mg5 O31 2.156792 1_555
Mg6 O25 2.111025 1_555
Mg6 O18 2.111025 1_555
Mg6 O12 2.126627 1_554
Mg6 O8 2.126627 1_555
Mg6 O24 2.159449 1_555
Mg6 O16 2.159449 1_555
Mg7 O25 2.111025 1_555
Mg7 O19 2.111025 1_555
Mg7 O9 2.126627 1_555
Mg7 O13 2.126627 1_554
Mg7 O24 2.159449 1_565
Mg7 O17 2.159449 1_555
Mg8 O27 2.111025 1_555
Mg8 O18 2.111025 1_555
Mg8 O10 2.126627 1_555
Mg8 O14 2.126627 1_554
Mg8 O26 2.159449 1_555
Mg8 O16 2.159449 1_655
Mg9 O27 2.111025 1_555
Mg9 O19 2.111025 1_555
Mg9 O15 2.126627 1_554
Mg9 O11 2.126627 1_555
Mg9 O26 2.159449 1_565
Mg9 O17 2.159449 1_655
Mg10 O22 2.121249 1_555
Mg10 O29 2.121249 1_555
Mg10 O28 2.138639 1_555
Mg10 O20 2.138639 1_555
Mg10 O12 2.140756 1_555
Mg10 O8 2.140756 1_555
Mg11 O23 2.121249 1_555
Mg11 O29 2.121249 1_555
Mg11 O28 2.138639 1_565
Mg11 O21 2.138639 1_555
Mg11 O9 2.140756 1_555
Mg11 O13 2.140756 1_555
Mg12 O22 2.121249 1_555
Mg12 O31 2.121249 1_555
Mg12 O30 2.138639 1_555
Mg12 O20 2.138639 1_655
Mg12 O14 2.140756 1_555
Mg12 O10 2.140756 1_555
Mg13 O23 2.121249 1_555
Mg13 O31 2.121249 1_555
Mg13 O30 2.138639 1_565
Mg13 O21 2.138639 1_655
Mg13 O11 2.140756 1_555
Mg13 O15 2.140756 1_555
Mg14 O10 2.122974 1_455
Mg14 O8 2.122974 1_555
Mg14 O1 2.126465 1_555
Mg14 O20 2.129764 1_555
Mg14 O0 2.133882 1_555
Mg14 O16 2.141276 1_555
Mg15 O11 2.122974 1_455
Mg15 O9 2.122974 1_555
Mg15 O1 2.126465 1_555
Mg15 O21 2.129764 1_555
Mg15 O0 2.133882 1_565
Mg15 O17 2.141276 1_555
Mg16 O3 2.116302 1_555
Mg16 O18 2.131582 1_555
Mg16 O8 2.136542 1_555
Mg16 O10 2.136542 1_555
Mg16 O22 2.140781 1_555
Mg16 O2 2.146159 1_555
Mg17 O3 2.116302 1_555
Mg17 O19 2.131582 1_555
Mg17 O9 2.136542 1_555
Mg17 O11 2.136542 1_555
Mg17 O23 2.140781 1_555
Mg17 O2 2.146159 1_565
Mg18 O14 2.122974 1_455
Mg18 O12 2.122974 1_555
Mg18 O5 2.126465 1_555
Mg18 O20 2.129764 1_555
Mg18 O4 2.133882 1_555
Mg18 O16 2.141276 1_556
Mg19 O15 2.122974 1_455
Mg19 O13 2.122974 1_555
Mg19 O5 2.126465 1_555
Mg19 O21 2.129764 1_555
Mg19 O4 2.133882 1_565
Mg19 O17 2.141276 1_556
Mg20 O7 2.116302 1_555
Mg20 O18 2.131582 1_556
Mg20 O12 2.136542 1_555
Mg20 O14 2.136542 1_555
Mg20 O22 2.140781 1_555
Mg20 O6 2.146159 1_555
Mg21 O7 2.116302 1_555
Mg21 O19 2.131582 1_556
Mg21 O15 2.136542 1_555
Mg21 O13 2.136542 1_555
Mg21 O23 2.140781 1_555
Mg21 O6 2.146159 1_565
Mg22 O9 2.122974 1_545
Mg22 O8 2.122974 1_555
Mg22 O2 2.126465 1_555
Mg22 O28 2.129764 1_555
Mg22 O0 2.133882 1_555
Mg22 O24 2.141276 1_555
Mg23 O3 2.116302 1_555
Mg23 O25 2.131582 1_555
Mg23 O8 2.136542 1_555
Mg23 O9 2.136542 1_555
Mg23 O29 2.140781 1_555
Mg23 O1 2.146159 1_555
Mg24 O11 2.122974 1_545
Mg24 O10 2.122974 1_555
Mg24 O2 2.126465 1_555
Mg24 O30 2.129764 1_555
Mg24 O0 2.133882 1_655
Mg24 O26 2.141276 1_555
Mg25 O3 2.116302 1_555
Mg25 O27 2.131582 1_555
Mg25 O11 2.136542 1_555
Mg25 O10 2.136542 1_555
Mg25 O31 2.140781 1_555
Mg25 O1 2.146159 1_655
Mg26 O13 2.122974 1_545
Mg26 O12 2.122974 1_555
Mg26 O6 2.126465 1_555
Mg26 O28 2.129764 1_555
Mg26 O4 2.133882 1_555
Mg26 O24 2.141276 1_556
Mg27 O7 2.116302 1_555
Mg27 O25 2.131582 1_556
Mg27 O12 2.136542 1_555
Mg27 O13 2.136542 1_555
Mg27 O29 2.140781 1_555
Mg27 O5 2.146159 1_555
Mg28 O15 2.122974 1_545
Mg28 O14 2.122974 1_555
Mg28 O6 2.126465 1_555
Mg28 O30 2.129764 1_555
Mg28 O4 2.133882 1_655
Mg28 O26 2.141276 1_556
Mg29 O7 2.116302 1_555
Mg29 O27 2.131582 1_556
Mg29 O14 2.136542 1_555
Mg29 O15 2.136542 1_555
Mg29 O31 2.140781 1_555
Mg29 O5 2.146159 1_655
Fe0 O24 2.001182 1_555
Fe0 O16 2.001182 1_555
Fe0 O17 2.001182 1_545
Fe0 O26 2.001182 1_455
Fe0 O4 2.071846 1_554
Fe0 O0 2.071846 1_555
