# generated using pymatgen
data_Al2O3
_symmetry_space_group_name_H-M   'P 1'
_cell_length_a   10.23176374
_cell_length_b   10.34484806
_cell_length_c   10.68728900
_cell_angle_alpha   94.07637841
_cell_angle_beta   92.10426122
_cell_angle_gamma   91.85291887
_symmetry_Int_Tables_number   1
_chemical_formula_structural   Al2O3
_chemical_formula_sum   'Al40 O60'
_cell_volume   1126.89151118
_cell_formula_units_Z   20
loop_
 _symmetry_equiv_pos_site_id
 _symmetry_equiv_pos_as_xyz
  1  'x, y, z'
loop_
 _atom_site_type_symbol
 _atom_site_label
 _atom_site_symmetry_multiplicity
 _atom_site_fract_x
 _atom_site_fract_y
 _atom_site_fract_z
 _atom_site_occupancy
  Al  Al0  1  0.66673400  0.62826900  0.64016300  1
  Al  Al1  1  0.92003600  0.60855400  0.50413900  1
  Al  Al2  1  0.45712300  0.84476900  0.68206000  1
  Al  Al3  1  0.76958400  0.63536500  0.07159400  1
  Al  Al4  1  0.88190700  0.52218400  0.24946600  1
  Al  Al5  1  0.21945900  0.72155900  0.54381500  1
  Al  Al6  1  0.14353100  0.47478600  0.66597100  1
  Al  Al7  1  0.96687500  0.23190100  0.51403200  1
  Al  Al8  1  0.40832700  0.36360500  0.24499900  1
  Al  Al9  1  0.74915100  0.18981000  0.81823600  1
  Al  Al10  1  0.50021700  0.71364200  0.41813800  1
  Al  Al11  1  0.27232300  0.74202000  0.83450300  1
  Al  Al12  1  0.68912500  0.25588100  0.35962200  1
  Al  Al13  1  0.99479200  0.90437700  0.57218300  1
  Al  Al14  1  0.72091300  0.93869900  0.00295400  1
  Al  Al15  1  0.95322900  0.67902300  0.80217000  1
  Al  Al16  1  0.38317600  0.12340800  0.14029300  1
  Al  Al17  1  0.06247100  0.14232200  0.72432600  1
  Al  Al18  1  0.58443500  0.72091800  0.88345000  1
  Al  Al19  1  0.58139000  0.11852300  0.57290400  1
  Al  Al20  1  0.60785000  0.41045500  0.81867900  1
  Al  Al21  1  0.06018800  0.33599500  0.08434100  1
  Al  Al22  1  0.93064400  0.37365700  0.81307300  1
  Al  Al23  1  0.96089300  0.82364500  0.29627700  1
  Al  Al24  1  0.24191600  0.80105800  0.29498700  1
  Al  Al25  1  0.44290000  0.40994400  0.50483500  1
  Al  Al26  1  0.96628500  0.07953300  0.95559500  1
  Al  Al27  1  0.76066400  0.31882000  0.06477400  1
  Al  Al28  1  0.75368300  0.90217300  0.72819800  1
  Al  Al29  1  0.29024500  0.00753600  0.54748800  1
  Al  Al30  1  0.87814900  0.07591400  0.19317500  1
  Al  Al31  1  0.43662500  0.64176200  0.11345300  1
  Al  Al32  1  0.60652600  0.95838500  0.29254700  1
  Al  Al33  1  0.37577700  0.34922300  0.97950100  1
  Al  Al34  1  0.27657900  0.06124300  0.85077300  1
  Al  Al35  1  0.41209600  0.90104700  0.03807000  1
  Al  Al36  1  0.22111400  0.14945800  0.37017600  1
  Al  Al37  1  0.35151900  0.24953900  0.67844500  1
  Al  Al38  1  0.02262300  0.79093100  0.03239400  1
  Al  Al39  1  0.13927800  0.43515800  0.37636800  1
  O  O0  1  0.24447900  0.97072800  0.37184800  1
  O  O1  1  0.28710100  0.21521900  0.24196700  1
  O  O2  1  0.76529300  0.35128200  0.74932700  1
  O  O3  1  0.94245200  0.77649100  0.45680200  1
  O  O4  1  0.52501400  0.28535000  0.63173300  1
  O  O5  1  0.92998300  0.19309500  0.82193000  1
  O  O6  1  0.09170600  0.26020200  0.40382800  1
  O  O7  1  0.22824200  0.11317800  0.68130400  1
  O  O8  1  0.65522600  0.28881100  0.93098400  1
  O  O9  1  0.06452400  0.50940900  0.51426600  1
  O  O10  1  0.46855300  0.26216700  0.10409500  1
  O  O11  1  0.91986300  0.86532900  0.71174200  1
  O  O12  1  0.98208500  0.07485700  0.57820500  1
  O  O13  1  0.75312400  0.48042600  0.13417900  1
  O  O14  1  0.10441400  0.75997300  0.88975900  1
  O  O15  1  0.69968000  0.06609500  0.69475200  1
  O  O16  1  0.76981600  0.22994000  0.20802300  1
  O  O17  1  0.91692100  0.37282900  0.98998900  1
  O  O18  1  0.65319700  0.57792100  0.79476500  1
  O  O19  1  0.16455200  0.88196200  0.57899700  1
  O  O20  1  0.61676900  0.09835600  0.40654100  1
  O  O21  1  0.78147500  0.08298300  0.94454900  1
  O  O22  1  0.34210200  0.74134800  0.01286300  1
  O  O23  1  0.73975800  0.82050100  0.86972100  1
  O  O24  1  0.54607200  0.57021000  0.51621700  1
  O  O25  1  0.30675200  0.02878400  0.01484400  1
  O  O26  1  0.84487000  0.62890500  0.64951600  1
  O  O27  1  0.02321400  0.51714000  0.78762800  1
  O  O28  1  0.10352800  0.80385000  0.18542300  1
  O  O29  1  0.10277000  0.05330800  0.86168300  1
  O  O30  1  0.72344800  0.97246200  0.17089000  1
  O  O31  1  0.31484200  0.43776400  0.38001200  1
  O  O32  1  0.53959800  0.34474100  0.36420200  1
  O  O33  1  0.82224200  0.52060300  0.39473400  1
  O  O34  1  0.81024300  0.26640600  0.47618100  1
  O  O35  1  0.99871600  0.17088700  0.10659500  1
  O  O36  1  0.92824800  0.93379600  0.04122900  1
  O  O37  1  0.17336700  0.68165700  0.38629600  1
  O  O38  1  0.39735700  0.48411200  0.13513800  1
  O  O39  1  0.45976200  0.98077200  0.19334000  1
  O  O40  1  0.39839400  0.72277700  0.26636500  1
  O  O41  1  0.36902200  0.21418000  0.84612100  1
  O  O42  1  0.20238400  0.34282300  0.00499400  1
  O  O43  1  0.46030900  0.45380700  0.88637400  1
  O  O44  1  0.38620200  0.77142100  0.53094800  1
  O  O45  1  0.44232400  0.71007200  0.78357200  1
  O  O46  1  0.20359300  0.64830200  0.68760000  1
  O  O47  1  0.86996000  0.69316600  0.20861600  1
  O  O48  1  0.60247000  0.67575700  0.04833900  1
  O  O49  1  0.62035000  0.81947900  0.37274500  1
  O  O50  1  0.32564100  0.90436900  0.79123400  1
  O  O51  1  0.45799500  0.00174900  0.61092400  1
  O  O52  1  0.04745600  0.30855600  0.66459000  1
  O  O53  1  0.62967000  0.80038500  0.64651300  1
  O  O54  1  0.30336800  0.40589100  0.63101200  1
  O  O55  1  0.03872200  0.44393500  0.23042300  1
  O  O56  1  0.55223100  0.90311000  0.95625900  1
  O  O57  1  0.89623000  0.66790900  0.96672500  1
  O  O58  1  0.33396300  0.17495600  0.49863900  1
  O  O59  1  0.94630100  0.99192400  0.31468200  1
loop_
_geom_bond_atom_site_label_1
_geom_bond_atom_site_label_2
_geom_bond_distance
_geom_bond_site_symmetry_2
Al0 O18 1.776223 1_555
Al0 O26 1.821489 1_555
Al0 O53 1.829488 1_555
Al0 O24 1.832611 1_555
Al1 O33 1.702971 1_555
Al1 O26 1.761097 1_555
Al1 O9 1.830657 1_655
Al1 O3 1.853214 1_555
Al2 O45 1.831631 1_555
Al2 O51 1.841280 1_565
Al2 O44 1.847855 1_555
Al2 O53 1.883843 1_555
Al2 O50 1.902089 1_555
Al3 O57 1.783443 1_554
Al3 O13 1.785500 1_555
Al3 O48 1.785997 1_555
Al3 O47 1.811661 1_555
Al4 O33 1.689923 1_555
Al4 O13 1.791441 1_555
Al4 O55 1.831834 1_655
Al4 O47 1.858489 1_555
Al5 O37 1.748462 1_555
Al5 O46 1.771427 1_555
Al5 O44 1.779346 1_555
Al5 O19 1.788158 1_555
Al6 O54 1.845132 1_555
Al6 O9 1.848097 1_555
Al6 O27 1.862626 1_555
Al6 O46 1.874126 1_555
Al6 O52 1.951834 1_555
Al7 O34 1.693919 1_555
Al7 O6 1.799873 1_655
Al7 O12 1.816817 1_555
Al7 O52 1.891178 1_655
Al8 O38 1.775582 1_555
Al8 O32 1.841656 1_555
Al8 O31 1.891275 1_555
Al8 O10 1.906269 1_555
Al8 O1 1.939768 1_555
Al9 O15 1.817881 1_555
Al9 O21 1.831923 1_555
Al9 O8 1.843266 1_555
Al9 O5 1.848363 1_555
Al9 O2 1.877731 1_555
Al10 O49 1.725464 1_555
Al10 O44 1.793776 1_555
Al10 O40 1.905103 1_555
Al10 O24 1.936616 1_555
Al11 O50 1.844392 1_555
Al11 O14 1.847786 1_555
Al11 O45 1.874082 1_555
Al11 O46 1.886206 1_555
Al11 O22 2.011366 1_556
Al12 O34 1.719881 1_555
Al12 O32 1.810559 1_555
Al12 O16 1.851860 1_555
Al12 O20 1.876286 1_555
Al13 O19 1.759319 1_655
Al13 O11 1.767804 1_555
Al13 O12 1.769350 1_565
Al13 O3 1.797591 1_555
Al14 O21 1.761386 1_564
Al14 O56 1.798028 1_554
Al14 O30 1.802990 1_555
Al14 O23 1.829656 1_554
Al14 O36 2.148588 1_555
Al15 O27 1.841222 1_655
Al15 O57 1.883059 1_555
Al15 O14 1.915421 1_655
Al15 O26 1.967084 1_555
Al15 O11 2.246816 1_555
Al16 O10 1.730875 1_555
Al16 O1 1.743909 1_555
Al16 O25 1.747589 1_555
Al16 O39 1.809357 1_545
Al17 O7 1.802717 1_555
Al17 O5 1.809305 1_455
Al17 O12 1.820959 1_455
Al17 O29 1.828986 1_555
Al17 O52 1.885310 1_555
Al18 O45 1.767676 1_555
Al18 O48 1.859156 1_556
Al18 O18 1.870437 1_555
Al18 O23 1.881799 1_555
Al18 O56 2.028995 1_555
Al19 O51 1.796455 1_555
Al19 O20 1.826239 1_555
Al19 O15 1.865992 1_555
Al19 O4 1.908704 1_555
Al20 O43 1.755365 1_555
Al20 O18 1.817008 1_555
Al20 O8 1.862937 1_555
Al20 O2 1.898966 1_555
Al20 O4 2.412917 1_555
Al21 O42 1.712704 1_555
Al21 O17 1.814658 1_454
Al21 O35 1.835417 1_455
Al21 O55 1.877682 1_555
Al22 O27 1.777530 1_655
Al22 O2 1.802115 1_555
Al22 O5 1.876799 1_555
Al22 O17 1.901698 1_555
Al22 O52 2.107040 1_655
Al23 O59 1.749777 1_555
Al23 O47 1.800075 1_555
Al23 O3 1.831271 1_555
Al23 O28 1.920206 1_655
Al24 O37 1.770732 1_555
Al24 O28 1.806256 1_555
Al24 O40 1.843175 1_555
Al24 O0 1.883259 1_555
Al25 O31 1.878782 1_555
Al25 O32 1.923813 1_555
Al25 O24 1.930440 1_555
Al25 O54 2.000984 1_555
Al25 O4 2.107440 1_555
Al26 O29 1.766302 1_655
Al26 O35 1.825123 1_556
Al26 O36 1.856439 1_546
Al26 O21 1.891932 1_555
Al26 O5 1.945914 1_555
Al27 O8 1.762570 1_554
Al27 O13 1.785292 1_555
Al27 O16 1.842040 1_555
Al27 O17 1.899114 1_554
Al28 O11 1.766808 1_555
Al28 O53 1.783950 1_555
Al28 O23 1.792065 1_555
Al28 O15 1.854967 1_565
Al29 O51 1.826507 1_555
Al29 O19 1.854946 1_545
Al29 O7 1.879179 1_555
Al29 O58 1.888871 1_555
Al29 O0 1.926169 1_545
Al30 O59 1.749451 1_545
Al30 O35 1.864928 1_555
Al30 O30 1.879902 1_545
Al30 O16 1.970747 1_555
Al30 O36 2.198107 1_545
Al31 O38 1.700899 1_555
Al31 O22 1.816014 1_555
Al31 O40 1.843770 1_555
Al31 O48 1.889520 1_555
Al32 O49 1.731712 1_555
Al32 O30 1.809071 1_555
Al32 O20 1.822597 1_565
Al32 O39 1.836632 1_555
Al33 O43 1.750702 1_555
Al33 O42 1.804596 1_556
Al33 O10 1.902152 1_556
Al33 O41 1.921393 1_555
Al33 O38 2.094211 1_556
Al34 O29 1.786082 1_555
Al34 O50 1.794384 1_545
Al34 O41 1.821552 1_555
Al34 O25 1.825758 1_556
Al34 O7 1.975680 1_555
Al35 O56 1.706904 1_554
Al35 O25 1.757449 1_565
Al35 O22 1.777868 1_555
Al35 O39 1.841657 1_555
Al36 O1 1.722458 1_555
Al36 O58 1.760709 1_555
Al36 O6 1.808167 1_555
Al36 O0 1.873232 1_545
Al37 O54 1.807088 1_555
Al37 O41 1.857687 1_555
Al37 O7 1.864322 1_555
Al37 O4 1.893807 1_555
Al37 O58 2.018700 1_555
Al38 O14 1.779959 1_554
Al38 O36 1.790174 1_455
Al38 O28 1.800059 1_555
Al38 O57 1.866692 1_454
Al39 O31 1.794610 1_555
Al39 O9 1.818463 1_555
Al39 O55 1.846070 1_555
Al39 O6 1.904678 1_555
