# generated using pymatgen
data_Li5Mn(CoO4)2
_symmetry_space_group_name_H-M   'P 1'
_cell_length_a   9.74245431
_cell_length_b   9.74245431
_cell_length_c   4.96153004
_cell_angle_alpha   86.69426162
_cell_angle_beta   86.69426162
_cell_angle_gamma   17.12352255
_symmetry_Int_Tables_number   1
_chemical_formula_structural   Li5Mn(CoO4)2
_chemical_formula_sum   'Li5 Mn1 Co2 O8'
_cell_volume   138.41996943
_cell_formula_units_Z   1
loop_
 _symmetry_equiv_pos_site_id
 _symmetry_equiv_pos_as_xyz
  1  'x, y, z'
loop_
 _atom_site_type_symbol
 _atom_site_label
 _atom_site_symmetry_multiplicity
 _atom_site_fract_x
 _atom_site_fract_y
 _atom_site_fract_z
 _atom_site_occupancy
  Li  Li0  1  0.36509600  0.36509600  0.87771800  1
  Li  Li1  1  0.63834700  0.63834700  0.13420500  1
  Li  Li2  1  0.86227400  0.86227400  0.36815900  1
  Li  Li3  1  0.13397600  0.13397600  0.61990500  1
  Li  Li4  1  0.24990900  0.24990900  0.24965100  1
  Mn  Mn0  1  0.99980600  0.99980600  0.00119100  1
  Co  Co0  1  0.50042500  0.50042500  0.50054400  1
  Co  Co1  1  0.74984500  0.74984500  0.74925800  1
  O  O0  1  0.55527200  0.55527200  0.81759400  1
  O  O1  1  0.80827100  0.80827100  0.03171700  1
  O  O2  1  0.05332000  0.05332000  0.32031200  1
  O  O3  1  0.30414500  0.30414500  0.58038600  1
  O  O4  1  0.19563600  0.19563600  0.91824600  1
  O  O5  1  0.44398900  0.44398900  0.18803400  1
  O  O6  1  0.69181500  0.69181500  0.46546600  1
  O  O7  1  0.94787300  0.94787300  0.67761500  1
loop_
_geom_bond_atom_site_label_1
_geom_bond_atom_site_label_2
_geom_bond_distance
_geom_bond_site_symmetry_2
Li0 O3 1.938434 1_555
Li0 O1 1.946463 1_546
Li0 O1 1.946463 1_456
Li0 O5 2.225788 1_556
Li0 O7 2.334202 1_545
Li0 O7 2.334202 1_455
Li1 O6 1.990000 1_555
Li1 O4 2.081414 1_564
Li1 O4 2.081414 1_654
Li1 O0 2.307173 1_554
Li1 O2 2.337488 1_655
Li1 O2 2.337488 1_565
Li2 O1 2.017845 1_555
Li2 O3 2.080705 1_655
Li2 O3 2.080705 1_565
Li2 O5 2.284124 1_655
Li2 O5 2.284124 1_565
Li2 O7 2.317954 1_555
Li3 O4 1.951317 1_555
Li3 O6 1.957855 1_455
Li3 O6 1.957855 1_545
Li3 O2 2.212243 1_555
Li3 O0 2.278572 1_545
Li3 O0 2.278572 1_455
Li4 O3 1.996185 1_555
Li4 O4 1.999427 1_554
Li4 O6 2.088873 1_455
Li4 O6 2.088873 1_545
Li4 O1 2.096563 1_455
Li4 O1 2.096563 1_545
Mn0 O2 1.939198 1_665
Mn0 O7 1.940627 1_554
Mn0 O0 1.990495 1_654
Mn0 O0 1.990495 1_564
Mn0 O5 2.000858 1_655
Mn0 O5 2.000858 1_565
Co0 O5 1.945046 1_555
Co0 O0 1.945548 1_555
Co0 O7 1.948605 1_455
Co0 O7 1.948605 1_545
Co0 O2 1.958507 1_655
Co0 O2 1.958507 1_565
Co1 O1 1.848050 1_556
Co1 O6 1.848341 1_555
Co1 O4 1.948202 1_565
Co1 O4 1.948202 1_655
Co1 O3 1.948869 1_655
Co1 O3 1.948869 1_565
