# generated using pymatgen
data_CaGe7N10
_symmetry_space_group_name_H-M   'P 1'
_cell_length_a   7.18740330
_cell_length_b   7.22497000
_cell_length_c   10.25662546
_cell_angle_alpha   90.00000000
_cell_angle_beta   104.94538416
_cell_angle_gamma   90.00000000
_symmetry_Int_Tables_number   1
_chemical_formula_structural   CaGe7N10
_chemical_formula_sum   'Ca2 Ge14 N20'
_cell_volume   514.59676591
_cell_formula_units_Z   2
loop_
 _symmetry_equiv_pos_site_id
 _symmetry_equiv_pos_as_xyz
  1  'x, y, z'
loop_
 _atom_site_type_symbol
 _atom_site_label
 _atom_site_symmetry_multiplicity
 _atom_site_fract_x
 _atom_site_fract_y
 _atom_site_fract_z
 _atom_site_occupancy
  Ca  Ca0  1  0.90354800  0.98088400  0.63584400  1
  Ca  Ca1  1  0.90354800  0.01911600  0.13584400  1
  Ge  Ge0  1  0.54662000  0.97287200  0.82688500  1
  Ge  Ge1  1  0.54662000  0.02712800  0.32688500  1
  Ge  Ge2  1  0.34941900  0.02454200  0.02092700  1
  Ge  Ge3  1  0.34941900  0.97545800  0.52092700  1
  Ge  Ge4  1  0.11389500  0.39335700  0.07484900  1
  Ge  Ge5  1  0.11389500  0.60664300  0.57484900  1
  Ge  Ge6  1  0.66420000  0.36524800  0.99298700  1
  Ge  Ge7  1  0.66420000  0.63475200  0.49298700  1
  Ge  Ge8  1  0.85070400  0.62533800  0.81274000  1
  Ge  Ge9  1  0.85070400  0.37466200  0.31274000  1
  Ge  Ge10  1  0.29890500  0.62392400  0.88396200  1
  Ge  Ge11  1  0.29890500  0.37607600  0.38396200  1
  Ge  Ge12  1  0.48705100  0.36977500  0.68887700  1
  Ge  Ge13  1  0.48705100  0.63022500  0.18887700  1
  N  N0  1  0.77046000  0.86156300  0.82549200  1
  N  N1  1  0.77046000  0.13843700  0.32549200  1
  N  N2  1  0.57737400  0.12460400  0.98234100  1
  N  N3  1  0.57737400  0.87539600  0.48234100  1
  N  N4  1  0.32018100  0.87503000  0.86554700  1
  N  N5  1  0.32018100  0.12497000  0.36554700  1
  N  N6  1  0.14168800  0.15136000  0.03514000  1
  N  N7  1  0.14168800  0.84864000  0.53514000  1
  N  N8  1  0.28716500  0.50351200  0.72489500  1
  N  N9  1  0.28716500  0.49648800  0.22489500  1
  N  N10  1  0.45830900  0.11854100  0.67421500  1
  N  N11  1  0.45830900  0.88145900  0.17421500  1
  N  N12  1  0.88651400  0.37083500  0.13324600  1
  N  N13  1  0.88651400  0.62916500  0.63324600  1
  N  N14  1  0.08016600  0.58051900  0.94265500  1
  N  N15  1  0.08016600  0.41948100  0.44265500  1
  N  N16  1  0.70751300  0.41457400  0.82529200  1
  N  N17  1  0.70751300  0.58542600  0.32529200  1
  N  N18  1  0.49858700  0.54026000  0.02340600  1
  N  N19  1  0.49858700  0.45974000  0.52340600  1
loop_
_geom_bond_atom_site_label_1
_geom_bond_atom_site_label_2
_geom_bond_distance
_geom_bond_site_symmetry_2
Ca0 N7 2.412721 1_655
Ca0 N0 2.530122 1_555
Ca0 N13 2.543916 1_555
Ca0 N3 2.579114 1_555
Ca1 N6 2.412721 1_655
Ca1 N1 2.530122 1_555
Ca1 N12 2.543916 1_555
Ca1 N2 2.579114 1_554
Ge0 N0 1.801980 1_555
Ge0 N10 1.857380 1_565
Ge0 N2 1.900300 1_565
Ge0 N4 1.907518 1_555
Ge1 N1 1.801980 1_555
Ge1 N11 1.857380 1_545
Ge1 N3 1.900300 1_545
Ge1 N5 1.907518 1_555
Ge2 N6 1.789477 1_555
Ge2 N11 1.875738 1_545
Ge2 N4 1.891585 1_544
Ge2 N2 1.923044 1_554
Ge3 N7 1.789477 1_555
Ge3 N10 1.875738 1_565
Ge3 N5 1.891585 1_565
Ge3 N3 1.923044 1_555
Ge4 N6 1.817889 1_555
Ge4 N9 1.867079 1_555
Ge4 N14 1.885776 1_554
Ge4 N12 1.887058 1_455
Ge5 N7 1.817889 1_555
Ge5 N8 1.867079 1_555
Ge5 N15 1.885776 1_555
Ge5 N13 1.887058 1_455
Ge6 N18 1.817863 1_556
Ge6 N2 1.840953 1_555
Ge6 N12 1.854366 1_556
Ge6 N16 1.859690 1_555
Ge7 N19 1.817863 1_555
Ge7 N3 1.840953 1_555
Ge7 N13 1.854366 1_555
Ge7 N17 1.859690 1_555
Ge8 N0 1.817014 1_555
Ge8 N16 1.860892 1_555
Ge8 N14 1.861949 1_655
Ge8 N13 1.923722 1_555
Ge9 N1 1.817014 1_555
Ge9 N17 1.860892 1_555
Ge9 N15 1.861949 1_655
Ge9 N12 1.923722 1_555
Ge10 N8 1.831592 1_555
Ge10 N4 1.834502 1_555
Ge10 N18 1.847150 1_556
Ge10 N14 1.849489 1_555
Ge11 N9 1.831592 1_555
Ge11 N5 1.834502 1_555
Ge11 N19 1.847150 1_555
Ge11 N15 1.849489 1_555
Ge12 N10 1.828679 1_555
Ge12 N19 1.839117 1_555
Ge12 N8 1.846037 1_555
Ge12 N16 1.851935 1_555
Ge13 N11 1.828679 1_555
Ge13 N18 1.839117 1_555
Ge13 N9 1.846037 1_555
Ge13 N17 1.851935 1_555
