# generated using pymatgen
data_Er6Al43W4
_symmetry_space_group_name_H-M   'P 1'
_cell_length_a   11.04982375
_cell_length_b   11.04982375
_cell_length_c   17.58024200
_cell_angle_alpha   90.00000000
_cell_angle_beta   90.00000000
_cell_angle_gamma   119.99999849
_symmetry_Int_Tables_number   1
_chemical_formula_structural   Er6Al43W4
_chemical_formula_sum   'Er12 Al86 W8'
_cell_volume   1858.94349448
_cell_formula_units_Z   2
loop_
 _symmetry_equiv_pos_site_id
 _symmetry_equiv_pos_as_xyz
  1  'x, y, z'
loop_
 _atom_site_type_symbol
 _atom_site_label
 _atom_site_symmetry_multiplicity
 _atom_site_fract_x
 _atom_site_fract_y
 _atom_site_fract_z
 _atom_site_occupancy
  Er  Er0  1  0.46858900  0.46858900  0.90440700  1
  Er  Er1  1  0.53141100  0.00000000  0.90440700  1
  Er  Er2  1  0.00000000  0.53141100  0.90440700  1
  Er  Er3  1  0.53141100  0.53141100  0.09559300  1
  Er  Er4  1  0.46858900  0.00000000  0.09559300  1
  Er  Er5  1  0.00000000  0.46858900  0.09559300  1
  Er  Er6  1  0.53141100  0.53141100  0.40440700  1
  Er  Er7  1  0.46858900  0.00000000  0.40440700  1
  Er  Er8  1  0.00000000  0.46858900  0.40440700  1
  Er  Er9  1  0.46858900  0.46858900  0.59559300  1
  Er  Er10  1  0.53141100  0.00000000  0.59559300  1
  Er  Er11  1  0.00000000  0.53141100  0.59559300  1
  Al  Al0  1  0.84184500  0.23681100  0.83660500  1
  Al  Al1  1  0.76318900  0.60503400  0.83660500  1
  Al  Al2  1  0.39496600  0.15815500  0.83660500  1
  Al  Al3  1  0.23681100  0.84184500  0.83660500  1
  Al  Al4  1  0.60503400  0.76318900  0.83660500  1
  Al  Al5  1  0.15815500  0.39496600  0.83660500  1
  Al  Al6  1  0.15815500  0.76318900  0.16339500  1
  Al  Al7  1  0.23681100  0.39496600  0.16339500  1
  Al  Al8  1  0.60503400  0.84184500  0.16339500  1
  Al  Al9  1  0.76318900  0.15815500  0.16339500  1
  Al  Al10  1  0.39496600  0.23681100  0.16339500  1
  Al  Al11  1  0.84184500  0.60503400  0.16339500  1
  Al  Al12  1  0.15815500  0.76318900  0.33660500  1
  Al  Al13  1  0.23681100  0.39496600  0.33660500  1
  Al  Al14  1  0.60503400  0.84184500  0.33660500  1
  Al  Al15  1  0.76318900  0.15815500  0.33660500  1
  Al  Al16  1  0.39496600  0.23681100  0.33660500  1
  Al  Al17  1  0.84184500  0.60503400  0.33660500  1
  Al  Al18  1  0.84184500  0.23681100  0.66339500  1
  Al  Al19  1  0.76318900  0.60503400  0.66339500  1
  Al  Al20  1  0.39496600  0.15815500  0.66339500  1
  Al  Al21  1  0.23681100  0.84184500  0.66339500  1
  Al  Al22  1  0.60503400  0.76318900  0.66339500  1
  Al  Al23  1  0.15815500  0.39496600  0.66339500  1
  Al  Al24  1  0.84033100  0.84033100  0.38540400  1
  Al  Al25  1  0.15966900  0.00000000  0.38540400  1
  Al  Al26  1  0.00000000  0.15966900  0.38540400  1
  Al  Al27  1  0.15966900  0.15966900  0.61459600  1
  Al  Al28  1  0.84033100  0.00000000  0.61459600  1
  Al  Al29  1  0.00000000  0.84033100  0.61459600  1
  Al  Al30  1  0.15966900  0.15966900  0.88540400  1
  Al  Al31  1  0.84033100  0.00000000  0.88540400  1
  Al  Al32  1  0.00000000  0.84033100  0.88540400  1
  Al  Al33  1  0.84033100  0.84033100  0.11459600  1
  Al  Al34  1  0.15966900  0.00000000  0.11459600  1
  Al  Al35  1  0.00000000  0.15966900  0.11459600  1
  Al  Al36  1  0.74524600  0.74524600  0.96953200  1
  Al  Al37  1  0.25475400  0.00000000  0.96953200  1
  Al  Al38  1  0.00000000  0.25475400  0.96953200  1
  Al  Al39  1  0.25475400  0.25475400  0.03046800  1
  Al  Al40  1  0.74524600  0.00000000  0.03046800  1
  Al  Al41  1  0.00000000  0.74524600  0.03046800  1
  Al  Al42  1  0.25475400  0.25475400  0.46953200  1
  Al  Al43  1  0.74524600  0.00000000  0.46953200  1
  Al  Al44  1  0.00000000  0.74524600  0.46953200  1
  Al  Al45  1  0.74524600  0.74524600  0.53046800  1
  Al  Al46  1  0.25475400  0.00000000  0.53046800  1
  Al  Al47  1  0.00000000  0.25475400  0.53046800  1
  Al  Al48  1  0.85299000  0.44837100  0.75000000  1
  Al  Al49  1  0.55162900  0.40461900  0.75000000  1
  Al  Al50  1  0.59538100  0.14701000  0.75000000  1
  Al  Al51  1  0.44837100  0.85299000  0.75000000  1
  Al  Al52  1  0.40461900  0.55162900  0.75000000  1
  Al  Al53  1  0.14701000  0.59538100  0.75000000  1
  Al  Al54  1  0.14701000  0.55162900  0.25000000  1
  Al  Al55  1  0.44837100  0.59538100  0.25000000  1
  Al  Al56  1  0.40461900  0.85299000  0.25000000  1
  Al  Al57  1  0.55162900  0.14701000  0.25000000  1
  Al  Al58  1  0.59538100  0.44837100  0.25000000  1
  Al  Al59  1  0.85299000  0.40461900  0.25000000  1
  Al  Al60  1  0.75308500  0.24691500  0.00000000  1
  Al  Al61  1  0.75308500  0.50617000  0.00000000  1
  Al  Al62  1  0.49383000  0.24691500  0.00000000  1
  Al  Al63  1  0.24691500  0.75308500  0.00000000  1
  Al  Al64  1  0.50617000  0.75308500  0.00000000  1
  Al  Al65  1  0.24691500  0.49383000  0.00000000  1
  Al  Al66  1  0.24691500  0.75308500  0.50000000  1
  Al  Al67  1  0.24691500  0.49383000  0.50000000  1
  Al  Al68  1  0.50617000  0.75308500  0.50000000  1
  Al  Al69  1  0.75308500  0.24691500  0.50000000  1
  Al  Al70  1  0.49383000  0.24691500  0.50000000  1
  Al  Al71  1  0.75308500  0.50617000  0.50000000  1
  Al  Al72  1  0.66666700  0.33333300  0.87399000  1
  Al  Al73  1  0.33333300  0.66666700  0.87399000  1
  Al  Al74  1  0.33333300  0.66666700  0.12601000  1
  Al  Al75  1  0.66666700  0.33333300  0.12601000  1
  Al  Al76  1  0.33333300  0.66666700  0.37399000  1
  Al  Al77  1  0.66666700  0.33333300  0.37399000  1
  Al  Al78  1  0.66666700  0.33333300  0.62601000  1
  Al  Al79  1  0.33333300  0.66666700  0.62601000  1
  Al  Al80  1  0.85232600  0.85232600  0.75000000  1
  Al  Al81  1  0.14767400  0.00000000  0.75000000  1
  Al  Al82  1  0.00000000  0.14767400  0.75000000  1
  Al  Al83  1  0.14767400  0.14767400  0.25000000  1
  Al  Al84  1  0.85232600  0.00000000  0.25000000  1
  Al  Al85  1  0.00000000  0.85232600  0.25000000  1
  W  W0  1  0.27124700  0.27124700  0.75000000  1
  W  W1  1  0.72875300  0.00000000  0.75000000  1
  W  W2  1  0.00000000  0.72875300  0.75000000  1
  W  W3  1  0.72875300  0.72875300  0.25000000  1
  W  W4  1  0.27124700  0.00000000  0.25000000  1
  W  W5  1  0.00000000  0.27124700  0.25000000  1
  W  W6  1  0.00000000  0.00000000  0.00000000  1
  W  W7  1  0.00000000  0.00000000  0.50000000  1
loop_
_geom_bond_atom_site_label_1
_geom_bond_atom_site_label_2
_geom_bond_distance
_geom_bond_site_symmetry_2
Er0 Er3 3.432032 1_556
Er0 W0 3.481892 1_555
Er1 Er4 3.432032 1_556
Er1 W1 3.481892 1_555
Er2 Er5 3.432032 1_556
Er2 W2 3.481892 1_555
Er3 W3 3.481892 1_555
Er4 W4 3.481892 1_555
Er5 W5 3.481892 1_555
Er6 Er9 3.432032 1_555
Er6 W3 3.481892 1_555
Er7 W4 3.481892 1_555
Er8 W5 3.481892 1_555
Er9 W0 3.481892 1_555
Er10 Er7 3.432032 1_555
Er10 W1 3.481892 1_555
Er11 Er8 3.432032 1_555
Er11 W2 3.481892 1_555
Al0 Al72 2.716778 1_555
Al0 W1 2.730748 1_555
Al0 Al38 2.864947 1_655
Al0 Al60 3.055371 1_556
Al0 Er2 3.063139 1_655
Al0 Er1 3.325448 1_555
Al1 Al72 2.716788 1_555
Al1 W2 2.730748 1_655
Al1 Al36 2.864947 1_555
Al1 Al61 3.055371 1_556
Al1 Er0 3.063139 1_555
Al1 Er2 3.325448 1_655
Al2 Al72 2.716786 1_555
Al2 W0 2.730748 1_555
Al2 Al37 2.864947 1_555
Al2 Al62 3.055371 1_556
Al2 Er1 3.063139 1_555
Al2 Er0 3.325448 1_555
Al3 Al73 2.716778 1_555
Al3 W2 2.730748 1_555
Al3 Al37 2.864947 1_565
Al3 Al63 3.055371 1_556
Al3 Er1 3.063139 1_565
Al3 Er2 3.325448 1_555
Al4 Al73 2.716788 1_555
Al4 W1 2.730748 1_565
Al4 Al64 3.055371 1_556
Al4 Er0 3.063139 1_555
Al4 Er1 3.325448 1_565
Al5 Al73 2.716786 1_555
Al5 W0 2.730748 1_555
Al5 Al65 3.055371 1_556
Al5 Er2 3.063139 1_555
Al5 Er0 3.325448 1_555
Al6 Al74 2.716778 1_555
Al6 W4 2.730748 1_565
Al6 Al63 3.055371 1_555
Al6 Er5 3.063139 1_555
Al6 Er4 3.325448 1_565
Al7 Al74 2.716788 1_555
Al7 W5 2.730748 1_555
Al7 Er3 3.063139 1_555
Al7 Er5 3.325448 1_555
Al8 W3 2.730748 1_555
Al8 Er4 3.063139 1_565
Al8 Er3 3.325448 1_555
Al9 W5 2.730748 1_655
Al9 Er4 3.063139 1_555
Al9 Er5 3.325448 1_655
Al10 Al75 2.716788 1_555
Al10 W4 2.730748 1_555
Al10 Al39 2.864947 1_555
Al10 Al62 3.055371 1_555
Al10 Er3 3.063139 1_555
Al10 Er4 3.325448 1_555
Al11 Al75 2.716786 1_555
Al11 W3 2.730748 1_555
Al11 Al41 2.864947 1_655
Al11 Al61 3.055371 1_555
Al11 Er5 3.063139 1_655
Al11 Er3 3.325448 1_555
Al12 Al76 2.716778 1_555
Al12 W4 2.730748 1_565
Al12 Al44 2.864947 1_555
Al12 Al66 3.055371 1_555
Al12 Er8 3.063139 1_555
Al12 Er7 3.325448 1_565
Al13 Al76 2.716788 1_555
Al13 W5 2.730748 1_555
Al13 Al42 2.864947 1_555
Al13 Al67 3.055371 1_555
Al13 Er6 3.063139 1_555
Al13 Er8 3.325448 1_555
Al14 Al76 2.716786 1_555
Al14 W3 2.730748 1_555
Al14 Al43 2.864947 1_565
Al14 Al68 3.055371 1_555
Al14 Er7 3.063139 1_565
Al14 Er6 3.325448 1_555
Al15 Al77 2.716778 1_555
Al15 W5 2.730748 1_655
Al15 Al43 2.864947 1_555
Al15 Al69 3.055371 1_555
Al15 Er7 3.063139 1_555
Al15 Er8 3.325448 1_655
Al16 Al77 2.716788 1_555
Al16 W4 2.730748 1_555
Al16 Al42 2.864947 1_555
Al16 Al70 3.055371 1_555
Al16 Er6 3.063139 1_555
Al16 Er7 3.325448 1_555
Al17 Al77 2.716786 1_555
Al17 W3 2.730748 1_555
Al17 Al44 2.864947 1_655
Al17 Al71 3.055371 1_555
Al17 Er8 3.063139 1_655
Al17 Er6 3.325448 1_555
Al18 Al78 2.716778 1_555
Al18 W1 2.730748 1_555
Al18 Al47 2.864947 1_655
Al18 Al69 3.055371 1_555
Al18 Er11 3.063139 1_655
Al18 Er10 3.325448 1_555
Al19 Al78 2.716788 1_555
Al19 W2 2.730748 1_655
Al19 Al45 2.864947 1_555
Al19 Al71 3.055371 1_555
Al19 Er9 3.063139 1_555
Al19 Er11 3.325448 1_655
Al20 Al78 2.716786 1_555
Al20 W0 2.730748 1_555
Al20 Al46 2.864947 1_555
Al20 Al70 3.055371 1_555
Al20 Er10 3.063139 1_555
Al20 Er9 3.325448 1_555
Al21 Al79 2.716778 1_555
Al21 W2 2.730748 1_555
Al21 Al46 2.864947 1_565
Al21 Al66 3.055371 1_555
Al21 Er10 3.063139 1_565
Al21 Er11 3.325448 1_555
Al22 Al79 2.716788 1_555
Al22 W1 2.730748 1_565
Al22 Al45 2.864947 1_555
Al22 Al68 3.055371 1_555
Al22 Er9 3.063139 1_555
Al22 Er10 3.325448 1_565
Al23 Al79 2.716786 1_555
Al23 W0 2.730748 1_555
Al23 Al47 2.864947 1_555
Al23 Al67 3.055371 1_555
Al23 Er11 3.063139 1_555
Al23 Er9 3.325448 1_555
Al24 W7 2.677970 1_665
Al24 W3 2.680775 1_555
Al24 Al45 2.758213 1_555
Al24 Al43 2.873647 1_565
Al24 Al44 2.873647 1_655
Al24 Er6 3.429821 1_555
Al25 W7 2.677969 1_555
Al25 W4 2.680775 1_555
Al25 Al46 2.758213 1_555
Al25 Al42 2.873647 1_555
Al25 Al44 2.873647 1_545
Al25 Er7 3.429821 1_555
Al26 W7 2.677969 1_555
Al26 W5 2.680775 1_555
Al26 Al47 2.758213 1_555
Al26 Al42 2.873647 1_555
Al26 Al43 2.873647 1_455
Al26 Er8 3.429821 1_555
Al27 W7 2.677970 1_555
Al27 W0 2.680775 1_555
Al27 Al42 2.758213 1_555
Al27 Al46 2.873647 1_555
Al27 Al47 2.873647 1_555
Al27 Er9 3.429821 1_555
Al28 W7 2.677969 1_655
Al28 W1 2.680775 1_555
Al28 Al43 2.758213 1_555
Al28 Al45 2.873647 1_545
Al28 Al47 2.873647 1_655
Al28 Er10 3.429821 1_555
Al29 W7 2.677969 1_565
Al29 W2 2.680775 1_555
Al29 Al44 2.758213 1_555
Al29 Al45 2.873647 1_455
Al29 Al46 2.873647 1_565
Al29 Er11 3.429821 1_555
Al30 W6 2.677970 1_556
Al30 W0 2.680775 1_555
Al30 Al39 2.758213 1_556
Al30 Al37 2.873647 1_555
Al30 Al38 2.873647 1_555
Al30 Er0 3.429821 1_555
Al31 W6 2.677969 1_656
Al31 W1 2.680775 1_555
Al31 Al40 2.758213 1_556
Al31 Al36 2.873647 1_545
Al31 Al38 2.873647 1_655
Al31 Er1 3.429821 1_555
Al32 W6 2.677969 1_566
Al32 W2 2.680775 1_555
Al32 Al41 2.758213 1_556
Al32 Al36 2.873647 1_455
Al32 Al37 2.873647 1_565
Al32 Er2 3.429821 1_555
Al33 W6 2.677970 1_665
Al33 W3 2.680775 1_555
Al33 Al36 2.758213 1_554
Al33 Al40 2.873647 1_565
Al33 Al41 2.873647 1_655
Al33 Er3 3.429821 1_555
Al34 W6 2.677969 1_555
Al34 W4 2.680775 1_555
Al34 Al37 2.758213 1_554
Al34 Al39 2.873647 1_555
Al34 Al41 2.873647 1_545
Al34 Er4 3.429821 1_555
Al35 W6 2.677969 1_555
Al35 W5 2.680775 1_555
Al35 Al38 2.758213 1_554
Al35 Al39 2.873647 1_555
Al35 Al40 2.873647 1_455
Al35 Er5 3.429821 1_555
Al36 Al61 2.738990 1_556
Al36 Al64 2.738990 1_556
Al36 Al4 2.864947 1_555
Al36 W6 2.865494 1_666
Al36 Al40 3.011938 1_566
Al36 Al41 3.011938 1_656
Al36 Er3 3.239518 1_556
Al36 Er0 3.264375 1_555
Al37 Al63 2.738990 1_546
Al37 Al62 2.738990 1_556
Al37 W6 2.865494 1_556
Al37 Al39 3.011938 1_556
Al37 Al41 3.011938 1_546
Al37 Er4 3.239518 1_556
Al37 Er1 3.264375 1_555
Al38 Al60 2.738990 1_456
Al38 Al65 2.738990 1_556
Al38 Al5 2.864947 1_555
Al38 W6 2.865494 1_556
Al38 Al39 3.011938 1_556
Al38 Al40 3.011938 1_456
Al38 Er5 3.239518 1_556
Al38 Er2 3.264375 1_555
Al39 Al62 2.738990 1_555
Al39 Al65 2.738990 1_555
Al39 Al7 2.864947 1_555
Al39 W6 2.865494 1_555
Al39 Er0 3.239518 1_554
Al39 Er3 3.264375 1_555
Al40 Al60 2.738990 1_555
Al40 Al64 2.738990 1_545
Al40 Al9 2.864947 1_555
Al40 Al8 2.864947 1_545
Al40 W6 2.865494 1_655
Al40 Er1 3.239518 1_554
Al40 Er4 3.264375 1_555
Al41 Al63 2.738990 1_555
Al41 Al61 2.738990 1_455
Al41 Al6 2.864947 1_555
Al41 W6 2.865494 1_565
Al41 Er2 3.239518 1_554
Al41 Er5 3.264375 1_555
Al42 Al67 2.738990 1_555
Al42 Al70 2.738990 1_555
Al42 W7 2.865494 1_555
Al42 Al46 3.011938 1_555
Al42 Al47 3.011938 1_555
Al42 Er9 3.239518 1_555
Al42 Er6 3.264375 1_555
Al43 Al69 2.738990 1_555
Al43 Al68 2.738990 1_545
Al43 W7 2.865494 1_655
Al43 Al45 3.011938 1_545
Al43 Al47 3.011938 1_655
Al43 Er10 3.239518 1_555
Al43 Er7 3.264375 1_555
Al44 Al66 2.738990 1_555
Al44 Al71 2.738990 1_455
Al44 W7 2.865494 1_565
Al44 Al45 3.011938 1_455
Al44 Al46 3.011938 1_565
Al44 Er11 3.239518 1_555
Al44 Er8 3.264375 1_555
Al45 Al71 2.738990 1_555
Al45 Al68 2.738990 1_555
Al45 W7 2.865494 1_665
Al45 Er6 3.239518 1_555
Al45 Er9 3.264375 1_555
Al46 Al66 2.738990 1_545
Al46 Al70 2.738990 1_555
Al46 W7 2.865494 1_555
Al46 Er7 3.239518 1_555
Al46 Er10 3.264375 1_555
Al47 Al69 2.738990 1_455
Al47 Al67 2.738990 1_555
Al47 W7 2.865494 1_555
Al47 Er8 3.239518 1_555
Al47 Er11 3.264375 1_555
Al48 W2 2.684153 1_655
Al48 Al78 2.826474 1_555
Al48 Al72 2.826474 1_555
Al48 Er11 3.059211 1_655
Al48 Er2 3.059211 1_655
Al49 W0 2.684153 1_555
Al49 Al78 2.826479 1_555
Al49 Al72 2.826479 1_555
Al49 Er9 3.059211 1_555
Al49 Er0 3.059211 1_555
Al50 W1 2.684153 1_555
Al50 Al78 2.826473 1_555
Al50 Al72 2.826473 1_555
Al50 Er1 3.059211 1_555
Al50 Er10 3.059211 1_555
Al51 W1 2.684153 1_565
Al51 Al79 2.826474 1_555
Al51 Al73 2.826474 1_555
Al51 Er1 3.059211 1_565
Al51 Er10 3.059211 1_565
Al52 W0 2.684153 1_555
Al52 Al79 2.826479 1_555
Al52 Al73 2.826479 1_555
Al52 Er9 3.059211 1_555
Al52 Er0 3.059211 1_555
Al53 W2 2.684153 1_555
Al53 Al79 2.826473 1_555
Al53 Al73 2.826473 1_555
Al53 Er11 3.059211 1_555
Al53 Er2 3.059211 1_555
Al54 W5 2.684153 1_555
Al54 Al76 2.826474 1_555
Al54 Al74 2.826474 1_555
Al54 Er8 3.059211 1_555
Al54 Er5 3.059211 1_555
Al55 W3 2.684153 1_555
Al55 Al76 2.826479 1_555
Al55 Al74 2.826479 1_555
Al55 Er6 3.059211 1_555
Al55 Er3 3.059211 1_555
Al56 W4 2.684153 1_565
Al56 Al76 2.826473 1_555
Al56 Al74 2.826473 1_555
Al56 Er7 3.059211 1_565
Al56 Er4 3.059211 1_565
Al57 W4 2.684153 1_555
Al57 Al77 2.826474 1_555
Al57 Al75 2.826474 1_555
Al57 Er4 3.059211 1_555
Al57 Er7 3.059211 1_555
Al58 W3 2.684153 1_555
Al58 Al77 2.826479 1_555
Al58 Al75 2.826479 1_555
Al58 Er6 3.059211 1_555
Al58 Er3 3.059211 1_555
Al59 W5 2.684153 1_655
Al59 Al75 2.826473 1_555
Al59 Al77 2.826473 1_555
Al59 Er8 3.059211 1_655
Al59 Er5 3.059211 1_655
Al60 Al72 2.764601 1_554
Al60 Al75 2.764601 1_555
Al60 Al61 2.864722 1_555
Al60 Al62 2.864722 1_555
Al60 Al9 3.055371 1_555
Al60 Er5 3.095974 1_655
Al60 Er1 3.095974 1_554
Al60 Er4 3.402009 1_555
Al60 Er2 3.402009 1_654
Al61 Al72 2.764606 1_554
Al61 Al75 2.764606 1_555
Al61 Al62 2.864722 1_555
Al61 Er3 3.095974 1_555
Al61 Er2 3.095974 1_654
Al61 Er5 3.402009 1_655
Al61 Er0 3.402009 1_554
Al62 Al72 2.764606 1_554
Al62 Al75 2.764606 1_555
Al62 Er0 3.095974 1_554
Al62 Er4 3.095974 1_555
Al62 Er1 3.402009 1_554
Al62 Er3 3.402009 1_555
Al63 Al73 2.764601 1_554
Al63 Al74 2.764601 1_555
Al63 Al64 2.864722 1_555
Al63 Al65 2.864722 1_555
Al63 Er4 3.095974 1_565
Al63 Er2 3.095974 1_554
Al63 Er1 3.402009 1_564
Al63 Er5 3.402009 1_555
Al64 Al73 2.764606 1_554
Al64 Al74 2.764606 1_555
Al64 Al65 2.864722 1_555
Al64 Al8 3.055371 1_555
Al64 Er3 3.095974 1_555
Al64 Er1 3.095974 1_564
Al64 Er4 3.402009 1_565
Al64 Er0 3.402009 1_554
Al65 Al73 2.764606 1_554
Al65 Al74 2.764606 1_555
Al65 Al7 3.055371 1_555
Al65 Er0 3.095974 1_554
Al65 Er5 3.095974 1_555
Al65 Er2 3.402009 1_554
Al65 Er3 3.402009 1_555
Al66 Al79 2.764601 1_555
Al66 Al76 2.764601 1_555
Al66 Al67 2.864722 1_555
Al66 Al68 2.864722 1_555
Al66 Er7 3.095974 1_565
Al66 Er11 3.095974 1_555
Al66 Er10 3.402009 1_565
Al66 Er8 3.402009 1_555
Al67 Al79 2.764606 1_555
Al67 Al76 2.764606 1_555
Al67 Al68 2.864722 1_555
Al67 Er9 3.095974 1_555
Al67 Er8 3.095974 1_555
Al67 Er11 3.402009 1_555
Al67 Er6 3.402009 1_555
Al68 Al79 2.764606 1_555
Al68 Al76 2.764606 1_555
Al68 Er6 3.095974 1_555
Al68 Er10 3.095974 1_565
Al68 Er7 3.402009 1_565
Al68 Er9 3.402009 1_555
Al69 Al78 2.764601 1_555
Al69 Al77 2.764601 1_555
Al69 Al70 2.864722 1_555
Al69 Al71 2.864722 1_555
Al69 Er8 3.095974 1_655
Al69 Er10 3.095974 1_555
Al69 Er7 3.402009 1_555
Al69 Er11 3.402009 1_655
Al70 Al78 2.764606 1_555
Al70 Al77 2.764606 1_555
Al70 Al71 2.864722 1_555
Al70 Er9 3.095974 1_555
Al70 Er7 3.095974 1_555
Al70 Er10 3.402009 1_555
Al70 Er6 3.402009 1_555
Al71 Al78 2.764606 1_555
Al71 Al77 2.764606 1_555
Al71 Er6 3.095974 1_555
Al71 Er11 3.095974 1_655
Al71 Er8 3.402009 1_655
Al71 Er9 3.402009 1_555
Al72 Er1 3.252887 1_555
Al72 Er2 3.252888 1_655
Al72 Er0 3.252897 1_555
Al73 Er2 3.252887 1_555
Al73 Er1 3.252888 1_565
Al73 Er0 3.252897 1_555
Al74 Al8 2.716786 1_555
Al74 Er4 3.252887 1_565
Al74 Er5 3.252888 1_555
Al74 Er3 3.252897 1_555
Al75 Al9 2.716778 1_555
Al75 Er5 3.252887 1_655
Al75 Er4 3.252888 1_555
Al75 Er3 3.252897 1_555
Al76 Er7 3.252887 1_565
Al76 Er8 3.252888 1_555
Al76 Er6 3.252897 1_555
Al77 Er8 3.252887 1_655
Al77 Er7 3.252888 1_555
Al77 Er6 3.252897 1_555
Al78 Er10 3.252887 1_555
Al78 Er11 3.252888 1_655
Al78 Er9 3.252897 1_555
Al79 Er11 3.252887 1_555
Al79 Er10 3.252888 1_565
Al79 Er9 3.252897 1_555
Al80 W1 2.599092 1_565
Al80 W2 2.599092 1_655
Al81 W0 2.599092 1_555
Al81 W2 2.599092 1_545
Al82 W0 2.599092 1_555
Al82 W1 2.599092 1_455
Al83 W5 2.599092 1_555
Al83 W4 2.599092 1_555
Al84 W3 2.599092 1_545
Al84 W5 2.599092 1_655
Al85 W3 2.599092 1_455
Al85 W4 2.599092 1_565
