# generated using pymatgen
data_SrCaMg14
_symmetry_space_group_name_H-M   'P 1'
_cell_length_a   6.66780953
_cell_length_b   6.68763035
_cell_length_c   10.66268054
_cell_angle_alpha   90.00000000
_cell_angle_beta   90.00000000
_cell_angle_gamma   120.09838792
_symmetry_Int_Tables_number   1
_chemical_formula_structural   SrCaMg14
_chemical_formula_sum   'Sr1 Ca1 Mg14'
_cell_volume   411.35904520
_cell_formula_units_Z   1
loop_
 _symmetry_equiv_pos_site_id
 _symmetry_equiv_pos_as_xyz
  1  'x, y, z'
loop_
 _atom_site_type_symbol
 _atom_site_label
 _atom_site_symmetry_multiplicity
 _atom_site_fract_x
 _atom_site_fract_y
 _atom_site_fract_z
 _atom_site_occupancy
  Sr  Sr0  1  0.16953643  0.83476771  0.12500000  1
  Ca  Ca0  1  0.17410036  0.33704968  0.12500000  1
  Mg  Mg0  1  0.16506249  0.33253075  0.62500000  1
  Mg  Mg1  1  0.16609648  0.83304774  0.62500000  1
  Mg  Mg2  1  0.66279938  0.33300375  0.12500000  1
  Mg  Mg3  1  0.66804115  0.33311196  0.62500000  1
  Mg  Mg4  1  0.66279938  0.82979463  0.12500000  1
  Mg  Mg5  1  0.66804115  0.83492819  0.62500000  1
  Mg  Mg6  1  0.34080449  0.17322031  0.38929511  1
  Mg  Mg7  1  0.34080449  0.17322031  0.86070489  1
  Mg  Mg8  1  0.34080449  0.66758518  0.38929511  1
  Mg  Mg9  1  0.34080449  0.66758518  0.86070489  1
  Mg  Mg10  1  0.82722107  0.16361103  0.37780661  1
  Mg  Mg11  1  0.82722107  0.16361103  0.87219339  1
  Mg  Mg12  1  0.82293153  0.66146627  0.38260294  1
  Mg  Mg13  1  0.82293153  0.66146627  0.86739706  1
loop_
_geom_bond_atom_site_label_1
_geom_bond_atom_site_label_2
_geom_bond_distance
_geom_bond_site_symmetry_2
Ca0 Mg4 3.272204 1_555
Ca0 Mg2 3.272205 1_555
Ca0 Sr0 3.343919 1_555
Ca0 Sr0 3.343919 1_545
Ca0 Mg10 3.357155 1_455
Ca0 Mg11 3.357155 1_454
Ca0 Mg4 3.395769 1_445
Ca0 Mg2 3.395769 1_455
Ca0 Mg6 3.405742 1_555
Ca0 Mg7 3.405742 1_554
Ca0 Mg8 3.405748 1_555
Ca0 Mg9 3.405748 1_554
Mg0 Mg7 3.174401 1_555
Mg0 Mg6 3.174401 1_555
Mg0 Mg9 3.174408 1_555
Mg0 Mg8 3.174408 1_555
Mg0 Mg11 3.278027 1_455
Mg0 Mg10 3.278027 1_455
Mg0 Mg5 3.315994 1_445
Mg0 Mg3 3.315995 1_455
Mg0 Mg1 3.343820 1_555
Mg0 Mg1 3.343821 1_545
Mg0 Mg5 3.351818 1_555
Mg0 Mg3 3.351818 1_555
Mg1 Mg9 3.192300 1_555
Mg1 Mg8 3.192300 1_555
Mg1 Mg7 3.192307 1_565
Mg1 Mg6 3.192307 1_565
Mg1 Mg12 3.255630 1_455
Mg1 Mg13 3.255630 1_455
Mg1 Mg3 3.327262 1_455
Mg1 Mg5 3.327262 1_455
Mg1 Mg3 3.340582 1_565
Mg1 Mg5 3.340583 1_555
Mg2 Sr0 3.305787 1_545
Mg2 Mg4 3.322354 1_555
Mg2 Sr0 3.362270 1_655
Mg2 Mg4 3.365277 1_545
Mg2 Mg6 3.375214 1_555
Mg2 Mg7 3.375214 1_554
Mg3 Mg7 3.143346 1_555
Mg3 Mg6 3.143346 1_555
Mg3 Mg5 3.331669 1_545
Mg3 Mg5 3.355961 1_555
Mg4 Sr0 3.305787 1_555
Mg4 Sr0 3.362271 1_655
Mg4 Mg8 3.375214 1_555
Mg4 Mg9 3.375214 1_554
Mg5 Mg9 3.143346 1_555
Mg5 Mg8 3.143346 1_555
Mg6 Mg8 3.306130 1_555
Mg6 Mg8 3.381501 1_545
Mg6 Sr0 3.431686 1_545
Mg7 Mg9 3.306130 1_555
Mg7 Mg9 3.381501 1_545
Mg7 Sr0 3.431686 1_546
Mg8 Sr0 3.431679 1_555
Mg9 Sr0 3.431679 1_556
Mg10 Mg3 3.250439 1_555
Mg10 Mg5 3.250445 1_545
Mg10 Mg8 3.278321 1_545
Mg10 Mg6 3.278322 1_555
Mg10 Mg2 3.316196 1_555
Mg10 Mg4 3.316203 1_545
Mg10 Mg12 3.344298 1_545
Mg10 Mg12 3.344298 1_555
Mg10 Mg8 3.394915 1_655
Mg10 Mg6 3.394916 1_655
Mg11 Mg3 3.250439 1_555
Mg11 Mg5 3.250445 1_545
Mg11 Mg9 3.278321 1_545
Mg11 Mg7 3.278322 1_555
Mg11 Mg2 3.316196 1_556
Mg11 Mg4 3.316203 1_546
Mg11 Mg13 3.344298 1_545
Mg11 Mg13 3.344298 1_555
Mg11 Mg9 3.394915 1_655
Mg11 Mg7 3.394916 1_655
Mg12 Mg5 3.208450 1_555
Mg12 Mg3 3.208457 1_555
Mg12 Mg6 3.236233 1_555
Mg12 Mg8 3.236233 1_555
Mg12 Mg4 3.340269 1_555
Mg12 Mg2 3.340275 1_555
Mg12 Sr0 3.397424 1_655
Mg12 Mg6 3.433481 1_665
Mg12 Mg8 3.433481 1_655
Mg13 Mg5 3.208450 1_555
Mg13 Mg3 3.208457 1_555
Mg13 Mg7 3.236233 1_555
Mg13 Mg9 3.236233 1_555
Mg13 Mg4 3.340269 1_556
Mg13 Mg2 3.340275 1_556
Mg13 Sr0 3.397424 1_656
Mg13 Mg7 3.433481 1_665
Mg13 Mg9 3.433481 1_655
