# generated using pymatgen
data_PaP2
_symmetry_space_group_name_H-M   'P 1'
_cell_length_a   3.87135192
_cell_length_b   3.87135192
_cell_length_c   7.82302071
_cell_angle_alpha   90.00000000
_cell_angle_beta   90.00000000
_cell_angle_gamma   90.00000000
_symmetry_Int_Tables_number   1
_chemical_formula_structural   PaP2
_chemical_formula_sum   'Pa2 P4'
_cell_volume   117.24647217
_cell_formula_units_Z   2
loop_
 _symmetry_equiv_pos_site_id
 _symmetry_equiv_pos_as_xyz
  1  'x, y, z'
loop_
 _atom_site_type_symbol
 _atom_site_label
 _atom_site_symmetry_multiplicity
 _atom_site_fract_x
 _atom_site_fract_y
 _atom_site_fract_z
 _atom_site_occupancy
  Pa  Pa0  1  0.75000000  0.75000000  0.72406641  1
  Pa  Pa1  1  0.25000000  0.25000000  0.27593359  1
  P  P0  1  0.75000000  0.75000000  0.36097466  1
  P  P1  1  0.25000000  0.25000000  0.63902534  1
  P  P2  1  0.75000000  0.25000000  -0.00000000  1
  P  P3  1  0.25000000  0.75000000  -0.00000000  1
loop_
_geom_bond_atom_site_label_1
_geom_bond_atom_site_label_2
_geom_bond_distance
_geom_bond_site_symmetry_2
P0 Pa1 2.817140 1_655
P0 Pa1 2.817140 1_665
P0 Pa1 2.817140 1_555
P0 Pa1 2.817140 1_565
P0 Pa0 2.840474 1_555
P1 Pa0 2.817140 1_555
P1 Pa0 2.817140 1_455
P1 Pa0 2.817140 1_445
P1 Pa0 2.817140 1_545
P1 Pa1 2.840474 1_555
P2 P3 2.737459 1_545
P2 P3 2.737459 1_655
P2 P3 2.737459 1_645
P2 P3 2.737459 1_555
P2 Pa0 2.899404 1_544
P2 Pa0 2.899404 1_554
P2 Pa1 2.899404 1_655
P2 Pa1 2.899404 1_555
P3 Pa0 2.899404 1_454
P3 Pa0 2.899404 1_554
P3 Pa1 2.899404 1_565
P3 Pa1 2.899404 1_555
