# generated using pymatgen
data_Li3MnCoO5
_symmetry_space_group_name_H-M   'P 1'
_cell_length_a   5.08724200
_cell_length_b   5.12703205
_cell_length_c   7.63301892
_cell_angle_alpha   83.18407053
_cell_angle_beta   71.54019292
_cell_angle_gamma   70.74418204
_symmetry_Int_Tables_number   1
_chemical_formula_structural   Li3MnCoO5
_chemical_formula_sum   'Li6 Mn2 Co2 O10'
_cell_volume   178.25662020
_cell_formula_units_Z   2
loop_
 _symmetry_equiv_pos_site_id
 _symmetry_equiv_pos_as_xyz
  1  'x, y, z'
loop_
 _atom_site_type_symbol
 _atom_site_label
 _atom_site_symmetry_multiplicity
 _atom_site_fract_x
 _atom_site_fract_y
 _atom_site_fract_z
 _atom_site_occupancy
  Li  Li0  1  0.00000000  0.50000000  0.50000000  1
  Li  Li1  1  0.59429300  0.49717900  0.30482200  1
  Li  Li2  1  0.19061600  0.50460800  0.10346500  1
  Li  Li3  1  0.80938400  0.49539200  0.89653500  1
  Li  Li4  1  0.40570700  0.50282100  0.69517800  1
  Li  Li5  1  0.50000000  0.00000000  0.50000000  1
  Mn  Mn0  1  0.90379400  0.99252600  0.69776000  1
  Mn  Mn1  1  0.09620600  0.00747400  0.30224000  1
  Co  Co0  1  0.69231600  0.00209400  0.11083800  1
  Co  Co1  1  0.30768400  0.99790600  0.88916200  1
  O  O0  1  0.66248500  0.76783700  0.70787200  1
  O  O1  1  0.21872600  0.77612600  0.50032900  1
  O  O2  1  0.85713700  0.77922200  0.28677400  1
  O  O3  1  0.41873000  0.78256900  0.10973800  1
  O  O4  1  0.04742300  0.76637400  0.88921900  1
  O  O5  1  0.33751500  0.23216300  0.29212800  1
  O  O6  1  0.95257700  0.23362600  0.11078100  1
  O  O7  1  0.58127000  0.21743100  0.89026200  1
  O  O8  1  0.14286300  0.22077800  0.71322600  1
  O  O9  1  0.78127400  0.22387400  0.49967100  1
loop_
_geom_bond_atom_site_label_1
_geom_bond_atom_site_label_2
_geom_bond_distance
_geom_bond_site_symmetry_2
Li0 O9 2.069778 1_455
Li0 O1 2.069778 1_555
Li0 O0 2.142002 1_455
Li0 O5 2.142002 1_555
Li0 O2 2.176321 1_455
Li0 O8 2.176321 1_555
Li1 O6 2.117243 1_555
Li1 O9 2.145328 1_555
Li1 O3 2.149213 1_555
Li1 O1 2.195785 1_555
Li1 O5 2.200924 1_555
Li1 O2 2.238167 1_555
Li2 O5 2.024591 1_555
Li2 O2 2.051122 1_455
Li2 O6 2.109085 1_455
Li2 O3 2.126530 1_555
Li2 O4 2.143552 1_554
Li2 O7 2.314394 1_554
Li3 O0 2.024591 1_555
Li3 O8 2.051122 1_655
Li3 O4 2.109085 1_655
Li3 O7 2.126530 1_555
Li3 O6 2.143552 1_556
Li3 O3 2.314394 1_556
Li4 O4 2.117243 1_555
Li4 O1 2.145328 1_555
Li4 O7 2.149213 1_555
Li4 O9 2.195785 1_555
Li4 O0 2.200924 1_555
Li4 O8 2.238167 1_555
Li5 O0 2.085910 1_545
Li5 O5 2.085910 1_555
Li5 O8 2.106981 1_555
Li5 O2 2.106981 1_545
Li5 O1 2.108389 1_545
Li5 O9 2.108389 1_555
Mn0 O0 1.921372 1_555
Mn0 O4 1.931125 1_655
Mn0 O1 1.940176 1_655
Mn0 O9 1.940383 1_565
Mn0 O7 1.951485 1_565
Mn0 O8 1.981172 1_665
Mn1 O5 1.921372 1_555
Mn1 O6 1.931125 1_455
Mn1 O9 1.940176 1_455
Mn1 O1 1.940383 1_545
Mn1 O3 1.951485 1_545
Mn1 O2 1.981172 1_445
Co0 O2 1.878590 1_545
Co0 O5 1.991373 1_555
Co0 O7 2.030394 1_554
Co0 O6 2.048977 1_555
Co0 O3 2.060778 1_545
Co0 O4 2.166943 1_644
Co1 O8 1.878590 1_565
Co1 O0 1.991373 1_555
Co1 O3 2.030394 1_556
Co1 O4 2.048977 1_555
Co1 O7 2.060778 1_565
Co1 O6 2.166943 1_466
