# generated using pymatgen
data_Gd7(BrO6)3
_symmetry_space_group_name_H-M   'P 1'
_cell_length_a   3.55466718
_cell_length_b   17.60081186
_cell_length_c   17.60081186
_cell_angle_alpha   119.99999936
_cell_angle_beta   90.00000000
_cell_angle_gamma   90.00000000
_symmetry_Int_Tables_number   1
_chemical_formula_structural   Gd7(BrO6)3
_chemical_formula_sum   'Gd14 Br6 O36'
_cell_volume   953.66310311
_cell_formula_units_Z   2
loop_
 _symmetry_equiv_pos_site_id
 _symmetry_equiv_pos_as_xyz
  1  'x, y, z'
loop_
 _atom_site_type_symbol
 _atom_site_label
 _atom_site_symmetry_multiplicity
 _atom_site_fract_x
 _atom_site_fract_y
 _atom_site_fract_z
 _atom_site_occupancy
  Gd  Gd0  1  0.75000000  0.52827582  0.87731148  1
  Gd  Gd1  1  0.25000000  0.47172418  0.12268852  1
  Gd  Gd2  1  0.75000000  0.34903566  0.47172418  1
  Gd  Gd3  1  0.25000000  0.65096434  0.52827582  1
  Gd  Gd4  1  0.75000000  0.12268852  0.65096434  1
  Gd  Gd5  1  0.25000000  0.87731148  0.34903566  1
  Gd  Gd6  1  0.75000000  0.91979162  0.16074753  1
  Gd  Gd7  1  0.25000000  0.08020838  0.83925247  1
  Gd  Gd8  1  0.75000000  0.24095592  0.08020838  1
  Gd  Gd9  1  0.25000000  0.75904408  0.91979162  1
  Gd  Gd10  1  0.75000000  0.83925247  0.75904408  1
  Gd  Gd11  1  0.25000000  0.16074753  0.24095592  1
  Gd  Gd12  1  0.75000000  0.66666700  0.33333300  1
  Gd  Gd13  1  0.25000000  0.33333300  0.66666700  1
  Br  Br0  1  0.75000000  0.55575157  0.60407386  1
  Br  Br1  1  0.25000000  0.44424843  0.39592614  1
  Br  Br2  1  0.75000000  0.04832229  0.44424843  1
  Br  Br3  1  0.25000000  0.95167771  0.55575157  1
  Br  Br4  1  0.75000000  0.39592614  0.95167771  1
  Br  Br5  1  0.25000000  0.60407386  0.04832229  1
  O  O0  1  0.75000000  0.82127337  0.39178228  1
  O  O1  1  0.25000000  0.17872663  0.60821772  1
  O  O2  1  0.75000000  0.57050891  0.17872663  1
  O  O3  1  0.25000000  0.42949109  0.82127337  1
  O  O4  1  0.75000000  0.60821772  0.42949109  1
  O  O5  1  0.25000000  0.39178228  0.57050891  1
  O  O6  1  0.75000000  0.67636665  0.93894532  1
  O  O7  1  0.25000000  0.32363335  0.06105468  1
  O  O8  1  0.75000000  0.26257867  0.32363335  1
  O  O9  1  0.25000000  0.73742133  0.67636665  1
  O  O10  1  0.75000000  0.06105468  0.73742133  1
  O  O11  1  0.25000000  0.93894532  0.26257867  1
  O  O12  1  0.75000000  0.86086802  0.01000806  1
  O  O13  1  0.25000000  0.13913198  0.98999194  1
  O  O14  1  0.75000000  0.14914003  0.13913198  1
  O  O15  1  0.25000000  0.85085997  0.86086802  1
  O  O16  1  0.75000000  0.98999194  0.85085997  1
  O  O17  1  0.25000000  0.01000806  0.14914003  1
  O  O18  1  0.75000000  0.84761741  0.24394056  1
  O  O19  1  0.25000000  0.15238259  0.75605944  1
  O  O20  1  0.75000000  0.39632315  0.15238259  1
  O  O21  1  0.25000000  0.60367685  0.84761741  1
  O  O22  1  0.75000000  0.75605944  0.60367685  1
  O  O23  1  0.25000000  0.24394056  0.39632315  1
  O  O24  1  0.75000000  0.75100062  0.82109598  1
  O  O25  1  0.25000000  0.24899938  0.17890402  1
  O  O26  1  0.75000000  0.07009535  0.24899938  1
  O  O27  1  0.25000000  0.92990465  0.75100062  1
  O  O28  1  0.75000000  0.17890402  0.92990465  1
  O  O29  1  0.25000000  0.82109598  0.07009535  1
  O  O30  1  0.75000000  0.44152313  0.73063379  1
  O  O31  1  0.25000000  0.55847687  0.26936621  1
  O  O32  1  0.75000000  0.28911067  0.55847687  1
  O  O33  1  0.25000000  0.71088933  0.44152313  1
  O  O34  1  0.75000000  0.26936621  0.71088933  1
  O  O35  1  0.25000000  0.73063379  0.28911067  1
loop_
_geom_bond_atom_site_label_1
_geom_bond_atom_site_label_2
_geom_bond_distance
_geom_bond_site_symmetry_2
Gd0 O30 2.248202 1_555
Gd0 O6 2.267857 1_555
Gd0 O3 2.332356 1_655
Gd0 O3 2.332356 1_555
Gd0 O21 2.426297 1_555
Gd0 O21 2.426297 1_655
Gd1 O31 2.248202 1_555
Gd1 O7 2.267857 1_555
Gd1 O2 2.332356 1_455
Gd1 O2 2.332356 1_555
Gd1 O20 2.426297 1_555
Gd1 O20 2.426297 1_455
Gd2 O32 2.248202 1_555
Gd2 O8 2.267857 1_555
Gd2 O5 2.332356 1_655
Gd2 O5 2.332356 1_555
Gd2 O23 2.426297 1_555
Gd2 O23 2.426297 1_655
Gd3 O33 2.248202 1_555
Gd3 O9 2.267857 1_555
Gd3 O4 2.332356 1_555
Gd3 O4 2.332356 1_455
Gd3 O22 2.426297 1_555
Gd3 O22 2.426297 1_455
Gd4 O34 2.248202 1_555
Gd4 O10 2.267857 1_555
Gd4 O1 2.332356 1_555
Gd4 O1 2.332356 1_655
Gd4 O19 2.426297 1_655
Gd4 O19 2.426297 1_555
Gd5 O35 2.248202 1_555
Gd5 O11 2.267857 1_555
Gd5 O0 2.332356 1_455
Gd5 O0 2.332356 1_555
Gd5 O18 2.426297 1_555
Gd5 O18 2.426297 1_455
Gd6 O26 2.302615 1_565
Gd6 O12 2.315846 1_555
Gd6 O18 2.370208 1_555
Gd6 O11 2.425019 1_655
Gd6 O11 2.425019 1_555
Gd6 O29 2.439391 1_555
Gd6 O29 2.439391 1_655
Gd6 O17 2.458949 1_665
Gd6 O17 2.458949 1_565
Gd7 O27 2.302615 1_545
Gd7 O13 2.315846 1_555
Gd7 O19 2.370208 1_555
Gd7 O10 2.425019 1_455
Gd7 O10 2.425019 1_555
Gd7 O28 2.439391 1_455
Gd7 O28 2.439391 1_555
Gd7 O16 2.458949 1_545
Gd7 O16 2.458949 1_445
Gd8 O28 2.302615 1_554
Gd8 O14 2.315846 1_555
Gd8 O20 2.370208 1_555
Gd8 O7 2.425019 1_555
Gd8 O7 2.425019 1_655
Gd8 O25 2.439391 1_655
Gd8 O25 2.439391 1_555
Gd8 O13 2.458949 1_654
Gd8 O13 2.458949 1_554
Gd9 O29 2.302615 1_556
Gd9 O15 2.315846 1_555
Gd9 O21 2.370208 1_555
Gd9 O6 2.425019 1_455
Gd9 O6 2.425019 1_555
Gd9 O24 2.439391 1_555
Gd9 O24 2.439391 1_455
Gd9 O12 2.458949 1_456
Gd9 O12 2.458949 1_556
Gd10 O24 2.302616 1_555
Gd10 O16 2.315846 1_555
Gd10 O22 2.370208 1_555
Gd10 O9 2.425019 1_655
Gd10 O9 2.425019 1_555
Gd10 O27 2.439391 1_555
Gd10 O27 2.439391 1_655
Gd10 O15 2.458949 1_555
Gd10 O15 2.458949 1_655
Gd11 O25 2.302616 1_555
Gd11 O17 2.315846 1_555
Gd11 O23 2.370208 1_555
Gd11 O8 2.425019 1_455
Gd11 O8 2.425019 1_555
Gd11 O26 2.439391 1_555
Gd11 O26 2.439391 1_455
Gd11 O14 2.458949 1_455
Gd11 O14 2.458949 1_555
Gd12 O0 2.379876 1_555
Gd12 O2 2.379878 1_555
Gd12 O4 2.379892 1_555
Gd12 O35 2.430769 1_555
Gd12 O35 2.430769 1_655
Gd12 O31 2.430779 1_555
Gd12 O31 2.430779 1_655
Gd12 O33 2.430780 1_555
Gd12 O33 2.430780 1_655
Gd13 O1 2.379876 1_555
Gd13 O3 2.379878 1_555
Gd13 O5 2.379892 1_555
Gd13 O34 2.430769 1_455
Gd13 O34 2.430769 1_555
Gd13 O30 2.430779 1_555
Gd13 O30 2.430779 1_455
Gd13 O32 2.430780 1_455
Gd13 O32 2.430780 1_555
Br0 Gd3 3.159567 1_655
Br0 Gd3 3.159567 1_555
Br0 Gd2 3.191970 1_555
Br1 Gd2 3.159567 1_555
Br1 Gd2 3.159567 1_455
Br1 Gd3 3.191970 1_555
Br2 Gd5 3.159567 1_645
Br2 Gd5 3.159567 1_545
Br2 Gd4 3.191970 1_555
Br3 Gd4 3.159567 1_565
Br3 Gd4 3.159567 1_465
Br3 Gd5 3.191970 1_555
Br4 Gd1 3.159567 1_556
Br4 Gd1 3.159567 1_656
Br4 Gd0 3.191970 1_555
Br5 Gd0 3.159567 1_554
Br5 Gd0 3.159567 1_454
Br5 Gd1 3.191970 1_555
