# generated using pymatgen
data_GdCO4
_symmetry_space_group_name_H-M   'P 1'
_cell_length_a   9.77164274
_cell_length_b   12.23556327
_cell_length_c   12.24120586
_cell_angle_alpha   119.99874207
_cell_angle_beta   90.00000000
_cell_angle_gamma   90.00000000
_symmetry_Int_Tables_number   1
_chemical_formula_structural   GdCO4
_chemical_formula_sum   'Gd18 C18 O72'
_cell_volume   1267.51143350
_cell_formula_units_Z   18
loop_
 _symmetry_equiv_pos_site_id
 _symmetry_equiv_pos_as_xyz
  1  'x, y, z'
loop_
 _atom_site_type_symbol
 _atom_site_label
 _atom_site_symmetry_multiplicity
 _atom_site_fract_x
 _atom_site_fract_y
 _atom_site_fract_z
 _atom_site_occupancy
  Gd  Gd0  1  0.75976442  0.11837191  0.23061548  1
  Gd  Gd1  1  0.76012366  0.76968005  0.88821305  1
  Gd  Gd2  1  0.76036103  0.11138566  0.88090566  1
  Gd  Gd3  1  0.24023558  0.11837191  0.23061548  1
  Gd  Gd4  1  0.23987634  0.76968005  0.88821305  1
  Gd  Gd5  1  0.23963897  0.11138566  0.88090566  1
  Gd  Gd6  1  0.74347892  0.78494641  0.56283363  1
  Gd  Gd7  1  0.74341024  0.43699281  0.22191351  1
  Gd  Gd8  1  0.74338553  0.77862031  0.21528741  1
  Gd  Gd9  1  0.25652108  0.78494641  0.56283363  1
  Gd  Gd10  1  0.25658976  0.43699281  0.22191351  1
  Gd  Gd11  1  0.25661447  0.77862031  0.21528741  1
  Gd  Gd12  1  0.74429643  0.10298073  0.54671244  1
  Gd  Gd13  1  0.74430008  0.45282081  0.55597734  1
  Gd  Gd14  1  0.74441635  0.44407280  0.89699899  1
  Gd  Gd15  1  0.25570357  0.10298073  0.54671244  1
  Gd  Gd16  1  0.25569992  0.45282081  0.55597734  1
  Gd  Gd17  1  0.25558365  0.44407280  0.89699899  1
  C  C0  1  0.00000000  0.64736513  0.50931173  1
  C  C1  1  0.00000000  0.49059542  0.13797851  1
  C  C2  1  0.00000000  0.86165005  0.35250008  1
  C  C3  1  0.00000000  0.20332287  0.11079114  1
  C  C4  1  0.00000000  0.88930471  0.09260102  1
  C  C5  1  0.00000000  0.90751364  0.79681005  1
  C  C6  1  0.00000000  0.16389575  0.47011500  1
  C  C7  1  0.00000000  0.53004592  0.69388635  1
  C  C8  1  0.00000000  0.30608022  0.83618147  1
  C  C9  1  0.50000000  0.87132526  0.42387932  1
  C  C10  1  0.50000000  0.57602725  0.44741439  1
  C  C11  1  0.50000000  0.55267301  0.12857120  1
  C  C12  1  0.50000000  0.23584773  0.77367491  1
  C  C13  1  0.50000000  0.22610184  0.46205910  1
  C  C14  1  0.50000000  0.53804054  0.76419019  1
  C  C15  1  0.50000000  0.20023514  0.17880215  1
  C  C16  1  0.50000000  0.82149304  0.02151409  1
  C  C17  1  0.50000000  0.97852975  0.80008762  1
  O  O0  1  0.00000000  0.75587547  0.51335945  1
  O  O1  1  0.00000000  0.48667444  0.24249475  1
  O  O2  1  0.00000000  0.75736247  0.24408692  1
  O  O3  1  0.88378635  0.59766155  0.50933394  1
  O  O4  1  0.88379589  0.49052808  0.08825847  1
  O  O5  1  0.88375588  0.91142631  0.40219251  1
  O  O6  1  0.11621365  0.59766155  0.50933394  1
  O  O7  1  0.11620411  0.49052808  0.08825847  1
  O  O8  1  0.11624412  0.91142631  0.40219251  1
  O  O9  1  0.00000000  0.14055003  0.17034095  1
  O  O10  1  0.00000000  0.82992393  0.97035636  1
  O  O11  1  0.00000000  0.02973991  0.85958736  1
  O  O12  1  0.88428161  0.91790992  0.15185048  1
  O  O13  1  0.88423604  0.84823177  0.76621997  1
  O  O14  1  0.88422667  0.23379779  0.08198984  1
  O  O15  1  0.11571839  0.91790992  0.15185048  1
  O  O16  1  0.11576396  0.84823177  0.76621997  1
  O  O17  1  0.11577333  0.23379779  0.08198984  1
  O  O18  1  0.00000000  0.15872613  0.57319953  1
  O  O19  1  0.00000000  0.42687095  0.58564075  1
  O  O20  1  0.00000000  0.41438032  0.84124906  1
  O  O21  1  0.88437302  0.16397443  0.41950670  1
  O  O22  1  0.88433966  0.58063066  0.74453044  1
  O  O23  1  0.88432242  0.25552141  0.83619096  1
  O  O24  1  0.11562698  0.16397443  0.41950670  1
  O  O25  1  0.11566034  0.58063066  0.74453044  1
  O  O26  1  0.11567758  0.25552141  0.83619096  1
  O  O27  1  0.50000000  0.69762419  0.50173089  1
  O  O28  1  0.50000000  0.49830485  0.19583938  1
  O  O29  1  0.50000000  0.80419022  0.30248014  1
  O  O30  1  0.61513665  0.90507202  0.48440968  1
  O  O31  1  0.61511913  0.51555208  0.42058339  1
  O  O32  1  0.61514452  0.57947716  0.09495129  1
  O  O33  1  0.38486335  0.90507202  0.48440968  1
  O  O34  1  0.38488087  0.51555208  0.42058339  1
  O  O35  1  0.38485548  0.57947716  0.09495129  1
  O  O36  1  0.50000000  0.16266914  0.52092079  1
  O  O37  1  0.50000000  0.47919315  0.64184371  1
  O  O38  1  0.50000000  0.35813825  0.83738869  1
  O  O39  1  0.61560844  0.17598871  0.74267151  1
  O  O40  1  0.61556100  0.25696928  0.43313166  1
  O  O41  1  0.61561950  0.56687169  0.82391351  1
  O  O42  1  0.38439156  0.17598871  0.74267151  1
  O  O43  1  0.38443900  0.25696928  0.43313166  1
  O  O44  1  0.38438050  0.56687169  0.82391351  1
  O  O45  1  0.50000000  0.09559625  0.18159127  1
  O  O46  1  0.50000000  0.81828352  0.91391536  1
  O  O47  1  0.50000000  0.08586706  0.90448575  1
  O  O48  1  0.61544511  0.25087814  0.17866765  1
  O  O49  1  0.61541365  0.82186083  0.07242331  1
  O  O50  1  0.61551395  0.92771782  0.74939938  1
  O  O51  1  0.38455489  0.25087814  0.17866765  1
  O  O52  1  0.38458635  0.82186083  0.07242331  1
  O  O53  1  0.38448605  0.92771782  0.74939938  1
  O  O54  1  0.74114594  0.00007780  0.00023232  1
  O  O55  1  0.25885406  0.00007780  0.00023232  1
  O  O56  1  0.75414489  0.66696334  0.33317526  1
  O  O57  1  0.24585511  0.66696334  0.33317526  1
  O  O58  1  0.75605163  0.33320625  0.66664242  1
  O  O59  1  0.24394837  0.33320625  0.66664242  1
  O  O60  1  0.69067063  0.67614525  0.67401669  1
  O  O61  1  0.69086482  0.32582332  0.00196811  1
  O  O62  1  0.69105379  0.99774063  0.32365957  1
  O  O63  1  0.30932937  0.67614525  0.67401669  1
  O  O64  1  0.30913518  0.32582332  0.00196811  1
  O  O65  1  0.30894621  0.99774063  0.32365957  1
  O  O66  1  0.80889809  0.00086369  0.65869658  1
  O  O67  1  0.80871580  0.34109517  0.34210336  1
  O  O68  1  0.80859759  0.65813466  0.99938377  1
  O  O69  1  0.19110191  0.00086369  0.65869658  1
  O  O70  1  0.19128420  0.34109517  0.34210336  1
  O  O71  1  0.19140241  0.65813466  0.99938377  1
loop_
_geom_bond_atom_site_label_1
_geom_bond_atom_site_label_2
_geom_bond_distance
_geom_bond_site_symmetry_2
Gd0 O62 2.368049 1_545
Gd0 O67 2.408062 1_555
Gd0 O21 2.418752 1_555
Gd0 O54 2.449420 1_555
Gd0 O48 2.460216 1_555
Gd0 O12 2.461978 1_545
Gd0 O9 2.515747 1_655
Gd0 O45 2.591074 1_555
Gd0 O40 2.608290 1_555
Gd1 O60 2.375857 1_555
Gd1 O68 2.407553 1_555
Gd1 O22 2.418494 1_555
Gd1 O54 2.448728 1_566
Gd1 O49 2.460155 1_556
Gd1 O13 2.461687 1_555
Gd1 O10 2.511482 1_655
Gd1 O46 2.593545 1_555
Gd1 O41 2.611132 1_555
Gd2 O61 2.377677 1_556
Gd2 O66 2.402995 1_555
Gd2 O23 2.417100 1_555
Gd2 O54 2.452140 1_556
Gd2 O50 2.455102 1_545
Gd2 O14 2.465912 1_556
Gd2 O11 2.507744 1_655
Gd2 O47 2.596855 1_555
Gd2 O39 2.612747 1_555
Gd3 O65 2.368049 1_545
Gd3 O70 2.408062 1_555
Gd3 O24 2.418752 1_555
Gd3 O55 2.449420 1_555
Gd3 O51 2.460216 1_555
Gd3 O15 2.461978 1_545
Gd3 O9 2.515747 1_555
Gd3 O45 2.591074 1_555
Gd3 O43 2.608290 1_555
Gd4 O63 2.375857 1_555
Gd4 O71 2.407553 1_555
Gd4 O25 2.418494 1_555
Gd4 O55 2.448728 1_566
Gd4 O52 2.460155 1_556
Gd4 O16 2.461687 1_555
Gd4 O10 2.511482 1_555
Gd4 O46 2.593545 1_555
Gd4 O44 2.611132 1_555
Gd5 O64 2.377677 1_556
Gd5 O69 2.402995 1_555
Gd5 O26 2.417100 1_555
Gd5 O55 2.452140 1_556
Gd5 O53 2.455102 1_545
Gd5 O17 2.465912 1_556
Gd5 O11 2.507744 1_555
Gd5 O47 2.596855 1_555
Gd5 O42 2.612747 1_555
Gd6 O66 2.380149 1_565
Gd6 O60 2.388017 1_555
Gd6 O50 2.416922 1_555
Gd6 O56 2.437210 1_555
Gd6 O3 2.461523 1_555
Gd6 O30 2.462864 1_555
Gd6 O0 2.561464 1_655
Gd6 O27 2.561724 1_555
Gd6 O13 2.600422 1_555
Gd7 O67 2.382205 1_555
Gd7 O61 2.387619 1_555
Gd7 O48 2.413311 1_555
Gd7 O56 2.439539 1_555
Gd7 O4 2.461581 1_555
Gd7 O31 2.464216 1_555
Gd7 O28 2.561530 1_555
Gd7 O1 2.562503 1_655
Gd7 O14 2.598099 1_555
Gd8 O62 2.377581 1_555
Gd8 O68 2.380822 1_554
Gd8 O49 2.413976 1_555
Gd8 O56 2.435463 1_555
Gd8 O5 2.457422 1_555
Gd8 O32 2.467433 1_555
Gd8 O29 2.561130 1_555
Gd8 O2 2.563477 1_655
Gd8 O12 2.593561 1_555
Gd9 O69 2.380149 1_565
Gd9 O63 2.388017 1_555
Gd9 O53 2.416922 1_555
Gd9 O57 2.437210 1_555
Gd9 O6 2.461523 1_555
Gd9 O33 2.462864 1_555
Gd9 O0 2.561464 1_555
Gd9 O27 2.561724 1_555
Gd9 O16 2.600422 1_555
Gd10 O70 2.382205 1_555
Gd10 O64 2.387619 1_555
Gd10 O51 2.413311 1_555
Gd10 O57 2.439539 1_555
Gd10 O7 2.461581 1_555
Gd10 O34 2.464216 1_555
Gd10 O28 2.561530 1_555
Gd10 O1 2.562503 1_555
Gd10 O17 2.598099 1_555
Gd11 O65 2.377581 1_555
Gd11 O71 2.380822 1_554
Gd11 O52 2.413976 1_555
Gd11 O57 2.435463 1_555
Gd11 O8 2.457422 1_555
Gd11 O35 2.467433 1_555
Gd11 O29 2.561130 1_555
Gd11 O2 2.563477 1_555
Gd11 O15 2.593561 1_555
Gd12 O66 2.356165 1_555
Gd12 O62 2.422455 1_545
Gd12 O58 2.443003 1_555
Gd12 O39 2.447582 1_555
Gd12 O21 2.453013 1_555
Gd12 O30 2.488294 1_545
Gd12 O5 2.516717 1_545
Gd12 O36 2.561686 1_555
Gd12 O18 2.567573 1_655
Gd13 O67 2.353814 1_555
Gd13 O60 2.425054 1_555
Gd13 O58 2.443946 1_555
Gd13 O40 2.446009 1_555
Gd13 O22 2.456861 1_555
Gd13 O31 2.490295 1_555
Gd13 O3 2.517214 1_555
Gd13 O37 2.562924 1_555
Gd13 O19 2.567294 1_655
Gd14 O68 2.354070 1_555
Gd14 O61 2.424325 1_556
Gd14 O58 2.445313 1_555
Gd14 O41 2.446650 1_555
Gd14 O23 2.455253 1_555
Gd14 O32 2.489543 1_556
Gd14 O4 2.515700 1_556
Gd14 O38 2.564180 1_555
Gd14 O20 2.566547 1_655
Gd15 O69 2.356165 1_555
Gd15 O65 2.422455 1_545
Gd15 O59 2.443003 1_555
Gd15 O42 2.447582 1_555
Gd15 O24 2.453013 1_555
Gd15 O33 2.488294 1_545
Gd15 O8 2.516717 1_545
Gd15 O36 2.561686 1_555
Gd15 O18 2.567573 1_555
Gd16 O70 2.353814 1_555
Gd16 O63 2.425054 1_555
Gd16 O59 2.443946 1_555
Gd16 O43 2.446009 1_555
Gd16 O25 2.456861 1_555
Gd16 O34 2.490295 1_555
Gd16 O6 2.517214 1_555
Gd16 O37 2.562924 1_555
Gd16 O19 2.567294 1_555
Gd17 O71 2.354070 1_555
Gd17 O64 2.424325 1_556
Gd17 O59 2.445313 1_555
Gd17 O44 2.446650 1_555
Gd17 O26 2.455253 1_555
Gd17 O35 2.489543 1_556
Gd17 O7 2.515700 1_556
Gd17 O38 2.564180 1_555
Gd17 O20 2.566547 1_555
C0 O3 1.288253 1_455
C0 O6 1.288253 1_555
C0 O0 1.303618 1_555
C1 O4 1.288140 1_455
C1 O7 1.288140 1_555
C1 O1 1.304054 1_555
C2 O5 1.288701 1_455
C2 O8 1.288701 1_555
C2 O2 1.302339 1_555
C3 O14 1.294073 1_455
C3 O17 1.294073 1_555
C3 O9 1.296599 1_555
C4 O12 1.293566 1_455
C4 O15 1.293566 1_555
C4 O10 1.296136 1_554
C5 O13 1.293974 1_455
C5 O16 1.293974 1_555
C5 O11 1.295330 1_565
C6 O24 1.288791 1_555
C6 O21 1.288791 1_455
C6 O18 1.294664 1_555
C7 O25 1.288818 1_555
C7 O22 1.288818 1_455
C7 O19 1.294892 1_555
C8 O23 1.288593 1_455
C8 O26 1.288593 1_555
C8 O20 1.295212 1_555
C9 O29 1.289380 1_555
C9 O30 1.295907 1_555
C9 O33 1.295907 1_555
C10 O27 1.290913 1_555
C10 O31 1.295293 1_555
C10 O34 1.295293 1_555
C11 O28 1.291642 1_555
C11 O35 1.295324 1_555
C11 O32 1.295324 1_555
C12 O42 1.295643 1_555
C12 O39 1.295643 1_555
C12 O38 1.296235 1_555
C13 O43 1.294955 1_555
C13 O40 1.294955 1_555
C13 O36 1.296447 1_555
C14 O41 1.295171 1_555
C14 O44 1.295171 1_555
C14 O37 1.297355 1_555
C15 O48 1.287465 1_555
C15 O51 1.287465 1_555
C15 O45 1.297723 1_555
C16 O52 1.287428 1_555
C16 O49 1.287428 1_555
C16 O46 1.297949 1_554
C17 O53 1.288364 1_555
C17 O50 1.288364 1_555
C17 O47 1.296032 1_565
