# generated using pymatgen
data_La2MgSi2
_symmetry_space_group_name_H-M   'P 1'
_cell_length_a   7.53489102
_cell_length_b   7.53489102
_cell_length_c   4.49019158
_cell_angle_alpha   90.00000000
_cell_angle_beta   90.00000000
_cell_angle_gamma   90.00000000
_symmetry_Int_Tables_number   1
_chemical_formula_structural   La2MgSi2
_chemical_formula_sum   'La4 Mg2 Si4'
_cell_volume   254.92875312
_cell_formula_units_Z   2
loop_
 _symmetry_equiv_pos_site_id
 _symmetry_equiv_pos_as_xyz
  1  'x, y, z'
loop_
 _atom_site_type_symbol
 _atom_site_label
 _atom_site_symmetry_multiplicity
 _atom_site_fract_x
 _atom_site_fract_y
 _atom_site_fract_z
 _atom_site_occupancy
  La  La0  1  0.68030535  0.18030535  0.50000000  1
  La  La1  1  0.31969465  0.81969465  0.50000000  1
  La  La2  1  0.18030535  0.31969465  0.50000000  1
  La  La3  1  0.81969465  0.68030535  0.50000000  1
  Mg  Mg0  1  0.00000000  -0.00000000  0.00000000  1
  Mg  Mg1  1  0.50000000  0.50000000  0.00000000  1
  Si  Si0  1  0.11258384  0.61258384  0.00000000  1
  Si  Si1  1  0.88741616  0.38741616  -0.00000000  1
  Si  Si2  1  0.61258384  0.88741616  0.00000000  1
  Si  Si3  1  0.38741616  0.11258384  -0.00000000  1
loop_
_geom_bond_atom_site_label_1
_geom_bond_atom_site_label_2
_geom_bond_distance
_geom_bond_site_symmetry_2
La0 Si1 3.148195 1_555
La0 Si1 3.148195 1_556
La0 Si3 3.189230 1_555
La0 Si2 3.189230 1_546
La0 Si3 3.189230 1_556
La0 Si2 3.189230 1_545
La1 Si0 3.148195 1_555
La1 Si0 3.148195 1_556
La1 Si2 3.189230 1_556
La1 Si2 3.189230 1_555
La1 Si3 3.189230 1_565
La1 Si3 3.189230 1_566
La2 Si3 3.148195 1_555
La2 Si3 3.148195 1_556
La2 Si0 3.189230 1_556
La2 Si0 3.189230 1_555
La2 Si1 3.189230 1_455
La2 Si1 3.189230 1_456
La3 Si2 3.148195 1_556
La3 Si2 3.148195 1_555
La3 Si1 3.189230 1_555
La3 Si1 3.189230 1_556
La3 Si0 3.189230 1_655
La3 Si0 3.189230 1_656
Mg0 Si3 3.039900 1_555
Mg0 Si1 3.039900 1_455
Mg0 Si2 3.039900 1_445
Mg0 Si0 3.039900 1_545
Mg1 Si3 3.039900 1_555
Mg1 Si2 3.039900 1_555
Mg1 Si0 3.039900 1_555
Mg1 Si1 3.039900 1_555
Si0 Si1 2.399374 1_455
Si2 Si3 2.399374 1_565
