# generated using pymatgen
data_Li9Mn2Co5O16
_symmetry_space_group_name_H-M   'P 1'
_cell_length_a   7.79497511
_cell_length_b   7.79497511
_cell_length_c   13.26348813
_cell_angle_alpha   86.77724545
_cell_angle_beta   86.77724545
_cell_angle_gamma   21.15620767
_symmetry_Int_Tables_number   1
_chemical_formula_structural   Li9Mn2Co5O16
_chemical_formula_sum   'Li9 Mn2 Co5 O16'
_cell_volume   290.38688635
_cell_formula_units_Z   1
loop_
 _symmetry_equiv_pos_site_id
 _symmetry_equiv_pos_as_xyz
  1  'x, y, z'
loop_
 _atom_site_type_symbol
 _atom_site_label
 _atom_site_symmetry_multiplicity
 _atom_site_fract_x
 _atom_site_fract_y
 _atom_site_fract_z
 _atom_site_occupancy
  Li  Li0  1  0.43283500  0.43283500  0.20424100  1
  Li  Li1  1  0.30999100  0.30999100  0.55092000  1
  Li  Li2  1  0.18820300  0.18820300  0.93409800  1
  Li  Li3  1  0.06631700  0.06631700  0.31688000  1
  Li  Li4  1  0.93478900  0.93478900  0.67169100  1
  Li  Li5  1  0.80962200  0.80962200  0.07677000  1
  Li  Li6  1  0.69011100  0.69011100  0.43873100  1
  Li  Li7  1  0.56511300  0.56511300  0.80552000  1
  Li  Li8  1  0.87502800  0.87502800  0.37590900  1
  Mn  Mn0  1  0.00158900  0.00158900  0.00489300  1
  Mn  Mn1  1  0.37199100  0.37199100  0.87319700  1
  Co  Co0  1  0.74826500  0.74826500  0.74004200  1
  Co  Co1  1  0.63189600  0.63189600  0.12661900  1
  Co  Co2  1  0.49415100  0.49415100  0.48241200  1
  Co  Co3  1  0.25663000  0.25663000  0.27040000  1
  Co  Co4  1  0.11839500  0.11839500  0.62460400  1
  O  O0  1  0.42029300  0.42029300  0.03826300  1
  O  O1  1  0.27863800  0.27863800  0.40243200  1
  O  O2  1  0.15962700  0.15962700  0.77628900  1
  O  O3  1  0.04467900  0.04467900  0.14158100  1
  O  O4  1  0.91605800  0.91605800  0.52396100  1
  O  O5  1  0.78817000  0.78817000  0.90120600  1
  O  O6  1  0.66469300  0.66469300  0.27436300  1
  O  O7  1  0.53299000  0.53299000  0.65716000  1
  O  O8  1  0.47531700  0.47531700  0.34918400  1
  O  O9  1  0.33941900  0.33941900  0.71690600  1
  O  O10  1  0.21103900  0.21103900  0.09290400  1
  O  O11  1  0.08283100  0.08283100  0.47772200  1
  O  O12  1  0.96128900  0.96128900  0.86410700  1
  O  O13  1  0.83653300  0.83653300  0.22247600  1
  O  O14  1  0.71092500  0.71092500  0.59580800  1
  O  O15  1  0.58257200  0.58257200  0.96871300  1
loop_
_geom_bond_atom_site_label_1
_geom_bond_atom_site_label_2
_geom_bond_distance
_geom_bond_site_symmetry_2
Li0 O13 2.059954 1_545
Li0 O13 2.059954 1_455
Li0 O8 2.064659 1_555
Li0 O0 2.220746 1_555
Li0 O3 2.348037 1_655
Li0 O3 2.348037 1_565
Li1 O1 2.053755 1_555
Li1 O14 2.145610 1_545
Li1 O14 2.145610 1_455
Li1 O4 2.179730 1_545
Li1 O4 2.179730 1_455
Li1 O9 2.272397 1_555
Li2 O5 2.123336 1_545
Li2 O5 2.123336 1_455
Li2 O10 2.154850 1_556
Li2 O2 2.162795 1_555
Li2 O15 2.189509 1_545
Li2 O15 2.189509 1_455
Li3 O8 2.026758 1_455
Li3 O8 2.026758 1_545
Li3 O6 2.131040 1_455
Li3 O6 2.131040 1_545
Li3 O11 2.162610 1_555
Li3 O3 2.367304 1_555
Li4 O4 1.996507 1_555
Li4 O7 2.077608 1_565
Li4 O7 2.077608 1_655
Li4 O9 2.107886 1_655
Li4 O9 2.107886 1_565
Li4 O12 2.607053 1_555
Li5 O13 1.999018 1_555
Li5 O10 2.083016 1_655
Li5 O10 2.083016 1_565
Li5 O0 2.255210 1_655
Li5 O0 2.255210 1_565
Li5 O5 2.370227 1_554
Li6 O1 2.011300 1_565
Li6 O1 2.011300 1_655
Li6 O14 2.125621 1_555
Li6 O11 2.218293 1_565
Li6 O11 2.218293 1_655
Li6 O6 2.236442 1_555
Li7 O7 2.055546 1_555
Li7 O2 2.057109 1_655
Li7 O2 2.057109 1_565
Li7 O15 2.196116 1_555
Li7 O12 2.245372 1_455
Li7 O12 2.245372 1_545
Li8 O1 2.072206 1_655
Li8 O1 2.072206 1_565
Li8 O4 2.095868 1_555
Li8 O8 2.114984 1_655
Li8 O8 2.114984 1_565
Li8 O13 2.151000 1_555
Mn0 O0 1.932011 1_545
Mn0 O0 1.932011 1_455
Mn0 O15 1.936510 1_454
Mn0 O15 1.936510 1_544
Mn0 O3 1.964644 1_555
Mn0 O12 2.000049 1_444
Mn1 O5 1.944527 1_455
Mn1 O5 1.944527 1_545
Mn1 O12 1.978915 1_545
Mn1 O12 1.978915 1_455
Mn1 O9 2.159792 1_555
Mn1 O0 2.350864 1_556
Co0 O9 2.011028 1_565
Co0 O9 2.011028 1_655
Co0 O2 2.012286 1_565
Co0 O2 2.012286 1_655
Co0 O14 2.027908 1_555
Co0 O5 2.256730 1_555
Co1 O10 1.912237 1_655
Co1 O10 1.912237 1_565
Co1 O3 1.960412 1_565
Co1 O3 1.960412 1_655
Co1 O6 2.050686 1_555
Co1 O15 2.266913 1_554
Co2 O8 1.806703 1_555
Co2 O4 1.925669 1_455
Co2 O4 1.925669 1_545
Co2 O11 1.972006 1_655
Co2 O11 1.972006 1_565
Co2 O7 2.425719 1_555
Co3 O1 1.802229 1_555
Co3 O13 1.965226 1_545
Co3 O13 1.965226 1_455
Co3 O6 2.006754 1_545
Co3 O6 2.006754 1_455
Co3 O10 2.493718 1_555
Co4 O7 1.970412 1_545
Co4 O7 1.970412 1_455
Co4 O14 2.035285 1_455
Co4 O14 2.035285 1_545
Co4 O11 2.052766 1_555
Co4 O2 2.142968 1_555
