# generated using pymatgen
data_YV(SeO4)2
_symmetry_space_group_name_H-M   'P 1'
_cell_length_a   5.47883410
_cell_length_b   5.47883410
_cell_length_c   10.74383700
_cell_angle_alpha   90.00000000
_cell_angle_beta   90.00000000
_cell_angle_gamma   95.48596169
_symmetry_Int_Tables_number   1
_chemical_formula_structural   YV(SeO4)2
_chemical_formula_sum   'Y2 V2 Se4 O16'
_cell_volume   321.02726757
_cell_formula_units_Z   2
loop_
 _symmetry_equiv_pos_site_id
 _symmetry_equiv_pos_as_xyz
  1  'x, y, z'
loop_
 _atom_site_type_symbol
 _atom_site_label
 _atom_site_symmetry_multiplicity
 _atom_site_fract_x
 _atom_site_fract_y
 _atom_site_fract_z
 _atom_site_occupancy
  Y  Y0  1  0.84291100  0.15708900  0.50000000  1
  Y  Y1  1  0.34291100  0.65708900  0.50000000  1
  V  V0  1  0.85740100  0.14259900  0.00000000  1
  V  V1  1  0.35740100  0.64259900  0.00000000  1
  Se  Se0  1  0.94910900  0.55089100  0.22535800  1
  Se  Se1  1  0.44910900  0.05089100  0.77464200  1
  Se  Se2  1  0.40613600  0.09386400  0.29935500  1
  Se  Se3  1  0.90613600  0.59386400  0.70064500  1
  O  O0  1  0.87670300  0.24710300  0.17589500  1
  O  O1  1  0.75289700  0.12329700  0.82410500  1
  O  O2  1  0.37670300  0.74710300  0.82410500  1
  O  O3  1  0.25289700  0.62329700  0.17589500  1
  O  O4  1  0.06017400  0.93982600  0.00000000  1
  O  O5  1  0.56017400  0.43982600  0.00000000  1
  O  O6  1  0.57214000  0.92786000  0.03452100  1
  O  O7  1  0.07214000  0.42786000  0.96547900  1
  O  O8  1  0.01921400  0.48078600  0.37749700  1
  O  O9  1  0.51921400  0.98078600  0.62250300  1
  O  O10  1  0.60569000  0.89431000  0.36454900  1
  O  O11  1  0.10569000  0.39431000  0.63545100  1
  O  O12  1  0.15680300  0.98167900  0.38850800  1
  O  O13  1  0.01832100  0.84319700  0.61149200  1
  O  O14  1  0.65680300  0.48167900  0.61149200  1
  O  O15  1  0.51832100  0.34319700  0.38850800  1
loop_
_geom_bond_atom_site_label_1
_geom_bond_atom_site_label_2
_geom_bond_distance
_geom_bond_site_symmetry_2
O0 Se0 1.756068 1_555
O0 V0 1.974519 1_555
O1 Se1 1.756068 1_555
O1 V0 1.974519 1_556
O2 Se1 1.756068 1_565
O2 V1 1.974519 1_556
O3 Se0 1.756068 1_455
O3 V1 1.974519 1_555
O4 V0 1.644522 1_465
O4 V1 2.410559 1_555
O5 V1 1.644522 1_555
O5 V0 2.410559 1_555
O6 V0 1.900743 1_565
O6 V1 1.900743 1_555
O7 V0 1.900743 1_456
O7 V1 1.900743 1_556
O8 Se0 1.730618 1_455
O8 Y0 2.341577 1_455
O8 Y1 2.341577 1_555
O9 Se1 1.730618 1_565
O9 Y1 2.341577 1_555
O9 Y0 2.341577 1_565
O10 Se2 1.763484 1_565
O10 Y1 2.349897 1_555
O10 Y0 2.349897 1_565
O11 Se3 1.763484 1_455
O11 Y0 2.349897 1_455
O11 Y1 2.349897 1_555
O12 Se2 1.732286 1_565
O12 Y0 2.373194 1_465
O12 Y1 2.446196 1_555
O13 Se3 1.732286 1_455
O13 Y0 2.373194 1_465
O13 Y1 2.446196 1_555
O14 Se3 1.732286 1_555
O14 Y1 2.373194 1_555
O14 Y0 2.446196 1_555
O15 Se2 1.732286 1_555
O15 Y1 2.373194 1_555
O15 Y0 2.446196 1_555
