# generated using pymatgen
data_Ti8Ga3Co4Si
_symmetry_space_group_name_H-M   'P 1'
_cell_length_a   4.30582209
_cell_length_b   4.30582209
_cell_length_c   14.14278608
_cell_angle_alpha   81.24400510
_cell_angle_beta   98.75599490
_cell_angle_gamma   120.00000000
_symmetry_Int_Tables_number   1
_chemical_formula_structural   Ti8Ga3Co4Si
_chemical_formula_sum   'Ti8 Ga3 Co4 Si1'
_cell_volume   223.54381711
_cell_formula_units_Z   1
loop_
 _symmetry_equiv_pos_site_id
 _symmetry_equiv_pos_as_xyz
  1  'x, y, z'
loop_
 _atom_site_type_symbol
 _atom_site_label
 _atom_site_symmetry_multiplicity
 _atom_site_fract_x
 _atom_site_fract_y
 _atom_site_fract_z
 _atom_site_occupancy
  Ti  Ti0  1  0.25015400  0.74984600  0.75046300  1
  Ti  Ti1  1  0.50022200  0.49977800  0.50066700  1
  Ti  Ti2  1  0.99922600  0.00077400  0.99767900  1
  Ti  Ti3  1  0.74982500  0.25017500  0.24947400  1
  Ti  Ti4  1  0.31251300  0.68748700  0.93754000  1
  Ti  Ti5  1  0.56344700  0.43655300  0.69034000  1
  Ti  Ti6  1  0.06287400  0.93712600  0.18862200  1
  Ti  Ti7  1  0.81265300  0.18734700  0.43795900  1
  Ga  Ga0  1  0.68719600  0.31280400  0.06158800  1
  Ga  Ga1  1  0.43746000  0.56254000  0.31238000  1
  Ga  Ga2  1  0.18765600  0.81234400  0.56296800  1
  Co  Co0  1  0.37492000  0.62508000  0.12476100  1
  Co  Co1  1  0.12518800  0.87481200  0.37556500  1
  Co  Co2  1  0.87670600  0.12329400  0.63011800  1
  Co  Co3  1  0.62351300  0.37648700  0.87053900  1
  Si  Si0  1  0.93644600  0.06355400  0.80933800  1
loop_
_geom_bond_atom_site_label_1
_geom_bond_atom_site_label_2
_geom_bond_distance
_geom_bond_site_symmetry_2
Ti0 Ti4 2.604595 1_555
Ti0 Ti5 2.623110 1_455
Ti0 Ti5 2.623110 1_565
Ti0 Ti5 2.623117 1_555
Ti1 Ti7 2.634816 1_565
Ti1 Ti7 2.634816 1_455
Ti1 Ti7 2.634820 1_555
Ti1 Ti5 2.640738 1_555
Ti2 Ti4 2.623183 1_545
Ti2 Ti4 2.623183 1_655
Ti2 Ti4 2.623183 1_645
Ti2 Ti6 2.658420 1_646
Ti3 Ti7 2.624198 1_555
Ti3 Ti6 2.626366 1_645
Ti3 Ti6 2.626370 1_545
Ti3 Ti6 2.626370 1_655
Ga0 Ti3 2.615859 1_555
Ga0 Ti2 2.640403 1_554
Ga0 Ti2 2.640407 1_564
Ga0 Ti2 2.640407 1_454
Ga0 Ti4 3.027011 1_544
Ga0 Ti4 3.027011 1_654
Ga0 Ti4 3.027014 1_554
Ga1 Ti1 2.621442 1_555
Ga1 Ti3 2.635731 1_565
Ga1 Ti3 2.635731 1_455
Ga1 Ti3 2.635735 1_555
Ga1 Ti7 3.039224 1_565
Ga1 Ti7 3.039224 1_555
Ga1 Ti7 3.039224 1_455
Ga2 Ti0 2.610415 1_555
Ga2 Ti1 2.632943 1_555
Ga2 Ti1 2.632947 1_455
Ga2 Ti1 2.632947 1_565
Ga2 Ti7 3.034666 1_465
Ga2 Ti7 3.034666 1_455
Ga2 Ti7 3.034666 1_565
Co0 Ti4 2.606600 1_554
Co0 Ga1 2.612141 1_555
Co0 Ga0 2.636969 1_565
Co0 Ga0 2.636969 1_455
Co0 Ga0 2.636972 1_555
Co0 Ti6 2.640178 1_555
Co0 Ti6 2.640181 1_545
Co0 Ti6 2.640181 1_655
Co0 Ti3 3.032302 1_455
Co0 Ti3 3.032302 1_565
Co0 Ti3 3.032308 1_555
Co0 Ti2 3.051310 1_464
Co0 Ti2 3.051310 1_564
Co0 Ti2 3.051310 1_454
Co1 Ti6 2.602730 1_555
Co1 Ga2 2.609134 1_555
Co1 Ti7 2.633370 1_465
Co1 Ti7 2.633373 1_565
Co1 Ti7 2.633373 1_455
Co1 Ga1 2.637024 1_455
Co1 Ga1 2.637024 1_565
Co1 Ga1 2.637028 1_555
Co1 Ti1 3.035408 1_455
Co1 Ti1 3.035408 1_565
Co1 Ti1 3.035408 1_555
Co1 Ti3 3.043326 1_465
Co1 Ti3 3.043332 1_565
Co1 Ti3 3.043332 1_455
Co2 Si0 2.495206 1_555
Co2 Ti5 2.623550 1_555
Co2 Ti5 2.623553 1_655
Co2 Ti5 2.623553 1_545
Co2 Ga2 2.655951 1_655
Co2 Ga2 2.655951 1_545
Co2 Ga2 2.655951 1_645
Co2 Ti7 2.675350 1_555
Co2 Ti0 2.997894 1_645
Co2 Ti0 2.997897 1_655
Co2 Ti0 2.997897 1_545
Co2 Ti1 3.070552 1_655
Co2 Ti1 3.070552 1_545
Co2 Ti1 3.070555 1_555
Co3 Ti5 2.508836 1_555
Co3 Si0 2.627940 1_565
Co3 Si0 2.627940 1_555
Co3 Si0 2.627940 1_455
Co3 Ti4 2.655220 1_655
Co3 Ti4 2.655220 1_545
Co3 Ti4 2.655224 1_555
Co3 Ga0 2.659896 1_556
Co3 Ti0 2.995803 1_545
Co3 Ti0 2.995803 1_655
Co3 Ti0 2.995806 1_555
Co3 Ti2 3.051776 1_555
Co3 Ti2 3.051779 1_455
Co3 Ti2 3.051779 1_565
Si0 Ti0 2.617617 1_645
Si0 Ti0 2.617620 1_545
Si0 Ti0 2.617620 1_655
Si0 Ti2 2.622194 1_555
Si0 Ti5 2.987453 1_555
Si0 Ti5 2.987456 1_655
Si0 Ti5 2.987456 1_545
Si0 Ti4 3.060376 1_645
Si0 Ti4 3.060379 1_655
Si0 Ti4 3.060379 1_545
