# generated using pymatgen
data_ZnH7C3NO6
_symmetry_space_group_name_H-M   'P 1'
_cell_length_a   12.81431447
_cell_length_b   12.81431447
_cell_length_c   8.28117500
_cell_angle_alpha   90.00000000
_cell_angle_beta   90.00000000
_cell_angle_gamma   120.00000243
_symmetry_Int_Tables_number   1
_chemical_formula_structural   ZnH7C3NO6
_chemical_formula_sum   'Zn6 H42 C18 N6 O36'
_cell_volume   1177.64214245
_cell_formula_units_Z   6
loop_
 _symmetry_equiv_pos_site_id
 _symmetry_equiv_pos_as_xyz
  1  'x, y, z'
loop_
 _atom_site_type_symbol
 _atom_site_label
 _atom_site_symmetry_multiplicity
 _atom_site_fract_x
 _atom_site_fract_y
 _atom_site_fract_z
 _atom_site_occupancy
  Zn  Zn0  1  0.66469400  0.99646800  0.91315200  1
  Zn  Zn1  1  0.00353200  0.66822600  0.91315200  1
  Zn  Zn2  1  0.33177400  0.33530600  0.91315200  1
  Zn  Zn3  1  0.33530600  0.00353200  0.41315200  1
  Zn  Zn4  1  0.99646800  0.33177400  0.41315200  1
  Zn  Zn5  1  0.66822600  0.66469400  0.41315200  1
  H  H0  1  0.72226800  0.86695000  0.17797900  1
  H  H1  1  0.13305000  0.85531800  0.17797900  1
  H  H2  1  0.14468200  0.27773200  0.17797900  1
  H  H3  1  0.27773200  0.13305000  0.67797900  1
  H  H4  1  0.86695000  0.14468200  0.67797900  1
  H  H5  1  0.85531800  0.72226800  0.67797900  1
  H  H6  1  0.48972000  0.94592300  0.19301000  1
  H  H7  1  0.05407700  0.54379600  0.19301000  1
  H  H8  1  0.45620400  0.51028000  0.19301000  1
  H  H9  1  0.51028000  0.05407700  0.69301000  1
  H  H10  1  0.94592300  0.45620400  0.69301000  1
  H  H11  1  0.54379600  0.48972000  0.69301000  1
  H  H12  1  0.82655800  0.21221300  0.12415300  1
  H  H13  1  0.78778700  0.61434500  0.12415300  1
  H  H14  1  0.38565500  0.17344200  0.12415300  1
  H  H15  1  0.17344200  0.78778700  0.62415300  1
  H  H16  1  0.21221300  0.38565500  0.62415300  1
  H  H17  1  0.61434500  0.82655800  0.62415300  1
  H  H18  1  0.42082600  0.72686000  0.00365800  1
  H  H19  1  0.27314000  0.69396600  0.00365800  1
  H  H20  1  0.30603400  0.57917400  0.00365800  1
  H  H21  1  0.57917400  0.27314000  0.50365800  1
  H  H22  1  0.72686000  0.30603400  0.50365800  1
  H  H23  1  0.69396600  0.42082600  0.50365800  1
  H  H24  1  0.33333300  0.66666700  0.84015300  1
  H  H25  1  0.66666700  0.33333300  0.34015300  1
  H  H26  1  0.63623100  0.24516500  0.00490900  1
  H  H27  1  0.75483500  0.39106600  0.00490900  1
  H  H28  1  0.60893400  0.36376900  0.00490900  1
  H  H29  1  0.36376900  0.75483500  0.50490900  1
  H  H30  1  0.24516500  0.60893400  0.50490900  1
  H  H31  1  0.39106600  0.63623100  0.50490900  1
  H  H32  1  0.66666700  0.33333300  0.84135800  1
  H  H33  1  0.33333300  0.66666700  0.34135800  1
  H  H34  1  0.97005100  0.05833100  0.32852600  1
  H  H35  1  0.94166900  0.91172000  0.32852600  1
  H  H36  1  0.08828000  0.02994900  0.32852600  1
  H  H37  1  0.02994900  0.94166900  0.82852600  1
  H  H38  1  0.05833100  0.08828000  0.82852600  1
  H  H39  1  0.91172000  0.97005100  0.82852600  1
  H  H40  1  0.00000000  0.00000000  0.49118300  1
  H  H41  1  0.00000000  0.00000000  0.99118300  1
  C  C0  1  0.62329400  0.81061200  0.16961200  1
  C  C1  1  0.18938800  0.81268200  0.16961200  1
  C  C2  1  0.18731800  0.37670600  0.16961200  1
  C  C3  1  0.37670600  0.18938800  0.66961200  1
  C  C4  1  0.81061200  0.18731800  0.66961200  1
  C  C5  1  0.81268200  0.62329400  0.66961200  1
  C  C6  1  0.52784900  0.04381600  0.17573900  1
  C  C7  1  0.95618400  0.48403300  0.17573900  1
  C  C8  1  0.51596700  0.47215100  0.17573900  1
  C  C9  1  0.47215100  0.95618400  0.67573900  1
  C  C10  1  0.04381600  0.51596700  0.67573900  1
  C  C11  1  0.48403300  0.52784900  0.67573900  1
  C  C12  1  0.86002000  0.14904100  0.14722100  1
  C  C13  1  0.85095900  0.71097800  0.14722100  1
  C  C14  1  0.28902200  0.13998000  0.14722100  1
  C  C15  1  0.13998000  0.85095900  0.64722100  1
  C  C16  1  0.14904100  0.28902200  0.64722100  1
  C  C17  1  0.71097800  0.86002000  0.64722100  1
  N  N0  1  0.33333300  0.66666700  0.96346500  1
  N  N1  1  0.66666700  0.33333300  0.46346500  1
  N  N2  1  0.66666700  0.33333300  0.96480400  1
  N  N3  1  0.33333300  0.66666700  0.46480400  1
  N  N4  1  0.00000000  0.00000000  0.36788200  1
  N  N5  1  0.00000000  0.00000000  0.86788200  1
  O  O0  1  0.57104200  0.83689000  0.05886400  1
  O  O1  1  0.16311000  0.73415100  0.05886400  1
  O  O2  1  0.26584900  0.42895800  0.05886400  1
  O  O3  1  0.42895800  0.16311000  0.55886400  1
  O  O4  1  0.83689000  0.26584900  0.55886400  1
  O  O5  1  0.73415100  0.57104200  0.55886400  1
  O  O6  1  0.56857400  0.72491500  0.26864100  1
  O  O7  1  0.27508500  0.84365900  0.26864100  1
  O  O8  1  0.15634100  0.43142600  0.26864100  1
  O  O9  1  0.43142600  0.27508500  0.76864100  1
  O  O10  1  0.72491500  0.15634100  0.76864100  1
  O  O11  1  0.84365900  0.56857400  0.76864100  1
  O  O12  1  0.60226200  0.09369600  0.05997100  1
  O  O13  1  0.90630400  0.50856600  0.05997100  1
  O  O14  1  0.49143400  0.39773800  0.05997100  1
  O  O15  1  0.39773800  0.90630400  0.55997100  1
  O  O16  1  0.09369600  0.49143400  0.55997100  1
  O  O17  1  0.50856600  0.60226200  0.55997100  1
  O  O18  1  0.49495800  0.09978500  0.26976700  1
  O  O19  1  0.90021500  0.39517300  0.26976700  1
  O  O20  1  0.60482700  0.50504200  0.26976700  1
  O  O21  1  0.50504200  0.90021500  0.76976700  1
  O  O22  1  0.09978500  0.60482700  0.76976700  1
  O  O23  1  0.39517300  0.49495800  0.76976700  1
  O  O24  1  0.82533200  0.05855800  0.05588700  1
  O  O25  1  0.94144200  0.76677400  0.05588700  1
  O  O26  1  0.23322600  0.17466800  0.05588700  1
  O  O27  1  0.17466800  0.94144200  0.55588700  1
  O  O28  1  0.05855800  0.23322600  0.55588700  1
  O  O29  1  0.76677400  0.82533200  0.55588700  1
  O  O30  1  0.93159700  0.17229900  0.26612300  1
  O  O31  1  0.82770100  0.75929800  0.26612300  1
  O  O32  1  0.24070200  0.06840300  0.26612300  1
  O  O33  1  0.06840300  0.82770100  0.76612300  1
  O  O34  1  0.17229900  0.24070200  0.76612300  1
  O  O35  1  0.75929800  0.93159700  0.76612300  1
loop_
_geom_bond_atom_site_label_1
_geom_bond_atom_site_label_2
_geom_bond_distance
_geom_bond_site_symmetry_2
H18 N0 1.047834 1_554
H19 N0 1.047825 1_554
H20 N0 1.047837 1_554
H21 N1 1.047834 1_555
H22 N1 1.047825 1_555
H23 N1 1.047837 1_555
H24 N0 1.021168 1_555
H25 N1 1.021168 1_555
H26 N2 1.047972 1_554
H27 N2 1.047974 1_554
H28 N2 1.047983 1_554
H29 N3 1.047972 1_555
H30 N3 1.047974 1_555
H31 N3 1.047983 1_555
H32 N2 1.022278 1_555
H33 N3 1.022278 1_555
H34 N4 1.048370 1_655
H35 N4 1.048370 1_665
H36 N4 1.048370 1_555
H37 N5 1.048370 1_565
H38 N5 1.048370 1_555
H39 N5 1.048370 1_665
H40 N4 1.021077 1_555
H41 N5 1.021077 1_555
C0 H0 1.104045 1_555
C0 O6 1.264956 1_555
C0 O0 1.276050 1_555
C1 H1 1.104045 1_555
C1 O7 1.264956 1_555
C1 O1 1.276058 1_555
C2 H2 1.104045 1_555
C2 O8 1.264956 1_555
C2 O2 1.276057 1_555
C3 H3 1.104045 1_555
C3 O9 1.264956 1_555
C3 O3 1.276050 1_555
C4 H4 1.104045 1_555
C4 O10 1.264956 1_555
C4 O4 1.276058 1_555
C5 H5 1.104045 1_555
C5 O11 1.264956 1_555
C5 O5 1.276057 1_555
C6 H6 1.104477 1_545
C6 O18 1.265157 1_555
C6 O12 1.275702 1_555
C7 H7 1.104476 1_655
C7 O19 1.265157 1_555
C7 O13 1.275702 1_555
C8 H8 1.104466 1_555
C8 O20 1.265157 1_555
C8 O14 1.275702 1_555
C9 H9 1.104477 1_565
C9 O21 1.265157 1_555
C9 O15 1.275702 1_555
C10 H10 1.104476 1_455
C10 O22 1.265157 1_555
C10 O16 1.275702 1_555
C11 H11 1.104466 1_555
C11 O23 1.265157 1_555
C11 O17 1.275702 1_555
C12 H12 1.105787 1_555
C12 O24 1.264377 1_555
C12 O30 1.275253 1_555
C13 H13 1.105778 1_555
C13 O25 1.264379 1_555
C13 O31 1.275261 1_555
C14 H14 1.105775 1_555
C14 O26 1.264387 1_555
C14 O32 1.275255 1_555
C15 H15 1.105787 1_555
C15 O27 1.264377 1_555
C15 O33 1.275253 1_555
C16 H16 1.105778 1_555
C16 O28 1.264379 1_555
C16 O34 1.275261 1_555
C17 H17 1.105775 1_555
C17 O29 1.264387 1_555
C17 O35 1.275255 1_555
O0 Zn0 2.150293 1_554
O1 Zn1 2.150294 1_554
O2 Zn2 2.150285 1_554
O3 Zn3 2.150293 1_555
O4 Zn4 2.150294 1_555
O5 Zn5 2.150285 1_555
O6 Zn5 2.154932 1_555
O7 Zn3 2.154932 1_565
O8 Zn4 2.154932 1_455
O9 Zn2 2.154932 1_555
O10 Zn0 2.154932 1_545
O11 Zn1 2.154932 1_655
O12 Zn0 2.160402 1_544
O13 Zn1 2.160402 1_654
O14 Zn2 2.160402 1_554
O15 Zn3 2.160402 1_565
O16 Zn4 2.160402 1_455
O17 Zn5 2.160402 1_555
O18 Zn3 2.143196 1_555
O19 Zn4 2.143196 1_555
O20 Zn5 2.143196 1_555
O21 Zn0 2.143196 1_555
O22 Zn1 2.143196 1_555
O23 Zn2 2.143196 1_555
O24 Zn0 2.151670 1_544
O25 Zn1 2.151670 1_654
O26 Zn2 2.151670 1_554
O27 Zn3 2.151670 1_565
O28 Zn4 2.151670 1_455
O29 Zn5 2.151670 1_555
O30 Zn4 2.156592 1_555
O31 Zn5 2.156592 1_555
O32 Zn3 2.156592 1_555
O33 Zn1 2.156592 1_555
O34 Zn2 2.156592 1_555
O35 Zn0 2.156592 1_555
