# generated using pymatgen
data_Mg16Al12Pd
_symmetry_space_group_name_H-M   'P 1'
_cell_length_a   9.02060838
_cell_length_b   9.02060838
_cell_length_c   9.06955950
_cell_angle_alpha   70.61302631
_cell_angle_beta   70.61302631
_cell_angle_gamma   109.01176408
_symmetry_Int_Tables_number   1
_chemical_formula_structural   Mg16Al12Pd
_chemical_formula_sum   'Mg16 Al12 Pd1'
_cell_volume   572.46888360
_cell_formula_units_Z   1
loop_
 _symmetry_equiv_pos_site_id
 _symmetry_equiv_pos_as_xyz
  1  'x, y, z'
loop_
 _atom_site_type_symbol
 _atom_site_label
 _atom_site_symmetry_multiplicity
 _atom_site_fract_x
 _atom_site_fract_y
 _atom_site_fract_z
 _atom_site_occupancy
  Mg  Mg0  1  0.99668100  0.99668100  0.00455300  1
  Mg  Mg1  1  0.69347300  0.69347300  0.70484100  1
  Mg  Mg2  1  0.62216000  0.62216000  0.33431600  1
  Mg  Mg3  1  0.00989300  0.00989300  0.64919500  1
  Mg  Mg4  1  0.33021000  0.58735800  0.01153500  1
  Mg  Mg5  1  0.40652900  0.71513200  0.59792800  1
  Mg  Mg6  1  0.99996000  0.31776900  0.39866700  1
  Mg  Mg7  1  0.00292900  0.35269300  0.00267900  1
  Mg  Mg8  1  0.29579300  0.67823400  0.31060500  1
  Mg  Mg9  1  0.60272600  0.00535900  0.67870500  1
  Mg  Mg10  1  0.00535900  0.60272600  0.67870500  1
  Mg  Mg11  1  0.67823400  0.29579300  0.31060500  1
  Mg  Mg12  1  0.35269300  0.00292900  0.00267900  1
  Mg  Mg13  1  0.31776900  0.99996000  0.39866700  1
  Mg  Mg14  1  0.71513200  0.40652900  0.59792800  1
  Mg  Mg15  1  0.58735800  0.33021000  0.01153500  1
  Al  Al0  1  0.18585400  0.18585400  0.18923500  1
  Al  Al1  1  0.36369800  0.36369800  0.82561600  1
  Al  Al2  1  0.64695400  0.83010400  0.98403000  1
  Al  Al3  1  0.18401400  0.36920600  0.63273200  1
  Al  Al4  1  0.81423200  0.00136700  0.36161500  1
  Al  Al5  1  0.63513400  0.00586000  0.17949500  1
  Al  Al6  1  0.82029300  0.19698600  0.81269000  1
  Al  Al7  1  0.19698600  0.82029300  0.81269000  1
  Al  Al8  1  0.00586000  0.63513400  0.17949500  1
  Al  Al9  1  0.00136700  0.81423200  0.36161500  1
  Al  Al10  1  0.36920600  0.18401400  0.63273200  1
  Al  Al11  1  0.83010400  0.64695400  0.98403000  1
  Pd  Pd0  1  0.32943800  0.32943800  0.35092700  1
loop_
_geom_bond_atom_site_label_1
_geom_bond_atom_site_label_2
_geom_bond_distance
_geom_bond_site_symmetry_2
Mg0 Mg3 3.145867 1_664
Mg0 Mg7 3.187796 1_665
Mg0 Mg12 3.187796 1_665
Mg0 Mg2 3.304505 1_555
Mg1 Mg3 3.054190 1_665
Mg1 Mg15 3.086852 1_556
Mg1 Mg4 3.086852 1_556
Mg1 Mg5 3.090026 1_555
Mg1 Mg14 3.090026 1_555
Mg1 Mg10 3.134975 1_655
Mg1 Mg9 3.134975 1_565
Mg2 Pd0 2.982718 1_555
Mg2 Mg5 3.083762 1_555
Mg2 Mg8 3.207449 1_555
Mg3 Pd0 2.858057 1_555
Mg3 Mg6 2.998618 1_455
Mg4 Mg8 3.034570 1_555
Mg4 Mg7 3.066259 1_555
Mg4 Pd0 3.179419 1_555
Mg4 Mg5 3.282109 1_554
Mg5 Mg9 3.104573 1_565
Mg5 Mg8 3.160163 1_555
Mg6 Pd0 2.818415 1_655
Mg6 Mg8 3.088642 1_655
Mg8 Pd0 3.171328 1_555
Mg10 Mg7 3.040794 1_556
Mg10 Mg14 3.104573 1_455
Mg10 Mg8 3.161381 1_555
Mg10 Mg5 3.164903 1_555
Mg11 Mg15 3.034570 1_555
Mg11 Mg7 3.046308 1_655
Mg11 Mg13 3.088642 1_545
Mg11 Mg14 3.160163 1_555
Mg11 Mg9 3.161381 1_555
Mg11 Pd0 3.171328 1_555
Mg11 Mg2 3.207449 1_555
Mg11 Mg6 3.220074 1_555
Mg12 Mg9 3.040794 1_554
Mg12 Mg8 3.046308 1_545
Mg12 Mg15 3.066259 1_555
Mg13 Pd0 2.818415 1_565
Mg13 Mg3 2.998618 1_565
Mg13 Mg5 3.118778 1_555
Mg13 Mg8 3.220074 1_555
Mg14 Mg2 3.083762 1_555
Mg14 Mg6 3.118778 1_555
Mg14 Mg9 3.164903 1_555
Mg14 Mg15 3.282109 1_556
Mg15 Pd0 3.179419 1_555
Al0 Pd0 2.633387 1_555
Al0 Al1 2.705842 1_554
Al0 Al4 2.758609 1_455
Al0 Al9 2.758609 1_545
Al0 Mg6 2.919224 1_455
Al0 Mg13 2.919224 1_545
Al0 Mg15 3.011537 1_555
Al0 Mg4 3.011537 1_555
Al0 Mg7 3.103479 1_555
Al0 Mg12 3.103479 1_555
Al0 Mg0 3.244613 1_445
Al1 Al3 2.750851 1_555
Al1 Al10 2.750851 1_555
Al1 Mg14 2.964731 1_555
Al1 Mg5 2.964731 1_555
Al1 Mg1 2.967538 1_555
Al1 Mg4 3.053280 1_556
Al1 Mg15 3.053280 1_556
Al1 Mg12 3.064905 1_556
Al1 Mg7 3.064905 1_556
Al1 Mg0 3.206261 1_446
Al2 Al6 2.722784 1_565
Al2 Al5 2.741951 1_566
Al2 Mg4 2.847578 1_556
Al2 Mg9 2.926554 1_565
Al2 Mg8 2.988935 1_556
Al2 Mg2 2.993353 1_556
Al2 Mg3 3.039952 1_665
Al2 Mg0 3.119618 1_556
Al2 Mg1 3.132125 1_555
Al3 Pd0 2.659191 1_555
Al3 Al6 2.698664 1_455
Al3 Mg8 2.851156 1_555
Al3 Mg5 2.951355 1_555
Al3 Mg3 3.033314 1_555
Al3 Mg10 3.091459 1_555
Al3 Mg7 3.133567 1_556
Al3 Mg6 3.157583 1_455
Al3 Mg0 3.242477 1_446
Al3 Mg2 3.327965 1_555
Al4 Al5 2.666425 1_555
Al4 Al9 2.748772 1_645
Al4 Mg9 2.895312 1_555
Al4 Mg1 2.937423 1_545
Al4 Mg6 2.993496 1_555
Al4 Mg7 3.081540 1_655
Al4 Mg5 3.113237 1_545
Al4 Mg0 3.129771 1_545
Al4 Mg11 3.233685 1_555
Al5 Al6 2.730676 1_554
Al5 Mg13 2.863983 1_545
Al5 Mg8 2.979036 1_545
Al5 Mg15 3.060257 1_555
Al5 Mg7 3.121137 1_655
Al5 Mg0 3.160476 1_545
Al5 Mg11 3.180320 1_555
Al5 Mg5 3.194647 1_545
Al5 Mg2 3.219584 1_545
Al6 Mg14 2.866583 1_555
Al6 Mg9 3.013970 1_555
Al6 Mg10 3.062509 1_655
Al6 Mg7 3.104832 1_656
Al6 Mg15 3.111273 1_556
Al6 Mg3 3.135376 1_655
Al6 Mg6 3.163376 1_555
Al6 Mg0 3.232389 1_546
Al7 Al8 2.730676 1_556
Al7 Mg5 2.866583 1_555
Al7 Mg10 3.013970 1_555
Al7 Mg9 3.062509 1_565
Al7 Mg12 3.104832 1_566
Al7 Mg4 3.111273 1_556
Al7 Mg3 3.135376 1_565
Al7 Mg13 3.163376 1_555
Al7 Mg0 3.232389 1_456
Al8 Al9 2.666425 1_555
Al8 Mg6 2.863983 1_455
Al8 Mg11 2.979036 1_455
Al8 Mg4 3.060257 1_555
Al8 Mg12 3.121137 1_565
Al8 Mg0 3.160476 1_455
Al8 Mg8 3.180320 1_555
Al8 Mg14 3.194647 1_455
Al8 Mg2 3.219584 1_455
Al9 Mg10 2.895312 1_555
Al9 Mg1 2.937423 1_455
Al9 Mg13 2.993496 1_555
Al9 Mg12 3.081540 1_565
Al9 Mg14 3.113237 1_455
Al9 Mg0 3.129771 1_455
Al9 Mg8 3.233685 1_555
Al10 Pd0 2.659191 1_555
Al10 Al7 2.698664 1_545
Al10 Al3 2.720232 1_555
Al10 Mg11 2.851156 1_555
Al10 Mg14 2.951355 1_555
Al10 Mg3 3.033314 1_555
Al10 Mg9 3.091459 1_555
Al10 Mg12 3.133567 1_556
Al10 Mg13 3.157583 1_545
Al10 Mg0 3.242477 1_446
Al10 Mg2 3.327965 1_555
Al11 Al2 2.690237 1_555
Al11 Al7 2.722784 1_655
Al11 Al8 2.741951 1_656
Al11 Mg15 2.847578 1_556
Al11 Mg10 2.926554 1_655
Al11 Mg11 2.988935 1_556
Al11 Mg2 2.993353 1_556
Al11 Mg3 3.039952 1_665
Al11 Mg0 3.119618 1_556
Al11 Mg1 3.132125 1_555
