# generated using pymatgen
data_Be8Ru
_symmetry_space_group_name_H-M   'P 1'
_cell_length_a   4.16247244
_cell_length_b   4.16247244
_cell_length_c   10.97873000
_cell_angle_alpha   90.00000000
_cell_angle_beta   90.00000000
_cell_angle_gamma   120.00000696
_symmetry_Int_Tables_number   1
_chemical_formula_structural   Be8Ru
_chemical_formula_sum   'Be16 Ru2'
_cell_volume   164.73483583
_cell_formula_units_Z   2
loop_
 _symmetry_equiv_pos_site_id
 _symmetry_equiv_pos_as_xyz
  1  'x, y, z'
loop_
 _atom_site_type_symbol
 _atom_site_label
 _atom_site_symmetry_multiplicity
 _atom_site_fract_x
 _atom_site_fract_y
 _atom_site_fract_z
 _atom_site_occupancy
  Be  Be0  1  0.66666700  0.33333300  0.65612300  1
  Be  Be1  1  0.66666700  0.33333300  0.34387700  1
  Be  Be2  1  0.83356500  0.16643500  0.81678800  1
  Be  Be3  1  0.83356500  0.66713100  0.81678800  1
  Be  Be4  1  0.33286900  0.16643500  0.81678800  1
  Be  Be5  1  0.83356500  0.16643500  0.18321200  1
  Be  Be6  1  0.83356500  0.66713100  0.18321200  1
  Be  Be7  1  0.33286900  0.16643500  0.18321200  1
  Be  Be8  1  0.33333300  0.66666700  0.90296900  1
  Be  Be9  1  0.33333300  0.66666700  0.09703100  1
  Be  Be10  1  0.49555200  0.50444800  0.50000000  1
  Be  Be11  1  0.49555200  0.99110500  0.50000000  1
  Be  Be12  1  0.00889500  0.50444800  0.50000000  1
  Be  Be13  1  0.66666700  0.33333300  0.00000000  1
  Be  Be14  1  0.00000000  0.00000000  0.62640000  1
  Be  Be15  1  0.00000000  0.00000000  0.37360000  1
  Ru  Ru0  1  0.33333300  0.66666700  0.69292700  1
  Ru  Ru1  1  0.33333300  0.66666700  0.30707300  1
loop_
_geom_bond_atom_site_label_1
_geom_bond_atom_site_label_2
_geom_bond_distance
_geom_bond_site_symmetry_2
Be0 Be12 2.111833 1_655
Be0 Be11 2.111833 1_545
Be0 Be10 2.111837 1_555
Be0 Be2 2.135227 1_555
Be0 Be3 2.135231 1_555
Be0 Be4 2.135231 1_555
Be0 Be14 2.425256 1_655
Be0 Be14 2.425259 1_555
Be0 Be14 2.425259 1_665
Be0 Ru0 2.436934 1_545
Be0 Ru0 2.436934 1_655
Be0 Ru0 2.436941 1_555
Be1 Be12 2.111833 1_655
Be1 Be11 2.111833 1_545
Be1 Be10 2.111837 1_555
Be1 Be5 2.135227 1_555
Be1 Be6 2.135231 1_555
Be1 Be7 2.135231 1_555
Be1 Be15 2.425256 1_655
Be1 Be15 2.425259 1_555
Be1 Be15 2.425259 1_665
Be1 Ru1 2.436934 1_545
Be1 Ru1 2.436934 1_655
Be1 Ru1 2.436941 1_555
Be2 Be4 2.078339 1_655
Be2 Be3 2.078339 1_545
Be2 Be3 2.084133 1_555
Be2 Be4 2.084133 1_555
Be2 Be8 2.286211 1_545
Be2 Be8 2.286211 1_655
Be2 Ru0 2.486102 1_655
Be2 Ru0 2.486102 1_545
Be3 Be4 2.078339 1_665
Be3 Be4 2.084133 1_555
Be3 Be8 2.286211 1_555
Be3 Be8 2.286211 1_655
Be3 Ru0 2.486102 1_555
Be3 Ru0 2.486102 1_655
Be4 Be8 2.286211 1_555
Be4 Be8 2.286211 1_545
Be4 Ru0 2.486102 1_555
Be4 Ru0 2.486102 1_545
Be5 Be7 2.078339 1_655
Be5 Be6 2.078339 1_545
Be5 Be6 2.084133 1_555
Be5 Be7 2.084133 1_555
Be5 Be9 2.286211 1_545
Be5 Be9 2.286211 1_655
Be5 Ru1 2.486102 1_545
Be5 Ru1 2.486102 1_655
Be6 Be7 2.078339 1_665
Be6 Be7 2.084133 1_555
Be6 Be9 2.286211 1_555
Be6 Be9 2.286211 1_655
Be6 Ru1 2.486102 1_555
Be6 Ru1 2.486102 1_655
Be7 Be9 2.286211 1_555
Be7 Be9 2.286211 1_545
Be7 Ru1 2.486102 1_555
Be7 Ru1 2.486102 1_545
Be8 Be9 2.130554 1_556
Be8 Ru0 2.305994 1_555
Be9 Ru1 2.305994 1_555
Be10 Be11 2.025696 1_555
Be10 Be12 2.025696 1_555
Be10 Be12 2.136776 1_655
Be10 Be11 2.136776 1_545
Be10 Ru0 2.419532 1_555
Be10 Ru1 2.419532 1_555
Be10 Be15 2.501662 1_555
Be10 Be15 2.501662 1_665
Be10 Be14 2.501662 1_665
Be10 Be14 2.501662 1_555
Be11 Be12 2.025696 1_555
Be11 Be12 2.136776 1_665
Be11 Ru1 2.419532 1_555
Be11 Ru0 2.419532 1_555
Be11 Be15 2.501661 1_565
Be11 Be14 2.501661 1_565
Be11 Be15 2.501664 1_665
Be11 Be14 2.501664 1_665
Be12 Ru0 2.419532 1_555
Be12 Ru1 2.419532 1_555
Be12 Be15 2.501661 1_565
Be12 Be14 2.501661 1_565
Be12 Be15 2.501664 1_555
Be12 Be14 2.501664 1_555
Be13 Be5 2.343871 1_555
Be13 Be2 2.343871 1_554
Be13 Be6 2.343874 1_555
Be13 Be7 2.343874 1_555
Be13 Be3 2.343874 1_554
Be13 Be4 2.343874 1_554
Be13 Be9 2.628725 1_545
Be13 Be9 2.628725 1_655
Be13 Be8 2.628725 1_544
Be13 Be8 2.628725 1_654
Be13 Be9 2.628732 1_555
Be13 Be8 2.628732 1_554
Be14 Be4 2.410154 1_555
Be14 Be3 2.410154 1_445
Be14 Be2 2.410156 1_455
Be14 Ru0 2.511740 1_545
Be14 Ru0 2.511743 1_445
Be14 Ru0 2.511743 1_555
Be15 Be7 2.410154 1_555
Be15 Be6 2.410154 1_445
Be15 Be5 2.410156 1_455
Be15 Ru1 2.511740 1_545
Be15 Ru1 2.511743 1_555
Be15 Ru1 2.511743 1_445
