# generated using pymatgen
data_RbTaTiO5
_symmetry_space_group_name_H-M   'P 1'
_cell_length_a   3.84144500
_cell_length_b   6.54656400
_cell_length_c   19.32636100
_cell_angle_alpha   90.00000000
_cell_angle_beta   90.00000000
_cell_angle_gamma   90.00000000
_symmetry_Int_Tables_number   1
_chemical_formula_structural   RbTaTiO5
_chemical_formula_sum   'Rb4 Ta4 Ti4 O20'
_cell_volume   486.02445845
_cell_formula_units_Z   4
loop_
 _symmetry_equiv_pos_site_id
 _symmetry_equiv_pos_as_xyz
  1  'x, y, z'
loop_
 _atom_site_type_symbol
 _atom_site_label
 _atom_site_symmetry_multiplicity
 _atom_site_fract_x
 _atom_site_fract_y
 _atom_site_fract_z
 _atom_site_occupancy
  Rb  Rb0  1  0.25000000  0.79654900  0.19585900  1
  Rb  Rb1  1  0.25000000  0.29654900  0.30414100  1
  Rb  Rb2  1  0.75000000  0.20345100  0.80414100  1
  Rb  Rb3  1  0.75000000  0.70345100  0.69585900  1
  Ta  Ta0  1  0.25000000  0.76921400  0.89526700  1
  Ta  Ta1  1  0.25000000  0.26921400  0.60473300  1
  Ta  Ta2  1  0.75000000  0.23078600  0.10473300  1
  Ta  Ta3  1  0.75000000  0.73078600  0.39526700  1
  Ti  Ti0  1  0.25000000  0.31438900  0.96628700  1
  Ti  Ti1  1  0.25000000  0.81438900  0.53371300  1
  Ti  Ti2  1  0.75000000  0.68561100  0.03371300  1
  Ti  Ti3  1  0.75000000  0.18561100  0.46628700  1
  O  O0  1  0.25000000  0.06471200  0.92772900  1
  O  O1  1  0.25000000  0.56471200  0.57227100  1
  O  O2  1  0.75000000  0.93528800  0.07227100  1
  O  O3  1  0.75000000  0.43528800  0.42772900  1
  O  O4  1  0.25000000  0.46476300  0.88523600  1
  O  O5  1  0.25000000  0.96476300  0.61476400  1
  O  O6  1  0.75000000  0.53523700  0.11476400  1
  O  O7  1  0.75000000  0.03523700  0.38523600  1
  O  O8  1  0.25000000  0.23792800  0.07709200  1
  O  O9  1  0.25000000  0.73792800  0.42290800  1
  O  O10  1  0.75000000  0.76207200  0.92290800  1
  O  O11  1  0.75000000  0.26207200  0.57709200  1
  O  O12  1  0.25000000  0.65030800  0.00883100  1
  O  O13  1  0.25000000  0.15030800  0.49116900  1
  O  O14  1  0.75000000  0.34969200  0.99116900  1
  O  O15  1  0.75000000  0.84969200  0.50883100  1
  O  O16  1  0.25000000  0.82798800  0.80362000  1
  O  O17  1  0.25000000  0.32798800  0.69638000  1
  O  O18  1  0.75000000  0.17201200  0.19638000  1
  O  O19  1  0.75000000  0.67201200  0.30362000  1
loop_
_geom_bond_atom_site_label_1
_geom_bond_atom_site_label_2
_geom_bond_distance
_geom_bond_site_symmetry_2
O0 Ti0 1.796379 1_555
O0 Ta0 2.033685 1_545
O0 Rb2 3.196730 1_455
O0 Rb2 3.196730 1_555
O1 Ti1 1.796379 1_555
O1 Ta1 2.033685 1_555
O1 Rb3 3.196730 1_455
O1 Rb3 3.196730 1_555
O2 Ti2 1.796379 1_555
O2 Ta2 2.033685 1_565
O2 Rb0 3.196730 1_655
O2 Rb0 3.196730 1_555
O3 Ti3 1.796379 1_555
O3 Ta3 2.033685 1_555
O3 Rb1 3.196730 1_655
O3 Rb1 3.196730 1_555
O4 Ti0 1.850076 1_555
O4 Ta0 2.002514 1_555
O4 Rb2 3.011975 1_555
O4 Rb2 3.011975 1_455
O5 Ti1 1.850076 1_555
O5 Ta1 2.002514 1_565
O5 Rb3 3.011975 1_555
O5 Rb3 3.011975 1_455
O6 Ti2 1.850076 1_555
O6 Ta2 2.002514 1_555
O6 Rb0 3.011975 1_655
O6 Rb0 3.011975 1_555
O7 Ti3 1.850076 1_555
O7 Ta3 2.002514 1_545
O7 Rb1 3.011975 1_655
O7 Rb1 3.011975 1_555
O8 Ta2 1.994174 1_455
O8 Ta2 1.994174 1_555
O8 Ti0 2.199181 1_554
O9 Ta3 1.994174 1_555
O9 Ta3 1.994174 1_455
O9 Ti1 2.199181 1_555
O10 Ta0 1.994174 1_555
O10 Ta0 1.994174 1_655
O10 Ti2 2.199181 1_556
O11 Ta1 1.994174 1_555
O11 Ta1 1.994174 1_655
O11 Ti3 2.199181 1_555
O12 Ti2 1.993447 1_555
O12 Ti2 1.993447 1_455
O12 Ta0 2.328734 1_554
O12 Ti0 2.347798 1_554
O13 Ti3 1.993447 1_455
O13 Ti3 1.993447 1_555
O13 Ta1 2.328734 1_555
O13 Ti1 2.347798 1_545
O14 Ti0 1.993447 1_555
O14 Ti0 1.993447 1_655
O14 Ta2 2.328734 1_556
O14 Ti2 2.347798 1_556
O15 Ti1 1.993447 1_655
O15 Ti1 1.993447 1_555
O15 Ta3 2.328734 1_555
O15 Ti3 2.347798 1_565
O16 Ta0 1.812514 1_555
O16 Rb3 2.948086 1_455
O16 Rb3 2.948086 1_555
O16 Rb2 3.119456 1_565
O16 Rb2 3.119456 1_465
O17 Ta1 1.812514 1_555
O17 Rb2 2.948086 1_555
O17 Rb2 2.948086 1_455
O17 Rb3 3.119456 1_455
O17 Rb3 3.119456 1_555
O18 Ta2 1.812514 1_555
O18 Rb1 2.948086 1_655
O18 Rb1 2.948086 1_555
O18 Rb0 3.119456 1_645
O18 Rb0 3.119456 1_545
O19 Ta3 1.812514 1_555
O19 Rb0 2.948086 1_555
O19 Rb0 2.948086 1_655
O19 Rb1 3.119456 1_655
O19 Rb1 3.119456 1_555
