# generated using pymatgen
data_CaY3(PO4)3
_symmetry_space_group_name_H-M   'P 1'
_cell_length_a   6.33271500
_cell_length_b   6.93626406
_cell_length_c   6.93626406
_cell_angle_alpha   116.90472427
_cell_angle_beta   90.00000000
_cell_angle_gamma   90.00000000
_symmetry_Int_Tables_number   1
_chemical_formula_structural   CaY3(PO4)3
_chemical_formula_sum   'Ca1 Y3 P3 O12'
_cell_volume   271.69977320
_cell_formula_units_Z   1
loop_
 _symmetry_equiv_pos_site_id
 _symmetry_equiv_pos_as_xyz
  1  'x, y, z'
loop_
 _atom_site_type_symbol
 _atom_site_label
 _atom_site_symmetry_multiplicity
 _atom_site_fract_x
 _atom_site_fract_y
 _atom_site_fract_z
 _atom_site_occupancy
  Ca  Ca0  1  0.50000000  0.00000000  0.00000000  1
  Y  Y0  1  0.31700500  0.00000000  0.50000000  1
  Y  Y1  1  0.68299500  0.50000000  0.00000000  1
  Y  Y2  1  0.00000000  0.50000000  0.50000000  1
  P  P0  1  0.81904900  0.00000000  0.50000000  1
  P  P1  1  0.18095000  0.50000000  0.00000000  1
  P  P2  1  0.50000000  0.50000000  0.50000000  1
  O  O0  1  0.67014500  0.87678000  0.30400500  1
  O  O1  1  0.02890500  0.45687900  0.15162500  1
  O  O2  1  0.34851200  0.69336200  0.55610000  1
  O  O3  1  0.67014500  0.12322000  0.69599500  1
  O  O4  1  0.02890500  0.54312100  0.84837500  1
  O  O5  1  0.34851200  0.30663800  0.44390000  1
  O  O6  1  0.65148800  0.55610000  0.69336200  1
  O  O7  1  0.32985500  0.30400500  0.87678000  1
  O  O8  1  0.97109500  0.15162500  0.45687900  1
  O  O9  1  0.65148800  0.44390000  0.30663800  1
  O  O10  1  0.32985500  0.69599500  0.12322000  1
  O  O11  1  0.97109500  0.84837500  0.54312100  1
loop_
_geom_bond_atom_site_label_1
_geom_bond_atom_site_label_2
_geom_bond_distance
_geom_bond_site_symmetry_2
Ca0 O7 2.822933 1_554
Ca0 O0 2.822933 1_545
Ca0 O3 2.822933 1_554
Ca0 O10 2.822933 1_545
Ca0 O5 2.999603 1_555
Ca0 O9 2.999603 1_555
Ca0 O6 2.999603 1_544
Ca0 O2 2.999603 1_544
O0 P0 1.554440 1_565
O0 Y1 2.509131 1_555
O0 Y0 2.555052 1_565
O1 P1 1.551560 1_555
O1 Y2 2.303901 1_555
O1 Y1 2.505743 1_455
O2 P2 1.548629 1_555
O2 Y0 2.337531 1_565
O2 Y2 2.519703 1_555
O3 P0 1.554440 1_555
O3 Y1 2.509131 1_556
O3 Y0 2.555052 1_555
O4 P1 1.551560 1_556
O4 Y2 2.303901 1_555
O4 Y1 2.505743 1_456
O5 P2 1.548629 1_555
O5 Y0 2.337531 1_555
O5 Y2 2.519703 1_555
O6 P2 1.548629 1_555
O6 Y1 2.337531 1_556
O6 Y2 2.519703 1_655
O7 P1 1.554443 1_556
O7 Y0 2.509131 1_555
O7 Y1 2.555052 1_556
O8 P0 1.551564 1_555
O8 Y2 2.303901 1_655
O8 Y0 2.505743 1_655
O9 P2 1.548629 1_555
O9 Y1 2.337531 1_555
O9 Y2 2.519703 1_655
O10 P1 1.554443 1_555
O10 Y0 2.509131 1_565
O10 Y1 2.555052 1_555
O11 P0 1.551564 1_565
O11 Y2 2.303901 1_655
O11 Y0 2.505743 1_665
