# generated using pymatgen
data_BaAg4O7
_symmetry_space_group_name_H-M   'P 1'
_cell_length_a   6.88502563
_cell_length_b   6.88502563
_cell_length_c   11.65335800
_cell_angle_alpha   90.00000000
_cell_angle_beta   90.00000000
_cell_angle_gamma   119.99999649
_symmetry_Int_Tables_number   1
_chemical_formula_structural   BaAg4O7
_chemical_formula_sum   'Ba2 Ag8 O14'
_cell_volume   478.40185918
_cell_formula_units_Z   2
loop_
 _symmetry_equiv_pos_site_id
 _symmetry_equiv_pos_as_xyz
  1  'x, y, z'
loop_
 _atom_site_type_symbol
 _atom_site_label
 _atom_site_symmetry_multiplicity
 _atom_site_fract_x
 _atom_site_fract_y
 _atom_site_fract_z
 _atom_site_occupancy
  Ba  Ba0  1  0.66666700  0.33333300  0.45942100  1
  Ba  Ba1  1  0.33333300  0.66666700  0.95942100  1
  Ag  Ag0  1  0.82446400  0.17553600  0.18379800  1
  Ag  Ag1  1  0.64892700  0.82446400  0.68379800  1
  Ag  Ag2  1  0.17553600  0.35107300  0.68379800  1
  Ag  Ag3  1  0.82446400  0.64892700  0.18379800  1
  Ag  Ag4  1  0.35107300  0.17553600  0.18379800  1
  Ag  Ag5  1  0.17553600  0.82446400  0.68379800  1
  Ag  Ag6  1  0.00000000  0.00000000  0.42619300  1
  Ag  Ag7  1  0.00000000  0.00000000  0.92619300  1
  O  O0  1  0.84708100  0.15291900  0.01153600  1
  O  O1  1  0.69416300  0.84708100  0.51153600  1
  O  O2  1  0.15291900  0.30583700  0.51153600  1
  O  O3  1  0.84708100  0.69416300  0.01153600  1
  O  O4  1  0.30583700  0.15291900  0.01153600  1
  O  O5  1  0.15291900  0.84708100  0.51153600  1
  O  O6  1  0.00000000  0.00000000  0.74436100  1
  O  O7  1  0.00000000  0.00000000  0.24436100  1
  O  O8  1  0.53316500  0.46683500  0.27935900  1
  O  O9  1  0.06633100  0.53316500  0.77935900  1
  O  O10  1  0.46683500  0.93366900  0.77935900  1
  O  O11  1  0.53316500  0.06633100  0.27935900  1
  O  O12  1  0.46683500  0.53316500  0.77935900  1
  O  O13  1  0.93366900  0.46683500  0.27935900  1
loop_
_geom_bond_atom_site_label_1
_geom_bond_atom_site_label_2
_geom_bond_distance
_geom_bond_site_symmetry_2
Ba0 O13 2.633919 1_555
Ba0 O11 2.633919 1_555
Ba0 O8 2.633926 1_555
Ba1 O10 2.633919 1_555
Ba1 O9 2.633919 1_555
Ba1 O12 2.633926 1_555
Ag0 O0 2.025469 1_555
Ag0 O13 2.078439 1_555
Ag0 O11 2.078439 1_555
Ag0 O7 2.209078 1_655
Ag1 O1 2.025470 1_555
Ag1 O10 2.078428 1_555
Ag1 O12 2.078437 1_555
Ag1 O6 2.209083 1_665
Ag2 O2 2.025470 1_555
Ag2 O9 2.078428 1_555
Ag2 O12 2.078437 1_555
Ag2 O6 2.209083 1_555
Ag3 O3 2.025470 1_555
Ag3 O13 2.078428 1_555
Ag3 O8 2.078437 1_555
Ag3 O7 2.209083 1_665
Ag4 O4 2.025470 1_555
Ag4 O11 2.078428 1_555
Ag4 O8 2.078437 1_555
Ag4 O7 2.209083 1_555
Ag5 O5 2.025469 1_555
Ag5 O10 2.078439 1_555
Ag5 O9 2.078439 1_555
Ag5 O6 2.209078 1_565
Ag6 O1 2.077152 1_445
Ag6 O2 2.077152 1_555
Ag6 O5 2.077157 1_545
Ag6 O7 2.118953 1_555
Ag7 O3 2.077152 1_446
Ag7 O4 2.077152 1_556
Ag7 O0 2.077157 1_456
Ag7 O6 2.118953 1_555
