# generated using pymatgen
data_Na5Nd4Si4O17
_symmetry_space_group_name_H-M   'P 1'
_cell_length_a   8.93493140
_cell_length_b   8.93493140
_cell_length_c   8.93493140
_cell_angle_alpha   95.54887272
_cell_angle_beta   95.54887272
_cell_angle_gamma   143.76607186
_symmetry_Int_Tables_number   1
_chemical_formula_structural   Na5Nd4Si4O17
_chemical_formula_sum   'Na5 Nd4 Si4 O17'
_cell_volume   400.71878163
_cell_formula_units_Z   1
loop_
 _symmetry_equiv_pos_site_id
 _symmetry_equiv_pos_as_xyz
  1  'x, y, z'
loop_
 _atom_site_type_symbol
 _atom_site_label
 _atom_site_symmetry_multiplicity
 _atom_site_fract_x
 _atom_site_fract_y
 _atom_site_fract_z
 _atom_site_occupancy
  Na  Na0  1  0.40492700  0.09970000  0.48479200  1
  Na  Na1  1  0.61490800  0.92013500  0.51520800  1
  Na  Na2  1  0.90030000  0.38509200  0.30522700  1
  Na  Na3  1  0.07986500  0.59507300  0.69477300  1
  Na  Na4  1  0.50000000  0.50000000  0.00000000  1
  Nd  Nd0  1  0.86277700  0.79725300  0.70116200  1
  Nd  Nd1  1  0.09609100  0.16161500  0.29883800  1
  Nd  Nd2  1  0.20274700  0.90390900  0.06552500  1
  Nd  Nd3  1  0.83838500  0.13722300  0.93447500  1
  Si  Si0  1  0.26119600  0.40706600  0.64966300  1
  Si  Si1  1  0.75740300  0.61153300  0.35033700  1
  Si  Si2  1  0.59293400  0.24259700  0.85413000  1
  Si  Si3  1  0.38846700  0.73880400  0.14587000  1
  O  O0  1  0.00000000  0.00000000  0.00000000  1
  O  O1  1  0.54328000  0.71940500  0.75398900  1
  O  O2  1  0.96541600  0.78929000  0.24601100  1
  O  O3  1  0.28059500  0.03458400  0.82387400  1
  O  O4  1  0.21071000  0.45672000  0.17612600  1
  O  O5  1  0.86531000  0.58647000  0.49058500  1
  O  O6  1  0.09588500  0.37472500  0.50941500  1
  O  O7  1  0.41353000  0.90411500  0.27884000  1
  O  O8  1  0.62527500  0.13469000  0.72116000  1
  O  O9  1  0.35031100  0.32157400  0.56781700  1
  O  O10  1  0.75375700  0.78249400  0.43218300  1
  O  O11  1  0.67842600  0.24624300  0.02873700  1
  O  O12  1  0.21750600  0.64968900  0.97126300  1
  O  O13  1  0.46007300  0.31736300  0.23631500  1
  O  O14  1  0.08104800  0.22375800  0.76368500  1
  O  O15  1  0.68263700  0.91895200  0.14271000  1
  O  O16  1  0.77624200  0.53992700  0.85729000  1
loop_
_geom_bond_atom_site_label_1
_geom_bond_atom_site_label_2
_geom_bond_distance
_geom_bond_site_symmetry_2
Na0 O9 2.462662 1_555
Na0 O7 2.463367 1_545
Na0 O8 2.551352 1_555
Na0 O5 2.625505 1_555
Na0 O2 2.707469 1_445
Na0 O13 2.907692 1_555
Na0 O5 2.950245 1_445
Na1 O10 2.462662 1_555
Na1 O8 2.463367 1_565
Na1 O7 2.551352 1_555
Na1 O6 2.625505 1_665
Na1 O1 2.707471 1_555
Na1 O14 2.907692 1_665
Na1 O6 2.950245 1_555
Na2 O11 2.462662 1_555
Na2 O6 2.463367 1_655
Na2 O5 2.551352 1_555
Na2 O7 2.625505 1_545
Na2 O4 2.707473 1_655
Na2 O15 2.907692 1_545
Na2 O7 2.950245 1_655
Na3 O12 2.462662 1_555
Na3 O5 2.463367 1_455
Na3 O6 2.551352 1_555
Na3 O8 2.625505 1_455
Na3 O3 2.707469 1_565
Na3 O16 2.907692 1_455
Na3 O8 2.950245 1_565
Na4 O15 2.668581 1_555
Na4 O16 2.668581 1_554
Na4 O13 2.668581 1_555
Na4 O14 2.668581 1_554
Na4 O0 2.778387 1_555
Na4 O0 2.778387 1_665
Na4 O4 2.932395 1_555
Na4 O1 2.932396 1_554
Na4 O3 2.932399 1_554
Na4 O2 2.932399 1_555
Nd0 O3 2.371375 1_665
Nd0 O16 2.406477 1_555
Nd0 O1 2.444718 1_555
Nd0 O10 2.453749 1_555
Nd0 O14 2.454766 1_665
Nd0 O5 2.545424 1_555
Nd0 O0 2.600522 1_666
Nd0 O9 2.649584 1_555
Nd1 O4 2.371368 1_555
Nd1 O15 2.406477 1_445
Nd1 O2 2.444726 1_445
Nd1 O9 2.453749 1_555
Nd1 O13 2.454766 1_555
Nd1 O6 2.545424 1_555
Nd1 O0 2.600522 1_555
Nd1 O10 2.649584 1_445
Nd2 O2 2.371368 1_455
Nd2 O13 2.406474 1_565
Nd2 O3 2.444735 1_564
Nd2 O12 2.453751 1_554
Nd2 O16 2.454771 1_454
Nd2 O7 2.545418 1_555
Nd2 O0 2.600523 1_565
Nd2 O11 2.649587 1_565
Nd3 O1 2.371373 1_545
Nd3 O14 2.406470 1_655
Nd3 O4 2.444732 1_656
Nd3 O11 2.453752 1_556
Nd3 O15 2.454774 1_546
Nd3 O8 2.545418 1_555
Nd3 O0 2.600524 1_656
Nd3 O12 2.649582 1_655
O1 Si0 1.644706 1_555
O2 Si1 1.644705 1_555
O3 Si2 1.644705 1_555
O4 Si3 1.644712 1_555
O5 Si1 1.648914 1_555
O6 Si0 1.648914 1_555
O7 Si3 1.648914 1_555
O8 Si2 1.648914 1_555
O9 Si0 1.654700 1_555
O10 Si1 1.654700 1_555
O11 Si2 1.654700 1_554
O12 Si3 1.654700 1_556
O13 Si1 1.642616 1_555
O14 Si0 1.642616 1_555
O15 Si3 1.642616 1_555
O16 Si2 1.642616 1_555
