# generated using pymatgen
data_Ca7MgTiMn7O24
_symmetry_space_group_name_H-M   'P 1'
_cell_length_a   7.61514407
_cell_length_b   7.61514407
_cell_length_c   7.61514411
_cell_angle_alpha   90.00683075
_cell_angle_beta   90.00683075
_cell_angle_gamma   90.00683116
_symmetry_Int_Tables_number   1
_chemical_formula_structural   Ca7MgTiMn7O24
_chemical_formula_sum   'Ca7 Mg1 Ti1 Mn7 O24'
_cell_volume   441.60538941
_cell_formula_units_Z   1
loop_
 _symmetry_equiv_pos_site_id
 _symmetry_equiv_pos_as_xyz
  1  'x, y, z'
loop_
 _atom_site_type_symbol
 _atom_site_label
 _atom_site_symmetry_multiplicity
 _atom_site_fract_x
 _atom_site_fract_y
 _atom_site_fract_z
 _atom_site_occupancy
  Ca  Ca0  1  0.75085800  0.24911300  0.75085800  1
  Ca  Ca1  1  0.75083600  0.24916800  0.24916800  1
  Ca  Ca2  1  0.75085800  0.75085800  0.24911300  1
  Ca  Ca3  1  0.24916800  0.24916800  0.75083600  1
  Ca  Ca4  1  0.24917500  0.24917500  0.24917500  1
  Ca  Ca5  1  0.24911300  0.75085800  0.75085800  1
  Ca  Ca6  1  0.24916800  0.75083600  0.24916800  1
  Mg  Mg0  1  0.75091300  0.75091300  0.75091300  1
  Ti  Ti0  1  0.50059500  0.50059500  0.50059500  1
  Mn  Mn0  1  0.50037300  0.99966300  0.99966300  1
  Mn  Mn1  1  0.50030100  0.99982500  0.50030100  1
  Mn  Mn2  1  0.50030100  0.50030100  0.99982500  1
  Mn  Mn3  1  0.99965200  0.99965200  0.99965200  1
  Mn  Mn4  1  0.99966300  0.99966300  0.50037300  1
  Mn  Mn5  1  0.99966300  0.50037300  0.99966300  1
  Mn  Mn6  1  0.99982500  0.50030100  0.50030100  1
  O  O0  1  0.75008200  0.99896800  0.99896800  1
  O  O1  1  0.75023500  0.99886100  0.50107900  1
  O  O2  1  0.75023500  0.50107900  0.99886100  1
  O  O3  1  0.75290100  0.50080700  0.50080700  1
  O  O4  1  0.24992300  0.99994300  0.99994300  1
  O  O5  1  0.24972600  0.99995800  0.50006400  1
  O  O6  1  0.24972600  0.50006400  0.99995800  1
  O  O7  1  0.24719500  0.50007800  0.50007800  1
  O  O8  1  0.50006400  0.24972600  0.99995800  1
  O  O9  1  0.50007800  0.24719500  0.50007800  1
  O  O10  1  0.50107900  0.75023500  0.99886100  1
  O  O11  1  0.50080700  0.75290100  0.50080700  1
  O  O12  1  0.99994300  0.24992300  0.99994300  1
  O  O13  1  0.99995800  0.24972600  0.50006400  1
  O  O14  1  0.99896800  0.75008200  0.99896800  1
  O  O15  1  0.99886100  0.75023500  0.50107900  1
  O  O16  1  0.50107900  0.99886100  0.75023500  1
  O  O17  1  0.50006400  0.99995800  0.24972600  1
  O  O18  1  0.50080700  0.50080700  0.75290100  1
  O  O19  1  0.50007800  0.50007800  0.24719500  1
  O  O20  1  0.99896800  0.99896800  0.75008200  1
  O  O21  1  0.99994300  0.99994300  0.24992300  1
  O  O22  1  0.99886100  0.50107900  0.75023500  1
  O  O23  1  0.99995800  0.50006400  0.24972600  1
loop_
_geom_bond_atom_site_label_1
_geom_bond_atom_site_label_2
_geom_bond_distance
_geom_bond_site_symmetry_2
Ca0 O12 2.682352 1_555
Ca0 O0 2.683152 1_545
Ca0 O20 2.683152 1_545
Ca0 O8 2.691969 1_555
Ca0 O13 2.691969 1_555
Ca0 O22 2.692122 1_555
Ca0 O2 2.692122 1_555
Ca0 O16 2.692371 1_545
Ca0 O1 2.692371 1_545
Ca0 O9 2.700636 1_555
Ca0 O3 2.701977 1_555
Ca0 O18 2.701977 1_555
Ca1 O12 2.683544 1_554
Ca1 O21 2.683544 1_545
Ca1 O17 2.692120 1_545
Ca1 O8 2.692120 1_554
Ca1 O23 2.692316 1_555
Ca1 O13 2.692316 1_555
Ca1 O0 2.694358 1_544
Ca1 O9 2.701545 1_555
Ca1 O19 2.701545 1_555
Ca1 O2 2.704482 1_554
Ca1 O1 2.704482 1_545
Ca1 O3 2.709893 1_555
Ca2 O21 2.682352 1_555
Ca2 O14 2.683152 1_554
Ca2 O0 2.683152 1_554
Ca2 O23 2.691969 1_555
Ca2 O17 2.691969 1_555
Ca2 O15 2.692122 1_555
Ca2 O1 2.692122 1_555
Ca2 O2 2.692371 1_554
Ca2 O10 2.692371 1_554
Ca2 O19 2.700636 1_555
Ca2 O11 2.701977 1_555
Ca2 O3 2.701977 1_555
Ca3 O12 2.683544 1_455
Ca3 O4 2.683544 1_545
Ca3 O5 2.692120 1_545
Ca3 O13 2.692120 1_455
Ca3 O6 2.692316 1_555
Ca3 O8 2.692316 1_555
Ca3 O20 2.694358 1_445
Ca3 O7 2.701545 1_555
Ca3 O9 2.701545 1_555
Ca3 O22 2.704482 1_455
Ca3 O16 2.704482 1_545
Ca3 O18 2.709893 1_555
Ca4 O21 2.683936 1_445
Ca4 O4 2.683936 1_544
Ca4 O12 2.683936 1_454
Ca4 O8 2.693110 1_554
Ca4 O6 2.693110 1_554
Ca4 O5 2.693110 1_545
Ca4 O13 2.693110 1_455
Ca4 O17 2.693110 1_545
Ca4 O23 2.693110 1_455
Ca4 O19 2.701968 1_555
Ca4 O7 2.701968 1_555
Ca4 O9 2.701968 1_555
Ca5 O4 2.682352 1_555
Ca5 O14 2.683152 1_455
Ca5 O20 2.683152 1_455
Ca5 O6 2.691969 1_555
Ca5 O5 2.691969 1_555
Ca5 O16 2.692122 1_555
Ca5 O10 2.692122 1_555
Ca5 O22 2.692371 1_455
Ca5 O15 2.692371 1_455
Ca5 O7 2.700636 1_555
Ca5 O11 2.701977 1_555
Ca5 O18 2.701977 1_555
Ca6 O4 2.683544 1_554
Ca6 O21 2.683544 1_455
Ca6 O23 2.692120 1_455
Ca6 O6 2.692120 1_554
Ca6 O17 2.692316 1_555
Ca6 O5 2.692316 1_555
Ca6 O14 2.694358 1_454
Ca6 O7 2.701545 1_555
Ca6 O19 2.701545 1_555
Ca6 O10 2.704482 1_554
Ca6 O15 2.704482 1_455
Ca6 O11 2.709893 1_555
Mg0 O20 2.671263 1_555
Mg0 O0 2.671263 1_555
Mg0 O14 2.671263 1_555
Mg0 O10 2.680601 1_555
Mg0 O2 2.680601 1_555
Mg0 O1 2.680601 1_555
Mg0 O15 2.680601 1_555
Mg0 O16 2.680601 1_555
Mg0 O22 2.680601 1_555
Mg0 O18 2.693386 1_555
Mg0 O11 2.693386 1_555
Mg0 O3 2.693386 1_555
Mn0 O10 1.899447 1_555
Mn0 O16 1.899448 1_555
Mn0 O0 1.901586 1_555
Mn0 O8 1.904269 1_565
Mn0 O17 1.904269 1_556
Mn0 O4 1.907216 1_555
Mn1 O11 1.880371 1_555
Mn1 O9 1.883760 1_565
Mn1 O1 1.903307 1_555
Mn1 O16 1.903307 1_555
Mn1 O5 1.908166 1_555
Mn1 O17 1.908166 1_555
Mn2 O18 1.880371 1_555
Mn2 O19 1.883760 1_556
Mn2 O2 1.903307 1_555
Mn2 O10 1.903307 1_555
Mn2 O8 1.908166 1_555
Mn2 O6 1.908166 1_555
Mn3 O14 1.900525 1_555
Mn3 O0 1.900525 1_555
Mn3 O20 1.900525 1_555
Mn3 O12 1.905852 1_565
Mn3 O4 1.905852 1_655
Mn3 O21 1.905852 1_556
Mn4 O15 1.899447 1_555
Mn4 O1 1.899447 1_555
Mn4 O20 1.901586 1_555
Mn4 O13 1.904269 1_565
Mn4 O5 1.904269 1_655
Mn4 O21 1.907216 1_555
Mn5 O2 1.899447 1_555
Mn5 O22 1.899448 1_555
Mn5 O14 1.901586 1_555
Mn5 O6 1.904269 1_655
Mn5 O23 1.904269 1_556
Mn5 O12 1.907216 1_555
Mn6 O3 1.880371 1_555
Mn6 O7 1.883760 1_655
Mn6 O15 1.903307 1_555
Mn6 O22 1.903307 1_555
Mn6 O13 1.908166 1_555
Mn6 O23 1.908166 1_555
O3 Ti0 1.921348 1_555
O7 Ti0 1.929685 1_555
O9 Ti0 1.929685 1_555
O11 Ti0 1.921348 1_555
O18 Ti0 1.921348 1_555
O19 Ti0 1.929685 1_555
