# generated using pymatgen
data_TiPbO3
_symmetry_space_group_name_H-M   'P 1'
_cell_length_a   3.79136527
_cell_length_b   9.00965160
_cell_length_c   9.01137921
_cell_angle_alpha   87.46602168
_cell_angle_beta   77.85201053
_cell_angle_gamma   77.86351118
_symmetry_Int_Tables_number   1
_chemical_formula_structural   TiPbO3
_chemical_formula_sum   'Ti4 Pb4 O12'
_cell_volume   294.19991127
_cell_formula_units_Z   4
loop_
 _symmetry_equiv_pos_site_id
 _symmetry_equiv_pos_as_xyz
  1  'x, y, z'
loop_
 _atom_site_type_symbol
 _atom_site_label
 _atom_site_symmetry_multiplicity
 _atom_site_fract_x
 _atom_site_fract_y
 _atom_site_fract_z
 _atom_site_occupancy
  Ti  Ti0  1  0.35731863  0.67563686  0.61007218  1
  Ti  Ti1  1  0.64268266  0.32436242  0.38992604  1
  Ti  Ti2  1  0.96718720  0.38993112  0.67567805  1
  Ti  Ti3  1  0.03281146  0.61007017  0.32432265  1
  Pb  Pb0  1  0.35238953  0.98199410  0.31446556  1
  Pb  Pb1  1  0.64760917  0.01800589  0.68553482  1
  Pb  Pb2  1  0.66617088  0.68558067  0.98195671  1
  Pb  Pb3  1  0.33382941  0.31441862  0.01804394  1
  O  O0  1  0.47245436  0.42341388  0.63163850  1
  O  O1  1  0.52754532  0.57658648  0.36836170  1
  O  O2  1  0.10396029  0.36840219  0.42338717  1
  O  O3  1  0.89603973  0.63159792  0.57661317  1
  O  O4  1  0.23958514  0.71298513  0.80832096  1
  O  O5  1  0.76041780  0.28701544  0.19167969  1
  O  O6  1  0.04763918  0.19165052  0.71300335  1
  O  O7  1  0.95236188  0.80834870  0.28699548  1
  O  O8  1  0.28987828  0.87577216  0.54462039  1
  O  O9  1  0.71012025  0.12422932  0.45537985  1
  O  O10  1  0.83437372  0.45534933  0.87580380  1
  O  O11  1  0.16562712  0.54465009  0.12419599  1
loop_
_geom_bond_atom_site_label_1
_geom_bond_atom_site_label_2
_geom_bond_distance
_geom_bond_site_symmetry_2
O0 Ti2 1.957208 1_455
O0 Ti2 1.957442 1_555
O0 Ti0 2.229766 1_555
O0 Ti1 2.301170 1_555
O1 Ti3 1.957207 1_655
O1 Ti3 1.957444 1_555
O1 Ti1 2.229774 1_555
O1 Ti0 2.301150 1_555
O2 Ti1 1.957227 1_555
O2 Ti1 1.957349 1_455
O2 Ti2 2.230648 1_455
O2 Ti3 2.300659 1_555
O3 Ti0 1.957224 1_555
O3 Ti0 1.957344 1_655
O3 Ti3 2.230644 1_655
O3 Ti2 2.300651 1_555
O4 Ti0 1.777193 1_555
O4 Pb2 2.447050 1_555
O4 Pb2 2.448566 1_455
O5 Ti1 1.777170 1_555
O5 Pb3 2.447058 1_555
O5 Pb3 2.448555 1_655
O6 Ti2 1.777206 1_455
O6 Pb1 2.446228 1_555
O6 Pb1 2.449301 1_455
O7 Ti3 1.777191 1_655
O7 Pb0 2.446237 1_555
O7 Pb0 2.449303 1_655
O8 Ti0 1.854770 1_555
O8 Pb0 2.233064 1_555
O8 Pb1 2.587227 1_565
O8 Pb1 2.591260 1_465
O9 Ti1 1.854757 1_555
O9 Pb1 2.233070 1_555
O9 Pb0 2.587234 1_545
O9 Pb0 2.591264 1_645
O10 Ti2 1.854785 1_555
O10 Pb2 2.233150 1_555
O10 Pb3 2.588852 1_556
O10 Pb3 2.589906 1_656
O11 Ti3 1.854798 1_555
O11 Pb3 2.233148 1_555
O11 Pb2 2.588847 1_554
O11 Pb2 2.589902 1_454
