# generated using pymatgen
data_AsPOs
_symmetry_space_group_name_H-M   'P 1'
_cell_length_a   3.00104300
_cell_length_b   5.31028162
_cell_length_c   6.10350570
_cell_angle_alpha   92.04017156
_cell_angle_beta   90.00000000
_cell_angle_gamma   90.00000000
_symmetry_Int_Tables_number   1
_chemical_formula_structural   AsPOs
_chemical_formula_sum   'As2 P2 Os2'
_cell_volume   97.20615054
_cell_formula_units_Z   2
loop_
 _symmetry_equiv_pos_site_id
 _symmetry_equiv_pos_as_xyz
  1  'x, y, z'
loop_
 _atom_site_type_symbol
 _atom_site_label
 _atom_site_symmetry_multiplicity
 _atom_site_fract_x
 _atom_site_fract_y
 _atom_site_fract_z
 _atom_site_occupancy
  As  As0  1  0.50000000  0.67111600  0.13663400  1
  As  As1  1  0.50000000  0.32888400  0.86336600  1
  P  P0  1  0.00000000  0.16503400  0.37179200  1
  P  P1  1  0.00000000  0.83496600  0.62820800  1
  Os  Os0  1  0.50000000  0.50000000  0.50000000  1
  Os  Os1  1  0.00000000  0.00000000  0.00000000  1
loop_
_geom_bond_atom_site_label_1
_geom_bond_atom_site_label_2
_geom_bond_distance
_geom_bond_site_symmetry_2
As0 As1 2.422561 1_554
As0 Os0 2.426488 1_555
As0 Os1 2.469995 1_665
As0 Os1 2.469995 1_565
As1 Os0 2.426488 1_555
As1 Os1 2.469995 1_556
As1 Os1 2.469995 1_656
P0 P1 2.390983 1_545
Os0 P1 2.434912 1_655
Os0 P1 2.434912 1_555
Os0 P0 2.434912 1_555
Os0 P0 2.434912 1_655
Os1 P0 2.403303 1_555
Os1 P1 2.403303 1_544
