# generated using pymatgen
data_ThCoGe2
_symmetry_space_group_name_H-M   'P 1'
_cell_length_a   8.57279250
_cell_length_b   8.57279250
_cell_length_c   4.22538358
_cell_angle_alpha   90.00000000
_cell_angle_beta   90.00000000
_cell_angle_gamma   151.67823674
_symmetry_Int_Tables_number   1
_chemical_formula_structural   ThCoGe2
_chemical_formula_sum   'Th2 Co2 Ge4'
_cell_volume   147.32489770
_cell_formula_units_Z   2
loop_
 _symmetry_equiv_pos_site_id
 _symmetry_equiv_pos_as_xyz
  1  'x, y, z'
loop_
 _atom_site_type_symbol
 _atom_site_label
 _atom_site_symmetry_multiplicity
 _atom_site_fract_x
 _atom_site_fract_y
 _atom_site_fract_z
 _atom_site_occupancy
  Th  Th0  1  0.61022855  0.38977145  0.25000000  1
  Th  Th1  1  0.38977145  0.61022855  0.75000000  1
  Co  Co0  1  0.81918381  0.18081619  0.25000000  1
  Co  Co1  1  0.18081619  0.81918381  0.75000000  1
  Ge  Ge0  1  0.95704246  0.04295754  0.25000000  1
  Ge  Ge1  1  0.04295754  0.95704246  0.75000000  1
  Ge  Ge2  1  0.25029375  0.74970625  0.25000000  1
  Ge  Ge3  1  0.74970625  0.25029375  0.75000000  1
loop_
_geom_bond_atom_site_label_1
_geom_bond_atom_site_label_2
_geom_bond_distance
_geom_bond_site_symmetry_2
Co0 Ge0 2.291842 1_555
Co0 Ge2 2.389620 1_655
Co0 Ge2 2.389620 1_545
Co0 Ge3 2.407815 1_555
Co0 Ge3 2.407815 1_554
Co0 Th1 3.199873 1_655
Co0 Th1 3.199873 1_654
Co0 Th1 3.199873 1_544
Co0 Th1 3.199873 1_545
Co1 Ge1 2.291842 1_555
Co1 Ge3 2.389620 1_565
Co1 Ge3 2.389620 1_455
Co1 Ge2 2.407815 1_555
Co1 Ge2 2.407815 1_556
Co1 Th0 3.199873 1_565
Co1 Th0 3.199873 1_566
Co1 Th0 3.199873 1_455
Co1 Th0 3.199873 1_456
Ge0 Ge1 2.550199 1_644
Ge0 Ge1 2.550199 1_645
Ge0 Th1 3.180066 1_545
Ge0 Th1 3.180066 1_544
Ge0 Th1 3.180066 1_655
Ge0 Th1 3.180066 1_654
Ge0 Th0 3.299104 1_545
Ge0 Th0 3.299104 1_655
Ge1 Th0 3.180066 1_455
Ge1 Th0 3.180066 1_456
Ge1 Th0 3.180066 1_565
Ge1 Th0 3.180066 1_566
Ge1 Th1 3.299104 1_455
Ge1 Th1 3.299104 1_565
Ge2 Th0 3.133795 1_455
Ge2 Th0 3.133795 1_565
Ge2 Th1 3.136894 1_554
Ge2 Th1 3.136894 1_555
Ge3 Th1 3.133795 1_655
Ge3 Th1 3.133795 1_545
Ge3 Th0 3.136894 1_555
Ge3 Th0 3.136894 1_556
