# generated using pymatgen
data_Ce5Ga2Ge
_symmetry_space_group_name_H-M   'P 1'
_cell_length_a   8.00860800
_cell_length_b   8.00860800
_cell_length_c   8.41478583
_cell_angle_alpha   118.41570006
_cell_angle_beta   118.41570006
_cell_angle_gamma   90.00000000
_symmetry_Int_Tables_number   1
_chemical_formula_structural   Ce5Ga2Ge
_chemical_formula_sum   'Ce10 Ga4 Ge2'
_cell_volume   399.20163334
_cell_formula_units_Z   2
loop_
 _symmetry_equiv_pos_site_id
 _symmetry_equiv_pos_as_xyz
  1  'x, y, z'
loop_
 _atom_site_type_symbol
 _atom_site_label
 _atom_site_symmetry_multiplicity
 _atom_site_fract_x
 _atom_site_fract_y
 _atom_site_fract_z
 _atom_site_occupancy
  Ce  Ce0  1  0.50000000  0.50000000  0.00000000  1
  Ce  Ce1  1  0.00000000  0.00000000  0.00000000  1
  Ce  Ce2  1  0.98439400  0.83607500  0.32046900  1
  Ce  Ce3  1  0.33607500  0.48439400  0.32046900  1
  Ce  Ce4  1  0.83607500  0.33607500  0.32046900  1
  Ce  Ce5  1  0.48439400  0.98439400  0.32046900  1
  Ce  Ce6  1  0.01560600  0.16392500  0.67953100  1
  Ce  Ce7  1  0.66392500  0.51560600  0.67953100  1
  Ce  Ce8  1  0.16392500  0.66392500  0.67953100  1
  Ce  Ce9  1  0.51560600  0.01560600  0.67953100  1
  Ga  Ga0  1  0.62098000  0.87902000  0.00000000  1
  Ga  Ga1  1  0.37902000  0.12098000  0.00000000  1
  Ga  Ga2  1  0.87902000  0.37902000  0.00000000  1
  Ga  Ga3  1  0.12098000  0.62098000  0.00000000  1
  Ge  Ge0  1  0.75000000  0.75000000  0.50000000  1
  Ge  Ge1  1  0.25000000  0.25000000  0.50000000  1
loop_
_geom_bond_atom_site_label_1
_geom_bond_atom_site_label_2
_geom_bond_distance
_geom_bond_site_symmetry_2
Ce0 Ge0 3.112062 1_555
Ce0 Ge1 3.112062 1_554
Ce0 Ga1 3.186302 1_555
Ce0 Ga2 3.186302 1_555
Ce0 Ga0 3.186302 1_555
Ce0 Ga3 3.186302 1_555
Ce1 Ge1 3.112062 1_555
Ce1 Ge0 3.112062 1_444
Ce1 Ga1 3.186302 1_555
Ce1 Ga0 3.186302 1_445
Ce1 Ga3 3.186302 1_545
Ce1 Ga2 3.186302 1_455
Ce2 Ce6 2.795785 1_665
Ce2 Ga0 3.045332 1_555
Ce2 Ga2 3.134057 1_555
Ce2 Ga3 3.134057 1_655
Ce2 Ge1 3.157741 1_665
Ce2 Ge0 3.157741 1_555
Ce3 Ce7 2.795785 1_555
Ce3 Ga1 3.045332 1_555
Ce3 Ga2 3.134057 1_455
Ce3 Ga3 3.134057 1_555
Ce3 Ge1 3.157741 1_555
Ce3 Ge0 3.157741 1_555
Ce4 Ce8 2.795785 1_655
Ce4 Ga2 3.045332 1_555
Ce4 Ga1 3.134057 1_555
Ce4 Ga0 3.134057 1_545
Ce4 Ge1 3.157741 1_655
Ce4 Ge0 3.157741 1_555
Ce5 Ce9 2.795785 1_565
Ce5 Ga3 3.045332 1_555
Ce5 Ga0 3.134057 1_555
Ce5 Ga1 3.134057 1_565
Ce5 Ge0 3.157741 1_555
Ce5 Ge1 3.157741 1_565
Ce6 Ga1 3.045332 1_556
Ce6 Ga2 3.134057 1_456
Ce6 Ga3 3.134057 1_556
Ce6 Ge1 3.157741 1_555
Ce6 Ge0 3.157741 1_445
Ce7 Ga0 3.045332 1_556
Ce7 Ga2 3.134057 1_556
Ce7 Ga3 3.134057 1_656
Ce7 Ge1 3.157741 1_555
Ce7 Ge0 3.157741 1_555
Ce8 Ga3 3.045332 1_556
Ce8 Ga0 3.134057 1_556
Ce8 Ga1 3.134057 1_566
Ce8 Ge1 3.157741 1_555
Ce8 Ge0 3.157741 1_455
Ce9 Ga2 3.045332 1_556
Ce9 Ga1 3.134057 1_556
Ce9 Ga0 3.134057 1_546
Ce9 Ge1 3.157741 1_555
Ce9 Ge0 3.157741 1_545
Ga0 Ga1 2.740410 1_565
Ga2 Ga3 2.740410 1_655
