# generated using pymatgen
data_Rb2NbAgS4
_symmetry_space_group_name_H-M   'P 1'
_cell_length_a   13.92598086
_cell_length_b   12.41543394
_cell_length_c   7.59468772
_cell_angle_alpha   84.55662052
_cell_angle_beta   62.56198879
_cell_angle_gamma   32.88139069
_symmetry_Int_Tables_number   1
_chemical_formula_structural   Rb2NbAgS4
_chemical_formula_sum   'Rb4 Nb2 Ag2 S8'
_cell_volume   503.16648937
_cell_formula_units_Z   2
loop_
 _symmetry_equiv_pos_site_id
 _symmetry_equiv_pos_as_xyz
  1  'x, y, z'
loop_
 _atom_site_type_symbol
 _atom_site_label
 _atom_site_symmetry_multiplicity
 _atom_site_fract_x
 _atom_site_fract_y
 _atom_site_fract_z
 _atom_site_occupancy
  Rb  Rb0  1  0.07097800  0.07097800  0.42902200  1
  Rb  Rb1  1  0.17902200  0.17902200  0.82097800  1
  Rb  Rb2  1  0.42902200  0.42902200  0.07097800  1
  Rb  Rb3  1  0.82097800  0.82097800  0.17902200  1
  Nb  Nb0  1  0.00000000  0.00000000  0.00000000  1
  Nb  Nb1  1  0.25000000  0.25000000  0.25000000  1
  Ag  Ag0  1  0.50000000  0.50000000  0.50000000  1
  Ag  Ag1  1  0.75000000  0.75000000  0.75000000  1
  S  S0  1  0.06094600  0.82777800  0.74210800  1
  S  S1  1  0.36916900  0.74210800  0.82777800  1
  S  S2  1  0.74210800  0.36916900  0.06094600  1
  S  S3  1  0.82777800  0.06094600  0.36916900  1
  S  S4  1  0.18905400  0.42222200  0.50789200  1
  S  S5  1  0.42222200  0.18905400  0.88083100  1
  S  S6  1  0.50789200  0.88083100  0.18905400  1
  S  S7  1  0.88083100  0.50789200  0.42222200  1
loop_
_geom_bond_atom_site_label_1
_geom_bond_atom_site_label_2
_geom_bond_distance
_geom_bond_site_symmetry_2
Rb0 S1 3.514348 1_544
Rb0 S2 3.514355 1_456
Rb0 S6 3.519483 1_545
Rb0 S7 3.519484 1_455
Rb0 S3 3.718949 1_455
Rb0 S0 3.718953 1_545
Rb0 S1 3.853709 1_455
Rb0 S2 3.853710 1_545
Rb1 S7 3.514348 1_456
Rb1 S6 3.514355 1_545
Rb1 S2 3.519483 1_456
Rb1 S1 3.519484 1_545
Rb1 S5 3.718949 1_555
Rb1 S4 3.718953 1_555
Rb1 S7 3.853709 1_545
Rb1 S6 3.853710 1_456
Rb2 S3 3.514352 1_465
Rb2 S0 3.514354 1_644
Rb2 S4 3.519492 1_555
Rb2 S5 3.519496 1_554
Rb2 S1 3.718959 1_554
Rb2 S2 3.718963 1_555
Rb2 S3 3.853708 1_554
Rb2 S0 3.853714 1_555
Rb3 S5 3.514352 1_654
Rb3 S4 3.514354 1_565
Rb3 S0 3.519492 1_654
Rb3 S3 3.519496 1_565
Rb3 S7 3.718959 1_555
Rb3 S6 3.718963 1_555
Rb3 S5 3.853708 1_565
Rb3 S4 3.853714 1_654
Nb0 S0 2.311482 1_544
Nb0 S3 2.311487 1_455
Nb0 S2 2.311490 1_455
Nb0 S1 2.311493 1_544
Nb1 S4 2.311482 1_555
Nb1 S5 2.311487 1_554
Nb1 S6 2.311490 1_545
Nb1 S7 2.311493 1_455
Ag0 S0 2.567715 1_555
Ag0 S3 2.567717 1_555
Ag0 S2 2.567720 1_555
Ag0 S1 2.567725 1_555
Ag1 S4 2.567715 1_655
Ag1 S5 2.567717 1_565
Ag1 S6 2.567720 1_556
Ag1 S7 2.567725 1_555
