# generated using pymatgen
data_Mg14SiW
_symmetry_space_group_name_H-M   'P 1'
_cell_length_a   6.19380515
_cell_length_b   6.19380468
_cell_length_c   9.98968143
_cell_angle_alpha   90.00000000
_cell_angle_beta   90.00000000
_cell_angle_gamma   120.00000257
_symmetry_Int_Tables_number   1
_chemical_formula_structural   Mg14SiW
_chemical_formula_sum   'Mg14 Si1 W1'
_cell_volume   331.89239722
_cell_formula_units_Z   1
loop_
 _symmetry_equiv_pos_site_id
 _symmetry_equiv_pos_as_xyz
  1  'x, y, z'
loop_
 _atom_site_type_symbol
 _atom_site_label
 _atom_site_symmetry_multiplicity
 _atom_site_fract_x
 _atom_site_fract_y
 _atom_site_fract_z
 _atom_site_occupancy
  Mg  Mg0  1  0.16610110  0.83305005  0.12500000  1
  Mg  Mg1  1  0.16796448  0.83398174  0.62500000  1
  Mg  Mg2  1  0.66694995  0.33389890  0.12500000  1
  Mg  Mg3  1  0.66601826  0.33203552  0.62500000  1
  Mg  Mg4  1  0.66694995  0.83305005  0.12500000  1
  Mg  Mg5  1  0.66601826  0.83398174  0.62500000  1
  Mg  Mg6  1  0.32641702  0.17358298  0.37834287  1
  Mg  Mg7  1  0.32641702  0.17358298  0.87165713  1
  Mg  Mg8  1  0.32641702  0.65283505  0.37834287  1
  Mg  Mg9  1  0.32641702  0.65283505  0.87165713  1
  Mg  Mg10  1  0.84716495  0.17358298  0.37834287  1
  Mg  Mg11  1  0.84716495  0.17358298  0.87165713  1
  Mg  Mg12  1  0.83333300  0.66666700  0.37717096  1
  Mg  Mg13  1  0.83333300  0.66666700  0.87282904  1
  Si  Si0  1  0.16666700  0.33333300  0.12500000  1
  W  W0  1  0.16666700  0.33333300  0.62500000  1
loop_
_geom_bond_atom_site_label_1
_geom_bond_atom_site_label_2
_geom_bond_distance
_geom_bond_site_symmetry_2
Mg0 Mg12 3.087395 1_455
Mg0 Mg13 3.087395 1_454
Mg0 Mg2 3.091645 1_455
Mg0 Mg4 3.091645 1_455
Mg0 Si0 3.096904 1_565
Mg0 Si0 3.096904 1_555
Mg0 Mg2 3.102160 1_565
Mg0 Mg4 3.102160 1_555
Mg0 Mg8 3.121747 1_555
Mg0 Mg9 3.121747 1_554
Mg0 Mg6 3.121754 1_565
Mg0 Mg7 3.121754 1_564
Mg1 Mg13 3.057963 1_455
Mg1 Mg12 3.057963 1_455
Mg1 W0 3.096910 1_555
Mg1 W0 3.096910 1_565
Mg2 Mg4 3.091645 1_555
Mg2 Si0 3.096904 1_555
Mg2 Si0 3.096904 1_655
Mg2 Mg4 3.102160 1_545
Mg2 Mg7 3.121754 1_554
Mg2 Mg6 3.121754 1_555
Mg3 W0 3.096910 1_655
Mg3 W0 3.096910 1_555
Mg4 Si0 3.096904 1_665
Mg4 Si0 3.096904 1_555
Mg4 Mg8 3.121754 1_555
Mg4 Mg9 3.121754 1_554
Mg5 W0 3.096910 1_555
Mg5 W0 3.096910 1_665
Mg6 W0 3.001420 1_555
Mg6 Si0 3.056488 1_555
Mg7 W0 3.001420 1_555
Mg7 Si0 3.056488 1_556
Mg8 W0 3.001426 1_555
Mg8 Si0 3.056494 1_555
Mg9 W0 3.001426 1_555
Mg9 Si0 3.056494 1_556
Mg10 W0 3.001426 1_655
Mg10 Si0 3.056494 1_655
Mg10 Mg12 3.097813 1_555
Mg10 Mg12 3.097813 1_545
Mg10 Mg2 3.121747 1_555
Mg10 Mg4 3.121754 1_545
Mg11 W0 3.001426 1_655
Mg11 Si0 3.056494 1_656
Mg11 Mg13 3.097813 1_555
Mg11 Mg13 3.097813 1_545
Mg11 Mg2 3.121747 1_556
Mg11 Mg4 3.121754 1_546
Mg12 Mg5 3.057957 1_555
Mg12 Mg3 3.057963 1_555
Mg12 Mg4 3.087388 1_555
Mg12 Mg2 3.087394 1_555
Mg12 Mg6 3.097813 1_665
Mg12 Mg6 3.097813 1_555
Mg12 Mg8 3.097813 1_655
Mg12 Mg8 3.097813 1_555
Mg13 Mg5 3.057957 1_555
Mg13 Mg3 3.057963 1_555
Mg13 Mg4 3.087388 1_556
Mg13 Mg2 3.087394 1_556
Mg13 Mg7 3.097813 1_665
Mg13 Mg7 3.097813 1_555
Mg13 Mg9 3.097813 1_655
Mg13 Mg9 3.097813 1_555
