# generated using pymatgen
data_NdAlNi4
_symmetry_space_group_name_H-M   'P 1'
_cell_length_a   4.93265904
_cell_length_b   4.93273161
_cell_length_c   4.00105758
_cell_angle_alpha   90.00000000
_cell_angle_beta   90.00000000
_cell_angle_gamma   118.10366713
_symmetry_Int_Tables_number   1
_chemical_formula_structural   NdAlNi4
_chemical_formula_sum   'Nd1 Al1 Ni4'
_cell_volume   85.87358433
_cell_formula_units_Z   1
loop_
 _symmetry_equiv_pos_site_id
 _symmetry_equiv_pos_as_xyz
  1  'x, y, z'
loop_
 _atom_site_type_symbol
 _atom_site_label
 _atom_site_symmetry_multiplicity
 _atom_site_fract_x
 _atom_site_fract_y
 _atom_site_fract_z
 _atom_site_occupancy
  Nd  Nd0  1  0.50000000  0.50000000  -0.00000000  1
  Al  Al0  1  0.00000000  0.00000000  0.50000000  1
  Ni  Ni0  1  0.16899448  0.83116773  -0.00000000  1
  Ni  Ni1  1  0.83100552  0.16883227  0.00000000  1
  Ni  Ni2  1  0.00000000  0.50000000  0.50000000  1
  Ni  Ni3  1  0.50000000  0.00000000  0.50000000  1
loop_
_geom_bond_atom_site_label_1
_geom_bond_atom_site_label_2
_geom_bond_distance
_geom_bond_site_symmetry_2
Nd0 Ni1 2.801285 1_555
Nd0 Ni0 2.801285 1_555
Nd0 Ni0 2.911248 1_545
Nd0 Ni1 2.911248 1_565
Nd0 Ni1 2.911924 1_455
Nd0 Ni0 2.911924 1_655
Nd0 Ni2 3.175673 1_555
Nd0 Ni2 3.175673 1_654
Nd0 Ni2 3.175673 1_554
Nd0 Ni2 3.175673 1_655
Nd0 Ni3 3.175701 1_564
Nd0 Ni3 3.175701 1_565
Nd0 Ni3 3.175701 1_554
Nd0 Ni3 3.175701 1_555
Al0 Ni1 2.458578 1_456
Al0 Ni0 2.458578 1_546
Al0 Ni1 2.458578 1_455
Al0 Ni0 2.458578 1_545
Al0 Ni3 2.466330 1_555
Al0 Ni3 2.466330 1_455
Al0 Ni2 2.466366 1_555
Al0 Ni2 2.466366 1_545
Al0 Nd0 3.230629 1_555
Al0 Nd0 3.230629 1_445
Al0 Nd0 3.230629 1_556
Al0 Nd0 3.230629 1_446
Ni0 Ni3 2.465855 1_565
Ni0 Ni3 2.465855 1_564
Ni0 Ni2 2.466290 1_554
Ni0 Ni2 2.466290 1_555
Ni0 Ni1 2.858313 1_465
Ni0 Ni1 2.883278 1_565
Ni0 Ni1 2.884766 1_455
Ni1 Ni3 2.465855 1_555
Ni1 Ni3 2.465855 1_554
Ni1 Ni2 2.466290 1_655
Ni1 Ni2 2.466290 1_654
Ni2 Ni3 2.536700 1_565
Ni2 Ni3 2.536700 1_455
