# generated using pymatgen
data_U
_symmetry_space_group_name_H-M   'P 1'
_cell_length_a   5.55325580
_cell_length_b   9.69335692
_cell_length_c   9.70197549
_cell_angle_alpha   119.97061240
_cell_angle_beta   90.00000000
_cell_angle_gamma   90.00000000
_symmetry_Int_Tables_number   1
_chemical_formula_structural   U
_chemical_formula_sum   U24
_cell_volume   452.41939959
_cell_formula_units_Z   24
loop_
 _symmetry_equiv_pos_site_id
 _symmetry_equiv_pos_as_xyz
  1  'x, y, z'
loop_
 _atom_site_type_symbol
 _atom_site_label
 _atom_site_symmetry_multiplicity
 _atom_site_fract_x
 _atom_site_fract_y
 _atom_site_fract_z
 _atom_site_occupancy
  U  U0_0  1  0.00000000  0.34668257  0.16665332  1
  U  U0_1  1  0.00000000  0.34668258  0.66665332  1
  U  U0_2  1  0.00000000  0.84668257  0.16665332  1
  U  U0_3  1  0.00000000  0.84668258  0.66665332  1
  U  U0_4  1  0.50000000  0.34668257  0.16665332  1
  U  U0_5  1  0.50000000  0.34668258  0.66665332  1
  U  U0_6  1  0.50000000  0.84668257  0.16665332  1
  U  U0_7  1  0.50000000  0.84668258  0.66665332  1
  U  U1_0  1  0.00000000  0.18002925  0.33334668  1
  U  U1_1  1  0.00000000  0.18002925  0.83334668  1
  U  U1_2  1  0.00000000  0.68002925  0.33334668  1
  U  U1_3  1  0.00000000  0.68002925  0.83334668  1
  U  U1_4  1  0.50000000  0.18002925  0.33334668  1
  U  U1_5  1  0.50000000  0.18002925  0.83334668  1
  U  U1_6  1  0.50000000  0.68002925  0.33334668  1
  U  U1_7  1  0.50000000  0.68002925  0.83334668  1
  U  U2_0  1  0.00000000  0.01328867  0.00000000  1
  U  U2_1  1  0.00000000  0.01328868  0.50000000  1
  U  U2_2  1  0.00000000  0.51328867  0.00000000  1
  U  U2_3  1  0.00000000  0.51328867  0.50000000  1
  U  U2_4  1  0.50000000  0.01328867  0.00000000  1
  U  U2_5  1  0.50000000  0.01328868  0.50000000  1
  U  U2_6  1  0.50000000  0.51328867  0.00000000  1
  U  U2_7  1  0.50000000  0.51328867  0.50000000  1
loop_
_geom_bond_atom_site_label_1
_geom_bond_atom_site_label_2
_geom_bond_distance
_geom_bond_site_symmetry_2
U0_0 U0_4 2.776628 1_555
U0_0 U0_4 2.776628 1_455
U0_0 U2_2 2.798440 1_555
U0_0 U1_0 2.799173 1_555
U0_0 U1_2 2.799173 1_555
U0_0 U2_0 2.799569 1_555
U0_0 U1_1 2.801324 1_554
U0_0 U2_3 2.801660 1_555
U0_1 U0_5 2.776628 1_455
U0_1 U0_5 2.776628 1_555
U0_1 U2_3 2.798440 1_555
U0_1 U1_1 2.799173 1_555
U0_1 U1_3 2.799173 1_555
U0_1 U2_1 2.799569 1_555
U0_1 U1_0 2.801324 1_555
U0_1 U2_2 2.801660 1_556
U0_2 U0_6 2.776628 1_555
U0_2 U0_6 2.776628 1_455
U0_2 U2_0 2.798440 1_565
U0_2 U1_2 2.799173 1_555
U0_2 U1_0 2.799173 1_565
U0_2 U2_2 2.799569 1_555
U0_2 U1_3 2.801324 1_554
U0_2 U2_1 2.801660 1_565
U0_3 U0_7 2.776628 1_455
U0_3 U0_7 2.776628 1_555
U0_3 U2_1 2.798440 1_565
U0_3 U1_3 2.799173 1_555
U0_3 U1_1 2.799173 1_565
U0_3 U2_3 2.799569 1_555
U0_3 U1_2 2.801324 1_555
U0_3 U2_0 2.801660 1_566
U0_4 U2_6 2.798440 1_555
U0_4 U1_4 2.799173 1_555
U0_4 U1_6 2.799173 1_555
U0_4 U2_4 2.799569 1_555
U0_4 U1_5 2.801324 1_554
U0_4 U2_7 2.801660 1_555
U0_5 U2_7 2.798440 1_555
U0_5 U1_5 2.799173 1_555
U0_5 U1_7 2.799173 1_555
U0_5 U2_5 2.799569 1_555
U0_5 U1_4 2.801324 1_555
U0_5 U2_6 2.801660 1_556
U0_6 U2_4 2.798440 1_565
U0_6 U1_6 2.799173 1_555
U0_6 U1_4 2.799173 1_565
U0_6 U2_6 2.799569 1_555
U0_6 U1_7 2.801324 1_554
U0_6 U2_5 2.801660 1_565
U0_7 U2_5 2.798440 1_565
U0_7 U1_7 2.799173 1_555
U0_7 U1_5 2.799173 1_565
U0_7 U2_7 2.799569 1_555
U0_7 U1_6 2.801324 1_555
U0_7 U2_4 2.801660 1_566
U1_0 U1_4 2.776628 1_455
U1_0 U1_4 2.776628 1_555
U1_0 U2_3 2.798440 1_555
U1_0 U2_1 2.799569 1_555
U1_0 U2_0 2.801660 1_555
U1_1 U1_5 2.776628 1_555
U1_1 U1_5 2.776628 1_455
U1_1 U2_2 2.798440 1_556
U1_1 U2_0 2.799569 1_556
U1_1 U2_1 2.801660 1_555
U1_2 U1_6 2.776628 1_455
U1_2 U1_6 2.776628 1_555
U1_2 U2_1 2.798440 1_565
U1_2 U2_3 2.799569 1_555
U1_2 U2_2 2.801660 1_555
U1_3 U1_7 2.776628 1_455
U1_3 U1_7 2.776628 1_555
U1_3 U2_0 2.798440 1_566
U1_3 U2_2 2.799569 1_556
U1_3 U2_3 2.801660 1_555
U1_4 U2_7 2.798440 1_555
U1_4 U2_5 2.799569 1_555
U1_4 U2_4 2.801660 1_555
U1_5 U2_6 2.798440 1_556
U1_5 U2_4 2.799569 1_556
U1_5 U2_5 2.801660 1_555
U1_6 U2_5 2.798440 1_565
U1_6 U2_7 2.799569 1_555
U1_6 U2_6 2.801660 1_555
U1_7 U2_4 2.798440 1_566
U1_7 U2_6 2.799569 1_556
U1_7 U2_7 2.801660 1_555
U2_0 U2_4 2.776628 1_455
U2_0 U2_4 2.776628 1_555
U2_1 U2_5 2.776628 1_455
U2_1 U2_5 2.776628 1_555
U2_2 U2_6 2.776628 1_555
U2_2 U2_6 2.776628 1_455
U2_3 U2_7 2.776628 1_455
U2_3 U2_7 2.776628 1_555
