# generated using pymatgen
data_Gd3MoO7
_symmetry_space_group_name_H-M   'P 1'
_cell_length_a   7.46938824
_cell_length_b   7.48027753
_cell_length_c   10.58938248
_cell_angle_alpha   90.00000000
_cell_angle_beta   90.00000000
_cell_angle_gamma   90.00000000
_symmetry_Int_Tables_number   1
_chemical_formula_structural   Gd3MoO7
_chemical_formula_sum   'Gd12 Mo4 O28'
_cell_volume   591.66159463
_cell_formula_units_Z   4
loop_
 _symmetry_equiv_pos_site_id
 _symmetry_equiv_pos_as_xyz
  1  'x, y, z'
loop_
 _atom_site_type_symbol
 _atom_site_label
 _atom_site_symmetry_multiplicity
 _atom_site_fract_x
 _atom_site_fract_y
 _atom_site_fract_z
 _atom_site_occupancy
  Gd  Gd0  1  0.03603851  0.51104045  0.74271717  1
  Gd  Gd1  1  0.46396149  0.48895955  0.24271717  1
  Gd  Gd2  1  0.53603851  0.98895955  0.25728283  1
  Gd  Gd3  1  0.96396149  0.01104045  0.75728283  1
  Gd  Gd4  1  0.28264023  0.25404772  0.97145897  1
  Gd  Gd5  1  0.21735977  0.74595228  0.47145897  1
  Gd  Gd6  1  0.78264023  0.24595228  0.02854103  1
  Gd  Gd7  1  0.71735977  0.75404772  0.52854103  1
  Gd  Gd8  1  0.30142431  0.24964189  0.51630865  1
  Gd  Gd9  1  0.19857569  0.75035811  0.01630865  1
  Gd  Gd10  1  0.80142431  0.25035811  0.48369135  1
  Gd  Gd11  1  0.69857569  0.74964189  0.98369135  1
  Mo  Mo0  1  0.50438282  0.49681792  0.75133965  1
  Mo  Mo1  1  0.99561718  0.50318208  0.25133965  1
  Mo  Mo2  1  0.00438282  0.00318208  0.24866035  1
  Mo  Mo3  1  0.49561718  0.99681792  0.74866035  1
  O  O0  1  0.43409961  0.24744803  0.74074666  1
  O  O1  1  0.06590039  0.75255197  0.24074666  1
  O  O2  1  0.93409961  0.25255197  0.25925334  1
  O  O3  1  0.56590039  0.74744803  0.75925334  1
  O  O4  1  0.21440893  0.46617583  0.36976962  1
  O  O5  1  0.28559107  0.53382417  0.86976962  1
  O  O6  1  0.71440893  0.03382417  0.63023038  1
  O  O7  1  0.78559107  0.96617583  0.13023038  1
  O  O8  1  0.86761576  0.54378394  0.40178346  1
  O  O9  1  0.63238424  0.45621606  0.90178346  1
  O  O10  1  0.36761576  0.95621606  0.59821654  1
  O  O11  1  0.13238424  0.04378394  0.09821654  1
  O  O12  1  0.18547792  0.46521511  0.12173828  1
  O  O13  1  0.31452208  0.53478489  0.62173828  1
  O  O14  1  0.68547792  0.03478489  0.87826172  1
  O  O15  1  0.81452208  0.96521511  0.37826172  1
  O  O16  1  0.79998522  0.53166274  0.13375340  1
  O  O17  1  0.70001478  0.46833726  0.63375340  1
  O  O18  1  0.29998522  0.96833726  0.86624660  1
  O  O19  1  0.20001478  0.03166274  0.36624660  1
  O  O20  1  0.03826101  0.24484717  0.61646891  1
  O  O21  1  0.46173899  0.75515283  0.11646891  1
  O  O22  1  0.53826101  0.25515283  0.38353109  1
  O  O23  1  0.96173899  0.74484717  0.88353109  1
  O  O24  1  0.00329304  0.26656540  0.88182028  1
  O  O25  1  0.49670696  0.73343460  0.38182028  1
  O  O26  1  0.50329304  0.23343460  0.11817972  1
  O  O27  1  0.99670696  0.76656540  0.61817972  1
loop_
_geom_bond_atom_site_label_1
_geom_bond_atom_site_label_2
_geom_bond_distance
_geom_bond_site_symmetry_2
Gd0 O5 2.305142 1_555
Gd0 O27 2.340708 1_455
Gd0 O24 2.360910 1_555
Gd0 O23 2.364373 1_455
Gd0 O20 2.398422 1_555
Gd0 O13 2.449401 1_555
Gd0 O17 2.780824 1_455
Gd1 O4 2.305142 1_555
Gd1 O26 2.340708 1_555
Gd1 O25 2.360910 1_555
Gd1 O22 2.364373 1_555
Gd1 O21 2.398422 1_555
Gd1 O12 2.449401 1_555
Gd1 O16 2.780824 1_555
Gd2 O7 2.305142 1_555
Gd2 O25 2.340708 1_555
Gd2 O26 2.360910 1_565
Gd2 O21 2.364373 1_555
Gd2 O22 2.398422 1_565
Gd2 O15 2.449401 1_555
Gd2 O19 2.780824 1_565
Gd3 O6 2.305142 1_555
Gd3 O24 2.340708 1_655
Gd3 O27 2.360910 1_545
Gd3 O20 2.364373 1_655
Gd3 O23 2.398422 1_545
Gd3 O14 2.449401 1_555
Gd3 O18 2.780824 1_645
Gd4 O26 2.270259 1_556
Gd4 O24 2.294229 1_555
Gd4 O11 2.352685 1_556
Gd4 O5 2.353695 1_555
Gd4 O12 2.356746 1_556
Gd4 O18 2.413644 1_545
Gd4 O0 2.692775 1_555
Gd5 O27 2.270259 1_455
Gd5 O25 2.294229 1_555
Gd5 O10 2.352685 1_555
Gd5 O4 2.353695 1_555
Gd5 O13 2.356746 1_555
Gd5 O19 2.413644 1_565
Gd5 O1 2.692775 1_555
Gd6 O24 2.270259 1_654
Gd6 O26 2.294229 1_555
Gd6 O9 2.352685 1_554
Gd6 O7 2.353695 1_545
Gd6 O14 2.356746 1_554
Gd6 O16 2.413644 1_555
Gd6 O2 2.692775 1_555
Gd7 O25 2.270259 1_555
Gd7 O27 2.294229 1_555
Gd7 O8 2.352685 1_555
Gd7 O6 2.353695 1_565
Gd7 O15 2.356746 1_555
Gd7 O17 2.413644 1_555
Gd7 O3 2.692775 1_555
Gd8 O20 2.233850 1_555
Gd8 O22 2.260105 1_555
Gd8 O4 2.335365 1_555
Gd8 O19 2.399491 1_555
Gd8 O13 2.409454 1_555
Gd8 O10 2.411298 1_545
Gd8 O0 2.575047 1_555
Gd9 O21 2.233850 1_555
Gd9 O23 2.260105 1_454
Gd9 O5 2.335365 1_554
Gd9 O18 2.399491 1_554
Gd9 O12 2.409454 1_555
Gd9 O11 2.411298 1_565
Gd9 O1 2.575047 1_555
Gd10 O22 2.233850 1_555
Gd10 O20 2.260105 1_655
Gd10 O6 2.335365 1_555
Gd10 O17 2.399491 1_555
Gd10 O15 2.409454 1_545
Gd10 O8 2.411298 1_555
Gd10 O2 2.575047 1_555
Gd11 O23 2.233850 1_555
Gd11 O21 2.260105 1_556
Gd11 O7 2.335365 1_556
Gd11 O16 2.399491 1_556
Gd11 O14 2.409454 1_565
Gd11 O9 2.411298 1_555
Gd11 O3 2.575047 1_555
Mo0 O9 1.882643 1_555
Mo0 O17 1.931600 1_555
Mo0 O3 1.932090 1_555
Mo0 O0 1.941065 1_555
Mo0 O13 1.993807 1_555
Mo0 O5 2.078494 1_555
Mo1 O8 1.882643 1_555
Mo1 O16 1.931600 1_555
Mo1 O2 1.932090 1_555
Mo1 O1 1.941065 1_655
Mo1 O12 1.993807 1_655
Mo1 O4 2.078494 1_655
Mo2 O11 1.882643 1_555
Mo2 O19 1.931600 1_555
Mo2 O1 1.932090 1_545
Mo2 O2 1.941065 1_455
Mo2 O15 1.993807 1_445
Mo2 O7 2.078494 1_445
Mo3 O10 1.882643 1_555
Mo3 O18 1.931600 1_555
Mo3 O0 1.932090 1_565
Mo3 O3 1.941065 1_555
Mo3 O14 1.993807 1_565
Mo3 O6 2.078494 1_565
