# generated using pymatgen
data_Rb2UTe3
_symmetry_space_group_name_H-M   'P 1'
_cell_length_a   8.13955029
_cell_length_b   8.13955029
_cell_length_c   9.05411876
_cell_angle_alpha   81.24604749
_cell_angle_beta   81.24604749
_cell_angle_gamma   120.02843866
_symmetry_Int_Tables_number   1
_chemical_formula_structural   Rb2UTe3
_chemical_formula_sum   'Rb4 U2 Te6'
_cell_volume   494.67695223
_cell_formula_units_Z   2
loop_
 _symmetry_equiv_pos_site_id
 _symmetry_equiv_pos_as_xyz
  1  'x, y, z'
loop_
 _atom_site_type_symbol
 _atom_site_label
 _atom_site_symmetry_multiplicity
 _atom_site_fract_x
 _atom_site_fract_y
 _atom_site_fract_z
 _atom_site_occupancy
  Rb  Rb0  1  0.50000000  0.50000000  -0.00000000  1
  Rb  Rb1  1  0.65246998  0.34753002  0.50000000  1
  Rb  Rb2  1  0.34753002  0.65246998  0.50000000  1
  Rb  Rb3  1  -0.00000000  -0.00000000  0.50000000  1
  U  U0  1  0.83212392  0.16787608  -0.00000000  1
  U  U1  1  0.16787608  0.83212392  -0.00000000  1
  Te  Te0  1  0.80874805  0.80874805  0.20441062  1
  Te  Te1  1  0.19125195  0.19125195  0.79558938  1
  Te  Te2  1  0.42879868  0.04860050  0.20900718  1
  Te  Te3  1  0.57120132  0.95139950  0.79099282  1
  Te  Te4  1  0.95139950  0.57120132  0.79099282  1
  Te  Te5  1  0.04860050  0.42879868  0.20900718  1
loop_
_geom_bond_atom_site_label_1
_geom_bond_atom_site_label_2
_geom_bond_distance
_geom_bond_site_symmetry_2
Rb0 Te1 3.544971 1_554
Rb0 Te0 3.544971 1_555
Rb0 Te3 3.582631 1_554
Rb0 Te4 3.582631 1_554
Rb0 Te5 3.582631 1_555
Rb0 Te2 3.582631 1_555
Rb1 Te5 3.538991 1_655
Rb1 Te3 3.538991 1_545
Rb1 Te1 3.741674 1_555
Rb1 Te0 3.741674 1_555
Rb1 Te4 3.892819 1_555
Rb1 Te2 3.892819 1_555
Rb2 Te4 3.538991 1_455
Rb2 Te2 3.538991 1_565
Rb2 Te1 3.741674 1_555
Rb2 Te0 3.741674 1_555
Rb2 Te3 3.892819 1_555
Rb2 Te5 3.892819 1_555
Rb3 Te1 3.481391 1_555
Rb3 Te0 3.481391 1_445
Rb3 Te4 3.844688 1_445
Rb3 Te3 3.844688 1_445
Rb3 Te5 3.844688 1_555
Rb3 Te2 3.844688 1_555
Te0 U0 3.113790 1_565
Te0 U1 3.113790 1_655
Te1 U1 3.113790 1_546
Te1 U0 3.113790 1_456
Te2 U0 3.108193 1_555
Te2 U1 3.112744 1_545
Te3 U1 3.108193 1_556
Te3 U0 3.112744 1_566
Te4 U0 3.108193 1_556
Te4 U1 3.112744 1_656
Te5 U1 3.108193 1_555
Te5 U0 3.112744 1_455
