# generated using pymatgen
data_Li6MnV3(PO4)6
_symmetry_space_group_name_H-M   'P 1'
_cell_length_a   8.78851800
_cell_length_b   8.80378643
_cell_length_c   14.53531596
_cell_angle_alpha   73.13402221
_cell_angle_beta   74.16743924
_cell_angle_gamma   60.72396464
_symmetry_Int_Tables_number   1
_chemical_formula_structural   Li6MnV3(PO4)6
_chemical_formula_sum   'Li12 Mn2 V6 P12 O48'
_cell_volume   927.16657361
_cell_formula_units_Z   2
loop_
 _symmetry_equiv_pos_site_id
 _symmetry_equiv_pos_as_xyz
  1  'x, y, z'
loop_
 _atom_site_type_symbol
 _atom_site_label
 _atom_site_symmetry_multiplicity
 _atom_site_fract_x
 _atom_site_fract_y
 _atom_site_fract_z
 _atom_site_occupancy
  Li  Li0  1  0.14499000  0.01355700  0.11268900  1
  Li  Li1  1  0.50000000  0.00000000  0.00000000  1
  Li  Li2  1  0.23394100  0.10450400  0.63733500  1
  Li  Li3  1  0.75170500  0.24862400  0.25128700  1
  Li  Li4  1  0.35590500  0.48631700  0.38842000  1
  Li  Li5  1  0.26369800  0.39511500  0.86284500  1
  Li  Li6  1  0.73630200  0.60488500  0.13715500  1
  Li  Li7  1  0.64409500  0.51368300  0.61158000  1
  Li  Li8  1  0.24829500  0.75137600  0.74871300  1
  Li  Li9  1  0.00000000  0.50000000  0.50000000  1
  Li  Li10  1  0.76605900  0.89549600  0.36266500  1
  Li  Li11  1  0.85501000  0.98644300  0.88731100  1
  Mn  Mn0  1  0.67935200  0.17283600  0.46538400  1
  Mn  Mn1  1  0.32064800  0.82716400  0.53461600  1
  V  V0  1  0.57573100  0.06956500  0.78661200  1
  V  V1  1  0.07807500  0.56734100  0.28699100  1
  V  V2  1  0.81766200  0.32690600  0.03715600  1
  V  V3  1  0.18233800  0.67309400  0.96284400  1
  V  V4  1  0.92192500  0.43265900  0.71300900  1
  V  V5  1  0.42426900  0.93043500  0.21338800  1
  P  P0  1  0.13104000  0.33207700  0.11918200  1
  P  P1  1  0.36934300  0.16647900  0.38226000  1
  P  P2  1  0.17370500  0.07642700  0.87551200  1
  P  P3  1  0.91544200  0.12046600  0.63187200  1
  P  P4  1  0.32248000  0.42875600  0.62409700  1
  P  P5  1  0.41838800  0.61872400  0.13170800  1
  P  P6  1  0.58161200  0.38127600  0.86829200  1
  P  P7  1  0.67752000  0.57124400  0.37590300  1
  P  P8  1  0.08455800  0.87953400  0.36812800  1
  P  P9  1  0.82629500  0.92357300  0.12448800  1
  P  P10  1  0.63065700  0.83352100  0.61774000  1
  P  P11  1  0.86896000  0.66792300  0.88081800  1
  O  O0  1  0.28143000  0.14090200  0.11478800  1
  O  O1  1  0.38745600  0.08905900  0.29720700  1
  O  O2  1  0.33142500  0.05512100  0.48132700  1
  O  O3  1  0.16602400  0.44413600  0.01984100  1
  O  O4  1  0.11607700  0.40999900  0.20336300  1
  O  O5  1  0.81013800  0.10673000  0.12780200  1
  O  O6  1  0.10152500  0.19799900  0.78128700  1
  O  O7  1  0.54958200  0.17697100  0.36810600  1
  O  O8  1  0.05426200  0.14695700  0.96851900  1
  O  O9  1  0.89596200  0.02870500  0.35896300  1
  O  O10  1  0.22082600  0.35717700  0.38645100  1
  O  O11  1  0.35767600  0.05984900  0.87849900  1
  O  O12  1  0.13853400  0.44397500  0.62244000  1
  O  O13  1  0.83917100  0.13426300  0.54544300  1
  O  O14  1  0.34044700  0.63405700  0.04620300  1
  O  O15  1  0.43852200  0.36089600  0.53063000  1
  O  O16  1  0.79944100  0.08856200  0.72958700  1
  O  O17  1  0.60931900  0.46793900  0.13713600  1
  O  O18  1  0.39597100  0.30531900  0.71820400  1
  O  O19  1  0.30621700  0.58387200  0.22987000  1
  O  O20  1  0.95268900  0.32002000  0.13485900  1
  O  O21  1  0.57159100  0.20141900  0.88513700  1
  O  O22  1  0.68875300  0.38989500  0.37157500  1
  O  O23  1  0.07606400  0.69846200  0.38532400  1
  O  O24  1  0.92393600  0.30153800  0.61467600  1
  O  O25  1  0.31124700  0.61010500  0.62842500  1
  O  O26  1  0.42840900  0.79858100  0.11486300  1
  O  O27  1  0.04731100  0.67998000  0.86514100  1
  O  O28  1  0.69378300  0.41612800  0.77013000  1
  O  O29  1  0.60402900  0.69468100  0.28179600  1
  O  O30  1  0.39068100  0.53206100  0.86286400  1
  O  O31  1  0.20055900  0.91143800  0.27041300  1
  O  O32  1  0.56147800  0.63910400  0.46937000  1
  O  O33  1  0.65955300  0.36594300  0.95379700  1
  O  O34  1  0.16082900  0.86573700  0.45455700  1
  O  O35  1  0.86146600  0.55602500  0.37756000  1
  O  O36  1  0.64232400  0.94015100  0.12150100  1
  O  O37  1  0.77917400  0.64282300  0.61354900  1
  O  O38  1  0.10403800  0.97129500  0.64103700  1
  O  O39  1  0.94573800  0.85304300  0.03148100  1
  O  O40  1  0.45041800  0.82302900  0.63189400  1
  O  O41  1  0.89847500  0.80200100  0.21871300  1
  O  O42  1  0.18986200  0.89327000  0.87219800  1
  O  O43  1  0.88392300  0.59000100  0.79663700  1
  O  O44  1  0.83397600  0.55586400  0.98015900  1
  O  O45  1  0.66857500  0.94487900  0.51867300  1
  O  O46  1  0.61254400  0.91094100  0.70279300  1
  O  O47  1  0.71857000  0.85909800  0.88521200  1
loop_
_geom_bond_atom_site_label_1
_geom_bond_atom_site_label_2
_geom_bond_distance
_geom_bond_site_symmetry_2
Li0 O0 2.012539 1_555
Li0 O8 2.230293 1_554
Li0 O26 2.277021 1_545
Li0 O31 2.299599 1_545
Li0 O20 2.446870 1_455
Li0 O5 2.602379 1_455
Li1 O11 2.232026 1_554
Li1 O36 2.232026 1_545
Li1 O21 2.264470 1_554
Li1 O26 2.264470 1_545
Li1 O0 2.265866 1_555
Li1 O47 2.265866 1_544
Li2 O38 1.980132 1_545
Li2 O6 2.267984 1_555
Li2 O40 2.277538 1_545
Li2 O2 2.283164 1_555
Li2 O24 2.464993 1_455
Li2 O12 2.637149 1_555
Li3 O9 2.174650 1_555
Li3 O17 2.226618 1_555
Li3 O22 2.229559 1_555
Li3 O20 2.283978 1_555
Li3 O5 2.283980 1_555
Li3 O7 2.294595 1_555
Li4 O10 2.014990 1_555
Li4 O15 2.174764 1_555
Li4 O23 2.249000 1_555
Li4 O19 2.296342 1_555
Li4 O7 2.461711 1_555
Li4 O22 2.576574 1_555
Li5 O30 2.003824 1_555
Li5 O18 2.264611 1_555
Li5 O27 2.292718 1_555
Li5 O3 2.295834 1_556
Li5 O21 2.445356 1_555
Li5 O11 2.602787 1_555
Li6 O17 2.003824 1_555
Li6 O29 2.264611 1_555
Li6 O20 2.292718 1_555
Li6 O44 2.295834 1_554
Li6 O26 2.445356 1_555
Li6 O36 2.602787 1_555
Li7 O37 2.014990 1_555
Li7 O32 2.174764 1_555
Li7 O24 2.249000 1_555
Li7 O28 2.296342 1_555
Li7 O40 2.461711 1_555
Li7 O25 2.576574 1_555
Li8 O38 2.174650 1_555
Li8 O30 2.226618 1_555
Li8 O25 2.229559 1_555
Li8 O27 2.283978 1_555
Li8 O42 2.283980 1_555
Li8 O40 2.294595 1_555
Li9 O12 2.231275 1_555
Li9 O35 2.231275 1_455
Li9 O23 2.263279 1_555
Li9 O24 2.263279 1_455
Li9 O10 2.267440 1_555
Li9 O37 2.267440 1_455
Li10 O9 1.980132 1_565
Li10 O41 2.267984 1_555
Li10 O7 2.277538 1_565
Li10 O45 2.283164 1_555
Li10 O23 2.464993 1_655
Li10 O35 2.637149 1_555
Li11 O47 2.012539 1_555
Li11 O39 2.230293 1_556
Li11 O21 2.277021 1_565
Li11 O16 2.299599 1_565
Li11 O27 2.446870 1_655
Li11 O42 2.602379 1_655
Mn0 O13 1.907447 1_555
Mn0 O45 1.969868 1_545
Mn0 O22 2.024535 1_555
Mn0 O7 2.027508 1_555
Mn0 O15 2.123411 1_555
Mn0 O9 2.190096 1_555
Mn1 O34 1.907447 1_555
Mn1 O2 1.969868 1_565
Mn1 O25 2.024535 1_555
Mn1 O40 2.027508 1_555
Mn1 O32 2.123411 1_555
Mn1 O38 2.190096 1_555
O0 P0 1.557032 1_555
O0 V5 2.056451 1_545
O1 P1 1.514505 1_555
O1 V5 1.967105 1_545
O2 P1 1.544090 1_555
O3 P0 1.542921 1_555
O3 V3 2.004689 1_554
O4 P0 1.515301 1_555
O4 V1 1.952174 1_555
O5 P9 1.562038 1_545
O5 V2 2.023247 1_555
O6 P2 1.543746 1_555
O6 V4 2.054287 1_455
O7 P1 1.585646 1_555
O8 P2 1.546071 1_555
O8 V2 2.095758 1_456
O9 P8 1.542634 1_645
O10 P1 1.548781 1_555
O10 V1 2.062664 1_555
O11 P2 1.562424 1_555
O11 V0 2.039874 1_555
O12 P4 1.561889 1_555
O12 V4 2.027032 1_455
O13 P3 1.527614 1_555
O14 P5 1.519484 1_555
O14 V3 1.930552 1_554
O15 P4 1.536804 1_555
O16 P3 1.547256 1_555
O16 V0 1.983031 1_555
O17 P5 1.554668 1_555
O17 V2 2.092311 1_555
O18 P4 1.549913 1_555
O18 V0 2.060346 1_555
O19 P5 1.541452 1_555
O19 V1 2.009376 1_555
O20 P0 1.572851 1_655
O20 V2 2.056202 1_555
O21 P6 1.573082 1_555
O21 V0 2.072341 1_555
O22 P7 1.569535 1_555
O23 P8 1.576154 1_555
O23 V1 2.073506 1_555
O24 P3 1.576154 1_555
O24 V4 2.073506 1_555
O25 P4 1.569535 1_555
O26 P5 1.573082 1_555
O26 V5 2.072341 1_555
O27 P11 1.572851 1_455
O27 V3 2.056202 1_555
O28 P6 1.541452 1_555
O28 V4 2.009376 1_555
O29 P7 1.549913 1_555
O29 V5 2.060346 1_555
O30 P6 1.554668 1_555
O30 V3 2.092311 1_555
O31 P8 1.547256 1_555
O31 V5 1.983031 1_555
O32 P7 1.536804 1_555
O33 P6 1.519484 1_555
O33 V2 1.930552 1_556
O34 P8 1.527614 1_555
O35 P7 1.561889 1_555
O35 V1 2.027032 1_655
O36 P9 1.562424 1_555
O36 V5 2.039874 1_555
O37 P10 1.548781 1_555
O37 V4 2.062664 1_555
O38 P3 1.542634 1_465
O39 P9 1.546071 1_555
O39 V3 2.095758 1_654
O40 P10 1.585646 1_555
O41 P9 1.543746 1_555
O41 V1 2.054287 1_655
O42 P2 1.562038 1_565
O42 V3 2.023247 1_555
O43 P11 1.515301 1_555
O43 V4 1.952174 1_555
O44 P11 1.542921 1_555
O44 V2 2.004689 1_556
O45 P10 1.544090 1_555
O46 P10 1.514505 1_555
O46 V0 1.967105 1_565
O47 P11 1.557032 1_555
O47 V0 2.056451 1_565
