# generated using pymatgen
data_MgTiH6(OF3)2
_symmetry_space_group_name_H-M   'P 1'
_cell_length_a   6.18903500
_cell_length_b   5.82982737
_cell_length_c   5.82982651
_cell_angle_alpha   120.00001066
_cell_angle_beta   90.00000000
_cell_angle_gamma   90.00000000
_symmetry_Int_Tables_number   1
_chemical_formula_structural   MgTiH6(OF3)2
_chemical_formula_sum   'Mg1 Ti1 H6 O2 F6'
_cell_volume   182.16496271
_cell_formula_units_Z   1
loop_
 _symmetry_equiv_pos_site_id
 _symmetry_equiv_pos_as_xyz
  1  'x, y, z'
loop_
 _atom_site_type_symbol
 _atom_site_label
 _atom_site_symmetry_multiplicity
 _atom_site_fract_x
 _atom_site_fract_y
 _atom_site_fract_z
 _atom_site_occupancy
  Mg  Mg0  1  0.33891700  0.66666700  0.33333300  1
  Ti  Ti0  1  0.99059400  0.00000000  0.00000000  1
  H  H0  1  0.72592700  0.84144800  0.31633000  1
  H  H1  1  0.72592700  0.47488300  0.15855200  1
  H  H2  1  0.26472900  0.50993100  0.68291700  1
  H  H3  1  0.72592700  0.68367000  0.52511700  1
  H  H4  1  0.26472900  0.31708300  0.82701300  1
  H  H5  1  0.26472900  0.17298700  0.49006900  1
  O  O0  1  0.65995400  0.66666700  0.33333300  1
  O  O1  1  0.31103300  0.33333300  0.66666700  1
  F  F0  1  0.78794800  0.70157100  0.73350000  1
  F  F1  1  0.78794800  0.03192900  0.29842900  1
  F  F2  1  0.22886800  0.91671600  0.24236300  1
  F  F3  1  0.78794800  0.26650000  0.96807100  1
  F  F4  1  0.22886800  0.75763700  0.67435300  1
  F  F5  1  0.22886800  0.32564700  0.08328400  1
loop_
_geom_bond_atom_site_label_1
_geom_bond_atom_site_label_2
_geom_bond_distance
_geom_bond_site_symmetry_2
Mg0 O0 1.986909 1_555
H0 O0 1.147079 1_555
H1 O0 1.147078 1_555
H2 O1 1.026408 1_555
H3 O0 1.147078 1_555
H4 O1 1.026396 1_555
H5 O1 1.026403 1_555
F0 H3 1.227713 1_555
F0 Ti0 2.076209 1_566
F1 H0 1.227708 1_545
F1 Ti0 2.076209 1_555
F2 H5 1.486349 1_565
F2 Mg0 1.908734 1_555
F2 Ti0 2.256734 1_465
F3 H1 1.227711 1_556
F3 Ti0 2.076210 1_556
F4 H2 1.486347 1_555
F4 Mg0 1.908739 1_555
F4 Ti0 2.256733 1_466
F5 H4 1.486352 1_554
F5 Mg0 1.908737 1_555
F5 Ti0 2.256734 1_455
