# generated using pymatgen
data_SrMg
_symmetry_space_group_name_H-M   'P 1'
_cell_length_a   9.34037985
_cell_length_b   9.34037985
_cell_length_c   5.95492400
_cell_angle_alpha   90.00000000
_cell_angle_beta   90.00000000
_cell_angle_gamma   154.51953256
_symmetry_Int_Tables_number   1
_chemical_formula_structural   SrMg
_chemical_formula_sum   'Sr3 Mg3'
_cell_volume   223.50081527
_cell_formula_units_Z   3
loop_
 _symmetry_equiv_pos_site_id
 _symmetry_equiv_pos_as_xyz
  1  'x, y, z'
loop_
 _atom_site_type_symbol
 _atom_site_label
 _atom_site_symmetry_multiplicity
 _atom_site_fract_x
 _atom_site_fract_y
 _atom_site_fract_z
 _atom_site_occupancy
  Sr  Sr0  1  0.97071300  0.02928700  0.00000000  1
  Sr  Sr1  1  0.65786300  0.34213700  0.00000000  1
  Sr  Sr2  1  0.80417000  0.19583000  0.50000000  1
  Mg  Mg0  1  0.31877900  0.68122100  0.00000000  1
  Mg  Mg1  1  0.10863300  0.89136700  0.50000000  1
  Mg  Mg2  1  0.47317600  0.52682400  0.50000000  1
loop_
_geom_bond_atom_site_label_1
_geom_bond_atom_site_label_2
_geom_bond_distance
_geom_bond_site_symmetry_2
Mg0 Sr0 3.450624 1_565
Mg0 Sr0 3.450624 1_455
Mg0 Sr1 3.583257 1_565
Mg0 Sr1 3.583257 1_455
Mg0 Sr2 3.630303 1_565
Mg0 Sr2 3.630303 1_564
Mg0 Sr2 3.630303 1_455
Mg0 Sr2 3.630303 1_454
Mg1 Mg2 3.214759 1_455
Mg1 Mg2 3.214759 1_565
Mg1 Sr1 3.729996 1_565
Mg1 Sr1 3.729996 1_566
Mg1 Sr1 3.729996 1_456
Mg1 Sr1 3.729996 1_455
Mg1 Sr0 3.896221 1_465
Mg1 Sr0 3.896221 1_466
Mg1 Sr2 4.115440 1_455
Mg1 Sr2 4.115440 1_565
Mg2 Sr0 3.620809 1_565
Mg2 Sr0 3.620809 1_566
Mg2 Sr0 3.620809 1_455
Mg2 Sr0 3.620809 1_456
Mg2 Sr2 3.704842 1_565
Mg2 Sr2 3.704842 1_455
