# generated using pymatgen
data_Eu2ZnP3Pt7
_symmetry_space_group_name_H-M   'P 1'
_cell_length_a   13.89276829
_cell_length_b   13.89276829
_cell_length_c   13.89276829
_cell_angle_alpha   162.96080900
_cell_angle_beta   162.96080900
_cell_angle_gamma   24.18756052
_symmetry_Int_Tables_number   1
_chemical_formula_structural   Eu2ZnP3Pt7
_chemical_formula_sum   'Eu2 Zn1 P3 Pt7'
_cell_volume   230.18054018
_cell_formula_units_Z   1
loop_
 _symmetry_equiv_pos_site_id
 _symmetry_equiv_pos_as_xyz
  1  'x, y, z'
loop_
 _atom_site_type_symbol
 _atom_site_label
 _atom_site_symmetry_multiplicity
 _atom_site_fract_x
 _atom_site_fract_y
 _atom_site_fract_z
 _atom_site_occupancy
  Eu  Eu0  1  0.66455300  0.66455300  0.00000000  1
  Eu  Eu1  1  0.33544700  0.33544700  0.00000000  1
  Zn  Zn0  1  0.50000000  0.50000000  0.00000000  1
  P  P0  1  0.88066000  0.88066000  0.00000000  1
  P  P1  1  0.11934000  0.11934000  0.00000000  1
  P  P2  1  0.25000000  0.75000000  0.50000000  1
  Pt  Pt0  1  0.42894700  0.92894700  0.50000000  1
  Pt  Pt1  1  0.92838100  0.42838100  0.50000000  1
  Pt  Pt2  1  0.57161900  0.07161900  0.50000000  1
  Pt  Pt3  1  0.07105400  0.57105300  0.50000000  1
  Pt  Pt4  1  0.79300300  0.79300300  0.00000000  1
  Pt  Pt5  1  0.20699700  0.20699700  0.00000000  1
  Pt  Pt6  1  0.00000000  0.00000000  0.00000000  1
loop_
_geom_bond_atom_site_label_1
_geom_bond_atom_site_label_2
_geom_bond_distance
_geom_bond_site_symmetry_2
Eu0 P2 3.102493 1_655
Eu0 P2 3.102493 1_554
Eu0 Pt5 3.130812 1_655
Eu0 Pt5 3.130812 1_565
Eu0 Pt5 3.130812 1_666
Eu0 Pt5 3.130812 1_554
Eu0 P1 3.159296 1_554
Eu0 P1 3.159296 1_666
Eu0 P1 3.159296 1_565
Eu0 P1 3.159296 1_655
Eu0 Pt2 3.257497 1_565
Eu0 Pt2 3.257497 1_554
Eu0 Pt3 3.269419 1_554
Eu0 Pt3 3.269421 1_655
Eu0 Pt4 3.489841 1_555
Eu1 P2 3.102493 1_555
Eu1 P2 3.102493 1_544
Eu1 Pt4 3.130812 1_444
Eu1 Pt4 3.130812 1_545
Eu1 Pt4 3.130812 1_455
Eu1 Pt4 3.130812 1_556
Eu1 P0 3.159296 1_556
Eu1 P0 3.159296 1_444
Eu1 P0 3.159296 1_545
Eu1 P0 3.159296 1_455
Eu1 Pt1 3.257497 1_555
Eu1 Pt1 3.257497 1_454
Eu1 Pt0 3.269431 1_555
Eu1 Pt0 3.269431 1_544
Eu1 Pt5 3.489841 1_555
P0 Pt4 2.381541 1_555
P0 Pt1 2.432506 1_565
P0 Pt1 2.432506 1_554
P0 Pt0 2.440737 1_554
P0 Pt0 2.440737 1_655
P1 Pt5 2.381541 1_555
P1 Pt2 2.432506 1_454
P1 Pt2 2.432506 1_555
P1 Pt3 2.440728 1_555
P1 Pt3 2.440732 1_544
P2 Pt4 2.366671 1_455
P2 Pt4 2.366671 1_556
P2 Pt5 2.366671 1_566
P2 Pt5 2.366671 1_555
Pt0 Zn0 2.821820 1_555
Pt0 Pt6 2.821820 1_565
Pt0 Pt6 2.821820 1_666
Pt0 Zn0 2.821820 1_566
Pt0 Pt1 2.910748 1_555
Pt0 Pt1 2.910748 1_465
Pt0 Pt1 2.910748 1_566
Pt0 Pt1 2.910748 1_454
Pt1 Zn0 2.832362 1_656
Pt1 Zn0 2.832362 1_555
Pt1 Pt6 2.832362 1_655
Pt1 Pt6 2.832362 1_666
Pt2 Pt6 2.832362 1_555
Pt2 Pt6 2.832362 1_656
Pt2 Zn0 2.832362 1_545
Pt2 Zn0 2.832362 1_556
Pt2 Pt3 2.910745 1_555
Pt2 Pt3 2.910748 1_544
Pt2 Pt3 2.910748 1_656
Pt2 Pt3 2.910751 1_645
Pt3 Zn0 2.821827 1_556
Pt3 Pt6 2.821827 1_555
Pt3 Zn0 2.821830 1_455
Pt3 Pt6 2.821830 1_566
Pt6 Zn0 2.910707 1_444
Pt6 Zn0 2.910707 1_455
Pt6 Zn0 2.910707 1_545
Pt6 Zn0 2.910707 1_556
