# generated using pymatgen
data_Dy2Re3Si5
_symmetry_space_group_name_H-M   'P 1'
_cell_length_a   10.94405662
_cell_length_b   10.94405662
_cell_length_c   5.50780441
_cell_angle_alpha   90.00000000
_cell_angle_beta   90.00000000
_cell_angle_gamma   90.00000000
_symmetry_Int_Tables_number   1
_chemical_formula_structural   Dy2Re3Si5
_chemical_formula_sum   'Dy8 Re12 Si20'
_cell_volume   659.68281688
_cell_formula_units_Z   4
loop_
 _symmetry_equiv_pos_site_id
 _symmetry_equiv_pos_as_xyz
  1  'x, y, z'
loop_
 _atom_site_type_symbol
 _atom_site_label
 _atom_site_symmetry_multiplicity
 _atom_site_fract_x
 _atom_site_fract_y
 _atom_site_fract_z
 _atom_site_occupancy
  Dy  Dy0  1  0.57805526  0.73758734  0.50000000  1
  Dy  Dy1  1  0.42194474  0.26241266  0.50000000  1
  Dy  Dy2  1  0.07805526  0.76241266  0.00000000  1
  Dy  Dy3  1  0.92194474  0.23758734  0.00000000  1
  Dy  Dy4  1  0.26241266  0.57805526  0.50000000  1
  Dy  Dy5  1  0.73758734  0.42194474  0.50000000  1
  Dy  Dy6  1  0.23758734  0.07805526  0.00000000  1
  Dy  Dy7  1  0.76241266  0.92194474  0.00000000  1
  Re  Re0  1  0.87537552  0.85237563  0.50000000  1
  Re  Re1  1  0.12462448  0.14762437  0.50000000  1
  Re  Re2  1  0.37537552  0.64762437  0.00000000  1
  Re  Re3  1  0.62462448  0.35237563  0.00000000  1
  Re  Re4  1  0.14762437  0.87537552  0.50000000  1
  Re  Re5  1  0.85237563  0.12462448  0.50000000  1
  Re  Re6  1  0.35237563  0.37537552  0.00000000  1
  Re  Re7  1  0.64762437  0.62462448  0.00000000  1
  Re  Re8  1  0.50000000  0.00000000  0.25000000  1
  Re  Re9  1  0.00000000  0.50000000  0.75000000  1
  Re  Re10  1  0.00000000  0.50000000  0.25000000  1
  Re  Re11  1  0.50000000  0.00000000  0.75000000  1
  Si  Si0  1  0.67209163  0.17209163  0.25000000  1
  Si  Si1  1  0.32790837  0.82790837  0.25000000  1
  Si  Si2  1  0.17209163  0.32790837  0.75000000  1
  Si  Si3  1  0.82790837  0.67209163  0.75000000  1
  Si  Si4  1  0.82790837  0.67209163  0.25000000  1
  Si  Si5  1  0.17209163  0.32790837  0.25000000  1
  Si  Si6  1  0.67209163  0.17209163  0.75000000  1
  Si  Si7  1  0.32790837  0.82790837  0.75000000  1
  Si  Si8  1  0.50000000  0.50000000  0.25273871  1
  Si  Si9  1  0.00000000  0.00000000  0.75273871  1
  Si  Si10  1  0.50000000  0.50000000  0.74726129  1
  Si  Si11  1  0.00000000  0.00000000  0.24726129  1
  Si  Si12  1  0.68585767  0.97355945  0.50000000  1
  Si  Si13  1  0.31414233  0.02644055  0.50000000  1
  Si  Si14  1  0.18585767  0.52644055  0.00000000  1
  Si  Si15  1  0.81414233  0.47355945  0.00000000  1
  Si  Si16  1  0.02644055  0.68585767  0.50000000  1
  Si  Si17  1  0.97355945  0.31414233  0.50000000  1
  Si  Si18  1  0.47355945  0.18585767  0.00000000  1
  Si  Si19  1  0.52644055  0.81414233  0.00000000  1
loop_
_geom_bond_atom_site_label_1
_geom_bond_atom_site_label_2
_geom_bond_distance
_geom_bond_site_symmetry_2
Dy0 Si12 2.839222 1_555
Dy0 Si19 2.933429 1_555
Dy0 Si19 2.933429 1_556
Dy0 Si10 3.057007 1_555
Dy0 Si8 3.057007 1_555
Dy0 Re7 3.113202 1_556
Dy0 Re7 3.113202 1_555
Dy0 Si4 3.144322 1_555
Dy0 Si3 3.144322 1_555
Dy0 Si7 3.219885 1_555
Dy0 Si1 3.219885 1_555
Dy0 Re8 3.297468 1_565
Dy0 Re11 3.297468 1_565
Dy1 Si13 2.839222 1_555
Dy1 Si18 2.933429 1_555
Dy1 Si18 2.933429 1_556
Dy1 Si10 3.057007 1_555
Dy1 Si8 3.057007 1_555
Dy1 Re6 3.113202 1_556
Dy1 Re6 3.113202 1_555
Dy1 Si5 3.144322 1_555
Dy1 Si2 3.144322 1_555
Dy1 Si0 3.219885 1_555
Dy1 Si6 3.219885 1_555
Dy1 Re8 3.297468 1_555
Dy1 Re11 3.297468 1_555
Dy2 Si14 2.839222 1_555
Dy2 Si16 2.933429 1_555
Dy2 Si16 2.933429 1_554
Dy2 Si9 3.057007 1_564
Dy2 Si11 3.057007 1_565
Dy2 Re4 3.113202 1_555
Dy2 Re4 3.113202 1_554
Dy2 Si1 3.144322 1_555
Dy2 Si7 3.144322 1_554
Dy2 Si3 3.219885 1_454
Dy2 Si4 3.219885 1_455
Dy2 Re9 3.297468 1_554
Dy2 Re10 3.297468 1_555
Dy3 Si15 2.839222 1_555
Dy3 Si17 2.933429 1_554
Dy3 Si17 2.933429 1_555
Dy3 Si9 3.057007 1_654
Dy3 Si11 3.057007 1_655
Dy3 Re5 3.113202 1_554
Dy3 Re5 3.113202 1_555
Dy3 Si6 3.144322 1_554
Dy3 Si0 3.144322 1_555
Dy3 Si2 3.219885 1_654
Dy3 Si5 3.219885 1_655
Dy3 Re9 3.297468 1_654
Dy3 Re10 3.297468 1_655
Dy4 Si16 2.839222 1_555
Dy4 Si14 2.933429 1_556
Dy4 Si14 2.933429 1_555
Dy4 Si10 3.057007 1_555
Dy4 Si8 3.057007 1_555
Dy4 Re2 3.113202 1_556
Dy4 Re2 3.113202 1_555
Dy4 Si1 3.144322 1_555
Dy4 Si7 3.144322 1_555
Dy4 Si5 3.219885 1_555
Dy4 Si2 3.219885 1_555
Dy4 Re9 3.297468 1_555
Dy4 Re10 3.297468 1_555
Dy5 Si17 2.839222 1_555
Dy5 Si15 2.933429 1_556
Dy5 Si15 2.933429 1_555
Dy5 Si10 3.057007 1_555
Dy5 Si8 3.057007 1_555
Dy5 Re3 3.113202 1_556
Dy5 Re3 3.113202 1_555
Dy5 Si6 3.144322 1_555
Dy5 Si0 3.144322 1_555
Dy5 Si3 3.219885 1_555
Dy5 Si4 3.219885 1_555
Dy5 Re9 3.297468 1_655
Dy5 Re10 3.297468 1_655
Dy6 Si18 2.839222 1_555
Dy6 Si13 2.933429 1_554
Dy6 Si13 2.933429 1_555
Dy6 Si11 3.057007 1_555
Dy6 Si9 3.057007 1_554
Dy6 Re1 3.113202 1_554
Dy6 Re1 3.113202 1_555
Dy6 Si2 3.144322 1_554
Dy6 Si5 3.144322 1_555
Dy6 Si7 3.219885 1_544
Dy6 Si1 3.219885 1_545
Dy6 Re11 3.297468 1_554
Dy6 Re8 3.297468 1_555
Dy7 Si19 2.839222 1_555
Dy7 Si12 2.933429 1_555
Dy7 Si12 2.933429 1_554
Dy7 Si9 3.057007 1_664
Dy7 Si11 3.057007 1_665
Dy7 Re0 3.113202 1_554
Dy7 Re0 3.113202 1_555
Dy7 Si4 3.144322 1_555
Dy7 Si3 3.144322 1_554
Dy7 Si0 3.219885 1_565
Dy7 Si6 3.219885 1_564
Dy7 Re8 3.297468 1_565
Dy7 Re11 3.297468 1_564
Re0 Si16 2.460561 1_655
Re0 Si3 2.461450 1_555
Re0 Si4 2.461450 1_555
Re0 Si12 2.461866 1_555
Re0 Si9 2.531437 1_665
Re0 Si11 2.531437 1_665
Re1 Si17 2.460561 1_455
Re1 Si5 2.461450 1_555
Re1 Si2 2.461450 1_555
Re1 Si13 2.461866 1_555
Re1 Si11 2.531437 1_555
Re1 Si9 2.531437 1_555
Re2 Si19 2.460561 1_555
Re2 Si1 2.461450 1_555
Re2 Si7 2.461450 1_554
Re2 Si14 2.461866 1_555
Re2 Si8 2.531437 1_555
Re2 Si10 2.531437 1_554
Re3 Si18 2.460561 1_555
Re3 Si0 2.461450 1_555
Re3 Si6 2.461450 1_554
Re3 Si15 2.461866 1_555
Re3 Si10 2.531437 1_554
Re3 Si8 2.531437 1_555
Re4 Si13 2.460561 1_565
Re4 Si7 2.461450 1_555
Re4 Si1 2.461450 1_555
Re4 Si16 2.461866 1_555
Re4 Si9 2.531437 1_565
Re4 Si11 2.531437 1_565
Re5 Si12 2.460561 1_545
Re5 Si0 2.461450 1_555
Re5 Si6 2.461450 1_555
Re5 Si17 2.461866 1_555
Re5 Si9 2.531437 1_655
Re5 Si11 2.531437 1_655
Re6 Si14 2.460561 1_555
Re6 Si2 2.461450 1_554
Re6 Si5 2.461450 1_555
Re6 Si18 2.461866 1_555
Re6 Si8 2.531437 1_555
Re6 Si10 2.531437 1_554
Re7 Si15 2.460561 1_555
Re7 Si4 2.461450 1_555
Re7 Si3 2.461450 1_554
Re7 Si19 2.461866 1_555
Re7 Si8 2.531437 1_555
Re7 Si10 2.531437 1_554
Re8 Si12 2.473264 1_545
Re8 Si13 2.473264 1_555
Re8 Si19 2.473264 1_545
Re8 Si18 2.473264 1_555
Re8 Si0 2.663502 1_555
Re8 Si1 2.663502 1_545
Re9 Si15 2.473264 1_456
Re9 Si17 2.473264 1_455
Re9 Si16 2.473264 1_555
Re9 Si14 2.473264 1_556
Re9 Si2 2.663502 1_555
Re9 Si3 2.663502 1_455
Re10 Si15 2.473264 1_455
Re10 Si17 2.473264 1_455
Re10 Si16 2.473264 1_555
Re10 Si14 2.473264 1_555
Re10 Si5 2.663502 1_555
Re10 Si4 2.663502 1_455
Re10 Re9 2.753902 1_555
Re10 Re9 2.753902 1_554
Re11 Si19 2.473264 1_546
Re11 Si12 2.473264 1_545
Re11 Si13 2.473264 1_555
Re11 Si18 2.473264 1_556
Re11 Si6 2.663502 1_555
Re11 Si7 2.663502 1_545
Re11 Re8 2.753902 1_556
Re11 Re8 2.753902 1_555
Si0 Si12 2.576727 1_545
Si0 Si18 2.576727 1_555
Si0 Si6 2.753902 1_554
Si0 Si6 2.753902 1_555
Si1 Si19 2.576727 1_555
Si1 Si13 2.576727 1_565
Si1 Si7 2.753902 1_554
Si1 Si7 2.753902 1_555
Si2 Si5 2.753902 1_555
Si2 Si5 2.753902 1_556
Si3 Si4 2.753902 1_555
Si3 Si4 2.753902 1_556
Si10 Si8 2.723734 1_555
Si10 Si8 2.784071 1_556
Si11 Si9 2.723734 1_554
Si11 Si9 2.784071 1_555
Si12 Si6 2.576727 1_565
Si13 Si7 2.576727 1_545
Si14 Si2 2.576727 1_554
Si14 Si5 2.576727 1_555
Si15 Si3 2.576727 1_554
Si15 Si4 2.576727 1_555
Si16 Si3 2.576727 1_455
Si16 Si4 2.576727 1_455
Si17 Si2 2.576727 1_655
Si17 Si5 2.576727 1_655
Si18 Si6 2.576727 1_554
Si19 Si7 2.576727 1_554
