# generated using pymatgen
data_Ho2Co17
_symmetry_space_group_name_H-M   'P 1'
_cell_length_a   6.25865705
_cell_length_b   6.25865705
_cell_length_c   6.25865635
_cell_angle_alpha   82.74570499
_cell_angle_beta   82.74570499
_cell_angle_gamma   82.74569766
_symmetry_Int_Tables_number   1
_chemical_formula_structural   Ho2Co17
_chemical_formula_sum   'Ho2 Co17'
_cell_volume   239.72645222
_cell_formula_units_Z   1
loop_
 _symmetry_equiv_pos_site_id
 _symmetry_equiv_pos_as_xyz
  1  'x, y, z'
loop_
 _atom_site_type_symbol
 _atom_site_label
 _atom_site_symmetry_multiplicity
 _atom_site_fract_x
 _atom_site_fract_y
 _atom_site_fract_z
 _atom_site_occupancy
  Ho  Ho0  1  0.65618300  0.65618300  0.65618300  1
  Ho  Ho1  1  0.34381700  0.34381700  0.34381700  1
  Co  Co0  1  0.00000000  0.00000000  0.50000000  1
  Co  Co1  1  0.00000000  0.50000000  0.00000000  1
  Co  Co2  1  0.50000000  0.00000000  0.00000000  1
  Co  Co3  1  0.28898800  0.71101200  0.00000000  1
  Co  Co4  1  0.71101200  0.00000000  0.28898800  1
  Co  Co5  1  0.00000000  0.28898800  0.71101200  1
  Co  Co6  1  0.28898800  0.00000000  0.71101200  1
  Co  Co7  1  0.00000000  0.71101200  0.28898800  1
  Co  Co8  1  0.71101200  0.28898800  0.00000000  1
  Co  Co9  1  0.34603600  0.34603600  0.84986300  1
  Co  Co10  1  0.34603600  0.84986300  0.34603600  1
  Co  Co11  1  0.84986300  0.34603600  0.34603600  1
  Co  Co12  1  0.65396400  0.65396400  0.15013700  1
  Co  Co13  1  0.65396400  0.15013700  0.65396400  1
  Co  Co14  1  0.15013700  0.65396400  0.65396400  1
  Co  Co15  1  0.90264700  0.90264700  0.90264700  1
  Co  Co16  1  0.09735300  0.09735300  0.09735300  1
loop_
_geom_bond_atom_site_label_1
_geom_bond_atom_site_label_2
_geom_bond_distance
_geom_bond_site_symmetry_2
Co0 Co5 2.370374 1_555
Co0 Co7 2.370374 1_545
Co0 Co4 2.370374 1_455
Co0 Co6 2.370374 1_555
Co0 Co14 2.385273 1_545
Co0 Co13 2.385273 1_455
Co0 Co10 2.385273 1_545
Co0 Co11 2.385273 1_455
Co0 Co15 2.532044 1_445
Co0 Co16 2.532044 1_555
Co0 Ho1 3.212980 1_555
Co0 Ho0 3.212980 1_445
Co1 Co7 2.370374 1_555
Co1 Co5 2.370374 1_554
Co1 Co3 2.370374 1_555
Co1 Co8 2.370374 1_455
Co1 Co11 2.385273 1_455
Co1 Co14 2.385273 1_554
Co1 Co12 2.385273 1_455
Co1 Co9 2.385273 1_554
Co1 Co16 2.532044 1_555
Co1 Co15 2.532044 1_454
Co1 Ho1 3.212979 1_555
Co1 Ho0 3.212979 1_454
Co2 Co6 2.370374 1_554
Co2 Co4 2.370374 1_555
Co2 Co3 2.370374 1_545
Co2 Co8 2.370374 1_555
Co2 Co9 2.385273 1_554
Co2 Ho1 3.212979 1_555
Co2 Ho0 3.212979 1_544
Co3 Co6 2.390913 1_564
Co3 Co7 2.390913 1_555
Co3 Co9 2.545515 1_554
Co3 Ho1 2.961088 1_555
Co3 Ho0 2.961088 1_554
Co4 Co7 2.390913 1_645
Co4 Co8 2.390913 1_555
Co4 Ho1 2.961088 1_555
Co4 Ho0 2.961088 1_545
Co5 Co6 2.390913 1_555
Co5 Co8 2.390913 1_456
Co5 Co9 2.514354 1_555
Co5 Ho0 2.961088 1_455
Co5 Ho1 2.961088 1_555
Co6 Co9 2.514354 1_555
Co6 Ho0 2.961088 1_545
Co6 Ho1 2.961088 1_555
Co7 Ho1 2.961088 1_555
Co7 Ho0 2.961088 1_455
Co8 Co9 2.545515 1_554
Co8 Ho0 2.961088 1_554
Co8 Ho1 2.961088 1_555
Co9 Ho0 2.961122 1_555
Co9 Ho1 3.088049 1_556
Co9 Ho1 3.170742 1_555
Co10 Co2 2.385273 1_565
Co10 Co12 2.430388 1_555
Co10 Co14 2.430388 1_555
Co10 Co3 2.514353 1_555
Co10 Co7 2.514354 1_555
Co10 Co6 2.545514 1_565
Co10 Co4 2.545515 1_565
Co10 Co16 2.576479 1_565
Co10 Ho0 2.961121 1_555
Co10 Ho1 3.088050 1_565
Co10 Ho1 3.170742 1_555
Co11 Co12 2.430388 1_555
Co11 Co13 2.430388 1_555
Co11 Co8 2.514353 1_555
Co11 Co4 2.514354 1_555
Co11 Co5 2.545514 1_655
Co11 Co7 2.545515 1_655
Co11 Co16 2.576479 1_655
Co11 Ho0 2.961121 1_555
Co11 Ho1 3.088050 1_655
Co11 Ho1 3.170742 1_555
Co12 Co2 2.385273 1_565
Co12 Co7 2.514354 1_655
Co12 Co4 2.514354 1_565
Co12 Co3 2.545515 1_555
Co12 Co8 2.545515 1_555
Co12 Co15 2.576480 1_554
Co12 Ho1 2.961122 1_555
Co12 Ho0 3.088049 1_554
Co12 Ho0 3.170742 1_555
Co13 Co2 2.385273 1_556
Co13 Co9 2.430388 1_555
Co13 Co8 2.514353 1_556
Co13 Co5 2.514354 1_655
Co13 Co4 2.545514 1_555
Co13 Co6 2.545515 1_555
Co13 Co15 2.576479 1_545
Co13 Ho1 2.961121 1_555
Co13 Ho0 3.088050 1_545
Co13 Ho0 3.170742 1_555
Co14 Co9 2.430388 1_555
Co14 Co3 2.514353 1_556
Co14 Co6 2.514354 1_565
Co14 Co7 2.545514 1_555
Co14 Co5 2.545515 1_555
Co14 Co15 2.576479 1_455
Co14 Ho1 2.961121 1_555
Co14 Ho0 3.088050 1_455
Co14 Ho0 3.170742 1_555
Co15 Co16 2.362208 1_666
Co15 Co2 2.532044 1_566
Co15 Co4 2.666734 1_566
Co15 Co7 2.666734 1_656
Co15 Co8 2.666734 1_566
Co15 Co3 2.666734 1_656
Co15 Co5 2.666734 1_665
Co15 Co6 2.666734 1_665
Co15 Ho0 2.990145 1_555
Co16 Co2 2.532044 1_555
Co16 Co9 2.576480 1_554
Co16 Co5 2.666734 1_554
Co16 Co6 2.666734 1_554
Co16 Co3 2.666734 1_545
Co16 Co8 2.666734 1_455
Co16 Co7 2.666734 1_545
Co16 Co4 2.666734 1_455
Co16 Ho1 2.990145 1_555
