# generated using pymatgen
data_Ga2Ru
_symmetry_space_group_name_H-M   'P 1'
_cell_length_a   6.56210440
_cell_length_b   6.56210440
_cell_length_c   6.56325119
_cell_angle_alpha   119.68001514
_cell_angle_beta   119.68001514
_cell_angle_gamma   90.54521298
_symmetry_Int_Tables_number   1
_chemical_formula_structural   Ga2Ru
_chemical_formula_sum   'Ga8 Ru4'
_cell_volume   200.81751600
_cell_formula_units_Z   4
loop_
 _symmetry_equiv_pos_site_id
 _symmetry_equiv_pos_as_xyz
  1  'x, y, z'
loop_
 _atom_site_type_symbol
 _atom_site_label
 _atom_site_symmetry_multiplicity
 _atom_site_fract_x
 _atom_site_fract_y
 _atom_site_fract_z
 _atom_site_occupancy
  Ga  Ga0  1  0.39523200  0.18006100  0.78520000  1
  Ga  Ga1  1  0.38996800  0.60513900  0.78520000  1
  Ga  Ga2  1  0.81993900  0.60476800  0.21480000  1
  Ga  Ga3  1  0.85476800  0.56993900  0.71480000  1
  Ga  Ga4  1  0.39486100  0.61003200  0.21480000  1
  Ga  Ga5  1  0.86003200  0.14486100  0.71480000  1
  Ga  Ga6  1  0.43006100  0.14523200  0.28520000  1
  Ga  Ga7  1  0.85513900  0.13996800  0.28520000  1
  Ru  Ru0  1  0.62500000  0.87500000  0.75000000  1
  Ru  Ru1  1  0.12500000  0.87500000  0.75000000  1
  Ru  Ru2  1  0.12500000  0.37500000  0.25000000  1
  Ru  Ru3  1  0.12500000  0.87500000  0.25000000  1
loop_
_geom_bond_atom_site_label_1
_geom_bond_atom_site_label_2
_geom_bond_distance
_geom_bond_site_symmetry_2
Ga0 Ru1 2.504804 1_545
Ga0 Ru0 2.505692 1_545
Ga0 Ru3 2.508157 1_545
Ga0 Ga2 2.787960 1_556
Ga0 Ga1 2.789949 1_555
Ga0 Ga4 2.835398 1_556
Ga1 Ru0 2.504804 1_555
Ga1 Ru1 2.505692 1_555
Ga1 Ru2 2.508157 1_555
Ga1 Ga4 2.787960 1_556
Ga1 Ga2 2.835398 1_556
Ga2 Ru3 2.504804 1_655
Ga2 Ru2 2.505692 1_655
Ga2 Ru1 2.508157 1_655
Ga2 Ga4 2.789949 1_555
Ga3 Ru1 2.504804 1_655
Ga3 Ru0 2.505692 1_555
Ga3 Ru3 2.508157 1_656
Ga3 Ga6 2.787960 1_555
Ga3 Ga5 2.789949 1_555
Ga3 Ga7 2.835398 1_555
Ga4 Ru2 2.504804 1_555
Ga4 Ru3 2.505692 1_555
Ga4 Ru0 2.508157 1_555
Ga5 Ru0 2.504804 1_545
Ga5 Ru1 2.505692 1_645
Ga5 Ru2 2.508157 1_656
Ga5 Ga7 2.787960 1_555
Ga5 Ga6 2.835398 1_555
Ga6 Ru3 2.504804 1_545
Ga6 Ru2 2.505692 1_555
Ga6 Ru1 2.508157 1_544
Ga6 Ga7 2.789949 1_555
Ga7 Ru2 2.504804 1_655
Ga7 Ru3 2.505692 1_645
Ga7 Ru0 2.508157 1_544
