# generated using pymatgen
data_Rb2Be2Zn(O3F4)2
_symmetry_space_group_name_H-M   'P 1'
_cell_length_a   11.64406500
_cell_length_b   5.89874700
_cell_length_c   8.96021851
_cell_angle_alpha   75.50458732
_cell_angle_beta   90.00000000
_cell_angle_gamma   90.00000000
_symmetry_Int_Tables_number   1
_chemical_formula_structural   Rb2Be2Zn(O3F4)2
_chemical_formula_sum   'Rb4 Be4 Zn2 O12 F16'
_cell_volume   595.84537638
_cell_formula_units_Z   2
loop_
 _symmetry_equiv_pos_site_id
 _symmetry_equiv_pos_as_xyz
  1  'x, y, z'
loop_
 _atom_site_type_symbol
 _atom_site_label
 _atom_site_symmetry_multiplicity
 _atom_site_fract_x
 _atom_site_fract_y
 _atom_site_fract_z
 _atom_site_occupancy
  Rb  Rb0  1  0.63686800  0.85075300  0.89146900  1
  Rb  Rb1  1  0.36313200  0.14924700  0.10853100  1
  Rb  Rb2  1  0.13686800  0.14924700  0.60853100  1
  Rb  Rb3  1  0.86313200  0.85075300  0.39146900  1
  Be  Be0  1  0.33401300  0.75735400  0.89298900  1
  Be  Be1  1  0.66598700  0.24264600  0.10701100  1
  Be  Be2  1  0.83401300  0.24264600  0.60701100  1
  Be  Be3  1  0.16598700  0.75735400  0.39298900  1
  Zn  Zn0  1  0.50000000  0.50000000  0.50000000  1
  Zn  Zn1  1  0.00000000  0.50000000  0.00000000  1
  O  O0  1  0.37933400  0.31841400  0.62039800  1
  O  O1  1  0.62066600  0.68158600  0.37960200  1
  O  O2  1  0.87933400  0.68158600  0.87960200  1
  O  O3  1  0.12066600  0.31841400  0.12039800  1
  O  O4  1  0.12029200  0.43289500  0.86042100  1
  O  O5  1  0.87970800  0.56710500  0.13957900  1
  O  O6  1  0.62029200  0.56710500  0.63957900  1
  O  O7  1  0.37970800  0.43289500  0.36042100  1
  O  O8  1  0.43969700  0.84655600  0.52441600  1
  O  O9  1  0.56030300  0.15344400  0.47558400  1
  O  O10  1  0.93969700  0.15344400  0.97558400  1
  O  O11  1  0.06030300  0.84655600  0.02441600  1
  F  F0  1  0.29485500  0.52064200  0.85910600  1
  F  F1  1  0.70514500  0.47935800  0.14089400  1
  F  F2  1  0.79485500  0.47935800  0.64089400  1
  F  F3  1  0.20514500  0.52064200  0.35910600  1
  F  F4  1  0.08901300  0.71617500  0.53516000  1
  F  F5  1  0.91098700  0.28382500  0.46484000  1
  F  F6  1  0.58901300  0.28382500  0.96484000  1
  F  F7  1  0.41098700  0.71617500  0.03516000  1
  F  F8  1  0.41436500  0.89299700  0.75068800  1
  F  F9  1  0.58563500  0.10700300  0.24931200  1
  F  F10  1  0.91436500  0.10700300  0.74931200  1
  F  F11  1  0.08563500  0.89299700  0.25068800  1
  F  F12  1  0.22942200  0.92106200  0.90068200  1
  F  F13  1  0.77057800  0.07893800  0.09931800  1
  F  F14  1  0.72942200  0.07893800  0.59931800  1
  F  F15  1  0.27057800  0.92106200  0.40068200  1
loop_
_geom_bond_atom_site_label_1
_geom_bond_atom_site_label_2
_geom_bond_distance
_geom_bond_site_symmetry_2
Be0 F7 1.526504 1_556
Be0 F12 1.566458 1_555
Be0 F0 1.569060 1_555
Be0 F8 1.621919 1_555
Be1 F6 1.526504 1_554
Be1 F13 1.566458 1_555
Be1 F1 1.569060 1_555
Be1 F9 1.621919 1_555
Be2 F5 1.526504 1_555
Be2 F14 1.566458 1_555
Be2 F2 1.569060 1_555
Be2 F10 1.621919 1_555
Be3 F4 1.526504 1_555
Be3 F15 1.566458 1_555
Be3 F3 1.569060 1_555
Be3 F11 1.621919 1_555
O0 Zn0 1.925304 1_555
O0 Rb2 3.005185 1_555
O1 Zn0 1.925304 1_555
O1 Rb3 3.005185 1_555
O2 Zn1 1.925304 1_656
O2 Rb0 3.005185 1_555
O3 Zn1 1.925304 1_555
O3 Rb1 3.005185 1_555
O4 Zn1 1.982570 1_556
O4 Rb2 3.133878 1_555
O5 Zn1 1.982570 1_655
O5 Rb3 3.133878 1_555
O6 Zn0 1.982570 1_555
O6 Rb0 3.133878 1_555
O7 Zn0 1.982570 1_555
O7 Rb1 3.133878 1_555
O8 Zn0 2.223451 1_555
O9 Zn0 2.223451 1_555
O10 Zn1 2.223451 1_656
O11 Zn1 2.223451 1_555
F0 Rb1 2.824051 1_556
F1 Rb0 2.824051 1_554
F2 Rb3 2.824051 1_555
F3 Rb2 2.824051 1_555
F4 Rb2 2.847688 1_565
F4 Rb3 2.948559 1_455
F4 Rb2 3.290220 1_555
F5 Rb3 2.847688 1_545
F5 Rb2 2.948559 1_655
F5 Rb3 3.290220 1_555
F6 Rb0 2.847688 1_545
F6 Rb1 2.948559 1_556
F6 Rb0 3.290220 1_555
F7 Rb1 2.847688 1_565
F7 Rb0 2.948559 1_554
F7 Rb1 3.290220 1_555
F8 Rb0 2.865029 1_555
F9 Rb1 2.865029 1_555
F10 Rb2 2.865029 1_655
F11 Rb3 2.865029 1_455
F12 Rb2 2.839339 1_565
F12 Rb1 2.993173 1_566
F13 Rb3 2.839339 1_545
F13 Rb0 2.993173 1_544
F14 Rb0 2.839339 1_545
F14 Rb3 2.993173 1_545
F15 Rb1 2.839339 1_565
F15 Rb2 2.993173 1_565
