# generated using pymatgen
data_NiPPd
_symmetry_space_group_name_H-M   'P 1'
_cell_length_a   3.62695900
_cell_length_b   6.03774117
_cell_length_c   6.03774117
_cell_angle_alpha   119.99999095
_cell_angle_beta   90.00000000
_cell_angle_gamma   90.00000000
_symmetry_Int_Tables_number   1
_chemical_formula_structural   NiPPd
_chemical_formula_sum   'Ni3 P3 Pd3'
_cell_volume   114.50443313
_cell_formula_units_Z   3
loop_
 _symmetry_equiv_pos_site_id
 _symmetry_equiv_pos_as_xyz
  1  'x, y, z'
loop_
 _atom_site_type_symbol
 _atom_site_label
 _atom_site_symmetry_multiplicity
 _atom_site_fract_x
 _atom_site_fract_y
 _atom_site_fract_z
 _atom_site_occupancy
  Ni  Ni0  1  0.00000000  0.25447600  0.25447600  1
  Ni  Ni1  1  0.00000000  0.00000000  0.74552400  1
  Ni  Ni2  1  0.00000000  0.74552400  0.00000000  1
  P  P0  1  0.00000000  0.66666700  0.33333300  1
  P  P1  1  0.00000000  0.33333300  0.66666700  1
  P  P2  1  0.50000000  0.00000000  0.00000000  1
  Pd  Pd0  1  0.50000000  0.59584000  0.59584000  1
  Pd  Pd1  1  0.50000000  0.00000000  0.40416000  1
  Pd  Pd2  1  0.50000000  0.40416000  0.00000000  1
loop_
_geom_bond_atom_site_label_1
_geom_bond_atom_site_label_2
_geom_bond_distance
_geom_bond_site_symmetry_2
Ni0 P0 2.288102 1_555
Ni0 P1 2.288102 1_555
Ni0 P2 2.376851 1_555
Ni0 P2 2.376851 1_455
Ni0 Pd0 2.745307 1_455
Ni0 Pd0 2.745307 1_555
Ni0 Pd1 2.802636 1_555
Ni0 Pd2 2.802636 1_555
Ni0 Pd1 2.802636 1_455
Ni0 Pd2 2.802636 1_455
Ni1 P1 2.288096 1_555
Ni1 P0 2.288101 1_545
Ni1 P2 2.376850 1_456
Ni1 P2 2.376850 1_556
Ni1 Pd1 2.745306 1_555
Ni1 Pd1 2.745306 1_455
Ni1 Pd0 2.802636 1_445
Ni1 Pd0 2.802636 1_545
Ni1 Pd2 2.802636 1_556
Ni1 Pd2 2.802636 1_456
Ni2 P0 2.288096 1_555
Ni2 P1 2.288101 1_554
Ni2 P2 2.376850 1_565
Ni2 P2 2.376850 1_465
Ni2 Pd2 2.745306 1_555
Ni2 Pd2 2.745306 1_455
Ni2 Pd0 2.802636 1_454
Ni2 Pd0 2.802636 1_554
Ni2 Pd1 2.802636 1_565
Ni2 Pd1 2.802636 1_465
P0 Pd1 2.580969 1_465
P0 Pd1 2.580969 1_565
P0 Pd2 2.580971 1_555
P0 Pd2 2.580971 1_455
P0 Pd0 2.580973 1_555
P0 Pd0 2.580973 1_455
P1 Pd2 2.580969 1_456
P1 Pd2 2.580969 1_556
P1 Pd1 2.580971 1_455
P1 Pd1 2.580971 1_555
P1 Pd0 2.580973 1_455
P1 Pd0 2.580973 1_555
P2 Pd1 2.440213 1_555
P2 Pd2 2.440213 1_555
P2 Pd0 2.440214 1_544
