# generated using pymatgen
data_Ba8Mn6Co2ClO22
_symmetry_space_group_name_H-M   'P 1'
_cell_length_a   5.81300730
_cell_length_b   5.81300730
_cell_length_c   19.89826000
_cell_angle_alpha   90.00000000
_cell_angle_beta   90.00000000
_cell_angle_gamma   119.97347188
_symmetry_Int_Tables_number   1
_chemical_formula_structural   Ba8Mn6Co2ClO22
_chemical_formula_sum   'Ba8 Mn6 Co2 Cl1 O22'
_cell_volume   582.45650655
_cell_formula_units_Z   1
loop_
 _symmetry_equiv_pos_site_id
 _symmetry_equiv_pos_as_xyz
  1  'x, y, z'
loop_
 _atom_site_type_symbol
 _atom_site_label
 _atom_site_symmetry_multiplicity
 _atom_site_fract_x
 _atom_site_fract_y
 _atom_site_fract_z
 _atom_site_occupancy
  Ba  Ba0  1  0.00007600  0.99992400  0.38248000  1
  Ba  Ba1  1  0.00007600  0.99992400  0.61752000  1
  Ba  Ba2  1  0.00064800  0.99935200  0.84721300  1
  Ba  Ba3  1  0.00064800  0.99935200  0.15278700  1
  Ba  Ba4  1  0.33305900  0.66694100  0.26549600  1
  Ba  Ba5  1  0.33305900  0.66694100  0.73450400  1
  Ba  Ba6  1  0.33334200  0.66665800  0.50000000  1
  Ba  Ba7  1  0.66997200  0.33002800  0.00000000  1
  Mn  Mn0  1  0.66734900  0.33265100  0.18059700  1
  Mn  Mn1  1  0.66734900  0.33265100  0.81940300  1
  Mn  Mn2  1  0.66630700  0.33369300  0.31034200  1
  Mn  Mn3  1  0.66630700  0.33369300  0.68965800  1
  Mn  Mn4  1  0.66671600  0.33328400  0.43706500  1
  Mn  Mn5  1  0.66671600  0.33328400  0.56293500  1
  Co  Co0  1  0.33485700  0.66514300  0.09021900  1
  Co  Co1  1  0.33485700  0.66514300  0.90978100  1
  Cl  Cl0  1  0.99479200  0.00520800  0.00000000  1
  O  O0  1  0.37198600  0.18656400  0.25112000  1
  O  O1  1  0.81347000  0.18653000  0.25080800  1
  O  O2  1  0.81343600  0.62801400  0.25112000  1
  O  O3  1  0.37198600  0.18656400  0.74888000  1
  O  O4  1  0.81347000  0.18653000  0.74919200  1
  O  O5  1  0.81343600  0.62801400  0.74888000  1
  O  O6  1  0.50622500  0.49377500  0.12749100  1
  O  O7  1  0.50849200  0.01612600  0.12830400  1
  O  O8  1  0.98387400  0.49150800  0.12830400  1
  O  O9  1  0.50622500  0.49377500  0.87250900  1
  O  O10  1  0.50849200  0.01612600  0.87169600  1
  O  O11  1  0.98387400  0.49150800  0.87169600  1
  O  O12  1  0.96321300  0.48150900  0.37582000  1
  O  O13  1  0.51829400  0.48170600  0.37586900  1
  O  O14  1  0.51849100  0.03678700  0.37582000  1
  O  O15  1  0.96321300  0.48150900  0.62418000  1
  O  O16  1  0.51829400  0.48170600  0.62413100  1
  O  O17  1  0.51849100  0.03678700  0.62418000  1
  O  O18  1  0.36974500  0.18490100  0.50000000  1
  O  O19  1  0.81523400  0.18476600  0.50000000  1
  O  O20  1  0.81509900  0.63025500  0.50000000  1
  O  O21  1  0.31016000  0.68984000  0.00000000  1
loop_
_geom_bond_atom_site_label_1
_geom_bond_atom_site_label_2
_geom_bond_distance
_geom_bond_site_symmetry_2
Ba0 O14 2.915429 1_565
Ba0 O12 2.915429 1_455
Ba0 O12 2.915449 1_465
Ba0 O14 2.915449 1_465
Ba0 O13 2.916416 1_565
Ba0 O13 2.916416 1_455
Ba0 O19 2.988472 1_465
Ba0 O20 2.988890 1_455
Ba0 O18 2.988890 1_565
Ba0 O2 3.215500 1_455
Ba0 O0 3.215500 1_565
Ba0 O1 3.223923 1_465
Ba1 O17 2.915429 1_565
Ba1 O15 2.915429 1_455
Ba1 O15 2.915449 1_465
Ba1 O17 2.915449 1_465
Ba1 O16 2.916416 1_565
Ba1 O16 2.916416 1_455
Ba1 O19 2.988472 1_465
Ba1 O20 2.988890 1_455
Ba1 O18 2.988890 1_565
Ba1 O5 3.215500 1_455
Ba1 O3 3.215500 1_565
Ba1 O4 3.223923 1_465
Ba2 O5 2.706492 1_455
Ba2 O3 2.706492 1_565
Ba2 O4 2.712004 1_465
Ba2 O11 2.945186 1_455
Ba2 O10 2.945186 1_565
Ba2 O10 2.951332 1_465
Ba2 O11 2.951332 1_465
Ba2 O9 2.951449 1_565
Ba2 O9 2.951449 1_455
Ba2 Cl0 3.040767 1_466
Ba3 O2 2.706492 1_455
Ba3 O0 2.706492 1_565
Ba3 O1 2.712004 1_465
Ba3 O8 2.945186 1_455
Ba3 O7 2.945186 1_565
Ba3 O7 2.951332 1_465
Ba3 O8 2.951332 1_465
Ba3 O6 2.951449 1_565
Ba3 O6 2.951449 1_455
Ba3 Cl0 3.040767 1_465
Ba4 O14 2.878823 1_565
Ba4 O12 2.878823 1_455
Ba4 O13 2.881114 1_555
Ba4 O2 2.926107 1_555
Ba4 O0 2.926107 1_555
Ba4 O0 2.928128 1_565
Ba4 O2 2.928128 1_455
Ba4 O1 2.928967 1_455
Ba4 O1 2.928967 1_565
Ba4 O7 3.247161 1_565
Ba4 O8 3.247161 1_455
Ba4 O6 3.252668 1_555
Ba5 O17 2.878823 1_565
Ba5 O15 2.878823 1_455
Ba5 O16 2.881114 1_555
Ba5 O5 2.926107 1_555
Ba5 O3 2.926107 1_555
Ba5 O3 2.928128 1_565
Ba5 O5 2.928128 1_455
Ba5 O4 2.928967 1_455
Ba5 O4 2.928967 1_565
Ba5 O10 3.247161 1_565
Ba5 O11 3.247161 1_455
Ba5 O9 3.252668 1_555
Ba6 O20 2.911953 1_555
Ba6 O18 2.911953 1_555
Ba6 O18 2.912604 1_565
Ba6 O20 2.912604 1_455
Ba6 O19 2.913378 1_455
Ba6 O19 2.913378 1_565
Ba6 O16 3.093158 1_555
Ba6 O13 3.093158 1_555
Ba6 O12 3.095068 1_455
Ba6 O15 3.095068 1_455
Ba6 O14 3.095068 1_565
Ba6 O17 3.095068 1_565
Ba7 O8 3.002865 1_555
Ba7 O7 3.002865 1_555
Ba7 O11 3.002865 1_554
Ba7 O10 3.002865 1_554
Ba7 O6 3.025393 1_555
Ba7 O9 3.025393 1_554
Ba7 O21 3.232067 1_545
Ba7 O21 3.232067 1_655
Ba7 Cl0 3.269988 1_555
Ba7 Cl0 3.400684 1_455
Ba7 Cl0 3.400684 1_565
Mn0 O8 1.903469 1_555
Mn0 O7 1.903469 1_555
Mn0 O6 1.935895 1_555
Mn0 O1 2.028718 1_555
Mn0 O2 2.044846 1_555
Mn0 O0 2.044846 1_555
Mn1 O11 1.903469 1_555
Mn1 O10 1.903469 1_555
Mn1 O9 1.935895 1_555
Mn1 O4 2.028718 1_555
Mn1 O3 2.044846 1_555
Mn1 O5 2.044846 1_555
Mn2 O0 1.893461 1_555
Mn2 O2 1.893461 1_555
Mn2 O1 1.896886 1_555
Mn2 O13 1.979990 1_555
Mn2 O14 1.983139 1_555
Mn2 O12 1.983139 1_555
Mn3 O3 1.893461 1_555
Mn3 O5 1.893461 1_555
Mn3 O4 1.896886 1_555
Mn3 O16 1.979990 1_555
Mn3 O17 1.983139 1_555
Mn3 O15 1.983139 1_555
Mn4 O14 1.927248 1_555
Mn4 O12 1.927248 1_555
Mn4 O13 1.927522 1_555
Mn4 O19 1.950307 1_555
Mn4 O18 1.950516 1_555
Mn4 O20 1.950516 1_555
Mn5 O17 1.927248 1_555
Mn5 O15 1.927248 1_555
Mn5 O16 1.927522 1_555
Mn5 O19 1.950307 1_555
Mn5 O18 1.950516 1_555
Mn5 O20 1.950516 1_555
Co0 O21 1.812336 1_555
Co0 O6 1.877837 1_555
Co0 O7 1.923040 1_565
Co0 O8 1.923040 1_455
Co1 O21 1.812336 1_556
Co1 O9 1.877837 1_555
Co1 O10 1.923040 1_565
Co1 O11 1.923040 1_455
