# generated using pymatgen
data_CeSbPd
_symmetry_space_group_name_H-M   'P 1'
_cell_length_a   4.59321580
_cell_length_b   4.59321580
_cell_length_c   8.07391433
_cell_angle_alpha   90.00000000
_cell_angle_beta   90.00000000
_cell_angle_gamma   120.00000170
_symmetry_Int_Tables_number   1
_chemical_formula_structural   CeSbPd
_chemical_formula_sum   'Ce2 Sb2 Pd2'
_cell_volume   147.51917024
_cell_formula_units_Z   2
loop_
 _symmetry_equiv_pos_site_id
 _symmetry_equiv_pos_as_xyz
  1  'x, y, z'
loop_
 _atom_site_type_symbol
 _atom_site_label
 _atom_site_symmetry_multiplicity
 _atom_site_fract_x
 _atom_site_fract_y
 _atom_site_fract_z
 _atom_site_occupancy
  Ce  Ce0  1  0.00000000  -0.00000000  0.99209363  1
  Ce  Ce1  1  0.00000000  0.00000000  0.49219370  1
  Sb  Sb0  1  0.66666700  0.33333300  0.72874652  1
  Sb  Sb1  1  0.33333300  0.66666700  0.22877611  1
  Pd  Pd0  1  0.66666700  0.33333300  0.28860275  1
  Pd  Pd1  1  0.33333300  0.66666700  0.78758829  1
loop_
_geom_bond_atom_site_label_1
_geom_bond_atom_site_label_2
_geom_bond_distance
_geom_bond_site_symmetry_2
Ce0 Pd1 3.123917 1_545
Ce0 Pd1 3.123920 1_445
Ce0 Pd1 3.123920 1_555
Ce0 Sb1 3.268681 1_546
Ce0 Sb1 3.268684 1_556
Ce0 Sb1 3.268684 1_446
Ce0 Sb0 3.399034 1_455
Ce0 Sb0 3.399037 1_445
Ce0 Sb0 3.399037 1_555
Ce0 Pd0 3.572634 1_456
Ce0 Pd0 3.572637 1_556
Ce0 Pd0 3.572637 1_446
Ce1 Pd0 3.120021 1_455
Ce1 Pd0 3.120024 1_445
Ce1 Pd0 3.120024 1_555
Ce1 Sb0 3.268069 1_455
Ce1 Sb0 3.268072 1_555
Ce1 Sb0 3.268072 1_445
Ce1 Sb1 3.399390 1_545
Ce1 Sb1 3.399393 1_445
Ce1 Sb1 3.399393 1_555
Ce1 Pd1 3.566610 1_545
Ce1 Pd1 3.566613 1_555
Ce1 Pd1 3.566613 1_445
Pd0 Sb1 2.695525 1_545
Pd0 Sb1 2.695525 1_655
Pd0 Sb1 2.695532 1_555
Pd1 Sb0 2.694111 1_455
Pd1 Sb0 2.694111 1_565
Pd1 Sb0 2.694119 1_555
