# generated using pymatgen
data_BiO2
_symmetry_space_group_name_H-M   'P 1'
_cell_length_a   5.58486911
_cell_length_b   5.58486911
_cell_length_c   5.58486942
_cell_angle_alpha   88.87054301
_cell_angle_beta   88.87054301
_cell_angle_gamma   88.87054752
_symmetry_Int_Tables_number   1
_chemical_formula_structural   BiO2
_chemical_formula_sum   'Bi4 O8'
_cell_volume   174.09611995
_cell_formula_units_Z   4
loop_
 _symmetry_equiv_pos_site_id
 _symmetry_equiv_pos_as_xyz
  1  'x, y, z'
loop_
 _atom_site_type_symbol
 _atom_site_label
 _atom_site_symmetry_multiplicity
 _atom_site_fract_x
 _atom_site_fract_y
 _atom_site_fract_z
 _atom_site_occupancy
  Bi  Bi0  1  0.85511100  0.85511100  0.85511100  1
  Bi  Bi1  1  0.86848700  0.36614400  0.36614400  1
  Bi  Bi2  1  0.36614400  0.36614400  0.86848700  1
  Bi  Bi3  1  0.36614400  0.86848700  0.36614400  1
  O  O0  1  0.58304800  0.13894200  0.58304800  1
  O  O1  1  0.58304800  0.58304800  0.13894200  1
  O  O2  1  0.13894300  0.58304800  0.58304800  1
  O  O3  1  0.64230500  0.64230500  0.64230500  1
  O  O4  1  0.16028400  0.16028400  0.16028400  1
  O  O5  1  0.65203000  0.08095200  0.08095200  1
  O  O6  1  0.08095200  0.08095200  0.65203000  1
  O  O7  1  0.08095200  0.65203000  0.08095200  1
loop_
_geom_bond_atom_site_label_1
_geom_bond_atom_site_label_2
_geom_bond_distance
_geom_bond_site_symmetry_2
Bi0 O3 2.098716 1_555
Bi0 O6 2.101906 1_665
Bi0 O7 2.101906 1_656
Bi0 O5 2.101906 1_566
Bi0 O1 2.651643 1_556
Bi0 O0 2.651644 1_565
Bi0 O2 2.651647 1_655
Bi1 O4 2.281176 1_655
Bi1 O2 2.327767 1_655
Bi1 O0 2.358353 1_555
Bi1 O1 2.358353 1_555
Bi1 O3 2.508656 1_555
Bi1 O7 2.528646 1_655
Bi1 O6 2.528646 1_655
Bi1 O5 2.605186 1_555
Bi2 O4 2.281176 1_556
Bi2 O1 2.327763 1_556
Bi2 O2 2.358350 1_555
Bi2 O0 2.358353 1_555
Bi2 O3 2.508656 1_555
Bi2 O5 2.528646 1_556
Bi2 O7 2.528646 1_556
Bi2 O6 2.605186 1_555
Bi3 O4 2.281176 1_565
Bi3 O0 2.327763 1_565
Bi3 O2 2.358350 1_555
Bi3 O1 2.358353 1_555
Bi3 O3 2.508656 1_555
Bi3 O5 2.528646 1_565
Bi3 O6 2.528646 1_565
Bi3 O7 2.605186 1_555
