# generated using pymatgen
data_Li2MgB4(H17N3)2
_symmetry_space_group_name_H-M   'P 1'
_cell_length_a   10.84571140
_cell_length_b   10.84571140
_cell_length_c   13.96244949
_cell_angle_alpha   90.00000000
_cell_angle_beta   90.00000000
_cell_angle_gamma   90.00000000
_symmetry_Int_Tables_number   1
_chemical_formula_structural   Li2MgB4(H17N3)2
_chemical_formula_sum   'Li8 Mg4 B16 H136 N24'
_cell_volume   1642.39533475
_cell_formula_units_Z   4
loop_
 _symmetry_equiv_pos_site_id
 _symmetry_equiv_pos_as_xyz
  1  'x, y, z'
loop_
 _atom_site_type_symbol
 _atom_site_label
 _atom_site_symmetry_multiplicity
 _atom_site_fract_x
 _atom_site_fract_y
 _atom_site_fract_z
 _atom_site_occupancy
  Li  Li0  1  0.49336574  0.00031322  0.37181734  1
  Li  Li1  1  0.50663426  0.99968678  0.87181734  1
  Li  Li2  1  0.50031322  0.00663426  0.62181734  1
  Li  Li3  1  0.49968678  0.99336574  0.12181734  1
  Li  Li4  1  0.99968678  0.50663426  0.12818266  1
  Li  Li5  1  0.00031322  0.49336574  0.62818266  1
  Li  Li6  1  0.00663426  0.50031322  0.37818266  1
  Li  Li7  1  0.99336574  0.49968678  0.87818266  1
  Mg  Mg0  1  0.51020684  0.51020684  0.50000000  1
  Mg  Mg1  1  0.48979316  0.48979316  -0.00000000  1
  Mg  Mg2  1  0.01020684  0.98979316  0.75000000  1
  Mg  Mg3  1  0.98979316  0.01020684  0.25000000  1
  B  B0  1  0.43956952  0.83532748  0.25113921  1
  B  B1  1  0.56043048  0.16467252  0.75113921  1
  B  B2  1  0.33532748  0.06043048  0.50113921  1
  B  B3  1  0.66467252  0.93956952  0.00113921  1
  B  B4  1  0.16467252  0.56043048  0.24886079  1
  B  B5  1  0.83532748  0.43956952  0.74886079  1
  B  B6  1  0.06043048  0.33532748  0.49886079  1
  B  B7  1  0.93956952  0.66467252  0.99886079  1
  B  B8  1  0.65569719  0.94167299  0.49891240  1
  B  B9  1  0.34430281  0.05832701  0.99891240  1
  B  B10  1  0.44167299  0.84430281  0.74891240  1
  B  B11  1  0.55832701  0.15569719  0.24891240  1
  B  B12  1  0.05832701  0.34430281  0.00108760  1
  B  B13  1  0.94167299  0.65569719  0.50108760  1
  B  B14  1  0.84430281  0.44167299  0.25108760  1
  B  B15  1  0.15569719  0.55832701  0.75108760  1
  H  H0  1  0.68829882  0.65937380  0.41770908  1
  H  H1  1  0.31170118  0.34062620  0.91770908  1
  H  H2  1  0.15937380  0.81170118  0.66770908  1
  H  H3  1  0.84062620  0.18829882  0.16770908  1
  H  H4  1  0.34062620  0.31170118  0.08229092  1
  H  H5  1  0.65937380  0.68829882  0.58229092  1
  H  H6  1  0.81170118  0.15937380  0.33229092  1
  H  H7  1  0.18829882  0.84062620  0.83229092  1
  H  H8  1  0.66250507  0.54961061  0.34126643  1
  H  H9  1  0.33749493  0.45038939  0.84126643  1
  H  H10  1  0.04961061  0.83749493  0.59126643  1
  H  H11  1  0.95038939  0.16250507  0.09126643  1
  H  H12  1  0.45038939  0.33749493  0.15873357  1
  H  H13  1  0.54961061  0.66250507  0.65873357  1
  H  H14  1  0.83749493  0.04961061  0.40873357  1
  H  H15  1  0.16250507  0.95038939  0.90873357  1
  H  H16  1  0.56830165  0.66800094  0.34714192  1
  H  H17  1  0.43169835  0.33199906  0.84714192  1
  H  H18  1  0.16800094  0.93169835  0.59714192  1
  H  H19  1  0.83199906  0.06830165  0.09714192  1
  H  H20  1  0.33199906  0.43169835  0.15285808  1
  H  H21  1  0.66800094  0.56830165  0.65285808  1
  H  H22  1  0.93169835  0.16800094  0.40285808  1
  H  H23  1  0.06830165  0.83199906  0.90285808  1
  H  H24  1  0.36036220  0.44846280  0.34413626  1
  H  H25  1  0.63963780  0.55153720  0.84413626  1
  H  H26  1  0.94846280  0.13963780  0.59413626  1
  H  H27  1  0.05153720  0.86036220  0.09413626  1
  H  H28  1  0.55153720  0.63963780  0.15586374  1
  H  H29  1  0.44846280  0.36036220  0.65586374  1
  H  H30  1  0.13963780  0.94846280  0.40586374  1
  H  H31  1  0.86036220  0.05153720  0.90586374  1
  H  H32  1  0.36521728  0.32714479  0.41310422  1
  H  H33  1  0.63478272  0.67285521  0.91310422  1
  H  H34  1  0.82714479  0.13478272  0.66310422  1
  H  H35  1  0.17285521  0.86521728  0.16310422  1
  H  H36  1  0.67285521  0.63478272  0.08689578  1
  H  H37  1  0.32714479  0.36521728  0.58689578  1
  H  H38  1  0.13478272  0.82714479  0.33689578  1
  H  H39  1  0.86521728  0.17285521  0.83689578  1
  H  H40  1  0.47903534  0.35454354  0.34126820  1
  H  H41  1  0.52096466  0.64545646  0.84126820  1
  H  H42  1  0.85454354  0.02096466  0.59126820  1
  H  H43  1  0.14545646  0.97903534  0.09126820  1
  H  H44  1  0.64545646  0.52096466  0.15873180  1
  H  H45  1  0.35454354  0.47903534  0.65873180  1
  H  H46  1  0.02096466  0.85454354  0.40873180  1
  H  H47  1  0.97903534  0.14545646  0.90873180  1
  H  H48  1  0.27575028  0.63243620  0.49589175  1
  H  H49  1  0.72424972  0.36756380  0.99589175  1
  H  H50  1  0.13243620  0.22424972  0.74589175  1
  H  H51  1  0.86756380  0.77575028  0.24589175  1
  H  H52  1  0.36756380  0.72424972  0.00410825  1
  H  H53  1  0.63243620  0.27575028  0.50410825  1
  H  H54  1  0.22424972  0.13243620  0.25410825  1
  H  H55  1  0.77575028  0.86756380  0.75410825  1
  H  H56  1  0.37704372  0.73302689  0.53254227  1
  H  H57  1  0.62295628  0.26697311  0.03254227  1
  H  H58  1  0.23302689  0.12295628  0.78254227  1
  H  H59  1  0.76697311  0.87704372  0.28254227  1
  H  H60  1  0.26697311  0.62295628  0.96745773  1
  H  H61  1  0.73302689  0.37704372  0.46745773  1
  H  H62  1  0.12295628  0.23302689  0.21745773  1
  H  H63  1  0.87704372  0.76697311  0.71745773  1
  H  H64  1  0.36604920  0.70066997  0.41903135  1
  H  H65  1  0.63395080  0.29933003  0.91903135  1
  H  H66  1  0.20066997  0.13395080  0.66903135  1
  H  H67  1  0.79933003  0.86604920  0.16903135  1
  H  H68  1  0.29933003  0.63395080  0.08096865  1
  H  H69  1  0.70066997  0.36604920  0.58096865  1
  H  H70  1  0.13395080  0.20066997  0.33096865  1
  H  H71  1  0.86604920  0.79933003  0.83096865  1
  H  H72  1  0.38750600  0.86100867  0.17544898  1
  H  H73  1  0.61249400  0.13899133  0.67544898  1
  H  H74  1  0.36100867  0.11249400  0.42544898  1
  H  H75  1  0.63899133  0.88750600  0.92544898  1
  H  H76  1  0.13899133  0.61249400  0.32455102  1
  H  H77  1  0.86100867  0.38750600  0.82455102  1
  H  H78  1  0.11249400  0.36100867  0.57455102  1
  H  H79  1  0.88750600  0.63899133  0.07455102  1
  H  H80  1  0.37627600  0.87302166  0.31831744  1
  H  H81  1  0.62372400  0.12697834  0.81831744  1
  H  H82  1  0.37302166  0.12372400  0.56831744  1
  H  H83  1  0.62697834  0.87627600  0.06831744  1
  H  H84  1  0.12697834  0.62372400  0.18168256  1
  H  H85  1  0.87302166  0.37627600  0.68168256  1
  H  H86  1  0.12372400  0.37302166  0.43168256  1
  H  H87  1  0.87627600  0.62697834  0.93168256  1
  H  H88  1  0.54333615  0.88147507  0.25358602  1
  H  H89  1  0.45666385  0.11852493  0.75358602  1
  H  H90  1  0.38147507  0.95666385  0.50358602  1
  H  H91  1  0.61852493  0.04333615  0.00358602  1
  H  H92  1  0.11852493  0.45666385  0.24641398  1
  H  H93  1  0.88147507  0.54333615  0.74641398  1
  H  H94  1  0.95666385  0.38147507  0.49641398  1
  H  H95  1  0.04333615  0.61852493  0.99641398  1
  H  H96  1  0.44807553  0.72288924  0.25668115  1
  H  H97  1  0.55192447  0.27711076  0.75668115  1
  H  H98  1  0.22288924  0.05192447  0.50668115  1
  H  H99  1  0.77711076  0.94807553  0.00668115  1
  H  H100  1  0.27711076  0.55192447  0.24331885  1
  H  H101  1  0.72288924  0.44807553  0.74331885  1
  H  H102  1  0.05192447  0.22288924  0.49331885  1
  H  H103  1  0.94807553  0.77711076  0.99331885  1
  H  H104  1  0.62835192  0.89550067  0.57644696  1
  H  H105  1  0.37164808  0.10449933  0.07644696  1
  H  H106  1  0.39550067  0.87164808  0.82644696  1
  H  H107  1  0.60449933  0.12835192  0.32644696  1
  H  H108  1  0.10449933  0.37164808  0.92355304  1
  H  H109  1  0.89550067  0.62835192  0.42355304  1
  H  H110  1  0.87164808  0.39550067  0.17355304  1
  H  H111  1  0.12835192  0.60449933  0.67355304  1
  H  H112  1  0.62140299  0.04986931  0.49517402  1
  H  H113  1  0.37859701  0.95013069  0.99517402  1
  H  H114  1  0.54986931  0.87859701  0.74517402  1
  H  H115  1  0.45013069  0.12140299  0.24517402  1
  H  H116  1  0.95013069  0.37859701  0.00482598  1
  H  H117  1  0.04986931  0.62140299  0.50482598  1
  H  H118  1  0.87859701  0.54986931  0.25482598  1
  H  H119  1  0.12140299  0.45013069  0.75482598  1
  H  H120  1  0.60852145  0.88038952  0.43457131  1
  H  H121  1  0.39147855  0.11961048  0.93457131  1
  H  H122  1  0.38038952  0.89147855  0.68457131  1
  H  H123  1  0.61961048  0.10852145  0.18457131  1
  H  H124  1  0.11961048  0.39147855  0.06542869  1
  H  H125  1  0.88038952  0.60852145  0.56542869  1
  H  H126  1  0.89147855  0.38038952  0.31542869  1
  H  H127  1  0.10852145  0.61961048  0.81542869  1
  H  H128  1  0.76803729  0.93593517  0.49074687  1
  H  H129  1  0.23196271  0.06406483  0.99074687  1
  H  H130  1  0.43593517  0.73196271  0.74074687  1
  H  H131  1  0.56406483  0.26803729  0.24074687  1
  H  H132  1  0.06406483  0.23196271  0.00925313  1
  H  H133  1  0.93593517  0.76803729  0.50925313  1
  H  H134  1  0.73196271  0.43593517  0.25925313  1
  H  H135  1  0.26803729  0.56406483  0.75925313  1
  N  N0  1  0.61891239  0.60795293  0.38826020  1
  N  N1  1  0.38108761  0.39204707  0.88826020  1
  N  N2  1  0.10795293  0.88108761  0.63826020  1
  N  N3  1  0.89204707  0.11891239  0.13826020  1
  N  N4  1  0.39204707  0.38108761  0.11173980  1
  N  N5  1  0.60795293  0.61891239  0.61173980  1
  N  N6  1  0.88108761  0.10795293  0.36173980  1
  N  N7  1  0.11891239  0.89204707  0.86173980  1
  N  N8  1  0.41819607  0.39732442  0.38688912  1
  N  N9  1  0.58180393  0.60267558  0.88688912  1
  N  N10  1  0.89732442  0.08180393  0.63688912  1
  N  N11  1  0.10267558  0.91819607  0.13688912  1
  N  N12  1  0.60267558  0.58180393  0.11311088  1
  N  N13  1  0.39732442  0.41819607  0.61311088  1
  N  N14  1  0.08180393  0.89732442  0.36311088  1
  N  N15  1  0.91819607  0.10267558  0.86311088  1
  N  N16  1  0.36460933  0.66131117  0.48577817  1
  N  N17  1  0.63539067  0.33868883  0.98577817  1
  N  N18  1  0.16131117  0.13539067  0.73577817  1
  N  N19  1  0.83868883  0.86460933  0.23577817  1
  N  N20  1  0.33868883  0.63539067  0.01422183  1
  N  N21  1  0.66131117  0.36460933  0.51422183  1
  N  N22  1  0.13539067  0.16131117  0.26422183  1
  N  N23  1  0.86460933  0.83868883  0.76422183  1
loop_
_geom_bond_atom_site_label_1
_geom_bond_atom_site_label_2
_geom_bond_distance
_geom_bond_site_symmetry_2
Mg0 N5 2.224407 1_555
Mg0 N0 2.224407 1_555
Mg0 N13 2.233593 1_555
Mg0 N8 2.233593 1_555
Mg0 N16 2.284467 1_555
Mg0 N21 2.284467 1_555
Mg1 N1 2.224407 1_554
Mg1 N4 2.224407 1_555
Mg1 N12 2.233593 1_555
Mg1 N9 2.233593 1_554
Mg1 N17 2.284467 1_554
Mg1 N20 2.284467 1_555
Mg2 N7 2.224407 1_555
Mg2 N2 2.224407 1_555
Mg2 N10 2.233593 1_465
Mg2 N15 2.233593 1_465
Mg2 N23 2.284467 1_455
Mg2 N18 2.284467 1_565
Mg3 N6 2.224407 1_555
Mg3 N3 2.224407 1_555
Mg3 N14 2.233593 1_645
Mg3 N11 2.233593 1_645
Mg3 N19 2.284467 1_545
Mg3 N22 2.284467 1_655
B0 H96 1.225403 1_555
B0 H72 1.230162 1_555
B0 H80 1.232136 1_555
B0 H88 1.232172 1_555
B1 H97 1.225403 1_555
B1 H73 1.230162 1_555
B1 H81 1.232136 1_555
B1 H89 1.232172 1_555
B2 H98 1.225403 1_555
B2 H74 1.230162 1_555
B2 H82 1.232136 1_555
B2 H90 1.232172 1_545
B3 H99 1.225403 1_555
B3 H75 1.230162 1_554
B3 H83 1.232136 1_555
B3 H91 1.232172 1_565
B4 H100 1.225403 1_555
B4 H76 1.230162 1_555
B4 H84 1.232136 1_555
B4 H92 1.232172 1_555
B5 H101 1.225403 1_555
B5 H77 1.230162 1_555
B5 H85 1.232136 1_555
B5 H93 1.232172 1_555
B6 H102 1.225403 1_555
B6 H78 1.230162 1_555
B6 H86 1.232136 1_555
B6 H94 1.232172 1_455
B7 H103 1.225403 1_555
B7 H79 1.230162 1_556
B7 H87 1.232136 1_555
B7 H95 1.232172 1_655
B8 H128 1.225312 1_555
B8 H120 1.229071 1_555
B8 H104 1.229103 1_555
B8 H112 1.232108 1_565
B9 H129 1.225312 1_555
B9 H121 1.229071 1_555
B9 H105 1.229103 1_556
B9 H113 1.232108 1_545
B10 H130 1.225312 1_555
B10 H122 1.229071 1_555
B10 H106 1.229103 1_555
B10 H114 1.232108 1_555
B11 H131 1.225312 1_555
B11 H123 1.229071 1_555
B11 H107 1.229103 1_555
B11 H115 1.232108 1_555
B12 H132 1.225312 1_555
B12 H124 1.229071 1_555
B12 H108 1.229103 1_554
B12 H116 1.232108 1_455
B13 H133 1.225312 1_555
B13 H125 1.229071 1_555
B13 H109 1.229103 1_555
B13 H117 1.232108 1_655
B14 H134 1.225312 1_555
B14 H126 1.229071 1_555
B14 H110 1.229103 1_555
B14 H118 1.232108 1_555
B15 H135 1.225312 1_555
B15 H127 1.229071 1_555
B15 H111 1.229103 1_555
B15 H119 1.232108 1_555
H0 N0 1.022945 1_555
H1 N1 1.022945 1_555
H2 N2 1.022945 1_555
H3 N3 1.022945 1_555
H4 N4 1.022945 1_555
H5 N5 1.022945 1_555
H6 N6 1.022945 1_555
H7 N7 1.022945 1_555
H8 N0 1.026866 1_555
H9 N1 1.026866 1_555
H10 N2 1.026866 1_555
H11 N3 1.026866 1_555
H12 N4 1.026866 1_555
H13 N5 1.026866 1_555
H14 N6 1.026866 1_555
H15 N7 1.026866 1_555
H16 N0 1.027156 1_555
H17 N1 1.027156 1_555
H18 N2 1.027156 1_555
H19 N3 1.027156 1_555
H20 N4 1.027156 1_555
H21 N5 1.027156 1_555
H22 N6 1.027156 1_555
H23 N7 1.027156 1_555
H24 N8 1.028295 1_555
H25 N9 1.028295 1_555
H26 N10 1.028295 1_555
H27 N11 1.028295 1_555
H28 N12 1.028295 1_555
H29 N13 1.028295 1_555
H30 N14 1.028295 1_555
H31 N15 1.028295 1_555
H32 N8 1.021508 1_555
H33 N9 1.021508 1_555
H34 N10 1.021508 1_555
H35 N11 1.021508 1_555
H36 N12 1.021508 1_555
H37 N13 1.021508 1_555
H38 N14 1.021508 1_555
H39 N15 1.021508 1_555
H40 N8 1.027825 1_555
H41 N9 1.027825 1_555
H42 N10 1.027825 1_555
H43 N11 1.027825 1_555
H44 N12 1.027825 1_555
H45 N13 1.027825 1_555
H46 N14 1.027825 1_555
H47 N15 1.027825 1_555
H48 N16 1.023137 1_555
H49 N17 1.023137 1_555
H50 N18 1.023137 1_555
H51 N19 1.023137 1_555
H52 N20 1.023137 1_555
H53 N21 1.023137 1_555
H54 N22 1.023137 1_555
H55 N23 1.023137 1_555
H56 N16 1.024453 1_555
H57 N17 1.024453 1_554
H58 N18 1.024453 1_555
H59 N19 1.024453 1_555
H60 N20 1.024453 1_556
H61 N21 1.024453 1_555
H62 N22 1.024453 1_555
H63 N23 1.024453 1_555
H64 N16 1.025180 1_555
H65 N17 1.025180 1_555
H66 N18 1.025180 1_555
H67 N19 1.025180 1_555
H68 N20 1.025180 1_555
H69 N21 1.025180 1_555
H70 N22 1.025180 1_555
H71 N23 1.025180 1_555
H72 Li3 2.025274 1_555
H73 Li2 2.025274 1_555
H74 Li0 2.025274 1_555
H75 Li1 2.025274 1_555
H76 Li6 2.025274 1_555
H77 Li7 2.025274 1_555
H78 Li5 2.025274 1_555
H79 Li4 2.025274 1_555
H80 Li0 2.019074 1_565
H81 Li1 2.019074 1_545
H82 Li2 2.019074 1_555
H83 Li3 2.019074 1_555
H84 Li4 2.019074 1_455
H85 Li5 2.019074 1_655
H86 Li6 2.019074 1_555
H87 Li7 2.019074 1_555
H88 Li0 2.163350 1_565
H88 Li3 2.254261 1_555
H89 Li1 2.163350 1_545
H89 Li2 2.254261 1_555
H90 Li2 2.163350 1_565
H90 Li0 2.254261 1_565
H91 Li3 2.163350 1_545
H91 Li1 2.254261 1_544
H92 Li4 2.163350 1_455
H92 Li6 2.254261 1_555
H93 Li5 2.163350 1_655
H93 Li7 2.254261 1_555
H94 Li6 2.163350 1_655
H94 Li5 2.254261 1_655
H95 Li7 2.163350 1_455
H95 Li4 2.254261 1_456
H104 Li2 1.944867 1_565
H105 Li3 1.944867 1_545
H106 Li1 1.944867 1_555
H107 Li0 1.944867 1_555
H108 Li7 1.944867 1_455
H109 Li6 1.944867 1_655
H110 Li4 1.944867 1_555
H111 Li5 1.944867 1_555
H112 Li2 2.251968 1_555
H112 Li0 2.276789 1_555
H113 Li3 2.251968 1_556
H113 Li1 2.276789 1_555
H114 Li1 2.251968 1_555
H114 Li2 2.276789 1_565
H115 Li0 2.251968 1_555
H115 Li3 2.276789 1_545
H116 Li7 2.251968 1_554
H116 Li4 2.276789 1_555
H117 Li6 2.251968 1_555
H117 Li5 2.276789 1_555
H118 Li4 2.251968 1_555
H118 Li6 2.276789 1_655
H119 Li5 2.251968 1_555
H119 Li7 2.276789 1_455
H120 Li0 2.004819 1_565
H121 Li1 2.004819 1_545
H122 Li2 2.004819 1_565
H123 Li3 2.004819 1_545
H124 Li4 2.004819 1_455
H125 Li5 2.004819 1_655
H126 Li6 2.004819 1_655
H127 Li7 2.004819 1_455
