# generated using pymatgen
data_Ca4MnFe3O10
_symmetry_space_group_name_H-M   'P 1'
_cell_length_a   5.44072300
_cell_length_b   5.63235100
_cell_length_c   16.19781733
_cell_angle_alpha   69.73191990
_cell_angle_beta   90.00000000
_cell_angle_gamma   90.00000000
_symmetry_Int_Tables_number   1
_chemical_formula_structural   Ca4MnFe3O10
_chemical_formula_sum   'Ca8 Mn2 Fe6 O20'
_cell_volume   465.63290047
_cell_formula_units_Z   2
loop_
 _symmetry_equiv_pos_site_id
 _symmetry_equiv_pos_as_xyz
  1  'x, y, z'
loop_
 _atom_site_type_symbol
 _atom_site_label
 _atom_site_symmetry_multiplicity
 _atom_site_fract_x
 _atom_site_fract_y
 _atom_site_fract_z
 _atom_site_occupancy
  Ca  Ca0  1  0.52028000  0.13391600  0.89089700  1
  Ca  Ca1  1  0.02028000  0.86608400  0.60910300  1
  Ca  Ca2  1  0.47678400  0.58433000  0.39082900  1
  Ca  Ca3  1  0.97678400  0.41567000  0.10917100  1
  Ca  Ca4  1  0.47972000  0.86608400  0.10910300  1
  Ca  Ca5  1  0.97972000  0.13391600  0.39089700  1
  Ca  Ca6  1  0.52321600  0.41567000  0.60917100  1
  Ca  Ca7  1  0.02321600  0.58433000  0.89082900  1
  Mn  Mn0  1  0.50000000  0.50000000  0.00000000  1
  Mn  Mn1  1  0.00000000  0.50000000  0.50000000  1
  Fe  Fe0  1  0.55149000  0.81637400  0.74767500  1
  Fe  Fe1  1  0.05149000  0.18362600  0.75232500  1
  Fe  Fe2  1  0.44851000  0.18362600  0.25232500  1
  Fe  Fe3  1  0.94851000  0.81637400  0.24767500  1
  Fe  Fe4  1  0.50000000  0.00000000  0.50000000  1
  Fe  Fe5  1  0.00000000  0.00000000  0.00000000  1
  O  O0  1  0.46376300  0.56562800  0.85212200  1
  O  O1  1  0.96376300  0.43437200  0.64787800  1
  O  O2  1  0.52684800  0.20512000  0.36349900  1
  O  O3  1  0.02684800  0.79488000  0.13650100  1
  O  O4  1  0.53623700  0.43437200  0.14787800  1
  O  O5  1  0.03623700  0.56562800  0.35212200  1
  O  O6  1  0.47315200  0.79488000  0.63650100  1
  O  O7  1  0.97315200  0.20512000  0.86349900  1
  O  O8  1  0.23470900  0.25434600  0.01554900  1
  O  O9  1  0.73470900  0.74565400  0.48445100  1
  O  O10  1  0.76913100  0.21975600  0.51603800  1
  O  O11  1  0.26913100  0.78024400  0.98396200  1
  O  O12  1  0.76529100  0.74565400  0.98445100  1
  O  O13  1  0.26529100  0.25434600  0.51554900  1
  O  O14  1  0.23086900  0.78024400  0.48396200  1
  O  O15  1  0.73086900  0.21975600  0.01603800  1
  O  O16  1  0.40936700  0.13241100  0.74980700  1
  O  O17  1  0.90936700  0.86758900  0.75019300  1
  O  O18  1  0.59063300  0.86758900  0.25019300  1
  O  O19  1  0.09063300  0.13241100  0.24980700  1
loop_
_geom_bond_atom_site_label_1
_geom_bond_atom_site_label_2
_geom_bond_distance
_geom_bond_site_symmetry_2
Ca0 O0 2.311580 1_555
Ca0 O16 2.366530 1_555
Ca0 O11 2.455030 1_545
Ca0 O7 2.511082 1_555
Ca0 O15 2.516798 1_556
Ca0 O12 2.561177 1_545
Ca0 O8 2.810642 1_556
Ca0 O7 3.015899 1_455
Ca1 O1 2.311580 1_455
Ca1 O17 2.366530 1_455
Ca1 O10 2.455030 1_465
Ca1 O6 2.511082 1_555
Ca1 O14 2.516798 1_555
Ca1 O13 2.561177 1_565
Ca1 O9 2.810642 1_455
Ca1 O6 3.015899 1_455
Ca2 O2 2.342449 1_555
Ca2 O18 2.366500 1_555
Ca2 O9 2.459513 1_555
Ca2 O5 2.488984 1_555
Ca2 O13 2.501642 1_555
Ca2 O14 2.537077 1_555
Ca2 O10 2.823892 1_555
Ca3 O3 2.342449 1_655
Ca3 O19 2.366500 1_655
Ca3 O8 2.459513 1_655
Ca3 O4 2.488984 1_555
Ca3 O12 2.501642 1_554
Ca3 O15 2.537077 1_555
Ca3 O11 2.823892 1_654
Ca4 O4 2.311580 1_555
Ca4 O18 2.366530 1_555
Ca4 O15 2.455030 1_565
Ca4 O3 2.511082 1_555
Ca4 O11 2.516798 1_554
Ca4 O8 2.561177 1_565
Ca4 O12 2.810642 1_554
Ca4 O3 3.015899 1_655
Ca5 O5 2.311580 1_655
Ca5 O19 2.366530 1_655
Ca5 O14 2.455030 1_645
Ca5 O2 2.511082 1_555
Ca5 O10 2.516798 1_555
Ca5 O9 2.561177 1_545
Ca5 O13 2.810642 1_655
Ca5 O2 3.015899 1_655
Ca6 O6 2.342449 1_555
Ca6 O16 2.366500 1_555
Ca6 O13 2.459513 1_555
Ca6 O1 2.488984 1_555
Ca6 O9 2.501642 1_555
Ca6 O10 2.537077 1_555
Ca6 O14 2.823892 1_555
Ca7 O7 2.342449 1_455
Ca7 O17 2.366500 1_455
Ca7 O12 2.459513 1_455
Ca7 O0 2.488984 1_555
Ca7 O8 2.501642 1_556
Ca7 O11 2.537077 1_555
Ca7 O15 2.823892 1_456
Mn0 O8 1.954407 1_555
Mn0 O12 1.954407 1_554
Mn0 O15 1.962809 1_555
Mn0 O11 1.962809 1_554
Mn0 O0 2.302074 1_554
Mn0 O4 2.302074 1_555
Mn1 O13 1.954407 1_555
Mn1 O9 1.954407 1_455
Mn1 O10 1.962809 1_455
Mn1 O14 1.962809 1_555
Mn1 O1 2.302074 1_455
Mn1 O5 2.302074 1_555
Fe0 O0 1.851815 1_555
Fe0 O6 1.894769 1_555
Fe0 O16 1.951976 1_565
Fe0 O17 1.970853 1_555
Fe1 O1 1.851815 1_455
Fe1 O7 1.894769 1_455
Fe1 O17 1.951976 1_445
Fe1 O16 1.970853 1_555
Fe2 O4 1.851815 1_555
Fe2 O2 1.894769 1_555
Fe2 O18 1.951976 1_545
Fe2 O19 1.970853 1_555
Fe3 O5 1.851815 1_655
Fe3 O3 1.894769 1_655
Fe3 O19 1.951976 1_665
Fe3 O18 1.970853 1_555
Fe4 O14 1.991568 1_545
Fe4 O10 1.991568 1_555
Fe4 O9 1.999087 1_545
Fe4 O13 1.999087 1_555
Fe4 O2 2.115400 1_555
Fe4 O6 2.115400 1_545
Fe5 O11 1.991568 1_544
Fe5 O15 1.991568 1_455
Fe5 O12 1.999087 1_444
Fe5 O8 1.999087 1_555
Fe5 O7 2.115400 1_454
Fe5 O3 2.115400 1_545
