# generated using pymatgen
data_RbGaSnSe4
_symmetry_space_group_name_H-M   'P 1'
_cell_length_a   13.19065000
_cell_length_b   7.71238800
_cell_length_c   18.69758810
_cell_angle_alpha   84.28151235
_cell_angle_beta   90.00000000
_cell_angle_gamma   90.00000000
_symmetry_Int_Tables_number   1
_chemical_formula_structural   RbGaSnSe4
_chemical_formula_sum   'Rb8 Ga8 Sn8 Se32'
_cell_volume   1892.66599924
_cell_formula_units_Z   8
loop_
 _symmetry_equiv_pos_site_id
 _symmetry_equiv_pos_as_xyz
  1  'x, y, z'
loop_
 _atom_site_type_symbol
 _atom_site_label
 _atom_site_symmetry_multiplicity
 _atom_site_fract_x
 _atom_site_fract_y
 _atom_site_fract_z
 _atom_site_occupancy
  Rb  Rb0  1  0.43286500  0.76962200  0.33297500  1
  Rb  Rb1  1  0.56713500  0.23037800  0.66702500  1
  Rb  Rb2  1  0.93286500  0.23037800  0.16702500  1
  Rb  Rb3  1  0.06713500  0.76962200  0.83297500  1
  Rb  Rb4  1  0.60708900  0.24809600  0.04919100  1
  Rb  Rb5  1  0.39291100  0.75190400  0.95080900  1
  Rb  Rb6  1  0.10708900  0.75190400  0.45080900  1
  Rb  Rb7  1  0.89291100  0.24809600  0.54919100  1
  Ga  Ga0  1  0.75369500  0.98523200  0.34345900  1
  Ga  Ga1  1  0.24630500  0.01476800  0.65654100  1
  Ga  Ga2  1  0.25369500  0.01476800  0.15654100  1
  Ga  Ga3  1  0.74630500  0.98523200  0.84345900  1
  Ga  Ga4  1  0.75160300  0.47346600  0.35536300  1
  Ga  Ga5  1  0.24839700  0.52653400  0.64463700  1
  Ga  Ga6  1  0.25160300  0.52653400  0.14463700  1
  Ga  Ga7  1  0.74839700  0.47346600  0.85536300  1
  Sn  Sn0  1  0.70295200  0.74118800  0.18264600  1
  Sn  Sn1  1  0.29704800  0.25881200  0.81735400  1
  Sn  Sn2  1  0.20295200  0.25881200  0.31735400  1
  Sn  Sn3  1  0.79704800  0.74118800  0.68264600  1
  Sn  Sn4  1  0.81630800  0.72154800  0.01393100  1
  Sn  Sn5  1  0.18369200  0.27845200  0.98606900  1
  Sn  Sn6  1  0.31630800  0.27845200  0.48606900  1
  Sn  Sn7  1  0.68369200  0.72154800  0.51393100  1
  Se  Se0  1  0.16193000  0.96442400  0.27355800  1
  Se  Se1  1  0.83807000  0.03557600  0.72644200  1
  Se  Se2  1  0.66193000  0.03557600  0.22644200  1
  Se  Se3  1  0.33807000  0.96442400  0.77355800  1
  Se  Se4  1  0.86101000  0.72865100  0.34684800  1
  Se  Se5  1  0.13899000  0.27134900  0.65315200  1
  Se  Se6  1  0.36101000  0.27134900  0.15315200  1
  Se  Se7  1  0.63899000  0.72865100  0.84684800  1
  Se  Se8  1  0.62687900  0.75037500  0.05243400  1
  Se  Se9  1  0.37312100  0.24962500  0.94756600  1
  Se  Se10  1  0.12687900  0.24962500  0.44756600  1
  Se  Se11  1  0.87312100  0.75037500  0.55243400  1
  Se  Se12  1  0.62438700  0.48352100  0.25838800  1
  Se  Se13  1  0.37561300  0.51647900  0.74161200  1
  Se  Se14  1  0.12438700  0.51647900  0.24161200  1
  Se  Se15  1  0.87561300  0.48352100  0.75838800  1
  Se  Se16  1  0.61707300  0.98238300  0.43351000  1
  Se  Se17  1  0.38292700  0.01761700  0.56649000  1
  Se  Se18  1  0.11707300  0.01761700  0.06649000  1
  Se  Se19  1  0.88292700  0.98238300  0.93351000  1
  Se  Se20  1  0.89124500  0.71534200  0.14316500  1
  Se  Se21  1  0.10875500  0.28465800  0.85683500  1
  Se  Se22  1  0.39124500  0.28465800  0.35683500  1
  Se  Se23  1  0.60875500  0.71534200  0.64316500  1
  Se  Se24  1  0.36806500  0.77147000  0.14629800  1
  Se  Se25  1  0.63193500  0.22853000  0.85370200  1
  Se  Se26  1  0.86806500  0.22853000  0.35370200  1
  Se  Se27  1  0.13193500  0.77147000  0.64629800  1
  Se  Se28  1  0.65114200  0.42566600  0.46853100  1
  Se  Se29  1  0.34885800  0.57433400  0.53146900  1
  Se  Se30  1  0.15114200  0.57433400  0.03146900  1
  Se  Se31  1  0.84885800  0.42566600  0.96853100  1
loop_
_geom_bond_atom_site_label_1
_geom_bond_atom_site_label_2
_geom_bond_distance
_geom_bond_site_symmetry_2
Rb0 Se16 3.569981 1_555
Rb0 Se24 3.592193 1_555
Rb0 Se12 3.716054 1_555
Rb0 Se22 3.762609 1_555
Rb0 Se0 3.991351 1_555
Rb0 Se29 4.019526 1_555
Rb0 Se2 4.060818 1_565
Rb0 Se22 4.078186 1_565
Rb1 Se17 3.569981 1_555
Rb1 Se25 3.592193 1_555
Rb1 Se13 3.716054 1_555
Rb1 Se23 3.762609 1_555
Rb1 Se1 3.991351 1_555
Rb1 Se28 4.019526 1_555
Rb1 Se3 4.060818 1_545
Rb1 Se23 4.078186 1_545
Rb2 Se18 3.569981 1_655
Rb2 Se26 3.592193 1_555
Rb2 Se14 3.716054 1_655
Rb2 Se20 3.762609 1_555
Rb2 Se2 3.991351 1_555
Rb2 Se31 4.019526 1_554
Rb2 Se0 4.060818 1_645
Rb2 Se20 4.078186 1_545
Rb3 Se19 3.569981 1_455
Rb3 Se27 3.592193 1_555
Rb3 Se15 3.716054 1_455
Rb3 Se21 3.762609 1_555
Rb3 Se3 3.991351 1_555
Rb3 Se30 4.019526 1_556
Rb3 Se1 4.060818 1_465
Rb3 Se21 4.078186 1_565
Rb4 Se2 3.620901 1_555
Rb4 Se9 3.623642 1_554
Rb4 Se25 3.687870 1_554
Rb4 Se31 3.729438 1_554
Rb4 Se6 3.796868 1_555
Rb4 Se8 3.841929 1_545
Rb4 Se8 3.889052 1_555
Rb5 Se3 3.620901 1_555
Rb5 Se8 3.623642 1_556
Rb5 Se24 3.687870 1_556
Rb5 Se30 3.729438 1_556
Rb5 Se7 3.796868 1_555
Rb5 Se9 3.841929 1_565
Rb5 Se9 3.889052 1_555
Rb6 Se0 3.620901 1_555
Rb6 Se11 3.623642 1_455
Rb6 Se27 3.687870 1_555
Rb6 Se29 3.729438 1_555
Rb6 Se4 3.796868 1_455
Rb6 Se10 3.841929 1_565
Rb6 Se10 3.889052 1_555
Rb7 Se1 3.620901 1_555
Rb7 Se10 3.623642 1_655
Rb7 Se26 3.687870 1_555
Rb7 Se28 3.729438 1_555
Rb7 Se5 3.796868 1_655
Rb7 Se11 3.841929 1_545
Rb7 Se11 3.889052 1_555
Ga0 Se4 2.428719 1_555
Ga0 Se26 2.430046 1_565
Ga0 Se16 2.464906 1_555
Ga0 Se2 2.496736 1_565
Ga1 Se5 2.428719 1_555
Ga1 Se27 2.430046 1_545
Ga1 Se17 2.464906 1_555
Ga1 Se3 2.496736 1_545
Ga2 Se6 2.428719 1_555
Ga2 Se24 2.430046 1_545
Ga2 Se18 2.464906 1_555
Ga2 Se0 2.496736 1_545
Ga3 Se7 2.428719 1_555
Ga3 Se25 2.430046 1_565
Ga3 Se19 2.464906 1_555
Ga3 Se1 2.496736 1_565
Ga4 Se4 2.432889 1_555
Ga4 Se26 2.437432 1_555
Ga4 Se12 2.466085 1_555
Ga4 Se28 2.492747 1_555
Ga5 Se5 2.432889 1_555
Ga5 Se27 2.437432 1_555
Ga5 Se13 2.466085 1_555
Ga5 Se29 2.492747 1_555
Ga6 Se6 2.432889 1_555
Ga6 Se24 2.437432 1_555
Ga6 Se14 2.466085 1_555
Ga6 Se30 2.492747 1_555
Ga7 Se7 2.432889 1_555
Ga7 Se25 2.437432 1_555
Ga7 Se15 2.466085 1_555
Ga7 Se31 2.492747 1_555
Se0 Sn2 2.547301 1_565
Se1 Sn3 2.547301 1_545
Se2 Sn0 2.547301 1_545
Se3 Sn1 2.547301 1_565
Se8 Sn4 2.615924 1_555
Se8 Sn0 2.627752 1_555
Se9 Sn5 2.615924 1_555
Se9 Sn1 2.627752 1_555
Se10 Sn6 2.615924 1_555
Se10 Sn2 2.627752 1_555
Se11 Sn7 2.615924 1_555
Se11 Sn3 2.627752 1_555
Se12 Sn0 2.543188 1_555
Se13 Sn1 2.543188 1_555
Se14 Sn2 2.543188 1_555
Se15 Sn3 2.543188 1_555
Se16 Sn7 2.545039 1_555
Se17 Sn6 2.545039 1_555
Se18 Sn5 2.545039 1_554
Se19 Sn4 2.545039 1_556
Se20 Sn0 2.604380 1_555
Se20 Sn4 2.606746 1_555
Se21 Sn1 2.604380 1_555
Se21 Sn5 2.606746 1_555
Se22 Sn2 2.604380 1_555
Se22 Sn6 2.606746 1_555
Se23 Sn3 2.604380 1_555
Se23 Sn7 2.606746 1_555
Se28 Sn7 2.549172 1_555
Se29 Sn6 2.549172 1_555
Se30 Sn5 2.549172 1_554
Se31 Sn4 2.549172 1_556
