# generated using pymatgen
data_NaNpSeO6
_symmetry_space_group_name_H-M   'P 1'
_cell_length_a   8.41695398
_cell_length_b   8.41695398
_cell_length_c   6.84217823
_cell_angle_alpha   70.39076664
_cell_angle_beta   109.60923336
_cell_angle_gamma   128.81402202
_symmetry_Int_Tables_number   1
_chemical_formula_structural   NaNpSeO6
_chemical_formula_sum   'Na2 Np2 Se2 O12'
_cell_volume   350.57448811
_cell_formula_units_Z   2
loop_
 _symmetry_equiv_pos_site_id
 _symmetry_equiv_pos_as_xyz
  1  'x, y, z'
loop_
 _atom_site_type_symbol
 _atom_site_label
 _atom_site_symmetry_multiplicity
 _atom_site_fract_x
 _atom_site_fract_y
 _atom_site_fract_z
 _atom_site_occupancy
  Na  Na0  1  0.53704800  0.46295200  0.79134200  1
  Na  Na1  1  0.46295200  0.53704800  0.20865800  1
  Np  Np0  1  0.73723900  0.26276100  0.63140400  1
  Np  Np1  1  0.26276100  0.73723900  0.36859600  1
  Se  Se0  1  0.20330300  0.79669700  0.79992800  1
  Se  Se1  1  0.79669700  0.20330300  0.20007200  1
  O  O0  1  0.06847200  0.58530900  0.67536200  1
  O  O1  1  0.41469100  0.93152800  0.67536200  1
  O  O2  1  0.93152800  0.41469100  0.32463800  1
  O  O3  1  0.58530900  0.06847200  0.32463800  1
  O  O4  1  0.86343200  0.13656800  0.76522500  1
  O  O5  1  0.13656800  0.86343200  0.23477500  1
  O  O6  1  0.71061400  0.28938600  0.94972800  1
  O  O7  1  0.28938600  0.71061400  0.05027200  1
  O  O8  1  0.60755400  0.39244600  0.50877300  1
  O  O9  1  0.39244600  0.60755400  0.49122700  1
  O  O10  1  0.29341000  0.29341000  0.00000000  1
  O  O11  1  0.70659000  0.70659000  0.00000000  1
loop_
_geom_bond_atom_site_label_1
_geom_bond_atom_site_label_2
_geom_bond_distance
_geom_bond_site_symmetry_2
Na0 O10 2.282353 1_556
Na0 O11 2.282353 1_556
Na0 O9 2.383546 1_555
Na0 O6 2.448062 1_555
Na0 O8 2.534573 1_555
Na1 O10 2.282353 1_555
Na1 O11 2.282353 1_555
Na1 O8 2.383546 1_555
Na1 O7 2.448062 1_555
Na1 O9 2.534573 1_555
Np0 O4 1.789824 1_555
Np0 O8 1.830613 1_555
Np0 O6 2.358483 1_555
Np0 O1 2.393872 1_545
Np0 O0 2.393872 1_655
Np0 O2 2.568250 1_555
Np0 O3 2.568250 1_555
Np1 O5 1.789824 1_555
Np1 O9 1.830613 1_555
Np1 O7 2.358483 1_555
Np1 O3 2.393872 1_565
Np1 O2 2.393872 1_455
Np1 O1 2.568250 1_555
Np1 O0 2.568250 1_555
O0 Se0 1.737074 1_555
O1 Se0 1.737074 1_555
O2 Se1 1.737074 1_555
O3 Se1 1.737074 1_555
O6 Se1 1.725120 1_556
O7 Se0 1.725120 1_554
