# generated using pymatgen
data_DySbIr
_symmetry_space_group_name_H-M   'P 1'
_cell_length_a   4.51597856
_cell_length_b   7.16167926
_cell_length_c   7.83995344
_cell_angle_alpha   90.00000000
_cell_angle_beta   90.00000000
_cell_angle_gamma   90.00000000
_symmetry_Int_Tables_number   1
_chemical_formula_structural   DySbIr
_chemical_formula_sum   'Dy4 Sb4 Ir4'
_cell_volume   253.55969569
_cell_formula_units_Z   4
loop_
 _symmetry_equiv_pos_site_id
 _symmetry_equiv_pos_as_xyz
  1  'x, y, z'
loop_
 _atom_site_type_symbol
 _atom_site_label
 _atom_site_symmetry_multiplicity
 _atom_site_fract_x
 _atom_site_fract_y
 _atom_site_fract_z
 _atom_site_occupancy
  Dy  Dy0  1  0.25000000  0.51241380  0.19379626  1
  Dy  Dy1  1  0.75000000  0.48759807  0.80619499  1
  Dy  Dy2  1  0.75000000  0.98759807  0.69380501  1
  Dy  Dy3  1  0.25000000  0.01241380  0.30620374  1
  Sb  Sb0  1  0.25000000  0.67890884  0.58823478  1
  Sb  Sb1  1  0.75000000  0.32107307  0.41178819  1
  Sb  Sb2  1  0.75000000  0.82107307  0.08821181  1
  Sb  Sb3  1  0.25000000  0.17890884  0.91176522  1
  Ir  Ir0  1  0.25000000  0.79245757  0.91279606  1
  Ir  Ir1  1  0.75000000  0.20754765  0.08719321  1
  Ir  Ir2  1  0.75000000  0.70754765  0.41280679  1
  Ir  Ir3  1  0.25000000  0.29245757  0.58720394  1
loop_
_geom_bond_atom_site_label_1
_geom_bond_atom_site_label_2
_geom_bond_distance
_geom_bond_site_symmetry_2
Dy0 Ir0 2.979211 1_554
Dy0 Sb1 3.145971 1_455
Dy0 Sb1 3.145971 1_555
Dy0 Ir2 3.162228 1_455
Dy0 Ir2 3.162228 1_555
Dy0 Ir1 3.250238 1_555
Dy0 Ir1 3.250238 1_455
Dy0 Sb3 3.254801 1_554
Dy0 Sb2 3.266516 1_455
Dy0 Sb2 3.266516 1_555
Dy0 Sb0 3.314301 1_555
Dy0 Ir3 3.463282 1_555
Dy1 Ir1 2.979232 1_556
Dy1 Sb0 3.145743 1_555
Dy1 Sb0 3.145743 1_655
Dy1 Ir3 3.162166 1_655
Dy1 Ir3 3.162166 1_555
Dy1 Ir0 3.250202 1_655
Dy1 Ir0 3.250202 1_555
Dy1 Sb2 3.254568 1_556
Dy1 Sb3 3.266632 1_655
Dy1 Sb3 3.266632 1_555
Dy1 Sb1 3.314146 1_555
Dy1 Ir2 3.463125 1_555
Dy2 Ir2 2.979232 1_555
Dy2 Sb3 3.145743 1_665
Dy2 Sb3 3.145743 1_565
Dy2 Ir0 3.162166 1_555
Dy2 Ir0 3.162166 1_655
Dy2 Ir3 3.250202 1_665
Dy2 Ir3 3.250202 1_565
Dy2 Sb1 3.254568 1_565
Dy2 Sb0 3.266632 1_555
Dy2 Sb0 3.266632 1_655
Dy2 Sb2 3.314146 1_556
Dy2 Ir1 3.463125 1_566
Dy3 Ir3 2.979211 1_555
Dy3 Sb2 3.145971 1_545
Dy3 Sb2 3.145971 1_445
Dy3 Ir1 3.162228 1_555
Dy3 Ir1 3.162228 1_455
Dy3 Ir2 3.250238 1_445
Dy3 Ir2 3.250238 1_545
Dy3 Sb0 3.254801 1_545
Dy3 Sb1 3.266516 1_555
Dy3 Sb1 3.266516 1_455
Dy3 Sb3 3.314301 1_554
Dy3 Ir0 3.463282 1_544
Ir0 Sb2 2.651760 1_556
Ir0 Sb2 2.651760 1_456
Ir0 Sb0 2.671330 1_555
Ir0 Sb3 2.767652 1_565
Ir1 Sb3 2.651822 1_654
Ir1 Sb3 2.651822 1_554
Ir1 Sb1 2.671531 1_555
Ir1 Sb2 2.767819 1_545
Ir2 Sb0 2.651822 1_555
Ir2 Sb0 2.651822 1_655
Ir2 Sb2 2.671531 1_555
Ir2 Sb1 2.767819 1_555
Ir3 Sb1 2.651760 1_455
Ir3 Sb1 2.651760 1_555
Ir3 Sb3 2.671330 1_555
Ir3 Sb0 2.767652 1_555
