# generated using pymatgen
data_HfTiO4
_symmetry_space_group_name_H-M   'P 1'
_cell_length_a   4.75306300
_cell_length_b   5.10301000
_cell_length_c   5.66338500
_cell_angle_alpha   90.00000000
_cell_angle_beta   90.00000000
_cell_angle_gamma   90.00000000
_symmetry_Int_Tables_number   1
_chemical_formula_structural   HfTiO4
_chemical_formula_sum   'Hf2 Ti2 O8'
_cell_volume   137.36499552
_cell_formula_units_Z   2
loop_
 _symmetry_equiv_pos_site_id
 _symmetry_equiv_pos_as_xyz
  1  'x, y, z'
loop_
 _atom_site_type_symbol
 _atom_site_label
 _atom_site_symmetry_multiplicity
 _atom_site_fract_x
 _atom_site_fract_y
 _atom_site_fract_z
 _atom_site_occupancy
  Hf  Hf0  1  0.00000000  0.00000000  0.07772700  1
  Hf  Hf1  1  0.50000000  0.50000000  0.92227300  1
  Ti  Ti0  1  0.00000000  0.50000000  0.43031800  1
  Ti  Ti1  1  0.50000000  0.00000000  0.56968200  1
  O  O0  1  0.71970000  0.16256900  0.85299400  1
  O  O1  1  0.78030000  0.66256900  0.14700600  1
  O  O2  1  0.21970000  0.33743100  0.14700600  1
  O  O3  1  0.28030000  0.83743100  0.85299400  1
  O  O4  1  0.26544500  0.32510200  0.62676900  1
  O  O5  1  0.23455500  0.82510200  0.37323100  1
  O  O6  1  0.76544500  0.17489800  0.37323100  1
  O  O7  1  0.73455500  0.67489800  0.62676900  1
loop_
_geom_bond_atom_site_label_1
_geom_bond_atom_site_label_2
_geom_bond_distance
_geom_bond_site_symmetry_2
Hf0 O0 2.020666 1_454
Hf0 O3 2.020666 1_544
Hf0 O1 2.051678 1_445
Hf0 O2 2.051678 1_555
Hf0 O6 2.200056 1_455
Hf0 O5 2.200056 1_545
Hf1 O2 2.020666 1_556
Hf1 O1 2.020666 1_556
Hf1 O3 2.051678 1_555
Hf1 O0 2.051678 1_555
Hf1 O4 2.200056 1_555
Hf1 O7 2.200056 1_555
O0 Ti1 2.086411 1_555
O1 Ti0 2.086411 1_655
O2 Ti0 2.086411 1_555
O3 Ti1 2.086411 1_565
O4 Ti0 1.904265 1_555
O4 Ti1 2.024773 1_555
O5 Ti1 1.904265 1_565
O5 Ti0 2.024773 1_555
O6 Ti1 1.904265 1_555
O6 Ti0 2.024773 1_655
O7 Ti0 1.904265 1_655
O7 Ti1 2.024773 1_565
