# generated using pymatgen
data_CdNi
_symmetry_space_group_name_H-M   'P 1'
_cell_length_a   8.57553648
_cell_length_b   8.57553648
_cell_length_c   8.57553648
_cell_angle_alpha   60.00000000
_cell_angle_beta   60.00000000
_cell_angle_gamma   60.00000000
_symmetry_Int_Tables_number   1
_chemical_formula_structural   CdNi
_chemical_formula_sum   'Cd12 Ni12'
_cell_volume   445.93226760
_cell_formula_units_Z   12
loop_
 _symmetry_equiv_pos_site_id
 _symmetry_equiv_pos_as_xyz
  1  'x, y, z'
loop_
 _atom_site_type_symbol
 _atom_site_label
 _atom_site_symmetry_multiplicity
 _atom_site_fract_x
 _atom_site_fract_y
 _atom_site_fract_z
 _atom_site_occupancy
  Cd  Cd0  1  0.98589500  0.51410500  0.98589500  1
  Cd  Cd1  1  0.73589500  0.26410500  0.73589500  1
  Cd  Cd2  1  0.98589500  0.98589500  0.51410500  1
  Cd  Cd3  1  0.51410500  0.98589500  0.98589500  1
  Cd  Cd4  1  0.98589500  0.51410500  0.51410500  1
  Cd  Cd5  1  0.51410500  0.51410500  0.98589500  1
  Cd  Cd6  1  0.26410500  0.26410500  0.73589500  1
  Cd  Cd7  1  0.73589500  0.73589500  0.26410500  1
  Cd  Cd8  1  0.26410500  0.73589500  0.26410500  1
  Cd  Cd9  1  0.73589500  0.26410500  0.26410500  1
  Cd  Cd10  1  0.26410500  0.73589500  0.73589500  1
  Cd  Cd11  1  0.51410500  0.98589500  0.51410500  1
  Ni  Ni0  1  0.92827800  0.92827800  0.92827800  1
  Ni  Ni1  1  0.03483300  0.32172200  0.32172200  1
  Ni  Ni2  1  0.32172200  0.32172200  0.03483300  1
  Ni  Ni3  1  0.32172200  0.03483300  0.32172200  1
  Ni  Ni4  1  0.92827800  0.92827800  0.21516700  1
  Ni  Ni5  1  0.92827800  0.21516700  0.92827800  1
  Ni  Ni6  1  0.21516700  0.92827800  0.92827800  1
  Ni  Ni7  1  0.32172200  0.32172200  0.32172200  1
  Ni  Ni8  1  0.62500000  0.62500000  0.12500000  1
  Ni  Ni9  1  0.62500000  0.12500000  0.62500000  1
  Ni  Ni10  1  0.12500000  0.62500000  0.62500000  1
  Ni  Ni11  1  0.62500000  0.62500000  0.62500000  1
loop_
_geom_bond_atom_site_label_1
_geom_bond_atom_site_label_2
_geom_bond_distance
_geom_bond_site_symmetry_2
Cd0 Ni10 2.530806 1_655
Cd0 Ni8 2.530806 1_556
Cd0 Ni2 2.637565 1_656
Cd0 Ni1 2.637565 1_656
Cd0 Ni5 3.136477 1_555
Cd0 Ni0 3.136486 1_555
Cd1 Ni9 2.530806 1_555
Cd1 Ni11 2.530806 1_555
Cd1 Ni0 2.637568 1_545
Cd1 Ni5 2.637572 1_555
Cd1 Ni2 3.136483 1_556
Cd1 Ni1 3.136483 1_655
Cd2 Ni10 2.530806 1_655
Cd2 Ni9 2.530806 1_565
Cd2 Ni3 2.637565 1_665
Cd2 Ni1 2.637565 1_665
Cd2 Ni4 3.136477 1_555
Cd2 Ni0 3.136486 1_555
Cd3 Ni9 2.530806 1_565
Cd3 Ni8 2.530806 1_556
Cd3 Ni3 2.637565 1_566
Cd3 Ni2 2.637565 1_566
Cd3 Ni6 3.136477 1_555
Cd3 Ni0 3.136486 1_555
Cd4 Ni11 2.530806 1_555
Cd4 Ni10 2.530806 1_655
Cd4 Ni7 2.637568 1_655
Cd4 Ni1 2.637572 1_655
Cd4 Ni4 3.136483 1_555
Cd4 Ni5 3.136483 1_555
Cd5 Ni11 2.530806 1_555
Cd5 Ni8 2.530806 1_556
Cd5 Ni7 2.637568 1_556
Cd5 Ni2 2.637572 1_556
Cd5 Ni5 3.136483 1_555
Cd5 Ni6 3.136483 1_555
Cd6 Ni9 2.530806 1_555
Cd6 Ni10 2.530806 1_555
Cd6 Ni6 2.637565 1_545
Cd6 Ni5 2.637565 1_455
Cd6 Ni2 3.136477 1_556
Cd6 Ni7 3.136486 1_555
Cd7 Ni8 2.530806 1_555
Cd7 Ni11 2.530806 1_555
Cd7 Ni0 2.637568 1_554
Cd7 Ni4 2.637572 1_555
Cd7 Ni1 3.136483 1_655
Cd7 Ni3 3.136483 1_565
Cd8 Ni10 2.530806 1_555
Cd8 Ni8 2.530806 1_555
Cd8 Ni6 2.637565 1_554
Cd8 Ni4 2.637565 1_455
Cd8 Ni3 3.136477 1_565
Cd8 Ni7 3.136486 1_555
Cd9 Ni9 2.530806 1_555
Cd9 Ni8 2.530806 1_555
Cd9 Ni4 2.637565 1_545
Cd9 Ni5 2.637565 1_554
Cd9 Ni1 3.136477 1_655
Cd9 Ni7 3.136486 1_555
Cd10 Ni10 2.530806 1_555
Cd10 Ni11 2.530806 1_555
Cd10 Ni0 2.637568 1_455
Cd10 Ni6 2.637572 1_555
Cd10 Ni2 3.136483 1_556
Cd10 Ni3 3.136483 1_565
Cd11 Ni11 2.530806 1_555
Cd11 Ni9 2.530806 1_565
Cd11 Ni7 2.637568 1_565
Cd11 Ni3 2.637572 1_565
Cd11 Ni4 3.136483 1_555
Cd11 Ni6 3.136483 1_555
Ni0 Ni6 2.460227 1_655
Ni0 Ni5 2.460227 1_565
Ni0 Ni4 2.460227 1_556
Ni1 Ni3 2.460227 1_555
Ni1 Ni7 2.460227 1_555
Ni1 Ni2 2.460227 1_555
Ni2 Ni3 2.460227 1_555
Ni2 Ni7 2.460227 1_555
Ni3 Ni7 2.460227 1_555
Ni4 Ni6 2.460227 1_654
Ni4 Ni5 2.460227 1_564
Ni5 Ni6 2.460227 1_645
