# generated using pymatgen
data_MoPd3
_symmetry_space_group_name_H-M   'P 1'
_cell_length_a   18.40507596
_cell_length_b   18.40507596
_cell_length_c   18.40507809
_cell_angle_alpha   17.30160424
_cell_angle_beta   17.30160424
_cell_angle_gamma   17.30160936
_symmetry_Int_Tables_number   1
_chemical_formula_structural   MoPd3
_chemical_formula_sum   'Mo8 Pd24'
_cell_volume   481.19086646
_cell_formula_units_Z   8
loop_
 _symmetry_equiv_pos_site_id
 _symmetry_equiv_pos_as_xyz
  1  'x, y, z'
loop_
 _atom_site_type_symbol
 _atom_site_label
 _atom_site_symmetry_multiplicity
 _atom_site_fract_x
 _atom_site_fract_y
 _atom_site_fract_z
 _atom_site_occupancy
  Mo  Mo0_0  1  0.00000000  0.00000000  0.00000000  1
  Mo  Mo0_1  1  0.00000000  1.00000000  0.50000000  1
  Mo  Mo0_2  1  0.00000000  0.50000000  0.00000000  1
  Mo  Mo0_3  1  0.00000000  0.50000000  0.50000000  1
  Mo  Mo0_4  1  0.50000000  0.00000000  0.00000000  1
  Mo  Mo0_5  1  0.50000000  1.00000000  0.50000000  1
  Mo  Mo0_6  1  0.50000000  0.50000000  0.00000000  1
  Mo  Mo0_7  1  0.50000000  0.50000000  0.50000000  1
  Pd  Pd0_0  1  0.12596778  0.12596777  0.12596778  1
  Pd  Pd0_1  1  0.12596777  0.12596777  0.62596778  1
  Pd  Pd0_2  1  0.12596777  0.62596777  0.12596778  1
  Pd  Pd0_3  1  0.12596778  0.62596777  0.62596778  1
  Pd  Pd0_4  1  0.62596778  0.12596777  0.12596778  1
  Pd  Pd0_5  1  0.62596778  0.12596777  0.62596778  1
  Pd  Pd0_6  1  0.62596778  0.62596777  0.12596778  1
  Pd  Pd0_7  1  0.62596778  0.62596777  0.62596778  1
  Pd  Pd1_0  1  0.25000000  0.25000000  0.25000000  1
  Pd  Pd1_1  1  0.25000000  0.25000000  0.75000000  1
  Pd  Pd1_2  1  0.25000000  0.75000000  0.25000000  1
  Pd  Pd1_3  1  0.25000000  0.75000000  0.75000000  1
  Pd  Pd1_4  1  0.75000000  0.25000000  0.25000000  1
  Pd  Pd1_5  1  0.75000000  0.25000000  0.75000000  1
  Pd  Pd1_6  1  0.75000000  0.75000000  0.25000000  1
  Pd  Pd1_7  1  0.75000000  0.75000000  0.75000000  1
  Pd  Pd2_0  1  0.37403223  0.37403222  0.37403223  1
  Pd  Pd2_1  1  0.37403222  0.37403222  0.87403223  1
  Pd  Pd2_2  1  0.37403222  0.87403223  0.37403223  1
  Pd  Pd2_3  1  0.37403223  0.87403222  0.87403223  1
  Pd  Pd2_4  1  0.87403223  0.37403222  0.37403223  1
  Pd  Pd2_5  1  0.87403223  0.37403222  0.87403223  1
  Pd  Pd2_6  1  0.87403222  0.87403222  0.37403223  1
  Pd  Pd2_7  1  0.87403222  0.87403222  0.87403222  1
loop_
_geom_bond_atom_site_label_1
_geom_bond_atom_site_label_2
_geom_bond_distance
_geom_bond_site_symmetry_2
Mo0_0 Pd0_4 2.729862 1_455
Mo0_0 Pd2_5 2.729862 1_454
Mo0_0 Pd0_2 2.729862 1_545
Mo0_0 Pd2_3 2.729862 1_544
Mo0_0 Pd0_1 2.729863 1_554
Mo0_0 Pd2_6 2.729863 1_445
Mo0_0 Mo0_3 2.768344 1_554
Mo0_0 Mo0_5 2.768344 1_544
Mo0_0 Mo0_3 2.768344 1_545
Mo0_0 Mo0_5 2.768344 1_445
Mo0_0 Mo0_6 2.768345 1_455
Mo0_0 Mo0_6 2.768345 1_545
Mo0_1 Pd0_3 2.729862 1_555
Mo0_1 Pd0_5 2.729862 1_465
Mo0_1 Pd2_2 2.729862 1_555
Mo0_1 Pd2_4 2.729862 1_465
Mo0_1 Pd2_7 2.729863 1_455
Mo0_1 Pd0_0 2.729863 1_565
Mo0_1 Mo0_2 2.768344 1_556
Mo0_1 Mo0_4 2.768344 1_466
Mo0_1 Mo0_4 2.768344 1_565
Mo0_1 Mo0_2 2.768344 1_565
Mo0_1 Mo0_7 2.768345 1_465
Mo0_1 Mo0_7 2.768345 1_555
Mo0_2 Pd2_7 2.729862 1_454
Mo0_2 Pd2_1 2.729862 1_554
Mo0_2 Pd0_0 2.729862 1_555
Mo0_2 Pd0_6 2.729862 1_455
Mo0_2 Pd0_3 2.729863 1_554
Mo0_2 Pd2_4 2.729863 1_455
Mo0_2 Mo0_7 2.768344 1_554
Mo0_2 Mo0_7 2.768344 1_455
Mo0_2 Mo0_4 2.768345 1_555
Mo0_2 Mo0_4 2.768345 1_465
Mo0_3 Pd0_7 2.729862 1_455
Mo0_3 Pd0_1 2.729862 1_555
Mo0_3 Pd2_6 2.729862 1_455
Mo0_3 Pd2_0 2.729862 1_555
Mo0_3 Pd0_2 2.729863 1_555
Mo0_3 Pd2_5 2.729863 1_455
Mo0_3 Mo0_6 2.768344 1_456
Mo0_3 Mo0_6 2.768344 1_555
Mo0_3 Mo0_5 2.768345 1_455
Mo0_3 Mo0_5 2.768345 1_545
Mo0_4 Pd2_1 2.729862 1_554
Mo0_4 Pd2_7 2.729862 1_544
Mo0_4 Pd0_0 2.729862 1_555
Mo0_4 Pd0_6 2.729862 1_545
Mo0_4 Pd0_5 2.729863 1_554
Mo0_4 Pd2_2 2.729863 1_545
Mo0_4 Mo0_7 2.768344 1_554
Mo0_4 Mo0_7 2.768344 1_545
Mo0_5 Pd0_1 2.729862 1_565
Mo0_5 Pd0_7 2.729862 1_555
Mo0_5 Pd2_6 2.729862 1_555
Mo0_5 Pd2_0 2.729862 1_565
Mo0_5 Pd0_4 2.729863 1_565
Mo0_5 Pd2_3 2.729863 1_555
Mo0_5 Mo0_6 2.768344 1_556
Mo0_5 Mo0_6 2.768344 1_565
Mo0_6 Pd0_4 2.729862 1_555
Mo0_6 Pd0_2 2.729862 1_555
Mo0_6 Pd2_3 2.729862 1_554
Mo0_6 Pd2_5 2.729862 1_554
Mo0_6 Pd0_7 2.729863 1_554
Mo0_6 Pd2_0 2.729863 1_555
Mo0_7 Pd0_5 2.729862 1_555
Mo0_7 Pd0_3 2.729862 1_555
Mo0_7 Pd2_2 2.729862 1_555
Mo0_7 Pd2_4 2.729862 1_555
Mo0_7 Pd0_6 2.729863 1_555
Mo0_7 Pd2_1 2.729863 1_555
Pd0_0 Pd0_3 2.768344 1_554
Pd0_0 Pd0_5 2.768344 1_554
Pd0_0 Pd0_5 2.768344 1_455
Pd0_0 Pd0_3 2.768344 1_545
Pd0_0 Pd0_6 2.768345 1_455
Pd0_0 Pd0_6 2.768345 1_545
Pd0_0 Pd1_2 2.815859 1_545
Pd0_0 Pd1_4 2.815859 1_455
Pd0_0 Pd1_1 2.815859 1_554
Pd0_1 Pd0_4 2.768344 1_456
Pd0_1 Pd0_2 2.768344 1_546
Pd0_1 Pd0_4 2.768344 1_555
Pd0_1 Pd0_2 2.768344 1_555
Pd0_1 Pd0_7 2.768345 1_545
Pd0_1 Pd0_7 2.768345 1_455
Pd0_1 Pd1_5 2.815859 1_455
Pd0_1 Pd1_3 2.815859 1_545
Pd0_1 Pd1_0 2.815859 1_555
Pd0_2 Pd0_7 2.768344 1_554
Pd0_2 Pd0_7 2.768344 1_455
Pd0_2 Pd0_4 2.768345 1_465
Pd0_2 Pd0_4 2.768345 1_555
Pd0_2 Pd1_0 2.815859 1_555
Pd0_2 Pd1_6 2.815859 1_455
Pd0_2 Pd1_3 2.815859 1_554
Pd0_3 Pd0_6 2.768344 1_456
Pd0_3 Pd0_6 2.768344 1_555
Pd0_3 Pd0_5 2.768345 1_555
Pd0_3 Pd0_5 2.768345 1_465
Pd0_3 Pd1_1 2.815859 1_555
Pd0_3 Pd1_7 2.815859 1_455
Pd0_3 Pd1_2 2.815859 1_555
Pd0_4 Pd0_7 2.768344 1_554
Pd0_4 Pd0_7 2.768344 1_545
Pd0_4 Pd1_0 2.815859 1_555
Pd0_4 Pd1_6 2.815859 1_545
Pd0_4 Pd1_5 2.815859 1_554
Pd0_5 Pd0_6 2.768344 1_546
Pd0_5 Pd0_6 2.768344 1_555
Pd0_5 Pd1_1 2.815859 1_555
Pd0_5 Pd1_7 2.815859 1_545
Pd0_5 Pd1_4 2.815859 1_555
Pd0_6 Pd1_2 2.815859 1_555
Pd0_6 Pd1_4 2.815859 1_555
Pd0_6 Pd1_7 2.815859 1_554
Pd0_7 Pd1_5 2.815859 1_555
Pd0_7 Pd1_3 2.815859 1_555
Pd0_7 Pd1_6 2.815859 1_555
Pd1_0 Pd1_5 2.768344 1_455
Pd1_0 Pd1_3 2.768344 1_545
Pd1_0 Pd1_5 2.768344 1_554
Pd1_0 Pd1_3 2.768344 1_554
Pd1_0 Pd1_6 2.768345 1_455
Pd1_0 Pd1_6 2.768345 1_545
Pd1_0 Pd2_2 2.815859 1_545
Pd1_0 Pd2_4 2.815859 1_455
Pd1_0 Pd2_1 2.815859 1_554
Pd1_1 Pd1_4 2.768344 1_555
Pd1_1 Pd1_2 2.768344 1_546
Pd1_1 Pd1_4 2.768344 1_456
Pd1_1 Pd1_2 2.768344 1_555
Pd1_1 Pd1_7 2.768345 1_545
Pd1_1 Pd1_7 2.768345 1_455
Pd1_1 Pd2_3 2.815859 1_545
Pd1_1 Pd2_5 2.815859 1_455
Pd1_1 Pd2_0 2.815859 1_555
Pd1_2 Pd1_7 2.768344 1_554
Pd1_2 Pd1_7 2.768344 1_455
Pd1_2 Pd1_4 2.768345 1_555
Pd1_2 Pd1_4 2.768345 1_465
Pd1_2 Pd2_0 2.815859 1_555
Pd1_2 Pd2_6 2.815859 1_455
Pd1_2 Pd2_3 2.815859 1_554
Pd1_3 Pd1_6 2.768344 1_555
Pd1_3 Pd1_6 2.768344 1_456
Pd1_3 Pd1_5 2.768345 1_555
Pd1_3 Pd1_5 2.768345 1_465
Pd1_3 Pd2_7 2.815859 1_455
Pd1_3 Pd2_1 2.815859 1_555
Pd1_3 Pd2_2 2.815859 1_555
Pd1_4 Pd1_7 2.768344 1_554
Pd1_4 Pd1_7 2.768344 1_545
Pd1_4 Pd2_0 2.815859 1_555
Pd1_4 Pd2_6 2.815859 1_545
Pd1_4 Pd2_5 2.815859 1_554
Pd1_5 Pd1_6 2.768344 1_555
Pd1_5 Pd1_6 2.768344 1_546
Pd1_5 Pd2_7 2.815859 1_545
Pd1_5 Pd2_1 2.815859 1_555
Pd1_5 Pd2_4 2.815859 1_555
Pd1_6 Pd2_4 2.815859 1_555
Pd1_6 Pd2_2 2.815859 1_555
Pd1_6 Pd2_7 2.815859 1_554
Pd1_7 Pd2_3 2.815859 1_555
Pd1_7 Pd2_5 2.815859 1_555
Pd1_7 Pd2_6 2.815859 1_555
Pd2_0 Pd2_3 2.768344 1_554
Pd2_0 Pd2_5 2.768344 1_554
Pd2_0 Pd2_3 2.768344 1_545
Pd2_0 Pd2_5 2.768344 1_455
Pd2_0 Pd2_6 2.768345 1_455
Pd2_0 Pd2_6 2.768345 1_545
Pd2_1 Pd2_2 2.768344 1_546
Pd2_1 Pd2_4 2.768344 1_456
Pd2_1 Pd2_2 2.768344 1_555
Pd2_1 Pd2_4 2.768344 1_555
Pd2_1 Pd2_7 2.768345 1_455
Pd2_1 Pd2_7 2.768345 1_545
Pd2_2 Pd2_7 2.768344 1_455
Pd2_2 Pd2_7 2.768344 1_554
Pd2_2 Pd2_4 2.768345 1_465
Pd2_2 Pd2_4 2.768345 1_555
Pd2_3 Pd2_6 2.768344 1_555
Pd2_3 Pd2_6 2.768344 1_456
Pd2_3 Pd2_5 2.768345 1_465
Pd2_3 Pd2_5 2.768345 1_555
Pd2_4 Pd2_7 2.768344 1_554
Pd2_4 Pd2_7 2.768344 1_545
Pd2_5 Pd2_6 2.768344 1_546
Pd2_5 Pd2_6 2.768344 1_555
