# generated using pymatgen
data_Ca2Mg2B4O13
_symmetry_space_group_name_H-M   'P 1'
_cell_length_a   8.56320200
_cell_length_b   8.62586100
_cell_length_c   13.25706600
_cell_angle_alpha   90.00000000
_cell_angle_beta   90.00000000
_cell_angle_gamma   90.00000000
_symmetry_Int_Tables_number   1
_chemical_formula_structural   Ca2Mg2B4O13
_chemical_formula_sum   'Ca8 Mg8 B16 O52'
_cell_volume   979.23304973
_cell_formula_units_Z   4
loop_
 _symmetry_equiv_pos_site_id
 _symmetry_equiv_pos_as_xyz
  1  'x, y, z'
loop_
 _atom_site_type_symbol
 _atom_site_label
 _atom_site_symmetry_multiplicity
 _atom_site_fract_x
 _atom_site_fract_y
 _atom_site_fract_z
 _atom_site_occupancy
  Ca  Ca0  1  0.25516500  0.26760000  0.36244600  1
  Ca  Ca1  1  0.74483500  0.73240000  0.63755400  1
  Ca  Ca2  1  0.25516500  0.73240000  0.63755400  1
  Ca  Ca3  1  0.74483500  0.23240000  0.86244600  1
  Ca  Ca4  1  0.74483500  0.26760000  0.36244600  1
  Ca  Ca5  1  0.25516500  0.76760000  0.13755400  1
  Ca  Ca6  1  0.74483500  0.76760000  0.13755400  1
  Ca  Ca7  1  0.25516500  0.23240000  0.86244600  1
  Mg  Mg0  1  0.00000000  0.03287500  0.23836300  1
  Mg  Mg1  1  0.00000000  0.96712500  0.76163700  1
  Mg  Mg2  1  0.00000000  0.46712500  0.73836300  1
  Mg  Mg3  1  0.00000000  0.53287500  0.26163700  1
  Mg  Mg4  1  0.00000000  0.00000000  0.50000000  1
  Mg  Mg5  1  0.00000000  0.50000000  0.00000000  1
  Mg  Mg6  1  0.00000000  0.00000000  0.00000000  1
  Mg  Mg7  1  0.00000000  0.50000000  0.50000000  1
  B  B0  1  0.50000000  0.28230100  0.20583600  1
  B  B1  1  0.50000000  0.71769900  0.79416400  1
  B  B2  1  0.50000000  0.21769900  0.70583600  1
  B  B3  1  0.50000000  0.78230100  0.29416400  1
  B  B4  1  0.50000000  0.26329600  0.02033400  1
  B  B5  1  0.50000000  0.73670400  0.97966600  1
  B  B6  1  0.50000000  0.23670400  0.52033400  1
  B  B7  1  0.50000000  0.76329600  0.47966600  1
  B  B8  1  0.28728600  0.12970400  0.11756000  1
  B  B9  1  0.71271400  0.87029600  0.88244000  1
  B  B10  1  0.28728600  0.87029600  0.88244000  1
  B  B11  1  0.71271400  0.37029600  0.61756000  1
  B  B12  1  0.71271400  0.12970400  0.11756000  1
  B  B13  1  0.28728600  0.62970400  0.38244000  1
  B  B14  1  0.71271400  0.62970400  0.38244000  1
  B  B15  1  0.28728600  0.37029600  0.61756000  1
  O  O0  1  0.15871100  0.03521700  0.12006800  1
  O  O1  1  0.84128900  0.96478300  0.87993200  1
  O  O2  1  0.15871100  0.96478300  0.87993200  1
  O  O3  1  0.84128900  0.46478300  0.62006800  1
  O  O4  1  0.84128900  0.03521700  0.12006800  1
  O  O5  1  0.15871100  0.53521700  0.37993200  1
  O  O6  1  0.84128900  0.53521700  0.37993200  1
  O  O7  1  0.15871100  0.46478300  0.62006800  1
  O  O8  1  0.50000000  0.16381300  0.42200600  1
  O  O9  1  0.50000000  0.83618700  0.57799400  1
  O  O10  1  0.50000000  0.33618700  0.92200600  1
  O  O11  1  0.50000000  0.66381300  0.07799400  1
  O  O12  1  0.35342200  0.18631700  0.20570900  1
  O  O13  1  0.64657800  0.81368300  0.79429100  1
  O  O14  1  0.35342200  0.81368300  0.79429100  1
  O  O15  1  0.64657800  0.31368300  0.70570900  1
  O  O16  1  0.64657800  0.18631700  0.20570900  1
  O  O17  1  0.35342200  0.68631700  0.29429100  1
  O  O18  1  0.64657800  0.68631700  0.29429100  1
  O  O19  1  0.35342200  0.31368300  0.70570900  1
  O  O20  1  0.50000000  0.37414000  0.29692100  1
  O  O21  1  0.50000000  0.62586000  0.70307900  1
  O  O22  1  0.50000000  0.12586000  0.79692100  1
  O  O23  1  0.50000000  0.87414000  0.20307900  1
  O  O24  1  0.13002000  0.01844800  0.37278800  1
  O  O25  1  0.86998000  0.98155200  0.62721200  1
  O  O26  1  0.13002000  0.98155200  0.62721200  1
  O  O27  1  0.86998000  0.48155200  0.87278800  1
  O  O28  1  0.86998000  0.01844800  0.37278800  1
  O  O29  1  0.13002000  0.51844800  0.12721200  1
  O  O30  1  0.86998000  0.51844800  0.12721200  1
  O  O31  1  0.13002000  0.48155200  0.87278800  1
  O  O32  1  0.50000000  0.36845500  0.10883100  1
  O  O33  1  0.50000000  0.63154500  0.89116900  1
  O  O34  1  0.50000000  0.13154500  0.60883100  1
  O  O35  1  0.50000000  0.86845500  0.39116900  1
  O  O36  1  0.35444900  0.16860900  0.02636600  1
  O  O37  1  0.64555100  0.83139100  0.97363400  1
  O  O38  1  0.35444900  0.83139100  0.97363400  1
  O  O39  1  0.64555100  0.33139100  0.52636600  1
  O  O40  1  0.64555100  0.16860900  0.02636600  1
  O  O41  1  0.35444900  0.66860900  0.47363400  1
  O  O42  1  0.64555100  0.66860900  0.47363400  1
  O  O43  1  0.35444900  0.33139100  0.52636600  1
  O  O44  1  0.00000000  0.23402700  0.45534600  1
  O  O45  1  0.00000000  0.76597300  0.54465400  1
  O  O46  1  0.00000000  0.26597300  0.95534600  1
  O  O47  1  0.00000000  0.73402700  0.04465400  1
  O  O48  1  0.00000000  0.27963400  0.26959500  1
  O  O49  1  0.00000000  0.72036600  0.73040500  1
  O  O50  1  0.00000000  0.22036600  0.76959500  1
  O  O51  1  0.00000000  0.77963400  0.23040500  1
loop_
_geom_bond_atom_site_label_1
_geom_bond_atom_site_label_2
_geom_bond_distance
_geom_bond_site_symmetry_2
Ca0 O12 2.348849 1_555
Ca0 O43 2.397489 1_555
Ca0 O24 2.405423 1_555
Ca0 O8 2.412580 1_555
Ca0 O20 2.448420 1_555
Ca0 O5 2.462676 1_555
Ca0 O48 2.510044 1_555
Ca0 O44 2.524879 1_555
Ca1 O13 2.348849 1_555
Ca1 O42 2.397489 1_555
Ca1 O25 2.405423 1_555
Ca1 O9 2.412580 1_555
Ca1 O21 2.448420 1_555
Ca1 O3 2.462676 1_555
Ca1 O49 2.510044 1_655
Ca1 O45 2.524879 1_655
Ca2 O14 2.348849 1_555
Ca2 O41 2.397489 1_555
Ca2 O26 2.405423 1_555
Ca2 O9 2.412580 1_555
Ca2 O21 2.448420 1_555
Ca2 O7 2.462676 1_555
Ca2 O49 2.510044 1_555
Ca2 O45 2.524879 1_555
Ca3 O15 2.348849 1_555
Ca3 O40 2.397489 1_556
Ca3 O27 2.405423 1_555
Ca3 O10 2.412580 1_555
Ca3 O22 2.448420 1_555
Ca3 O1 2.462676 1_545
Ca3 O50 2.510044 1_655
Ca3 O46 2.524879 1_655
Ca4 O16 2.348849 1_555
Ca4 O39 2.397489 1_555
Ca4 O28 2.405423 1_555
Ca4 O8 2.412580 1_555
Ca4 O20 2.448420 1_555
Ca4 O6 2.462676 1_555
Ca4 O48 2.510044 1_655
Ca4 O44 2.524879 1_655
Ca5 O17 2.348849 1_555
Ca5 O38 2.397489 1_554
Ca5 O29 2.405423 1_555
Ca5 O11 2.412580 1_555
Ca5 O23 2.448420 1_555
Ca5 O0 2.462676 1_565
Ca5 O51 2.510044 1_555
Ca5 O47 2.524879 1_555
Ca6 O18 2.348849 1_555
Ca6 O37 2.397489 1_554
Ca6 O30 2.405423 1_555
Ca6 O11 2.412580 1_555
Ca6 O23 2.448420 1_555
Ca6 O4 2.462676 1_565
Ca6 O51 2.510044 1_655
Ca6 O47 2.524879 1_655
Ca7 O19 2.348849 1_555
Ca7 O36 2.397489 1_556
Ca7 O31 2.405423 1_555
Ca7 O10 2.412580 1_555
Ca7 O22 2.448420 1_555
Ca7 O2 2.462676 1_545
Ca7 O50 2.510044 1_555
Ca7 O46 2.524879 1_555
Mg0 O0 2.075303 1_555
Mg0 O4 2.075303 1_455
Mg0 O24 2.104978 1_555
Mg0 O28 2.104978 1_455
Mg0 O48 2.168406 1_555
Mg0 O51 2.186968 1_545
Mg1 O2 2.075303 1_555
Mg1 O1 2.075303 1_455
Mg1 O26 2.104978 1_555
Mg1 O25 2.104978 1_455
Mg1 O49 2.168406 1_555
Mg1 O50 2.186968 1_565
Mg2 O7 2.075303 1_555
Mg2 O3 2.075303 1_455
Mg2 O31 2.104978 1_555
Mg2 O27 2.104978 1_455
Mg2 O50 2.168406 1_555
Mg2 O49 2.186968 1_555
Mg3 O5 2.075303 1_555
Mg3 O6 2.075303 1_455
Mg3 O29 2.104978 1_555
Mg3 O30 2.104978 1_455
Mg3 O51 2.168406 1_555
Mg3 O48 2.186968 1_555
Mg4 O26 2.027090 1_545
Mg4 O24 2.027090 1_555
Mg4 O28 2.027090 1_455
Mg4 O25 2.027090 1_445
Mg4 O45 2.103694 1_545
Mg4 O44 2.103694 1_555
Mg5 O29 2.027090 1_555
Mg5 O31 2.027090 1_554
Mg5 O27 2.027090 1_454
Mg5 O30 2.027090 1_455
Mg5 O46 2.103694 1_554
Mg5 O47 2.103694 1_555
Mg6 O2 2.114954 1_544
Mg6 O1 2.114954 1_444
Mg6 O0 2.114954 1_555
Mg6 O4 2.114954 1_455
Mg6 O46 2.369390 1_554
Mg6 O47 2.369390 1_545
Mg7 O7 2.114954 1_555
Mg7 O3 2.114954 1_455
Mg7 O5 2.114954 1_555
Mg7 O6 2.114954 1_455
Mg7 O45 2.369390 1_555
Mg7 O44 2.369390 1_555
B0 O20 1.444185 1_555
B0 O32 1.485286 1_555
B0 O12 1.503650 1_555
B0 O16 1.503650 1_555
B1 O21 1.444185 1_555
B1 O33 1.485286 1_555
B1 O13 1.503650 1_555
B1 O14 1.503650 1_555
B2 O22 1.444185 1_555
B2 O34 1.485286 1_555
B2 O15 1.503650 1_555
B2 O19 1.503650 1_555
B3 O23 1.444185 1_555
B3 O35 1.485286 1_555
B3 O18 1.503650 1_555
B3 O17 1.503650 1_555
B4 O10 1.447253 1_554
B4 O32 1.482980 1_555
B4 O40 1.492299 1_555
B4 O36 1.492299 1_555
B5 O11 1.447253 1_556
B5 O33 1.482980 1_555
B5 O37 1.492299 1_555
B5 O38 1.492299 1_555
B6 O8 1.447253 1_555
B6 O34 1.482980 1_555
B6 O43 1.492299 1_555
B6 O39 1.492299 1_555
B7 O9 1.447253 1_555
B7 O35 1.482980 1_555
B7 O42 1.492299 1_555
B7 O41 1.492299 1_555
B8 O0 1.370260 1_555
B8 O36 1.380214 1_555
B8 O12 1.387382 1_555
B9 O1 1.370260 1_555
B9 O37 1.380214 1_555
B9 O13 1.387382 1_555
B10 O2 1.370260 1_555
B10 O38 1.380214 1_555
B10 O14 1.387382 1_555
B11 O3 1.370260 1_555
B11 O39 1.380214 1_555
B11 O15 1.387382 1_555
B12 O4 1.370260 1_555
B12 O40 1.380214 1_555
B12 O16 1.387382 1_555
B13 O5 1.370260 1_555
B13 O41 1.380214 1_555
B13 O17 1.387382 1_555
B14 O6 1.370260 1_555
B14 O42 1.380214 1_555
B14 O18 1.387382 1_555
B15 O7 1.370260 1_555
B15 O43 1.380214 1_555
B15 O19 1.387382 1_555
