# generated using pymatgen
data_Y2Ni2O7
_symmetry_space_group_name_H-M   'P 1'
_cell_length_a   6.98304150
_cell_length_b   6.98304150
_cell_length_c   6.98304150
_cell_angle_alpha   60.00000000
_cell_angle_beta   60.00000000
_cell_angle_gamma   60.00000000
_symmetry_Int_Tables_number   1
_chemical_formula_structural   Y2Ni2O7
_chemical_formula_sum   'Y4 Ni4 O14'
_cell_volume   240.77914716
_cell_formula_units_Z   2
loop_
 _symmetry_equiv_pos_site_id
 _symmetry_equiv_pos_as_xyz
  1  'x, y, z'
loop_
 _atom_site_type_symbol
 _atom_site_label
 _atom_site_symmetry_multiplicity
 _atom_site_fract_x
 _atom_site_fract_y
 _atom_site_fract_z
 _atom_site_occupancy
  Y  Y0  1  0.12500000  0.12500000  0.12500000  1
  Y  Y1  1  0.62500000  0.12500000  0.12500000  1
  Y  Y2  1  0.12500000  0.12500000  0.62500000  1
  Y  Y3  1  0.12500000  0.62500000  0.12500000  1
  Ni  Ni0  1  0.62500000  0.62500000  0.62500000  1
  Ni  Ni1  1  0.12500000  0.62500000  0.62500000  1
  Ni  Ni2  1  0.62500000  0.62500000  0.12500000  1
  Ni  Ni3  1  0.62500000  0.12500000  0.62500000  1
  O  O0  1  0.00000000  0.00000000  0.00000000  1
  O  O1  1  0.25000000  0.25000000  0.25000000  1
  O  O2  1  0.29594200  0.29594200  0.70405800  1
  O  O3  1  0.54594200  0.54594200  0.95405800  1
  O  O4  1  0.70405800  0.29594200  0.70405800  1
  O  O5  1  0.70405800  0.29594200  0.29594200  1
  O  O6  1  0.29594200  0.70405800  0.70405800  1
  O  O7  1  0.29594200  0.70405800  0.29594200  1
  O  O8  1  0.70405800  0.70405800  0.29594200  1
  O  O9  1  0.95405800  0.54594200  0.54594200  1
  O  O10  1  0.54594200  0.95405800  0.95405800  1
  O  O11  1  0.95405800  0.95405800  0.54594200  1
  O  O12  1  0.95405800  0.54594200  0.95405800  1
  O  O13  1  0.54594200  0.95405800  0.54594200  1
loop_
_geom_bond_atom_site_label_1
_geom_bond_atom_site_label_2
_geom_bond_distance
_geom_bond_site_symmetry_2
Ni0 O3 1.912389 1_555
Ni0 O9 1.912389 1_555
Ni0 O13 1.912389 1_555
Ni0 O6 1.912389 1_555
Ni0 O4 1.912389 1_555
Ni0 O8 1.912389 1_555
Ni1 O6 1.912389 1_555
Ni1 O12 1.912389 1_455
Ni1 O11 1.912389 1_455
Ni1 O7 1.912389 1_555
Ni1 O2 1.912389 1_555
Ni1 O9 1.912389 1_455
Ni2 O8 1.912389 1_555
Ni2 O10 1.912389 1_554
Ni2 O12 1.912389 1_554
Ni2 O7 1.912389 1_555
Ni2 O5 1.912389 1_555
Ni2 O3 1.912389 1_554
Ni3 O4 1.912389 1_555
Ni3 O10 1.912389 1_545
Ni3 O11 1.912389 1_545
Ni3 O5 1.912389 1_555
Ni3 O2 1.912389 1_555
Ni3 O13 1.912389 1_545
O0 Y0 2.138111 1_555
O0 Y2 2.138111 1_554
O0 Y3 2.138111 1_545
O0 Y1 2.138111 1_455
O1 Y0 2.138111 1_555
O1 Y2 2.138111 1_555
O1 Y1 2.138111 1_555
O1 Y3 2.138111 1_555
O2 Y2 2.428476 1_555
O2 Y0 2.428476 1_556
O3 Y1 2.428476 1_556
O3 Y3 2.428476 1_556
O4 Y2 2.428476 1_655
O4 Y1 2.428476 1_556
O5 Y1 2.428476 1_555
O5 Y0 2.428476 1_655
O6 Y3 2.428476 1_556
O6 Y2 2.428476 1_565
O7 Y3 2.428476 1_555
O7 Y0 2.428476 1_565
O8 Y1 2.428476 1_565
O8 Y3 2.428476 1_655
O9 Y3 2.428476 1_655
O9 Y2 2.428476 1_655
O10 Y0 2.428476 1_566
O10 Y1 2.428476 1_566
O11 Y0 2.428476 1_665
O11 Y2 2.428476 1_665
O12 Y0 2.428476 1_656
O12 Y3 2.428476 1_656
O13 Y1 2.428476 1_565
O13 Y2 2.428476 1_565
