# generated using pymatgen
data_Mg14SnW
_symmetry_space_group_name_H-M   'P 1'
_cell_length_a   6.26722563
_cell_length_b   6.26722514
_cell_length_c   10.19723155
_cell_angle_alpha   90.00000000
_cell_angle_beta   90.00000000
_cell_angle_gamma   120.00000255
_symmetry_Int_Tables_number   1
_chemical_formula_structural   Mg14SnW
_chemical_formula_sum   'Mg14 Sn1 W1'
_cell_volume   346.86743424
_cell_formula_units_Z   1
loop_
 _symmetry_equiv_pos_site_id
 _symmetry_equiv_pos_as_xyz
  1  'x, y, z'
loop_
 _atom_site_type_symbol
 _atom_site_label
 _atom_site_symmetry_multiplicity
 _atom_site_fract_x
 _atom_site_fract_y
 _atom_site_fract_z
 _atom_site_occupancy
  Mg  Mg0  1  0.16701753  0.83350827  0.12500000  1
  Mg  Mg1  1  0.16635070  0.83317485  0.62500000  1
  Mg  Mg2  1  0.66649173  0.33298247  0.12500000  1
  Mg  Mg3  1  0.66682515  0.33364930  0.62500000  1
  Mg  Mg4  1  0.66649173  0.83350827  0.12500000  1
  Mg  Mg5  1  0.66682515  0.83317485  0.62500000  1
  Mg  Mg6  1  0.32769088  0.17230912  0.38557307  1
  Mg  Mg7  1  0.32769088  0.17230912  0.86442693  1
  Mg  Mg8  1  0.32769088  0.65538276  0.38557307  1
  Mg  Mg9  1  0.32769088  0.65538276  0.86442693  1
  Mg  Mg10  1  0.84461724  0.17230912  0.38557307  1
  Mg  Mg11  1  0.84461724  0.17230912  0.86442693  1
  Mg  Mg12  1  0.83333300  0.66666700  0.37641242  1
  Mg  Mg13  1  0.83333300  0.66666700  0.87358758  1
  Sn  Sn0  1  0.16666700  0.33333300  0.12500000  1
  W  W0  1  0.16666700  0.33333300  0.62500000  1
loop_
_geom_bond_atom_site_label_1
_geom_bond_atom_site_label_2
_geom_bond_distance
_geom_bond_site_symmetry_2
Mg0 Mg2 3.130317 1_565
Mg0 Mg4 3.130318 1_555
Mg0 Sn0 3.133613 1_565
Mg0 Sn0 3.133613 1_555
Mg0 Mg2 3.136908 1_455
Mg0 Mg4 3.136908 1_455
Mg0 Mg13 3.138899 1_454
Mg0 Mg12 3.138899 1_455
Mg0 Mg9 3.231825 1_554
Mg0 Mg8 3.231825 1_555
Mg0 Mg7 3.231831 1_564
Mg0 Mg6 3.231831 1_565
Mg1 Mg8 3.058037 1_555
Mg1 Mg9 3.058037 1_555
Mg1 Mg6 3.058044 1_565
Mg1 Mg7 3.058044 1_565
Mg1 Mg12 3.113314 1_455
Mg1 Mg13 3.113314 1_455
Mg1 Mg3 3.130639 1_455
Mg1 Mg5 3.130639 1_455
Mg1 W0 3.133613 1_565
Mg1 W0 3.133613 1_555
Mg1 Mg3 3.136586 1_565
Mg1 Mg5 3.136586 1_555
Mg2 Mg4 3.130317 1_545
Mg2 Sn0 3.133613 1_555
Mg2 Sn0 3.133613 1_655
Mg2 Mg4 3.136908 1_555
Mg2 Mg7 3.231831 1_554
Mg2 Mg6 3.231831 1_555
Mg3 Mg6 3.058044 1_555
Mg3 Mg7 3.058044 1_555
Mg3 Mg5 3.130639 1_555
Mg3 W0 3.133613 1_655
Mg3 W0 3.133613 1_555
Mg3 Mg5 3.136586 1_545
Mg4 Sn0 3.133613 1_555
Mg4 Sn0 3.133613 1_665
Mg4 Mg9 3.231831 1_554
Mg4 Mg8 3.231831 1_555
Mg5 Mg8 3.058044 1_555
Mg5 Mg9 3.058044 1_555
Mg5 W0 3.133613 1_665
Mg5 W0 3.133613 1_555
Mg6 W0 3.002694 1_555
Mg6 Mg8 3.027531 1_555
Mg6 Sn0 3.180503 1_555
Mg6 Mg8 3.239694 1_545
Mg7 W0 3.002694 1_555
Mg7 Mg9 3.027531 1_555
Mg7 Sn0 3.180503 1_556
Mg7 Mg9 3.239694 1_545
Mg8 W0 3.002700 1_555
Mg8 Sn0 3.180509 1_555
Mg9 W0 3.002700 1_555
Mg9 Sn0 3.180509 1_556
Mg10 W0 3.002701 1_655
Mg10 Mg8 3.027531 1_655
Mg10 Mg6 3.027531 1_655
Mg10 Mg3 3.058037 1_555
Mg10 Mg5 3.058044 1_545
Mg10 Mg12 3.135603 1_545
Mg10 Mg12 3.135603 1_555
Mg10 Sn0 3.180509 1_655
Mg10 Mg2 3.231825 1_555
Mg10 Mg4 3.231831 1_545
Mg10 Mg8 3.239694 1_545
Mg10 Mg6 3.239694 1_555
Mg11 W0 3.002701 1_655
Mg11 Mg9 3.027531 1_655
Mg11 Mg7 3.027531 1_655
Mg11 Mg3 3.058037 1_555
Mg11 Mg5 3.058044 1_545
Mg11 Mg13 3.135603 1_545
Mg11 Mg13 3.135603 1_555
Mg11 Sn0 3.180509 1_656
Mg11 Mg2 3.231825 1_556
Mg11 Mg4 3.231831 1_546
Mg11 Mg9 3.239694 1_545
Mg11 Mg7 3.239694 1_555
Mg12 Mg5 3.113308 1_555
Mg12 Mg3 3.113314 1_555
Mg12 Mg6 3.135603 1_665
Mg12 Mg6 3.135603 1_555
Mg12 Mg8 3.135603 1_655
Mg12 Mg8 3.135603 1_555
Mg12 Mg4 3.138893 1_555
Mg12 Mg2 3.138899 1_555
Mg13 Mg5 3.113308 1_555
Mg13 Mg3 3.113314 1_555
Mg13 Mg7 3.135603 1_665
Mg13 Mg7 3.135603 1_555
Mg13 Mg9 3.135603 1_655
Mg13 Mg9 3.135603 1_555
Mg13 Mg4 3.138893 1_556
Mg13 Mg2 3.138899 1_556
