# generated using pymatgen
data_Mg13Al14
_symmetry_space_group_name_H-M   'P 1'
_cell_length_a   8.83113990
_cell_length_b   8.83113990
_cell_length_c   8.83113990
_cell_angle_alpha   109.47122063
_cell_angle_beta   109.47122063
_cell_angle_gamma   109.47122063
_symmetry_Int_Tables_number   1
_chemical_formula_structural   Mg13Al14
_chemical_formula_sum   'Mg13 Al14'
_cell_volume   530.18618104
_cell_formula_units_Z   1
loop_
 _symmetry_equiv_pos_site_id
 _symmetry_equiv_pos_as_xyz
  1  'x, y, z'
loop_
 _atom_site_type_symbol
 _atom_site_label
 _atom_site_symmetry_multiplicity
 _atom_site_fract_x
 _atom_site_fract_y
 _atom_site_fract_z
 _atom_site_occupancy
  Mg  Mg0  1  0.00000000  0.00000000  0.00000000  1
  Mg  Mg1  1  0.31261200  0.65630600  0.65630600  1
  Mg  Mg2  1  0.34369400  0.00000000  0.65630600  1
  Mg  Mg3  1  0.00000000  0.34369400  0.65630600  1
  Mg  Mg4  1  0.65630600  0.31261200  0.65630600  1
  Mg  Mg5  1  0.65630600  0.34369400  0.00000000  1
  Mg  Mg6  1  0.34369400  0.65630600  0.00000000  1
  Mg  Mg7  1  0.65630600  0.00000000  0.34369400  1
  Mg  Mg8  1  0.34369400  0.68738800  0.34369400  1
  Mg  Mg9  1  0.68738800  0.34369400  0.34369400  1
  Mg  Mg10  1  0.00000000  0.65630600  0.34369400  1
  Mg  Mg11  1  0.34369400  0.34369400  0.68738800  1
  Mg  Mg12  1  0.65630600  0.65630600  0.31261200  1
  Al  Al0  1  0.00000000  0.65830900  0.00000000  1
  Al  Al1  1  0.65830900  0.65830900  0.65830900  1
  Al  Al2  1  0.65830900  0.00000000  0.00000000  1
  Al  Al3  1  0.00000000  0.34169100  0.00000000  1
  Al  Al4  1  0.34169100  0.00000000  0.00000000  1
  Al  Al5  1  0.00000000  0.00000000  0.34169100  1
  Al  Al6  1  0.34169100  0.34169100  0.34169100  1
  Al  Al7  1  0.69995300  0.69995300  0.00000000  1
  Al  Al8  1  0.30004700  0.00000000  0.30004700  1
  Al  Al9  1  0.69995300  0.00000000  0.69995300  1
  Al  Al10  1  0.00000000  0.69995300  0.69995300  1
  Al  Al11  1  0.00000000  0.30004700  0.30004700  1
  Al  Al12  1  0.30004700  0.30004700  0.00000000  1
  Al  Al13  1  0.00000000  0.00000000  0.65830900  1
loop_
_geom_bond_atom_site_label_1
_geom_bond_atom_site_label_2
_geom_bond_distance
_geom_bond_site_symmetry_2
Al0 Al8 2.793943 1_565
Al0 Al7 2.793943 1_455
Al0 Al10 2.793943 1_554
Al0 Al3 2.796098 1_555
Al0 Mg0 3.017521 1_565
Al0 Mg6 3.041152 1_555
Al0 Mg4 3.041152 1_454
Al0 Mg10 3.041152 1_555
Al1 Al9 2.793943 1_565
Al1 Al7 2.793943 1_556
Al1 Al10 2.793943 1_655
Al1 Al6 2.796098 1_555
Al1 Mg0 3.017521 1_666
Al1 Mg4 3.041152 1_555
Al1 Mg1 3.041152 1_555
Al1 Mg12 3.041152 1_555
Al2 Al7 2.793943 1_545
Al2 Al9 2.793943 1_554
Al2 Al4 2.796098 1_555
Al2 Mg0 3.017521 1_655
Al2 Mg7 3.041152 1_555
Al2 Mg5 3.041152 1_555
Al2 Mg1 3.041152 1_544
Al3 Al9 2.793943 1_454
Al3 Mg0 3.017521 1_555
Al3 Mg8 3.041152 1_555
Al3 Mg3 3.041152 1_554
Al3 Mg5 3.041152 1_455
Al4 Al8 2.793943 1_555
Al4 Mg0 3.017521 1_555
Al4 Mg9 3.041152 1_555
Al4 Mg2 3.041152 1_554
Al4 Mg6 3.041152 1_545
Al5 Al8 2.793943 1_555
Al5 Al7 2.793943 1_445
Al5 Mg0 3.017521 1_555
Al5 Mg11 3.041152 1_555
Al5 Mg7 3.041152 1_455
Al5 Mg10 3.041152 1_545
Al6 Al8 2.793943 1_555
Al6 Mg0 3.017521 1_555
Al6 Mg8 3.041152 1_555
Al6 Mg11 3.041152 1_555
Al6 Mg9 3.041152 1_555
Al7 Mg5 3.039492 1_555
Al7 Mg6 3.039492 1_555
Al7 Mg11 3.039492 1_554
Al7 Mg12 3.039492 1_555
Al7 Mg0 3.059676 1_665
Al8 Mg4 3.039492 1_555
Al8 Mg7 3.039492 1_555
Al8 Mg2 3.039492 1_555
Al8 Mg8 3.039492 1_545
Al8 Mg0 3.059676 1_555
Al9 Mg2 3.039492 1_555
Al9 Mg7 3.039492 1_555
Al9 Mg8 3.039492 1_545
Al9 Mg4 3.039492 1_555
Al9 Mg0 3.059676 1_656
Al10 Al4 2.793943 1_566
Al10 Al13 2.793943 1_565
Al10 Mg3 3.039492 1_555
Al10 Mg10 3.039492 1_555
Al10 Mg1 3.039492 1_555
Al10 Mg9 3.039492 1_455
Al10 Mg0 3.059676 1_566
Al11 Al6 2.793943 1_555
Al11 Al5 2.793943 1_555
Al11 Al3 2.793943 1_555
Al11 Al2 2.793943 1_455
Al11 Mg1 3.039492 1_555
Al11 Mg3 3.039492 1_555
Al11 Mg10 3.039492 1_555
Al11 Mg9 3.039492 1_455
Al11 Mg0 3.059676 1_555
Al12 Al6 2.793943 1_555
Al12 Al4 2.793943 1_555
Al12 Al3 2.793943 1_555
Al12 Al13 2.793943 1_554
Al12 Mg12 3.039492 1_555
Al12 Mg5 3.039492 1_555
Al12 Mg6 3.039492 1_555
Al12 Mg11 3.039492 1_554
Al12 Mg0 3.059676 1_555
Al13 Al9 2.793943 1_455
Al13 Al5 2.796098 1_555
Al13 Mg0 3.017521 1_556
Al13 Mg3 3.041152 1_555
Al13 Mg2 3.041152 1_555
Al13 Mg12 3.041152 1_445
