# generated using pymatgen
data_Ba2Zn2Cr7Ga2(SnO11)2
_symmetry_space_group_name_H-M   'P 1'
_cell_length_a   5.96926960
_cell_length_b   5.96926960
_cell_length_c   14.48993200
_cell_angle_alpha   90.00000000
_cell_angle_beta   90.00000000
_cell_angle_gamma   119.99999557
_symmetry_Int_Tables_number   1
_chemical_formula_structural   Ba2Zn2Cr7Ga2(SnO11)2
_chemical_formula_sum   'Ba2 Zn2 Cr7 Ga2 Sn2 O22'
_cell_volume   447.13574185
_cell_formula_units_Z   1
loop_
 _symmetry_equiv_pos_site_id
 _symmetry_equiv_pos_as_xyz
  1  'x, y, z'
loop_
 _atom_site_type_symbol
 _atom_site_label
 _atom_site_symmetry_multiplicity
 _atom_site_fract_x
 _atom_site_fract_y
 _atom_site_fract_z
 _atom_site_occupancy
  Ba  Ba0  1  0.33333300  0.66666700  0.57497600  1
  Ba  Ba1  1  0.66666700  0.33333300  0.42502400  1
  Zn  Zn0  1  0.33333300  0.66666700  0.04445800  1
  Zn  Zn1  1  0.66666700  0.33333300  0.95554200  1
  Cr  Cr0  1  0.83148000  0.16852000  0.17005600  1
  Cr  Cr1  1  0.16852000  0.83148000  0.82994400  1
  Cr  Cr2  1  0.83148000  0.66296000  0.17005600  1
  Cr  Cr3  1  0.16852000  0.33704000  0.82994400  1
  Cr  Cr4  1  0.33704000  0.16852000  0.17005600  1
  Cr  Cr5  1  0.66296000  0.83148000  0.82994400  1
  Cr  Cr6  1  0.00000000  0.00000000  0.00000000  1
  Ga  Ga0  1  0.00000000  0.00000000  0.37296800  1
  Ga  Ga1  1  0.00000000  0.00000000  0.62703200  1
  Sn  Sn0  1  0.33333300  0.66666700  0.31820700  1
  Sn  Sn1  1  0.66666700  0.33333300  0.68179300  1
  O  O0  1  0.17308200  0.82691800  0.40762000  1
  O  O1  1  0.82691800  0.17308200  0.59238000  1
  O  O2  1  0.17308200  0.34616300  0.40762000  1
  O  O3  1  0.82691800  0.65383700  0.59238000  1
  O  O4  1  0.65383700  0.82691800  0.40762000  1
  O  O5  1  0.34616300  0.17308200  0.59238000  1
  O  O6  1  0.50701600  0.49298400  0.24257800  1
  O  O7  1  0.49298400  0.50701600  0.75742200  1
  O  O8  1  0.50701600  0.01403100  0.24257800  1
  O  O9  1  0.49298400  0.98596900  0.75742200  1
  O  O10  1  0.98596900  0.49298400  0.24257800  1
  O  O11  1  0.01403100  0.50701600  0.75742200  1
  O  O12  1  0.15028800  0.84971200  0.08824500  1
  O  O13  1  0.84971200  0.15028800  0.91175500  1
  O  O14  1  0.15028800  0.30057700  0.08824500  1
  O  O15  1  0.84971200  0.69942300  0.91175500  1
  O  O16  1  0.69942300  0.84971200  0.08824500  1
  O  O17  1  0.30057700  0.15028800  0.91175500  1
  O  O18  1  0.33333300  0.66666700  0.90407800  1
  O  O19  1  0.66666700  0.33333300  0.09592200  1
  O  O20  1  0.00000000  0.00000000  0.24069000  1
  O  O21  1  0.00000000  0.00000000  0.75931000  1
loop_
_geom_bond_atom_site_label_1
_geom_bond_atom_site_label_2
_geom_bond_distance
_geom_bond_site_symmetry_2
Ba0 O0 2.936947 1_555
Ba0 O2 2.936953 1_555
Ba0 O4 2.936953 1_555
Ba0 O3 2.996004 1_555
Ba0 O5 2.996004 1_555
Ba0 O5 2.996004 1_565
Ba0 O3 2.996004 1_455
Ba0 O1 2.996004 1_565
Ba0 O1 2.996004 1_455
Ba0 O7 3.116634 1_555
Ba0 O9 3.116634 1_555
Ba0 O11 3.116634 1_555
Ba1 O1 2.936947 1_555
Ba1 O5 2.936953 1_555
Ba1 O3 2.936953 1_555
Ba1 O4 2.996004 1_555
Ba1 O2 2.996004 1_555
Ba1 O2 2.996004 1_655
Ba1 O4 2.996004 1_545
Ba1 O0 2.996004 1_655
Ba1 O0 2.996004 1_545
Ba1 O6 3.116634 1_555
Ba1 O8 3.116634 1_555
Ba1 O10 3.116634 1_555
Cr0 O10 1.979857 1_555
Cr0 O8 1.979857 1_555
Cr0 O19 2.014340 1_555
Cr0 O20 2.020710 1_655
Cr0 O14 2.036690 1_655
Cr0 O16 2.036690 1_545
Cr1 O9 1.979857 1_555
Cr1 O11 1.979857 1_555
Cr1 O18 2.014340 1_555
Cr1 O21 2.020710 1_565
Cr1 O17 2.036690 1_565
Cr1 O15 2.036690 1_455
Cr2 O6 1.979857 1_555
Cr2 O10 1.979861 1_555
Cr2 O19 2.014344 1_555
Cr2 O20 2.020710 1_665
Cr2 O12 2.036691 1_655
Cr2 O16 2.036695 1_555
Cr3 O7 1.979857 1_555
Cr3 O11 1.979861 1_555
Cr3 O18 2.014344 1_555
Cr3 O21 2.020710 1_555
Cr3 O13 2.036691 1_455
Cr3 O17 2.036695 1_555
Cr4 O6 1.979857 1_555
Cr4 O8 1.979861 1_555
Cr4 O19 2.014344 1_555
Cr4 O20 2.020710 1_555
Cr4 O12 2.036691 1_545
Cr4 O14 2.036695 1_555
Cr5 O7 1.979857 1_555
Cr5 O9 1.979861 1_555
Cr5 O18 2.014344 1_555
Cr5 O21 2.020710 1_665
Cr5 O13 2.036691 1_565
Cr5 O15 2.036695 1_555
Cr6 O12 2.012312 1_545
Cr6 O13 2.012312 1_454
Cr6 O16 2.012316 1_445
Cr6 O14 2.012316 1_555
Cr6 O15 2.012316 1_444
Cr6 O17 2.012316 1_554
Ga0 O4 1.858610 1_445
Ga0 O2 1.858610 1_555
Ga0 O0 1.858615 1_545
Ga0 O20 1.916699 1_555
Ga1 O5 1.858610 1_555
Ga1 O3 1.858610 1_445
Ga1 O1 1.858615 1_455
Ga1 O21 1.916699 1_555
O0 Sn0 2.103258 1_555
O1 Sn1 2.103258 1_555
O2 Sn0 2.103266 1_555
O3 Sn1 2.103266 1_555
O4 Sn0 2.103266 1_555
O5 Sn1 2.103266 1_555
O6 Sn0 2.103693 1_555
O7 Sn1 2.103693 1_555
O8 Sn0 2.103684 1_545
O9 Sn1 2.103684 1_565
O10 Sn0 2.103684 1_655
O11 Sn1 2.103684 1_455
O12 Zn0 1.996039 1_555
O13 Zn1 1.996039 1_555
O14 Zn0 1.996039 1_555
O15 Zn1 1.996039 1_555
O16 Zn0 1.996039 1_555
O17 Zn1 1.996039 1_555
O18 Zn0 2.034097 1_556
O19 Zn1 2.034097 1_554
