# generated using pymatgen
data_LaGa
_symmetry_space_group_name_H-M   'P 1'
_cell_length_a   4.25725253
_cell_length_b   4.59008117
_cell_length_c   6.16492346
_cell_angle_alpha   111.85594365
_cell_angle_beta   90.00000000
_cell_angle_gamma   90.00000000
_symmetry_Int_Tables_number   1
_chemical_formula_structural   LaGa
_chemical_formula_sum   'La2 Ga2'
_cell_volume   111.81057977
_cell_formula_units_Z   2
loop_
 _symmetry_equiv_pos_site_id
 _symmetry_equiv_pos_as_xyz
  1  'x, y, z'
loop_
 _atom_site_type_symbol
 _atom_site_label
 _atom_site_symmetry_multiplicity
 _atom_site_fract_x
 _atom_site_fract_y
 _atom_site_fract_z
 _atom_site_occupancy
  La  La0  1  0.25000000  0.13953973  0.27907946  1
  La  La1  1  0.75000000  0.86046027  0.72092054  1
  Ga  Ga0  1  0.25000000  0.43278541  0.86556882  1
  Ga  Ga1  1  0.75000000  0.56721459  0.13443118  1
loop_
_geom_bond_atom_site_label_1
_geom_bond_atom_site_label_2
_geom_bond_distance
_geom_bond_site_symmetry_2
Ga0 Ga1 2.626339 1_556
Ga0 Ga1 2.626339 1_456
Ga0 La1 3.237784 1_455
Ga0 La1 3.237784 1_555
Ga0 La1 3.237790 1_445
Ga0 La1 3.237790 1_545
Ga0 La0 3.296251 1_566
Ga0 La0 3.296259 1_556
Ga0 La0 3.355778 1_555
Ga1 La0 3.237784 1_555
Ga1 La0 3.237784 1_655
Ga1 La0 3.237790 1_665
Ga1 La0 3.237790 1_565
Ga1 La1 3.296251 1_544
Ga1 La1 3.296259 1_554
Ga1 La1 3.355778 1_555
