# generated using pymatgen
data_Sr4CaHoCu6(PbO4)4
_symmetry_space_group_name_H-M   'P 1'
_cell_length_a   5.42261700
_cell_length_b   5.44628750
_cell_length_c   15.92428439
_cell_angle_alpha   89.85691231
_cell_angle_beta   89.42296254
_cell_angle_gamma   89.87725076
_symmetry_Int_Tables_number   1
_chemical_formula_structural   Sr4CaHoCu6(PbO4)4
_chemical_formula_sum   'Sr4 Ca1 Ho1 Cu6 Pb4 O16'
_cell_volume   470.26760870
_cell_formula_units_Z   1
loop_
 _symmetry_equiv_pos_site_id
 _symmetry_equiv_pos_as_xyz
  1  'x, y, z'
loop_
 _atom_site_type_symbol
 _atom_site_label
 _atom_site_symmetry_multiplicity
 _atom_site_fract_x
 _atom_site_fract_y
 _atom_site_fract_z
 _atom_site_occupancy
  Sr  Sr0  1  0.00234300  0.00139000  0.78143800  1
  Sr  Sr1  1  0.99765700  0.99861000  0.21856200  1
  Sr  Sr2  1  0.50182200  0.49965200  0.78001500  1
  Sr  Sr3  1  0.49817800  0.50034800  0.21998500  1
  Ca  Ca0  1  0.00000000  0.00000000  0.00000000  1
  Ho  Ho0  1  0.50000000  0.50000000  0.00000000  1
  Cu  Cu0  1  0.50021000  0.99984900  0.89468300  1
  Cu  Cu1  1  0.49979000  0.00015100  0.10531700  1
  Cu  Cu2  1  0.50000000  0.50000000  0.50000000  1
  Cu  Cu3  1  0.00028000  0.50016600  0.89458900  1
  Cu  Cu4  1  0.99972000  0.49983400  0.10541100  1
  Cu  Cu5  1  0.00000000  0.00000000  0.50000000  1
  Pb  Pb0  1  0.99587900  0.49636700  0.61119900  1
  Pb  Pb1  1  0.00412100  0.50363300  0.38880100  1
  Pb  Pb2  1  0.49733700  0.00961500  0.61119500  1
  Pb  Pb3  1  0.50266300  0.99038500  0.38880500  1
  O  O0  1  0.50267400  0.99520900  0.74791700  1
  O  O1  1  0.49732600  0.00479100  0.25208300  1
  O  O2  1  0.25574700  0.25576400  0.90521500  1
  O  O3  1  0.74425300  0.74423600  0.09478500  1
  O  O4  1  0.00309900  0.50511800  0.74801700  1
  O  O5  1  0.99690100  0.49488200  0.25198300  1
  O  O6  1  0.74443800  0.25536600  0.90491500  1
  O  O7  1  0.25556200  0.74463400  0.09508500  1
  O  O8  1  0.74455800  0.74459300  0.90558600  1
  O  O9  1  0.25544200  0.25540700  0.09441400  1
  O  O10  1  0.54914000  0.44717600  0.61421200  1
  O  O11  1  0.45086000  0.55282400  0.38578800  1
  O  O12  1  0.25558000  0.74422600  0.90544300  1
  O  O13  1  0.74442000  0.25577400  0.09455700  1
  O  O14  1  0.05721600  0.06660400  0.61306600  1
  O  O15  1  0.94278400  0.93339600  0.38693400  1
loop_
_geom_bond_atom_site_label_1
_geom_bond_atom_site_label_2
_geom_bond_distance
_geom_bond_site_symmetry_2
Ca0 O13 2.467532 1_455
Ca0 O12 2.467532 1_544
Ca0 O2 2.469305 1_554
Ca0 O3 2.469305 1_445
Ca0 O6 2.484143 1_454
Ca0 O7 2.484143 1_545
Ca0 O8 2.484895 1_444
Ca0 O9 2.484895 1_555
Ho0 O8 2.398136 1_554
Ho0 O9 2.398136 1_555
Ho0 O6 2.405587 1_554
Ho0 O7 2.405587 1_555
Ho0 O13 2.411605 1_555
Ho0 O12 2.411605 1_554
Ho0 O2 2.420689 1_554
Ho0 O3 2.420689 1_555
Cu0 O8 1.927166 1_555
Cu0 O2 1.927909 1_565
Cu0 O12 1.931167 1_555
Cu0 O6 1.931436 1_565
Cu0 O0 2.337247 1_555
Cu1 O9 1.927166 1_555
Cu1 O3 1.927909 1_545
Cu1 O13 1.931167 1_555
Cu1 O7 1.931436 1_545
Cu1 O1 2.337247 1_555
Cu2 O10 1.862370 1_555
Cu2 O11 1.862370 1_555
Cu3 O8 1.927191 1_455
Cu3 O2 1.927477 1_555
Cu3 O12 1.930570 1_555
Cu3 O6 1.931716 1_455
Cu3 O4 2.334039 1_555
Cu4 O9 1.927191 1_655
Cu4 O3 1.927477 1_555
Cu4 O13 1.930570 1_555
Cu4 O7 1.931716 1_655
Cu4 O5 2.334039 1_555
Cu5 O15 1.866715 1_445
Cu5 O14 1.866715 1_555
O0 Pb2 2.178899 1_565
O0 Sr2 2.745671 1_555
O0 Sr0 2.759988 1_565
O0 Sr0 2.767156 1_665
O0 Sr2 2.795725 1_565
O1 Pb3 2.178899 1_545
O1 Sr3 2.745671 1_555
O1 Sr1 2.759988 1_545
O1 Sr1 2.767156 1_445
O1 Sr3 2.795725 1_545
O2 Sr2 2.731407 1_555
O2 Sr0 2.787280 1_555
O3 Sr3 2.731407 1_555
O3 Sr1 2.787280 1_555
O4 Pb0 2.180117 1_455
O4 Sr0 2.756029 1_565
O4 Sr2 2.757091 1_555
O4 Sr2 2.760740 1_455
O4 Sr0 2.793291 1_555
O5 Pb1 2.180117 1_655
O5 Sr1 2.756029 1_545
O5 Sr3 2.757091 1_555
O5 Sr3 2.760740 1_655
O5 Sr1 2.793291 1_555
O6 Sr2 2.736572 1_555
O6 Sr0 2.772246 1_655
O7 Sr3 2.736572 1_555
O7 Sr1 2.772246 1_455
O8 Sr2 2.754003 1_555
O8 Sr0 2.785211 1_665
O9 Sr3 2.754003 1_555
O9 Sr1 2.785211 1_445
O10 Pb2 2.400836 1_555
O10 Pb0 2.437813 1_555
O10 Sr2 2.666173 1_555
O11 Pb3 2.400836 1_555
O11 Pb1 2.437813 1_555
O11 Sr3 2.666173 1_555
O12 Sr2 2.738357 1_555
O12 Sr0 2.789142 1_565
O13 Sr3 2.738357 1_555
O13 Sr1 2.789142 1_545
O14 Pb0 2.363577 1_455
O14 Pb2 2.405942 1_555
O14 Sr0 2.717198 1_555
O15 Pb1 2.363577 1_655
O15 Pb3 2.405942 1_555
O15 Sr1 2.717198 1_555
