# generated using pymatgen
data_SrCoAsHO5
_symmetry_space_group_name_H-M   'P 1'
_cell_length_a   6.13423900
_cell_length_b   7.74393000
_cell_length_c   9.32003100
_cell_angle_alpha   90.00000000
_cell_angle_beta   90.00000000
_cell_angle_gamma   90.00000000
_symmetry_Int_Tables_number   1
_chemical_formula_structural   SrCoAsHO5
_chemical_formula_sum   'Sr4 Co4 As4 H4 O20'
_cell_volume   442.73052694
_cell_formula_units_Z   4
loop_
 _symmetry_equiv_pos_site_id
 _symmetry_equiv_pos_as_xyz
  1  'x, y, z'
loop_
 _atom_site_type_symbol
 _atom_site_label
 _atom_site_symmetry_multiplicity
 _atom_site_fract_x
 _atom_site_fract_y
 _atom_site_fract_z
 _atom_site_occupancy
  Sr  Sr0  1  0.02640000  0.36550600  0.83360500  1
  Sr  Sr1  1  0.52640000  0.13449400  0.16639500  1
  Sr  Sr2  1  0.97360000  0.86550600  0.66639500  1
  Sr  Sr3  1  0.47360000  0.63449400  0.33360500  1
  Co  Co0  1  0.25708500  0.75837200  0.99372900  1
  Co  Co1  1  0.75708500  0.74162800  0.00627100  1
  Co  Co2  1  0.74291500  0.25837200  0.50627100  1
  Co  Co3  1  0.24291500  0.24162800  0.49372900  1
  As  As0  1  0.98668800  0.38265200  0.18625000  1
  As  As1  1  0.48668800  0.11734800  0.81375000  1
  As  As2  1  0.01331200  0.88265200  0.31375000  1
  As  As3  1  0.51331200  0.61734800  0.68625000  1
  H  H0  1  0.98993300  0.00121900  0.98482400  1
  H  H1  1  0.48993300  0.49878100  0.01517600  1
  H  H2  1  0.01006700  0.50121900  0.51517600  1
  H  H3  1  0.51006700  0.99878100  0.48482400  1
  O  O0  1  0.00770900  0.55950900  0.07012500  1
  O  O1  1  0.50770900  0.94049100  0.92987500  1
  O  O2  1  0.99229100  0.05950900  0.42987500  1
  O  O3  1  0.49229100  0.44049100  0.57012500  1
  O  O4  1  0.93447500  0.21216200  0.07252300  1
  O  O5  1  0.43447500  0.28783800  0.92747700  1
  O  O6  1  0.06552500  0.71216200  0.42747700  1
  O  O7  1  0.56552500  0.78783800  0.57252300  1
  O  O8  1  0.26917200  0.64001500  0.77821400  1
  O  O9  1  0.76917200  0.85998500  0.22178600  1
  O  O10  1  0.73082800  0.14001500  0.72178600  1
  O  O11  1  0.23082800  0.35998500  0.27821400  1
  O  O12  1  0.74043000  0.60720700  0.79653700  1
  O  O13  1  0.24043000  0.89279300  0.20346300  1
  O  O14  1  0.25957000  0.10720700  0.70346300  1
  O  O15  1  0.75957000  0.39279300  0.29653700  1
  O  O16  1  0.99694200  0.89099300  0.93263100  1
  O  O17  1  0.49694200  0.60900700  0.06736900  1
  O  O18  1  0.00305800  0.39099300  0.56736900  1
  O  O19  1  0.50305800  0.10900700  0.43263100  1
loop_
_geom_bond_atom_site_label_1
_geom_bond_atom_site_label_2
_geom_bond_distance
_geom_bond_site_symmetry_2
Co0 O16 1.981291 1_455
Co0 O17 1.993433 1_556
Co0 O1 2.169498 1_555
Co0 O8 2.209085 1_555
Co0 O13 2.216973 1_556
Co0 O0 2.284422 1_556
Co1 O17 1.981291 1_555
Co1 O16 1.993433 1_554
Co1 O0 2.169498 1_655
Co1 O9 2.209085 1_555
Co1 O12 2.216973 1_554
Co1 O1 2.284422 1_554
Co2 O18 1.981291 1_655
Co2 O19 1.993433 1_555
Co2 O3 2.169498 1_555
Co2 O10 2.209085 1_555
Co2 O15 2.216973 1_555
Co2 O2 2.284422 1_555
Co3 O19 1.981291 1_555
Co3 O18 1.993433 1_555
Co3 O2 2.169498 1_455
Co3 O11 2.209085 1_555
Co3 O14 2.216973 1_555
Co3 O3 2.284422 1_555
As0 O4 1.723122 1_555
As0 O15 1.733117 1_555
As0 O11 1.734442 1_655
As0 O0 1.750341 1_655
As1 O5 1.723122 1_555
As1 O14 1.733117 1_555
As1 O10 1.734442 1_555
As1 O1 1.750341 1_545
As2 O6 1.723122 1_555
As2 O13 1.733117 1_555
As2 O9 1.734442 1_455
As2 O2 1.750341 1_465
As3 O7 1.723122 1_555
As3 O12 1.733117 1_555
As3 O8 1.734442 1_555
As3 O3 1.750341 1_555
H0 O16 0.983400 1_545
H1 O17 0.983400 1_555
H2 O18 0.983400 1_555
H3 O19 0.983400 1_565
O0 Sr0 2.670103 1_554
O1 Sr1 2.670103 1_566
O2 Sr2 2.670103 1_545
O3 Sr3 2.670103 1_555
O4 Sr0 2.585805 1_654
O4 Sr1 2.719070 1_555
O5 Sr1 2.585805 1_556
O5 Sr0 2.719070 1_555
O6 Sr2 2.585805 1_455
O6 Sr3 2.719070 1_555
O7 Sr3 2.585805 1_555
O7 Sr2 2.719070 1_555
O8 Sr0 2.646361 1_555
O8 Sr2 2.724449 1_455
O9 Sr1 2.646361 1_565
O9 Sr3 2.724449 1_555
O10 Sr2 2.646361 1_545
O10 Sr0 2.724449 1_655
O11 Sr3 2.646361 1_555
O11 Sr1 2.724449 1_555
O12 Sr0 2.588420 1_655
O12 Sr2 2.741898 1_555
O13 Sr1 2.588420 1_565
O13 Sr3 2.741898 1_555
O14 Sr2 2.588420 1_445
O14 Sr0 2.741898 1_555
O15 Sr3 2.588420 1_555
O15 Sr1 2.741898 1_555
O16 Sr2 2.493280 1_555
O17 Sr3 2.493280 1_555
O18 Sr0 2.493280 1_555
O19 Sr1 2.493280 1_555
