# generated using pymatgen
data_Ti(SnO2)2
_symmetry_space_group_name_H-M   'P 1'
_cell_length_a   8.53328795
_cell_length_b   8.53328795
_cell_length_c   5.93015972
_cell_angle_alpha   90.00000000
_cell_angle_beta   90.00000000
_cell_angle_gamma   90.00000000
_symmetry_Int_Tables_number   1
_chemical_formula_structural   Ti(SnO2)2
_chemical_formula_sum   'Ti4 Sn8 O16'
_cell_volume   431.81645953
_cell_formula_units_Z   4
loop_
 _symmetry_equiv_pos_site_id
 _symmetry_equiv_pos_as_xyz
  1  'x, y, z'
loop_
 _atom_site_type_symbol
 _atom_site_label
 _atom_site_symmetry_multiplicity
 _atom_site_fract_x
 _atom_site_fract_y
 _atom_site_fract_z
 _atom_site_occupancy
  Ti  Ti0  1  0.00000000  0.50000000  0.25000000  1
  Ti  Ti1  1  0.50000000  0.00000000  0.75000000  1
  Ti  Ti2  1  0.00000000  0.50000000  0.75000000  1
  Ti  Ti3  1  0.50000000  0.00000000  0.25000000  1
  Sn  Sn0  1  0.35253059  0.33723711  0.50000000  1
  Sn  Sn1  1  0.64746941  0.66276289  0.50000000  1
  Sn  Sn2  1  0.66276289  0.35253059  -0.00000000  1
  Sn  Sn3  1  0.33723711  0.64746941  0.00000000  1
  Sn  Sn4  1  0.83723711  0.85253059  -0.00000000  1
  Sn  Sn5  1  0.85253059  0.16276289  0.50000000  1
  Sn  Sn6  1  0.14746941  0.83723711  0.50000000  1
  Sn  Sn7  1  0.16276289  0.14746941  0.00000000  1
  O  O0  1  0.40230100  0.88022950  0.50000000  1
  O  O1  1  0.59769900  0.11977050  0.50000000  1
  O  O2  1  0.11977050  0.40230100  0.00000000  1
  O  O3  1  0.88022950  0.59769900  -0.00000000  1
  O  O4  1  0.38022950  0.90230100  -0.00000000  1
  O  O5  1  0.90230100  0.61977050  0.50000000  1
  O  O6  1  0.09769900  0.38022950  0.50000000  1
  O  O7  1  0.61977050  0.09769900  0.00000000  1
  O  O8  1  0.16357186  0.66357186  0.75000000  1
  O  O9  1  0.66357186  0.83642814  0.25000000  1
  O  O10  1  0.33642814  0.16357186  0.25000000  1
  O  O11  1  0.83642814  0.33642814  0.75000000  1
  O  O12  1  0.16357186  0.66357186  0.25000000  1
  O  O13  1  0.66357186  0.83642814  0.75000000  1
  O  O14  1  0.33642814  0.16357186  0.75000000  1
  O  O15  1  0.83642814  0.33642814  0.25000000  1
loop_
_geom_bond_atom_site_label_1
_geom_bond_atom_site_label_2
_geom_bond_distance
_geom_bond_site_symmetry_2
O0 Ti1 1.984320 1_565
O0 Ti3 1.984320 1_565
O0 Sn6 2.205281 1_555
O1 Ti3 1.984320 1_555
O1 Ti1 1.984320 1_555
O1 Sn5 2.205281 1_555
O2 Ti0 1.984320 1_555
O2 Ti2 1.984320 1_554
O2 Sn7 2.205281 1_555
O3 Ti0 1.984320 1_655
O3 Ti2 1.984320 1_654
O3 Sn4 2.205281 1_555
O4 Ti1 1.984320 1_564
O4 Ti3 1.984320 1_565
O4 Sn3 2.205281 1_555
O5 Ti2 1.984320 1_655
O5 Ti0 1.984320 1_655
O5 Sn1 2.205281 1_555
O6 Ti2 1.984320 1_555
O6 Ti0 1.984320 1_555
O6 Sn0 2.205281 1_555
O7 Ti1 1.984320 1_554
O7 Ti3 1.984320 1_555
O7 Sn2 2.205281 1_555
O8 Ti2 1.973967 1_555
O8 Sn6 2.100699 1_555
O8 Sn3 2.100699 1_556
O9 Ti3 1.973967 1_565
O9 Sn4 2.100699 1_555
O9 Sn1 2.100699 1_555
O10 Ti3 1.973967 1_555
O10 Sn7 2.100699 1_555
O10 Sn0 2.100699 1_555
O11 Ti2 1.973967 1_655
O11 Sn5 2.100699 1_555
O11 Sn2 2.100699 1_556
O12 Ti0 1.973967 1_555
O12 Sn3 2.100699 1_555
O12 Sn6 2.100699 1_555
O13 Ti1 1.973967 1_565
O13 Sn4 2.100699 1_556
O13 Sn1 2.100699 1_555
O14 Ti1 1.973967 1_555
O14 Sn7 2.100699 1_556
O14 Sn0 2.100699 1_555
O15 Ti0 1.973967 1_655
O15 Sn2 2.100699 1_555
O15 Sn5 2.100699 1_555
