# generated using pymatgen
data_Tb2CdNi2
_symmetry_space_group_name_H-M   'P 1'
_cell_length_a   7.34761070
_cell_length_b   7.34761070
_cell_length_c   3.65130185
_cell_angle_alpha   90.00000000
_cell_angle_beta   90.00000000
_cell_angle_gamma   90.00000000
_symmetry_Int_Tables_number   1
_chemical_formula_structural   Tb2CdNi2
_chemical_formula_sum   'Tb4 Cd2 Ni4'
_cell_volume   197.12423142
_cell_formula_units_Z   2
loop_
 _symmetry_equiv_pos_site_id
 _symmetry_equiv_pos_as_xyz
  1  'x, y, z'
loop_
 _atom_site_type_symbol
 _atom_site_label
 _atom_site_symmetry_multiplicity
 _atom_site_fract_x
 _atom_site_fract_y
 _atom_site_fract_z
 _atom_site_occupancy
  Tb  Tb0  1  0.67569759  0.17569759  0.50000000  1
  Tb  Tb1  1  0.32430241  0.82430241  0.50000000  1
  Tb  Tb2  1  0.17569759  0.32430241  0.50000000  1
  Tb  Tb3  1  0.82430241  0.67569759  0.50000000  1
  Cd  Cd0  1  -0.00000000  0.00000000  0.00000000  1
  Cd  Cd1  1  0.50000000  0.50000000  0.00000000  1
  Ni  Ni0  1  0.11643229  0.61643229  0.00000000  1
  Ni  Ni1  1  0.88356771  0.38356771  -0.00000000  1
  Ni  Ni2  1  0.61643229  0.88356771  -0.00000000  1
  Ni  Ni3  1  0.38356771  0.11643229  0.00000000  1
loop_
_geom_bond_atom_site_label_1
_geom_bond_atom_site_label_2
_geom_bond_distance
_geom_bond_site_symmetry_2
Cd0 Ni3 2.945289 1_555
Cd0 Ni2 2.945289 1_445
Cd0 Ni0 2.945289 1_545
Cd0 Ni1 2.945289 1_455
Cd0 Tb1 3.267650 1_545
Cd0 Tb1 3.267650 1_544
Cd0 Tb2 3.267650 1_555
Cd0 Tb2 3.267650 1_554
Cd0 Tb3 3.267650 1_445
Cd0 Tb0 3.267650 1_454
Cd0 Tb0 3.267650 1_455
Cd0 Tb3 3.267650 1_444
Cd1 Ni3 2.945289 1_555
Cd1 Ni0 2.945289 1_555
Cd1 Ni2 2.945289 1_555
Cd1 Ni1 2.945289 1_555
Cd1 Tb0 3.267650 1_555
Cd1 Tb0 3.267650 1_554
Cd1 Tb2 3.267650 1_555
Cd1 Tb2 3.267650 1_554
Cd1 Tb3 3.267650 1_554
Cd1 Tb3 3.267650 1_555
Cd1 Tb1 3.267650 1_554
Cd1 Tb1 3.267650 1_555
Ni0 Ni1 2.419717 1_455
Ni0 Tb1 2.828178 1_554
Ni0 Tb1 2.828178 1_555
Ni0 Tb3 2.851298 1_454
Ni0 Tb3 2.851298 1_455
Ni0 Tb2 2.851298 1_555
Ni0 Tb2 2.851298 1_554
Ni1 Tb0 2.828178 1_555
Ni1 Tb0 2.828178 1_554
Ni1 Tb2 2.851298 1_655
Ni1 Tb3 2.851298 1_554
Ni1 Tb3 2.851298 1_555
Ni1 Tb2 2.851298 1_654
Ni2 Ni3 2.419717 1_565
Ni2 Tb3 2.828178 1_554
Ni2 Tb3 2.828178 1_555
Ni2 Tb0 2.851298 1_565
Ni2 Tb0 2.851298 1_564
Ni2 Tb1 2.851298 1_554
Ni2 Tb1 2.851298 1_555
Ni3 Tb2 2.828178 1_554
Ni3 Tb2 2.828178 1_555
Ni3 Tb1 2.851298 1_544
Ni3 Tb1 2.851298 1_545
Ni3 Tb0 2.851298 1_555
Ni3 Tb0 2.851298 1_554
