# generated using pymatgen
data_Li2Fe2P4H3O16
_symmetry_space_group_name_H-M   'P 1'
_cell_length_a   7.90750459
_cell_length_b   8.24604054
_cell_length_c   9.97419005
_cell_angle_alpha   92.02663806
_cell_angle_beta   113.87098756
_cell_angle_gamma   89.10293566
_symmetry_Int_Tables_number   1
_chemical_formula_structural   Li2Fe2P4H3O16
_chemical_formula_sum   'Li4 Fe4 P8 H6 O32'
_cell_volume   594.36685145
_cell_formula_units_Z   2
loop_
 _symmetry_equiv_pos_site_id
 _symmetry_equiv_pos_as_xyz
  1  'x, y, z'
loop_
 _atom_site_type_symbol
 _atom_site_label
 _atom_site_symmetry_multiplicity
 _atom_site_fract_x
 _atom_site_fract_y
 _atom_site_fract_z
 _atom_site_occupancy
  Li  Li0  1  0.83295100  0.84824800  0.74019000  1
  Li  Li1  1  0.83413400  0.84350200  0.24398900  1
  Li  Li2  1  0.17207100  0.15715900  0.26406900  1
  Li  Li3  1  0.16828100  0.14569700  0.77014900  1
  Fe  Fe0  1  0.00043000  0.49944800  0.75210900  1
  Fe  Fe1  1  0.49948000  0.99841800  0.24633700  1
  Fe  Fe2  1  0.00097300  0.49767400  0.25274300  1
  Fe  Fe3  1  0.50042700  0.00014500  0.75209900  1
  P  P0  1  0.26087200  0.34216900  0.57253600  1
  P  P1  1  0.26060800  0.34038400  0.06893800  1
  P  P2  1  0.23396200  0.84684400  0.42121300  1
  P  P3  1  0.23576800  0.84382500  0.92222000  1
  P  P4  1  0.75491100  0.15684600  0.57550300  1
  P  P5  1  0.76149800  0.15350400  0.07935200  1
  P  P6  1  0.74059600  0.65951000  0.43484000  1
  P  P7  1  0.74236400  0.65719300  0.93518400  1
  H  H0  1  0.55417800  0.40408000  0.61432900  1
  H  H1  1  0.51536200  0.43489100  0.05494700  1
  H  H2  1  0.44524800  0.60093200  0.38901100  1
  H  H3  1  0.44219700  0.60340600  0.87411700  1
  H  H4  1  0.97613000  0.01820600  0.51180900  1
  H  H5  1  0.97841700  0.01210600  0.01251700  1
  O  O0  1  0.67951600  0.82712700  0.36766400  1
  O  O1  1  0.67874400  0.82135300  0.86198100  1
  O  O2  1  0.85844800  0.56576900  0.86652900  1
  O  O3  1  0.85865400  0.57342000  0.36493200  1
  O  O4  1  0.38768400  0.84542200  0.57876600  1
  O  O5  1  0.38229900  0.83880800  0.08183100  1
  O  O6  1  0.43568000  0.45261400  0.60797300  1
  O  O7  1  0.43497200  0.45102300  0.10822500  1
  O  O8  1  0.68891800  0.04848600  0.66853500  1
  O  O9  1  0.69377300  0.04521200  0.17141400  1
  O  O10  1  0.79258000  0.32979600  0.64289900  1
  O  O11  1  0.80695200  0.32488100  0.14726600  1
  O  O12  1  0.05108900  0.92084100  0.41023800  1
  O  O13  1  0.05131600  0.91976400  0.90638200  1
  O  O14  1  0.15465800  0.32327500  0.40369400  1
  O  O15  1  0.15194900  0.32494100  0.89986300  1
  O  O16  1  0.85218600  0.67567600  0.60398700  1
  O  O17  1  0.85363300  0.67553200  0.10325600  1
  O  O18  1  0.94803200  0.08165200  0.59154300  1
  O  O19  1  0.95228100  0.07368900  0.09369500  1
  O  O20  1  0.21142500  0.66994300  0.35779300  1
  O  O21  1  0.21138200  0.66638400  0.85770100  1
  O  O22  1  0.31210100  0.95349100  0.33213100  1
  O  O23  1  0.31447300  0.94689400  0.83200600  1
  O  O24  1  0.56704800  0.55024100  0.40576200  1
  O  O25  1  0.56569100  0.54964700  0.90893300  1
  O  O26  1  0.61261300  0.15720500  0.41666600  1
  O  O27  1  0.61987400  0.15604500  0.92010600  1
  O  O28  1  0.14568700  0.42266200  0.14300700  1
  O  O29  1  0.13938600  0.43309200  0.63606300  1
  O  O30  1  0.32009900  0.17623500  0.64350200  1
  O  O31  1  0.31997200  0.17074500  0.13327900  1
loop_
_geom_bond_atom_site_label_1
_geom_bond_atom_site_label_2
_geom_bond_distance
_geom_bond_site_symmetry_2
Li0 O13 1.929568 1_655
Li0 O8 1.974870 1_565
Li0 O16 1.979256 1_555
Li0 O1 2.058681 1_555
Li1 O12 1.938185 1_655
Li1 O9 1.974733 1_565
Li1 O17 1.985845 1_555
Li1 O0 2.066973 1_555
Li2 O14 1.961923 1_555
Li2 O22 1.980285 1_545
Li2 O19 1.986572 1_455
Li2 O31 2.081199 1_555
Li2 O28 2.502719 1_555
Li3 O23 1.959436 1_545
Li3 O15 1.967034 1_555
Li3 O18 1.984150 1_455
Li3 O30 2.087972 1_555
Fe0 O29 1.952488 1_555
Fe0 O2 1.958494 1_455
Fe0 O21 2.081865 1_555
Fe0 O15 2.084467 1_555
Fe0 O10 2.088101 1_455
Fe0 O16 2.089355 1_455
Fe1 O5 1.984447 1_555
Fe1 O9 2.008976 1_565
Fe1 O26 2.012521 1_565
Fe1 O31 2.015053 1_565
Fe1 O22 2.032429 1_555
Fe1 O0 2.037112 1_555
Fe2 O28 1.957997 1_555
Fe2 O3 1.963813 1_455
Fe2 O11 2.036400 1_455
Fe2 O17 2.103976 1_455
Fe2 O14 2.104614 1_555
Fe2 O20 2.107765 1_555
Fe3 O27 1.989346 1_555
Fe3 O23 1.995921 1_545
Fe3 O4 2.010891 1_545
Fe3 O30 2.027642 1_555
Fe3 O8 2.030451 1_555
Fe3 O1 2.039966 1_545
H0 O6 0.992057 1_555
H1 O7 0.984855 1_555
H2 O24 0.996172 1_555
H3 O25 0.996787 1_555
H4 O18 1.032231 1_555
H4 O12 1.560731 1_645
H5 O19 1.029198 1_555
H5 O13 1.567133 1_644
O0 P6 1.541202 1_555
O1 P7 1.539450 1_555
O2 P7 1.526576 1_555
O3 P6 1.527330 1_555
O4 P2 1.549850 1_555
O5 P3 1.545610 1_554
O6 P0 1.576808 1_555
O7 P1 1.569640 1_555
O8 P4 1.548199 1_555
O9 P5 1.548663 1_555
O10 P4 1.535563 1_555
O11 P5 1.528485 1_555
O12 P2 1.524598 1_555
O13 P3 1.528520 1_555
O14 P0 1.551295 1_555
O15 P1 1.553664 1_556
O16 P6 1.557436 1_555
O17 P7 1.549106 1_554
O18 P4 1.587999 1_555
O19 P5 1.590741 1_555
O20 P2 1.552879 1_555
O21 P3 1.560136 1_555
O22 P2 1.568834 1_555
O23 P3 1.563087 1_555
O24 P6 1.573968 1_555
O25 P7 1.591560 1_555
O26 P4 1.527569 1_555
O27 P5 1.529511 1_556
O28 P1 1.523328 1_555
O29 P0 1.524129 1_555
O30 P0 1.540368 1_555
O31 P1 1.545346 1_555
