# generated using pymatgen
data_MgCo2O5
_symmetry_space_group_name_H-M   'P 1'
_cell_length_a   3.20246400
_cell_length_b   4.88992900
_cell_length_c   11.38238000
_cell_angle_alpha   90.00000000
_cell_angle_beta   90.00000000
_cell_angle_gamma   90.00000000
_symmetry_Int_Tables_number   1
_chemical_formula_structural   MgCo2O5
_chemical_formula_sum   'Mg2 Co4 O10'
_cell_volume   178.24604001
_cell_formula_units_Z   2
loop_
 _symmetry_equiv_pos_site_id
 _symmetry_equiv_pos_as_xyz
  1  'x, y, z'
loop_
 _atom_site_type_symbol
 _atom_site_label
 _atom_site_symmetry_multiplicity
 _atom_site_fract_x
 _atom_site_fract_y
 _atom_site_fract_z
 _atom_site_occupancy
  Mg  Mg0  1  0.00000000  0.61735400  0.50000000  1
  Mg  Mg1  1  0.50000000  0.38264600  0.00000000  1
  Co  Co0  1  0.50000000  0.08246300  0.64993800  1
  Co  Co1  1  0.00000000  0.91753700  0.85006200  1
  Co  Co2  1  0.00000000  0.91753700  0.14993800  1
  Co  Co3  1  0.50000000  0.08246300  0.35006200  1
  O  O0  1  0.00000000  0.08374700  0.00000000  1
  O  O1  1  0.50000000  0.91625300  0.50000000  1
  O  O2  1  0.00000000  0.87450300  0.68469100  1
  O  O3  1  0.50000000  0.12549700  0.81530900  1
  O  O4  1  0.00000000  0.87450300  0.31530900  1
  O  O5  1  0.50000000  0.12549700  0.18469100  1
  O  O6  1  0.50000000  0.41347900  0.39396700  1
  O  O7  1  0.00000000  0.58652100  0.10603300  1
  O  O8  1  0.00000000  0.58652100  0.89396700  1
  O  O9  1  0.50000000  0.41347900  0.60603300  1
loop_
_geom_bond_atom_site_label_1
_geom_bond_atom_site_label_2
_geom_bond_distance
_geom_bond_site_symmetry_2
Mg0 O1 2.167995 1_455
Mg0 O1 2.167995 1_555
Mg0 O9 2.239296 1_455
Mg0 O9 2.239296 1_555
Mg0 O6 2.239296 1_455
Mg0 O6 2.239296 1_555
Mg0 O2 2.449591 1_555
Mg0 O4 2.449591 1_555
Mg1 O0 2.167995 1_655
Mg1 O0 2.167995 1_555
Mg1 O7 2.239296 1_655
Mg1 O7 2.239296 1_555
Mg1 O8 2.239296 1_654
Mg1 O8 2.239296 1_554
Mg1 O5 2.449591 1_555
Mg1 O3 2.449591 1_554
Co0 O9 1.694035 1_555
Co0 O1 1.890299 1_545
Co0 O3 1.894042 1_555
Co0 O2 1.937660 1_645
Co0 O2 1.937660 1_545
Co1 O8 1.694035 1_555
Co1 O0 1.890299 1_566
Co1 O2 1.894042 1_555
Co1 O3 1.937660 1_465
Co1 O3 1.937660 1_565
Co2 O7 1.694035 1_555
Co2 O0 1.890299 1_565
Co2 O4 1.894042 1_555
Co2 O5 1.937660 1_465
Co2 O5 1.937660 1_565
Co3 O6 1.694035 1_555
Co3 O1 1.890299 1_545
Co3 O5 1.894042 1_555
Co3 O4 1.937660 1_545
Co3 O4 1.937660 1_645
