# generated using pymatgen
data_VO2F3
_symmetry_space_group_name_H-M   'P 1'
_cell_length_a   9.84144900
_cell_length_b   5.41382100
_cell_length_c   7.30222737
_cell_angle_alpha   73.42695503
_cell_angle_beta   90.00000000
_cell_angle_gamma   90.00000000
_symmetry_Int_Tables_number   1
_chemical_formula_structural   VO2F3
_chemical_formula_sum   'V4 O8 F12'
_cell_volume   372.89869664
_cell_formula_units_Z   4
loop_
 _symmetry_equiv_pos_site_id
 _symmetry_equiv_pos_as_xyz
  1  'x, y, z'
loop_
 _atom_site_type_symbol
 _atom_site_label
 _atom_site_symmetry_multiplicity
 _atom_site_fract_x
 _atom_site_fract_y
 _atom_site_fract_z
 _atom_site_occupancy
  V  V0  1  0.00000000  0.00000000  0.00000000  1
  V  V1  1  0.50000000  0.00000000  0.50000000  1
  V  V2  1  0.00000000  0.50000000  0.50000000  1
  V  V3  1  0.50000000  0.50000000  0.00000000  1
  O  O0  1  0.37874900  0.77675800  0.44574800  1
  O  O1  1  0.87874900  0.22324200  0.05425200  1
  O  O2  1  0.62125100  0.22324200  0.55425200  1
  O  O3  1  0.12125100  0.77675800  0.94574800  1
  O  O4  1  0.63666900  0.84498300  0.40475600  1
  O  O5  1  0.13666900  0.15501700  0.09524400  1
  O  O6  1  0.36333100  0.15501700  0.59524400  1
  O  O7  1  0.86333100  0.84498300  0.90475600  1
  F  F0  1  0.96854100  0.75726300  0.26540700  1
  F  F1  1  0.46854100  0.24273700  0.23459300  1
  F  F2  1  0.03145900  0.24273700  0.73459300  1
  F  F3  1  0.53145900  0.75726300  0.76540700  1
  F  F4  1  0.38675700  0.71202100  0.07476100  1
  F  F5  1  0.88675700  0.28797900  0.42523900  1
  F  F6  1  0.61324300  0.28797900  0.92523900  1
  F  F7  1  0.11324300  0.71202100  0.57476100  1
  F  F8  1  0.63898900  0.62151200  0.10656400  1
  F  F9  1  0.13898900  0.37848800  0.39343600  1
  F  F10  1  0.36101100  0.37848800  0.89343600  1
  F  F11  1  0.86101100  0.62151200  0.60656400  1
loop_
_geom_bond_atom_site_label_1
_geom_bond_atom_site_label_2
_geom_bond_distance
_geom_bond_site_symmetry_2
O0 V1 1.820635 1_565
O1 V0 1.820635 1_655
O2 V1 1.820635 1_555
O3 V0 1.820635 1_566
O4 V1 1.824851 1_565
O5 V0 1.824851 1_555
O6 V1 1.824851 1_555
O7 V0 1.824851 1_666
F0 V2 1.899771 1_655
F0 V0 2.031246 1_665
F1 V3 1.899771 1_555
F1 V1 2.031246 1_555
F2 V2 1.899771 1_555
F2 V0 2.031246 1_556
F3 V3 1.899771 1_556
F3 V1 2.031246 1_565
F4 V3 1.793073 1_555
F5 V2 1.793073 1_655
F6 V3 1.793073 1_556
F7 V2 1.793073 1_555
F8 V3 1.789227 1_555
F9 V2 1.789227 1_555
F10 V3 1.789227 1_556
F11 V2 1.789227 1_655
