# generated using pymatgen
data_CaMn2(P2O7)2
_symmetry_space_group_name_H-M   'P 1'
_cell_length_a   5.06475257
_cell_length_b   6.89084866
_cell_length_c   9.47532842
_cell_angle_alpha   113.27648404
_cell_angle_beta   97.20348413
_cell_angle_gamma   104.59712250
_symmetry_Int_Tables_number   1
_chemical_formula_structural   CaMn2(P2O7)2
_chemical_formula_sum   'Ca1 Mn2 P4 O14'
_cell_volume   284.40146253
_cell_formula_units_Z   1
loop_
 _symmetry_equiv_pos_site_id
 _symmetry_equiv_pos_as_xyz
  1  'x, y, z'
loop_
 _atom_site_type_symbol
 _atom_site_label
 _atom_site_symmetry_multiplicity
 _atom_site_fract_x
 _atom_site_fract_y
 _atom_site_fract_z
 _atom_site_occupancy
  Ca  Ca0  1  0.40888000  0.17012900  0.74292600  1
  Mn  Mn0  1  0.08457700  0.60646800  0.35494100  1
  Mn  Mn1  1  0.92572500  0.40528200  0.62034300  1
  P  P0  1  0.24369300  0.14273900  0.37902700  1
  P  P1  1  0.59875000  0.67993400  0.85495000  1
  P  P2  1  0.40500900  0.31322600  0.14898300  1
  P  P3  1  0.74776600  0.84689200  0.61179200  1
  O  O0  1  0.08009100  0.91468300  0.35783900  1
  O  O1  1  0.07610300  0.31235700  0.42942000  1
  O  O2  1  0.30022100  0.50357300  0.75918400  1
  O  O3  1  0.19285500  0.44397800  0.17129700  1
  O  O4  1  0.38418100  0.18436400  0.97586900  1
  O  O5  1  0.47037800  0.76846500  0.49139800  1
  O  O6  1  0.66379200  0.84717000  0.77036100  1
  O  O7  1  0.30692300  0.12943000  0.21633300  1
  O  O8  1  0.52485300  0.23823800  0.50840900  1
  O  O9  1  0.64094800  0.81408600  0.02609600  1
  O  O10  1  0.79536900  0.53147300  0.81190700  1
  O  O11  1  0.69586900  0.47053300  0.25389300  1
  O  O12  1  0.94784700  0.70676300  0.57112600  1
  O  O13  1  0.90617000  0.09521400  0.66612900  1
loop_
_geom_bond_atom_site_label_1
_geom_bond_atom_site_label_2
_geom_bond_distance
_geom_bond_site_symmetry_2
Ca0 O4 2.191202 1_555
Ca0 O13 2.419630 1_455
Ca0 O2 2.446416 1_555
Ca0 O10 2.528833 1_555
Ca0 O8 2.552597 1_555
Mn0 O11 1.886510 1_455
Mn0 O3 1.895077 1_555
Mn0 O5 1.965250 1_555
Mn0 O0 2.119068 1_555
Mn0 O12 2.152057 1_455
Mn0 O1 2.387764 1_555
Mn1 O2 1.951796 1_655
Mn1 O10 1.956835 1_555
Mn1 O8 1.972099 1_555
Mn1 O1 1.984598 1_655
Mn1 O12 2.281961 1_555
Mn1 O13 2.323776 1_555
O0 P0 1.499697 1_565
O1 P0 1.573276 1_555
O2 P1 1.563515 1_555
O3 P2 1.550951 1_555
O4 P2 1.499490 1_556
O5 P3 1.515026 1_555
O6 P3 1.611450 1_555
O6 P1 1.638239 1_555
O7 P0 1.585657 1_555
O7 P2 1.630721 1_555
O8 P0 1.554355 1_555
O9 P1 1.469262 1_554
O10 P1 1.578029 1_555
O11 P2 1.519718 1_555
O12 P3 1.550756 1_555
O13 P3 1.531315 1_545
