# generated using pymatgen
data_PdAu
_symmetry_space_group_name_H-M   'P 1'
_cell_length_a   9.79417190
_cell_length_b   9.79417190
_cell_length_c   9.79417263
_cell_angle_alpha   33.86439565
_cell_angle_beta   33.86439565
_cell_angle_gamma   33.86438579
_symmetry_Int_Tables_number   1
_chemical_formula_structural   PdAu
_chemical_formula_sum   'Pd8 Au8'
_cell_volume   259.97647641
_cell_formula_units_Z   8
loop_
 _symmetry_equiv_pos_site_id
 _symmetry_equiv_pos_as_xyz
  1  'x, y, z'
loop_
 _atom_site_type_symbol
 _atom_site_label
 _atom_site_symmetry_multiplicity
 _atom_site_fract_x
 _atom_site_fract_y
 _atom_site_fract_z
 _atom_site_occupancy
  Pd  Pd0_0  1  0.25000000  0.25000000  0.25000000  1
  Pd  Pd0_1  1  0.25000000  0.25000000  0.75000000  1
  Pd  Pd0_2  1  0.25000000  0.75000000  0.25000000  1
  Pd  Pd0_3  1  0.25000000  0.75000000  0.75000000  1
  Pd  Pd0_4  1  0.75000000  0.25000000  0.25000000  1
  Pd  Pd0_5  1  0.75000000  0.25000000  0.75000000  1
  Pd  Pd0_6  1  0.75000000  0.75000000  0.25000000  1
  Pd  Pd0_7  1  0.75000000  0.75000000  0.75000000  1
  Au  Au0_0  1  0.00000000  0.00000000  0.00000000  1
  Au  Au0_1  1  0.00000000  0.00000000  0.50000000  1
  Au  Au0_2  1  0.00000000  0.50000000  0.00000000  1
  Au  Au0_3  1  0.00000000  0.50000000  0.50000000  1
  Au  Au0_4  1  0.50000000  0.00000000  0.00000000  1
  Au  Au0_5  1  0.50000000  0.00000000  0.50000000  1
  Au  Au0_6  1  0.50000000  0.50000000  0.00000000  1
  Au  Au0_7  1  0.50000000  0.50000000  0.50000000  1
loop_
_geom_bond_atom_site_label_1
_geom_bond_atom_site_label_2
_geom_bond_distance
_geom_bond_site_symmetry_2
Pd0_0 Pd0_6 2.852452 1_455
Pd0_0 Pd0_6 2.852452 1_545
Pd0_0 Pd0_5 2.852453 1_455
Pd0_0 Pd0_3 2.852453 1_545
Pd0_0 Pd0_5 2.852453 1_554
Pd0_0 Pd0_3 2.852453 1_554
Pd0_1 Pd0_7 2.852452 1_545
Pd0_1 Pd0_7 2.852452 1_455
Pd0_1 Pd0_2 2.852453 1_555
Pd0_1 Pd0_4 2.852453 1_555
Pd0_1 Pd0_2 2.852453 1_546
Pd0_1 Pd0_4 2.852453 1_456
Pd0_2 Pd0_4 2.852452 1_465
Pd0_2 Pd0_4 2.852452 1_555
Pd0_2 Pd0_7 2.852453 1_455
Pd0_2 Pd0_7 2.852453 1_554
Pd0_3 Pd0_5 2.852452 1_555
Pd0_3 Pd0_5 2.852452 1_465
Pd0_3 Pd0_6 2.852453 1_456
Pd0_3 Pd0_6 2.852453 1_555
Pd0_4 Pd0_7 2.852453 1_545
Pd0_4 Pd0_7 2.852453 1_554
Pd0_5 Pd0_6 2.852453 1_546
Pd0_5 Pd0_6 2.852453 1_555
Au0_0 Pd0_3 2.833635 1_544
Au0_0 Pd0_5 2.833635 1_454
Au0_0 Pd0_4 2.833635 1_455
Au0_0 Pd0_2 2.833635 1_545
Au0_0 Pd0_6 2.833635 1_445
Au0_0 Pd0_1 2.833635 1_554
Au0_0 Au0_6 2.852452 1_545
Au0_0 Au0_6 2.852452 1_455
Au0_0 Au0_3 2.852453 1_545
Au0_0 Au0_5 2.852453 1_455
Au0_0 Au0_3 2.852453 1_554
Au0_0 Au0_5 2.852453 1_554
Au0_1 Pd0_4 2.833635 1_455
Au0_1 Pd0_2 2.833635 1_545
Au0_1 Pd0_3 2.833635 1_545
Au0_1 Pd0_5 2.833635 1_455
Au0_1 Pd0_7 2.833635 1_445
Au0_1 Pd0_0 2.833635 1_555
Au0_1 Au0_7 2.852452 1_455
Au0_1 Au0_7 2.852452 1_545
Au0_1 Au0_4 2.852453 1_456
Au0_1 Au0_2 2.852453 1_546
Au0_1 Au0_4 2.852453 1_555
Au0_1 Au0_2 2.852453 1_555
Au0_2 Pd0_1 2.833635 1_554
Au0_2 Pd0_7 2.833635 1_454
Au0_2 Pd0_0 2.833635 1_555
Au0_2 Pd0_6 2.833635 1_455
Au0_2 Pd0_4 2.833635 1_455
Au0_2 Pd0_3 2.833635 1_554
Au0_2 Au0_4 2.852452 1_465
Au0_2 Au0_4 2.852452 1_555
Au0_2 Au0_7 2.852453 1_455
Au0_2 Au0_7 2.852453 1_554
Au0_3 Pd0_6 2.833635 1_455
Au0_3 Pd0_1 2.833635 1_555
Au0_3 Pd0_7 2.833635 1_455
Au0_3 Pd0_0 2.833635 1_555
Au0_3 Pd0_5 2.833635 1_455
Au0_3 Pd0_2 2.833635 1_555
Au0_3 Au0_5 2.852452 1_465
Au0_3 Au0_5 2.852452 1_555
Au0_3 Au0_6 2.852453 1_555
Au0_3 Au0_6 2.852453 1_456
Au0_4 Pd0_1 2.833635 1_554
Au0_4 Pd0_7 2.833635 1_544
Au0_4 Pd0_0 2.833635 1_555
Au0_4 Pd0_6 2.833635 1_545
Au0_4 Pd0_2 2.833635 1_545
Au0_4 Pd0_5 2.833635 1_554
Au0_4 Au0_7 2.852453 1_545
Au0_4 Au0_7 2.852453 1_554
Au0_5 Pd0_6 2.833635 1_545
Au0_5 Pd0_7 2.833635 1_545
Au0_5 Pd0_1 2.833635 1_555
Au0_5 Pd0_0 2.833635 1_555
Au0_5 Pd0_3 2.833635 1_545
Au0_5 Pd0_4 2.833635 1_555
Au0_5 Au0_6 2.852453 1_555
Au0_5 Au0_6 2.852453 1_546
Au0_6 Pd0_5 2.833635 1_554
Au0_6 Pd0_3 2.833635 1_554
Au0_6 Pd0_4 2.833635 1_555
Au0_6 Pd0_2 2.833635 1_555
Au0_6 Pd0_0 2.833635 1_555
Au0_6 Pd0_7 2.833635 1_554
Au0_7 Pd0_2 2.833635 1_555
Au0_7 Pd0_4 2.833635 1_555
Au0_7 Pd0_3 2.833635 1_555
Au0_7 Pd0_5 2.833635 1_555
Au0_7 Pd0_1 2.833635 1_555
Au0_7 Pd0_6 2.833635 1_555
