# generated using pymatgen
data_Ta4C3
_symmetry_space_group_name_H-M   'P 1'
_cell_length_a   4.44528100
_cell_length_b   4.44528100
_cell_length_c   4.44528100
_cell_angle_alpha   90.00000000
_cell_angle_beta   90.00000000
_cell_angle_gamma   90.00000000
_symmetry_Int_Tables_number   1
_chemical_formula_structural   Ta4C3
_chemical_formula_sum   'Ta4 C3'
_cell_volume   87.84107819
_cell_formula_units_Z   1
loop_
 _symmetry_equiv_pos_site_id
 _symmetry_equiv_pos_as_xyz
  1  'x, y, z'
loop_
 _atom_site_type_symbol
 _atom_site_label
 _atom_site_symmetry_multiplicity
 _atom_site_fract_x
 _atom_site_fract_y
 _atom_site_fract_z
 _atom_site_occupancy
  Ta  Ta0  1  0.00000000  0.50000000  0.50000000  1
  Ta  Ta1  1  0.50000000  0.00000000  0.50000000  1
  Ta  Ta2  1  0.50000000  0.50000000  0.00000000  1
  Ta  Ta3  1  0.00000000  0.00000000  0.00000000  1
  C  C0  1  0.50000000  0.00000000  0.00000000  1
  C  C1  1  0.00000000  0.50000000  0.00000000  1
  C  C2  1  0.00000000  0.00000000  0.50000000  1
loop_
_geom_bond_atom_site_label_1
_geom_bond_atom_site_label_2
_geom_bond_distance
_geom_bond_site_symmetry_2
C0 Ta2 2.222640 1_545
C0 Ta1 2.222640 1_554
C0 Ta3 2.222640 1_555
C0 Ta1 2.222640 1_555
C0 Ta3 2.222640 1_655
C0 Ta2 2.222640 1_555
C1 Ta3 2.222640 1_555
C1 Ta0 2.222640 1_555
C1 Ta0 2.222640 1_554
C1 Ta3 2.222640 1_565
C1 Ta2 2.222640 1_455
C1 Ta2 2.222640 1_555
C2 Ta3 2.222640 1_555
C2 Ta0 2.222640 1_545
C2 Ta0 2.222640 1_555
C2 Ta3 2.222640 1_556
C2 Ta1 2.222640 1_455
C2 Ta1 2.222640 1_555
