# generated using pymatgen
data_MnPO7
_symmetry_space_group_name_H-M   'P 1'
_cell_length_a   9.50935500
_cell_length_b   10.05304300
_cell_length_c   11.38320900
_cell_angle_alpha   90.00000000
_cell_angle_beta   90.00000000
_cell_angle_gamma   90.00000000
_symmetry_Int_Tables_number   1
_chemical_formula_structural   MnPO7
_chemical_formula_sum   'Mn8 P8 O56'
_cell_volume   1088.21149852
_cell_formula_units_Z   8
loop_
 _symmetry_equiv_pos_site_id
 _symmetry_equiv_pos_as_xyz
  1  'x, y, z'
loop_
 _atom_site_type_symbol
 _atom_site_label
 _atom_site_symmetry_multiplicity
 _atom_site_fract_x
 _atom_site_fract_y
 _atom_site_fract_z
 _atom_site_occupancy
  Mn  Mn0  1  0.75858300  0.57205400  0.26113300  1
  Mn  Mn1  1  0.24141700  0.42794600  0.73886700  1
  Mn  Mn2  1  0.24141700  0.92794600  0.76113300  1
  Mn  Mn3  1  0.25858300  0.42794600  0.23886700  1
  Mn  Mn4  1  0.75858300  0.07205400  0.23886700  1
  Mn  Mn5  1  0.74141700  0.57205400  0.76113300  1
  Mn  Mn6  1  0.74141700  0.07205400  0.73886700  1
  Mn  Mn7  1  0.25858300  0.92794600  0.26113300  1
  P  P0  1  0.95305800  0.83009400  0.34319600  1
  P  P1  1  0.04694200  0.16990600  0.65680400  1
  P  P2  1  0.04694200  0.66990600  0.84319600  1
  P  P3  1  0.45305800  0.16990600  0.15680400  1
  P  P4  1  0.95305800  0.33009400  0.15680400  1
  P  P5  1  0.54694200  0.83009400  0.84319600  1
  P  P6  1  0.54694200  0.33009400  0.65680400  1
  P  P7  1  0.45305800  0.66990600  0.34319600  1
  O  O0  1  0.88180100  0.72998800  0.26261600  1
  O  O1  1  0.11819900  0.27001200  0.73738400  1
  O  O2  1  0.11819900  0.77001200  0.76261600  1
  O  O3  1  0.38180100  0.27001200  0.23738400  1
  O  O4  1  0.88180100  0.22998800  0.23738400  1
  O  O5  1  0.61819900  0.72998800  0.76261600  1
  O  O6  1  0.61819900  0.22998800  0.73738400  1
  O  O7  1  0.38180100  0.77001200  0.26261600  1
  O  O8  1  0.67015000  0.65216500  0.00958700  1
  O  O9  1  0.32985000  0.34783500  0.99041300  1
  O  O10  1  0.32985000  0.84783500  0.50958700  1
  O  O11  1  0.17015000  0.34783500  0.49041300  1
  O  O12  1  0.67015000  0.15216500  0.49041300  1
  O  O13  1  0.82985000  0.65216500  0.50958700  1
  O  O14  1  0.82985000  0.15216500  0.99041300  1
  O  O15  1  0.17015000  0.84783500  0.00958700  1
  O  O16  1  0.90774000  0.97529500  0.31918200  1
  O  O17  1  0.09226000  0.02470500  0.68081800  1
  O  O18  1  0.09226000  0.52470500  0.81918200  1
  O  O19  1  0.40774000  0.02470500  0.18081800  1
  O  O20  1  0.90774000  0.47529500  0.18081800  1
  O  O21  1  0.59226000  0.97529500  0.81918200  1
  O  O22  1  0.59226000  0.47529500  0.68081800  1
  O  O23  1  0.40774000  0.52470500  0.31918200  1
  O  O24  1  0.85220800  0.05601000  0.05682400  1
  O  O25  1  0.14779200  0.94399000  0.94317600  1
  O  O26  1  0.14779200  0.44399000  0.55682400  1
  O  O27  1  0.35220800  0.94399000  0.44317600  1
  O  O28  1  0.85220800  0.55601000  0.44317600  1
  O  O29  1  0.64779200  0.05601000  0.55682400  1
  O  O30  1  0.64779200  0.55601000  0.94317600  1
  O  O31  1  0.35220800  0.44399000  0.05682400  1
  O  O32  1  0.63791200  0.94591800  0.26929900  1
  O  O33  1  0.36208800  0.05408200  0.73070100  1
  O  O34  1  0.36208800  0.55408200  0.76929900  1
  O  O35  1  0.13791200  0.05408200  0.23070100  1
  O  O36  1  0.63791200  0.44591800  0.23070100  1
  O  O37  1  0.86208800  0.94591800  0.76929900  1
  O  O38  1  0.86208800  0.44591800  0.73070100  1
  O  O39  1  0.13791200  0.55408200  0.26929900  1
  O  O40  1  0.61500200  0.67754000  0.33473400  1
  O  O41  1  0.38499800  0.32246000  0.66526600  1
  O  O42  1  0.38499800  0.82246000  0.83473400  1
  O  O43  1  0.11500200  0.32246000  0.16526600  1
  O  O44  1  0.61500200  0.17754000  0.16526600  1
  O  O45  1  0.88499800  0.67754000  0.83473400  1
  O  O46  1  0.88499800  0.17754000  0.66526600  1
  O  O47  1  0.11500200  0.82246000  0.33473400  1
  O  O48  1  0.58351700  0.80169700  0.97877100  1
  O  O49  1  0.41648300  0.19830300  0.02122900  1
  O  O50  1  0.41648300  0.69830300  0.47877100  1
  O  O51  1  0.08351700  0.19830300  0.52122900  1
  O  O52  1  0.58351700  0.30169700  0.52122900  1
  O  O53  1  0.91648300  0.80169700  0.47877100  1
  O  O54  1  0.91648300  0.30169700  0.02122900  1
  O  O55  1  0.08351700  0.69830300  0.97877100  1
loop_
_geom_bond_atom_site_label_1
_geom_bond_atom_site_label_2
_geom_bond_distance
_geom_bond_site_symmetry_2
Mn0 O36 1.744912 1_555
Mn0 O40 1.921124 1_555
Mn0 O20 1.947781 1_555
Mn0 O0 1.973339 1_555
Mn0 O28 2.261156 1_555
Mn1 O34 1.744912 1_555
Mn1 O41 1.921124 1_555
Mn1 O18 1.947781 1_555
Mn1 O1 1.973339 1_555
Mn1 O26 2.261156 1_555
Mn2 O33 1.744912 1_565
Mn2 O42 1.921124 1_555
Mn2 O17 1.947781 1_565
Mn2 O2 1.973339 1_555
Mn2 O25 2.261156 1_555
Mn3 O39 1.744912 1_555
Mn3 O43 1.921124 1_555
Mn3 O23 1.947781 1_555
Mn3 O3 1.973339 1_555
Mn3 O31 2.261156 1_555
Mn4 O32 1.744912 1_545
Mn4 O44 1.921124 1_555
Mn4 O16 1.947781 1_545
Mn4 O4 1.973339 1_555
Mn4 O24 2.261156 1_555
Mn5 O38 1.744912 1_555
Mn5 O45 1.921124 1_555
Mn5 O22 1.947781 1_555
Mn5 O5 1.973339 1_555
Mn5 O30 2.261156 1_555
Mn6 O37 1.744912 1_545
Mn6 O46 1.921124 1_555
Mn6 O21 1.947781 1_545
Mn6 O6 1.973339 1_555
Mn6 O29 2.261156 1_555
Mn7 O35 1.744912 1_565
Mn7 O47 1.921124 1_555
Mn7 O19 1.947781 1_565
Mn7 O7 1.973339 1_555
Mn7 O27 2.261156 1_555
O0 P0 1.520953 1_555
O1 P1 1.520953 1_555
O2 P2 1.520953 1_555
O3 P3 1.520953 1_555
O4 P4 1.520953 1_555
O5 P5 1.520953 1_555
O6 P6 1.520953 1_555
O7 P7 1.520953 1_555
O10 O27 1.245434 1_555
O10 O50 1.749715 1_555
O11 O26 1.245434 1_555
O11 O51 1.749715 1_555
O12 O29 1.245434 1_555
O12 O52 1.749715 1_555
O13 O28 1.245434 1_555
O13 O53 1.749715 1_555
O14 O24 1.245434 1_556
O14 O54 1.749715 1_556
O15 O25 1.245434 1_554
O15 O55 1.749715 1_554
O16 P0 1.546349 1_555
O17 P1 1.546349 1_555
O18 P2 1.546349 1_555
O19 P3 1.546349 1_555
O20 P4 1.546349 1_555
O21 P5 1.546349 1_555
O22 P6 1.546349 1_555
O23 P7 1.546349 1_555
O30 O8 1.245434 1_556
O31 O9 1.245434 1_554
O40 P7 1.544900 1_555
O41 P6 1.544900 1_555
O42 P5 1.544900 1_555
O43 P4 1.544900 1_455
O44 P3 1.544900 1_555
O45 P2 1.544900 1_655
O46 P1 1.544900 1_655
O47 P0 1.544900 1_455
O48 P5 1.607536 1_555
O48 O8 1.749715 1_556
O49 P3 1.607536 1_555
O49 O9 1.749715 1_554
O50 P7 1.607536 1_555
O51 P1 1.607536 1_555
O52 P6 1.607536 1_555
O53 P0 1.607536 1_555
O54 P4 1.607536 1_555
O55 P2 1.607536 1_555
