# generated using pymatgen
data_Li3MnV(PO4)3
_symmetry_space_group_name_H-M   'P 1'
_cell_length_a   8.66025900
_cell_length_b   8.67673399
_cell_length_c   12.63450724
_cell_angle_alpha   105.55622331
_cell_angle_beta   105.99559300
_cell_angle_gamma   95.61037158
_symmetry_Int_Tables_number   1
_chemical_formula_structural   Li3MnV(PO4)3
_chemical_formula_sum   'Li12 Mn4 V4 P12 O48'
_cell_volume   863.96474206
_cell_formula_units_Z   4
loop_
 _symmetry_equiv_pos_site_id
 _symmetry_equiv_pos_as_xyz
  1  'x, y, z'
loop_
 _atom_site_type_symbol
 _atom_site_label
 _atom_site_symmetry_multiplicity
 _atom_site_fract_x
 _atom_site_fract_y
 _atom_site_fract_z
 _atom_site_occupancy
  Li  Li0  1  0.99999200  0.99912400  0.12659100  1
  Li  Li1  1  0.00149800  0.99270800  0.62506600  1
  Li  Li2  1  0.71063700  0.29320100  0.37715400  1
  Li  Li3  1  0.50074600  0.50223200  0.25133600  1
  Li  Li4  1  0.71023600  0.29252300  0.87512200  1
  Li  Li5  1  0.49952000  0.49976700  0.49825000  1
  Li  Li6  1  0.28958300  0.71107900  0.12580900  1
  Li  Li7  1  0.49960400  0.49908400  0.75017600  1
  Li  Li8  1  0.49850400  0.49900200  0.00014100  1
  Li  Li9  1  0.28563400  0.70761400  0.62244600  1
  Li  Li10  1  0.00133200  0.99978900  0.37545100  1
  Li  Li11  1  0.00287300  0.00566800  0.87312200  1
  Mn  Mn0  1  0.94201800  0.62995700  0.68402900  1
  Mn  Mn1  1  0.62665000  0.94403600  0.43583800  1
  Mn  Mn2  1  0.05729400  0.37661900  0.31515700  1
  Mn  Mn3  1  0.05797200  0.36885000  0.81351300  1
  V  V0  1  0.94323400  0.62355700  0.18091600  1
  V  V1  1  0.37907900  0.05492700  0.07074600  1
  V  V2  1  0.62025200  0.94341400  0.93123000  1
  V  V3  1  0.37809900  0.05693300  0.56891700  1
  P  P0  1  0.71290700  0.29021200  0.12550200  1
  P  P1  1  0.86467600  0.66510100  0.43429500  1
  P  P2  1  0.66160800  0.86097100  0.18397100  1
  P  P3  1  0.71393200  0.29035500  0.62454900  1
  P  P4  1  0.85926400  0.66665000  0.93035300  1
  P  P5  1  0.66374900  0.86824200  0.68226000  1
  P  P6  1  0.33215100  0.13382300  0.31644000  1
  P  P7  1  0.13944900  0.33836100  0.06744600  1
  P  P8  1  0.28822500  0.71317800  0.37522300  1
  P  P9  1  0.33709400  0.13075800  0.81773200  1
  P  P10  1  0.14166800  0.33452000  0.56723000  1
  P  P11  1  0.28386600  0.70840900  0.87462900  1
  O  O0  1  0.98541500  0.66080000  0.04337700  1
  O  O1  1  0.94939400  0.61118200  0.33878800  1
  O  O2  1  0.73962500  0.17518900  0.01760200  1
  O  O3  1  0.98813800  0.65673500  0.54912900  1
  O  O4  1  0.82645000  0.27011000  0.23905100  1
  O  O5  1  0.84436600  0.84290700  0.19696000  1
  O  O6  1  0.73501600  0.46467500  0.11435000  1
  O  O7  1  0.85482400  0.84956500  0.45524400  1
  O  O8  1  0.94484000  0.61538800  0.83452800  1
  O  O9  1  0.73549000  0.17431800  0.51352600  1
  O  O10  1  0.82671300  0.26627900  0.73671900  1
  O  O11  1  0.84764000  0.85985300  0.69702000  1
  O  O12  1  0.70270600  0.54926600  0.39898000  1
  O  O13  1  0.60190100  0.95208700  0.09084900  1
  O  O14  1  0.66539000  0.98381600  0.30096000  1
  O  O15  1  0.53736400  0.26284900  0.13466100  1
  O  O16  1  0.74110200  0.46340700  0.61211500  1
  O  O17  1  0.54322700  0.70190800  0.14844800  1
  O  O18  1  0.83995000  0.84983300  0.94999500  1
  O  O19  1  0.70045100  0.54622400  0.89563200  1
  O  O20  1  0.59825700  0.95559900  0.58671800  1
  O  O21  1  0.44849400  0.29501700  0.35007000  1
  O  O22  1  0.65880700  0.99029300  0.79623700  1
  O  O23  1  0.53915900  0.26638200  0.63494700  1
  O  O24  1  0.46559200  0.73960800  0.36799800  1
  O  O25  1  0.34220900  0.00884800  0.20449400  1
  O  O26  1  0.55074400  0.70565400  0.64773800  1
  O  O27  1  0.38845500  0.05133200  0.41319700  1
  O  O28  1  0.29904300  0.45624300  0.10345000  1
  O  O29  1  0.15751800  0.15619300  0.05392900  1
  O  O30  1  0.45022400  0.29352600  0.85168900  1
  O  O31  1  0.26274000  0.53576000  0.38257000  1
  O  O32  1  0.46130800  0.73423100  0.86838800  1
  O  O33  1  0.34050400  0.00857000  0.70334900  1
  O  O34  1  0.40197700  0.04589700  0.91366600  1
  O  O35  1  0.30094100  0.45453100  0.60328500  1
  O  O36  1  0.14707900  0.14462900  0.29477400  1
  O  O37  1  0.17615100  0.73900600  0.26458900  1
  O  O38  1  0.26142900  0.82316700  0.48511700  1
  O  O39  1  0.04751100  0.39837000  0.16045000  1
  O  O40  1  0.15990200  0.15152700  0.54969800  1
  O  O41  1  0.25766900  0.53356400  0.88496800  1
  O  O42  1  0.15296300  0.13980000  0.80290100  1
  O  O43  1  0.17431300  0.73134100  0.76106000  1
  O  O44  1  0.01791700  0.33736800  0.45172400  1
  O  O45  1  0.25771900  0.82433700  0.98250100  1
  O  O46  1  0.05262900  0.38479400  0.66130500  1
  O  O47  1  0.01539800  0.33735500  0.95061900  1
loop_
_geom_bond_atom_site_label_1
_geom_bond_atom_site_label_2
_geom_bond_distance
_geom_bond_site_symmetry_2
Li0 O36 2.118170 1_665
Li0 O18 2.229717 1_554
Li0 O5 2.322446 1_555
Li0 O29 2.357762 1_665
Li1 O7 2.126000 1_455
Li1 O11 2.204561 1_455
Li1 O42 2.215431 1_565
Li1 O40 2.396195 1_565
Li2 O12 2.174590 1_555
Li2 O21 2.202955 1_555
Li2 O9 2.207117 1_555
Li2 O4 2.215157 1_555
Li2 O44 2.518186 1_655
Li2 O14 2.546936 1_545
Li3 O12 2.087910 1_555
Li3 O28 2.089671 1_555
Li3 O24 2.291069 1_555
Li3 O15 2.309104 1_555
Li3 O17 2.484717 1_555
Li3 O21 2.519636 1_555
Li4 O19 2.159317 1_555
Li4 O30 2.189977 1_555
Li4 O10 2.220502 1_555
Li4 O2 2.263406 1_556
Li4 O22 2.488706 1_545
Li4 O47 2.501227 1_655
Li5 O21 2.112598 1_555
Li5 O26 2.128118 1_555
Li5 O31 2.270868 1_555
Li5 O16 2.293473 1_555
Li5 O12 2.492265 1_555
Li5 O35 2.505569 1_555
Li6 O17 2.147884 1_555
Li6 O28 2.165367 1_555
Li6 O37 2.205935 1_555
Li6 O45 2.247723 1_554
Li6 O25 2.452290 1_565
Li6 O0 2.496697 1_455
Li7 O19 2.065463 1_555
Li7 O35 2.068623 1_555
Li7 O23 2.268710 1_555
Li7 O32 2.296600 1_555
Li7 O30 2.527667 1_555
Li7 O26 2.547295 1_555
Li8 O17 2.111380 1_555
Li8 O30 2.121273 1_554
Li8 O6 2.255470 1_555
Li8 O41 2.289368 1_554
Li8 O28 2.490432 1_555
Li8 O19 2.528414 1_554
Li9 O35 2.165126 1_555
Li9 O43 2.194281 1_555
Li9 O38 2.198508 1_555
Li9 O26 2.231561 1_555
Li9 O3 2.435925 1_455
Li9 O33 2.479437 1_565
Li10 O40 2.211691 1_565
Li10 O5 2.255804 1_455
Li10 O36 2.301644 1_565
Li10 O7 2.326289 1_455
Li11 O42 2.173653 1_555
Li11 O11 2.206248 1_445
Li11 O29 2.255996 1_556
Li11 O18 2.418478 1_445
Mn0 O3 1.920396 1_555
Mn0 O8 1.932906 1_555
Mn0 O16 1.968306 1_555
Mn0 O43 1.970746 1_655
Mn0 O11 2.211584 1_555
Mn0 O46 2.397394 1_655
Mn1 O14 1.934852 1_555
Mn1 O20 1.965976 1_555
Mn1 O24 1.966800 1_555
Mn1 O9 1.978434 1_565
Mn1 O7 2.189581 1_555
Mn1 O27 2.323133 1_565
Mn2 O44 1.956080 1_555
Mn2 O31 1.962489 1_555
Mn2 O4 1.969267 1_455
Mn2 O39 1.993279 1_555
Mn2 O36 2.204790 1_555
Mn2 O1 2.303089 1_455
Mn3 O47 1.948736 1_555
Mn3 O41 1.952614 1_555
Mn3 O46 1.953048 1_555
Mn3 O10 1.965174 1_455
Mn3 O42 2.209535 1_555
Mn3 O8 2.419684 1_455
O0 P4 1.557317 1_554
O0 V0 1.971183 1_555
O1 P1 1.570186 1_555
O1 V0 2.012534 1_555
O2 P0 1.548325 1_555
O2 V2 2.024491 1_544
O3 P1 1.571693 1_555
O4 P0 1.563899 1_555
O5 P2 1.573432 1_555
O5 V0 2.145667 1_555
O6 P0 1.555831 1_555
O6 V0 1.978804 1_555
O7 P1 1.565568 1_555
O8 P4 1.575754 1_555
O9 P3 1.561970 1_555
O10 P3 1.562662 1_555
O11 P5 1.562863 1_555
O12 P1 1.521742 1_555
O13 P2 1.587522 1_555
O13 V2 2.048317 1_554
O13 V1 2.184624 1_565
O14 P2 1.563146 1_555
O15 P0 1.556288 1_555
O15 V1 1.977591 1_555
O16 P3 1.553203 1_555
O17 P2 1.514862 1_555
O18 P4 1.574530 1_555
O18 V2 2.119500 1_555
O19 P4 1.522009 1_555
O20 P5 1.597139 1_555
O20 V3 2.157868 1_565
O21 P6 1.523703 1_555
O22 P5 1.556248 1_555
O22 V2 1.960948 1_555
O23 P3 1.553749 1_555
O23 V3 1.998517 1_555
O24 P8 1.562045 1_555
O25 P6 1.564501 1_555
O25 V1 1.937049 1_555
O26 P5 1.517543 1_555
O27 P6 1.566381 1_555
O27 V3 1.981934 1_555
O28 P7 1.513574 1_555
O29 P7 1.571727 1_555
O29 V1 2.168866 1_555
O30 P9 1.520305 1_555
O31 P8 1.564804 1_555
O32 P11 1.557813 1_555
O32 V2 1.988888 1_555
O33 P9 1.556035 1_555
O33 V3 1.956345 1_555
O34 P9 1.584698 1_555
O34 V1 2.029962 1_556
O34 V2 2.148620 1_545
O35 P10 1.520809 1_555
O36 P6 1.566508 1_555
O37 P8 1.552084 1_555
O37 V0 2.012834 1_455
O38 P8 1.550030 1_555
O38 V3 2.028259 1_565
O39 P7 1.598231 1_555
O39 V0 2.214221 1_455
O40 P10 1.573121 1_555
O40 V3 2.112022 1_555
O41 P11 1.557372 1_555
O42 P9 1.565808 1_555
O43 P11 1.561538 1_555
O44 P10 1.562520 1_555
O45 P11 1.549158 1_555
O45 V1 2.024181 1_566
O46 P10 1.578107 1_555
O47 P7 1.565332 1_556
