# generated using pymatgen
data_Mg2Sn
_symmetry_space_group_name_H-M   'P 1'
_cell_length_a   12.22634379
_cell_length_b   12.22634379
_cell_length_c   15.34105656
_cell_angle_alpha   72.74524420
_cell_angle_beta   72.74524420
_cell_angle_gamma   31.99993102
_symmetry_Int_Tables_number   1
_chemical_formula_structural   Mg2Sn
_chemical_formula_sum   'Mg32 Sn16'
_cell_volume   1155.92399829
_cell_formula_units_Z   16
loop_
 _symmetry_equiv_pos_site_id
 _symmetry_equiv_pos_as_xyz
  1  'x, y, z'
loop_
 _atom_site_type_symbol
 _atom_site_label
 _atom_site_symmetry_multiplicity
 _atom_site_fract_x
 _atom_site_fract_y
 _atom_site_fract_z
 _atom_site_occupancy
  Mg  Mg0_0  1  0.15255800  0.15255800  0.06870550  1
  Mg  Mg0_1  1  0.15255800  0.15255800  0.56870550  1
  Mg  Mg0_2  1  0.15255800  0.65255800  0.06870550  1
  Mg  Mg0_3  1  0.15255800  0.65255800  0.56870550  1
  Mg  Mg0_4  1  0.65255800  0.15255800  0.06870550  1
  Mg  Mg0_5  1  0.65255800  0.15255800  0.56870550  1
  Mg  Mg0_6  1  0.65255800  0.65255800  0.06870550  1
  Mg  Mg0_7  1  0.65255800  0.65255800  0.56870550  1
  Mg  Mg1_0  1  0.01297500  0.01297500  0.09685500  1
  Mg  Mg1_1  1  0.01297500  0.01297500  0.59685500  1
  Mg  Mg1_2  1  0.01297500  0.51297500  0.09685500  1
  Mg  Mg1_3  1  0.01297500  0.51297500  0.59685500  1
  Mg  Mg1_4  1  0.51297500  0.01297500  0.09685500  1
  Mg  Mg1_5  1  0.51297500  0.01297500  0.59685500  1
  Mg  Mg1_6  1  0.51297500  0.51297500  0.09685500  1
  Mg  Mg1_7  1  0.51297500  0.51297500  0.59685500  1
  Mg  Mg2_0  1  0.48702500  0.48702500  0.40314500  1
  Mg  Mg2_1  1  0.48702500  0.48702500  0.90314500  1
  Mg  Mg2_2  1  0.48702500  0.98702500  0.40314500  1
  Mg  Mg2_3  1  0.48702500  0.98702500  0.90314500  1
  Mg  Mg2_4  1  0.98702500  0.48702500  0.40314500  1
  Mg  Mg2_5  1  0.98702500  0.48702500  0.90314500  1
  Mg  Mg2_6  1  0.98702500  0.98702500  0.40314500  1
  Mg  Mg2_7  1  0.98702500  0.98702500  0.90314500  1
  Mg  Mg3_0  1  0.34744200  0.34744200  0.43129450  1
  Mg  Mg3_1  1  0.34744200  0.34744200  0.93129450  1
  Mg  Mg3_2  1  0.34744200  0.84744200  0.43129450  1
  Mg  Mg3_3  1  0.34744200  0.84744200  0.93129450  1
  Mg  Mg3_4  1  0.84744200  0.34744200  0.43129450  1
  Mg  Mg3_5  1  0.84744200  0.34744200  0.93129450  1
  Mg  Mg3_6  1  0.84744200  0.84744200  0.43129450  1
  Mg  Mg3_7  1  0.84744200  0.84744200  0.93129450  1
  Sn  Sn0_0  1  0.31953050  0.31953050  0.23412200  1
  Sn  Sn0_1  1  0.31953050  0.31953050  0.73412200  1
  Sn  Sn0_2  1  0.31953050  0.81953050  0.23412200  1
  Sn  Sn0_3  1  0.31953050  0.81953050  0.73412200  1
  Sn  Sn0_4  1  0.81953050  0.31953050  0.23412200  1
  Sn  Sn0_5  1  0.81953050  0.31953050  0.73412200  1
  Sn  Sn0_6  1  0.81953050  0.81953050  0.23412200  1
  Sn  Sn0_7  1  0.81953050  0.81953050  0.73412200  1
  Sn  Sn1_0  1  0.18046950  0.18046950  0.26587800  1
  Sn  Sn1_1  1  0.18046950  0.18046950  0.76587800  1
  Sn  Sn1_2  1  0.18046950  0.68046950  0.26587800  1
  Sn  Sn1_3  1  0.18046950  0.68046950  0.76587800  1
  Sn  Sn1_4  1  0.68046950  0.18046950  0.26587800  1
  Sn  Sn1_5  1  0.68046950  0.18046950  0.76587800  1
  Sn  Sn1_6  1  0.68046950  0.68046950  0.26587800  1
  Sn  Sn1_7  1  0.68046950  0.68046950  0.76587800  1
loop_
_geom_bond_atom_site_label_1
_geom_bond_atom_site_label_2
_geom_bond_distance
_geom_bond_site_symmetry_2
Mg0_0 Sn0_4 3.167226 1_455
Mg0_0 Sn0_2 3.167226 1_545
Mg0_0 Mg1_0 3.174393 1_555
Mg0_0 Mg2_5 3.181203 1_454
Mg0_0 Mg2_3 3.181203 1_544
Mg0_0 Mg1_2 3.233198 1_555
Mg0_0 Mg1_4 3.233198 1_555
Mg0_0 Mg3_5 3.262957 1_454
Mg0_0 Mg3_3 3.262957 1_544
Mg0_0 Sn1_0 3.287064 1_555
Mg0_0 Mg0_6 3.370030 1_545
Mg0_0 Mg0_6 3.370030 1_455
Mg0_1 Sn0_3 3.167226 1_545
Mg0_1 Sn0_5 3.167226 1_455
Mg0_1 Mg1_1 3.174393 1_555
Mg0_1 Mg2_4 3.181203 1_455
Mg0_1 Mg2_2 3.181203 1_545
Mg0_1 Mg1_3 3.233198 1_555
Mg0_1 Mg1_5 3.233198 1_555
Mg0_1 Mg3_2 3.262957 1_545
Mg0_1 Mg3_4 3.262957 1_455
Mg0_1 Sn1_1 3.287064 1_555
Mg0_1 Mg0_7 3.370030 1_455
Mg0_1 Mg0_7 3.370030 1_545
Mg0_2 Sn0_6 3.167226 1_455
Mg0_2 Sn0_0 3.167226 1_555
Mg0_2 Mg1_2 3.174393 1_555
Mg0_2 Mg2_7 3.181203 1_454
Mg0_2 Mg2_1 3.181203 1_554
Mg0_2 Mg1_6 3.233198 1_555
Mg0_2 Mg1_0 3.233198 1_565
Mg0_2 Mg3_7 3.262957 1_454
Mg0_2 Mg3_1 3.262957 1_554
Mg0_2 Sn1_2 3.287064 1_555
Mg0_2 Mg0_4 3.370030 1_465
Mg0_2 Mg0_4 3.370030 1_555
Mg0_3 Sn0_7 3.167226 1_455
Mg0_3 Sn0_1 3.167226 1_555
Mg0_3 Mg1_3 3.174393 1_555
Mg0_3 Mg2_0 3.181203 1_555
Mg0_3 Mg2_6 3.181203 1_455
Mg0_3 Mg1_1 3.233198 1_565
Mg0_3 Mg1_7 3.233198 1_555
Mg0_3 Mg3_0 3.262957 1_555
Mg0_3 Mg3_6 3.262957 1_455
Mg0_3 Sn1_3 3.287064 1_555
Mg0_3 Mg0_5 3.370030 1_465
Mg0_3 Mg0_5 3.370030 1_555
Mg0_4 Sn0_0 3.167226 1_555
Mg0_4 Sn0_6 3.167226 1_545
Mg0_4 Mg1_4 3.174393 1_555
Mg0_4 Mg2_7 3.181203 1_544
Mg0_4 Mg2_1 3.181203 1_554
Mg0_4 Mg1_6 3.233198 1_555
Mg0_4 Mg1_0 3.233198 1_655
Mg0_4 Mg3_7 3.262957 1_544
Mg0_4 Mg3_1 3.262957 1_554
Mg0_4 Sn1_4 3.287064 1_555
Mg0_5 Sn0_7 3.167226 1_545
Mg0_5 Sn0_1 3.167226 1_555
Mg0_5 Mg1_5 3.174393 1_555
Mg0_5 Mg2_0 3.181203 1_555
Mg0_5 Mg2_6 3.181203 1_545
Mg0_5 Mg1_1 3.233198 1_655
Mg0_5 Mg1_7 3.233198 1_555
Mg0_5 Mg3_0 3.262957 1_555
Mg0_5 Mg3_6 3.262957 1_545
Mg0_5 Sn1_5 3.287064 1_555
Mg0_6 Sn0_2 3.167226 1_555
Mg0_6 Sn0_4 3.167226 1_555
Mg0_6 Mg1_6 3.174393 1_555
Mg0_6 Mg2_5 3.181203 1_554
Mg0_6 Mg2_3 3.181203 1_554
Mg0_6 Mg1_2 3.233198 1_655
Mg0_6 Mg1_4 3.233198 1_565
Mg0_6 Mg3_5 3.262957 1_554
Mg0_6 Mg3_3 3.262957 1_554
Mg0_6 Sn1_6 3.287064 1_555
Mg0_7 Sn0_5 3.167226 1_555
Mg0_7 Sn0_3 3.167226 1_555
Mg0_7 Mg1_7 3.174393 1_555
Mg0_7 Mg2_2 3.181203 1_555
Mg0_7 Mg2_4 3.181203 1_555
Mg0_7 Mg1_5 3.233198 1_565
Mg0_7 Mg1_3 3.233198 1_655
Mg0_7 Mg3_2 3.262957 1_555
Mg0_7 Mg3_4 3.262957 1_555
Mg0_7 Sn1_7 3.287064 1_555
Mg1_0 Mg3_3 3.181203 1_544
Mg1_0 Mg3_5 3.181203 1_454
Mg1_0 Sn1_4 3.196942 1_455
Mg1_0 Sn1_2 3.196942 1_545
Mg1_0 Mg2_7 3.212760 1_444
Mg1_0 Sn0_4 3.281555 1_455
Mg1_0 Sn0_2 3.281555 1_545
Mg1_0 Mg1_6 3.370030 1_455
Mg1_0 Mg1_6 3.370030 1_545
Mg1_1 Mg3_2 3.181203 1_545
Mg1_1 Mg3_4 3.181203 1_455
Mg1_1 Sn1_3 3.196942 1_545
Mg1_1 Sn1_5 3.196942 1_455
Mg1_1 Mg2_6 3.212760 1_445
Mg1_1 Sn0_5 3.281555 1_455
Mg1_1 Sn0_3 3.281555 1_545
Mg1_1 Mg1_7 3.370030 1_455
Mg1_1 Mg1_7 3.370030 1_545
Mg1_2 Mg3_1 3.181203 1_554
Mg1_2 Mg3_7 3.181203 1_454
Mg1_2 Sn1_6 3.196942 1_455
Mg1_2 Sn1_0 3.196942 1_555
Mg1_2 Mg2_5 3.212760 1_454
Mg1_2 Sn0_6 3.281555 1_455
Mg1_2 Sn0_0 3.281555 1_555
Mg1_2 Mg1_4 3.370030 1_465
Mg1_2 Mg1_4 3.370030 1_555
Mg1_3 Mg3_6 3.181203 1_455
Mg1_3 Mg3_0 3.181203 1_555
Mg1_3 Sn1_1 3.196942 1_555
Mg1_3 Sn1_7 3.196942 1_455
Mg1_3 Mg2_4 3.212760 1_455
Mg1_3 Sn0_1 3.281555 1_555
Mg1_3 Sn0_7 3.281555 1_455
Mg1_3 Mg1_5 3.370030 1_555
Mg1_3 Mg1_5 3.370030 1_465
Mg1_4 Mg3_7 3.181203 1_544
Mg1_4 Mg3_1 3.181203 1_554
Mg1_4 Sn1_6 3.196942 1_545
Mg1_4 Sn1_0 3.196942 1_555
Mg1_4 Mg2_3 3.212760 1_544
Mg1_4 Sn0_0 3.281555 1_555
Mg1_4 Sn0_6 3.281555 1_545
Mg1_5 Mg3_0 3.181203 1_555
Mg1_5 Mg3_6 3.181203 1_545
Mg1_5 Sn1_1 3.196942 1_555
Mg1_5 Sn1_7 3.196942 1_545
Mg1_5 Mg2_2 3.212760 1_545
Mg1_5 Sn0_1 3.281555 1_555
Mg1_5 Sn0_7 3.281555 1_545
Mg1_6 Mg3_5 3.181203 1_554
Mg1_6 Mg3_3 3.181203 1_554
Mg1_6 Sn1_2 3.196942 1_555
Mg1_6 Sn1_4 3.196942 1_555
Mg1_6 Mg2_1 3.212760 1_554
Mg1_6 Sn0_4 3.281555 1_555
Mg1_6 Sn0_2 3.281555 1_555
Mg1_7 Mg3_4 3.181203 1_555
Mg1_7 Mg3_2 3.181203 1_555
Mg1_7 Sn1_3 3.196942 1_555
Mg1_7 Sn1_5 3.196942 1_555
Mg1_7 Mg2_0 3.212760 1_555
Mg1_7 Sn0_5 3.281555 1_555
Mg1_7 Sn0_3 3.281555 1_555
Mg2_0 Mg3_0 3.174393 1_555
Mg2_0 Sn0_4 3.196942 1_555
Mg2_0 Sn0_2 3.196942 1_555
Mg2_0 Mg3_2 3.233198 1_555
Mg2_0 Mg3_4 3.233198 1_555
Mg2_0 Sn1_4 3.281555 1_555
Mg2_0 Sn1_2 3.281555 1_555
Mg2_0 Mg2_6 3.370030 1_455
Mg2_0 Mg2_6 3.370030 1_545
Mg2_1 Mg3_1 3.174393 1_555
Mg2_1 Sn0_3 3.196942 1_555
Mg2_1 Sn0_5 3.196942 1_555
Mg2_1 Mg3_3 3.233198 1_555
Mg2_1 Mg3_5 3.233198 1_555
Mg2_1 Sn1_3 3.281555 1_555
Mg2_1 Sn1_5 3.281555 1_555
Mg2_1 Mg2_7 3.370030 1_455
Mg2_1 Mg2_7 3.370030 1_545
Mg2_2 Mg3_2 3.174393 1_555
Mg2_2 Sn0_0 3.196942 1_565
Mg2_2 Sn0_6 3.196942 1_555
Mg2_2 Mg3_6 3.233198 1_555
Mg2_2 Mg3_0 3.233198 1_565
Mg2_2 Sn1_6 3.281555 1_555
Mg2_2 Sn1_0 3.281555 1_565
Mg2_2 Mg2_4 3.370030 1_555
Mg2_2 Mg2_4 3.370030 1_465
Mg2_3 Mg3_3 3.174393 1_555
Mg2_3 Sn0_1 3.196942 1_565
Mg2_3 Sn0_7 3.196942 1_555
Mg2_3 Mg3_1 3.233198 1_565
Mg2_3 Mg3_7 3.233198 1_555
Mg2_3 Sn1_7 3.281555 1_555
Mg2_3 Sn1_1 3.281555 1_565
Mg2_3 Mg2_5 3.370030 1_465
Mg2_3 Mg2_5 3.370030 1_555
Mg2_4 Mg3_4 3.174393 1_555
Mg2_4 Sn0_6 3.196942 1_555
Mg2_4 Sn0_0 3.196942 1_655
Mg2_4 Mg3_6 3.233198 1_555
Mg2_4 Mg3_0 3.233198 1_655
Mg2_4 Sn1_6 3.281555 1_555
Mg2_4 Sn1_0 3.281555 1_655
Mg2_5 Mg3_5 3.174393 1_555
Mg2_5 Sn0_1 3.196942 1_655
Mg2_5 Sn0_7 3.196942 1_555
Mg2_5 Mg3_7 3.233198 1_555
Mg2_5 Mg3_1 3.233198 1_655
Mg2_5 Sn1_7 3.281555 1_555
Mg2_5 Sn1_1 3.281555 1_655
Mg2_6 Mg3_6 3.174393 1_555
Mg2_6 Sn0_4 3.196942 1_565
Mg2_6 Sn0_2 3.196942 1_655
Mg2_6 Mg3_4 3.233198 1_565
Mg2_6 Mg3_2 3.233198 1_655
Mg2_6 Sn1_2 3.281555 1_655
Mg2_6 Sn1_4 3.281555 1_565
Mg2_7 Mg3_7 3.174393 1_555
Mg2_7 Sn0_5 3.196942 1_565
Mg2_7 Sn0_3 3.196942 1_655
Mg2_7 Mg3_5 3.233198 1_565
Mg2_7 Mg3_3 3.233198 1_655
Mg2_7 Sn1_3 3.281555 1_655
Mg2_7 Sn1_5 3.281555 1_565
Mg3_0 Sn1_4 3.167226 1_555
Mg3_0 Sn1_2 3.167226 1_555
Mg3_0 Sn0_0 3.287064 1_555
Mg3_0 Mg3_6 3.370030 1_455
Mg3_0 Mg3_6 3.370030 1_545
Mg3_1 Sn1_5 3.167226 1_555
Mg3_1 Sn1_3 3.167226 1_555
Mg3_1 Sn0_1 3.287064 1_555
Mg3_1 Mg3_7 3.370030 1_455
Mg3_1 Mg3_7 3.370030 1_545
Mg3_2 Sn1_6 3.167226 1_555
Mg3_2 Sn1_0 3.167226 1_565
Mg3_2 Sn0_2 3.287064 1_555
Mg3_2 Mg3_4 3.370030 1_555
Mg3_2 Mg3_4 3.370030 1_465
Mg3_3 Sn1_1 3.167226 1_565
Mg3_3 Sn1_7 3.167226 1_555
Mg3_3 Sn0_3 3.287064 1_555
Mg3_3 Mg3_5 3.370030 1_555
Mg3_3 Mg3_5 3.370030 1_465
Mg3_4 Sn1_6 3.167226 1_555
Mg3_4 Sn1_0 3.167226 1_655
Mg3_4 Sn0_4 3.287064 1_555
Mg3_5 Sn1_7 3.167226 1_555
Mg3_5 Sn1_1 3.167226 1_655
Mg3_5 Sn0_5 3.287064 1_555
Mg3_6 Sn1_2 3.167226 1_655
Mg3_6 Sn1_4 3.167226 1_565
Mg3_6 Sn0_6 3.287064 1_555
Mg3_7 Sn1_3 3.167226 1_655
Mg3_7 Sn1_5 3.167226 1_565
Mg3_7 Sn0_7 3.287064 1_555
Sn0_0 Sn1_0 3.152604 1_555
Sn0_0 Sn1_4 3.265052 1_555
Sn0_0 Sn1_2 3.265052 1_555
Sn0_0 Sn0_6 3.370030 1_545
Sn0_0 Sn0_6 3.370030 1_455
Sn0_1 Sn1_1 3.152604 1_555
Sn0_1 Sn1_5 3.265052 1_555
Sn0_1 Sn1_3 3.265052 1_555
Sn0_1 Sn0_7 3.370030 1_455
Sn0_1 Sn0_7 3.370030 1_545
Sn0_2 Sn1_2 3.152604 1_555
Sn0_2 Sn1_0 3.265052 1_565
Sn0_2 Sn1_6 3.265052 1_555
Sn0_2 Sn0_4 3.370030 1_555
Sn0_2 Sn0_4 3.370030 1_465
Sn0_3 Sn1_3 3.152604 1_555
Sn0_3 Sn1_1 3.265052 1_565
Sn0_3 Sn1_7 3.265052 1_555
Sn0_3 Sn0_5 3.370030 1_465
Sn0_3 Sn0_5 3.370030 1_555
Sn0_4 Sn1_4 3.152604 1_555
Sn0_4 Sn1_0 3.265052 1_655
Sn0_4 Sn1_6 3.265052 1_555
Sn0_5 Sn1_5 3.152604 1_555
Sn0_5 Sn1_1 3.265052 1_655
Sn0_5 Sn1_7 3.265052 1_555
Sn0_6 Sn1_6 3.152604 1_555
Sn0_6 Sn1_2 3.265052 1_655
Sn0_6 Sn1_4 3.265052 1_565
Sn0_7 Sn1_7 3.152604 1_555
Sn0_7 Sn1_3 3.265052 1_655
Sn0_7 Sn1_5 3.265052 1_565
Sn1_0 Sn1_6 3.370030 1_455
Sn1_0 Sn1_6 3.370030 1_545
Sn1_1 Sn1_7 3.370030 1_545
Sn1_1 Sn1_7 3.370030 1_455
Sn1_2 Sn1_4 3.370030 1_555
Sn1_2 Sn1_4 3.370030 1_465
Sn1_3 Sn1_5 3.370030 1_465
Sn1_3 Sn1_5 3.370030 1_555
