# generated using pymatgen
data_Sr2GdCu2RuO8
_symmetry_space_group_name_H-M   'P 1'
_cell_length_a   3.85573700
_cell_length_b   3.85573700
_cell_length_c   11.89419800
_cell_angle_alpha   90.00000000
_cell_angle_beta   90.00000000
_cell_angle_gamma   90.00000000
_symmetry_Int_Tables_number   1
_chemical_formula_structural   Sr2GdCu2RuO8
_chemical_formula_sum   'Sr2 Gd1 Cu2 Ru1 O8'
_cell_volume   176.82756634
_cell_formula_units_Z   1
loop_
 _symmetry_equiv_pos_site_id
 _symmetry_equiv_pos_as_xyz
  1  'x, y, z'
loop_
 _atom_site_type_symbol
 _atom_site_label
 _atom_site_symmetry_multiplicity
 _atom_site_fract_x
 _atom_site_fract_y
 _atom_site_fract_z
 _atom_site_occupancy
  Sr  Sr0  1  0.50000000  0.50000000  0.80793600  1
  Sr  Sr1  1  0.50000000  0.50000000  0.19206400  1
  Gd  Gd0  1  0.50000000  0.50000000  0.50000000  1
  Cu  Cu0  1  0.00000000  0.00000000  0.64388200  1
  Cu  Cu1  1  0.00000000  0.00000000  0.35611800  1
  Ru  Ru0  1  0.00000000  0.00000000  0.00000000  1
  O  O0  1  0.50000000  0.00000000  0.00000000  1
  O  O1  1  0.00000000  0.50000000  0.00000000  1
  O  O2  1  0.00000000  0.00000000  0.82880800  1
  O  O3  1  0.00000000  0.00000000  0.17119200  1
  O  O4  1  0.50000000  0.00000000  0.62594300  1
  O  O5  1  0.00000000  0.50000000  0.62594300  1
  O  O6  1  0.50000000  0.00000000  0.37405700  1
  O  O7  1  0.00000000  0.50000000  0.37405700  1
loop_
_geom_bond_atom_site_label_1
_geom_bond_atom_site_label_2
_geom_bond_distance
_geom_bond_site_symmetry_2
Gd0 O4 2.441445 1_565
Gd0 O6 2.441445 1_555
Gd0 O6 2.441445 1_565
Gd0 O7 2.441445 1_655
Gd0 O7 2.441445 1_555
Gd0 O4 2.441445 1_555
Gd0 O5 2.441445 1_555
Gd0 O5 2.441445 1_655
Cu0 O5 1.939640 1_545
Cu0 O4 1.939640 1_455
Cu0 O4 1.939640 1_555
Cu0 O5 1.939640 1_555
Cu0 O2 2.199546 1_555
Cu1 O7 1.939640 1_555
Cu1 O6 1.939640 1_455
Cu1 O7 1.939640 1_545
Cu1 O6 1.939640 1_555
Cu1 O3 2.199546 1_555
O0 Ru0 1.927868 1_555
O0 Ru0 1.927868 1_655
O0 Sr1 2.989210 1_545
O0 Sr0 2.989210 1_554
O0 Sr0 2.989210 1_544
O0 Sr1 2.989210 1_555
O1 Ru0 1.927868 1_565
O1 Ru0 1.927868 1_555
O1 Sr0 2.989210 1_554
O1 Sr0 2.989210 1_454
O1 Sr1 2.989210 1_455
O1 Sr1 2.989210 1_555
O2 Ru0 2.036192 1_556
O2 Sr0 2.737697 1_445
O2 Sr0 2.737697 1_545
O2 Sr0 2.737697 1_455
O2 Sr0 2.737697 1_555
O3 Ru0 2.036192 1_555
O3 Sr1 2.737697 1_455
O3 Sr1 2.737697 1_555
O3 Sr1 2.737697 1_445
O3 Sr1 2.737697 1_545
O4 Sr0 2.898695 1_545
O4 Sr0 2.898695 1_555
O5 Sr0 2.898695 1_455
O5 Sr0 2.898695 1_555
O6 Sr1 2.898695 1_555
O6 Sr1 2.898695 1_545
O7 Sr1 2.898695 1_455
O7 Sr1 2.898695 1_555
