# generated using pymatgen
data_Y4CdPt
_symmetry_space_group_name_H-M   'P 1'
_cell_length_a   9.69895535
_cell_length_b   9.69887112
_cell_length_c   9.69874239
_cell_angle_alpha   59.99909321
_cell_angle_beta   59.99900757
_cell_angle_gamma   59.99949096
_symmetry_Int_Tables_number   1
_chemical_formula_structural   Y4CdPt
_chemical_formula_sum   'Y16 Cd4 Pt4'
_cell_volume   645.11727303
_cell_formula_units_Z   4
loop_
 _symmetry_equiv_pos_site_id
 _symmetry_equiv_pos_as_xyz
  1  'x, y, z'
loop_
 _atom_site_type_symbol
 _atom_site_label
 _atom_site_symmetry_multiplicity
 _atom_site_fract_x
 _atom_site_fract_y
 _atom_site_fract_z
 _atom_site_occupancy
  Y  Y0  1  0.35224954  0.35227267  0.35232146  1
  Y  Y1  1  0.35228826  0.35231092  0.94313101  1
  Y  Y2  1  0.35226606  0.94314511  0.35234145  1
  Y  Y3  1  0.94315162  0.35228045  0.35232942  1
  Y  Y4  1  0.80988905  0.19008729  0.19011391  1
  Y  Y5  1  0.19011494  0.80991467  0.80986419  1
  Y  Y6  1  0.19008415  0.80987502  0.19012154  1
  Y  Y7  1  0.80992637  0.19011914  0.80985602  1
  Y  Y8  1  0.19010069  0.19011261  0.80984820  1
  Y  Y9  1  0.80990731  0.80988346  0.19012764  1
  Y  Y10  1  0.93639530  0.56359348  0.56359993  1
  Y  Y11  1  0.56362818  0.93639207  0.93635236  1
  Y  Y12  1  0.56359964  0.93637920  0.56360673  1
  Y  Y13  1  0.93640799  0.56362328  0.93634836  1
  Y  Y14  1  0.56361480  0.56361702  0.93634632  1
  Y  Y15  1  0.93640073  0.93638159  0.56361269  1
  Cd  Cd0  1  0.58125941  0.58125365  0.58124237  1
  Cd  Cd1  1  0.58124055  0.58123397  0.25628283  1
  Cd  Cd2  1  0.58124942  0.25626333  0.58123374  1
  Cd  Cd3  1  0.25625195  0.58124904  0.58123992  1
  Pt  Pt0  1  0.14309398  0.14310071  0.14313460  1
  Pt  Pt1  1  0.14310537  0.14313089  0.57067203  1
  Pt  Pt2  1  0.14310712  0.57066988  0.14313773  1
  Pt  Pt3  1  0.57066858  0.14311155  0.14313655  1
loop_
_geom_bond_atom_site_label_1
_geom_bond_atom_site_label_2
_geom_bond_distance
_geom_bond_site_symmetry_2
Cd0 Cd1 3.151886 1_555
Cd0 Cd2 3.152130 1_555
Cd0 Cd3 3.152267 1_555
Cd0 Y14 3.281894 1_555
Cd0 Y12 3.282089 1_555
Cd0 Y10 3.282188 1_555
Cd0 Y3 3.394645 1_555
Cd0 Y2 3.394681 1_555
Cd0 Y1 3.394727 1_555
Cd0 Y9 3.509657 1_555
Cd0 Y7 3.509793 1_555
Cd0 Y5 3.509847 1_555
Cd1 Cd2 3.151689 1_555
Cd1 Cd3 3.151815 1_555
Cd1 Y11 3.282639 1_554
Cd1 Y13 3.282718 1_554
Cd1 Y14 3.282804 1_554
Cd1 Y0 3.395070 1_555
Cd1 Y3 3.395079 1_555
Cd1 Y2 3.395106 1_555
Cd1 Y4 3.510000 1_555
Cd1 Y6 3.510081 1_555
Cd1 Y9 3.510103 1_555
Cd2 Cd3 3.152041 1_555
Cd2 Y11 3.282162 1_545
Cd2 Y15 3.282445 1_545
Cd2 Y12 3.282518 1_545
Cd2 Y0 3.394835 1_555
Cd2 Y3 3.394855 1_555
Cd2 Y1 3.394897 1_555
Cd2 Y4 3.509751 1_555
Cd2 Y8 3.509956 1_555
Cd2 Y7 3.509994 1_555
Cd3 Y13 3.281998 1_455
Cd3 Y15 3.282208 1_455
Cd3 Y10 3.282379 1_455
Cd3 Y0 3.394715 1_555
Cd3 Y2 3.394772 1_555
Cd3 Y1 3.394803 1_555
Cd3 Y6 3.509713 1_555
Cd3 Y8 3.509833 1_555
Cd3 Y5 3.509927 1_555
Pt0 Y4 2.849867 1_455
Pt0 Y6 2.849999 1_545
Pt0 Y8 2.850393 1_554
Pt0 Y3 2.870640 1_455
Pt0 Y2 2.870683 1_545
Pt0 Y1 2.870847 1_554
Pt0 Y15 3.512370 1_445
Pt0 Y13 3.512835 1_454
Pt0 Y11 3.512963 1_544
Pt1 Y8 2.849308 1_555
Pt1 Y7 2.849481 1_455
Pt1 Y5 2.849726 1_545
Pt1 Y0 2.870032 1_555
Pt1 Y3 2.870101 1_455
Pt1 Y2 2.870216 1_545
Pt1 Y10 3.512290 1_455
Pt1 Y12 3.512605 1_545
Pt1 Y15 3.512793 1_445
Pt2 Y6 2.849504 1_555
Pt2 Y9 2.849731 1_455
Pt2 Y5 2.850228 1_554
Pt2 Y0 2.870319 1_555
Pt2 Y3 2.870441 1_455
Pt2 Y1 2.870559 1_554
Pt2 Y10 3.512211 1_455
Pt2 Y14 3.512734 1_554
Pt2 Y13 3.512995 1_454
Pt3 Y4 2.849618 1_555
Pt3 Y9 2.849977 1_545
Pt3 Y7 2.850317 1_554
Pt3 Y0 2.870443 1_555
Pt3 Y2 2.870607 1_545
Pt3 Y1 2.870718 1_554
Pt3 Y12 3.512301 1_545
Pt3 Y14 3.512685 1_554
Pt3 Y11 3.513071 1_544
