# generated using pymatgen
data_LiVO2
_symmetry_space_group_name_H-M   'P 1'
_cell_length_a   2.95341413
_cell_length_b   10.51042819
_cell_length_c   5.16268449
_cell_angle_alpha   75.81315835
_cell_angle_beta   89.97684821
_cell_angle_gamma   81.93786104
_symmetry_Int_Tables_number   1
_chemical_formula_structural   LiVO2
_chemical_formula_sum   'Li4 V4 O8'
_cell_volume   153.73867494
_cell_formula_units_Z   4
loop_
 _symmetry_equiv_pos_site_id
 _symmetry_equiv_pos_as_xyz
  1  'x, y, z'
loop_
 _atom_site_type_symbol
 _atom_site_label
 _atom_site_symmetry_multiplicity
 _atom_site_fract_x
 _atom_site_fract_y
 _atom_site_fract_z
 _atom_site_occupancy
  Li  Li0  1  0.38029900  0.24021300  0.04801300  1
  Li  Li1  1  0.88037200  0.24004200  0.54697300  1
  Li  Li2  1  0.63090300  0.74016500  0.96368100  1
  Li  Li3  1  0.13091600  0.74012500  0.46381200  1
  V  V0  1  0.24962900  0.49965300  0.91660700  1
  V  V1  1  0.00023500  0.99962100  0.33321500  1
  V  V2  1  0.74963700  0.49964100  0.41662800  1
  V  V3  1  0.50025200  0.99968900  0.83329300  1
  O  O0  1  0.05662200  0.88716900  0.72745300  1
  O  O1  1  0.55675100  0.88700400  0.22756100  1
  O  O2  1  0.80561200  0.38697800  0.13466200  1
  O  O3  1  0.30553900  0.38713800  0.63464900  1
  O  O4  1  0.44282500  0.11416900  0.43854800  1
  O  O5  1  0.94287500  0.11418600  0.93866500  1
  O  O6  1  0.19277200  0.61417400  0.19705300  1
  O  O7  1  0.69274200  0.61427200  0.69716800  1
loop_
_geom_bond_atom_site_label_1
_geom_bond_atom_site_label_2
_geom_bond_distance
_geom_bond_site_symmetry_2
Li0 O4 2.115811 1_555
Li0 O5 2.140644 1_554
Li0 O5 2.142279 1_454
Li0 O2 2.244919 1_555
Li0 O2 2.250256 1_455
Li0 O3 2.297187 1_554
Li1 O5 2.119842 1_555
Li1 O4 2.137490 1_655
Li1 O4 2.139314 1_555
Li1 O3 2.249427 1_655
Li1 O3 2.254676 1_555
Li1 O2 2.293084 1_555
Li2 O7 2.121737 1_555
Li2 O6 2.135902 1_656
Li2 O6 2.139365 1_556
Li2 O0 2.252887 1_655
Li2 O0 2.257056 1_555
Li2 O1 2.285029 1_556
Li3 O6 2.123224 1_555
Li3 O7 2.135240 1_555
Li3 O7 2.138598 1_455
Li3 O1 2.252326 1_555
Li3 O1 2.256289 1_455
Li3 O0 2.285831 1_555
O0 V3 2.041039 1_555
O0 V3 2.041621 1_455
O0 V1 2.081619 1_555
O1 V1 2.041083 1_655
O1 V1 2.042083 1_555
O1 V3 2.082526 1_554
O2 V0 2.041731 1_554
O2 V0 2.042155 1_654
O2 V2 2.082883 1_555
O3 V2 2.040886 1_455
O3 V2 2.041290 1_555
O3 V0 2.081715 1_555
O4 V1 2.053479 1_545
O4 V1 2.054177 1_645
O4 V3 2.090654 1_545
O5 V3 2.053234 1_545
O5 V3 2.053900 1_645
O5 V1 2.090106 1_646
O6 V2 2.053369 1_555
O6 V2 2.053979 1_455
O6 V0 2.090606 1_554
O7 V0 2.053435 1_655
O7 V0 2.054134 1_555
O7 V2 2.091859 1_555
