# generated using pymatgen
data_NaBe2Tl3F8
_symmetry_space_group_name_H-M   'P 1'
_cell_length_a   5.86269852
_cell_length_b   5.86269852
_cell_length_c   7.57358100
_cell_angle_alpha   90.00000000
_cell_angle_beta   90.00000000
_cell_angle_gamma   120.00000584
_symmetry_Int_Tables_number   1
_chemical_formula_structural   NaBe2Tl3F8
_chemical_formula_sum   'Na1 Be2 Tl3 F8'
_cell_volume   225.43793831
_cell_formula_units_Z   1
loop_
 _symmetry_equiv_pos_site_id
 _symmetry_equiv_pos_as_xyz
  1  'x, y, z'
loop_
 _atom_site_type_symbol
 _atom_site_label
 _atom_site_symmetry_multiplicity
 _atom_site_fract_x
 _atom_site_fract_y
 _atom_site_fract_z
 _atom_site_occupancy
  Na  Na0  1  0.00000000  0.00000000  0.50000000  1
  Be  Be0  1  0.33333300  0.66666700  0.23296500  1
  Be  Be1  1  0.66666700  0.33333300  0.76703500  1
  Tl  Tl0  1  0.33333300  0.66666700  0.68770500  1
  Tl  Tl1  1  0.66666700  0.33333300  0.31229500  1
  Tl  Tl2  1  0.00000000  0.00000000  0.00000000  1
  F  F0  1  0.33333300  0.66666700  0.02913000  1
  F  F1  1  0.66666700  0.33333300  0.97087000  1
  F  F2  1  0.18658100  0.81341900  0.30663200  1
  F  F3  1  0.81341900  0.18658100  0.69336800  1
  F  F4  1  0.18658100  0.37316300  0.30663200  1
  F  F5  1  0.81341900  0.62683700  0.69336800  1
  F  F6  1  0.62683700  0.81341900  0.30663200  1
  F  F7  1  0.37316300  0.18658100  0.69336800  1
loop_
_geom_bond_atom_site_label_1
_geom_bond_atom_site_label_2
_geom_bond_distance
_geom_bond_site_symmetry_2
Be0 F0 1.543761 1_555
Be0 F6 1.591210 1_555
Be0 F4 1.591210 1_555
Be0 F2 1.591210 1_555
Be1 F1 1.543761 1_555
Be1 F7 1.591210 1_555
Be1 F5 1.591210 1_555
Be1 F3 1.591210 1_555
F0 Tl0 2.585810 1_554
F1 Tl1 2.585810 1_556
F2 Na0 2.394654 1_565
F3 Na0 2.394654 1_655
F4 Na0 2.394658 1_555
F5 Na0 2.394658 1_665
F6 Na0 2.394658 1_665
F7 Na0 2.394658 1_555
