# generated using pymatgen
data_LiLaMg6
_symmetry_space_group_name_H-M   'P 1'
_cell_length_a   5.20312000
_cell_length_b   6.65568600
_cell_length_c   11.69255000
_cell_angle_alpha   90.00000000
_cell_angle_beta   90.00000000
_cell_angle_gamma   90.00000000
_symmetry_Int_Tables_number   1
_chemical_formula_structural   LiLaMg6
_chemical_formula_sum   'Li2 La2 Mg12'
_cell_volume   404.91689942
_cell_formula_units_Z   2
loop_
 _symmetry_equiv_pos_site_id
 _symmetry_equiv_pos_as_xyz
  1  'x, y, z'
loop_
 _atom_site_type_symbol
 _atom_site_label
 _atom_site_symmetry_multiplicity
 _atom_site_fract_x
 _atom_site_fract_y
 _atom_site_fract_z
 _atom_site_occupancy
  Li  Li0  1  0.00000000  0.50000000  0.34025400  1
  Li  Li1  1  0.00000000  0.00000000  0.84025400  1
  La  La0  1  0.50000000  0.50000000  0.16937600  1
  La  La1  1  0.50000000  0.00000000  0.66937600  1
  Mg  Mg0  1  0.00000000  0.24143600  0.07822500  1
  Mg  Mg1  1  0.00000000  0.75856400  0.07822500  1
  Mg  Mg2  1  0.00000000  0.00000000  0.33237900  1
  Mg  Mg3  1  0.50000000  0.74281900  0.42023900  1
  Mg  Mg4  1  0.50000000  0.25718100  0.42023900  1
  Mg  Mg5  1  0.50000000  0.00000000  0.16106400  1
  Mg  Mg6  1  0.00000000  0.74143600  0.57822500  1
  Mg  Mg7  1  0.00000000  0.25856400  0.57822500  1
  Mg  Mg8  1  0.00000000  0.50000000  0.83237900  1
  Mg  Mg9  1  0.50000000  0.24281900  0.92023900  1
  Mg  Mg10  1  0.50000000  0.75718100  0.92023900  1
  Mg  Mg11  1  0.50000000  0.50000000  0.66106400  1
loop_
_geom_bond_atom_site_label_1
_geom_bond_atom_site_label_2
_geom_bond_distance
_geom_bond_site_symmetry_2
Li0 Mg4 3.202286 1_555
Li0 Mg3 3.202286 1_455
Li0 Mg3 3.202286 1_555
Li0 Mg4 3.202286 1_455
Li0 Mg7 3.213166 1_555
Li0 Mg6 3.213166 1_555
Li0 Mg2 3.329117 1_565
Li0 Mg2 3.329117 1_555
Li1 Mg10 3.202286 1_545
Li1 Mg10 3.202286 1_445
Li1 Mg9 3.202286 1_455
Li1 Mg9 3.202286 1_555
Li1 Mg0 3.213166 1_556
Li1 Mg1 3.213166 1_546
Li1 Mg8 3.329117 1_555
Li1 Mg8 3.329117 1_545
La0 Li0 3.280262 1_555
La0 Li0 3.280262 1_655
La0 Mg1 3.296299 1_555
La0 Mg0 3.296299 1_555
La0 Mg1 3.296299 1_655
La0 Mg0 3.296299 1_655
La0 Mg5 3.329262 1_555
La0 Mg5 3.329262 1_565
La0 Mg3 3.348984 1_555
La0 Mg4 3.348984 1_555
La0 Mg9 3.378730 1_554
La0 Mg10 3.378730 1_554
La1 Li1 3.280262 1_655
La1 Li1 3.280262 1_555
La1 Mg7 3.296299 1_655
La1 Mg6 3.296299 1_645
La1 Mg6 3.296299 1_545
La1 Mg7 3.296299 1_555
La1 Mg11 3.329262 1_545
La1 Mg11 3.329262 1_555
La1 Mg9 3.348984 1_555
La1 Mg10 3.348984 1_545
La1 Mg3 3.378730 1_545
La1 Mg4 3.378730 1_555
Mg0 Mg9 3.190700 1_554
Mg0 Mg9 3.190700 1_454
Mg0 Mg5 3.207569 1_455
Mg0 Mg5 3.207569 1_555
Mg0 Mg8 3.350329 1_554
Mg0 Mg2 3.378350 1_555
Mg1 Mg10 3.190700 1_554
Mg1 Mg10 3.190700 1_454
Mg1 Mg5 3.207569 1_565
Mg1 Mg5 3.207569 1_465
Mg1 Mg8 3.350329 1_554
Mg1 Mg2 3.378350 1_565
Mg2 Mg3 3.279245 1_545
Mg2 Mg3 3.279245 1_445
Mg2 Mg4 3.279245 1_455
Mg2 Mg4 3.279245 1_555
Mg2 Mg5 3.283376 1_455
Mg2 Mg5 3.283376 1_555
Mg2 Mg7 3.350329 1_555
Mg2 Mg6 3.350329 1_545
Mg3 Mg6 3.190700 1_555
Mg3 Mg6 3.190700 1_655
Mg3 Mg4 3.232254 1_555
Mg3 Mg4 3.423432 1_565
Mg3 Mg5 3.480431 1_565
Mg4 Mg7 3.190700 1_655
Mg4 Mg7 3.190700 1_555
Mg4 Mg5 3.480431 1_555
Mg5 Mg9 3.246679 1_554
Mg6 Mg8 3.378350 1_555
Mg7 Mg8 3.378350 1_555
Mg8 Mg9 3.279245 1_455
Mg8 Mg9 3.279245 1_555
Mg10 Mg9 3.232254 1_565
Mg10 Mg5 3.246679 1_566
Mg10 Mg8 3.279245 1_555
Mg10 Mg8 3.279245 1_655
Mg10 Mg9 3.423432 1_555
Mg10 Mg11 3.480431 1_555
Mg11 Mg7 3.207569 1_555
Mg11 Mg7 3.207569 1_655
Mg11 Mg6 3.207569 1_555
Mg11 Mg6 3.207569 1_655
Mg11 Mg4 3.246679 1_555
Mg11 Mg3 3.246679 1_555
Mg11 Mg8 3.283376 1_555
Mg11 Mg8 3.283376 1_655
Mg11 Mg9 3.480431 1_555
