# generated using pymatgen
data_KMo2C4O11
_symmetry_space_group_name_H-M   'P 1'
_cell_length_a   7.72177700
_cell_length_b   8.53061429
_cell_length_c   8.94411861
_cell_angle_alpha   93.90825688
_cell_angle_beta   91.98716595
_cell_angle_gamma   95.95114070
_symmetry_Int_Tables_number   1
_chemical_formula_structural   KMo2C4O11
_chemical_formula_sum   'K2 Mo4 C8 O22'
_cell_volume   584.10709665
_cell_formula_units_Z   2
loop_
 _symmetry_equiv_pos_site_id
 _symmetry_equiv_pos_as_xyz
  1  'x, y, z'
loop_
 _atom_site_type_symbol
 _atom_site_label
 _atom_site_symmetry_multiplicity
 _atom_site_fract_x
 _atom_site_fract_y
 _atom_site_fract_z
 _atom_site_occupancy
  K  K0  1  0.19872800  0.92715900  0.67223300  1
  K  K1  1  0.80127200  0.07284100  0.32776700  1
  Mo  Mo0  1  0.29702600  0.24995500  0.32219000  1
  Mo  Mo1  1  0.70297400  0.75004500  0.67781000  1
  Mo  Mo2  1  0.52107500  0.36030800  0.61973900  1
  Mo  Mo3  1  0.47892500  0.63969200  0.38026100  1
  C  C0  1  0.01716500  0.49370900  0.24805900  1
  C  C1  1  0.98283500  0.50629100  0.75194100  1
  C  C2  1  0.96450800  0.71800200  0.17977800  1
  C  C3  1  0.03549200  0.28199800  0.82022200  1
  C  C4  1  0.87826200  0.54403900  0.14685400  1
  C  C5  1  0.12173800  0.45596100  0.85314600  1
  C  C6  1  0.90829500  0.34426000  0.71531800  1
  C  C7  1  0.09170500  0.65574000  0.28468200  1
  O  O0  1  0.51778300  0.23228300  0.41891200  1
  O  O1  1  0.48221700  0.76771700  0.58108800  1
  O  O2  1  0.33467900  0.44819800  0.54549100  1
  O  O3  1  0.66532100  0.55180200  0.45450900  1
  O  O4  1  0.78564400  0.27658700  0.63043400  1
  O  O5  1  0.21435600  0.72341300  0.36956600  1
  O  O6  1  0.37750100  0.47147800  0.25473600  1
  O  O7  1  0.62249900  0.52852200  0.74526400  1
  O  O8  1  0.30180000  0.13931800  0.15427700  1
  O  O9  1  0.69820000  0.86068200  0.84572300  1
  O  O10  1  0.75460200  0.48041300  0.07159300  1
  O  O11  1  0.24539800  0.51958700  0.92840700  1
  O  O12  1  0.04584000  0.35816100  0.28161000  1
  O  O13  1  0.95416000  0.64183900  0.71839000  1
  O  O14  1  0.15782500  0.13554300  0.43355900  1
  O  O15  1  0.84217500  0.86445700  0.56644100  1
  O  O16  1  0.93806600  0.84424000  0.13539800  1
  O  O17  1  0.06193400  0.15576000  0.86460200  1
  O  O18  1  0.43349700  0.22366400  0.73681400  1
  O  O19  1  0.56650300  0.77633600  0.26318600  1
  O  O20  1  0.62902200  0.15780800  0.04684300  1
  O  O21  1  0.37097800  0.84219200  0.95315700  1
loop_
_geom_bond_atom_site_label_1
_geom_bond_atom_site_label_2
_geom_bond_distance
_geom_bond_site_symmetry_2
K0 O1 2.810061 1_555
K0 O17 2.823974 1_565
K0 O15 2.864721 1_455
K0 O14 2.898931 1_565
K0 O18 2.965657 1_565
K0 O21 2.970541 1_555
K0 O13 2.983103 1_455
K0 O5 3.128669 1_555
K1 O0 2.810061 1_555
K1 O16 2.823974 1_545
K1 O14 2.864721 1_655
K1 O15 2.898931 1_545
K1 O19 2.965657 1_545
K1 O20 2.970541 1_555
K1 O12 2.983103 1_655
K1 O4 3.128669 1_555
Mo0 O8 1.722050 1_555
Mo0 O14 1.757670 1_555
Mo0 O0 1.909370 1_555
Mo0 O6 2.063765 1_555
Mo0 O12 2.261402 1_555
Mo0 O2 2.516097 1_555
Mo1 O9 1.722050 1_555
Mo1 O15 1.757670 1_555
Mo1 O1 1.909370 1_555
Mo1 O7 2.063765 1_555
Mo1 O13 2.261402 1_555
Mo1 O3 2.516097 1_555
Mo2 O18 1.721804 1_555
Mo2 O2 1.816618 1_555
Mo2 O7 1.849146 1_555
Mo2 O0 2.035551 1_555
Mo2 O4 2.234087 1_555
Mo2 O3 2.481754 1_555
Mo3 O19 1.721804 1_555
Mo3 O3 1.816618 1_555
Mo3 O6 1.849146 1_555
Mo3 O1 2.035551 1_555
Mo3 O5 2.234087 1_555
Mo3 O2 2.481754 1_555
C0 O12 1.253758 1_555
C1 O13 1.253758 1_555
C2 O16 1.207138 1_555
C3 O17 1.207138 1_555
C4 O10 1.207333 1_555
C5 O11 1.207333 1_555
C6 O4 1.258432 1_555
C7 O5 1.258432 1_555
