# generated using pymatgen
data_Pt4SeS3
_symmetry_space_group_name_H-M   'P 1'
_cell_length_a   3.58052600
_cell_length_b   3.58052600
_cell_length_c   12.40595200
_cell_angle_alpha   90.00000000
_cell_angle_beta   90.00000000
_cell_angle_gamma   90.00000000
_symmetry_Int_Tables_number   1
_chemical_formula_structural   Pt4SeS3
_chemical_formula_sum   'Pt4 Se1 S3'
_cell_volume   159.04636945
_cell_formula_units_Z   1
loop_
 _symmetry_equiv_pos_site_id
 _symmetry_equiv_pos_as_xyz
  1  'x, y, z'
loop_
 _atom_site_type_symbol
 _atom_site_label
 _atom_site_symmetry_multiplicity
 _atom_site_fract_x
 _atom_site_fract_y
 _atom_site_fract_z
 _atom_site_occupancy
  Pt  Pt0  1  0.50000000  0.00000000  0.86662000  1
  Pt  Pt1  1  0.50000000  0.00000000  0.37791000  1
  Pt  Pt2  1  0.00000000  0.50000000  0.62209000  1
  Pt  Pt3  1  0.00000000  0.50000000  0.13338000  1
  Se  Se0  1  0.00000000  0.00000000  0.00000000  1
  S  S0  1  0.00000000  0.00000000  0.50000000  1
  S  S1  1  0.00000000  0.00000000  0.74413200  1
  S  S2  1  0.00000000  0.00000000  0.25586800  1
loop_
_geom_bond_atom_site_label_1
_geom_bond_atom_site_label_2
_geom_bond_distance
_geom_bond_site_symmetry_2
Pt0 S1 2.348226 1_555
Pt0 S1 2.348226 1_655
Pt0 Se0 2.437846 1_556
Pt0 Se0 2.437846 1_656
Pt1 S2 2.344649 1_555
Pt1 S2 2.344649 1_655
Pt1 S0 2.345034 1_555
Pt1 S0 2.345034 1_655
Pt2 S1 2.344649 1_555
Pt2 S1 2.344649 1_565
Pt2 S0 2.345034 1_555
Pt2 S0 2.345034 1_565
Pt3 S2 2.348226 1_565
Pt3 S2 2.348226 1_555
Pt3 Se0 2.437846 1_565
Pt3 Se0 2.437846 1_555
