# generated using pymatgen
data_SiO2
_symmetry_space_group_name_H-M   'P 1'
_cell_length_a   14.43627786
_cell_length_b   14.50930019
_cell_length_c   19.18861572
_cell_angle_alpha   90.00000000
_cell_angle_beta   90.00000000
_cell_angle_gamma   90.00000000
_symmetry_Int_Tables_number   1
_chemical_formula_structural   SiO2
_chemical_formula_sum   'Si72 O144'
_cell_volume   4019.25299608
_cell_formula_units_Z   72
loop_
 _symmetry_equiv_pos_site_id
 _symmetry_equiv_pos_as_xyz
  1  'x, y, z'
loop_
 _atom_site_type_symbol
 _atom_site_label
 _atom_site_symmetry_multiplicity
 _atom_site_fract_x
 _atom_site_fract_y
 _atom_site_fract_z
 _atom_site_occupancy
  Si  Si0  1  0.26080637  0.00000000  0.23291960  1
  Si  Si1  1  0.73919363  0.00000000  0.23291960  1
  Si  Si2  1  0.26080637  0.00000000  0.76708040  1
  Si  Si3  1  0.73919363  0.00000000  0.76708040  1
  Si  Si4  1  0.27552979  0.79616442  0.19727261  1
  Si  Si5  1  0.72447021  0.20383558  0.19727261  1
  Si  Si6  1  0.27552979  0.20383558  0.80272739  1
  Si  Si7  1  0.72447021  0.79616442  0.80272739  1
  Si  Si8  1  0.72447021  0.20383558  0.80272739  1
  Si  Si9  1  0.27552979  0.79616442  0.80272739  1
  Si  Si10  1  0.72447021  0.79616442  0.19727261  1
  Si  Si11  1  0.27552979  0.20383558  0.19727261  1
  Si  Si12  1  0.38842318  0.68465475  0.08079099  1
  Si  Si13  1  0.61157682  0.31534525  0.08079099  1
  Si  Si14  1  0.38842318  0.31534525  0.91920901  1
  Si  Si15  1  0.61157682  0.68465475  0.91920901  1
  Si  Si16  1  0.61157682  0.31534525  0.91920901  1
  Si  Si17  1  0.38842318  0.68465475  0.91920901  1
  Si  Si18  1  0.61157682  0.68465475  0.08079099  1
  Si  Si19  1  0.38842318  0.31534525  0.08079099  1
  Si  Si20  1  0.39028729  0.00000000  0.34982875  1
  Si  Si21  1  0.60971271  0.00000000  0.34982875  1
  Si  Si22  1  0.39028729  0.00000000  0.65017125  1
  Si  Si23  1  0.60971271  0.00000000  0.65017125  1
  Si  Si24  1  0.35089923  0.81267165  0.42428751  1
  Si  Si25  1  0.64910077  0.18732835  0.42428751  1
  Si  Si26  1  0.35089923  0.18732835  0.57571249  1
  Si  Si27  1  0.64910077  0.81267165  0.57571249  1
  Si  Si28  1  0.64910077  0.18732835  0.57571249  1
  Si  Si29  1  0.35089923  0.81267165  0.57571249  1
  Si  Si30  1  0.64910077  0.81267165  0.42428751  1
  Si  Si31  1  0.35089923  0.18732835  0.42428751  1
  Si  Si32  1  0.39812410  0.69653291  0.30699209  1
  Si  Si33  1  0.60187590  0.30346709  0.30699209  1
  Si  Si34  1  0.39812410  0.30346709  0.69300791  1
  Si  Si35  1  0.60187590  0.69653291  0.69300791  1
  Si  Si36  1  0.60187590  0.30346709  0.69300791  1
  Si  Si37  1  0.39812410  0.69653291  0.69300791  1
  Si  Si38  1  0.60187590  0.69653291  0.30699209  1
  Si  Si39  1  0.39812410  0.30346709  0.30699209  1
  Si  Si40  1  0.29959905  0.50000000  0.13336906  1
  Si  Si41  1  0.70040095  0.50000000  0.13336906  1
  Si  Si42  1  0.29959905  0.50000000  0.86663094  1
  Si  Si43  1  0.70040095  0.50000000  0.86663094  1
  Si  Si44  1  0.39098333  0.50000000  0.28009330  1
  Si  Si45  1  0.60901667  0.50000000  0.28009330  1
  Si  Si46  1  0.39098333  0.50000000  0.71990670  1
  Si  Si47  1  0.60901667  0.50000000  0.71990670  1
  Si  Si48  1  0.10750834  0.00000000  0.35812969  1
  Si  Si49  1  0.89249166  0.00000000  0.35812969  1
  Si  Si50  1  0.10750834  0.00000000  0.64187031  1
  Si  Si51  1  0.89249166  0.00000000  0.64187031  1
  Si  Si52  1  0.13973271  0.79869683  0.42183550  1
  Si  Si53  1  0.86026729  0.20130317  0.42183550  1
  Si  Si54  1  0.13973271  0.20130317  0.57816450  1
  Si  Si55  1  0.86026729  0.79869683  0.57816450  1
  Si  Si56  1  0.86026729  0.20130317  0.57816450  1
  Si  Si57  1  0.13973271  0.79869683  0.57816450  1
  Si  Si58  1  0.86026729  0.79869683  0.42183550  1
  Si  Si59  1  0.13973271  0.20130317  0.42183550  1
  Si  Si60  1  0.10366363  0.70154039  0.27320769  1
  Si  Si61  1  0.89633637  0.29845961  0.27320769  1
  Si  Si62  1  0.10366363  0.29845961  0.72679231  1
  Si  Si63  1  0.89633637  0.70154039  0.72679231  1
  Si  Si64  1  0.89633637  0.29845961  0.72679231  1
  Si  Si65  1  0.10366363  0.70154039  0.72679231  1
  Si  Si66  1  0.89633637  0.70154039  0.27320769  1
  Si  Si67  1  0.10366363  0.29845961  0.27320769  1
  Si  Si68  1  0.10851458  0.50000000  0.22217479  1
  Si  Si69  1  0.89148542  0.50000000  0.22217479  1
  Si  Si70  1  0.10851458  0.50000000  0.77782521  1
  Si  Si71  1  0.89148542  0.50000000  0.77782521  1
  O  O0  1  0.25588852  0.90610610  0.18621718  1
  O  O1  1  0.74411148  0.09389390  0.18621718  1
  O  O2  1  0.25588852  0.09389390  0.81378282  1
  O  O3  1  0.74411148  0.90610610  0.81378282  1
  O  O4  1  0.74411148  0.09389390  0.81378282  1
  O  O5  1  0.25588852  0.90610610  0.81378282  1
  O  O6  1  0.74411148  0.90610610  0.18621718  1
  O  O7  1  0.25588852  0.09389390  0.18621718  1
  O  O8  1  0.36413248  0.00000000  0.26795067  1
  O  O9  1  0.63586752  0.00000000  0.26795067  1
  O  O10  1  0.36413248  0.00000000  0.73204933  1
  O  O11  1  0.63586752  0.00000000  0.73204933  1
  O  O12  1  0.33143324  0.75917158  0.12874221  1
  O  O13  1  0.66856676  0.24082842  0.12874221  1
  O  O14  1  0.33143324  0.24082842  0.87125779  1
  O  O15  1  0.66856676  0.75917158  0.87125779  1
  O  O16  1  0.66856676  0.24082842  0.87125779  1
  O  O17  1  0.33143324  0.75917158  0.87125779  1
  O  O18  1  0.66856676  0.75917158  0.12874221  1
  O  O19  1  0.33143324  0.24082842  0.12874221  1
  O  O20  1  0.34191378  0.77454591  0.26407554  1
  O  O21  1  0.65808622  0.22545409  0.26407554  1
  O  O22  1  0.34191378  0.22545409  0.73592446  1
  O  O23  1  0.65808622  0.77454591  0.73592446  1
  O  O24  1  0.65808622  0.22545409  0.73592446  1
  O  O25  1  0.34191378  0.77454591  0.73592446  1
  O  O26  1  0.65808622  0.77454591  0.26407554  1
  O  O27  1  0.34191378  0.22545409  0.26407554  1
  O  O28  1  0.38473002  0.71905557  0.00000000  1
  O  O29  1  0.61526998  0.28094443  0.00000000  1
  O  O30  1  0.38473002  0.28094443  0.00000000  1
  O  O31  1  0.61526998  0.71905557  0.00000000  1
  O  O32  1  0.32691516  0.59012118  0.08700017  1
  O  O33  1  0.67308484  0.40987882  0.08700017  1
  O  O34  1  0.32691516  0.40987882  0.91299983  1
  O  O35  1  0.67308484  0.59012118  0.91299983  1
  O  O36  1  0.67308484  0.40987882  0.91299983  1
  O  O37  1  0.32691516  0.59012118  0.91299983  1
  O  O38  1  0.67308484  0.59012118  0.08700017  1
  O  O39  1  0.32691516  0.40987882  0.08700017  1
  O  O40  1  0.50000000  0.00000000  0.36156121  1
  O  O41  1  0.50000000  0.00000000  0.63843879  1
  O  O42  1  0.34500696  0.91012162  0.38491327  1
  O  O43  1  0.65499304  0.08987838  0.38491327  1
  O  O44  1  0.34500696  0.08987838  0.61508673  1
  O  O45  1  0.65499304  0.91012162  0.61508673  1
  O  O46  1  0.65499304  0.08987838  0.61508673  1
  O  O47  1  0.34500696  0.91012162  0.61508673  1
  O  O48  1  0.65499304  0.91012162  0.38491327  1
  O  O49  1  0.34500696  0.08987838  0.38491327  1
  O  O50  1  0.24773865  0.77170683  0.42790273  1
  O  O51  1  0.75226135  0.22829317  0.42790273  1
  O  O52  1  0.24773865  0.22829317  0.57209727  1
  O  O53  1  0.75226135  0.77170683  0.57209727  1
  O  O54  1  0.75226135  0.22829317  0.57209727  1
  O  O55  1  0.24773865  0.77170683  0.57209727  1
  O  O56  1  0.75226135  0.77170683  0.42790273  1
  O  O57  1  0.24773865  0.22829317  0.42790273  1
  O  O58  1  0.41102619  0.73445362  0.38546622  1
  O  O59  1  0.58897381  0.26554638  0.38546622  1
  O  O60  1  0.41102619  0.26554638  0.61453378  1
  O  O61  1  0.58897381  0.73445362  0.61453378  1
  O  O62  1  0.58897381  0.26554638  0.61453378  1
  O  O63  1  0.41102619  0.73445362  0.61453378  1
  O  O64  1  0.58897381  0.73445362  0.38546622  1
  O  O65  1  0.41102619  0.26554638  0.38546622  1
  O  O66  1  0.50000000  0.68597209  0.27120138  1
  O  O67  1  0.50000000  0.31402791  0.27120138  1
  O  O68  1  0.50000000  0.31402791  0.72879862  1
  O  O69  1  0.50000000  0.68597209  0.72879862  1
  O  O70  1  0.50000000  0.50000000  0.30036282  1
  O  O71  1  0.50000000  0.50000000  0.69963718  1
  O  O72  1  0.37385766  0.50000000  0.19710111  1
  O  O73  1  0.62614234  0.50000000  0.19710111  1
  O  O74  1  0.37385766  0.50000000  0.80289889  1
  O  O75  1  0.62614234  0.50000000  0.80289889  1
  O  O76  1  0.34630456  0.59589905  0.30984034  1
  O  O77  1  0.65369544  0.40410095  0.30984034  1
  O  O78  1  0.34630456  0.40410095  0.69015966  1
  O  O79  1  0.65369544  0.59589905  0.69015966  1
  O  O80  1  0.65369544  0.40410095  0.69015966  1
  O  O81  1  0.34630456  0.59589905  0.69015966  1
  O  O82  1  0.65369544  0.59589905  0.30984034  1
  O  O83  1  0.34630456  0.40410095  0.30984034  1
  O  O84  1  0.39609763  0.82976996  0.50000000  1
  O  O85  1  0.60390237  0.17023004  0.50000000  1
  O  O86  1  0.39609763  0.17023004  0.50000000  1
  O  O87  1  0.60390237  0.82976996  0.50000000  1
  O  O88  1  0.50000000  0.67310248  0.10190039  1
  O  O89  1  0.50000000  0.32689752  0.10190039  1
  O  O90  1  0.50000000  0.32689752  0.89809961  1
  O  O91  1  0.50000000  0.67310248  0.89809961  1
  O  O92  1  0.17709411  0.00000000  0.29082061  1
  O  O93  1  0.82290589  0.00000000  0.29082061  1
  O  O94  1  0.17709411  0.00000000  0.70917939  1
  O  O95  1  0.82290589  0.00000000  0.70917939  1
  O  O96  1  0.17636957  0.74843048  0.21796276  1
  O  O97  1  0.82363043  0.25156952  0.21796276  1
  O  O98  1  0.17636957  0.25156952  0.78203724  1
  O  O99  1  0.82363043  0.74843048  0.78203724  1
  O  O100  1  0.82363043  0.25156952  0.78203724  1
  O  O101  1  0.17636957  0.74843048  0.78203724  1
  O  O102  1  0.82363043  0.74843048  0.21796276  1
  O  O103  1  0.17636957  0.25156952  0.21796276  1
  O  O104  1  0.00000000  0.00000000  0.33100242  1
  O  O105  1  0.00000000  0.00000000  0.66899758  1
  O  O106  1  0.12469937  0.90834650  0.40596046  1
  O  O107  1  0.87530063  0.09165350  0.40596046  1
  O  O108  1  0.12469937  0.09165350  0.59403954  1
  O  O109  1  0.87530063  0.90834650  0.59403954  1
  O  O110  1  0.87530063  0.09165350  0.59403954  1
  O  O111  1  0.12469937  0.90834650  0.59403954  1
  O  O112  1  0.87530063  0.90834650  0.40596046  1
  O  O113  1  0.12469937  0.09165350  0.40596046  1
  O  O114  1  0.10460520  0.73907001  0.35416264  1
  O  O115  1  0.89539480  0.26092999  0.35416264  1
  O  O116  1  0.10460520  0.26092999  0.64583736  1
  O  O117  1  0.89539480  0.73907001  0.64583736  1
  O  O118  1  0.89539480  0.26092999  0.64583736  1
  O  O119  1  0.10460520  0.73907001  0.64583736  1
  O  O120  1  0.89539480  0.73907001  0.35416264  1
  O  O121  1  0.10460520  0.26092999  0.35416264  1
  O  O122  1  0.00000000  0.72218233  0.24308226  1
  O  O123  1  0.00000000  0.27781767  0.24308226  1
  O  O124  1  0.00000000  0.27781767  0.75691774  1
  O  O125  1  0.00000000  0.72218233  0.75691774  1
  O  O126  1  0.00000000  0.50000000  0.19234860  1
  O  O127  1  0.00000000  0.50000000  0.80765140  1
  O  O128  1  0.19053836  0.50000000  0.16072365  1
  O  O129  1  0.80946164  0.50000000  0.16072365  1
  O  O130  1  0.19053836  0.50000000  0.83927635  1
  O  O131  1  0.80946164  0.50000000  0.83927635  1
  O  O132  1  0.12281129  0.59040120  0.27197495  1
  O  O133  1  0.87718871  0.40959880  0.27197495  1
  O  O134  1  0.12281129  0.40959880  0.72802505  1
  O  O135  1  0.87718871  0.59040120  0.72802505  1
  O  O136  1  0.87718871  0.40959880  0.72802505  1
  O  O137  1  0.12281129  0.59040120  0.72802505  1
  O  O138  1  0.87718871  0.59040120  0.27197495  1
  O  O139  1  0.12281129  0.40959880  0.27197495  1
  O  O140  1  0.09623741  0.77569746  0.50000000  1
  O  O141  1  0.90376259  0.22430254  0.50000000  1
  O  O142  1  0.09623741  0.22430254  0.50000000  1
  O  O143  1  0.90376259  0.77569746  0.50000000  1
loop_
_geom_bond_atom_site_label_1
_geom_bond_atom_site_label_2
_geom_bond_distance
_geom_bond_site_symmetry_2
O0 Si0 1.632204 1_565
O0 Si4 1.634011 1_555
O1 Si1 1.632204 1_555
O1 Si5 1.634011 1_555
O2 Si2 1.632204 1_555
O2 Si6 1.634011 1_555
O3 Si3 1.632204 1_565
O3 Si7 1.634011 1_555
O4 Si3 1.632204 1_555
O4 Si8 1.634011 1_555
O5 Si2 1.632204 1_565
O5 Si9 1.634011 1_555
O6 Si1 1.632204 1_565
O6 Si10 1.634011 1_555
O7 Si0 1.632204 1_555
O7 Si11 1.634011 1_555
O8 Si20 1.615861 1_555
O8 Si0 1.636109 1_555
O9 Si21 1.615861 1_555
O9 Si1 1.636109 1_555
O10 Si22 1.615861 1_555
O10 Si2 1.636109 1_555
O11 Si23 1.615861 1_555
O11 Si3 1.636109 1_555
O12 Si4 1.633595 1_555
O12 Si12 1.640870 1_555
O13 Si5 1.633595 1_555
O13 Si13 1.640870 1_555
O14 Si6 1.633595 1_555
O14 Si14 1.640870 1_555
O15 Si7 1.633595 1_555
O15 Si15 1.640870 1_555
O16 Si8 1.633595 1_555
O16 Si16 1.640870 1_555
O17 Si9 1.633595 1_555
O17 Si17 1.640870 1_555
O18 Si10 1.633595 1_555
O18 Si18 1.640870 1_555
O19 Si11 1.633595 1_555
O19 Si19 1.640870 1_555
O20 Si32 1.617985 1_555
O20 Si4 1.630937 1_555
O21 Si33 1.617985 1_555
O21 Si5 1.630937 1_555
O22 Si34 1.617985 1_555
O22 Si6 1.630937 1_555
O23 Si35 1.617985 1_555
O23 Si7 1.630937 1_555
O24 Si36 1.617985 1_555
O24 Si8 1.630937 1_555
O25 Si37 1.617985 1_555
O25 Si9 1.630937 1_555
O26 Si38 1.617985 1_555
O26 Si10 1.630937 1_555
O27 Si39 1.617985 1_555
O27 Si11 1.630937 1_555
O28 Si12 1.629510 1_555
O28 Si17 1.629510 1_554
O29 Si13 1.629510 1_555
O29 Si16 1.629510 1_554
O30 Si19 1.629510 1_555
O30 Si14 1.629510 1_554
O31 Si18 1.629510 1_555
O31 Si15 1.629510 1_554
O32 Si40 1.630023 1_555
O32 Si12 1.638284 1_555
O33 Si41 1.630023 1_555
O33 Si13 1.638284 1_555
O34 Si42 1.630023 1_555
O34 Si14 1.638284 1_555
O35 Si43 1.630023 1_555
O35 Si15 1.638284 1_555
O36 Si43 1.630023 1_555
O36 Si16 1.638284 1_555
O37 Si42 1.630023 1_555
O37 Si17 1.638284 1_555
O38 Si41 1.630023 1_555
O38 Si18 1.638284 1_555
O39 Si40 1.630023 1_555
O39 Si19 1.638284 1_555
O40 Si20 1.599763 1_555
O40 Si21 1.599763 1_555
O41 Si22 1.599763 1_555
O41 Si23 1.599763 1_555
O42 Si24 1.605389 1_555
O42 Si20 1.606590 1_565
O43 Si25 1.605389 1_555
O43 Si21 1.606590 1_555
O44 Si26 1.605389 1_555
O44 Si22 1.606590 1_555
O45 Si27 1.605389 1_555
O45 Si23 1.606590 1_565
O46 Si28 1.605389 1_555
O46 Si23 1.606590 1_555
O47 Si29 1.605389 1_555
O47 Si22 1.606590 1_565
O48 Si30 1.605389 1_555
O48 Si21 1.606590 1_565
O49 Si31 1.605389 1_555
O49 Si20 1.606590 1_555
O50 Si24 1.604983 1_555
O50 Si52 1.611839 1_555
O51 Si25 1.604983 1_555
O51 Si53 1.611839 1_555
O52 Si26 1.604983 1_555
O52 Si54 1.611839 1_555
O53 Si27 1.604983 1_555
O53 Si55 1.611839 1_555
O54 Si28 1.604983 1_555
O54 Si56 1.611839 1_555
O55 Si29 1.604983 1_555
O55 Si57 1.611839 1_555
O56 Si30 1.604983 1_555
O56 Si58 1.611839 1_555
O57 Si31 1.604983 1_555
O57 Si59 1.611839 1_555
O58 Si24 1.611313 1_555
O58 Si32 1.613964 1_555
O59 Si25 1.611313 1_555
O59 Si33 1.613964 1_555
O60 Si26 1.611313 1_555
O60 Si34 1.613964 1_555
O61 Si27 1.611313 1_555
O61 Si35 1.613964 1_555
O62 Si28 1.611313 1_555
O62 Si36 1.613964 1_555
O63 Si29 1.611313 1_555
O63 Si37 1.613964 1_555
O64 Si30 1.611313 1_555
O64 Si38 1.613964 1_555
O65 Si31 1.611313 1_555
O65 Si39 1.613964 1_555
O66 Si38 1.630375 1_555
O66 Si32 1.630375 1_555
O67 Si33 1.630375 1_555
O67 Si39 1.630375 1_555
O68 Si36 1.630375 1_555
O68 Si34 1.630375 1_555
O69 Si37 1.630375 1_555
O69 Si35 1.630375 1_555
O70 Si44 1.621144 1_555
O70 Si45 1.621144 1_555
O71 Si46 1.621144 1_555
O71 Si47 1.621144 1_555
O72 Si44 1.611582 1_555
O72 Si40 1.626278 1_555
O73 Si45 1.611582 1_555
O73 Si41 1.626278 1_555
O74 Si46 1.611582 1_555
O74 Si42 1.626278 1_555
O75 Si47 1.611582 1_555
O75 Si43 1.626278 1_555
O76 Si44 1.636432 1_555
O76 Si32 1.641519 1_555
O77 Si45 1.636432 1_555
O77 Si33 1.641519 1_555
O78 Si46 1.636432 1_555
O78 Si34 1.641519 1_555
O79 Si47 1.636432 1_555
O79 Si35 1.641519 1_555
O80 Si47 1.636432 1_555
O80 Si36 1.641519 1_555
O81 Si46 1.636432 1_555
O81 Si37 1.641519 1_555
O82 Si45 1.636432 1_555
O82 Si38 1.641519 1_555
O83 Si44 1.636432 1_555
O83 Si39 1.641519 1_555
O84 Si29 1.611824 1_555
O84 Si24 1.611824 1_555
O85 Si28 1.611824 1_555
O85 Si25 1.611824 1_555
O86 Si26 1.611824 1_555
O86 Si31 1.611824 1_555
O87 Si27 1.611824 1_555
O87 Si30 1.611824 1_555
O88 Si12 1.669340 1_555
O88 Si18 1.669340 1_555
O89 Si19 1.669340 1_555
O89 Si13 1.669340 1_555
O90 Si14 1.669340 1_555
O90 Si16 1.669340 1_555
O91 Si17 1.669340 1_555
O91 Si15 1.669340 1_555
O92 Si48 1.636242 1_555
O92 Si0 1.641605 1_555
O93 Si49 1.636242 1_555
O93 Si1 1.641605 1_555
O94 Si50 1.636242 1_555
O94 Si2 1.641605 1_555
O95 Si51 1.636242 1_555
O95 Si3 1.641605 1_555
O96 Si4 1.639055 1_555
O96 Si60 1.639600 1_555
O97 Si5 1.639055 1_555
O97 Si61 1.639600 1_555
O98 Si6 1.639055 1_555
O98 Si62 1.639600 1_555
O99 Si7 1.639055 1_555
O99 Si63 1.639600 1_555
O100 Si8 1.639055 1_555
O100 Si64 1.639600 1_555
O101 Si9 1.639055 1_555
O101 Si65 1.639600 1_555
O102 Si10 1.639055 1_555
O102 Si66 1.639600 1_555
O103 Si11 1.639055 1_555
O103 Si67 1.639600 1_555
O104 Si49 1.636986 1_455
O104 Si48 1.636986 1_555
O105 Si51 1.636986 1_455
O105 Si50 1.636986 1_555
O106 Si52 1.634314 1_555
O106 Si48 1.634748 1_565
O107 Si53 1.634314 1_555
O107 Si49 1.634748 1_555
O108 Si54 1.634314 1_555
O108 Si50 1.634748 1_555
O109 Si55 1.634314 1_555
O109 Si51 1.634748 1_565
O110 Si56 1.634314 1_555
O110 Si51 1.634748 1_555
O111 Si57 1.634314 1_555
O111 Si50 1.634748 1_565
O112 Si58 1.634314 1_555
O112 Si49 1.634748 1_565
O113 Si59 1.634314 1_555
O113 Si48 1.634748 1_555
O114 Si52 1.640690 1_555
O114 Si60 1.646144 1_555
O115 Si53 1.640690 1_555
O115 Si61 1.646144 1_555
O116 Si54 1.640690 1_555
O116 Si62 1.646144 1_555
O117 Si55 1.640690 1_555
O117 Si63 1.646144 1_555
O118 Si56 1.640690 1_555
O118 Si64 1.646144 1_555
O119 Si57 1.640690 1_555
O119 Si65 1.646144 1_555
O120 Si58 1.640690 1_555
O120 Si66 1.646144 1_555
O121 Si59 1.640690 1_555
O121 Si67 1.646144 1_555
O122 Si66 1.632000 1_455
O122 Si60 1.632000 1_555
O123 Si67 1.632000 1_555
O123 Si61 1.632000 1_455
O124 Si62 1.632000 1_555
O124 Si64 1.632000 1_455
O125 Si65 1.632000 1_555
O125 Si63 1.632000 1_455
O126 Si68 1.667820 1_555
O126 Si69 1.667820 1_455
O127 Si70 1.667820 1_555
O127 Si71 1.667820 1_455
O128 Si40 1.659623 1_555
O128 Si68 1.671095 1_555
O129 Si41 1.659623 1_555
O129 Si69 1.671095 1_555
O130 Si42 1.659623 1_555
O130 Si70 1.671095 1_555
O131 Si43 1.659623 1_555
O131 Si71 1.671095 1_555
O132 Si68 1.635912 1_555
O132 Si60 1.636243 1_555
O133 Si69 1.635912 1_555
O133 Si61 1.636243 1_555
O134 Si70 1.635912 1_555
O134 Si62 1.636243 1_555
O135 Si71 1.635912 1_555
O135 Si63 1.636243 1_555
O136 Si71 1.635912 1_555
O136 Si64 1.636243 1_555
O137 Si70 1.635912 1_555
O137 Si65 1.636243 1_555
O138 Si69 1.635912 1_555
O138 Si66 1.636243 1_555
O139 Si68 1.635912 1_555
O139 Si67 1.636243 1_555
O140 Si57 1.659890 1_555
O140 Si52 1.659890 1_555
O141 Si56 1.659890 1_555
O141 Si53 1.659890 1_555
O142 Si54 1.659890 1_555
O142 Si59 1.659890 1_555
O143 Si55 1.659890 1_555
O143 Si58 1.659890 1_555
