# generated using pymatgen
data_CuGeN2
_symmetry_space_group_name_H-M   'P 1'
_cell_length_a   5.26792000
_cell_length_b   10.54381000
_cell_length_c   13.19413200
_cell_angle_alpha   90.00000000
_cell_angle_beta   90.00000000
_cell_angle_gamma   90.00000000
_symmetry_Int_Tables_number   1
_chemical_formula_structural   CuGeN2
_chemical_formula_sum   'Cu16 Ge16 N32'
_cell_volume   732.85417611
_cell_formula_units_Z   16
loop_
 _symmetry_equiv_pos_site_id
 _symmetry_equiv_pos_as_xyz
  1  'x, y, z'
loop_
 _atom_site_type_symbol
 _atom_site_label
 _atom_site_symmetry_multiplicity
 _atom_site_fract_x
 _atom_site_fract_y
 _atom_site_fract_z
 _atom_site_occupancy
  Cu  Cu0  1  0.69074300  0.96419000  0.43742200  1
  Cu  Cu1  1  0.19074300  0.53581000  0.56257800  1
  Cu  Cu2  1  0.30925700  0.46419000  0.06257800  1
  Cu  Cu3  1  0.80925700  0.03581000  0.93742200  1
  Cu  Cu4  1  0.30925700  0.03581000  0.56257800  1
  Cu  Cu5  1  0.80925700  0.46419000  0.43742200  1
  Cu  Cu6  1  0.69074300  0.53581000  0.93742200  1
  Cu  Cu7  1  0.19074300  0.96419000  0.06257800  1
  Cu  Cu8  1  0.77847800  0.28361900  0.30757700  1
  Cu  Cu9  1  0.27847800  0.21638100  0.69242300  1
  Cu  Cu10  1  0.22152200  0.78361900  0.19242300  1
  Cu  Cu11  1  0.72152200  0.71638100  0.80757700  1
  Cu  Cu12  1  0.22152200  0.71638100  0.69242300  1
  Cu  Cu13  1  0.72152200  0.78361900  0.30757700  1
  Cu  Cu14  1  0.77847800  0.21638100  0.80757700  1
  Cu  Cu15  1  0.27847800  0.28361900  0.19242300  1
  Ge  Ge0  1  0.65168900  0.03831800  0.18574300  1
  Ge  Ge1  1  0.15168900  0.46168200  0.81425700  1
  Ge  Ge2  1  0.34831100  0.53831800  0.31425800  1
  Ge  Ge3  1  0.84831100  0.96168200  0.68574300  1
  Ge  Ge4  1  0.34831100  0.96168200  0.81425700  1
  Ge  Ge5  1  0.84831100  0.53831800  0.18574300  1
  Ge  Ge6  1  0.65168900  0.46168200  0.68574300  1
  Ge  Ge7  1  0.15168900  0.03831800  0.31425800  1
  Ge  Ge8  1  0.78120300  0.29144000  0.06030500  1
  Ge  Ge9  1  0.28120300  0.20856000  0.93969500  1
  Ge  Ge10  1  0.21879700  0.79144000  0.43969500  1
  Ge  Ge11  1  0.71879700  0.70856000  0.56030500  1
  Ge  Ge12  1  0.21879700  0.70856000  0.93969500  1
  Ge  Ge13  1  0.71879700  0.79144000  0.06030500  1
  Ge  Ge14  1  0.78120300  0.20856000  0.56030500  1
  Ge  Ge15  1  0.28120300  0.29144000  0.43969500  1
  N  N0  1  0.67958000  0.48068300  0.30022800  1
  N  N1  1  0.17958000  0.01931700  0.69977200  1
  N  N2  1  0.32042000  0.98068300  0.19977200  1
  N  N3  1  0.82042000  0.51931700  0.80022800  1
  N  N4  1  0.32042000  0.51931700  0.69977200  1
  N  N5  1  0.82042000  0.98068300  0.30022800  1
  N  N6  1  0.67958000  0.01931700  0.80022800  1
  N  N7  1  0.17958000  0.48068300  0.19977200  1
  N  N8  1  0.63330900  0.27861400  0.44647700  1
  N  N9  1  0.13330900  0.22138600  0.55352300  1
  N  N10  1  0.36669100  0.77861400  0.05352300  1
  N  N11  1  0.86669100  0.72138600  0.94647700  1
  N  N12  1  0.36669100  0.72138600  0.55352300  1
  N  N13  1  0.86669100  0.77861400  0.44647700  1
  N  N14  1  0.63330900  0.22138600  0.94647700  1
  N  N15  1  0.13330900  0.27861400  0.05352300  1
  N  N16  1  0.70251000  0.46370000  0.07178600  1
  N  N17  1  0.20251000  0.03630000  0.92821400  1
  N  N18  1  0.29749000  0.96370000  0.42821400  1
  N  N19  1  0.79749000  0.53630000  0.57178600  1
  N  N20  1  0.29749000  0.53630000  0.92821400  1
  N  N21  1  0.79749000  0.96370000  0.07178600  1
  N  N22  1  0.70251000  0.03630000  0.57178600  1
  N  N23  1  0.20251000  0.46370000  0.42821400  1
  N  N24  1  0.64724000  0.21602200  0.17869200  1
  N  N25  1  0.14724000  0.28397800  0.82130800  1
  N  N26  1  0.35276000  0.71602200  0.32130800  1
  N  N27  1  0.85276000  0.78397800  0.67869200  1
  N  N28  1  0.35276000  0.78397800  0.82130800  1
  N  N29  1  0.85276000  0.71602200  0.17869200  1
  N  N30  1  0.64724000  0.28397800  0.67869200  1
  N  N31  1  0.14724000  0.21602200  0.32130800  1
loop_
_geom_bond_atom_site_label_1
_geom_bond_atom_site_label_2
_geom_bond_distance
_geom_bond_site_symmetry_2
Cu0 N22 1.929974 1_565
Cu0 N5 1.942568 1_555
Cu0 N18 2.075191 1_555
Cu0 N13 2.168403 1_555
Cu1 N23 1.929974 1_555
Cu1 N4 1.942568 1_555
Cu1 N19 2.075191 1_455
Cu1 N12 2.168403 1_555
Cu2 N20 1.929974 1_554
Cu2 N7 1.942568 1_555
Cu2 N16 2.075191 1_555
Cu2 N15 2.168403 1_555
Cu3 N21 1.929974 1_546
Cu3 N6 1.942568 1_555
Cu3 N17 2.075191 1_655
Cu3 N14 2.168403 1_555
Cu4 N18 1.929974 1_545
Cu4 N1 1.942568 1_555
Cu4 N22 2.075191 1_555
Cu4 N9 2.168403 1_555
Cu5 N19 1.929974 1_555
Cu5 N0 1.942568 1_555
Cu5 N23 2.075191 1_655
Cu5 N8 2.168403 1_555
Cu6 N16 1.929974 1_556
Cu6 N3 1.942568 1_555
Cu6 N20 2.075191 1_555
Cu6 N11 2.168403 1_555
Cu7 N17 1.929974 1_564
Cu7 N2 1.942568 1_555
Cu7 N21 2.075191 1_455
Cu7 N10 2.168403 1_555
Cu8 N24 1.969197 1_555
Cu8 N8 1.986522 1_555
Cu8 N31 2.077146 1_655
Cu8 N0 2.144319 1_555
Cu9 N25 1.969197 1_555
Cu9 N9 1.986522 1_555
Cu9 N30 2.077146 1_555
Cu9 N1 2.144319 1_555
Cu10 N26 1.969197 1_555
Cu10 N10 1.986522 1_555
Cu10 N29 2.077146 1_455
Cu10 N2 2.144319 1_555
Cu11 N27 1.969197 1_555
Cu11 N11 1.986522 1_555
Cu11 N28 2.077146 1_555
Cu11 N3 2.144319 1_555
Cu12 N28 1.969197 1_555
Cu12 N12 1.986522 1_555
Cu12 N27 2.077146 1_455
Cu12 N4 2.144319 1_555
Cu13 N29 1.969197 1_555
Cu13 N13 1.986522 1_555
Cu13 N26 2.077146 1_555
Cu13 N5 2.144319 1_555
Cu14 N30 1.969197 1_555
Cu14 N14 1.986522 1_555
Cu14 N25 2.077146 1_655
Cu14 N6 2.144319 1_555
Cu15 N31 1.969197 1_555
Cu15 N15 1.986522 1_555
Cu15 N24 2.077146 1_555
Cu15 N7 2.144319 1_555
Ge0 N5 1.855011 1_545
Ge0 N2 1.857127 1_545
Ge0 N21 1.862692 1_545
Ge0 N24 1.876132 1_555
Ge1 N4 1.855011 1_555
Ge1 N3 1.857127 1_455
Ge1 N20 1.862692 1_555
Ge1 N25 1.876132 1_555
Ge2 N7 1.855022 1_555
Ge2 N0 1.857129 1_555
Ge2 N23 1.862681 1_555
Ge2 N26 1.876131 1_555
Ge3 N6 1.855011 1_565
Ge3 N1 1.857127 1_665
Ge3 N22 1.862692 1_565
Ge3 N27 1.876132 1_555
Ge4 N1 1.855011 1_565
Ge4 N6 1.857127 1_565
Ge4 N17 1.862692 1_565
Ge4 N28 1.876132 1_555
Ge5 N0 1.855011 1_555
Ge5 N7 1.857127 1_655
Ge5 N16 1.862692 1_555
Ge5 N29 1.876132 1_555
Ge6 N3 1.855011 1_555
Ge6 N4 1.857127 1_555
Ge6 N19 1.862692 1_555
Ge6 N30 1.876132 1_555
Ge7 N2 1.855022 1_545
Ge7 N5 1.857129 1_445
Ge7 N18 1.862681 1_545
Ge7 N31 1.876131 1_555
Ge8 N14 1.846120 1_554
Ge8 N15 1.861941 1_655
Ge8 N16 1.869133 1_555
Ge8 N24 1.889508 1_555
Ge9 N15 1.846120 1_556
Ge9 N14 1.861941 1_555
Ge9 N17 1.869133 1_555
Ge9 N25 1.889508 1_555
Ge10 N12 1.846120 1_555
Ge10 N13 1.861941 1_455
Ge10 N18 1.869133 1_555
Ge10 N26 1.889508 1_555
Ge11 N13 1.846120 1_555
Ge11 N12 1.861941 1_555
Ge11 N19 1.869133 1_555
Ge11 N27 1.889508 1_555
Ge12 N10 1.846120 1_556
Ge12 N11 1.861941 1_455
Ge12 N20 1.869133 1_555
Ge12 N28 1.889508 1_555
Ge13 N11 1.846120 1_554
Ge13 N10 1.861941 1_555
Ge13 N21 1.869133 1_555
Ge13 N29 1.889508 1_555
Ge14 N8 1.846120 1_555
Ge14 N9 1.861941 1_655
Ge14 N22 1.869133 1_555
Ge14 N30 1.889508 1_555
Ge15 N9 1.846120 1_555
Ge15 N8 1.861941 1_555
Ge15 N23 1.869133 1_555
Ge15 N31 1.889508 1_555
