# generated using pymatgen
data_Li9Co7O16
_symmetry_space_group_name_H-M   'P 1'
_cell_length_a   9.69095212
_cell_length_b   9.69095212
_cell_length_c   9.98940293
_cell_angle_alpha   85.59855781
_cell_angle_beta   85.59855781
_cell_angle_gamma   17.09345404
_symmetry_Int_Tables_number   1
_chemical_formula_structural   Li9Co7O16
_chemical_formula_sum   'Li9 Co7 O16'
_cell_volume   274.91994053
_cell_formula_units_Z   1
loop_
 _symmetry_equiv_pos_site_id
 _symmetry_equiv_pos_as_xyz
  1  'x, y, z'
loop_
 _atom_site_type_symbol
 _atom_site_label
 _atom_site_symmetry_multiplicity
 _atom_site_fract_x
 _atom_site_fract_y
 _atom_site_fract_z
 _atom_site_occupancy
  Li  Li0  1  0.37811200  0.37811200  0.68497400  1
  Li  Li1  1  0.11969400  0.11969400  0.55519300  1
  Li  Li2  1  0.88030600  0.88030600  0.44480700  1
  Li  Li3  1  0.62188800  0.62188800  0.31502600  1
  Li  Li4  1  0.37544100  0.37544100  0.18675800  1
  Li  Li5  1  0.12402500  0.12402500  0.06453500  1
  Li  Li6  1  0.87597500  0.87597500  0.93546500  1
  Li  Li7  1  0.62455900  0.62455900  0.81324200  1
  Li  Li8  1  0.50000000  0.50000000  0.50000000  1
  Co  Co0  1  0.00039600  0.00039600  0.74622800  1
  Co  Co1  1  0.99960400  0.99960400  0.25377200  1
  Co  Co2  1  0.75148600  0.75148600  0.62506000  1
  Co  Co3  1  0.24851400  0.24851400  0.37494000  1
  Co  Co4  1  0.74858800  0.74858800  0.12379800  1
  Co  Co5  1  0.50000000  0.50000000  0.00000000  1
  Co  Co6  1  0.25141200  0.25141200  0.87620200  1
  O  O0  1  0.44868400  0.44868400  0.84183700  1
  O  O1  1  0.19412600  0.19412600  0.72717800  1
  O  O2  1  0.94363000  0.94363000  0.61217500  1
  O  O3  1  0.68884500  0.68884500  0.46996200  1
  O  O4  1  0.44470300  0.44470300  0.32874200  1
  O  O5  1  0.19125100  0.19125100  0.21250400  1
  O  O6  1  0.94732600  0.94732600  0.08988900  1
  O  O7  1  0.69316400  0.69316400  0.97276300  1
  O  O8  1  0.31115500  0.31115500  0.53003800  1
  O  O9  1  0.05637000  0.05637000  0.38782500  1
  O  O10  1  0.80587400  0.80587400  0.27282200  1
  O  O11  1  0.55131600  0.55131600  0.15816300  1
  O  O12  1  0.30683600  0.30683600  0.02723700  1
  O  O13  1  0.05267400  0.05267400  0.91011100  1
  O  O14  1  0.80874900  0.80874900  0.78749600  1
  O  O15  1  0.55529700  0.55529700  0.67125800  1
loop_
_geom_bond_atom_site_label_1
_geom_bond_atom_site_label_2
_geom_bond_distance
_geom_bond_site_symmetry_2
Li0 O2 2.009554 1_545
Li0 O2 2.009554 1_455
Li0 O8 2.085831 1_555
Li0 O0 2.148016 1_555
Li0 O14 2.163156 1_545
Li0 O14 2.163156 1_455
Li1 O3 2.093007 1_455
Li1 O3 2.093007 1_545
Li1 O9 2.140869 1_555
Li1 O15 2.172519 1_545
Li1 O15 2.172519 1_455
Li1 O1 2.316735 1_555
Li2 O8 2.093007 1_565
Li2 O8 2.093007 1_655
Li2 O2 2.140869 1_555
Li2 O4 2.172519 1_565
Li2 O4 2.172519 1_655
Li2 O10 2.316735 1_555
Li3 O9 2.009554 1_655
Li3 O9 2.009554 1_565
Li3 O3 2.085831 1_555
Li3 O11 2.148016 1_555
Li3 O5 2.163156 1_655
Li3 O5 2.163156 1_565
Li4 O4 2.016490 1_555
Li4 O10 2.100795 1_545
Li4 O10 2.100795 1_455
Li4 O12 2.143261 1_555
Li4 O6 2.168415 1_545
Li4 O6 2.168415 1_455
Li5 O5 2.034867 1_555
Li5 O7 2.117119 1_454
Li5 O7 2.117119 1_544
Li5 O13 2.139459 1_554
Li5 O11 2.165367 1_545
Li5 O11 2.165367 1_455
Li6 O14 2.034867 1_555
Li6 O12 2.117119 1_656
Li6 O12 2.117119 1_566
Li6 O6 2.139459 1_556
Li6 O0 2.165367 1_655
Li6 O0 2.165367 1_565
Li7 O15 2.016490 1_555
Li7 O1 2.100795 1_655
Li7 O1 2.100795 1_565
Li7 O7 2.143261 1_555
Li7 O13 2.168415 1_655
Li7 O13 2.168415 1_565
Li8 O2 2.075892 1_545
Li8 O9 2.075892 1_655
Li8 O9 2.075892 1_565
Li8 O2 2.075892 1_455
Li8 O4 2.081212 1_555
Li8 O15 2.081212 1_555
Co0 O2 1.789729 1_445
Co0 O15 1.902650 1_455
Co0 O15 1.902650 1_545
Co0 O0 1.954963 1_455
Co0 O0 1.954963 1_545
Co0 O13 1.984609 1_555
Co1 O9 1.789729 1_665
Co1 O4 1.902650 1_655
Co1 O4 1.902650 1_565
Co1 O11 1.954963 1_565
Co1 O11 1.954963 1_655
Co1 O6 1.984609 1_555
Co2 O14 2.028293 1_555
Co2 O8 2.028478 1_655
Co2 O8 2.028478 1_565
Co2 O3 2.032400 1_555
Co2 O1 2.037026 1_655
Co2 O1 2.037026 1_565
Co3 O5 2.028293 1_555
Co3 O3 2.028478 1_455
Co3 O3 2.028478 1_545
Co3 O8 2.032400 1_555
Co3 O10 2.037026 1_545
Co3 O10 2.037026 1_455
Co4 O7 1.911428 1_554
Co4 O10 1.917126 1_555
Co4 O5 1.978898 1_655
Co4 O5 1.978898 1_565
Co4 O12 2.020876 1_655
Co4 O12 2.020876 1_565
Co5 O11 1.924794 1_555
Co5 O0 1.924794 1_554
Co5 O6 1.938842 1_545
Co5 O6 1.938842 1_455
Co5 O13 1.938842 1_564
Co5 O13 1.938842 1_654
Co6 O12 1.911428 1_556
Co6 O1 1.917126 1_555
Co6 O14 1.978898 1_545
Co6 O14 1.978898 1_455
Co6 O7 2.020876 1_545
Co6 O7 2.020876 1_455
