# generated using pymatgen
data_Na4Th(WO4)4
_symmetry_space_group_name_H-M   'P 1'
_cell_length_a   10.21866600
_cell_length_b   10.21866600
_cell_length_c   10.21866600
_cell_angle_alpha   110.31221145
_cell_angle_beta   110.31221145
_cell_angle_gamma   107.80202333
_symmetry_Int_Tables_number   1
_chemical_formula_structural   Na4Th(WO4)4
_chemical_formula_sum   'Na8 Th2 W8 O32'
_cell_volume   820.89039963
_cell_formula_units_Z   2
loop_
 _symmetry_equiv_pos_site_id
 _symmetry_equiv_pos_as_xyz
  1  'x, y, z'
loop_
 _atom_site_type_symbol
 _atom_site_label
 _atom_site_symmetry_multiplicity
 _atom_site_fract_x
 _atom_site_fract_y
 _atom_site_fract_z
 _atom_site_occupancy
  Na  Na0  1  0.14860900  0.75077000  0.83910300  1
  Na  Na1  1  0.91166700  0.30950600  0.16089700  1
  Na  Na2  1  0.50077000  0.16166700  0.10216100  1
  Na  Na3  1  0.05950600  0.39860900  0.89783900  1
  Na  Na4  1  0.60139100  0.49923000  0.66089700  1
  Na  Na5  1  0.83833300  0.94049400  0.33910300  1
  Na  Na6  1  0.24923000  0.08833300  0.39783900  1
  Na  Na7  1  0.69049400  0.85139100  0.60216100  1
  Th  Th0  1  0.50000000  0.50000000  0.00000000  1
  Th  Th1  1  0.25000000  0.75000000  0.50000000  1
  W  W0  1  0.57388800  0.84649600  0.90978300  1
  W  W1  1  0.93671400  0.66410500  0.09021700  1
  W  W2  1  0.59649600  0.18671400  0.77260900  1
  W  W3  1  0.41410500  0.82388800  0.22739100  1
  W  W4  1  0.17611200  0.40350400  0.59021700  1
  W  W5  1  0.81328600  0.58589500  0.40978300  1
  W  W6  1  0.15350400  0.06328600  0.72739100  1
  W  W7  1  0.33589500  0.42611200  0.27260900  1
  O  O0  1  0.59915900  0.77183500  0.05291900  1
  O  O1  1  0.71891500  0.54623900  0.94708100  1
  O  O2  1  0.52183500  0.96891500  0.67267600  1
  O  O3  1  0.29623900  0.84915900  0.32732400  1
  O  O4  1  0.15084100  0.47816500  0.44708100  1
  O  O5  1  0.03108500  0.70376100  0.55291900  1
  O  O6  1  0.22816500  0.28108500  0.82732400  1
  O  O7  1  0.45376100  0.40084100  0.17267600  1
  O  O8  1  0.34856000  0.61121700  0.09017500  1
  O  O9  1  0.52104200  0.25838500  0.90982500  1
  O  O10  1  0.36121700  0.77104200  0.76265700  1
  O  O11  1  0.00838500  0.59856000  0.23734300  1
  O  O12  1  0.40144000  0.63878300  0.40982500  1
  O  O13  1  0.22895800  0.99161500  0.59017500  1
  O  O14  1  0.38878300  0.47895800  0.73734300  1
  O  O15  1  0.74161500  0.65144000  0.26265700  1
  O  O16  1  0.67482300  0.06019100  0.02822800  1
  O  O17  1  0.03196400  0.64659600  0.97177200  1
  O  O18  1  0.81019100  0.28196400  0.88536800  1
  O  O19  1  0.39659600  0.92482300  0.11463200  1
  O  O20  1  0.07517700  0.18980900  0.47177200  1
  O  O21  1  0.71803600  0.60340400  0.52822800  1
  O  O22  1  0.93980900  0.96803600  0.61463200  1
  O  O23  1  0.35340400  0.32517700  0.38536800  1
  O  O24  1  0.08136800  0.46401300  0.69866700  1
  O  O25  1  0.76534600  0.38270100  0.30133300  1
  O  O26  1  0.21401300  0.01534600  0.88264500  1
  O  O27  1  0.13270100  0.33136800  0.11735500  1
  O  O28  1  0.66863200  0.78598700  0.80133300  1
  O  O29  1  0.98465400  0.86729900  0.19866700  1
  O  O30  1  0.53598700  0.23465400  0.61735500  1
  O  O31  1  0.61729900  0.91863200  0.38264500  1
loop_
_geom_bond_atom_site_label_1
_geom_bond_atom_site_label_2
_geom_bond_distance
_geom_bond_site_symmetry_2
Na0 O17 2.395804 1_555
Na0 O26 2.409914 1_565
Na0 O24 2.506556 1_555
Na0 O19 2.515186 1_556
Na0 O10 2.527580 1_555
Na0 O5 2.541429 1_555
Na1 O16 2.395815 1_555
Na1 O27 2.409914 1_655
Na1 O25 2.506556 1_555
Na1 O18 2.515186 1_554
Na1 O11 2.527580 1_655
Na1 O4 2.541425 1_655
Na2 O19 2.395813 1_545
Na2 O25 2.409914 1_555
Na2 O26 2.506556 1_554
Na2 O16 2.515182 1_555
Na2 O9 2.527580 1_554
Na2 O7 2.541420 1_555
Na3 O18 2.395813 1_455
Na3 O24 2.409914 1_555
Na3 O27 2.506556 1_556
Na3 O17 2.515186 1_555
Na3 O8 2.527580 1_556
Na3 O6 2.541420 1_555
Na4 O21 2.395804 1_555
Na4 O30 2.409914 1_555
Na4 O28 2.506556 1_555
Na4 O23 2.515186 1_555
Na4 O14 2.527580 1_555
Na4 O1 2.541429 1_555
Na5 O20 2.395815 1_665
Na5 O31 2.409914 1_555
Na5 O29 2.506556 1_555
Na5 O22 2.515186 1_555
Na5 O15 2.527580 1_555
Na5 O0 2.541425 1_555
Na6 O23 2.395813 1_555
Na6 O29 2.409914 1_445
Na6 O30 2.506556 1_555
Na6 O20 2.515182 1_555
Na6 O13 2.527580 1_545
Na6 O3 2.541420 1_545
Na7 O22 2.395813 1_555
Na7 O28 2.409914 1_555
Na7 O31 2.506556 1_555
Na7 O21 2.515186 1_555
Na7 O12 2.527580 1_555
Na7 O2 2.541420 1_555
O0 W0 1.849624 1_554
O0 Th0 2.427122 1_555
O1 W1 1.849639 1_556
O1 Th0 2.427113 1_556
O2 W2 1.849642 1_565
O2 Th1 2.427119 1_555
O3 W3 1.849641 1_555
O3 Th1 2.427119 1_555
O4 W4 1.849624 1_555
O4 Th1 2.427122 1_555
O5 W5 1.849639 1_455
O5 Th1 2.427113 1_555
O6 W6 1.849642 1_555
O6 Th0 2.427119 1_556
O7 W7 1.849641 1_555
O7 Th0 2.427119 1_555
O8 W3 1.865449 1_555
O8 Th0 2.423604 1_555
O9 W2 1.865441 1_555
O9 Th0 2.423604 1_556
O10 W0 1.865451 1_555
O10 Th1 2.423604 1_555
O11 W1 1.865449 1_455
O11 Th1 2.423604 1_555
O12 W7 1.865449 1_555
O12 Th1 2.423604 1_555
O13 W6 1.865441 1_565
O13 Th1 2.423604 1_555
O14 W4 1.865451 1_555
O14 Th0 2.423604 1_556
O15 W5 1.865449 1_555
O15 Th0 2.423604 1_555
O16 W0 1.793979 1_544
O17 W1 1.793979 1_456
O18 W2 1.793979 1_555
O19 W3 1.793970 1_555
O20 W4 1.793979 1_555
O21 W5 1.793979 1_555
O22 W6 1.793979 1_665
O23 W7 1.793970 1_555
O24 W4 1.784094 1_555
O25 W5 1.784097 1_555
O26 W6 1.784096 1_555
O27 W7 1.784097 1_555
O28 W0 1.784094 1_555
O29 W1 1.784097 1_555
O30 W2 1.784096 1_555
O31 W3 1.784097 1_555
