# generated using pymatgen
data_CoSbS
_symmetry_space_group_name_H-M   'P 1'
_cell_length_a   5.86026400
_cell_length_b   5.93599800
_cell_length_c   11.69824800
_cell_angle_alpha   90.00000000
_cell_angle_beta   90.00000000
_cell_angle_gamma   90.00000000
_symmetry_Int_Tables_number   1
_chemical_formula_structural   CoSbS
_chemical_formula_sum   'Co8 Sb8 S8'
_cell_volume   406.94128401
_cell_formula_units_Z   8
loop_
 _symmetry_equiv_pos_site_id
 _symmetry_equiv_pos_as_xyz
  1  'x, y, z'
loop_
 _atom_site_type_symbol
 _atom_site_label
 _atom_site_symmetry_multiplicity
 _atom_site_fract_x
 _atom_site_fract_y
 _atom_site_fract_z
 _atom_site_occupancy
  Co  Co0  1  0.51663800  0.82165300  0.35886100  1
  Co  Co1  1  0.01663800  0.67834700  0.64113900  1
  Co  Co2  1  0.48336200  0.32165300  0.14113900  1
  Co  Co3  1  0.98336200  0.17834700  0.85886100  1
  Co  Co4  1  0.48336200  0.17834700  0.64113900  1
  Co  Co5  1  0.98336200  0.32165300  0.35886100  1
  Co  Co6  1  0.51663800  0.67834700  0.85886100  1
  Co  Co7  1  0.01663800  0.82165300  0.14113900  1
  Sb  Sb0  1  0.36937800  0.19302300  0.43033200  1
  Sb  Sb1  1  0.86937800  0.30697700  0.56966800  1
  Sb  Sb2  1  0.63062200  0.69302300  0.06966800  1
  Sb  Sb3  1  0.13062200  0.80697700  0.93033200  1
  Sb  Sb4  1  0.63062200  0.80697700  0.56966800  1
  Sb  Sb5  1  0.13062200  0.69302300  0.43033200  1
  Sb  Sb6  1  0.36937800  0.30697700  0.93033200  1
  Sb  Sb7  1  0.86937800  0.19302300  0.06966800  1
  S  S0  1  0.62698000  0.44817100  0.31384900  1
  S  S1  1  0.12698000  0.05182900  0.68615100  1
  S  S2  1  0.37302000  0.94817100  0.18615100  1
  S  S3  1  0.87302000  0.55182900  0.81384900  1
  S  S4  1  0.37302000  0.55182900  0.68615100  1
  S  S5  1  0.87302000  0.94817100  0.31384900  1
  S  S6  1  0.62698000  0.05182900  0.81384900  1
  S  S7  1  0.12698000  0.44817100  0.18615100  1
loop_
_geom_bond_atom_site_label_1
_geom_bond_atom_site_label_2
_geom_bond_distance
_geom_bond_site_symmetry_2
Co0 S5 2.281027 1_555
Co0 S2 2.313959 1_555
Co0 S0 2.368637 1_555
Co0 Sb0 2.510654 1_565
Co0 Sb5 2.529702 1_555
Co0 Sb4 2.556422 1_555
Co1 S4 2.281027 1_555
Co1 S3 2.313959 1_455
Co1 S1 2.368637 1_565
Co1 Sb1 2.510654 1_455
Co1 Sb4 2.529702 1_455
Co1 Sb5 2.556422 1_555
Co2 S7 2.281027 1_555
Co2 S0 2.313959 1_555
Co2 S2 2.368637 1_545
Co2 Sb2 2.510654 1_555
Co2 Sb7 2.529702 1_555
Co2 Sb6 2.556422 1_554
Co3 S6 2.281027 1_555
Co3 S1 2.313959 1_655
Co3 S3 2.368637 1_555
Co3 Sb3 2.510654 1_645
Co3 Sb6 2.529702 1_655
Co3 Sb7 2.556422 1_556
Co4 S1 2.281027 1_555
Co4 S6 2.313959 1_555
Co4 S4 2.368637 1_555
Co4 Sb4 2.510654 1_545
Co4 Sb1 2.529702 1_555
Co4 Sb0 2.556422 1_555
Co5 S0 2.281027 1_555
Co5 S7 2.313959 1_655
Co5 S5 2.368637 1_545
Co5 Sb5 2.510654 1_655
Co5 Sb0 2.529702 1_655
Co5 Sb1 2.556422 1_555
Co6 S3 2.281027 1_555
Co6 S4 2.313959 1_555
Co6 S6 2.368637 1_565
Co6 Sb6 2.510654 1_555
Co6 Sb3 2.529702 1_555
Co6 Sb2 2.556422 1_556
Co7 S2 2.281027 1_555
Co7 S5 2.313959 1_455
Co7 S7 2.368637 1_555
Co7 Sb7 2.510654 1_465
Co7 Sb2 2.529702 1_455
Co7 Sb3 2.556422 1_554
S0 Sb0 2.535672 1_555
S1 Sb1 2.535672 1_455
S2 Sb2 2.535672 1_555
S3 Sb3 2.535672 1_655
S4 Sb4 2.535672 1_555
S5 Sb5 2.535672 1_655
S6 Sb6 2.535672 1_555
S7 Sb7 2.535672 1_455
