# generated using pymatgen
data_CaCeV2O8
_symmetry_space_group_name_H-M   'P 1'
_cell_length_a   6.07941717
_cell_length_b   6.07941717
_cell_length_c   6.07941717
_cell_angle_alpha   106.24416571
_cell_angle_beta   106.24416571
_cell_angle_gamma   116.13818040
_symmetry_Int_Tables_number   1
_chemical_formula_structural   CaCeV2O8
_chemical_formula_sum   'Ca1 Ce1 V2 O8'
_cell_volume   171.19098837
_cell_formula_units_Z   1
loop_
 _symmetry_equiv_pos_site_id
 _symmetry_equiv_pos_as_xyz
  1  'x, y, z'
loop_
 _atom_site_type_symbol
 _atom_site_label
 _atom_site_symmetry_multiplicity
 _atom_site_fract_x
 _atom_site_fract_y
 _atom_site_fract_z
 _atom_site_occupancy
  Ca  Ca0  1  0.00000000  0.00000000  0.00000000  1
  Ce  Ce0  1  0.25000000  0.75000000  0.50000000  1
  V  V0  1  0.75000000  0.25000000  0.50000000  1
  V  V1  1  0.50000000  0.50000000  0.00000000  1
  O  O0  1  0.92946400  0.60819400  0.67872900  1
  O  O1  1  0.47932600  0.66720600  0.81211900  1
  O  O2  1  0.85508700  0.66720600  0.18788100  1
  O  O3  1  0.92946400  0.25073500  0.32127100  1
  O  O4  1  0.33279400  0.14491300  0.81211900  1
  O  O5  1  0.74926500  0.07053600  0.67872900  1
  O  O6  1  0.39180600  0.07053600  0.32127100  1
  O  O7  1  0.33279400  0.52067400  0.18788100  1
loop_
_geom_bond_atom_site_label_1
_geom_bond_atom_site_label_2
_geom_bond_distance
_geom_bond_site_symmetry_2
Ca0 O6 2.387684 1_555
Ca0 O0 2.387684 1_444
Ca0 O5 2.387688 1_454
Ca0 O3 2.387688 1_455
Ca0 O7 2.541548 1_555
Ca0 O1 2.541548 1_444
Ca0 O4 2.541552 1_554
Ca0 O2 2.541552 1_445
Ce0 O2 2.338836 1_455
Ce0 O4 2.338836 1_565
Ce0 O1 2.338839 1_555
Ce0 O7 2.338839 1_555
Ce0 O6 2.439192 1_565
Ce0 O0 2.439192 1_455
Ce0 O5 2.439193 1_565
Ce0 O3 2.439193 1_455
O0 V0 1.741460 1_555
O1 V1 1.742287 1_556
O2 V1 1.742288 1_555
O3 V0 1.741455 1_555
O4 V1 1.742288 1_556
O5 V0 1.741455 1_555
O6 V0 1.741460 1_555
O7 V1 1.742287 1_555
