# generated using pymatgen
data_Ce2TiCo16
_symmetry_space_group_name_H-M   'P 1'
_cell_length_a   8.17743406
_cell_length_b   8.32312491
_cell_length_c   8.32312491
_cell_angle_alpha   119.96703258
_cell_angle_beta   89.98818353
_cell_angle_gamma   90.01181647
_symmetry_Int_Tables_number   1
_chemical_formula_structural   Ce2TiCo16
_chemical_formula_sum   'Ce4 Ti2 Co32'
_cell_volume   490.75493144
_cell_formula_units_Z   2
loop_
 _symmetry_equiv_pos_site_id
 _symmetry_equiv_pos_as_xyz
  1  'x, y, z'
loop_
 _atom_site_type_symbol
 _atom_site_label
 _atom_site_symmetry_multiplicity
 _atom_site_fract_x
 _atom_site_fract_y
 _atom_site_fract_z
 _atom_site_occupancy
  Ce  Ce0  1  0.26470200  0.66638700  0.33361300  1
  Ce  Ce1  1  0.73529800  0.33361300  0.66638700  1
  Ce  Ce2  1  0.75083200  0.99994200  0.00005800  1
  Ce  Ce3  1  0.24916800  0.00005800  0.99994200  1
  Ti  Ti0  1  0.11388200  0.33333600  0.66666400  1
  Ti  Ti1  1  0.88611800  0.66666400  0.33333600  1
  Co  Co0  1  0.75004200  0.67232100  0.04167800  1
  Co  Co1  1  0.74967700  0.36937600  0.32780900  1
  Co  Co2  1  0.75005200  0.95835600  0.63074200  1
  Co  Co3  1  0.75005200  0.36925800  0.04164400  1
  Co  Co4  1  0.75004200  0.95832200  0.32767900  1
  Co  Co5  1  0.74967700  0.67219100  0.63062400  1
  Co  Co6  1  0.24995800  0.32767900  0.95832200  1
  Co  Co7  1  0.25032300  0.63062400  0.67219100  1
  Co  Co8  1  0.24994800  0.04164400  0.36925800  1
  Co  Co9  1  0.24994800  0.63074200  0.95835600  1
  Co  Co10  1  0.24995800  0.04167800  0.67232100  1
  Co  Co11  1  0.25032300  0.32780900  0.36937600  1
  Co  Co12  1  0.48315000  0.83294400  0.66642100  1
  Co  Co13  1  0.48316800  0.83329600  0.16670400  1
  Co  Co14  1  0.48315000  0.33357900  0.16705600  1
  Co  Co15  1  0.51685000  0.16705600  0.33357900  1
  Co  Co16  1  0.51683200  0.16670400  0.83329600  1
  Co  Co17  1  0.51685000  0.66642100  0.83294400  1
  Co  Co18  1  0.97547200  0.16646600  0.33311700  1
  Co  Co19  1  0.97561600  0.16659100  0.83340900  1
  Co  Co20  1  0.97547200  0.66688300  0.83353400  1
  Co  Co21  1  0.02452800  0.83353400  0.66688300  1
  Co  Co22  1  0.02438400  0.83340900  0.16659100  1
  Co  Co23  1  0.02452800  0.33311700  0.16646600  1
  Co  Co24  1  0.50000000  0.50000000  0.00000000  1
  Co  Co25  1  0.50000000  0.50000000  0.50000000  1
  Co  Co26  1  0.50000000  0.00000000  0.50000000  1
  Co  Co27  1  0.00000000  0.50000000  0.00000000  1
  Co  Co28  1  0.00000000  0.50000000  0.50000000  1
  Co  Co29  1  0.00000000  0.00000000  0.50000000  1
  Co  Co30  1  0.60304300  0.66656100  0.33343900  1
  Co  Co31  1  0.39695700  0.33343900  0.66656100  1
loop_
_geom_bond_atom_site_label_1
_geom_bond_atom_site_label_2
_geom_bond_distance
_geom_bond_site_symmetry_2
Ce0 Co30 2.766762 1_555
Ce0 Co11 2.980190 1_555
Ce0 Co7 2.980190 1_555
Ce0 Co6 2.986937 1_554
Ce0 Co10 2.986937 1_565
Ce0 Co9 2.988661 1_554
Ce0 Co8 2.988661 1_565
Ce0 Co14 2.991749 1_555
Ce0 Co12 2.991749 1_555
Ce0 Co13 2.996205 1_555
Ce0 Co25 3.075075 1_555
Ce0 Co24 3.080193 1_555
Ce0 Co26 3.080193 1_565
Ce0 Ti1 3.095849 1_455
Ce0 Co21 3.103344 1_555
Ce0 Co23 3.103344 1_555
Ce0 Co22 3.108020 1_555
Ce0 Co28 3.230255 1_555
Ce0 Co27 3.236212 1_555
Ce0 Co29 3.236212 1_565
Ce1 Co31 2.766762 1_555
Ce1 Co5 2.980190 1_555
Ce1 Co1 2.980190 1_555
Ce1 Co4 2.986937 1_545
Ce1 Co0 2.986937 1_556
Ce1 Co2 2.988661 1_545
Ce1 Co3 2.988661 1_556
Ce1 Co15 2.991749 1_555
Ce1 Co17 2.991749 1_555
Ce1 Co16 2.996205 1_555
Ce1 Co25 3.075075 1_555
Ce1 Co24 3.080193 1_556
Ce1 Co26 3.080193 1_555
Ce1 Ti0 3.095849 1_655
Ce1 Co18 3.103344 1_555
Ce1 Co20 3.103344 1_555
Ce1 Co19 3.108020 1_555
Ce1 Co28 3.230255 1_655
Ce1 Co29 3.236212 1_655
Ce1 Co27 3.236212 1_656
Ce2 Co4 2.915355 1_555
Ce2 Co0 2.915355 1_555
Ce2 Co3 2.916437 1_565
Ce2 Co2 2.916437 1_554
Ce2 Co1 2.918342 1_565
Ce2 Co5 2.918342 1_554
Ce2 Co18 3.023696 1_565
Ce2 Co20 3.023696 1_554
Ce2 Co19 3.024308 1_564
Ce2 Co16 3.072670 1_564
Ce2 Co17 3.072967 1_554
Ce2 Co15 3.072967 1_565
Ce2 Co13 3.249289 1_555
Ce2 Co12 3.252692 1_554
Ce2 Co14 3.252692 1_565
Ce2 Co22 3.281496 1_655
Ce2 Co21 3.283164 1_654
Ce2 Co23 3.283164 1_665
Ce3 Co6 2.915355 1_555
Ce3 Co10 2.915355 1_555
Ce3 Co8 2.916437 1_556
Ce3 Co9 2.916437 1_545
Ce3 Co11 2.918342 1_556
Ce3 Co7 2.918342 1_545
Ce3 Co23 3.023696 1_556
Ce3 Co21 3.023696 1_545
Ce3 Co22 3.024308 1_546
Ce3 Co13 3.072670 1_546
Ce3 Co12 3.072967 1_545
Ce3 Co14 3.072967 1_556
Ce3 Co16 3.249289 1_555
Ce3 Co17 3.252692 1_545
Ce3 Co15 3.252692 1_556
Ce3 Co19 3.281496 1_455
Ce3 Co20 3.283164 1_445
Ce3 Co18 3.283164 1_456
Co0 Co4 2.381608 1_555
Co0 Co27 2.420596 1_655
Co0 Co24 2.420798 1_555
Co0 Co13 2.499607 1_555
Co0 Co20 2.514347 1_554
Co0 Co3 2.522290 1_555
Co0 Co22 2.553157 1_655
Co0 Co17 2.563806 1_554
Co0 Ti1 2.692311 1_555
Co0 Co30 2.731173 1_555
Co1 Co3 2.381298 1_555
Co1 Co25 2.418203 1_555
Co1 Co28 2.422785 1_655
Co1 Co14 2.496372 1_555
Co1 Co18 2.517794 1_555
Co1 Co5 2.521623 1_555
Co1 Co23 2.557375 1_655
Co1 Co15 2.557794 1_555
Co1 Ti1 2.693444 1_555
Co1 Co30 2.728308 1_555
Co2 Co5 2.381298 1_555
Co2 Co29 2.420233 1_665
Co2 Co26 2.421451 1_565
Co2 Co4 2.522290 1_555
Co2 Co21 2.553640 1_655
Co2 Ti1 2.693675 1_555
Co2 Co30 2.731841 1_555
Co3 Ti1 2.693675 1_555
Co3 Co30 2.731841 1_555
Co4 Ti1 2.692311 1_555
Co5 Ti1 2.693444 1_555
Co6 Co9 2.522290 1_555
Co6 Ti0 2.692311 1_555
Co7 Co9 2.381298 1_555
Co7 Ti0 2.693444 1_555
Co8 Ti0 2.693675 1_555
Co9 Ti0 2.693675 1_555
Co10 Co6 2.381608 1_555
Co10 Co29 2.420596 1_555
Co10 Co26 2.420798 1_555
Co10 Co16 2.499607 1_555
Co10 Co21 2.514347 1_545
Co10 Co8 2.522290 1_555
Co10 Co19 2.553157 1_455
Co10 Co12 2.563806 1_545
Co10 Ti0 2.692311 1_555
Co10 Co31 2.731173 1_555
Co11 Co8 2.381298 1_555
Co11 Co25 2.418203 1_555
Co11 Co28 2.422785 1_555
Co11 Co15 2.496372 1_555
Co11 Co23 2.517794 1_555
Co11 Co7 2.521623 1_555
Co11 Co18 2.557375 1_455
Co11 Co14 2.557794 1_555
Co11 Ti0 2.693444 1_555
Co11 Co31 2.728308 1_555
Co12 Co25 2.404637 1_555
Co12 Co26 2.407231 1_565
Co12 Co17 2.416043 1_555
Co12 Co16 2.422232 1_565
Co12 Co5 2.496372 1_555
Co12 Co2 2.499966 1_555
Co12 Co7 2.557794 1_555
Co12 Co30 2.593297 1_555
Co13 Co24 2.407163 1_555
Co13 Co26 2.407163 1_565
Co13 Co17 2.422232 1_554
Co13 Co15 2.422232 1_565
Co13 Co4 2.499607 1_555
Co13 Co8 2.562414 1_565
Co13 Co9 2.562414 1_554
Co13 Co30 2.595714 1_555
Co14 Co25 2.404637 1_555
Co14 Co24 2.407231 1_555
Co14 Co15 2.416043 1_555
Co14 Co16 2.422232 1_554
Co14 Co3 2.499966 1_555
Co14 Co6 2.563806 1_554
Co14 Co30 2.593297 1_555
Co15 Co25 2.404637 1_555
Co15 Co26 2.407231 1_555
Co15 Co8 2.499966 1_555
Co15 Co4 2.563806 1_545
Co15 Co31 2.593297 1_555
Co16 Co24 2.407163 1_556
Co16 Co26 2.407163 1_555
Co16 Co6 2.499607 1_555
Co16 Co3 2.562414 1_556
Co16 Co2 2.562414 1_545
Co16 Co31 2.595714 1_555
Co17 Co25 2.404637 1_555
Co17 Co24 2.407231 1_556
Co17 Co7 2.496372 1_555
Co17 Co9 2.499966 1_555
Co17 Co5 2.557794 1_555
Co17 Co31 2.593297 1_555
Co18 Co29 2.410800 1_655
Co18 Co28 2.413251 1_655
Co18 Co22 2.434613 1_645
Co18 Co23 2.435227 1_655
Co18 Co4 2.514347 1_545
Co18 Co8 2.553640 1_655
Co18 Ti0 2.658161 1_655
Co19 Co29 2.412254 1_655
Co19 Co27 2.412254 1_656
Co19 Co21 2.434613 1_645
Co19 Co23 2.434613 1_656
Co19 Co2 2.516124 1_545
Co19 Co3 2.516124 1_556
Co19 Co6 2.553157 1_655
Co19 Ti0 2.655838 1_655
Co20 Co27 2.410800 1_656
Co20 Co28 2.413251 1_655
Co20 Co22 2.434613 1_656
Co20 Co21 2.435227 1_655
Co20 Co5 2.517794 1_555
Co20 Co9 2.553640 1_655
Co20 Co7 2.557375 1_655
Co20 Ti0 2.658161 1_655
Co21 Co29 2.410800 1_565
Co21 Co28 2.413251 1_555
Co21 Co7 2.517794 1_555
Co21 Co5 2.557375 1_455
Co21 Ti1 2.658161 1_455
Co22 Co27 2.412254 1_555
Co22 Co29 2.412254 1_565
Co22 Co9 2.516124 1_554
Co22 Co8 2.516124 1_565
Co22 Co4 2.553157 1_455
Co22 Ti1 2.655838 1_455
Co23 Co27 2.410800 1_555
Co23 Co28 2.413251 1_555
Co23 Co6 2.514347 1_554
Co23 Co3 2.553640 1_455
Co23 Ti1 2.658161 1_455
Co24 Co6 2.420798 1_554
Co24 Co9 2.421451 1_554
Co24 Co3 2.421451 1_555
Co24 Co30 2.547718 1_555
Co24 Co31 2.547718 1_554
Co25 Co7 2.418203 1_555
Co25 Co5 2.418203 1_555
Co25 Co30 2.544148 1_555
Co25 Co31 2.544148 1_555
Co26 Co4 2.420798 1_545
Co26 Co8 2.421451 1_555
Co26 Co31 2.547718 1_555
Co26 Co30 2.547718 1_545
Co27 Co3 2.420233 1_455
Co27 Co9 2.420233 1_554
Co27 Co6 2.420596 1_554
Co27 Ti0 2.577501 1_554
Co27 Ti1 2.577501 1_455
Co28 Co5 2.422785 1_455
Co28 Co7 2.422785 1_555
Co28 Ti0 2.576641 1_555
Co28 Ti1 2.576641 1_455
Co29 Co8 2.420233 1_555
Co29 Co4 2.420596 1_445
Co29 Ti1 2.577501 1_445
Co29 Ti0 2.577501 1_555
Co30 Ti1 2.314827 1_555
Co30 Co5 2.728308 1_555
Co30 Co4 2.731173 1_555
Co31 Ti0 2.314827 1_555
Co31 Co7 2.728308 1_555
Co31 Co6 2.731173 1_555
Co31 Co8 2.731841 1_555
Co31 Co9 2.731841 1_555
