# generated using pymatgen
data_SnS2
_symmetry_space_group_name_H-M   'P 1'
_cell_length_a   7.37624626
_cell_length_b   7.37624626
_cell_length_c   7.37624626
_cell_angle_alpha   60.00000000
_cell_angle_beta   60.00000000
_cell_angle_gamma   60.00000000
_symmetry_Int_Tables_number   1
_chemical_formula_structural   SnS2
_chemical_formula_sum   'Sn4 S8'
_cell_volume   283.78616849
_cell_formula_units_Z   4
loop_
 _symmetry_equiv_pos_site_id
 _symmetry_equiv_pos_as_xyz
  1  'x, y, z'
loop_
 _atom_site_type_symbol
 _atom_site_label
 _atom_site_symmetry_multiplicity
 _atom_site_fract_x
 _atom_site_fract_y
 _atom_site_fract_z
 _atom_site_occupancy
  Sn  Sn0  1  0.12500000  0.62500000  0.62500000  1
  Sn  Sn1  1  0.62500000  0.12500000  0.62500000  1
  Sn  Sn2  1  0.62500000  0.62500000  0.12500000  1
  Sn  Sn3  1  0.62500000  0.62500000  0.62500000  1
  S  S0  1  0.86603667  0.37798778  0.37798778  1
  S  S1  1  0.37798778  0.86603667  0.37798778  1
  S  S2  1  0.37798778  0.37798778  0.86603667  1
  S  S3  1  0.37798778  0.37798778  0.37798778  1
  S  S4  1  0.38396333  0.87201222  0.87201222  1
  S  S5  1  0.87201222  0.38396333  0.87201222  1
  S  S6  1  0.87201222  0.87201222  0.38396333  1
  S  S7  1  0.87201222  0.87201222  0.87201222  1
loop_
_geom_bond_atom_site_label_1
_geom_bond_atom_site_label_2
_geom_bond_distance
_geom_bond_site_symmetry_2
S0 Sn3 2.577107 1_555
S0 Sn1 2.577107 1_555
S0 Sn2 2.577107 1_555
S1 Sn3 2.577107 1_555
S1 Sn0 2.577107 1_555
S1 Sn2 2.577107 1_555
S2 Sn3 2.577107 1_555
S2 Sn1 2.577107 1_555
S2 Sn0 2.577107 1_555
S3 Sn0 2.577107 1_555
S3 Sn2 2.577107 1_555
S3 Sn1 2.577107 1_555
S4 Sn3 2.577107 1_555
S4 Sn2 2.577107 1_556
S4 Sn1 2.577107 1_565
S5 Sn3 2.577107 1_555
S5 Sn2 2.577107 1_556
S5 Sn0 2.577107 1_655
S6 Sn3 2.577107 1_555
S6 Sn1 2.577107 1_565
S6 Sn0 2.577107 1_655
S7 Sn2 2.577107 1_556
S7 Sn1 2.577107 1_565
S7 Sn0 2.577107 1_655
