# generated using pymatgen
data_DyMnCu4P3
_symmetry_space_group_name_H-M   'P 1'
_cell_length_a   3.76264200
_cell_length_b   10.76347800
_cell_length_c   12.49213200
_cell_angle_alpha   90.00000000
_cell_angle_beta   90.00000000
_cell_angle_gamma   90.00000000
_symmetry_Int_Tables_number   1
_chemical_formula_structural   DyMnCu4P3
_chemical_formula_sum   'Dy4 Mn4 Cu16 P12'
_cell_volume   505.92028283
_cell_formula_units_Z   4
loop_
 _symmetry_equiv_pos_site_id
 _symmetry_equiv_pos_as_xyz
  1  'x, y, z'
loop_
 _atom_site_type_symbol
 _atom_site_label
 _atom_site_symmetry_multiplicity
 _atom_site_fract_x
 _atom_site_fract_y
 _atom_site_fract_z
 _atom_site_occupancy
  Dy  Dy0  1  0.25000000  0.59189500  0.79297800  1
  Dy  Dy1  1  0.25000000  0.90810500  0.29297800  1
  Dy  Dy2  1  0.75000000  0.40810500  0.20702200  1
  Dy  Dy3  1  0.75000000  0.09189500  0.70702200  1
  Mn  Mn0  1  0.25000000  0.71721800  0.52617900  1
  Mn  Mn1  1  0.25000000  0.78278200  0.02617900  1
  Mn  Mn2  1  0.75000000  0.28278200  0.47382100  1
  Mn  Mn3  1  0.75000000  0.21721800  0.97382100  1
  Cu  Cu0  1  0.25000000  0.08774300  0.50265400  1
  Cu  Cu1  1  0.25000000  0.41225700  0.00265400  1
  Cu  Cu2  1  0.75000000  0.91225700  0.49734600  1
  Cu  Cu3  1  0.75000000  0.58774300  0.99734600  1
  Cu  Cu4  1  0.25000000  0.46742800  0.56342900  1
  Cu  Cu5  1  0.25000000  0.03257200  0.06342900  1
  Cu  Cu6  1  0.75000000  0.53257200  0.43657100  1
  Cu  Cu7  1  0.75000000  0.96742800  0.93657100  1
  Cu  Cu8  1  0.25000000  0.88369700  0.81135500  1
  Cu  Cu9  1  0.25000000  0.61630300  0.31135500  1
  Cu  Cu10  1  0.75000000  0.11630300  0.18864500  1
  Cu  Cu11  1  0.75000000  0.38369700  0.68864500  1
  Cu  Cu12  1  0.25000000  0.29483100  0.81426000  1
  Cu  Cu13  1  0.25000000  0.20516900  0.31426000  1
  Cu  Cu14  1  0.75000000  0.70516900  0.18574000  1
  Cu  Cu15  1  0.75000000  0.79483100  0.68574000  1
  P  P0  1  0.25000000  0.91140100  0.61945500  1
  P  P1  1  0.25000000  0.58859900  0.11945500  1
  P  P2  1  0.75000000  0.08859900  0.38054500  1
  P  P3  1  0.75000000  0.41140100  0.88054500  1
  P  P4  1  0.25000000  0.26196100  0.62158800  1
  P  P5  1  0.25000000  0.23803900  0.12158800  1
  P  P6  1  0.75000000  0.73803900  0.37841200  1
  P  P7  1  0.75000000  0.76196100  0.87841200  1
  P  P8  1  0.25000000  0.09242700  0.88025000  1
  P  P9  1  0.25000000  0.40757300  0.38025000  1
  P  P10  1  0.75000000  0.90757300  0.11975000  1
  P  P11  1  0.75000000  0.59242700  0.61975000  1
loop_
_geom_bond_atom_site_label_1
_geom_bond_atom_site_label_2
_geom_bond_distance
_geom_bond_site_symmetry_2
Dy0 P7 2.833573 1_455
Dy0 P7 2.833573 1_555
Dy0 P11 2.867445 1_555
Dy0 P11 2.867445 1_455
Dy0 P3 2.917231 1_455
Dy0 P3 2.917231 1_555
Dy1 P6 2.833573 1_455
Dy1 P6 2.833573 1_555
Dy1 P10 2.867445 1_555
Dy1 P10 2.867445 1_455
Dy1 P2 2.917231 1_465
Dy1 P2 2.917231 1_565
Dy2 P5 2.833573 1_555
Dy2 P5 2.833573 1_655
Dy2 P9 2.867445 1_655
Dy2 P9 2.867445 1_555
Dy2 P1 2.917231 1_555
Dy2 P1 2.917231 1_655
Dy3 P4 2.833573 1_555
Dy3 P4 2.833573 1_655
Dy3 P8 2.867445 1_655
Dy3 P8 2.867445 1_555
Dy3 P0 2.917231 1_645
Dy3 P0 2.917231 1_545
Mn0 P0 2.392944 1_555
Mn0 P11 2.590337 1_455
Mn0 P11 2.590337 1_555
Mn0 P6 2.645190 1_555
Mn0 P6 2.645190 1_455
Mn1 P1 2.392944 1_555
Mn1 P10 2.590337 1_555
Mn1 P10 2.590337 1_455
Mn1 P7 2.645190 1_454
Mn1 P7 2.645190 1_554
Mn2 P2 2.392944 1_555
Mn2 P9 2.590337 1_655
Mn2 P9 2.590337 1_555
Mn2 P4 2.645190 1_655
Mn2 P4 2.645190 1_555
Mn3 P3 2.392944 1_555
Mn3 P8 2.590337 1_555
Mn3 P8 2.590337 1_655
Mn3 P5 2.645190 1_656
Mn3 P5 2.645190 1_556
Cu0 P4 2.392439 1_555
Cu0 P0 2.394068 1_545
Cu0 P2 2.422045 1_555
Cu0 P2 2.422045 1_455
Cu1 P5 2.392439 1_555
Cu1 P1 2.394068 1_555
Cu1 P3 2.422045 1_554
Cu1 P3 2.422045 1_454
Cu2 P6 2.392439 1_555
Cu2 P2 2.394068 1_565
Cu2 P0 2.422045 1_655
Cu2 P0 2.422045 1_555
Cu3 P7 2.392439 1_555
Cu3 P3 2.394068 1_555
Cu3 P1 2.422045 1_656
Cu3 P1 2.422045 1_556
Cu4 P4 2.327821 1_555
Cu4 P9 2.377258 1_555
Cu4 P11 2.417549 1_455
Cu4 P11 2.417549 1_555
Cu4 Cu6 2.557807 1_555
Cu4 Cu6 2.557807 1_455
Cu4 Mn0 2.728581 1_555
Cu4 Mn2 2.956739 1_555
Cu4 Mn2 2.956739 1_455
Cu4 Dy0 3.165070 1_555
Cu5 P5 2.327821 1_555
Cu5 P8 2.377258 1_554
Cu5 P10 2.417549 1_545
Cu5 P10 2.417549 1_445
Cu5 Cu7 2.557807 1_444
Cu5 Cu7 2.557807 1_544
Cu5 Mn1 2.728581 1_545
Cu5 Mn3 2.956739 1_554
Cu5 Mn3 2.956739 1_454
Cu5 Dy1 3.165070 1_545
Cu6 P6 2.327821 1_555
Cu6 P11 2.377258 1_555
Cu6 P9 2.417549 1_555
Cu6 P9 2.417549 1_655
Cu6 Cu9 2.607367 1_555
Cu6 Cu9 2.607367 1_655
Cu6 Mn2 2.728581 1_555
Cu6 Mn0 2.956739 1_655
Cu6 Mn0 2.956739 1_555
Cu6 Dy2 3.165070 1_555
Cu7 P7 2.327821 1_555
Cu7 P10 2.377258 1_556
Cu7 P8 2.417549 1_665
Cu7 P8 2.417549 1_565
Cu7 Cu8 2.607367 1_655
Cu7 Cu8 2.607367 1_555
Cu7 Mn3 2.728581 1_565
Cu7 Mn1 2.956739 1_656
Cu7 Mn1 2.956739 1_556
Cu7 Dy3 3.165070 1_565
Cu8 P8 2.405867 1_565
Cu8 P0 2.415715 1_555
Cu8 P7 2.440897 1_455
Cu8 P7 2.440897 1_555
Cu9 P9 2.405867 1_555
Cu9 P1 2.415715 1_555
Cu9 P6 2.440897 1_555
Cu9 P6 2.440897 1_455
Cu10 P10 2.405867 1_545
Cu10 P2 2.415715 1_555
Cu10 P5 2.440897 1_655
Cu10 P5 2.440897 1_555
Cu10 Cu5 2.607367 1_655
Cu10 Cu5 2.607367 1_555
Cu11 P11 2.405867 1_555
Cu11 P3 2.415715 1_555
Cu11 P4 2.440897 1_555
Cu11 P4 2.440897 1_655
Cu11 Cu4 2.607367 1_555
Cu11 Cu4 2.607367 1_655
Cu12 P8 2.329321 1_555
Cu12 P3 2.408171 1_555
Cu12 P3 2.408171 1_455
Cu12 P4 2.432748 1_555
Cu13 P9 2.329321 1_555
Cu13 P2 2.408171 1_455
Cu13 P2 2.408171 1_555
Cu13 P5 2.432748 1_555
Cu14 P10 2.329321 1_555
Cu14 P1 2.408171 1_655
Cu14 P1 2.408171 1_555
Cu14 P6 2.432748 1_555
Cu15 P11 2.329321 1_555
Cu15 P0 2.408171 1_555
Cu15 P0 2.408171 1_655
Cu15 P7 2.432748 1_555
