# generated using pymatgen
data_Sc4BC4
_symmetry_space_group_name_H-M   'P 1'
_cell_length_a   3.32601800
_cell_length_b   3.32601800
_cell_length_c   31.05155200
_cell_angle_alpha   90.00000000
_cell_angle_beta   90.00000000
_cell_angle_gamma   90.00000000
_symmetry_Int_Tables_number   1
_chemical_formula_structural   Sc4BC4
_chemical_formula_sum   'Sc12 B3 C12'
_cell_volume   343.50455645
_cell_formula_units_Z   3
loop_
 _symmetry_equiv_pos_site_id
 _symmetry_equiv_pos_as_xyz
  1  'x, y, z'
loop_
 _atom_site_type_symbol
 _atom_site_label
 _atom_site_symmetry_multiplicity
 _atom_site_fract_x
 _atom_site_fract_y
 _atom_site_fract_z
 _atom_site_occupancy
  Sc  Sc0  1  0.00000000  0.00000000  0.87568200  1
  Sc  Sc1  1  0.00000000  0.00000000  0.12431800  1
  Sc  Sc2  1  0.00000000  0.00000000  0.37499700  1
  Sc  Sc3  1  0.00000000  0.00000000  0.62500300  1
  Sc  Sc4  1  0.50000000  0.50000000  0.05136600  1
  Sc  Sc5  1  0.50000000  0.50000000  0.30446500  1
  Sc  Sc6  1  0.50000000  0.50000000  0.55445900  1
  Sc  Sc7  1  0.50000000  0.50000000  0.80467300  1
  Sc  Sc8  1  0.50000000  0.50000000  0.94863400  1
  Sc  Sc9  1  0.50000000  0.50000000  0.19532700  1
  Sc  Sc10  1  0.50000000  0.50000000  0.44554100  1
  Sc  Sc11  1  0.50000000  0.50000000  0.69553500  1
  B  B0  1  0.00000000  0.00000000  0.25004200  1
  B  B1  1  0.00000000  0.00000000  0.50000000  1
  B  B2  1  0.00000000  0.00000000  0.74995800  1
  C  C0  1  0.50000000  0.50000000  0.87450700  1
  C  C1  1  0.50000000  0.50000000  0.12549300  1
  C  C2  1  0.50000000  0.50000000  0.37500900  1
  C  C3  1  0.50000000  0.50000000  0.62499100  1
  C  C4  1  0.00000000  0.00000000  0.04737700  1
  C  C5  1  0.00000000  0.00000000  0.29722500  1
  C  C6  1  0.00000000  0.00000000  0.54711000  1
  C  C7  1  0.00000000  0.00000000  0.79680700  1
  C  C8  1  0.00000000  0.00000000  0.95262300  1
  C  C9  1  0.00000000  0.00000000  0.20319300  1
  C  C10  1  0.00000000  0.00000000  0.45289000  1
  C  C11  1  0.00000000  0.00000000  0.70277500  1
loop_
_geom_bond_atom_site_label_1
_geom_bond_atom_site_label_2
_geom_bond_distance
_geom_bond_site_symmetry_2
B0 C9 1.454734 1_555
B0 C5 1.465105 1_555
B1 C10 1.462839 1_555
B1 C6 1.462839 1_555
B2 C7 1.454734 1_555
B2 C11 1.465105 1_555
C0 Sc7 2.168454 1_555
C0 Sc8 2.301758 1_555
C0 Sc0 2.352133 1_665
C0 Sc0 2.352133 1_565
C0 Sc0 2.352133 1_655
C0 Sc0 2.352133 1_555
C1 Sc9 2.168454 1_555
C1 Sc4 2.301758 1_555
C1 Sc1 2.352133 1_565
C1 Sc1 2.352133 1_665
C1 Sc1 2.352133 1_555
C1 Sc1 2.352133 1_655
C2 Sc10 2.190128 1_555
C2 Sc5 2.190501 1_555
C2 Sc2 2.351850 1_555
C2 Sc2 2.351850 1_665
C2 Sc2 2.351850 1_655
C2 Sc2 2.351850 1_565
C3 Sc6 2.190128 1_555
C3 Sc11 2.190501 1_555
C3 Sc3 2.351850 1_565
C3 Sc3 2.351850 1_655
C3 Sc3 2.351850 1_665
C3 Sc3 2.351850 1_555
C4 Sc4 2.355109 1_445
C4 Sc4 2.355109 1_545
C4 Sc4 2.355109 1_555
C4 Sc4 2.355109 1_455
C4 Sc1 2.389137 1_555
C5 Sc5 2.362570 1_555
C5 Sc5 2.362570 1_445
C5 Sc5 2.362570 1_545
C5 Sc5 2.362570 1_455
C5 Sc2 2.414941 1_555
C6 Sc6 2.362895 1_455
C6 Sc6 2.362895 1_555
C6 Sc6 2.362895 1_445
C6 Sc6 2.362895 1_545
C6 Sc3 2.418699 1_555
C7 Sc7 2.364499 1_445
C7 Sc7 2.364499 1_555
C7 Sc7 2.364499 1_545
C7 Sc7 2.364499 1_455
C7 Sc0 2.449191 1_555
C8 Sc8 2.355109 1_555
C8 Sc8 2.355109 1_445
C8 Sc8 2.355109 1_545
C8 Sc8 2.355109 1_455
C8 Sc0 2.389137 1_555
C9 Sc9 2.364499 1_545
C9 Sc9 2.364499 1_555
C9 Sc9 2.364499 1_455
C9 Sc9 2.364499 1_445
C9 Sc1 2.449191 1_555
C10 Sc10 2.362895 1_555
C10 Sc10 2.362895 1_545
C10 Sc10 2.362895 1_455
C10 Sc10 2.362895 1_445
C10 Sc2 2.418699 1_555
C11 Sc11 2.362570 1_455
C11 Sc11 2.362570 1_545
C11 Sc11 2.362570 1_445
C11 Sc11 2.362570 1_555
C11 Sc3 2.414941 1_555
