# generated using pymatgen
data_Cs3Sc2I9
_symmetry_space_group_name_H-M   'P 1'
_cell_length_a   8.50658936
_cell_length_b   8.50658936
_cell_length_c   21.37010373
_cell_angle_alpha   90.00000000
_cell_angle_beta   90.00000000
_cell_angle_gamma   119.99999689
_symmetry_Int_Tables_number   1
_chemical_formula_structural   Cs3Sc2I9
_chemical_formula_sum   'Cs6 Sc4 I18'
_cell_volume   1339.20854776
_cell_formula_units_Z   2
loop_
 _symmetry_equiv_pos_site_id
 _symmetry_equiv_pos_as_xyz
  1  'x, y, z'
loop_
 _atom_site_type_symbol
 _atom_site_label
 _atom_site_symmetry_multiplicity
 _atom_site_fract_x
 _atom_site_fract_y
 _atom_site_fract_z
 _atom_site_occupancy
  Cs  Cs0  1  0.66666700  0.33333300  0.93046143  1
  Cs  Cs1  1  0.33333300  0.66666700  0.06953857  1
  Cs  Cs2  1  0.33333300  0.66666700  0.43046143  1
  Cs  Cs3  1  0.66666700  0.33333300  0.56953857  1
  Cs  Cs4  1  -0.00000000  -0.00000000  0.75000000  1
  Cs  Cs5  1  -0.00000000  -0.00000000  0.25000000  1
  Sc  Sc0  1  0.66666700  0.33333300  0.34141066  1
  Sc  Sc1  1  0.33333300  0.66666700  0.65858934  1
  Sc  Sc2  1  0.33333300  0.66666700  0.84141066  1
  Sc  Sc3  1  0.66666700  0.33333300  0.15858934  1
  I  I0  1  0.82971247  0.17028753  0.41038949  1
  I  I1  1  0.17028753  0.82971247  0.58961051  1
  I  I2  1  0.34057606  0.17028753  0.41038949  1
  I  I3  1  0.17028753  0.82971247  0.91038949  1
  I  I4  1  0.65942394  0.82971247  0.58961051  1
  I  I5  1  0.82971247  0.17028753  0.08961051  1
  I  I6  1  0.82971247  0.65942394  0.41038949  1
  I  I7  1  0.65942394  0.82971247  0.91038949  1
  I  I8  1  0.17028753  0.34057606  0.58961051  1
  I  I9  1  0.34057606  0.17028753  0.08961051  1
  I  I10  1  0.17028753  0.34057606  0.91038949  1
  I  I11  1  0.82971247  0.65942394  0.08961051  1
  I  I12  1  0.48960015  0.51039985  0.75000000  1
  I  I13  1  0.51039985  0.48960015  0.25000000  1
  I  I14  1  0.02079870  0.51039985  0.75000000  1
  I  I15  1  0.97920130  0.48960015  0.25000000  1
  I  I16  1  0.48960015  0.97920130  0.75000000  1
  I  I17  1  0.51039985  0.02079870  0.25000000  1
loop_
_geom_bond_atom_site_label_1
_geom_bond_atom_site_label_2
_geom_bond_distance
_geom_bond_site_symmetry_2
Cs0 I5 4.163893 1_556
Cs0 I9 4.163893 1_556
Cs0 I11 4.163893 1_556
Cs0 I10 4.275194 1_655
Cs0 I7 4.275194 1_545
Cs0 I3 4.275202 1_545
Cs0 I3 4.275202 1_655
Cs0 I7 4.275210 1_555
Cs0 I10 4.275210 1_555
Cs1 I3 4.163893 1_554
Cs1 I10 4.163893 1_554
Cs1 I7 4.163893 1_554
Cs1 I9 4.275194 1_565
Cs1 I11 4.275194 1_455
Cs1 I5 4.275202 1_565
Cs1 I5 4.275202 1_455
Cs1 I11 4.275210 1_555
Cs1 I9 4.275210 1_555
Cs2 I1 4.163893 1_555
Cs2 I8 4.163893 1_555
Cs2 I4 4.163893 1_555
Cs2 I2 4.275194 1_565
Cs2 I6 4.275194 1_455
Cs2 I0 4.275202 1_455
Cs2 I0 4.275202 1_565
Cs2 I6 4.275210 1_555
Cs2 I2 4.275210 1_555
Cs3 I0 4.163893 1_555
Cs3 I2 4.163893 1_555
Cs3 I6 4.163893 1_555
Cs3 I8 4.275194 1_655
Cs3 I4 4.275194 1_545
Cs3 I1 4.275202 1_545
Cs3 I1 4.275202 1_655
Cs3 I4 4.275210 1_555
Cs3 I8 4.275210 1_555
Cs4 I3 4.247713 1_545
Cs4 I1 4.247713 1_545
Cs4 I7 4.247717 1_445
Cs4 I4 4.247717 1_445
Cs4 I8 4.247717 1_555
Cs4 I10 4.247717 1_555
Cs4 I16 4.256049 1_545
Cs4 I14 4.256049 1_545
Cs4 I12 4.256054 1_445
Cs4 I12 4.256054 1_555
Cs4 I16 4.256058 1_445
Cs4 I14 4.256058 1_555
Cs5 I5 4.247713 1_455
Cs5 I0 4.247713 1_455
Cs5 I9 4.247717 1_555
Cs5 I11 4.247717 1_445
Cs5 I6 4.247717 1_445
Cs5 I2 4.247717 1_555
Cs5 I17 4.256049 1_455
Cs5 I15 4.256049 1_455
Cs5 I13 4.256054 1_555
Cs5 I13 4.256054 1_445
Cs5 I15 4.256058 1_445
Cs5 I17 4.256058 1_555
I0 Sc0 2.818494 1_555
I1 Sc1 2.818494 1_555
I2 Sc0 2.818494 1_555
I3 Sc2 2.818494 1_555
I4 Sc1 2.818494 1_555
I5 Sc3 2.818494 1_555
I6 Sc0 2.818494 1_555
I7 Sc2 2.818494 1_555
I8 Sc1 2.818494 1_555
I9 Sc3 2.818494 1_555
I10 Sc2 2.818494 1_555
I11 Sc3 2.818494 1_555
I12 Sc1 3.019455 1_555
I12 Sc2 3.019455 1_555
I13 Sc0 3.019455 1_555
I13 Sc3 3.019455 1_555
I14 Sc2 3.019455 1_555
I14 Sc1 3.019455 1_555
I15 Sc0 3.019455 1_555
I15 Sc3 3.019455 1_555
I16 Sc2 3.019455 1_555
I16 Sc1 3.019455 1_555
I17 Sc0 3.019455 1_555
I17 Sc3 3.019455 1_555
