# generated using pymatgen
data_Li3Mn4O8
_symmetry_space_group_name_H-M   'P 1'
_cell_length_a   6.08122500
_cell_length_b   6.10748309
_cell_length_c   8.12356407
_cell_angle_alpha   90.65564202
_cell_angle_beta   90.43569131
_cell_angle_gamma   93.29572144
_symmetry_Int_Tables_number   1
_chemical_formula_structural   Li3Mn4O8
_chemical_formula_sum   'Li6 Mn8 O16'
_cell_volume   301.18807813
_cell_formula_units_Z   2
loop_
 _symmetry_equiv_pos_site_id
 _symmetry_equiv_pos_as_xyz
  1  'x, y, z'
loop_
 _atom_site_type_symbol
 _atom_site_label
 _atom_site_symmetry_multiplicity
 _atom_site_fract_x
 _atom_site_fract_y
 _atom_site_fract_z
 _atom_site_occupancy
  Li  Li0  1  0.25961900  0.74062900  0.75027400  1
  Li  Li1  1  0.50000000  0.50000000  0.00000000  1
  Li  Li2  1  0.00000000  0.00000000  0.00000000  1
  Li  Li3  1  0.74038100  0.25937100  0.24972600  1
  Li  Li4  1  0.00000000  0.00000000  0.50000000  1
  Li  Li5  1  0.50000000  0.50000000  0.50000000  1
  Mn  Mn0  1  0.00000000  0.50000000  0.00000000  1
  Mn  Mn1  1  0.25061800  0.75002300  0.25027500  1
  Mn  Mn2  1  0.24738600  0.25019700  0.25081400  1
  Mn  Mn3  1  0.50000000  0.00000000  0.50000000  1
  Mn  Mn4  1  0.74991300  0.75236000  0.24988600  1
  Mn  Mn5  1  0.25008700  0.24764000  0.75011400  1
  Mn  Mn6  1  0.75261400  0.74980300  0.74918600  1
  Mn  Mn7  1  0.74938200  0.24997700  0.74972500  1
  O  O0  1  0.98123300  0.49430900  0.76134100  1
  O  O1  1  0.21881500  0.28237600  0.99322000  1
  O  O2  1  0.23070900  0.73043900  0.01054500  1
  O  O3  1  0.48058300  0.99326200  0.26108400  1
  O  O4  1  0.51578800  0.46778600  0.75071900  1
  O  O5  1  0.78118500  0.71762400  0.00678000  1
  O  O6  1  0.76929100  0.26956100  0.98945500  1
  O  O7  1  0.02023000  0.96369300  0.25075900  1
  O  O8  1  0.01876700  0.50569100  0.23865900  1
  O  O9  1  0.27082800  0.76936100  0.48989400  1
  O  O10  1  0.27920900  0.21759100  0.50780500  1
  O  O11  1  0.48421200  0.53221400  0.24928100  1
  O  O12  1  0.72917200  0.23063900  0.51010600  1
  O  O13  1  0.72079100  0.78240900  0.49219500  1
  O  O14  1  0.97977000  0.03630700  0.74924100  1
  O  O15  1  0.51941700  0.00673800  0.73891600  1
loop_
_geom_bond_atom_site_label_1
_geom_bond_atom_site_label_2
_geom_bond_distance
_geom_bond_site_symmetry_2
Li0 O2 2.124281 1_556
Li0 O9 2.125766 1_555
Li0 O0 2.202242 1_455
Li0 O15 2.203733 1_565
Li0 O4 2.345674 1_555
Li0 O14 2.551637 1_465
Li1 O11 2.035870 1_555
Li1 O4 2.035870 1_554
Li1 O5 2.104551 1_555
Li1 O1 2.104551 1_554
Li1 O2 2.221327 1_555
Li1 O6 2.221327 1_554
Li2 O7 2.055132 1_545
Li2 O14 2.055132 1_454
Li2 O1 2.118347 1_554
Li2 O5 2.118347 1_445
Li2 O2 2.225565 1_545
Li2 O6 2.225565 1_454
Li3 O6 2.124281 1_554
Li3 O12 2.125766 1_555
Li3 O8 2.202242 1_655
Li3 O3 2.203733 1_545
Li3 O11 2.345674 1_555
Li3 O7 2.551637 1_645
Li4 O14 2.039722 1_455
Li4 O7 2.039722 1_545
Li4 O10 2.095245 1_555
Li4 O13 2.095245 1_445
Li4 O9 2.229263 1_545
Li4 O12 2.229263 1_455
Li5 O4 2.050505 1_555
Li5 O11 2.050505 1_555
Li5 O13 2.125863 1_555
Li5 O10 2.125863 1_555
Li5 O9 2.218190 1_555
Li5 O12 2.218190 1_555
Mn0 O2 1.929997 1_555
Mn0 O6 1.929997 1_454
Mn0 O5 1.934707 1_455
Mn0 O1 1.934707 1_554
Mn0 O8 1.941048 1_555
Mn0 O0 1.941048 1_454
Mn1 O9 1.951303 1_555
Mn1 O2 1.952176 1_555
Mn1 O7 1.968783 1_555
Mn1 O3 1.981576 1_555
Mn1 O8 1.994114 1_555
Mn1 O11 2.001200 1_555
Mn2 O10 2.107921 1_555
Mn2 O1 2.110810 1_554
Mn2 O8 2.151382 1_555
Mn2 O7 2.166135 1_545
Mn2 O3 2.176596 1_545
Mn2 O11 2.180955 1_555
Mn3 O12 1.924346 1_555
Mn3 O9 1.924346 1_545
Mn3 O3 1.943363 1_545
Mn3 O15 1.943363 1_555
Mn3 O10 1.943553 1_555
Mn3 O13 1.943553 1_545
Mn4 O13 1.985060 1_555
Mn4 O5 1.995524 1_555
Mn4 O7 2.030743 1_655
Mn4 O11 2.041694 1_555
Mn4 O3 2.265362 1_555
Mn4 O8 2.287656 1_655
Mn5 O10 1.985060 1_555
Mn5 O1 1.995524 1_555
Mn5 O14 2.030743 1_455
Mn5 O4 2.041694 1_555
Mn5 O15 2.265362 1_555
Mn5 O0 2.287656 1_455
Mn6 O13 2.107921 1_555
Mn6 O5 2.110810 1_556
Mn6 O0 2.151382 1_555
Mn6 O14 2.166135 1_565
Mn6 O15 2.176596 1_565
Mn6 O4 2.180955 1_555
Mn7 O12 1.951303 1_555
Mn7 O6 1.952176 1_555
Mn7 O14 1.968783 1_555
Mn7 O15 1.981576 1_555
Mn7 O0 1.994114 1_555
Mn7 O4 2.001200 1_555
