# generated using pymatgen
data_KNbCl6
_symmetry_space_group_name_H-M   'P 1'
_cell_length_a   7.02968961
_cell_length_b   7.02968961
_cell_length_c   7.02968977
_cell_angle_alpha   60.12394404
_cell_angle_beta   60.12394404
_cell_angle_gamma   60.12393862
_symmetry_Int_Tables_number   1
_chemical_formula_structural   KNbCl6
_chemical_formula_sum   'K1 Nb1 Cl6'
_cell_volume   246.32653479
_cell_formula_units_Z   1
loop_
 _symmetry_equiv_pos_site_id
 _symmetry_equiv_pos_as_xyz
  1  'x, y, z'
loop_
 _atom_site_type_symbol
 _atom_site_label
 _atom_site_symmetry_multiplicity
 _atom_site_fract_x
 _atom_site_fract_y
 _atom_site_fract_z
 _atom_site_occupancy
  K  K0  1  0.73998415  0.73998415  0.73998415  1
  Nb  Nb0  1  0.99355958  0.99355958  0.99355958  1
  Cl  Cl0  1  0.23131558  0.75474388  0.75474388  1
  Cl  Cl1  1  0.75474388  0.75474388  0.23131558  1
  Cl  Cl2  1  0.75474388  0.23131558  0.75474388  1
  Cl  Cl3  1  0.75527131  0.23230431  0.23230431  1
  Cl  Cl4  1  0.23230431  0.23230431  0.75527131  1
  Cl  Cl5  1  0.23230431  0.75527131  0.23230431  1
loop_
_geom_bond_atom_site_label_1
_geom_bond_atom_site_label_2
_geom_bond_distance
_geom_bond_site_symmetry_2
Cl0 Nb0 2.376398 1_455
Cl0 K0 3.475519 1_555
Cl0 K0 3.560305 1_455
Cl1 Nb0 2.376398 1_554
Cl1 K0 3.475520 1_555
Cl1 K0 3.560306 1_554
Cl2 Nb0 2.376398 1_545
Cl2 K0 3.475519 1_555
Cl2 K0 3.560305 1_545
Cl3 Nb0 2.375694 1_544
Cl3 K0 3.522666 1_554
Cl3 K0 3.522666 1_545
Cl4 Nb0 2.375694 1_445
Cl4 K0 3.522665 1_455
Cl4 K0 3.522665 1_545
Cl5 Nb0 2.375694 1_454
Cl5 K0 3.522666 1_554
Cl5 K0 3.522666 1_455
