# generated using pymatgen
data_Sm2CdPd2
_symmetry_space_group_name_H-M   'P 1'
_cell_length_a   3.80752732
_cell_length_b   7.76128594
_cell_length_c   7.76128594
_cell_angle_alpha   90.00000000
_cell_angle_beta   90.00000000
_cell_angle_gamma   90.00000000
_symmetry_Int_Tables_number   1
_chemical_formula_structural   Sm2CdPd2
_chemical_formula_sum   'Sm4 Cd2 Pd4'
_cell_volume   229.35615327
_cell_formula_units_Z   2
loop_
 _symmetry_equiv_pos_site_id
 _symmetry_equiv_pos_as_xyz
  1  'x, y, z'
loop_
 _atom_site_type_symbol
 _atom_site_label
 _atom_site_symmetry_multiplicity
 _atom_site_fract_x
 _atom_site_fract_y
 _atom_site_fract_z
 _atom_site_occupancy
  Sm  Sm0  1  0.50000000  0.82592503  0.32592503  1
  Sm  Sm1  1  0.50000000  0.67407497  0.82592503  1
  Sm  Sm2  1  0.50000000  0.32592503  0.17407497  1
  Sm  Sm3  1  0.50000000  0.17407497  0.67407497  1
  Cd  Cd0  1  0.00000000  0.00000000  0.00000000  1
  Cd  Cd1  1  0.00000000  0.50000000  0.50000000  1
  Pd  Pd0  1  -0.00000000  0.12710819  0.37289181  1
  Pd  Pd1  1  0.00000000  0.37289181  0.87289181  1
  Pd  Pd2  1  -0.00000000  0.62710819  0.12710819  1
  Pd  Pd3  1  0.00000000  0.87289181  0.62710819  1
loop_
_geom_bond_atom_site_label_1
_geom_bond_atom_site_label_2
_geom_bond_distance
_geom_bond_site_symmetry_2
Cd0 Pd3 3.057639 1_544
Cd0 Pd2 3.057639 1_545
Cd0 Pd1 3.057639 1_554
Cd0 Pd0 3.057639 1_555
Cd0 Sm1 3.442165 1_444
Cd0 Sm0 3.442165 1_445
Cd0 Sm0 3.442165 1_545
Cd0 Sm2 3.442165 1_455
Cd0 Sm2 3.442165 1_555
Cd0 Sm3 3.442165 1_454
Cd0 Sm1 3.442165 1_544
Cd0 Sm3 3.442165 1_554
Cd1 Pd0 3.057639 1_555
Cd1 Pd2 3.057639 1_555
Cd1 Pd3 3.057639 1_555
Cd1 Pd1 3.057639 1_555
Cd1 Sm3 3.442165 1_555
Cd1 Sm3 3.442165 1_455
Cd1 Sm2 3.442165 1_555
Cd1 Sm2 3.442165 1_455
Cd1 Sm0 3.442165 1_455
Cd1 Sm1 3.442165 1_555
Cd1 Sm1 3.442165 1_455
Cd1 Sm0 3.442165 1_555
Pd0 Pd3 2.790308 1_545
Pd0 Sm2 2.895941 1_555
Pd0 Sm2 2.895941 1_455
Pd0 Sm0 3.036679 1_445
Pd0 Sm0 3.036679 1_545
Pd0 Sm3 3.036679 1_555
Pd0 Sm3 3.036679 1_455
Pd1 Pd2 2.790308 1_556
Pd1 Sm3 2.895941 1_555
Pd1 Sm3 2.895941 1_455
Pd1 Sm2 3.036679 1_456
Pd1 Sm2 3.036679 1_556
Pd1 Sm1 3.036679 1_555
Pd1 Sm1 3.036679 1_455
Pd2 Sm0 2.895941 1_555
Pd2 Sm0 2.895941 1_455
Pd2 Sm1 3.036679 1_454
Pd2 Sm1 3.036679 1_554
Pd2 Sm2 3.036679 1_455
Pd2 Sm2 3.036679 1_555
Pd3 Sm1 2.895941 1_555
Pd3 Sm1 2.895941 1_455
Pd3 Sm3 3.036679 1_565
Pd3 Sm3 3.036679 1_465
Pd3 Sm0 3.036679 1_455
Pd3 Sm0 3.036679 1_555
