# generated using pymatgen
data_Rb2Ba8Li(Sb3O)2
_symmetry_space_group_name_H-M   'P 1'
_cell_length_a   9.18592236
_cell_length_b   9.18592234
_cell_length_c   10.75726989
_cell_angle_alpha   116.02266014
_cell_angle_beta   116.02265977
_cell_angle_gamma   88.42125886
_symmetry_Int_Tables_number   1
_chemical_formula_structural   Rb2Ba8Li(Sb3O)2
_chemical_formula_sum   'Rb2 Ba8 Li1 Sb6 O2'
_cell_volume   717.54249986
_cell_formula_units_Z   1
loop_
 _symmetry_equiv_pos_site_id
 _symmetry_equiv_pos_as_xyz
  1  'x, y, z'
loop_
 _atom_site_type_symbol
 _atom_site_label
 _atom_site_symmetry_multiplicity
 _atom_site_fract_x
 _atom_site_fract_y
 _atom_site_fract_z
 _atom_site_occupancy
  Rb  Rb0  1  0.00062700  0.01061000  0.00000000  1
  Rb  Rb1  1  0.51061000  0.50062700  0.00000000  1
  Ba  Ba0  1  0.50256900  0.69343300  0.70382900  1
  Ba  Ba1  1  0.19343300  0.00256900  0.70382900  1
  Ba  Ba2  1  0.79873900  0.98960400  0.29617100  1
  Ba  Ba3  1  0.97945300  0.47945300  0.65145600  1
  Ba  Ba4  1  0.48960400  0.29873900  0.29617100  1
  Ba  Ba5  1  0.69661500  0.19661500  0.69626300  1
  Ba  Ba6  1  0.00035200  0.50035200  0.30373700  1
  Ba  Ba7  1  0.32799800  0.82799800  0.34854400  1
  Li  Li0  1  0.17854200  0.67854200  0.00000000  1
  Sb  Sb0  1  0.89396300  0.62225500  0.00000000  1
  Sb  Sb1  1  0.63008600  0.13008600  0.00000000  1
  Sb  Sb2  1  0.12225500  0.39396300  0.00000000  1
  Sb  Sb3  1  0.37672500  0.87672500  0.00000000  1
  Sb  Sb4  1  0.25063200  0.25063200  0.50000000  1
  Sb  Sb5  1  0.75063200  0.75063200  0.50000000  1
  O  O0  1  0.73998800  0.23998800  0.48995600  1
  O  O1  1  0.25003200  0.75003200  0.51004400  1
loop_
_geom_bond_atom_site_label_1
_geom_bond_atom_site_label_2
_geom_bond_distance
_geom_bond_site_symmetry_2
Rb0 Sb1 3.547429 1_455
Rb0 Sb3 3.635123 1_545
Rb0 Sb2 3.723666 1_555
Rb0 Sb0 3.725447 1_445
Rb0 Sb4 4.254395 1_555
Rb0 Sb5 4.254395 1_444
Rb1 Sb1 3.547429 1_555
Rb1 Sb3 3.635123 1_555
Rb1 Sb0 3.723666 1_555
Rb1 Sb2 3.725447 1_555
Rb1 Sb5 4.254395 1_555
Rb1 Sb4 4.254395 1_554
Ba0 O1 2.576547 1_555
Ba0 Sb1 3.658191 1_566
Ba0 Sb4 3.866375 1_555
Ba0 Sb5 3.967001 1_555
Ba1 O1 2.576547 1_545
Ba1 Sb1 3.658191 1_556
Ba1 Sb5 3.866375 1_445
Ba1 Sb4 3.967001 1_555
Ba2 O0 2.576542 1_565
Ba2 Sb1 3.658191 1_565
Ba2 Sb5 3.866371 1_555
Ba2 Sb4 3.967009 1_665
Ba3 O0 2.501158 1_555
Ba3 Sb4 3.680428 1_655
Ba3 Sb5 3.680428 1_555
Ba4 O0 2.576542 1_555
Ba4 Sb1 3.658191 1_555
Ba4 Sb4 3.866371 1_555
Ba4 Sb5 3.967009 1_555
Ba5 O0 2.608301 1_555
Ba5 Sb5 3.834701 1_545
Ba5 Sb4 3.834701 1_555
Ba5 Sb1 3.866200 1_556
Ba6 O1 2.608301 1_555
Ba6 Sb5 3.834701 1_455
Ba6 Sb4 3.834701 1_555
Ba6 Sb1 3.866201 1_455
Ba7 O1 2.501168 1_555
Ba7 Sb4 3.680424 1_565
Ba7 Sb5 3.680424 1_555
Li0 Sb3 2.609791 1_555
Li0 Sb2 2.678701 1_555
Li0 Sb0 2.678702 1_455
Li0 Rb0 3.420662 1_565
Li0 Rb1 3.420662 1_555
Sb1 Sb3 3.336408 1_545
