# generated using pymatgen
data_Sr2AlFeCu2O7
_symmetry_space_group_name_H-M   'P 1'
_cell_length_a   12.19628484
_cell_length_b   12.19628484
_cell_length_c   5.40747826
_cell_angle_alpha   77.23232161
_cell_angle_beta   77.23232161
_cell_angle_gamma   25.14316150
_symmetry_Int_Tables_number   1
_chemical_formula_structural   Sr2AlFeCu2O7
_chemical_formula_sum   'Sr4 Al2 Fe2 Cu4 O14'
_cell_volume   332.88114915
_cell_formula_units_Z   2
loop_
 _symmetry_equiv_pos_site_id
 _symmetry_equiv_pos_as_xyz
  1  'x, y, z'
loop_
 _atom_site_type_symbol
 _atom_site_label
 _atom_site_symmetry_multiplicity
 _atom_site_fract_x
 _atom_site_fract_y
 _atom_site_fract_z
 _atom_site_occupancy
  Sr  Sr0  1  0.63383400  0.66436200  0.36123000  1
  Sr  Sr1  1  0.33563800  0.36616600  0.63877000  1
  Sr  Sr2  1  0.13340300  0.16488500  0.83219200  1
  Sr  Sr3  1  0.83511500  0.86659700  0.16780800  1
  Al  Al0  1  0.98405700  0.01594300  0.00000000  1
  Al  Al1  1  0.48837100  0.51162900  0.50000000  1
  Fe  Fe0  1  0.77587700  0.72453200  0.81283700  1
  Fe  Fe1  1  0.27546800  0.22412300  0.18716300  1
  Cu  Cu0  1  0.04147700  0.07554400  0.43805000  1
  Cu  Cu1  1  0.92445600  0.95852300  0.56195000  1
  Cu  Cu2  1  0.53974100  0.57772200  0.94232100  1
  Cu  Cu3  1  0.42227800  0.46025900  0.05767900  1
  O  O0  1  0.64219000  0.85829000  0.14725300  1
  O  O1  1  0.14171000  0.35781000  0.85274700  1
  O  O2  1  0.35578000  0.75164400  0.62357900  1
  O  O3  1  0.24835600  0.64422000  0.37642100  1
  O  O4  1  0.85299800  0.25229200  0.76441600  1
  O  O5  1  0.74770800  0.14700200  0.23558400  1
  O  O6  1  0.71277700  0.39718700  0.26790300  1
  O  O7  1  0.60281300  0.28722300  0.73209700  1
  O  O8  1  0.21066100  0.90118700  0.11776000  1
  O  O9  1  0.09881300  0.78933900  0.88224000  1
  O  O10  1  0.63658400  0.70942500  0.79088700  1
  O  O11  1  0.29057500  0.36341600  0.20911300  1
  O  O12  1  0.13506200  0.21126200  0.35674300  1
  O  O13  1  0.78873800  0.86493800  0.64325700  1
loop_
_geom_bond_atom_site_label_1
_geom_bond_atom_site_label_2
_geom_bond_distance
_geom_bond_site_symmetry_2
Al0 O9 1.839376 1_644
Al0 O8 1.839376 1_645
Al0 O4 1.849861 1_554
Al0 O5 1.849861 1_555
Al1 O6 1.831338 1_555
Al1 O7 1.831338 1_555
Al1 O3 1.856651 1_555
Al1 O2 1.856651 1_555
Fe0 O13 1.877920 1_555
Fe0 O10 1.897275 1_555
Fe0 O0 1.942902 1_556
Fe0 O1 1.956367 1_655
Fe1 O12 1.877920 1_555
Fe1 O11 1.897275 1_555
Fe1 O1 1.942902 1_554
Fe1 O0 1.956367 1_545
Cu0 O2 1.959067 1_545
Cu0 O6 1.967006 1_455
Cu0 O8 1.970654 1_545
Cu0 O4 1.990600 1_455
Cu0 O12 2.667026 1_555
Cu1 O3 1.959067 1_655
Cu1 O7 1.967006 1_565
Cu1 O9 1.970654 1_655
Cu1 O5 1.990600 1_565
Cu1 O13 2.667026 1_555
Cu2 O8 1.968883 1_556
Cu2 O4 1.970851 1_555
Cu2 O6 1.979243 1_556
Cu2 O2 1.995222 1_555
Cu2 O10 2.659289 1_555
Cu3 O9 1.968883 1_554
Cu3 O5 1.970851 1_555
Cu3 O7 1.979243 1_554
Cu3 O3 1.995222 1_555
Cu3 O11 2.659289 1_555
O0 Sr3 2.472096 1_555
O0 Sr0 2.473470 1_555
O1 Sr2 2.472096 1_555
O1 Sr1 2.473470 1_555
O2 Sr0 2.579013 1_555
O3 Sr1 2.579013 1_555
O4 Sr2 2.597528 1_655
O5 Sr3 2.597528 1_545
O6 Sr0 2.575206 1_555
O7 Sr1 2.575206 1_555
O8 Sr2 2.564635 1_564
O9 Sr3 2.564635 1_456
O10 Sr0 2.516626 1_555
O10 Sr2 2.606020 1_565
O10 Sr2 2.820847 1_655
O10 Sr0 3.008890 1_556
O11 Sr1 2.516626 1_555
O11 Sr3 2.606020 1_455
O11 Sr3 2.820847 1_545
O11 Sr1 3.008890 1_554
O12 Sr2 2.507040 1_555
O12 Sr0 2.596264 1_455
O12 Sr0 2.833373 1_545
O12 Sr2 3.020148 1_554
O13 Sr3 2.507040 1_555
O13 Sr1 2.596264 1_565
O13 Sr1 2.833373 1_655
O13 Sr3 3.020148 1_556
