# generated using pymatgen
data_Ba4SiN4
_symmetry_space_group_name_H-M   'P 1'
_cell_length_a   12.88449600
_cell_length_b   4.03128000
_cell_length_c   16.96695000
_cell_angle_alpha   90.00000000
_cell_angle_beta   90.00000000
_cell_angle_gamma   90.00000000
_symmetry_Int_Tables_number   1
_chemical_formula_structural   Ba4SiN4
_chemical_formula_sum   'Ba16 Si4 N16'
_cell_volume   881.28053718
_cell_formula_units_Z   4
loop_
 _symmetry_equiv_pos_site_id
 _symmetry_equiv_pos_as_xyz
  1  'x, y, z'
loop_
 _atom_site_type_symbol
 _atom_site_label
 _atom_site_symmetry_multiplicity
 _atom_site_fract_x
 _atom_site_fract_y
 _atom_site_fract_z
 _atom_site_occupancy
  Ba  Ba0  1  0.61062500  0.25000000  0.88404300  1
  Ba  Ba1  1  0.11062500  0.25000000  0.61595700  1
  Ba  Ba2  1  0.38937500  0.75000000  0.11595700  1
  Ba  Ba3  1  0.88937500  0.75000000  0.38404300  1
  Ba  Ba4  1  0.62759900  0.25000000  0.46533900  1
  Ba  Ba5  1  0.12759900  0.25000000  0.03466100  1
  Ba  Ba6  1  0.37240100  0.75000000  0.53466100  1
  Ba  Ba7  1  0.87240100  0.75000000  0.96533900  1
  Ba  Ba8  1  0.85975200  0.25000000  0.76780900  1
  Ba  Ba9  1  0.35975200  0.25000000  0.73219100  1
  Ba  Ba10  1  0.14024800  0.75000000  0.23219100  1
  Ba  Ba11  1  0.64024800  0.75000000  0.26780900  1
  Ba  Ba12  1  0.88232000  0.25000000  0.16984200  1
  Ba  Ba13  1  0.38232000  0.25000000  0.33015800  1
  Ba  Ba14  1  0.11768000  0.75000000  0.83015800  1
  Ba  Ba15  1  0.61768000  0.75000000  0.66984200  1
  Si  Si0  1  0.62952600  0.25000000  0.08341800  1
  Si  Si1  1  0.12952600  0.25000000  0.41658200  1
  Si  Si2  1  0.37047400  0.75000000  0.91658200  1
  Si  Si3  1  0.87047400  0.75000000  0.58341800  1
  N  N0  1  0.55409300  0.25000000  0.16081000  1
  N  N1  1  0.05409300  0.25000000  0.33919000  1
  N  N2  1  0.44590700  0.75000000  0.83919000  1
  N  N3  1  0.94590700  0.75000000  0.66081000  1
  N  N4  1  0.73577000  0.25000000  0.03066900  1
  N  N5  1  0.23577000  0.25000000  0.46933100  1
  N  N6  1  0.26423000  0.75000000  0.96933100  1
  N  N7  1  0.76423000  0.75000000  0.53066900  1
  N  N8  1  0.77544400  0.25000000  0.31749100  1
  N  N9  1  0.27544400  0.25000000  0.18250900  1
  N  N10  1  0.22455600  0.75000000  0.68250900  1
  N  N11  1  0.72455600  0.75000000  0.81749100  1
  N  N12  1  0.99982700  0.25000000  0.88516200  1
  N  N13  1  0.49982700  0.25000000  0.61483800  1
  N  N14  1  0.00017200  0.75000000  0.11483800  1
  N  N15  1  0.50017300  0.75000000  0.38516200  1
loop_
_geom_bond_atom_site_label_1
_geom_bond_atom_site_label_2
_geom_bond_distance
_geom_bond_site_symmetry_2
Ba0 N11 2.737283 1_545
Ba0 N11 2.737283 1_555
Ba0 N4 2.964635 1_556
Ba0 N2 3.024260 1_545
Ba0 N2 3.024260 1_555
Ba1 N10 2.737283 1_545
Ba1 N10 2.737283 1_555
Ba1 N5 2.964635 1_555
Ba1 N3 3.024260 1_445
Ba1 N3 3.024260 1_455
Ba2 N9 2.737283 1_565
Ba2 N9 2.737283 1_555
Ba2 N6 2.964635 1_554
Ba2 N0 3.024260 1_565
Ba2 N0 3.024260 1_555
Ba3 N8 2.737283 1_555
Ba3 N8 2.737283 1_565
Ba3 N7 2.964635 1_555
Ba3 N1 3.024260 1_655
Ba3 N1 3.024260 1_665
Ba4 N7 2.896645 1_545
Ba4 N7 2.896645 1_555
Ba4 N15 2.934102 1_555
Ba4 N15 2.934102 1_545
Ba4 N13 3.023950 1_555
Ba4 N8 3.149825 1_555
Ba5 N6 2.896645 1_544
Ba5 N6 2.896645 1_554
Ba5 N14 2.934109 1_555
Ba5 N14 2.934109 1_545
Ba5 N12 3.023950 1_454
Ba5 N9 3.149825 1_555
Ba6 N5 2.896645 1_555
Ba6 N5 2.896645 1_565
Ba6 N13 2.934102 1_565
Ba6 N13 2.934102 1_555
Ba6 N15 3.023950 1_555
Ba6 N10 3.149825 1_555
Ba7 N4 2.896645 1_566
Ba7 N4 2.896645 1_556
Ba7 N12 2.934102 1_555
Ba7 N12 2.934102 1_565
Ba7 N14 3.023943 1_656
Ba7 N11 3.149825 1_555
Ba8 N12 2.687351 1_555
Ba8 N11 2.794226 1_545
Ba8 N11 2.794226 1_555
Ba8 N3 2.931022 1_545
Ba8 N3 2.931022 1_555
Ba9 N13 2.687351 1_555
Ba9 N10 2.794226 1_545
Ba9 N10 2.794226 1_555
Ba9 N2 2.931022 1_545
Ba9 N2 2.931022 1_555
Ba10 N14 2.687360 1_555
Ba10 N9 2.794226 1_565
Ba10 N9 2.794226 1_555
Ba10 N1 2.931022 1_555
Ba10 N1 2.931022 1_565
Ba11 N15 2.687351 1_555
Ba11 N8 2.794226 1_565
Ba11 N8 2.794226 1_555
Ba11 N0 2.931022 1_555
Ba11 N0 2.931022 1_565
Ba12 N14 2.690630 1_645
Ba12 N14 2.690630 1_655
Ba12 N8 2.858678 1_555
Ba12 N4 3.023461 1_555
Ba13 N15 2.690638 1_545
Ba13 N15 2.690638 1_555
Ba13 N9 2.858678 1_555
Ba13 N5 3.023461 1_555
Ba14 N12 2.690638 1_465
Ba14 N12 2.690638 1_455
Ba14 N10 2.858678 1_555
Ba14 N6 3.023461 1_555
Ba15 N13 2.690638 1_555
Ba15 N13 2.690638 1_565
Ba15 N11 2.858678 1_555
Ba15 N7 3.023461 1_555
N0 Si0 1.633667 1_555
N1 Si1 1.633667 1_555
N2 Si2 1.633667 1_555
N3 Si3 1.633667 1_555
N4 Si0 1.635511 1_555
N5 Si1 1.635511 1_555
N6 Si2 1.635511 1_555
N7 Si3 1.635511 1_555
