# generated using pymatgen
data_Dy11Ge10
_symmetry_space_group_name_H-M   'P 1'
_cell_length_a   11.32798335
_cell_length_b   11.32798335
_cell_length_c   11.32798335
_cell_angle_alpha   122.12847278
_cell_angle_beta   122.12847278
_cell_angle_gamma   86.35128986
_symmetry_Int_Tables_number   1
_chemical_formula_structural   Dy11Ge10
_chemical_formula_sum   'Dy22 Ge20'
_cell_volume   992.62054368
_cell_formula_units_Z   2
loop_
 _symmetry_equiv_pos_site_id
 _symmetry_equiv_pos_as_xyz
  1  'x, y, z'
loop_
 _atom_site_type_symbol
 _atom_site_label
 _atom_site_symmetry_multiplicity
 _atom_site_fract_x
 _atom_site_fract_y
 _atom_site_fract_z
 _atom_site_occupancy
  Dy  Dy0  1  0.15983000  0.15983000  0.00000000  1
  Dy  Dy1  1  0.84017100  0.84017100  0.00000000  1
  Dy  Dy2  1  0.32207600  0.32207600  0.64415100  1
  Dy  Dy3  1  0.67792400  0.67792400  0.35584900  1
  Dy  Dy4  1  0.32207600  0.67792400  0.00000000  1
  Dy  Dy5  1  0.67792400  0.32207600  0.00000000  1
  Dy  Dy6  1  0.42663100  0.10274100  0.32389000  1
  Dy  Dy7  1  0.57336900  0.89725900  0.67611000  1
  Dy  Dy8  1  0.77885200  0.10274100  0.67611000  1
  Dy  Dy9  1  0.10274100  0.77885200  0.67611000  1
  Dy  Dy10  1  0.22114800  0.89725900  0.32389000  1
  Dy  Dy11  1  0.89725900  0.22114800  0.32389000  1
  Dy  Dy12  1  0.10274100  0.42663100  0.32389000  1
  Dy  Dy13  1  0.89725900  0.57336900  0.67611000  1
  Dy  Dy14  1  0.56210200  0.30992100  0.25218100  1
  Dy  Dy15  1  0.43789800  0.69007900  0.74781900  1
  Dy  Dy16  1  0.05774000  0.30992100  0.74781900  1
  Dy  Dy17  1  0.30992100  0.05774000  0.74781900  1
  Dy  Dy18  1  0.94226000  0.69007900  0.25218100  1
  Dy  Dy19  1  0.69007900  0.94226000  0.25218100  1
  Dy  Dy20  1  0.30992100  0.56210200  0.25218100  1
  Dy  Dy21  1  0.69007900  0.43789800  0.74781900  1
  Ge  Ge0  1  0.39130100  0.39130100  0.41940500  1
  Ge  Ge1  1  0.60869900  0.60869900  0.58059500  1
  Ge  Ge2  1  0.97189600  0.97189600  0.58059500  1
  Ge  Ge3  1  0.39130100  0.97189600  0.00000000  1
  Ge  Ge4  1  0.02810400  0.60869900  0.00000000  1
  Ge  Ge5  1  0.02810400  0.02810400  0.41940500  1
  Ge  Ge6  1  0.60869900  0.02810400  0.00000000  1
  Ge  Ge7  1  0.97189600  0.39130100  0.00000000  1
  Ge  Ge8  1  0.38702200  0.38702200  0.00000000  1
  Ge  Ge9  1  0.61297800  0.61297800  0.00000000  1
  Ge  Ge10  1  0.11947600  0.11947600  0.23895100  1
  Ge  Ge11  1  0.88052400  0.88052400  0.76104900  1
  Ge  Ge12  1  0.11947600  0.88052400  0.00000000  1
  Ge  Ge13  1  0.88052400  0.11947600  0.00000000  1
  Ge  Ge14  1  0.75000000  0.25000000  0.50000000  1
  Ge  Ge15  1  0.25000000  0.75000000  0.50000000  1
  Ge  Ge16  1  0.50000000  0.13848000  0.63848000  1
  Ge  Ge17  1  0.50000000  0.86152000  0.36152000  1
  Ge  Ge18  1  0.13848000  0.50000000  0.63848000  1
  Ge  Ge19  1  0.86152000  0.50000000  0.36152000  1
loop_
_geom_bond_atom_site_label_1
_geom_bond_atom_site_label_2
_geom_bond_distance
_geom_bond_site_symmetry_2
Dy0 Ge10 3.225479 1_555
Dy0 Ge12 3.225490 1_545
Dy0 Ge13 3.225490 1_455
Dy0 Ge11 3.225492 1_444
Dy0 Ge3 3.270655 1_545
Dy0 Ge2 3.270655 1_444
Dy0 Ge7 3.270655 1_455
Dy0 Ge0 3.270655 1_555
Dy1 Ge11 3.225465 1_554
Dy1 Ge13 3.225476 1_565
Dy1 Ge12 3.225476 1_655
Dy1 Ge10 3.225479 1_665
Dy1 Ge6 3.270657 1_565
Dy1 Ge4 3.270657 1_655
Dy1 Ge5 3.270657 1_665
Dy1 Ge1 3.270657 1_554
Dy2 Ge16 2.802496 1_555
Dy2 Ge18 2.802496 1_555
Dy2 Ge10 3.140716 1_555
Dy2 Ge9 3.330454 1_556
Dy2 Ge8 3.330463 1_556
Dy2 Ge0 3.469419 1_555
Dy2 Ge5 3.469433 1_555
Dy3 Ge19 2.802496 1_555
Dy3 Ge17 2.802496 1_555
Dy3 Ge11 3.140716 1_555
Dy3 Ge8 3.330454 1_555
Dy3 Ge9 3.330463 1_555
Dy3 Ge1 3.469419 1_555
Dy3 Ge2 3.469433 1_555
Dy4 Ge17 2.802496 1_555
Dy4 Ge18 2.802496 1_554
Dy4 Ge12 3.140716 1_555
Dy4 Ge8 3.330452 1_555
Dy4 Ge9 3.330452 1_555
Dy4 Ge4 3.469430 1_555
Dy4 Ge3 3.469430 1_555
Dy5 Ge16 2.802496 1_554
Dy5 Ge19 2.802496 1_555
Dy5 Ge13 3.140716 1_555
Dy5 Ge9 3.330452 1_555
Dy5 Ge8 3.330452 1_555
Dy5 Ge6 3.469430 1_555
Dy5 Ge7 3.469430 1_555
Dy6 Ge3 2.923719 1_545
Dy6 Ge0 2.923719 1_555
Dy6 Ge16 2.985353 1_555
Dy6 Ge17 2.985353 1_545
Dy6 Ge10 3.101196 1_555
Dy6 Ge12 3.101199 1_545
Dy6 Ge14 3.105840 1_555
Dy7 Ge1 2.923719 1_555
Dy7 Ge6 2.923719 1_566
Dy7 Ge16 2.985353 1_565
Dy7 Ge17 2.985353 1_555
Dy7 Ge11 3.101196 1_555
Dy7 Ge13 3.101199 1_566
Dy7 Ge15 3.105840 1_555
Dy8 Ge2 2.923709 1_545
Dy8 Ge7 2.923718 1_556
Dy8 Ge17 2.985359 1_545
Dy8 Ge16 2.985364 1_555
Dy8 Ge13 3.101202 1_556
Dy8 Ge11 3.101203 1_545
Dy8 Ge14 3.105837 1_555
Dy9 Ge2 2.923709 1_455
Dy9 Ge3 2.923718 1_556
Dy9 Ge19 2.985359 1_455
Dy9 Ge18 2.985364 1_555
Dy9 Ge12 3.101202 1_556
Dy9 Ge11 3.101203 1_455
Dy9 Ge15 3.105837 1_555
Dy10 Ge5 2.923709 1_565
Dy10 Ge4 2.923718 1_555
Dy10 Ge16 2.985359 1_565
Dy10 Ge17 2.985364 1_555
Dy10 Ge12 3.101202 1_555
Dy10 Ge10 3.101203 1_565
Dy10 Ge15 3.105837 1_555
Dy11 Ge5 2.923709 1_655
Dy11 Ge6 2.923718 1_555
Dy11 Ge18 2.985359 1_655
Dy11 Ge19 2.985364 1_555
Dy11 Ge13 3.101202 1_555
Dy11 Ge10 3.101203 1_655
Dy11 Ge14 3.105837 1_555
Dy12 Ge7 2.923719 1_455
Dy12 Ge0 2.923719 1_555
Dy12 Ge18 2.985353 1_555
Dy12 Ge19 2.985353 1_455
Dy12 Ge10 3.101196 1_555
Dy12 Ge13 3.101199 1_455
Dy12 Ge15 3.105840 1_555
Dy13 Ge1 2.923719 1_555
Dy13 Ge4 2.923719 1_656
Dy13 Ge18 2.985353 1_655
Dy13 Ge19 2.985353 1_555
Dy13 Ge11 3.101196 1_555
Dy13 Ge12 3.101199 1_656
Dy13 Ge14 3.105840 1_555
Dy14 Ge14 2.891277 1_555
Dy14 Ge8 3.043706 1_555
Dy14 Ge0 3.161611 1_555
Dy14 Ge3 3.161611 1_545
Dy14 Ge1 3.212497 1_555
Dy14 Ge6 3.212497 1_555
Dy14 Ge19 3.361431 1_555
Dy15 Ge15 2.891277 1_555
Dy15 Ge9 3.043706 1_556
Dy15 Ge6 3.161611 1_566
Dy15 Ge1 3.161611 1_555
Dy15 Ge0 3.212497 1_555
Dy15 Ge3 3.212497 1_556
Dy15 Ge18 3.361431 1_555
Dy16 Ge14 2.891277 1_455
Dy16 Ge8 3.043706 1_556
Dy16 Ge7 3.161611 1_456
Dy16 Ge2 3.161611 1_445
Dy16 Ge4 3.212497 1_556
Dy16 Ge5 3.212497 1_555
Dy16 Ge18 3.361431 1_555
Dy17 Ge15 2.891277 1_545
Dy17 Ge8 3.043706 1_556
Dy17 Ge2 3.161611 1_445
Dy17 Ge3 3.161611 1_546
Dy17 Ge6 3.212497 1_556
Dy17 Ge5 3.212497 1_555
Dy17 Ge16 3.361431 1_555
Dy18 Ge15 2.891277 1_655
Dy18 Ge9 3.043706 1_555
Dy18 Ge5 3.161611 1_665
Dy18 Ge4 3.161611 1_655
Dy18 Ge7 3.212497 1_555
Dy18 Ge2 3.212497 1_555
Dy18 Ge19 3.361431 1_555
Dy19 Ge14 2.891277 1_565
Dy19 Ge9 3.043706 1_555
Dy19 Ge5 3.161611 1_665
Dy19 Ge6 3.161611 1_565
Dy19 Ge2 3.212497 1_555
Dy19 Ge3 3.212497 1_555
Dy19 Ge17 3.361431 1_555
Dy20 Ge15 2.891277 1_555
Dy20 Ge8 3.043706 1_555
Dy20 Ge7 3.161611 1_455
Dy20 Ge0 3.161611 1_555
Dy20 Ge4 3.212497 1_555
Dy20 Ge1 3.212497 1_555
Dy20 Ge17 3.361431 1_555
Dy21 Ge14 2.891277 1_555
Dy21 Ge9 3.043706 1_556
Dy21 Ge4 3.161611 1_656
Dy21 Ge1 3.161611 1_555
Dy21 Ge7 3.212497 1_556
Dy21 Ge0 3.212497 1_555
Dy21 Ge16 3.361431 1_555
Ge0 Ge1 2.582594 1_555
Ge2 Ge5 2.582594 1_665
Ge3 Ge6 2.582594 1_565
Ge4 Ge7 2.582594 1_455
Ge10 Ge13 2.619293 1_455
Ge10 Ge12 2.619293 1_545
Ge11 Ge13 2.619293 1_566
Ge11 Ge12 2.619293 1_656
