# generated using pymatgen
data_Dy3AlCoS7
_symmetry_space_group_name_H-M   'P 1'
_cell_length_a   9.55278793
_cell_length_b   9.55278793
_cell_length_c   6.15678700
_cell_angle_alpha   90.00000000
_cell_angle_beta   90.00000000
_cell_angle_gamma   119.99999949
_symmetry_Int_Tables_number   1
_chemical_formula_structural   Dy3AlCoS7
_chemical_formula_sum   'Dy6 Al2 Co2 S14'
_cell_volume   486.56967206
_cell_formula_units_Z   2
loop_
 _symmetry_equiv_pos_site_id
 _symmetry_equiv_pos_as_xyz
  1  'x, y, z'
loop_
 _atom_site_type_symbol
 _atom_site_label
 _atom_site_symmetry_multiplicity
 _atom_site_fract_x
 _atom_site_fract_y
 _atom_site_fract_z
 _atom_site_occupancy
  Dy  Dy0  1  0.22519300  0.37351700  0.27535600  1
  Dy  Dy1  1  0.62648300  0.85167600  0.27535600  1
  Dy  Dy2  1  0.14832400  0.77480700  0.27535600  1
  Dy  Dy3  1  0.77480700  0.62648300  0.77535600  1
  Dy  Dy4  1  0.37351700  0.14832400  0.77535600  1
  Dy  Dy5  1  0.85167600  0.22519300  0.77535600  1
  Al  Al0  1  0.33333300  0.66666700  0.84942600  1
  Al  Al1  1  0.66666700  0.33333300  0.34942600  1
  Co  Co0  1  0.00000000  0.00000000  0.42882200  1
  Co  Co1  1  0.00000000  0.00000000  0.92882200  1
  S  S0  1  0.13025900  0.22287100  0.67655200  1
  S  S1  1  0.77712900  0.90738800  0.67655200  1
  S  S2  1  0.09261200  0.86974100  0.67655200  1
  S  S3  1  0.86974100  0.77712900  0.17655200  1
  S  S4  1  0.22287100  0.09261200  0.17655200  1
  S  S5  1  0.90738800  0.13025900  0.17655200  1
  S  S6  1  0.08986900  0.51635400  0.00554700  1
  S  S7  1  0.48364600  0.57351500  0.00554700  1
  S  S8  1  0.42648500  0.91013100  0.00554700  1
  S  S9  1  0.91013100  0.48364600  0.50554700  1
  S  S10  1  0.51635400  0.42648500  0.50554700  1
  S  S11  1  0.57351500  0.08986900  0.50554700  1
  S  S12  1  0.33333300  0.66666700  0.48683300  1
  S  S13  1  0.66666700  0.33333300  0.98683300  1
loop_
_geom_bond_atom_site_label_1
_geom_bond_atom_site_label_2
_geom_bond_distance
_geom_bond_site_symmetry_2
Dy0 S4 2.740765 1_555
Dy0 S0 2.773016 1_555
Dy0 S12 2.777002 1_555
Dy0 S7 2.790749 1_555
Dy0 S5 2.816387 1_455
Dy0 S6 2.838365 1_555
Dy0 S10 2.931451 1_555
Dy1 S5 2.740765 1_565
Dy1 S1 2.773016 1_555
Dy1 S12 2.777001 1_555
Dy1 S8 2.790749 1_555
Dy1 S3 2.816387 1_555
Dy1 S7 2.838365 1_555
Dy1 S11 2.931451 1_565
Dy2 S3 2.740765 1_455
Dy2 S2 2.773016 1_555
Dy2 S12 2.776994 1_555
Dy2 S6 2.790749 1_555
Dy2 S4 2.816387 1_565
Dy2 S8 2.838365 1_555
Dy2 S9 2.931451 1_455
Dy3 S1 2.740765 1_555
Dy3 S3 2.773016 1_556
Dy3 S13 2.777002 1_555
Dy3 S10 2.790749 1_555
Dy3 S2 2.816387 1_655
Dy3 S9 2.838365 1_555
Dy3 S7 2.931451 1_556
Dy4 S2 2.740765 1_545
Dy4 S4 2.773016 1_556
Dy4 S13 2.777001 1_555
Dy4 S11 2.790749 1_555
Dy4 S0 2.816387 1_555
Dy4 S10 2.838365 1_555
Dy4 S8 2.931451 1_546
Dy5 S0 2.740765 1_655
Dy5 S5 2.773016 1_556
Dy5 S13 2.776994 1_555
Dy5 S9 2.790749 1_555
Dy5 S1 2.816387 1_545
Dy5 S11 2.838365 1_555
Dy5 S6 2.931451 1_656
Al0 S12 2.232408 1_555
Al0 S8 2.248404 1_556
Al0 S6 2.248405 1_556
Al0 S7 2.248412 1_556
Al1 S13 2.232408 1_554
Al1 S11 2.248404 1_555
Al1 S9 2.248405 1_555
Al1 S10 2.248412 1_555
Co0 S2 2.399633 1_545
Co0 S1 2.399633 1_445
Co0 S0 2.399633 1_555
Co0 S5 2.417496 1_455
Co0 S4 2.417496 1_555
Co0 S3 2.417496 1_445
Co1 S5 2.399633 1_456
Co1 S4 2.399633 1_556
Co1 S3 2.399633 1_446
Co1 S2 2.417496 1_545
Co1 S1 2.417496 1_445
Co1 S0 2.417496 1_555
