# generated using pymatgen
data_Sr6CaY2Ga3(Cu2O7)3
_symmetry_space_group_name_H-M   'P 1'
_cell_length_a   14.42393054
_cell_length_b   14.42393054
_cell_length_c   14.42393054
_cell_angle_alpha   157.93130620
_cell_angle_beta   111.82061577
_cell_angle_gamma   72.63631297
_symmetry_Int_Tables_number   1
_chemical_formula_structural   Sr6CaY2Ga3(Cu2O7)3
_chemical_formula_sum   'Sr12 Ca2 Y4 Ga6 Cu12 O42'
_cell_volume   1037.55247131
_cell_formula_units_Z   2
loop_
 _symmetry_equiv_pos_site_id
 _symmetry_equiv_pos_as_xyz
  1  'x, y, z'
loop_
 _atom_site_type_symbol
 _atom_site_label
 _atom_site_symmetry_multiplicity
 _atom_site_fract_x
 _atom_site_fract_y
 _atom_site_fract_z
 _atom_site_occupancy
  Sr  Sr0  1  0.81710500  0.13640900  0.65094500  1
  Sr  Sr1  1  0.48419100  0.13642800  0.31804700  1
  Sr  Sr2  1  0.14967300  0.13561900  0.98486200  1
  Sr  Sr3  1  0.84924300  0.86438100  0.01405500  1
  Sr  Sr4  1  0.51453600  0.86359100  0.68069700  1
  Sr  Sr5  1  0.18162000  0.86357200  0.34776300  1
  Sr  Sr6  1  0.01453600  0.33383900  0.65094500  1
  Sr  Sr7  1  0.68162000  0.33385600  0.31804700  1
  Sr  Sr8  1  0.34924300  0.33518800  0.98486200  1
  Sr  Sr9  1  0.64967300  0.66481200  0.01405500  1
  Sr  Sr10  1  0.31710500  0.66616100  0.68069700  1
  Sr  Sr11  1  0.98419100  0.66614400  0.34776300  1
  Ca  Ca0  1  0.00002000  0.00000000  0.00002000  1
  Ca  Ca1  1  0.50002000  0.50000000  0.00002000  1
  Y  Y0  1  0.66496700  0.00000000  0.66496700  1
  Y  Y1  1  0.33504700  0.00000000  0.33504700  1
  Y  Y2  1  0.16496700  0.50000000  0.66496700  1
  Y  Y3  1  0.83504700  0.50000000  0.33504700  1
  Ga  Ga0  1  0.06872000  0.31819400  0.88691400  1
  Ga  Ga1  1  0.73545300  0.31844000  0.55389400  1
  Ga  Ga2  1  0.40188000  0.31802200  0.21990200  1
  Ga  Ga3  1  0.23545300  0.68156000  0.41701300  1
  Ga  Ga4  1  0.90188000  0.68197800  0.08385700  1
  Ga  Ga5  1  0.56872000  0.68180600  0.75052600  1
  Cu  Cu0  1  0.57393800  0.07417300  0.50038500  1
  Cu  Cu1  1  0.23994600  0.07408400  0.16637500  1
  Cu  Cu2  1  0.90782500  0.07412900  0.83429900  1
  Cu  Cu3  1  0.09229100  0.92591600  0.16586200  1
  Cu  Cu4  1  0.76017000  0.92587100  0.83369600  1
  Cu  Cu5  1  0.42621200  0.92582700  0.49976600  1
  Cu  Cu6  1  0.92621200  0.42644600  0.50038500  1
  Cu  Cu7  1  0.59229100  0.42642900  0.16637500  1
  Cu  Cu8  1  0.26017000  0.42647400  0.83429900  1
  Cu  Cu9  1  0.73994600  0.57357100  0.16586200  1
  Cu  Cu10  1  0.40782500  0.57352600  0.83369600  1
  Cu  Cu11  1  0.07393800  0.57355400  0.49976600  1
  O  O0  1  0.65208300  0.31053200  0.82885100  1
  O  O1  1  0.31504500  0.31530100  0.50023600  1
  O  O2  1  0.98168200  0.32381200  0.17170500  1
  O  O3  1  0.18493500  0.68469900  0.99974400  1
  O  O4  1  0.84789400  0.67618800  0.65787000  1
  O  O5  1  0.51831900  0.68946800  0.34155200  1
  O  O6  1  0.01831900  0.67676700  0.82885100  1
  O  O7  1  0.68493500  0.68519100  0.50023600  1
  O  O8  1  0.34789400  0.69002400  0.17170500  1
  O  O9  1  0.48168200  0.30997600  0.65787000  1
  O  O10  1  0.15208300  0.32323300  0.34155200  1
  O  O11  1  0.81504500  0.31480900  0.99974400  1
  O  O12  1  0.47779900  0.81951600  0.17159000  1
  O  O13  1  0.14759900  0.80753700  0.82950500  1
  O  O14  1  0.81107200  0.81189100  0.50055300  1
  O  O15  1  0.02196800  0.19246300  0.34006200  1
  O  O16  1  0.68866300  0.18810900  0.99918100  1
  O  O17  1  0.35207500  0.18048400  0.65828400  1
  O  O18  1  0.18866300  0.18948100  0.50055300  1
  O  O19  1  0.85207500  0.19379100  0.17159000  1
  O  O20  1  0.52196800  0.18190500  0.82950500  1
  O  O21  1  0.64759900  0.81809500  0.34006200  1
  O  O22  1  0.31107200  0.81051900  0.99918100  1
  O  O23  1  0.97779900  0.80620900  0.65828400  1
  O  O24  1  0.84828300  0.72002500  0.21608900  1
  O  O25  1  0.51477100  0.72003000  0.88260700  1
  O  O26  1  0.18167300  0.72076600  0.54992500  1
  O  O27  1  0.82915900  0.27923400  0.46090700  1
  O  O28  1  0.49606500  0.27997500  0.12825900  1
  O  O29  1  0.16257700  0.27997000  0.79474200  1
  O  O30  1  0.99606500  0.86780600  0.21608900  1
  O  O31  1  0.66257700  0.86783500  0.88260700  1
  O  O32  1  0.32915900  0.86825200  0.54992500  1
  O  O33  1  0.68167300  0.13174800  0.46090700  1
  O  O34  1  0.34828300  0.13219400  0.12825900  1
  O  O35  1  0.01477100  0.13216500  0.79474200  1
  O  O36  1  0.78407100  0.63363600  0.91770800  1
  O  O37  1  0.45086400  0.63279600  0.58365900  1
  O  O38  1  0.11756400  0.63284900  0.25041300  1
  O  O39  1  0.95086400  0.36720400  0.81806800  1
  O  O40  1  0.61756400  0.36715100  0.48471500  1
  O  O41  1  0.28407100  0.36636400  0.15043500  1
loop_
_geom_bond_atom_site_label_1
_geom_bond_atom_site_label_2
_geom_bond_distance
_geom_bond_site_symmetry_2
Ca0 O13 2.448851 1_544
Ca0 O15 2.448851 1_555
Ca0 O23 2.456760 1_444
Ca0 O19 2.456760 1_455
Ca0 O10 2.513384 1_555
Ca0 O6 2.513394 1_544
Ca0 O4 2.515773 1_444
Ca0 O2 2.515783 1_455
Ca1 O21 2.448855 1_555
Ca1 O20 2.448864 1_554
Ca1 O17 2.456764 1_554
Ca1 O12 2.456773 1_555
Ca1 O0 2.513381 1_554
Ca1 O5 2.513394 1_555
Ca1 O8 2.515768 1_555
Ca1 O9 2.515773 1_554
Ga0 O29 1.854226 1_555
Ga0 O35 1.854234 1_555
Ga0 O38 1.908417 1_556
Ga0 O39 1.924724 1_455
Ga1 O33 1.852328 1_555
Ga1 O27 1.852350 1_555
Ga1 O36 1.909630 1_555
Ga1 O40 1.925028 1_555
Ga2 O28 1.854584 1_555
Ga2 O34 1.854592 1_555
Ga2 O37 1.909947 1_555
Ga2 O41 1.923456 1_555
Ga3 O32 1.852340 1_555
Ga3 O26 1.852340 1_555
Ga3 O41 1.909630 1_555
Ga3 O38 1.925021 1_555
Ga4 O30 1.854584 1_555
Ga4 O24 1.854594 1_555
Ga4 O39 1.909954 1_554
Ga4 O36 1.923439 1_554
Ga5 O31 1.854226 1_555
Ga5 O25 1.854236 1_555
Ga5 O40 1.908417 1_555
Ga5 O37 1.924732 1_555
Cu0 O9 1.929940 1_555
Cu0 O0 1.930286 1_555
Cu0 O12 1.941728 1_545
Cu0 O21 1.942221 1_545
Cu0 O33 2.394424 1_555
Cu1 O10 1.933195 1_555
Cu1 O13 1.945682 1_544
Cu1 O1 1.945721 1_555
Cu1 O22 1.959464 1_544
Cu1 O34 2.391902 1_555
Cu2 O2 1.933885 1_556
Cu2 O11 1.945154 1_555
Cu2 O23 1.946928 1_545
Cu2 O14 1.958574 1_545
Cu2 O35 2.390851 1_655
Cu3 O6 1.933187 1_554
Cu3 O15 1.945682 1_565
Cu3 O3 1.945721 1_554
Cu3 O18 1.959469 1_565
Cu3 O30 2.391902 1_455
Cu4 O4 1.933893 1_555
Cu4 O7 1.945154 1_555
Cu4 O19 1.946928 1_566
Cu4 O16 1.958569 1_565
Cu4 O31 2.390863 1_555
Cu5 O8 1.929957 1_555
Cu5 O5 1.930286 1_555
Cu5 O17 1.941722 1_565
Cu5 O20 1.942227 1_565
Cu5 O32 2.394411 1_555
Cu6 O4 1.929949 1_555
Cu6 O6 1.930286 1_655
Cu6 O19 1.941731 1_555
Cu6 O15 1.942224 1_655
Cu6 O27 2.394411 1_555
Cu7 O5 1.933187 1_555
Cu7 O20 1.945677 1_554
Cu7 O7 1.945721 1_555
Cu7 O16 1.959473 1_554
Cu7 O28 2.391914 1_555
Cu8 O8 1.933887 1_556
Cu8 O3 1.945154 1_555
Cu8 O17 1.946933 1_555
Cu8 O18 1.958572 1_555
Cu8 O29 2.390863 1_555
Cu9 O0 1.933191 1_554
Cu9 O21 1.945688 1_555
Cu9 O11 1.945721 1_554
Cu9 O14 1.959464 1_555
Cu9 O24 2.391914 1_555
Cu10 O9 1.933893 1_555
Cu10 O1 1.945154 1_555
Cu10 O12 1.946923 1_556
Cu10 O22 1.958574 1_555
Cu10 O25 2.390851 1_555
Cu11 O2 1.929950 1_455
Cu11 O10 1.930286 1_555
Cu11 O23 1.941722 1_455
Cu11 O13 1.942227 1_555
Cu11 O26 2.394423 1_555
O0 Y0 2.426930 1_555
O0 Sr0 2.754190 1_555
O0 Sr9 2.812824 1_556
O1 Y2 2.465370 1_555
O1 Y1 2.467197 1_555
O1 Sr1 2.820866 1_555
O1 Sr10 2.829187 1_555
O2 Y3 2.425162 1_555
O2 Sr11 2.762065 1_555
O2 Sr2 2.805786 1_654
O3 Y2 2.465370 1_555
O3 Y1 2.467197 1_566
O3 Sr5 2.820860 1_556
O3 Sr6 2.829190 1_555
O4 Y3 2.425157 1_555
O4 Sr7 2.762065 1_555
O4 Sr3 2.805805 1_556
O5 Y0 2.426932 1_565
O5 Sr4 2.754190 1_555
O5 Sr8 2.812824 1_554
O6 Y2 2.426932 1_555
O6 Sr6 2.754190 1_555
O6 Sr3 2.812824 1_456
O7 Y0 2.465370 1_565
O7 Y3 2.467197 1_555
O7 Sr7 2.820863 1_555
O7 Sr4 2.829190 1_555
O8 Y1 2.425147 1_565
O8 Sr5 2.762068 1_555
O8 Sr8 2.805816 1_554
O9 Y1 2.425157 1_555
O9 Sr1 2.762076 1_555
O9 Sr9 2.805795 1_556
O10 Y2 2.426927 1_555
O10 Sr10 2.754190 1_555
O10 Sr2 2.812824 1_554
O11 Y0 2.465370 1_555
O11 Y3 2.467197 1_556
O11 Sr11 2.820866 1_556
O11 Sr0 2.829184 1_555
O12 Y1 2.368307 1_565
O12 Sr1 2.752290 1_565
O12 Sr9 2.788628 1_555
O13 Y2 2.374542 1_555
O13 Sr10 2.748819 1_555
O13 Sr2 2.792196 1_565
O14 Y0 2.408996 1_565
O14 Y3 2.415911 1_555
O14 Sr11 2.807540 1_555
O14 Sr0 2.811808 1_565
O15 Y2 2.374542 1_555
O15 Sr6 2.748833 1_555
O15 Sr3 2.792200 1_445
O16 Y0 2.408992 1_555
O16 Y3 2.415901 1_556
O16 Sr7 2.807540 1_556
O16 Sr4 2.811823 1_545
O17 Y1 2.368316 1_555
O17 Sr5 2.752286 1_545
O17 Sr8 2.788633 1_555
O18 Y2 2.408996 1_555
O18 Y1 2.415898 1_555
O18 Sr5 2.807540 1_545
O18 Sr6 2.811826 1_555
O19 Y3 2.368306 1_555
O19 Sr7 2.752290 1_555
O19 Sr3 2.788644 1_545
O20 Y0 2.374543 1_555
O20 Sr4 2.748819 1_545
O20 Sr8 2.792196 1_555
O21 Y0 2.374552 1_565
O21 Sr0 2.748815 1_565
O21 Sr9 2.792183 1_555
O22 Y2 2.408996 1_555
O22 Y1 2.415911 1_566
O22 Sr1 2.807540 1_566
O22 Sr10 2.811806 1_555
O23 Y3 2.368306 1_555
O23 Sr11 2.752304 1_555
O23 Sr2 2.788633 1_665
O24 Sr0 2.505608 1_565
O24 Sr11 2.666969 1_555
O24 Sr9 2.861335 1_555
O24 Sr0 3.140488 1_554
O25 Sr1 2.505163 1_566
O25 Sr9 2.673318 1_556
O25 Sr10 2.858250 1_555
O25 Sr1 3.140134 1_555
O26 Sr2 2.510339 1_565
O26 Sr10 2.662763 1_555
O26 Sr11 2.853769 1_455
O26 Sr2 3.147307 1_554
O27 Sr3 2.510333 1_545
O27 Sr6 2.662769 1_655
O27 Sr7 2.853763 1_555
O27 Sr3 3.147307 1_556
O28 Sr4 2.505602 1_544
O28 Sr7 2.666964 1_555
O28 Sr8 2.861340 1_554
O28 Sr4 3.140489 1_555
O29 Sr5 2.505174 1_545
O29 Sr8 2.673318 1_555
O29 Sr6 2.858250 1_555
O29 Sr5 3.140132 1_556
O30 Sr6 2.505602 1_665
O30 Sr5 2.666969 1_655
O30 Sr3 2.861330 1_555
O30 Sr6 3.140484 1_654
O31 Sr7 2.505169 1_566
O31 Sr3 2.673318 1_556
O31 Sr4 2.858250 1_555
O31 Sr7 3.140138 1_555
O32 Sr8 2.510333 1_565
O32 Sr4 2.662769 1_555
O32 Sr5 2.853764 1_555
O32 Sr8 3.147307 1_554
O33 Sr9 2.510333 1_545
O33 Sr0 2.662764 1_555
O33 Sr1 2.853769 1_555
O33 Sr9 3.147312 1_556
O34 Sr10 2.505602 1_544
O34 Sr1 2.666959 1_555
O34 Sr2 2.861340 1_554
O34 Sr10 3.140489 1_555
O35 Sr11 2.505169 1_445
O35 Sr2 2.673318 1_555
O35 Sr0 2.858250 1_455
O35 Sr11 3.140128 1_456
O36 Sr9 2.493111 1_556
O36 Sr3 2.493119 1_556
O37 Sr4 2.473387 1_555
O37 Sr10 2.473422 1_555
O38 Sr11 2.471847 1_455
O38 Sr5 2.471855 1_555
O39 Sr6 2.473399 1_655
O39 Sr0 2.473411 1_555
O40 Sr1 2.471847 1_555
O40 Sr7 2.471857 1_555
O41 Sr8 2.493107 1_554
O41 Sr2 2.493119 1_554
