# generated using pymatgen
data_Dy2Ge6Pd
_symmetry_space_group_name_H-M   'P 1'
_cell_length_a   5.78457156
_cell_length_b   5.78457156
_cell_length_c   21.67438900
_cell_angle_alpha   90.00000000
_cell_angle_beta   90.00000000
_cell_angle_gamma   90.63485964
_symmetry_Int_Tables_number   1
_chemical_formula_structural   Dy2Ge6Pd
_chemical_formula_sum   'Dy8 Ge24 Pd4'
_cell_volume   725.20801987
_cell_formula_units_Z   4
loop_
 _symmetry_equiv_pos_site_id
 _symmetry_equiv_pos_as_xyz
  1  'x, y, z'
loop_
 _atom_site_type_symbol
 _atom_site_label
 _atom_site_symmetry_multiplicity
 _atom_site_fract_x
 _atom_site_fract_y
 _atom_site_fract_z
 _atom_site_occupancy
  Dy  Dy0  1  0.37574400  0.87301300  0.58121700  1
  Dy  Dy1  1  0.12698700  0.62425600  0.41878300  1
  Dy  Dy2  1  0.62698700  0.12425600  0.08121700  1
  Dy  Dy3  1  0.87574400  0.37301300  0.91878300  1
  Dy  Dy4  1  0.62425600  0.12698700  0.41878300  1
  Dy  Dy5  1  0.87301300  0.37574400  0.58121700  1
  Dy  Dy6  1  0.37301300  0.87574400  0.91878300  1
  Dy  Dy7  1  0.12425600  0.62698700  0.08121700  1
  Ge  Ge0  1  0.65107200  0.09668300  0.69285500  1
  Ge  Ge1  1  0.90331700  0.34892800  0.30714500  1
  Ge  Ge2  1  0.40331700  0.84892800  0.19285500  1
  Ge  Ge3  1  0.15107200  0.59668300  0.80714500  1
  Ge  Ge4  1  0.34892800  0.90331700  0.30714500  1
  Ge  Ge5  1  0.09668300  0.65107200  0.69285500  1
  Ge  Ge6  1  0.59668300  0.15107200  0.80714500  1
  Ge  Ge7  1  0.84892800  0.40331700  0.19285500  1
  Ge  Ge8  1  0.38134000  0.38134000  0.95654400  1
  Ge  Ge9  1  0.61866000  0.61866000  0.04345600  1
  Ge  Ge10  1  0.11866000  0.11866000  0.45654400  1
  Ge  Ge11  1  0.88134000  0.88134000  0.54345600  1
  Ge  Ge12  1  0.36749700  0.36749700  0.52820500  1
  Ge  Ge13  1  0.63250300  0.63250300  0.47179500  1
  Ge  Ge14  1  0.13250300  0.13250300  0.02820500  1
  Ge  Ge15  1  0.86749700  0.86749700  0.97179500  1
  Ge  Ge16  1  0.15238100  0.15238100  0.80805500  1
  Ge  Ge17  1  0.84761900  0.84761900  0.19194500  1
  Ge  Ge18  1  0.34761900  0.34761900  0.30805500  1
  Ge  Ge19  1  0.65238100  0.65238100  0.69194500  1
  Ge  Ge20  1  0.09508500  0.09508500  0.69305300  1
  Ge  Ge21  1  0.90491500  0.90491500  0.30694700  1
  Ge  Ge22  1  0.40491500  0.40491500  0.19305300  1
  Ge  Ge23  1  0.59508500  0.59508500  0.80694700  1
  Pd  Pd0  1  0.37271100  0.37271100  0.64169500  1
  Pd  Pd1  1  0.62728900  0.62728900  0.35830500  1
  Pd  Pd2  1  0.12728900  0.12728900  0.14169500  1
  Pd  Pd3  1  0.87271100  0.87271100  0.85830500  1
loop_
_geom_bond_atom_site_label_1
_geom_bond_atom_site_label_2
_geom_bond_distance
_geom_bond_site_symmetry_2
Dy0 Ge11 2.975625 1_455
Dy0 Ge11 3.036884 1_555
Dy0 Ge12 3.083386 1_565
Dy0 Ge13 3.132419 1_555
Dy0 Ge12 3.141703 1_555
Dy0 Ge19 3.161431 1_555
Dy0 Ge0 3.165402 1_565
Dy0 Ge5 3.172220 1_555
Dy0 Pd0 3.174099 1_565
Dy0 Pd0 3.176927 1_555
Dy0 Ge20 3.194962 1_565
Dy0 Ge10 3.402857 1_565
Dy1 Ge10 2.975625 1_565
Dy1 Ge10 3.036884 1_555
Dy1 Ge13 3.083386 1_455
Dy1 Ge12 3.132419 1_555
Dy1 Ge13 3.141703 1_555
Dy1 Ge18 3.161431 1_555
Dy1 Ge1 3.165402 1_455
Dy1 Ge4 3.172220 1_555
Dy1 Pd1 3.174099 1_455
Dy1 Pd1 3.176927 1_555
Dy1 Ge21 3.194962 1_455
Dy1 Ge11 3.402857 1_455
Dy2 Ge9 2.975625 1_555
Dy2 Ge9 3.036884 1_545
Dy2 Ge14 3.083386 1_555
Dy2 Ge15 3.132419 1_544
Dy2 Ge14 3.141703 1_655
Dy2 Ge17 3.161431 1_545
Dy2 Ge2 3.165402 1_545
Dy2 Ge7 3.172220 1_555
Dy2 Pd2 3.174099 1_555
Dy2 Pd2 3.176927 1_655
Dy2 Ge22 3.194962 1_555
Dy2 Ge8 3.402857 1_554
Dy3 Ge8 2.975625 1_555
Dy3 Ge8 3.036884 1_655
Dy3 Ge15 3.083386 1_555
Dy3 Ge14 3.132419 1_656
Dy3 Ge15 3.141703 1_545
Dy3 Ge16 3.161431 1_655
Dy3 Ge3 3.165402 1_655
Dy3 Ge6 3.172220 1_555
Dy3 Pd3 3.174099 1_555
Dy3 Pd3 3.176927 1_545
Dy3 Ge23 3.194962 1_555
Dy3 Ge9 3.402857 1_556
Dy4 Ge10 2.975625 1_655
Dy4 Ge10 3.036884 1_555
Dy4 Ge13 3.083386 1_545
Dy4 Ge12 3.132419 1_555
Dy4 Ge13 3.141703 1_555
Dy4 Ge18 3.161431 1_555
Dy4 Ge4 3.165402 1_545
Dy4 Ge1 3.172220 1_555
Dy4 Pd1 3.174099 1_545
Dy4 Pd1 3.176927 1_555
Dy4 Ge21 3.194962 1_545
Dy4 Ge11 3.402857 1_545
Dy5 Ge11 2.975625 1_545
Dy5 Ge11 3.036884 1_555
Dy5 Ge12 3.083386 1_655
Dy5 Ge13 3.132419 1_555
Dy5 Ge12 3.141703 1_555
Dy5 Ge19 3.161431 1_555
Dy5 Ge5 3.165402 1_655
Dy5 Ge0 3.172220 1_555
Dy5 Pd0 3.174099 1_655
Dy5 Pd0 3.176927 1_555
Dy5 Ge20 3.194962 1_655
Dy5 Ge10 3.402857 1_655
Dy6 Ge8 2.975625 1_555
Dy6 Ge8 3.036884 1_565
Dy6 Ge15 3.083386 1_555
Dy6 Ge14 3.132419 1_566
Dy6 Ge15 3.141703 1_455
Dy6 Ge16 3.161431 1_565
Dy6 Ge6 3.165402 1_565
Dy6 Ge3 3.172220 1_555
Dy6 Pd3 3.174099 1_555
Dy6 Pd3 3.176927 1_455
Dy6 Ge23 3.194962 1_555
Dy6 Ge9 3.402857 1_556
Dy7 Ge9 2.975625 1_555
Dy7 Ge9 3.036884 1_455
Dy7 Ge14 3.083386 1_555
Dy7 Ge15 3.132419 1_454
Dy7 Ge14 3.141703 1_565
Dy7 Ge17 3.161431 1_455
Dy7 Ge7 3.165402 1_455
Dy7 Ge2 3.172220 1_555
Dy7 Pd2 3.174099 1_555
Dy7 Pd2 3.176927 1_565
Dy7 Ge22 3.194962 1_555
Dy7 Ge8 3.402857 1_554
Ge0 Ge6 2.517243 1_555
Ge0 Pd0 2.535499 1_555
Ge0 Ge20 2.568548 1_655
Ge0 Ge19 2.570267 1_545
Ge1 Ge7 2.517243 1_555
Ge1 Pd1 2.535499 1_555
Ge1 Ge21 2.568548 1_545
Ge1 Ge18 2.570267 1_655
Ge2 Ge4 2.517243 1_555
Ge2 Pd2 2.535499 1_565
Ge2 Ge22 2.568548 1_555
Ge3 Ge5 2.517243 1_555
Ge3 Pd3 2.535499 1_455
Ge4 Pd1 2.535499 1_555
Ge5 Pd0 2.535499 1_555
Ge6 Pd3 2.535499 1_545
Ge7 Pd2 2.535499 1_655
Ge8 Ge9 2.697394 1_556
Ge10 Ge12 2.551544 1_555
Ge10 Ge11 2.697394 1_445
Ge11 Ge13 2.551544 1_555
Ge12 Pd0 2.460192 1_555
Ge12 Ge13 2.478437 1_555
Ge13 Pd1 2.460192 1_555
Ge14 Pd2 2.460192 1_555
Ge14 Ge15 2.478437 1_444
Ge14 Ge8 2.551544 1_554
Ge15 Pd3 2.460192 1_555
Ge15 Ge9 2.551544 1_556
Ge16 Pd3 2.522418 1_445
Ge16 Ge20 2.535805 1_555
Ge16 Ge6 2.570267 1_555
Ge16 Ge3 2.570267 1_555
Ge17 Pd2 2.522418 1_665
Ge17 Ge21 2.535805 1_555
Ge17 Ge2 2.570267 1_555
Ge17 Ge7 2.570267 1_555
Ge18 Pd1 2.522418 1_555
Ge18 Ge22 2.535805 1_555
Ge18 Ge4 2.570267 1_545
Ge19 Pd0 2.522418 1_555
Ge19 Ge23 2.535805 1_555
Ge19 Ge5 2.570267 1_655
Ge20 Pd0 2.517954 1_555
Ge20 Ge5 2.568548 1_545
Ge21 Pd1 2.517954 1_555
Ge21 Ge4 2.568548 1_655
Ge22 Pd2 2.517954 1_555
Ge22 Ge7 2.568548 1_555
Ge23 Pd3 2.517954 1_555
Ge23 Ge6 2.568548 1_555
Ge23 Ge3 2.568548 1_555
