# generated using pymatgen
data_AlCuCl4
_symmetry_space_group_name_H-M   'P 1'
_cell_length_a   6.11637305
_cell_length_b   7.72420510
_cell_length_c   12.70465063
_cell_angle_alpha   90.00000000
_cell_angle_beta   90.00000000
_cell_angle_gamma   90.00000000
_symmetry_Int_Tables_number   1
_chemical_formula_structural   AlCuCl4
_chemical_formula_sum   'Al4 Cu4 Cl16'
_cell_volume   600.22003773
_cell_formula_units_Z   4
loop_
 _symmetry_equiv_pos_site_id
 _symmetry_equiv_pos_as_xyz
  1  'x, y, z'
loop_
 _atom_site_type_symbol
 _atom_site_label
 _atom_site_symmetry_multiplicity
 _atom_site_fract_x
 _atom_site_fract_y
 _atom_site_fract_z
 _atom_site_occupancy
  Al  Al0  1  0.44373005  0.74305707  0.08794487  1
  Al  Al1  1  0.94373005  0.25694293  0.91205513  1
  Al  Al2  1  0.94373005  0.24305707  0.41205513  1
  Al  Al3  1  0.44373005  0.75694293  0.58794487  1
  Cu  Cu0  1  0.94051329  0.49162455  0.15996740  1
  Cu  Cu1  1  0.44051329  0.50837545  0.84003260  1
  Cu  Cu2  1  0.44051329  0.99162455  0.34003260  1
  Cu  Cu3  1  0.94051329  0.00837545  0.65996740  1
  Cl  Cl0  1  0.09160420  0.74349361  0.09266952  1
  Cl  Cl1  1  0.59160420  0.25650639  0.90733048  1
  Cl  Cl2  1  0.59160420  0.24349361  0.40733048  1
  Cl  Cl3  1  0.09160420  0.75650639  0.59266952  1
  Cl  Cl4  1  0.05690690  0.24691867  0.07230180  1
  Cl  Cl5  1  0.55690690  0.75308133  0.92769820  1
  Cl  Cl6  1  0.55690690  0.74691867  0.42769820  1
  Cl  Cl7  1  0.05690690  0.25308133  0.57230180  1
  Cl  Cl8  1  0.56208009  0.51216576  0.16365644  1
  Cl  Cl9  1  0.06208009  0.48783424  0.83634356  1
  Cl  Cl10  1  0.06208009  0.01216576  0.33634356  1
  Cl  Cl11  1  0.56208009  0.98783424  0.66365644  1
  Cl  Cl12  1  0.06297647  0.47171979  0.33440482  1
  Cl  Cl13  1  0.56297647  0.52828021  0.66559518  1
  Cl  Cl14  1  0.56297647  0.97171979  0.16559518  1
  Cl  Cl15  1  0.06297647  0.02828021  0.83440482  1
loop_
_geom_bond_atom_site_label_1
_geom_bond_atom_site_label_2
_geom_bond_distance
_geom_bond_site_symmetry_2
Al0 Cl14 2.150530 1_555
Al0 Cl8 2.151726 1_555
Al0 Cl5 2.151739 1_554
Al0 Cl0 2.154572 1_555
Al1 Cl15 2.150530 1_655
Al1 Cl9 2.151726 1_655
Al1 Cl4 2.151739 1_656
Al1 Cl1 2.154572 1_555
Al2 Cl12 2.150530 1_655
Al2 Cl10 2.151726 1_655
Al2 Cl7 2.151739 1_655
Al2 Cl2 2.154572 1_555
Al3 Cl13 2.150530 1_555
Al3 Cl11 2.151726 1_555
Al3 Cl6 2.151739 1_555
Al3 Cl3 2.154572 1_555
Cl0 Cu0 2.317317 1_455
Cl1 Cu1 2.317317 1_555
Cl2 Cu2 2.317317 1_545
Cl3 Cu3 2.317317 1_465
Cl4 Cu0 2.306507 1_455
Cl5 Cu1 2.306507 1_555
Cl6 Cu2 2.306507 1_555
Cl7 Cu3 2.306507 1_455
Cl8 Cu0 2.320544 1_555
Cl9 Cu1 2.320544 1_555
Cl10 Cu2 2.320544 1_545
Cl11 Cu3 2.320544 1_565
Cl12 Cu0 2.344372 1_455
Cl13 Cu1 2.344372 1_555
Cl14 Cu2 2.344372 1_555
Cl15 Cu3 2.344372 1_455
