# generated using pymatgen
data_MgAlNF6
_symmetry_space_group_name_H-M   'P 1'
_cell_length_a   7.16730832
_cell_length_b   8.35670391
_cell_length_c   7.01189994
_cell_angle_alpha   90.00000000
_cell_angle_beta   60.71471110
_cell_angle_gamma   125.65996687
_symmetry_Int_Tables_number   1
_chemical_formula_structural   MgAlNF6
_chemical_formula_sum   'Mg2 Al2 N2 F12'
_cell_volume   272.45736577
_cell_formula_units_Z   2
loop_
 _symmetry_equiv_pos_site_id
 _symmetry_equiv_pos_as_xyz
  1  'x, y, z'
loop_
 _atom_site_type_symbol
 _atom_site_label
 _atom_site_symmetry_multiplicity
 _atom_site_fract_x
 _atom_site_fract_y
 _atom_site_fract_z
 _atom_site_occupancy
  Mg  Mg0  1  0.50000000  0.50000000  0.00000000  1
  Mg  Mg1  1  0.50000000  0.00000000  0.00000000  1
  Al  Al0  1  0.00000000  0.00000000  0.50000000  1
  Al  Al1  1  0.00000000  0.00000000  0.00000000  1
  N  N0  1  0.91905100  0.45952500  0.29047500  1
  N  N1  1  0.08094900  0.54047500  0.70952500  1
  F  F0  1  0.12435000  0.06217500  0.68782500  1
  F  F1  1  0.21641700  0.60820800  0.14179200  1
  F  F2  1  0.73666100  0.02306000  0.07503600  1
  F  F3  1  0.73666100  0.71360100  0.68830300  1
  F  F4  1  0.73666100  0.71360100  0.07503600  1
  F  F5  1  0.73666100  0.02306000  0.68830300  1
  F  F6  1  0.87565000  0.93782500  0.31217500  1
  F  F7  1  0.78358300  0.39179200  0.85820800  1
  F  F8  1  0.26333900  0.97694000  0.92496400  1
  F  F9  1  0.26333900  0.28639900  0.31169700  1
  F  F10  1  0.26333900  0.28639900  0.92496400  1
  F  F11  1  0.26333900  0.97694000  0.31169700  1
loop_
_geom_bond_atom_site_label_1
_geom_bond_atom_site_label_2
_geom_bond_distance
_geom_bond_site_symmetry_2
Al0 F3 1.824530 1_445
Al0 F5 1.824530 1_455
Al0 F11 1.824530 1_545
Al0 F9 1.824530 1_555
Al0 F6 1.845868 1_445
Al0 F0 1.845868 1_555
Al1 F8 1.824530 1_544
Al1 F2 1.824530 1_455
Al1 F4 1.824530 1_445
Al1 F10 1.824530 1_554
Al1 F0 1.845868 1_554
Al1 F6 1.845868 1_445
F1 N0 1.382672 1_455
F1 Mg0 2.470487 1_555
F1 Mg1 2.470494 1_565
F2 Mg1 1.919147 1_555
F3 Mg0 1.919147 1_556
F4 Mg0 1.919147 1_555
F5 Mg1 1.919147 1_556
F7 N1 1.382672 1_655
F7 Mg0 2.470487 1_556
F7 Mg1 2.470494 1_556
F8 Mg1 1.919147 1_566
F9 Mg0 1.919147 1_555
F10 Mg0 1.919147 1_556
F11 Mg1 1.919147 1_565
