# generated using pymatgen
data_Tb3Co4Sn13
_symmetry_space_group_name_H-M   'P 1'
_cell_length_a   9.49961647
_cell_length_b   9.49961656
_cell_length_c   9.49961728
_cell_angle_alpha   89.99987925
_cell_angle_beta   89.99987913
_cell_angle_gamma   89.99988203
_symmetry_Int_Tables_number   1
_chemical_formula_structural   Tb3Co4Sn13
_chemical_formula_sum   'Tb6 Co8 Sn26'
_cell_volume   857.27124466
_cell_formula_units_Z   2
loop_
 _symmetry_equiv_pos_site_id
 _symmetry_equiv_pos_as_xyz
  1  'x, y, z'
loop_
 _atom_site_type_symbol
 _atom_site_label
 _atom_site_symmetry_multiplicity
 _atom_site_fract_x
 _atom_site_fract_y
 _atom_site_fract_z
 _atom_site_occupancy
  Tb  Tb0  1  -0.00000003  0.49999707  0.75000031  1
  Tb  Tb1  1  0.50000297  0.25000026  -0.00000068  1
  Tb  Tb2  1  0.75000012  0.00000274  0.49999769  1
  Tb  Tb3  1  0.99999692  0.50000034  0.24999967  1
  Tb  Tb4  1  0.50000008  0.74999971  0.00000231  1
  Tb  Tb5  1  0.24999988  -0.00000006  0.50000065  1
  Co  Co0  1  0.74999986  0.25000010  0.75000035  1
  Co  Co1  1  0.25000006  0.74999989  0.24999980  1
  Co  Co2  1  0.75000041  0.74999965  0.25000001  1
  Co  Co3  1  0.24999978  0.25000029  0.74999996  1
  Co  Co4  1  0.24999990  0.75000009  0.74999982  1
  Co  Co5  1  0.75000000  0.25000000  0.25000009  1
  Co  Co6  1  0.24999998  0.25000016  0.24999991  1
  Co  Co7  1  0.75000004  0.74999986  0.75000005  1
  Sn  Sn0  1  0.50000071  0.50000029  0.49999973  1
  Sn  Sn1  1  -0.00000071  -0.00000025  0.00000031  1
  Sn  Sn2  1  0.80398983  0.34217108  0.49999719  1
  Sn  Sn3  1  0.65782979  0.50000273  0.80399014  1
  Sn  Sn4  1  0.49999810  0.19600989  0.65782925  1
  Sn  Sn5  1  0.19600941  0.65782995  0.49999735  1
  Sn  Sn6  1  0.34217004  0.50000381  0.19601019  1
  Sn  Sn7  1  0.49999811  0.80398981  0.34217097  1
  Sn  Sn8  1  0.80398949  0.65783095  0.50000152  1
  Sn  Sn9  1  0.65782973  0.49999852  0.19600961  1
  Sn  Sn10  1  0.19600998  0.34217099  0.50000277  1
  Sn  Sn11  1  0.34217082  0.49999809  0.80399051  1
  Sn  Sn12  1  0.50000259  0.80398952  0.65782953  1
  Sn  Sn13  1  0.50000357  0.19601022  0.34217035  1
  Sn  Sn14  1  0.30399047  0.00000172  0.84217069  1
  Sn  Sn15  1  0.15782951  0.30399030  -0.00000285  1
  Sn  Sn16  1  0.00000207  0.15782871  0.69600976  1
  Sn  Sn17  1  0.69601022  0.00000166  0.15782978  1
  Sn  Sn18  1  0.84217043  0.69600982  0.99999847  1
  Sn  Sn19  1  0.00000174  0.84216947  0.30399008  1
  Sn  Sn20  1  0.30398988  -0.00000386  0.15782973  1
  Sn  Sn21  1  0.15782886  0.69600955  0.00000307  1
  Sn  Sn22  1  0.69601069  0.99999731  0.84216976  1
  Sn  Sn23  1  0.84217076  0.30399083  0.00000256  1
  Sn  Sn24  1  -0.00000349  0.15782943  0.30398966  1
  Sn  Sn25  1  0.99999742  0.84216936  0.69600991  1
loop_
_geom_bond_atom_site_label_1
_geom_bond_atom_site_label_2
_geom_bond_distance
_geom_bond_site_symmetry_2
Co0 Sn22 2.582627 1_545
Co0 Sn3 2.582629 1_555
Co0 Sn4 2.582630 1_555
Co0 Sn16 2.582630 1_655
Co0 Sn23 2.582634 1_556
Co0 Sn2 2.582636 1_555
Co0 Tb1 3.358590 1_556
Co0 Tb0 3.358605 1_655
Co0 Tb2 3.358625 1_555
Co1 Sn6 2.582571 1_555
Co1 Sn20 2.582573 1_565
Co1 Sn5 2.582585 1_555
Co1 Sn21 2.582586 1_555
Co1 Sn19 2.582589 1_555
Co1 Sn7 2.582597 1_555
Co1 Tb4 3.358601 1_555
Co1 Tb5 3.358631 1_565
Co1 Tb3 3.358643 1_455
Co2 Sn8 2.582614 1_555
Co2 Sn18 2.582619 1_554
Co2 Sn19 2.582621 1_655
Co2 Sn9 2.582623 1_555
Co2 Sn17 2.582624 1_565
Co2 Sn7 2.582628 1_555
Co2 Tb3 3.358590 1_555
Co2 Tb4 3.358612 1_555
Co2 Tb2 3.358630 1_565
Co3 Sn15 2.582583 1_556
Co3 Sn10 2.582584 1_555
Co3 Sn4 2.582593 1_555
Co3 Sn11 2.582595 1_555
Co3 Sn16 2.582596 1_555
Co3 Sn14 2.582596 1_555
Co3 Tb0 3.358595 1_555
Co3 Tb5 3.358623 1_555
Co3 Tb1 3.358642 1_556
Co4 Sn25 2.582625 1_455
Co4 Sn11 2.582627 1_555
Co4 Sn14 2.582628 1_565
Co4 Sn12 2.582629 1_555
Co4 Sn5 2.582633 1_555
Co4 Sn21 2.582638 1_556
Co4 Tb5 3.358612 1_565
Co4 Tb4 3.358643 1_556
Co4 Tb0 3.358645 1_555
Co5 Sn13 2.582575 1_555
Co5 Sn24 2.582577 1_655
Co5 Sn23 2.582587 1_555
Co5 Sn2 2.582588 1_555
Co5 Sn9 2.582594 1_555
Co5 Sn17 2.582596 1_555
Co5 Tb2 3.358584 1_555
Co5 Tb3 3.358607 1_555
Co5 Tb1 3.358611 1_555
Co6 Sn15 2.582634 1_555
Co6 Sn10 2.582635 1_555
Co6 Sn6 2.582639 1_555
Co6 Sn24 2.582640 1_555
Co6 Sn13 2.582640 1_555
Co6 Sn20 2.582643 1_555
Co6 Tb5 3.358625 1_555
Co6 Tb3 3.358640 1_455
Co6 Tb1 3.358642 1_555
Co7 Sn22 2.582583 1_555
Co7 Sn25 2.582583 1_555
Co7 Sn3 2.582583 1_555
Co7 Sn12 2.582586 1_555
Co7 Sn8 2.582590 1_555
Co7 Sn18 2.582595 1_555
Co7 Tb4 3.358633 1_556
Co7 Tb0 3.358636 1_655
Co7 Tb2 3.358653 1_565
Sn0 Sn2 3.253799 1_555
Sn0 Sn7 3.253800 1_555
Sn0 Sn9 3.253807 1_555
Sn0 Sn8 3.253808 1_555
Sn0 Sn12 3.253808 1_555
Sn0 Sn4 3.253811 1_555
Sn0 Sn13 3.253813 1_555
Sn0 Sn6 3.253815 1_555
Sn0 Sn3 3.253815 1_555
Sn0 Sn11 3.253816 1_555
Sn0 Sn10 3.253818 1_555
Sn0 Sn5 3.253819 1_555
Sn1 Sn17 3.253800 1_455
Sn1 Sn22 3.253806 1_444
Sn1 Sn24 3.253809 1_555
Sn1 Sn19 3.253809 1_545
Sn1 Sn21 3.253810 1_545
Sn1 Sn18 3.253810 1_444
Sn1 Sn16 3.253810 1_554
Sn1 Sn23 3.253812 1_455
Sn1 Sn20 3.253818 1_555
Sn1 Sn14 3.253818 1_554
Sn1 Sn25 3.253821 1_444
Sn1 Sn15 3.253821 1_555
Sn2 Sn8 2.998648 1_555
Sn2 Sn24 3.162377 1_655
Sn2 Tb2 3.290683 1_555
Sn2 Tb3 3.369719 1_555
Sn2 Tb0 3.369768 1_655
Sn3 Tb0 3.290699 1_655
Sn3 Tb4 3.369746 1_556
Sn3 Tb1 3.369753 1_556
Sn4 Tb1 3.290701 1_556
Sn4 Tb5 3.369746 1_555
Sn4 Tb2 3.369759 1_555
Sn5 Tb5 3.290700 1_565
Sn5 Tb3 3.369760 1_455
Sn5 Tb0 3.369783 1_555
Sn6 Sn9 2.998646 1_555
Sn6 Tb3 3.290726 1_455
Sn6 Tb4 3.369716 1_555
Sn6 Tb1 3.369797 1_555
Sn7 Tb4 3.290687 1_555
Sn7 Tb5 3.369741 1_565
Sn7 Tb2 3.369779 1_565
Sn8 Tb2 3.290713 1_565
Sn8 Tb3 3.369756 1_555
Sn8 Tb0 3.369767 1_655
Sn9 Tb3 3.290673 1_555
Sn9 Tb1 3.369740 1_555
Sn9 Tb4 3.369746 1_555
Sn10 Sn5 2.998639 1_555
Sn10 Sn16 3.162384 1_555
Sn10 Sn24 3.162455 1_555
Sn10 Tb5 3.290707 1_555
Sn10 Tb0 3.369722 1_555
Sn10 Tb3 3.369790 1_455
Sn11 Sn3 2.998639 1_555
Sn11 Sn15 3.162377 1_556
Sn11 Sn21 3.162434 1_556
Sn11 Tb0 3.290708 1_555
Sn11 Tb1 3.369742 1_556
Sn11 Tb4 3.369781 1_556
Sn12 Sn7 2.998636 1_555
Sn12 Sn22 3.162388 1_555
Sn12 Sn14 3.162431 1_565
Sn12 Tb4 3.290723 1_556
Sn12 Tb2 3.369764 1_565
Sn12 Tb5 3.369770 1_565
Sn13 Sn4 2.998639 1_555
Sn13 Sn17 3.162377 1_555
Sn13 Sn20 3.162457 1_555
Sn13 Tb1 3.290707 1_555
Sn13 Tb2 3.369707 1_555
Sn13 Tb5 3.369783 1_555
Sn14 Sn20 2.998640 1_556
Sn14 Sn4 3.162385 1_555
Sn14 Tb5 3.290701 1_555
Sn14 Tb1 3.369761 1_556
Sn14 Tb4 3.369772 1_546
Sn15 Sn23 2.998637 1_455
Sn15 Sn6 3.162449 1_555
Sn15 Tb1 3.290730 1_555
Sn15 Tb0 3.369715 1_554
Sn15 Tb3 3.369784 1_455
Sn16 Sn25 2.998643 1_445
Sn16 Sn2 3.162441 1_455
Sn16 Tb0 3.290685 1_555
Sn16 Tb5 3.369729 1_555
Sn16 Tb2 3.369771 1_455
Sn17 Sn22 2.998649 1_544
Sn17 Sn7 3.162430 1_545
Sn17 Tb2 3.290680 1_555
Sn17 Tb1 3.369732 1_555
Sn17 Tb4 3.369767 1_545
Sn18 Sn21 2.998634 1_656
Sn18 Sn3 3.162388 1_555
Sn18 Sn9 3.162418 1_556
Sn18 Tb4 3.290700 1_556
Sn18 Tb3 3.369745 1_556
Sn18 Tb0 3.369756 1_655
Sn19 Sn24 2.998649 1_565
Sn19 Sn5 3.162371 1_555
Sn19 Sn8 3.162414 1_455
Sn19 Tb3 3.290692 1_455
Sn19 Tb5 3.369756 1_565
Sn19 Tb2 3.369766 1_465
Sn20 Sn7 3.162377 1_545
Sn20 Tb5 3.290706 1_555
Sn20 Tb4 3.369721 1_545
Sn20 Tb1 3.369801 1_555
Sn21 Sn6 3.162367 1_555
Sn21 Tb4 3.290711 1_555
Sn21 Tb3 3.369735 1_455
Sn21 Tb0 3.369791 1_554
Sn22 Sn4 3.162433 1_565
Sn22 Tb2 3.290716 1_565
Sn22 Tb4 3.369754 1_556
Sn22 Tb1 3.369761 1_566
Sn23 Sn9 3.162377 1_555
Sn23 Sn3 3.162430 1_554
Sn23 Tb1 3.290679 1_555
Sn23 Tb3 3.369726 1_555
Sn23 Tb0 3.369746 1_654
Sn24 Tb3 3.290706 1_455
Sn24 Tb2 3.369706 1_455
Sn24 Tb5 3.369781 1_555
Sn25 Sn8 3.162381 1_555
Sn25 Sn5 3.162423 1_655
Sn25 Tb0 3.290719 1_655
Sn25 Tb2 3.369764 1_565
Sn25 Tb5 3.369770 1_665
