# generated using pymatgen
data_V2Fe3Ni(PO4)6
_symmetry_space_group_name_H-M   'P 1'
_cell_length_a   8.36875291
_cell_length_b   8.36875291
_cell_length_c   8.36875271
_cell_angle_alpha   62.34614096
_cell_angle_beta   62.34614096
_cell_angle_gamma   62.34613963
_symmetry_Int_Tables_number   1
_chemical_formula_structural   V2Fe3Ni(PO4)6
_chemical_formula_sum   'V2 Fe3 Ni1 P6 O24'
_cell_volume   436.13919631
_cell_formula_units_Z   1
loop_
 _symmetry_equiv_pos_site_id
 _symmetry_equiv_pos_as_xyz
  1  'x, y, z'
loop_
 _atom_site_type_symbol
 _atom_site_label
 _atom_site_symmetry_multiplicity
 _atom_site_fract_x
 _atom_site_fract_y
 _atom_site_fract_z
 _atom_site_occupancy
  V  V0  1  0.00159400  0.00159400  0.00159400  1
  V  V1  1  0.50082700  0.50082700  0.50082700  1
  Fe  Fe0  1  0.64682100  0.64682100  0.64682100  1
  Fe  Fe1  1  0.85387900  0.85387900  0.85387900  1
  Fe  Fe2  1  0.35241700  0.35241700  0.35241700  1
  Ni  Ni0  1  0.14507900  0.14507900  0.14507900  1
  P  P0  1  0.95178000  0.24946500  0.54719900  1
  P  P1  1  0.54719900  0.95178000  0.24946500  1
  P  P2  1  0.24946500  0.54719900  0.95178000  1
  P  P3  1  0.74960200  0.45156000  0.04842300  1
  P  P4  1  0.45156000  0.04842300  0.74960200  1
  P  P5  1  0.04842300  0.74960200  0.45156000  1
  O  O0  1  0.50666300  0.10689900  0.32378900  1
  O  O1  1  0.32378900  0.50666300  0.10689900  1
  O  O2  1  0.10689900  0.32378900  0.50666300  1
  O  O3  1  0.93758600  0.09778100  0.75560700  1
  O  O4  1  0.98798200  0.17531300  0.39748400  1
  O  O5  1  0.74695600  0.40361600  0.56732700  1
  O  O6  1  0.75560700  0.93758600  0.09778100  1
  O  O7  1  0.56732700  0.74695600  0.40361600  1
  O  O8  1  0.82452100  0.60674900  0.00527100  1
  O  O9  1  0.40361600  0.56732700  0.74695600  1
  O  O10  1  0.89996100  0.24671500  0.06039100  1
  O  O11  1  0.60674900  0.00527100  0.82452100  1
  O  O12  1  0.39748400  0.98798200  0.17531300  1
  O  O13  1  0.09778100  0.75560700  0.93758600  1
  O  O14  1  0.59740200  0.43685600  0.25218200  1
  O  O15  1  0.17531300  0.39748400  0.98798200  1
  O  O16  1  0.43685600  0.25218200  0.59740200  1
  O  O17  1  0.24671500  0.06039100  0.89996100  1
  O  O18  1  0.25218200  0.59740200  0.43685600  1
  O  O19  1  0.00527100  0.82452100  0.60674900  1
  O  O20  1  0.06039100  0.89996100  0.24671500  1
  O  O21  1  0.89392800  0.67299500  0.49736500  1
  O  O22  1  0.67299500  0.49736500  0.89392800  1
  O  O23  1  0.49736500  0.89392800  0.67299500  1
loop_
_geom_bond_atom_site_label_1
_geom_bond_atom_site_label_2
_geom_bond_distance
_geom_bond_site_symmetry_2
Fe0 O22 1.911569 1_555
Fe0 O23 1.911569 1_555
Fe0 O21 1.911569 1_555
Fe0 O7 2.107964 1_555
Fe0 O5 2.107964 1_555
Fe0 O9 2.107964 1_555
Fe1 O19 1.921797 1_655
Fe1 O11 1.921797 1_565
Fe1 O8 1.921797 1_556
Fe1 O6 2.137212 1_556
Fe1 O13 2.137212 1_655
Fe1 O3 2.137212 1_565
Fe2 O1 1.911352 1_555
Fe2 O0 1.911352 1_555
Fe2 O2 1.911352 1_555
Fe2 O16 2.145830 1_555
Fe2 O18 2.145830 1_555
Fe2 O14 2.145830 1_555
Ni0 O4 1.965665 1_455
Ni0 O12 1.965665 1_545
Ni0 O15 1.965665 1_554
Ni0 O17 2.145711 1_554
Ni0 O10 2.145711 1_455
Ni0 O20 2.145711 1_545
O0 P1 1.527100 1_545
O1 P2 1.527100 1_554
O2 P0 1.527100 1_455
O3 P0 1.599982 1_555
O3 V0 2.063467 1_656
O4 P0 1.497186 1_555
O5 P0 1.584882 1_555
O5 V1 2.074276 1_555
O6 P1 1.599982 1_555
O6 V0 2.063467 1_665
O7 P1 1.584882 1_555
O7 V1 2.074276 1_555
O8 P3 1.523339 1_555
O9 P2 1.584882 1_555
O9 V1 2.074276 1_555
O10 P3 1.577163 1_555
O10 V0 2.025462 1_655
O11 P4 1.523339 1_555
O12 P1 1.497186 1_555
O13 P2 1.599982 1_555
O13 V0 2.063467 1_566
O14 P3 1.574745 1_555
O14 V1 2.083523 1_555
O15 P2 1.497186 1_555
O16 P4 1.574745 1_555
O16 V1 2.083523 1_555
O17 P4 1.577163 1_555
O17 V0 2.025462 1_556
O18 P5 1.574745 1_555
O18 V1 2.083523 1_555
O19 P5 1.523339 1_555
O20 P5 1.577163 1_555
O20 V0 2.025462 1_565
O21 P5 1.520157 1_655
O22 P3 1.520157 1_556
O23 P4 1.520157 1_565
