# generated using pymatgen
data_NbIn(PbO3)2
_symmetry_space_group_name_H-M   'P 1'
_cell_length_a   5.87524559
_cell_length_b   5.87524559
_cell_length_c   5.87524559
_cell_angle_alpha   60.00000000
_cell_angle_beta   60.00000000
_cell_angle_gamma   60.00000000
_symmetry_Int_Tables_number   1
_chemical_formula_structural   NbIn(PbO3)2
_chemical_formula_sum   'Nb1 In1 Pb2 O6'
_cell_volume   143.40459866
_cell_formula_units_Z   1
loop_
 _symmetry_equiv_pos_site_id
 _symmetry_equiv_pos_as_xyz
  1  'x, y, z'
loop_
 _atom_site_type_symbol
 _atom_site_label
 _atom_site_symmetry_multiplicity
 _atom_site_fract_x
 _atom_site_fract_y
 _atom_site_fract_z
 _atom_site_occupancy
  Nb  Nb0  1  0.00000000  0.00000000  0.00000000  1
  In  In0  1  0.50000000  0.50000000  0.50000000  1
  Pb  Pb0  1  0.75000000  0.75000000  0.75000000  1
  Pb  Pb1  1  0.25000000  0.25000000  0.25000000  1
  O  O0  1  0.24151100  0.75848900  0.75848900  1
  O  O1  1  0.75848900  0.24151100  0.24151100  1
  O  O2  1  0.75848900  0.75848900  0.24151100  1
  O  O3  1  0.24151100  0.24151100  0.75848900  1
  O  O4  1  0.75848900  0.24151100  0.75848900  1
  O  O5  1  0.24151100  0.75848900  0.24151100  1
loop_
_geom_bond_atom_site_label_1
_geom_bond_atom_site_label_2
_geom_bond_distance
_geom_bond_site_symmetry_2
Nb0 O3 2.006679 1_554
Nb0 O5 2.006679 1_545
Nb0 O1 2.006679 1_455
Nb0 O4 2.006679 1_454
Nb0 O2 2.006679 1_445
Nb0 O0 2.006679 1_544
In0 O5 2.147747 1_555
In0 O3 2.147747 1_555
In0 O0 2.147747 1_555
In0 O2 2.147747 1_555
In0 O4 2.147747 1_555
In0 O1 2.147747 1_555
