# generated using pymatgen
data_Na2TbWO6
_symmetry_space_group_name_H-M   'P 1'
_cell_length_a   5.84924470
_cell_length_b   5.84924477
_cell_length_c   5.84924345
_cell_angle_alpha   60.00000668
_cell_angle_beta   60.00000788
_cell_angle_gamma   59.99998544
_symmetry_Int_Tables_number   1
_chemical_formula_structural   Na2TbWO6
_chemical_formula_sum   'Na2 Tb1 W1 O6'
_cell_volume   141.50907301
_cell_formula_units_Z   1
loop_
 _symmetry_equiv_pos_site_id
 _symmetry_equiv_pos_as_xyz
  1  'x, y, z'
loop_
 _atom_site_type_symbol
 _atom_site_label
 _atom_site_symmetry_multiplicity
 _atom_site_fract_x
 _atom_site_fract_y
 _atom_site_fract_z
 _atom_site_occupancy
  Na  Na0  1  0.25000000  0.25000000  0.25000000  1
  Na  Na1  1  0.75000000  0.75000000  0.75000000  1
  Tb  Tb0  1  0.00000000  0.00000000  -0.00000000  1
  W  W0  1  0.50000000  0.50000000  0.50000000  1
  O  O0  1  0.73104625  0.26895375  0.26895375  1
  O  O1  1  0.26895375  0.73104625  0.73104625  1
  O  O2  1  0.73104625  0.26895375  0.73104625  1
  O  O3  1  0.26895375  0.73104625  0.26895375  1
  O  O4  1  0.73104619  0.73104619  0.26895381  1
  O  O5  1  0.26895381  0.26895381  0.73104619  1
loop_
_geom_bond_atom_site_label_1
_geom_bond_atom_site_label_2
_geom_bond_distance
_geom_bond_site_symmetry_2
Na0 O5 2.928821 1_554
Na0 O4 2.928821 1_455
Na0 O4 2.928821 1_545
Na0 O5 2.928821 1_555
Na0 O1 2.928822 1_545
Na0 O0 2.928822 1_455
Na0 O0 2.928822 1_555
Na0 O1 2.928822 1_554
Na0 O2 2.928822 1_554
Na0 O2 2.928822 1_455
Na0 O3 2.928822 1_545
Na0 O3 2.928822 1_555
Na1 O4 2.928821 1_555
Na1 O5 2.928821 1_565
Na1 O4 2.928821 1_556
Na1 O5 2.928821 1_655
Na1 O1 2.928822 1_555
Na1 O0 2.928822 1_565
Na1 O1 2.928822 1_655
Na1 O0 2.928822 1_556
Na1 O2 2.928822 1_555
Na1 O3 2.928822 1_556
Na1 O2 2.928822 1_565
Na1 O3 2.928822 1_655
O0 W0 1.911233 1_555
O0 Tb0 2.224807 1_655
O1 W0 1.911233 1_555
O1 Tb0 2.224807 1_566
O2 W0 1.911233 1_555
O2 Tb0 2.224807 1_656
O3 W0 1.911233 1_555
O3 Tb0 2.224807 1_565
O4 W0 1.911233 1_555
O4 Tb0 2.224808 1_665
O5 W0 1.911233 1_555
O5 Tb0 2.224808 1_556
