# generated using pymatgen
data_SrZnFe(PO4)2
_symmetry_space_group_name_H-M   'P 1'
_cell_length_a   5.52889000
_cell_length_b   6.95250106
_cell_length_c   9.51713228
_cell_angle_alpha   107.53142054
_cell_angle_beta   105.54241252
_cell_angle_gamma   98.08322763
_symmetry_Int_Tables_number   1
_chemical_formula_structural   SrZnFe(PO4)2
_chemical_formula_sum   'Sr2 Zn2 Fe2 P4 O16'
_cell_volume   326.18704398
_cell_formula_units_Z   2
loop_
 _symmetry_equiv_pos_site_id
 _symmetry_equiv_pos_as_xyz
  1  'x, y, z'
loop_
 _atom_site_type_symbol
 _atom_site_label
 _atom_site_symmetry_multiplicity
 _atom_site_fract_x
 _atom_site_fract_y
 _atom_site_fract_z
 _atom_site_occupancy
  Sr  Sr0  1  0.79942800  0.25250400  0.05011800  1
  Sr  Sr1  1  0.20057200  0.74749600  0.94988200  1
  Zn  Zn0  1  0.64502300  0.26128100  0.64147900  1
  Zn  Zn1  1  0.35497700  0.73871900  0.35852100  1
  Fe  Fe0  1  0.92906100  0.71223000  0.55510000  1
  Fe  Fe1  1  0.07093900  0.28777000  0.44490000  1
  P  P0  1  0.83890500  0.80982600  0.22964800  1
  P  P1  1  0.16109500  0.19017400  0.77035200  1
  P  P2  1  0.45604500  0.27752200  0.30007100  1
  P  P3  1  0.54395500  0.72247800  0.69992900  1
  O  O0  1  0.09552700  0.34077100  0.90235600  1
  O  O1  1  0.54922500  0.73919200  0.21387900  1
  O  O2  1  0.10346900  0.96425200  0.76573900  1
  O  O3  1  0.74209700  0.57862300  0.69301600  1
  O  O4  1  0.45077500  0.26080800  0.78612100  1
  O  O5  1  0.57812900  0.83454500  0.58235800  1
  O  O6  1  0.42187100  0.16545500  0.41764200  1
  O  O7  1  0.61110800  0.87067500  0.86697700  1
  O  O8  1  0.89653100  0.03574800  0.23426100  1
  O  O9  1  0.38889200  0.12932500  0.13302300  1
  O  O10  1  0.90447300  0.65922900  0.09764400  1
  O  O11  1  0.02370300  0.80166400  0.38663200  1
  O  O12  1  0.97629700  0.19833600  0.61336800  1
  O  O13  1  0.73967000  0.41324100  0.36110500  1
  O  O14  1  0.25790300  0.42137700  0.30698400  1
  O  O15  1  0.26033000  0.58675900  0.63889500  1
loop_
_geom_bond_atom_site_label_1
_geom_bond_atom_site_label_2
_geom_bond_distance
_geom_bond_site_symmetry_2
Fe0 O11 2.046905 1_655
Fe0 O2 2.095581 1_655
Fe0 O15 2.199365 1_655
Fe0 O3 2.201330 1_555
Fe0 O13 2.205886 1_555
Fe0 O5 2.270671 1_555
Fe1 O12 2.046905 1_455
Fe1 O8 2.095581 1_455
Fe1 O13 2.199365 1_455
Fe1 O14 2.201330 1_555
Fe1 O15 2.205886 1_555
Fe1 O6 2.270671 1_555
O0 P1 1.537635 1_555
O0 Sr0 2.550575 1_456
O0 Sr1 2.676734 1_555
O1 P0 1.560268 1_555
O1 Zn1 1.960209 1_555
O1 Sr1 2.748641 1_554
O2 P1 1.542994 1_565
O2 Sr1 2.635335 1_555
O3 P3 1.584890 1_555
O3 Zn0 2.066504 1_555
O3 Sr1 2.809480 1_655
O4 P1 1.560268 1_555
O4 Zn0 1.960209 1_555
O4 Sr0 2.748641 1_556
O5 P3 1.578583 1_555
O5 Zn1 2.002368 1_555
O6 P2 1.578583 1_555
O6 Zn0 2.002368 1_555
O7 P3 1.521909 1_555
O7 Sr0 2.575243 1_566
O7 Sr1 2.707064 1_555
O8 P0 1.542994 1_545
O8 Sr0 2.635335 1_555
O9 P2 1.521909 1_555
O9 Sr1 2.575243 1_544
O9 Sr0 2.707064 1_555
O10 P0 1.537635 1_555
O10 Sr1 2.550575 1_654
O10 Sr0 2.676734 1_555
O11 P0 1.590164 1_455
O11 Zn1 2.008792 1_555
O12 P1 1.590164 1_655
O12 Zn0 2.008792 1_555
O13 P2 1.565993 1_555
O13 Sr0 2.958564 1_555
O14 P2 1.584890 1_555
O14 Zn1 2.066504 1_555
O14 Sr0 2.809480 1_455
O15 P3 1.565993 1_555
O15 Sr1 2.958564 1_555
