# generated using pymatgen
data_Mg6CrCuO8
_symmetry_space_group_name_H-M   'P 1'
_cell_length_a   8.73973437
_cell_length_b   4.23354668
_cell_length_c   4.23354668
_cell_angle_alpha   90.00000000
_cell_angle_beta   90.00000000
_cell_angle_gamma   90.00000000
_symmetry_Int_Tables_number   1
_chemical_formula_structural   Mg6CrCuO8
_chemical_formula_sum   'Mg6 Cr1 Cu1 O8'
_cell_volume   156.64153801
_cell_formula_units_Z   1
loop_
 _symmetry_equiv_pos_site_id
 _symmetry_equiv_pos_as_xyz
  1  'x, y, z'
loop_
 _atom_site_type_symbol
 _atom_site_label
 _atom_site_symmetry_multiplicity
 _atom_site_fract_x
 _atom_site_fract_y
 _atom_site_fract_z
 _atom_site_occupancy
  Mg  Mg0  1  0.00000000  0.50000000  0.50000000  1
  Mg  Mg1  1  0.50000000  0.50000000  0.50000000  1
  Mg  Mg2  1  0.24385678  0.00000000  0.50000000  1
  Mg  Mg3  1  0.75614322  0.00000000  0.50000000  1
  Mg  Mg4  1  0.24385678  0.50000000  0.00000000  1
  Mg  Mg5  1  0.75614322  0.50000000  0.00000000  1
  Cr  Cr0  1  0.50000000  0.00000000  0.00000000  1
  Cu  Cu0  1  0.00000000  0.00000000  0.00000000  1
  O  O0  1  0.26949219  0.00000000  0.00000000  1
  O  O1  1  0.73050781  0.00000000  0.00000000  1
  O  O2  1  0.24998637  0.50000000  0.50000000  1
  O  O3  1  0.75001363  0.50000000  0.50000000  1
  O  O4  1  0.00000000  0.00000000  0.50000000  1
  O  O5  1  0.50000000  0.00000000  0.50000000  1
  O  O6  1  0.00000000  0.50000000  0.00000000  1
  O  O7  1  0.50000000  0.50000000  0.00000000  1
loop_
_geom_bond_atom_site_label_1
_geom_bond_atom_site_label_2
_geom_bond_distance
_geom_bond_site_symmetry_2
Mg0 O4 2.116773 1_555
Mg0 O4 2.116773 1_565
Mg0 O6 2.116773 1_556
Mg0 O6 2.116773 1_555
Mg0 O2 2.184814 1_555
Mg0 O3 2.184814 1_455
Mg1 O7 2.116773 1_555
Mg1 O7 2.116773 1_556
Mg1 O5 2.116773 1_555
Mg1 O5 2.116773 1_565
Mg1 O2 2.185053 1_555
Mg1 O3 2.185053 1_555
Mg2 O2 2.117451 1_555
Mg2 O2 2.117451 1_545
Mg2 O0 2.128597 1_556
Mg2 O0 2.128597 1_555
Mg2 O4 2.131243 1_555
Mg2 O5 2.238624 1_555
Mg3 O3 2.117451 1_545
Mg3 O3 2.117451 1_555
Mg3 O1 2.128597 1_555
Mg3 O1 2.128597 1_556
Mg3 O4 2.131243 1_655
Mg3 O5 2.238624 1_555
Mg4 O2 2.117451 1_554
Mg4 O2 2.117451 1_555
Mg4 O0 2.128597 1_565
Mg4 O0 2.128597 1_555
Mg4 O6 2.131243 1_555
Mg4 O7 2.238624 1_555
Mg5 O3 2.117451 1_555
Mg5 O3 2.117451 1_554
Mg5 O1 2.128597 1_555
Mg5 O1 2.128597 1_565
Mg5 O6 2.131243 1_655
Mg5 O7 2.238624 1_555
Cr0 O0 2.014577 1_555
Cr0 O1 2.014577 1_555
Cr0 O7 2.116773 1_555
Cr0 O5 2.116773 1_554
Cr0 O5 2.116773 1_555
Cr0 O7 2.116773 1_545
Cu0 O4 2.116773 1_555
Cu0 O4 2.116773 1_554
Cu0 O6 2.116773 1_545
Cu0 O6 2.116773 1_555
Cu0 O0 2.355290 1_555
Cu0 O1 2.355290 1_455
