# generated using pymatgen
data_InNi2Sn
_symmetry_space_group_name_H-M   'P 1'
_cell_length_a   4.36868701
_cell_length_b   5.17855887
_cell_length_c   9.02299936
_cell_angle_alpha   90.00000000
_cell_angle_beta   90.00000000
_cell_angle_gamma   90.00000000
_symmetry_Int_Tables_number   1
_chemical_formula_structural   InNi2Sn
_chemical_formula_sum   'In3 Ni6 Sn3'
_cell_volume   204.13185188
_cell_formula_units_Z   3
loop_
 _symmetry_equiv_pos_site_id
 _symmetry_equiv_pos_as_xyz
  1  'x, y, z'
loop_
 _atom_site_type_symbol
 _atom_site_label
 _atom_site_symmetry_multiplicity
 _atom_site_fract_x
 _atom_site_fract_y
 _atom_site_fract_z
 _atom_site_occupancy
  In  In0  1  0.50000000  0.50000000  0.33253201  1
  In  In1  1  0.50000000  0.00000000  0.83521043  1
  In  In2  1  0.50000000  0.00000000  0.16633278  1
  Ni  Ni0  1  -0.00000000  0.50000000  0.50134354  1
  Ni  Ni1  1  0.00000000  0.00000000  0.00009153  1
  Ni  Ni2  1  0.00000000  0.74988365  0.25051752  1
  Ni  Ni3  1  0.00000000  0.25106616  0.74877841  1
  Ni  Ni4  1  -0.00000000  0.25011635  0.25051752  1
  Ni  Ni5  1  -0.00000000  0.74893384  0.74877841  1
  Sn  Sn0  1  0.50000000  0.50000000  0.66638606  1
  Sn  Sn1  1  0.00000000  0.50000000  0.00160405  1
  Sn  Sn2  1  -0.00000000  0.00000000  0.49795372  1
loop_
_geom_bond_atom_site_label_1
_geom_bond_atom_site_label_2
_geom_bond_distance
_geom_bond_site_symmetry_2
In0 Ni2 2.644525 1_555
In0 Ni4 2.644525 1_655
In0 Ni2 2.644525 1_655
In0 Ni4 2.644525 1_555
In0 Ni0 2.662978 1_555
In0 Ni0 2.662978 1_655
In0 In2 2.992192 1_565
In0 In2 2.992192 1_555
In0 Sn0 3.012365 1_555
In1 Ni1 2.642853 1_656
In1 Ni1 2.642853 1_556
In1 Ni3 2.658944 1_555
In1 Ni3 2.658944 1_655
In1 Ni5 2.658944 1_645
In1 Ni5 2.658944 1_545
In1 In2 2.987717 1_556
In1 Sn0 3.004133 1_545
In1 Sn0 3.004133 1_555
In2 Ni1 2.649781 1_655
In2 Ni1 2.649781 1_555
In2 Ni2 2.650660 1_545
In2 Ni4 2.650660 1_555
In2 Ni2 2.650660 1_645
In2 Ni4 2.650660 1_655
Ni0 Ni5 2.578052 1_555
Ni0 Ni3 2.578052 1_555
Ni0 Sn2 2.589460 1_555
Ni0 Sn2 2.589460 1_565
Ni0 Ni2 2.607033 1_555
Ni0 Ni4 2.607033 1_555
Ni0 Sn0 2.643673 1_555
Ni0 Sn0 2.643673 1_455
Ni1 Sn1 2.589315 1_545
Ni1 Sn1 2.589315 1_555
Ni1 Ni4 2.604499 1_555
Ni1 Ni2 2.604499 1_545
Ni1 Ni3 2.613890 1_554
Ni1 Ni5 2.613890 1_544
Ni2 Sn2 2.581130 1_565
Ni2 Ni4 2.588074 1_555
Ni2 Ni4 2.590484 1_565
Ni2 Sn1 2.592066 1_555
Ni3 Ni5 2.578237 1_555
Ni3 Ni5 2.600322 1_545
Ni3 Sn2 2.610067 1_555
Ni3 Sn1 2.620288 1_556
Ni3 Sn0 2.643079 1_555
Ni3 Sn0 2.643079 1_455
Ni4 Sn2 2.581130 1_555
Ni4 Sn1 2.592066 1_555
Ni5 Sn2 2.610067 1_565
Ni5 Sn1 2.620288 1_556
Ni5 Sn0 2.643079 1_555
Ni5 Sn0 2.643079 1_455
