# generated using pymatgen
data_Zr6Ga2FeH10
_symmetry_space_group_name_H-M   'P 1'
_cell_length_a   8.06432448
_cell_length_b   8.06432448
_cell_length_c   7.16561000
_cell_angle_alpha   90.00000000
_cell_angle_beta   90.00000000
_cell_angle_gamma   120.00000392
_symmetry_Int_Tables_number   1
_chemical_formula_structural   Zr6Ga2FeH10
_chemical_formula_sum   'Zr12 Ga4 Fe2 H20'
_cell_volume   403.57083135
_cell_formula_units_Z   2
loop_
 _symmetry_equiv_pos_site_id
 _symmetry_equiv_pos_as_xyz
  1  'x, y, z'
loop_
 _atom_site_type_symbol
 _atom_site_label
 _atom_site_symmetry_multiplicity
 _atom_site_fract_x
 _atom_site_fract_y
 _atom_site_fract_z
 _atom_site_occupancy
  Zr  Zr0  1  0.74041300  0.00000000  0.00000000  1
  Zr  Zr1  1  0.00000000  0.74041300  0.00000000  1
  Zr  Zr2  1  0.74041300  0.00000000  0.50000000  1
  Zr  Zr3  1  0.25958700  0.25958700  0.00000000  1
  Zr  Zr4  1  0.00000000  0.74041300  0.50000000  1
  Zr  Zr5  1  0.25958700  0.25958700  0.50000000  1
  Zr  Zr6  1  0.42586400  0.04727200  0.25000000  1
  Zr  Zr7  1  0.95272800  0.37859200  0.25000000  1
  Zr  Zr8  1  0.04727200  0.42586400  0.75000000  1
  Zr  Zr9  1  0.62140800  0.57413600  0.25000000  1
  Zr  Zr10  1  0.37859200  0.95272800  0.75000000  1
  Zr  Zr11  1  0.57413600  0.62140800  0.75000000  1
  Ga  Ga0  1  0.33333300  0.66666700  0.05048900  1
  Ga  Ga1  1  0.33333300  0.66666700  0.44951100  1
  Ga  Ga2  1  0.66666700  0.33333300  0.94951100  1
  Ga  Ga3  1  0.66666700  0.33333300  0.55048900  1
  Fe  Fe0  1  0.00000000  0.00000000  0.25000000  1
  Fe  Fe1  1  0.00000000  0.00000000  0.75000000  1
  H  H0  1  0.28191600  0.00000000  0.00000000  1
  H  H1  1  0.00000000  0.28191600  0.00000000  1
  H  H2  1  0.28191600  0.00000000  0.50000000  1
  H  H3  1  0.71808400  0.71808400  0.00000000  1
  H  H4  1  0.00000000  0.28191600  0.50000000  1
  H  H5  1  0.71808400  0.71808400  0.50000000  1
  H  H6  1  0.40809000  0.29109200  0.25000000  1
  H  H7  1  0.70890800  0.11699800  0.25000000  1
  H  H8  1  0.29109200  0.40809000  0.75000000  1
  H  H9  1  0.88300200  0.59191000  0.25000000  1
  H  H10  1  0.11699800  0.70890800  0.75000000  1
  H  H11  1  0.59191000  0.88300200  0.75000000  1
  H  H12  1  0.11821800  0.23873800  0.25000000  1
  H  H13  1  0.76126200  0.87948000  0.25000000  1
  H  H14  1  0.23873800  0.11821800  0.75000000  1
  H  H15  1  0.12052000  0.88178200  0.25000000  1
  H  H16  1  0.87948000  0.76126200  0.75000000  1
  H  H17  1  0.88178200  0.12052000  0.75000000  1
  H  H18  1  0.00000000  0.00000000  0.00000000  1
  H  H19  1  0.00000000  0.00000000  0.50000000  1
loop_
_geom_bond_atom_site_label_1
_geom_bond_atom_site_label_2
_geom_bond_distance
_geom_bond_site_symmetry_2
Ga0 Ga1 2.859236 1_555
Ga0 Zr10 3.041248 1_554
Ga0 Zr8 3.041250 1_554
Ga0 Zr11 3.041253 1_554
Ga0 Zr1 3.051087 1_555
Ga0 Zr0 3.051091 1_565
Ga0 Zr3 3.051094 1_555
Ga0 Zr6 3.119460 1_565
Ga0 Zr7 3.119462 1_455
Ga0 Zr9 3.119467 1_555
Ga1 Zr10 3.041248 1_555
Ga1 Zr8 3.041250 1_555
Ga1 Zr11 3.041253 1_555
Ga1 Zr4 3.051087 1_555
Ga1 Zr2 3.051091 1_565
Ga1 Zr5 3.051094 1_555
Ga1 Zr6 3.119460 1_565
Ga1 Zr7 3.119462 1_455
Ga1 Zr9 3.119467 1_555
Ga2 Ga3 2.859236 1_555
Ga2 Zr7 3.041248 1_556
Ga2 Zr6 3.041250 1_556
Ga2 Zr9 3.041253 1_556
Ga2 Zr0 3.051087 1_556
Ga2 Zr1 3.051091 1_656
Ga2 Zr3 3.051094 1_556
Ga2 Zr8 3.119460 1_655
Ga2 Zr10 3.119462 1_545
Ga2 Zr11 3.119467 1_555
Ga3 Zr7 3.041248 1_555
Ga3 Zr6 3.041250 1_555
Ga3 Zr9 3.041253 1_555
Ga3 Zr2 3.051087 1_555
Ga3 Zr4 3.051091 1_655
Ga3 Zr5 3.051094 1_555
Ga3 Zr8 3.119460 1_655
Ga3 Zr10 3.119462 1_545
Ga3 Zr11 3.119467 1_555
Fe0 H13 1.667350 1_445
Fe0 H12 1.667350 1_555
Fe0 H15 1.667351 1_545
Fe0 H19 1.791403 1_555
Fe0 H18 1.791403 1_555
Fe1 H16 1.667350 1_445
Fe1 H14 1.667350 1_555
Fe1 H17 1.667351 1_455
Fe1 H18 1.791403 1_556
Fe1 H19 1.791403 1_555
H0 Zr6 2.063849 1_555
H0 Zr10 2.063849 1_544
H0 Zr1 2.188990 1_545
H0 Zr3 2.188990 1_555
H1 Zr8 2.063849 1_554
H1 Zr7 2.063849 1_455
H1 Zr0 2.188990 1_455
H1 Zr3 2.188990 1_555
H2 Zr6 2.063849 1_555
H2 Zr10 2.063849 1_545
H2 Zr4 2.188990 1_545
H2 Zr5 2.188990 1_555
H3 Zr11 2.063849 1_554
H3 Zr9 2.063849 1_555
H3 Zr0 2.188990 1_565
H3 Zr1 2.188990 1_655
H4 Zr8 2.063849 1_555
H4 Zr7 2.063849 1_455
H4 Zr2 2.188990 1_455
H4 Zr5 2.188990 1_555
H5 Zr11 2.063849 1_555
H5 Zr9 2.063849 1_555
H5 Zr4 2.188990 1_655
H5 Zr2 2.188990 1_565
H6 Zr6 2.041688 1_555
H6 Zr9 2.059801 1_555
H6 Zr5 2.098475 1_555
H6 Zr3 2.098475 1_555
H7 Zr7 2.041688 1_555
H7 Zr6 2.059801 1_555
H7 Zr2 2.098475 1_555
H7 Zr0 2.098475 1_555
H8 Zr8 2.041688 1_555
H8 Zr11 2.059801 1_555
H8 Zr3 2.098475 1_556
H8 Zr5 2.098475 1_555
H9 Zr9 2.041688 1_555
H9 Zr7 2.059801 1_555
H9 Zr4 2.098475 1_655
H9 Zr1 2.098475 1_655
H10 Zr10 2.041688 1_555
H10 Zr8 2.059801 1_555
H10 Zr4 2.098475 1_555
H10 Zr1 2.098475 1_556
H11 Zr11 2.041688 1_555
H11 Zr10 2.059801 1_555
H11 Zr2 2.098475 1_565
H11 Zr0 2.098475 1_566
H12 Zr5 2.084566 1_555
H12 Zr3 2.084566 1_555
H12 Zr7 2.134999 1_455
H13 Zr2 2.084566 1_565
H13 Zr0 2.084566 1_565
H13 Zr9 2.134999 1_555
H14 Zr5 2.084566 1_555
H14 Zr3 2.084566 1_556
H14 Zr10 2.134999 1_545
H15 Zr1 2.084566 1_555
H15 Zr4 2.084566 1_555
H15 Zr6 2.134999 1_565
H16 Zr4 2.084566 1_655
H16 Zr1 2.084566 1_656
H16 Zr11 2.134999 1_555
H17 Zr2 2.084566 1_555
H17 Zr0 2.084566 1_556
H17 Zr8 2.134999 1_655
H18 Zr3 2.093394 1_555
H18 Zr0 2.093394 1_455
H18 Zr1 2.093394 1_545
H19 Zr5 2.093394 1_555
H19 Zr4 2.093394 1_545
H19 Zr2 2.093394 1_455
