# generated using pymatgen
data_GdPS4
_symmetry_space_group_name_H-M   'P 1'
_cell_length_a   12.25050625
_cell_length_b   12.25050625
_cell_length_c   12.25050469
_cell_angle_alpha   127.68713898
_cell_angle_beta   127.68715378
_cell_angle_gamma   77.13239854
_symmetry_Int_Tables_number   1
_chemical_formula_structural   GdPS4
_chemical_formula_sum   'Gd8 P8 S32'
_cell_volume   1117.36744891
_cell_formula_units_Z   8
loop_
 _symmetry_equiv_pos_site_id
 _symmetry_equiv_pos_as_xyz
  1  'x, y, z'
loop_
 _atom_site_type_symbol
 _atom_site_label
 _atom_site_symmetry_multiplicity
 _atom_site_fract_x
 _atom_site_fract_y
 _atom_site_fract_z
 _atom_site_occupancy
  Gd  Gd0  1  0.25000045  0.25000045  0.00000000  1
  Gd  Gd1  1  0.74999974  0.74999974  0.00000000  1
  Gd  Gd2  1  0.49999955  0.99999955  0.50000000  1
  Gd  Gd3  1  0.00000040  0.50000040  0.50000000  1
  Gd  Gd4  1  0.00000005  0.00000005  0.00000000  1
  Gd  Gd5  1  0.49999985  0.49999985  0.00000000  1
  Gd  Gd6  1  0.25000015  0.75000015  0.50000000  1
  Gd  Gd7  1  0.74999987  0.24999987  0.50000000  1
  P  P0  1  0.16262382  0.87500044  0.78762429  1
  P  P1  1  0.66262388  0.87500026  0.28762422  1
  P  P2  1  0.12499998  0.91262400  0.28762355  1
  P  P3  1  0.62499998  0.33737568  0.21237601  1
  P  P4  1  0.58737604  0.37499965  0.71237578  1
  P  P5  1  0.08737615  0.37499952  0.21237571  1
  P  P6  1  0.12499968  0.41262397  0.78762399  1
  P  P7  1  0.62500045  0.83737643  0.71237645  1
  S  S0  1  0.54035684  0.35350663  0.32025245  1
  S  S1  1  0.04035781  0.72010546  0.18685088  1
  S  S2  1  0.60350689  0.29035668  0.82025246  1
  S  S3  1  0.10350646  0.28325278  0.31314840  1
  S  S4  1  0.20964283  0.89649384  0.17974713  1
  S  S5  1  0.70964290  0.52989536  0.31315165  1
  S  S6  1  0.14649347  0.95964301  0.67974747  1
  S  S7  1  0.64649317  0.96674653  0.18685081  1
  S  S8  1  0.53325358  0.85350694  0.81314912  1
  S  S9  1  0.03325418  0.22010539  0.67974755  1
  S  S10  1  0.97010538  0.79035806  0.68685160  1
  S  S11  1  0.47010522  0.78325443  0.17974754  1
  S  S12  1  0.21674471  0.39649125  0.68684835  1
  S  S13  1  0.71674671  0.02989470  0.82025287  1
  S  S14  1  0.77989472  0.45964235  0.81314919  1
  S  S15  1  0.27989454  0.46674601  0.32025253  1
  S  S16  1  0.46208628  0.23520247  0.95322730  1
  S  S17  1  0.96208594  0.00885804  0.22688155  1
  S  S18  1  0.48520238  0.21208584  0.45322706  1
  S  S19  1  0.98520293  0.53197565  0.27311760  1
  S  S20  1  0.28791406  0.01479675  0.54677229  1
  S  S21  1  0.78791411  0.24114182  0.27311732  1
  S  S22  1  0.26479636  0.03791426  0.04677265  1
  S  S23  1  0.76479794  0.71802488  0.22688337  1
  S  S24  1  0.78197648  0.73520339  0.77311845  1
  S  S25  1  0.28197517  0.50885798  0.04677270  1
  S  S26  1  0.25885805  0.71208633  0.72688240  1
  S  S27  1  0.75885778  0.03197532  0.54677294  1
  S  S28  1  0.96802450  0.51479780  0.72688268  1
  S  S29  1  0.46802446  0.74114277  0.45322771  1
  S  S30  1  0.49114151  0.53791357  0.77311663  1
  S  S31  1  0.99114261  0.21802372  0.95322735  1
loop_
_geom_bond_atom_site_label_1
_geom_bond_atom_site_label_2
_geom_bond_distance
_geom_bond_site_symmetry_2
Gd0 S0 2.918145 1_555
Gd0 S9 2.918151 1_554
Gd0 S6 2.918151 1_544
Gd0 S15 2.918157 1_555
Gd0 S25 2.931723 1_555
Gd0 S31 2.931734 1_454
Gd0 S16 2.931736 1_554
Gd0 S22 2.931746 1_555
Gd1 S14 2.918151 1_554
Gd1 S1 2.918153 1_655
Gd1 S7 2.918155 1_555
Gd1 S8 2.918158 1_554
Gd1 S23 2.931730 1_555
Gd1 S24 2.931736 1_554
Gd1 S30 2.931736 1_554
Gd1 S17 2.931743 1_565
Gd2 S2 2.918148 1_565
Gd2 S4 2.918149 1_555
Gd2 S11 2.918154 1_555
Gd2 S13 2.918155 1_565
Gd2 S29 2.931718 1_555
Gd2 S20 2.931730 1_565
Gd2 S27 2.931734 1_565
Gd2 S18 2.931746 1_565
Gd3 S5 2.918148 1_455
Gd3 S12 2.918152 1_555
Gd3 S10 2.918155 1_455
Gd3 S3 2.918159 1_555
Gd3 S19 2.931726 1_455
Gd3 S26 2.931733 1_555
Gd3 S28 2.931736 1_455
Gd3 S21 2.931742 1_455
Gd4 S3 2.846266 1_555
Gd4 S13 2.846268 1_454
Gd4 S10 2.846272 1_444
Gd4 S4 2.846272 1_545
Gd4 S17 3.023220 1_455
Gd4 S22 3.023225 1_555
Gd4 S31 3.023228 1_454
Gd4 S24 3.023229 1_444
Gd5 S11 2.846280 1_555
Gd5 S2 2.846284 1_554
Gd5 S12 2.846290 1_554
Gd5 S5 2.846296 1_555
Gd5 S16 3.023235 1_554
Gd5 S30 3.023236 1_554
Gd5 S25 3.023239 1_555
Gd5 S23 3.023245 1_555
Gd6 S8 2.846272 1_555
Gd6 S15 2.846275 1_555
Gd6 S1 2.846278 1_555
Gd6 S6 2.846279 1_555
Gd6 S26 3.023228 1_555
Gd6 S20 3.023230 1_565
Gd6 S29 3.023233 1_555
Gd6 S19 3.023237 1_455
Gd7 S7 2.846272 1_545
Gd7 S9 2.846276 1_655
Gd7 S14 2.846278 1_555
Gd7 S0 2.846280 1_555
Gd7 S21 3.023234 1_555
Gd7 S18 3.023236 1_555
Gd7 S27 3.023240 1_555
Gd7 S28 3.023243 1_555
P0 S10 2.031162 1_455
P0 S6 2.031172 1_555
P0 S22 2.033599 1_566
P0 S26 2.033601 1_555
P1 S11 2.031161 1_555
P1 S7 2.031173 1_555
P1 S27 2.033602 1_565
P1 S23 2.033608 1_555
P2 S1 2.031162 1_555
P2 S4 2.031172 1_555
P2 S17 2.033599 1_465
P2 S20 2.033602 1_565
P3 S5 2.031163 1_555
P3 S0 2.031171 1_555
P3 S21 2.033597 1_555
P3 S16 2.033600 1_554
P4 S14 2.031162 1_555
P4 S2 2.031172 1_555
P4 S30 2.033600 1_555
P4 S18 2.033600 1_555
P5 S15 2.031161 1_555
P5 S3 2.031173 1_555
P5 S31 2.033601 1_454
P5 S19 2.033609 1_455
P6 S9 2.031160 1_555
P6 S12 2.031174 1_555
P6 S25 2.033602 1_556
P6 S28 2.033605 1_455
P7 S13 2.031161 1_565
P7 S8 2.031173 1_555
P7 S29 2.033604 1_555
P7 S24 2.033606 1_555
