# generated using pymatgen
data_Eu(MgAs)2
_symmetry_space_group_name_H-M   'P 1'
_cell_length_a   4.39135612
_cell_length_b   4.39135612
_cell_length_c   7.27523460
_cell_angle_alpha   90.00000000
_cell_angle_beta   90.00000000
_cell_angle_gamma   120.00000599
_symmetry_Int_Tables_number   1
_chemical_formula_structural   Eu(MgAs)2
_chemical_formula_sum   'Eu1 Mg2 As2'
_cell_volume   121.49962100
_cell_formula_units_Z   1
loop_
 _symmetry_equiv_pos_site_id
 _symmetry_equiv_pos_as_xyz
  1  'x, y, z'
loop_
 _atom_site_type_symbol
 _atom_site_label
 _atom_site_symmetry_multiplicity
 _atom_site_fract_x
 _atom_site_fract_y
 _atom_site_fract_z
 _atom_site_occupancy
  Eu  Eu0  1  -0.00000000  0.00000000  0.00000000  1
  Mg  Mg0  1  0.33333300  0.66666700  0.63205751  1
  Mg  Mg1  1  0.66666700  0.33333300  0.36794249  1
  As  As0  1  0.33333300  0.66666700  0.25711929  1
  As  As1  1  0.66666700  0.33333300  0.74288071  1
loop_
_geom_bond_atom_site_label_1
_geom_bond_atom_site_label_2
_geom_bond_distance
_geom_bond_site_symmetry_2
As0 Mg1 2.660461 1_455
As0 Mg1 2.660461 1_565
As0 Mg1 2.660468 1_555
As0 Mg0 2.727764 1_555
As0 Eu0 3.150737 1_565
As0 Eu0 3.150740 1_665
As0 Eu0 3.150740 1_555
As1 Mg0 2.660461 1_545
As1 Mg0 2.660461 1_655
As1 Mg0 2.660468 1_555
As1 Mg1 2.727764 1_555
As1 Eu0 3.150737 1_656
As1 Eu0 3.150740 1_666
As1 Eu0 3.150740 1_556
