# generated using pymatgen
data_YbFe4(CuO4)3
_symmetry_space_group_name_H-M   'P 1'
_cell_length_a   6.42700488
_cell_length_b   6.42700488
_cell_length_c   6.42700488
_cell_angle_alpha   109.47122063
_cell_angle_beta   109.47122063
_cell_angle_gamma   109.47122063
_symmetry_Int_Tables_number   1
_chemical_formula_structural   YbFe4(CuO4)3
_chemical_formula_sum   'Yb1 Fe4 Cu3 O12'
_cell_volume   204.36381394
_cell_formula_units_Z   1
loop_
 _symmetry_equiv_pos_site_id
 _symmetry_equiv_pos_as_xyz
  1  'x, y, z'
loop_
 _atom_site_type_symbol
 _atom_site_label
 _atom_site_symmetry_multiplicity
 _atom_site_fract_x
 _atom_site_fract_y
 _atom_site_fract_z
 _atom_site_occupancy
  Yb  Yb0  1  0.00000000  0.00000000  0.00000000  1
  Fe  Fe0  1  0.00000000  0.00000000  0.50000000  1
  Fe  Fe1  1  0.50000000  0.00000000  0.00000000  1
  Fe  Fe2  1  0.00000000  0.50000000  0.00000000  1
  Fe  Fe3  1  0.50000000  0.50000000  0.50000000  1
  Cu  Cu0  1  0.50000000  0.00000000  0.50000000  1
  Cu  Cu1  1  0.00000000  0.50000000  0.50000000  1
  Cu  Cu2  1  0.50000000  0.50000000  0.00000000  1
  O  O0  1  0.31077400  0.14308300  0.83231000  1
  O  O1  1  0.68922600  0.85691700  0.16769000  1
  O  O2  1  0.68922600  0.52153600  0.83231000  1
  O  O3  1  0.31077400  0.47846400  0.16769000  1
  O  O4  1  0.14308300  0.83231000  0.31077400  1
  O  O5  1  0.85691700  0.16769000  0.68922600  1
  O  O6  1  0.52153600  0.83231000  0.68922600  1
  O  O7  1  0.47846400  0.16769000  0.31077400  1
  O  O8  1  0.83231000  0.31077400  0.14308300  1
  O  O9  1  0.16769000  0.68922600  0.85691700  1
  O  O10  1  0.83231000  0.68922600  0.52153600  1
  O  O11  1  0.16769000  0.31077400  0.47846400  1
loop_
_geom_bond_atom_site_label_1
_geom_bond_atom_site_label_2
_geom_bond_distance
_geom_bond_site_symmetry_2
Fe0 O4 2.004676 1_545
Fe0 O5 2.004676 1_455
Fe0 O11 2.004682 1_555
Fe0 O10 2.004682 1_445
Fe0 O0 2.004683 1_555
Fe0 O1 2.004683 1_445
Fe1 O1 2.004676 1_545
Fe1 O0 2.004676 1_554
Fe1 O7 2.004682 1_555
Fe1 O6 2.004682 1_544
Fe1 O9 2.004683 1_544
Fe1 O8 2.004683 1_555
Fe2 O8 2.004676 1_455
Fe2 O9 2.004676 1_554
Fe2 O2 2.004682 1_454
Fe2 O3 2.004682 1_555
Fe2 O5 2.004683 1_454
Fe2 O4 2.004683 1_555
Fe3 O11 2.004682 1_555
Fe3 O2 2.004682 1_555
Fe3 O10 2.004682 1_555
Fe3 O3 2.004682 1_555
Fe3 O6 2.004682 1_555
Fe3 O7 2.004682 1_555
Cu0 O7 1.876369 1_555
Cu0 O6 1.876369 1_545
Cu0 O5 1.876374 1_555
Cu0 O4 1.876374 1_545
Cu1 O11 1.876369 1_555
Cu1 O10 1.876369 1_455
Cu1 O8 1.876374 1_455
Cu1 O9 1.876374 1_555
Cu2 O3 1.876369 1_555
Cu2 O2 1.876369 1_554
Cu2 O1 1.876374 1_555
Cu2 O0 1.876374 1_554
O0 Yb0 2.620666 1_556
O1 Yb0 2.620666 1_665
O2 Yb0 2.620668 1_666
O3 Yb0 2.620668 1_555
O4 Yb0 2.620666 1_565
O5 Yb0 2.620666 1_656
O6 Yb0 2.620668 1_666
O7 Yb0 2.620668 1_555
O8 Yb0 2.620666 1_655
O9 Yb0 2.620666 1_566
O10 Yb0 2.620668 1_666
O11 Yb0 2.620668 1_555
