# generated using pymatgen
data_Sn5C8Se10N2O
_symmetry_space_group_name_H-M   'P 1'
_cell_length_a   10.26170304
_cell_length_b   10.26170304
_cell_length_c   10.26170304
_cell_angle_alpha   125.70076124
_cell_angle_beta   125.70076124
_cell_angle_gamma   80.38051793
_symmetry_Int_Tables_number   1
_chemical_formula_structural   Sn5C8Se10N2O
_chemical_formula_sum   'Sn5 C8 Se10 N2 O1'
_cell_volume   687.52561792
_cell_formula_units_Z   1
loop_
 _symmetry_equiv_pos_site_id
 _symmetry_equiv_pos_as_xyz
  1  'x, y, z'
loop_
 _atom_site_type_symbol
 _atom_site_label
 _atom_site_symmetry_multiplicity
 _atom_site_fract_x
 _atom_site_fract_y
 _atom_site_fract_z
 _atom_site_occupancy
  Sn  Sn0  1  0.75000000  0.25000000  0.50000000  1
  Sn  Sn1  1  0.85374500  0.72073100  0.77155500  1
  Sn  Sn2  1  0.94917600  0.08219000  0.22844500  1
  Sn  Sn3  1  0.91781000  0.14625500  0.86698600  1
  Sn  Sn4  1  0.27926900  0.05082400  0.13301400  1
  C  C0  1  0.34324000  0.41335400  0.92428300  1
  C  C1  1  0.48907100  0.41895700  0.07571700  1
  C  C2  1  0.58104300  0.65676000  0.07011400  1
  C  C3  1  0.58664600  0.51092900  0.92988600  1
  C  C4  1  0.19488400  0.72717000  0.59545600  1
  C  C5  1  0.13171400  0.59942800  0.40454400  1
  C  C6  1  0.40057200  0.80511600  0.53228500  1
  C  C7  1  0.27283000  0.86828600  0.46771500  1
  Se  Se0  1  0.65638100  0.41120600  0.28483400  1
  Se  Se1  1  0.12637300  0.37154700  0.71516600  1
  Se  Se2  1  0.62845300  0.34361900  0.75482600  1
  Se  Se3  1  0.58879400  0.87362700  0.24517400  1
  Se  Se4  1  0.17560500  0.74450900  0.77432400  1
  Se  Se5  1  0.97018600  0.40128100  0.22567600  1
  Se  Se6  1  0.59871900  0.82439500  0.56890400  1
  Se  Se7  1  0.25549100  0.02981400  0.43109600  1
  Se  Se8  1  0.77870700  0.77870700  0.00000000  1
  Se  Se9  1  0.22129300  0.22129300  0.00000000  1
  N  N0  1  0.50000000  0.50000000  0.00000000  1
  N  N1  1  0.25000000  0.75000000  0.50000000  1
  O  O0  1  0.00000000  0.00000000  0.00000000  1
loop_
_geom_bond_atom_site_label_1
_geom_bond_atom_site_label_2
_geom_bond_distance
_geom_bond_site_symmetry_2
C0 C1 1.366737 1_556
C0 N0 1.481529 1_556
C0 Se1 1.847302 1_555
C1 N0 1.481529 1_555
C1 Se0 1.847308 1_555
C2 C3 1.366737 1_554
C2 N0 1.481529 1_555
C2 Se3 1.847298 1_555
C3 N0 1.481529 1_556
C3 Se2 1.847302 1_555
C4 C5 1.334607 1_555
C4 N1 1.514257 1_555
C4 Se4 1.862983 1_555
C5 N1 1.514257 1_555
C5 Se5 1.862977 1_455
C6 C7 1.334603 1_555
C6 N1 1.514263 1_555
C6 Se6 1.862977 1_555
C7 N1 1.514249 1_555
C7 Se7 1.862979 1_565
Se0 Sn0 3.129011 1_555
Se0 Sn1 3.311395 1_555
Se1 Sn0 3.129021 1_455
Se1 Sn2 3.311393 1_455
Se2 Sn0 3.129021 1_555
Se2 Sn3 3.311393 1_555
Se3 Sn0 3.129018 1_565
Se3 Sn4 3.311400 1_565
Se4 Sn4 2.757652 1_566
Se5 Sn3 2.757648 1_554
Se6 Sn1 2.757652 1_555
Se7 Sn2 2.757657 1_455
Se8 Sn2 2.601583 1_565
Se8 Sn1 2.601583 1_554
Se9 Sn3 2.601583 1_454
Se9 Sn4 2.601583 1_555
O0 Sn2 2.334770 1_455
O0 Sn4 2.334770 1_555
O0 Sn1 2.334770 1_444
O0 Sn3 2.334770 1_454
