# generated using pymatgen
data_SrCaMnGaO5
_symmetry_space_group_name_H-M   'P 1'
_cell_length_a   5.45568823
_cell_length_b   5.67301705
_cell_length_c   8.66731943
_cell_angle_alpha   71.29782304
_cell_angle_beta   71.62541253
_cell_angle_gamma   89.97620569
_symmetry_Int_Tables_number   1
_chemical_formula_structural   SrCaMnGaO5
_chemical_formula_sum   'Sr2 Ca2 Mn2 Ga2 O10'
_cell_volume   239.61966529
_cell_formula_units_Z   2
loop_
 _symmetry_equiv_pos_site_id
 _symmetry_equiv_pos_as_xyz
  1  'x, y, z'
loop_
 _atom_site_type_symbol
 _atom_site_label
 _atom_site_symmetry_multiplicity
 _atom_site_fract_x
 _atom_site_fract_y
 _atom_site_fract_z
 _atom_site_occupancy
  Sr  Sr0  1  0.11163000  0.59248400  0.77115000  1
  Sr  Sr1  1  0.88297200  0.40715500  0.22887600  1
  Ca  Ca0  1  0.38107700  0.86690700  0.21293600  1
  Ca  Ca1  1  0.59381400  0.13332900  0.78721100  1
  Mn  Mn0  1  0.50254400  0.50026700  0.99975900  1
  Mn  Mn1  1  0.00225000  0.99953500  0.99971600  1
  Ga  Ga0  1  0.71321000  0.82061600  0.49949600  1
  Ga  Ga1  1  0.21258300  0.17954600  0.50054000  1
  O  O0  1  0.74008900  0.22960500  0.01903600  1
  O  O1  1  0.75343600  0.76254000  0.98071400  1
  O  O2  1  0.26217200  0.76394600  0.97959900  1
  O  O3  1  0.24764200  0.24357200  0.02055400  1
  O  O4  1  0.85652300  0.11130100  0.52056200  1
  O  O5  1  0.37704500  0.88866800  0.47965300  1
  O  O6  1  0.66222800  0.56971200  0.70817600  1
  O  O7  1  0.37078000  0.43023500  0.29196200  1
  O  O8  1  0.90728200  0.80835400  0.28641500  1
  O  O9  1  0.19272300  0.19222700  0.71364500  1
loop_
_geom_bond_atom_site_label_1
_geom_bond_atom_site_label_2
_geom_bond_distance
_geom_bond_site_symmetry_2
Ca0 O7 2.344521 1_555
Ca0 O5 2.347495 1_555
Ca0 O8 2.454528 1_455
Ca0 O3 2.520984 1_565
Ca0 O2 2.537148 1_554
Ca0 O0 2.569999 1_565
Ca0 O1 2.591134 1_554
Ca1 O6 2.342911 1_555
Ca1 O4 2.346889 1_555
Ca1 O9 2.459462 1_555
Ca1 O2 2.511091 1_545
Ca1 O3 2.539759 1_556
Ca1 O1 2.579295 1_545
Ca1 O0 2.586024 1_556
Mn0 O3 1.939690 1_556
Mn0 O1 1.953549 1_555
Mn0 O2 1.990751 1_555
Mn0 O0 2.008846 1_556
Mn0 O6 2.296701 1_555
Mn0 O7 2.301285 1_556
Mn1 O0 1.940321 1_466
Mn1 O2 1.954354 1_555
Mn1 O1 1.990449 1_455
Mn1 O3 2.013933 1_566
Mn1 O9 2.249651 1_565
Mn1 O8 2.253877 1_456
Ga0 O8 1.840170 1_555
Ga0 O6 1.845786 1_555
Ga0 O4 1.910033 1_565
Ga0 O5 1.922996 1_555
Ga1 O9 1.840527 1_555
Ga1 O7 1.845043 1_555
Ga1 O5 1.910181 1_545
Ga1 O4 1.923154 1_455
O0 Sr1 2.645629 1_555
O0 Sr0 2.717377 1_654
O1 Sr0 2.633078 1_655
O1 Sr1 2.714163 1_556
O2 Sr0 2.635911 1_555
O2 Sr1 2.725041 1_456
O3 Sr1 2.624469 1_455
O3 Sr0 2.721667 1_554
O4 Sr1 2.505660 1_555
O5 Sr0 2.505264 1_555
O6 Sr0 2.686092 1_655
O6 Sr0 2.889495 1_555
O7 Sr1 2.684565 1_555
O7 Sr1 2.891784 1_455
O8 Sr1 2.493267 1_555
O9 Sr0 2.487165 1_555
