# generated using pymatgen
data_VAsO5
_symmetry_space_group_name_H-M   'P 1'
_cell_length_a   7.20450400
_cell_length_b   7.42073800
_cell_length_c   8.40051100
_cell_angle_alpha   90.00000000
_cell_angle_beta   90.00000000
_cell_angle_gamma   90.00000000
_symmetry_Int_Tables_number   1
_chemical_formula_structural   VAsO5
_chemical_formula_sum   'V4 As4 O20'
_cell_volume   449.11430693
_cell_formula_units_Z   4
loop_
 _symmetry_equiv_pos_site_id
 _symmetry_equiv_pos_as_xyz
  1  'x, y, z'
loop_
 _atom_site_type_symbol
 _atom_site_label
 _atom_site_symmetry_multiplicity
 _atom_site_fract_x
 _atom_site_fract_y
 _atom_site_fract_z
 _atom_site_occupancy
  V  V0  1  0.00901900  0.20436700  0.06162000  1
  V  V1  1  0.99098100  0.70436700  0.43838000  1
  V  V2  1  0.49098100  0.79563300  0.56162000  1
  V  V3  1  0.50901900  0.29563300  0.93838000  1
  As  As0  1  0.74005900  0.42561900  0.60750400  1
  As  As1  1  0.25994100  0.92561900  0.89249600  1
  As  As2  1  0.75994100  0.57438100  0.10750400  1
  As  As3  1  0.24005900  0.07438100  0.39249600  1
  O  O0  1  0.32066600  0.38981000  0.87910800  1
  O  O1  1  0.67933400  0.88981000  0.62089200  1
  O  O2  1  0.17933400  0.61019000  0.37910800  1
  O  O3  1  0.82066600  0.11019000  0.12089200  1
  O  O4  1  0.69808500  0.35076100  0.80513000  1
  O  O5  1  0.30191500  0.85076100  0.69487000  1
  O  O6  1  0.80191500  0.64923900  0.30513000  1
  O  O7  1  0.19808500  0.14923900  0.19487000  1
  O  O8  1  0.78416500  0.26015000  0.48463400  1
  O  O9  1  0.21583500  0.76015000  0.01536600  1
  O  O10  1  0.71583500  0.73985000  0.98463400  1
  O  O11  1  0.28416500  0.23985000  0.51536600  1
  O  O12  1  0.53854800  0.55608100  0.56724200  1
  O  O13  1  0.46145200  0.05608100  0.93275800  1
  O  O14  1  0.96145200  0.44391900  0.06724200  1
  O  O15  1  0.03854800  0.94391900  0.43275800  1
  O  O16  1  0.91929300  0.58753300  0.62367400  1
  O  O17  1  0.08070700  0.08753300  0.87632600  1
  O  O18  1  0.58070700  0.41246700  0.12367400  1
  O  O19  1  0.41929300  0.91246700  0.37632600  1
loop_
_geom_bond_atom_site_label_1
_geom_bond_atom_site_label_2
_geom_bond_distance
_geom_bond_site_symmetry_2
As0 O8 1.635265 1_555
As0 O16 1.769051 1_555
As0 O4 1.776558 1_555
As0 O12 1.777454 1_555
As1 O9 1.635265 1_556
As1 O17 1.769051 1_565
As1 O5 1.776558 1_555
As1 O13 1.777454 1_565
As2 O10 1.635265 1_554
As2 O18 1.769051 1_555
As2 O6 1.776558 1_555
As2 O14 1.777454 1_555
As3 O11 1.635265 1_555
As3 O19 1.769051 1_545
As3 O7 1.776558 1_555
As3 O15 1.777454 1_545
O0 V3 1.605537 1_555
O1 V2 1.605537 1_555
O2 V1 1.605537 1_455
O3 V0 1.605537 1_655
O4 V3 1.809898 1_555
O5 V2 1.809898 1_555
O6 V1 1.809898 1_555
O7 V0 1.809898 1_555
O12 V2 1.811000 1_555
O13 V3 1.811000 1_555
O14 V0 1.811000 1_655
O15 V1 1.811000 1_455
O16 V1 1.855079 1_555
O17 V0 1.855079 1_556
O18 V3 1.855079 1_554
O19 V2 1.855079 1_555
