# generated using pymatgen
data_Na3Ca3AlAs4
_symmetry_space_group_name_H-M   'P 1'
_cell_length_a   9.47509974
_cell_length_b   9.47509974
_cell_length_c   7.23276400
_cell_angle_alpha   90.00000000
_cell_angle_beta   90.00000000
_cell_angle_gamma   119.99999817
_symmetry_Int_Tables_number   1
_chemical_formula_structural   Na3Ca3AlAs4
_chemical_formula_sum   'Na6 Ca6 Al2 As8'
_cell_volume   562.34458125
_cell_formula_units_Z   2
loop_
 _symmetry_equiv_pos_site_id
 _symmetry_equiv_pos_as_xyz
  1  'x, y, z'
loop_
 _atom_site_type_symbol
 _atom_site_label
 _atom_site_symmetry_multiplicity
 _atom_site_fract_x
 _atom_site_fract_y
 _atom_site_fract_z
 _atom_site_occupancy
  Na  Na0  1  0.13740900  0.86259100  0.17285000  1
  Na  Na1  1  0.27481900  0.13740900  0.67285000  1
  Na  Na2  1  0.86259100  0.72518100  0.67285000  1
  Na  Na3  1  0.13740900  0.27481900  0.17285000  1
  Na  Na4  1  0.72518100  0.86259100  0.17285000  1
  Na  Na5  1  0.86259100  0.13740900  0.67285000  1
  Ca  Ca0  1  0.47470000  0.94940000  0.50054200  1
  Ca  Ca1  1  0.52530000  0.05060000  0.00054200  1
  Ca  Ca2  1  0.94940000  0.47470000  0.00054200  1
  Ca  Ca3  1  0.47470000  0.52530000  0.50054200  1
  Ca  Ca4  1  0.52530000  0.47470000  0.00054200  1
  Ca  Ca5  1  0.05060000  0.52530000  0.50054200  1
  Al  Al0  1  0.33333300  0.66666700  0.87822000  1
  Al  Al1  1  0.66666700  0.33333300  0.37822000  1
  As  As0  1  0.19017800  0.80982200  0.77127400  1
  As  As1  1  0.38035600  0.19017800  0.27127400  1
  As  As2  1  0.80982200  0.61964400  0.27127400  1
  As  As3  1  0.19017800  0.38035600  0.77127400  1
  As  As4  1  0.61964400  0.80982200  0.77127400  1
  As  As5  1  0.80982200  0.19017800  0.27127400  1
  As  As6  1  0.33333300  0.66666700  0.22846300  1
  As  As7  1  0.66666700  0.33333300  0.72846300  1
loop_
_geom_bond_atom_site_label_1
_geom_bond_atom_site_label_2
_geom_bond_distance
_geom_bond_site_symmetry_2
Al0 As0 2.473429 1_555
Al0 As3 2.473437 1_555
Al0 As4 2.473437 1_555
Al0 As6 2.533225 1_556
Al1 As5 2.473429 1_555
Al1 As1 2.473437 1_555
Al1 As2 2.473437 1_555
Al1 As7 2.533225 1_555
As0 Na1 2.880100 1_565
As0 Na2 2.880100 1_455
As0 Na0 3.030861 1_556
As0 Ca0 3.047255 1_555
As0 Ca5 3.047255 1_555
As0 Ca1 3.285271 1_566
As0 Ca2 3.285271 1_456
As1 Na0 2.880102 1_545
As1 Na3 2.880108 1_555
As1 Na1 3.030859 1_555
As1 Ca1 3.047255 1_555
As1 Ca4 3.047255 1_555
As1 Ca0 3.285271 1_545
As1 Ca3 3.285271 1_555
As2 Na0 2.880102 1_655
As2 Na4 2.880108 1_555
As2 Na2 3.030859 1_555
As2 Ca2 3.047255 1_555
As2 Ca4 3.047255 1_555
As2 Ca5 3.285271 1_655
As2 Ca3 3.285271 1_555
As3 Na5 2.880102 1_455
As3 Na1 2.880108 1_555
As3 Na3 3.030859 1_556
As3 Ca5 3.047255 1_555
As3 Ca3 3.047255 1_555
As3 Ca2 3.285271 1_456
As3 Ca4 3.285271 1_556
As4 Na5 2.880102 1_565
As4 Na2 2.880108 1_555
As4 Na4 3.030859 1_556
As4 Ca0 3.047255 1_555
As4 Ca3 3.047255 1_555
As4 Ca1 3.285271 1_566
As4 Ca4 3.285271 1_556
As5 Na3 2.880100 1_655
As5 Na4 2.880100 1_545
As5 Na5 3.030861 1_555
As5 Ca2 3.047255 1_555
As5 Ca1 3.047255 1_555
As5 Ca5 3.285271 1_655
As5 Ca0 3.285271 1_545
As6 Ca0 3.042209 1_555
As6 Ca5 3.042209 1_555
As6 Ca3 3.042215 1_555
As6 Na0 3.240440 1_555
As6 Na3 3.240440 1_555
As6 Na4 3.240440 1_555
As7 Ca1 3.042209 1_556
As7 Ca2 3.042209 1_556
As7 Ca4 3.042215 1_556
As7 Na5 3.240440 1_555
As7 Na1 3.240440 1_555
As7 Na2 3.240440 1_555
