# generated using pymatgen
data_Li2MnPCO7
_symmetry_space_group_name_H-M   'P 1'
_cell_length_a   6.47671300
_cell_length_b   9.56070800
_cell_length_c   10.03378855
_cell_angle_alpha   62.49590522
_cell_angle_beta   90.00000000
_cell_angle_gamma   90.00000000
_symmetry_Int_Tables_number   1
_chemical_formula_structural   Li2MnPCO7
_chemical_formula_sum   'Li8 Mn4 P4 C4 O28'
_cell_volume   551.08985562
_cell_formula_units_Z   4
loop_
 _symmetry_equiv_pos_site_id
 _symmetry_equiv_pos_as_xyz
  1  'x, y, z'
loop_
 _atom_site_type_symbol
 _atom_site_label
 _atom_site_symmetry_multiplicity
 _atom_site_fract_x
 _atom_site_fract_y
 _atom_site_fract_z
 _atom_site_occupancy
  Li  Li0  1  0.28952000  0.26393900  0.73443400  1
  Li  Li1  1  0.71623100  0.26348400  0.73327700  1
  Li  Li2  1  0.71048000  0.26393900  0.23443400  1
  Li  Li3  1  0.28376900  0.26348400  0.23327700  1
  Li  Li4  1  0.78229800  0.73341500  0.76538300  1
  Li  Li5  1  0.21770200  0.73341500  0.26538300  1
  Li  Li6  1  0.99242500  0.88959000  0.94855000  1
  Li  Li7  1  0.00757500  0.88959000  0.44855000  1
  Mn  Mn0  1  0.00087300  0.33770900  0.92460600  1
  Mn  Mn1  1  0.99912700  0.33770900  0.42460600  1
  Mn  Mn2  1  0.49980300  0.67407900  0.56869900  1
  Mn  Mn3  1  0.50019700  0.67407900  0.06869900  1
  P  P0  1  0.50709300  0.41548800  0.92217300  1
  P  P1  1  0.49290700  0.41548800  0.42217300  1
  P  P2  1  0.00464100  0.58338000  0.56774900  1
  P  P3  1  0.99535900  0.58338000  0.06774900  1
  C  C0  1  0.97912400  0.04929300  0.62339100  1
  C  C1  1  0.02087600  0.04929300  0.12339100  1
  C  C2  1  0.49720000  0.95630700  0.88664900  1
  C  C3  1  0.50280000  0.95630700  0.38664900  1
  O  O0  1  0.01020700  0.07089800  0.98700900  1
  O  O1  1  0.98979300  0.07089800  0.48700900  1
  O  O2  1  0.50150800  0.09696200  0.78190000  1
  O  O3  1  0.98747400  0.18241800  0.63852800  1
  O  O4  1  0.49849200  0.09696200  0.28190000  1
  O  O5  1  0.01252600  0.18241800  0.13852800  1
  O  O6  1  0.31078800  0.33233400  0.90435100  1
  O  O7  1  0.69241100  0.31142500  0.92163600  1
  O  O8  1  0.30758900  0.31142500  0.42163600  1
  O  O9  1  0.68921200  0.33233400  0.40435100  1
  O  O10  1  0.99428000  0.41669500  0.70796300  1
  O  O11  1  0.49932100  0.43109400  0.57005000  1
  O  O12  1  0.00572000  0.41669500  0.20796300  1
  O  O13  1  0.50067900  0.43109400  0.07005000  1
  O  O14  1  0.98285100  0.55394000  0.92946200  1
  O  O15  1  0.53038600  0.58334000  0.78820800  1
  O  O16  1  0.01714900  0.55394000  0.42946200  1
  O  O17  1  0.46961400  0.58334000  0.28820800  1
  O  O18  1  0.18987100  0.68292700  0.57037900  1
  O  O19  1  0.81943300  0.68724500  0.56460600  1
  O  O20  1  0.81012900  0.68292700  0.07037900  1
  O  O21  1  0.18056700  0.68724500  0.06460600  1
  O  O22  1  0.52106000  0.83440000  0.85726400  1
  O  O23  1  0.96120700  0.91833500  0.73968400  1
  O  O24  1  0.47894000  0.83440000  0.35726400  1
  O  O25  1  0.03879300  0.91833500  0.23968400  1
  O  O26  1  0.52957900  0.91508000  0.52699300  1
  O  O27  1  0.47042100  0.91508000  0.02699300  1
loop_
_geom_bond_atom_site_label_1
_geom_bond_atom_site_label_2
_geom_bond_distance
_geom_bond_site_symmetry_2
Li0 O2 1.989528 1_555
Li0 O6 2.093559 1_555
Li0 O11 2.164781 1_555
Li0 O10 2.345560 1_455
Li0 O3 2.460323 1_455
Li1 O2 1.997334 1_555
Li1 O7 2.146139 1_555
Li1 O11 2.190854 1_555
Li1 O10 2.260436 1_555
Li1 O3 2.295928 1_555
Li2 O4 1.989528 1_555
Li2 O9 2.093559 1_555
Li2 O13 2.164781 1_555
Li2 O12 2.345560 1_655
Li2 O5 2.460323 1_655
Li3 O4 1.997334 1_555
Li3 O8 2.146139 1_555
Li3 O13 2.190854 1_555
Li3 O12 2.260436 1_555
Li3 O5 2.295928 1_555
Li4 O23 2.028254 1_555
Li4 O15 2.114156 1_555
Li4 O14 2.175491 1_555
Li4 O19 2.265495 1_555
Li4 O22 2.338151 1_555
Li5 O25 2.028254 1_555
Li5 O17 2.114156 1_555
Li5 O16 2.175491 1_555
Li5 O21 2.265495 1_555
Li5 O24 2.338151 1_555
Li6 O0 1.945453 1_665
Li6 O23 1.994111 1_555
Li6 O21 2.121953 1_656
Li6 O20 2.135750 1_556
Li7 O1 1.945453 1_465
Li7 O25 1.994111 1_555
Li7 O19 2.121953 1_455
Li7 O18 2.135750 1_555
Mn0 O10 1.944511 1_455
Mn0 O5 1.968204 1_556
Mn0 O7 2.015499 1_455
Mn0 O6 2.020536 1_555
Mn0 O14 2.093526 1_455
Mn0 O0 2.329716 1_555
Mn1 O12 1.944511 1_655
Mn1 O3 1.968204 1_555
Mn1 O8 2.015499 1_655
Mn1 O9 2.020536 1_555
Mn1 O16 2.093526 1_655
Mn1 O1 2.329716 1_555
Mn2 O24 1.965957 1_555
Mn2 O15 1.969283 1_555
Mn2 O18 2.009521 1_555
Mn2 O19 2.073231 1_555
Mn2 O26 2.151930 1_555
Mn2 O11 2.316882 1_555
Mn3 O22 1.965957 1_554
Mn3 O17 1.969283 1_555
Mn3 O20 2.009521 1_555
Mn3 O21 2.073231 1_555
Mn3 O27 2.151930 1_555
Mn3 O13 2.316882 1_555
C0 O23 1.262250 1_545
C0 O1 1.288008 1_555
C0 O3 1.350733 1_555
C1 O25 1.262250 1_545
C1 O0 1.288008 1_554
C1 O5 1.350733 1_555
C2 O2 1.268223 1_565
C2 O27 1.286765 1_556
C2 O22 1.336653 1_555
C3 O4 1.268223 1_565
C3 O26 1.286765 1_555
C3 O24 1.336653 1_555
O6 P0 1.553002 1_555
O7 P0 1.560590 1_555
O8 P1 1.560590 1_555
O9 P1 1.553002 1_555
O10 P2 1.566095 1_655
O11 P1 1.558854 1_555
O12 P3 1.566095 1_455
O13 P0 1.558854 1_554
O14 P3 1.540058 1_556
O15 P0 1.553235 1_555
O16 P2 1.540058 1_555
O17 P1 1.553235 1_555
O18 P2 1.539135 1_555
O19 P2 1.548244 1_655
O20 P3 1.539135 1_555
O21 P3 1.548244 1_455
