# generated using pymatgen
data_ZnNiO2
_symmetry_space_group_name_H-M   'P 1'
_cell_length_a   3.02288856
_cell_length_b   8.54859924
_cell_length_c   6.04376628
_cell_angle_alpha   90.02694507
_cell_angle_beta   90.00001341
_cell_angle_gamma   90.00000474
_symmetry_Int_Tables_number   1
_chemical_formula_structural   ZnNiO2
_chemical_formula_sum   'Zn4 Ni4 O8'
_cell_volume   156.17974439
_cell_formula_units_Z   4
loop_
 _symmetry_equiv_pos_site_id
 _symmetry_equiv_pos_as_xyz
  1  'x, y, z'
loop_
 _atom_site_type_symbol
 _atom_site_label
 _atom_site_symmetry_multiplicity
 _atom_site_fract_x
 _atom_site_fract_y
 _atom_site_fract_z
 _atom_site_occupancy
  Zn  Zn0  1  0.50000000  0.75000000  0.75000000  1
  Zn  Zn1  1  0.00000000  0.50000000  0.00000000  1
  Zn  Zn2  1  0.00000000  0.00000000  0.50000000  1
  Zn  Zn3  1  0.50000000  0.25000000  0.25000000  1
  Ni  Ni0  1  0.50000000  0.75000000  0.25000000  1
  Ni  Ni1  1  0.00000000  0.50000000  0.50000000  1
  Ni  Ni2  1  0.00000000  0.00000000  0.00000000  1
  Ni  Ni3  1  0.50000000  0.25000000  0.75000000  1
  O  O0  1  0.00000000  0.74822600  0.49645100  1
  O  O1  1  0.50000000  0.49822600  0.74645100  1
  O  O2  1  0.50000000  0.99822600  0.24645100  1
  O  O3  1  0.00000000  0.24822600  0.99645100  1
  O  O4  1  0.00000000  0.75177400  0.00354900  1
  O  O5  1  0.50000000  0.50177400  0.25354900  1
  O  O6  1  0.50000000  0.00177400  0.75354900  1
  O  O7  1  0.00000000  0.25177400  0.50354900  1
loop_
_geom_bond_atom_site_label_1
_geom_bond_atom_site_label_2
_geom_bond_distance
_geom_bond_site_symmetry_2
Ni0 O0 2.122098 1_655
Ni0 O4 2.122098 1_555
Ni0 O0 2.122099 1_555
Ni0 O4 2.122099 1_655
Ni0 O5 2.122103 1_555
Ni0 O2 2.122103 1_555
Ni1 O1 2.122098 1_555
Ni1 O5 2.122098 1_455
Ni1 O1 2.122099 1_455
Ni1 O5 2.122099 1_555
Ni1 O0 2.122103 1_555
Ni1 O7 2.122103 1_555
Ni2 O2 2.122098 1_545
Ni2 O6 2.122098 1_454
Ni2 O6 2.122099 1_554
Ni2 O2 2.122099 1_445
Ni2 O4 2.122103 1_545
Ni2 O3 2.122103 1_554
Ni3 O7 2.122098 1_555
Ni3 O3 2.122098 1_655
Ni3 O7 2.122099 1_655
Ni3 O3 2.122099 1_555
Ni3 O6 2.122103 1_555
Ni3 O1 2.122103 1_555
O0 Zn2 2.152412 1_565
O0 Zn0 2.152416 1_555
O0 Zn0 2.152416 1_455
O1 Zn0 2.152412 1_555
O1 Zn1 2.152416 1_656
O1 Zn1 2.152416 1_556
O2 Zn3 2.152412 1_565
O2 Zn2 2.152416 1_665
O2 Zn2 2.152416 1_565
O3 Zn1 2.152412 1_556
O3 Zn3 2.152416 1_556
O3 Zn3 2.152416 1_456
O4 Zn1 2.152412 1_555
O4 Zn0 2.152416 1_454
O4 Zn0 2.152416 1_554
O5 Zn3 2.152412 1_555
O5 Zn1 2.152416 1_555
O5 Zn1 2.152416 1_655
O6 Zn0 2.152412 1_545
O6 Zn2 2.152416 1_555
O6 Zn2 2.152416 1_655
O7 Zn2 2.152412 1_555
O7 Zn3 2.152416 1_455
O7 Zn3 2.152416 1_555
