# generated using pymatgen
data_In2Ge2O7
_symmetry_space_group_name_H-M   'P 1'
_cell_length_a   6.88757674
_cell_length_b   6.88757674
_cell_length_c   6.88757674
_cell_angle_alpha   60.00000000
_cell_angle_beta   60.00000000
_cell_angle_gamma   60.00000000
_symmetry_Int_Tables_number   1
_chemical_formula_structural   In2Ge2O7
_chemical_formula_sum   'In4 Ge4 O14'
_cell_volume   231.03849912
_cell_formula_units_Z   2
loop_
 _symmetry_equiv_pos_site_id
 _symmetry_equiv_pos_as_xyz
  1  'x, y, z'
loop_
 _atom_site_type_symbol
 _atom_site_label
 _atom_site_symmetry_multiplicity
 _atom_site_fract_x
 _atom_site_fract_y
 _atom_site_fract_z
 _atom_site_occupancy
  In  In0  1  0.50000000  0.50000000  -0.00000000  1
  In  In1  1  0.50000000  0.00000000  0.50000000  1
  In  In2  1  0.00000000  0.50000000  0.50000000  1
  In  In3  1  0.50000000  0.50000000  0.50000000  1
  Ge  Ge0  1  0.00000000  0.00000000  0.50000000  1
  Ge  Ge1  1  0.00000000  0.50000000  -0.00000000  1
  Ge  Ge2  1  0.50000000  0.00000000  -0.00000000  1
  Ge  Ge3  1  0.00000000  0.00000000  -0.00000000  1
  O  O0  1  0.37500000  0.37500000  0.37500000  1
  O  O1  1  0.62500000  0.62500000  0.62500000  1
  O  O2  1  0.32881750  0.92118250  0.92118250  1
  O  O3  1  0.92118250  0.32881750  0.32881750  1
  O  O4  1  0.92118250  0.32881750  0.92118250  1
  O  O5  1  0.32881750  0.92118250  0.32881750  1
  O  O6  1  0.92118250  0.92118250  0.32881750  1
  O  O7  1  0.32881750  0.32881750  0.92118250  1
  O  O8  1  0.67118250  0.07881750  0.07881750  1
  O  O9  1  0.07881750  0.67118250  0.67118250  1
  O  O10  1  0.07881750  0.67118250  0.07881750  1
  O  O11  1  0.67118250  0.07881750  0.67118250  1
  O  O12  1  0.07881750  0.07881750  0.67118250  1
  O  O13  1  0.67118250  0.67118250  0.07881750  1
loop_
_geom_bond_atom_site_label_1
_geom_bond_atom_site_label_2
_geom_bond_distance
_geom_bond_site_symmetry_2
In0 O0 2.108881 1_555
In0 O1 2.108881 1_554
In0 O2 2.396905 1_554
In0 O8 2.396905 1_555
In0 O10 2.396905 1_555
In0 O7 2.396905 1_554
In0 O4 2.396905 1_554
In0 O13 2.396905 1_555
In1 O1 2.108881 1_545
In1 O0 2.108881 1_555
In1 O6 2.396905 1_545
In1 O8 2.396905 1_555
In1 O11 2.396905 1_555
In1 O12 2.396905 1_555
In1 O2 2.396905 1_545
In1 O5 2.396905 1_545
In2 O0 2.108881 1_555
In2 O1 2.108881 1_455
In2 O3 2.396905 1_455
In2 O10 2.396905 1_555
In2 O6 2.396905 1_455
In2 O9 2.396905 1_555
In2 O12 2.396905 1_555
In2 O4 2.396905 1_455
In3 O0 2.108881 1_555
In3 O1 2.108881 1_555
In3 O7 2.396905 1_555
In3 O11 2.396905 1_555
In3 O5 2.396905 1_555
In3 O9 2.396905 1_555
In3 O3 2.396905 1_555
In3 O13 2.396905 1_555
Ge0 O12 1.885290 1_555
Ge0 O6 1.885290 1_445
Ge0 O5 1.885290 1_545
Ge0 O11 1.885290 1_455
Ge0 O9 1.885290 1_545
Ge0 O3 1.885290 1_455
Ge1 O4 1.885290 1_454
Ge1 O13 1.885290 1_455
Ge1 O7 1.885290 1_554
Ge1 O9 1.885290 1_554
Ge1 O10 1.885290 1_555
Ge1 O3 1.885290 1_455
Ge2 O13 1.885290 1_545
Ge2 O2 1.885290 1_544
Ge2 O5 1.885290 1_545
Ge2 O7 1.885290 1_554
Ge2 O11 1.885290 1_554
Ge2 O8 1.885290 1_555
Ge3 O10 1.885290 1_545
Ge3 O8 1.885290 1_455
Ge3 O4 1.885290 1_454
Ge3 O12 1.885290 1_554
Ge3 O2 1.885290 1_544
Ge3 O6 1.885290 1_445
