# generated using pymatgen
data_Er20Si12C
_symmetry_space_group_name_H-M   'P 1'
_cell_length_a   6.29503874
_cell_length_b   8.33078294
_cell_length_c   14.42823439
_cell_angle_alpha   90.00000537
_cell_angle_beta   89.99999721
_cell_angle_gamma   89.95602134
_symmetry_Int_Tables_number   1
_chemical_formula_structural   Er20Si12C
_chemical_formula_sum   'Er20 Si12 C1'
_cell_volume   756.65392089
_cell_formula_units_Z   1
loop_
 _symmetry_equiv_pos_site_id
 _symmetry_equiv_pos_as_xyz
  1  'x, y, z'
loop_
 _atom_site_type_symbol
 _atom_site_label
 _atom_site_symmetry_multiplicity
 _atom_site_fract_x
 _atom_site_fract_y
 _atom_site_fract_z
 _atom_site_occupancy
  Er  Er0  1  0.50000005  -0.00000065  0.33663072  1
  Er  Er1  1  0.49999946  0.50000086  0.82936133  1
  Er  Er2  1  0.49999946  0.50000086  0.17063867  1
  Er  Er3  1  0.50000005  -0.00000065  0.66336928  1
  Er  Er4  1  -0.00000026  0.49999846  0.16283759  1
  Er  Er5  1  0.00000026  0.00000148  0.67000708  1
  Er  Er6  1  0.00000026  0.00000148  0.32999292  1
  Er  Er7  1  -0.00000026  0.49999846  0.83716241  1
  Er  Er8  1  0.72652818  0.23425255  0.00000000  1
  Er  Er9  1  0.75259671  0.74230773  0.50000000  1
  Er  Er10  1  0.75245535  0.37914962  0.37914893  1
  Er  Er11  1  0.72796302  0.88231391  0.88272957  1
  Er  Er12  1  0.72796302  0.88231391  0.11727043  1
  Er  Er13  1  0.75245535  0.37914962  0.62085107  1
  Er  Er14  1  0.27347552  0.76574616  -0.00000000  1
  Er  Er15  1  0.24740670  0.25769302  0.50000000  1
  Er  Er16  1  0.27204002  0.11768515  0.11727076  1
  Er  Er17  1  0.24754550  0.62085022  0.62085063  1
  Er  Er18  1  0.24754550  0.62085022  0.37914937  1
  Er  Er19  1  0.27204002  0.11768515  0.88272924  1
  Si  Si0  1  0.73837118  0.60094650  -0.00000000  1
  Si  Si1  1  0.75655604  0.10505374  0.50000000  1
  Si  Si2  1  0.74461566  0.19920259  0.19974335  1
  Si  Si3  1  0.75346137  0.69708281  0.69689394  1
  Si  Si4  1  0.75346137  0.69708281  0.30310606  1
  Si  Si5  1  0.74461566  0.19920259  0.80025665  1
  Si  Si6  1  0.26162938  0.39905229  0.00000000  1
  Si  Si7  1  0.24344287  0.89494694  0.50000000  1
  Si  Si8  1  0.24654160  0.30291856  0.30310630  1
  Si  Si9  1  0.25537807  0.80079930  0.80025654  1
  Si  Si10  1  0.25537807  0.80079930  0.19974346  1
  Si  Si11  1  0.24654160  0.30291856  0.69689370  1
  C  C0  1  0.50000021  -0.00000158  0.00000000  1
loop_
_geom_bond_atom_site_label_1
_geom_bond_atom_site_label_2
_geom_bond_distance
_geom_bond_site_symmetry_2
Er0 Si7 2.988729 1_545
Er0 Si1 2.988729 1_555
Er0 Si2 3.004980 1_555
Er0 Si10 3.004985 1_545
Er0 Si4 3.023537 1_545
Er0 Si8 3.023545 1_555
Er1 Si5 2.970029 1_555
Er1 Si9 2.970047 1_555
Er1 Si11 2.983013 1_555
Er1 Si3 2.983023 1_555
Er1 Si0 3.003721 1_556
Er1 Si6 3.003723 1_556
Er2 Si2 2.970029 1_555
Er2 Si10 2.970047 1_555
Er2 Si8 2.983013 1_555
Er2 Si4 2.983023 1_555
Er2 Si0 3.003721 1_555
Er2 Si6 3.003723 1_555
Er3 Si7 2.988729 1_545
Er3 Si1 2.988729 1_555
Er3 Si5 3.004980 1_555
Er3 Si9 3.004985 1_545
Er3 Si3 3.023537 1_545
Er3 Si11 3.023545 1_555
Er4 Si6 2.989574 1_555
Er4 Si0 2.989575 1_455
Er4 Si2 3.025497 1_455
Er4 Si10 3.025512 1_555
Er4 Si8 3.032533 1_555
Er4 Si4 3.032539 1_455
Er5 Si9 2.977575 1_545
Er5 Si5 2.977594 1_455
Er5 Si11 2.988879 1_555
Er5 Si3 2.988883 1_445
Er5 Si1 3.021443 1_455
Er5 Si7 3.021443 1_545
Er6 Si10 2.977575 1_545
Er6 Si2 2.977594 1_455
Er6 Si8 2.988879 1_555
Er6 Si4 2.988883 1_445
Er6 Si1 3.021443 1_455
Er6 Si7 3.021443 1_545
Er7 Si6 2.989574 1_556
Er7 Si0 2.989574 1_456
Er7 Si5 3.025497 1_455
Er7 Si9 3.025512 1_555
Er7 Si11 3.032533 1_555
Er7 Si3 3.032540 1_455
Er8 Si5 2.898926 1_554
Er8 Si2 2.898926 1_555
Er8 Si0 3.055814 1_555
Er8 Si6 3.231632 1_555
Er8 Si6 3.638497 1_655
Er9 Si4 2.865711 1_555
Er9 Si3 2.865711 1_555
Er9 Si1 3.022080 1_565
Er9 Si7 3.342224 1_655
Er9 Si7 3.447269 1_555
Er10 Si4 2.866895 1_555
Er10 Si1 2.873155 1_555
Er10 Si2 2.991690 1_555
Er10 Si8 3.358266 1_655
Er10 Si8 3.428234 1_555
Er11 Si0 2.891596 1_556
Er11 Si5 2.897689 1_565
Er11 Si3 3.097719 1_555
Er11 Si9 3.275741 1_555
Er11 Si9 3.591197 1_655
Er12 Si0 2.891596 1_555
Er12 Si2 2.897689 1_565
Er12 Si4 3.097720 1_555
Er12 Si10 3.275741 1_555
Er12 Si10 3.591197 1_655
Er13 Si3 2.866895 1_555
Er13 Si1 2.873155 1_555
Er13 Si5 2.991690 1_555
Er13 Si11 3.358266 1_655
Er13 Si11 3.428233 1_555
Er14 Si10 2.898933 1_555
Er14 Si9 2.898933 1_554
Er14 Si6 3.055814 1_555
Er14 Si0 3.231614 1_555
Er14 Si0 3.638515 1_455
Er15 Si11 2.865708 1_555
Er15 Si8 2.865708 1_555
Er15 Si7 3.022081 1_545
Er15 Si1 3.342251 1_455
Er15 Si1 3.447243 1_555
Er16 Si6 2.891597 1_555
Er16 Si10 2.897669 1_545
Er16 Si8 3.097728 1_555
Er16 Si2 3.275691 1_555
Er16 Si2 3.591254 1_455
Er17 Si11 2.866885 1_555
Er17 Si7 2.873157 1_555
Er17 Si9 2.991702 1_555
Er17 Si3 3.358260 1_455
Er17 Si3 3.428251 1_555
Er18 Si8 2.866885 1_555
Er18 Si7 2.873157 1_555
Er18 Si10 2.991702 1_555
Er18 Si4 3.358260 1_455
Er18 Si4 3.428251 1_555
Er19 Si6 2.891597 1_556
Er19 Si9 2.897668 1_545
Er19 Si11 3.097728 1_555
Er19 Si5 3.275691 1_555
Er19 Si5 3.591254 1_455
C0 Er14 2.417864 1_545
C0 Er8 2.417889 1_555
C0 Er11 2.425126 1_544
C0 Er12 2.425127 1_545
C0 Er16 2.425127 1_555
C0 Er19 2.425128 1_554
