# generated using pymatgen
data_Ta3Sb(PO4)6
_symmetry_space_group_name_H-M   'P 1'
_cell_length_a   8.97237282
_cell_length_b   8.97237282
_cell_length_c   8.97237289
_cell_angle_alpha   58.12359937
_cell_angle_beta   58.12359933
_cell_angle_gamma   58.12359898
_symmetry_Int_Tables_number   1
_chemical_formula_structural   Ta3Sb(PO4)6
_chemical_formula_sum   'Ta3 Sb1 P6 O24'
_cell_volume   488.77914420
_cell_formula_units_Z   1
loop_
 _symmetry_equiv_pos_site_id
 _symmetry_equiv_pos_as_xyz
  1  'x, y, z'
loop_
 _atom_site_type_symbol
 _atom_site_label
 _atom_site_symmetry_multiplicity
 _atom_site_fract_x
 _atom_site_fract_y
 _atom_site_fract_z
 _atom_site_occupancy
  Ta  Ta0  1  0.86002546  0.86002546  0.86002546  1
  Ta  Ta1  1  0.64177516  0.64177516  0.64177516  1
  Ta  Ta2  1  0.14069693  0.14069693  0.14069693  1
  Sb  Sb0  1  0.36249766  0.36249766  0.36249766  1
  P  P0  1  0.96487693  0.53469356  0.25006259  1
  P  P1  1  0.25006259  0.96487693  0.53469356  1
  P  P2  1  0.53469356  0.25006259  0.96487693  1
  P  P3  1  0.77231239  0.00818431  0.46951669  1
  P  P4  1  0.46951669  0.77231239  0.00818431  1
  P  P5  1  0.00818431  0.46951669  0.77231239  1
  O  O0  1  0.14168911  0.52633921  0.23838279  1
  O  O1  1  0.23838279  0.14168911  0.52633921  1
  O  O2  1  0.52633921  0.23838279  0.14168911  1
  O  O3  1  0.85304338  0.95611879  0.61103346  1
  O  O4  1  0.61103346  0.85304338  0.95611879  1
  O  O5  1  0.95611879  0.61103346  0.85304338  1
  O  O6  1  0.82995782  0.48740011  0.76723625  1
  O  O7  1  0.76723625  0.82995782  0.48740011  1
  O  O8  1  0.48740011  0.76723625  0.82995782  1
  O  O9  1  0.21173006  0.99838084  0.36916759  1
  O  O10  1  0.36916759  0.21173006  0.99838084  1
  O  O11  1  0.99838084  0.36916759  0.21173006  1
  O  O12  1  0.15615387  0.49861630  0.58439628  1
  O  O13  1  0.58439628  0.15615387  0.49861630  1
  O  O14  1  0.49861630  0.58439628  0.15615387  1
  O  O15  1  0.10682446  0.88738784  0.72199974  1
  O  O16  1  0.72199974  0.10682446  0.88738784  1
  O  O17  1  0.88738784  0.72199974  0.10682446  1
  O  O18  1  0.80763970  0.53172363  0.44304495  1
  O  O19  1  0.44304495  0.80763970  0.53172363  1
  O  O20  1  0.53172363  0.44304495  0.80763970  1
  O  O21  1  0.91796639  0.07196068  0.27716506  1
  O  O22  1  0.27716506  0.91796639  0.07196068  1
  O  O23  1  0.07196068  0.27716506  0.91796639  1
loop_
_geom_bond_atom_site_label_1
_geom_bond_atom_site_label_2
_geom_bond_distance
_geom_bond_site_symmetry_2
O0 P0 1.496815 1_455
O0 Sb0 2.202579 1_555
O1 P1 1.496815 1_545
O1 Sb0 2.202579 1_555
O2 P2 1.496815 1_554
O2 Sb0 2.202579 1_555
O3 P3 1.530583 1_565
O3 Ta0 1.947989 1_555
O4 P4 1.530583 1_556
O4 Ta0 1.947989 1_555
O5 P5 1.530583 1_655
O5 Ta0 1.947989 1_555
O6 P5 1.543758 1_655
O6 Ta1 1.981696 1_555
O7 P3 1.543758 1_565
O7 Ta1 1.981696 1_555
O8 P4 1.543758 1_556
O8 Ta1 1.981696 1_555
O9 P1 1.540493 1_555
O9 Ta2 1.998653 1_565
O10 P2 1.540493 1_555
O10 Ta2 1.998653 1_556
O11 P0 1.540493 1_555
O11 Ta2 1.998653 1_655
O12 P5 1.486779 1_555
O12 Sb0 2.273778 1_555
O13 P3 1.486779 1_555
O13 Sb0 2.273778 1_555
O14 P4 1.486779 1_555
O14 Sb0 2.273778 1_555
O15 P1 1.545284 1_555
O15 Ta0 1.963183 1_455
O16 P2 1.545284 1_555
O16 Ta0 1.963183 1_545
O17 P0 1.545284 1_555
O17 Ta0 1.963183 1_554
O18 P0 1.549230 1_555
O18 Ta1 1.968248 1_555
O19 P1 1.549230 1_555
O19 Ta1 1.968248 1_555
O20 P2 1.549230 1_555
O20 Ta1 1.968248 1_555
O21 P3 1.542243 1_555
O21 Ta2 1.947571 1_655
O22 P4 1.542243 1_555
O22 Ta2 1.947571 1_565
O23 P5 1.542243 1_555
O23 Ta2 1.947571 1_556
