# generated using pymatgen
data_Nd2Fe15(SiH)2
_symmetry_space_group_name_H-M   'P 1'
_cell_length_a   6.44048154
_cell_length_b   6.44954352
_cell_length_c   6.44048154
_cell_angle_alpha   82.32472458
_cell_angle_beta   82.43428541
_cell_angle_gamma   82.32472458
_symmetry_Int_Tables_number   1
_chemical_formula_structural   Nd2Fe15(SiH)2
_chemical_formula_sum   'Nd2 Fe15 Si2 H2'
_cell_volume   260.98319666
_cell_formula_units_Z   1
loop_
 _symmetry_equiv_pos_site_id
 _symmetry_equiv_pos_as_xyz
  1  'x, y, z'
loop_
 _atom_site_type_symbol
 _atom_site_label
 _atom_site_symmetry_multiplicity
 _atom_site_fract_x
 _atom_site_fract_y
 _atom_site_fract_z
 _atom_site_occupancy
  Nd  Nd0  1  0.65127800  0.65472000  0.65127800  1
  Nd  Nd1  1  0.34872200  0.34528000  0.34872200  1
  Fe  Fe0  1  0.71498000  0.00000000  0.28502000  1
  Fe  Fe1  1  0.00028900  0.28112300  0.71862300  1
  Fe  Fe2  1  0.28137700  0.71887700  0.99971100  1
  Fe  Fe3  1  0.99971100  0.71887700  0.28137700  1
  Fe  Fe4  1  0.71862300  0.28112300  0.00028900  1
  Fe  Fe5  1  0.28502000  0.00000000  0.71498000  1
  Fe  Fe6  1  0.00000000  0.50000000  0.00000000  1
  Fe  Fe7  1  0.50000000  0.00000000  0.00000000  1
  Fe  Fe8  1  0.00000000  0.00000000  0.50000000  1
  Fe  Fe9  1  0.33888400  0.84707500  0.33888400  1
  Fe  Fe10  1  0.84833400  0.33963700  0.34015600  1
  Fe  Fe11  1  0.34015600  0.33963700  0.84833400  1
  Fe  Fe12  1  0.66111600  0.15292500  0.66111600  1
  Fe  Fe13  1  0.15166600  0.66036300  0.65984400  1
  Fe  Fe14  1  0.65984400  0.66036300  0.15166600  1
  Si  Si0  1  0.89863600  0.89782700  0.89863600  1
  Si  Si1  1  0.10136400  0.10217300  0.10136400  1
  H  H0  1  0.00000000  0.50000000  0.50000000  1
  H  H1  1  0.50000000  0.50000000  0.00000000  1
loop_
_geom_bond_atom_site_label_1
_geom_bond_atom_site_label_2
_geom_bond_distance
_geom_bond_site_symmetry_2
Nd0 Si0 3.088225 1_555
Nd1 Si1 3.088225 1_555
Fe0 Fe4 2.400557 1_555
Fe0 Fe3 2.400557 1_545
Fe0 Fe7 2.440490 1_555
Fe0 Fe8 2.440490 1_655
Fe0 Fe14 2.540212 1_545
Fe0 Fe10 2.540212 1_555
Fe0 Fe9 2.699233 1_545
Fe0 Fe12 2.699233 1_555
Fe0 Si1 2.735085 1_655
Fe0 Si0 2.735085 1_544
Fe0 Nd1 3.045940 1_555
Fe0 Nd0 3.045940 1_545
Fe1 H0 1.855909 1_555
Fe1 Fe5 2.400557 1_555
Fe1 Fe8 2.439976 1_555
Fe1 Fe6 2.441027 1_556
Fe1 Fe12 2.523859 1_455
Fe1 Si1 2.700765 1_556
Fe1 Si0 2.711242 1_445
Fe2 H1 1.855909 1_556
Fe2 Fe5 2.400557 1_565
Fe2 Fe7 2.439976 1_566
Fe2 Fe6 2.441027 1_556
Fe2 Fe9 2.523859 1_556
Fe2 Si0 2.700765 1_455
Fe2 Si1 2.711242 1_566
Fe3 H0 1.855909 1_655
Fe3 Fe8 2.439976 1_665
Fe3 Fe6 2.441027 1_655
Fe3 Fe9 2.523859 1_655
Fe3 Si0 2.700765 1_554
Fe3 Si1 2.711242 1_665
Fe4 H1 1.855909 1_555
Fe4 Fe7 2.439976 1_555
Fe4 Fe6 2.441027 1_655
Fe4 Si1 2.700765 1_655
Fe4 Si0 2.711242 1_544
Fe5 Fe8 2.440490 1_555
Fe5 Fe7 2.440490 1_556
Fe5 Fe9 2.699233 1_545
Fe5 Si0 2.735085 1_445
Fe5 Si1 2.735085 1_556
Fe5 Nd1 3.045940 1_555
Fe5 Nd0 3.045940 1_545
Fe6 Si1 2.579358 1_555
Fe6 Si0 2.579358 1_454
Fe6 Nd0 3.348910 1_454
Fe6 Nd1 3.348910 1_555
Fe7 Fe9 2.432109 1_545
Fe7 Si0 2.583341 1_544
Fe7 Si1 2.583341 1_555
Fe7 Nd1 3.336583 1_555
Fe7 Nd0 3.336583 1_544
Fe8 Fe9 2.432109 1_545
Fe8 Si0 2.583341 1_445
Fe8 Si1 2.583341 1_555
Fe8 Nd1 3.336583 1_555
Fe8 Nd0 3.336583 1_445
Fe9 Si1 2.580458 1_565
Fe9 Nd0 3.060653 1_555
Fe9 Nd1 3.220790 1_555
Fe9 Nd1 3.231482 1_565
Fe10 H0 1.975535 1_655
Fe10 Fe8 2.429639 1_655
Fe10 Fe6 2.434015 1_655
Fe10 Fe12 2.498730 1_555
Fe10 Si1 2.582454 1_655
Fe11 H1 1.975535 1_556
Fe11 Fe7 2.429639 1_556
Fe11 Fe6 2.434015 1_556
Fe11 Fe12 2.498730 1_555
Fe11 Fe5 2.540212 1_555
Fe11 Si1 2.582454 1_556
Fe12 Fe8 2.432109 1_655
Fe12 Fe7 2.432109 1_556
Fe12 Fe4 2.523859 1_556
Fe12 Si0 2.580458 1_545
Fe12 Fe5 2.699233 1_555
Fe12 Nd1 3.060653 1_555
Fe12 Nd0 3.220790 1_555
Fe12 Nd0 3.231482 1_545
Fe13 H0 1.975535 1_555
Fe13 Fe8 2.429639 1_565
Fe13 Fe6 2.434015 1_556
Fe13 Fe9 2.498730 1_555
Fe13 Fe5 2.540212 1_565
Fe13 Si0 2.582454 1_455
Fe14 H1 1.975535 1_555
Fe14 Fe7 2.429639 1_565
Fe14 Fe6 2.434015 1_655
Fe14 Fe9 2.498730 1_555
Fe14 Si0 2.582454 1_554
Si0 Si1 2.552391 1_666
H0 Nd0 2.464566 1_455
H0 Nd1 2.464566 1_555
H1 Nd0 2.464566 1_554
H1 Nd1 2.464566 1_555
