# generated using pymatgen
data_Mg5Pb
_symmetry_space_group_name_H-M   'P 1'
_cell_length_a   6.14363134
_cell_length_b   6.14363134
_cell_length_c   6.14363223
_cell_angle_alpha   53.78538156
_cell_angle_beta   53.78538156
_cell_angle_gamma   53.78538079
_symmetry_Int_Tables_number   1
_chemical_formula_structural   Mg5Pb
_chemical_formula_sum   'Mg5 Pb1'
_cell_volume   140.14859279
_cell_formula_units_Z   1
loop_
 _symmetry_equiv_pos_site_id
 _symmetry_equiv_pos_as_xyz
  1  'x, y, z'
loop_
 _atom_site_type_symbol
 _atom_site_label
 _atom_site_symmetry_multiplicity
 _atom_site_fract_x
 _atom_site_fract_y
 _atom_site_fract_z
 _atom_site_occupancy
  Mg  Mg0  1  0.00000000  0.66687502  0.33312498  1
  Mg  Mg1  1  0.66687502  0.33312498  -0.00000000  1
  Mg  Mg2  1  0.33312498  -0.00000000  0.66687502  1
  Mg  Mg3  1  0.83254860  0.83254860  0.83254860  1
  Mg  Mg4  1  0.16745140  0.16745140  0.16745140  1
  Pb  Pb0  1  0.50000000  0.50000000  0.50000000  1
loop_
_geom_bond_atom_site_label_1
_geom_bond_atom_site_label_2
_geom_bond_distance
_geom_bond_site_symmetry_2
Mg0 Mg4 3.198712 1_555
Mg0 Mg3 3.198713 1_455
Mg0 Mg1 3.206784 1_465
Mg0 Mg2 3.206784 1_564
Mg0 Pb0 3.208773 1_455
Mg0 Pb0 3.208773 1_555
Mg0 Mg1 3.209793 1_555
Mg0 Mg2 3.209793 1_555
Mg0 Mg2 3.209793 1_465
Mg0 Mg1 3.209793 1_456
Mg0 Mg4 3.217850 1_565
Mg0 Mg3 3.217851 1_454
Mg1 Mg4 3.198712 1_555
Mg1 Mg3 3.198712 1_554
Mg1 Mg2 3.206784 1_654
Mg1 Pb0 3.208774 1_555
Mg1 Pb0 3.208774 1_554
Mg1 Mg2 3.209793 1_564
Mg1 Mg2 3.209793 1_555
Mg1 Mg3 3.217850 1_544
Mg1 Mg4 3.217850 1_655
Mg2 Mg3 3.198712 1_545
Mg2 Mg4 3.198713 1_555
Mg2 Pb0 3.208773 1_555
Mg2 Pb0 3.208773 1_545
Mg2 Mg3 3.217850 1_445
Mg2 Mg4 3.217851 1_556
Mg3 Pb0 3.208813 1_565
Mg3 Pb0 3.208813 1_655
Mg3 Pb0 3.208813 1_556
Mg3 Mg4 3.208884 1_566
Mg3 Mg4 3.208884 1_656
Mg3 Mg4 3.208884 1_665
Mg4 Pb0 3.208813 1_545
Mg4 Pb0 3.208813 1_455
Mg4 Pb0 3.208813 1_554
