# generated using pymatgen
data_BiPb3Au
_symmetry_space_group_name_H-M   'P 1'
_cell_length_a   11.51087400
_cell_length_b   11.51087400
_cell_length_c   4.50053000
_cell_angle_alpha   90.00000000
_cell_angle_beta   90.00000000
_cell_angle_gamma   90.00000000
_symmetry_Int_Tables_number   1
_chemical_formula_structural   BiPb3Au
_chemical_formula_sum   'Bi4 Pb12 Au4'
_cell_volume   596.32121621
_cell_formula_units_Z   4
loop_
 _symmetry_equiv_pos_site_id
 _symmetry_equiv_pos_as_xyz
  1  'x, y, z'
loop_
 _atom_site_type_symbol
 _atom_site_label
 _atom_site_symmetry_multiplicity
 _atom_site_fract_x
 _atom_site_fract_y
 _atom_site_fract_z
 _atom_site_occupancy
  Bi  Bi0  1  0.70589800  0.29410200  0.00000000  1
  Bi  Bi1  1  0.29410200  0.70589800  0.00000000  1
  Bi  Bi2  1  0.79410200  0.79410200  0.50000000  1
  Bi  Bi3  1  0.20589800  0.20589800  0.50000000  1
  Pb  Pb0  1  0.39204800  0.39204800  0.00000000  1
  Pb  Pb1  1  0.60795200  0.60795200  0.00000000  1
  Pb  Pb2  1  0.89204800  0.10795200  0.50000000  1
  Pb  Pb3  1  0.10795200  0.89204800  0.50000000  1
  Pb  Pb4  1  0.33773600  0.00138800  0.00000000  1
  Pb  Pb5  1  0.66226400  0.99861200  0.00000000  1
  Pb  Pb6  1  0.50138800  0.16226400  0.50000000  1
  Pb  Pb7  1  0.83773600  0.49861200  0.50000000  1
  Pb  Pb8  1  0.49861200  0.83773600  0.50000000  1
  Pb  Pb9  1  0.16226400  0.50138800  0.50000000  1
  Pb  Pb10  1  0.00138800  0.33773600  0.00000000  1
  Pb  Pb11  1  0.99861200  0.66226400  0.00000000  1
  Au  Au0  1  0.08715100  0.08715100  0.00000000  1
  Au  Au1  1  0.91284900  0.91284900  0.00000000  1
  Au  Au2  1  0.58715100  0.41284900  0.50000000  1
  Au  Au3  1  0.41284900  0.58715100  0.50000000  1
loop_
_geom_bond_atom_site_label_1
_geom_bond_atom_site_label_2
_geom_bond_distance
_geom_bond_site_symmetry_2
Bi0 Pb5 3.438232 1_545
Bi0 Pb10 3.438232 1_655
Bi1 Pb11 3.438232 1_455
Bi1 Pb4 3.438232 1_565
Bi2 Pb7 3.438232 1_555
Bi2 Pb8 3.438232 1_555
Bi3 Pb6 3.438232 1_555
Bi3 Pb9 3.438232 1_555
Pb4 Pb6 3.470095 1_555
Pb4 Pb6 3.470095 1_554
Pb4 Pb8 3.470095 1_544
Pb4 Pb8 3.470095 1_545
Pb5 Pb8 3.470095 1_554
Pb5 Pb8 3.470095 1_555
Pb5 Pb6 3.470095 1_564
Pb5 Pb6 3.470095 1_565
Pb10 Pb9 3.470095 1_555
Pb10 Pb9 3.470095 1_554
Pb10 Pb7 3.470095 1_454
Pb10 Pb7 3.470095 1_455
Pb11 Pb7 3.470095 1_554
Pb11 Pb7 3.470095 1_555
Pb11 Pb9 3.470095 1_655
Pb11 Pb9 3.470095 1_654
Au0 Au1 2.837433 1_445
Au0 Bi3 2.966551 1_555
Au0 Bi3 2.966551 1_554
Au0 Pb10 3.048712 1_555
Au0 Pb4 3.048712 1_555
Au0 Pb3 3.188208 1_544
Au0 Pb3 3.188208 1_545
Au0 Pb2 3.188208 1_455
Au0 Pb2 3.188208 1_454
Au1 Bi2 2.966551 1_554
Au1 Bi2 2.966551 1_555
Au1 Pb5 3.048712 1_555
Au1 Pb11 3.048712 1_555
Au1 Pb2 3.188208 1_564
Au1 Pb3 3.188208 1_654
Au1 Pb2 3.188208 1_565
Au1 Pb3 3.188208 1_655
Au2 Au3 2.837433 1_555
Au2 Bi0 2.966551 1_556
Au2 Bi0 2.966551 1_555
Au2 Pb6 3.048712 1_555
Au2 Pb7 3.048712 1_555
Au2 Pb0 3.188208 1_556
Au2 Pb0 3.188208 1_555
Au2 Pb1 3.188208 1_556
Au2 Pb1 3.188208 1_555
Au3 Bi1 2.966551 1_555
Au3 Bi1 2.966551 1_556
Au3 Pb9 3.048712 1_555
Au3 Pb8 3.048712 1_555
Au3 Pb0 3.188208 1_556
Au3 Pb0 3.188208 1_555
Au3 Pb1 3.188208 1_555
Au3 Pb1 3.188208 1_556
