# generated using pymatgen
data_Sr2CoSbO6
_symmetry_space_group_name_H-M   'P 1'
_cell_length_a   7.95313401
_cell_length_b   9.85322717
_cell_length_c   7.94853204
_cell_angle_alpha   66.14547894
_cell_angle_beta   89.83728987
_cell_angle_gamma   66.11980637
_symmetry_Int_Tables_number   1
_chemical_formula_structural   Sr2CoSbO6
_chemical_formula_sum   'Sr8 Co4 Sb4 O24'
_cell_volume   511.17311850
_cell_formula_units_Z   4
loop_
 _symmetry_equiv_pos_site_id
 _symmetry_equiv_pos_as_xyz
  1  'x, y, z'
loop_
 _atom_site_type_symbol
 _atom_site_label
 _atom_site_symmetry_multiplicity
 _atom_site_fract_x
 _atom_site_fract_y
 _atom_site_fract_z
 _atom_site_occupancy
  Sr  Sr0  1  0.62780500  0.24986900  0.62477200  1
  Sr  Sr1  1  0.37528300  0.74987000  0.87778600  1
  Sr  Sr2  1  0.12229200  0.24991900  0.12540300  1
  Sr  Sr3  1  0.87488200  0.74988100  0.37227600  1
  Sr  Sr4  1  0.37494000  0.75011100  0.37256500  1
  Sr  Sr5  1  0.12257900  0.25007100  0.62490700  1
  Sr  Sr6  1  0.87494900  0.75015200  0.87723600  1
  Sr  Sr7  1  0.62727100  0.25014000  0.12505900  1
  Co  Co0  1  0.75068700  0.49865200  0.75067000  1
  Co  Co1  1  0.50078600  0.99845000  0.00080800  1
  Co  Co2  1  0.99922700  0.00158600  0.49918200  1
  Co  Co3  1  0.24930300  0.50136200  0.24937300  1
  Sb  Sb0  1  0.74996300  0.50005700  0.24996600  1
  Sb  Sb1  1  0.50001000  0.99999000  0.50002200  1
  Sb  Sb2  1  0.25002600  0.49995900  0.75004200  1
  Sb  Sb3  1  0.99998900  0.00003200  0.99996700  1
  O  O0  1  0.75324500  0.99873100  0.49980500  1
  O  O1  1  0.50316200  0.50125500  0.74921900  1
  O  O2  1  0.24906000  0.00027300  0.00057700  1
  O  O3  1  0.99991100  0.49964400  0.24963800  1
  O  O4  1  0.24806000  0.99863000  0.50150200  1
  O  O5  1  0.99555400  0.50132600  0.74948100  1
  O  O6  1  0.75066300  0.00030000  0.99915300  1
  O  O7  1  0.50035200  0.49981000  0.25065900  1
  O  O8  1  0.87393000  0.25197100  0.37403600  1
  O  O9  1  0.62224200  0.75559800  0.62215400  1
  O  O10  1  0.37207900  0.25581800  0.87218100  1
  O  O11  1  0.12394800  0.75220800  0.12371600  1
  O  O12  1  0.12794600  0.74421800  0.62783500  1
  O  O13  1  0.87607300  0.24775100  0.87615800  1
  O  O14  1  0.62603600  0.74798100  0.12591100  1
  O  O15  1  0.37771500  0.24443300  0.37794000  1
  O  O16  1  0.00107900  0.99965700  0.74998800  1
  O  O17  1  0.75007500  0.50018600  0.00071900  1
  O  O18  1  0.49859400  0.00149300  0.24552400  1
  O  O19  1  0.25117600  0.49863500  0.49759300  1
  O  O20  1  0.99931200  0.99958000  0.25035900  1
  O  O21  1  0.74974300  0.50019400  0.49908100  1
  O  O22  1  0.49999300  0.00132900  0.75309000  1
  O  O23  1  0.25006000  0.49887400  0.00364800  1
loop_
_geom_bond_atom_site_label_1
_geom_bond_atom_site_label_2
_geom_bond_distance
_geom_bond_site_symmetry_2
Co0 O5 1.958219 1_555
Co0 O1 1.958363 1_555
Co0 O17 1.993660 1_556
Co0 O21 1.993679 1_555
Co0 O13 2.028836 1_555
Co0 O9 2.077717 1_555
Co1 O18 1.957371 1_565
Co1 O22 1.957685 1_564
Co1 O6 1.994712 1_564
Co1 O2 1.994806 1_565
Co1 O14 2.025343 1_555
Co1 O10 2.081129 1_564
Co2 O4 1.967420 1_645
Co2 O0 1.967848 1_545
Co2 O20 1.985849 1_545
Co2 O16 1.985968 1_645
Co2 O8 2.024664 1_555
Co2 O12 2.081129 1_645
Co3 O19 1.962288 1_555
Co3 O23 1.963157 1_555
Co3 O3 1.990349 1_455
Co3 O7 1.990508 1_555
Co3 O11 2.028392 1_555
Co3 O15 2.077580 1_555
O0 Sb1 2.009022 1_555
O0 Sr7 2.837626 1_565
O0 Sr3 2.838982 1_555
O0 Sr0 2.844092 1_565
O0 Sr6 2.844267 1_555
O1 Sb2 2.018403 1_555
O1 Sr4 2.840893 1_555
O1 Sr1 2.842753 1_555
O1 Sr7 2.842814 1_556
O1 Sr0 2.843349 1_555
O2 Sb3 1.981880 1_454
O2 Sr4 2.818583 1_545
O2 Sr1 2.825705 1_544
O2 Sr2 2.830552 1_555
O2 Sr5 2.837993 1_554
O3 Sb0 1.986222 1_555
O3 Sr6 2.821903 1_554
O3 Sr3 2.823442 1_555
O3 Sr2 2.828036 1_655
O3 Sr5 2.835053 1_655
O4 Sb1 2.009224 1_555
O4 Sr5 2.838011 1_565
O4 Sr1 2.838452 1_555
O4 Sr4 2.843965 1_555
O4 Sr2 2.844777 1_565
O5 Sb2 2.018440 1_655
O5 Sr6 2.840136 1_555
O5 Sr5 2.842903 1_655
O5 Sr3 2.842982 1_555
O5 Sr2 2.844172 1_656
O6 Sb3 1.981881 1_555
O6 Sr6 2.818704 1_545
O6 Sr3 2.825626 1_546
O6 Sr0 2.830083 1_555
O6 Sr7 2.838275 1_556
O7 Sb0 1.986165 1_555
O7 Sr4 2.819930 1_555
O7 Sr1 2.823160 1_554
O7 Sr0 2.829796 1_555
O7 Sr7 2.835077 1_555
O8 Sb0 2.006073 1_555
O8 Sr0 2.789509 1_555
O8 Sr2 2.790249 1_655
O8 Sr7 2.800834 1_555
O8 Sr5 2.801696 1_655
O9 Sb1 1.976203 1_555
O9 Sr3 2.821597 1_555
O9 Sr1 2.822022 1_555
O9 Sr6 2.828590 1_555
O9 Sr4 2.828792 1_555
O10 Sb2 1.974173 1_555
O10 Sr2 2.824395 1_556
O10 Sr0 2.825091 1_555
O10 Sr7 2.828909 1_556
O10 Sr5 2.829644 1_555
O11 Sb3 2.003955 1_464
O11 Sr1 2.791820 1_554
O11 Sr3 2.793843 1_455
O11 Sr6 2.801248 1_454
O11 Sr4 2.802415 1_555
O12 Sb2 1.975128 1_555
O12 Sr4 2.820194 1_555
O12 Sr6 2.820936 1_455
O12 Sr1 2.831984 1_555
O12 Sr3 2.832094 1_455
O13 Sb3 2.003106 1_555
O13 Sr7 2.794245 1_556
O13 Sr5 2.794549 1_655
O13 Sr0 2.801257 1_555
O13 Sr2 2.801798 1_656
O14 Sb0 2.004764 1_555
O14 Sr6 2.793607 1_554
O14 Sr4 2.794506 1_555
O14 Sr1 2.798169 1_554
O14 Sr3 2.798853 1_555
O15 Sb1 1.976615 1_545
O15 Sr5 2.819262 1_555
O15 Sr7 2.821156 1_555
O15 Sr0 2.828721 1_555
O15 Sr2 2.829364 1_555
O16 Sb3 1.988451 1_465
O16 Sr5 2.819752 1_565
O16 Sr0 2.826337 1_465
O16 Sr1 2.830376 1_555
O16 Sr6 2.837761 1_455
O17 Sb0 1.980632 1_555
O17 Sr2 2.820634 1_655
O17 Sr7 2.823840 1_555
O17 Sr1 2.833215 1_554
O17 Sr6 2.834705 1_554
O18 Sb1 2.016972 1_545
O18 Sr2 2.838076 1_555
O18 Sr4 2.839989 1_545
O18 Sr7 2.844917 1_555
O18 Sr3 2.847319 1_545
O19 Sb2 2.011881 1_555
O19 Sr0 2.840918 1_555
O19 Sr4 2.841422 1_555
O19 Sr5 2.843589 1_555
O19 Sr3 2.846228 1_455
O20 Sb3 1.988449 1_564
O20 Sr7 2.820554 1_565
O20 Sr2 2.827316 1_665
O20 Sr3 2.830039 1_555
O20 Sr4 2.837268 1_655
O21 Sb0 1.980640 1_555
O21 Sr0 2.821408 1_555
O21 Sr5 2.823655 1_655
O21 Sr3 2.833762 1_555
O21 Sr4 2.834013 1_555
O22 Sb1 2.016890 1_545
O22 Sr6 2.838582 1_545
O22 Sr0 2.839036 1_555
O22 Sr5 2.845352 1_555
O22 Sr1 2.846547 1_545
O23 Sb2 2.011496 1_554
O23 Sr6 2.839766 1_454
O23 Sr2 2.842335 1_555
O23 Sr7 2.844011 1_555
O23 Sr1 2.845411 1_554
