# generated using pymatgen
data_NaMnCu3Se4
_symmetry_space_group_name_H-M   'P 1'
_cell_length_a   5.86949600
_cell_length_b   5.86949600
_cell_length_c   5.86949600
_cell_angle_alpha   90.00000000
_cell_angle_beta   90.00000000
_cell_angle_gamma   90.00000000
_symmetry_Int_Tables_number   1
_chemical_formula_structural   NaMnCu3Se4
_chemical_formula_sum   'Na1 Mn1 Cu3 Se4'
_cell_volume   202.20990864
_cell_formula_units_Z   1
loop_
 _symmetry_equiv_pos_site_id
 _symmetry_equiv_pos_as_xyz
  1  'x, y, z'
loop_
 _atom_site_type_symbol
 _atom_site_label
 _atom_site_symmetry_multiplicity
 _atom_site_fract_x
 _atom_site_fract_y
 _atom_site_fract_z
 _atom_site_occupancy
  Na  Na0  1  0.50000000  0.50000000  0.50000000  1
  Mn  Mn0  1  0.00000000  0.00000000  0.00000000  1
  Cu  Cu0  1  0.00000000  0.50000000  0.00000000  1
  Cu  Cu1  1  0.00000000  0.00000000  0.50000000  1
  Cu  Cu2  1  0.50000000  0.00000000  0.00000000  1
  Se  Se0  1  0.23102800  0.23102800  0.23102800  1
  Se  Se1  1  0.76897200  0.76897200  0.23102800  1
  Se  Se2  1  0.23102800  0.76897200  0.76897200  1
  Se  Se3  1  0.76897200  0.23102800  0.76897200  1
loop_
_geom_bond_atom_site_label_1
_geom_bond_atom_site_label_2
_geom_bond_distance
_geom_bond_site_symmetry_2
Na0 Se2 2.734441 1_555
Na0 Se1 2.734441 1_555
Na0 Se3 2.734441 1_555
Na0 Se0 2.734441 1_555
Mn0 Se0 2.348692 1_555
Mn0 Se2 2.348692 1_544
Mn0 Se1 2.348692 1_445
Mn0 Se3 2.348692 1_454
Cu0 Se1 2.483940 1_455
Cu0 Se2 2.483940 1_554
Cu0 Se0 2.483940 1_555
Cu0 Se3 2.483940 1_454
Cu1 Se2 2.483940 1_545
Cu1 Se3 2.483940 1_455
Cu1 Se0 2.483940 1_555
Cu1 Se1 2.483940 1_445
Cu2 Se1 2.483940 1_545
Cu2 Se3 2.483940 1_554
Cu2 Se0 2.483940 1_555
Cu2 Se2 2.483940 1_544
