# generated using pymatgen
data_MgFeP2O7
_symmetry_space_group_name_H-M   'P 1'
_cell_length_a   6.78961029
_cell_length_b   11.43667521
_cell_length_c   7.12236287
_cell_angle_alpha   99.48072670
_cell_angle_beta   77.23514872
_cell_angle_gamma   87.08589951
_symmetry_Int_Tables_number   1
_chemical_formula_structural   MgFeP2O7
_chemical_formula_sum   'Mg4 Fe4 P8 O28'
_cell_volume   529.82737976
_cell_formula_units_Z   4
loop_
 _symmetry_equiv_pos_site_id
 _symmetry_equiv_pos_as_xyz
  1  'x, y, z'
loop_
 _atom_site_type_symbol
 _atom_site_label
 _atom_site_symmetry_multiplicity
 _atom_site_fract_x
 _atom_site_fract_y
 _atom_site_fract_z
 _atom_site_occupancy
  Mg  Mg0  1  0.83647400  0.15384900  0.26875800  1
  Mg  Mg1  1  0.83614000  0.65381600  0.76879900  1
  Mg  Mg2  1  0.16391000  0.34618000  0.23129200  1
  Mg  Mg3  1  0.16353400  0.84615600  0.73126700  1
  Fe  Fe0  1  0.69239900  0.54416500  0.34933200  1
  Fe  Fe1  1  0.30780800  0.45585400  0.65059500  1
  Fe  Fe2  1  0.69323000  0.04405700  0.84967200  1
  Fe  Fe3  1  0.30673700  0.95595600  0.15036800  1
  P  P0  1  0.18161400  0.11548900  0.87329300  1
  P  P1  1  0.18071500  0.61554100  0.37341300  1
  P  P2  1  0.81930500  0.38446200  0.62656400  1
  P  P3  1  0.81836900  0.88451800  0.12675800  1
  P  P4  1  0.63531200  0.32134600  0.01504000  1
  P  P5  1  0.63533500  0.82139200  0.51542700  1
  P  P6  1  0.36473300  0.17858800  0.48462000  1
  P  P7  1  0.36456800  0.67867300  0.98491000  1
  O  O0  1  0.75335800  0.29982400  0.78349200  1
  O  O1  1  0.75341700  0.79988600  0.28386400  1
  O  O2  1  0.24663700  0.20010700  0.71617300  1
  O  O3  1  0.24648300  0.70015000  0.21641600  1
  O  O4  1  0.04008600  0.02594000  0.80100500  1
  O  O5  1  0.03920800  0.52614200  0.30086500  1
  O  O6  1  0.96075400  0.47385300  0.69924400  1
  O  O7  1  0.95991000  0.97405300  0.19904100  1
  O  O8  1  0.58572700  0.14322700  0.47241600  1
  O  O9  1  0.58558400  0.64365200  0.97291800  1
  O  O10  1  0.41426300  0.35629200  0.02697000  1
  O  O11  1  0.41433300  0.85670100  0.52763100  1
  O  O12  1  0.32786600  0.30549900  0.43977000  1
  O  O13  1  0.32711800  0.80557400  0.94004600  1
  O  O14  1  0.67283500  0.19446400  0.05998800  1
  O  O15  1  0.67226900  0.69448500  0.56026900  1
  O  O16  1  0.92330000  0.29843000  0.43711800  1
  O  O17  1  0.92221800  0.79864800  0.93718100  1
  O  O18  1  0.07773800  0.20136300  0.06284100  1
  O  O19  1  0.07681400  0.70157000  0.56287700  1
  O  O20  1  0.63013200  0.45322400  0.59980800  1
  O  O21  1  0.62893200  0.95323000  0.10046900  1
  O  O22  1  0.37104200  0.04677500  0.89960000  1
  O  O23  1  0.36991800  0.54675300  0.40000900  1
  O  O24  1  0.25195600  0.09024200  0.37442300  1
  O  O25  1  0.25233200  0.59019200  0.87448200  1
  O  O26  1  0.74750400  0.40991000  0.12535700  1
  O  O27  1  0.74808400  0.90977200  0.62561600  1
loop_
_geom_bond_atom_site_label_1
_geom_bond_atom_site_label_2
_geom_bond_distance
_geom_bond_site_symmetry_2
Mg0 O8 2.001253 1_555
Mg0 O16 2.068301 1_555
Mg0 O18 2.102615 1_655
Mg0 O7 2.117003 1_545
Mg0 O14 2.136881 1_555
Mg1 O9 2.000989 1_555
Mg1 O17 2.068147 1_555
Mg1 O19 2.101218 1_655
Mg1 O6 2.121131 1_555
Mg1 O15 2.136668 1_555
Mg2 O10 2.000697 1_555
Mg2 O18 2.068562 1_555
Mg2 O16 2.100533 1_455
Mg2 O5 2.121296 1_555
Mg2 O12 2.136779 1_555
Mg3 O11 2.001216 1_555
Mg3 O19 2.068125 1_555
Mg3 O17 2.102800 1_455
Mg3 O4 2.116900 1_565
Mg3 O13 2.136573 1_555
Fe0 O26 1.978191 1_555
Fe0 O15 2.065386 1_555
Fe0 O23 2.136777 1_555
Fe0 O20 2.183053 1_555
Fe0 O5 2.296577 1_655
Fe1 O25 1.978323 1_555
Fe1 O12 2.065278 1_555
Fe1 O20 2.135647 1_555
Fe1 O23 2.183383 1_555
Fe1 O6 2.298099 1_455
Fe2 O27 1.978825 1_545
Fe2 O14 2.063305 1_556
Fe2 O22 2.135042 1_555
Fe2 O21 2.184748 1_546
Fe2 O4 2.296777 1_655
Fe3 O24 1.978842 1_565
Fe3 O13 2.063139 1_554
Fe3 O21 2.135096 1_555
Fe3 O22 2.184518 1_564
Fe3 O7 2.296576 1_455
O0 P2 1.601888 1_555
O0 P4 1.638549 1_556
O1 P3 1.601732 1_555
O1 P5 1.638713 1_555
O2 P0 1.601761 1_555
O2 P6 1.638669 1_555
O3 P1 1.601817 1_555
O3 P7 1.638377 1_554
O4 P0 1.543470 1_555
O5 P1 1.542940 1_555
O6 P2 1.542936 1_555
O7 P3 1.543419 1_555
O8 P6 1.513797 1_555
O9 P7 1.513451 1_555
O10 P4 1.513583 1_555
O11 P5 1.513726 1_555
O12 P6 1.556441 1_555
O13 P7 1.557004 1_555
O14 P4 1.557112 1_555
O15 P5 1.556447 1_555
O16 P2 1.535666 1_555
O17 P3 1.535188 1_556
O18 P0 1.535113 1_554
O19 P1 1.535588 1_555
O20 P2 1.536000 1_555
O21 P3 1.535917 1_555
O22 P0 1.535927 1_555
O23 P1 1.535868 1_555
O24 P6 1.518616 1_555
O25 P7 1.518014 1_555
O26 P4 1.517985 1_555
O27 P5 1.518698 1_555
