# generated using pymatgen
data_Al2Si2PbO8
_symmetry_space_group_name_H-M   'P 1'
_cell_length_a   7.27949700
_cell_length_b   7.80807646
_cell_length_c   7.86926090
_cell_angle_alpha   113.83043510
_cell_angle_beta   103.51698699
_cell_angle_gamma   103.38274627
_symmetry_Int_Tables_number   1
_chemical_formula_structural   Al2Si2PbO8
_chemical_formula_sum   'Al4 Si4 Pb2 O16'
_cell_volume   370.14693486
_cell_formula_units_Z   2
loop_
 _symmetry_equiv_pos_site_id
 _symmetry_equiv_pos_as_xyz
  1  'x, y, z'
loop_
 _atom_site_type_symbol
 _atom_site_label
 _atom_site_symmetry_multiplicity
 _atom_site_fract_x
 _atom_site_fract_y
 _atom_site_fract_z
 _atom_site_occupancy
  Al  Al0  1  0.77309500  0.81792900  0.17614000  1
  Al  Al1  1  0.77136000  0.17333300  0.81443400  1
  Al  Al2  1  0.22690500  0.18207100  0.82386000  1
  Al  Al3  1  0.22864000  0.82666700  0.18556600  1
  Si  Si0  1  0.65488400  0.19180000  0.42398800  1
  Si  Si1  1  0.65515500  0.42393300  0.19280800  1
  Si  Si2  1  0.34511600  0.80820000  0.57601200  1
  Si  Si3  1  0.34484500  0.57606700  0.80719200  1
  Pb  Pb0  1  0.86317900  0.71903100  0.75864800  1
  Pb  Pb1  1  0.13682100  0.28096900  0.24135200  1
  O  O0  1  0.77482600  0.05668800  0.31775900  1
  O  O1  1  0.77495800  0.31572700  0.05612000  1
  O  O2  1  0.22517400  0.94331200  0.68224100  1
  O  O3  1  0.22504200  0.68427300  0.94388000  1
  O  O4  1  0.70535300  0.39453500  0.39408200  1
  O  O5  1  0.29464700  0.60546500  0.60591800  1
  O  O6  1  0.99707100  0.86525200  0.12212700  1
  O  O7  1  0.00292900  0.13474800  0.87787300  1
  O  O8  1  0.74104000  0.66612700  0.28675900  1
  O  O9  1  0.74404200  0.29362900  0.66782600  1
  O  O10  1  0.25896000  0.33387300  0.71324100  1
  O  O11  1  0.25595800  0.70637100  0.33217400  1
  O  O12  1  0.59212900  0.68304600  0.92622000  1
  O  O13  1  0.59065900  0.92698900  0.68033800  1
  O  O14  1  0.40787100  0.31695400  0.07378000  1
  O  O15  1  0.40934100  0.07301100  0.31966200  1
loop_
_geom_bond_atom_site_label_1
_geom_bond_atom_site_label_2
_geom_bond_distance
_geom_bond_site_symmetry_2
Al0 O8 1.737169 1_555
Al0 O0 1.738186 1_565
Al0 O6 1.774117 1_555
Al0 O12 1.784757 1_554
Al1 O13 1.755941 1_545
Al1 O9 1.762861 1_555
Al1 O1 1.763110 1_556
Al1 O7 1.773366 1_655
Al2 O10 1.737169 1_555
Al2 O2 1.738186 1_545
Al2 O7 1.774117 1_555
Al2 O14 1.784757 1_556
Al3 O15 1.755941 1_565
Al3 O11 1.762861 1_555
Al3 O3 1.763110 1_554
Al3 O6 1.773366 1_455
O0 Si0 1.621434 1_555
O1 Si1 1.636039 1_555
O2 Si2 1.621434 1_555
O3 Si3 1.636039 1_555
O4 Si1 1.660404 1_555
O4 Si0 1.663848 1_555
O4 Pb0 2.684769 1_555
O5 Si3 1.660404 1_555
O5 Si2 1.663848 1_555
O5 Pb1 2.684769 1_555
O6 Pb0 2.444926 1_554
O7 Pb1 2.444926 1_556
O8 Si1 1.618791 1_555
O9 Si0 1.637509 1_555
O10 Si3 1.618791 1_555
O11 Si2 1.637509 1_555
O12 Si3 1.642856 1_555
O12 Pb0 2.640083 1_555
O13 Si2 1.631090 1_555
O14 Si1 1.642856 1_555
O14 Pb1 2.640083 1_555
O15 Si0 1.631090 1_555
