# generated using pymatgen
data_Be3N2
_symmetry_space_group_name_H-M   'P 1'
_cell_length_a   7.03862673
_cell_length_b   7.03862520
_cell_length_c   7.03862696
_cell_angle_alpha   109.47123142
_cell_angle_beta   109.47122702
_cell_angle_gamma   109.47121050
_symmetry_Int_Tables_number   1
_chemical_formula_structural   Be3N2
_chemical_formula_sum   'Be24 N16'
_cell_volume   268.43664046
_cell_formula_units_Z   8
loop_
 _symmetry_equiv_pos_site_id
 _symmetry_equiv_pos_as_xyz
  1  'x, y, z'
loop_
 _atom_site_type_symbol
 _atom_site_label
 _atom_site_symmetry_multiplicity
 _atom_site_fract_x
 _atom_site_fract_y
 _atom_site_fract_z
 _atom_site_occupancy
  Be  Be0  1  0.52653725  0.76621634  0.53093266  1
  Be  Be1  1  0.99560459  0.96906734  0.73528368  1
  Be  Be2  1  0.26032191  0.76471632  0.73378366  1
  Be  Be3  1  0.50439541  0.23967809  0.97346275  1
  Be  Be4  1  0.96906734  0.73528368  0.99560459  1
  Be  Be5  1  0.73378366  0.26032191  0.76471632  1
  Be  Be6  1  0.23967809  0.97346275  0.50439541  1
  Be  Be7  1  0.53093266  0.52653725  0.76621634  1
  Be  Be8  1  0.76621634  0.53093266  0.52653725  1
  Be  Be9  1  0.73528368  0.99560459  0.96906734  1
  Be  Be10  1  0.76471632  0.73378366  0.26032191  1
  Be  Be11  1  0.97346275  0.50439541  0.23967809  1
  Be  Be12  1  0.47346275  0.23378366  0.46906734  1
  Be  Be13  1  0.00439541  0.03093266  0.26471632  1
  Be  Be14  1  0.73967809  0.23528368  0.26621634  1
  Be  Be15  1  0.49560459  0.76032191  0.02653725  1
  Be  Be16  1  0.03093266  0.26471632  0.00439541  1
  Be  Be17  1  0.26621634  0.73967809  0.23528368  1
  Be  Be18  1  0.76032191  0.02653725  0.49560459  1
  Be  Be19  1  0.46906734  0.47346275  0.23378366  1
  Be  Be20  1  0.23378366  0.46906734  0.47346275  1
  Be  Be21  1  0.26471632  0.00439541  0.03093266  1
  Be  Be22  1  0.23528368  0.26621634  0.73967809  1
  Be  Be23  1  0.02653725  0.49560459  0.76032191  1
  N  N0  1  0.25000000  0.22875652  0.97875652  1
  N  N1  1  0.27124348  0.52124348  0.75000000  1
  N  N2  1  0.52124348  0.75000000  0.27124348  1
  N  N3  1  0.22875652  0.97875652  0.25000000  1
  N  N4  1  0.97875652  0.25000000  0.22875652  1
  N  N5  1  0.75000000  0.27124348  0.52124348  1
  N  N6  1  0.75000000  0.77124348  0.02124348  1
  N  N7  1  0.72875652  0.47875652  0.25000000  1
  N  N8  1  0.47875652  0.25000000  0.72875652  1
  N  N9  1  0.77124348  0.02124348  0.75000000  1
  N  N10  1  0.02124348  0.75000000  0.77124348  1
  N  N11  1  0.25000000  0.72875652  0.47875652  1
  N  N12  1  0.50000000  0.50000000  0.50000000  1
  N  N13  1  0.00000000  0.00000000  0.50000000  1
  N  N14  1  0.50000000  0.00000000  0.00000000  1
  N  N15  1  0.00000000  0.50000000  0.00000000  1
loop_
_geom_bond_atom_site_label_1
_geom_bond_atom_site_label_2
_geom_bond_distance
_geom_bond_site_symmetry_2
Be0 N9 1.699832 1_565
Be0 N12 1.749567 1_555
Be0 N11 1.763458 1_555
Be0 N2 1.779928 1_555
Be1 N10 1.699831 1_655
Be1 N13 1.749567 1_665
Be1 N9 1.763458 1_565
Be1 N0 1.779927 1_665
Be2 N11 1.699829 1_555
Be2 N14 1.749565 1_566
Be2 N10 1.763465 1_555
Be2 N1 1.779925 1_555
Be3 N8 1.699835 1_555
Be3 N14 1.749560 1_556
Be3 N7 1.763460 1_556
Be3 N0 1.779930 1_555
Be4 N6 1.699832 1_556
Be4 N15 1.749567 1_656
Be4 N10 1.763458 1_655
Be4 N3 1.779927 1_656
Be5 N8 1.699829 1_555
Be5 N15 1.749565 1_656
Be5 N9 1.763464 1_555
Be5 N5 1.779925 1_555
Be6 N11 1.699834 1_555
Be6 N13 1.749560 1_565
Be6 N8 1.763459 1_565
Be6 N3 1.779930 1_555
Be7 N6 1.699831 1_556
Be7 N12 1.749567 1_555
Be7 N8 1.763457 1_555
Be7 N1 1.779928 1_555
Be8 N10 1.699832 1_655
Be8 N12 1.749567 1_555
Be8 N7 1.763458 1_555
Be8 N5 1.779927 1_555
Be9 N9 1.699832 1_565
Be9 N14 1.749567 1_566
Be9 N6 1.763458 1_556
Be9 N4 1.779927 1_566
Be10 N7 1.699829 1_555
Be10 N13 1.749565 1_665
Be10 N6 1.763465 1_555
Be10 N2 1.779925 1_555
Be11 N7 1.699835 1_555
Be11 N15 1.749560 1_655
Be11 N11 1.763460 1_655
Be11 N4 1.779929 1_555
Be12 N3 1.699832 1_545
Be12 N12 1.749567 1_555
Be12 N5 1.763458 1_555
Be12 N8 1.779928 1_555
Be13 N4 1.699831 1_455
Be13 N13 1.749567 1_555
Be13 N3 1.763458 1_545
Be13 N6 1.779927 1_445
Be14 N5 1.699829 1_555
Be14 N14 1.749565 1_555
Be14 N4 1.763465 1_555
Be14 N7 1.779925 1_555
Be15 N2 1.699835 1_555
Be15 N14 1.749560 1_565
Be15 N1 1.763460 1_554
Be15 N6 1.779930 1_555
Be16 N0 1.699832 1_554
Be16 N15 1.749567 1_555
Be16 N4 1.763458 1_455
Be16 N9 1.779927 1_454
Be17 N2 1.699829 1_555
Be17 N15 1.749565 1_555
Be17 N3 1.763464 1_555
Be17 N11 1.779925 1_555
Be18 N5 1.699834 1_555
Be18 N13 1.749560 1_655
Be18 N2 1.763459 1_545
Be18 N9 1.779930 1_555
Be19 N0 1.699831 1_554
Be19 N12 1.749567 1_555
Be19 N2 1.763457 1_555
Be19 N7 1.779928 1_555
Be20 N4 1.699832 1_455
Be20 N12 1.749567 1_555
Be20 N1 1.763458 1_555
Be20 N11 1.779927 1_555
Be21 N3 1.699832 1_545
Be21 N14 1.749567 1_555
Be21 N0 1.763458 1_554
Be21 N10 1.779927 1_544
Be22 N1 1.699829 1_555
Be22 N13 1.749565 1_555
Be22 N0 1.763465 1_555
Be22 N8 1.779925 1_555
Be23 N1 1.699835 1_555
Be23 N15 1.749560 1_556
Be23 N5 1.763460 1_455
Be23 N10 1.779929 1_555
