# generated using pymatgen
data_BaPO3F
_symmetry_space_group_name_H-M   'P 1'
_cell_length_a   8.84421900
_cell_length_b   9.37494800
_cell_length_c   9.40863680
_cell_angle_alpha   75.55146881
_cell_angle_beta   90.00000000
_cell_angle_gamma   90.00000000
_symmetry_Int_Tables_number   1
_chemical_formula_structural   BaPO3F
_chemical_formula_sum   'Ba8 P8 O24 F8'
_cell_volume   755.43544405
_cell_formula_units_Z   8
loop_
 _symmetry_equiv_pos_site_id
 _symmetry_equiv_pos_as_xyz
  1  'x, y, z'
loop_
 _atom_site_type_symbol
 _atom_site_label
 _atom_site_symmetry_multiplicity
 _atom_site_fract_x
 _atom_site_fract_y
 _atom_site_fract_z
 _atom_site_occupancy
  Ba  Ba0  1  0.17851600  0.20969600  0.93183900  1
  Ba  Ba1  1  0.67851600  0.29030400  0.06816100  1
  Ba  Ba2  1  0.82148400  0.79030400  0.06816100  1
  Ba  Ba3  1  0.32148400  0.70969600  0.93183900  1
  Ba  Ba4  1  0.32344600  0.19229400  0.47232200  1
  Ba  Ba5  1  0.82344600  0.30770600  0.52767800  1
  Ba  Ba6  1  0.67655400  0.80770600  0.52767800  1
  Ba  Ba7  1  0.17655400  0.69229400  0.47232200  1
  P  P0  1  0.44341400  0.97998900  0.22253400  1
  P  P1  1  0.94341400  0.52001100  0.77746600  1
  P  P2  1  0.55658600  0.02001100  0.77746600  1
  P  P3  1  0.05658600  0.47998900  0.22253400  1
  P  P4  1  0.07265600  0.96852800  0.72207400  1
  P  P5  1  0.57265600  0.53147200  0.27792600  1
  P  P6  1  0.92734400  0.03147200  0.27792600  1
  P  P7  1  0.42734400  0.46852800  0.72207400  1
  O  O0  1  0.40017900  0.14188900  0.16642700  1
  O  O1  1  0.90017900  0.35811100  0.83357300  1
  O  O2  1  0.59982100  0.85811100  0.83357300  1
  O  O3  1  0.09982100  0.64188900  0.16642700  1
  O  O4  1  0.40740400  0.91695100  0.38544200  1
  O  O5  1  0.90740400  0.58304900  0.61455800  1
  O  O6  1  0.59259600  0.08304900  0.61455800  1
  O  O7  1  0.09259600  0.41695100  0.38544200  1
  O  O8  1  0.59800300  0.94037000  0.17523100  1
  O  O9  1  0.09800300  0.55963000  0.82476900  1
  O  O10  1  0.40199700  0.05963000  0.82476900  1
  O  O11  1  0.90199700  0.44037000  0.17523100  1
  O  O12  1  0.07163300  0.91489100  0.88876800  1
  O  O13  1  0.57163300  0.58510900  0.11123200  1
  O  O14  1  0.92836700  0.08510900  0.11123200  1
  O  O15  1  0.42836700  0.41489100  0.88876800  1
  O  O16  1  0.06788800  0.13626400  0.66555600  1
  O  O17  1  0.56788800  0.36373600  0.33444400  1
  O  O18  1  0.93211200  0.86373600  0.33444400  1
  O  O19  1  0.43211200  0.63626400  0.66555600  1
  O  O20  1  0.18734200  0.89379700  0.64459500  1
  O  O21  1  0.68734200  0.60620300  0.35540500  1
  O  O22  1  0.81265800  0.10620300  0.35540500  1
  O  O23  1  0.31265800  0.39379700  0.64459500  1
  F  F0  1  0.32047200  0.89361700  0.14189500  1
  F  F1  1  0.82047200  0.60638300  0.85810500  1
  F  F2  1  0.67952800  0.10638300  0.85810500  1
  F  F3  1  0.17952800  0.39361700  0.14189500  1
  F  F4  1  0.90752800  0.91719900  0.67337900  1
  F  F5  1  0.40752800  0.58280100  0.32662100  1
  F  F6  1  0.09247200  0.08280100  0.32662100  1
  F  F7  1  0.59247200  0.41719900  0.67337900  1
loop_
_geom_bond_atom_site_label_1
_geom_bond_atom_site_label_2
_geom_bond_distance
_geom_bond_site_symmetry_2
Ba0 O10 2.758247 1_555
Ba0 O14 2.850238 1_456
Ba0 O1 2.865071 1_455
Ba0 O15 2.891148 1_555
Ba0 O0 2.901513 1_556
Ba0 O16 2.927240 1_555
Ba0 F3 2.929088 1_556
Ba0 O12 3.042235 1_545
Ba0 O23 3.059837 1_555
Ba0 O9 3.261152 1_555
Ba0 F0 3.367557 1_546
Ba1 O11 2.758247 1_555
Ba1 O15 2.850238 1_554
Ba1 O0 2.865071 1_555
Ba1 O14 2.891148 1_555
Ba1 O1 2.901513 1_554
Ba1 O17 2.927240 1_555
Ba1 F2 2.929088 1_554
Ba1 O13 3.042235 1_555
Ba1 O22 3.059837 1_555
Ba1 O8 3.261152 1_545
Ba1 F1 3.367557 1_554
Ba2 O8 2.758247 1_555
Ba2 O12 2.850238 1_654
Ba2 O3 2.865071 1_655
Ba2 O13 2.891148 1_555
Ba2 O2 2.901513 1_554
Ba2 O18 2.927240 1_555
Ba2 F1 2.929088 1_554
Ba2 O14 3.042235 1_565
Ba2 O21 3.059837 1_555
Ba2 O11 3.261152 1_555
Ba2 F2 3.367557 1_564
Ba3 O9 2.758247 1_555
Ba3 O13 2.850238 1_556
Ba3 O2 2.865071 1_555
Ba3 O12 2.891148 1_555
Ba3 O3 2.901513 1_556
Ba3 O19 2.927240 1_555
Ba3 F0 2.929088 1_556
Ba3 O15 3.042235 1_555
Ba3 O20 3.059837 1_555
Ba3 O10 3.261152 1_565
Ba3 F3 3.367557 1_556
Ba4 O23 2.780802 1_555
Ba4 F6 2.794294 1_555
Ba4 O6 2.796833 1_555
Ba4 O17 2.810600 1_555
Ba4 O16 2.865883 1_555
Ba4 O7 2.900587 1_555
Ba4 O4 2.989272 1_545
Ba4 O20 3.105431 1_545
Ba4 O0 3.105757 1_555
Ba4 O10 3.311731 1_555
Ba5 O22 2.780802 1_555
Ba5 F7 2.794294 1_555
Ba5 O7 2.796833 1_655
Ba5 O16 2.810600 1_655
Ba5 O17 2.865883 1_555
Ba5 O6 2.900587 1_555
Ba5 O5 2.989272 1_555
Ba5 O21 3.105431 1_555
Ba5 O1 3.105757 1_555
Ba5 O11 3.311731 1_555
Ba6 O21 2.780802 1_555
Ba6 F4 2.794294 1_555
Ba6 O4 2.796833 1_555
Ba6 O19 2.810600 1_555
Ba6 O18 2.865883 1_555
Ba6 O5 2.900587 1_555
Ba6 O6 2.989272 1_565
Ba6 O22 3.105431 1_565
Ba6 O2 3.105757 1_555
Ba6 O8 3.311731 1_555
Ba7 O20 2.780802 1_555
Ba7 F5 2.794294 1_555
Ba7 O5 2.796833 1_455
Ba7 O18 2.810600 1_455
Ba7 O19 2.865883 1_555
Ba7 O4 2.900587 1_555
Ba7 O7 2.989272 1_555
Ba7 O23 3.105431 1_555
Ba7 O3 3.105757 1_555
Ba7 O9 3.311731 1_555
O0 P0 1.526034 1_545
O1 P1 1.526034 1_555
O2 P2 1.526034 1_565
O3 P3 1.526034 1_555
O4 P0 1.532306 1_555
O5 P1 1.532306 1_555
O6 P2 1.532306 1_555
O7 P3 1.532306 1_555
O8 P0 1.512551 1_555
O9 P1 1.512551 1_455
O10 P2 1.512551 1_555
O11 P3 1.512551 1_655
O12 P4 1.522875 1_555
O13 P5 1.522875 1_555
O14 P6 1.522875 1_555
O15 P7 1.522875 1_555
O16 P4 1.529729 1_545
O17 P5 1.529729 1_555
O18 P6 1.529729 1_565
O19 P7 1.529729 1_555
O20 P4 1.518525 1_555
O21 P5 1.518525 1_555
O22 P6 1.518525 1_555
O23 P7 1.518525 1_555
F0 P0 1.649287 1_555
F1 P1 1.649287 1_555
F2 P2 1.649287 1_555
F3 P3 1.649287 1_555
F4 P4 1.638393 1_655
F5 P5 1.638393 1_555
F6 P6 1.638393 1_455
F7 P7 1.638393 1_555
