# generated using pymatgen
data_Pu4Bi3
_symmetry_space_group_name_H-M   'P 1'
_cell_length_a   8.27057264
_cell_length_b   8.27087877
_cell_length_c   8.27094161
_cell_angle_alpha   109.42647599
_cell_angle_beta   109.42590439
_cell_angle_gamma   109.56367261
_symmetry_Int_Tables_number   1
_chemical_formula_structural   Pu4Bi3
_chemical_formula_sum   'Pu8 Bi6'
_cell_volume   435.51875091
_cell_formula_units_Z   2
loop_
 _symmetry_equiv_pos_site_id
 _symmetry_equiv_pos_as_xyz
  1  'x, y, z'
loop_
 _atom_site_type_symbol
 _atom_site_label
 _atom_site_symmetry_multiplicity
 _atom_site_fract_x
 _atom_site_fract_y
 _atom_site_fract_z
 _atom_site_occupancy
  Pu  Pu0  1  0.34503886  0.34348735  0.34663644  1
  Pu  Pu1  1  0.15497443  0.50162447  0.99845783  1
  Pu  Pu2  1  0.00322419  0.15656406  0.50155908  1
  Pu  Pu3  1  0.84355099  0.84504998  0.84673196  1
  Pu  Pu4  1  0.49676433  -0.00166177  0.15332665  1
  Pu  Pu5  1  0.65647275  0.50320322  0.00154554  1
  Pu  Pu6  1  0.49839376  -0.00318033  0.65331253  1
  Pu  Pu7  1  0.00158225  0.65491137  0.49842298  1
  Bi  Bi0  1  0.12500989  0.87500611  0.24998788  1
  Bi  Bi1  1  0.37498860  0.62497043  0.75000307  1
  Bi  Bi2  1  0.87461335  0.24997992  0.12459083  1
  Bi  Bi3  1  0.62538145  0.74999153  0.37537054  1
  Bi  Bi4  1  0.25000151  0.12545984  0.87545366  1
  Bi  Bi5  1  0.75000363  0.37459480  0.62460102  1
loop_
_geom_bond_atom_site_label_1
_geom_bond_atom_site_label_2
_geom_bond_distance
_geom_bond_site_symmetry_2
Bi0 Pu3 3.240996 1_454
Bi0 Pu6 3.241584 1_565
Bi0 Pu1 3.241641 1_554
Bi0 Pu2 3.241714 1_565
Bi0 Pu4 3.348153 1_565
Bi0 Pu0 3.348741 1_565
Bi0 Pu5 3.348827 1_455
Bi0 Pu7 3.349166 1_555
Bi1 Pu5 3.241102 1_556
Bi1 Pu4 3.241672 1_566
Bi1 Pu7 3.241762 1_555
Bi1 Pu0 3.241807 1_555
Bi1 Pu2 3.348075 1_555
Bi1 Pu1 3.348625 1_555
Bi1 Pu3 3.349039 1_555
Bi1 Pu6 3.349162 1_565
Bi2 Pu3 3.236564 1_544
Bi2 Pu7 3.236694 1_655
Bi2 Pu1 3.258556 1_654
Bi2 Pu4 3.259037 1_555
Bi2 Pu0 3.375727 1_655
Bi2 Pu2 3.375853 1_655
Bi2 Pu6 3.376354 1_554
Bi2 Pu5 3.377001 1_555
Bi3 Pu5 3.236433 1_555
Bi3 Pu6 3.236588 1_565
Bi3 Pu0 3.258475 1_555
Bi3 Pu2 3.258982 1_665
Bi3 Pu1 3.375609 1_554
Bi3 Pu4 3.375876 1_565
Bi3 Pu7 3.376343 1_655
Bi3 Pu3 3.377104 1_555
Bi4 Pu4 3.236837 1_556
Bi4 Pu2 3.236913 1_555
Bi4 Pu3 3.258310 1_445
Bi4 Pu5 3.258316 1_556
Bi4 Pu0 3.375751 1_556
Bi4 Pu1 3.375837 1_555
Bi4 Pu6 3.376723 1_555
Bi4 Pu7 3.376736 1_545
Bi5 Pu1 3.236756 1_655
Bi5 Pu0 3.236816 1_555
Bi5 Pu7 3.258358 1_655
Bi5 Pu6 3.258419 1_555
Bi5 Pu3 3.376018 1_555
Bi5 Pu5 3.376255 1_556
Bi5 Pu2 3.376351 1_655
Bi5 Pu4 3.376420 1_555
