# generated using pymatgen
data_LiFe6(OF2)4
_symmetry_space_group_name_H-M   'P 1'
_cell_length_a   7.90329182
_cell_length_b   5.81274047
_cell_length_c   5.81842368
_cell_angle_alpha   69.50825201
_cell_angle_beta   69.55337825
_cell_angle_gamma   69.24619995
_symmetry_Int_Tables_number   1
_chemical_formula_structural   LiFe6(OF2)4
_chemical_formula_sum   'Li1 Fe6 O4 F8'
_cell_volume   226.26001721
_cell_formula_units_Z   1
loop_
 _symmetry_equiv_pos_site_id
 _symmetry_equiv_pos_as_xyz
  1  'x, y, z'
loop_
 _atom_site_type_symbol
 _atom_site_label
 _atom_site_symmetry_multiplicity
 _atom_site_fract_x
 _atom_site_fract_y
 _atom_site_fract_z
 _atom_site_occupancy
  Li  Li0  1  0.56562400  0.95190200  0.41949200  1
  Fe  Fe0  1  0.85444500  0.62702900  0.68385800  1
  Fe  Fe1  1  0.68173300  0.37991400  0.30173100  1
  Fe  Fe2  1  0.31406800  0.67316600  0.64913300  1
  Fe  Fe3  1  0.16415300  0.31918900  0.36447400  1
  Fe  Fe4  1  0.48695400  0.98754600  0.99515000  1
  Fe  Fe5  1  0.00193400  0.97926200  0.02574300  1
  O  O0  1  0.33438400  0.98698800  0.36749000  1
  O  O1  1  0.67558400  0.65306300  0.99333400  1
  O  O2  1  0.00669800  0.27869400  0.71812800  1
  O  O3  1  0.00165700  0.68298100  0.31984800  1
  F  F0  1  0.66519700  0.05510400  0.60131000  1
  F  F1  1  0.32383200  0.37129900  0.96354400  1
  F  F2  1  0.28051000  0.88572400  0.91237400  1
  F  F3  1  0.98226200  0.21662700  0.23386100  1
  F  F4  1  0.63651000  0.59534500  0.55775700  1
  F  F5  1  0.01885800  0.76918800  0.78795500  1
  F  F6  1  0.37028700  0.42280300  0.42520700  1
  F  F7  1  0.71864500  0.09125600  0.10669700  1
loop_
_geom_bond_atom_site_label_1
_geom_bond_atom_site_label_2
_geom_bond_distance
_geom_bond_site_symmetry_2
Li0 O0 1.884699 1_555
Fe0 O1 1.877315 1_555
Fe0 O2 1.935377 1_655
Fe0 O3 2.002359 1_655
Fe1 O1 1.937684 1_554
Fe2 O0 1.992376 1_555
Fe3 O0 1.921125 1_545
Fe3 O2 1.979285 1_555
Fe3 O3 2.027877 1_555
Fe4 O1 1.987949 1_555
Fe4 O0 2.078491 1_556
Fe5 O3 1.957284 1_555
Fe5 O2 2.013101 1_564
F0 Li0 1.859797 1_545
F0 Fe1 2.081254 1_555
F0 Fe4 2.212783 1_545
F0 Fe0 2.384722 1_545
F1 Fe2 2.046139 1_555
F1 Fe4 2.124158 1_545
F1 Fe3 2.201266 1_556
F2 Fe5 1.991517 1_556
F2 Fe4 2.162714 1_555
F2 Fe2 2.179856 1_555
F3 Fe5 2.068910 1_645
F3 Fe3 2.165024 1_655
F3 Fe1 2.169715 1_555
F4 Li0 1.892411 1_555
F4 Fe1 2.128816 1_555
F4 Fe0 2.177449 1_555
F4 Fe2 2.320821 1_555
F5 Fe5 2.088307 1_556
F5 Fe0 2.097470 1_455
F5 Fe2 2.117435 1_555
F6 Fe3 2.094829 1_555
F6 Fe2 2.116050 1_555
F6 Fe1 2.256550 1_555
F7 Li0 1.885558 1_545
F7 Fe5 2.025668 1_645
F7 Fe1 2.223309 1_555
F7 Fe4 2.454435 1_544
