# generated using pymatgen
data_SbH6N2F5
_symmetry_space_group_name_H-M   'P 1'
_cell_length_a   5.86656300
_cell_length_b   7.00877600
_cell_length_c   13.05848500
_cell_angle_alpha   90.00000000
_cell_angle_beta   90.00000000
_cell_angle_gamma   90.00000000
_symmetry_Int_Tables_number   1
_chemical_formula_structural   SbH6N2F5
_chemical_formula_sum   'Sb4 H24 N8 F20'
_cell_volume   536.93129010
_cell_formula_units_Z   4
loop_
 _symmetry_equiv_pos_site_id
 _symmetry_equiv_pos_as_xyz
  1  'x, y, z'
loop_
 _atom_site_type_symbol
 _atom_site_label
 _atom_site_symmetry_multiplicity
 _atom_site_fract_x
 _atom_site_fract_y
 _atom_site_fract_z
 _atom_site_occupancy
  Sb  Sb0  1  0.39837500  0.48536600  0.75000000  1
  Sb  Sb1  1  0.89837500  0.01463400  0.75000000  1
  Sb  Sb2  1  0.60162500  0.51463400  0.25000000  1
  Sb  Sb3  1  0.10162500  0.98536600  0.25000000  1
  H  H0  1  0.25548300  0.02680600  0.00577400  1
  H  H1  1  0.75548300  0.47319400  0.49422600  1
  H  H2  1  0.74451700  0.97319400  0.50577400  1
  H  H3  1  0.24451700  0.52680600  0.99422600  1
  H  H4  1  0.74451700  0.97319400  0.99422600  1
  H  H5  1  0.24451700  0.52680600  0.50577400  1
  H  H6  1  0.25548300  0.02680600  0.49422600  1
  H  H7  1  0.75548300  0.47319400  0.00577400  1
  H  H8  1  0.42728000  0.09006700  0.90630600  1
  H  H9  1  0.92728000  0.40993300  0.59369400  1
  H  H10  1  0.57272000  0.90993300  0.40630600  1
  H  H11  1  0.07272000  0.59006700  0.09369400  1
  H  H12  1  0.57272000  0.90993300  0.09369400  1
  H  H13  1  0.07272000  0.59006700  0.40630600  1
  H  H14  1  0.42728000  0.09006700  0.59369400  1
  H  H15  1  0.92728000  0.40993300  0.90630600  1
  H  H16  1  0.40241300  0.84737700  0.93547300  1
  H  H17  1  0.90241300  0.65262300  0.56452700  1
  H  H18  1  0.59758700  0.15262300  0.43547300  1
  H  H19  1  0.09758700  0.34737700  0.06452700  1
  H  H20  1  0.59758700  0.15262300  0.06452700  1
  H  H21  1  0.09758700  0.34737700  0.43547300  1
  H  H22  1  0.40241300  0.84737700  0.56452700  1
  H  H23  1  0.90241300  0.65262300  0.93547300  1
  N  N0  1  0.40542400  0.99115700  0.96492700  1
  N  N1  1  0.90542400  0.50884300  0.53507300  1
  N  N2  1  0.59457600  0.00884300  0.46492700  1
  N  N3  1  0.09457600  0.49115700  0.03507300  1
  N  N4  1  0.59457600  0.00884300  0.03507300  1
  N  N5  1  0.09457600  0.49115700  0.46492700  1
  N  N6  1  0.40542400  0.99115700  0.53507300  1
  N  N7  1  0.90542400  0.50884300  0.96492700  1
  F  F0  1  0.09511400  0.60602900  0.75000000  1
  F  F1  1  0.59511400  0.89397100  0.75000000  1
  F  F2  1  0.90488600  0.39397100  0.25000000  1
  F  F3  1  0.40488600  0.10602900  0.25000000  1
  F  F4  1  0.25581300  0.29177400  0.65065800  1
  F  F5  1  0.75581300  0.20822600  0.84934200  1
  F  F6  1  0.74418700  0.70822600  0.15065800  1
  F  F7  1  0.24418700  0.79177400  0.34934200  1
  F  F8  1  0.74418700  0.70822600  0.34934200  1
  F  F9  1  0.24418700  0.79177400  0.15065800  1
  F  F10  1  0.25581300  0.29177400  0.84934200  1
  F  F11  1  0.75581300  0.20822600  0.65065800  1
  F  F12  1  0.41140900  0.63389900  0.91070800  1
  F  F13  1  0.91140900  0.86610100  0.58929200  1
  F  F14  1  0.58859100  0.36610100  0.41070800  1
  F  F15  1  0.08859100  0.13389900  0.08929200  1
  F  F16  1  0.58859100  0.36610100  0.08929200  1
  F  F17  1  0.08859100  0.13389900  0.41070800  1
  F  F18  1  0.41140900  0.63389900  0.58929200  1
  F  F19  1  0.91140900  0.86610100  0.91070800  1
loop_
_geom_bond_atom_site_label_1
_geom_bond_atom_site_label_2
_geom_bond_distance
_geom_bond_site_symmetry_2
H0 N0 1.058635 1_544
H1 N1 1.058635 1_555
H2 N2 1.058635 1_565
H3 N3 1.058635 1_556
H4 N4 1.058635 1_566
H5 N5 1.058635 1_555
H6 N6 1.058635 1_545
H7 N7 1.058635 1_554
H8 N0 1.040678 1_545
H9 N1 1.040678 1_555
H10 N2 1.040678 1_565
H11 N3 1.040678 1_555
H12 N4 1.040678 1_565
H13 N5 1.040678 1_555
H14 N6 1.040678 1_545
H15 N7 1.040678 1_555
H16 N0 1.078773 1_555
H17 N1 1.078773 1_555
H18 N2 1.078773 1_555
H19 N3 1.078773 1_555
H20 N4 1.078773 1_555
H21 N5 1.078773 1_555
H22 N6 1.078773 1_555
H23 N7 1.078773 1_555
F0 Sb0 1.969874 1_555
F1 Sb1 1.969874 1_565
F2 Sb2 1.969874 1_555
F3 Sb3 1.969874 1_545
F4 Sb0 2.055085 1_555
F5 Sb1 2.055085 1_555
F6 Sb2 2.055085 1_555
F7 Sb3 2.055085 1_555
F8 Sb2 2.055085 1_555
F9 Sb3 2.055085 1_555
F10 Sb0 2.055085 1_555
F11 Sb1 2.055085 1_555
F12 H16 1.531679 1_555
F12 H3 1.646644 1_555
F12 Sb0 2.343872 1_555
F13 H17 1.531679 1_555
F13 H2 1.646644 1_555
F13 Sb1 2.343872 1_565
F14 H18 1.531679 1_555
F14 H1 1.646644 1_555
F14 Sb2 2.343872 1_555
F15 H19 1.531679 1_555
F15 H0 1.646644 1_555
F15 Sb3 2.343872 1_545
F16 H20 1.531679 1_555
F16 H7 1.646644 1_555
F16 Sb2 2.343872 1_555
F17 H21 1.531679 1_555
F17 H6 1.646644 1_555
F17 Sb3 2.343872 1_545
F18 H22 1.531679 1_555
F18 H5 1.646644 1_555
F18 Sb0 2.343872 1_555
F19 H23 1.531679 1_555
F19 H4 1.646644 1_555
F19 Sb1 2.343872 1_565
