# generated using pymatgen
data_Ho2ZnTe2(SO7)2
_symmetry_space_group_name_H-M   'P 1'
_cell_length_a   5.28201908
_cell_length_b   7.89648326
_cell_length_c   8.15476128
_cell_angle_alpha   63.94117654
_cell_angle_beta   73.37697631
_cell_angle_gamma   85.28893487
_symmetry_Int_Tables_number   1
_chemical_formula_structural   Ho2ZnTe2(SO7)2
_chemical_formula_sum   'Ho2 Zn1 Te2 S2 O14'
_cell_volume   292.40902984
_cell_formula_units_Z   1
loop_
 _symmetry_equiv_pos_site_id
 _symmetry_equiv_pos_as_xyz
  1  'x, y, z'
loop_
 _atom_site_type_symbol
 _atom_site_label
 _atom_site_symmetry_multiplicity
 _atom_site_fract_x
 _atom_site_fract_y
 _atom_site_fract_z
 _atom_site_occupancy
  Ho  Ho0  1  0.91931500  0.74671400  0.98420900  1
  Ho  Ho1  1  0.08068500  0.25328600  0.01579100  1
  Zn  Zn0  1  0.00000000  0.00000000  0.50000000  1
  Te  Te0  1  0.48461100  0.72676200  0.66294600  1
  Te  Te1  1  0.51538900  0.27323800  0.33705400  1
  S  S0  1  0.24045800  0.75416000  0.24936200  1
  S  S1  1  0.75954200  0.24584000  0.75063800  1
  O  O0  1  0.11130200  0.59272500  0.25089300  1
  O  O1  1  0.88869800  0.40727500  0.74910700  1
  O  O2  1  0.13208400  0.76846800  0.43143800  1
  O  O3  1  0.86791600  0.23153200  0.56856200  1
  O  O4  1  0.53036600  0.73257100  0.21604000  1
  O  O5  1  0.46963400  0.26742900  0.78396000  1
  O  O6  1  0.17772000  0.92521100  0.08796200  1
  O  O7  1  0.82228000  0.07478900  0.91203800  1
  O  O8  1  0.24658800  0.56017600  0.89569300  1
  O  O9  1  0.75341200  0.43982400  0.10430700  1
  O  O10  1  0.72398200  0.80520900  0.75426300  1
  O  O11  1  0.27601800  0.19479100  0.24573700  1
  O  O12  1  0.24857300  0.92375800  0.66862600  1
  O  O13  1  0.75142700  0.07624200  0.33137400  1
loop_
_geom_bond_atom_site_label_1
_geom_bond_atom_site_label_2
_geom_bond_distance
_geom_bond_site_symmetry_2
Ho0 O10 2.249831 1_555
Ho0 O9 2.317822 1_556
Ho0 O4 2.331793 1_556
Ho0 O8 2.341152 1_655
Ho0 O7 2.436266 1_565
Ho0 O0 2.443837 1_656
Ho0 O12 2.505923 1_655
Ho0 O6 2.567097 1_656
Ho1 O11 2.249831 1_555
Ho1 O8 2.317822 1_554
Ho1 O5 2.331793 1_554
Ho1 O9 2.341152 1_455
Ho1 O6 2.436266 1_545
Ho1 O1 2.443837 1_454
Ho1 O13 2.505923 1_455
Ho1 O7 2.567097 1_454
O0 S0 1.488149 1_555
O1 S1 1.488149 1_555
O2 S0 1.481725 1_555
O2 Zn0 2.146481 1_565
O3 S1 1.481725 1_555
O3 Zn0 2.146481 1_655
O4 S0 1.485774 1_555
O5 S1 1.485774 1_555
O6 S0 1.510178 1_555
O7 S1 1.510178 1_555
O8 Te0 1.904270 1_555
O9 Te1 1.904270 1_555
O10 Te0 1.899868 1_555
O10 Zn0 2.151145 1_665
O11 Te1 1.899868 1_555
O11 Zn0 2.151145 1_555
O12 Te0 1.920431 1_555
O12 Zn0 2.037902 1_565
O13 Te1 1.920431 1_555
O13 Zn0 2.037902 1_655
