# generated using pymatgen
data_CaBiPd
_symmetry_space_group_name_H-M   'P 1'
_cell_length_a   4.76592945
_cell_length_b   7.51070785
_cell_length_c   8.14472672
_cell_angle_alpha   90.00000000
_cell_angle_beta   90.00000000
_cell_angle_gamma   90.00000000
_symmetry_Int_Tables_number   1
_chemical_formula_structural   CaBiPd
_chemical_formula_sum   'Ca4 Bi4 Pd4'
_cell_volume   291.54459571
_cell_formula_units_Z   4
loop_
 _symmetry_equiv_pos_site_id
 _symmetry_equiv_pos_as_xyz
  1  'x, y, z'
loop_
 _atom_site_type_symbol
 _atom_site_label
 _atom_site_symmetry_multiplicity
 _atom_site_fract_x
 _atom_site_fract_y
 _atom_site_fract_z
 _atom_site_occupancy
  Ca  Ca0  1  0.75000000  0.00690022  0.29490473  1
  Ca  Ca1  1  0.25000000  0.99309978  0.70509527  1
  Ca  Ca2  1  0.25000000  0.49309978  0.79490473  1
  Ca  Ca3  1  0.75000000  0.50690022  0.20509527  1
  Bi  Bi0  1  0.75000000  0.69811547  0.59337667  1
  Bi  Bi1  1  0.25000000  0.30188453  0.40662333  1
  Bi  Bi2  1  0.25000000  0.80188453  0.09337667  1
  Bi  Bi3  1  0.75000000  0.19811547  0.90662333  1
  Pd  Pd0  1  0.75000000  0.80894234  0.92083601  1
  Pd  Pd1  1  0.25000000  0.19105766  0.07916399  1
  Pd  Pd2  1  0.25000000  0.69105766  0.42083601  1
  Pd  Pd3  1  0.75000000  0.30894234  0.57916399  1
loop_
_geom_bond_atom_site_label_1
_geom_bond_atom_site_label_2
_geom_bond_distance
_geom_bond_site_symmetry_2
Ca0 Pd3 3.241379 1_555
Ca0 Pd1 3.267905 1_555
Ca0 Pd1 3.267905 1_655
Ca0 Pd0 3.390117 1_544
Ca0 Pd2 3.515376 1_545
Ca0 Pd2 3.515376 1_645
Ca1 Pd2 3.241379 1_555
Ca1 Pd0 3.267905 1_455
Ca1 Pd0 3.267905 1_555
Ca1 Pd1 3.390117 1_566
Ca1 Pd3 3.515376 1_565
Ca1 Pd3 3.515376 1_465
Ca2 Pd1 3.241379 1_556
Ca2 Pd3 3.267905 1_455
Ca2 Pd3 3.267905 1_555
Ca2 Pd2 3.390117 1_555
Ca2 Pd0 3.515376 1_455
Ca2 Pd0 3.515376 1_555
Ca3 Pd0 3.241379 1_554
Ca3 Pd2 3.267905 1_655
Ca3 Pd2 3.267905 1_555
Ca3 Pd3 3.390117 1_555
Ca3 Pd1 3.515376 1_555
Ca3 Pd1 3.515376 1_655
Bi0 Pd2 2.766982 1_655
Bi0 Pd2 2.766982 1_555
Bi0 Pd0 2.793943 1_555
Bi0 Pd3 2.925257 1_555
Bi0 Ca2 3.277760 1_655
Bi0 Ca2 3.277760 1_555
Bi0 Ca0 3.359803 1_565
Bi0 Ca1 3.378623 1_555
Bi0 Ca1 3.378623 1_655
Bi0 Ca3 3.473273 1_555
Bi1 Pd3 2.766982 1_455
Bi1 Pd3 2.766982 1_555
Bi1 Pd1 2.793943 1_555
Bi1 Pd2 2.925257 1_555
Bi1 Ca3 3.277760 1_455
Bi1 Ca3 3.277760 1_555
Bi1 Ca1 3.359803 1_545
Bi1 Ca0 3.378623 1_455
Bi1 Ca0 3.378623 1_555
Bi1 Ca2 3.473273 1_555
Bi2 Pd0 2.766982 1_554
Bi2 Pd0 2.766982 1_454
Bi2 Pd2 2.793943 1_555
Bi2 Pd1 2.925257 1_565
Bi2 Ca0 3.277760 1_565
Bi2 Ca0 3.277760 1_465
Bi2 Ca2 3.359803 1_554
Bi2 Ca3 3.378623 1_555
Bi2 Ca3 3.378623 1_455
Bi2 Ca1 3.473273 1_554
Bi3 Pd1 2.766982 1_556
Bi3 Pd1 2.766982 1_656
Bi3 Pd3 2.793943 1_555
Bi3 Pd0 2.925257 1_545
Bi3 Ca1 3.277760 1_645
Bi3 Ca1 3.277760 1_545
Bi3 Ca3 3.359803 1_556
Bi3 Ca2 3.378623 1_655
Bi3 Ca2 3.378623 1_555
Bi3 Ca0 3.473273 1_556
