# generated using pymatgen
data_Tb3Ga15Ru4
_symmetry_space_group_name_H-M   'P 1'
_cell_length_a   8.80910800
_cell_length_b   9.68202600
_cell_length_c   17.82422300
_cell_angle_alpha   90.00000000
_cell_angle_beta   90.00000000
_cell_angle_gamma   90.00000000
_symmetry_Int_Tables_number   1
_chemical_formula_structural   Tb3Ga15Ru4
_chemical_formula_sum   'Tb12 Ga60 Ru16'
_cell_volume   1520.22820591
_cell_formula_units_Z   4
loop_
 _symmetry_equiv_pos_site_id
 _symmetry_equiv_pos_as_xyz
  1  'x, y, z'
loop_
 _atom_site_type_symbol
 _atom_site_label
 _atom_site_symmetry_multiplicity
 _atom_site_fract_x
 _atom_site_fract_y
 _atom_site_fract_z
 _atom_site_occupancy
  Tb  Tb0  1  0.37567100  0.25000000  0.16805800  1
  Tb  Tb1  1  0.62432900  0.75000000  0.83194200  1
  Tb  Tb2  1  0.12432900  0.75000000  0.66805800  1
  Tb  Tb3  1  0.87567100  0.25000000  0.33194200  1
  Tb  Tb4  1  0.37532300  0.25000000  0.74833500  1
  Tb  Tb5  1  0.62467700  0.75000000  0.25166500  1
  Tb  Tb6  1  0.12467700  0.75000000  0.24833500  1
  Tb  Tb7  1  0.87532300  0.25000000  0.75166500  1
  Tb  Tb8  1  0.12576500  0.25000000  0.52459300  1
  Tb  Tb9  1  0.87423500  0.75000000  0.47540700  1
  Tb  Tb10  1  0.37423500  0.75000000  0.02459300  1
  Tb  Tb11  1  0.62576500  0.25000000  0.97540700  1
  Ga  Ga0  1  0.12647400  0.06049600  0.25280000  1
  Ga  Ga1  1  0.87352600  0.93950400  0.74720000  1
  Ga  Ga2  1  0.37352600  0.93950400  0.75280000  1
  Ga  Ga3  1  0.87352600  0.56049600  0.74720000  1
  Ga  Ga4  1  0.62647400  0.06049600  0.24720000  1
  Ga  Ga5  1  0.12647400  0.43950400  0.25280000  1
  Ga  Ga6  1  0.62647400  0.43950400  0.24720000  1
  Ga  Ga7  1  0.37352600  0.56049600  0.75280000  1
  Ga  Ga8  1  0.00751800  0.25000000  0.16837900  1
  Ga  Ga9  1  0.99248200  0.75000000  0.83162100  1
  Ga  Ga10  1  0.49248200  0.75000000  0.66837900  1
  Ga  Ga11  1  0.50751800  0.25000000  0.33162100  1
  Ga  Ga12  1  0.13282500  0.25000000  0.04178800  1
  Ga  Ga13  1  0.86717500  0.75000000  0.95821200  1
  Ga  Ga14  1  0.36717500  0.75000000  0.54178800  1
  Ga  Ga15  1  0.63282500  0.25000000  0.45821200  1
  Ga  Ga16  1  0.37446500  0.57728900  0.33157300  1
  Ga  Ga17  1  0.62553500  0.42271100  0.66842700  1
  Ga  Ga18  1  0.12553500  0.42271100  0.83157300  1
  Ga  Ga19  1  0.62553500  0.07728900  0.66842700  1
  Ga  Ga20  1  0.87446500  0.57728900  0.16842700  1
  Ga  Ga21  1  0.37446500  0.92271100  0.33157300  1
  Ga  Ga22  1  0.87446500  0.92271100  0.16842700  1
  Ga  Ga23  1  0.12553500  0.07728900  0.83157300  1
  Ga  Ga24  1  0.22134300  0.25000000  0.35916100  1
  Ga  Ga25  1  0.77865700  0.75000000  0.64083900  1
  Ga  Ga26  1  0.27865700  0.75000000  0.85916100  1
  Ga  Ga27  1  0.72134300  0.25000000  0.14083900  1
  Ga  Ga28  1  0.12413300  0.08685200  0.67178800  1
  Ga  Ga29  1  0.87586700  0.91314800  0.32821200  1
  Ga  Ga30  1  0.37586700  0.91314800  0.17178800  1
  Ga  Ga31  1  0.87586700  0.58685200  0.32821200  1
  Ga  Ga32  1  0.62413300  0.08685200  0.82821200  1
  Ga  Ga33  1  0.12413300  0.41314800  0.67178800  1
  Ga  Ga34  1  0.62413300  0.41314800  0.82821200  1
  Ga  Ga35  1  0.37586700  0.58685200  0.17178800  1
  Ga  Ga36  1  0.37751800  0.06121800  0.46526400  1
  Ga  Ga37  1  0.62248200  0.93878200  0.53473600  1
  Ga  Ga38  1  0.12248200  0.93878200  0.96526400  1
  Ga  Ga39  1  0.62248200  0.56121800  0.53473600  1
  Ga  Ga40  1  0.87751800  0.06121800  0.03473600  1
  Ga  Ga41  1  0.37751800  0.43878200  0.46526400  1
  Ga  Ga42  1  0.87751800  0.43878200  0.03473600  1
  Ga  Ga43  1  0.12248200  0.56121800  0.96526400  1
  Ga  Ga44  1  0.45103900  0.25000000  0.57762700  1
  Ga  Ga45  1  0.54896100  0.75000000  0.42237300  1
  Ga  Ga46  1  0.04896100  0.75000000  0.07762700  1
  Ga  Ga47  1  0.95103900  0.25000000  0.92237300  1
  Ga  Ga48  1  0.30452200  0.25000000  0.91812900  1
  Ga  Ga49  1  0.69547800  0.75000000  0.08187100  1
  Ga  Ga50  1  0.19547800  0.75000000  0.41812900  1
  Ga  Ga51  1  0.80452200  0.25000000  0.58187100  1
  Ga  Ga52  1  0.37370700  0.06864100  0.03291200  1
  Ga  Ga53  1  0.62629300  0.93135900  0.96708800  1
  Ga  Ga54  1  0.12629300  0.93135900  0.53291200  1
  Ga  Ga55  1  0.62629300  0.56864100  0.96708800  1
  Ga  Ga56  1  0.87370700  0.06864100  0.46708800  1
  Ga  Ga57  1  0.37370700  0.43135900  0.03291200  1
  Ga  Ga58  1  0.87370700  0.43135900  0.46708800  1
  Ga  Ga59  1  0.12629300  0.56864100  0.53291200  1
  Ru  Ru0  1  0.11782300  0.00378100  0.39022000  1
  Ru  Ru1  1  0.88217700  0.99621900  0.60978000  1
  Ru  Ru2  1  0.38217700  0.99621900  0.89022000  1
  Ru  Ru3  1  0.88217700  0.50378100  0.60978000  1
  Ru  Ru4  1  0.61782300  0.00378100  0.10978000  1
  Ru  Ru5  1  0.11782300  0.49621900  0.39022000  1
  Ru  Ru6  1  0.61782300  0.49621900  0.10978000  1
  Ru  Ru7  1  0.38217700  0.50378100  0.89022000  1
  Ru  Ru8  1  0.13018500  0.00480800  0.11335300  1
  Ru  Ru9  1  0.86981500  0.99519200  0.88664700  1
  Ru  Ru10  1  0.36981500  0.99519200  0.61335300  1
  Ru  Ru11  1  0.86981500  0.50480800  0.88664700  1
  Ru  Ru12  1  0.63018500  0.00480800  0.38664700  1
  Ru  Ru13  1  0.13018500  0.49519200  0.11335300  1
  Ru  Ru14  1  0.63018500  0.49519200  0.38664700  1
  Ru  Ru15  1  0.36981500  0.50480800  0.61335300  1
loop_
_geom_bond_atom_site_label_1
_geom_bond_atom_site_label_2
_geom_bond_distance
_geom_bond_site_symmetry_2
Ga0 Ru0 2.511358 1_555
Ga0 Ru8 2.543552 1_555
Ga0 Ga8 2.593984 1_555
Ga0 Ga24 2.767473 1_555
Ga0 Ga21 2.919495 1_545
Ga0 Ga29 2.952226 1_445
Ga0 Ga30 2.991126 1_545
Ga0 Ga22 2.994930 1_445
Ga0 Tb6 3.007325 1_545
Ga0 Tb3 3.199621 1_455
Ga0 Tb0 3.235249 1_555
Ga1 Ru1 2.511358 1_555
Ga1 Ru9 2.543552 1_555
Ga1 Ga9 2.593984 1_555
Ga1 Ga25 2.767473 1_555
Ga1 Ga19 2.919495 1_565
Ga1 Ga28 2.952226 1_665
Ga1 Ga32 2.991126 1_565
Ga1 Ga23 2.994930 1_665
Ga1 Tb7 3.007325 1_565
Ga1 Tb2 3.199621 1_655
Ga1 Tb1 3.235249 1_555
Ga2 Ru2 2.511358 1_555
Ga2 Ru10 2.543552 1_555
Ga2 Ga26 2.767473 1_555
Ga2 Ga23 2.919495 1_565
Ga2 Ga32 2.952226 1_565
Ga2 Ga28 2.991126 1_565
Ga2 Tb4 3.007325 1_565
Ga2 Tb1 3.199621 1_555
Ga2 Tb2 3.235249 1_555
Ga3 Ru3 2.511358 1_555
Ga3 Ru11 2.543552 1_555
Ga3 Ga9 2.593984 1_555
Ga3 Ga33 2.952226 1_655
Ga3 Ga34 2.991126 1_555
Ga3 Tb7 3.007325 1_555
Ga3 Tb2 3.199621 1_655
Ga3 Tb1 3.235249 1_555
Ga4 Ru4 2.511358 1_555
Ga4 Ru12 2.543552 1_555
Ga4 Tb5 3.007325 1_545
Ga4 Tb0 3.199621 1_555
Ga4 Tb3 3.235249 1_555
Ga5 Ru5 2.511358 1_555
Ga5 Ru13 2.543552 1_555
Ga5 Ga8 2.593984 1_555
Ga5 Tb6 3.007325 1_555
Ga5 Tb3 3.199621 1_455
Ga5 Tb0 3.235249 1_555
Ga6 Ru6 2.511358 1_555
Ga6 Ru14 2.543552 1_555
Ga6 Tb5 3.007325 1_555
Ga6 Tb0 3.199621 1_555
Ga6 Tb3 3.235249 1_555
Ga7 Ru7 2.511358 1_555
Ga7 Ru15 2.543552 1_555
Ga7 Tb4 3.007325 1_555
Ga7 Tb1 3.199621 1_555
Ga7 Tb2 3.235249 1_555
Ga8 Ru13 2.786627 1_555
Ga8 Ru8 2.786627 1_555
Ga8 Tb3 3.138222 1_455
Ga8 Tb0 3.243105 1_555
Ga9 Ru9 2.786627 1_555
Ga9 Ru11 2.786627 1_555
Ga9 Tb2 3.138222 1_655
Ga9 Tb1 3.243105 1_555
Ga10 Ga14 2.511921 1_555
Ga10 Ga25 2.568294 1_555
Ga10 Ga7 2.593984 1_555
Ga10 Ga2 2.593984 1_555
Ga10 Ru10 2.786627 1_555
Ga10 Ru15 2.786627 1_555
Ga10 Tb1 3.138222 1_555
Ga10 Tb2 3.243105 1_555
Ga11 Ga15 2.511921 1_555
Ga11 Ga24 2.568294 1_555
Ga11 Ga6 2.593984 1_555
Ga11 Ga4 2.593984 1_555
Ga11 Ru14 2.786627 1_555
Ga11 Ru12 2.786627 1_555
Ga11 Tb0 3.138222 1_555
Ga11 Tb3 3.243105 1_555
Ga12 Ga8 2.511921 1_555
Ga12 Ga47 2.663610 1_454
Ga12 Ga48 2.673166 1_554
Ga12 Ru13 2.695058 1_555
Ga12 Ru8 2.695058 1_555
Ga12 Ga52 2.758802 1_555
Ga12 Ga57 2.758802 1_555
Ga12 Ga42 2.900818 1_455
Ga12 Ga40 2.900818 1_455
Ga12 Tb0 3.105143 1_555
Ga13 Ga9 2.511921 1_555
Ga13 Ga46 2.663610 1_656
Ga13 Ga49 2.673166 1_556
Ga13 Ru9 2.695058 1_555
Ga13 Ru11 2.695058 1_555
Ga13 Ga53 2.758802 1_555
Ga13 Ga55 2.758802 1_555
Ga13 Ga38 2.900818 1_655
Ga13 Ga43 2.900818 1_655
Ga13 Tb1 3.105143 1_555
Ga14 Ga45 2.663610 1_555
Ga14 Ga50 2.673166 1_555
Ga14 Ru10 2.695058 1_555
Ga14 Ru15 2.695058 1_555
Ga14 Ga54 2.758802 1_555
Ga14 Ga59 2.758802 1_555
Ga14 Ga39 2.900818 1_555
Ga14 Ga37 2.900818 1_555
Ga14 Tb2 3.105143 1_555
Ga15 Ga44 2.663610 1_555
Ga15 Ga51 2.673166 1_555
Ga15 Ru14 2.695058 1_555
Ga15 Ru12 2.695058 1_555
Ga15 Ga58 2.758802 1_555
Ga15 Ga56 2.758802 1_555
Ga15 Ga41 2.900818 1_555
Ga15 Ga36 2.900818 1_555
Ga15 Tb3 3.105143 1_555
Ga16 Ru14 2.582625 1_555
Ga16 Ru5 2.611511 1_555
Ga16 Ga41 2.734497 1_555
Ga16 Ga50 2.768117 1_555
Ga16 Ga45 2.788981 1_555
Ga16 Ga35 2.849575 1_555
Ga16 Ga5 2.919495 1_555
Ga16 Ga6 2.994930 1_555
Ga16 Tb5 3.111769 1_555
Ga16 Tb6 3.136759 1_555
Ga17 Ru15 2.582625 1_555
Ga17 Ru3 2.611511 1_555
Ga17 Ga39 2.734497 1_555
Ga17 Ga51 2.768117 1_555
Ga17 Ga44 2.788981 1_555
Ga17 Ga34 2.849575 1_555
Ga17 Ga3 2.919495 1_555
Ga17 Ga7 2.994930 1_555
Ga17 Tb4 3.111769 1_555
Ga17 Tb7 3.136759 1_555
Ga18 Ru11 2.582625 1_455
Ga18 Ru7 2.611511 1_555
Ga18 Ga43 2.734497 1_555
Ga18 Ga48 2.768117 1_555
Ga18 Ga47 2.788981 1_455
Ga18 Ga33 2.849575 1_555
Ga18 Ga7 2.919495 1_555
Ga18 Ga3 2.994930 1_455
Ga18 Tb7 3.111769 1_455
Ga18 Tb4 3.136759 1_555
Ga19 Ru10 2.582625 1_545
Ga19 Ru1 2.611511 1_545
Ga19 Ga37 2.734497 1_545
Ga19 Ga51 2.768117 1_555
Ga19 Ga44 2.788981 1_555
Ga19 Ga32 2.849575 1_555
Ga19 Ga2 2.994930 1_545
Ga19 Tb4 3.111769 1_555
Ga19 Tb7 3.136759 1_555
Ga20 Ru13 2.582625 1_655
Ga20 Ru6 2.611511 1_555
Ga20 Ga42 2.734497 1_555
Ga20 Ga49 2.768117 1_555
Ga20 Ga46 2.788981 1_655
Ga20 Ga31 2.849575 1_555
Ga20 Ga6 2.919495 1_555
Ga20 Ga5 2.994930 1_655
Ga20 Tb6 3.111769 1_655
Ga20 Tb5 3.136759 1_555
Ga21 Ru12 2.582625 1_565
Ga21 Ru0 2.611511 1_565
Ga21 Ga36 2.734497 1_565
Ga21 Ga50 2.768117 1_555
Ga21 Ga45 2.788981 1_555
Ga21 Ga30 2.849575 1_555
Ga21 Ga4 2.994930 1_565
Ga21 Tb5 3.111769 1_555
Ga21 Tb6 3.136759 1_555
Ga22 Ru8 2.582625 1_665
Ga22 Ru4 2.611511 1_565
Ga22 Ga40 2.734497 1_565
Ga22 Ga49 2.768117 1_555
Ga22 Ga46 2.788981 1_655
Ga22 Ga29 2.849575 1_555
Ga22 Ga4 2.919495 1_565
Ga22 Tb6 3.111769 1_655
Ga22 Tb5 3.136759 1_555
Ga23 Ru9 2.582625 1_445
Ga23 Ru2 2.611511 1_545
Ga23 Ga38 2.734497 1_545
Ga23 Ga48 2.768117 1_555
Ga23 Ga47 2.788981 1_455
Ga23 Ga28 2.849575 1_555
Ga23 Tb7 3.111769 1_455
Ga23 Tb4 3.136759 1_555
Ga24 Ru5 2.611713 1_555
Ga24 Ru0 2.611713 1_555
Ga24 Ga5 2.767473 1_555
Ga24 Ga41 2.968198 1_555
Ga24 Ga36 2.968198 1_555
Ga24 Tb8 3.066546 1_555
Ga24 Tb3 3.083469 1_455
Ga24 Tb0 3.667539 1_555
Ga25 Ru1 2.611713 1_555
Ga25 Ru3 2.611713 1_555
Ga25 Ga3 2.767473 1_555
Ga25 Ga39 2.968198 1_555
Ga25 Ga37 2.968198 1_555
Ga25 Tb9 3.066546 1_555
Ga25 Tb2 3.083469 1_655
Ga25 Tb1 3.667539 1_555
Ga26 Ga9 2.568294 1_455
Ga26 Ru2 2.611713 1_555
Ga26 Ru7 2.611713 1_555
Ga26 Ga7 2.767473 1_555
Ga26 Ga38 2.968198 1_555
Ga26 Ga43 2.968198 1_555
Ga26 Tb10 3.066546 1_556
Ga26 Tb1 3.083469 1_555
Ga26 Tb2 3.667539 1_555
Ga27 Ga8 2.568294 1_655
Ga27 Ru6 2.611713 1_555
Ga27 Ru4 2.611713 1_555
Ga27 Ga6 2.767473 1_555
Ga27 Ga4 2.767473 1_555
Ga27 Ga42 2.968198 1_555
Ga27 Ga40 2.968198 1_555
Ga27 Tb11 3.066546 1_554
Ga27 Tb0 3.083469 1_555
Ga27 Tb3 3.667539 1_555
Ga28 Ru1 2.556272 1_445
Ga28 Ru10 2.560537 1_545
Ga28 Ga54 2.897282 1_545
Ga28 Tb4 3.041877 1_555
Ga28 Tb7 3.053876 1_455
Ga28 Tb8 3.062486 1_555
Ga28 Tb2 3.262088 1_545
Ga29 Ru0 2.556272 1_665
Ga29 Ru12 2.560537 1_565
Ga29 Ga56 2.897282 1_565
Ga29 Ga4 2.991126 1_565
Ga29 Tb5 3.041877 1_555
Ga29 Tb6 3.053876 1_655
Ga29 Tb9 3.062486 1_555
Ga29 Tb3 3.262088 1_565
Ga30 Ru4 2.556272 1_565
Ga30 Ru8 2.560537 1_565
Ga30 Ga52 2.897282 1_565
Ga30 Ga4 2.952226 1_565
Ga30 Tb6 3.041877 1_555
Ga30 Tb5 3.053876 1_555
Ga30 Tb10 3.062486 1_555
Ga30 Tb0 3.262088 1_565
Ga31 Ru5 2.556272 1_655
Ga31 Ru14 2.560537 1_555
Ga31 Ga58 2.897282 1_555
Ga31 Ga5 2.952226 1_655
Ga31 Ga6 2.991126 1_555
Ga31 Tb5 3.041877 1_555
Ga31 Tb6 3.053876 1_655
Ga31 Tb9 3.062486 1_555
Ga31 Tb3 3.262088 1_555
Ga32 Ru2 2.556272 1_545
Ga32 Ru9 2.560537 1_545
Ga32 Ga53 2.897282 1_545
Ga32 Tb7 3.041877 1_555
Ga32 Tb4 3.053876 1_555
Ga32 Tb11 3.062486 1_555
Ga32 Tb1 3.262088 1_545
Ga33 Ru3 2.556272 1_455
Ga33 Ru15 2.560537 1_555
Ga33 Ga59 2.897282 1_555
Ga33 Ga7 2.991126 1_555
Ga33 Tb4 3.041877 1_555
Ga33 Tb7 3.053876 1_455
Ga33 Tb8 3.062486 1_555
Ga33 Tb2 3.262088 1_555
Ga34 Ru7 2.556272 1_555
Ga34 Ru11 2.560537 1_555
Ga34 Ga55 2.897282 1_555
Ga34 Ga7 2.952226 1_555
Ga34 Tb7 3.041877 1_555
Ga34 Tb4 3.053876 1_555
Ga34 Tb11 3.062486 1_555
Ga34 Tb1 3.262088 1_555
Ga35 Ru6 2.556272 1_555
Ga35 Ru13 2.560537 1_555
Ga35 Ga57 2.897282 1_555
Ga35 Ga6 2.952226 1_555
Ga35 Ga5 2.991126 1_555
Ga35 Tb6 3.041877 1_555
Ga35 Tb5 3.053876 1_555
Ga35 Tb10 3.062486 1_555
Ga35 Tb0 3.262088 1_555
Ga36 Ru12 2.686253 1_555
Ga36 Ru0 2.707751 1_555
Ga36 Ru10 2.716726 1_545
Ga36 Ga37 2.755936 1_545
Ga36 Ga44 2.787727 1_555
Ga36 Ga54 2.816444 1_545
Ga36 Tb8 3.062253 1_555
Ga37 Ru10 2.686253 1_555
Ga37 Ru1 2.707751 1_555
Ga37 Ru12 2.716726 1_565
Ga37 Ga45 2.787727 1_555
Ga37 Ga56 2.816444 1_565
Ga37 Tb9 3.062253 1_555
Ga38 Ru9 2.686253 1_455
Ga38 Ru2 2.707751 1_555
Ga38 Ru8 2.716726 1_566
Ga38 Ga40 2.755936 1_466
Ga38 Ga46 2.787727 1_556
Ga38 Ga52 2.816444 1_566
Ga38 Tb10 3.062253 1_556
Ga39 Ru15 2.686253 1_555
Ga39 Ru3 2.707751 1_555
Ga39 Ru14 2.716726 1_555
Ga39 Ga41 2.755936 1_555
Ga39 Ga45 2.787727 1_555
Ga39 Ga58 2.816444 1_555
Ga39 Tb9 3.062253 1_555
Ga40 Ru8 2.686253 1_655
Ga40 Ru4 2.707751 1_555
Ga40 Ru9 2.716726 1_544
Ga40 Ga47 2.787727 1_554
Ga40 Ga53 2.816444 1_544
Ga40 Tb11 3.062253 1_554
Ga41 Ru14 2.686253 1_555
Ga41 Ru5 2.707751 1_555
Ga41 Ru15 2.716726 1_555
Ga41 Ga44 2.787727 1_555
Ga41 Ga59 2.816444 1_555
Ga41 Tb8 3.062253 1_555
Ga42 Ru13 2.686253 1_655
Ga42 Ru6 2.707751 1_555
Ga42 Ru11 2.716726 1_554
Ga42 Ga43 2.755936 1_654
Ga42 Ga47 2.787727 1_554
Ga42 Ga55 2.816444 1_554
Ga42 Tb11 3.062253 1_554
Ga43 Ru11 2.686253 1_455
Ga43 Ru7 2.707751 1_555
Ga43 Ru13 2.716726 1_556
Ga43 Ga46 2.787727 1_556
Ga43 Ga57 2.816444 1_556
Ga43 Tb10 3.062253 1_556
Ga44 Ru15 2.646475 1_555
Ga44 Ru10 2.646475 1_545
Ga44 Tb8 3.017274 1_555
Ga44 Tb4 3.114984 1_555
Ga45 Ru12 2.646475 1_565
Ga45 Ru14 2.646475 1_555
Ga45 Tb9 3.017274 1_555
Ga45 Tb5 3.114984 1_555
Ga46 Ru8 2.646475 1_565
Ga46 Ru13 2.646475 1_555
Ga46 Tb10 3.017274 1_555
Ga46 Tb6 3.114984 1_555
Ga47 Ru11 2.646475 1_555
Ga47 Ru9 2.646475 1_545
Ga47 Tb11 3.017274 1_555
Ga47 Tb7 3.114984 1_555
Ga48 Ru7 2.598620 1_555
Ga48 Ru2 2.598620 1_545
Ga48 Ga52 2.764142 1_556
Ga48 Ga57 2.764142 1_556
Ga48 Tb11 3.008395 1_555
Ga48 Tb4 3.090044 1_555
Ga49 Ru4 2.598620 1_565
Ga49 Ru6 2.598620 1_555
Ga49 Ga53 2.764142 1_554
Ga49 Ga55 2.764142 1_554
Ga49 Tb10 3.008395 1_555
Ga49 Tb5 3.090044 1_555
Ga50 Ru0 2.598620 1_565
Ga50 Ru5 2.598620 1_555
Ga50 Ga54 2.764142 1_555
Ga50 Ga59 2.764142 1_555
Ga50 Tb9 3.008395 1_455
Ga50 Tb6 3.090044 1_555
Ga51 Ru3 2.598620 1_555
Ga51 Ru1 2.598620 1_545
Ga51 Ga56 2.764142 1_555
Ga51 Ga58 2.764142 1_555
Ga51 Tb8 3.008395 1_655
Ga51 Tb7 3.090044 1_555
Ga52 Ru4 2.626018 1_555
Ga52 Ru2 2.639316 1_544
Ga52 Ru8 2.653239 1_555
Ga52 Ga53 2.845015 1_544
Ga52 Tb0 2.980978 1_555
Ga52 Tb11 3.010657 1_554
Ga52 Tb10 3.088655 1_545
Ga53 Ru2 2.626018 1_555
Ga53 Ru4 2.639316 1_566
Ga53 Ru9 2.653239 1_555
Ga53 Tb1 2.980978 1_555
Ga53 Tb10 3.010657 1_556
Ga53 Tb11 3.088655 1_565
Ga54 Ru1 2.626018 1_455
Ga54 Ru0 2.639316 1_565
Ga54 Ru10 2.653239 1_555
Ga54 Ga56 2.845015 1_465
Ga54 Tb2 2.980978 1_555
Ga54 Tb9 3.010657 1_455
Ga54 Tb8 3.088655 1_565
Ga55 Ru7 2.626018 1_555
Ga55 Ru6 2.639316 1_556
Ga55 Ru11 2.653239 1_555
Ga55 Ga57 2.845015 1_556
Ga55 Tb1 2.980978 1_555
Ga55 Tb10 3.010657 1_556
Ga55 Tb11 3.088655 1_555
Ga56 Ru0 2.626018 1_655
Ga56 Ru1 2.639316 1_545
Ga56 Ru12 2.653239 1_555
Ga56 Tb3 2.980978 1_555
Ga56 Tb8 3.010657 1_655
Ga56 Tb9 3.088655 1_545
Ga57 Ru6 2.626018 1_555
Ga57 Ru7 2.639316 1_554
Ga57 Ru13 2.653239 1_555
Ga57 Tb0 2.980978 1_555
Ga57 Tb11 3.010657 1_554
Ga57 Tb10 3.088655 1_555
Ga58 Ru5 2.626018 1_655
Ga58 Ru3 2.639316 1_555
Ga58 Ru14 2.653239 1_555
Ga58 Ga59 2.845015 1_655
Ga58 Tb3 2.980978 1_555
Ga58 Tb8 3.010657 1_655
Ga58 Tb9 3.088655 1_555
Ga59 Ru3 2.626018 1_455
Ga59 Ru5 2.639316 1_555
Ga59 Ru15 2.653239 1_555
Ga59 Tb2 2.980978 1_555
Ga59 Tb9 3.010657 1_455
Ga59 Tb8 3.088655 1_555
Ru0 Tb3 3.363376 1_455
Ru1 Tb2 3.363376 1_655
Ru2 Tb1 3.363376 1_555
Ru3 Tb2 3.363376 1_655
Ru4 Tb0 3.363376 1_555
Ru5 Tb3 3.363376 1_455
Ru6 Tb0 3.363376 1_555
Ru7 Tb1 3.363376 1_555
Ru8 Tb0 3.356024 1_555
Ru9 Tb1 3.356024 1_555
Ru10 Tb2 3.356024 1_555
Ru11 Tb1 3.356024 1_555
Ru12 Tb3 3.356024 1_555
Ru13 Tb0 3.356024 1_555
Ru14 Tb3 3.356024 1_555
Ru15 Tb2 3.356024 1_555
