# generated using pymatgen
data_Sr3TaGa3(SiO7)2
_symmetry_space_group_name_H-M   'P 1'
_cell_length_a   8.41219425
_cell_length_b   8.41219425
_cell_length_c   5.12950300
_cell_angle_alpha   90.00000000
_cell_angle_beta   90.00000000
_cell_angle_gamma   120.00000201
_symmetry_Int_Tables_number   1
_chemical_formula_structural   Sr3TaGa3(SiO7)2
_chemical_formula_sum   'Sr3 Ta1 Ga3 Si2 O14'
_cell_volume   314.35798537
_cell_formula_units_Z   1
loop_
 _symmetry_equiv_pos_site_id
 _symmetry_equiv_pos_as_xyz
  1  'x, y, z'
loop_
 _atom_site_type_symbol
 _atom_site_label
 _atom_site_symmetry_multiplicity
 _atom_site_fract_x
 _atom_site_fract_y
 _atom_site_fract_z
 _atom_site_occupancy
  Sr  Sr0  1  0.57375100  0.57375100  0.00000000  1
  Sr  Sr1  1  0.42624900  0.00000000  0.00000000  1
  Sr  Sr2  1  0.00000000  0.42624900  0.00000000  1
  Ta  Ta0  1  0.00000000  0.00000000  0.00000000  1
  Ga  Ga0  1  0.25586100  0.25586100  0.50000000  1
  Ga  Ga1  1  0.00000000  0.74413900  0.50000000  1
  Ga  Ga2  1  0.74413900  0.00000000  0.50000000  1
  Si  Si0  1  0.33333300  0.66666700  0.53526700  1
  Si  Si1  1  0.66666700  0.33333300  0.46473300  1
  O  O0  1  0.09636600  0.22165500  0.23012200  1
  O  O1  1  0.77834500  0.87471200  0.23012200  1
  O  O2  1  0.12528800  0.90363400  0.23012200  1
  O  O3  1  0.87471200  0.77834500  0.76987800  1
  O  O4  1  0.90363400  0.12528800  0.76987800  1
  O  O5  1  0.22165500  0.09636600  0.76987800  1
  O  O6  1  0.31032700  0.47609300  0.66991000  1
  O  O7  1  0.52390700  0.83423300  0.66991000  1
  O  O8  1  0.16576700  0.68967300  0.66991000  1
  O  O9  1  0.33333300  0.66666700  0.22117300  1
  O  O10  1  0.66666700  0.33333300  0.77882700  1
  O  O11  1  0.47609300  0.31032700  0.33009000  1
  O  O12  1  0.68967300  0.16576700  0.33009000  1
  O  O13  1  0.83423300  0.52390700  0.33009000  1
loop_
_geom_bond_atom_site_label_1
_geom_bond_atom_site_label_2
_geom_bond_distance
_geom_bond_site_symmetry_2
Ga0 O5 1.847509 1_555
Ga0 O0 1.847509 1_555
Ga0 O11 1.884927 1_555
Ga0 O6 1.884927 1_555
Ga1 O3 1.847504 1_455
Ga1 O2 1.847508 1_555
Ga1 O13 1.884929 1_455
Ga1 O8 1.884934 1_555
Ga2 O1 1.847504 1_545
Ga2 O4 1.847508 1_555
Ga2 O7 1.884929 1_545
Ga2 O12 1.884934 1_555
O0 Ta0 2.003930 1_555
O0 Sr2 2.531374 1_555
O1 Ta0 2.003929 1_665
O1 Sr0 2.531379 1_555
O2 Ta0 2.003924 1_565
O2 Sr1 2.531381 1_565
O3 Ta0 2.003929 1_666
O3 Sr0 2.531379 1_556
O4 Ta0 2.003924 1_656
O4 Sr2 2.531381 1_656
O5 Ta0 2.003930 1_556
O5 Sr1 2.531374 1_556
O6 Si0 1.665614 1_555
O6 Sr0 2.575245 1_556
O6 Sr2 2.960238 1_556
O7 Si0 1.665608 1_555
O7 Sr1 2.575251 1_566
O7 Sr0 2.960232 1_556
O8 Si0 1.665599 1_555
O8 Sr2 2.575246 1_556
O8 Sr1 2.960236 1_566
O9 Si0 1.611146 1_555
O9 Sr1 2.751196 1_565
O9 Sr2 2.751198 1_555
O9 Sr0 2.751204 1_555
O10 Si1 1.611146 1_555
O10 Sr2 2.751196 1_656
O10 Sr1 2.751198 1_556
O10 Sr0 2.751204 1_556
O11 Si1 1.665614 1_555
O11 Sr0 2.575245 1_555
O11 Sr1 2.960238 1_555
O12 Si1 1.665599 1_555
O12 Sr1 2.575246 1_555
O12 Sr2 2.960236 1_655
O13 Si1 1.665608 1_555
O13 Sr2 2.575251 1_655
O13 Sr0 2.960232 1_555
