# generated using pymatgen
data_ZnSiO3
_symmetry_space_group_name_H-M   'P 1'
_cell_length_a   5.43233385
_cell_length_b   5.43233385
_cell_length_c   5.43233429
_cell_angle_alpha   52.52246245
_cell_angle_beta   52.52246245
_cell_angle_gamma   52.52246670
_symmetry_Int_Tables_number   1
_chemical_formula_structural   ZnSiO3
_chemical_formula_sum   'Zn2 Si2 O6'
_cell_volume   93.45862086
_cell_formula_units_Z   2
loop_
 _symmetry_equiv_pos_site_id
 _symmetry_equiv_pos_as_xyz
  1  'x, y, z'
loop_
 _atom_site_type_symbol
 _atom_site_label
 _atom_site_symmetry_multiplicity
 _atom_site_fract_x
 _atom_site_fract_y
 _atom_site_fract_z
 _atom_site_occupancy
  Zn  Zn0  1  0.36948100  0.36948100  0.36948100  1
  Zn  Zn1  1  0.63051900  0.63051900  0.63051900  1
  Si  Si0  1  0.16087500  0.16087500  0.16087500  1
  Si  Si1  1  0.83912500  0.83912500  0.83912500  1
  O  O0  1  0.43735600  0.80248700  0.04604600  1
  O  O1  1  0.80248700  0.04604600  0.43735600  1
  O  O2  1  0.04604600  0.43735600  0.80248700  1
  O  O3  1  0.56264400  0.19751300  0.95395400  1
  O  O4  1  0.19751300  0.95395400  0.56264400  1
  O  O5  1  0.95395400  0.56264400  0.19751300  1
loop_
_geom_bond_atom_site_label_1
_geom_bond_atom_site_label_2
_geom_bond_distance
_geom_bond_site_symmetry_2
O0 Si0 1.792959 1_565
O0 Si1 1.826895 1_554
O0 Zn0 1.998446 1_555
O0 Zn1 2.357955 1_554
O1 Si0 1.792959 1_655
O1 Si1 1.826895 1_545
O1 Zn0 1.998446 1_555
O1 Zn1 2.357955 1_545
O2 Si0 1.792959 1_556
O2 Si1 1.826895 1_455
O2 Zn0 1.998446 1_555
O2 Zn1 2.357955 1_455
O3 Si1 1.792959 1_545
O3 Si0 1.826895 1_556
O3 Zn1 1.998446 1_555
O3 Zn0 2.357955 1_556
O4 Si1 1.792959 1_455
O4 Si0 1.826895 1_565
O4 Zn1 1.998446 1_555
O4 Zn0 2.357955 1_565
O5 Si1 1.792959 1_554
O5 Si0 1.826895 1_655
O5 Zn1 1.998446 1_555
O5 Zn0 2.357955 1_655
