# generated using pymatgen
data_Lu2SiO5
_symmetry_space_group_name_H-M   'P 1'
_cell_length_a   7.81236244
_cell_length_b   7.81236244
_cell_length_c   10.13184970
_cell_angle_alpha   61.21481088
_cell_angle_beta   61.21481088
_cell_angle_gamma   49.88073033
_symmetry_Int_Tables_number   1
_chemical_formula_structural   Lu2SiO5
_chemical_formula_sum   'Lu8 Si4 O20'
_cell_volume   400.68729579
_cell_formula_units_Z   4
loop_
 _symmetry_equiv_pos_site_id
 _symmetry_equiv_pos_as_xyz
  1  'x, y, z'
loop_
 _atom_site_type_symbol
 _atom_site_label
 _atom_site_symmetry_multiplicity
 _atom_site_fract_x
 _atom_site_fract_y
 _atom_site_fract_z
 _atom_site_occupancy
  Lu  Lu0  1  0.51732297  0.76329637  0.66253967  1
  Lu  Lu1  1  0.23670363  0.48267703  0.83746033  1
  Lu  Lu2  1  0.48267703  0.23670363  0.33746033  1
  Lu  Lu3  1  0.76329637  0.51732297  0.16253967  1
  Lu  Lu4  1  0.29365782  0.78075910  0.03184302  1
  Lu  Lu5  1  0.21924090  0.70634218  0.46815698  1
  Lu  Lu6  1  0.70634218  0.21924090  0.96815698  1
  Lu  Lu7  1  0.78075910  0.29365782  0.53184302  1
  Si  Si0  1  0.91028110  0.72449130  0.30706310  1
  Si  Si1  1  0.27550870  0.08971890  0.19293690  1
  Si  Si2  1  0.08971890  0.27550870  0.69293690  1
  Si  Si3  1  0.72449130  0.91028110  0.80706310  1
  O  O0  1  0.42017698  0.61481710  0.60253213  1
  O  O1  1  0.38518290  0.57982302  0.89746787  1
  O  O2  1  0.57982302  0.38518290  0.39746787  1
  O  O3  1  0.61481710  0.42017698  0.10253213  1
  O  O4  1  0.72476193  0.87041486  0.43798969  1
  O  O5  1  0.12958514  0.27523807  0.06201031  1
  O  O6  1  0.27523807  0.12958514  0.56201031  1
  O  O7  1  0.87041486  0.72476193  0.93798969  1
  O  O8  1  0.85143583  0.55045543  0.32279102  1
  O  O9  1  0.44954457  0.14856417  0.17720898  1
  O  O10  1  0.14856417  0.44954457  0.67720898  1
  O  O11  1  0.55045543  0.85143583  0.82279102  1
  O  O12  1  0.90349119  0.92048367  0.63596891  1
  O  O13  1  0.07951633  0.09650881  0.86403109  1
  O  O14  1  0.09650881  0.07951633  0.36403109  1
  O  O15  1  0.92048367  0.90349119  0.13596891  1
  O  O16  1  0.58864256  0.17068707  0.82617972  1
  O  O17  1  0.82931293  0.41135744  0.67382028  1
  O  O18  1  0.41135744  0.82931293  0.17382028  1
  O  O19  1  0.17068707  0.58864256  0.32617972  1
loop_
_geom_bond_atom_site_label_1
_geom_bond_atom_site_label_2
_geom_bond_distance
_geom_bond_site_symmetry_2
Lu0 O0 2.132911 1_555
Lu0 O17 2.200565 1_555
Lu0 O4 2.205938 1_555
Lu0 O6 2.208250 1_565
Lu0 O11 2.210994 1_555
Lu0 O1 2.245147 1_555
Lu1 O1 2.132911 1_555
Lu1 O16 2.200565 1_555
Lu1 O5 2.205938 1_556
Lu1 O7 2.208250 1_455
Lu1 O10 2.210994 1_555
Lu1 O0 2.245147 1_555
Lu2 O2 2.132911 1_555
Lu2 O19 2.200565 1_555
Lu2 O6 2.205938 1_555
Lu2 O4 2.208250 1_545
Lu2 O9 2.210994 1_555
Lu2 O3 2.245147 1_555
Lu3 O3 2.132911 1_555
Lu3 O18 2.200565 1_555
Lu3 O7 2.205938 1_554
Lu3 O5 2.208250 1_655
Lu3 O8 2.210994 1_555
Lu3 O2 2.245147 1_555
Lu4 O1 2.122089 1_554
Lu4 O15 2.222914 1_455
Lu4 O11 2.241645 1_554
Lu4 O13 2.270741 1_564
Lu4 O18 2.303798 1_555
Lu4 O3 2.328590 1_555
Lu4 O19 2.618695 1_555
Lu5 O0 2.122089 1_555
Lu5 O14 2.222914 1_565
Lu5 O10 2.241645 1_555
Lu5 O12 2.270741 1_455
Lu5 O19 2.303798 1_555
Lu5 O2 2.328590 1_555
Lu5 O18 2.618695 1_555
Lu6 O3 2.122089 1_556
Lu6 O13 2.222914 1_655
Lu6 O9 2.241645 1_556
Lu6 O15 2.270741 1_546
Lu6 O16 2.303798 1_555
Lu6 O1 2.328590 1_555
Lu6 O17 2.618695 1_555
Lu7 O2 2.122089 1_555
Lu7 O12 2.222914 1_545
Lu7 O8 2.241645 1_555
Lu7 O14 2.270741 1_655
Lu7 O17 2.303798 1_555
Lu7 O0 2.328590 1_555
Lu7 O16 2.618695 1_555
O4 Si0 1.623372 1_555
O5 Si1 1.623372 1_555
O6 Si2 1.623372 1_555
O7 Si3 1.623372 1_555
O8 Si0 1.616065 1_555
O9 Si1 1.616065 1_555
O10 Si2 1.616065 1_555
O11 Si3 1.616065 1_555
O12 Si3 1.625709 1_555
O13 Si2 1.625709 1_555
O14 Si1 1.625709 1_555
O15 Si0 1.625709 1_555
O16 Si3 1.643640 1_545
O17 Si2 1.643640 1_655
O18 Si1 1.643640 1_565
O19 Si0 1.643640 1_455
