# generated using pymatgen
data_K2GeF6
_symmetry_space_group_name_H-M   'P 1'
_cell_length_a   5.68504522
_cell_length_b   5.68504696
_cell_length_c   9.22683612
_cell_angle_alpha   90.00000000
_cell_angle_beta   90.00000000
_cell_angle_gamma   120.00000129
_symmetry_Int_Tables_number   1
_chemical_formula_structural   K2GeF6
_chemical_formula_sum   'K4 Ge2 F12'
_cell_volume   258.25659042
_cell_formula_units_Z   2
loop_
 _symmetry_equiv_pos_site_id
 _symmetry_equiv_pos_as_xyz
  1  'x, y, z'
loop_
 _atom_site_type_symbol
 _atom_site_label
 _atom_site_symmetry_multiplicity
 _atom_site_fract_x
 _atom_site_fract_y
 _atom_site_fract_z
 _atom_site_occupancy
  K  K0  1  -0.00000000  -0.00000000  0.09728676  1
  K  K1  1  -0.00000000  -0.00000000  0.59728676  1
  K  K2  1  0.66666700  0.33333300  0.37340089  1
  K  K3  1  0.33333300  0.66666700  0.87340089  1
  Ge  Ge0  1  0.66666700  0.33333300  0.75737260  1
  Ge  Ge1  1  0.33333300  0.66666700  0.25737260  1
  F  F0  1  0.51769133  0.48230867  0.64187744  1
  F  F1  1  0.03538466  0.51769133  0.14187744  1
  F  F2  1  0.48230867  0.96461534  0.14187744  1
  F  F3  1  0.51769133  0.03538466  0.64187744  1
  F  F4  1  0.96461534  0.48230867  0.64187744  1
  F  F5  1  0.48230867  0.51769133  0.14187744  1
  F  F6  1  0.18022346  0.81977654  0.36543681  1
  F  F7  1  0.36044891  0.18022346  0.86543681  1
  F  F8  1  0.81977654  0.63955109  0.86543681  1
  F  F9  1  0.18022346  0.36044891  0.36543681  1
  F  F10  1  0.63955109  0.81977654  0.36543681  1
  F  F11  1  0.81977654  0.18022346  0.86543681  1
loop_
_geom_bond_atom_site_label_1
_geom_bond_atom_site_label_2
_geom_bond_distance
_geom_bond_site_symmetry_2
F0 Ge0 1.813149 1_555
F0 K3 2.803377 1_555
F0 K1 2.877422 1_555
F0 K1 2.877422 1_665
F0 K2 2.878950 1_555
F1 Ge1 1.813137 1_555
F1 K2 2.803380 1_455
F1 K0 2.877418 1_555
F1 K0 2.877429 1_565
F1 K3 2.878943 1_554
F2 Ge1 1.813137 1_555
F2 K2 2.803381 1_565
F2 K0 2.877417 1_665
F2 K0 2.877428 1_565
F2 K3 2.878943 1_554
F3 Ge0 1.813137 1_555
F3 K3 2.803381 1_545
F3 K1 2.877417 1_555
F3 K1 2.877428 1_655
F3 K2 2.878943 1_555
F4 Ge0 1.813137 1_555
F4 K3 2.803380 1_655
F4 K1 2.877418 1_665
F4 K1 2.877429 1_655
F4 K2 2.878943 1_555
F5 Ge1 1.813149 1_555
F5 K2 2.803377 1_555
F5 K0 2.877422 1_665
F5 K0 2.877422 1_555
F5 K3 2.878950 1_554
F6 Ge1 1.807529 1_555
F6 K1 2.779503 1_565
F6 K2 2.846604 1_455
F6 K2 2.846604 1_565
F6 K0 3.044804 1_565
F7 Ge0 1.807524 1_555
F7 K0 2.779509 1_556
F7 K3 2.846597 1_545
F7 K3 2.846614 1_555
F7 K1 3.044810 1_555
F8 Ge0 1.807525 1_555
F8 K0 2.779510 1_666
F8 K3 2.846596 1_655
F8 K3 2.846613 1_555
F8 K1 3.044810 1_665
F9 Ge1 1.807525 1_555
F9 K1 2.779510 1_555
F9 K2 2.846596 1_455
F9 K2 2.846613 1_555
F9 K0 3.044810 1_555
F10 Ge1 1.807524 1_555
F10 K1 2.779509 1_665
F10 K2 2.846597 1_565
F10 K2 2.846614 1_555
F10 K0 3.044810 1_665
F11 Ge0 1.807529 1_555
F11 K0 2.779503 1_656
F11 K3 2.846604 1_655
F11 K3 2.846604 1_545
F11 K1 3.044804 1_655
