# generated using pymatgen
data_NbReSi
_symmetry_space_group_name_H-M   'P 1'
_cell_length_a   3.29865705
_cell_length_b   6.81587780
_cell_length_c   6.81640582
_cell_angle_alpha   119.99743430
_cell_angle_beta   90.00000000
_cell_angle_gamma   90.00000000
_symmetry_Int_Tables_number   1
_chemical_formula_structural   NbReSi
_chemical_formula_sum   'Nb3 Re3 Si3'
_cell_volume   132.72607728
_cell_formula_units_Z   3
loop_
 _symmetry_equiv_pos_site_id
 _symmetry_equiv_pos_as_xyz
  1  'x, y, z'
loop_
 _atom_site_type_symbol
 _atom_site_label
 _atom_site_symmetry_multiplicity
 _atom_site_fract_x
 _atom_site_fract_y
 _atom_site_fract_z
 _atom_site_occupancy
  Nb  Nb0  1  0.50000000  0.59815076  1.00000000  1
  Nb  Nb1  1  0.50000000  0.40185827  0.40190222  1
  Nb  Nb2  1  0.50000000  0.99995605  0.59809778  1
  Re  Re0  1  0.00000000  0.25856348  1.00000000  1
  Re  Re1  1  0.00000000  0.74159542  0.74181839  1
  Re  Re2  1  -0.00000000  0.99977603  0.25818161  1
  Si  Si0  1  0.00000000  0.33325166  0.66660900  1
  Si  Si1  1  -0.00000000  0.66664365  0.33339100  1
  Si  Si2  1  0.50000000  0.00010567  0.00000000  1
loop_
_geom_bond_atom_site_label_1
_geom_bond_atom_site_label_2
_geom_bond_distance
_geom_bond_site_symmetry_2
Nb0 Si1 2.653636 1_656
Nb0 Si1 2.653636 1_556
Nb0 Si0 2.653638 1_555
Nb0 Si0 2.653638 1_655
Nb0 Si2 2.739676 1_566
Nb0 Re0 2.842110 1_555
Nb0 Re0 2.842110 1_655
Nb0 Re2 2.914412 1_656
Nb0 Re2 2.914412 1_556
Nb0 Re1 2.914416 1_555
Nb0 Re1 2.914416 1_655
Nb1 Si1 2.652966 1_555
Nb1 Si1 2.652966 1_655
Nb1 Si0 2.652979 1_555
Nb1 Si0 2.652979 1_655
Nb1 Si2 2.739019 1_555
Nb1 Re1 2.843586 1_655
Nb1 Re1 2.843586 1_555
Nb1 Re0 2.916122 1_554
Nb1 Re0 2.916122 1_654
Nb1 Re2 2.916506 1_545
Nb1 Re2 2.916506 1_645
Nb2 Si0 2.652961 1_565
Nb2 Si0 2.652961 1_665
Nb2 Si1 2.652975 1_555
Nb2 Si1 2.652975 1_655
Nb2 Si2 2.739019 1_566
Nb2 Re2 2.843583 1_555
Nb2 Re2 2.843583 1_655
Nb2 Re0 2.916123 1_565
Nb2 Re0 2.916123 1_665
Nb2 Re1 2.916500 1_555
Nb2 Re1 2.916500 1_655
Re0 Si2 2.413209 1_456
Re0 Si2 2.413209 1_556
Re0 Si0 2.565211 1_555
Re0 Si1 2.565216 1_556
Re1 Si2 2.412753 1_466
Re1 Si2 2.412753 1_566
Re1 Si0 2.565621 1_555
Re1 Si1 2.567010 1_555
Re2 Si2 2.412755 1_465
Re2 Si2 2.412755 1_565
Re2 Si1 2.565607 1_555
Re2 Si0 2.567010 1_565
