# generated using pymatgen
data_Pb3(IO6)2
_symmetry_space_group_name_H-M   'P 1'
_cell_length_a   9.50808964
_cell_length_b   8.81299100
_cell_length_c   12.58651998
_cell_angle_alpha   90.00000000
_cell_angle_beta   98.88887216
_cell_angle_gamma   90.00000000
_symmetry_Int_Tables_number   1
_chemical_formula_structural   Pb3(IO6)2
_chemical_formula_sum   'Pb12 I8 O48'
_cell_volume   1042.01690848
_cell_formula_units_Z   4
loop_
 _symmetry_equiv_pos_site_id
 _symmetry_equiv_pos_as_xyz
  1  'x, y, z'
loop_
 _atom_site_type_symbol
 _atom_site_label
 _atom_site_symmetry_multiplicity
 _atom_site_fract_x
 _atom_site_fract_y
 _atom_site_fract_z
 _atom_site_occupancy
  Pb  Pb0  1  0.14216100  0.36318700  0.64308600  1
  Pb  Pb1  1  0.85783900  0.86318700  0.85691400  1
  Pb  Pb2  1  0.85783900  0.63681300  0.35691400  1
  Pb  Pb3  1  0.14216100  0.13681300  0.14308600  1
  Pb  Pb4  1  0.26755600  0.95821300  0.51737600  1
  Pb  Pb5  1  0.73244400  0.45821300  0.98262400  1
  Pb  Pb6  1  0.73244400  0.04178700  0.48262400  1
  Pb  Pb7  1  0.26755600  0.54178700  0.01737600  1
  Pb  Pb8  1  0.35804900  0.15220800  0.86506600  1
  Pb  Pb9  1  0.64195100  0.65220800  0.63493400  1
  Pb  Pb10  1  0.64195100  0.84779200  0.13493400  1
  Pb  Pb11  1  0.35804900  0.34779100  0.36506600  1
  I  I0  1  0.01610200  0.24593500  0.85839600  1
  I  I1  1  0.98389800  0.74593500  0.64160400  1
  I  I2  1  0.98389800  0.75406500  0.14160400  1
  I  I3  1  0.01610200  0.25406500  0.35839600  1
  I  I4  1  0.49205600  0.26547000  0.65192400  1
  I  I5  1  0.50794400  0.76547000  0.84807600  1
  I  I6  1  0.50794400  0.73453000  0.34807600  1
  I  I7  1  0.49205600  0.23453000  0.15192400  1
  O  O0  1  0.07108200  0.20388500  0.51038900  1
  O  O1  1  0.92891800  0.70388500  0.98961100  1
  O  O2  1  0.92891800  0.79611500  0.48961100  1
  O  O3  1  0.07108200  0.29611500  0.01038900  1
  O  O4  1  0.01610000  0.72154100  0.79462800  1
  O  O5  1  0.98390000  0.22154100  0.70537200  1
  O  O6  1  0.98390000  0.27845900  0.20537200  1
  O  O7  1  0.01610000  0.77845900  0.29462800  1
  O  O8  1  0.14338400  0.07615400  0.88420300  1
  O  O9  1  0.85661600  0.57615400  0.61579700  1
  O  O10  1  0.85661600  0.92384600  0.11579700  1
  O  O11  1  0.14338400  0.42384600  0.38420300  1
  O  O12  1  0.10553800  0.90722900  0.64659200  1
  O  O13  1  0.89446200  0.40722900  0.85340800  1
  O  O14  1  0.89446200  0.09277100  0.35340800  1
  O  O15  1  0.10553800  0.59277100  0.14659200  1
  O  O16  1  0.13015800  0.60749500  0.61948500  1
  O  O17  1  0.86984200  0.10749500  0.88051500  1
  O  O18  1  0.86984200  0.39250600  0.38051500  1
  O  O19  1  0.13015800  0.89250500  0.11948500  1
  O  O20  1  0.18715900  0.36362900  0.83190700  1
  O  O21  1  0.81284100  0.86362900  0.66809300  1
  O  O22  1  0.81284100  0.63637100  0.16809300  1
  O  O23  1  0.18715900  0.13637100  0.33190700  1
  O  O24  1  0.32207200  0.14530800  0.67948700  1
  O  O25  1  0.67792800  0.64530800  0.82051300  1
  O  O26  1  0.67792800  0.85469200  0.32051300  1
  O  O27  1  0.32207200  0.35469200  0.17948700  1
  O  O28  1  0.35635800  0.42800300  0.61603200  1
  O  O29  1  0.64364200  0.92800300  0.88396800  1
  O  O30  1  0.64364200  0.57199700  0.38396800  1
  O  O31  1  0.35635800  0.07199700  0.11603200  1
  O  O32  1  0.43978000  0.20070300  0.50026500  1
  O  O33  1  0.56022000  0.70070300  0.99973500  1
  O  O34  1  0.56022000  0.79929700  0.49973500  1
  O  O35  1  0.43978000  0.29929700  0.00026500  1
  O  O36  1  0.51818000  0.30100800  0.80358900  1
  O  O37  1  0.48182000  0.80100800  0.69641100  1
  O  O38  1  0.48182000  0.69899200  0.19641100  1
  O  O39  1  0.51818000  0.19899200  0.30358900  1
  O  O40  1  0.61672100  0.10922100  0.65933200  1
  O  O41  1  0.38327900  0.60922100  0.84066800  1
  O  O42  1  0.38327900  0.89077900  0.34066800  1
  O  O43  1  0.61672100  0.39077900  0.15933200  1
  O  O44  1  0.62991000  0.40719400  0.62164600  1
  O  O45  1  0.37009000  0.90719400  0.87835400  1
  O  O46  1  0.37009000  0.59280600  0.37835400  1
  O  O47  1  0.62991000  0.09280600  0.12164600  1
loop_
_geom_bond_atom_site_label_1
_geom_bond_atom_site_label_2
_geom_bond_distance
_geom_bond_site_symmetry_2
I0 O13 1.827500 1_455
I0 O17 1.902536 1_455
I0 O5 1.915032 1_455
I0 O8 1.920281 1_555
I0 O3 1.954379 1_556
I0 O20 1.999964 1_555
I1 O12 1.827500 1_655
I1 O16 1.902536 1_655
I1 O4 1.915032 1_655
I1 O9 1.920281 1_555
I1 O2 1.954379 1_555
I1 O21 1.999964 1_555
I2 O15 1.827500 1_655
I2 O19 1.902536 1_655
I2 O7 1.915032 1_655
I2 O10 1.920281 1_555
I2 O1 1.954379 1_554
I2 O22 1.999964 1_555
I3 O14 1.827500 1_455
I3 O18 1.902541 1_455
I3 O6 1.915032 1_455
I3 O11 1.920281 1_555
I3 O0 1.954379 1_555
I3 O23 1.999964 1_555
I4 O40 1.809896 1_555
I4 O44 1.891465 1_555
I4 O36 1.912404 1_555
I4 O28 1.934017 1_555
I4 O32 1.980754 1_555
I4 O24 2.006804 1_555
I5 O41 1.809896 1_555
I5 O45 1.891465 1_555
I5 O37 1.912404 1_555
I5 O29 1.934017 1_555
I5 O33 1.980754 1_555
I5 O25 2.006804 1_555
I6 O42 1.809896 1_555
I6 O46 1.891465 1_555
I6 O38 1.912404 1_555
I6 O30 1.934017 1_555
I6 O34 1.980754 1_555
I6 O26 2.006804 1_555
I7 O43 1.809896 1_555
I7 O47 1.891465 1_555
I7 O39 1.912404 1_555
I7 O31 1.934017 1_555
I7 O35 1.980754 1_555
I7 O27 2.006804 1_555
O0 Pb0 2.206461 1_555
O0 Pb4 2.852089 1_545
O1 Pb1 2.206461 1_555
O1 Pb5 2.852089 1_555
O2 Pb2 2.206461 1_555
O2 Pb6 2.852089 1_565
O3 Pb3 2.206461 1_555
O3 Pb7 2.852089 1_555
O4 Pb1 2.191297 1_455
O5 Pb0 2.191297 1_655
O6 Pb3 2.191297 1_655
O7 Pb2 2.191297 1_455
O8 Pb8 2.196612 1_555
O9 Pb9 2.196612 1_555
O10 Pb10 2.196612 1_555
O11 Pb11 2.196614 1_555
O12 Pb4 2.448336 1_555
O13 Pb5 2.448336 1_555
O14 Pb6 2.448336 1_555
O15 Pb7 2.448336 1_555
O16 Pb0 2.174065 1_555
O17 Pb1 2.174065 1_545
O18 Pb2 2.174057 1_555
O19 Pb3 2.174065 1_565
O20 Pb0 2.348842 1_555
O20 Pb8 2.465039 1_555
O20 Pb7 2.819143 1_556
O21 Pb1 2.348842 1_555
O21 Pb9 2.465039 1_555
O21 Pb6 2.819143 1_565
O22 Pb2 2.348842 1_555
O22 Pb10 2.465039 1_555
O22 Pb5 2.819143 1_554
O23 Pb3 2.348842 1_555
O23 Pb11 2.465033 1_555
O23 Pb4 2.819143 1_545
O24 Pb8 2.308619 1_555
O24 Pb0 2.565333 1_555
O24 Pb4 2.612256 1_545
O25 Pb9 2.308619 1_555
O25 Pb1 2.565333 1_555
O25 Pb5 2.612256 1_555
O26 Pb10 2.308619 1_555
O26 Pb2 2.565333 1_555
O26 Pb6 2.612256 1_565
O27 Pb11 2.308619 1_555
O27 Pb3 2.565333 1_555
O27 Pb7 2.612256 1_555
O28 Pb0 2.191876 1_555
O29 Pb1 2.191876 1_555
O30 Pb2 2.191876 1_555
O31 Pb3 2.191876 1_555
O32 Pb11 2.184334 1_555
O32 Pb4 2.721008 1_545
O33 Pb10 2.184339 1_556
O33 Pb5 2.721008 1_555
O34 Pb9 2.184339 1_555
O34 Pb6 2.721008 1_565
O35 Pb8 2.184339 1_554
O35 Pb7 2.721008 1_555
O36 Pb8 2.236212 1_555
O37 Pb9 2.236212 1_555
O38 Pb10 2.236212 1_555
O39 Pb11 2.236207 1_555
O40 Pb6 2.695725 1_555
O41 Pb7 2.695725 1_556
O42 Pb4 2.695725 1_555
O43 Pb5 2.695725 1_554
O44 Pb9 2.167433 1_555
O45 Pb8 2.167433 1_565
O46 Pb11 2.167442 1_555
O47 Pb10 2.167433 1_545
