# generated using pymatgen
data_Cr3N2
_symmetry_space_group_name_H-M   'P 1'
_cell_length_a   5.46976547
_cell_length_b   5.46976547
_cell_length_c   5.46976545
_cell_angle_alpha   50.54987952
_cell_angle_beta   50.54987952
_cell_angle_gamma   50.54988701
_symmetry_Int_Tables_number   1
_chemical_formula_structural   Cr3N2
_chemical_formula_sum   'Cr6 N4'
_cell_volume   89.90959133
_cell_formula_units_Z   2
loop_
 _symmetry_equiv_pos_site_id
 _symmetry_equiv_pos_as_xyz
  1  'x, y, z'
loop_
 _atom_site_type_symbol
 _atom_site_label
 _atom_site_symmetry_multiplicity
 _atom_site_fract_x
 _atom_site_fract_y
 _atom_site_fract_z
 _atom_site_occupancy
  Cr  Cr0  1  0.75000000  0.42414719  0.07585281  1
  Cr  Cr1  1  0.07585281  0.75000000  0.42414719  1
  Cr  Cr2  1  0.42414719  0.07585281  0.75000000  1
  Cr  Cr3  1  0.57585281  0.92414719  0.25000000  1
  Cr  Cr4  1  0.25000000  0.57585281  0.92414719  1
  Cr  Cr5  1  0.92414719  0.25000000  0.57585281  1
  N  N0  1  0.34047965  0.34047965  0.34047965  1
  N  N1  1  0.84047965  0.84047965  0.84047965  1
  N  N2  1  0.65952035  0.65952035  0.65952035  1
  N  N3  1  0.15952035  0.15952035  0.15952035  1
loop_
_geom_bond_atom_site_label_1
_geom_bond_atom_site_label_2
_geom_bond_distance
_geom_bond_site_symmetry_2
Cr0 N0 1.913811 1_555
Cr0 N3 1.913812 1_655
Cr0 N1 1.996244 1_554
Cr0 N2 1.996244 1_554
Cr1 N3 1.913811 1_565
Cr1 N0 1.913812 1_555
Cr1 N2 1.996244 1_455
Cr1 N1 1.996244 1_455
Cr2 N0 1.913812 1_555
Cr2 N3 1.913812 1_556
Cr2 N2 1.996245 1_545
Cr2 N1 1.996245 1_545
Cr3 N1 1.913812 1_554
Cr3 N2 1.913812 1_555
Cr3 N3 1.996245 1_565
Cr3 N0 1.996245 1_565
Cr4 N2 1.913811 1_555
Cr4 N1 1.913812 1_455
Cr4 N3 1.996244 1_556
Cr4 N0 1.996244 1_556
Cr5 N1 1.913811 1_545
Cr5 N2 1.913812 1_555
Cr5 N0 1.996244 1_655
Cr5 N3 1.996244 1_655
