# generated using pymatgen
data_TiNb2O7
_symmetry_space_group_name_H-M   'P 1'
_cell_length_a   10.53557562
_cell_length_b   10.53557562
_cell_length_c   11.99270759
_cell_angle_alpha   59.86168251
_cell_angle_beta   59.86168251
_cell_angle_gamma   21.00336735
_symmetry_Int_Tables_number   1
_chemical_formula_structural   TiNb2O7
_chemical_formula_sum   'Ti3 Nb6 O21'
_cell_volume   410.22615243
_cell_formula_units_Z   3
loop_
 _symmetry_equiv_pos_site_id
 _symmetry_equiv_pos_as_xyz
  1  'x, y, z'
loop_
 _atom_site_type_symbol
 _atom_site_label
 _atom_site_symmetry_multiplicity
 _atom_site_fract_x
 _atom_site_fract_y
 _atom_site_fract_z
 _atom_site_occupancy
  Ti  Ti0  1  0.70595881  0.70595881  0.36112382  1
  Ti  Ti1  1  0.30188075  0.30188075  0.63501546  1
  Ti  Ti2  1  0.92273728  0.92273728  0.63217661  1
  Nb  Nb0  1  0.81718793  0.81718793  0.99587503  1
  Nb  Nb1  1  0.18409389  0.18409389  0.99556482  1
  Nb  Nb2  1  0.12064415  0.12064415  0.62437185  1
  Nb  Nb3  1  0.88292630  0.88292630  0.37270156  1
  Nb  Nb4  1  -0.00008250  -0.00008250  0.99590924  1
  Nb  Nb5  1  0.07477104  0.07477104  0.37192923  1
  O  O0  1  0.94980507  0.94980507  0.19833871  1
  O  O1  1  0.05050984  0.05050984  0.80238346  1
  O  O2  1  0.62941120  0.62941120  0.57531771  1
  O  O3  1  0.37065971  0.37065971  0.42382797  1
  O  O4  1  0.28970716  0.28970716  0.00321544  1
  O  O5  1  0.70812373  0.70812373  0.99943911  1
  O  O6  1  0.09911839  0.09911839  0.98487041  1
  O  O7  1  0.89960730  0.89960730  0.01667135  1
  O  O8  1  0.74935273  0.74935273  0.19276320  1
  O  O9  1  0.24994502  0.24994502  0.80736380  1
  O  O10  1  0.82666967  0.82666967  0.59740867  1
  O  O11  1  0.17376086  0.17376086  0.40356638  1
  O  O12  1  0.97321010  0.97321010  0.41908742  1
  O  O13  1  0.02269534  0.02269534  0.58149278  1
  O  O14  1  0.12431663  0.12431663  0.19079120  1
  O  O15  1  0.87399982  0.87399982  0.80989735  1
  O  O16  1  0.40152741  0.40152741  0.62454836  1
  O  O17  1  0.59808126  0.59808126  0.37770140  1
  O  O18  1  0.49851808  0.49851808  0.00680111  1
  O  O19  1  0.21111153  0.21111153  0.62090130  1
  O  O20  1  0.78975050  0.78975050  0.37894226  1
loop_
_geom_bond_atom_site_label_1
_geom_bond_atom_site_label_2
_geom_bond_distance
_geom_bond_site_symmetry_2
Nb0 O7 1.847425 1_556
Nb0 O15 1.918040 1_555
Nb0 O4 1.992015 1_566
Nb0 O4 1.992015 1_656
Nb0 O8 2.039959 1_556
Nb0 O5 2.238089 1_555
Nb1 O6 1.829358 1_555
Nb1 O9 1.952108 1_555
Nb1 O5 1.990237 1_545
Nb1 O5 1.990237 1_455
Nb1 O14 2.013485 1_556
Nb1 O4 2.236361 1_556
Nb2 O19 1.853413 1_555
Nb2 O1 1.871055 1_555
Nb2 O2 1.989309 1_545
Nb2 O2 1.989309 1_455
Nb2 O11 2.290653 1_555
Nb2 O13 2.334171 1_555
Nb3 O0 1.825772 1_555
Nb3 O20 1.893311 1_555
Nb3 O3 1.992183 1_565
Nb3 O3 1.992183 1_655
Nb3 O12 2.207034 1_555
Nb3 O10 2.326559 1_555
Nb4 O18 1.923912 1_546
Nb4 O18 1.923912 1_456
Nb4 O7 1.962810 1_446
Nb4 O6 1.990919 1_555
Nb4 O1 2.000187 1_555
Nb4 O0 2.096997 1_446
Nb5 O14 1.869593 1_555
Nb5 O12 1.879360 1_445
Nb5 O17 1.989867 1_545
Nb5 O17 1.989867 1_455
Nb5 O13 2.170512 1_555
Nb5 O11 2.268218 1_555
O2 Ti0 2.225563 1_555
O3 Ti1 2.181583 1_555
O8 Ti0 1.741019 1_555
O9 Ti1 1.777245 1_555
O10 Ti1 1.979398 1_565
O10 Ti1 1.979398 1_655
O10 Ti2 2.232242 1_555
O11 Ti0 2.011146 1_455
O11 Ti0 2.011146 1_545
O12 Ti2 2.212457 1_555
O13 Ti2 1.836494 1_445
O15 Ti2 1.834207 1_555
O16 Ti2 1.982404 1_545
O16 Ti2 1.982404 1_455
O16 Ti1 2.003308 1_555
O17 Ti0 2.140344 1_555
O19 Ti1 1.972386 1_555
O20 Ti0 1.854258 1_555
