# generated using pymatgen
data_Sc(CO2)3
_symmetry_space_group_name_H-M   'P 1'
_cell_length_a   6.78402400
_cell_length_b   9.28684300
_cell_length_c   10.57643827
_cell_angle_alpha   80.80465103
_cell_angle_beta   90.00000000
_cell_angle_gamma   90.00000000
_symmetry_Int_Tables_number   1
_chemical_formula_structural   Sc(CO2)3
_chemical_formula_sum   'Sc4 C12 O24'
_cell_volume   657.77556105
_cell_formula_units_Z   4
loop_
 _symmetry_equiv_pos_site_id
 _symmetry_equiv_pos_as_xyz
  1  'x, y, z'
loop_
 _atom_site_type_symbol
 _atom_site_label
 _atom_site_symmetry_multiplicity
 _atom_site_fract_x
 _atom_site_fract_y
 _atom_site_fract_z
 _atom_site_occupancy
  Sc  Sc0  1  0.50000000  0.50000000  0.00000000  1
  Sc  Sc1  1  0.00000000  0.00000000  0.00000000  1
  Sc  Sc2  1  0.00000000  0.50000000  0.50000000  1
  Sc  Sc3  1  0.50000000  0.00000000  0.50000000  1
  C  C0  1  0.59757800  0.84460900  0.93686200  1
  C  C1  1  0.09757800  0.65539100  0.06313800  1
  C  C2  1  0.40242200  0.15539100  0.06313800  1
  C  C3  1  0.90242200  0.34460900  0.93686200  1
  C  C4  1  0.69789900  0.41848600  0.28640500  1
  C  C5  1  0.19789900  0.08151400  0.71359500  1
  C  C6  1  0.30210100  0.58151400  0.71359500  1
  C  C7  1  0.80210100  0.91848600  0.28640500  1
  C  C8  1  0.71375700  0.24860200  0.63967200  1
  C  C9  1  0.21375700  0.25139800  0.36032800  1
  C  C10  1  0.28624300  0.75139800  0.36032800  1
  C  C11  1  0.78624300  0.74860200  0.63967200  1
  O  O0  1  0.60274300  0.71597200  0.99358500  1
  O  O1  1  0.10274300  0.78402800  0.00641500  1
  O  O2  1  0.39725700  0.28402800  0.00641500  1
  O  O3  1  0.89725700  0.21597200  0.99358500  1
  O  O4  1  0.58644300  0.45506600  0.19379300  1
  O  O5  1  0.08644300  0.04493400  0.80620700  1
  O  O6  1  0.41355700  0.54493400  0.80620700  1
  O  O7  1  0.91355700  0.95506600  0.19379300  1
  O  O8  1  0.71485100  0.94802300  0.93528200  1
  O  O9  1  0.21485100  0.55197700  0.06471800  1
  O  O10  1  0.28514900  0.05197700  0.06471800  1
  O  O11  1  0.78514900  0.44802300  0.93528200  1
  O  O12  1  0.78654700  0.49253100  0.35731600  1
  O  O13  1  0.28654700  0.00746900  0.64268400  1
  O  O14  1  0.21345300  0.50746900  0.64268400  1
  O  O15  1  0.71345300  0.99253100  0.35731600  1
  O  O16  1  0.82669200  0.35504200  0.63284200  1
  O  O17  1  0.32669200  0.14495800  0.36715800  1
  O  O18  1  0.17330800  0.64495800  0.36715800  1
  O  O19  1  0.67330800  0.85504200  0.63284200  1
  O  O20  1  0.65216600  0.17794300  0.55654500  1
  O  O21  1  0.15216600  0.32205700  0.44345500  1
  O  O22  1  0.34783400  0.82205700  0.44345500  1
  O  O23  1  0.84783400  0.67794300  0.55654500  1
loop_
_geom_bond_atom_site_label_1
_geom_bond_atom_site_label_2
_geom_bond_distance
_geom_bond_site_symmetry_2
C0 O8 1.245171 1_555
C0 O0 1.248691 1_555
C1 O9 1.245171 1_555
C1 O1 1.248691 1_555
C2 O10 1.245171 1_555
C2 O2 1.248691 1_555
C3 O11 1.245171 1_555
C3 O3 1.248691 1_555
C4 O4 1.241050 1_555
C4 O12 1.249732 1_555
C5 O5 1.241050 1_555
C5 O13 1.249732 1_555
C6 O6 1.241050 1_555
C6 O14 1.249732 1_555
C7 O7 1.241050 1_555
C7 O15 1.249732 1_555
C8 O16 1.243585 1_555
C8 O20 1.250016 1_555
C9 O17 1.243585 1_555
C9 O21 1.250016 1_555
C10 O18 1.243585 1_555
C10 O22 1.250016 1_555
C11 O19 1.243585 1_555
C11 O23 1.250016 1_555
O0 Sc0 2.114181 1_556
O1 Sc1 2.114181 1_565
O2 Sc0 2.114181 1_555
O3 Sc1 2.114181 1_656
O4 Sc0 2.108484 1_555
O5 Sc1 2.108484 1_556
O6 Sc0 2.108484 1_556
O7 Sc1 2.108484 1_665
O8 Sc1 2.132896 1_666
O9 Sc0 2.132896 1_555
O10 Sc1 2.132896 1_555
O11 Sc0 2.132896 1_556
O12 Sc2 2.100600 1_655
O13 Sc3 2.100600 1_555
O14 Sc2 2.100600 1_555
O15 Sc3 2.100600 1_565
O16 Sc2 2.136377 1_655
O17 Sc3 2.136377 1_555
O18 Sc2 2.136377 1_555
O19 Sc3 2.136377 1_565
O20 Sc3 2.114239 1_555
O21 Sc2 2.114239 1_555
O22 Sc3 2.114239 1_565
O23 Sc2 2.114239 1_655
