# generated using pymatgen
data_Mg3Si4
_symmetry_space_group_name_H-M   'P 1'
_cell_length_a   5.39975900
_cell_length_b   7.05967890
_cell_length_c   7.76204644
_cell_angle_alpha   113.37960579
_cell_angle_beta   90.64489361
_cell_angle_gamma   102.43595504
_symmetry_Int_Tables_number   1
_chemical_formula_structural   Mg3Si4
_chemical_formula_sum   'Mg6 Si8'
_cell_volume   263.67884599
_cell_formula_units_Z   2
loop_
 _symmetry_equiv_pos_site_id
 _symmetry_equiv_pos_as_xyz
  1  'x, y, z'
loop_
 _atom_site_type_symbol
 _atom_site_label
 _atom_site_symmetry_multiplicity
 _atom_site_fract_x
 _atom_site_fract_y
 _atom_site_fract_z
 _atom_site_occupancy
  Mg  Mg0  1  0.79871800  0.60421500  0.40326300  1
  Mg  Mg1  1  0.44783500  0.87356200  0.65168300  1
  Mg  Mg2  1  0.41735000  0.30344500  0.95655900  1
  Mg  Mg3  1  0.77963700  0.69748400  0.90700500  1
  Mg  Mg4  1  0.12853600  0.98833900  0.37588700  1
  Mg  Mg5  1  0.90716500  0.17877700  0.12196400  1
  Si  Si0  1  0.84941500  0.29241700  0.77252200  1
  Si  Si1  1  0.24772800  0.55417600  0.80882300  1
  Si  Si2  1  0.26686600  0.57395200  0.26837900  1
  Si  Si3  1  0.60099800  0.87571900  0.26588200  1
  Si  Si4  1  0.97494300  0.97437500  0.72908400  1
  Si  Si5  1  0.66975200  0.24395100  0.46952700  1
  Si  Si6  1  0.31623200  0.41448900  0.48599900  1
  Si  Si7  1  0.34153800  0.92533000  0.03006300  1
loop_
_geom_bond_atom_site_label_1
_geom_bond_atom_site_label_2
_geom_bond_distance
_geom_bond_site_symmetry_2
Mg0 Si5 2.738899 1_555
Mg0 Si2 2.765262 1_655
Mg0 Si4 2.785698 1_555
Mg0 Si6 2.865562 1_555
Mg0 Si3 2.903225 1_555
Mg0 Si2 2.979931 1_555
Mg0 Mg5 3.116534 1_555
Mg1 Si4 2.778191 1_555
Mg1 Si4 2.804596 1_455
Mg1 Si2 2.886284 1_555
Mg1 Si6 2.888256 1_555
Mg1 Si7 2.892304 1_556
Mg1 Si1 2.983665 1_555
Mg1 Si0 3.052378 1_565
Mg1 Si3 3.120643 1_555
Mg2 Si2 2.685077 1_556
Mg2 Si0 2.748596 1_555
Mg2 Si1 2.751846 1_555
Mg2 Si7 2.891705 1_546
Mg2 Si4 2.912166 1_445
Mg2 Mg5 3.153479 1_456
Mg2 Mg5 3.352803 1_556
Mg3 Si0 2.740987 1_555
Mg3 Si1 2.817988 1_555
Mg3 Si3 2.841632 1_556
Mg3 Si4 2.850955 1_555
Mg3 Si1 2.919899 1_655
Mg3 Mg5 3.044679 1_566
Mg3 Si7 3.052711 1_656
Mg3 Si7 3.092938 1_556
Mg4 Si6 2.726757 1_565
Mg4 Si3 2.811873 1_455
Mg4 Si7 2.840497 1_555
Mg4 Si3 2.872905 1_555
Mg4 Si4 2.905860 1_455
Mg4 Si2 2.971564 1_555
Mg4 Si5 2.994191 1_565
Mg4 Mg5 3.140570 1_465
Mg5 Si2 2.819108 1_655
Mg5 Si4 2.876826 1_544
Mg5 Si5 2.912052 1_555
Mg5 Si3 2.995579 1_545
Mg5 Si7 3.102102 1_545
Mg5 Si0 3.148588 1_554
Mg5 Si7 3.169213 1_645
Mg5 Si6 3.190164 1_655
Si0 Si4 2.382055 1_545
Si0 Si5 2.399275 1_555
Si0 Si1 2.445705 1_655
Si1 Si6 2.367500 1_555
Si1 Si7 2.430817 1_556
Si2 Si6 2.412469 1_555
Si2 Si3 2.484398 1_555
Si3 Si5 2.388359 1_565
Si3 Si7 2.469501 1_555
Si5 Si6 2.446014 1_555
