# generated using pymatgen
data_Ba(SbPd)2
_symmetry_space_group_name_H-M   'P 1'
_cell_length_a   4.77401363
_cell_length_b   4.77401363
_cell_length_c   10.80711866
_cell_angle_alpha   90.00000000
_cell_angle_beta   90.00000000
_cell_angle_gamma   90.00000000
_symmetry_Int_Tables_number   1
_chemical_formula_structural   Ba(SbPd)2
_chemical_formula_sum   'Ba2 Sb4 Pd4'
_cell_volume   246.30726915
_cell_formula_units_Z   2
loop_
 _symmetry_equiv_pos_site_id
 _symmetry_equiv_pos_as_xyz
  1  'x, y, z'
loop_
 _atom_site_type_symbol
 _atom_site_label
 _atom_site_symmetry_multiplicity
 _atom_site_fract_x
 _atom_site_fract_y
 _atom_site_fract_z
 _atom_site_occupancy
  Ba  Ba0  1  0.75000000  0.75000000  0.24427675  1
  Ba  Ba1  1  0.25000000  0.25000000  0.75572325  1
  Sb  Sb0  1  0.75000000  0.25000000  0.50000000  1
  Sb  Sb1  1  0.25000000  0.75000000  0.50000000  1
  Sb  Sb2  1  0.75000000  0.75000000  0.87732792  1
  Sb  Sb3  1  0.25000000  0.25000000  0.12267208  1
  Pd  Pd0  1  0.75000000  0.25000000  -0.00000000  1
  Pd  Pd1  1  0.25000000  0.75000000  -0.00000000  1
  Pd  Pd2  1  0.75000000  0.75000000  0.62241145  1
  Pd  Pd3  1  0.25000000  0.25000000  0.37758855  1
loop_
_geom_bond_atom_site_label_1
_geom_bond_atom_site_label_2
_geom_bond_distance
_geom_bond_site_symmetry_2
Ba0 Pd1 3.559076 1_555
Ba0 Pd1 3.559076 1_655
Ba0 Pd0 3.559076 1_555
Ba0 Pd0 3.559076 1_565
Ba0 Sb3 3.622529 1_665
Ba0 Sb3 3.622529 1_565
Ba0 Sb3 3.622529 1_655
Ba0 Sb3 3.622529 1_555
Ba0 Sb1 3.651775 1_555
Ba0 Sb0 3.651775 1_565
Ba0 Sb1 3.651775 1_655
Ba0 Sb0 3.651775 1_555
Ba0 Pd3 3.670322 1_555
Ba0 Pd3 3.670322 1_565
Ba0 Pd3 3.670322 1_655
Ba0 Pd3 3.670322 1_665
Ba1 Pd1 3.559076 1_546
Ba1 Pd0 3.559076 1_556
Ba1 Pd1 3.559076 1_556
Ba1 Pd0 3.559076 1_456
Ba1 Sb2 3.622529 1_545
Ba1 Sb2 3.622529 1_445
Ba1 Sb2 3.622529 1_455
Ba1 Sb2 3.622529 1_555
Ba1 Sb1 3.651775 1_545
Ba1 Sb0 3.651775 1_455
Ba1 Sb0 3.651775 1_555
Ba1 Sb1 3.651775 1_555
Ba1 Pd2 3.670322 1_555
Ba1 Pd2 3.670322 1_445
Ba1 Pd2 3.670322 1_455
Ba1 Pd2 3.670322 1_545
Pd0 Sb2 2.730452 1_544
Pd0 Sb2 2.730452 1_554
Pd0 Sb3 2.730452 1_655
Pd0 Sb3 2.730452 1_555
Pd1 Sb2 2.730452 1_454
Pd1 Sb2 2.730452 1_554
Pd1 Sb3 2.730452 1_565
Pd1 Sb3 2.730452 1_555
Pd2 Sb1 2.729085 1_655
Pd2 Sb0 2.729085 1_555
Pd2 Sb0 2.729085 1_565
Pd2 Sb1 2.729085 1_555
Pd2 Sb2 2.754913 1_555
Pd3 Sb0 2.729085 1_555
Pd3 Sb1 2.729085 1_545
Pd3 Sb1 2.729085 1_555
Pd3 Sb0 2.729085 1_455
Pd3 Sb3 2.754913 1_555
