# generated using pymatgen
data_TiCrSi4
_symmetry_space_group_name_H-M   'P 1'
_cell_length_a   12.82295300
_cell_length_b   4.59633700
_cell_length_c   4.61425417
_cell_angle_alpha   60.42956155
_cell_angle_beta   90.00000000
_cell_angle_gamma   90.00000000
_symmetry_Int_Tables_number   1
_chemical_formula_structural   TiCrSi4
_chemical_formula_sum   'Ti3 Cr3 Si12'
_cell_volume   236.53515416
_cell_formula_units_Z   3
loop_
 _symmetry_equiv_pos_site_id
 _symmetry_equiv_pos_as_xyz
  1  'x, y, z'
loop_
 _atom_site_type_symbol
 _atom_site_label
 _atom_site_symmetry_multiplicity
 _atom_site_fract_x
 _atom_site_fract_y
 _atom_site_fract_z
 _atom_site_occupancy
  Ti  Ti0  1  0.24910800  0.00000000  0.50000000  1
  Ti  Ti1  1  0.58522900  0.50000000  0.50000000  1
  Ti  Ti2  1  0.08238000  0.50000000  0.50000000  1
  Cr  Cr0  1  0.91506600  0.50000000  0.00000000  1
  Cr  Cr1  1  0.41902300  0.50000000  0.00000000  1
  Cr  Cr2  1  0.74958900  0.00000000  0.50000000  1
  Si  Si0  1  0.91374300  0.84115200  0.33047400  1
  Si  Si1  1  0.41765100  0.83504900  0.32941200  1
  Si  Si2  1  0.75205400  0.32834400  0.84215000  1
  Si  Si3  1  0.25276600  0.32116600  0.84269900  1
  Si  Si4  1  0.58390900  0.84080300  0.83778700  1
  Si  Si5  1  0.07967900  0.83509800  0.84341900  1
  Si  Si6  1  0.91374300  0.15884800  0.66952600  1
  Si  Si7  1  0.41765100  0.16495100  0.67058800  1
  Si  Si8  1  0.75205400  0.67165600  0.15785000  1
  Si  Si9  1  0.25276600  0.67883400  0.15730100  1
  Si  Si10  1  0.58390900  0.15919700  0.16221300  1
  Si  Si11  1  0.07967900  0.16490200  0.15658100  1
loop_
_geom_bond_atom_site_label_1
_geom_bond_atom_site_label_2
_geom_bond_distance
_geom_bond_site_symmetry_2
Cr0 Si8 2.467698 1_555
Cr0 Si2 2.467698 1_554
Cr0 Si5 2.500309 1_654
Cr0 Si11 2.500309 1_655
Cr0 Si6 2.634083 1_564
Cr0 Si0 2.634083 1_545
Cr0 Si0 2.672891 1_555
Cr0 Si6 2.672891 1_554
Cr0 Si6 2.687378 1_555
Cr0 Si0 2.687378 1_554
Cr1 Si10 2.515383 1_555
Cr1 Si4 2.515383 1_554
Cr1 Si9 2.517211 1_555
Cr1 Si3 2.517211 1_554
Cr1 Si1 2.644352 1_555
Cr1 Si7 2.644352 1_554
Cr1 Si7 2.658334 1_564
Cr1 Si1 2.658334 1_545
Cr1 Si7 2.691324 1_555
Cr1 Si1 2.691324 1_554
Cr2 Si6 2.477787 1_555
Cr2 Si0 2.477787 1_545
Cr2 Si4 2.520445 1_545
Cr2 Si10 2.520445 1_555
Cr2 Si2 2.640327 1_554
Cr2 Si8 2.640327 1_546
Cr2 Si2 2.668851 1_555
Cr2 Si8 2.668851 1_545
Cr2 Si8 2.685809 1_555
Cr2 Si2 2.685809 1_545
Si0 Si8 2.480437 1_555
Si0 Si11 2.491422 1_665
Si0 Ti2 2.556585 1_655
Si0 Si6 2.614314 1_565
Si0 Si6 2.652925 1_564
Si0 Si6 2.727673 1_555
Si1 Si9 2.485833 1_555
Si1 Si10 2.495111 1_565
Si1 Ti1 2.532252 1_555
Si1 Ti0 2.540530 1_565
Si1 Si7 2.644072 1_564
Si1 Si7 2.670897 1_565
Si1 Si7 2.679376 1_555
Si2 Si6 2.480437 1_555
Si2 Ti1 2.541991 1_555
Si2 Si8 2.623129 1_556
Si2 Si8 2.625422 1_546
Si2 Si8 2.746335 1_555
Si3 Si7 2.485833 1_555
Si3 Si9 2.567832 1_546
Si3 Ti2 2.582026 1_555
Si3 Ti0 2.638408 1_556
Si3 Ti0 2.643058 1_555
Si3 Si9 2.676811 1_556
Si3 Ti0 2.714472 1_565
Si3 Si9 2.751930 1_555
Si4 Si7 2.495111 1_565
Si4 Si8 2.510203 1_556
Si4 Ti1 2.636064 1_565
Si4 Ti1 2.658322 1_556
Si4 Ti1 2.700579 1_555
Si5 Si6 2.491422 1_465
Si5 Si9 2.552046 1_556
Si5 Ti0 2.572972 1_565
Si5 Ti2 2.635635 1_556
Si5 Ti2 2.659379 1_565
Si5 Ti2 2.700635 1_555
Si6 Ti2 2.556585 1_655
Si7 Ti1 2.532252 1_555
Si7 Ti0 2.540530 1_555
Si8 Ti1 2.541991 1_555
Si9 Ti2 2.582026 1_555
Si9 Ti0 2.638408 1_564
Si9 Ti0 2.643058 1_565
Si9 Ti0 2.714472 1_555
Si10 Si2 2.510203 1_554
Si10 Si4 2.558297 1_544
Si10 Ti1 2.636064 1_545
Si10 Ti1 2.658322 1_554
Si10 Ti1 2.700579 1_555
Si10 Si4 2.712279 1_545
Si10 Si4 2.725273 1_554
Si11 Si3 2.552046 1_554
Si11 Si5 2.558895 1_544
Si11 Ti0 2.572972 1_555
Si11 Ti2 2.635635 1_554
Si11 Ti2 2.659379 1_545
Si11 Si5 2.680272 1_554
Si11 Ti2 2.700635 1_555
Si11 Si5 2.756870 1_545
