# generated using pymatgen
data_TiMn3Co2(PO4)6
_symmetry_space_group_name_H-M   'P 1'
_cell_length_a   8.50356217
_cell_length_b   8.50356217
_cell_length_c   8.50356192
_cell_angle_alpha   61.23213032
_cell_angle_beta   61.23213032
_cell_angle_gamma   61.23213919
_symmetry_Int_Tables_number   1
_chemical_formula_structural   TiMn3Co2(PO4)6
_chemical_formula_sum   'Ti1 Mn3 Co2 P6 O24'
_cell_volume   446.84625966
_cell_formula_units_Z   1
loop_
 _symmetry_equiv_pos_site_id
 _symmetry_equiv_pos_as_xyz
  1  'x, y, z'
loop_
 _atom_site_type_symbol
 _atom_site_label
 _atom_site_symmetry_multiplicity
 _atom_site_fract_x
 _atom_site_fract_y
 _atom_site_fract_z
 _atom_site_occupancy
  Ti  Ti0  1  0.85639800  0.85639800  0.85639800  1
  Mn  Mn0  1  0.14388100  0.14388100  0.14388100  1
  Mn  Mn1  1  0.35721800  0.35721800  0.35721800  1
  Mn  Mn2  1  0.64329900  0.64329900  0.64329900  1
  Co  Co0  1  0.00002500  0.00002500  0.00002500  1
  Co  Co1  1  0.50109600  0.50109600  0.50109600  1
  P  P0  1  0.95547100  0.54497300  0.25071500  1
  P  P1  1  0.25071500  0.95547100  0.54497300  1
  P  P2  1  0.54497300  0.25071500  0.95547100  1
  P  P3  1  0.45304500  0.75044100  0.04539700  1
  P  P4  1  0.75044100  0.04539700  0.45304500  1
  P  P5  1  0.04539700  0.45304500  0.75044100  1
  O  O0  1  0.51274100  0.31531600  0.10963800  1
  O  O1  1  0.10963800  0.51274100  0.31531600  1
  O  O2  1  0.25510900  0.91093700  0.06115300  1
  O  O3  1  0.31531600  0.10963800  0.51274100  1
  O  O4  1  0.61608000  0.82025500  0.99210900  1
  O  O5  1  0.44746700  0.59428100  0.24349800  1
  O  O6  1  0.91093700  0.06115300  0.25510900  1
  O  O7  1  0.59428100  0.24349800  0.44746700  1
  O  O8  1  0.99016000  0.38797100  0.18622400  1
  O  O9  1  0.24349800  0.44746700  0.59428100  1
  O  O10  1  0.93621000  0.74439000  0.08896800  1
  O  O11  1  0.18622400  0.99016000  0.38797100  1
  O  O12  1  0.82025500  0.99210900  0.61608000  1
  O  O13  1  0.06115300  0.25510900  0.91093700  1
  O  O14  1  0.75469000  0.56044300  0.40848100  1
  O  O15  1  0.99210900  0.61608000  0.82025500  1
  O  O16  1  0.40848100  0.75469000  0.56044300  1
  O  O17  1  0.08896800  0.93621000  0.74439000  1
  O  O18  1  0.56044300  0.40848100  0.75469000  1
  O  O19  1  0.38797100  0.18622400  0.99016000  1
  O  O20  1  0.68412300  0.89099600  0.48680300  1
  O  O21  1  0.74439000  0.08896800  0.93621000  1
  O  O22  1  0.89099600  0.48680300  0.68412300  1
  O  O23  1  0.48680300  0.68412300  0.89099600  1
loop_
_geom_bond_atom_site_label_1
_geom_bond_atom_site_label_2
_geom_bond_distance
_geom_bond_site_symmetry_2
Mn0 O19 1.949718 1_554
Mn0 O11 1.949718 1_545
Mn0 O8 1.949719 1_455
Mn0 O6 2.052013 1_455
Mn0 O13 2.052013 1_554
Mn0 O2 2.052013 1_545
Mn1 O3 1.974044 1_555
Mn1 O0 1.974044 1_555
Mn1 O1 1.974044 1_555
Mn1 O5 2.118085 1_555
Mn1 O9 2.118085 1_555
Mn1 O7 2.118085 1_555
Mn2 O20 1.972096 1_555
Mn2 O23 1.972096 1_555
Mn2 O22 1.972096 1_555
Mn2 O18 2.066901 1_555
Mn2 O14 2.066901 1_555
Mn2 O16 2.066901 1_555
Co0 O13 2.161889 1_554
Co0 O6 2.161889 1_455
Co0 O2 2.161889 1_545
Co0 O10 2.179408 1_445
Co0 O17 2.179408 1_544
Co0 O21 2.179409 1_454
Co1 O14 2.134355 1_555
Co1 O18 2.134355 1_555
Co1 O16 2.134355 1_555
Co1 O9 2.139426 1_555
Co1 O5 2.139426 1_555
Co1 O7 2.139426 1_555
O0 P2 1.515894 1_554
O1 P0 1.515894 1_455
O2 P3 1.568917 1_555
O3 P1 1.515894 1_545
O4 P3 1.551907 1_556
O4 Ti0 1.896201 1_555
O5 P3 1.560114 1_555
O6 P4 1.568917 1_555
O7 P4 1.560114 1_555
O8 P0 1.529752 1_555
O9 P5 1.560114 1_555
O10 P0 1.580737 1_555
O10 Ti0 2.033628 1_554
O11 P1 1.529752 1_555
O12 P4 1.551907 1_565
O12 Ti0 1.896201 1_555
O13 P5 1.568917 1_555
O14 P0 1.575171 1_555
O15 P5 1.551907 1_655
O15 Ti0 1.896201 1_555
O16 P1 1.575172 1_555
O17 P1 1.580737 1_555
O17 Ti0 2.033628 1_455
O18 P2 1.575171 1_555
O19 P2 1.529752 1_555
O20 P4 1.522622 1_565
O21 P2 1.580737 1_555
O21 Ti0 2.033628 1_545
O22 P5 1.522622 1_655
O23 P3 1.522622 1_556
