# generated using pymatgen
data_Nd2S2F
_symmetry_space_group_name_H-M   'P 1'
_cell_length_a   3.86938800
_cell_length_b   3.86938800
_cell_length_c   11.54277300
_cell_angle_alpha   90.00000000
_cell_angle_beta   90.00000000
_cell_angle_gamma   90.00000000
_symmetry_Int_Tables_number   1
_chemical_formula_structural   Nd2S2F
_chemical_formula_sum   'Nd2 S2 F1'
_cell_volume   172.82028454
_cell_formula_units_Z   1
loop_
 _symmetry_equiv_pos_site_id
 _symmetry_equiv_pos_as_xyz
  1  'x, y, z'
loop_
 _atom_site_type_symbol
 _atom_site_label
 _atom_site_symmetry_multiplicity
 _atom_site_fract_x
 _atom_site_fract_y
 _atom_site_fract_z
 _atom_site_occupancy
  Nd  Nd0  1  0.50000000  0.50000000  0.19561900  1
  Nd  Nd1  1  0.50000000  0.50000000  0.80438100  1
  S  S0  1  0.50000000  0.50000000  0.58568900  1
  S  S1  1  0.50000000  0.50000000  0.41431100  1
  F  F0  1  0.50000000  0.50000000  0.00000000  1
loop_
_geom_bond_atom_site_label_1
_geom_bond_atom_site_label_2
_geom_bond_distance
_geom_bond_site_symmetry_2
Nd0 S1 2.524312 1_555
Nd1 S0 2.524312 1_555
S0 S1 1.978177 1_555
F0 Nd0 2.257986 1_555
F0 Nd1 2.257986 1_554
