# generated using pymatgen
data_SrHo31Al2Si14N13O59
_symmetry_space_group_name_H-M   'P 1'
_cell_length_a   9.38202100
_cell_length_b   9.96766114
_cell_length_c   18.38640239
_cell_angle_alpha   98.31545313
_cell_angle_beta   94.59628070
_cell_angle_gamma   91.95756842
_symmetry_Int_Tables_number   1
_chemical_formula_structural   SrHo31Al2Si14N13O59
_chemical_formula_sum   'Sr1 Ho31 Al2 Si14 N13 O59'
_cell_volume   1694.06412938
_cell_formula_units_Z   1
loop_
 _symmetry_equiv_pos_site_id
 _symmetry_equiv_pos_as_xyz
  1  'x, y, z'
loop_
 _atom_site_type_symbol
 _atom_site_label
 _atom_site_symmetry_multiplicity
 _atom_site_fract_x
 _atom_site_fract_y
 _atom_site_fract_z
 _atom_site_occupancy
  Sr  Sr0  1  0.15091800  0.89574200  0.02957800  1
  Ho  Ho0  1  0.27492400  0.55258700  0.74037100  1
  Ho  Ho1  1  0.97603500  0.64517000  0.84984300  1
  Ho  Ho2  1  0.36352800  0.65962300  0.93639300  1
  Ho  Ho3  1  0.18802800  0.27737900  0.50380300  1
  Ho  Ho4  1  0.53212300  0.37809300  0.54770900  1
  Ho  Ho5  1  0.09181100  0.26959800  0.70203700  1
  Ho  Ho6  1  0.45357300  0.34681400  0.82708300  1
  Ho  Ho7  1  0.04897200  0.34043900  0.89968900  1
  Ho  Ho8  1  0.31522200  0.00337100  0.24612200  1
  Ho  Ho9  1  0.02114100  0.16016700  0.34665100  1
  Ho  Ho10  1  0.42737800  0.01756000  0.46016500  1
  Ho  Ho11  1  0.80978000  0.07024400  0.59013100  1
  Ho  Ho12  1  0.41784800  0.05980100  0.64559400  1
  Ho  Ho13  1  0.80591900  0.09573300  0.79163100  1
  Ho  Ho14  1  0.57059000  0.01715300  0.11156000  1
  Ho  Ho15  1  0.47598400  0.06108600  0.92641800  1
  Ho  Ho16  1  0.91465200  0.89098700  0.17789200  1
  Ho  Ho17  1  0.59963500  0.81981100  0.30120700  1
  Ho  Ho18  1  0.10152200  0.83516700  0.34763700  1
  Ho  Ho19  1  0.60355100  0.77999500  0.56500400  1
  Ho  Ho20  1  0.95045000  0.79941800  0.66856900  1
  Ho  Ho21  1  0.55598500  0.81835400  0.75685100  1
  Ho  Ho22  1  0.04460700  0.55260800  0.06790200  1
  Ho  Ho23  1  0.43170200  0.66240700  0.12178900  1
  Ho  Ho24  1  0.84710400  0.57675100  0.25030900  1
  Ho  Ho25  1  0.44335900  0.60570500  0.41411500  1
  Ho  Ho26  1  0.91524200  0.65211200  0.48968900  1
  Ho  Ho27  1  0.67912500  0.40244900  0.04823900  1
  Ho  Ho28  1  0.16781600  0.33553600  0.20070600  1
  Ho  Ho29  1  0.52793800  0.38387800  0.24538200  1
  Ho  Ho30  1  0.86338800  0.14519700  0.00322500  1
  Al  Al0  1  0.87642100  0.34696200  0.54720700  1
  Al  Al1  1  0.24835100  0.62357500  0.26293800  1
  Si  Si0  1  0.21655300  0.85546700  0.82858000  1
  Si  Si1  1  0.73471000  0.71366600  0.02810800  1
  Si  Si2  1  0.28605400  0.61665400  0.58798500  1
  Si  Si3  1  0.73259100  0.36937500  0.73387000  1
  Si  Si4  1  0.26898600  0.34778900  0.35676900  1
  Si  Si5  1  0.29464500  0.18628400  0.07550400  1
  Si  Si6  1  0.66551200  0.14135800  0.31686300  1
  Si  Si7  1  0.20985800  0.06716600  0.78879000  1
  Si  Si8  1  0.77035200  0.86480200  0.89724000  1
  Si  Si9  1  0.18358900  0.81048300  0.50210500  1
  Si  Si10  1  0.74509300  0.55759800  0.66900700  1
  Si  Si11  1  0.77172800  0.42172300  0.41105700  1
  Si  Si12  1  0.33025400  0.37569800  0.98375400  1
  Si  Si13  1  0.83070500  0.20421400  0.18485800  1
  N  N0  1  0.81511800  0.75212100  0.95199600  1
  N  N1  1  0.61938800  0.42455200  0.66688700  1
  N  N2  1  0.92557500  0.37747500  0.45582200  1
  N  N3  1  0.66845500  0.15974700  0.22437200  1
  N  N4  1  0.69208900  0.00908600  0.90398000  1
  N  N5  1  0.37124000  0.69894600  0.67158200  1
  N  N6  1  0.39528900  0.85062400  0.85310900  1
  N  N7  1  0.71405600  0.71984900  0.66888200  1
  N  N8  1  0.13633400  0.69749500  0.55892400  1
  N  N9  1  0.40035700  0.29125100  0.14402800  1
  N  N10  1  0.32673000  0.48089100  0.30785300  1
  N  N11  1  0.80786900  0.37398000  0.16304300  1
  N  N12  1  0.20402800  0.27252200  0.01452200  1
  O  O0  1  0.37704600  0.05792300  0.03317300  1
  O  O1  1  0.13864700  0.81074400  0.90092300  1
  O  O2  1  0.11786400  0.73940500  0.76287400  1
  O  O3  1  0.81892800  0.52670300  0.75425800  1
  O  O4  1  0.24243000  0.45938900  0.59743800  1
  O  O5  1  0.05308600  0.56339600  0.94890000  1
  O  O6  1  0.43868000  0.56553500  0.82758000  1
  O  O7  1  0.08244700  0.46060000  0.78894400  1
  O  O8  1  0.42351400  0.61133600  0.53407600  1
  O  O9  1  0.86828600  0.51437400  0.60514300  1
  O  O10  1  0.37450200  0.37366200  0.43691100  1
  O  O11  1  0.32021700  0.33200700  0.72466300  1
  O  O12  1  0.00738700  0.22958100  0.57656300  1
  O  O13  1  0.38989400  0.19899100  0.54712300  1
  O  O14  1  0.68634100  0.31482700  0.80887900  1
  O  O15  1  0.32075000  0.52866300  0.02898500  1
  O  O16  1  0.83900300  0.25140300  0.70098900  1
  O  O17  1  0.27759400  0.40723000  0.90048800  1
  O  O18  1  0.31217200  0.22359000  0.28730300  1
  O  O19  1  0.65831100  0.30878800  0.35551500  1
  O  O20  1  0.19834200  0.11633300  0.13489500  1
  O  O21  1  0.20067600  0.08069800  0.41703200  1
  O  O22  1  0.52245900  0.05060800  0.33671500  1
  O  O23  1  0.08406000  0.98057300  0.26769600  1
  O  O24  1  0.71377700  0.24798600  0.53890500  1
  O  O25  1  0.08363400  0.17859100  0.80016700  1
  O  O26  1  0.58419600  0.99510300  0.56237900  1
  O  O27  1  0.21769600  0.05509100  0.69807400  1
  O  O28  1  0.48885400  0.31542400  0.96509600  1
  O  O29  1  0.93406800  0.14550800  0.89869000  1
  O  O30  1  0.72146700  0.85740900  0.08643400  1
  O  O31  1  0.59140800  0.02637800  0.73176300  1
  O  O32  1  0.48615300  0.88453700  0.19241200  1
  O  O33  1  0.35824200  0.14061600  0.83534700  1
  O  O34  1  0.05811300  0.77497500  0.11768400  1
  O  O35  1  0.36828900  0.79405300  0.04348000  1
  O  O36  1  0.80509600  0.07693000  0.35356800  1
  O  O37  1  0.28800500  0.93994000  0.53892700  1
  O  O38  1  0.82241800  0.79714200  0.26369900  1
  O  O39  1  0.31747800  0.79684600  0.29196400  1
  O  O40  1  0.90311700  0.99988100  0.68988900  1
  O  O41  1  0.43101200  0.82667600  0.65067500  1
  O  O42  1  0.83473500  0.82680100  0.55724300  1
  O  O43  1  0.81995600  0.82198700  0.81412200  1
  O  O44  1  0.81605900  0.61098700  0.08006100  1
  O  O45  1  0.06960000  0.63750300  0.28650200  1
  O  O46  1  0.58034600  0.62376200  0.00805300  1
  O  O47  1  0.24047700  0.55510300  0.16816000  1
  O  O48  1  0.56352900  0.79920700  0.42130300  1
  O  O49  1  0.02561900  0.83469800  0.45727400  1
  O  O50  1  0.58591800  0.60529100  0.24908800  1
  O  O51  1  0.26377000  0.74312700  0.42883500  1
  O  O52  1  0.66678400  0.51056600  0.47065500  1
  O  O53  1  0.95942400  0.43512100  0.16334700  1
  O  O54  1  0.49896700  0.40061800  0.12636300  1
  O  O55  1  0.88592000  0.35842800  0.00297100  1
  O  O56  1  0.81868000  0.54510300  0.36455800  1
  O  O57  1  0.97429800  0.24436300  0.24802200  1
  O  O58  1  0.65848700  0.16560100  0.04429800  1
loop_
_geom_bond_atom_site_label_1
_geom_bond_atom_site_label_2
_geom_bond_distance
_geom_bond_site_symmetry_2
Ho0 O6 2.116583 1_555
Ho0 O11 2.235609 1_555
Ho0 N5 2.274051 1_555
Ho0 O7 2.298151 1_555
Ho0 O2 2.423302 1_555
Ho0 O4 2.647362 1_555
Ho1 O5 2.182370 1_655
Ho1 O1 2.254636 1_655
Ho1 O7 2.311687 1_655
Ho1 O3 2.349752 1_555
Ho1 O2 2.428975 1_655
Ho1 O43 2.457412 1_555
Ho1 N0 2.632249 1_555
Ho2 O35 2.211993 1_556
Ho2 O6 2.260073 1_555
Ho2 O15 2.340906 1_556
Ho2 O46 2.399593 1_556
Ho2 O17 2.590494 1_555
Ho2 N6 2.633601 1_555
Ho2 O1 2.725159 1_555
Ho2 O5 3.071845 1_555
Ho3 O13 2.207069 1_555
Ho3 O12 2.319810 1_555
Ho3 O4 2.325578 1_555
Ho3 O21 2.354638 1_555
Ho3 O10 2.462932 1_555
Ho3 N2 2.812672 1_455
Ho4 O24 2.178790 1_555
Ho4 O13 2.190240 1_555
Ho4 N1 2.253756 1_555
Ho4 O10 2.413626 1_555
Ho4 O52 2.461890 1_555
Ho4 O8 2.606858 1_555
Ho5 O25 2.138912 1_555
Ho5 O11 2.200750 1_555
Ho5 O7 2.310765 1_555
Ho5 O12 2.351208 1_555
Ho5 O16 2.370909 1_455
Ho5 O27 2.472462 1_555
Ho6 O11 2.159338 1_555
Ho6 O6 2.188117 1_555
Ho6 O33 2.243627 1_555
Ho6 O17 2.258343 1_555
Ho6 O14 2.262005 1_555
Ho6 O28 2.597844 1_555
Ho7 O29 2.186587 1_455
Ho7 O17 2.222331 1_555
Ho7 O5 2.272879 1_555
Ho7 O25 2.309552 1_555
Ho7 O55 2.522752 1_456
Ho7 O7 2.541949 1_555
Ho7 N12 2.649693 1_556
Ho8 O18 2.217989 1_555
Ho8 O32 2.235014 1_545
Ho8 O23 2.245621 1_545
Ho8 O39 2.334648 1_545
Ho8 O22 2.442961 1_555
Ho8 O20 2.653967 1_555
Ho9 O57 2.126893 1_455
Ho9 O36 2.184025 1_455
Ho9 O23 2.262372 1_545
Ho9 O21 2.275421 1_555
Ho10 O37 2.228003 1_545
Ho10 O13 2.290781 1_555
Ho10 O26 2.334036 1_545
Ho10 O21 2.348252 1_555
Ho10 O22 2.564560 1_555
Ho10 O48 2.601085 1_545
Ho11 O40 2.186233 1_545
Ho11 O26 2.215561 1_545
Ho11 O24 2.300631 1_555
Ho11 O42 2.438388 1_545
Ho11 O12 2.451402 1_655
Ho11 O16 2.510466 1_555
Ho12 O27 2.181054 1_555
Ho12 O31 2.246972 1_555
Ho12 O26 2.314874 1_545
Ho12 O41 2.346095 1_545
Ho12 O37 2.365944 1_545
Ho12 O13 2.438645 1_555
Ho13 O29 2.205415 1_555
Ho13 O40 2.249395 1_545
Ho13 O31 2.251602 1_555
Ho13 O16 2.465662 1_555
Ho13 O14 2.480423 1_555
Ho13 N4 2.638205 1_555
Ho13 O25 2.691742 1_655
Ho13 O43 2.824153 1_545
Ho14 O30 2.190550 1_545
Ho14 O58 2.237930 1_555
Ho14 O32 2.295737 1_545
Ho14 O0 2.310845 1_555
Ho14 N3 2.432782 1_555
Ho15 N4 2.166476 1_555
Ho15 O33 2.190856 1_555
Ho15 O0 2.241265 1_556
Ho15 N6 2.387649 1_545
Ho15 O28 2.528077 1_555
Ho15 O58 2.710151 1_556
Ho16 O34 2.085452 1_655
Ho16 O38 2.168702 1_555
Ho16 O23 2.259618 1_655
Ho16 O30 2.352036 1_555
Ho17 O50 2.208118 1_555
Ho17 O38 2.261330 1_555
Ho17 O48 2.297625 1_555
Ho17 O32 2.372780 1_555
Ho17 O22 2.449076 1_565
Ho17 O39 2.638979 1_555
Ho18 O45 2.121372 1_555
Ho18 O49 2.191638 1_555
Ho18 O23 2.209453 1_555
Ho18 O51 2.348409 1_555
Ho18 O39 2.360292 1_555
Ho18 O21 2.689611 1_565
Ho18 O38 2.915073 1_455
Ho19 O26 2.165109 1_555
Ho19 O42 2.223106 1_555
Ho19 N7 2.266821 1_555
Ho19 O8 2.319100 1_555
Ho19 O41 2.359284 1_555
Ho19 O48 2.674107 1_555
Ho19 O52 3.082182 1_555
Ho20 O40 2.050713 1_555
Ho20 O42 2.295332 1_555
Ho20 N7 2.330479 1_555
Ho20 O2 2.399813 1_655
Ho20 N8 2.868766 1_655
Ho21 O31 2.208354 1_565
Ho21 O41 2.208922 1_555
Ho21 N5 2.400553 1_555
Ho21 N7 2.409165 1_555
Ho21 N6 2.409341 1_555
Ho21 O43 2.609306 1_555
Ho22 O5 2.213748 1_554
Ho22 O44 2.260709 1_455
Ho22 O34 2.267607 1_555
Ho22 O53 2.417646 1_455
Ho22 O47 2.493265 1_555
Ho22 O55 2.497590 1_455
Ho22 O15 2.751556 1_555
Ho23 O35 2.147428 1_555
Ho23 O15 2.175985 1_555
Ho23 O47 2.338254 1_555
Ho23 O32 2.415412 1_555
Ho23 O46 2.595657 1_555
Ho23 O54 2.716966 1_555
Ho23 O50 2.791906 1_555
Ho24 O45 2.177494 1_655
Ho24 O38 2.197173 1_555
Ho24 O56 2.204307 1_555
Ho24 O53 2.319212 1_555
Ho24 N11 2.389875 1_555
Ho24 O50 2.475238 1_555
Ho25 O48 2.182322 1_555
Ho25 O51 2.216299 1_555
Ho25 O8 2.221134 1_555
Ho25 N10 2.328871 1_555
Ho25 O10 2.482813 1_555
Ho25 O52 2.538833 1_555
Ho26 O42 2.181701 1_555
Ho26 O49 2.241368 1_655
Ho26 N8 2.339644 1_655
Ho26 O56 2.478270 1_555
Ho26 O52 2.654911 1_555
Ho26 N2 2.725021 1_555
Ho26 O9 2.745315 1_555
Ho27 O55 2.204726 1_555
Ho27 O54 2.305462 1_555
Ho27 O28 2.312864 1_554
Ho27 O58 2.352288 1_555
Ho27 O44 2.378838 1_555
Ho27 N11 2.404820 1_555
Ho27 O46 2.602401 1_555
Ho28 O57 2.290896 1_455
Ho28 O53 2.322558 1_455
Ho28 O20 2.377757 1_555
Ho28 O18 2.426112 1_555
Ho28 O47 2.440268 1_555
Ho28 N9 2.517496 1_555
Ho28 N10 2.599850 1_555
Ho29 N9 2.197106 1_555
Ho29 O54 2.214475 1_555
Ho29 O50 2.244951 1_555
Ho29 N10 2.443134 1_555
Ho29 O19 2.502145 1_555
Ho29 N3 2.628968 1_555
Ho29 O18 2.762229 1_555
Ho29 N11 3.132246 1_555
Ho30 O29 2.083209 1_554
Ho30 O58 2.126544 1_555
Ho30 O55 2.129420 1_555
Ho30 N4 2.533421 1_554
Al0 O24 1.772378 1_555
Al0 O12 1.828830 1_655
Al0 N2 1.841414 1_555
Al0 O9 1.852757 1_555
Al1 O45 1.770431 1_555
Al1 O47 1.771984 1_555
Al1 O39 1.813761 1_555
Al1 N10 1.886612 1_555
N0 Si8 1.656202 1_555
N0 Si1 1.725983 1_556
N1 Si3 1.724371 1_555
N1 Si10 1.738375 1_555
N2 Si11 1.706882 1_555
N3 Si6 1.738868 1_555
N3 Si13 1.807145 1_555
N4 Si8 1.630345 1_545
N5 O41 1.486787 1_555
N5 Si2 1.751499 1_555
N6 Si0 1.705392 1_555
N7 Si10 1.653323 1_555
N8 Si9 1.713700 1_555
N8 Si2 1.729018 1_555
N9 O54 1.493812 1_555
N9 Si5 1.735877 1_555
N10 Si4 1.799083 1_555
N11 O53 1.527009 1_555
N11 Si13 1.810397 1_555
N12 Si5 1.701410 1_555
N12 Si12 1.724121 1_554
O0 Si5 1.648159 1_555
O0 Sr0 2.613596 1_545
O1 Si0 1.675489 1_555
O1 Sr0 2.386768 1_556
O2 Si0 1.731597 1_555
O3 Si3 1.717670 1_555
O3 Si10 1.735453 1_555
O4 Si2 1.643579 1_555
O8 Si2 1.686066 1_555
O9 Si10 1.733641 1_555
O10 Si4 1.690160 1_555
O14 Si3 1.637877 1_555
O15 Si12 1.636673 1_554
O16 Si3 1.648115 1_555
O17 Si12 1.647813 1_555
O18 Si4 1.728559 1_555
O19 Si11 1.689333 1_555
O19 Si6 1.722539 1_555
O20 Si5 1.682334 1_555
O20 Sr0 2.710311 1_545
O22 Si6 1.686370 1_555
O25 Si7 1.655919 1_555
O27 Si7 1.662563 1_555
O28 Si12 1.666138 1_555
O30 Si1 1.675541 1_555
O33 Si7 1.662808 1_555
O34 Sr0 2.355823 1_555
O35 Sr0 2.320433 1_555
O36 Si6 1.619889 1_555
O37 Si9 1.624125 1_555
O43 Si8 1.634975 1_555
O44 Si1 1.661853 1_555
O46 Si1 1.663312 1_555
O49 Si9 1.679418 1_555
O51 Si9 1.663379 1_555
O52 Si11 1.704754 1_555
O56 Si11 1.662794 1_555
O57 Si13 1.703472 1_555
