# generated using pymatgen
data_Y(CuTe)3
_symmetry_space_group_name_H-M   'P 1'
_cell_length_a   8.19113367
_cell_length_b   8.19113367
_cell_length_c   8.19113318
_cell_angle_alpha   54.21358160
_cell_angle_beta   54.21358160
_cell_angle_gamma   54.21357459
_symmetry_Int_Tables_number   1
_chemical_formula_structural   Y(CuTe)3
_chemical_formula_sum   'Y2 Cu6 Te6'
_cell_volume   336.13089301
_cell_formula_units_Z   2
loop_
 _symmetry_equiv_pos_site_id
 _symmetry_equiv_pos_as_xyz
  1  'x, y, z'
loop_
 _atom_site_type_symbol
 _atom_site_label
 _atom_site_symmetry_multiplicity
 _atom_site_fract_x
 _atom_site_fract_y
 _atom_site_fract_z
 _atom_site_occupancy
  Y  Y0  1  0.83441900  0.83441900  0.83441900  1
  Y  Y1  1  0.16558100  0.16558100  0.16558100  1
  Cu  Cu0  1  0.63141800  0.25797600  0.98134100  1
  Cu  Cu1  1  0.98134100  0.63141800  0.25797600  1
  Cu  Cu2  1  0.25797600  0.98134100  0.63141800  1
  Cu  Cu3  1  0.74202400  0.01865900  0.36858200  1
  Cu  Cu4  1  0.01865900  0.36858200  0.74202400  1
  Cu  Cu5  1  0.36858200  0.74202400  0.01865900  1
  Te  Te0  1  0.42065900  0.10349100  0.72957800  1
  Te  Te1  1  0.10349100  0.72957800  0.42065900  1
  Te  Te2  1  0.72957800  0.42065900  0.10349100  1
  Te  Te3  1  0.27042200  0.57934100  0.89650900  1
  Te  Te4  1  0.89650900  0.27042200  0.57934100  1
  Te  Te5  1  0.57934100  0.89650900  0.27042200  1
loop_
_geom_bond_atom_site_label_1
_geom_bond_atom_site_label_2
_geom_bond_distance
_geom_bond_site_symmetry_2
Cu0 Te5 2.579087 1_546
Cu0 Te4 2.659362 1_555
Cu0 Te2 2.678908 1_556
Cu0 Te3 2.704848 1_555
Cu1 Te3 2.579087 1_654
Cu1 Te5 2.659362 1_555
Cu1 Te1 2.678908 1_655
Cu1 Te4 2.704848 1_555
Cu2 Te4 2.579087 1_465
Cu2 Te3 2.659362 1_555
Cu2 Te0 2.678908 1_565
Cu2 Te5 2.704848 1_555
Cu3 Te1 2.579087 1_645
Cu3 Te2 2.659362 1_555
Cu3 Te5 2.678908 1_545
Cu3 Te0 2.704848 1_555
Cu4 Te2 2.579087 1_456
Cu4 Te0 2.659362 1_555
Cu4 Te4 2.678908 1_455
Cu4 Te1 2.704848 1_555
Cu5 Te0 2.579087 1_564
Cu5 Te1 2.659362 1_555
Cu5 Te3 2.678908 1_554
Cu5 Te2 2.704848 1_555
Te0 Y1 3.087607 1_556
Te0 Y0 3.088006 1_545
Te1 Y1 3.087607 1_565
Te1 Y0 3.088006 1_455
Te2 Y1 3.087607 1_655
Te2 Y0 3.088006 1_554
Te3 Y0 3.087607 1_455
Te3 Y1 3.088006 1_556
Te4 Y0 3.087607 1_545
Te4 Y1 3.088006 1_655
Te5 Y0 3.087607 1_554
Te5 Y1 3.088006 1_565
