# generated using pymatgen
data_TbRh5
_symmetry_space_group_name_H-M   'P 1'
_cell_length_a   5.18027079
_cell_length_b   5.18022516
_cell_length_c   4.30627574
_cell_angle_alpha   90.00000000
_cell_angle_beta   90.00000000
_cell_angle_gamma   119.99985574
_symmetry_Int_Tables_number   1
_chemical_formula_structural   TbRh5
_chemical_formula_sum   'Tb1 Rh5'
_cell_volume   100.07698148
_cell_formula_units_Z   1
loop_
 _symmetry_equiv_pos_site_id
 _symmetry_equiv_pos_as_xyz
  1  'x, y, z'
loop_
 _atom_site_type_symbol
 _atom_site_label
 _atom_site_symmetry_multiplicity
 _atom_site_fract_x
 _atom_site_fract_y
 _atom_site_fract_z
 _atom_site_occupancy
  Tb  Tb0  1  -0.00000000  0.00000000  -0.00000000  1
  Rh  Rh0  1  0.33334999  0.66667959  0.00000000  1
  Rh  Rh1  1  0.66665001  0.33332041  0.00000000  1
  Rh  Rh2  1  0.50000000  0.00000000  0.50000000  1
  Rh  Rh3  1  0.50000000  0.50000000  0.50000000  1
  Rh  Rh4  1  -0.00000000  0.50000000  0.50000000  1
loop_
_geom_bond_atom_site_label_1
_geom_bond_atom_site_label_2
_geom_bond_distance
_geom_bond_site_symmetry_2
Rh0 Rh2 2.621462 1_565
Rh0 Rh2 2.621462 1_564
Rh0 Rh3 2.621488 1_554
Rh0 Rh3 2.621488 1_555
Rh0 Rh4 2.621545 1_555
Rh0 Rh4 2.621545 1_554
Rh0 Tb0 2.990760 1_665
Rh0 Tb0 2.990832 1_565
Rh0 Tb0 2.990867 1_555
Rh1 Rh2 2.621462 1_555
Rh1 Rh2 2.621462 1_554
Rh1 Rh3 2.621488 1_554
Rh1 Rh3 2.621488 1_555
Rh1 Rh4 2.621545 1_654
Rh1 Rh4 2.621545 1_655
Rh1 Tb0 2.990760 1_555
Rh1 Tb0 2.990832 1_655
Rh1 Tb0 2.990867 1_665
Rh2 Rh3 2.590113 1_555
Rh2 Rh3 2.590113 1_545
Rh2 Rh4 2.590130 1_545
Rh2 Rh4 2.590130 1_655
Rh2 Tb0 3.368205 1_555
Rh2 Tb0 3.368205 1_655
Rh2 Tb0 3.368205 1_556
Rh2 Tb0 3.368205 1_656
Rh3 Rh4 2.590135 1_655
Rh3 Rh4 2.590135 1_555
Rh3 Tb0 3.368200 1_665
Rh3 Tb0 3.368200 1_666
Rh3 Tb0 3.368200 1_555
Rh3 Tb0 3.368200 1_556
Rh4 Tb0 3.368187 1_556
Rh4 Tb0 3.368187 1_565
Rh4 Tb0 3.368187 1_566
Rh4 Tb0 3.368187 1_555
