# generated using pymatgen
data_MoW3(SeS)4
_symmetry_space_group_name_H-M   'P 1'
_cell_length_a   3.25338024
_cell_length_b   3.25338024
_cell_length_c   36.88149400
_cell_angle_alpha   90.00000000
_cell_angle_beta   90.00000000
_cell_angle_gamma   120.00000479
_symmetry_Int_Tables_number   1
_chemical_formula_structural   MoW3(SeS)4
_chemical_formula_sum   'Mo1 W3 Se4 S4'
_cell_volume   338.07165827
_cell_formula_units_Z   1
loop_
 _symmetry_equiv_pos_site_id
 _symmetry_equiv_pos_as_xyz
  1  'x, y, z'
loop_
 _atom_site_type_symbol
 _atom_site_label
 _atom_site_symmetry_multiplicity
 _atom_site_fract_x
 _atom_site_fract_y
 _atom_site_fract_z
 _atom_site_occupancy
  Mo  Mo0  1  0.66666700  0.33333300  0.28179000  1
  W  W0  1  0.33333300  0.66666700  0.09391300  1
  W  W1  1  0.33333300  0.66666700  0.46964600  1
  W  W2  1  0.66666700  0.33333300  0.65754500  1
  Se  Se0  1  0.33333300  0.66666700  0.32781000  1
  Se  Se1  1  0.33333300  0.66666700  0.70388800  1
  Se  Se2  1  0.33333300  0.66666700  0.23577600  1
  Se  Se3  1  0.33333300  0.66666700  0.61122600  1
  S  S0  1  0.66666700  0.33333300  0.05188500  1
  S  S1  1  0.66666700  0.33333300  0.42765500  1
  S  S2  1  0.66666700  0.33333300  0.13593600  1
  S  S3  1  0.66666700  0.33333300  0.51167800  1
loop_
_geom_bond_atom_site_label_1
_geom_bond_atom_site_label_2
_geom_bond_distance
_geom_bond_site_symmetry_2
Mo0 Se2 2.531439 1_545
Mo0 Se2 2.531439 1_655
Mo0 Se2 2.531443 1_555
Mo0 Se0 2.531587 1_545
Mo0 Se0 2.531587 1_655
Mo0 Se0 2.531592 1_555
Se1 W2 2.539590 1_565
Se1 W2 2.539590 1_455
Se1 W2 2.539594 1_555
Se3 W2 2.538994 1_455
Se3 W2 2.538994 1_565
Se3 W2 2.538998 1_555
S0 W0 2.435329 1_545
S0 W0 2.435329 1_655
S0 W0 2.435333 1_555
S1 W1 2.434460 1_545
S1 W1 2.434460 1_655
S1 W1 2.434465 1_555
S2 W0 2.435211 1_655
S2 W0 2.435211 1_545
S2 W0 2.435216 1_555
S3 W1 2.435423 1_545
S3 W1 2.435423 1_655
S3 W1 2.435427 1_555
