# generated using pymatgen
data_CeGeO2
_symmetry_space_group_name_H-M   'P 1'
_cell_length_a   7.56456280
_cell_length_b   7.56456280
_cell_length_c   7.56456280
_cell_angle_alpha   127.43137415
_cell_angle_beta   127.43137415
_cell_angle_gamma   77.54800742
_symmetry_Int_Tables_number   1
_chemical_formula_structural   CeGeO2
_chemical_formula_sum   'Ce4 Ge4 O8'
_cell_volume   264.70452349
_cell_formula_units_Z   4
loop_
 _symmetry_equiv_pos_site_id
 _symmetry_equiv_pos_as_xyz
  1  'x, y, z'
loop_
 _atom_site_type_symbol
 _atom_site_label
 _atom_site_symmetry_multiplicity
 _atom_site_fract_x
 _atom_site_fract_y
 _atom_site_fract_z
 _atom_site_occupancy
  Ce  Ce0  1  0.87500000  0.62500000  0.25000000  1
  Ce  Ce1  1  0.37500000  0.62500000  0.75000000  1
  Ce  Ce2  1  0.37500000  0.62500000  0.25000000  1
  Ce  Ce3  1  0.37500000  0.12500000  0.75000000  1
  Ge  Ge0  1  0.37500000  0.12500000  0.25000000  1
  Ge  Ge1  1  0.87500000  0.12500000  0.75000000  1
  Ge  Ge2  1  0.87500000  0.12500000  0.25000000  1
  Ge  Ge3  1  0.87500000  0.62500000  0.75000000  1
  O  O0  1  0.17416400  0.43343800  0.25927500  1
  O  O1  1  0.17416400  0.91488900  0.74072500  1
  O  O2  1  0.18343800  0.42416400  0.75927500  1
  O  O3  1  0.57583600  0.81656200  0.24072500  1
  O  O4  1  0.66488900  0.42416400  0.24072500  1
  O  O5  1  0.57583600  0.33511100  0.75927500  1
  O  O6  1  0.56656200  0.82583600  0.74072500  1
  O  O7  1  0.08511100  0.82583600  0.25927500  1
loop_
_geom_bond_atom_site_label_1
_geom_bond_atom_site_label_2
_geom_bond_distance
_geom_bond_site_symmetry_2
Ce0 O7 2.369676 1_655
Ce0 O4 2.369676 1_555
Ce0 O1 2.396353 1_655
Ce0 O5 2.396353 1_554
Ce0 O0 2.396356 1_655
Ce0 O3 2.396356 1_555
Ce1 O2 2.369682 1_555
Ce1 O6 2.369682 1_555
Ce1 O0 2.396351 1_555
Ce1 O3 2.396351 1_556
Ce1 O5 2.396353 1_555
Ce1 O1 2.396353 1_555
Ce2 O3 2.369682 1_555
Ce2 O0 2.369682 1_555
Ce2 O6 2.396351 1_555
Ce2 O2 2.396351 1_554
Ce2 O4 2.396353 1_555
Ce2 O7 2.396353 1_555
Ce3 O5 2.369676 1_555
Ce3 O1 2.369676 1_545
Ce3 O4 2.396353 1_556
Ce3 O7 2.396353 1_545
Ce3 O6 2.396356 1_545
Ce3 O2 2.396356 1_555
Ge0 O3 2.481688 1_545
Ge0 O0 2.481688 1_555
Ge0 O5 2.481694 1_555
Ge0 O1 2.481694 1_544
Ge1 O0 2.481693 1_656
Ge1 O3 2.481693 1_545
Ge1 O1 2.481694 1_645
Ge1 O5 2.481694 1_555
Ge2 O2 2.481693 1_655
Ge2 O6 2.481693 1_544
Ge2 O7 2.481694 1_645
Ge2 O4 2.481694 1_555
Ge3 O6 2.481688 1_555
Ge3 O2 2.481688 1_655
Ge3 O4 2.481694 1_555
Ge3 O7 2.481694 1_656
