# generated using pymatgen
data_BaSrLaSbO6
_symmetry_space_group_name_H-M   'P 1'
_cell_length_a   6.09178103
_cell_length_b   6.13967260
_cell_length_c   8.64324776
_cell_angle_alpha   90.36931257
_cell_angle_beta   90.45222144
_cell_angle_gamma   89.98499631
_symmetry_Int_Tables_number   1
_chemical_formula_structural   BaSrLaSbO6
_chemical_formula_sum   'Ba2 Sr2 La2 Sb2 O12'
_cell_volume   323.25399417
_cell_formula_units_Z   2
loop_
 _symmetry_equiv_pos_site_id
 _symmetry_equiv_pos_as_xyz
  1  'x, y, z'
loop_
 _atom_site_type_symbol
 _atom_site_label
 _atom_site_symmetry_multiplicity
 _atom_site_fract_x
 _atom_site_fract_y
 _atom_site_fract_z
 _atom_site_occupancy
  Ba  Ba0  1  0.50665358  0.52767140  0.25000716  1
  Ba  Ba1  1  0.49334642  0.47232860  0.74999284  1
  Sr  Sr0  1  0.99210570  0.03715711  0.25210854  1
  Sr  Sr1  1  0.00789430  0.96284289  0.74789146  1
  La  La0  1  0.00000000  0.50000000  0.00000000  1
  La  La1  1  0.50000000  0.00000000  0.50000000  1
  Sb  Sb0  1  0.50000000  0.00000000  0.00000000  1
  Sb  Sb1  1  0.00000000  0.50000000  0.50000000  1
  O  O0  1  0.23624996  0.19318588  0.95564539  1
  O  O1  1  0.26310271  0.69785816  0.53125688  1
  O  O2  1  0.76375004  0.80681412  0.04435461  1
  O  O3  1  0.73689729  0.30214184  0.46874312  1
  O  O4  1  0.30354018  0.73777404  0.96109846  1
  O  O5  1  0.18730923  0.23148703  0.54238979  1
  O  O6  1  0.69645982  0.26222596  0.03890154  1
  O  O7  1  0.81269077  0.76851297  0.45761021  1
  O  O8  1  0.41593291  0.99242182  0.22792429  1
  O  O9  1  0.06289584  0.46594221  0.27112872  1
  O  O10  1  0.58406709  0.00757818  0.77207571  1
  O  O11  1  0.93710416  0.53405779  0.72887128  1
loop_
_geom_bond_atom_site_label_1
_geom_bond_atom_site_label_2
_geom_bond_distance
_geom_bond_site_symmetry_2
Ba0 O6 2.704865 1_555
Ba0 O3 2.729433 1_555
Ba0 O9 2.737495 1_555
Ba0 O8 2.913479 1_555
Ba0 O2 2.938421 1_555
Ba0 O7 2.965865 1_555
Ba0 O1 3.037391 1_555
Ba0 O4 3.069599 1_554
Ba0 O8 3.336546 1_545
Ba1 O4 2.704865 1_555
Ba1 O1 2.729433 1_555
Ba1 O11 2.737495 1_555
Ba1 O10 2.913479 1_555
Ba1 O0 2.938421 1_555
Ba1 O5 2.965865 1_555
Ba1 O3 3.037391 1_555
Ba1 O6 3.069599 1_556
Ba1 O10 3.336546 1_565
La0 O9 2.382080 1_555
La0 O11 2.382080 1_454
La0 O4 2.383476 1_554
La0 O6 2.383476 1_455
La0 O0 2.400972 1_554
La0 O2 2.400972 1_455
La1 O1 2.368720 1_545
La1 O3 2.368720 1_555
La1 O10 2.402941 1_555
La1 O8 2.402941 1_545
La1 O5 2.405310 1_555
La1 O7 2.405310 1_545
O0 Sb0 2.032351 1_556
O0 Sr1 2.662419 1_545
O0 Sr0 3.128601 1_456
O1 Sb1 2.026695 1_555
O1 Sr1 2.928347 1_555
O2 Sb0 2.032351 1_565
O2 Sr0 2.662419 1_565
O2 Sr1 3.128601 1_654
O3 Sb1 2.026695 1_655
O3 Sr0 2.928347 1_555
O4 Sb0 2.031029 1_566
O4 Sr1 2.920307 1_555
O5 Sb1 2.038198 1_555
O5 Sr1 2.671943 1_545
O5 Sr0 3.007921 1_455
O6 Sb0 2.031029 1_555
O6 Sr0 2.920307 1_555
O7 Sb1 2.038198 1_655
O7 Sr0 2.671943 1_565
O7 Sr1 3.007921 1_655
O8 Sb0 2.040214 1_565
O8 Sr0 2.606253 1_465
O9 Sb1 2.027401 1_555
O9 Sr0 2.671605 1_455
O10 Sb0 2.040214 1_556
O10 Sr1 2.606253 1_645
O11 Sb1 2.027401 1_655
O11 Sr1 2.671605 1_655
