# generated using pymatgen
data_Zn2AgWO6
_symmetry_space_group_name_H-M   'P 1'
_cell_length_a   5.22724300
_cell_length_b   5.29507500
_cell_length_c   9.92118349
_cell_angle_alpha   60.76348871
_cell_angle_beta   90.00000000
_cell_angle_gamma   90.00000000
_symmetry_Int_Tables_number   1
_chemical_formula_structural   Zn2AgWO6
_chemical_formula_sum   'Zn4 Ag2 W2 O12'
_cell_volume   239.62326342
_cell_formula_units_Z   2
loop_
 _symmetry_equiv_pos_site_id
 _symmetry_equiv_pos_as_xyz
  1  'x, y, z'
loop_
 _atom_site_type_symbol
 _atom_site_label
 _atom_site_symmetry_multiplicity
 _atom_site_fract_x
 _atom_site_fract_y
 _atom_site_fract_z
 _atom_site_occupancy
  Zn  Zn0  1  0.48338100  0.21715400  0.75929300  1
  Zn  Zn1  1  0.98338100  0.78284600  0.74070700  1
  Zn  Zn2  1  0.51661900  0.78284600  0.24070700  1
  Zn  Zn3  1  0.01661900  0.21715400  0.25929300  1
  Ag  Ag0  1  0.50000000  0.00000000  0.50000000  1
  Ag  Ag1  1  0.00000000  0.00000000  0.00000000  1
  W  W0  1  0.50000000  0.50000000  0.00000000  1
  W  W1  1  0.00000000  0.50000000  0.50000000  1
  O  O0  1  0.19030500  0.46829500  0.90179800  1
  O  O1  1  0.69030500  0.53170500  0.59820200  1
  O  O2  1  0.80969500  0.53170500  0.09820200  1
  O  O3  1  0.30969500  0.46829500  0.40179800  1
  O  O4  1  0.34511700  0.76340700  0.05993700  1
  O  O5  1  0.84511700  0.23659300  0.44006300  1
  O  O6  1  0.65488300  0.23659300  0.94006300  1
  O  O7  1  0.15488300  0.76340700  0.55993700  1
  O  O8  1  0.12488800  0.17223400  0.69832900  1
  O  O9  1  0.62488800  0.82776600  0.80167100  1
  O  O10  1  0.37511200  0.17223400  0.19832900  1
  O  O11  1  0.87511200  0.82776600  0.30167100  1
loop_
_geom_bond_atom_site_label_1
_geom_bond_atom_site_label_2
_geom_bond_distance
_geom_bond_site_symmetry_2
Ag0 O5 2.109457 1_555
Ag0 O7 2.109457 1_545
Ag0 O3 2.393237 1_555
Ag0 O1 2.393237 1_545
Ag0 O9 2.747592 1_545
Ag0 O10 2.747592 1_555
Ag1 O4 2.109457 1_545
Ag1 O6 2.109457 1_454
Ag1 O0 2.393237 1_554
Ag1 O2 2.393237 1_445
Ag1 O11 2.747592 1_445
Ag1 O8 2.747592 1_554
O0 W0 1.938519 1_556
O0 Zn1 1.974360 1_455
O1 W1 1.938519 1_655
O1 Zn0 1.974360 1_555
O2 W0 1.938519 1_555
O2 Zn3 1.974360 1_655
O3 W1 1.938519 1_555
O3 Zn2 1.974360 1_555
O4 W0 1.940258 1_555
O4 Zn2 2.052090 1_555
O5 W1 1.940258 1_655
O5 Zn3 2.052090 1_655
O6 W0 1.940258 1_556
O6 Zn0 2.052090 1_555
O7 W1 1.940258 1_555
O7 Zn1 2.052090 1_455
O8 W1 1.993522 1_555
O8 Zn0 2.018550 1_555
O8 Zn1 2.031821 1_445
O9 W0 1.993522 1_556
O9 Zn1 2.018550 1_555
O9 Zn0 2.031821 1_565
O10 W0 1.993522 1_555
O10 Zn3 2.018550 1_555
O10 Zn2 2.031821 1_545
O11 W1 1.993522 1_655
O11 Zn2 2.018550 1_555
O11 Zn3 2.031821 1_665
