# generated using pymatgen
data_Mg30NbCoO32
_symmetry_space_group_name_H-M   'P 1'
_cell_length_a   8.58254100
_cell_length_b   8.55182500
_cell_length_c   8.55182500
_cell_angle_alpha   90.00000000
_cell_angle_beta   90.00000000
_cell_angle_gamma   90.00000000
_symmetry_Int_Tables_number   1
_chemical_formula_structural   Mg30NbCoO32
_chemical_formula_sum   'Mg30 Nb1 Co1 O32'
_cell_volume   627.67307169
_cell_formula_units_Z   1
loop_
 _symmetry_equiv_pos_site_id
 _symmetry_equiv_pos_as_xyz
  1  'x, y, z'
loop_
 _atom_site_type_symbol
 _atom_site_label
 _atom_site_symmetry_multiplicity
 _atom_site_fract_x
 _atom_site_fract_y
 _atom_site_fract_z
 _atom_site_occupancy
  Mg  Mg0  1  0.00000000  0.00000000  0.50000000  1
  Mg  Mg1  1  0.00000000  0.50000000  0.00000000  1
  Mg  Mg2  1  0.50000000  0.00000000  0.00000000  1
  Mg  Mg3  1  0.50000000  0.00000000  0.50000000  1
  Mg  Mg4  1  0.50000000  0.50000000  0.00000000  1
  Mg  Mg5  1  0.50000000  0.50000000  0.50000000  1
  Mg  Mg6  1  0.00000000  0.24164500  0.24164500  1
  Mg  Mg7  1  0.00000000  0.24164500  0.75835500  1
  Mg  Mg8  1  0.00000000  0.75835500  0.24164500  1
  Mg  Mg9  1  0.00000000  0.75835500  0.75835500  1
  Mg  Mg10  1  0.50000000  0.24861100  0.24861100  1
  Mg  Mg11  1  0.50000000  0.24861100  0.75138900  1
  Mg  Mg12  1  0.50000000  0.75138900  0.24861100  1
  Mg  Mg13  1  0.50000000  0.75138900  0.75138900  1
  Mg  Mg14  1  0.24828500  0.00000000  0.24681700  1
  Mg  Mg15  1  0.24828500  0.00000000  0.75318300  1
  Mg  Mg16  1  0.25383000  0.50000000  0.24651500  1
  Mg  Mg17  1  0.25383000  0.50000000  0.75348500  1
  Mg  Mg18  1  0.75171500  0.00000000  0.24681700  1
  Mg  Mg19  1  0.75171500  0.00000000  0.75318300  1
  Mg  Mg20  1  0.74617000  0.50000000  0.24651500  1
  Mg  Mg21  1  0.74617000  0.50000000  0.75348500  1
  Mg  Mg22  1  0.24828500  0.24681700  0.00000000  1
  Mg  Mg23  1  0.25383000  0.24651500  0.50000000  1
  Mg  Mg24  1  0.24828500  0.75318300  0.00000000  1
  Mg  Mg25  1  0.25383000  0.75348500  0.50000000  1
  Mg  Mg26  1  0.75171500  0.24681700  0.00000000  1
  Mg  Mg27  1  0.74617000  0.24651500  0.50000000  1
  Mg  Mg28  1  0.75171500  0.75318300  0.00000000  1
  Mg  Mg29  1  0.74617000  0.75348500  0.50000000  1
  Nb  Nb0  1  0.00000000  0.50000000  0.50000000  1
  Co  Co0  1  0.00000000  0.00000000  0.00000000  1
  O  O0  1  0.26162800  0.00000000  0.00000000  1
  O  O1  1  0.25119400  0.00000000  0.50000000  1
  O  O2  1  0.25119400  0.50000000  0.00000000  1
  O  O3  1  0.25943500  0.50000000  0.50000000  1
  O  O4  1  0.73837200  0.00000000  0.00000000  1
  O  O5  1  0.74880600  0.00000000  0.50000000  1
  O  O6  1  0.74880600  0.50000000  0.00000000  1
  O  O7  1  0.74056500  0.50000000  0.50000000  1
  O  O8  1  0.24881200  0.25078000  0.25078000  1
  O  O9  1  0.24881200  0.25078000  0.74922000  1
  O  O10  1  0.24881200  0.74922000  0.25078000  1
  O  O11  1  0.24881200  0.74922000  0.74922000  1
  O  O12  1  0.75118800  0.25078000  0.25078000  1
  O  O13  1  0.75118800  0.25078000  0.74922000  1
  O  O14  1  0.75118800  0.74922000  0.25078000  1
  O  O15  1  0.75118800  0.74922000  0.74922000  1
  O  O16  1  0.00000000  0.00000000  0.26240100  1
  O  O17  1  0.00000000  0.00000000  0.73759900  1
  O  O18  1  0.00000000  0.50000000  0.24913000  1
  O  O19  1  0.00000000  0.50000000  0.75087000  1
  O  O20  1  0.50000000  0.00000000  0.25177900  1
  O  O21  1  0.50000000  0.00000000  0.74822100  1
  O  O22  1  0.50000000  0.50000000  0.24972500  1
  O  O23  1  0.50000000  0.50000000  0.75027500  1
  O  O24  1  0.00000000  0.26240100  0.00000000  1
  O  O25  1  0.00000000  0.24913000  0.50000000  1
  O  O26  1  0.00000000  0.73759900  0.00000000  1
  O  O27  1  0.00000000  0.75087000  0.50000000  1
  O  O28  1  0.50000000  0.25177900  0.00000000  1
  O  O29  1  0.50000000  0.24972500  0.50000000  1
  O  O30  1  0.50000000  0.74822100  0.00000000  1
  O  O31  1  0.50000000  0.75027500  0.50000000  1
loop_
_geom_bond_atom_site_label_1
_geom_bond_atom_site_label_2
_geom_bond_distance
_geom_bond_site_symmetry_2
Mg0 O17 2.031905 1_555
Mg0 O16 2.031905 1_555
Mg0 O27 2.130516 1_545
Mg0 O25 2.130516 1_555
Mg0 O1 2.155883 1_555
Mg0 O5 2.155883 1_455
Mg1 O26 2.031905 1_555
Mg1 O24 2.031905 1_555
Mg1 O19 2.130516 1_554
Mg1 O18 2.130516 1_555
Mg1 O2 2.155883 1_555
Mg1 O6 2.155883 1_455
Mg2 O4 2.045837 1_555
Mg2 O0 2.045837 1_555
Mg2 O28 2.153170 1_555
Mg2 O20 2.153170 1_555
Mg2 O21 2.153170 1_554
Mg2 O30 2.153170 1_545
Mg3 O21 2.122743 1_555
Mg3 O20 2.122743 1_555
Mg3 O5 2.135388 1_555
Mg3 O1 2.135388 1_555
Mg3 O29 2.135604 1_555
Mg3 O31 2.135604 1_545
Mg4 O30 2.122743 1_555
Mg4 O28 2.122743 1_555
Mg4 O6 2.135388 1_555
Mg4 O2 2.135388 1_555
Mg4 O22 2.135604 1_555
Mg4 O23 2.135604 1_554
Mg5 O7 2.064659 1_555
Mg5 O3 2.064659 1_555
Mg5 O31 2.140308 1_555
Mg5 O23 2.140308 1_555
Mg5 O22 2.140308 1_555
Mg5 O29 2.140308 1_555
Mg6 O24 2.074115 1_555
Mg6 O16 2.074115 1_555
Mg6 O8 2.138295 1_555
Mg6 O12 2.138295 1_455
Mg6 O18 2.210334 1_555
Mg6 O25 2.210334 1_555
Mg7 O17 2.074115 1_555
Mg7 O24 2.074115 1_556
Mg7 O9 2.138295 1_555
Mg7 O13 2.138295 1_455
Mg7 O19 2.210334 1_555
Mg7 O25 2.210334 1_555
Mg8 O16 2.074115 1_565
Mg8 O26 2.074115 1_555
Mg8 O10 2.138295 1_555
Mg8 O14 2.138295 1_455
Mg8 O18 2.210334 1_555
Mg8 O27 2.210334 1_555
Mg9 O26 2.074115 1_556
Mg9 O17 2.074115 1_565
Mg9 O11 2.138295 1_555
Mg9 O15 2.138295 1_455
Mg9 O19 2.210334 1_555
Mg9 O27 2.210334 1_555
Mg10 O20 2.126250 1_555
Mg10 O28 2.126250 1_555
Mg10 O22 2.149856 1_555
Mg10 O29 2.149856 1_555
Mg10 O12 2.155991 1_555
Mg10 O8 2.155991 1_555
Mg11 O21 2.126250 1_555
Mg11 O28 2.126250 1_556
Mg11 O23 2.149856 1_555
Mg11 O29 2.149856 1_555
Mg11 O13 2.155991 1_555
Mg11 O9 2.155991 1_555
Mg12 O30 2.126250 1_555
Mg12 O20 2.126250 1_565
Mg12 O31 2.149856 1_555
Mg12 O22 2.149856 1_555
Mg12 O14 2.155991 1_555
Mg12 O10 2.155991 1_555
Mg13 O30 2.126250 1_556
Mg13 O21 2.126250 1_565
Mg13 O31 2.149856 1_555
Mg13 O23 2.149856 1_555
Mg13 O15 2.155991 1_555
Mg13 O11 2.155991 1_555
Mg14 O0 2.113840 1_555
Mg14 O16 2.135080 1_555
Mg14 O10 2.144899 1_545
Mg14 O8 2.144899 1_555
Mg14 O20 2.160771 1_555
Mg14 O1 2.165321 1_555
Mg15 O0 2.113840 1_556
Mg15 O17 2.135080 1_555
Mg15 O11 2.144899 1_545
Mg15 O9 2.144899 1_555
Mg15 O21 2.160771 1_555
Mg15 O1 2.165321 1_555
Mg16 O2 2.108275 1_555
Mg16 O22 2.112942 1_555
Mg16 O8 2.132033 1_555
Mg16 O10 2.132033 1_555
Mg16 O3 2.168293 1_555
Mg16 O18 2.178621 1_555
Mg17 O2 2.108275 1_556
Mg17 O23 2.112942 1_555
Mg17 O9 2.132033 1_555
Mg17 O11 2.132033 1_555
Mg17 O3 2.168293 1_555
Mg17 O19 2.178621 1_555
Mg18 O4 2.113840 1_555
Mg18 O16 2.135080 1_655
Mg18 O14 2.144899 1_545
Mg18 O12 2.144899 1_555
Mg18 O20 2.160771 1_555
Mg18 O5 2.165321 1_555
Mg19 O4 2.113840 1_556
Mg19 O17 2.135080 1_655
Mg19 O15 2.144899 1_545
Mg19 O13 2.144899 1_555
Mg19 O21 2.160771 1_555
Mg19 O5 2.165321 1_555
Mg20 O6 2.108275 1_555
Mg20 O22 2.112942 1_555
Mg20 O12 2.132033 1_555
Mg20 O14 2.132033 1_555
Mg20 O7 2.168293 1_555
Mg20 O18 2.178621 1_655
Mg21 O6 2.108275 1_556
Mg21 O23 2.112942 1_555
Mg21 O13 2.132033 1_555
Mg21 O15 2.132033 1_555
Mg21 O7 2.168293 1_555
Mg21 O19 2.178621 1_655
Mg22 O0 2.113840 1_555
Mg22 O24 2.135080 1_555
Mg22 O9 2.144899 1_554
Mg22 O8 2.144899 1_555
Mg22 O28 2.160771 1_555
Mg22 O2 2.165321 1_555
Mg23 O1 2.108275 1_555
Mg23 O29 2.112942 1_555
Mg23 O8 2.132033 1_555
Mg23 O9 2.132033 1_555
Mg23 O3 2.168293 1_555
Mg23 O25 2.178621 1_555
Mg24 O0 2.113840 1_565
Mg24 O26 2.135080 1_555
Mg24 O11 2.144899 1_554
Mg24 O10 2.144899 1_555
Mg24 O30 2.160771 1_555
Mg24 O2 2.165321 1_555
Mg25 O1 2.108275 1_565
Mg25 O31 2.112942 1_555
Mg25 O10 2.132033 1_555
Mg25 O11 2.132033 1_555
Mg25 O3 2.168293 1_555
Mg25 O27 2.178621 1_555
Mg26 O4 2.113840 1_555
Mg26 O24 2.135080 1_655
Mg26 O13 2.144899 1_554
Mg26 O12 2.144899 1_555
Mg26 O28 2.160771 1_555
Mg26 O6 2.165321 1_555
Mg27 O5 2.108275 1_555
Mg27 O29 2.112942 1_555
Mg27 O12 2.132033 1_555
Mg27 O13 2.132033 1_555
Mg27 O7 2.168293 1_555
Mg27 O25 2.178621 1_655
Mg28 O4 2.113840 1_565
Mg28 O26 2.135080 1_655
Mg28 O15 2.144899 1_554
Mg28 O14 2.144899 1_555
Mg28 O30 2.160771 1_555
Mg28 O6 2.165321 1_555
Mg29 O5 2.108275 1_565
Mg29 O31 2.112942 1_555
Mg29 O14 2.132033 1_555
Mg29 O15 2.132033 1_555
Mg29 O7 2.168293 1_555
Mg29 O27 2.178621 1_655
Nb0 O25 2.145396 1_555
Nb0 O18 2.145396 1_555
Nb0 O19 2.145396 1_555
Nb0 O27 2.145396 1_555
Nb0 O3 2.226612 1_555
Nb0 O7 2.226612 1_455
Co0 O17 2.244007 1_554
Co0 O26 2.244007 1_545
Co0 O16 2.244007 1_555
Co0 O24 2.244007 1_555
Co0 O0 2.245433 1_555
Co0 O4 2.245433 1_455
