# generated using pymatgen
data_NdAlH6
_symmetry_space_group_name_H-M   'P 1'
_cell_length_a   4.24044195
_cell_length_b   4.24044195
_cell_length_c   4.24044225
_cell_angle_alpha   98.38430828
_cell_angle_beta   98.38430828
_cell_angle_gamma   98.38432709
_symmetry_Int_Tables_number   1
_chemical_formula_structural   NdAlH6
_chemical_formula_sum   'Nd1 Al1 H6'
_cell_volume   73.53238222
_cell_formula_units_Z   1
loop_
 _symmetry_equiv_pos_site_id
 _symmetry_equiv_pos_as_xyz
  1  'x, y, z'
loop_
 _atom_site_type_symbol
 _atom_site_label
 _atom_site_symmetry_multiplicity
 _atom_site_fract_x
 _atom_site_fract_y
 _atom_site_fract_z
 _atom_site_occupancy
  Nd  Nd0  1  0.50000000  0.50000000  0.50000000  1
  Al  Al0  1  -0.00000000  -0.00000000  0.00000000  1
  H  H0  1  0.29555330  0.93869433  0.29555330  1
  H  H1  1  0.29555330  0.29555330  0.93869433  1
  H  H2  1  0.93869433  0.29555330  0.29555330  1
  H  H3  1  0.70444670  0.06130567  0.70444670  1
  H  H4  1  0.70444670  0.70444670  0.06130567  1
  H  H5  1  0.06130567  0.70444670  0.70444670  1
loop_
_geom_bond_atom_site_label_1
_geom_bond_atom_site_label_2
_geom_bond_distance
_geom_bond_site_symmetry_2
Al0 H1 1.714921 1_554
Al0 H4 1.714921 1_445
Al0 H0 1.714922 1_545
Al0 H2 1.714922 1_455
Al0 H3 1.714922 1_454
Al0 H5 1.714922 1_544
H0 Nd0 2.384364 1_555
H0 Nd0 2.397030 1_565
H1 Nd0 2.384364 1_555
H1 Nd0 2.397030 1_556
H2 Nd0 2.384364 1_555
H2 Nd0 2.397030 1_655
H3 Nd0 2.384364 1_555
H3 Nd0 2.397030 1_545
H4 Nd0 2.384364 1_555
H4 Nd0 2.397030 1_554
H5 Nd0 2.384364 1_555
H5 Nd0 2.397030 1_455
