# generated using pymatgen
data_MgFe8(O7F)2
_symmetry_space_group_name_H-M   'P 1'
_cell_length_a   5.16693584
_cell_length_b   5.18650887
_cell_length_c   11.63439736
_cell_angle_alpha   90.65195380
_cell_angle_beta   90.48071101
_cell_angle_gamma   77.67465135
_symmetry_Int_Tables_number   1
_chemical_formula_structural   MgFe8(O7F)2
_chemical_formula_sum   'Mg1 Fe8 O14 F2'
_cell_volume   304.57115398
_cell_formula_units_Z   1
loop_
 _symmetry_equiv_pos_site_id
 _symmetry_equiv_pos_as_xyz
  1  'x, y, z'
loop_
 _atom_site_type_symbol
 _atom_site_label
 _atom_site_symmetry_multiplicity
 _atom_site_fract_x
 _atom_site_fract_y
 _atom_site_fract_z
 _atom_site_occupancy
  Mg  Mg0  1  0.19388100  0.18876500  0.12133800  1
  Fe  Fe0  1  0.91398700  0.89281000  0.99389200  1
  Fe  Fe1  1  0.91470800  0.91101900  0.26177800  1
  Fe  Fe2  1  0.07504800  0.07063700  0.49679300  1
  Fe  Fe3  1  0.08919000  0.07126600  0.74792800  1
  Fe  Fe4  1  0.52806600  0.52108800  0.12473800  1
  Fe  Fe5  1  0.49102100  0.48110800  0.62578600  1
  Fe  Fe6  1  0.46455600  0.51299800  0.87291800  1
  Fe  Fe7  1  0.49448400  0.48953500  0.37688400  1
  O  O0  1  0.18092600  0.81113300  0.12667800  1
  O  O1  1  0.22100300  0.83571600  0.61990700  1
  O  O2  1  0.17504800  0.82614400  0.87573600  1
  O  O3  1  0.19439900  0.81165500  0.37798900  1
  O  O4  1  0.34770900  0.36288300  0.00394600  1
  O  O5  1  0.36350300  0.35474900  0.23770700  1
  O  O6  1  0.32668800  0.31878000  0.49973000  1
  O  O7  1  0.31420700  0.32243800  0.75588400  1
  O  O8  1  0.67401100  0.66773300  0.99849000  1
  O  O9  1  0.68331400  0.67331500  0.24822100  1
  O  O10  1  0.63011200  0.63896300  0.75904700  1
  O  O11  1  0.81456800  0.17198600  0.12122100  1
  O  O12  1  0.81768800  0.19033000  0.37757700  1
  O  O13  1  0.84317300  0.21563700  0.62353700  1
  F  F0  1  0.66470600  0.65648100  0.49994500  1
  F  F1  1  0.79233700  0.18339700  0.87455400  1
loop_
_geom_bond_atom_site_label_1
_geom_bond_atom_site_label_2
_geom_bond_distance
_geom_bond_site_symmetry_2
Mg0 O5 1.902081 1_555
Mg0 O4 1.914511 1_555
Mg0 O0 1.975660 1_545
Mg0 O11 1.980277 1_455
Fe0 O8 1.877111 1_555
Fe0 O2 1.910485 1_655
Fe0 O0 2.048943 1_656
Fe0 O11 2.049726 1_566
Fe1 O9 1.896301 1_555
Fe1 O12 1.954956 1_565
Fe1 O3 1.961421 1_655
Fe1 O0 2.084363 1_655
Fe1 O11 2.123930 1_565
Fe2 O3 1.927029 1_545
Fe2 O12 1.927084 1_455
Fe2 O1 1.932415 1_545
Fe2 O13 1.948110 1_455
Fe2 O6 2.015123 1_555
Fe3 O7 1.923390 1_555
Fe3 O1 1.948129 1_545
Fe3 O2 1.953285 1_545
Fe3 O13 1.964274 1_455
Fe4 O5 1.884796 1_555
Fe4 O9 1.885737 1_555
Fe4 O8 1.895633 1_554
Fe4 O4 1.948054 1_555
Fe4 O11 2.080012 1_555
Fe4 O0 2.080538 1_555
Fe5 O10 1.947866 1_555
Fe5 O6 1.958791 1_555
Fe5 O13 2.034112 1_555
Fe5 O7 2.043385 1_555
Fe5 O1 2.059012 1_555
Fe6 O10 1.786342 1_555
Fe6 O4 1.880878 1_556
Fe6 O7 1.927103 1_555
Fe6 O2 1.959314 1_555
Fe6 O8 2.065740 1_555
Fe7 O5 1.930412 1_555
Fe7 O6 1.989002 1_555
Fe7 O3 2.022220 1_555
Fe7 O12 2.022555 1_555
Fe7 O9 2.134304 1_555
F0 Fe7 1.961876 1_555
F0 Fe5 2.043787 1_555
F1 Fe0 2.054945 1_545
F1 Fe3 2.121035 1_655
F1 Fe6 2.134291 1_555
