# generated using pymatgen
data_AcAg2Pb
_symmetry_space_group_name_H-M   'P 1'
_cell_length_a   5.28558208
_cell_length_b   5.28558208
_cell_length_c   5.28558208
_cell_angle_alpha   60.00000000
_cell_angle_beta   60.00000000
_cell_angle_gamma   60.00000000
_symmetry_Int_Tables_number   1
_chemical_formula_structural   AcAg2Pb
_chemical_formula_sum   'Ac1 Ag2 Pb1'
_cell_volume   104.41513778
_cell_formula_units_Z   1
loop_
 _symmetry_equiv_pos_site_id
 _symmetry_equiv_pos_as_xyz
  1  'x, y, z'
loop_
 _atom_site_type_symbol
 _atom_site_label
 _atom_site_symmetry_multiplicity
 _atom_site_fract_x
 _atom_site_fract_y
 _atom_site_fract_z
 _atom_site_occupancy
  Ac  Ac0  1  0.50000000  0.50000000  0.50000000  1
  Ag  Ag0  1  0.75000000  0.75000000  0.75000000  1
  Ag  Ag1  1  0.25000000  0.25000000  0.25000000  1
  Pb  Pb0  1  0.00000000  0.00000000  0.00000000  1
loop_
_geom_bond_atom_site_label_1
_geom_bond_atom_site_label_2
_geom_bond_distance
_geom_bond_site_symmetry_2
Ac0 Ag0 3.236745 1_555
Ac0 Ag1 3.236745 1_565
Ac0 Ag0 3.236745 1_554
Ac0 Ag1 3.236745 1_555
Ac0 Ag0 3.236745 1_455
Ac0 Ag1 3.236745 1_655
Ac0 Ag0 3.236745 1_545
Ac0 Ag1 3.236745 1_556
Ag0 Pb0 3.236745 1_665
Ag0 Pb0 3.236745 1_666
Ag0 Pb0 3.236745 1_656
Ag0 Pb0 3.236745 1_566
Ag1 Pb0 3.236745 1_565
Ag1 Pb0 3.236745 1_655
Ag1 Pb0 3.236745 1_555
Ag1 Pb0 3.236745 1_556
