# generated using pymatgen
data_Li3Cr5O8
_symmetry_space_group_name_H-M   'P 1'
_cell_length_a   6.06033809
_cell_length_b   10.57926906
_cell_length_c   6.09511001
_cell_angle_alpha   71.93596525
_cell_angle_beta   59.95335372
_cell_angle_gamma   89.72243039
_symmetry_Int_Tables_number   1
_chemical_formula_structural   Li3Cr5O8
_chemical_formula_sum   'Li6 Cr10 O16'
_cell_volume   316.17730271
_cell_formula_units_Z   2
loop_
 _symmetry_equiv_pos_site_id
 _symmetry_equiv_pos_as_xyz
  1  'x, y, z'
loop_
 _atom_site_type_symbol
 _atom_site_label
 _atom_site_symmetry_multiplicity
 _atom_site_fract_x
 _atom_site_fract_y
 _atom_site_fract_z
 _atom_site_occupancy
  Li  Li0  1  0.25007800  0.24999400  0.99990700  1
  Li  Li1  1  0.74978900  0.75000200  0.00020300  1
  Li  Li2  1  0.00270200  0.50054400  0.99865100  1
  Li  Li3  1  0.49735400  0.99942000  0.00132200  1
  Li  Li4  1  0.49918100  0.50052700  0.50141400  1
  Li  Li5  1  0.00078800  0.99950500  0.49860600  1
  Cr  Cr0  1  0.24997900  0.75000000  0.50004900  1
  Cr  Cr1  1  0.75007700  0.25000700  0.99992600  1
  Cr  Cr2  1  0.49981800  0.99948600  0.50338700  1
  Cr  Cr3  1  0.00015500  0.50049200  0.49660800  1
  Cr  Cr4  1  0.25008000  0.25000200  0.49996900  1
  Cr  Cr5  1  0.74999300  0.24999900  0.49999600  1
  Cr  Cr6  1  0.99534600  0.00190400  0.99852300  1
  Cr  Cr7  1  0.50465300  0.49810000  0.00154500  1
  Cr  Cr8  1  0.24995900  0.75000400  0.00007000  1
  Cr  Cr9  1  0.74989600  0.74998800  0.49999400  1
  O  O0  1  0.88555000  0.63138600  0.26041200  1
  O  O1  1  0.38791000  0.13092000  0.26295300  1
  O  O2  1  0.11218800  0.36910600  0.73694900  1
  O  O3  1  0.61441300  0.86860400  0.73958900  1
  O  O4  1  0.63089200  0.87991000  0.26710300  1
  O  O5  1  0.13814800  0.38144500  0.26334100  1
  O  O6  1  0.39036000  0.63135900  0.76662800  1
  O  O7  1  0.88502300  0.13429500  0.75813000  1
  O  O8  1  0.15422100  0.86686300  0.73277300  1
  O  O9  1  0.65310300  0.36733800  0.73385600  1
  O  O10  1  0.84700300  0.13267500  0.26598300  1
  O  O11  1  0.34563000  0.63323200  0.26729400  1
  O  O12  1  0.61513200  0.36570800  0.24181700  1
  O  O13  1  0.10960600  0.86863100  0.23337700  1
  O  O14  1  0.36200800  0.11855100  0.73659600  1
  O  O15  1  0.86896700  0.62000500  0.73302600  1
loop_
_geom_bond_atom_site_label_1
_geom_bond_atom_site_label_2
_geom_bond_distance
_geom_bond_site_symmetry_2
Li0 O1 2.221167 1_556
Li0 O2 2.221169 1_555
Li0 O9 2.225085 1_555
Li0 O10 2.225220 1_456
Li0 O14 2.292216 1_555
Li0 O5 2.292841 1_556
Li1 O0 2.197614 1_555
Li1 O3 2.197661 1_554
Li1 O11 2.228152 1_555
Li1 O8 2.229708 1_654
Li1 O4 2.292923 1_555
Li1 O15 2.294865 1_554
Li2 O15 2.215959 1_455
Li2 O5 2.218025 1_556
Li2 O6 2.219289 1_555
Li2 O12 2.232393 1_456
Li2 O0 2.278453 1_456
Li2 O2 2.285796 1_555
Li3 O4 2.215968 1_555
Li3 O14 2.217859 1_564
Li3 O13 2.219559 1_555
Li3 O7 2.232998 1_564
Li3 O3 2.278125 1_554
Li3 O1 2.286031 1_565
Li4 O0 2.209734 1_555
Li4 O2 2.217331 1_555
Li4 O9 2.221590 1_555
Li4 O11 2.224402 1_555
Li4 O6 2.296719 1_555
Li4 O12 2.303928 1_555
Li5 O3 2.209956 1_455
Li5 O1 2.217825 1_565
Li5 O10 2.221610 1_465
Li5 O8 2.223776 1_555
Li5 O13 2.297153 1_555
Li5 O7 2.303397 1_465
Cr0 O11 2.032493 1_555
Cr0 O8 2.033136 1_555
Cr0 O4 2.184515 1_555
Cr0 O15 2.185331 1_455
Cr0 O6 2.246867 1_555
Cr0 O13 2.247216 1_555
Cr1 O10 2.052822 1_556
Cr1 O9 2.053075 1_555
Cr1 O2 2.055355 1_655
Cr1 O1 2.055555 1_556
Cr1 O7 2.059499 1_555
Cr1 O12 2.059810 1_556
Cr2 O8 2.046827 1_555
Cr2 O14 2.053290 1_565
Cr2 O10 2.054677 1_565
Cr2 O3 2.056180 1_555
Cr2 O1 2.064808 1_565
Cr2 O4 2.068789 1_555
Cr3 O11 2.046932 1_555
Cr3 O5 2.053436 1_555
Cr3 O9 2.053978 1_455
Cr3 O0 2.056256 1_455
Cr3 O2 2.064717 1_555
Cr3 O15 2.068827 1_455
Cr4 O5 2.049588 1_555
Cr4 O14 2.049607 1_555
Cr4 O12 2.052913 1_555
Cr4 O7 2.052940 1_455
Cr4 O1 2.069266 1_555
Cr4 O2 2.069327 1_555
Cr5 O9 2.041972 1_555
Cr5 O10 2.042487 1_555
Cr5 O12 2.174026 1_555
Cr5 O7 2.174560 1_555
Cr5 O14 2.221390 1_555
Cr5 O5 2.222115 1_655
Cr6 O13 2.061066 1_646
Cr6 O7 2.062726 1_555
Cr6 O14 2.064354 1_655
Cr6 O4 2.078580 1_546
Cr6 O10 2.301892 1_556
Cr6 O8 2.334890 1_645
Cr7 O6 2.061383 1_554
Cr7 O12 2.062882 1_555
Cr7 O5 2.063687 1_555
Cr7 O15 2.077627 1_554
Cr7 O9 2.302811 1_554
Cr7 O11 2.335736 1_555
Cr8 O13 2.050807 1_555
Cr8 O11 2.050868 1_555
Cr8 O6 2.051539 1_554
Cr8 O8 2.051803 1_554
Cr8 O0 2.062174 1_455
Cr8 O3 2.062328 1_554
Cr9 O6 2.044357 1_555
Cr9 O13 2.045112 1_655
Cr9 O4 2.056675 1_555
Cr9 O15 2.057814 1_555
Cr9 O0 2.075258 1_555
Cr9 O3 2.075392 1_555
