# generated using pymatgen
data_BaSrPrCu3O7
_symmetry_space_group_name_H-M   'P 1'
_cell_length_a   3.82619000
_cell_length_b   3.94062700
_cell_length_c   11.74884400
_cell_angle_alpha   90.00000000
_cell_angle_beta   90.00000000
_cell_angle_gamma   90.00000000
_symmetry_Int_Tables_number   1
_chemical_formula_structural   BaSrPrCu3O7
_chemical_formula_sum   'Ba1 Sr1 Pr1 Cu3 O7'
_cell_volume   177.14422486
_cell_formula_units_Z   1
loop_
 _symmetry_equiv_pos_site_id
 _symmetry_equiv_pos_as_xyz
  1  'x, y, z'
loop_
 _atom_site_type_symbol
 _atom_site_label
 _atom_site_symmetry_multiplicity
 _atom_site_fract_x
 _atom_site_fract_y
 _atom_site_fract_z
 _atom_site_occupancy
  Ba  Ba0  1  0.50000000  0.50000000  0.17663100  1
  Sr  Sr0  1  0.50000000  0.50000000  0.82030700  1
  Pr  Pr0  1  0.50000000  0.50000000  0.50306000  1
  Cu  Cu0  1  0.00000000  0.00000000  0.34495600  1
  Cu  Cu1  1  0.00000000  0.00000000  0.66065800  1
  Cu  Cu2  1  0.00000000  0.00000000  0.99629600  1
  O  O0  1  0.00000000  0.00000000  0.15579600  1
  O  O1  1  0.00000000  0.00000000  0.83843800  1
  O  O2  1  0.00000000  0.50000000  0.37003200  1
  O  O3  1  0.50000000  0.00000000  0.37215300  1
  O  O4  1  0.00000000  0.50000000  0.63866600  1
  O  O5  1  0.50000000  0.00000000  0.63454600  1
  O  O6  1  0.00000000  0.50000000  0.98846200  1
loop_
_geom_bond_atom_site_label_1
_geom_bond_atom_site_label_2
_geom_bond_distance
_geom_bond_site_symmetry_2
Ba0 O0 2.757170 1_655
Ba0 O0 2.757170 1_555
Ba0 O0 2.757170 1_565
Ba0 O0 2.757170 1_665
Ba0 O6 2.923599 1_554
Ba0 O6 2.923599 1_654
Ba0 O2 2.970353 1_655
Ba0 O2 2.970353 1_555
Ba0 O3 3.026395 1_555
Ba0 O3 3.026395 1_565
Cu0 O3 1.939596 1_555
Cu0 O3 1.939596 1_455
Cu0 O2 1.992218 1_545
Cu0 O2 1.992218 1_555
Cu0 O0 2.222411 1_555
Cu1 O5 1.937537 1_455
Cu1 O5 1.937537 1_555
Cu1 O4 1.987183 1_555
Cu1 O4 1.987183 1_545
Cu1 O1 2.088709 1_555
Cu2 O1 1.854649 1_555
Cu2 O0 1.873941 1_556
Cu2 O6 1.972462 1_555
Cu2 O6 1.972462 1_545
O1 Sr0 2.754532 1_455
O1 Sr0 2.754532 1_555
O1 Sr0 2.754532 1_445
O1 Sr0 2.754532 1_545
O2 Pr0 2.470358 1_555
O2 Pr0 2.470358 1_455
O3 Pr0 2.499519 1_545
O3 Pr0 2.499519 1_555
O4 Pr0 2.489631 1_555
O4 Pr0 2.489631 1_455
O4 Sr0 2.866042 1_455
O4 Sr0 2.866042 1_555
O5 Pr0 2.503711 1_545
O5 Pr0 2.503711 1_555
O5 Sr0 2.940296 1_555
O5 Sr0 2.940296 1_545
O6 Sr0 2.750097 1_455
O6 Sr0 2.750097 1_555
