# generated using pymatgen
data_HoSiOs2C
_symmetry_space_group_name_H-M   'P 1'
_cell_length_a   5.88922422
_cell_length_b   5.88922422
_cell_length_c   7.13320400
_cell_angle_alpha   90.00000000
_cell_angle_beta   90.00000000
_cell_angle_gamma   141.86373619
_symmetry_Int_Tables_number   1
_chemical_formula_structural   HoSiOs2C
_chemical_formula_sum   'Ho2 Si2 Os4 C2'
_cell_volume   152.77826434
_cell_formula_units_Z   2
loop_
 _symmetry_equiv_pos_site_id
 _symmetry_equiv_pos_as_xyz
  1  'x, y, z'
loop_
 _atom_site_type_symbol
 _atom_site_label
 _atom_site_symmetry_multiplicity
 _atom_site_fract_x
 _atom_site_fract_y
 _atom_site_fract_z
 _atom_site_occupancy
  Ho  Ho0  1  0.54674200  0.45325800  0.25000000  1
  Ho  Ho1  1  0.45325800  0.54674200  0.75000000  1
  Si  Si0  1  0.26875700  0.73124300  0.25000000  1
  Si  Si1  1  0.73124300  0.26875700  0.75000000  1
  Os  Os0  1  0.83520400  0.16479600  0.05779800  1
  Os  Os1  1  0.16479600  0.83520400  0.94220200  1
  Os  Os2  1  0.16479600  0.83520400  0.55779800  1
  Os  Os3  1  0.83520400  0.16479600  0.44220200  1
  C  C0  1  0.00000000  0.00000000  0.00000000  1
  C  C1  1  0.00000000  0.00000000  0.50000000  1
loop_
_geom_bond_atom_site_label_1
_geom_bond_atom_site_label_2
_geom_bond_distance
_geom_bond_site_symmetry_2
Ho0 Si0 3.094577 1_555
Ho0 Si0 3.132092 1_655
Ho0 Si0 3.132092 1_545
Ho1 Si1 3.094577 1_555
Ho1 Si1 3.132092 1_565
Ho1 Si1 3.132092 1_455
Os0 Si0 2.475576 1_655
Os0 Si0 2.475576 1_545
Os0 Si1 2.481928 1_554
Os1 Si1 2.475576 1_565
Os1 Si1 2.475576 1_455
Os1 Si0 2.481928 1_556
Os2 Si1 2.475576 1_565
Os2 Si1 2.475576 1_455
Os2 Si0 2.481928 1_555
Os3 Si0 2.475576 1_655
Os3 Si0 2.475576 1_545
Os3 Si1 2.481928 1_555
C0 Os0 1.880295 1_455
C0 Os1 1.880295 1_544
C0 Ho1 2.674426 1_554
C0 Ho0 2.674426 1_555
C0 Ho1 2.674426 1_444
C0 Ho0 2.674426 1_445
C1 Os2 1.880295 1_545
C1 Os3 1.880295 1_455
C1 Ho1 2.674426 1_555
C1 Ho0 2.674426 1_555
C1 Ho0 2.674426 1_445
C1 Ho1 2.674426 1_445
