# generated using pymatgen
data_Li2V3SnO8
_symmetry_space_group_name_H-M   'P 1'
_cell_length_a   6.06072657
_cell_length_b   6.03896265
_cell_length_c   8.56392883
_cell_angle_alpha   90.35878222
_cell_angle_beta   89.89968758
_cell_angle_gamma   89.71432639
_symmetry_Int_Tables_number   1
_chemical_formula_structural   Li2V3SnO8
_chemical_formula_sum   'Li4 V6 Sn2 O16'
_cell_volume   313.43355048
_cell_formula_units_Z   2
loop_
 _symmetry_equiv_pos_site_id
 _symmetry_equiv_pos_as_xyz
  1  'x, y, z'
loop_
 _atom_site_type_symbol
 _atom_site_label
 _atom_site_symmetry_multiplicity
 _atom_site_fract_x
 _atom_site_fract_y
 _atom_site_fract_z
 _atom_site_occupancy
  Li  Li0  1  0.99781100  0.24612400  0.12152400  1
  Li  Li1  1  0.50252900  0.74026400  0.62283300  1
  Li  Li2  1  0.99895700  0.99486100  0.50150900  1
  Li  Li3  1  0.50148200  0.50202500  0.99670200  1
  V  V0  1  0.99674700  0.51295700  0.49554800  1
  V  V1  1  0.49620700  0.02187700  0.99145500  1
  V  V2  1  0.26337900  0.25163600  0.75426300  1
  V  V3  1  0.22796200  0.75520300  0.25910400  1
  V  V4  1  0.74104600  0.25320500  0.75539800  1
  V  V5  1  0.75488600  0.74968300  0.25680100  1
  Sn  Sn0  1  0.99952700  0.76351200  0.88225700  1
  Sn  Sn1  1  0.49745400  0.26458800  0.38084700  1
  O  O0  1  0.00997400  0.52041900  0.25367900  1
  O  O1  1  0.50378700  0.00824800  0.76603500  1
  O  O2  1  0.00194000  0.49071000  0.74616800  1
  O  O3  1  0.49191600  0.99048800  0.24160500  1
  O  O4  1  0.24047200  0.73180400  0.47569600  1
  O  O5  1  0.73141300  0.22460600  0.98676500  1
  O  O6  1  0.76667600  0.73738300  0.48210400  1
  O  O7  1  0.27173200  0.22070500  0.99058900  1
  O  O8  1  0.01172800  0.96397100  0.24558100  1
  O  O9  1  0.49909900  0.46595600  0.75220100  1
  O  O10  1  0.00351800  0.02767000  0.74493200  1
  O  O11  1  0.49467400  0.53002400  0.24198900  1
  O  O12  1  0.22866800  0.25552200  0.51402700  1
  O  O13  1  0.72633500  0.76296400  0.01443800  1
  O  O14  1  0.76965100  0.25622400  0.51059800  1
  O  O15  1  0.27043100  0.75737100  0.01535500  1
loop_
_geom_bond_atom_site_label_1
_geom_bond_atom_site_label_2
_geom_bond_distance
_geom_bond_site_symmetry_2
Li0 O5 1.990557 1_554
Li0 O0 2.002052 1_655
Li0 O7 2.006448 1_654
Li0 O8 2.015120 1_645
Li1 O9 1.998807 1_555
Li1 O6 2.002112 1_555
Li1 O1 2.024447 1_565
Li1 O4 2.029767 1_555
Li2 O10 2.093060 1_665
Li2 O14 2.098792 1_565
Li2 O6 2.108701 1_555
Li2 O12 2.109000 1_665
Li2 O4 2.164799 1_655
Li2 O8 2.199704 1_655
Li3 O15 2.083003 1_556
Li3 O13 2.093444 1_556
Li3 O9 2.103913 1_555
Li3 O11 2.106674 1_556
Li3 O5 2.174959 1_555
Li3 O7 2.202406 1_555
O0 V3 1.943196 1_555
O0 V5 2.070223 1_455
O0 V0 2.073540 1_455
O1 V1 1.932176 1_555
O1 V2 2.067489 1_555
O1 V4 2.070449 1_555
O2 Sn0 2.012019 1_455
O2 V2 2.139800 1_555
O2 V4 2.141782 1_455
O2 V0 2.151607 1_455
O3 Sn1 2.034455 1_565
O3 V3 2.150594 1_555
O3 V1 2.151942 1_564
O3 V5 2.156807 1_555
O4 V3 1.862782 1_555
O4 V0 1.994725 1_455
O5 V1 1.884245 1_555
O5 V4 1.990780 1_555
O6 V5 1.932805 1_555
O6 V0 1.943736 1_555
O7 V1 1.810121 1_555
O7 V2 2.034340 1_555
O8 V3 1.818315 1_555
O8 V5 2.031784 1_455
O9 V2 1.932636 1_555
O9 V4 1.945121 1_555
O10 Sn0 1.988022 1_445
O10 V2 2.082423 1_555
O10 V4 2.090452 1_455
O11 Sn1 2.001888 1_555
O11 V5 2.069382 1_555
O11 V3 2.111491 1_555
O12 Sn1 1.988157 1_555
O12 V2 2.068726 1_555
O12 V0 2.097560 1_455
O13 Sn0 2.004103 1_554
O13 V5 2.085092 1_555
O13 V1 2.100442 1_564
O14 Sn1 1.991258 1_555
O14 V0 2.082763 1_555
O14 V4 2.103504 1_555
O15 Sn0 2.000711 1_454
O15 V3 2.102941 1_555
O15 V1 2.119134 1_564
