# generated using pymatgen
data_Gd3B7W
_symmetry_space_group_name_H-M   'P 1'
_cell_length_a   8.25697981
_cell_length_b   8.25697981
_cell_length_c   9.52128400
_cell_angle_alpha   90.00000000
_cell_angle_beta   90.00000000
_cell_angle_gamma   155.59892910
_symmetry_Int_Tables_number   1
_chemical_formula_structural   Gd3B7W
_chemical_formula_sum   'Gd6 B14 W2'
_cell_volume   268.17340797
_cell_formula_units_Z   2
loop_
 _symmetry_equiv_pos_site_id
 _symmetry_equiv_pos_as_xyz
  1  'x, y, z'
loop_
 _atom_site_type_symbol
 _atom_site_label
 _atom_site_symmetry_multiplicity
 _atom_site_fract_x
 _atom_site_fract_y
 _atom_site_fract_z
 _atom_site_occupancy
  Gd  Gd0  1  0.89327400  0.10672600  0.43855200  1
  Gd  Gd1  1  0.10672600  0.89327400  0.56144800  1
  Gd  Gd2  1  0.89327400  0.10672600  0.06144800  1
  Gd  Gd3  1  0.10672600  0.89327400  0.93855200  1
  Gd  Gd4  1  0.24360600  0.75639400  0.25000000  1
  Gd  Gd5  1  0.75639400  0.24360600  0.75000000  1
  B  B0  1  0.72705600  0.27294400  0.46782100  1
  B  B1  1  0.27294400  0.72705600  0.53217900  1
  B  B2  1  0.72705600  0.27294400  0.03217900  1
  B  B3  1  0.27294400  0.72705600  0.96782100  1
  B  B4  1  0.63438200  0.36561800  0.14736800  1
  B  B5  1  0.36561800  0.63438200  0.85263200  1
  B  B6  1  0.63438200  0.36561800  0.35263200  1
  B  B7  1  0.36561800  0.63438200  0.64736800  1
  B  B8  1  0.52050300  0.47949700  0.09211200  1
  B  B9  1  0.47949700  0.52050300  0.90788800  1
  B  B10  1  0.52050300  0.47949700  0.40788800  1
  B  B11  1  0.47949700  0.52050300  0.59211200  1
  B  B12  1  0.45831900  0.54168100  0.25000000  1
  B  B13  1  0.54168100  0.45831900  0.75000000  1
  W  W0  1  0.05375400  0.94624600  0.25000000  1
  W  W1  1  0.94624600  0.05375400  0.75000000  1
loop_
_geom_bond_atom_site_label_1
_geom_bond_atom_site_label_2
_geom_bond_distance
_geom_bond_site_symmetry_2
B0 B6 1.854836 1_555
B0 B1 1.992246 1_545
B0 B1 1.992246 1_655
B0 Gd0 2.697355 1_555
B0 Gd4 2.723513 1_545
B0 Gd4 2.723513 1_655
B0 Gd5 2.728119 1_555
B0 Gd1 2.758976 1_545
B0 Gd1 2.758976 1_655
B1 B7 1.854836 1_555
B1 Gd1 2.697355 1_555
B1 Gd5 2.723513 1_455
B1 Gd5 2.723513 1_565
B1 Gd4 2.728119 1_555
B1 Gd0 2.758976 1_455
B1 Gd0 2.758976 1_565
B2 B4 1.854836 1_555
B2 B3 1.992246 1_544
B2 B3 1.992246 1_654
B2 Gd2 2.697355 1_555
B2 Gd4 2.723513 1_545
B2 Gd4 2.723513 1_655
B2 Gd5 2.728119 1_554
B2 Gd3 2.758976 1_544
B2 Gd3 2.758976 1_654
B3 B5 1.854836 1_555
B3 Gd3 2.697355 1_555
B3 Gd5 2.723513 1_455
B3 Gd5 2.723513 1_565
B3 Gd4 2.728119 1_556
B3 Gd2 2.758976 1_456
B3 Gd2 2.758976 1_566
B4 B8 1.911928 1_555
B4 B6 1.954377 1_555
B4 W0 2.386112 1_655
B4 W0 2.386112 1_545
B4 Gd4 2.666075 1_655
B4 Gd4 2.666075 1_545
B4 Gd3 2.682750 1_654
B4 Gd3 2.682750 1_544
B5 B9 1.911928 1_555
B5 B7 1.954377 1_555
B5 W1 2.386112 1_565
B5 W1 2.386112 1_455
B5 Gd5 2.666075 1_455
B5 Gd5 2.666075 1_565
B5 Gd2 2.682750 1_566
B5 Gd2 2.682750 1_456
B6 W0 2.386112 1_655
B6 W0 2.386112 1_545
B6 Gd4 2.666075 1_655
B6 Gd4 2.666075 1_545
B6 Gd1 2.682750 1_545
B6 Gd1 2.682750 1_655
B7 W1 2.386112 1_565
B7 W1 2.386112 1_455
B7 Gd5 2.666075 1_455
B7 Gd5 2.666075 1_565
B7 Gd0 2.682750 1_565
B7 Gd0 2.682750 1_455
B8 B9 1.874772 1_554
B8 W0 2.364933 1_655
B8 W0 2.364933 1_545
B8 Gd3 2.668249 1_544
B8 Gd3 2.668249 1_654
B8 Gd2 2.710622 1_455
B8 Gd2 2.710622 1_565
B9 W1 2.364933 1_455
B9 W1 2.364933 1_565
B9 Gd2 2.668249 1_456
B9 Gd2 2.668249 1_566
B9 Gd3 2.710622 1_545
B9 Gd3 2.710622 1_655
B10 B12 1.807577 1_555
B10 B11 1.874772 1_555
B10 B6 1.911928 1_555
B10 W0 2.364933 1_655
B10 W0 2.364933 1_545
B10 Gd1 2.668249 1_545
B10 Gd1 2.668249 1_655
B10 Gd0 2.710622 1_455
B10 Gd0 2.710622 1_565
B11 B13 1.807577 1_555
B11 B7 1.911928 1_555
B11 W1 2.364933 1_565
B11 W1 2.364933 1_455
B11 Gd0 2.668249 1_455
B11 Gd0 2.668249 1_565
B11 Gd1 2.710622 1_545
B11 Gd1 2.710622 1_655
B12 B8 1.807577 1_555
B12 W0 2.327623 1_655
B12 W0 2.327623 1_545
B12 Gd0 2.714806 1_455
B12 Gd0 2.714806 1_565
B12 Gd2 2.714806 1_455
B12 Gd2 2.714806 1_565
B13 B9 1.807577 1_555
B13 W1 2.327623 1_565
B13 W1 2.327623 1_455
B13 Gd3 2.714806 1_545
B13 Gd3 2.714806 1_655
B13 Gd1 2.714806 1_545
B13 Gd1 2.714806 1_655
