# generated using pymatgen
data_Sm(ClO)3
_symmetry_space_group_name_H-M   'P 1'
_cell_length_a   4.78978700
_cell_length_b   8.77047700
_cell_length_c   16.43099300
_cell_angle_alpha   90.00000000
_cell_angle_beta   90.00000000
_cell_angle_gamma   90.00000000
_symmetry_Int_Tables_number   1
_chemical_formula_structural   Sm(ClO)3
_chemical_formula_sum   'Sm4 Cl12 O12'
_cell_volume   690.24493034
_cell_formula_units_Z   4
loop_
 _symmetry_equiv_pos_site_id
 _symmetry_equiv_pos_as_xyz
  1  'x, y, z'
loop_
 _atom_site_type_symbol
 _atom_site_label
 _atom_site_symmetry_multiplicity
 _atom_site_fract_x
 _atom_site_fract_y
 _atom_site_fract_z
 _atom_site_occupancy
  Sm  Sm0  1  0.56074300  0.75000000  0.02197100  1
  Sm  Sm1  1  0.43925700  0.25000000  0.97802900  1
  Sm  Sm2  1  0.06074300  0.25000000  0.47802900  1
  Sm  Sm3  1  0.93925700  0.75000000  0.52197100  1
  Cl  Cl0  1  0.77225700  0.03811400  0.57985500  1
  Cl  Cl1  1  0.22774300  0.96188600  0.42014500  1
  Cl  Cl2  1  0.27225700  0.96188600  0.92014500  1
  Cl  Cl3  1  0.22774300  0.53811400  0.42014500  1
  Cl  Cl4  1  0.72774300  0.03811400  0.07985500  1
  Cl  Cl5  1  0.77225700  0.46188600  0.57985500  1
  Cl  Cl6  1  0.72774300  0.46188600  0.07985500  1
  Cl  Cl7  1  0.27225700  0.53811400  0.92014500  1
  Cl  Cl8  1  0.15733100  0.75000000  0.66775200  1
  Cl  Cl9  1  0.84266900  0.25000000  0.33224800  1
  Cl  Cl10  1  0.65733100  0.25000000  0.83224800  1
  Cl  Cl11  1  0.34266900  0.75000000  0.16775200  1
  O  O0  1  0.74818200  0.67944900  0.82185300  1
  O  O1  1  0.25181800  0.32055100  0.17814700  1
  O  O2  1  0.24818200  0.32055100  0.67814700  1
  O  O3  1  0.25181800  0.17944900  0.17814700  1
  O  O4  1  0.75181800  0.67944900  0.32185300  1
  O  O5  1  0.74818200  0.82055100  0.82185300  1
  O  O6  1  0.75181800  0.82055100  0.32185300  1
  O  O7  1  0.24818200  0.17944900  0.67814700  1
  O  O8  1  0.42612300  0.75000000  0.51468100  1
  O  O9  1  0.57387700  0.25000000  0.48531900  1
  O  O10  1  0.92612300  0.25000000  0.98531900  1
  O  O11  1  0.07387700  0.75000000  0.01468100  1
loop_
_geom_bond_atom_site_label_1
_geom_bond_atom_site_label_2
_geom_bond_distance
_geom_bond_site_symmetry_2
Cl0 Sm3 2.815957 1_545
Cl0 Sm2 2.856928 1_655
Cl1 Sm2 2.815957 1_565
Cl1 Sm3 2.856928 1_455
Cl2 Sm1 2.815957 1_565
Cl2 Sm0 2.856928 1_556
Cl3 Sm2 2.815957 1_555
Cl3 Sm3 2.856928 1_455
Cl4 Sm0 2.815957 1_545
Cl4 Sm1 2.856928 1_554
Cl5 Sm3 2.815957 1_555
Cl5 Sm2 2.856928 1_655
Cl6 Sm0 2.815957 1_555
Cl6 Sm1 2.856928 1_554
Cl7 Sm1 2.815957 1_555
Cl7 Sm0 2.856928 1_556
Cl8 Sm3 2.613164 1_455
Cl9 Sm2 2.613164 1_655
Cl10 Sm1 2.613164 1_555
Cl11 Sm0 2.613164 1_555
O0 O5 1.237532 1_555
O1 O3 1.237532 1_555
O2 O7 1.237532 1_555
O4 O6 1.237532 1_555
O8 Sm3 2.335059 1_455
O8 Sm3 2.460720 1_555
O9 Sm2 2.335059 1_655
O9 Sm2 2.460720 1_555
O10 Sm1 2.335059 1_555
O10 Sm1 2.460720 1_655
O11 Sm0 2.335059 1_555
O11 Sm0 2.460720 1_455
