# generated using pymatgen
data_HoAgSn
_symmetry_space_group_name_H-M   'P 1'
_cell_length_a   4.83010197
_cell_length_b   4.83010197
_cell_length_c   7.41726200
_cell_angle_alpha   90.00000000
_cell_angle_beta   90.00000000
_cell_angle_gamma   119.99999959
_symmetry_Int_Tables_number   1
_chemical_formula_structural   HoAgSn
_chemical_formula_sum   'Ho2 Ag2 Sn2'
_cell_volume   149.86038781
_cell_formula_units_Z   2
loop_
 _symmetry_equiv_pos_site_id
 _symmetry_equiv_pos_as_xyz
  1  'x, y, z'
loop_
 _atom_site_type_symbol
 _atom_site_label
 _atom_site_symmetry_multiplicity
 _atom_site_fract_x
 _atom_site_fract_y
 _atom_site_fract_z
 _atom_site_occupancy
  Ho  Ho0  1  0.00000000  0.00000000  0.27294200  1
  Ho  Ho1  1  0.00000000  0.00000000  0.72705800  1
  Ag  Ag0  1  0.33333300  0.66666700  0.47237900  1
  Ag  Ag1  1  0.66666700  0.33333300  0.52762100  1
  Sn  Sn0  1  0.66666700  0.33333300  0.93953200  1
  Sn  Sn1  1  0.33333300  0.66666700  0.06046800  1
loop_
_geom_bond_atom_site_label_1
_geom_bond_atom_site_label_2
_geom_bond_distance
_geom_bond_site_symmetry_2
Ho0 Sn1 3.203172 1_545
Ho0 Sn1 3.203176 1_445
Ho0 Sn1 3.203176 1_555
Ho0 Ho1 3.368297 1_555
Ho0 Sn0 3.727236 1_454
Ho0 Sn0 3.727239 1_554
Ho0 Sn0 3.727239 1_444
Ho0 Ho1 4.048965 1_554
Ho1 Sn0 3.203172 1_455
Ho1 Sn0 3.203176 1_445
Ho1 Sn0 3.203176 1_555
Ho1 Sn1 3.727236 1_546
Ho1 Sn1 3.727239 1_556
Ho1 Sn1 3.727239 1_446
Ag0 Ag1 2.818600 1_455
Ag0 Ag1 2.818600 1_565
Ag0 Ag1 2.818608 1_555
Ag0 Sn1 3.055252 1_555
Ag0 Ho0 3.156718 1_565
Ag0 Ho0 3.156722 1_555
Ag0 Ho0 3.156722 1_665
Ag0 Ho1 3.368236 1_565
Ag0 Ho1 3.368239 1_665
Ag0 Ho1 3.368239 1_555
Ag1 Sn0 3.055252 1_555
Ag1 Ho1 3.156718 1_655
Ag1 Ho1 3.156722 1_555
Ag1 Ho1 3.156722 1_665
Ag1 Ho0 3.368236 1_655
Ag1 Ho0 3.368239 1_665
Ag1 Ho0 3.368239 1_555
Sn0 Sn1 2.929377 1_546
Sn0 Sn1 2.929377 1_656
Sn0 Sn1 2.929384 1_556
