# generated using pymatgen
data_Er3Ga8Ir3
_symmetry_space_group_name_H-M   'P 1'
_cell_length_a   8.15252234
_cell_length_b   8.15252234
_cell_length_c   8.15252234
_cell_angle_alpha   150.22785051
_cell_angle_beta   105.01208528
_cell_angle_gamma   82.70201636
_symmetry_Int_Tables_number   1
_chemical_formula_structural   Er3Ga8Ir3
_chemical_formula_sum   'Er3 Ga8 Ir3'
_cell_volume   254.41146506
_cell_formula_units_Z   1
loop_
 _symmetry_equiv_pos_site_id
 _symmetry_equiv_pos_as_xyz
  1  'x, y, z'
loop_
 _atom_site_type_symbol
 _atom_site_label
 _atom_site_symmetry_multiplicity
 _atom_site_fract_x
 _atom_site_fract_y
 _atom_site_fract_z
 _atom_site_occupancy
  Er  Er0  1  0.50000000  0.50000000  0.00000000  1
  Er  Er1  1  0.17128600  0.17128600  0.00000000  1
  Er  Er2  1  0.82871400  0.82871400  0.00000000  1
  Ga  Ga0  1  0.66070400  0.37421500  0.28648900  1
  Ga  Ga1  1  0.33929600  0.62578500  0.71351100  1
  Ga  Ga2  1  0.08772500  0.37421500  0.71351100  1
  Ga  Ga3  1  0.91227500  0.62578500  0.28648900  1
  Ga  Ga4  1  0.53809600  0.16594700  0.37214900  1
  Ga  Ga5  1  0.46190400  0.83405300  0.62785100  1
  Ga  Ga6  1  0.79379800  0.16594700  0.62785100  1
  Ga  Ga7  1  0.20620200  0.83405300  0.37214900  1
  Ir  Ir0  1  0.00000000  0.50000000  0.50000000  1
  Ir  Ir1  1  0.21477300  0.00000000  0.21477300  1
  Ir  Ir2  1  0.78522700  0.00000000  0.78522700  1
loop_
_geom_bond_atom_site_label_1
_geom_bond_atom_site_label_2
_geom_bond_distance
_geom_bond_site_symmetry_2
Er0 Ga7 3.181506 1_544
Er0 Ga6 3.181506 1_554
Er0 Ga5 3.181506 1_544
Er0 Ga5 3.181506 1_555
Er0 Ga4 3.181506 1_554
Er0 Ga4 3.181506 1_565
Er0 Ga7 3.181506 1_555
Er0 Ga6 3.181506 1_565
Er0 Ga0 3.233338 1_555
Er0 Ga1 3.233338 1_554
Er0 Ga3 3.233346 1_555
Er0 Ga2 3.233346 1_554
Er1 Ir0 2.963396 1_544
Er1 Ir0 2.963396 1_555
Er1 Ir2 2.989769 1_454
Er1 Ir1 2.989769 1_555
Er1 Ga3 3.030946 1_455
Er1 Ga3 3.030948 1_444
Er1 Ga1 3.030952 1_555
Er1 Ga1 3.030952 1_544
Er1 Ga7 3.156799 1_544
Er1 Ga5 3.156799 1_544
Er1 Ga7 3.156799 1_555
Er1 Ga5 3.156799 1_555
Er2 Ir0 2.963396 1_665
Er2 Ir0 2.963396 1_654
Er2 Ir2 2.989769 1_564
Er2 Ir1 2.989769 1_665
Er2 Ga2 3.030946 1_654
Er2 Ga2 3.030948 1_665
Er2 Ga0 3.030952 1_565
Er2 Ga0 3.030952 1_554
Er2 Ga6 3.156799 1_554
Er2 Ga4 3.156799 1_554
Er2 Ga4 3.156799 1_565
Er2 Ga6 3.156799 1_565
Ga0 Ir2 2.599393 1_554
Ga0 Ir2 2.599393 1_565
Ga0 Ir0 2.619247 1_655
Ga0 Ga5 2.665852 1_544
Ga0 Ga5 2.665852 1_555
Ga0 Ga4 2.687182 1_555
Ga1 Ir1 2.599393 1_555
Ga1 Ir1 2.599393 1_566
Ga1 Ir0 2.619247 1_555
Ga1 Ga4 2.665852 1_566
Ga1 Ga4 2.665852 1_555
Ga1 Ga5 2.687182 1_555
Ga2 Ir1 2.599395 1_566
Ga2 Ir1 2.599399 1_555
Ga2 Ir0 2.619247 1_555
Ga2 Ga7 2.665852 1_556
Ga2 Ga7 2.665856 1_545
Ga2 Ga6 2.687175 1_455
Ga3 Ir2 2.599395 1_554
Ga3 Ir2 2.599399 1_565
Ga3 Ir0 2.619247 1_655
Ga3 Ga6 2.665852 1_554
Ga3 Ga6 2.665856 1_565
Ga3 Ga7 2.687175 1_655
Ga4 Ga6 2.537719 1_555
Ga4 Ir1 2.562242 1_555
Ga5 Ga7 2.537719 1_555
Ga5 Ir2 2.562242 1_565
Ga6 Ir2 2.562242 1_555
Ga7 Ir1 2.562242 1_565
