# generated using pymatgen
data_BaMg6CuO8
_symmetry_space_group_name_H-M   'P 1'
_cell_length_a   9.30106582
_cell_length_b   4.51509193
_cell_length_c   4.51509193
_cell_angle_alpha   90.00000000
_cell_angle_beta   90.00000000
_cell_angle_gamma   90.00000000
_symmetry_Int_Tables_number   1
_chemical_formula_structural   BaMg6CuO8
_chemical_formula_sum   'Ba1 Mg6 Cu1 O8'
_cell_volume   189.61204063
_cell_formula_units_Z   1
loop_
 _symmetry_equiv_pos_site_id
 _symmetry_equiv_pos_as_xyz
  1  'x, y, z'
loop_
 _atom_site_type_symbol
 _atom_site_label
 _atom_site_symmetry_multiplicity
 _atom_site_fract_x
 _atom_site_fract_y
 _atom_site_fract_z
 _atom_site_occupancy
  Ba  Ba0  1  -0.00000000  0.50000000  0.50000000  1
  Mg  Mg0  1  0.50000000  0.00000000  0.00000000  1
  Mg  Mg1  1  0.50000000  0.50000000  0.50000000  1
  Mg  Mg2  1  0.27831992  -0.00000000  0.50000000  1
  Mg  Mg3  1  0.72168008  0.00000000  0.50000000  1
  Mg  Mg4  1  0.27831992  0.50000000  -0.00000000  1
  Mg  Mg5  1  0.72168008  0.50000000  0.00000000  1
  Cu  Cu0  1  0.00000000  -0.00000000  0.00000000  1
  O  O0  1  0.27520700  -0.00000000  -0.00000000  1
  O  O1  1  0.72479300  0.00000000  0.00000000  1
  O  O2  1  0.28286239  0.50000000  0.50000000  1
  O  O3  1  0.71713761  0.50000000  0.50000000  1
  O  O4  1  0.00000000  -0.00000000  0.50000000  1
  O  O5  1  0.50000000  0.00000000  0.50000000  1
  O  O6  1  -0.00000000  0.50000000  0.00000000  1
  O  O7  1  0.50000000  0.50000000  0.00000000  1
loop_
_geom_bond_atom_site_label_1
_geom_bond_atom_site_label_2
_geom_bond_distance
_geom_bond_site_symmetry_2
Ba0 O6 2.257546 1_556
Ba0 O6 2.257546 1_555
Ba0 O4 2.257546 1_555
Ba0 O4 2.257546 1_565
Ba0 O3 2.630922 1_455
Ba0 O2 2.630922 1_555
Mg0 O0 2.090814 1_555
Mg0 O1 2.090814 1_555
Mg0 O7 2.257546 1_555
Mg0 O5 2.257546 1_554
Mg0 O5 2.257546 1_555
Mg0 O7 2.257546 1_545
Mg1 O2 2.019611 1_555
Mg1 O3 2.019611 1_555
Mg1 O7 2.257546 1_555
Mg1 O7 2.257546 1_556
Mg1 O5 2.257546 1_555
Mg1 O5 2.257546 1_565
Mg2 O5 2.061861 1_555
Mg2 O0 2.257732 1_555
Mg2 O0 2.257732 1_556
Mg2 O2 2.257941 1_555
Mg2 O2 2.257941 1_545
Mg2 O4 2.588672 1_555
Mg3 O5 2.061861 1_555
Mg3 O1 2.257732 1_555
Mg3 O1 2.257732 1_556
Mg3 O3 2.257941 1_555
Mg3 O3 2.257941 1_545
Mg3 O4 2.588672 1_655
Mg4 O7 2.061861 1_555
Mg4 O0 2.257732 1_555
Mg4 O0 2.257732 1_565
Mg4 O2 2.257941 1_555
Mg4 O2 2.257941 1_554
Mg4 O6 2.588672 1_555
Mg5 O7 2.061861 1_555
Mg5 O1 2.257732 1_555
Mg5 O1 2.257732 1_565
Mg5 O3 2.257941 1_555
Mg5 O3 2.257941 1_554
Mg5 O6 2.588672 1_655
Cu0 O6 2.257546 1_555
Cu0 O4 2.257546 1_555
Cu0 O4 2.257546 1_554
Cu0 O6 2.257546 1_545
Cu0 O0 2.559718 1_555
Cu0 O1 2.559718 1_455
