# generated using pymatgen
data_La3Pr(CoP)8
_symmetry_space_group_name_H-M   'P 1'
_cell_length_a   3.75405200
_cell_length_b   3.75405200
_cell_length_c   22.52899200
_cell_angle_alpha   90.00000000
_cell_angle_beta   90.00000000
_cell_angle_gamma   90.00000000
_symmetry_Int_Tables_number   1
_chemical_formula_structural   La3Pr(CoP)8
_chemical_formula_sum   'La3 Pr1 Co8 P8'
_cell_volume   317.49897596
_cell_formula_units_Z   1
loop_
 _symmetry_equiv_pos_site_id
 _symmetry_equiv_pos_as_xyz
  1  'x, y, z'
loop_
 _atom_site_type_symbol
 _atom_site_label
 _atom_site_symmetry_multiplicity
 _atom_site_fract_x
 _atom_site_fract_y
 _atom_site_fract_z
 _atom_site_occupancy
  La  La0  1  0.00000000  0.00000000  0.24978000  1
  La  La1  1  0.50000000  0.50000000  0.50000000  1
  La  La2  1  0.00000000  0.00000000  0.75022000  1
  Pr  Pr0  1  0.50000000  0.50000000  0.00000000  1
  Co  Co0  1  0.00000000  0.50000000  0.12355500  1
  Co  Co1  1  0.50000000  0.00000000  0.37502900  1
  Co  Co2  1  0.00000000  0.50000000  0.62497100  1
  Co  Co3  1  0.50000000  0.00000000  0.87644500  1
  Co  Co4  1  0.50000000  0.00000000  0.12355500  1
  Co  Co5  1  0.00000000  0.50000000  0.37502900  1
  Co  Co6  1  0.50000000  0.00000000  0.62497100  1
  Co  Co7  1  0.00000000  0.50000000  0.87644500  1
  P  P0  1  0.50000000  0.50000000  0.17532600  1
  P  P1  1  0.00000000  0.00000000  0.42683200  1
  P  P2  1  0.50000000  0.50000000  0.67703500  1
  P  P3  1  0.00000000  0.00000000  0.92879700  1
  P  P4  1  0.00000000  0.00000000  0.07120300  1
  P  P5  1  0.50000000  0.50000000  0.32296500  1
  P  P6  1  0.00000000  0.00000000  0.57316800  1
  P  P7  1  0.50000000  0.50000000  0.82467400  1
loop_
_geom_bond_atom_site_label_1
_geom_bond_atom_site_label_2
_geom_bond_distance
_geom_bond_site_symmetry_2
La0 P5 3.124891 1_555
La0 P5 3.124891 1_455
La0 P5 3.124891 1_445
La0 P5 3.124891 1_545
La0 P0 3.140069 1_455
La0 P0 3.140069 1_445
La0 P0 3.140069 1_545
La0 P0 3.140069 1_555
La1 P1 3.124689 1_665
La1 P1 3.124689 1_555
La1 P1 3.124689 1_655
La1 P6 3.124689 1_565
La1 P6 3.124689 1_655
La1 P6 3.124689 1_665
La1 P6 3.124689 1_555
La1 P1 3.124689 1_565
La2 P2 3.124891 1_455
La2 P2 3.124891 1_545
La2 P2 3.124891 1_555
La2 P2 3.124891 1_445
La2 P7 3.140069 1_455
La2 P7 3.140069 1_445
La2 P7 3.140069 1_555
La2 P7 3.140069 1_545
Co0 P0 2.209886 1_555
Co0 P0 2.209886 1_455
Co0 P4 2.216822 1_555
Co0 P4 2.216822 1_565
Co1 P1 2.210266 1_555
Co1 P1 2.210266 1_655
Co1 P5 2.213377 1_555
Co1 P5 2.213377 1_545
Co2 P6 2.210266 1_565
Co2 P6 2.210266 1_555
Co2 P2 2.213377 1_555
Co2 P2 2.213377 1_455
Co3 P7 2.209886 1_555
Co3 P7 2.209886 1_545
Co3 P3 2.216822 1_555
Co3 P3 2.216822 1_655
Co4 P0 2.209886 1_545
Co4 P0 2.209886 1_555
Co4 P4 2.216822 1_555
Co4 P4 2.216822 1_655
Co5 P1 2.210266 1_565
Co5 P1 2.210266 1_555
Co5 P5 2.213377 1_555
Co5 P5 2.213377 1_455
Co6 P6 2.210266 1_555
Co6 P6 2.210266 1_655
Co6 P2 2.213377 1_545
Co6 P2 2.213377 1_555
Co7 P7 2.209886 1_555
Co7 P7 2.209886 1_455
Co7 P3 2.216822 1_565
Co7 P3 2.216822 1_555
P3 Pr0 3.101563 1_446
P3 Pr0 3.101563 1_546
P3 Pr0 3.101563 1_456
P3 Pr0 3.101563 1_556
P4 Pr0 3.101563 1_545
P4 Pr0 3.101563 1_445
P4 Pr0 3.101563 1_455
P4 Pr0 3.101563 1_555
