# generated using pymatgen
data_Ca2Ni3O8
_symmetry_space_group_name_H-M   'P 1'
_cell_length_a   5.82906306
_cell_length_b   5.82906306
_cell_length_c   10.39934900
_cell_angle_alpha   90.00000000
_cell_angle_beta   90.00000000
_cell_angle_gamma   120.00001207
_symmetry_Int_Tables_number   1
_chemical_formula_structural   Ca2Ni3O8
_chemical_formula_sum   'Ca4 Ni6 O16'
_cell_volume   306.00902837
_cell_formula_units_Z   2
loop_
 _symmetry_equiv_pos_site_id
 _symmetry_equiv_pos_as_xyz
  1  'x, y, z'
loop_
 _atom_site_type_symbol
 _atom_site_label
 _atom_site_symmetry_multiplicity
 _atom_site_fract_x
 _atom_site_fract_y
 _atom_site_fract_z
 _atom_site_occupancy
  Ca  Ca0  1  0.66666700  0.33333300  0.02755200  1
  Ca  Ca1  1  0.33333300  0.66666700  0.52755200  1
  Ca  Ca2  1  0.66666700  0.33333300  0.43389200  1
  Ca  Ca3  1  0.33333300  0.66666700  0.93389200  1
  Ni  Ni0  1  0.67016500  0.83508200  0.24651200  1
  Ni  Ni1  1  0.83508200  0.16491800  0.74651200  1
  Ni  Ni2  1  0.16491800  0.32983500  0.24651200  1
  Ni  Ni3  1  0.83508200  0.67016500  0.74651200  1
  Ni  Ni4  1  0.32983500  0.16491800  0.74651200  1
  Ni  Ni5  1  0.16491800  0.83508200  0.24651200  1
  O  O0  1  0.84813700  0.15186300  0.15514300  1
  O  O1  1  0.69627400  0.84813700  0.65514300  1
  O  O2  1  0.15186300  0.30372600  0.65514300  1
  O  O3  1  0.84813700  0.69627400  0.15514300  1
  O  O4  1  0.30372600  0.15186300  0.15514300  1
  O  O5  1  0.15186300  0.84813700  0.65514300  1
  O  O6  1  0.52177900  0.47822100  0.84487000  1
  O  O7  1  0.04355900  0.52177900  0.34487000  1
  O  O8  1  0.47822100  0.95644100  0.34487000  1
  O  O9  1  0.52177900  0.04355900  0.84487000  1
  O  O10  1  0.00000000  0.00000000  0.33828200  1
  O  O11  1  0.00000000  0.00000000  0.83828200  1
  O  O12  1  0.33333300  0.66666700  0.15420300  1
  O  O13  1  0.95644100  0.47822100  0.84487000  1
  O  O14  1  0.47822100  0.52177900  0.34487000  1
  O  O15  1  0.66666700  0.33333300  0.65420300  1
loop_
_geom_bond_atom_site_label_1
_geom_bond_atom_site_label_2
_geom_bond_distance
_geom_bond_site_symmetry_2
Ca0 O0 2.262165 1_555
Ca0 O3 2.262169 1_555
Ca0 O4 2.262169 1_555
Ca0 O9 2.397699 1_554
Ca0 O13 2.397699 1_554
Ca0 O6 2.397706 1_554
Ca1 O5 2.262165 1_555
Ca1 O1 2.262169 1_555
Ca1 O2 2.262169 1_555
Ca1 O7 2.397699 1_555
Ca1 O8 2.397699 1_555
Ca1 O14 2.397706 1_555
Ca2 O7 2.115873 1_655
Ca2 O8 2.115873 1_545
Ca2 O14 2.115873 1_555
Ca2 O15 2.291091 1_555
Ca3 O9 2.115873 1_565
Ca3 O13 2.115873 1_455
Ca3 O6 2.115873 1_555
Ca3 O12 2.291091 1_556
Ni0 O3 1.863632 1_555
Ni0 O0 1.863636 1_565
Ni0 O14 1.894727 1_555
Ni0 O8 1.894727 1_555
Ni0 O10 1.919155 1_665
Ni0 O12 1.952629 1_555
Ni1 O1 1.863636 1_545
Ni1 O2 1.863636 1_655
Ni1 O13 1.894727 1_555
Ni1 O9 1.894727 1_555
Ni1 O11 1.919160 1_655
Ni1 O15 1.952620 1_555
Ni2 O4 1.863632 1_555
Ni2 O0 1.863636 1_455
Ni2 O14 1.894727 1_555
Ni2 O7 1.894727 1_555
Ni2 O10 1.919155 1_555
Ni2 O12 1.952629 1_555
Ni3 O1 1.863632 1_555
Ni3 O5 1.863636 1_655
Ni3 O6 1.894727 1_555
Ni3 O13 1.894727 1_555
Ni3 O11 1.919155 1_665
Ni3 O15 1.952629 1_555
Ni4 O2 1.863632 1_555
Ni4 O5 1.863636 1_545
Ni4 O6 1.894727 1_555
Ni4 O9 1.894727 1_555
Ni4 O11 1.919155 1_555
Ni4 O15 1.952629 1_555
Ni5 O3 1.863636 1_455
Ni5 O4 1.863636 1_565
Ni5 O7 1.894727 1_555
Ni5 O8 1.894727 1_555
Ni5 O10 1.919160 1_565
Ni5 O12 1.952620 1_555
