# generated using pymatgen
data_KN
_symmetry_space_group_name_H-M   'P 1'
_cell_length_a   4.10906100
_cell_length_b   4.10906100
_cell_length_c   5.78509800
_cell_angle_alpha   90.00000000
_cell_angle_beta   90.00000000
_cell_angle_gamma   90.00000000
_symmetry_Int_Tables_number   1
_chemical_formula_structural   KN
_chemical_formula_sum   'K2 N2'
_cell_volume   97.67780628
_cell_formula_units_Z   2
loop_
 _symmetry_equiv_pos_site_id
 _symmetry_equiv_pos_as_xyz
  1  'x, y, z'
loop_
 _atom_site_type_symbol
 _atom_site_label
 _atom_site_symmetry_multiplicity
 _atom_site_fract_x
 _atom_site_fract_y
 _atom_site_fract_z
 _atom_site_occupancy
  K  K0  1  0.00000000  0.50000000  0.24734400  1
  K  K1  1  0.50000000  0.00000000  0.75265600  1
  N  N0  1  0.00000000  0.50000000  0.74300500  1
  N  N1  1  0.50000000  0.00000000  0.25699500  1
loop_
_geom_bond_atom_site_label_1
_geom_bond_atom_site_label_2
_geom_bond_distance
_geom_bond_site_symmetry_2
K0 N0 2.867447 1_555
K0 N1 2.906081 1_565
K0 N1 2.906081 1_555
K0 N1 2.906081 1_465
K0 N1 2.906081 1_455
K0 N0 2.917651 1_554
K1 N1 2.867447 1_555
K1 N0 2.906081 1_545
K1 N0 2.906081 1_645
K1 N0 2.906081 1_655
K1 N0 2.906081 1_555
K1 N1 2.917651 1_556
