# generated using pymatgen
data_MnFeCo(PO4)3
_symmetry_space_group_name_H-M   'P 1'
_cell_length_a   5.95631400
_cell_length_b   9.92872900
_cell_length_c   14.59209316
_cell_angle_alpha   89.48775836
_cell_angle_beta   90.00000000
_cell_angle_gamma   90.00000000
_symmetry_Int_Tables_number   1
_chemical_formula_structural   MnFeCo(PO4)3
_chemical_formula_sum   'Mn4 Fe4 Co4 P12 O48'
_cell_volume   862.92187521
_cell_formula_units_Z   4
loop_
 _symmetry_equiv_pos_site_id
 _symmetry_equiv_pos_as_xyz
  1  'x, y, z'
loop_
 _atom_site_type_symbol
 _atom_site_label
 _atom_site_symmetry_multiplicity
 _atom_site_fract_x
 _atom_site_fract_y
 _atom_site_fract_z
 _atom_site_occupancy
  Mn  Mn0  1  0.50000000  0.78240000  0.14678400  1
  Mn  Mn1  1  0.50000000  0.78138900  0.48098800  1
  Mn  Mn2  1  0.00000000  0.71358900  0.64720300  1
  Mn  Mn3  1  0.50000000  0.28313000  0.01984500  1
  Fe  Fe0  1  0.50000000  0.77782900  0.81952000  1
  Fe  Fe1  1  0.00000000  0.72302600  0.32180200  1
  Fe  Fe2  1  0.00000000  0.72686200  0.98752000  1
  Fe  Fe3  1  0.50000000  0.27608400  0.34685800  1
  Co  Co0  1  0.50000000  0.27636200  0.67933800  1
  Co  Co1  1  0.00000000  0.22306700  0.18283100  1
  Co  Co2  1  0.00000000  0.22028700  0.51863400  1
  Co  Co3  1  0.00000000  0.21841200  0.84805000  1
  P  P0  1  0.00000000  0.90345500  0.47219600  1
  P  P1  1  0.00000000  0.90622300  0.13820000  1
  P  P2  1  0.00000000  0.90243700  0.80324600  1
  P  P3  1  0.50000000  0.59972700  0.97359300  1
  P  P4  1  0.50000000  0.60108100  0.30635100  1
  P  P5  1  0.50000000  0.59646300  0.63974700  1
  P  P6  1  0.00000000  0.40179800  0.02780300  1
  P  P7  1  0.00000000  0.39938700  0.36303700  1
  P  P8  1  0.00000000  0.39971700  0.69542300  1
  P  P9  1  0.50000000  0.09844600  0.19222600  1
  P  P10  1  0.50000000  0.09618600  0.52754900  1
  P  P11  1  0.50000000  0.10023400  0.85914500  1
  O  O0  1  0.50000000  0.94737500  0.21554200  1
  O  O1  1  0.50000000  0.94477100  0.55200000  1
  O  O2  1  0.50000000  0.95003000  0.88335400  1
  O  O3  1  0.00000000  0.87938100  0.57631500  1
  O  O4  1  0.00000000  0.88264900  0.24142100  1
  O  O5  1  0.00000000  0.88270300  0.90821400  1
  O  O6  1  0.19929200  0.83033500  0.08861200  1
  O  O7  1  0.80070800  0.83033500  0.08861200  1
  O  O8  1  0.80066500  0.82835700  0.42263500  1
  O  O9  1  0.19933500  0.82835700  0.42263500  1
  O  O10  1  0.20477500  0.82824900  0.75819700  1
  O  O11  1  0.79522500  0.82824900  0.75819700  1
  O  O12  1  0.70120000  0.67291300  0.92509300  1
  O  O13  1  0.29880000  0.67291300  0.92509300  1
  O  O14  1  0.29581900  0.67351700  0.25959100  1
  O  O15  1  0.70418100  0.67351700  0.25959100  1
  O  O16  1  0.70174200  0.66762800  0.59009400  1
  O  O17  1  0.29825800  0.66762800  0.59009400  1
  O  O18  1  0.50000000  0.61892300  0.07857000  1
  O  O19  1  0.50000000  0.61708300  0.74309500  1
  O  O20  1  0.50000000  0.61934600  0.41168300  1
  O  O21  1  0.00000000  0.55231300  0.05075900  1
  O  O22  1  0.00000000  0.54965400  0.38609600  1
  O  O23  1  0.00000000  0.55157800  0.71861000  1
  O  O24  1  0.50000000  0.44853100  0.95260100  1
  O  O25  1  0.50000000  0.45005200  0.28626600  1
  O  O26  1  0.50000000  0.44318400  0.61902000  1
  O  O27  1  0.00000000  0.38194700  0.25824300  1
  O  O28  1  0.00000000  0.38319000  0.59063700  1
  O  O29  1  0.00000000  0.38150800  0.92487600  1
  O  O30  1  0.19977000  0.32752100  0.07907700  1
  O  O31  1  0.80023000  0.32752100  0.07907700  1
  O  O32  1  0.20237000  0.32427800  0.41061700  1
  O  O33  1  0.79763000  0.32427800  0.41061700  1
  O  O34  1  0.20102200  0.32807100  0.74455600  1
  O  O35  1  0.79897800  0.32807100  0.74455600  1
  O  O36  1  0.70442500  0.16990600  0.57502800  1
  O  O37  1  0.29557500  0.16990600  0.57502800  1
  O  O38  1  0.70164500  0.17232400  0.24061200  1
  O  O39  1  0.29835500  0.17232400  0.24061200  1
  O  O40  1  0.70439700  0.17373100  0.90505200  1
  O  O41  1  0.29560300  0.17373100  0.90505200  1
  O  O42  1  0.50000000  0.11556100  0.42356600  1
  O  O43  1  0.50000000  0.12084100  0.75363400  1
  O  O44  1  0.50000000  0.11719000  0.08763500  1
  O  O45  1  0.00000000  0.05591500  0.11303000  1
  O  O46  1  0.00000000  0.05291700  0.44874100  1
  O  O47  1  0.00000000  0.05283000  0.77795700  1
loop_
_geom_bond_atom_site_label_1
_geom_bond_atom_site_label_2
_geom_bond_distance
_geom_bond_site_symmetry_2
Mn0 O18 1.911595 1_555
Mn0 O0 1.928487 1_555
Mn0 O6 2.036644 1_555
Mn0 O7 2.036644 1_555
Mn0 O15 2.307719 1_555
Mn0 O14 2.307719 1_555
Mn1 O20 1.907965 1_555
Mn1 O1 1.932679 1_555
Mn1 O8 2.035330 1_555
Mn1 O9 2.035330 1_555
Mn1 O16 2.285233 1_555
Mn1 O17 2.285233 1_555
Mn2 O23 1.908723 1_555
Mn2 O3 1.936286 1_555
Mn2 O16 2.016312 1_455
Mn2 O17 2.016312 1_555
Mn2 O10 2.332355 1_555
Mn2 O11 2.332355 1_455
Mn3 O24 1.905490 1_554
Mn3 O44 1.914124 1_555
Mn3 O30 2.036174 1_555
Mn3 O31 2.036174 1_555
Mn3 O40 2.345293 1_554
Mn3 O41 2.345293 1_554
Fe0 O2 1.954307 1_555
Fe0 O19 1.955179 1_555
Fe0 O11 2.033587 1_555
Fe0 O10 2.033587 1_555
Fe0 O12 2.205863 1_555
Fe0 O13 2.205863 1_555
Fe1 O22 1.953050 1_555
Fe1 O4 1.963232 1_555
Fe1 O14 2.044090 1_555
Fe1 O15 2.044090 1_455
Fe1 O8 2.166983 1_455
Fe1 O9 2.166983 1_555
Fe2 O5 1.923886 1_555
Fe2 O21 1.956120 1_556
Fe2 O12 2.071944 1_455
Fe2 O13 2.071944 1_555
Fe2 O6 2.160482 1_556
Fe2 O7 2.160482 1_456
Fe3 O25 1.933375 1_555
Fe3 O42 1.939373 1_555
Fe3 O33 2.060405 1_555
Fe3 O32 2.060405 1_555
Fe3 O38 2.221715 1_555
Fe3 O39 2.221715 1_555
Co0 O26 1.868704 1_555
Co0 O43 1.878760 1_555
Co0 O35 2.085489 1_555
Co0 O34 2.085489 1_555
Co0 O37 2.223814 1_555
Co0 O36 2.223814 1_555
Co1 O27 1.931422 1_555
Co1 O45 1.954981 1_555
Co1 O39 2.028595 1_555
Co1 O38 2.028595 1_455
Co1 O31 2.180710 1_455
Co1 O30 2.180710 1_555
Co2 O28 1.936582 1_555
Co2 O46 1.957538 1_555
Co2 O37 2.004876 1_555
Co2 O36 2.004876 1_455
Co2 O33 2.230310 1_455
Co2 O32 2.230310 1_555
Co3 O47 1.943963 1_555
Co3 O29 1.977743 1_555
Co3 O40 1.995530 1_455
Co3 O41 1.995530 1_555
Co3 O35 2.206890 1_455
Co3 O34 2.206890 1_555
O0 P9 1.535077 1_565
O1 P10 1.542010 1_565
O2 P11 1.529527 1_565
O3 P0 1.535889 1_555
O4 P1 1.522219 1_555
O5 P2 1.542445 1_555
O6 P1 1.584339 1_555
O7 P1 1.584339 1_655
O8 P0 1.580603 1_655
O9 P0 1.580603 1_555
O10 P2 1.571950 1_555
O11 P2 1.571950 1_655
O12 P3 1.567120 1_555
O13 P3 1.567120 1_555
O14 P4 1.566237 1_555
O15 P4 1.566237 1_555
O16 P5 1.568118 1_555
O17 P5 1.568118 1_555
O18 P3 1.545335 1_554
O19 P5 1.523710 1_555
O20 P4 1.549285 1_555
O21 P6 1.534425 1_555
O22 P7 1.532364 1_555
O23 P8 1.548232 1_555
O24 P3 1.534798 1_555
O25 P4 1.530468 1_555
O26 P5 1.554278 1_555
O27 P7 1.540474 1_555
O28 P8 1.539285 1_555
O29 P6 1.517155 1_556
O30 P6 1.584186 1_555
O31 P6 1.584186 1_655
O32 P7 1.575388 1_555
O33 P7 1.575388 1_655
O34 P8 1.563513 1_555
O35 P8 1.563513 1_655
O36 P10 1.583479 1_555
O37 P10 1.583479 1_555
O38 P9 1.577454 1_555
O39 P9 1.577454 1_555
O40 P11 1.572316 1_555
O41 P11 1.572316 1_555
O42 P10 1.527768 1_555
O43 P11 1.551347 1_555
O44 P9 1.535854 1_555
O45 P1 1.527769 1_545
O46 P0 1.519940 1_545
O47 P2 1.534928 1_545
