# generated using pymatgen
data_BaP3H10C3NO9
_symmetry_space_group_name_H-M   'P 1'
_cell_length_a   7.75704724
_cell_length_b   8.72310502
_cell_length_c   9.15236567
_cell_angle_alpha   102.13287001
_cell_angle_beta   95.45954231
_cell_angle_gamma   106.15405029
_symmetry_Int_Tables_number   1
_chemical_formula_structural   BaP3H10C3NO9
_chemical_formula_sum   'Ba2 P6 H20 C6 N2 O18'
_cell_volume   573.72643443
_cell_formula_units_Z   2
loop_
 _symmetry_equiv_pos_site_id
 _symmetry_equiv_pos_as_xyz
  1  'x, y, z'
loop_
 _atom_site_type_symbol
 _atom_site_label
 _atom_site_symmetry_multiplicity
 _atom_site_fract_x
 _atom_site_fract_y
 _atom_site_fract_z
 _atom_site_occupancy
  Ba  Ba0  1  0.61054900  0.77540400  0.44411100  1
  Ba  Ba1  1  0.38945100  0.22459600  0.55588900  1
  P  P0  1  0.78888900  0.16277100  0.81908900  1
  P  P1  1  0.21111100  0.83722900  0.18091100  1
  P  P2  1  0.86882900  0.18530000  0.40685000  1
  P  P3  1  0.13117100  0.81470000  0.59315000  1
  P  P4  1  0.49008400  0.39349300  0.18726000  1
  P  P5  1  0.50991600  0.60650700  0.81274000  1
  H  H0  1  0.98719000  0.30044100  0.70036400  1
  H  H1  1  0.01281000  0.69955900  0.29963600  1
  H  H2  1  0.00113600  0.00411700  0.28681400  1
  H  H3  1  0.99886400  0.99588300  0.71318600  1
  H  H4  1  0.33260400  0.38048900  0.97003600  1
  H  H5  1  0.66739600  0.61951100  0.02996400  1
  H  H6  1  0.80995400  0.39610100  0.09914100  1
  H  H7  1  0.19004600  0.60389900  0.90085900  1
  H  H8  1  0.99855200  0.19952300  0.04598800  1
  H  H9  1  0.00144800  0.80047700  0.95401200  1
  H  H10  1  0.79038700  0.04430900  0.03953000  1
  H  H11  1  0.20961300  0.95569100  0.96047000  1
  H  H12  1  0.04424400  0.36855100  0.27233400  1
  H  H13  1  0.95575600  0.63144900  0.72766600  1
  H  H14  1  0.87407800  0.44325400  0.35370300  1
  H  H15  1  0.12592200  0.55674600  0.64629700  1
  H  H16  1  0.52501900  0.16086100  0.01283200  1
  H  H17  1  0.47498100  0.83913900  0.98716800  1
  H  H18  1  0.56142200  0.13839400  0.20466600  1
  H  H19  1  0.43857800  0.86160600  0.79533400  1
  C  C0  1  0.84970400  0.16642100  0.02006300  1
  C  C1  1  0.15029600  0.83357900  0.97993700  1
  C  C2  1  0.90125300  0.33384200  0.28820700  1
  C  C3  1  0.09874700  0.66615800  0.71179300  1
  C  C4  1  0.58638400  0.22358700  0.13080800  1
  C  C5  1  0.41361600  0.77641300  0.86919200  1
  N  N0  1  0.78849200  0.28609800  0.13205000  1
  N  N1  1  0.21150800  0.71390200  0.86795000  1
  O  O0  1  0.81316100  0.00298600  0.72933300  1
  O  O1  1  0.18683900  0.99701400  0.27066700  1
  O  O2  1  0.60277100  0.18398000  0.79326800  1
  O  O3  1  0.39722900  0.81602000  0.20673200  1
  O  O4  1  0.94759000  0.31816500  0.80423800  1
  O  O5  1  0.05241000  0.68183500  0.19576200  1
  O  O6  1  0.68337200  0.15474500  0.45416600  1
  O  O7  1  0.31662800  0.84525500  0.54583400  1
  O  O8  1  0.03505600  0.26257400  0.53158700  1
  O  O9  1  0.96494400  0.73742600  0.46841300  1
  O  O10  1  0.87259200  0.01441900  0.30521800  1
  O  O11  1  0.12740800  0.98558100  0.69478200  1
  O  O12  1  0.63188100  0.54769800  0.16931100  1
  O  O13  1  0.36811900  0.45230200  0.83068900  1
  O  O14  1  0.44395500  0.40563600  0.34460400  1
  O  O15  1  0.55604500  0.59436400  0.65539600  1
  O  O16  1  0.30943900  0.34179200  0.06713500  1
  O  O17  1  0.69056100  0.65820800  0.93286500  1
loop_
_geom_bond_atom_site_label_1
_geom_bond_atom_site_label_2
_geom_bond_distance
_geom_bond_site_symmetry_2
Ba0 O7 2.715644 1_555
Ba0 O15 2.734940 1_555
Ba0 O3 2.747631 1_555
Ba0 O9 2.852707 1_555
Ba0 O12 2.908687 1_555
Ba0 O0 2.920690 1_565
Ba0 O14 3.020800 1_555
Ba0 O10 3.056525 1_565
Ba0 O6 3.177929 1_565
Ba1 O6 2.715644 1_555
Ba1 O14 2.734940 1_555
Ba1 O2 2.747631 1_555
Ba1 O8 2.852707 1_555
Ba1 O13 2.908687 1_555
Ba1 O1 2.920690 1_545
Ba1 O15 3.020800 1_555
Ba1 O11 3.056525 1_545
Ba1 O7 3.177929 1_545
H0 O4 1.020926 1_555
H0 O8 1.611209 1_655
H1 O5 1.020926 1_555
H1 O9 1.611209 1_455
H2 O10 1.051740 1_455
H2 O1 1.478872 1_545
H3 O11 1.051740 1_655
H3 O0 1.478872 1_565
H4 O16 1.028947 1_556
H4 O13 1.549679 1_555
H5 O17 1.028947 1_554
H5 O12 1.549679 1_555
H6 N0 1.039878 1_555
H7 N1 1.039878 1_555
C0 H10 1.095789 1_555
C0 H8 1.098352 1_555
C0 N0 1.511444 1_555
C0 P0 1.846297 1_554
C1 H11 1.095789 1_555
C1 H9 1.098352 1_555
C1 N1 1.511444 1_555
C1 P1 1.846297 1_556
C2 H12 1.097887 1_655
C2 H14 1.100078 1_555
C2 N0 1.513398 1_555
C2 P2 1.839401 1_555
C3 H13 1.097887 1_455
C3 H15 1.100078 1_555
C3 N1 1.513398 1_555
C3 P3 1.839401 1_555
C4 H16 1.095799 1_555
C4 H18 1.096680 1_555
C4 N0 1.507865 1_555
C4 P4 1.840981 1_555
C5 H17 1.095799 1_555
C5 H19 1.096680 1_555
C5 N1 1.507865 1_555
C5 P5 1.840981 1_555
O0 P0 1.532045 1_555
O1 P1 1.532045 1_555
O2 P0 1.508809 1_555
O3 P1 1.508809 1_555
O4 P0 1.597541 1_555
O5 P1 1.597541 1_555
O6 P2 1.510579 1_555
O7 P3 1.510579 1_555
O8 P2 1.527450 1_455
O9 P3 1.527450 1_655
O10 P2 1.592024 1_555
O11 P3 1.592024 1_555
O12 P4 1.533044 1_555
O13 P5 1.533044 1_555
O14 P4 1.506015 1_555
O15 P5 1.506015 1_555
O16 P4 1.588227 1_555
O17 P5 1.588227 1_555
