# generated using pymatgen
data_TmRu3
_symmetry_space_group_name_H-M   'P 1'
_cell_length_a   4.01650300
_cell_length_b   4.01650300
_cell_length_c   4.01650300
_cell_angle_alpha   90.00000000
_cell_angle_beta   90.00000000
_cell_angle_gamma   90.00000000
_symmetry_Int_Tables_number   1
_chemical_formula_structural   TmRu3
_chemical_formula_sum   'Tm1 Ru3'
_cell_volume   64.79541668
_cell_formula_units_Z   1
loop_
 _symmetry_equiv_pos_site_id
 _symmetry_equiv_pos_as_xyz
  1  'x, y, z'
loop_
 _atom_site_type_symbol
 _atom_site_label
 _atom_site_symmetry_multiplicity
 _atom_site_fract_x
 _atom_site_fract_y
 _atom_site_fract_z
 _atom_site_occupancy
  Tm  Tm0  1  0.00000000  0.00000000  0.00000000  1
  Ru  Ru0  1  0.00000000  0.50000000  0.50000000  1
  Ru  Ru1  1  0.50000000  0.00000000  0.50000000  1
  Ru  Ru2  1  0.50000000  0.50000000  0.00000000  1
loop_
_geom_bond_atom_site_label_1
_geom_bond_atom_site_label_2
_geom_bond_distance
_geom_bond_site_symmetry_2
Ru0 Tm0 2.840097 1_566
Ru0 Ru1 2.840097 1_465
Ru0 Ru1 2.840097 1_455
Ru0 Ru2 2.840097 1_456
Ru0 Ru2 2.840097 1_555
Ru0 Tm0 2.840097 1_565
Ru0 Tm0 2.840097 1_555
Ru0 Tm0 2.840097 1_556
Ru0 Ru1 2.840097 1_555
Ru0 Ru1 2.840097 1_565
Ru0 Ru2 2.840097 1_455
Ru0 Ru2 2.840097 1_556
Ru1 Ru2 2.840097 1_555
Ru1 Ru2 2.840097 1_545
Ru1 Tm0 2.840097 1_555
Ru1 Tm0 2.840097 1_655
Ru1 Ru2 2.840097 1_546
Ru1 Tm0 2.840097 1_556
Ru1 Tm0 2.840097 1_656
Ru1 Ru2 2.840097 1_556
Ru2 Tm0 2.840097 1_665
Ru2 Tm0 2.840097 1_565
Ru2 Tm0 2.840097 1_555
Ru2 Tm0 2.840097 1_655
