# generated using pymatgen
data_CsMg14Ni
_symmetry_space_group_name_H-M   'P 1'
_cell_length_a   6.43811756
_cell_length_b   6.43811703
_cell_length_c   10.63844520
_cell_angle_alpha   90.00000000
_cell_angle_beta   90.00000000
_cell_angle_gamma   120.00000271
_symmetry_Int_Tables_number   1
_chemical_formula_structural   CsMg14Ni
_chemical_formula_sum   'Cs1 Mg14 Ni1'
_cell_volume   381.87968030
_cell_formula_units_Z   1
loop_
 _symmetry_equiv_pos_site_id
 _symmetry_equiv_pos_as_xyz
  1  'x, y, z'
loop_
 _atom_site_type_symbol
 _atom_site_label
 _atom_site_symmetry_multiplicity
 _atom_site_fract_x
 _atom_site_fract_y
 _atom_site_fract_z
 _atom_site_occupancy
  Cs  Cs0  1  0.16666700  0.33333300  0.62500000  1
  Mg  Mg0  1  0.15413324  0.82706612  0.12500000  1
  Mg  Mg1  1  0.17346820  0.83673360  0.62500000  1
  Mg  Mg2  1  0.67293388  0.34586676  0.12500000  1
  Mg  Mg3  1  0.66326640  0.32653180  0.62500000  1
  Mg  Mg4  1  0.67293388  0.82706612  0.12500000  1
  Mg  Mg5  1  0.66326640  0.83673360  0.62500000  1
  Mg  Mg6  1  0.33138873  0.16861127  0.34193988  1
  Mg  Mg7  1  0.33138873  0.16861127  0.90806012  1
  Mg  Mg8  1  0.33138873  0.66277846  0.34193988  1
  Mg  Mg9  1  0.33138873  0.66277846  0.90806012  1
  Mg  Mg10  1  0.83722154  0.16861127  0.34193988  1
  Mg  Mg11  1  0.83722154  0.16861127  0.90806012  1
  Mg  Mg12  1  0.83333300  0.66666700  0.38478563  1
  Mg  Mg13  1  0.83333300  0.66666700  0.86521437  1
  Ni  Ni0  1  0.16666700  0.33333300  0.12500000  1
loop_
_geom_bond_atom_site_label_1
_geom_bond_atom_site_label_2
_geom_bond_distance
_geom_bond_site_symmetry_2
Cs0 Mg1 3.219282 1_555
Cs0 Mg5 3.219282 1_555
Cs0 Mg5 3.219282 1_445
Cs0 Mg1 3.219282 1_545
Cs0 Mg3 3.219282 1_555
Cs0 Mg3 3.219282 1_455
Cs0 Mg6 3.527324 1_555
Cs0 Mg7 3.527324 1_555
Cs0 Mg8 3.527329 1_555
Cs0 Mg9 3.527329 1_555
Cs0 Mg10 3.527330 1_455
Cs0 Mg11 3.527330 1_455
Mg0 Mg9 2.992409 1_554
Mg0 Mg8 2.992409 1_555
Mg0 Mg7 2.992416 1_564
Mg0 Mg6 2.992416 1_565
Mg0 Mg2 3.098018 1_455
Mg0 Mg4 3.098018 1_455
Mg0 Ni0 3.219817 1_565
Mg0 Ni0 3.219817 1_555
Mg0 Mg12 3.292017 1_455
Mg0 Mg13 3.292017 1_454
Mg0 Mg2 3.340099 1_565
Mg0 Mg4 3.340100 1_555
Mg1 Mg13 3.182316 1_455
Mg1 Mg12 3.182316 1_455
Mg2 Mg6 2.992416 1_555
Mg2 Mg7 2.992416 1_554
Mg2 Mg4 3.098018 1_555
Mg2 Ni0 3.219817 1_655
Mg2 Ni0 3.219817 1_555
Mg2 Mg4 3.340099 1_545
Mg4 Mg9 2.992416 1_554
Mg4 Mg8 2.992416 1_555
Mg4 Ni0 3.219817 1_665
Mg4 Ni0 3.219817 1_555
Mg6 Ni0 2.949641 1_555
Mg7 Ni0 2.949641 1_556
Mg8 Ni0 2.949648 1_555
Mg9 Ni0 2.949648 1_556
Mg10 Ni0 2.949648 1_655
Mg10 Mg2 2.992409 1_555
Mg10 Mg4 2.992416 1_545
Mg10 Mg12 3.251242 1_545
Mg10 Mg12 3.251242 1_555
Mg11 Ni0 2.949648 1_656
Mg11 Mg2 2.992409 1_556
Mg11 Mg4 2.992416 1_546
Mg11 Mg13 3.251242 1_545
Mg11 Mg13 3.251242 1_555
Mg12 Mg5 3.182309 1_555
Mg12 Mg3 3.182316 1_555
Mg12 Mg6 3.251242 1_665
Mg12 Mg6 3.251242 1_555
Mg12 Mg8 3.251242 1_555
Mg12 Mg8 3.251242 1_655
Mg12 Mg4 3.292011 1_555
Mg12 Mg2 3.292017 1_555
Mg13 Mg5 3.182309 1_555
Mg13 Mg3 3.182316 1_555
Mg13 Mg7 3.251242 1_665
Mg13 Mg7 3.251242 1_555
Mg13 Mg9 3.251242 1_555
Mg13 Mg9 3.251242 1_655
Mg13 Mg4 3.292011 1_556
Mg13 Mg2 3.292017 1_556
