# generated using pymatgen
data_CsRb3
_symmetry_space_group_name_H-M   'P 1'
_cell_length_a   8.27090927
_cell_length_b   8.27090927
_cell_length_c   8.27090927
_cell_angle_alpha   60.00000000
_cell_angle_beta   60.00000000
_cell_angle_gamma   60.00000000
_symmetry_Int_Tables_number   1
_chemical_formula_structural   CsRb3
_chemical_formula_sum   'Cs1 Rb3'
_cell_volume   400.07809358
_cell_formula_units_Z   1
loop_
 _symmetry_equiv_pos_site_id
 _symmetry_equiv_pos_as_xyz
  1  'x, y, z'
loop_
 _atom_site_type_symbol
 _atom_site_label
 _atom_site_symmetry_multiplicity
 _atom_site_fract_x
 _atom_site_fract_y
 _atom_site_fract_z
 _atom_site_occupancy
  Cs  Cs0  1  0.00000000  0.00000000  -0.00000000  1
  Rb  Rb0  1  0.25000000  0.25000000  0.25000000  1
  Rb  Rb1  1  0.75000000  0.75000000  0.75000000  1
  Rb  Rb2  1  0.50000000  0.50000000  0.50000000  1
loop_
_geom_bond_atom_site_label_1
_geom_bond_atom_site_label_2
_geom_bond_distance
_geom_bond_site_symmetry_2
Cs0 Rb0 5.064877 1_545
Cs0 Rb1 5.064877 1_444
Cs0 Rb0 5.064877 1_554
Cs0 Rb0 5.064877 1_455
Cs0 Rb0 5.064877 1_555
Cs0 Rb1 5.064877 1_544
Cs0 Rb1 5.064877 1_445
Cs0 Rb1 5.064877 1_454
Rb0 Rb2 5.064877 1_455
Rb0 Rb2 5.064877 1_554
Rb0 Rb2 5.064877 1_545
Rb0 Rb2 5.064877 1_555
Rb1 Rb2 5.064877 1_655
Rb1 Rb2 5.064877 1_556
Rb1 Rb2 5.064877 1_565
Rb1 Rb2 5.064877 1_555
