# generated using pymatgen
data_RbUCrNO9
_symmetry_space_group_name_H-M   'P 1'
_cell_length_a   10.22740600
_cell_length_b   7.50083300
_cell_length_c   14.45007546
_cell_angle_alpha   90.00000000
_cell_angle_beta   121.60827348
_cell_angle_gamma   90.00000000
_symmetry_Int_Tables_number   1
_chemical_formula_structural   RbUCrNO9
_chemical_formula_sum   'Rb4 U4 Cr4 N4 O36'
_cell_volume   944.07588034
_cell_formula_units_Z   4
loop_
 _symmetry_equiv_pos_site_id
 _symmetry_equiv_pos_as_xyz
  1  'x, y, z'
loop_
 _atom_site_type_symbol
 _atom_site_label
 _atom_site_symmetry_multiplicity
 _atom_site_fract_x
 _atom_site_fract_y
 _atom_site_fract_z
 _atom_site_occupancy
  Rb  Rb0  1  0.32788600  0.56980300  0.31572300  1
  Rb  Rb1  1  0.67211400  0.06980300  0.18427700  1
  Rb  Rb2  1  0.67211400  0.43019700  0.68427700  1
  Rb  Rb3  1  0.32788600  0.93019700  0.81572300  1
  U  U0  1  0.17113000  0.20139500  0.45042400  1
  U  U1  1  0.82887000  0.70139500  0.04957600  1
  U  U2  1  0.82887000  0.79860500  0.54957600  1
  U  U3  1  0.17113000  0.29860500  0.95042400  1
  Cr  Cr0  1  0.13036800  0.07456300  0.17892300  1
  Cr  Cr1  1  0.86963200  0.57456300  0.32107700  1
  Cr  Cr2  1  0.86963200  0.92543700  0.82107700  1
  Cr  Cr3  1  0.13036800  0.42543700  0.67892300  1
  N  N0  1  0.35251900  0.63219800  0.05160100  1
  N  N1  1  0.64748100  0.13219800  0.44839900  1
  N  N2  1  0.64748100  0.36780200  0.94839900  1
  N  N3  1  0.35251900  0.86780200  0.55160100  1
  O  O0  1  0.16384200  0.19436100  0.28857000  1
  O  O1  1  0.83615800  0.69436100  0.21143000  1
  O  O2  1  0.83615800  0.80563900  0.71143000  1
  O  O3  1  0.16384200  0.30563900  0.78857000  1
  O  O4  1  0.35342000  0.31828600  0.50952100  1
  O  O5  1  0.64658000  0.81828600  0.99047900  1
  O  O6  1  0.64658000  0.68171400  0.49047900  1
  O  O7  1  0.35342000  0.18171400  0.00952100  1
  O  O8  1  0.99153500  0.41986700  0.88762000  1
  O  O9  1  0.00846500  0.91986700  0.61238000  1
  O  O10  1  0.00846500  0.58013300  0.11238000  1
  O  O11  1  0.99153500  0.08013300  0.38762000  1
  O  O12  1  0.30416900  0.90866100  0.45199300  1
  O  O13  1  0.69583100  0.40866100  0.04800700  1
  O  O14  1  0.69583100  0.09133900  0.54800700  1
  O  O15  1  0.30416900  0.59133900  0.95199300  1
  O  O16  1  0.96055500  0.96694100  0.12518600  1
  O  O17  1  0.03944500  0.46694100  0.37481400  1
  O  O18  1  0.03944500  0.03305900  0.87481400  1
  O  O19  1  0.96055500  0.53305900  0.62518600  1
  O  O20  1  0.13323200  0.20801400  0.08637900  1
  O  O21  1  0.86676800  0.70801400  0.41362100  1
  O  O22  1  0.86676800  0.79198600  0.91362100  1
  O  O23  1  0.13323200  0.29198600  0.58637900  1
  O  O24  1  0.26494600  0.92951200  0.21803200  1
  O  O25  1  0.73505400  0.42951200  0.28196800  1
  O  O26  1  0.73505400  0.07048800  0.78196800  1
  O  O27  1  0.26494600  0.57048800  0.71803200  1
  O  O28  1  0.31317300  0.52234600  0.10158200  1
  O  O29  1  0.68682700  0.02234600  0.39841800  1
  O  O30  1  0.68682700  0.47765400  0.89841800  1
  O  O31  1  0.31317300  0.97765400  0.60158200  1
  O  O32  1  0.43007600  0.76538000  0.09599800  1
  O  O33  1  0.56992400  0.26538000  0.40400200  1
  O  O34  1  0.56992400  0.23462000  0.90400200  1
  O  O35  1  0.43007600  0.73462000  0.59599800  1
loop_
_geom_bond_atom_site_label_1
_geom_bond_atom_site_label_2
_geom_bond_distance
_geom_bond_site_symmetry_2
Cr0 O24 1.606927 1_545
Cr0 O20 1.682911 1_555
Cr0 O16 1.690352 1_445
Cr0 O0 1.693052 1_555
Cr1 O25 1.606927 1_555
Cr1 O21 1.682911 1_555
Cr1 O17 1.690352 1_655
Cr1 O1 1.693052 1_555
Cr2 O26 1.606927 1_565
Cr2 O22 1.682911 1_555
Cr2 O18 1.690352 1_665
Cr2 O2 1.693052 1_555
Cr3 O27 1.606927 1_555
Cr3 O23 1.682911 1_555
Cr3 O19 1.690352 1_455
Cr3 O3 1.693052 1_555
N0 O32 1.226904 1_555
N0 O15 1.289998 1_554
N0 O28 1.291176 1_555
N1 O33 1.226904 1_555
N1 O14 1.289998 1_555
N1 O29 1.291176 1_555
N2 O34 1.226904 1_555
N2 O13 1.289998 1_556
N2 O30 1.291176 1_555
N3 O35 1.226904 1_555
N3 O12 1.289998 1_555
N3 O31 1.291176 1_555
O0 U0 2.301218 1_555
O0 Rb0 3.195203 1_555
O1 U1 2.301218 1_555
O1 Rb1 3.195203 1_565
O2 U2 2.301218 1_555
O2 Rb2 3.195203 1_555
O3 U3 2.301218 1_555
O3 Rb3 3.195203 1_545
O4 U0 1.817954 1_555
O4 Rb2 3.012901 1_555
O4 Rb0 3.271551 1_555
O5 U1 1.817954 1_556
O5 Rb3 3.012901 1_555
O5 Rb1 3.271551 1_566
O6 U2 1.817954 1_555
O6 Rb0 3.012901 1_555
O6 Rb2 3.271551 1_555
O7 U3 1.817954 1_554
O7 Rb1 3.012901 1_555
O7 Rb3 3.271551 1_544
O8 U3 1.810360 1_655
O8 Rb2 3.041404 1_555
O9 U2 1.810360 1_455
O9 Rb3 3.041404 1_555
O10 U1 1.810360 1_455
O10 Rb0 3.041404 1_555
O11 U0 1.810360 1_655
O11 Rb1 3.041404 1_555
O12 U0 2.576983 1_565
O12 Rb0 3.301095 1_555
O13 U1 2.576983 1_555
O13 Rb1 3.301095 1_555
O14 U2 2.576983 1_545
O14 Rb2 3.301095 1_555
O15 U3 2.576983 1_555
O15 Rb3 3.301095 1_555
O16 U1 2.330768 1_555
O17 U0 2.330768 1_555
O18 U3 2.330768 1_555
O19 U2 2.330768 1_555
O20 U3 2.295569 1_554
O21 U2 2.295569 1_555
O22 U1 2.295569 1_556
O23 U0 2.295569 1_555
O24 Rb0 2.955407 1_555
O25 Rb1 2.955407 1_555
O26 Rb2 2.955407 1_555
O27 Rb3 2.955407 1_555
O28 U3 2.524229 1_554
O28 Rb0 3.039129 1_555
O29 U2 2.524229 1_545
O29 Rb1 3.039129 1_555
O30 U1 2.524229 1_556
O30 Rb2 3.039129 1_555
O31 U0 2.524229 1_565
O31 Rb3 3.039129 1_555
O32 Rb1 3.107892 1_565
O33 Rb0 3.107892 1_555
O34 Rb3 3.107892 1_545
O35 Rb2 3.107892 1_555
