# generated using pymatgen
data_Li3MnP2(O3F2)2
_symmetry_space_group_name_H-M   'P 1'
_cell_length_a   6.45519390
_cell_length_b   7.48428500
_cell_length_c   15.55608652
_cell_angle_alpha   89.99998493
_cell_angle_beta   91.01913896
_cell_angle_gamma   90.00018074
_symmetry_Int_Tables_number   1
_chemical_formula_structural   Li3MnP2(O3F2)2
_chemical_formula_sum   'Li12 Mn4 P8 O24 F16'
_cell_volume   751.43471004
_cell_formula_units_Z   4
loop_
 _symmetry_equiv_pos_site_id
 _symmetry_equiv_pos_as_xyz
  1  'x, y, z'
loop_
 _atom_site_type_symbol
 _atom_site_label
 _atom_site_symmetry_multiplicity
 _atom_site_fract_x
 _atom_site_fract_y
 _atom_site_fract_z
 _atom_site_occupancy
  Li  Li0  1  0.50009100  0.49993300  0.00001000  1
  Li  Li1  1  0.49988100  0.50006200  0.49994600  1
  Li  Li2  1  0.49989300  0.99994000  0.24999100  1
  Li  Li3  1  0.50014100  0.00006800  0.75005900  1
  Li  Li4  1  0.25934600  0.23583800  0.41176100  1
  Li  Li5  1  0.25942700  0.23561600  0.91177500  1
  Li  Li6  1  0.74055200  0.73560300  0.33823100  1
  Li  Li7  1  0.74061100  0.73586900  0.83823900  1
  Li  Li8  1  0.74063100  0.76428700  0.08824500  1
  Li  Li9  1  0.74056700  0.76430600  0.58819600  1
  Li  Li10  1  0.25934700  0.26429200  0.16174600  1
  Li  Li11  1  0.25945100  0.26429400  0.66180100  1
  Mn  Mn0  1  0.00005900  0.49999800  0.49999100  1
  Mn  Mn1  1  0.99997500  0.99992700  0.74997500  1
  Mn  Mn2  1  0.00001600  0.50002300  0.99999500  1
  Mn  Mn3  1  0.00003800  0.00003200  0.25000400  1
  P  P0  1  0.25119400  0.83971100  0.07066200  1
  P  P1  1  0.25127300  0.83965200  0.57066800  1
  P  P2  1  0.74880900  0.33969000  0.17933600  1
  P  P3  1  0.74875100  0.33962800  0.67932600  1
  P  P4  1  0.74875900  0.16031500  0.42934900  1
  P  P5  1  0.74872400  0.16032600  0.92933100  1
  P  P6  1  0.25128300  0.66029400  0.32066100  1
  P  P7  1  0.25125100  0.66028700  0.82065000  1
  O  O0  1  0.23564400  0.54059200  0.39951400  1
  O  O1  1  0.23590100  0.54055800  0.89954100  1
  O  O2  1  0.76410100  0.04057000  0.35046300  1
  O  O3  1  0.76439000  0.04059500  0.85048500  1
  O  O4  1  0.76415200  0.45946500  0.10047800  1
  O  O5  1  0.76433400  0.45934200  0.60046500  1
  O  O6  1  0.23585900  0.95946800  0.14952200  1
  O  O7  1  0.23569600  0.95935600  0.64953500  1
  O  O8  1  0.94903600  0.27392900  0.44076900  1
  O  O9  1  0.94906800  0.27395900  0.94075800  1
  O  O10  1  0.05091100  0.77391400  0.30924300  1
  O  O11  1  0.05097100  0.77390800  0.80923100  1
  O  O12  1  0.05087900  0.72610800  0.05927200  1
  O  O13  1  0.05090400  0.72607000  0.55924400  1
  O  O14  1  0.94911200  0.22607300  0.19072700  1
  O  O15  1  0.94910000  0.22604100  0.69075800  1
  O  O16  1  0.55195300  0.26419400  0.43902400  1
  O  O17  1  0.55187200  0.26430000  0.93900400  1
  O  O18  1  0.44811300  0.76430100  0.31099200  1
  O  O19  1  0.44803800  0.76419500  0.81096500  1
  O  O20  1  0.44807200  0.73582800  0.06105200  1
  O  O21  1  0.44802700  0.73564800  0.56096600  1
  O  O22  1  0.55190700  0.23583800  0.18894500  1
  O  O23  1  0.55198000  0.23564900  0.68903100  1
  F  F0  1  0.23350300  0.38636700  0.05403500  1
  F  F1  1  0.23343100  0.38626700  0.55403000  1
  F  F2  1  0.76643400  0.88629900  0.19598500  1
  F  F3  1  0.76655600  0.88622600  0.69597800  1
  F  F4  1  0.76637300  0.61373800  0.44599700  1
  F  F5  1  0.76649900  0.61381600  0.94601200  1
  F  F6  1  0.23343700  0.11374900  0.30400500  1
  F  F7  1  0.23363800  0.11370000  0.80400300  1
  F  F8  1  0.23825500  0.97423600  0.49017600  1
  F  F9  1  0.23845200  0.97441500  0.99022700  1
  F  F10  1  0.76156900  0.47441200  0.25978100  1
  F  F11  1  0.76175700  0.47422000  0.75982900  1
  F  F12  1  0.76172000  0.02569300  0.00981800  1
  F  F13  1  0.76151700  0.02565200  0.50982200  1
  F  F14  1  0.23828000  0.52567800  0.24018800  1
  F  F15  1  0.23849300  0.52564100  0.74018300  1
loop_
_geom_bond_atom_site_label_1
_geom_bond_atom_site_label_2
_geom_bond_distance
_geom_bond_site_symmetry_2
Li0 O17 2.033159 1_554
Li0 O20 2.035388 1_555
Li0 O4 2.311954 1_555
Li0 O1 2.312723 1_554
Li1 O21 2.033037 1_555
Li1 O16 2.034397 1_555
Li1 O0 2.312468 1_555
Li1 O5 2.314563 1_555
Li2 O18 2.033158 1_555
Li2 O22 2.035429 1_565
Li2 O6 2.311841 1_555
Li2 O2 2.312841 1_565
Li3 O23 2.033044 1_555
Li3 O19 2.034345 1_545
Li3 O3 2.312458 1_555
Li3 O7 2.314568 1_545
Li4 O16 1.940130 1_555
Li4 O8 2.080748 1_455
Li4 O0 2.293691 1_555
Li5 O17 1.939280 1_555
Li5 O9 2.081222 1_455
Li5 O1 2.295000 1_555
Li6 O18 1.939286 1_555
Li6 O10 2.081206 1_655
Li6 O2 2.295192 1_565
Li7 O19 1.939928 1_555
Li7 O11 2.081005 1_655
Li7 O3 2.293513 1_565
Li8 O20 1.939695 1_555
Li8 O12 2.080324 1_655
Li8 O4 2.294104 1_555
Li9 O21 1.939856 1_555
Li9 O13 2.080862 1_655
Li9 O5 2.295310 1_555
Li10 O22 1.939717 1_555
Li10 O14 2.080312 1_455
Li10 O6 2.294092 1_545
Li11 O23 1.939777 1_555
Li11 O15 2.080983 1_455
Li11 O7 2.295106 1_545
Mn0 O8 1.951705 1_455
Mn0 O13 1.951767 1_555
Mn0 O0 2.220943 1_555
Mn0 O5 2.221603 1_455
Mn1 O11 1.951602 1_655
Mn1 O15 1.951809 1_565
Mn1 O7 2.221121 1_655
Mn1 O3 2.221388 1_565
Mn2 O9 1.951705 1_455
Mn2 O12 1.952045 1_556
Mn2 O1 2.221977 1_555
Mn2 O4 2.222229 1_456
Mn3 O14 1.951826 1_455
Mn3 O10 1.951994 1_545
Mn3 O6 2.222032 1_545
Mn3 O2 2.222272 1_455
O0 P6 1.523765 1_555
O1 P7 1.524211 1_555
O2 P4 1.524215 1_555
O3 P5 1.523819 1_555
O4 P2 1.523996 1_555
O5 P3 1.523889 1_555
O6 P0 1.523939 1_555
O7 P1 1.523918 1_555
O8 P4 1.554936 1_555
O9 P5 1.555384 1_555
O10 P6 1.555471 1_555
O11 P7 1.554984 1_555
O12 P0 1.555049 1_555
O13 P1 1.555304 1_555
O14 P2 1.555048 1_555
O15 P3 1.555234 1_555
O16 P4 1.499291 1_555
O17 P5 1.499908 1_555
O18 P6 1.499904 1_555
O19 P7 1.499313 1_555
O20 P0 1.499585 1_555
O21 P1 1.499540 1_555
O22 P2 1.499590 1_555
O23 P3 1.499537 1_555
F0 Mn2 1.912295 1_554
F0 Li10 1.913149 1_555
F0 Li0 2.107508 1_555
F0 Li5 2.492302 1_554
F1 Mn0 1.911959 1_555
F1 Li11 1.913683 1_555
F1 Li1 2.107846 1_555
F1 Li4 2.491331 1_555
F2 Mn3 1.912998 1_665
F2 Li8 1.913300 1_555
F2 Li2 2.107367 1_555
F2 Li6 2.491898 1_555
F3 Mn1 1.911813 1_555
F3 Li9 1.913629 1_555
F3 Li3 2.107787 1_565
F3 Li7 2.490992 1_555
F4 Li6 1.913137 1_555
F4 Mn0 1.913273 1_655
F4 Li1 2.106842 1_555
F4 Li9 2.490775 1_555
F5 Mn2 1.912525 1_655
F5 Li7 1.913934 1_555
F5 Li0 2.107336 1_556
F5 Li8 2.490950 1_556
F6 Mn3 1.911793 1_555
F6 Li4 1.913841 1_555
F6 Li2 2.107475 1_545
F6 Li10 2.491575 1_555
F7 Li5 1.913386 1_555
F7 Mn1 1.913488 1_445
F7 Li3 2.106740 1_555
F7 Li11 2.490907 1_555
F8 P1 1.608029 1_555
F8 Li4 2.312102 1_565
F9 P0 1.607835 1_556
F9 Li5 2.309815 1_565
F10 P2 1.608045 1_555
F10 Li6 2.309754 1_555
F11 P3 1.608197 1_555
F11 Li7 2.312384 1_555
F12 P5 1.608193 1_554
F12 Li8 2.310958 1_545
F13 P4 1.608106 1_555
F13 Li9 2.310080 1_545
F14 P6 1.607946 1_555
F14 Li10 2.310946 1_555
F15 P7 1.607954 1_555
F15 Li11 2.310157 1_555
