# generated using pymatgen
data_Li9Mn7O16
_symmetry_space_group_name_H-M   'P 1'
_cell_length_a   5.75789800
_cell_length_b   6.07175834
_cell_length_c   9.90797603
_cell_angle_alpha   78.09052375
_cell_angle_beta   81.64628862
_cell_angle_gamma   61.69311958
_symmetry_Int_Tables_number   1
_chemical_formula_structural   Li9Mn7O16
_chemical_formula_sum   'Li9 Mn7 O16'
_cell_volume   297.95044722
_cell_formula_units_Z   1
loop_
 _symmetry_equiv_pos_site_id
 _symmetry_equiv_pos_as_xyz
  1  'x, y, z'
loop_
 _atom_site_type_symbol
 _atom_site_label
 _atom_site_symmetry_multiplicity
 _atom_site_fract_x
 _atom_site_fract_y
 _atom_site_fract_z
 _atom_site_occupancy
  Li  Li0  1  0.25724600  0.13434400  0.23954000  1
  Li  Li1  1  0.25475800  0.37224400  0.74980100  1
  Li  Li2  1  0.25738800  0.62767500  0.25022300  1
  Li  Li3  1  0.74524200  0.62775600  0.25019900  1
  Li  Li4  1  0.74275400  0.86565600  0.76046000  1
  Li  Li5  1  0.74911400  0.11951400  0.24285400  1
  Li  Li6  1  0.25088600  0.88048600  0.75714600  1
  Li  Li7  1  0.74261200  0.37232500  0.74977700  1
  Li  Li8  1  0.50000000  0.50000000  0.00000000  1
  Mn  Mn0  1  0.00000000  0.00000000  0.00000000  1
  Mn  Mn1  1  0.00000000  0.50000000  0.00000000  1
  Mn  Mn2  1  0.00019100  0.24985200  0.49811900  1
  Mn  Mn3  1  0.99980900  0.75014800  0.50188100  1
  Mn  Mn4  1  0.49937600  0.75069000  0.50297000  1
  Mn  Mn5  1  0.50000000  0.00000000  0.00000000  1
  Mn  Mn6  1  0.50062400  0.24931000  0.49703000  1
  O  O0  1  0.14040000  0.83980800  0.11796400  1
  O  O1  1  0.14134300  0.08944500  0.61581900  1
  O  O2  1  0.10598500  0.28615700  0.10333100  1
  O  O3  1  0.62855000  0.28618600  0.10333000  1
  O  O4  1  0.63779500  0.58618100  0.62170500  1
  O  O5  1  0.63709600  0.83108600  0.11382900  1
  O  O6  1  0.13719500  0.58499700  0.62055200  1
  O  O7  1  0.63998100  0.08917500  0.61613500  1
  O  O8  1  0.36220500  0.41381900  0.37829500  1
  O  O9  1  0.37145000  0.71381400  0.89667000  1
  O  O10  1  0.36001900  0.91082500  0.38386500  1
  O  O11  1  0.85865700  0.91055500  0.38418100  1
  O  O12  1  0.85960000  0.16019200  0.88203600  1
  O  O13  1  0.86280500  0.41500300  0.37944800  1
  O  O14  1  0.36290400  0.16891400  0.88617100  1
  O  O15  1  0.89401500  0.71384300  0.89666900  1
loop_
_geom_bond_atom_site_label_1
_geom_bond_atom_site_label_2
_geom_bond_distance
_geom_bond_site_symmetry_2
Li0 O2 1.579946 1_555
Li0 O10 1.708827 1_545
Li1 O6 1.583246 1_555
Li1 O14 1.601385 1_555
Li2 O8 1.568358 1_555
Li2 O0 1.602173 1_555
Li3 O13 1.583246 1_555
Li3 O5 1.601385 1_555
Li4 O15 1.579946 1_555
Li4 O7 1.708827 1_565
Li5 O3 1.565965 1_555
Li5 O11 1.653095 1_545
Li6 O9 1.565965 1_555
Li6 O1 1.653095 1_565
Li7 O4 1.568358 1_555
Li7 O12 1.602173 1_555
Li8 O3 1.428881 1_555
Li8 O9 1.428881 1_554
Mn0 O12 1.423114 1_454
Mn0 O0 1.423114 1_545
Mn1 O15 1.409915 1_454
Mn1 O2 1.409915 1_555
Mn2 O1 1.423019 1_555
Mn2 O13 1.430074 1_455
Mn3 O11 1.423019 1_555
Mn3 O6 1.430074 1_655
Mn4 O10 1.429507 1_555
Mn4 O4 1.431554 1_555
Mn5 O14 1.400154 1_554
Mn5 O5 1.400154 1_545
Mn6 O7 1.429507 1_555
Mn6 O8 1.431554 1_555
