# generated using pymatgen
data_Eu3Dy
_symmetry_space_group_name_H-M   'P 1'
_cell_length_a   7.64329196
_cell_length_b   7.64329196
_cell_length_c   6.20018500
_cell_angle_alpha   90.00000000
_cell_angle_beta   90.00000000
_cell_angle_gamma   119.99999970
_symmetry_Int_Tables_number   1
_chemical_formula_structural   Eu3Dy
_chemical_formula_sum   'Eu6 Dy2'
_cell_volume   313.68675386
_cell_formula_units_Z   2
loop_
 _symmetry_equiv_pos_site_id
 _symmetry_equiv_pos_as_xyz
  1  'x, y, z'
loop_
 _atom_site_type_symbol
 _atom_site_label
 _atom_site_symmetry_multiplicity
 _atom_site_fract_x
 _atom_site_fract_y
 _atom_site_fract_z
 _atom_site_occupancy
  Eu  Eu0  1  0.16958600  0.33917200  0.25000000  1
  Eu  Eu1  1  0.66082800  0.83041400  0.25000000  1
  Eu  Eu2  1  0.16958600  0.83041400  0.25000000  1
  Eu  Eu3  1  0.83041400  0.66082800  0.75000000  1
  Eu  Eu4  1  0.33917200  0.16958600  0.75000000  1
  Eu  Eu5  1  0.83041400  0.16958600  0.75000000  1
  Dy  Dy0  1  0.33333300  0.66666700  0.75000000  1
  Dy  Dy1  1  0.66666700  0.33333300  0.25000000  1
loop_
_geom_bond_atom_site_label_1
_geom_bond_atom_site_label_2
_geom_bond_distance
_geom_bond_site_symmetry_2
Eu0 Eu2 3.754706 1_555
Eu0 Eu1 3.754706 1_555
Eu0 Eu4 3.827655 1_554
Eu0 Eu4 3.827655 1_555
Eu0 Eu5 3.827655 1_455
Eu0 Eu5 3.827655 1_454
Eu0 Eu2 3.888586 1_545
Eu0 Eu1 3.888586 1_445
Eu1 Eu2 3.754706 1_555
Eu1 Eu3 3.827655 1_555
Eu1 Eu3 3.827655 1_554
Eu1 Eu5 3.827655 1_564
Eu1 Eu5 3.827655 1_565
Eu1 Eu2 3.888586 1_655
Eu2 Eu3 3.827655 1_455
Eu2 Eu3 3.827655 1_454
Eu2 Eu4 3.827655 1_565
Eu2 Eu4 3.827655 1_564
Eu3 Eu5 3.754706 1_555
Eu3 Eu4 3.754706 1_555
Eu3 Eu5 3.888586 1_565
Eu3 Eu4 3.888586 1_665
Eu4 Eu5 3.754706 1_555
Eu4 Eu5 3.888586 1_455
Dy0 Eu2 3.782833 1_556
Dy0 Eu2 3.782833 1_555
Dy0 Eu1 3.782837 1_555
Dy0 Eu1 3.782837 1_556
Dy0 Eu0 3.782837 1_555
Dy0 Eu0 3.782837 1_556
Dy0 Eu4 3.821838 1_565
Dy0 Eu3 3.821838 1_455
Dy0 Eu5 3.821841 1_455
Dy0 Eu5 3.821841 1_565
Dy0 Eu3 3.821845 1_555
Dy0 Eu4 3.821845 1_555
Dy1 Eu5 3.782833 1_555
Dy1 Eu5 3.782833 1_554
Dy1 Eu4 3.782837 1_555
Dy1 Eu3 3.782837 1_554
Dy1 Eu3 3.782837 1_555
Dy1 Eu4 3.782837 1_554
Dy1 Eu1 3.821838 1_545
Dy1 Eu0 3.821838 1_655
Dy1 Eu2 3.821841 1_655
Dy1 Eu2 3.821841 1_545
Dy1 Eu0 3.821845 1_555
Dy1 Eu1 3.821845 1_555
