# generated using pymatgen
data_RbMg14W
_symmetry_space_group_name_H-M   'P 1'
_cell_length_a   6.45182511
_cell_length_b   6.45182457
_cell_length_c   10.47672295
_cell_angle_alpha   90.00000000
_cell_angle_beta   90.00000000
_cell_angle_gamma   120.00000270
_symmetry_Int_Tables_number   1
_chemical_formula_structural   RbMg14W
_chemical_formula_sum   'Rb1 Mg14 W1'
_cell_volume   377.67758996
_cell_formula_units_Z   1
loop_
 _symmetry_equiv_pos_site_id
 _symmetry_equiv_pos_as_xyz
  1  'x, y, z'
loop_
 _atom_site_type_symbol
 _atom_site_label
 _atom_site_symmetry_multiplicity
 _atom_site_fract_x
 _atom_site_fract_y
 _atom_site_fract_z
 _atom_site_occupancy
  Rb  Rb0  1  0.16666700  0.33333300  0.12500000  1
  Mg  Mg0  1  0.17719366  0.83859633  0.12500000  1
  Mg  Mg1  1  0.15889476  0.82944688  0.62500000  1
  Mg  Mg2  1  0.66140367  0.32280634  0.12500000  1
  Mg  Mg3  1  0.67055312  0.34110524  0.62500000  1
  Mg  Mg4  1  0.66140367  0.83859633  0.12500000  1
  Mg  Mg5  1  0.67055312  0.82944688  0.62500000  1
  Mg  Mg6  1  0.33216698  0.16783302  0.40337899  1
  Mg  Mg7  1  0.33216698  0.16783302  0.84662101  1
  Mg  Mg8  1  0.33216698  0.66433495  0.40337899  1
  Mg  Mg9  1  0.33216698  0.66433495  0.84662101  1
  Mg  Mg10  1  0.83566505  0.16783302  0.40337899  1
  Mg  Mg11  1  0.83566505  0.16783302  0.84662101  1
  Mg  Mg12  1  0.83333300  0.66666700  0.36839680  1
  Mg  Mg13  1  0.83333300  0.66666700  0.88160320  1
  W  W0  1  0.16666700  0.33333300  0.62500000  1
loop_
_geom_bond_atom_site_label_1
_geom_bond_atom_site_label_2
_geom_bond_distance
_geom_bond_site_symmetry_2
Mg0 Mg12 3.192790 1_455
Mg0 Mg13 3.192790 1_454
Mg0 Rb0 3.226448 1_555
Mg0 Rb0 3.226448 1_565
Mg1 Mg9 2.994410 1_555
Mg1 Mg8 2.994410 1_555
Mg1 Mg6 2.994417 1_565
Mg1 Mg7 2.994417 1_565
Mg1 Mg3 3.150695 1_455
Mg1 Mg5 3.150695 1_455
Mg1 W0 3.226205 1_565
Mg1 W0 3.226205 1_555
Mg1 Mg13 3.245960 1_455
Mg1 Mg12 3.245960 1_455
Mg1 Mg3 3.301130 1_565
Mg1 Mg5 3.301130 1_555
Mg2 Rb0 3.226449 1_555
Mg2 Rb0 3.226449 1_655
Mg3 Mg6 2.994417 1_555
Mg3 Mg7 2.994417 1_555
Mg3 Mg5 3.150695 1_555
Mg3 W0 3.226205 1_655
Mg3 W0 3.226205 1_555
Mg3 Mg5 3.301130 1_545
Mg4 Rb0 3.226448 1_555
Mg4 Rb0 3.226448 1_665
Mg5 Mg9 2.994417 1_555
Mg5 Mg8 2.994417 1_555
Mg5 W0 3.226205 1_665
Mg5 W0 3.226205 1_555
Mg6 W0 2.968415 1_555
Mg6 Rb0 3.453464 1_555
Mg7 W0 2.968415 1_555
Mg7 Rb0 3.453464 1_556
Mg8 W0 2.968421 1_555
Mg8 Rb0 3.453470 1_555
Mg9 W0 2.968421 1_555
Mg9 Rb0 3.453470 1_556
Mg10 W0 2.968422 1_655
Mg10 Mg3 2.994410 1_555
Mg10 Mg5 2.994417 1_545
Mg10 Mg12 3.246691 1_545
Mg10 Mg12 3.246691 1_555
Mg10 Rb0 3.453470 1_655
Mg11 W0 2.968422 1_655
Mg11 Mg3 2.994410 1_555
Mg11 Mg5 2.994417 1_545
Mg11 Mg13 3.246691 1_545
Mg11 Mg13 3.246691 1_555
Mg11 Rb0 3.453470 1_656
Mg12 Mg4 3.192783 1_555
Mg12 Mg2 3.192790 1_555
Mg12 Mg5 3.245954 1_555
Mg12 Mg3 3.245960 1_555
Mg12 Mg6 3.246691 1_665
Mg12 Mg6 3.246691 1_555
Mg12 Mg8 3.246691 1_555
Mg12 Mg8 3.246691 1_655
Mg13 Mg4 3.192783 1_556
Mg13 Mg2 3.192790 1_556
Mg13 Mg5 3.245954 1_555
Mg13 Mg3 3.245960 1_555
Mg13 Mg7 3.246691 1_665
Mg13 Mg7 3.246691 1_555
Mg13 Mg9 3.246691 1_555
Mg13 Mg9 3.246691 1_655
