# generated using pymatgen
data_BaZn(SnO2)4
_symmetry_space_group_name_H-M   'P 1'
_cell_length_a   6.00740892
_cell_length_b   6.00740892
_cell_length_c   6.93027000
_cell_angle_alpha   90.00000000
_cell_angle_beta   90.00000000
_cell_angle_gamma   120.00001012
_symmetry_Int_Tables_number   1
_chemical_formula_structural   BaZn(SnO2)4
_chemical_formula_sum   'Ba1 Zn1 Sn4 O8'
_cell_volume   216.59834416
_cell_formula_units_Z   1
loop_
 _symmetry_equiv_pos_site_id
 _symmetry_equiv_pos_as_xyz
  1  'x, y, z'
loop_
 _atom_site_type_symbol
 _atom_site_label
 _atom_site_symmetry_multiplicity
 _atom_site_fract_x
 _atom_site_fract_y
 _atom_site_fract_z
 _atom_site_occupancy
  Ba  Ba0  1  0.00000000  0.00000000  0.00000000  1
  Zn  Zn0  1  0.00000000  0.00000000  0.50000000  1
  Sn  Sn0  1  0.33333300  0.66666700  0.70818200  1
  Sn  Sn1  1  0.66666700  0.33333300  0.70818200  1
  Sn  Sn2  1  0.33333300  0.66666700  0.29181800  1
  Sn  Sn3  1  0.66666700  0.33333300  0.29181800  1
  O  O0  1  0.29152000  0.29152000  0.69704600  1
  O  O1  1  0.70848000  0.00000000  0.69704600  1
  O  O2  1  0.00000000  0.70848000  0.69704600  1
  O  O3  1  0.70848000  0.70848000  0.30295400  1
  O  O4  1  0.00000000  0.29152000  0.30295400  1
  O  O5  1  0.29152000  0.00000000  0.30295400  1
  O  O6  1  0.33333300  0.66666700  0.00000000  1
  O  O7  1  0.66666700  0.33333300  0.00000000  1
loop_
_geom_bond_atom_site_label_1
_geom_bond_atom_site_label_2
_geom_bond_distance
_geom_bond_site_symmetry_2
Ba0 O0 2.734063 1_554
Ba0 O3 2.734063 1_445
Ba0 O2 2.734064 1_544
Ba0 O1 2.734064 1_454
Ba0 O4 2.734064 1_555
Ba0 O5 2.734064 1_555
O0 Sn0 2.140549 1_555
O0 Sn1 2.140549 1_555
O0 Zn0 2.220764 1_555
O1 Sn1 2.140543 1_555
O1 Sn0 2.140546 1_545
O1 Zn0 2.220765 1_655
O2 Sn0 2.140543 1_555
O2 Sn1 2.140546 1_455
O2 Zn0 2.220765 1_565
O3 Sn2 2.140549 1_555
O3 Sn3 2.140549 1_555
O3 Zn0 2.220764 1_665
O4 Sn3 2.140543 1_455
O4 Sn2 2.140546 1_555
O4 Zn0 2.220765 1_555
O5 Sn2 2.140543 1_545
O5 Sn3 2.140546 1_555
O5 Zn0 2.220765 1_555
O6 Sn0 2.022378 1_554
O6 Sn2 2.022378 1_555
O7 Sn3 2.022378 1_555
O7 Sn1 2.022378 1_554
