# generated using pymatgen
data_SrNd2BeO5
_symmetry_space_group_name_H-M   'P 1'
_cell_length_a   6.61643100
_cell_length_b   7.28705500
_cell_length_c   9.64161900
_cell_angle_alpha   90.00000000
_cell_angle_beta   90.00000000
_cell_angle_gamma   90.00000000
_symmetry_Int_Tables_number   1
_chemical_formula_structural   SrNd2BeO5
_chemical_formula_sum   'Sr4 Nd8 Be4 O20'
_cell_volume   464.86387818
_cell_formula_units_Z   4
loop_
 _symmetry_equiv_pos_site_id
 _symmetry_equiv_pos_as_xyz
  1  'x, y, z'
loop_
 _atom_site_type_symbol
 _atom_site_label
 _atom_site_symmetry_multiplicity
 _atom_site_fract_x
 _atom_site_fract_y
 _atom_site_fract_z
 _atom_site_occupancy
  Sr  Sr0  1  0.58289400  0.98126900  0.67508000  1
  Sr  Sr1  1  0.41710600  0.48126900  0.32492000  1
  Sr  Sr2  1  0.08289400  0.48126900  0.82492000  1
  Sr  Sr3  1  0.91710600  0.98126900  0.17508000  1
  Nd  Nd0  1  0.09552100  0.74611100  0.52305800  1
  Nd  Nd1  1  0.40447900  0.74611100  0.02305800  1
  Nd  Nd2  1  0.90447900  0.24611100  0.47694200  1
  Nd  Nd3  1  0.59552100  0.24611100  0.97694200  1
  Nd  Nd4  1  0.92591700  0.52680100  0.17210000  1
  Nd  Nd5  1  0.07408300  0.02680100  0.82790000  1
  Nd  Nd6  1  0.42591700  0.02680100  0.32790000  1
  Nd  Nd7  1  0.57408300  0.52680100  0.67210000  1
  Be  Be0  1  0.69228500  0.74902400  0.39901500  1
  Be  Be1  1  0.80771500  0.74902400  0.89901500  1
  Be  Be2  1  0.30771500  0.24902400  0.60098500  1
  Be  Be3  1  0.19228500  0.24902400  0.10098500  1
  O  O0  1  0.01952200  0.75043200  0.98953500  1
  O  O1  1  0.48047800  0.75043200  0.48953500  1
  O  O2  1  0.98047800  0.25043200  0.01046500  1
  O  O3  1  0.51952200  0.25043200  0.51046500  1
  O  O4  1  0.31354300  0.05840100  0.06931800  1
  O  O5  1  0.19555200  0.44115100  0.56798300  1
  O  O6  1  0.68645700  0.55840100  0.93068200  1
  O  O7  1  0.80444800  0.94115100  0.43201700  1
  O  O8  1  0.69555200  0.94115100  0.93201700  1
  O  O9  1  0.81354300  0.55840100  0.43068200  1
  O  O10  1  0.30444800  0.44115100  0.06798300  1
  O  O11  1  0.18645700  0.05840100  0.56931800  1
  O  O12  1  0.63568200  0.74959900  0.22632200  1
  O  O13  1  0.86431800  0.74959900  0.72632200  1
  O  O14  1  0.36431800  0.24959900  0.77367800  1
  O  O15  1  0.13568200  0.24959900  0.27367800  1
  O  O16  1  0.16342700  0.74721100  0.27765100  1
  O  O17  1  0.33657300  0.74721100  0.77765100  1
  O  O18  1  0.83657300  0.24721100  0.72234900  1
  O  O19  1  0.66342700  0.24721100  0.22234900  1
loop_
_geom_bond_atom_site_label_1
_geom_bond_atom_site_label_2
_geom_bond_distance
_geom_bond_site_symmetry_2
Nd0 O5 2.358835 1_555
Nd0 O11 2.395754 1_565
Nd0 O16 2.408414 1_555
Nd0 O9 2.478927 1_455
Nd0 O13 2.486270 1_455
Nd0 O7 2.549403 1_455
Nd0 O1 2.567660 1_555
Nd0 O17 2.927333 1_555
Nd1 O10 2.358835 1_555
Nd1 O4 2.395754 1_565
Nd1 O17 2.408414 1_554
Nd1 O6 2.478927 1_554
Nd1 O12 2.486270 1_555
Nd1 O8 2.549403 1_554
Nd1 O0 2.567660 1_554
Nd1 O16 2.927333 1_555
Nd2 O7 2.358835 1_545
Nd2 O9 2.395754 1_555
Nd2 O18 2.408414 1_555
Nd2 O11 2.478927 1_655
Nd2 O15 2.486270 1_655
Nd2 O5 2.549403 1_655
Nd2 O3 2.567660 1_555
Nd2 O19 2.927333 1_555
Nd3 O8 2.358835 1_545
Nd3 O6 2.395754 1_555
Nd3 O19 2.408414 1_556
Nd3 O4 2.478927 1_556
Nd3 O14 2.486270 1_555
Nd3 O10 2.549403 1_556
Nd3 O2 2.567660 1_556
Nd3 O18 2.927333 1_555
Nd4 O16 2.466754 1_655
Nd4 O0 2.477415 1_654
Nd4 O12 2.568428 1_555
Nd4 O2 2.571937 1_555
Nd4 O9 2.611825 1_555
Nd4 O15 2.639276 1_655
Nd4 O19 2.720655 1_555
Nd4 O10 2.769461 1_655
Nd4 O6 2.825112 1_554
Nd5 O18 2.466754 1_455
Nd5 O2 2.477415 1_456
Nd5 O14 2.568428 1_555
Nd5 O0 2.571937 1_545
Nd5 O11 2.611825 1_555
Nd5 O13 2.639276 1_445
Nd5 O17 2.720655 1_545
Nd5 O8 2.769461 1_445
Nd5 O4 2.825112 1_556
Nd6 O19 2.466754 1_555
Nd6 O3 2.477415 1_555
Nd6 O15 2.568428 1_555
Nd6 O1 2.571937 1_545
Nd6 O4 2.611825 1_555
Nd6 O12 2.639276 1_545
Nd6 O16 2.720655 1_545
Nd6 O7 2.769461 1_545
Nd6 O11 2.825112 1_555
Nd7 O17 2.466754 1_555
Nd7 O1 2.477415 1_555
Nd7 O13 2.568428 1_555
Nd7 O3 2.571937 1_555
Nd7 O6 2.611825 1_555
Nd7 O14 2.639276 1_555
Nd7 O18 2.720655 1_555
Nd7 O5 2.769461 1_555
Nd7 O9 2.825112 1_555
Be0 O7 1.616199 1_555
Be0 O9 1.632925 1_555
Be0 O1 1.650986 1_555
Be0 O12 1.706644 1_555
Be1 O8 1.616199 1_555
Be1 O6 1.632925 1_555
Be1 O0 1.650986 1_655
Be1 O13 1.706644 1_555
Be2 O5 1.616199 1_555
Be2 O11 1.632925 1_555
Be2 O3 1.650986 1_555
Be2 O14 1.706644 1_555
Be3 O10 1.616199 1_555
Be3 O4 1.632925 1_555
Be3 O2 1.650986 1_455
Be3 O15 1.706644 1_555
O0 Sr3 2.547366 1_456
O0 Sr2 2.557730 1_555
O1 Sr0 2.547366 1_555
O1 Sr1 2.557730 1_555
O2 Sr2 2.547366 1_654
O2 Sr3 2.557730 1_545
O3 Sr1 2.547366 1_555
O3 Sr0 2.557730 1_545
O4 Sr3 2.869819 1_445
O5 Sr2 2.603466 1_555
O5 Sr1 2.779642 1_555
O6 Sr2 2.869819 1_655
O7 Sr3 2.603466 1_555
O7 Sr0 2.779642 1_555
O8 Sr0 2.603466 1_555
O8 Sr3 2.779642 1_556
O9 Sr1 2.869819 1_555
O10 Sr1 2.603466 1_555
O10 Sr2 2.779642 1_554
O11 Sr0 2.869819 1_545
O12 Sr3 2.561486 1_555
O12 Sr1 2.611233 1_555
O13 Sr0 2.561486 1_555
O13 Sr2 2.611233 1_655
O14 Sr2 2.561486 1_555
O14 Sr0 2.611233 1_545
O15 Sr1 2.561486 1_555
O15 Sr3 2.611233 1_445
O16 Sr3 2.557970 1_455
O16 Sr1 2.603937 1_555
O17 Sr0 2.557970 1_555
O17 Sr2 2.603937 1_555
O18 Sr2 2.557970 1_655
O18 Sr0 2.603937 1_545
O19 Sr1 2.557970 1_555
O19 Sr3 2.603937 1_545
