# generated using pymatgen
data_KCaCeBiO6
_symmetry_space_group_name_H-M   'P 1'
_cell_length_a   6.10754434
_cell_length_b   6.10754434
_cell_length_c   6.10754434
_cell_angle_alpha   60.00000000
_cell_angle_beta   60.00000000
_cell_angle_gamma   60.00000000
_symmetry_Int_Tables_number   1
_chemical_formula_structural   KCaCeBiO6
_chemical_formula_sum   'K1 Ca1 Ce1 Bi1 O6'
_cell_volume   161.09604863
_cell_formula_units_Z   1
loop_
 _symmetry_equiv_pos_site_id
 _symmetry_equiv_pos_as_xyz
  1  'x, y, z'
loop_
 _atom_site_type_symbol
 _atom_site_label
 _atom_site_symmetry_multiplicity
 _atom_site_fract_x
 _atom_site_fract_y
 _atom_site_fract_z
 _atom_site_occupancy
  K  K0  1  0.25000000  0.25000000  0.25000000  1
  Ca  Ca0  1  0.75000000  0.75000000  0.75000000  1
  Ce  Ce0  1  0.50000000  0.50000000  0.50000000  1
  Bi  Bi0  1  -0.00000000  0.00000000  0.00000000  1
  O  O0  1  0.75483298  0.24516702  0.24516702  1
  O  O1  1  0.24516702  0.75483298  0.75483298  1
  O  O2  1  0.75483298  0.24516702  0.75483298  1
  O  O3  1  0.24516702  0.75483298  0.24516702  1
  O  O4  1  0.75483298  0.75483298  0.24516702  1
  O  O5  1  0.24516702  0.24516702  0.75483298  1
loop_
_geom_bond_atom_site_label_1
_geom_bond_atom_site_label_2
_geom_bond_distance
_geom_bond_site_symmetry_2
K0 O4 3.054057 1_545
K0 O1 3.054057 1_545
K0 O0 3.054057 1_555
K0 O0 3.054057 1_455
K0 O3 3.054057 1_555
K0 O4 3.054057 1_455
K0 O3 3.054057 1_545
K0 O1 3.054057 1_554
K0 O5 3.054057 1_555
K0 O5 3.054057 1_554
K0 O2 3.054057 1_455
K0 O2 3.054057 1_554
Ca0 O1 3.054057 1_655
Ca0 O5 3.054057 1_655
Ca0 O5 3.054057 1_565
Ca0 O2 3.054057 1_555
Ca0 O2 3.054057 1_565
Ca0 O3 3.054057 1_556
Ca0 O0 3.054057 1_556
Ca0 O4 3.054057 1_555
Ca0 O1 3.054057 1_555
Ca0 O4 3.054057 1_556
Ca0 O0 3.054057 1_565
Ca0 O3 3.054057 1_655
Ce0 O5 2.201087 1_555
Ce0 O0 2.201087 1_555
Ce0 O3 2.201087 1_555
Ce0 O2 2.201087 1_555
Ce0 O4 2.201087 1_555
Ce0 O1 2.201087 1_555
Bi0 O4 2.117599 1_445
Bi0 O1 2.117599 1_544
Bi0 O5 2.117599 1_554
Bi0 O0 2.117599 1_455
Bi0 O3 2.117599 1_545
Bi0 O2 2.117599 1_454
