# generated using pymatgen
data_RbMg14Bi
_symmetry_space_group_name_H-M   'P 1'
_cell_length_a   6.56980262
_cell_length_b   6.56980206
_cell_length_c   10.91680856
_cell_angle_alpha   90.00000000
_cell_angle_beta   90.00000000
_cell_angle_gamma   120.00000282
_symmetry_Int_Tables_number   1
_chemical_formula_structural   RbMg14Bi
_chemical_formula_sum   'Rb1 Mg14 Bi1'
_cell_volume   408.06647912
_cell_formula_units_Z   1
loop_
 _symmetry_equiv_pos_site_id
 _symmetry_equiv_pos_as_xyz
  1  'x, y, z'
loop_
 _atom_site_type_symbol
 _atom_site_label
 _atom_site_symmetry_multiplicity
 _atom_site_fract_x
 _atom_site_fract_y
 _atom_site_fract_z
 _atom_site_occupancy
  Rb  Rb0  1  0.16666700  0.33333300  0.12500000  1
  Mg  Mg0  1  0.17133755  0.83566827  0.12500000  1
  Mg  Mg1  1  0.16323644  0.83161772  0.62500000  1
  Mg  Mg2  1  0.66433173  0.32866245  0.12500000  1
  Mg  Mg3  1  0.66838228  0.33676356  0.62500000  1
  Mg  Mg4  1  0.66433173  0.83566827  0.12500000  1
  Mg  Mg5  1  0.66838228  0.83161772  0.62500000  1
  Mg  Mg6  1  0.33903432  0.16096568  0.38174647  1
  Mg  Mg7  1  0.33903432  0.16096568  0.86825353  1
  Mg  Mg8  1  0.33903432  0.67806965  0.38174647  1
  Mg  Mg9  1  0.33903432  0.67806965  0.86825353  1
  Mg  Mg10  1  0.82193035  0.16096568  0.38174647  1
  Mg  Mg11  1  0.82193035  0.16096568  0.86825353  1
  Mg  Mg12  1  0.83333300  0.66666700  0.37061827  1
  Mg  Mg13  1  0.83333300  0.66666700  0.87938173  1
  Bi  Bi0  1  0.16666700  0.33333300  0.62500000  1
loop_
_geom_bond_atom_site_label_1
_geom_bond_atom_site_label_2
_geom_bond_distance
_geom_bond_site_symmetry_2
Mg0 Mg2 3.238874 1_565
Mg0 Mg4 3.238874 1_555
Mg0 Rb0 3.285008 1_555
Mg0 Rb0 3.285009 1_565
Mg0 Mg12 3.299713 1_455
Mg0 Mg13 3.299713 1_454
Mg0 Mg2 3.330928 1_455
Mg0 Mg4 3.330928 1_455
Mg0 Mg9 3.358953 1_554
Mg0 Mg8 3.358953 1_555
Mg0 Mg7 3.358959 1_564
Mg0 Mg6 3.358959 1_565
Mg1 Mg8 3.250941 1_555
Mg1 Mg9 3.250941 1_555
Mg1 Mg6 3.250948 1_565
Mg1 Mg7 3.250948 1_565
Mg1 Mg3 3.251094 1_455
Mg1 Mg5 3.251094 1_455
Mg1 Mg3 3.318708 1_565
Mg1 Mg5 3.318708 1_555
Mg1 Mg13 3.351888 1_455
Mg1 Mg12 3.351888 1_455
Mg2 Mg4 3.238874 1_545
Mg2 Rb0 3.285009 1_655
Mg2 Rb0 3.285009 1_555
Mg2 Mg4 3.330928 1_555
Mg2 Mg7 3.358959 1_554
Mg2 Mg6 3.358959 1_555
Mg3 Mg6 3.250948 1_555
Mg3 Mg7 3.250948 1_555
Mg3 Mg5 3.251094 1_555
Mg3 Mg5 3.318708 1_545
Mg4 Rb0 3.285009 1_555
Mg4 Rb0 3.285009 1_665
Mg4 Mg9 3.358959 1_554
Mg4 Mg8 3.358959 1_555
Mg5 Mg8 3.250948 1_555
Mg5 Mg9 3.250948 1_555
Mg6 Mg8 3.172531 1_545
Mg6 Mg8 3.397271 1_555
Mg6 Rb0 3.420979 1_555
Mg7 Mg9 3.172531 1_545
Mg7 Mg9 3.397271 1_555
Mg7 Rb0 3.420979 1_556
Mg8 Rb0 3.420986 1_555
Mg9 Rb0 3.420986 1_556
Mg10 Mg8 3.172531 1_545
Mg10 Mg6 3.172532 1_555
Mg10 Mg3 3.250941 1_555
Mg10 Mg5 3.250948 1_545
Mg10 Mg12 3.287787 1_555
Mg10 Mg12 3.287787 1_545
Mg10 Mg2 3.358953 1_555
Mg10 Mg4 3.358959 1_545
Mg10 Mg8 3.397271 1_655
Mg10 Mg6 3.397271 1_655
Mg10 Rb0 3.420986 1_655
Mg11 Mg9 3.172531 1_545
Mg11 Mg7 3.172532 1_555
Mg11 Mg3 3.250941 1_555
Mg11 Mg5 3.250948 1_545
Mg11 Mg13 3.287787 1_555
Mg11 Mg13 3.287787 1_545
Mg11 Mg2 3.358953 1_556
Mg11 Mg4 3.358959 1_546
Mg11 Mg9 3.397271 1_655
Mg11 Mg7 3.397271 1_655
Mg11 Rb0 3.420986 1_656
Mg12 Mg6 3.287787 1_555
Mg12 Mg6 3.287787 1_665
Mg12 Mg8 3.287787 1_655
Mg12 Mg8 3.287787 1_555
Mg12 Mg4 3.299707 1_555
Mg12 Mg2 3.299713 1_555
Mg12 Mg5 3.351881 1_555
Mg12 Mg3 3.351888 1_555
Mg13 Mg7 3.287787 1_555
Mg13 Mg7 3.287787 1_665
Mg13 Mg9 3.287787 1_655
Mg13 Mg9 3.287787 1_555
Mg13 Mg4 3.299707 1_556
Mg13 Mg2 3.299713 1_556
Mg13 Mg5 3.351881 1_555
Mg13 Mg3 3.351888 1_555
Bi0 Mg5 3.284959 1_445
Bi0 Mg1 3.284959 1_545
Bi0 Mg1 3.284959 1_555
Bi0 Mg5 3.284959 1_555
Bi0 Mg3 3.284959 1_555
Bi0 Mg3 3.284959 1_455
Bi0 Mg6 3.301375 1_555
Bi0 Mg7 3.301375 1_555
Bi0 Mg8 3.301382 1_555
Bi0 Mg9 3.301382 1_555
Bi0 Mg10 3.301382 1_455
Bi0 Mg11 3.301382 1_455
