# generated using pymatgen
data_SiC2(NF)6
_symmetry_space_group_name_H-M   'P 1'
_cell_length_a   6.00314587
_cell_length_b   6.79041200
_cell_length_c   6.61868100
_cell_angle_alpha   120.86207711
_cell_angle_beta   110.60531131
_cell_angle_gamma   90.00000000
_symmetry_Int_Tables_number   1
_chemical_formula_structural   SiC2(NF)6
_chemical_formula_sum   'Si1 C2 N6 F6'
_cell_volume   211.24110824
_cell_formula_units_Z   1
loop_
 _symmetry_equiv_pos_site_id
 _symmetry_equiv_pos_as_xyz
  1  'x, y, z'
loop_
 _atom_site_type_symbol
 _atom_site_label
 _atom_site_symmetry_multiplicity
 _atom_site_fract_x
 _atom_site_fract_y
 _atom_site_fract_z
 _atom_site_occupancy
  Si  Si0  1  0.50000000  0.00000000  0.00000000  1
  C  C0  1  0.76465800  0.72389700  0.44779500  1
  C  C1  1  0.23534200  0.27610300  0.55220500  1
  N  N0  1  0.76543700  0.60620900  0.21241700  1
  N  N1  1  0.23456300  0.39379100  0.78758300  1
  N  N2  1  0.76787300  0.61105400  0.56605500  1
  N  N3  1  0.23212700  0.38894600  0.43394500  1
  N  N4  1  0.23212700  0.04499900  0.43394500  1
  N  N5  1  0.76787300  0.95500100  0.56605500  1
  F  F0  1  0.32115400  0.83758800  0.67517500  1
  F  F1  1  0.67884600  0.16241200  0.32482500  1
  F  F2  1  0.68265300  0.79947900  0.95758800  1
  F  F3  1  0.31734700  0.20052100  0.04241200  1
  F  F4  1  0.31734700  0.84189000  0.04241200  1
  F  F5  1  0.68265300  0.15811000  0.95758800  1
loop_
_geom_bond_atom_site_label_1
_geom_bond_atom_site_label_2
_geom_bond_distance
_geom_bond_site_symmetry_2
C0 N0 1.339226 1_555
C0 N2 1.343452 1_555
C0 N5 1.343458 1_555
C1 N1 1.339226 1_555
C1 N3 1.343452 1_555
C1 N4 1.343458 1_555
F0 Si0 1.712860 1_566
F1 Si0 1.712860 1_555
F2 Si0 1.720352 1_566
F3 Si0 1.720352 1_555
F4 Si0 1.720357 1_565
F5 Si0 1.720357 1_556
