# generated using pymatgen
data_Si4WO10
_symmetry_space_group_name_H-M   'P 1'
_cell_length_a   7.60700600
_cell_length_b   7.60700600
_cell_length_c   16.32572400
_cell_angle_alpha   90.00000000
_cell_angle_beta   90.00000000
_cell_angle_gamma   90.00000000
_symmetry_Int_Tables_number   1
_chemical_formula_structural   Si4WO10
_chemical_formula_sum   'Si16 W4 O40'
_cell_volume   944.71316551
_cell_formula_units_Z   4
loop_
 _symmetry_equiv_pos_site_id
 _symmetry_equiv_pos_as_xyz
  1  'x, y, z'
loop_
 _atom_site_type_symbol
 _atom_site_label
 _atom_site_symmetry_multiplicity
 _atom_site_fract_x
 _atom_site_fract_y
 _atom_site_fract_z
 _atom_site_occupancy
  Si  Si0  1  0.17545400  0.26634800  0.65510400  1
  Si  Si1  1  0.82454600  0.73365200  0.65510400  1
  Si  Si2  1  0.26634800  0.17545400  0.84489600  1
  Si  Si3  1  0.76634800  0.32454600  0.65510400  1
  Si  Si4  1  0.23365200  0.67545400  0.65510400  1
  Si  Si5  1  0.32454600  0.76634800  0.84489600  1
  Si  Si6  1  0.67545400  0.23365200  0.84489600  1
  Si  Si7  1  0.73365200  0.82454600  0.84489600  1
  Si  Si8  1  0.32454600  0.23365200  0.34489600  1
  Si  Si9  1  0.67545400  0.76634800  0.34489600  1
  Si  Si10  1  0.23365200  0.32454600  0.15510400  1
  Si  Si11  1  0.73365200  0.17545400  0.34489600  1
  Si  Si12  1  0.26634800  0.82454600  0.34489600  1
  Si  Si13  1  0.17545400  0.73365200  0.15510400  1
  Si  Si14  1  0.82454600  0.26634800  0.15510400  1
  Si  Si15  1  0.76634800  0.67545400  0.15510400  1
  W  W0  1  0.50000000  0.00000000  0.58598400  1
  W  W1  1  0.00000000  0.50000000  0.91401600  1
  W  W2  1  0.00000000  0.50000000  0.41401600  1
  W  W3  1  0.50000000  0.00000000  0.08598400  1
  O  O0  1  0.27931000  0.13037100  0.59583700  1
  O  O1  1  0.72069000  0.86962900  0.59583700  1
  O  O2  1  0.13037100  0.27931000  0.90416300  1
  O  O3  1  0.63037100  0.22069000  0.59583700  1
  O  O4  1  0.36962900  0.77931000  0.59583700  1
  O  O5  1  0.22069000  0.63037100  0.90416300  1
  O  O6  1  0.77931000  0.36962900  0.90416300  1
  O  O7  1  0.86962900  0.72069000  0.90416300  1
  O  O8  1  0.22069000  0.36962900  0.40416300  1
  O  O9  1  0.77931000  0.63037100  0.40416300  1
  O  O10  1  0.36962900  0.22069000  0.09583700  1
  O  O11  1  0.86962900  0.27931000  0.40416300  1
  O  O12  1  0.13037100  0.72069000  0.40416300  1
  O  O13  1  0.27931000  0.86962900  0.09583700  1
  O  O14  1  0.72069000  0.13037100  0.09583700  1
  O  O15  1  0.25495900  0.03449700  0.36277300  1
  O  O16  1  0.63037100  0.77931000  0.09583700  1
  O  O17  1  0.75495900  0.53449700  0.63722700  1
  O  O18  1  0.46550300  0.24504100  0.86277300  1
  O  O19  1  0.96550300  0.25495900  0.63722700  1
  O  O20  1  0.03449700  0.74504100  0.63722700  1
  O  O21  1  0.25495900  0.96550300  0.86277300  1
  O  O22  1  0.74504100  0.03449700  0.86277300  1
  O  O23  1  0.53449700  0.75495900  0.86277300  1
  O  O24  1  0.71353700  0.71353700  0.25000000  1
  O  O25  1  0.78646300  0.21353700  0.25000000  1
  O  O26  1  0.21353700  0.78646300  0.25000000  1
  O  O27  1  0.28646300  0.28646300  0.25000000  1
  O  O28  1  0.78646300  0.78646300  0.75000000  1
  O  O29  1  0.71353700  0.28646300  0.75000000  1
  O  O30  1  0.28646300  0.71353700  0.75000000  1
  O  O31  1  0.21353700  0.21353700  0.75000000  1
  O  O32  1  0.96550300  0.74504100  0.13722700  1
  O  O33  1  0.75495900  0.46550300  0.13722700  1
  O  O34  1  0.24504100  0.53449700  0.13722700  1
  O  O35  1  0.46550300  0.75495900  0.36277300  1
  O  O36  1  0.53449700  0.24504100  0.36277300  1
  O  O37  1  0.03449700  0.25495900  0.13722700  1
  O  O38  1  0.74504100  0.96550300  0.36277300  1
  O  O39  1  0.24504100  0.46550300  0.63722700  1
loop_
_geom_bond_atom_site_label_1
_geom_bond_atom_site_label_2
_geom_bond_distance
_geom_bond_site_symmetry_2
O0 Si0 1.621818 1_555
O0 W0 1.956463 1_555
O1 Si1 1.621818 1_555
O1 W0 1.956463 1_565
O2 Si2 1.621818 1_555
O2 W1 1.956463 1_555
O3 Si3 1.621818 1_555
O3 W0 1.956463 1_555
O4 Si4 1.621818 1_555
O4 W0 1.956463 1_565
O5 Si5 1.621818 1_555
O5 W1 1.956463 1_555
O6 Si6 1.621818 1_555
O6 W1 1.956463 1_655
O7 Si7 1.621818 1_555
O7 W1 1.956463 1_655
O8 Si8 1.621818 1_555
O8 W2 1.956463 1_555
O9 Si9 1.621818 1_555
O9 W2 1.956463 1_655
O10 Si10 1.621818 1_555
O10 W3 1.956463 1_555
O11 Si11 1.621818 1_555
O11 W2 1.956463 1_655
O12 Si12 1.621818 1_555
O12 W2 1.956463 1_555
O13 Si13 1.621818 1_555
O13 W3 1.956463 1_565
O14 Si14 1.621818 1_555
O14 W3 1.956463 1_555
O15 Si12 1.625856 1_545
O15 Si8 1.631114 1_555
O16 Si15 1.621818 1_555
O16 W3 1.956463 1_565
O17 Si3 1.625856 1_555
O17 Si1 1.631114 1_555
O18 Si6 1.625856 1_555
O18 Si2 1.631114 1_555
O19 Si0 1.625856 1_655
O19 Si3 1.631114 1_555
O20 Si1 1.625856 1_455
O20 Si4 1.631114 1_555
O21 Si2 1.625856 1_565
O21 Si5 1.631114 1_555
O22 Si7 1.625856 1_545
O22 Si6 1.631114 1_555
O23 Si5 1.625856 1_555
O23 Si7 1.631114 1_555
O24 Si9 1.626492 1_555
O24 Si15 1.626492 1_555
O25 Si11 1.626492 1_555
O25 Si14 1.626492 1_555
O26 Si12 1.626492 1_555
O26 Si13 1.626492 1_555
O27 Si8 1.626492 1_555
O27 Si10 1.626492 1_555
O28 Si1 1.626492 1_555
O28 Si7 1.626492 1_555
O29 Si3 1.626492 1_555
O29 Si6 1.626492 1_555
O30 Si5 1.626492 1_555
O30 Si4 1.626492 1_555
O31 Si0 1.626492 1_555
O31 Si2 1.626492 1_555
O32 Si13 1.625856 1_655
O32 Si15 1.631114 1_555
O33 Si15 1.625856 1_555
O33 Si14 1.631114 1_555
O34 Si10 1.625856 1_555
O34 Si13 1.631114 1_555
O35 Si9 1.625856 1_555
O35 Si12 1.631114 1_555
O36 Si8 1.625856 1_555
O36 Si11 1.631114 1_555
O37 Si14 1.625856 1_455
O37 Si10 1.631114 1_555
O38 Si11 1.625856 1_565
O38 Si9 1.631114 1_555
O39 Si4 1.625856 1_555
O39 Si0 1.631114 1_555
