# generated using pymatgen
data_Tm3InS6
_symmetry_space_group_name_H-M   'P 1'
_cell_length_a   3.82279500
_cell_length_b   13.25905100
_cell_length_c   16.49957500
_cell_angle_alpha   90.00000000
_cell_angle_beta   90.00000000
_cell_angle_gamma   90.00000000
_symmetry_Int_Tables_number   1
_chemical_formula_structural   Tm3InS6
_chemical_formula_sum   'Tm12 In4 S24'
_cell_volume   836.30791700
_cell_formula_units_Z   4
loop_
 _symmetry_equiv_pos_site_id
 _symmetry_equiv_pos_as_xyz
  1  'x, y, z'
loop_
 _atom_site_type_symbol
 _atom_site_label
 _atom_site_symmetry_multiplicity
 _atom_site_fract_x
 _atom_site_fract_y
 _atom_site_fract_z
 _atom_site_occupancy
  Tm  Tm0  1  0.25353400  0.03584600  0.77594100  1
  Tm  Tm1  1  0.25353400  0.96415400  0.22405900  1
  Tm  Tm2  1  0.74646600  0.46415400  0.27594100  1
  Tm  Tm3  1  0.74646600  0.53584600  0.72405900  1
  Tm  Tm4  1  0.26474300  0.24639500  0.61127100  1
  Tm  Tm5  1  0.26474300  0.75360500  0.38872900  1
  Tm  Tm6  1  0.73525700  0.25360500  0.11127100  1
  Tm  Tm7  1  0.73525700  0.74639500  0.88872900  1
  Tm  Tm8  1  0.74766400  0.30944800  0.85617000  1
  Tm  Tm9  1  0.74766400  0.69055200  0.14383000  1
  Tm  Tm10  1  0.25233600  0.19055200  0.35617000  1
  Tm  Tm11  1  0.25233600  0.80944800  0.64383000  1
  In  In0  1  0.75304500  0.00000000  0.50000000  1
  In  In1  1  0.24695500  0.50000000  0.00000000  1
  In  In2  1  0.39080700  0.50000000  0.50000000  1
  In  In3  1  0.60919300  0.00000000  0.00000000  1
  S  S0  1  0.76963900  0.39644300  0.59474800  1
  S  S1  1  0.76963900  0.60355700  0.40525200  1
  S  S2  1  0.23036100  0.10355700  0.09474800  1
  S  S3  1  0.23036100  0.89644300  0.90525200  1
  S  S4  1  0.24659700  0.30551100  0.97992900  1
  S  S5  1  0.24659700  0.69448900  0.02007100  1
  S  S6  1  0.75340300  0.19448900  0.47992900  1
  S  S7  1  0.75340300  0.80551100  0.52007100  1
  S  S8  1  0.75062100  0.10798000  0.88291600  1
  S  S9  1  0.75062100  0.89202000  0.11708400  1
  S  S10  1  0.24937900  0.39202000  0.38291600  1
  S  S11  1  0.24937900  0.60798000  0.61708400  1
  S  S12  1  0.76007500  0.17923000  0.71684300  1
  S  S13  1  0.76007500  0.82077000  0.28315700  1
  S  S14  1  0.23992500  0.32077000  0.21684300  1
  S  S15  1  0.23992500  0.67923000  0.78315700  1
  S  S16  1  0.24931400  0.38419000  0.75642900  1
  S  S17  1  0.24931400  0.61581000  0.24357100  1
  S  S18  1  0.75068600  0.11581000  0.25642900  1
  S  S19  1  0.75068600  0.88419000  0.74357100  1
  S  S20  1  0.25390900  0.02092000  0.60663400  1
  S  S21  1  0.25390900  0.97908000  0.39336600  1
  S  S22  1  0.74609100  0.47908000  0.10663400  1
  S  S23  1  0.74609100  0.52092000  0.89336600  1
loop_
_geom_bond_atom_site_label_1
_geom_bond_atom_site_label_2
_geom_bond_distance
_geom_bond_site_symmetry_2
In0 S7 2.599917 1_545
In0 S6 2.599917 1_555
In0 S21 2.610231 1_545
In0 S20 2.610231 1_555
In0 S21 2.615064 1_645
In0 S20 2.615064 1_655
In1 S5 2.599917 1_555
In1 S4 2.599917 1_554
In1 S22 2.610231 1_555
In1 S23 2.610231 1_554
In1 S22 2.615064 1_455
In1 S23 2.615064 1_454
In2 S10 2.464568 1_555
In2 S11 2.464568 1_555
In2 S0 2.535055 1_555
In2 S1 2.535055 1_555
In3 S9 2.464568 1_545
In3 S8 2.464568 1_554
In3 S2 2.535055 1_555
In3 S3 2.535055 1_544
S0 Tm4 2.759466 1_655
S0 Tm4 2.785274 1_555
S0 Tm3 2.824252 1_555
S1 Tm5 2.759466 1_655
S1 Tm5 2.785274 1_555
S1 Tm2 2.824252 1_555
S2 Tm6 2.759466 1_455
S2 Tm6 2.785274 1_555
S2 Tm1 2.824252 1_545
S3 Tm7 2.759466 1_455
S3 Tm7 2.785274 1_555
S3 Tm0 2.824252 1_565
S4 Tm8 2.794680 1_455
S4 Tm8 2.800254 1_555
S4 Tm6 2.942706 1_556
S4 Tm6 2.998493 1_456
S5 Tm9 2.794680 1_455
S5 Tm9 2.800254 1_555
S5 Tm7 2.942706 1_554
S5 Tm7 2.998493 1_454
S6 Tm10 2.794680 1_655
S6 Tm10 2.800254 1_555
S6 Tm4 2.942706 1_555
S6 Tm4 2.998493 1_655
S7 Tm11 2.794680 1_655
S7 Tm11 2.800254 1_555
S7 Tm5 2.942706 1_555
S7 Tm5 2.998493 1_655
S8 Tm8 2.707504 1_555
S8 Tm0 2.764258 1_555
S8 Tm0 2.779616 1_655
S9 Tm9 2.707504 1_555
S9 Tm1 2.764258 1_555
S9 Tm1 2.779616 1_655
S10 Tm10 2.707504 1_555
S10 Tm2 2.764258 1_555
S10 Tm2 2.779616 1_455
S11 Tm11 2.707504 1_555
S11 Tm3 2.764258 1_555
S11 Tm3 2.779616 1_455
S12 Tm4 2.722646 1_555
S12 Tm4 2.747587 1_655
S12 Tm0 2.850193 1_655
S12 Tm8 2.875401 1_555
S12 Tm0 2.883535 1_555
S13 Tm5 2.722646 1_555
S13 Tm5 2.747587 1_655
S13 Tm1 2.850193 1_655
S13 Tm9 2.875401 1_555
S13 Tm1 2.883535 1_555
S14 Tm6 2.722646 1_555
S14 Tm6 2.747587 1_455
S14 Tm2 2.850193 1_455
S14 Tm10 2.875401 1_555
S14 Tm2 2.883535 1_555
S15 Tm7 2.722646 1_555
S15 Tm7 2.747587 1_455
S15 Tm3 2.850193 1_455
S15 Tm11 2.875401 1_555
S15 Tm3 2.883535 1_555
S16 Tm8 2.705502 1_555
S16 Tm8 2.714400 1_455
S16 Tm3 2.817901 1_555
S16 Tm3 2.832633 1_455
S16 Tm4 3.012933 1_555
S17 Tm9 2.705502 1_555
S17 Tm9 2.714400 1_455
S17 Tm2 2.817901 1_555
S17 Tm2 2.832633 1_455
S17 Tm5 3.012933 1_555
S18 Tm10 2.705502 1_555
S18 Tm10 2.714400 1_655
S18 Tm1 2.817901 1_545
S18 Tm1 2.832633 1_645
S18 Tm6 3.012933 1_555
S19 Tm11 2.705502 1_555
S19 Tm11 2.714400 1_655
S19 Tm0 2.817901 1_565
S19 Tm0 2.832633 1_665
S19 Tm7 3.012933 1_555
S20 Tm0 2.800495 1_555
S20 Tm11 2.870304 1_545
S20 Tm4 2.990850 1_555
S21 Tm1 2.800495 1_555
S21 Tm10 2.870304 1_565
S21 Tm5 2.990850 1_555
S22 Tm2 2.800495 1_555
S22 Tm9 2.870304 1_555
S22 Tm6 2.990850 1_555
S23 Tm3 2.800495 1_555
S23 Tm8 2.870304 1_555
S23 Tm7 2.990850 1_555
