# generated using pymatgen
data_LaHg2
_symmetry_space_group_name_H-M   'P 1'
_cell_length_a   10.13212895
_cell_length_b   10.12713734
_cell_length_c   7.11220482
_cell_angle_alpha   90.00029864
_cell_angle_beta   89.99471514
_cell_angle_gamma   119.98895305
_symmetry_Int_Tables_number   1
_chemical_formula_structural   LaHg2
_chemical_formula_sum   'La8 Hg16'
_cell_volume   632.07792952
_cell_formula_units_Z   8
loop_
 _symmetry_equiv_pos_site_id
 _symmetry_equiv_pos_as_xyz
  1  'x, y, z'
loop_
 _atom_site_type_symbol
 _atom_site_label
 _atom_site_symmetry_multiplicity
 _atom_site_fract_x
 _atom_site_fract_y
 _atom_site_fract_z
 _atom_site_occupancy
  La  La0_0  1  0.00000022  0.00000020  0.00000012  1
  La  La0_1  1  0.00000022  0.00000020  0.50000013  1
  La  La0_2  1  0.00000022  0.50000020  0.00000013  1
  La  La0_3  1  0.00000022  0.50000020  0.50000013  1
  La  La0_4  1  0.50000022  0.00000020  0.00000012  1
  La  La0_5  1  0.50000022  0.00000020  0.50000013  1
  La  La0_6  1  0.50000022  0.50000020  0.00000012  1
  La  La0_7  1  0.50000022  0.50000020  0.50000013  1
  Hg  Hg0_0  1  0.33335489  0.16667729  0.25043574  1
  Hg  Hg0_1  1  0.33335490  0.16667729  0.75043575  1
  Hg  Hg0_2  1  0.33335489  0.66667729  0.25043574  1
  Hg  Hg0_3  1  0.33335489  0.66667729  0.75043575  1
  Hg  Hg0_4  1  0.83335490  0.16667729  0.25043574  1
  Hg  Hg0_5  1  0.83335490  0.16667729  0.75043574  1
  Hg  Hg0_6  1  0.83335490  0.66667729  0.25043575  1
  Hg  Hg0_7  1  0.83335490  0.66667729  0.75043574  1
  Hg  Hg1_0  1  0.16664489  0.33332301  0.24956413  1
  Hg  Hg1_1  1  0.16664488  0.33332301  0.74956413  1
  Hg  Hg1_2  1  0.16664489  0.83332301  0.24956413  1
  Hg  Hg1_3  1  0.16664489  0.83332301  0.74956413  1
  Hg  Hg1_4  1  0.66664489  0.33332301  0.24956413  1
  Hg  Hg1_5  1  0.66664489  0.33332301  0.74956413  1
  Hg  Hg1_6  1  0.66664489  0.83332301  0.24956413  1
  Hg  Hg1_7  1  0.66664489  0.83332301  0.74956413  1
loop_
_geom_bond_atom_site_label_1
_geom_bond_atom_site_label_2
_geom_bond_distance
_geom_bond_site_symmetry_2
La0_0 La0_1 3.556102 1_555
La0_0 La0_1 3.556102 1_554
La0_2 La0_3 3.556102 1_554
La0_2 La0_3 3.556102 1_555
La0_4 La0_5 3.556102 1_555
La0_4 La0_5 3.556102 1_554
La0_6 La0_7 3.556102 1_555
La0_6 La0_7 3.556102 1_554
Hg0_0 Hg1_2 2.923969 1_545
Hg0_0 Hg1_0 2.924214 1_555
Hg0_0 Hg1_4 2.924845 1_555
Hg0_0 La0_7 3.420365 1_555
Hg0_0 La0_5 3.420573 1_555
Hg0_0 La0_1 3.421606 1_555
Hg0_0 La0_6 3.423441 1_555
Hg0_0 La0_4 3.423621 1_555
Hg0_0 La0_0 3.425139 1_555
Hg0_1 Hg1_3 2.923969 1_545
Hg0_1 Hg1_1 2.924214 1_555
Hg0_1 Hg1_5 2.924845 1_555
Hg0_1 La0_6 3.420365 1_556
Hg0_1 La0_4 3.420573 1_556
Hg0_1 La0_0 3.421606 1_556
Hg0_1 La0_7 3.423441 1_555
Hg0_1 La0_5 3.423621 1_555
Hg0_1 La0_1 3.425139 1_555
Hg0_2 Hg1_0 2.923969 1_555
Hg0_2 Hg1_2 2.924214 1_555
Hg0_2 Hg1_6 2.924845 1_555
Hg0_2 La0_5 3.420365 1_565
Hg0_2 La0_7 3.420573 1_555
Hg0_2 La0_3 3.421606 1_555
Hg0_2 La0_4 3.423441 1_565
Hg0_2 La0_6 3.423621 1_555
Hg0_2 La0_2 3.425139 1_555
Hg0_3 Hg1_1 2.923969 1_555
Hg0_3 Hg1_3 2.924214 1_555
Hg0_3 Hg1_7 2.924845 1_555
Hg0_3 La0_4 3.420365 1_566
Hg0_3 La0_6 3.420573 1_556
Hg0_3 La0_2 3.421606 1_556
Hg0_3 La0_5 3.423441 1_565
Hg0_3 La0_7 3.423621 1_555
Hg0_3 La0_3 3.425139 1_555
Hg0_4 Hg1_6 2.923969 1_545
Hg0_4 Hg1_4 2.924214 1_555
Hg0_4 Hg1_0 2.924845 1_655
Hg0_4 La0_3 3.420365 1_655
Hg0_4 La0_1 3.420573 1_655
Hg0_4 La0_5 3.421606 1_555
Hg0_4 La0_2 3.423441 1_655
Hg0_4 La0_0 3.423621 1_655
Hg0_4 La0_4 3.425139 1_555
Hg0_5 Hg1_7 2.923969 1_545
Hg0_5 Hg1_5 2.924214 1_555
Hg0_5 Hg1_1 2.924845 1_655
Hg0_5 La0_2 3.420365 1_656
Hg0_5 La0_0 3.420573 1_656
Hg0_5 La0_4 3.421606 1_556
Hg0_5 La0_3 3.423441 1_655
Hg0_5 La0_1 3.423621 1_655
Hg0_5 La0_5 3.425139 1_555
Hg0_6 Hg1_4 2.923969 1_555
Hg0_6 Hg1_6 2.924214 1_555
Hg0_6 Hg1_2 2.924845 1_655
Hg0_6 La0_1 3.420365 1_665
Hg0_6 La0_3 3.420573 1_655
Hg0_6 La0_7 3.421606 1_555
Hg0_6 La0_0 3.423441 1_665
Hg0_6 La0_2 3.423621 1_655
Hg0_6 La0_6 3.425139 1_555
Hg0_7 Hg1_5 2.923969 1_555
Hg0_7 Hg1_7 2.924214 1_555
Hg0_7 Hg1_3 2.924845 1_655
Hg0_7 La0_0 3.420365 1_666
Hg0_7 La0_2 3.420573 1_656
Hg0_7 La0_6 3.421606 1_556
Hg0_7 La0_1 3.423441 1_665
Hg0_7 La0_3 3.423621 1_655
Hg0_7 La0_7 3.425139 1_555
Hg1_0 La0_0 3.420362 1_555
Hg1_0 La0_2 3.420567 1_555
Hg1_0 La0_6 3.421609 1_555
Hg1_0 La0_1 3.423441 1_555
Hg1_0 La0_3 3.423619 1_555
Hg1_0 La0_7 3.425145 1_555
Hg1_1 La0_1 3.420362 1_555
Hg1_1 La0_3 3.420567 1_555
Hg1_1 La0_7 3.421609 1_555
Hg1_1 La0_0 3.423441 1_556
Hg1_1 La0_2 3.423619 1_556
Hg1_1 La0_6 3.425145 1_556
Hg1_2 La0_2 3.420362 1_555
Hg1_2 La0_0 3.420567 1_565
Hg1_2 La0_4 3.421609 1_565
Hg1_2 La0_3 3.423441 1_555
Hg1_2 La0_1 3.423619 1_565
Hg1_2 La0_5 3.425145 1_565
Hg1_3 La0_3 3.420362 1_555
Hg1_3 La0_1 3.420567 1_565
Hg1_3 La0_5 3.421609 1_565
Hg1_3 La0_2 3.423441 1_556
Hg1_3 La0_0 3.423619 1_566
Hg1_3 La0_4 3.425145 1_566
Hg1_4 La0_4 3.420362 1_555
Hg1_4 La0_6 3.420567 1_555
Hg1_4 La0_2 3.421609 1_655
Hg1_4 La0_5 3.423441 1_555
Hg1_4 La0_7 3.423619 1_555
Hg1_4 La0_3 3.425145 1_655
Hg1_5 La0_5 3.420362 1_555
Hg1_5 La0_7 3.420567 1_555
Hg1_5 La0_3 3.421609 1_655
Hg1_5 La0_4 3.423441 1_556
Hg1_5 La0_6 3.423619 1_556
Hg1_5 La0_2 3.425145 1_656
Hg1_6 La0_6 3.420362 1_555
Hg1_6 La0_4 3.420567 1_565
Hg1_6 La0_0 3.421609 1_665
Hg1_6 La0_7 3.423441 1_555
Hg1_6 La0_5 3.423619 1_565
Hg1_6 La0_1 3.425145 1_665
Hg1_7 La0_7 3.420362 1_555
Hg1_7 La0_5 3.420567 1_565
Hg1_7 La0_1 3.421609 1_665
Hg1_7 La0_6 3.423441 1_556
Hg1_7 La0_4 3.423619 1_566
Hg1_7 La0_0 3.425145 1_666
