# generated using pymatgen
data_CaW6NCl18
_symmetry_space_group_name_H-M   'P 1'
_cell_length_a   9.08499212
_cell_length_b   9.08499212
_cell_length_c   18.19290800
_cell_angle_alpha   90.00000000
_cell_angle_beta   90.00000000
_cell_angle_gamma   120.00000085
_symmetry_Int_Tables_number   1
_chemical_formula_structural   CaW6NCl18
_chemical_formula_sum   'Ca2 W12 N2 Cl36'
_cell_volume   1300.41467229
_cell_formula_units_Z   2
loop_
 _symmetry_equiv_pos_site_id
 _symmetry_equiv_pos_as_xyz
  1  'x, y, z'
loop_
 _atom_site_type_symbol
 _atom_site_label
 _atom_site_symmetry_multiplicity
 _atom_site_fract_x
 _atom_site_fract_y
 _atom_site_fract_z
 _atom_site_occupancy
  Ca  Ca0  1  0.00000000  0.00000000  0.00000000  1
  Ca  Ca1  1  0.00000000  0.00000000  0.50000000  1
  W  W0  1  0.81555000  0.29879000  0.83524200  1
  W  W1  1  0.18445000  0.70121000  0.16475800  1
  W  W2  1  0.48324000  0.18445000  0.83524200  1
  W  W3  1  0.18445000  0.70121000  0.33524200  1
  W  W4  1  0.51676000  0.81555000  0.16475800  1
  W  W5  1  0.81555000  0.29879000  0.66475800  1
  W  W6  1  0.70121000  0.51676000  0.83524200  1
  W  W7  1  0.51676000  0.81555000  0.33524200  1
  W  W8  1  0.29879000  0.48324000  0.16475800  1
  W  W9  1  0.48324000  0.18445000  0.66475800  1
  W  W10  1  0.29879000  0.48324000  0.33524200  1
  W  W11  1  0.70121000  0.51676000  0.66475800  1
  N  N0  1  0.66666700  0.33333300  0.75000000  1
  N  N1  1  0.33333300  0.66666700  0.25000000  1
  Cl  Cl0  1  0.53095400  0.58407900  0.75000000  1
  Cl  Cl1  1  0.46904600  0.41592100  0.25000000  1
  Cl  Cl2  1  0.05312600  0.46904600  0.75000000  1
  Cl  Cl3  1  0.94687400  0.53095400  0.25000000  1
  Cl  Cl4  1  0.41592100  0.94687400  0.75000000  1
  Cl  Cl5  1  0.58407900  0.05312600  0.25000000  1
  Cl  Cl6  1  0.62440700  0.10737100  0.92658600  1
  Cl  Cl7  1  0.37559300  0.89262900  0.07341400  1
  Cl  Cl8  1  0.48296300  0.37559300  0.92658600  1
  Cl  Cl9  1  0.37559300  0.89262900  0.42658600  1
  Cl  Cl10  1  0.51703700  0.62440700  0.07341400  1
  Cl  Cl11  1  0.62440700  0.10737100  0.57341400  1
  Cl  Cl12  1  0.89262900  0.51703700  0.92658600  1
  Cl  Cl13  1  0.51703700  0.62440700  0.42658600  1
  Cl  Cl14  1  0.10737100  0.48296300  0.07341400  1
  Cl  Cl15  1  0.48296300  0.37559300  0.57341400  1
  Cl  Cl16  1  0.10737100  0.48296300  0.42658600  1
  Cl  Cl17  1  0.89262900  0.51703700  0.57341400  1
  Cl  Cl18  1  0.79785800  0.08056200  0.75000000  1
  Cl  Cl19  1  0.20214200  0.91943800  0.25000000  1
  Cl  Cl20  1  0.28270400  0.20214200  0.75000000  1
  Cl  Cl21  1  0.71729600  0.79785800  0.25000000  1
  Cl  Cl22  1  0.91943800  0.71729600  0.75000000  1
  Cl  Cl23  1  0.08056200  0.28270400  0.25000000  1
  Cl  Cl24  1  0.74560600  0.77603100  0.90166100  1
  Cl  Cl25  1  0.25439400  0.22396900  0.09833900  1
  Cl  Cl26  1  0.03042500  0.25439400  0.90166100  1
  Cl  Cl27  1  0.25439400  0.22396900  0.40166100  1
  Cl  Cl28  1  0.96957500  0.74560600  0.09833900  1
  Cl  Cl29  1  0.74560600  0.77603100  0.59833900  1
  Cl  Cl30  1  0.22396900  0.96957500  0.90166100  1
  Cl  Cl31  1  0.96957500  0.74560600  0.40166100  1
  Cl  Cl32  1  0.77603100  0.03042500  0.09833900  1
  Cl  Cl33  1  0.03042500  0.25439400  0.59833900  1
  Cl  Cl34  1  0.77603100  0.03042500  0.40166100  1
  Cl  Cl35  1  0.22396900  0.96957500  0.59833900  1
loop_
_geom_bond_atom_site_label_1
_geom_bond_atom_site_label_2
_geom_bond_distance
_geom_bond_site_symmetry_2
Ca0 Cl25 2.824862 1_555
Ca0 Cl24 2.824862 1_444
Ca0 Cl28 2.824862 1_445
Ca0 Cl26 2.824862 1_554
Ca0 Cl32 2.824862 1_455
Ca0 Cl30 2.824862 1_544
Ca1 Cl27 2.824862 1_555
Ca1 Cl29 2.824862 1_445
Ca1 Cl31 2.824862 1_445
Ca1 Cl33 2.824862 1_555
Ca1 Cl35 2.824862 1_545
Ca1 Cl34 2.824862 1_455
N0 W0 2.181163 1_555
N0 W5 2.181163 1_555
N0 W2 2.181167 1_555
N0 W9 2.181167 1_555
N0 W6 2.181169 1_555
N0 W11 2.181169 1_555
N1 W3 2.181163 1_555
N1 W1 2.181163 1_555
N1 W7 2.181167 1_555
N1 W4 2.181167 1_555
N1 W10 2.181169 1_555
N1 W8 2.181169 1_555
Cl0 W6 2.473365 1_555
Cl0 W11 2.473365 1_555
Cl1 W10 2.473365 1_555
Cl1 W8 2.473365 1_555
Cl2 W0 2.473370 1_455
Cl2 W5 2.473370 1_455
Cl3 W3 2.473370 1_655
Cl3 W1 2.473370 1_655
Cl4 W2 2.473371 1_565
Cl4 W9 2.473371 1_565
Cl5 W7 2.473371 1_545
Cl5 W4 2.473371 1_545
Cl6 W0 2.404481 1_555
Cl6 W2 2.407257 1_555
Cl7 W1 2.404481 1_555
Cl7 W4 2.407257 1_555
Cl8 W2 2.404484 1_555
Cl8 W6 2.407262 1_555
Cl9 W3 2.404481 1_555
Cl9 W7 2.407257 1_555
Cl10 W4 2.404484 1_555
Cl10 W8 2.407262 1_555
Cl11 W5 2.404481 1_555
Cl11 W9 2.407257 1_555
Cl12 W6 2.404478 1_555
Cl12 W0 2.407263 1_555
Cl13 W7 2.404484 1_555
Cl13 W10 2.407262 1_555
Cl14 W8 2.404478 1_555
Cl14 W1 2.407263 1_555
Cl15 W9 2.404484 1_555
Cl15 W11 2.407262 1_555
Cl16 W10 2.404478 1_555
Cl16 W3 2.407263 1_555
Cl17 W11 2.404478 1_555
Cl17 W5 2.407263 1_555
Cl18 W0 2.458221 1_555
Cl18 W5 2.458221 1_555
Cl19 W1 2.458221 1_555
Cl19 W3 2.458221 1_555
Cl20 W2 2.458221 1_555
Cl20 W9 2.458221 1_555
Cl21 W7 2.458221 1_555
Cl21 W4 2.458221 1_555
Cl22 W6 2.458221 1_555
Cl22 W11 2.458221 1_555
Cl23 W10 2.458221 1_555
Cl23 W8 2.458221 1_555
Cl24 W6 2.494196 1_555
Cl25 W8 2.494196 1_555
Cl26 W0 2.494196 1_455
Cl27 W10 2.494196 1_555
Cl28 W1 2.494196 1_655
Cl29 W11 2.494196 1_555
Cl30 W2 2.494196 1_565
Cl31 W3 2.494196 1_655
Cl32 W4 2.494196 1_545
Cl33 W5 2.494196 1_455
Cl34 W7 2.494196 1_545
Cl35 W9 2.494196 1_565
