# generated using pymatgen
data_LaB4ClO8
_symmetry_space_group_name_H-M   'P 1'
_cell_length_a   6.58644170
_cell_length_b   6.58644170
_cell_length_c   9.87817176
_cell_angle_alpha   82.05836201
_cell_angle_beta   82.05836201
_cell_angle_gamma   119.71470025
_symmetry_Int_Tables_number   1
_chemical_formula_structural   LaB4ClO8
_chemical_formula_sum   'La2 B8 Cl2 O16'
_cell_volume   357.81281943
_cell_formula_units_Z   2
loop_
 _symmetry_equiv_pos_site_id
 _symmetry_equiv_pos_as_xyz
  1  'x, y, z'
loop_
 _atom_site_type_symbol
 _atom_site_label
 _atom_site_symmetry_multiplicity
 _atom_site_fract_x
 _atom_site_fract_y
 _atom_site_fract_z
 _atom_site_occupancy
  La  La0  1  0.56848500  0.15693400  0.90750300  1
  La  La1  1  0.15693400  0.56848500  0.40750300  1
  B  B0  1  0.12936500  0.31247200  0.77910000  1
  B  B1  1  0.31247200  0.12936500  0.27910000  1
  B  B2  1  0.50401700  0.61158100  0.82865000  1
  B  B3  1  0.61158100  0.50401700  0.32865000  1
  B  B4  1  0.22307700  0.73254000  0.75557700  1
  B  B5  1  0.73254000  0.22307700  0.25557700  1
  B  B6  1  0.93558100  0.86592600  0.84234700  1
  B  B7  1  0.86592600  0.93558100  0.34234700  1
  Cl  Cl0  1  0.67946600  0.32485900  0.60211200  1
  Cl  Cl1  1  0.32485900  0.67946600  0.10211200  1
  O  O0  1  0.72162100  0.64975400  0.85640700  1
  O  O1  1  0.64975400  0.72162100  0.35640700  1
  O  O2  1  0.36588300  0.18402600  0.12639300  1
  O  O3  1  0.18402600  0.36588300  0.62639300  1
  O  O4  1  0.34184500  0.37224100  0.83724500  1
  O  O5  1  0.37224100  0.34184500  0.33724500  1
  O  O6  1  0.03913400  0.47189700  0.80799500  1
  O  O7  1  0.47189700  0.03913400  0.30799500  1
  O  O8  1  0.92590200  0.06807400  0.84766700  1
  O  O9  1  0.06807400  0.92590200  0.34766700  1
  O  O10  1  0.15287800  0.87971400  0.82459500  1
  O  O11  1  0.87971400  0.15287800  0.32459500  1
  O  O12  1  0.76713500  0.23329300  0.10641300  1
  O  O13  1  0.23329300  0.76713500  0.60641300  1
  O  O14  1  0.45918700  0.78965300  0.78825600  1
  O  O15  1  0.78965300  0.45918700  0.28825600  1
loop_
_geom_bond_atom_site_label_1
_geom_bond_atom_site_label_2
_geom_bond_distance
_geom_bond_site_symmetry_2
La0 O2 2.456249 1_556
La0 O12 2.481261 1_556
La0 O4 2.614175 1_555
La0 O14 2.655752 1_545
La0 O6 2.664294 1_655
La0 O8 2.703832 1_555
La0 O10 2.752369 1_545
La0 O0 2.822960 1_555
La1 O3 2.456249 1_555
La1 O13 2.481261 1_555
La1 O5 2.614175 1_555
La1 O15 2.655752 1_455
La1 O7 2.664294 1_565
La1 O9 2.703832 1_555
La1 O11 2.752369 1_455
La1 O1 2.822960 1_555
B0 O3 1.451405 1_555
B0 O8 1.468047 1_455
B0 O4 1.477112 1_555
B0 O6 1.480491 1_555
B1 O2 1.451405 1_555
B1 O9 1.468047 1_545
B1 O5 1.477112 1_555
B1 O7 1.480491 1_555
B2 O14 1.366953 1_555
B2 O4 1.379075 1_555
B2 O0 1.401057 1_555
B3 O15 1.366953 1_555
B3 O5 1.379075 1_555
B3 O1 1.401057 1_555
B4 O13 1.446438 1_555
B4 O10 1.469037 1_555
B4 O6 1.483964 1_555
B4 O14 1.502151 1_555
B5 O12 1.446438 1_555
B5 O11 1.469037 1_555
B5 O7 1.483964 1_555
B5 O15 1.502151 1_555
B6 O8 1.371897 1_565
B6 O10 1.372868 1_655
B6 O0 1.390891 1_555
B7 O9 1.371897 1_655
B7 O11 1.372868 1_565
B7 O1 1.390891 1_555
Cl0 La0 2.919813 1_555
Cl0 La1 2.938473 1_655
Cl1 La1 2.919813 1_555
Cl1 La0 2.938473 1_564
