# generated using pymatgen
data_HgPd3
_symmetry_space_group_name_H-M   'P 1'
_cell_length_a   4.92884065
_cell_length_b   4.92884065
_cell_length_c   4.92884065
_cell_angle_alpha   131.91980003
_cell_angle_beta   131.91980003
_cell_angle_gamma   70.35572354
_symmetry_Int_Tables_number   1
_chemical_formula_structural   HgPd3
_chemical_formula_sum   'Hg1 Pd3'
_cell_volume   64.96843668
_cell_formula_units_Z   1
loop_
 _symmetry_equiv_pos_site_id
 _symmetry_equiv_pos_as_xyz
  1  'x, y, z'
loop_
 _atom_site_type_symbol
 _atom_site_label
 _atom_site_symmetry_multiplicity
 _atom_site_fract_x
 _atom_site_fract_y
 _atom_site_fract_z
 _atom_site_occupancy
  Hg  Hg0  1  -0.00000000  0.00000000  -0.00000000  1
  Pd  Pd0  1  0.74999900  0.25000000  0.49999900  1
  Pd  Pd1  1  0.25000000  0.74999900  0.49999900  1
  Pd  Pd2  1  0.50000000  0.50000000  -0.00000000  1
loop_
_geom_bond_atom_site_label_1
_geom_bond_atom_site_label_2
_geom_bond_distance
_geom_bond_site_symmetry_2
Hg0 Pd2 2.839587 1_556
Hg0 Pd2 2.839587 1_545
Hg0 Pd2 2.839587 1_455
Hg0 Pd2 2.839587 1_444
Hg0 Pd1 2.844146 1_555
Hg0 Pd0 2.844146 1_555
Hg0 Pd0 2.844148 1_444
Hg0 Pd1 2.844148 1_444
Hg0 Pd1 2.844148 1_545
Hg0 Pd0 2.844148 1_455
Hg0 Pd1 2.844151 1_544
Hg0 Pd0 2.844151 1_454
Pd0 Pd1 2.839581 1_555
Pd0 Pd1 2.839587 1_656
Pd0 Pd1 2.839587 1_544
Pd0 Pd1 2.839592 1_645
Pd0 Pd2 2.844146 1_555
Pd0 Pd2 2.844148 1_556
Pd0 Pd2 2.844148 1_545
Pd0 Pd2 2.844151 1_656
Pd1 Pd2 2.844146 1_555
Pd1 Pd2 2.844148 1_556
Pd1 Pd2 2.844148 1_455
Pd1 Pd2 2.844151 1_566
