# generated using pymatgen
data_Ba2VO4
_symmetry_space_group_name_H-M   'P 1'
_cell_length_a   7.73872344
_cell_length_b   6.16559558
_cell_length_c   11.66001237
_cell_angle_alpha   62.04827735
_cell_angle_beta   90.00000000
_cell_angle_gamma   90.00000000
_symmetry_Int_Tables_number   1
_chemical_formula_structural   Ba2VO4
_chemical_formula_sum   'Ba8 V4 O16'
_cell_volume   491.44245632
_cell_formula_units_Z   4
loop_
 _symmetry_equiv_pos_site_id
 _symmetry_equiv_pos_as_xyz
  1  'x, y, z'
loop_
 _atom_site_type_symbol
 _atom_site_label
 _atom_site_symmetry_multiplicity
 _atom_site_fract_x
 _atom_site_fract_y
 _atom_site_fract_z
 _atom_site_occupancy
  Ba  Ba0  1  0.50494210  0.02670512  0.19616865  1
  Ba  Ba1  1  0.00494210  0.97329488  0.30383135  1
  Ba  Ba2  1  0.49505790  0.97329488  0.80383135  1
  Ba  Ba3  1  0.99505790  0.02670512  0.69616865  1
  Ba  Ba4  1  0.15544435  0.31636180  0.92374228  1
  Ba  Ba5  1  0.65544435  0.68363820  0.57625772  1
  Ba  Ba6  1  0.84455565  0.68363820  0.07625772  1
  Ba  Ba7  1  0.34455565  0.31636180  0.42374228  1
  V  V0  1  0.71978359  0.34060587  0.91809649  1
  V  V1  1  0.21978359  0.65939413  0.58190351  1
  V  V2  1  0.28021641  0.65939413  0.08190351  1
  V  V3  1  0.78021641  0.34060587  0.41809649  1
  O  O0  1  0.75824213  0.66449017  0.83021555  1
  O  O1  1  0.25824213  0.33550983  0.66978445  1
  O  O2  1  0.24175787  0.33550983  0.16978445  1
  O  O3  1  0.74175787  0.66449017  0.33021555  1
  O  O4  1  0.82183330  0.14322419  0.86418522  1
  O  O5  1  0.32183330  0.85677581  0.63581478  1
  O  O6  1  0.17816670  0.85677581  0.13581478  1
  O  O7  1  0.67816670  0.14322419  0.36418522  1
  O  O8  1  0.82850183  0.24827205  0.07226389  1
  O  O9  1  0.32850183  0.75172795  0.42773611  1
  O  O10  1  0.17149817  0.75172795  0.92773611  1
  O  O11  1  0.67149817  0.24827205  0.57226389  1
  O  O12  1  0.00624699  0.29017532  0.41750919  1
  O  O13  1  0.50624699  0.70982468  0.08249081  1
  O  O14  1  0.99375301  0.70982468  0.58249081  1
  O  O15  1  0.49375301  0.29017532  0.91750919  1
loop_
_geom_bond_atom_site_label_1
_geom_bond_atom_site_label_2
_geom_bond_distance
_geom_bond_site_symmetry_2
Ba0 O2 2.705330 1_555
Ba0 O7 2.733225 1_555
Ba0 O3 2.741676 1_545
Ba0 O9 2.781688 1_545
Ba0 O13 2.828760 1_545
Ba0 O15 2.873232 1_554
Ba0 O8 2.893609 1_555
Ba0 O6 2.946028 1_545
Ba1 O3 2.705330 1_455
Ba1 O6 2.733225 1_555
Ba1 O2 2.741676 1_565
Ba1 O8 2.781688 1_465
Ba1 O12 2.828760 1_565
Ba1 O14 2.873232 1_455
Ba1 O9 2.893609 1_555
Ba1 O7 2.946028 1_465
Ba2 O0 2.705330 1_555
Ba2 O5 2.733225 1_555
Ba2 O1 2.741676 1_565
Ba2 O11 2.781688 1_565
Ba2 O15 2.828760 1_565
Ba2 O13 2.873232 1_556
Ba2 O10 2.893609 1_555
Ba2 O4 2.946028 1_565
Ba3 O1 2.705330 1_655
Ba3 O4 2.733225 1_555
Ba3 O0 2.741676 1_545
Ba3 O10 2.781688 1_645
Ba3 O14 2.828760 1_545
Ba3 O12 2.873232 1_655
Ba3 O11 2.893609 1_555
Ba3 O5 2.946028 1_645
Ba4 O15 2.626153 1_555
Ba4 O10 2.709282 1_555
Ba4 O6 2.757947 1_546
Ba4 O8 2.982482 1_456
Ba4 O4 2.997004 1_455
Ba4 O2 3.001323 1_556
Ba4 O1 3.014546 1_555
Ba5 O14 2.626153 1_555
Ba5 O11 2.709282 1_555
Ba5 O7 2.757947 1_565
Ba5 O9 2.982482 1_555
Ba5 O5 2.997004 1_555
Ba5 O3 3.001323 1_555
Ba5 O0 3.014546 1_555
Ba6 O13 2.626153 1_555
Ba6 O8 2.709282 1_555
Ba6 O4 2.757947 1_564
Ba6 O10 2.982482 1_654
Ba6 O6 2.997004 1_655
Ba6 O0 3.001323 1_554
Ba6 O3 3.014546 1_555
Ba7 O12 2.626153 1_555
Ba7 O9 2.709282 1_555
Ba7 O5 2.757947 1_545
Ba7 O11 2.982482 1_555
Ba7 O7 2.997004 1_555
Ba7 O1 3.001323 1_555
Ba7 O2 3.014546 1_555
O0 V0 1.791110 1_555
O1 V1 1.791110 1_555
O2 V2 1.791110 1_555
O3 V3 1.791110 1_555
O4 V0 1.793602 1_555
O5 V1 1.793602 1_555
O6 V2 1.793602 1_555
O7 V3 1.793602 1_555
O8 V0 1.817674 1_554
O9 V1 1.817674 1_555
O10 V2 1.817674 1_556
O11 V3 1.817674 1_555
O12 V3 1.777184 1_455
O13 V2 1.777184 1_555
O14 V1 1.777184 1_655
O15 V0 1.777184 1_555
