# generated using pymatgen
data_Nb3NiS6
_symmetry_space_group_name_H-M   'P 1'
_cell_length_a   5.81952571
_cell_length_b   5.81952551
_cell_length_c   11.97525096
_cell_angle_alpha   90.00000295
_cell_angle_beta   90.00000088
_cell_angle_gamma   119.99959917
_symmetry_Int_Tables_number   1
_chemical_formula_structural   Nb3NiS6
_chemical_formula_sum   'Nb6 Ni2 S12'
_cell_volume   351.23046372
_cell_formula_units_Z   2
loop_
 _symmetry_equiv_pos_site_id
 _symmetry_equiv_pos_as_xyz
  1  'x, y, z'
loop_
 _atom_site_type_symbol
 _atom_site_label
 _atom_site_symmetry_multiplicity
 _atom_site_fract_x
 _atom_site_fract_y
 _atom_site_fract_z
 _atom_site_occupancy
  Nb  Nb0  1  -0.00000096  -0.00000091  0.00002580  1
  Nb  Nb1  1  0.00000098  0.00000103  0.49997408  1
  Nb  Nb2  1  0.33333411  0.66666730  0.50297706  1
  Nb  Nb3  1  0.66666586  0.33333281  0.00303711  1
  Nb  Nb4  1  0.66666731  0.33333421  0.49696439  1
  Nb  Nb5  1  0.33333266  0.66666588  0.99702116  1
  Ni  Ni0  1  0.33332907  0.66667091  0.25012098  1
  Ni  Ni1  1  0.66667090  0.33332910  0.74987875  1
  S  S0  1  0.33222369  -0.00167964  0.13075879  1
  S  S1  1  0.00167880  0.33390358  0.13075871  1
  S  S2  1  0.66777005  0.00168611  0.63068090  1
  S  S3  1  -0.00168620  0.33223402  0.86928237  1
  S  S4  1  0.66609567  0.66777585  0.13075901  1
  S  S5  1  -0.00168509  0.66608389  0.63068082  1
  S  S6  1  0.33392031  0.00168539  0.86928242  1
  S  S7  1  0.00168308  0.66777969  0.36927820  1
  S  S8  1  0.33391698  0.33223062  0.63068112  1
  S  S9  1  0.66609645  -0.00168212  0.36927825  1
  S  S10  1  0.66776548  0.66607890  0.86928213  1
  S  S11  1  0.33222087  0.33390435  0.36927796  1
loop_
_geom_bond_atom_site_label_1
_geom_bond_atom_site_label_2
_geom_bond_distance
_geom_bond_site_symmetry_2
Nb0 S0 2.491578 1_555
Nb0 S1 2.491580 1_555
Nb0 S4 2.491585 1_445
Nb0 S3 2.491718 1_554
Nb0 S6 2.491720 1_554
Nb0 S10 2.491725 1_444
Nb1 S7 2.491291 1_545
Nb1 S9 2.491293 1_455
Nb1 S11 2.491299 1_555
Nb1 S2 2.491424 1_455
Nb1 S5 2.491426 1_545
Nb1 S8 2.491431 1_555
Nb2 S5 2.476540 1_555
Nb2 S8 2.476545 1_555
Nb2 S2 2.476549 1_565
Nb2 S11 2.510194 1_555
Nb2 S7 2.510196 1_555
Nb2 S9 2.510201 1_565
Nb3 S1 2.476672 1_655
Nb3 S4 2.476677 1_555
Nb3 S0 2.476681 1_555
Nb3 S10 2.510576 1_554
Nb3 S3 2.510579 1_654
Nb3 S6 2.510583 1_554
Nb4 S9 2.476425 1_555
Nb4 S11 2.476430 1_555
Nb4 S7 2.476434 1_655
Nb4 S8 2.510294 1_555
Nb4 S2 2.510296 1_555
Nb4 S5 2.510301 1_655
Nb5 S6 2.476790 1_565
Nb5 S10 2.476795 1_555
Nb5 S3 2.476798 1_555
Nb5 S4 2.510498 1_556
Nb5 S0 2.510500 1_566
Nb5 S1 2.510505 1_556
Ni0 S7 2.402838 1_555
Ni0 S9 2.402880 1_565
Ni0 S11 2.402893 1_555
Ni0 S0 2.404305 1_565
Ni0 S1 2.404346 1_555
Ni0 S4 2.404360 1_555
Ni1 S2 2.403091 1_555
Ni1 S5 2.403133 1_655
Ni1 S8 2.403146 1_555
Ni1 S3 2.404545 1_655
Ni1 S6 2.404587 1_555
Ni1 S10 2.404600 1_555
