# generated using pymatgen
data_KCd(CO2)3
_symmetry_space_group_name_H-M   'P 1'
_cell_length_a   7.32607093
_cell_length_b   7.32607093
_cell_length_c   7.32151082
_cell_angle_alpha   86.92495767
_cell_angle_beta   86.92495767
_cell_angle_gamma   79.46099548
_symmetry_Int_Tables_number   1
_chemical_formula_structural   KCd(CO2)3
_chemical_formula_sum   'K2 Cd2 C6 O12'
_cell_volume   385.38524203
_cell_formula_units_Z   2
loop_
 _symmetry_equiv_pos_site_id
 _symmetry_equiv_pos_as_xyz
  1  'x, y, z'
loop_
 _atom_site_type_symbol
 _atom_site_label
 _atom_site_symmetry_multiplicity
 _atom_site_fract_x
 _atom_site_fract_y
 _atom_site_fract_z
 _atom_site_occupancy
  K  K0  1  0.10232800  0.89767200  0.75000000  1
  K  K1  1  0.89767200  0.10232800  0.25000000  1
  Cd  Cd0  1  0.50000000  0.00000000  0.00000000  1
  Cd  Cd1  1  0.00000000  0.50000000  0.50000000  1
  C  C0  1  0.24833600  0.38324200  0.85834600  1
  C  C1  1  0.61675800  0.75166400  0.64165400  1
  C  C2  1  0.75166400  0.61675800  0.14165400  1
  C  C3  1  0.38324200  0.24833600  0.35834600  1
  C  C4  1  0.75735400  0.24264600  0.75000000  1
  C  C5  1  0.24264600  0.75735400  0.25000000  1
  O  O0  1  0.26911800  0.21066500  0.85249400  1
  O  O1  1  0.78933500  0.73088200  0.64750600  1
  O  O2  1  0.73088200  0.78933500  0.14750600  1
  O  O3  1  0.21066500  0.26911800  0.35249400  1
  O  O4  1  0.48641400  0.84344100  0.73312100  1
  O  O5  1  0.15655900  0.51358600  0.76687900  1
  O  O6  1  0.51358600  0.15655900  0.26687900  1
  O  O7  1  0.84344100  0.48641400  0.23312100  1
  O  O8  1  0.76231200  0.13347200  0.88860800  1
  O  O9  1  0.86652800  0.23768800  0.61139200  1
  O  O10  1  0.23768800  0.86652800  0.11139200  1
  O  O11  1  0.13347200  0.76231200  0.38860800  1
loop_
_geom_bond_atom_site_label_1
_geom_bond_atom_site_label_2
_geom_bond_distance
_geom_bond_site_symmetry_2
K0 O5 2.765832 1_555
K0 O4 2.765832 1_555
K0 O10 2.858389 1_556
K0 O11 2.858389 1_555
K0 O9 2.926056 1_465
K0 O8 2.926056 1_465
K0 O1 2.936327 1_455
K0 O0 2.936327 1_565
K1 O6 2.765832 1_555
K1 O7 2.765832 1_555
K1 O9 2.858389 1_555
K1 O8 2.858389 1_554
K1 O10 2.926056 1_645
K1 O11 2.926056 1_645
K1 O2 2.936327 1_545
K1 O3 2.936327 1_655
Cd0 O6 2.333763 1_555
Cd0 O4 2.333763 1_544
Cd0 O2 2.339122 1_545
Cd0 O0 2.339122 1_554
Cd0 O8 2.397490 1_554
Cd0 O10 2.397490 1_545
Cd1 O5 2.333763 1_555
Cd1 O7 2.333763 1_455
Cd1 O1 2.339122 1_455
Cd1 O3 2.339122 1_555
Cd1 O11 2.397490 1_555
Cd1 O9 2.397490 1_455
C0 O5 1.247888 1_555
C0 O0 1.248277 1_555
C1 O4 1.247888 1_555
C1 O1 1.248277 1_555
C2 O7 1.247888 1_555
C2 O2 1.248277 1_555
C3 O6 1.247888 1_555
C3 O3 1.248277 1_555
C4 O8 1.255839 1_555
C4 O9 1.255839 1_555
C5 O11 1.255839 1_555
C5 O10 1.255839 1_555
