# generated using pymatgen
data_Na3Pr(PO4)2
_symmetry_space_group_name_H-M   'P 1'
_cell_length_a   5.40974183
_cell_length_b   14.10723901
_cell_length_c   18.87779447
_cell_angle_alpha   90.00000000
_cell_angle_beta   90.00000000
_cell_angle_gamma   90.00000000
_symmetry_Int_Tables_number   1
_chemical_formula_structural   Na3Pr(PO4)2
_chemical_formula_sum   'Na24 Pr8 P16 O64'
_cell_volume   1440.68759769
_cell_formula_units_Z   8
loop_
 _symmetry_equiv_pos_site_id
 _symmetry_equiv_pos_as_xyz
  1  'x, y, z'
loop_
 _atom_site_type_symbol
 _atom_site_label
 _atom_site_symmetry_multiplicity
 _atom_site_fract_x
 _atom_site_fract_y
 _atom_site_fract_z
 _atom_site_occupancy
  Na  Na0  1  0.98379961  0.21629838  0.99312311  1
  Na  Na1  1  0.01620039  0.78370162  0.49312311  1
  Na  Na2  1  0.01620039  0.71629838  0.99312311  1
  Na  Na3  1  0.98379961  0.28370162  0.49312311  1
  Na  Na4  1  0.98848966  0.95210563  0.64794129  1
  Na  Na5  1  0.01151034  0.04789437  0.14794129  1
  Na  Na6  1  0.01151034  0.45210563  0.64794129  1
  Na  Na7  1  0.98848966  0.54789437  0.14794129  1
  Na  Na8  1  0.99099657  0.86207640  0.82851333  1
  Na  Na9  1  0.00900343  0.13792360  0.32851333  1
  Na  Na10  1  0.00900343  0.36207640  0.82851333  1
  Na  Na11  1  0.99099657  0.63792360  0.32851333  1
  Na  Na12  1  0.47486210  0.79730089  0.73141306  1
  Na  Na13  1  0.52513790  0.20269911  0.23141306  1
  Na  Na14  1  0.52513790  0.29730089  0.73141306  1
  Na  Na15  1  0.47486210  0.70269911  0.23141306  1
  Na  Na16  1  0.53971364  0.96763839  0.88797345  1
  Na  Na17  1  0.46028636  0.03236161  0.38797345  1
  Na  Na18  1  0.46028636  0.46763839  0.88797345  1
  Na  Na19  1  0.53971364  0.53236161  0.38797345  1
  Na  Na20  1  0.49769925  0.88514182  0.55024424  1
  Na  Na21  1  0.50230075  0.11485818  0.05024424  1
  Na  Na22  1  0.50230075  0.38514182  0.55024424  1
  Na  Na23  1  0.49769925  0.61485818  0.05024424  1
  Pr  Pr0  1  0.92975713  0.61390754  0.80225633  1
  Pr  Pr1  1  0.07024287  0.38609246  0.30225633  1
  Pr  Pr2  1  0.07024287  0.11390754  0.80225633  1
  Pr  Pr3  1  0.92975713  0.88609246  0.30225633  1
  Pr  Pr4  1  0.55622913  0.63534818  0.57482132  1
  Pr  Pr5  1  0.44377087  0.36465182  0.07482132  1
  Pr  Pr6  1  0.44377087  0.13534818  0.57482132  1
  Pr  Pr7  1  0.55622913  0.86465182  0.07482132  1
  P  P0  1  0.96893852  0.47523774  0.98038649  1
  P  P1  1  0.03106148  0.52476226  0.48038649  1
  P  P2  1  0.03106148  0.97523774  0.98038649  1
  P  P3  1  0.96893852  0.02476226  0.48038649  1
  P  P4  1  0.98659891  0.22926822  0.65299896  1
  P  P5  1  0.01340109  0.77073178  0.15299896  1
  P  P6  1  0.01340109  0.72926822  0.65299896  1
  P  P7  1  0.98659891  0.27073178  0.15299896  1
  P  P8  1  0.47484953  0.51996051  0.72404747  1
  P  P9  1  0.52515047  0.48003949  0.22404747  1
  P  P10  1  0.52515047  0.01996051  0.72404747  1
  P  P11  1  0.47484953  0.98003949  0.22404747  1
  P  P12  1  0.46067464  0.72643143  0.89670614  1
  P  P13  1  0.53932536  0.27356857  0.39670614  1
  P  P14  1  0.53932536  0.22643143  0.89670614  1
  P  P15  1  0.46067464  0.77356857  0.39670614  1
  O  O0  1  0.58401997  0.80411587  0.85131544  1
  O  O1  1  0.41598003  0.19588413  0.35131544  1
  O  O2  1  0.41598003  0.30411587  0.85131544  1
  O  O3  1  0.58401997  0.69588413  0.35131544  1
  O  O4  1  0.69236172  0.46957755  0.76298396  1
  O  O5  1  0.30763828  0.53042245  0.26298396  1
  O  O6  1  0.30763828  0.96957755  0.76298396  1
  O  O7  1  0.69236172  0.03042245  0.26298396  1
  O  O8  1  0.90034713  0.87846853  0.99486438  1
  O  O9  1  0.09965287  0.12153147  0.49486438  1
  O  O10  1  0.09965287  0.37846853  0.99486438  1
  O  O11  1  0.90034713  0.62153147  0.49486438  1
  O  O12  1  0.80168752  0.77963589  0.61149074  1
  O  O13  1  0.19831248  0.22036411  0.11149074  1
  O  O14  1  0.19831248  0.27963589  0.61149074  1
  O  O15  1  0.80168752  0.72036411  0.11149074  1
  O  O16  1  0.68624085  0.46654906  0.99746177  1
  O  O17  1  0.31375915  0.53345094  0.49746177  1
  O  O18  1  0.31375915  0.96654906  0.99746177  1
  O  O19  1  0.68624085  0.03345094  0.49746177  1
  O  O20  1  0.91088036  0.44700059  0.52693698  1
  O  O21  1  0.08911964  0.55299941  0.02693698  1
  O  O22  1  0.08911964  0.94700059  0.52693698  1
  O  O23  1  0.91088036  0.05299941  0.02693698  1
  O  O24  1  0.77234287  0.99262646  0.76031331  1
  O  O25  1  0.22765713  0.00737354  0.26031331  1
  O  O26  1  0.22765713  0.49262646  0.76031331  1
  O  O27  1  0.77234287  0.50737354  0.26031331  1
  O  O28  1  0.59404542  0.62976381  0.88419275  1
  O  O29  1  0.40595458  0.37023619  0.38419275  1
  O  O30  1  0.40595458  0.12976381  0.88419275  1
  O  O31  1  0.59404542  0.87023619  0.38419275  1
  O  O32  1  0.52024496  0.62885479  0.72644426  1
  O  O33  1  0.47975504  0.37114521  0.22644426  1
  O  O34  1  0.47975504  0.12885479  0.72644426  1
  O  O35  1  0.52024496  0.87114521  0.22644426  1
  O  O36  1  0.96660678  0.62062844  0.65088789  1
  O  O37  1  0.03339322  0.37937156  0.15088789  1
  O  O38  1  0.03339322  0.12062844  0.65088789  1
  O  O39  1  0.96660678  0.87937156  0.15088789  1
  O  O40  1  0.81962311  0.21692417  0.87611143  1
  O  O41  1  0.18037689  0.78307583  0.37611143  1
  O  O42  1  0.18037689  0.71692417  0.87611143  1
  O  O43  1  0.81962311  0.28307583  0.37611143  1
  O  O44  1  0.98962545  0.26194432  0.73172913  1
  O  O45  1  0.01037455  0.73805568  0.23172913  1
  O  O46  1  0.01037455  0.76194432  0.73172913  1
  O  O47  1  0.98962545  0.23805568  0.23172913  1
  O  O48  1  0.52976720  0.98836647  0.64501541  1
  O  O49  1  0.47023280  0.01163353  0.14501541  1
  O  O50  1  0.47023280  0.48836647  0.64501541  1
  O  O51  1  0.52976720  0.51163353  0.14501541  1
  O  O52  1  0.99588411  0.99762672  0.90002058  1
  O  O53  1  0.00411589  0.00237328  0.40002058  1
  O  O54  1  0.00411589  0.49762672  0.90002058  1
  O  O55  1  0.99588411  0.50237328  0.40002058  1
  O  O56  1  0.26482730  0.75631371  0.61887548  1
  O  O57  1  0.73517270  0.24368629  0.11887548  1
  O  O58  1  0.73517270  0.25631371  0.61887548  1
  O  O59  1  0.26482730  0.74368629  0.11887548  1
  O  O60  1  0.47277167  0.74899868  0.97753128  1
  O  O61  1  0.52722833  0.25100132  0.47753128  1
  O  O62  1  0.52722833  0.24899868  0.97753128  1
  O  O63  1  0.47277167  0.75100132  0.47753128  1
loop_
_geom_bond_atom_site_label_1
_geom_bond_atom_site_label_2
_geom_bond_distance
_geom_bond_site_symmetry_2
Na0 O10 2.372295 1_655
Na0 O40 2.380805 1_555
Na0 O23 2.422829 1_556
Na0 O13 2.518538 1_656
Na0 O62 2.529824 1_555
Na0 O57 2.755695 1_556
Na0 O62 2.990304 1_655
Na1 O11 2.372295 1_455
Na1 O41 2.380805 1_555
Na1 O22 2.422829 1_555
Na1 O12 2.518538 1_455
Na1 O63 2.529824 1_555
Na1 O56 2.755695 1_555
Na1 O63 2.990304 1_455
Na2 O8 2.372295 1_455
Na2 O42 2.380805 1_555
Na2 O21 2.422829 1_556
Na2 O15 2.518538 1_456
Na2 O60 2.529824 1_555
Na2 O59 2.755695 1_556
Na2 O60 2.990304 1_455
Na3 O9 2.372295 1_655
Na3 O43 2.380805 1_555
Na3 O20 2.422829 1_555
Na3 O14 2.518538 1_655
Na3 O61 2.529824 1_555
Na3 O58 2.755695 1_555
Na3 O61 2.990304 1_655
Na4 O22 2.349370 1_655
Na4 O38 2.390417 1_665
Na4 O24 2.488794 1_555
Na4 O48 2.534347 1_555
Na4 O12 2.722966 1_555
Na4 O6 2.785337 1_655
Na5 O23 2.349370 1_455
Na5 O39 2.390417 1_445
Na5 O25 2.488794 1_555
Na5 O49 2.534347 1_555
Na5 O13 2.722966 1_555
Na5 O7 2.785337 1_455
Na6 O20 2.349370 1_455
Na6 O36 2.390417 1_455
Na6 O26 2.488794 1_555
Na6 O50 2.534347 1_555
Na6 O14 2.722966 1_555
Na6 O4 2.785337 1_455
Na7 O21 2.349370 1_655
Na7 O37 2.390417 1_655
Na7 O27 2.488794 1_555
Na7 O51 2.534347 1_555
Na7 O15 2.722966 1_555
Na7 O5 2.785337 1_655
Na8 O46 2.311836 1_655
Na8 O52 2.340853 1_555
Na8 O0 2.387692 1_555
Na8 O42 2.459685 1_655
Na8 O24 2.539407 1_555
Na8 O6 2.600845 1_655
Na9 O47 2.311836 1_455
Na9 O53 2.340853 1_555
Na9 O1 2.387692 1_555
Na9 O43 2.459685 1_455
Na9 O25 2.539407 1_555
Na9 O7 2.600845 1_455
Na10 O44 2.311836 1_455
Na10 O54 2.340853 1_555
Na10 O2 2.387692 1_555
Na10 O40 2.459685 1_455
Na10 O26 2.539407 1_555
Na10 O4 2.600845 1_455
Na11 O45 2.311836 1_655
Na11 O55 2.340853 1_555
Na11 O3 2.387692 1_555
Na11 O41 2.459685 1_655
Na11 O27 2.539407 1_555
Na11 O5 2.600845 1_655
Na12 O0 2.341228 1_555
Na12 O32 2.390799 1_555
Na12 O56 2.477639 1_555
Na12 O46 2.561791 1_555
Na12 O6 2.660858 1_555
Na12 O12 2.883258 1_555
Na12 O46 2.939615 1_655
Na13 O1 2.341228 1_555
Na13 O33 2.390799 1_555
Na13 O57 2.477639 1_555
Na13 O47 2.561791 1_555
Na13 O7 2.660858 1_555
Na13 O13 2.883258 1_555
Na13 O47 2.939615 1_455
Na14 O2 2.341228 1_555
Na14 O34 2.390799 1_555
Na14 O58 2.477639 1_555
Na14 O44 2.561791 1_555
Na14 O4 2.660858 1_555
Na14 O14 2.883258 1_555
Na14 O44 2.939615 1_455
Na15 O3 2.341228 1_555
Na15 O35 2.390799 1_555
Na15 O59 2.477639 1_555
Na15 O45 2.561791 1_555
Na15 O5 2.660858 1_555
Na15 O15 2.883258 1_555
Na15 O45 2.939615 1_655
Na16 O30 2.399940 1_565
Na16 O18 2.401345 1_555
Na16 O0 2.420311 1_555
Na16 O52 2.514072 1_555
Na16 O6 2.672884 1_555
Na16 O24 2.741499 1_555
Na17 O31 2.399940 1_545
Na17 O19 2.401345 1_555
Na17 O1 2.420311 1_555
Na17 O53 2.514072 1_555
Na17 O7 2.672884 1_555
Na17 O25 2.741499 1_555
Na18 O28 2.399940 1_555
Na18 O16 2.401345 1_555
Na18 O2 2.420311 1_555
Na18 O54 2.514072 1_555
Na18 O4 2.672884 1_555
Na18 O26 2.741499 1_555
Na19 O29 2.399940 1_555
Na19 O17 2.401345 1_555
Na19 O3 2.420311 1_555
Na19 O55 2.514072 1_555
Na19 O5 2.672884 1_555
Na19 O27 2.741499 1_555
Na20 O48 2.313316 1_555
Na20 O63 2.341661 1_555
Na20 O22 2.416732 1_555
Na20 O12 2.501299 1_555
Na20 O19 2.531917 1_565
Na20 O56 2.562930 1_555
Na21 O49 2.313316 1_555
Na21 O62 2.341661 1_554
Na21 O23 2.416732 1_555
Na21 O13 2.501299 1_555
Na21 O18 2.531917 1_544
Na21 O57 2.562930 1_555
Na22 O50 2.313316 1_555
Na22 O61 2.341661 1_555
Na22 O20 2.416732 1_555
Na22 O14 2.501299 1_555
Na22 O17 2.531917 1_555
Na22 O58 2.562930 1_555
Na23 O51 2.313316 1_555
Na23 O60 2.341661 1_554
Na23 O21 2.416732 1_555
Na23 O15 2.501299 1_555
Na23 O16 2.531917 1_554
Na23 O59 2.562930 1_555
O0 P12 1.542889 1_555
O1 P13 1.542889 1_555
O2 P14 1.542889 1_555
O3 P15 1.542889 1_555
O4 P8 1.558862 1_555
O4 Pr0 2.518854 1_555
O5 P9 1.558862 1_555
O5 Pr1 2.518854 1_555
O6 P10 1.558862 1_565
O6 Pr2 2.518854 1_565
O7 P11 1.558862 1_545
O7 Pr3 2.518854 1_545
O8 P2 1.561524 1_655
O8 Pr7 2.404543 1_556
O9 P3 1.561524 1_455
O9 Pr6 2.404543 1_555
O10 P0 1.561524 1_455
O10 Pr5 2.404543 1_556
O11 P1 1.561524 1_655
O11 Pr4 2.404543 1_555
O12 P6 1.559048 1_655
O12 Pr4 2.526992 1_555
O13 P7 1.559048 1_455
O13 Pr5 2.526992 1_555
O14 P4 1.559048 1_455
O14 Pr6 2.526992 1_555
O15 P5 1.559048 1_655
O15 Pr7 2.526992 1_555
O16 P0 1.567722 1_555
O16 Pr5 2.433030 1_556
O17 P1 1.567722 1_555
O17 Pr4 2.433030 1_555
O18 P2 1.567722 1_555
O18 Pr7 2.433030 1_556
O19 P3 1.567722 1_555
O19 Pr6 2.433030 1_555
O20 P1 1.548659 1_655
O21 P0 1.548659 1_454
O22 P3 1.548659 1_465
O23 P2 1.548659 1_644
O24 P10 1.551008 1_565
O24 Pr2 2.480199 1_665
O25 P11 1.551008 1_545
O25 Pr3 2.480199 1_445
O26 P8 1.551008 1_555
O26 Pr0 2.480199 1_455
O27 P9 1.551008 1_555
O27 Pr1 2.480199 1_655
O28 P12 1.560795 1_555
O28 Pr0 2.396003 1_555
O29 P13 1.560795 1_555
O29 Pr1 2.396003 1_555
O30 P14 1.560795 1_555
O30 Pr2 2.396003 1_555
O31 P15 1.560795 1_555
O31 Pr3 2.396003 1_555
O32 P8 1.556361 1_555
O32 Pr0 2.645845 1_555
O32 Pr4 2.870381 1_555
O33 P9 1.556361 1_555
O33 Pr1 2.645845 1_555
O33 Pr5 2.870381 1_555
O34 P10 1.556361 1_555
O34 Pr2 2.645845 1_555
O34 Pr6 2.870381 1_555
O35 P11 1.556361 1_555
O35 Pr3 2.645845 1_555
O35 Pr7 2.870381 1_555
O36 P6 1.553884 1_655
O36 Pr4 2.652111 1_555
O36 Pr0 2.866016 1_555
O37 P7 1.553884 1_455
O37 Pr5 2.652111 1_555
O37 Pr1 2.866016 1_555
O38 P4 1.553884 1_455
O38 Pr6 2.652111 1_555
O38 Pr2 2.866016 1_555
O39 P5 1.553884 1_655
O39 Pr7 2.652111 1_555
O39 Pr3 2.866016 1_555
O40 P14 1.571122 1_555
O40 Pr2 2.427764 1_655
O41 P15 1.571122 1_555
O41 Pr3 2.427764 1_455
O42 P12 1.571122 1_555
O42 Pr0 2.427764 1_455
O43 P13 1.571122 1_555
O43 Pr1 2.427764 1_655
O44 P4 1.556183 1_555
O44 Pr2 2.514795 1_655
O45 P5 1.556183 1_555
O45 Pr3 2.514795 1_455
O46 P6 1.556183 1_555
O46 Pr0 2.514795 1_455
O47 P7 1.556183 1_555
O47 Pr1 2.514795 1_655
O48 P10 1.557303 1_565
O48 Pr6 2.504350 1_565
O49 P11 1.557303 1_545
O49 Pr7 2.504350 1_545
O50 P8 1.557303 1_555
O50 Pr4 2.504350 1_555
O51 P9 1.557303 1_555
O51 Pr5 2.504350 1_555
O52 P2 1.561301 1_655
O52 Pr2 2.501774 1_665
O53 P3 1.561301 1_455
O53 Pr3 2.501774 1_445
O54 P0 1.561301 1_455
O54 Pr0 2.501774 1_455
O55 P1 1.561301 1_655
O55 Pr1 2.501774 1_655
O56 P6 1.552593 1_555
O56 Pr4 2.467550 1_555
O57 P7 1.552593 1_555
O57 Pr5 2.467550 1_555
O58 P4 1.552593 1_555
O58 Pr6 2.467550 1_555
O59 P5 1.552593 1_555
O59 Pr7 2.467550 1_555
O60 P12 1.560033 1_555
O60 Pr7 2.497791 1_556
O61 P13 1.560033 1_555
O61 Pr6 2.497791 1_555
O62 P14 1.560033 1_555
O62 Pr5 2.497791 1_556
O63 P15 1.560033 1_555
O63 Pr4 2.497791 1_555
