# generated using pymatgen
data_Sm3Cu3Sb4
_symmetry_space_group_name_H-M   'P 1'
_cell_length_a   8.36870996
_cell_length_b   8.36870996
_cell_length_c   8.36870996
_cell_angle_alpha   109.47122063
_cell_angle_beta   109.47122063
_cell_angle_gamma   109.47122063
_symmetry_Int_Tables_number   1
_chemical_formula_structural   Sm3Cu3Sb4
_chemical_formula_sum   'Sm6 Cu6 Sb8'
_cell_volume   451.18396780
_cell_formula_units_Z   2
loop_
 _symmetry_equiv_pos_site_id
 _symmetry_equiv_pos_as_xyz
  1  'x, y, z'
loop_
 _atom_site_type_symbol
 _atom_site_label
 _atom_site_symmetry_multiplicity
 _atom_site_fract_x
 _atom_site_fract_y
 _atom_site_fract_z
 _atom_site_occupancy
  Sm  Sm0  1  0.87500000  0.25000000  0.12500000  1
  Sm  Sm1  1  0.62500000  0.75000000  0.37500000  1
  Sm  Sm2  1  0.25000000  0.12500000  0.87500000  1
  Sm  Sm3  1  0.75000000  0.37500000  0.62500000  1
  Sm  Sm4  1  0.12500000  0.87500000  0.25000000  1
  Sm  Sm5  1  0.37500000  0.62500000  0.75000000  1
  Cu  Cu0  1  0.37500000  0.25000000  0.62500000  1
  Cu  Cu1  1  0.12500000  0.75000000  0.87500000  1
  Cu  Cu2  1  0.25000000  0.62500000  0.37500000  1
  Cu  Cu3  1  0.75000000  0.87500000  0.12500000  1
  Cu  Cu4  1  0.62500000  0.37500000  0.25000000  1
  Cu  Cu5  1  0.87500000  0.12500000  0.75000000  1
  Sb  Sb0  1  0.65816230  0.50000000  -0.00000000  1
  Sb  Sb1  1  0.50000000  -0.00000000  0.65816230  1
  Sb  Sb2  1  0.00000000  0.65816230  0.50000000  1
  Sb  Sb3  1  0.84183770  0.84183770  0.84183770  1
  Sb  Sb4  1  0.50000000  0.00000000  0.15816230  1
  Sb  Sb5  1  0.15816230  0.50000000  -0.00000000  1
  Sb  Sb6  1  0.00000000  0.15816230  0.50000000  1
  Sb  Sb7  1  0.34183770  0.34183770  0.34183770  1
loop_
_geom_bond_atom_site_label_1
_geom_bond_atom_site_label_2
_geom_bond_distance
_geom_bond_site_symmetry_2
Cu0 Sb1 2.683494 1_555
Cu0 Sb7 2.683494 1_555
Cu0 Sb0 2.683494 1_556
Cu0 Sb6 2.683494 1_555
Cu0 Sm4 2.958786 1_545
Cu0 Sm2 2.958786 1_555
Cu0 Sm5 2.958786 1_555
Cu0 Sm3 2.958786 1_555
Cu1 Sb5 2.683494 1_556
Cu1 Sb2 2.683494 1_555
Cu1 Sb3 2.683494 1_455
Cu1 Sb4 2.683494 1_566
Cu1 Sm3 2.958786 1_455
Cu1 Sm2 2.958786 1_565
Cu1 Sm5 2.958786 1_555
Cu1 Sm4 2.958786 1_556
Cu2 Sb7 2.683494 1_555
Cu2 Sb5 2.683494 1_555
Cu2 Sb2 2.683494 1_555
Cu2 Sb1 2.683494 1_565
Cu2 Sm4 2.958786 1_555
Cu2 Sm0 2.958786 1_455
Cu2 Sm1 2.958786 1_555
Cu2 Sm5 2.958786 1_555
Cu3 Sb4 2.683494 1_565
Cu3 Sb3 2.683494 1_554
Cu3 Sb0 2.683494 1_555
Cu3 Sb6 2.683494 1_665
Cu3 Sm4 2.958786 1_655
Cu3 Sm1 2.958786 1_555
Cu3 Sm0 2.958786 1_565
Cu3 Sm5 2.958786 1_554
Cu4 Sb7 2.683494 1_555
Cu4 Sb2 2.683494 1_655
Cu4 Sb0 2.683494 1_555
Cu4 Sb4 2.683494 1_555
Cu4 Sm2 2.958786 1_554
Cu4 Sm1 2.958786 1_555
Cu4 Sm3 2.958786 1_555
Cu4 Sm0 2.958786 1_555
Cu5 Sb1 2.683494 1_555
Cu5 Sb3 2.683494 1_545
Cu5 Sb5 2.683494 1_656
Cu5 Sb6 2.683494 1_655
Cu5 Sm1 2.958786 1_545
Cu5 Sm2 2.958786 1_655
Cu5 Sm3 2.958786 1_555
Cu5 Sm0 2.958786 1_556
Sb0 Sm5 3.300524 1_554
Sb0 Sm2 3.300524 1_554
Sb0 Sm1 3.300524 1_555
Sb0 Sm3 3.389552 1_554
Sb0 Sm4 3.389552 1_655
Sb0 Sm0 3.389552 1_555
Sb1 Sm4 3.300524 1_545
Sb1 Sm1 3.300524 1_545
Sb1 Sm3 3.300524 1_555
Sb1 Sm2 3.389552 1_555
Sb1 Sm5 3.389552 1_545
Sb1 Sm0 3.389552 1_556
Sb2 Sm3 3.300524 1_455
Sb2 Sm5 3.300524 1_555
Sb2 Sm0 3.300524 1_455
Sb2 Sm2 3.389552 1_565
Sb2 Sm4 3.389552 1_555
Sb2 Sm1 3.389552 1_455
Sb3 Sm4 3.300524 1_656
Sb3 Sm2 3.300524 1_665
Sb3 Sm0 3.300524 1_566
Sb3 Sm5 3.389552 1_555
Sb3 Sm1 3.389552 1_555
Sb3 Sm3 3.389552 1_555
Sb4 Sm2 3.300524 1_554
Sb4 Sm5 3.300524 1_544
Sb4 Sm0 3.300524 1_555
Sb4 Sm4 3.389552 1_545
Sb4 Sm1 3.389552 1_545
Sb4 Sm3 3.389552 1_555
Sb5 Sm0 3.300524 1_455
Sb5 Sm3 3.300524 1_454
Sb5 Sm4 3.300524 1_555
Sb5 Sm5 3.389552 1_554
Sb5 Sm2 3.389552 1_554
Sb5 Sm1 3.389552 1_555
Sb6 Sm1 3.300524 1_445
Sb6 Sm4 3.300524 1_545
Sb6 Sm2 3.300524 1_555
Sb6 Sm3 3.389552 1_455
Sb6 Sm0 3.389552 1_455
Sb6 Sm5 3.389552 1_555
Sb7 Sm1 3.300524 1_555
Sb7 Sm5 3.300524 1_555
Sb7 Sm3 3.300524 1_555
Sb7 Sm4 3.389552 1_545
Sb7 Sm2 3.389552 1_554
Sb7 Sm0 3.389552 1_455
