# generated using pymatgen
data_SrSi3Au
_symmetry_space_group_name_H-M   'P 1'
_cell_length_a   5.86109670
_cell_length_b   5.86109670
_cell_length_c   5.86109670
_cell_angle_alpha   135.61586212
_cell_angle_beta   135.61586212
_cell_angle_gamma   64.57478076
_symmetry_Int_Tables_number   1
_chemical_formula_structural   SrSi3Au
_chemical_formula_sum   'Sr1 Si3 Au1'
_cell_volume   97.13400906
_cell_formula_units_Z   1
loop_
 _symmetry_equiv_pos_site_id
 _symmetry_equiv_pos_as_xyz
  1  'x, y, z'
loop_
 _atom_site_type_symbol
 _atom_site_label
 _atom_site_symmetry_multiplicity
 _atom_site_fract_x
 _atom_site_fract_y
 _atom_site_fract_z
 _atom_site_occupancy
  Sr  Sr0  1  0.99907189  0.99907189  -0.00000000  1
  Si  Si0  1  0.37853860  0.37853860  0.00000000  1
  Si  Si1  1  0.25582734  0.75582734  0.50000000  1
  Si  Si2  1  0.75582734  0.25582734  0.50000000  1
  Au  Au0  1  0.63323584  0.63323584  -0.00000000  1
loop_
_geom_bond_atom_site_label_1
_geom_bond_atom_site_label_2
_geom_bond_distance
_geom_bond_site_symmetry_2
Si0 Sr0 3.350913 1_444
Si0 Sr0 3.350913 1_545
Si0 Sr0 3.350913 1_455
Si0 Sr0 3.350913 1_556
Si1 Sr0 3.272823 1_455
Si1 Sr0 3.272823 1_556
Si1 Sr0 3.372651 1_456
Si1 Sr0 3.372651 1_445
Si2 Sr0 3.272823 1_545
Si2 Sr0 3.272823 1_556
Si2 Sr0 3.372651 1_445
Si2 Sr0 3.372651 1_546
Au0 Si0 2.523973 1_555
Au0 Si2 2.525234 1_565
Au0 Si2 2.525234 1_554
Au0 Si1 2.525234 1_554
Au0 Si1 2.525234 1_655
Au0 Sr0 3.401404 1_444
Au0 Sr0 3.401404 1_545
Au0 Sr0 3.401404 1_455
Au0 Sr0 3.401404 1_556
