# generated using pymatgen
data_Ca4GaSi3
_symmetry_space_group_name_H-M   'P 1'
_cell_length_a   4.00978925
_cell_length_b   4.50925998
_cell_length_c   10.81090141
_cell_angle_alpha   90.00000000
_cell_angle_beta   90.00000000
_cell_angle_gamma   90.00000000
_symmetry_Int_Tables_number   1
_chemical_formula_structural   Ca4GaSi3
_chemical_formula_sum   'Ca4 Ga1 Si3'
_cell_volume   195.47387807
_cell_formula_units_Z   1
loop_
 _symmetry_equiv_pos_site_id
 _symmetry_equiv_pos_as_xyz
  1  'x, y, z'
loop_
 _atom_site_type_symbol
 _atom_site_label
 _atom_site_symmetry_multiplicity
 _atom_site_fract_x
 _atom_site_fract_y
 _atom_site_fract_z
 _atom_site_occupancy
  Ca  Ca0  1  -0.00000000  -0.00000000  0.36392359  1
  Ca  Ca1  1  -0.00000000  0.50000000  0.85915965  1
  Ca  Ca2  1  0.50000000  0.50000000  0.13958888  1
  Ca  Ca3  1  0.50000000  -0.00000000  0.63875489  1
  Ga  Ga0  1  0.00000000  0.00000000  0.06847384  1
  Si  Si0  1  -0.00000000  0.50000000  0.56657809  1
  Si  Si1  1  0.50000000  0.50000000  0.43462635  1
  Si  Si2  1  0.50000000  0.00000000  0.92889571  1
loop_
_geom_bond_atom_site_label_1
_geom_bond_atom_site_label_2
_geom_bond_distance
_geom_bond_site_symmetry_2
Ca0 Si1 3.112428 1_555
Ca0 Si1 3.112428 1_545
Ca0 Si1 3.112428 1_455
Ca0 Si1 3.112428 1_445
Ca0 Si0 3.143772 1_545
Ca0 Si0 3.143772 1_555
Ca0 Ga0 3.194078 1_555
Ca1 Si2 3.109878 1_565
Ca1 Si2 3.109878 1_465
Ca1 Si2 3.109878 1_555
Ca1 Si2 3.109878 1_455
Ca1 Si0 3.163070 1_555
Ca1 Ga0 3.194364 1_556
Ca1 Ga0 3.194364 1_566
Ca2 Ga0 3.113525 1_555
Ca2 Ga0 3.113525 1_665
Ca2 Ga0 3.113525 1_565
Ca2 Ga0 3.113525 1_655
Ca2 Si1 3.189621 1_555
Ca2 Si2 3.204942 1_554
Ca2 Si2 3.204942 1_564
Ca3 Si0 3.116379 1_545
Ca3 Si0 3.116379 1_555
Ca3 Si0 3.116379 1_655
Ca3 Si0 3.116379 1_645
Ca3 Si2 3.136684 1_555
Ca3 Si1 3.154898 1_555
Ca3 Si1 3.154898 1_545
Ga0 Si2 2.509299 1_554
Ga0 Si2 2.509299 1_454
Si0 Si1 2.460600 1_455
Si0 Si1 2.460600 1_555
