# generated using pymatgen
data_KPrNbInO6
_symmetry_space_group_name_H-M   'P 1'
_cell_length_a   5.82866290
_cell_length_b   5.82866290
_cell_length_c   5.82866290
_cell_angle_alpha   60.00000000
_cell_angle_beta   60.00000000
_cell_angle_gamma   60.00000000
_symmetry_Int_Tables_number   1
_chemical_formula_structural   KPrNbInO6
_chemical_formula_sum   'K1 Pr1 Nb1 In1 O6'
_cell_volume   140.02056238
_cell_formula_units_Z   1
loop_
 _symmetry_equiv_pos_site_id
 _symmetry_equiv_pos_as_xyz
  1  'x, y, z'
loop_
 _atom_site_type_symbol
 _atom_site_label
 _atom_site_symmetry_multiplicity
 _atom_site_fract_x
 _atom_site_fract_y
 _atom_site_fract_z
 _atom_site_occupancy
  K  K0  1  0.25000000  0.25000000  0.25000000  1
  Pr  Pr0  1  0.75000000  0.75000000  0.75000000  1
  Nb  Nb0  1  0.50000000  0.50000000  0.50000000  1
  In  In0  1  -0.00000000  -0.00000000  -0.00000000  1
  O  O0  1  0.74187052  0.25812948  0.25812948  1
  O  O1  1  0.25812948  0.74187052  0.74187052  1
  O  O2  1  0.74187052  0.25812948  0.74187052  1
  O  O3  1  0.25812948  0.74187052  0.25812948  1
  O  O4  1  0.74187052  0.74187052  0.25812948  1
  O  O5  1  0.25812948  0.25812948  0.74187052  1
loop_
_geom_bond_atom_site_label_1
_geom_bond_atom_site_label_2
_geom_bond_distance
_geom_bond_site_symmetry_2
K0 O2 2.915102 1_455
K0 O1 2.915102 1_554
K0 O3 2.915102 1_545
K0 O5 2.915102 1_554
K0 O5 2.915102 1_555
K0 O2 2.915102 1_554
K0 O4 2.915102 1_545
K0 O3 2.915102 1_555
K0 O1 2.915102 1_545
K0 O0 2.915102 1_555
K0 O0 2.915102 1_455
K0 O4 2.915102 1_455
Nb0 O3 1.993732 1_555
Nb0 O0 1.993732 1_555
Nb0 O2 1.993732 1_555
Nb0 O4 1.993732 1_555
Nb0 O1 1.993732 1_555
Nb0 O5 1.993732 1_555
In0 O4 2.127755 1_445
In0 O3 2.127755 1_545
In0 O5 2.127755 1_554
In0 O2 2.127755 1_454
In0 O1 2.127755 1_544
In0 O0 2.127755 1_455
O0 Pr0 2.915102 1_545
O0 Pr0 2.915102 1_554
O1 Pr0 2.915102 1_455
O1 Pr0 2.915102 1_555
O2 Pr0 2.915102 1_545
O2 Pr0 2.915102 1_555
O3 Pr0 2.915102 1_455
O3 Pr0 2.915102 1_554
O4 Pr0 2.915102 1_555
O4 Pr0 2.915102 1_554
O5 Pr0 2.915102 1_455
O5 Pr0 2.915102 1_545
