# generated using pymatgen
data_Li7Mn2(CoO4)3
_symmetry_space_group_name_H-M   'P 1'
_cell_length_a   5.13825500
_cell_length_b   5.93022047
_cell_length_c   7.74531581
_cell_angle_alpha   77.06958855
_cell_angle_beta   75.61522632
_cell_angle_gamma   71.25380466
_symmetry_Int_Tables_number   1
_chemical_formula_structural   Li7Mn2(CoO4)3
_chemical_formula_sum   'Li7 Mn2 Co3 O12'
_cell_volume   213.79950437
_cell_formula_units_Z   1
loop_
 _symmetry_equiv_pos_site_id
 _symmetry_equiv_pos_as_xyz
  1  'x, y, z'
loop_
 _atom_site_type_symbol
 _atom_site_label
 _atom_site_symmetry_multiplicity
 _atom_site_fract_x
 _atom_site_fract_y
 _atom_site_fract_z
 _atom_site_occupancy
  Li  Li0  1  0.98703300  0.50485900  0.01031700  1
  Li  Li1  1  0.99890200  0.83310500  0.66527500  1
  Li  Li2  1  0.50350900  0.34078600  0.17077900  1
  Li  Li3  1  0.50671100  0.67314600  0.84026100  1
  Li  Li4  1  0.01087100  0.16145400  0.32673400  1
  Li  Li5  1  0.49284100  0.98769100  0.48719500  1
  Li  Li6  1  0.50091200  0.83291000  0.16762900  1
  Mn  Mn0  1  0.00051000  0.99876700  0.00059300  1
  Mn  Mn1  1  0.99940100  0.33590100  0.66490200  1
  Co  Co0  1  0.00103200  0.66869200  0.33031600  1
  Co  Co1  1  0.49987400  0.16485300  0.83665300  1
  Co  Co2  1  0.49955100  0.50156100  0.49740000  1
  O  O0  1  0.22367200  0.68234000  0.07628600  1
  O  O1  1  0.22392300  0.01473900  0.75411700  1
  O  O2  1  0.74999900  0.51050000  0.27398700  1
  O  O3  1  0.75367200  0.87117500  0.91911300  1
  O  O4  1  0.23307900  0.32561900  0.43052500  1
  O  O5  1  0.74488100  0.19916800  0.60162800  1
  O  O6  1  0.77599700  0.32423300  0.91040600  1
  O  O7  1  0.76599100  0.64987600  0.59120600  1
  O  O8  1  0.24597100  0.15104900  0.05858700  1
  O  O9  1  0.25423700  0.46738800  0.73265600  1
  O  O10  1  0.77719300  0.00266800  0.23664100  1
  O  O11  1  0.25023600  0.79752000  0.41679100  1
loop_
_geom_bond_atom_site_label_1
_geom_bond_atom_site_label_2
_geom_bond_distance
_geom_bond_site_symmetry_2
Li0 O0 2.054068 1_655
Li0 O8 2.100973 1_655
Li0 O2 2.103248 1_555
Li0 O6 2.111039 1_554
Li0 O3 2.171560 1_554
Li0 O9 2.260545 1_654
Li1 O11 2.046459 1_655
Li1 O3 2.070984 1_555
Li1 O7 2.097128 1_555
Li1 O1 2.120856 1_665
Li1 O5 2.163036 1_565
Li1 O9 2.168419 1_655
Li2 O10 2.084362 1_555
Li2 O4 2.143985 1_555
Li2 O6 2.152728 1_554
Li2 O0 2.166386 1_555
Li2 O2 2.222258 1_555
Li2 O8 2.395451 1_555
Li3 O0 2.032880 1_556
Li3 O7 2.058899 1_555
Li3 O6 2.126316 1_555
Li3 O1 2.155214 1_565
Li3 O3 2.241921 1_555
Li3 O9 2.424079 1_555
Li4 O10 2.062121 1_455
Li4 O2 2.087699 1_455
Li4 O4 2.101995 1_555
Li4 O8 2.130585 1_555
Li4 O11 2.168756 1_545
Li4 O5 2.240978 1_455
Li5 O4 2.041648 1_565
Li5 O10 2.122757 1_565
Li5 O11 2.153991 1_555
Li5 O7 2.159729 1_555
Li5 O1 2.189911 1_565
Li5 O5 2.479347 1_565
Li6 O11 2.045677 1_555
Li6 O3 2.048188 1_554
Li6 O2 2.053874 1_555
Li6 O8 2.058339 1_565
Li6 O10 2.202463 1_565
Li6 O0 2.219943 1_555
Mn0 O10 1.902438 1_465
Mn0 O0 1.907458 1_555
Mn0 O8 1.950162 1_565
Mn0 O3 1.951320 1_454
Mn0 O1 1.967555 1_564
Mn0 O6 1.977336 1_464
Mn1 O7 1.913164 1_555
Mn1 O4 1.913185 1_655
Mn1 O9 1.943904 1_655
Mn1 O5 1.945729 1_555
Mn1 O1 1.957191 1_655
Mn1 O6 1.961081 1_555
Co0 O11 1.988914 1_555
Co0 O2 1.993668 1_455
Co0 O0 2.014039 1_555
Co0 O10 2.019706 1_465
Co0 O7 2.080215 1_455
Co0 O4 2.087381 1_555
Co1 O8 1.885452 1_556
Co1 O3 1.896803 1_545
Co1 O5 1.949398 1_555
Co1 O9 1.965591 1_555
Co1 O1 2.174385 1_555
Co1 O6 2.176890 1_555
Co2 O2 1.884014 1_555
Co2 O11 1.890268 1_555
Co2 O9 1.951359 1_555
Co2 O5 1.965017 1_555
Co2 O7 2.174835 1_555
Co2 O4 2.178097 1_555
