# generated using pymatgen
data_Na5Fe2P2(CO7)2
_symmetry_space_group_name_H-M   'P 1'
_cell_length_a   8.44033300
_cell_length_b   8.44007926
_cell_length_c   9.01939973
_cell_angle_alpha   89.96394456
_cell_angle_beta   90.71793440
_cell_angle_gamma   103.19506722
_symmetry_Int_Tables_number   1
_chemical_formula_structural   Na5Fe2P2(CO7)2
_chemical_formula_sum   'Na10 Fe4 P4 C4 O28'
_cell_volume   625.50160488
_cell_formula_units_Z   2
loop_
 _symmetry_equiv_pos_site_id
 _symmetry_equiv_pos_as_xyz
  1  'x, y, z'
loop_
 _atom_site_type_symbol
 _atom_site_label
 _atom_site_symmetry_multiplicity
 _atom_site_fract_x
 _atom_site_fract_y
 _atom_site_fract_z
 _atom_site_occupancy
  Na  Na0  1  0.75779200  0.49274600  0.07914700  1
  Na  Na1  1  0.24373800  0.97883700  0.08355900  1
  Na  Na2  1  0.87721700  0.86134200  0.26431000  1
  Na  Na3  1  0.61117000  0.11775800  0.26691200  1
  Na  Na4  1  0.38010900  0.38435700  0.26003900  1
  Na  Na5  1  0.38883000  0.88224200  0.73308800  1
  Na  Na6  1  0.61989100  0.61564300  0.73996100  1
  Na  Na7  1  0.12278300  0.13865800  0.73569000  1
  Na  Na8  1  0.24220800  0.50725400  0.92085300  1
  Na  Na9  1  0.75626200  0.02116300  0.91644100  1
  Fe  Fe0  1  0.98252900  0.23992600  0.35593800  1
  Fe  Fe1  1  0.47809400  0.73325000  0.34203800  1
  Fe  Fe2  1  0.01747100  0.76007400  0.64406200  1
  Fe  Fe3  1  0.52190600  0.26675000  0.65796200  1
  P  P0  1  0.77200200  0.52218200  0.42013600  1
  P  P1  1  0.26801400  0.02351700  0.41795100  1
  P  P2  1  0.73198600  0.97648300  0.58204900  1
  P  P3  1  0.22799800  0.47781800  0.57986400  1
  C  C0  1  0.51658200  0.76085300  0.05247300  1
  C  C1  1  0.01065000  0.25186500  0.07362100  1
  C  C2  1  0.98935000  0.74813500  0.92637900  1
  C  C3  1  0.48341800  0.23914700  0.94752700  1
  O  O0  1  0.97153600  0.74334000  0.06624900  1
  O  O1  1  0.47282300  0.22602800  0.09015400  1
  O  O2  1  0.40990000  0.64392200  0.11321900  1
  O  O3  1  0.89022900  0.14806500  0.13703500  1
  O  O4  1  0.61239100  0.86684600  0.13846200  1
  O  O5  1  0.10857400  0.35005800  0.16434500  1
  O  O6  1  0.83247700  0.39047000  0.32785900  1
  O  O7  1  0.33228400  0.90324900  0.31909200  1
  O  O8  1  0.65517500  0.58534400  0.31220000  1
  O  O9  1  0.12971500  0.07664500  0.32681200  1
  O  O10  1  0.30587500  0.54628900  0.43517900  1
  O  O11  1  0.80274600  0.05549400  0.43245000  1
  O  O12  1  0.91803800  0.67053100  0.45704400  1
  O  O13  1  0.40783800  0.17366000  0.45193500  1
  O  O14  1  0.59216200  0.82634000  0.54806500  1
  O  O15  1  0.08196200  0.32946900  0.54295600  1
  O  O16  1  0.19725400  0.94450600  0.56755000  1
  O  O17  1  0.69412500  0.45371100  0.56482100  1
  O  O18  1  0.87028500  0.92335500  0.67318800  1
  O  O19  1  0.16752300  0.60953000  0.67214100  1
  O  O20  1  0.34482500  0.41465600  0.68780000  1
  O  O21  1  0.66771600  0.09675100  0.68090800  1
  O  O22  1  0.89142600  0.64994200  0.83565500  1
  O  O23  1  0.38760900  0.13315400  0.86153800  1
  O  O24  1  0.59010000  0.35607800  0.88678100  1
  O  O25  1  0.10977100  0.85193500  0.86296500  1
  O  O26  1  0.52717700  0.77397200  0.90984600  1
  O  O27  1  0.02846400  0.25666000  0.93375100  1
loop_
_geom_bond_atom_site_label_1
_geom_bond_atom_site_label_2
_geom_bond_distance
_geom_bond_site_symmetry_2
Na0 O24 2.353672 1_554
Na0 O0 2.450415 1_555
Na0 O8 2.477111 1_555
Na0 O6 2.526885 1_555
Na0 O22 2.689007 1_554
Na0 O1 2.897647 1_555
Na1 O7 2.377953 1_555
Na1 O25 2.403691 1_554
Na1 O1 2.500096 1_565
Na1 O23 2.552751 1_564
Na1 O9 2.615181 1_565
Na1 O0 2.675821 1_455
Na2 O0 2.284009 1_555
Na2 O11 2.424329 1_565
Na2 O12 2.443137 1_555
Na2 O4 2.504099 1_555
Na2 O9 2.522885 1_665
Na2 O3 2.657893 1_565
Na2 O8 2.674159 1_555
Na3 O1 2.275709 1_555
Na3 O11 2.333751 1_555
Na3 O4 2.416692 1_545
Na3 O13 2.528879 1_555
Na3 O3 2.603656 1_555
Na3 O6 2.664989 1_555
Na3 O7 2.668559 1_545
Na4 O10 2.274705 1_555
Na4 O1 2.292583 1_555
Na4 O5 2.393566 1_555
Na4 O2 2.523766 1_555
Na4 O13 2.527594 1_555
Na4 O8 2.581595 1_555
Na5 O26 2.275709 1_555
Na5 O16 2.333751 1_555
Na5 O23 2.416692 1_565
Na5 O14 2.528879 1_555
Na5 O25 2.603656 1_555
Na5 O19 2.664989 1_555
Na5 O21 2.668559 1_565
Na6 O17 2.274705 1_555
Na6 O26 2.292583 1_555
Na6 O22 2.393566 1_555
Na6 O24 2.523766 1_555
Na6 O14 2.527594 1_555
Na6 O20 2.581595 1_555
Na7 O27 2.284009 1_555
Na7 O16 2.424329 1_545
Na7 O15 2.443137 1_555
Na7 O23 2.504099 1_555
Na7 O18 2.522885 1_445
Na7 O25 2.657893 1_545
Na7 O20 2.674159 1_555
Na8 O2 2.353672 1_556
Na8 O27 2.450415 1_555
Na8 O20 2.477111 1_555
Na8 O19 2.526885 1_555
Na8 O5 2.689007 1_556
Na8 O26 2.897647 1_555
Na9 O21 2.377953 1_555
Na9 O3 2.403691 1_556
Na9 O26 2.500096 1_545
Na9 O4 2.552751 1_546
Na9 O18 2.615181 1_545
Na9 O27 2.675821 1_655
Fe0 O15 1.948672 1_655
Fe0 O6 2.002194 1_555
Fe0 O11 2.036765 1_555
Fe0 O9 2.074058 1_655
Fe0 O5 2.138825 1_655
Fe0 O3 2.189476 1_555
Fe1 O10 2.071326 1_555
Fe1 O7 2.101302 1_555
Fe1 O14 2.146847 1_555
Fe1 O8 2.174160 1_555
Fe1 O2 2.221058 1_555
Fe1 O4 2.322430 1_555
Fe2 O12 1.948672 1_455
Fe2 O19 2.002194 1_555
Fe2 O16 2.036765 1_555
Fe2 O18 2.074058 1_455
Fe2 O22 2.138825 1_455
Fe2 O25 2.189476 1_555
Fe3 O17 2.071326 1_555
Fe3 O21 2.101302 1_555
Fe3 O13 2.146847 1_555
Fe3 O20 2.174160 1_555
Fe3 O24 2.221058 1_555
Fe3 O23 2.322430 1_555
C0 O26 1.293557 1_554
C0 O2 1.300360 1_555
C0 O4 1.307907 1_555
C1 O27 1.271868 1_554
C1 O5 1.307946 1_555
C1 O3 1.317242 1_455
C2 O0 1.271868 1_556
C2 O22 1.307946 1_555
C2 O25 1.317242 1_655
C3 O1 1.293557 1_556
C3 O24 1.300360 1_555
C3 O23 1.307907 1_555
O6 P0 1.568400 1_555
O7 P1 1.544123 1_565
O8 P0 1.555477 1_555
O9 P1 1.566459 1_555
O10 P3 1.521875 1_555
O11 P2 1.568191 1_545
O12 P0 1.575903 1_555
O13 P1 1.549594 1_555
O14 P2 1.549594 1_555
O15 P3 1.575903 1_555
O16 P1 1.568191 1_565
O17 P0 1.521875 1_555
O18 P2 1.566459 1_555
O19 P3 1.568400 1_555
O20 P3 1.555477 1_555
O21 P2 1.544123 1_545
