# generated using pymatgen
data_Mg3Si2O9
_symmetry_space_group_name_H-M   'P 1'
_cell_length_a   5.41670154
_cell_length_b   5.41670154
_cell_length_c   14.53464400
_cell_angle_alpha   90.00000000
_cell_angle_beta   90.00000000
_cell_angle_gamma   119.99999432
_symmetry_Int_Tables_number   1
_chemical_formula_structural   Mg3Si2O9
_chemical_formula_sum   'Mg6 Si4 O18'
_cell_volume   369.32173577
_cell_formula_units_Z   2
loop_
 _symmetry_equiv_pos_site_id
 _symmetry_equiv_pos_as_xyz
  1  'x, y, z'
loop_
 _atom_site_type_symbol
 _atom_site_label
 _atom_site_symmetry_multiplicity
 _atom_site_fract_x
 _atom_site_fract_y
 _atom_site_fract_z
 _atom_site_occupancy
  Mg  Mg0  1  0.64447100  0.00000000  0.27961300  1
  Mg  Mg1  1  0.35552900  0.35552900  0.27961300  1
  Mg  Mg2  1  0.00000000  0.64447100  0.27961300  1
  Mg  Mg3  1  0.35552900  0.00000000  0.77961300  1
  Mg  Mg4  1  0.64447100  0.64447100  0.77961300  1
  Mg  Mg5  1  0.00000000  0.35552900  0.77961300  1
  Si  Si0  1  0.66666700  0.33333300  0.47437700  1
  Si  Si1  1  0.33333300  0.66666700  0.47437700  1
  Si  Si2  1  0.33333300  0.66666700  0.97437700  1
  Si  Si3  1  0.66666700  0.33333300  0.97437700  1
  O  O0  1  0.66666700  0.33333300  0.36127200  1
  O  O1  1  0.33333300  0.66666700  0.36127200  1
  O  O2  1  0.33333300  0.66666700  0.86127200  1
  O  O3  1  0.66666700  0.33333300  0.86127200  1
  O  O4  1  0.50447900  0.00000000  0.51084300  1
  O  O5  1  0.49552100  0.49552100  0.51084300  1
  O  O6  1  0.00000000  0.50447900  0.51084300  1
  O  O7  1  0.49552100  0.00000000  0.01084300  1
  O  O8  1  0.50447900  0.50447900  0.01084300  1
  O  O9  1  0.00000000  0.49552100  0.01084300  1
  O  O10  1  0.30602000  0.00000000  0.21789300  1
  O  O11  1  0.69398000  0.69398000  0.21789300  1
  O  O12  1  0.00000000  0.30602000  0.21789300  1
  O  O13  1  0.69398000  0.00000000  0.71789300  1
  O  O14  1  0.30602000  0.30602000  0.71789300  1
  O  O15  1  0.00000000  0.69398000  0.71789300  1
  O  O16  1  0.00000000  0.00000000  0.33275500  1
  O  O17  1  0.00000000  0.00000000  0.83275500  1
loop_
_geom_bond_atom_site_label_1
_geom_bond_atom_site_label_2
_geom_bond_distance
_geom_bond_site_symmetry_2
Mg0 O11 2.017152 1_545
Mg0 O12 2.017152 1_655
Mg0 O10 2.041003 1_555
Mg0 O16 2.074918 1_655
Mg0 O0 2.113323 1_555
Mg0 O1 2.113325 1_545
Mg1 O10 2.017152 1_555
Mg1 O12 2.017152 1_555
Mg1 O11 2.041003 1_555
Mg1 O16 2.074919 1_555
Mg1 O1 2.113328 1_555
Mg1 O0 2.113328 1_555
Mg2 O11 2.017152 1_455
Mg2 O10 2.017152 1_565
Mg2 O12 2.041003 1_555
Mg2 O16 2.074918 1_565
Mg2 O1 2.113323 1_555
Mg2 O0 2.113325 1_455
Mg3 O14 2.017152 1_555
Mg3 O15 2.017152 1_545
Mg3 O13 2.041003 1_555
Mg3 O17 2.074918 1_555
Mg3 O2 2.113323 1_545
Mg3 O3 2.113325 1_555
Mg4 O15 2.017152 1_655
Mg4 O13 2.017152 1_565
Mg4 O14 2.041003 1_555
Mg4 O17 2.074919 1_665
Mg4 O2 2.113328 1_555
Mg4 O3 2.113328 1_555
Mg5 O14 2.017152 1_555
Mg5 O13 2.017152 1_455
Mg5 O15 2.041003 1_555
Mg5 O17 2.074918 1_555
Mg5 O3 2.113323 1_455
Mg5 O2 2.113325 1_555
O0 Si0 1.643941 1_555
O1 Si1 1.643941 1_555
O2 Si2 1.643941 1_555
O3 Si3 1.643941 1_555
O4 Si0 1.651230 1_555
O4 Si1 1.651230 1_545
O5 Si1 1.651234 1_555
O5 Si0 1.651234 1_555
O6 Si1 1.651230 1_555
O6 Si0 1.651230 1_455
O7 Si2 1.651230 1_544
O7 Si3 1.651230 1_554
O8 Si2 1.651234 1_554
O8 Si3 1.651234 1_554
O9 Si3 1.651230 1_454
O9 Si2 1.651230 1_554
