# generated using pymatgen
data_U2Co(AsO10)2
_symmetry_space_group_name_H-M   'P 1'
_cell_length_a   7.15604200
_cell_length_b   9.00388104
_cell_length_c   12.81291906
_cell_angle_alpha   80.56081921
_cell_angle_beta   84.24590800
_cell_angle_gamma   82.32431488
_symmetry_Int_Tables_number   1
_chemical_formula_structural   U2Co(AsO10)2
_chemical_formula_sum   'U4 Co2 As4 O40'
_cell_volume   804.49265904
_cell_formula_units_Z   2
loop_
 _symmetry_equiv_pos_site_id
 _symmetry_equiv_pos_as_xyz
  1  'x, y, z'
loop_
 _atom_site_type_symbol
 _atom_site_label
 _atom_site_symmetry_multiplicity
 _atom_site_fract_x
 _atom_site_fract_y
 _atom_site_fract_z
 _atom_site_occupancy
  U  U0  1  0.76464300  0.29146000  0.59062400  1
  U  U1  1  0.23535700  0.70854000  0.40937600  1
  U  U2  1  0.77783700  0.78154300  0.08306400  1
  U  U3  1  0.22216300  0.21845700  0.91693600  1
  Co  Co0  1  0.67945600  0.63768900  0.74250800  1
  Co  Co1  1  0.32054400  0.36231100  0.25749200  1
  As  As0  1  0.74766600  0.13000800  0.87824600  1
  As  As1  1  0.25233400  0.86999200  0.12175400  1
  As  As2  1  0.75566100  0.62292900  0.37171900  1
  As  As3  1  0.24433900  0.37707100  0.62828100  1
  O  O0  1  0.74357200  0.94268500  0.93104500  1
  O  O1  1  0.25642800  0.05731500  0.06895500  1
  O  O2  1  0.79334800  0.12364600  0.52038500  1
  O  O3  1  0.20665200  0.87635400  0.47961500  1
  O  O4  1  0.81557500  0.62175800  0.01006200  1
  O  O5  1  0.18442500  0.37824200  0.98993800  1
  O  O6  1  0.91286300  0.20300700  0.93623400  1
  O  O7  1  0.08713700  0.79699300  0.06376600  1
  O  O8  1  0.53334500  0.23321200  0.90156600  1
  O  O9  1  0.46665500  0.76678800  0.09843400  1
  O  O10  1  0.54143900  0.73040700  0.39266100  1
  O  O11  1  0.45856100  0.26959300  0.60733900  1
  O  O12  1  0.92711500  0.69819500  0.42408300  1
  O  O13  1  0.07288500  0.30180500  0.57591700  1
  O  O14  1  0.73893600  0.44225900  0.43754900  1
  O  O15  1  0.26106400  0.55774100  0.56245100  1
  O  O16  1  0.80280500  0.14242600  0.74355900  1
  O  O17  1  0.19719500  0.85757400  0.25644100  1
  O  O18  1  0.72060000  0.46535000  0.66165600  1
  O  O19  1  0.27940000  0.53465000  0.33834400  1
  O  O20  1  0.74080000  0.94120900  0.15663800  1
  O  O21  1  0.25920000  0.05879100  0.84336200  1
  O  O22  1  0.80927600  0.62016800  0.23913600  1
  O  O23  1  0.19072400  0.37983200  0.76086400  1
  O  O24  1  0.59515200  0.80143800  0.79560300  1
  O  O25  1  0.40484800  0.19856200  0.20439700  1
  O  O26  1  0.44455300  0.71441100  0.68798000  1
  O  O27  1  0.55544700  0.28558900  0.31202000  1
  O  O28  1  0.84318700  0.73214700  0.64821300  1
  O  O29  1  0.15681300  0.26785300  0.35178700  1
  O  O30  1  0.87773200  0.58229900  0.80880800  1
  O  O31  1  0.12226800  0.41770100  0.19119200  1
  O  O32  1  0.50958000  0.54337200  0.83007200  1
  O  O33  1  0.49042000  0.45662800  0.16992800  1
  O  O34  1  0.04427800  0.85809600  0.71866800  1
  O  O35  1  0.95572200  0.14190400  0.28133200  1
  O  O36  1  0.22573000  0.74310600  0.82999500  1
  O  O37  1  0.77427000  0.25689400  0.17000500  1
  O  O38  1  0.61435000  0.01203800  0.44238300  1
  O  O39  1  0.38565000  0.98796200  0.55761700  1
loop_
_geom_bond_atom_site_label_1
_geom_bond_atom_site_label_2
_geom_bond_distance
_geom_bond_site_symmetry_2
Co0 O30 1.702135 1_555
Co0 O24 1.734831 1_555
Co0 O32 1.774119 1_555
Co0 O28 1.789180 1_555
Co0 O26 1.886267 1_555
Co0 O18 1.977820 1_555
Co1 O31 1.702135 1_555
Co1 O25 1.734831 1_555
Co1 O33 1.774119 1_555
Co1 O29 1.789180 1_555
Co1 O27 1.886267 1_555
Co1 O19 1.977820 1_555
As0 O8 1.709807 1_555
As0 O6 1.710383 1_555
As0 O0 1.714125 1_545
As0 O16 1.719972 1_555
As1 O9 1.709807 1_555
As1 O7 1.710383 1_555
As1 O1 1.714125 1_565
As1 O17 1.719972 1_555
As2 O22 1.707124 1_555
As2 O12 1.717874 1_555
As2 O14 1.718645 1_555
As2 O10 1.721893 1_555
As3 O23 1.707124 1_555
As3 O13 1.717874 1_555
As3 O15 1.718645 1_555
As3 O11 1.721893 1_555
O0 U2 2.243429 1_556
O1 U3 2.243429 1_554
O2 U0 1.860439 1_555
O3 U1 1.860439 1_555
O4 U2 1.817859 1_555
O5 U3 1.817859 1_555
O6 U3 2.222768 1_655
O7 U2 2.222768 1_455
O8 U3 2.235559 1_555
O9 U2 2.235559 1_555
O10 U1 2.211224 1_555
O11 U0 2.211224 1_555
O12 U1 2.208051 1_655
O13 U0 2.208051 1_455
O14 U0 2.203720 1_555
O15 U1 2.203720 1_555
O16 U0 2.204990 1_555
O17 U1 2.204990 1_555
O18 U0 1.912352 1_555
O19 U1 1.912352 1_555
O20 U2 1.821618 1_555
O21 U3 1.821618 1_555
O22 U2 2.282679 1_555
O23 U3 2.282679 1_555
O34 O36 2.078593 1_555
O35 O37 2.078593 1_555
