# generated using pymatgen
data_AgSbTe2
_symmetry_space_group_name_H-M   'P 1'
_cell_length_a   6.13651154
_cell_length_b   6.13651154
_cell_length_c   12.10870699
_cell_angle_alpha   90.00000000
_cell_angle_beta   90.00000000
_cell_angle_gamma   90.00000000
_symmetry_Int_Tables_number   1
_chemical_formula_structural   AgSbTe2
_chemical_formula_sum   'Ag4 Sb4 Te8'
_cell_volume   455.97484111
_cell_formula_units_Z   4
loop_
 _symmetry_equiv_pos_site_id
 _symmetry_equiv_pos_as_xyz
  1  'x, y, z'
loop_
 _atom_site_type_symbol
 _atom_site_label
 _atom_site_symmetry_multiplicity
 _atom_site_fract_x
 _atom_site_fract_y
 _atom_site_fract_z
 _atom_site_occupancy
  Ag  Ag0  1  0.50000000  0.50000000  -0.00000000  1
  Ag  Ag1  1  0.50000000  0.00000000  0.75000000  1
  Ag  Ag2  1  0.50000000  0.50000000  0.50000000  1
  Ag  Ag3  1  0.00000000  0.50000000  0.25000000  1
  Sb  Sb0  1  0.50000000  0.50000000  0.25000000  1
  Sb  Sb1  1  0.50000000  0.50000000  0.75000000  1
  Sb  Sb2  1  0.50000000  -0.00000000  0.25000000  1
  Sb  Sb3  1  0.00000000  0.50000000  0.75000000  1
  Te  Te0  1  0.00000000  0.00000000  -0.00000000  1
  Te  Te1  1  0.50000000  0.00000000  0.99770302  1
  Te  Te2  1  0.50000000  0.00000000  0.50229698  1
  Te  Te3  1  0.00000000  0.00000000  0.25000000  1
  Te  Te4  1  -0.00000000  0.00000000  0.50000000  1
  Te  Te5  1  -0.00000000  0.50000000  0.00229698  1
  Te  Te6  1  -0.00000000  0.50000000  0.49770302  1
  Te  Te7  1  0.00000000  0.00000000  0.75000000  1
loop_
_geom_bond_atom_site_label_1
_geom_bond_atom_site_label_2
_geom_bond_distance
_geom_bond_site_symmetry_2
Ag0 Sb1 3.027177 1_554
Ag0 Sb0 3.027177 1_555
Ag0 Te5 3.068382 1_555
Ag0 Te5 3.068382 1_655
Ag0 Te1 3.068382 1_564
Ag0 Te1 3.068382 1_554
Ag1 Te2 2.999363 1_555
Ag1 Te1 2.999363 1_555
Ag1 Te7 3.068256 1_555
Ag1 Te7 3.068256 1_655
Ag1 Sb1 3.068256 1_555
Ag1 Sb1 3.068256 1_545
Ag2 Sb1 3.027177 1_555
Ag2 Sb0 3.027177 1_555
Ag2 Te6 3.068382 1_655
Ag2 Te2 3.068382 1_565
Ag2 Te2 3.068382 1_555
Ag2 Te6 3.068382 1_555
Ag3 Te6 2.999363 1_555
Ag3 Te5 2.999363 1_555
Ag3 Sb0 3.068256 1_455
Ag3 Sb0 3.068256 1_555
Ag3 Te3 3.068256 1_565
Ag3 Te3 3.068256 1_555
Sb0 Sb2 3.068256 1_565
Sb0 Sb2 3.068256 1_555
Sb1 Sb3 3.068256 1_555
Sb1 Sb3 3.068256 1_655
Sb2 Te1 3.054990 1_554
Sb2 Te2 3.054990 1_555
Sb2 Te3 3.068256 1_655
Sb2 Te3 3.068256 1_555
Sb3 Te5 3.054990 1_556
Sb3 Te6 3.054990 1_555
Sb3 Te7 3.068256 1_555
Sb3 Te7 3.068256 1_565
Te0 Te7 3.027177 1_554
Te0 Te3 3.027177 1_555
Te0 Te5 3.068382 1_555
Te0 Te5 3.068382 1_545
Te0 Te1 3.068382 1_554
Te0 Te1 3.068382 1_454
Te2 Te4 3.068382 1_555
Te2 Te4 3.068382 1_655
Te3 Te4 3.027177 1_555
Te4 Te7 3.027177 1_555
Te4 Te6 3.068382 1_545
Te4 Te6 3.068382 1_555
