# generated using pymatgen
data_Ni3Te4
_symmetry_space_group_name_H-M   'P 1'
_cell_length_a   6.61956916
_cell_length_b   6.61956916
_cell_length_c   6.71371184
_cell_angle_alpha   59.67207333
_cell_angle_beta   59.67207333
_cell_angle_gamma   34.74415387
_symmetry_Int_Tables_number   1
_chemical_formula_structural   Ni3Te4
_chemical_formula_sum   'Ni3 Te4'
_cell_volume   142.27175696
_cell_formula_units_Z   1
loop_
 _symmetry_equiv_pos_site_id
 _symmetry_equiv_pos_as_xyz
  1  'x, y, z'
loop_
 _atom_site_type_symbol
 _atom_site_label
 _atom_site_symmetry_multiplicity
 _atom_site_fract_x
 _atom_site_fract_y
 _atom_site_fract_z
 _atom_site_occupancy
  Ni  Ni0  1  -0.00000000  -0.00000000  0.00000000  1
  Ni  Ni1  1  0.25218933  0.25218933  0.76051855  1
  Ni  Ni2  1  0.74781067  0.74781067  0.23948145  1
  Te  Te0  1  0.12400617  0.12400617  0.21673118  1
  Te  Te1  1  0.62993720  0.62993720  0.70600203  1
  Te  Te2  1  0.37006280  0.37006280  0.29399797  1
  Te  Te3  1  0.87599383  0.87599383  0.78326882  1
loop_
_geom_bond_atom_site_label_1
_geom_bond_atom_site_label_2
_geom_bond_distance
_geom_bond_site_symmetry_2
Ni0 Te0 2.642864 1_555
Ni0 Te3 2.642864 1_444
Ni0 Te1 2.658698 1_544
Ni0 Te2 2.658698 1_545
Ni0 Te2 2.658698 1_455
Ni0 Te1 2.658698 1_454
Ni0 Ni1 2.705077 1_554
Ni0 Ni2 2.705077 1_445
Ni1 Te3 2.574785 1_455
Ni1 Te3 2.574785 1_545
Ni1 Te0 2.599071 1_556
Ni1 Te1 2.650395 1_455
Ni1 Te1 2.650395 1_545
Ni1 Te2 2.663085 1_555
Ni2 Te0 2.574785 1_565
Ni2 Te0 2.574785 1_655
Ni2 Te3 2.599071 1_554
Ni2 Te2 2.650395 1_655
Ni2 Te2 2.650395 1_565
Ni2 Te1 2.663085 1_555
