# generated using pymatgen
data_NaY(MoO4)2
_symmetry_space_group_name_H-M   'P 1'
_cell_length_a   5.28101400
_cell_length_b   5.28101400
_cell_length_c   6.83166353
_cell_angle_alpha   67.26247841
_cell_angle_beta   67.26247841
_cell_angle_gamma   90.00000000
_symmetry_Int_Tables_number   1
_chemical_formula_structural   NaY(MoO4)2
_chemical_formula_sum   'Na1 Y1 Mo2 O8'
_cell_volume   159.54684267
_cell_formula_units_Z   1
loop_
 _symmetry_equiv_pos_site_id
 _symmetry_equiv_pos_as_xyz
  1  'x, y, z'
loop_
 _atom_site_type_symbol
 _atom_site_label
 _atom_site_symmetry_multiplicity
 _atom_site_fract_x
 _atom_site_fract_y
 _atom_site_fract_z
 _atom_site_occupancy
  Na  Na0  1  0.37500000  0.62500000  0.25000000  1
  Y  Y0  1  0.62500000  0.37500000  0.75000000  1
  Mo  Mo0  1  0.87500000  0.12500000  0.25000000  1
  Mo  Mo1  1  0.12500000  0.87500000  0.75000000  1
  O  O0  1  0.71983600  0.35638600  0.07122000  1
  O  O1  1  0.20894400  0.07239400  0.07122000  1
  O  O2  1  0.36838000  0.20125400  0.58662500  1
  O  O3  1  0.04499500  0.71212100  0.58662500  1
  O  O4  1  0.28787900  0.63162000  0.91337500  1
  O  O5  1  0.79874600  0.95500500  0.91337500  1
  O  O6  1  0.64361400  0.79105600  0.42878000  1
  O  O7  1  0.92760600  0.28016400  0.42878000  1
loop_
_geom_bond_atom_site_label_1
_geom_bond_atom_site_label_2
_geom_bond_distance
_geom_bond_site_symmetry_2
Na0 O3 2.501464 1_555
Na0 O2 2.501464 1_555
Na0 O5 2.501464 1_554
Na0 O4 2.501464 1_554
Na0 O0 2.537781 1_555
Na0 O1 2.537781 1_565
Na0 O6 2.537781 1_555
Na0 O7 2.537781 1_455
Mo0 O7 1.810058 1_555
Mo0 O1 1.810058 1_655
Mo0 O6 1.810058 1_545
Mo0 O0 1.810058 1_555
Mo1 O4 1.808536 1_555
Mo1 O5 1.808536 1_455
Mo1 O2 1.808536 1_565
Mo1 O3 1.808536 1_555
O0 Y0 2.399795 1_554
O1 Y0 2.399795 1_554
O2 Y0 2.425934 1_555
O3 Y0 2.425934 1_455
O4 Y0 2.425934 1_555
O5 Y0 2.425934 1_565
O6 Y0 2.399795 1_555
O7 Y0 2.399795 1_555
