# generated using pymatgen
data_CuMoO4
_symmetry_space_group_name_H-M   'P 1'
_cell_length_a   6.38189844
_cell_length_b   7.30734133
_cell_length_c   7.51210579
_cell_angle_alpha   73.91588903
_cell_angle_beta   73.04859578
_cell_angle_gamma   85.02957742
_symmetry_Int_Tables_number   1
_chemical_formula_structural   CuMoO4
_chemical_formula_sum   'Cu4 Mo4 O16'
_cell_volume   321.98023410
_cell_formula_units_Z   4
loop_
 _symmetry_equiv_pos_site_id
 _symmetry_equiv_pos_as_xyz
  1  'x, y, z'
loop_
 _atom_site_type_symbol
 _atom_site_label
 _atom_site_symmetry_multiplicity
 _atom_site_fract_x
 _atom_site_fract_y
 _atom_site_fract_z
 _atom_site_occupancy
  Cu  Cu0  1  0.18582200  0.68788800  0.15973100  1
  Cu  Cu1  1  0.81417800  0.31211200  0.84026900  1
  Cu  Cu2  1  0.80793800  0.70125700  0.49698200  1
  Cu  Cu3  1  0.19206200  0.29874300  0.50301800  1
  Mo  Mo0  1  0.78331000  0.72494000  0.00355200  1
  Mo  Mo1  1  0.21669000  0.27506000  0.99644800  1
  Mo  Mo2  1  0.21579700  0.73057900  0.63948300  1
  Mo  Mo3  1  0.78420300  0.26942100  0.36051700  1
  O  O0  1  0.14402600  0.65075600  0.92333800  1
  O  O1  1  0.85597400  0.34924400  0.07666200  1
  O  O2  1  0.49793800  0.66928800  0.57791400  1
  O  O3  1  0.50206200  0.33071200  0.42208600  1
  O  O4  1  0.86117900  0.63755100  0.24745900  1
  O  O5  1  0.13882100  0.36244900  0.75254100  1
  O  O6  1  0.49944100  0.67461200  0.08560100  1
  O  O7  1  0.50055900  0.32538800  0.91439900  1
  O  O8  1  0.13097100  0.69014700  0.42846700  1
  O  O9  1  0.86902900  0.30985300  0.57153300  1
  O  O10  1  0.78588600  0.02354600  0.40468200  1
  O  O11  1  0.21411400  0.97645400  0.59531800  1
  O  O12  1  0.79883000  0.96935000  0.95703200  1
  O  O13  1  0.20117000  0.03065000  0.04296800  1
  O  O14  1  0.85877000  0.69077000  0.74771600  1
  O  O15  1  0.14123000  0.30923000  0.25228400  1
loop_
_geom_bond_atom_site_label_1
_geom_bond_atom_site_label_2
_geom_bond_distance
_geom_bond_site_symmetry_2
Cu0 O6 1.916199 1_555
Cu0 O8 1.950292 1_555
Cu0 O0 1.963163 1_554
Cu0 O4 2.015856 1_455
Cu0 O13 2.414016 1_565
Cu1 O7 1.916199 1_555
Cu1 O9 1.950292 1_555
Cu1 O1 1.963163 1_556
Cu1 O5 2.015856 1_655
Cu1 O12 2.414016 1_545
Cu2 O2 1.907415 1_555
Cu2 O8 1.974073 1_655
Cu2 O4 1.982524 1_555
Cu2 O14 1.982638 1_555
Cu2 O10 2.267512 1_565
Cu3 O3 1.907415 1_555
Cu3 O9 1.974073 1_455
Cu3 O5 1.982524 1_555
Cu3 O15 1.982638 1_555
Cu3 O11 2.267512 1_545
Mo0 O12 1.728098 1_554
Mo0 O6 1.770835 1_555
Mo0 O14 1.921770 1_554
Mo0 O4 1.959478 1_555
Mo0 O0 2.261034 1_654
Mo0 O1 2.673205 1_555
Mo1 O13 1.728098 1_556
Mo1 O7 1.770835 1_555
Mo1 O15 1.921770 1_556
Mo1 O5 1.959478 1_555
Mo1 O1 2.261034 1_456
Mo1 O0 2.673205 1_555
Mo2 O11 1.733994 1_555
Mo2 O2 1.773716 1_555
Mo2 O8 1.918528 1_555
Mo2 O0 1.970921 1_555
Mo2 O14 2.200188 1_455
Mo2 O5 2.630361 1_555
Mo3 O10 1.733994 1_555
Mo3 O3 1.773716 1_555
Mo3 O9 1.918528 1_555
Mo3 O1 1.970921 1_555
Mo3 O15 2.200188 1_655
Mo3 O4 2.630361 1_555
