# generated using pymatgen
data_Mn5Ni8Sn3
_symmetry_space_group_name_H-M   'P 1'
_cell_length_a   14.00310830
_cell_length_b   14.00310830
_cell_length_c   14.00310830
_cell_angle_alpha   17.33734392
_cell_angle_beta   17.33734392
_cell_angle_gamma   17.33734520
_symmetry_Int_Tables_number   1
_chemical_formula_structural   Mn5Ni8Sn3
_chemical_formula_sum   'Mn5 Ni8 Sn3'
_cell_volume   212.77899583
_cell_formula_units_Z   1
loop_
 _symmetry_equiv_pos_site_id
 _symmetry_equiv_pos_as_xyz
  1  'x, y, z'
loop_
 _atom_site_type_symbol
 _atom_site_label
 _atom_site_symmetry_multiplicity
 _atom_site_fract_x
 _atom_site_fract_y
 _atom_site_fract_z
 _atom_site_occupancy
  Mn  Mn0  1  0.12452800  0.12452800  0.12452800  1
  Mn  Mn1  1  0.37355000  0.37355000  0.37355000  1
  Mn  Mn2  1  0.62645000  0.62645000  0.62645000  1
  Mn  Mn3  1  0.87547200  0.87547200  0.87547200  1
  Mn  Mn4  1  0.00000000  0.00000000  0.00000000  1
  Ni  Ni0  1  0.81269700  0.81269700  0.81269700  1
  Ni  Ni1  1  0.06004800  0.06004800  0.06004800  1
  Ni  Ni2  1  0.31450200  0.31450200  0.31450200  1
  Ni  Ni3  1  0.56271300  0.56271300  0.56271300  1
  Ni  Ni4  1  0.43728700  0.43728700  0.43728700  1
  Ni  Ni5  1  0.68549800  0.68549800  0.68549800  1
  Ni  Ni6  1  0.93995200  0.93995200  0.93995200  1
  Ni  Ni7  1  0.18730300  0.18730300  0.18730300  1
  Sn  Sn0  1  0.25082600  0.25082600  0.25082600  1
  Sn  Sn1  1  0.50000000  0.50000000  0.50000000  1
  Sn  Sn2  1  0.74917400  0.74917400  0.74917400  1
loop_
_geom_bond_atom_site_label_1
_geom_bond_atom_site_label_2
_geom_bond_distance
_geom_bond_site_symmetry_2
Mn0 Ni4 2.581406 1_554
Mn0 Ni4 2.581406 1_455
Mn0 Ni4 2.581406 1_545
Mn0 Ni0 2.594317 1_445
Mn0 Ni0 2.594317 1_454
Mn0 Ni0 2.594317 1_544
Mn0 Ni7 2.596890 1_555
Mn0 Ni1 2.667423 1_555
Mn0 Sn2 2.993493 1_445
Mn0 Sn2 2.993493 1_544
Mn0 Sn2 2.993493 1_454
Mn0 Sn1 2.996331 1_554
Mn0 Sn1 2.996331 1_455
Mn0 Sn1 2.996331 1_545
Mn1 Ni2 2.442711 1_555
Mn1 Ni1 2.571435 1_556
Mn1 Ni1 2.571435 1_655
Mn1 Ni1 2.571435 1_565
Mn1 Ni5 2.592661 1_554
Mn1 Ni5 2.592661 1_545
Mn1 Ni5 2.592661 1_455
Mn1 Ni4 2.636687 1_555
Mn1 Sn2 2.999993 1_554
Mn1 Sn2 2.999993 1_455
Mn1 Sn2 2.999993 1_545
Mn2 Ni5 2.442711 1_555
Mn2 Ni6 2.571435 1_554
Mn2 Ni6 2.571435 1_455
Mn2 Ni6 2.571435 1_545
Mn2 Ni2 2.592661 1_556
Mn2 Ni2 2.592661 1_655
Mn2 Ni2 2.592661 1_565
Mn2 Ni3 2.636687 1_555
Mn2 Sn0 2.999993 1_556
Mn2 Sn0 2.999993 1_655
Mn2 Sn0 2.999993 1_565
Mn3 Ni3 2.581406 1_556
Mn3 Ni3 2.581406 1_565
Mn3 Ni3 2.581406 1_655
Mn3 Ni7 2.594317 1_665
Mn3 Ni7 2.594317 1_566
Mn3 Ni7 2.594317 1_656
Mn3 Ni0 2.596890 1_555
Mn3 Ni6 2.667423 1_555
Mn3 Sn0 2.993493 1_665
Mn3 Sn0 2.993493 1_656
Mn3 Sn0 2.993493 1_566
Mn3 Sn1 2.996331 1_556
Mn3 Sn1 2.996331 1_565
Mn3 Sn1 2.996331 1_655
Mn4 Ni6 2.484079 1_444
Mn4 Ni1 2.484079 1_555
Mn4 Ni5 2.558538 1_445
Mn4 Ni2 2.558538 1_554
Mn4 Ni5 2.558538 1_544
Mn4 Ni5 2.558538 1_454
Mn4 Ni2 2.558538 1_545
Mn4 Ni2 2.558538 1_455
Ni0 Sn1 2.582253 1_556
Ni0 Sn1 2.582253 1_565
Ni0 Sn1 2.582253 1_655
Ni0 Sn2 2.627834 1_555
Ni1 Sn2 2.608156 1_445
Ni1 Sn2 2.608156 1_454
Ni1 Sn2 2.608156 1_544
Ni2 Sn0 2.634163 1_555
Ni3 Sn0 2.593523 1_556
Ni3 Sn0 2.593523 1_565
Ni3 Sn0 2.593523 1_655
Ni3 Sn1 2.594326 1_555
Ni4 Sn2 2.593523 1_554
Ni4 Sn2 2.593523 1_545
Ni4 Sn2 2.593523 1_455
Ni4 Sn1 2.594326 1_555
Ni5 Sn2 2.634163 1_555
Ni6 Sn0 2.608156 1_665
Ni6 Sn0 2.608156 1_656
Ni6 Sn0 2.608156 1_566
Ni7 Sn1 2.582253 1_554
Ni7 Sn1 2.582253 1_455
Ni7 Sn1 2.582253 1_545
Ni7 Sn0 2.627834 1_555
