# generated using pymatgen
data_Mg4Si3
_symmetry_space_group_name_H-M   'P 1'
_cell_length_a   7.65998961
_cell_length_b   7.65998961
_cell_length_c   7.65998961
_cell_angle_alpha   134.24519803
_cell_angle_beta   122.47013685
_cell_angle_gamma   76.43252197
_symmetry_Int_Tables_number   1
_chemical_formula_structural   Mg4Si3
_chemical_formula_sum   'Mg8 Si6'
_cell_volume   264.24961956
_cell_formula_units_Z   2
loop_
 _symmetry_equiv_pos_site_id
 _symmetry_equiv_pos_as_xyz
  1  'x, y, z'
loop_
 _atom_site_type_symbol
 _atom_site_label
 _atom_site_symmetry_multiplicity
 _atom_site_fract_x
 _atom_site_fract_y
 _atom_site_fract_z
 _atom_site_occupancy
  Mg  Mg0  1  0.24996200  0.66137700  0.09026500  1
  Mg  Mg1  1  0.78970300  0.78970300  0.00000000  1
  Mg  Mg2  1  0.19698400  0.69698400  0.50000000  1
  Mg  Mg3  1  0.21029700  0.21029700  0.00000000  1
  Mg  Mg4  1  0.42888900  0.33862300  0.58858600  1
  Mg  Mg5  1  0.57111100  0.15969700  0.90973500  1
  Mg  Mg6  1  0.75003800  0.84030300  0.41141400  1
  Mg  Mg7  1  0.80301600  0.30301600  0.50000000  1
  Si  Si0  1  0.43759600  0.89167100  0.05249400  1
  Si  Si1  1  0.16082300  0.10832900  0.54592500  1
  Si  Si2  1  0.00000000  0.20890700  0.20890700  1
  Si  Si3  1  0.83917700  0.38510200  0.94750600  1
  Si  Si4  1  0.56240400  0.61489800  0.45407500  1
  Si  Si5  1  0.00000000  0.79109300  0.79109300  1
loop_
_geom_bond_atom_site_label_1
_geom_bond_atom_site_label_2
_geom_bond_distance
_geom_bond_site_symmetry_2
Mg0 Si4 2.728418 1_555
Mg0 Si5 2.734713 1_554
Mg0 Si0 2.758555 1_555
Mg0 Si1 3.026032 1_565
Mg0 Si1 3.074000 1_554
Mg1 Si4 2.788197 1_554
Mg1 Si1 2.788197 1_665
Mg1 Si3 2.790001 1_554
Mg1 Si0 2.790001 1_555
Mg1 Si2 2.820525 1_665
Mg1 Si5 2.820525 1_654
Mg2 Si3 2.763843 1_454
Mg2 Si0 2.763843 1_556
Mg2 Si1 2.876976 1_565
Mg2 Si4 2.876976 1_555
Mg2 Si2 2.937250 1_555
Mg2 Si5 2.937250 1_555
Mg3 Si0 2.788197 1_545
Mg3 Si3 2.788197 1_454
Mg3 Si1 2.790001 1_554
Mg3 Si4 2.790001 1_555
Mg3 Si2 2.820525 1_555
Mg3 Si5 2.820525 1_544
Mg4 Si3 2.728411 1_555
Mg4 Si2 2.734720 1_555
Mg4 Si1 2.758556 1_555
Mg4 Si0 3.026033 1_545
Mg4 Si0 3.074001 1_556
Mg5 Si1 2.728413 1_555
Mg5 Si2 2.734719 1_656
Mg5 Si3 2.758562 1_555
Mg5 Si4 3.026035 1_545
Mg5 Si4 3.073997 1_556
Mg6 Si0 2.728413 1_555
Mg6 Si5 2.734719 1_655
Mg6 Si4 2.758562 1_555
Mg6 Si3 3.026035 1_565
Mg6 Si3 3.073997 1_554
Mg7 Si4 2.763843 1_555
Mg7 Si1 2.763843 1_655
Mg7 Si0 2.876976 1_545
Mg7 Si3 2.876976 1_555
Mg7 Si2 2.937250 1_655
Mg7 Si5 2.937250 1_655
Si0 Si5 2.773270 1_554
Si1 Si2 2.773270 1_555
Si2 Si5 2.488418 1_544
Si2 Si3 2.773270 1_454
Si4 Si5 2.773270 1_655
