# generated using pymatgen
data_SmGa7Co5
_symmetry_space_group_name_H-M   'P 1'
_cell_length_a   6.65913481
_cell_length_b   6.65913481
_cell_length_c   6.65913481
_cell_angle_alpha   136.31464903
_cell_angle_beta   100.15408917
_cell_angle_gamma   95.77142930
_symmetry_Int_Tables_number   1
_chemical_formula_structural   SmGa7Co5
_chemical_formula_sum   'Sm1 Ga7 Co5'
_cell_volume   189.13295295
_cell_formula_units_Z   1
loop_
 _symmetry_equiv_pos_site_id
 _symmetry_equiv_pos_as_xyz
  1  'x, y, z'
loop_
 _atom_site_type_symbol
 _atom_site_label
 _atom_site_symmetry_multiplicity
 _atom_site_fract_x
 _atom_site_fract_y
 _atom_site_fract_z
 _atom_site_occupancy
  Sm  Sm0  1  0.00236400  0.00236400  0.00000000  1
  Ga  Ga0  1  0.48992700  0.50589000  0.48570000  1
  Ga  Ga1  1  0.48992700  0.00422700  0.98403700  1
  Ga  Ga2  1  0.02019000  0.50589000  0.01596300  1
  Ga  Ga3  1  0.02019000  0.00422700  0.51430000  1
  Ga  Ga4  1  0.73851700  0.23851700  0.50000000  1
  Ga  Ga5  1  0.76946000  0.50711300  0.26234700  1
  Ga  Ga6  1  0.24476600  0.50711300  0.73765300  1
  Co  Co0  1  0.64843100  0.64843100  0.00000000  1
  Co  Co1  1  0.36429700  0.36429700  0.00000000  1
  Co  Co2  1  0.35114300  0.99612200  0.35502100  1
  Co  Co3  1  0.64110100  0.99612200  0.64497900  1
  Co  Co4  1  0.21968700  0.71968700  0.50000000  1
loop_
_geom_bond_atom_site_label_1
_geom_bond_atom_site_label_2
_geom_bond_distance
_geom_bond_site_symmetry_2
Ga0 Ga1 2.469353 1_565
Ga0 Ga1 2.485833 1_554
Ga0 Ga6 2.535545 1_555
Ga0 Ga5 2.582225 1_555
Ga0 Ga4 2.588801 1_555
Ga0 Sm0 3.266239 1_555
Ga0 Sm0 3.396817 1_666
Ga1 Ga6 2.535545 1_545
Ga1 Ga5 2.582225 1_556
Ga1 Ga4 2.588801 1_556
Ga1 Sm0 3.266239 1_556
Ga1 Sm0 3.396817 1_656
Ga2 Ga3 2.469353 1_565
Ga2 Ga3 2.485833 1_554
Ga2 Ga5 2.535545 1_455
Ga2 Ga6 2.582225 1_554
Ga2 Ga4 2.588801 1_454
Ga2 Sm0 3.266239 1_555
Ga2 Sm0 3.396817 1_565
Ga3 Ga5 2.535545 1_445
Ga3 Ga6 2.582225 1_555
Ga3 Ga4 2.588801 1_455
Ga3 Sm0 3.266239 1_556
Ga3 Sm0 3.396817 1_555
Ga4 Ga6 3.143379 1_655
Ga4 Ga5 3.143379 1_555
Ga4 Sm0 3.419306 1_655
Ga4 Sm0 3.419306 1_666
Ga5 Sm0 3.204093 1_655
Ga5 Sm0 3.204093 1_666
Ga6 Sm0 3.204093 1_566
Ga6 Sm0 3.204093 1_555
Co0 Co1 2.537710 1_555
Co0 Ga6 2.573128 1_554
Co0 Ga5 2.573128 1_555
Co0 Ga4 2.604964 1_565
Co0 Ga4 2.604964 1_554
Co0 Ga2 2.750743 1_655
Co0 Ga3 2.750743 1_665
Co0 Ga0 2.750743 1_554
Co0 Ga1 2.750743 1_564
Co0 Co3 3.086172 1_544
Co0 Co2 3.086172 1_555
Co0 Co2 3.086172 1_544
Co0 Co3 3.086172 1_555
Co0 Sm0 3.161112 1_665
Co1 Ga1 2.554714 1_554
Co1 Ga0 2.554714 1_555
Co1 Ga3 2.554714 1_554
Co1 Ga2 2.554714 1_555
Co1 Ga6 2.579717 1_554
Co1 Ga5 2.579717 1_555
Co1 Co4 2.794032 1_555
Co1 Co4 2.794032 1_544
Co1 Co3 3.010013 1_544
Co1 Co3 3.010013 1_555
Co1 Co2 3.010013 1_544
Co1 Co2 3.010013 1_555
Co1 Sm0 3.232563 1_555
Co2 Co3 2.478298 1_555
Co2 Ga4 2.494470 1_565
Co2 Ga2 2.598123 1_555
Co2 Ga3 2.598123 1_565
Co2 Ga6 2.674775 1_554
Co2 Ga6 2.674775 1_565
Co2 Co4 2.762461 1_555
Co2 Ga0 2.819199 1_565
Co2 Ga1 2.819199 1_564
Co2 Sm0 3.034909 1_565
Co3 Ga4 2.494470 1_565
Co3 Ga1 2.598123 1_565
Co3 Ga0 2.598123 1_555
Co3 Ga5 2.674775 1_566
Co3 Ga5 2.674775 1_555
Co3 Co4 2.762461 1_555
Co3 Ga2 2.819199 1_666
Co3 Ga3 2.819199 1_665
Co3 Sm0 3.034909 1_666
Co4 Ga1 2.377826 1_565
Co4 Ga3 2.377826 1_565
Co4 Ga0 2.377826 1_555
Co4 Ga2 2.377826 1_555
Co4 Ga5 2.780387 1_455
Co4 Ga6 2.780387 1_555
Co4 Sm0 3.147369 1_555
Co4 Sm0 3.147369 1_566
