# generated using pymatgen
data_Mg4GeN4
_symmetry_space_group_name_H-M   'P 1'
_cell_length_a   5.39020100
_cell_length_b   10.72328200
_cell_length_c   8.28262100
_cell_angle_alpha   90.00000000
_cell_angle_beta   90.00000000
_cell_angle_gamma   90.00000000
_symmetry_Int_Tables_number   1
_chemical_formula_structural   Mg4GeN4
_chemical_formula_sum   'Mg16 Ge4 N16'
_cell_volume   478.74083907
_cell_formula_units_Z   4
loop_
 _symmetry_equiv_pos_site_id
 _symmetry_equiv_pos_as_xyz
  1  'x, y, z'
loop_
 _atom_site_type_symbol
 _atom_site_label
 _atom_site_symmetry_multiplicity
 _atom_site_fract_x
 _atom_site_fract_y
 _atom_site_fract_z
 _atom_site_occupancy
  Mg  Mg0  1  0.18082000  0.35933300  0.61768400  1
  Mg  Mg1  1  0.31918000  0.64066700  0.61768400  1
  Mg  Mg2  1  0.18082000  0.14066700  0.88231600  1
  Mg  Mg3  1  0.31918000  0.85933300  0.88231600  1
  Mg  Mg4  1  0.81918000  0.64066700  0.38231600  1
  Mg  Mg5  1  0.68082000  0.35933300  0.38231600  1
  Mg  Mg6  1  0.81918000  0.85933300  0.11768400  1
  Mg  Mg7  1  0.68082000  0.14066700  0.11768400  1
  Mg  Mg8  1  0.75000000  0.50000000  0.04364800  1
  Mg  Mg9  1  0.75000000  0.00000000  0.45635200  1
  Mg  Mg10  1  0.25000000  0.50000000  0.95635200  1
  Mg  Mg11  1  0.25000000  0.00000000  0.54364800  1
  Mg  Mg12  1  0.72552400  0.25000000  0.75000000  1
  Mg  Mg13  1  0.77447600  0.75000000  0.75000000  1
  Mg  Mg14  1  0.27447600  0.75000000  0.25000000  1
  Mg  Mg15  1  0.22552400  0.25000000  0.25000000  1
  Ge  Ge0  1  0.75000000  0.50000000  0.71120500  1
  Ge  Ge1  1  0.75000000  0.00000000  0.78879500  1
  Ge  Ge2  1  0.25000000  0.50000000  0.28879500  1
  Ge  Ge3  1  0.25000000  0.00000000  0.21120400  1
  N  N0  1  0.55211300  0.37971900  0.61147400  1
  N  N1  1  0.94788700  0.62028100  0.61147400  1
  N  N2  1  0.55211300  0.12028100  0.88852600  1
  N  N3  1  0.94788700  0.87971900  0.88852600  1
  N  N4  1  0.44788700  0.62028100  0.38852600  1
  N  N5  1  0.05211300  0.37971900  0.38852600  1
  N  N6  1  0.44788700  0.87971900  0.11147400  1
  N  N7  1  0.05211300  0.12028100  0.11147400  1
  N  N8  1  0.96872300  0.10293600  0.65871600  1
  N  N9  1  0.53127700  0.89706400  0.65871600  1
  N  N10  1  0.96872300  0.39706400  0.84128400  1
  N  N11  1  0.53127700  0.60293600  0.84128400  1
  N  N12  1  0.03127700  0.89706400  0.34128400  1
  N  N13  1  0.46872200  0.10293600  0.34128400  1
  N  N14  1  0.03127700  0.60293600  0.15871600  1
  N  N15  1  0.46872200  0.39706400  0.15871600  1
loop_
_geom_bond_atom_site_label_1
_geom_bond_atom_site_label_2
_geom_bond_distance
_geom_bond_site_symmetry_2
Mg0 N0 2.013904 1_555
Mg0 N5 2.032634 1_555
Mg0 N10 2.213728 1_455
Mg1 N1 2.013904 1_455
Mg1 N4 2.032634 1_555
Mg1 N11 2.213728 1_555
Mg2 N2 2.013904 1_555
Mg2 N7 2.032634 1_556
Mg2 N8 2.213728 1_455
Mg3 N3 2.013904 1_455
Mg3 N6 2.032634 1_556
Mg3 N9 2.213728 1_555
Mg4 N4 2.013904 1_555
Mg4 N1 2.032634 1_555
Mg4 N14 2.213728 1_655
Mg5 N5 2.013904 1_655
Mg5 N0 2.032634 1_555
Mg5 N15 2.213731 1_555
Mg6 N6 2.013904 1_555
Mg6 N3 2.032634 1_554
Mg6 N12 2.213728 1_655
Mg7 N7 2.013904 1_655
Mg7 N2 2.032634 1_554
Mg7 N13 2.213731 1_555
Mg8 N14 2.103666 1_655
Mg8 N15 2.103670 1_555
Mg8 N11 2.327590 1_554
Mg8 N10 2.327590 1_554
Mg9 N12 2.103666 1_645
Mg9 N13 2.103670 1_555
Mg9 N8 2.327590 1_555
Mg9 N9 2.327590 1_545
Mg10 N10 2.103666 1_455
Mg10 N11 2.103666 1_555
Mg10 N15 2.327587 1_556
Mg10 N14 2.327590 1_556
Mg11 N8 2.103666 1_455
Mg11 N9 2.103666 1_545
Mg11 N13 2.327587 1_555
Mg11 N12 2.327590 1_545
Mg12 N0 2.031022 1_555
Mg12 N2 2.031022 1_555
Mg12 N10 2.185643 1_555
Mg12 N8 2.185643 1_555
Mg13 N3 2.031022 1_555
Mg13 N1 2.031022 1_555
Mg13 N9 2.185643 1_555
Mg13 N11 2.185643 1_555
Mg14 N4 2.031022 1_555
Mg14 N6 2.031022 1_555
Mg14 N12 2.185643 1_555
Mg14 N14 2.185643 1_555
Mg15 N5 2.031022 1_555
Mg15 N7 2.031022 1_555
Mg15 N15 2.185640 1_555
Mg15 N13 2.185640 1_555
Ge0 N1 1.866461 1_555
Ge0 N0 1.866461 1_555
Ge0 N10 1.941425 1_555
Ge0 N11 1.941425 1_555
Ge1 N2 1.866461 1_555
Ge1 N3 1.866461 1_545
Ge1 N8 1.941425 1_555
Ge1 N9 1.941425 1_545
Ge2 N4 1.866461 1_555
Ge2 N5 1.866461 1_555
Ge2 N15 1.941421 1_555
Ge2 N14 1.941425 1_555
Ge3 N7 1.866458 1_555
Ge3 N6 1.866458 1_545
Ge3 N13 1.941426 1_555
Ge3 N12 1.941429 1_545
