# generated using pymatgen
data_RbNp3
_symmetry_space_group_name_H-M   'P 1'
_cell_length_a   4.98637800
_cell_length_b   4.98637800
_cell_length_c   4.98637800
_cell_angle_alpha   90.00000000
_cell_angle_beta   90.00000000
_cell_angle_gamma   90.00000000
_symmetry_Int_Tables_number   1
_chemical_formula_structural   RbNp3
_chemical_formula_sum   'Rb1 Np3'
_cell_volume   123.98113086
_cell_formula_units_Z   1
loop_
 _symmetry_equiv_pos_site_id
 _symmetry_equiv_pos_as_xyz
  1  'x, y, z'
loop_
 _atom_site_type_symbol
 _atom_site_label
 _atom_site_symmetry_multiplicity
 _atom_site_fract_x
 _atom_site_fract_y
 _atom_site_fract_z
 _atom_site_occupancy
  Rb  Rb0  1  0.00000000  0.00000000  0.00000000  1
  Np  Np0  1  0.00000100  0.49999900  0.49999900  1
  Np  Np1  1  0.49999900  0.00000100  0.49999900  1
  Np  Np2  1  0.49999900  0.49999900  0.00000100  1
loop_
_geom_bond_atom_site_label_1
_geom_bond_atom_site_label_2
_geom_bond_distance
_geom_bond_site_symmetry_2
Np0 Np1 3.525888 1_555
Np0 Np2 3.525888 1_555
Np0 Rb0 3.525895 1_555
Np0 Rb0 3.525902 1_556
Np0 Rb0 3.525902 1_565
Np0 Np1 3.525902 1_565
Np0 Np2 3.525902 1_556
Np0 Np1 3.525902 1_455
Np0 Np2 3.525902 1_455
Np0 Rb0 3.525909 1_566
Np0 Np1 3.525916 1_465
Np0 Np2 3.525916 1_456
Np1 Np2 3.525888 1_555
Np1 Rb0 3.525895 1_555
Np1 Rb0 3.525902 1_556
Np1 Rb0 3.525902 1_655
Np1 Np2 3.525902 1_556
Np1 Np2 3.525902 1_545
Np1 Rb0 3.525909 1_656
Np1 Np2 3.525916 1_546
Np2 Rb0 3.525895 1_555
Np2 Rb0 3.525902 1_565
Np2 Rb0 3.525902 1_655
Np2 Rb0 3.525909 1_665
