# generated using pymatgen
data_Yb4FeS7
_symmetry_space_group_name_H-M   'P 1'
_cell_length_a   6.88405877
_cell_length_b   6.88405877
_cell_length_c   10.71452701
_cell_angle_alpha   73.92899942
_cell_angle_beta   73.92899942
_cell_angle_gamma   32.25512699
_symmetry_Int_Tables_number   1
_chemical_formula_structural   Yb4FeS7
_chemical_formula_sum   'Yb4 Fe1 S7'
_cell_volume   259.49334743
_cell_formula_units_Z   1
loop_
 _symmetry_equiv_pos_site_id
 _symmetry_equiv_pos_as_xyz
  1  'x, y, z'
loop_
 _atom_site_type_symbol
 _atom_site_label
 _atom_site_symmetry_multiplicity
 _atom_site_fract_x
 _atom_site_fract_y
 _atom_site_fract_z
 _atom_site_occupancy
  Yb  Yb0  1  0.68742300  0.68742300  0.18331400  1
  Yb  Yb1  1  0.30558200  0.30558200  0.77061500  1
  Yb  Yb2  1  0.01774400  0.01774400  0.99742400  1
  Yb  Yb3  1  0.09375200  0.09375200  0.55305000  1
  Fe  Fe0  1  0.88969400  0.88969400  0.42793900  1
  S  S0  1  0.73554500  0.73554500  0.59391900  1
  S  S1  1  0.31294600  0.31294600  0.33823500  1
  S  S2  1  0.35115700  0.35115700  0.13520400  1
  S  S3  1  0.67022700  0.67022700  0.94234100  1
  S  S4  1  0.03448700  0.03448700  0.25666700  1
  S  S5  1  0.95134600  0.95134600  0.78657300  1
  S  S6  1  0.45009800  0.45009800  0.51471800  1
loop_
_geom_bond_atom_site_label_1
_geom_bond_atom_site_label_2
_geom_bond_distance
_geom_bond_site_symmetry_2
Fe0 S4 2.238222 1_665
Fe0 S0 2.286870 1_555
Fe0 S6 2.363800 1_655
Fe0 S6 2.363800 1_565
Fe0 S1 2.484577 1_565
Fe0 S1 2.484577 1_655
S0 Yb3 2.799783 1_565
S0 Yb3 2.799783 1_655
S0 Yb1 3.018232 1_565
S0 Yb1 3.018232 1_655
S1 S2 2.086640 1_555
S1 Yb3 3.139539 1_555
S1 Yb0 3.279703 1_455
S1 Yb0 3.279703 1_545
S2 Yb0 2.822900 1_545
S2 Yb0 2.822900 1_455
S2 Yb2 2.969168 1_564
S2 Yb2 2.969168 1_654
S3 Yb0 2.656396 1_556
S3 Yb2 2.717786 1_565
S3 Yb2 2.717786 1_655
S3 Yb1 2.889398 1_565
S3 Yb1 2.889398 1_655
S4 Yb0 2.729414 1_545
S4 Yb0 2.729414 1_455
S4 Yb2 2.849382 1_554
S5 Yb2 2.649251 1_665
S5 Yb3 2.663067 1_665
S5 Yb1 2.755487 1_565
S5 Yb1 2.755487 1_655
S6 Yb3 2.808040 1_655
S6 Yb3 2.808040 1_565
S6 Yb1 2.854926 1_555
