# generated using pymatgen
data_Na8BiO3
_symmetry_space_group_name_H-M   'P 1'
_cell_length_a   6.18759700
_cell_length_b   6.18759700
_cell_length_c   6.18759700
_cell_angle_alpha   90.00000000
_cell_angle_beta   90.00000000
_cell_angle_gamma   90.00000000
_symmetry_Int_Tables_number   1
_chemical_formula_structural   Na8BiO3
_chemical_formula_sum   'Na8 Bi1 O3'
_cell_volume   236.90054545
_cell_formula_units_Z   1
loop_
 _symmetry_equiv_pos_site_id
 _symmetry_equiv_pos_as_xyz
  1  'x, y, z'
loop_
 _atom_site_type_symbol
 _atom_site_label
 _atom_site_symmetry_multiplicity
 _atom_site_fract_x
 _atom_site_fract_y
 _atom_site_fract_z
 _atom_site_occupancy
  Na  Na0  1  0.27150000  0.27150000  0.27150000  1
  Na  Na1  1  0.72850000  0.72850000  0.27150000  1
  Na  Na2  1  0.72850000  0.27150000  0.72850000  1
  Na  Na3  1  0.27150000  0.72850000  0.72850000  1
  Na  Na4  1  0.27150000  0.27150000  0.72850000  1
  Na  Na5  1  0.72850000  0.72850000  0.72850000  1
  Na  Na6  1  0.72850000  0.27150000  0.27150000  1
  Na  Na7  1  0.27150000  0.72850000  0.27150000  1
  Bi  Bi0  1  0.00000000  0.00000000  0.00000000  1
  O  O0  1  0.00000000  0.50000000  0.50000000  1
  O  O1  1  0.50000000  0.50000000  0.00000000  1
  O  O2  1  0.50000000  0.00000000  0.50000000  1
loop_
_geom_bond_atom_site_label_1
_geom_bond_atom_site_label_2
_geom_bond_distance
_geom_bond_site_symmetry_2
Na0 O1 2.611553 1_555
Na0 O2 2.611553 1_555
Na0 O0 2.611553 1_555
Na1 O2 2.611553 1_565
Na1 O0 2.611553 1_655
Na1 O1 2.611553 1_555
Na2 O1 2.611553 1_556
Na2 O0 2.611553 1_655
Na2 O2 2.611553 1_555
Na3 O1 2.611553 1_556
Na3 O2 2.611553 1_565
Na3 O0 2.611553 1_555
Na4 O1 2.611553 1_556
Na4 O0 2.611553 1_555
Na4 O2 2.611553 1_555
Na5 O2 2.611553 1_565
Na5 O1 2.611553 1_556
Na5 O0 2.611553 1_655
Na6 O0 2.611553 1_655
Na6 O2 2.611553 1_555
Na6 O1 2.611553 1_555
Na7 O2 2.611553 1_565
Na7 O1 2.611553 1_555
Na7 O0 2.611553 1_555
Bi0 Na5 2.909729 1_444
Bi0 Na2 2.909729 1_454
Bi0 Na1 2.909729 1_445
Bi0 Na6 2.909729 1_455
Bi0 Na3 2.909729 1_544
Bi0 Na0 2.909729 1_555
Bi0 Na4 2.909729 1_554
Bi0 Na7 2.909729 1_545
