# generated using pymatgen
data_Ba7Ga4P9
_symmetry_space_group_name_H-M   'P 1'
_cell_length_a   6.76931500
_cell_length_b   9.93484200
_cell_length_c   16.79706100
_cell_angle_alpha   90.00000000
_cell_angle_beta   90.00000000
_cell_angle_gamma   90.00000000
_symmetry_Int_Tables_number   1
_chemical_formula_structural   Ba7Ga4P9
_chemical_formula_sum   'Ba14 Ga8 P18'
_cell_volume   1129.63720570
_cell_formula_units_Z   2
loop_
 _symmetry_equiv_pos_site_id
 _symmetry_equiv_pos_as_xyz
  1  'x, y, z'
loop_
 _atom_site_type_symbol
 _atom_site_label
 _atom_site_symmetry_multiplicity
 _atom_site_fract_x
 _atom_site_fract_y
 _atom_site_fract_z
 _atom_site_occupancy
  Ba  Ba0  1  0.44766200  0.50000000  0.78352000  1
  Ba  Ba1  1  0.44766200  0.50000000  0.21648000  1
  Ba  Ba2  1  0.55233800  0.00000000  0.71648000  1
  Ba  Ba3  1  0.55233800  0.00000000  0.28352000  1
  Ba  Ba4  1  0.94094100  0.27938700  0.87517200  1
  Ba  Ba5  1  0.94094100  0.72061300  0.87517200  1
  Ba  Ba6  1  0.94094100  0.27938700  0.12482800  1
  Ba  Ba7  1  0.94094100  0.72061300  0.12482800  1
  Ba  Ba8  1  0.05905900  0.22061300  0.62482800  1
  Ba  Ba9  1  0.05905900  0.77938700  0.62482800  1
  Ba  Ba10  1  0.05905900  0.22061300  0.37517200  1
  Ba  Ba11  1  0.05905900  0.77938700  0.37517200  1
  Ba  Ba12  1  0.40044300  0.50000000  0.50000000  1
  Ba  Ba13  1  0.59955700  0.00000000  0.00000000  1
  Ga  Ga0  1  0.76705800  0.50000000  0.37742100  1
  Ga  Ga1  1  0.76705800  0.50000000  0.62257900  1
  Ga  Ga2  1  0.23294200  0.00000000  0.12257900  1
  Ga  Ga3  1  0.23294200  0.00000000  0.87742100  1
  Ga  Ga4  1  0.57462000  0.82807100  0.50000000  1
  Ga  Ga5  1  0.57462000  0.17192900  0.50000000  1
  Ga  Ga6  1  0.42538000  0.67192900  0.00000000  1
  Ga  Ga7  1  0.42538000  0.32807100  0.00000000  1
  P  P0  1  0.56458300  0.29161500  0.37395700  1
  P  P1  1  0.56458300  0.70838500  0.37395700  1
  P  P2  1  0.56458300  0.29161500  0.62604300  1
  P  P3  1  0.56458300  0.70838500  0.62604300  1
  P  P4  1  0.43541700  0.20838500  0.12604300  1
  P  P5  1  0.43541700  0.79161500  0.12604300  1
  P  P6  1  0.43541700  0.20838500  0.87395700  1
  P  P7  1  0.43541700  0.79161500  0.87395700  1
  P  P8  1  0.97683100  0.50000000  0.26459000  1
  P  P9  1  0.97683100  0.50000000  0.73541000  1
  P  P10  1  0.02316900  0.00000000  0.23541000  1
  P  P11  1  0.02316900  0.00000000  0.76459000  1
  P  P12  1  0.69073200  0.50000000  0.00000000  1
  P  P13  1  0.30926800  0.00000000  0.50000000  1
  P  P14  1  0.16148900  0.50000000  0.00000000  1
  P  P15  1  0.83851100  0.00000000  0.50000000  1
  P  P16  1  0.95109400  0.50000000  0.50000000  1
  P  P17  1  0.04890600  0.00000000  0.00000000  1
loop_
_geom_bond_atom_site_label_1
_geom_bond_atom_site_label_2
_geom_bond_distance
_geom_bond_site_symmetry_2
Ba0 P6 3.272298 1_555
Ba0 P7 3.272298 1_555
Ba0 P9 3.288054 1_455
Ba0 P3 3.450983 1_555
Ba0 P2 3.450983 1_555
Ba0 Ga1 3.461599 1_555
Ba0 P9 3.672133 1_555
Ba1 P5 3.272298 1_555
Ba1 P4 3.272298 1_555
Ba1 P8 3.288054 1_455
Ba1 P1 3.450983 1_555
Ba1 P0 3.450983 1_555
Ba1 Ga0 3.461599 1_555
Ba1 P8 3.672133 1_555
Ba2 P2 3.272298 1_555
Ba2 P3 3.272298 1_545
Ba2 P11 3.288054 1_655
Ba2 P6 3.450983 1_555
Ba2 P7 3.450983 1_545
Ba2 Ga3 3.461599 1_555
Ba2 P11 3.672133 1_555
Ba3 P0 3.272298 1_555
Ba3 P1 3.272298 1_545
Ba3 P10 3.288054 1_655
Ba3 P4 3.450983 1_555
Ba3 P5 3.450983 1_545
Ba3 Ga2 3.461599 1_555
Ba3 P10 3.672133 1_555
Ba4 P9 3.220869 1_555
Ba4 P14 3.380688 1_656
Ba4 P11 3.385895 1_655
Ba4 Ga3 3.407768 1_655
Ba4 P6 3.420844 1_655
Ba4 P12 3.474031 1_556
Ba4 P6 3.494057 1_555
Ba4 P17 3.554546 1_656
Ba5 P9 3.220869 1_555
Ba5 P14 3.380688 1_656
Ba5 P11 3.385895 1_665
Ba5 Ga3 3.407768 1_665
Ba5 P7 3.420844 1_655
Ba5 P12 3.474031 1_556
Ba5 P7 3.494057 1_555
Ba5 P17 3.554546 1_666
Ba6 P8 3.220869 1_555
Ba6 P14 3.380688 1_655
Ba6 P10 3.385895 1_655
Ba6 Ga2 3.407768 1_655
Ba6 P4 3.420844 1_655
Ba6 P12 3.474031 1_555
Ba6 P4 3.494057 1_555
Ba6 P17 3.554546 1_655
Ba7 P8 3.220869 1_555
Ba7 P14 3.380688 1_655
Ba7 P10 3.385895 1_665
Ba7 Ga2 3.407768 1_665
Ba7 P5 3.420844 1_655
Ba7 P12 3.474031 1_555
Ba7 P5 3.494057 1_555
Ba7 P17 3.554546 1_665
Ba8 P11 3.220869 1_555
Ba8 P15 3.380688 1_455
Ba8 P9 3.385895 1_455
Ba8 Ga1 3.407768 1_455
Ba8 P2 3.420844 1_455
Ba8 P13 3.474031 1_555
Ba8 P2 3.494057 1_555
Ba8 P16 3.554546 1_455
Ba9 P11 3.220869 1_565
Ba9 P15 3.380688 1_465
Ba9 P9 3.385895 1_455
Ba9 Ga1 3.407768 1_455
Ba9 P3 3.420844 1_455
Ba9 P13 3.474031 1_565
Ba9 P3 3.494057 1_555
Ba9 P16 3.554546 1_455
Ba10 P10 3.220869 1_555
Ba10 P15 3.380688 1_455
Ba10 P8 3.385895 1_455
Ba10 Ga0 3.407768 1_455
Ba10 P0 3.420844 1_455
Ba10 P13 3.474031 1_555
Ba10 P0 3.494057 1_555
Ba10 P16 3.554546 1_455
Ba11 P10 3.220869 1_565
Ba11 P15 3.380688 1_465
Ba11 P8 3.385895 1_455
Ba11 Ga0 3.407768 1_455
Ba11 P1 3.420844 1_455
Ba11 P13 3.474031 1_565
Ba11 P1 3.494057 1_555
Ba11 P16 3.554546 1_455
Ba12 P16 3.041785 1_455
Ba12 P3 3.162742 1_555
Ba12 P1 3.162742 1_555
Ba12 P0 3.162742 1_555
Ba12 P2 3.162742 1_555
Ba13 P17 3.041785 1_655
Ba13 P5 3.162742 1_545
Ba13 P4 3.162742 1_555
Ba13 P6 3.162742 1_554
Ba13 P7 3.162742 1_544
Ga0 P8 2.368195 1_555
Ga0 P16 2.406524 1_555
Ga0 P1 2.483546 1_555
Ga0 P0 2.483546 1_555
Ga1 P9 2.368195 1_555
Ga1 P16 2.406524 1_555
Ga1 P3 2.483546 1_555
Ga1 P2 2.483546 1_555
Ga2 P10 2.368195 1_555
Ga2 P17 2.406524 1_555
Ga2 P4 2.483546 1_555
Ga2 P5 2.483546 1_545
Ga3 P11 2.368195 1_555
Ga3 P17 2.406524 1_556
Ga3 P6 2.483546 1_555
Ga3 P7 2.483546 1_545
Ga4 P3 2.429160 1_555
Ga4 P1 2.429160 1_555
Ga4 P15 2.471568 1_565
Ga4 P13 2.478726 1_565
Ga5 P0 2.429160 1_555
Ga5 P2 2.429160 1_555
Ga5 P15 2.471568 1_555
Ga5 P13 2.478726 1_555
Ga6 P5 2.429160 1_555
Ga6 P7 2.429160 1_554
Ga6 P14 2.471568 1_555
Ga6 P12 2.478726 1_555
Ga7 P4 2.429160 1_555
Ga7 P6 2.429160 1_554
Ga7 P14 2.471568 1_555
Ga7 P12 2.478726 1_555
