# generated using pymatgen
data_Ca3Mn2(WO6)2
_symmetry_space_group_name_H-M   'P 1'
_cell_length_a   5.51906204
_cell_length_b   5.64416475
_cell_length_c   7.60970804
_cell_angle_alpha   90.54105184
_cell_angle_beta   89.81194726
_cell_angle_gamma   94.30410633
_symmetry_Int_Tables_number   1
_chemical_formula_structural   Ca3Mn2(WO6)2
_chemical_formula_sum   'Ca3 Mn2 W2 O12'
_cell_volume   236.36632140
_cell_formula_units_Z   1
loop_
 _symmetry_equiv_pos_site_id
 _symmetry_equiv_pos_as_xyz
  1  'x, y, z'
loop_
 _atom_site_type_symbol
 _atom_site_label
 _atom_site_symmetry_multiplicity
 _atom_site_fract_x
 _atom_site_fract_y
 _atom_site_fract_z
 _atom_site_occupancy
  Ca  Ca0  1  0.00000000  0.05100900  0.25466200  1
  Ca  Ca1  1  0.00162300  0.95283200  0.75080700  1
  Ca  Ca2  1  0.48019400  0.44783600  0.75028300  1
  Mn  Mn0  1  0.99334000  0.50120100  0.50075300  1
  Mn  Mn1  1  0.50251300  0.98858800  0.00040100  1
  W  W0  1  0.99529600  0.50201500  0.00992000  1
  W  W1  1  0.50105800  0.98988900  0.49181900  1
  O  O0  1  0.71616900  0.27590500  0.46114200  1
  O  O1  1  0.83075500  0.78929300  0.03515400  1
  O  O2  1  0.28587800  0.71167000  0.55437900  1
  O  O3  1  0.18966400  0.23607700  0.95036500  1
  O  O4  1  0.22856600  0.18604200  0.54199600  1
  O  O5  1  0.28777700  0.71246500  0.94330200  1
  O  O6  1  0.78417800  0.81596600  0.46834400  1
  O  O7  1  0.71638100  0.28183800  0.03839900  1
  O  O8  1  0.07303800  0.48387300  0.25116200  1
  O  O9  1  0.41341700  0.97229700  0.24941100  1
  O  O10  1  0.58057600  0.02381000  0.75152200  1
  O  O11  1  0.90545200  0.52174500  0.74948200  1
loop_
_geom_bond_atom_site_label_1
_geom_bond_atom_site_label_2
_geom_bond_distance
_geom_bond_site_symmetry_2
Ca0 O9 2.357164 1_545
Ca0 O1 2.366699 1_445
Ca0 O6 2.369310 1_445
Ca0 O8 2.446537 1_555
Ca0 O0 2.603571 1_455
Ca0 O4 2.606799 1_555
Ca0 O7 2.686897 1_455
Ca0 O3 2.722962 1_554
Ca1 O4 2.367538 1_565
Ca1 O3 2.377892 1_565
Ca1 O10 2.387489 1_465
Ca1 O11 2.451051 1_455
Ca1 O1 2.513365 1_456
Ca1 O6 2.550210 1_455
Ca1 O2 2.610549 1_555
Ca1 O5 2.618167 1_555
Ca2 O11 2.352781 1_555
Ca2 O5 2.387984 1_555
Ca2 O2 2.425314 1_555
Ca2 O3 2.459362 1_555
Ca2 O10 2.496849 1_555
Ca2 O4 2.507269 1_555
Ca2 O0 2.758555 1_555
Ca2 O7 2.761313 1_556
Mn0 O0 1.936934 1_555
Mn0 O8 1.951385 1_655
Mn0 O11 1.956916 1_555
Mn0 O2 1.972738 1_655
Mn0 O6 2.206274 1_555
Mn0 O4 2.303888 1_655
Mn1 O5 1.932765 1_554
Mn1 O10 1.949585 1_564
Mn1 O9 1.957360 1_555
Mn1 O7 1.978970 1_565
Mn1 O1 2.220748 1_555
Mn1 O3 2.335351 1_564
O0 W1 1.946182 1_545
O1 W0 1.924737 1_555
O2 W1 1.957903 1_555
O3 W0 1.958259 1_456
O4 W1 1.967585 1_545
O5 W0 1.997950 1_456
O6 W1 1.913694 1_555
O7 W0 1.917462 1_555
O8 W0 1.892086 1_455
O9 W1 1.908339 1_555
O10 W1 2.029978 1_545
O11 W0 2.050594 1_556
