# generated using pymatgen
data_DyNi3Sn2
_symmetry_space_group_name_H-M   'P 1'
_cell_length_a   4.08492200
_cell_length_b   9.48614564
_cell_length_c   9.48614564
_cell_angle_alpha   119.99999746
_cell_angle_beta   90.00000000
_cell_angle_gamma   90.00000000
_symmetry_Int_Tables_number   1
_chemical_formula_structural   DyNi3Sn2
_chemical_formula_sum   'Dy3 Ni9 Sn6'
_cell_volume   318.34203401
_cell_formula_units_Z   3
loop_
 _symmetry_equiv_pos_site_id
 _symmetry_equiv_pos_as_xyz
  1  'x, y, z'
loop_
 _atom_site_type_symbol
 _atom_site_label
 _atom_site_symmetry_multiplicity
 _atom_site_fract_x
 _atom_site_fract_y
 _atom_site_fract_z
 _atom_site_occupancy
  Dy  Dy0  1  0.00000000  0.00000000  0.00000000  1
  Dy  Dy1  1  0.50000000  0.66666700  0.33333300  1
  Dy  Dy2  1  0.50000000  0.33333300  0.66666700  1
  Ni  Ni0  1  0.00000000  0.81706800  0.18293200  1
  Ni  Ni1  1  0.00000000  0.18293200  0.81706800  1
  Ni  Ni2  1  0.00000000  0.36586300  0.18293200  1
  Ni  Ni3  1  0.00000000  0.63413700  0.81706800  1
  Ni  Ni4  1  0.00000000  0.81706800  0.63413700  1
  Ni  Ni5  1  0.00000000  0.18293200  0.36586300  1
  Ni  Ni6  1  0.00000000  0.50000000  0.50000000  1
  Ni  Ni7  1  0.00000000  0.00000000  0.50000000  1
  Ni  Ni8  1  0.00000000  0.50000000  0.00000000  1
  Sn  Sn0  1  0.50000000  0.67796900  0.67796900  1
  Sn  Sn1  1  0.50000000  0.32203100  0.32203100  1
  Sn  Sn2  1  0.50000000  0.00000000  0.32203100  1
  Sn  Sn3  1  0.50000000  0.00000000  0.67796900  1
  Sn  Sn4  1  0.50000000  0.32203100  0.00000000  1
  Sn  Sn5  1  0.50000000  0.67796900  0.00000000  1
loop_
_geom_bond_atom_site_label_1
_geom_bond_atom_site_label_2
_geom_bond_distance
_geom_bond_site_symmetry_2
Dy0 Ni2 3.005654 1_555
Dy0 Ni5 3.005654 1_555
Dy0 Ni4 3.005654 1_544
Dy0 Ni3 3.005654 1_544
Dy0 Ni1 3.005662 1_554
Dy0 Ni0 3.005662 1_545
Dy1 Ni0 3.205977 1_555
Dy1 Ni0 3.205977 1_655
Dy1 Ni2 3.205989 1_555
Dy1 Ni4 3.205989 1_655
Dy1 Ni2 3.205989 1_655
Dy1 Ni4 3.205989 1_555
Dy1 Sn5 3.216992 1_555
Dy1 Sn2 3.216992 1_565
Dy1 Sn3 3.216997 1_565
Dy1 Sn4 3.216997 1_555
Dy1 Sn0 3.217001 1_555
Dy1 Sn1 3.217001 1_555
Dy1 Ni7 3.416218 1_565
Dy1 Ni7 3.416218 1_665
Dy1 Ni8 3.416218 1_555
Dy1 Ni8 3.416218 1_655
Dy1 Ni6 3.416225 1_555
Dy1 Ni6 3.416225 1_655
Dy2 Ni1 3.205977 1_655
Dy2 Ni1 3.205977 1_555
Dy2 Ni3 3.205989 1_655
Dy2 Ni5 3.205989 1_555
Dy2 Ni3 3.205989 1_555
Dy2 Ni5 3.205989 1_655
Dy2 Sn3 3.216992 1_555
Dy2 Sn4 3.216992 1_556
Dy2 Sn5 3.216997 1_556
Dy2 Sn2 3.216997 1_555
Dy2 Sn0 3.217001 1_555
Dy2 Sn1 3.217001 1_555
Dy2 Ni8 3.416218 1_656
Dy2 Ni7 3.416218 1_555
Dy2 Ni8 3.416218 1_556
Dy2 Ni7 3.416218 1_655
Dy2 Ni6 3.416225 1_555
Dy2 Ni6 3.416225 1_655
Ni0 Sn5 2.575717 1_555
Ni0 Sn5 2.575717 1_455
Ni0 Sn2 2.575717 1_565
Ni0 Sn2 2.575717 1_465
Ni0 Ni8 2.615053 1_555
Ni0 Ni7 2.615053 1_565
Ni1 Sn3 2.575717 1_455
Ni1 Sn3 2.575717 1_555
Ni1 Sn4 2.575717 1_556
Ni1 Sn4 2.575717 1_456
Ni1 Ni7 2.615053 1_555
Ni1 Ni8 2.615053 1_556
Ni2 Sn1 2.575713 1_455
Ni2 Sn1 2.575713 1_555
Ni2 Sn4 2.575719 1_455
Ni2 Sn4 2.575719 1_555
Ni2 Ni6 2.615052 1_555
Ni2 Ni8 2.615060 1_555
Ni3 Sn0 2.575713 1_555
Ni3 Sn0 2.575713 1_455
Ni3 Sn5 2.575719 1_556
Ni3 Sn5 2.575719 1_456
Ni3 Ni6 2.615052 1_555
Ni3 Ni8 2.615060 1_556
Ni4 Sn0 2.575713 1_555
Ni4 Sn0 2.575713 1_455
Ni4 Sn3 2.575719 1_565
Ni4 Sn3 2.575719 1_465
Ni4 Ni6 2.615052 1_555
Ni4 Ni7 2.615060 1_565
Ni5 Sn1 2.575713 1_455
Ni5 Sn1 2.575713 1_555
Ni5 Sn2 2.575719 1_455
Ni5 Sn2 2.575719 1_555
Ni5 Ni6 2.615052 1_555
Ni5 Ni7 2.615060 1_555
Ni6 Sn0 2.649868 1_455
Ni6 Sn0 2.649868 1_555
Ni6 Sn1 2.649868 1_555
Ni6 Sn1 2.649868 1_455
Ni7 Sn3 2.649868 1_555
Ni7 Sn3 2.649868 1_455
Ni7 Sn2 2.649868 1_555
Ni7 Sn2 2.649868 1_455
Ni8 Sn5 2.649868 1_455
Ni8 Sn5 2.649868 1_555
Ni8 Sn4 2.649868 1_455
Ni8 Sn4 2.649868 1_555
