# generated using pymatgen
data_Li2Ni2(MoO4)3
_symmetry_space_group_name_H-M   'P 1'
_cell_length_a   5.14707900
_cell_length_b   10.57965700
_cell_length_c   17.87180700
_cell_angle_alpha   90.00000000
_cell_angle_beta   90.00000000
_cell_angle_gamma   90.00000000
_symmetry_Int_Tables_number   1
_chemical_formula_structural   Li2Ni2(MoO4)3
_chemical_formula_sum   'Li8 Ni8 Mo12 O48'
_cell_volume   973.19728272
_cell_formula_units_Z   4
loop_
 _symmetry_equiv_pos_site_id
 _symmetry_equiv_pos_as_xyz
  1  'x, y, z'
loop_
 _atom_site_type_symbol
 _atom_site_label
 _atom_site_symmetry_multiplicity
 _atom_site_fract_x
 _atom_site_fract_y
 _atom_site_fract_z
 _atom_site_occupancy
  Li  Li0  1  0.09649800  0.25000000  0.24967500  1
  Li  Li1  1  0.90350200  0.75000000  0.75032500  1
  Li  Li2  1  0.40350200  0.75000000  0.74967500  1
  Li  Li3  1  0.59649800  0.25000000  0.25032500  1
  Li  Li4  1  0.23533600  0.25000000  0.69001600  1
  Li  Li5  1  0.76466400  0.75000000  0.30998400  1
  Li  Li6  1  0.26466400  0.75000000  0.19001600  1
  Li  Li7  1  0.73533600  0.25000000  0.80998400  1
  Ni  Ni0  1  0.24691100  0.07220400  0.52718600  1
  Ni  Ni1  1  0.75308900  0.92779600  0.47281400  1
  Ni  Ni2  1  0.25308900  0.92779600  0.02718600  1
  Ni  Ni3  1  0.75308900  0.57220400  0.47281400  1
  Ni  Ni4  1  0.74691100  0.07220400  0.97281400  1
  Ni  Ni5  1  0.24691100  0.42779600  0.52718600  1
  Ni  Ni6  1  0.74691100  0.42779600  0.97281400  1
  Ni  Ni7  1  0.25308900  0.57220400  0.02718600  1
  Mo  Mo0  1  0.28117800  0.52627400  0.34457300  1
  Mo  Mo1  1  0.71882200  0.47372600  0.65542700  1
  Mo  Mo2  1  0.21882200  0.47372600  0.84457300  1
  Mo  Mo3  1  0.71882200  0.02627400  0.65542700  1
  Mo  Mo4  1  0.78117800  0.52627400  0.15542700  1
  Mo  Mo5  1  0.28117800  0.97372600  0.34457300  1
  Mo  Mo6  1  0.78117800  0.97372600  0.15542700  1
  Mo  Mo7  1  0.21882200  0.02627400  0.84457300  1
  Mo  Mo8  1  0.28184700  0.25000000  0.05545800  1
  Mo  Mo9  1  0.71815300  0.75000000  0.94454200  1
  Mo  Mo10  1  0.21815300  0.75000000  0.55545800  1
  Mo  Mo11  1  0.78184700  0.25000000  0.44454200  1
  O  O0  1  0.08234200  0.62334800  0.28812500  1
  O  O1  1  0.91765800  0.37665200  0.71187500  1
  O  O2  1  0.41765800  0.37665200  0.78812500  1
  O  O3  1  0.91765800  0.12334800  0.71187500  1
  O  O4  1  0.58234200  0.62334800  0.21187500  1
  O  O5  1  0.08234200  0.87665200  0.28812500  1
  O  O6  1  0.58234200  0.87665200  0.21187500  1
  O  O7  1  0.41765800  0.12334800  0.78812500  1
  O  O8  1  0.07903200  0.01152100  0.42803000  1
  O  O9  1  0.92096800  0.98847900  0.57197000  1
  O  O10  1  0.42096800  0.98847900  0.92803000  1
  O  O11  1  0.92096800  0.51152100  0.57197000  1
  O  O12  1  0.57903200  0.01152100  0.07197000  1
  O  O13  1  0.07903200  0.48847900  0.42803000  1
  O  O14  1  0.57903200  0.48847900  0.07197000  1
  O  O15  1  0.42096800  0.51152100  0.92803000  1
  O  O16  1  0.35207800  0.11578300  0.29644000  1
  O  O17  1  0.64792200  0.88421700  0.70356000  1
  O  O18  1  0.14792200  0.88421700  0.79644000  1
  O  O19  1  0.64792200  0.61578300  0.70356000  1
  O  O20  1  0.85207800  0.11578300  0.20356000  1
  O  O21  1  0.35207800  0.38421700  0.29644000  1
  O  O22  1  0.85207800  0.38421700  0.20356000  1
  O  O23  1  0.14792200  0.61578300  0.79644000  1
  O  O24  1  0.06829700  0.25000000  0.50696300  1
  O  O25  1  0.93170300  0.75000000  0.49303700  1
  O  O26  1  0.43170300  0.75000000  0.00696300  1
  O  O27  1  0.56829700  0.25000000  0.99303700  1
  O  O28  1  0.35683500  0.25000000  0.15073000  1
  O  O29  1  0.64316500  0.75000000  0.84927000  1
  O  O30  1  0.14316500  0.75000000  0.65073000  1
  O  O31  1  0.85683500  0.25000000  0.34927000  1
  O  O32  1  0.07970200  0.11302400  0.03497100  1
  O  O33  1  0.92029800  0.88697600  0.96502900  1
  O  O34  1  0.42029800  0.88697600  0.53497100  1
  O  O35  1  0.92029800  0.61302400  0.96502900  1
  O  O36  1  0.57970200  0.11302400  0.46502900  1
  O  O37  1  0.07970200  0.38697600  0.03497100  1
  O  O38  1  0.57970200  0.38697600  0.46502900  1
  O  O39  1  0.42029800  0.61302400  0.53497100  1
  O  O40  1  0.07003700  0.61205500  0.12477100  1
  O  O41  1  0.92996300  0.38794500  0.87522900  1
  O  O42  1  0.42996300  0.38794500  0.62477100  1
  O  O43  1  0.92996300  0.11205500  0.87522900  1
  O  O44  1  0.57003700  0.61205500  0.37522900  1
  O  O45  1  0.07003700  0.88794500  0.12477100  1
  O  O46  1  0.57003700  0.88794500  0.37522900  1
  O  O47  1  0.42996300  0.11205500  0.62477100  1
loop_
_geom_bond_atom_site_label_1
_geom_bond_atom_site_label_2
_geom_bond_distance
_geom_bond_site_symmetry_2
Li0 O22 2.068390 1_455
Li0 O20 2.068390 1_455
Li0 O16 2.108400 1_555
Li0 O21 2.108400 1_555
Li0 O31 2.165612 1_455
Li0 O28 2.218673 1_555
Li1 O18 2.068390 1_655
Li1 O23 2.068390 1_655
Li1 O17 2.108400 1_555
Li1 O19 2.108400 1_555
Li1 O30 2.165612 1_655
Li1 O29 2.218673 1_555
Li2 O17 2.068390 1_555
Li2 O19 2.068390 1_555
Li2 O18 2.108400 1_555
Li2 O23 2.108400 1_555
Li2 O29 2.165612 1_555
Li2 O30 2.218673 1_555
Li3 O21 2.068390 1_555
Li3 O16 2.068390 1_555
Li3 O20 2.108400 1_555
Li3 O22 2.108400 1_555
Li3 O28 2.165612 1_555
Li3 O31 2.218673 1_555
Li4 O47 2.119686 1_555
Li4 O42 2.119686 1_555
Li4 O3 2.149799 1_455
Li4 O1 2.149799 1_455
Li4 O7 2.398005 1_555
Li4 O2 2.398005 1_555
Li5 O46 2.119686 1_555
Li5 O44 2.119686 1_555
Li5 O0 2.149799 1_655
Li5 O5 2.149799 1_655
Li5 O6 2.398005 1_555
Li5 O4 2.398005 1_555
Li6 O45 2.119686 1_555
Li6 O40 2.119686 1_555
Li6 O6 2.149799 1_555
Li6 O4 2.149799 1_555
Li6 O5 2.398005 1_555
Li6 O0 2.398005 1_555
Li7 O43 2.119686 1_555
Li7 O41 2.119686 1_555
Li7 O2 2.149799 1_555
Li7 O7 2.149799 1_555
Li7 O3 2.398005 1_555
Li7 O1 2.398005 1_555
Ni0 O47 2.026591 1_555
Ni0 O9 2.059060 1_445
Ni0 O8 2.073438 1_555
Ni0 O36 2.086754 1_555
Ni0 O24 2.124630 1_555
Ni0 O34 2.157782 1_545
Ni1 O46 2.026591 1_555
Ni1 O8 2.059060 1_665
Ni1 O9 2.073438 1_555
Ni1 O34 2.086754 1_555
Ni1 O25 2.124630 1_555
Ni1 O36 2.157782 1_565
Ni2 O45 2.026591 1_555
Ni2 O12 2.059060 1_565
Ni2 O10 2.073438 1_554
Ni2 O33 2.086754 1_454
Ni2 O26 2.124630 1_555
Ni2 O32 2.157782 1_565
Ni3 O44 2.026591 1_555
Ni3 O13 2.059060 1_655
Ni3 O11 2.073438 1_555
Ni3 O39 2.086754 1_555
Ni3 O25 2.124630 1_555
Ni3 O38 2.157782 1_555
Ni4 O43 2.026591 1_555
Ni4 O10 2.059060 1_545
Ni4 O12 2.073438 1_556
Ni4 O32 2.086754 1_656
Ni4 O27 2.124630 1_555
Ni4 O33 2.157782 1_545
Ni5 O42 2.026591 1_555
Ni5 O11 2.059060 1_455
Ni5 O13 2.073438 1_555
Ni5 O38 2.086754 1_555
Ni5 O24 2.124630 1_555
Ni5 O39 2.157782 1_555
Ni6 O41 2.026591 1_555
Ni6 O15 2.059060 1_555
Ni6 O14 2.073438 1_556
Ni6 O37 2.086754 1_656
Ni6 O27 2.124630 1_555
Ni6 O35 2.157782 1_555
Ni7 O40 2.026591 1_555
Ni7 O14 2.059060 1_555
Ni7 O15 2.073438 1_554
Ni7 O35 2.086754 1_454
Ni7 O26 2.124630 1_555
Ni7 O37 2.157782 1_555
Mo0 O0 1.766318 1_555
Mo0 O21 1.769720 1_555
Mo0 O44 1.826007 1_555
Mo0 O13 1.862015 1_555
Mo1 O1 1.766318 1_555
Mo1 O19 1.769720 1_555
Mo1 O42 1.826007 1_555
Mo1 O11 1.862015 1_555
Mo2 O2 1.766318 1_555
Mo2 O23 1.769720 1_555
Mo2 O41 1.826007 1_455
Mo2 O15 1.862015 1_555
Mo3 O3 1.766318 1_555
Mo3 O17 1.769720 1_545
Mo3 O47 1.826007 1_555
Mo3 O9 1.862015 1_545
Mo4 O4 1.766318 1_555
Mo4 O22 1.769720 1_555
Mo4 O40 1.826007 1_655
Mo4 O14 1.862015 1_555
Mo5 O5 1.766318 1_555
Mo5 O16 1.769720 1_565
Mo5 O46 1.826007 1_555
Mo5 O8 1.862015 1_565
Mo6 O6 1.766318 1_555
Mo6 O20 1.769720 1_565
Mo6 O45 1.826007 1_655
Mo6 O12 1.862015 1_565
Mo7 O7 1.766318 1_555
Mo7 O18 1.769720 1_545
Mo7 O43 1.826007 1_455
Mo7 O10 1.862015 1_545
Mo8 O28 1.745881 1_555
Mo8 O32 1.821173 1_555
Mo8 O37 1.821173 1_555
Mo8 O27 1.848867 1_554
Mo9 O29 1.745881 1_555
Mo9 O33 1.821173 1_555
Mo9 O35 1.821173 1_555
Mo9 O26 1.848867 1_556
Mo10 O30 1.745881 1_555
Mo10 O39 1.821173 1_555
Mo10 O34 1.821173 1_555
Mo10 O25 1.848867 1_455
Mo11 O31 1.745881 1_555
Mo11 O36 1.821173 1_555
Mo11 O38 1.821173 1_555
Mo11 O24 1.848867 1_655
