# generated using pymatgen
data_NdAlCo4
_symmetry_space_group_name_H-M   'P 1'
_cell_length_a   5.16706204
_cell_length_b   5.16706204
_cell_length_c   3.82130100
_cell_angle_alpha   90.00000000
_cell_angle_beta   90.00000000
_cell_angle_gamma   120.00000050
_symmetry_Int_Tables_number   1
_chemical_formula_structural   NdAlCo4
_chemical_formula_sum   'Nd1 Al1 Co4'
_cell_volume   88.35461310
_cell_formula_units_Z   1
loop_
 _symmetry_equiv_pos_site_id
 _symmetry_equiv_pos_as_xyz
  1  'x, y, z'
loop_
 _atom_site_type_symbol
 _atom_site_label
 _atom_site_symmetry_multiplicity
 _atom_site_fract_x
 _atom_site_fract_y
 _atom_site_fract_z
 _atom_site_occupancy
  Nd  Nd0  1  0.00000000  0.00000000  0.00000000  1
  Al  Al0  1  0.33333300  0.66666700  0.00000000  1
  Co  Co0  1  0.66666700  0.33333300  0.00000000  1
  Co  Co1  1  0.99146000  0.49573000  0.50000000  1
  Co  Co2  1  0.50427000  0.49573000  0.50000000  1
  Co  Co3  1  0.50427000  0.00854000  0.50000000  1
loop_
_geom_bond_atom_site_label_1
_geom_bond_atom_site_label_2
_geom_bond_distance
_geom_bond_site_symmetry_2
Al0 Co1 2.447636 1_455
Al0 Co1 2.447636 1_454
Al0 Co3 2.447636 1_564
Al0 Co3 2.447636 1_565
Al0 Co2 2.447639 1_554
Al0 Co2 2.447639 1_555
Al0 Co0 2.983202 1_455
Al0 Co0 2.983202 1_565
Al0 Nd0 2.983202 1_565
Al0 Nd0 2.983206 1_665
Al0 Nd0 2.983206 1_555
Al0 Co0 2.983211 1_555
Co0 Co1 2.400607 1_554
Co0 Co1 2.400607 1_555
Co0 Co3 2.400607 1_555
Co0 Co3 2.400607 1_554
Co0 Co2 2.400610 1_554
Co0 Co2 2.400610 1_555
Co0 Nd0 2.983202 1_655
Co0 Nd0 2.983206 1_555
Co0 Nd0 2.983206 1_665
Co1 Co3 2.517341 1_555
Co1 Co2 2.517341 1_555
Co1 Co3 2.649721 1_665
Co1 Co2 2.649721 1_655
Co1 Nd0 3.213515 1_665
Co1 Nd0 3.213515 1_666
Co1 Nd0 3.213515 1_655
Co1 Nd0 3.213515 1_656
Co2 Co3 2.517341 1_555
Co2 Co3 2.649721 1_565
Co2 Nd0 3.213515 1_555
Co2 Nd0 3.213515 1_556
Co2 Nd0 3.213515 1_665
Co2 Nd0 3.213515 1_666
Co3 Nd0 3.213515 1_555
Co3 Nd0 3.213515 1_556
Co3 Nd0 3.213515 1_655
Co3 Nd0 3.213515 1_656
