# generated using pymatgen
data_Mg6BMo
_symmetry_space_group_name_H-M   'P 1'
_cell_length_a   4.75503300
_cell_length_b   5.59941800
_cell_length_c   10.77876500
_cell_angle_alpha   90.00000000
_cell_angle_beta   90.00000000
_cell_angle_gamma   90.00000000
_symmetry_Int_Tables_number   1
_chemical_formula_structural   Mg6BMo
_chemical_formula_sum   'Mg12 B2 Mo2'
_cell_volume   286.98911687
_cell_formula_units_Z   2
loop_
 _symmetry_equiv_pos_site_id
 _symmetry_equiv_pos_as_xyz
  1  'x, y, z'
loop_
 _atom_site_type_symbol
 _atom_site_label
 _atom_site_symmetry_multiplicity
 _atom_site_fract_x
 _atom_site_fract_y
 _atom_site_fract_z
 _atom_site_occupancy
  Mg  Mg0  1  0.50000000  0.24910300  0.42750300  1
  Mg  Mg1  1  0.50000000  0.75089700  0.42750300  1
  Mg  Mg2  1  0.00000000  0.75540000  0.08217100  1
  Mg  Mg3  1  0.00000000  0.24460000  0.08217100  1
  Mg  Mg4  1  0.00000000  0.00000000  0.32397600  1
  Mg  Mg5  1  0.00000000  0.50000000  0.31106400  1
  Mg  Mg6  1  0.50000000  0.74910300  0.92750300  1
  Mg  Mg7  1  0.50000000  0.25089700  0.92750300  1
  Mg  Mg8  1  0.00000000  0.25540000  0.58217100  1
  Mg  Mg9  1  0.00000000  0.74460000  0.58217100  1
  Mg  Mg10  1  0.00000000  0.50000000  0.82397600  1
  Mg  Mg11  1  0.00000000  0.00000000  0.81106400  1
  B  B0  1  0.50000000  0.50000000  0.16622000  1
  B  B1  1  0.50000000  0.00000000  0.66622000  1
  Mo  Mo0  1  0.50000000  0.00000000  0.17938600  1
  Mo  Mo1  1  0.50000000  0.50000000  0.67938600  1
loop_
_geom_bond_atom_site_label_1
_geom_bond_atom_site_label_2
_geom_bond_distance
_geom_bond_site_symmetry_2
Mg0 Mg1 2.789664 1_545
Mg0 Mg1 2.809754 1_555
Mg0 Mg8 2.903989 1_555
Mg0 Mg8 2.903989 1_655
Mg0 Mg4 2.973778 1_655
Mg0 Mg4 2.973778 1_555
Mg0 Mo0 3.016280 1_555
Mg0 Mg5 3.033391 1_555
Mg0 Mg5 3.033391 1_655
Mg0 Mo1 3.056933 1_555
Mg1 Mg9 2.903989 1_555
Mg1 Mg9 2.903989 1_655
Mg1 Mg4 2.973778 1_565
Mg1 Mg4 2.973778 1_665
Mg1 Mo0 3.016280 1_565
Mg1 Mg5 3.033391 1_555
Mg1 Mg5 3.033391 1_655
Mg1 Mo1 3.056933 1_555
Mg2 Mg3 2.739235 1_565
Mg2 Mg5 2.851694 1_555
Mg2 Mg3 2.860183 1_555
Mg2 Mg6 2.903989 1_554
Mg2 Mg6 2.903989 1_454
Mg2 Mo0 2.937081 1_565
Mg2 Mo0 2.937081 1_465
Mg2 Mg4 2.944310 1_565
Mg3 Mg5 2.851694 1_555
Mg3 Mg7 2.903989 1_454
Mg3 Mg7 2.903989 1_554
Mg3 Mo0 2.937081 1_455
Mg3 Mo0 2.937081 1_555
Mg3 Mg4 2.944310 1_555
Mg4 Mo0 2.842800 1_455
Mg4 Mo0 2.842800 1_555
Mg4 Mg8 3.128958 1_555
Mg4 Mg9 3.128958 1_545
Mg5 Mg8 3.227243 1_555
Mg5 Mg9 3.227243 1_555
Mg6 Mg7 2.789664 1_555
Mg6 Mg7 2.809754 1_565
Mg6 Mo1 3.016280 1_555
Mg6 Mo0 3.056933 1_566
Mg7 Mo1 3.016280 1_555
Mg7 Mo0 3.056933 1_556
Mg8 Mg9 2.739235 1_555
Mg8 Mg9 2.860183 1_545
Mg8 Mo1 2.937081 1_555
Mg8 Mo1 2.937081 1_455
Mg9 Mo1 2.937081 1_555
Mg9 Mo1 2.937081 1_455
Mg10 Mo1 2.842800 1_455
Mg10 Mo1 2.842800 1_555
Mg10 Mg8 2.944310 1_555
Mg10 Mg9 2.944310 1_555
Mg10 Mg6 2.973778 1_455
Mg10 Mg6 2.973778 1_555
Mg10 Mg7 2.973778 1_555
Mg10 Mg7 2.973778 1_455
Mg10 Mg3 3.128958 1_556
Mg10 Mg2 3.128958 1_556
Mg11 Mg8 2.851694 1_555
Mg11 Mg9 2.851694 1_545
Mg11 Mg7 3.033391 1_455
Mg11 Mg7 3.033391 1_555
Mg11 Mg6 3.033391 1_545
Mg11 Mg6 3.033391 1_445
Mg11 Mg2 3.227243 1_546
Mg11 Mg3 3.227243 1_556
B0 Mo0 2.803303 1_555
B0 Mo0 2.803303 1_565
B0 Mg5 2.844302 1_555
B0 Mg5 2.844302 1_655
B0 Mg3 2.918644 1_555
B0 Mg3 2.918644 1_655
B0 Mg2 2.918644 1_555
B0 Mg2 2.918644 1_655
B0 Mg7 2.926819 1_554
B0 Mg6 2.926819 1_554
B1 Mo1 2.803303 1_555
B1 Mo1 2.803303 1_545
B1 Mg11 2.844302 1_655
B1 Mg11 2.844302 1_555
B1 Mg9 2.918644 1_645
B1 Mg8 2.918644 1_655
B1 Mg9 2.918644 1_545
B1 Mg8 2.918644 1_555
B1 Mg1 2.926819 1_545
B1 Mg0 2.926819 1_555
