# generated using pymatgen
data_V2ZnO5
_symmetry_space_group_name_H-M   'P 1'
_cell_length_a   3.68563800
_cell_length_b   5.42819964
_cell_length_c   11.42157400
_cell_angle_alpha   90.00000000
_cell_angle_beta   90.00000000
_cell_angle_gamma   109.84027196
_symmetry_Int_Tables_number   1
_chemical_formula_structural   V2ZnO5
_chemical_formula_sum   'V4 Zn2 O10'
_cell_volume   214.94087823
_cell_formula_units_Z   2
loop_
 _symmetry_equiv_pos_site_id
 _symmetry_equiv_pos_as_xyz
  1  'x, y, z'
loop_
 _atom_site_type_symbol
 _atom_site_label
 _atom_site_symmetry_multiplicity
 _atom_site_fract_x
 _atom_site_fract_y
 _atom_site_fract_z
 _atom_site_occupancy
  V  V0  1  0.20249600  0.40502000  0.59770900  1
  V  V1  1  0.79750500  0.59498100  0.40229100  1
  V  V2  1  0.79750500  0.59498100  0.09770900  1
  V  V3  1  0.20249600  0.40502000  0.90229100  1
  Zn  Zn0  1  0.89787900  0.79580900  0.75000000  1
  Zn  Zn1  1  0.10212200  0.20419200  0.25000000  1
  O  O0  1  0.69629400  0.39256300  0.25000000  1
  O  O1  1  0.30370700  0.60743800  0.75000000  1
  O  O2  1  0.23482200  0.46958500  0.07436300  1
  O  O3  1  0.76518000  0.53041600  0.92563700  1
  O  O4  1  0.76518000  0.53041600  0.57436300  1
  O  O5  1  0.23482200  0.46958500  0.42563600  1
  O  O6  1  0.04286700  0.08566700  0.62882600  1
  O  O7  1  0.95713300  0.91433200  0.37117400  1
  O  O8  1  0.04286700  0.08566700  0.87117400  1
  O  O9  1  0.95713300  0.91433200  0.12882700  1
loop_
_geom_bond_atom_site_label_1
_geom_bond_atom_site_label_2
_geom_bond_distance
_geom_bond_site_symmetry_2
O0 V1 2.023299 1_555
O0 V2 2.023299 1_555
O0 Zn1 2.078683 1_655
O0 Zn1 2.078759 1_555
O1 V3 2.023299 1_555
O1 V0 2.023299 1_555
O1 Zn0 2.078683 1_455
O1 Zn0 2.078759 1_555
O2 V2 1.969012 1_455
O2 V2 1.969024 1_555
O2 V3 1.992791 1_554
O2 Zn1 2.420852 1_555
O3 V3 1.969008 1_655
O3 V3 1.969027 1_555
O3 V2 1.992791 1_556
O3 Zn0 2.420852 1_555
O4 V0 1.969008 1_655
O4 V0 1.969027 1_555
O4 V1 1.992791 1_555
O4 Zn0 2.420852 1_555
O5 V1 1.969010 1_455
O5 V1 1.969022 1_555
O5 V0 1.992802 1_555
O5 Zn1 2.420842 1_555
O6 V0 1.668897 1_555
O6 Zn0 2.026300 1_445
O7 V1 1.668887 1_555
O7 Zn1 2.026307 1_665
O8 V3 1.668897 1_555
O8 Zn0 2.026300 1_445
O9 V2 1.668890 1_555
O9 Zn1 2.026299 1_665
