# generated using pymatgen
data_Sr4Zn11
_symmetry_space_group_name_H-M   'P 1'
_cell_length_a   20.31326400
_cell_length_b   11.97318235
_cell_length_c   11.97318235
_cell_angle_alpha   43.98002649
_cell_angle_beta   31.97472869
_cell_angle_gamma   31.97472869
_symmetry_Int_Tables_number   1
_chemical_formula_structural   Sr4Zn11
_chemical_formula_sum   'Sr8 Zn22'
_cell_volume   816.59162661
_cell_formula_units_Z   2
loop_
 _symmetry_equiv_pos_site_id
 _symmetry_equiv_pos_as_xyz
  1  'x, y, z'
loop_
 _atom_site_type_symbol
 _atom_site_label
 _atom_site_symmetry_multiplicity
 _atom_site_fract_x
 _atom_site_fract_y
 _atom_site_fract_z
 _atom_site_occupancy
  Sr  Sr0  1  0.45748500  0.27967400  0.72032600  1
  Sr  Sr1  1  0.45748500  0.72032600  0.27967400  1
  Sr  Sr2  1  0.42781100  0.77967400  0.77967400  1
  Sr  Sr3  1  0.79251600  0.77967400  0.22032600  1
  Sr  Sr4  1  0.79251600  0.22032600  0.77967400  1
  Sr  Sr5  1  0.98715800  0.22032600  0.22032600  1
  Sr  Sr6  1  0.82218900  0.72032600  0.72032600  1
  Sr  Sr7  1  0.26284200  0.27967400  0.27967400  1
  Zn  Zn0  1  0.29148200  0.90937500  0.62585600  1
  Zn  Zn1  1  0.82671400  0.09062500  0.37414400  1
  Zn  Zn2  1  0.16733800  0.87414400  0.40937500  1
  Zn  Zn3  1  0.95851800  0.87414400  0.59062500  1
  Zn  Zn4  1  0.95851800  0.59062500  0.87414400  1
  Zn  Zn5  1  0.45085700  0.12585600  0.59062500  1
  Zn  Zn6  1  0.42328600  0.12585600  0.40937500  1
  Zn  Zn7  1  0.42328600  0.40937500  0.12585600  1
  Zn  Zn8  1  0.08266200  0.09062500  0.62585600  1
  Zn  Zn9  1  0.08266200  0.62585600  0.09062500  1
  Zn  Zn10  1  0.79914300  0.90937500  0.37414400  1
  Zn  Zn11  1  0.79914300  0.37414400  0.90937500  1
  Zn  Zn12  1  0.29148200  0.62585600  0.90937500  1
  Zn  Zn13  1  0.82671400  0.37414400  0.09062500  1
  Zn  Zn14  1  0.45085700  0.59062500  0.12585600  1
  Zn  Zn15  1  0.16733800  0.40937500  0.87414400  1
  Zn  Zn16  1  0.00000000  0.00000000  0.00000000  1
  Zn  Zn17  1  0.25000000  0.50000000  0.50000000  1
  Zn  Zn18  1  0.12500000  0.75000000  0.25000000  1
  Zn  Zn19  1  0.12500000  0.25000000  0.75000000  1
  Zn  Zn20  1  0.62500000  0.25000000  0.25000000  1
  Zn  Zn21  1  0.12500000  0.75000000  0.75000000  1
loop_
_geom_bond_atom_site_label_1
_geom_bond_atom_site_label_2
_geom_bond_distance
_geom_bond_site_symmetry_2
Sr0 Zn10 3.231620 1_545
Sr0 Zn9 3.231620 1_556
Sr0 Zn12 3.242653 1_555
Sr0 Zn1 3.242666 1_555
Sr0 Zn15 3.273071 1_555
Sr0 Zn5 3.273071 1_555
Sr0 Zn20 3.425685 1_555
Sr0 Zn21 3.425685 1_555
Sr1 Zn8 3.231620 1_565
Sr1 Zn11 3.231620 1_554
Sr1 Zn0 3.242653 1_555
Sr1 Zn13 3.242666 1_555
Sr1 Zn2 3.273071 1_555
Sr1 Zn14 3.273071 1_555
Sr1 Zn20 3.425685 1_555
Sr1 Zn21 3.425685 1_555
Sr2 Zn7 3.231622 1_556
Sr2 Zn6 3.231622 1_565
Sr2 Zn14 3.242653 1_556
Sr2 Zn5 3.242653 1_565
Sr2 Zn12 3.273071 1_555
Sr2 Zn0 3.273071 1_555
Sr2 Zn18 3.425685 1_556
Sr2 Zn19 3.425685 1_565
Sr3 Zn5 3.231618 1_565
Sr3 Zn15 3.231618 1_654
Sr3 Zn4 3.242666 1_554
Sr3 Zn6 3.242679 1_565
Sr3 Zn9 3.273053 1_655
Sr3 Zn10 3.273053 1_555
Sr3 Zn21 3.425675 1_654
Sr3 Zn20 3.425675 1_565
Sr4 Zn14 3.231618 1_556
Sr4 Zn2 3.231618 1_645
Sr4 Zn3 3.242666 1_545
Sr4 Zn7 3.242679 1_556
Sr4 Zn8 3.273053 1_655
Sr4 Zn11 3.273053 1_555
Sr4 Zn21 3.425675 1_645
Sr4 Zn20 3.425675 1_556
Sr5 Zn3 3.231618 1_545
Sr5 Zn4 3.231618 1_554
Sr5 Zn15 3.242666 1_654
Sr5 Zn2 3.242666 1_645
Sr5 Zn13 3.273034 1_555
Sr5 Zn1 3.273034 1_555
Sr5 Zn18 3.425675 1_645
Sr5 Zn19 3.425675 1_654
Sr6 Zn1 3.231622 1_565
Sr6 Zn13 3.231622 1_556
Sr6 Zn10 3.242653 1_555
Sr6 Zn11 3.242653 1_555
Sr6 Zn4 3.273071 1_555
Sr6 Zn3 3.273071 1_555
Sr6 Zn19 3.425685 1_655
Sr6 Zn18 3.425685 1_655
Sr7 Zn0 3.231618 1_545
Sr7 Zn12 3.231618 1_554
Sr7 Zn9 3.242666 1_555
Sr7 Zn8 3.242666 1_555
Sr7 Zn6 3.273034 1_555
Sr7 Zn7 3.273034 1_555
Sr7 Zn18 3.425675 1_555
Sr7 Zn19 3.425675 1_555
Zn0 Zn12 2.542200 1_555
Zn0 Zn19 2.660050 1_565
Zn0 Zn8 2.661781 1_565
Zn0 Zn16 2.720038 1_566
Zn1 Zn13 2.542200 1_555
Zn1 Zn18 2.660040 1_645
Zn1 Zn10 2.661799 1_545
Zn1 Zn16 2.720047 1_655
Zn2 Zn21 2.660050 1_555
Zn2 Zn3 2.661781 1_455
Zn3 Zn4 2.542200 1_555
Zn5 Zn6 2.661799 1_555
Zn6 Zn7 2.542200 1_555
Zn10 Zn9 2.542200 1_655
Zn10 Zn20 2.660050 1_565
Zn10 Zn16 2.720038 1_665
Zn11 Zn8 2.542200 1_655
Zn11 Zn20 2.660050 1_556
Zn11 Zn13 2.661799 1_556
Zn11 Zn16 2.720038 1_656
Zn12 Zn18 2.660050 1_556
Zn12 Zn9 2.661781 1_556
Zn12 Zn16 2.720038 1_566
Zn13 Zn19 2.660040 1_654
Zn13 Zn16 2.720047 1_655
Zn14 Zn2 2.542200 1_555
Zn14 Zn20 2.660050 1_555
Zn14 Zn7 2.661799 1_555
Zn14 Zn17 2.720038 1_555
Zn15 Zn5 2.542200 1_555
Zn15 Zn21 2.660050 1_555
Zn15 Zn4 2.661781 1_455
Zn15 Zn17 2.720038 1_555
Zn16 Zn9 2.720038 1_545
Zn16 Zn8 2.720038 1_554
Zn17 Zn5 2.720038 1_555
Zn17 Zn2 2.720038 1_555
Zn17 Zn4 2.720038 1_455
Zn17 Zn3 2.720038 1_455
Zn17 Zn6 2.720047 1_555
Zn17 Zn7 2.720047 1_555
Zn18 Zn7 2.660040 1_555
Zn18 Zn3 2.660050 1_455
Zn19 Zn6 2.660040 1_555
Zn19 Zn4 2.660050 1_455
Zn20 Zn5 2.660050 1_555
Zn21 Zn8 2.660050 1_565
Zn21 Zn9 2.660050 1_556
