# generated using pymatgen
data_Tl2Rh3S2
_symmetry_space_group_name_H-M   'P 1'
_cell_length_a   5.73485092
_cell_length_b   5.73451804
_cell_length_c   5.73485203
_cell_angle_alpha   59.55316551
_cell_angle_beta   59.54803761
_cell_angle_gamma   59.55316287
_symmetry_Int_Tables_number   1
_chemical_formula_structural   Tl2Rh3S2
_chemical_formula_sum   'Tl2 Rh3 S2'
_cell_volume   132.00021399
_cell_formula_units_Z   1
loop_
 _symmetry_equiv_pos_site_id
 _symmetry_equiv_pos_as_xyz
  1  'x, y, z'
loop_
 _atom_site_type_symbol
 _atom_site_label
 _atom_site_symmetry_multiplicity
 _atom_site_fract_x
 _atom_site_fract_y
 _atom_site_fract_z
 _atom_site_occupancy
  Tl  Tl0  1  0.00000000  0.00000000  -0.00000000  1
  Tl  Tl1  1  0.50000000  0.50000000  0.50000000  1
  Rh  Rh0  1  0.00000000  0.00000000  0.50000000  1
  Rh  Rh1  1  0.50000000  0.00000000  -0.00000000  1
  Rh  Rh2  1  0.00000000  0.50000000  -0.00000000  1
  S  S0  1  0.71971700  0.71972758  0.71971700  1
  S  S1  1  0.28028300  0.28027242  0.28028300  1
loop_
_geom_bond_atom_site_label_1
_geom_bond_atom_site_label_2
_geom_bond_distance
_geom_bond_site_symmetry_2
Rh0 S1 2.295073 1_555
Rh0 S0 2.295073 1_445
Rh0 Tl1 2.847955 1_545
Rh0 Tl1 2.847955 1_455
Rh0 Tl0 2.867426 1_555
Rh0 Tl0 2.867426 1_556
Rh1 S1 2.295073 1_555
Rh1 S0 2.295073 1_544
Rh1 Tl1 2.847955 1_554
Rh1 Tl1 2.847955 1_545
Rh1 Tl0 2.867425 1_655
Rh1 Tl0 2.867425 1_555
Rh2 S1 2.295349 1_555
Rh2 S0 2.295349 1_454
Rh2 Tl1 2.847815 1_455
Rh2 Tl1 2.847815 1_554
Rh2 Tl0 2.867259 1_555
Rh2 Tl0 2.867259 1_565
S0 Tl1 3.096877 1_555
S1 Tl1 3.096877 1_555
