# generated using pymatgen
data_Ca(Al4Ni)2
_symmetry_space_group_name_H-M   'P 1'
_cell_length_a   3.94190764
_cell_length_b   14.41418405
_cell_length_c   12.45615523
_cell_angle_alpha   90.00000000
_cell_angle_beta   90.00000000
_cell_angle_gamma   90.00000000
_symmetry_Int_Tables_number   1
_chemical_formula_structural   Ca(Al4Ni)2
_chemical_formula_sum   'Ca4 Al32 Ni8'
_cell_volume   707.75104514
_cell_formula_units_Z   4
loop_
 _symmetry_equiv_pos_site_id
 _symmetry_equiv_pos_as_xyz
  1  'x, y, z'
loop_
 _atom_site_type_symbol
 _atom_site_label
 _atom_site_symmetry_multiplicity
 _atom_site_fract_x
 _atom_site_fract_y
 _atom_site_fract_z
 _atom_site_occupancy
  Ca  Ca0  1  0.00000000  0.81800396  0.15847620  1
  Ca  Ca1  1  -0.00000000  0.18199604  0.84152380  1
  Ca  Ca2  1  0.00000000  0.68199604  0.65847620  1
  Ca  Ca3  1  -0.00000000  0.31800396  0.34152380  1
  Al  Al0  1  -0.00000000  0.50000000  0.50000000  1
  Al  Al1  1  -0.00000000  0.00000000  -0.00000000  1
  Al  Al2  1  0.50000000  0.00000000  0.50000000  1
  Al  Al3  1  0.50000000  0.50000000  -0.00000000  1
  Al  Al4  1  -0.00000000  0.54499641  0.15890095  1
  Al  Al5  1  -0.00000000  0.45500359  0.84109905  1
  Al  Al6  1  0.00000000  0.95500359  0.65890095  1
  Al  Al7  1  0.00000000  0.04499641  0.34109905  1
  Al  Al8  1  -0.00000000  0.75368595  0.40109413  1
  Al  Al9  1  0.00000000  0.24631405  0.59890587  1
  Al  Al10  1  -0.00000000  0.74631405  0.90109413  1
  Al  Al11  1  -0.00000000  0.25368595  0.09890587  1
  Al  Al12  1  0.50000000  0.67266754  0.26161195  1
  Al  Al13  1  0.50000000  0.32733246  0.73838805  1
  Al  Al14  1  0.50000000  0.82733246  0.76161195  1
  Al  Al15  1  0.50000000  0.17266754  0.23838805  1
  Al  Al16  1  0.50000000  0.67960583  0.04659240  1
  Al  Al17  1  0.50000000  0.32039417  0.95340760  1
  Al  Al18  1  0.50000000  0.82039417  0.54659240  1
  Al  Al19  1  0.50000000  0.17960583  0.45340760  1
  Al  Al20  1  0.50000000  0.88101667  0.33824603  1
  Al  Al21  1  0.50000000  0.11898333  0.66175397  1
  Al  Al22  1  0.50000000  0.61898333  0.83824603  1
  Al  Al23  1  0.50000000  0.38101667  0.16175397  1
  Al  Al24  1  0.50000000  0.98981539  0.16678837  1
  Al  Al25  1  0.50000000  0.01018461  0.83321163  1
  Al  Al26  1  0.50000000  0.51018461  0.66678837  1
  Al  Al27  1  0.50000000  0.48981539  0.33321163  1
  Al  Al28  1  0.50000000  0.63251734  0.47442038  1
  Al  Al29  1  0.50000000  0.36748266  0.52557962  1
  Al  Al30  1  0.50000000  0.86748266  0.97442038  1
  Al  Al31  1  0.50000000  0.13251734  0.02557962  1
  Ni  Ni0  1  0.00000000  0.90599566  0.46388484  1
  Ni  Ni1  1  0.00000000  0.09400434  0.53611516  1
  Ni  Ni2  1  -0.00000000  0.59400434  0.96388484  1
  Ni  Ni3  1  -0.00000000  0.40599566  0.03611516  1
  Ni  Ni4  1  0.00000000  0.59622223  0.34634094  1
  Ni  Ni5  1  -0.00000000  0.40377777  0.65365906  1
  Ni  Ni6  1  0.00000000  0.90377777  0.84634094  1
  Ni  Ni7  1  -0.00000000  0.09622223  0.15365906  1
loop_
_geom_bond_atom_site_label_1
_geom_bond_atom_site_label_2
_geom_bond_distance
_geom_bond_site_symmetry_2
Al0 Ni5 2.363699 1_555
Al0 Ni4 2.363699 1_555
Al0 Al29 2.763109 1_555
Al0 Al29 2.763109 1_455
Al0 Al28 2.763109 1_555
Al0 Al28 2.763109 1_455
Al0 Ca3 3.283066 1_555
Al0 Ca2 3.283066 1_555
Al1 Ni6 2.363699 1_544
Al1 Ni7 2.363699 1_555
Al1 Al30 2.763109 1_444
Al1 Al30 2.763109 1_544
Al1 Al31 2.763109 1_455
Al1 Al31 2.763109 1_555
Al1 Ca0 3.283066 1_545
Al1 Ca1 3.283066 1_554
Al2 Ni0 2.433730 1_645
Al2 Ni0 2.433730 1_545
Al2 Ni1 2.433730 1_555
Al2 Ni1 2.433730 1_655
Al2 Al20 2.645929 1_545
Al2 Al21 2.645929 1_555
Al3 Ni3 2.433730 1_555
Al3 Ni3 2.433730 1_655
Al3 Ni2 2.433730 1_654
Al3 Ni2 2.433730 1_554
Al4 Ni4 2.448756 1_555
Al4 Ni3 2.520620 1_555
Al4 Ni2 2.529780 1_554
Al5 Ni5 2.448756 1_555
Al5 Ni2 2.520620 1_555
Al5 Ni3 2.529780 1_556
Al6 Ni6 2.448756 1_555
Al6 Ni1 2.520620 1_565
Al6 Ni0 2.529780 1_555
Al7 Ni7 2.448756 1_555
Al7 Ni0 2.520620 1_545
Al7 Ni1 2.529780 1_555
Al8 Ni0 2.330579 1_555
Al8 Ni4 2.369964 1_555
Al8 Ca0 3.161093 1_555
Al8 Ca2 3.368411 1_555
Al9 Ni1 2.330579 1_555
Al9 Ni5 2.369964 1_555
Al9 Ca1 3.161093 1_555
Al9 Ca3 3.368411 1_555
Al10 Ni2 2.330579 1_555
Al10 Ni6 2.369964 1_555
Al10 Al30 2.787349 1_455
Al10 Al30 2.787349 1_555
Al10 Al22 2.804654 1_455
Al10 Al22 2.804654 1_555
Al10 Al16 2.844967 1_556
Al10 Al16 2.844967 1_456
Al10 Ca2 3.161093 1_555
Al10 Ca0 3.368411 1_556
Al11 Ni3 2.330579 1_555
Al11 Ni7 2.369964 1_555
Al11 Al31 2.787349 1_455
Al11 Al31 2.787349 1_555
Al11 Al23 2.804654 1_555
Al11 Al23 2.804654 1_455
Al11 Al17 2.844967 1_554
Al11 Al17 2.844967 1_454
Al11 Ca3 3.161093 1_555
Al11 Ca1 3.368411 1_554
Al12 Ni4 2.492529 1_555
Al12 Ni4 2.492529 1_655
Al12 Al16 2.680183 1_555
Al12 Al28 2.713216 1_555
Al12 Ca0 3.150187 1_655
Al12 Ca0 3.150187 1_555
Al13 Ni5 2.492529 1_655
Al13 Ni5 2.492529 1_555
Al13 Al17 2.680183 1_555
Al13 Al29 2.713216 1_555
Al13 Ca1 3.150187 1_655
Al13 Ca1 3.150187 1_555
Al14 Ni6 2.492529 1_555
Al14 Ni6 2.492529 1_655
Al14 Al18 2.680183 1_555
Al14 Al30 2.713216 1_555
Al14 Ca2 3.150187 1_555
Al14 Ca2 3.150187 1_655
Al15 Ni7 2.492529 1_655
Al15 Ni7 2.492529 1_555
Al15 Al19 2.680183 1_555
Al15 Al31 2.713216 1_555
Al15 Ca3 3.150187 1_555
Al15 Ca3 3.150187 1_655
Al16 Ni2 2.543316 1_554
Al16 Ni2 2.543316 1_654
Al16 Al3 2.653126 1_555
Al16 Al22 2.738358 1_554
Al16 Al30 2.853407 1_554
Al16 Ca0 3.131534 1_655
Al16 Ca0 3.131534 1_555
Al17 Ni3 2.543316 1_556
Al17 Ni3 2.543316 1_656
Al17 Al3 2.653126 1_556
Al17 Al23 2.738358 1_556
Al17 Al31 2.853407 1_556
Al17 Ca1 3.131534 1_655
Al17 Ca1 3.131534 1_555
Al18 Ni0 2.543316 1_555
Al18 Ni0 2.543316 1_655
Al18 Al2 2.653126 1_565
Al18 Al20 2.738358 1_555
Al18 Al8 2.844967 1_655
Al18 Al8 2.844967 1_555
Al18 Al28 2.853407 1_555
Al18 Ca2 3.131534 1_655
Al18 Ca2 3.131534 1_555
Al19 Ni1 2.543316 1_555
Al19 Ni1 2.543316 1_655
Al19 Al2 2.653126 1_555
Al19 Al21 2.738358 1_555
Al19 Al9 2.844967 1_655
Al19 Al9 2.844967 1_555
Al19 Al29 2.853407 1_555
Al19 Ca3 3.131534 1_555
Al19 Ca3 3.131534 1_655
Al20 Ni0 2.542331 1_655
Al20 Ni0 2.542331 1_555
Al20 Al24 2.649645 1_555
Al20 Al8 2.804654 1_655
Al20 Al8 2.804654 1_555
Al20 Ca0 3.118305 1_655
Al20 Ca0 3.118305 1_555
Al21 Ni1 2.542331 1_655
Al21 Ni1 2.542331 1_555
Al21 Al25 2.649645 1_555
Al21 Al9 2.804654 1_655
Al21 Al9 2.804654 1_555
Al21 Ca1 3.118305 1_655
Al21 Ca1 3.118305 1_555
Al22 Ni2 2.542331 1_555
Al22 Ni2 2.542331 1_655
Al22 Al3 2.645929 1_556
Al22 Al26 2.649645 1_555
Al22 Ca2 3.118305 1_555
Al22 Ca2 3.118305 1_655
Al23 Ni3 2.542331 1_555
Al23 Ni3 2.542331 1_655
Al23 Al3 2.645929 1_555
Al23 Al27 2.649645 1_555
Al23 Ca3 3.118305 1_555
Al23 Ca3 3.118305 1_655
Al24 Ni7 2.502768 1_665
Al24 Ni7 2.502768 1_565
Al24 Al31 2.706430 1_565
Al24 Al30 2.975051 1_554
Al24 Ca0 3.166787 1_555
Al24 Ca0 3.166787 1_655
Al25 Ni6 2.502768 1_545
Al25 Ni6 2.502768 1_645
Al25 Al30 2.706430 1_545
Al25 Al31 2.975051 1_556
Al25 Ca1 3.166787 1_655
Al25 Ca1 3.166787 1_555
Al26 Ni5 2.502768 1_555
Al26 Ni5 2.502768 1_655
Al26 Al29 2.706430 1_555
Al26 Al28 2.975051 1_555
Al26 Ca2 3.166787 1_655
Al26 Ca2 3.166787 1_555
Al27 Ni4 2.502768 1_555
Al27 Ni4 2.502768 1_655
Al27 Al28 2.706430 1_555
Al27 Al29 2.975051 1_555
Al27 Ca3 3.166787 1_555
Al27 Ca3 3.166787 1_655
Al28 Ni4 2.589129 1_655
Al28 Ni4 2.589129 1_555
Al28 Al8 2.787349 1_655
Al28 Al8 2.787349 1_555
Al28 Ca2 3.106356 1_555
Al28 Ca2 3.106356 1_655
Al29 Ni5 2.589129 1_655
Al29 Ni5 2.589129 1_555
Al29 Al9 2.787349 1_655
Al29 Al9 2.787349 1_555
Al29 Ca3 3.106356 1_655
Al29 Ca3 3.106356 1_555
Al30 Ni6 2.589129 1_655
Al30 Ni6 2.589129 1_555
Al30 Ca0 3.106356 1_556
Al30 Ca0 3.106356 1_656
Al31 Ni7 2.589129 1_655
Al31 Ni7 2.589129 1_555
Al31 Ca1 3.106356 1_554
Al31 Ca1 3.106356 1_654
