# generated using pymatgen
data_LiVO3
_symmetry_space_group_name_H-M   'P 1'
_cell_length_a   5.10629112
_cell_length_b   5.10629112
_cell_length_c   4.97861532
_cell_angle_alpha   83.46425112
_cell_angle_beta   83.46425112
_cell_angle_gamma   123.63225433
_symmetry_Int_Tables_number   1
_chemical_formula_structural   LiVO3
_chemical_formula_sum   'Li2 V2 O6'
_cell_volume   104.89827016
_cell_formula_units_Z   2
loop_
 _symmetry_equiv_pos_site_id
 _symmetry_equiv_pos_as_xyz
  1  'x, y, z'
loop_
 _atom_site_type_symbol
 _atom_site_label
 _atom_site_symmetry_multiplicity
 _atom_site_fract_x
 _atom_site_fract_y
 _atom_site_fract_z
 _atom_site_occupancy
  Li  Li0  1  0.15002200  0.84997800  0.00000000  1
  Li  Li1  1  0.84997800  0.15002200  0.00000000  1
  V  V0  1  0.34152600  0.65847400  0.50000000  1
  V  V1  1  0.65847400  0.34152600  0.50000000  1
  O  O0  1  0.69969800  0.69969800  0.28813400  1
  O  O1  1  0.30030200  0.30030200  0.71186600  1
  O  O2  1  0.45529100  0.05578800  0.27316100  1
  O  O3  1  0.94421200  0.54470900  0.72683900  1
  O  O4  1  0.54470900  0.94421200  0.72683900  1
  O  O5  1  0.05578800  0.45529100  0.27316100  1
loop_
_geom_bond_atom_site_label_1
_geom_bond_atom_site_label_2
_geom_bond_distance
_geom_bond_site_symmetry_2
Li0 O5 2.072599 1_555
Li0 O4 2.072599 1_554
Li0 O2 2.092148 1_565
Li0 O3 2.092148 1_454
Li0 O1 2.231177 1_564
Li0 O0 2.231177 1_455
Li1 O2 2.072599 1_555
Li1 O3 2.072599 1_554
Li1 O5 2.092148 1_655
Li1 O4 2.092148 1_544
Li1 O1 2.231177 1_654
Li1 O0 2.231177 1_545
O0 V1 1.893601 1_555
O0 V0 1.893601 1_555
O1 V0 1.893601 1_555
O1 V1 1.893601 1_555
O2 V1 1.856258 1_555
O2 V0 1.937127 1_545
O3 V1 1.856258 1_555
O3 V0 1.937127 1_655
O4 V0 1.856258 1_555
O4 V1 1.937127 1_565
O5 V0 1.856258 1_555
O5 V1 1.937127 1_455
