# generated using pymatgen
data_VO2
_symmetry_space_group_name_H-M   'P 1'
_cell_length_a   5.01533861
_cell_length_b   9.14980050
_cell_length_c   5.02192408
_cell_angle_alpha   92.40569204
_cell_angle_beta   111.68548473
_cell_angle_gamma   91.20200040
_symmetry_Int_Tables_number   1
_chemical_formula_structural   VO2
_chemical_formula_sum   'V6 O12'
_cell_volume   213.78877097
_cell_formula_units_Z   6
loop_
 _symmetry_equiv_pos_site_id
 _symmetry_equiv_pos_as_xyz
  1  'x, y, z'
loop_
 _atom_site_type_symbol
 _atom_site_label
 _atom_site_symmetry_multiplicity
 _atom_site_fract_x
 _atom_site_fract_y
 _atom_site_fract_z
 _atom_site_occupancy
  V  V0  1  0.42980000  0.23979200  0.06473200  1
  V  V1  1  0.92598200  0.76177000  0.56760600  1
  V  V2  1  0.07479200  0.26026200  0.44667400  1
  V  V3  1  0.55310400  0.73789300  0.92850500  1
  V  V4  1  0.49886300  0.49983100  0.50016800  1
  V  V5  1  0.99668900  0.99944600  0.00725600  1
  O  O0  1  0.29258200  0.11957200  0.30930300  1
  O  O1  1  0.79709100  0.61051700  0.78645400  1
  O  O2  1  0.21445800  0.38910200  0.20037300  1
  O  O3  1  0.68281500  0.88011700  0.71488100  1
  O  O4  1  0.10364900  0.14255500  0.77502500  1
  O  O5  1  0.58837800  0.64270300  0.24859600  1
  O  O6  1  0.74678400  0.13727900  0.08885200  1
  O  O7  1  0.25996500  0.64148600  0.60780600  1
  O  O8  1  0.39613400  0.35894500  0.73691900  1
  O  O9  1  0.90548500  0.85948000  0.25968200  1
  O  O10  1  0.75425700  0.35765800  0.40851600  1
  O  O11  1  0.22167600  0.86159200  0.90614900  1
loop_
_geom_bond_atom_site_label_1
_geom_bond_atom_site_label_2
_geom_bond_distance
_geom_bond_site_symmetry_2
O0 V5 1.959402 1_445
O0 V2 1.966580 1_555
O0 V0 1.974443 1_555
O1 V4 1.885432 1_555
O1 V3 1.999937 1_555
O1 V1 2.038683 1_555
O2 V4 1.884674 1_555
O2 V0 2.006061 1_555
O2 V2 2.034300 1_555
O3 V1 1.965117 1_555
O3 V3 1.965961 1_555
O3 V5 1.977673 1_556
O4 V0 1.911931 1_556
O4 V2 1.969562 1_555
O4 V5 1.980797 1_446
O5 V3 1.813199 1_554
O5 V4 2.009917 1_555
O5 V1 2.095656 1_555
O6 V0 1.830754 1_555
O6 V5 1.931784 1_545
O6 V2 2.183915 1_655
O7 V3 1.899960 1_555
O7 V4 1.972981 1_555
O7 V1 1.975819 1_455
O8 V2 1.905163 1_555
O8 V0 1.969828 1_556
O8 V4 1.973391 1_555
O9 V1 1.789847 1_555
O9 V5 1.999133 1_555
O9 V3 2.171881 1_554
O10 V2 1.806102 1_655
O10 V4 2.000020 1_555
O10 V0 2.117911 1_555
O11 V5 1.884516 1_456
O11 V1 1.968118 1_455
O11 V3 2.002073 1_555
