# generated using pymatgen
data_GaAs
_symmetry_space_group_name_H-M   'P 1'
_cell_length_a   13.76635865
_cell_length_b   12.70999271
_cell_length_c   13.52826197
_cell_angle_alpha   92.14585441
_cell_angle_beta   92.31059652
_cell_angle_gamma   96.82493757
_symmetry_Int_Tables_number   1
_chemical_formula_structural   GaAs
_chemical_formula_sum   'Ga50 As50'
_cell_volume   2346.23138835
_cell_formula_units_Z   50
loop_
 _symmetry_equiv_pos_site_id
 _symmetry_equiv_pos_as_xyz
  1  'x, y, z'
loop_
 _atom_site_type_symbol
 _atom_site_label
 _atom_site_symmetry_multiplicity
 _atom_site_fract_x
 _atom_site_fract_y
 _atom_site_fract_z
 _atom_site_occupancy
  Ga  Ga0  1  0.12024896  0.42306587  0.93960927  1
  Ga  Ga1  1  0.88441342  0.62108789  0.62941520  1
  Ga  Ga2  1  0.95724414  0.24232381  0.62770773  1
  Ga  Ga3  1  0.36443114  0.16666979  0.79515588  1
  Ga  Ga4  1  0.99680630  0.31686387  0.80815286  1
  Ga  Ga5  1  0.88256342  0.63631738  0.92454824  1
  Ga  Ga6  1  0.82081119  0.34468860  0.04686512  1
  Ga  Ga7  1  0.72919514  0.58909267  0.01297250  1
  Ga  Ga8  1  0.48148804  0.71130338  0.31597586  1
  Ga  Ga9  1  0.11423983  0.37044806  0.14541877  1
  Ga  Ga10  1  0.99529148  0.59263524  0.33541435  1
  Ga  Ga11  1  0.54279508  0.82976657  0.96523269  1
  Ga  Ga12  1  0.79137412  0.15016129  0.41067787  1
  Ga  Ga13  1  0.93622473  0.82108724  0.58265225  1
  Ga  Ga14  1  0.59756359  0.79258058  0.78619922  1
  Ga  Ga15  1  0.84096083  0.22725280  0.19385766  1
  Ga  Ga16  1  0.71220367  0.63967194  0.48425300  1
  Ga  Ga17  1  0.84606105  0.68782043  0.35414523  1
  Ga  Ga18  1  0.76894970  0.99078019  0.68622287  1
  Ga  Ga19  1  0.54312494  0.21043185  0.32453334  1
  Ga  Ga20  1  0.35672338  0.44374355  0.81646067  1
  Ga  Ga21  1  0.36722817  0.22349004  0.39354200  1
  Ga  Ga22  1  0.08277058  0.83190736  0.47069268  1
  Ga  Ga23  1  0.54464909  0.74300344  0.13633214  1
  Ga  Ga24  1  0.08633522  0.70655613  0.74747276  1
  Ga  Ga25  1  0.51689078  0.48033063  0.37203996  1
  Ga  Ga26  1  0.35033834  0.92815313  0.52528283  1
  Ga  Ga27  1  0.67419834  0.98643607  0.05309964  1
  Ga  Ga28  1  0.17635318  0.67877743  0.03095987  1
  Ga  Ga29  1  0.97239818  0.10123653  0.20192603  1
  Ga  Ga30  1  0.50886503  0.01001283  0.34167027  1
  Ga  Ga31  1  0.54320265  0.33715841  0.56818003  1
  Ga  Ga32  1  0.75200388  0.74019110  0.70867369  1
  Ga  Ga33  1  0.28565160  0.58267795  0.30316544  1
  Ga  Ga34  1  0.79205587  0.38722299  0.56228194  1
  Ga  Ga35  1  0.39248090  0.66785925  0.93962786  1
  Ga  Ga36  1  0.60060612  0.56446091  0.22977201  1
  Ga  Ga37  1  0.68736121  0.52547636  0.65806271  1
  Ga  Ga38  1  0.31255976  0.41599424  0.10692934  1
  Ga  Ga39  1  0.76487603  0.17910864  0.82543009  1
  Ga  Ga40  1  0.35573405  0.44809290  0.55415470  1
  Ga  Ga41  1  0.64365877  0.43938389  0.82007699  1
  Ga  Ga42  1  0.23280854  0.69781997  0.53651299  1
  Ga  Ga43  1  0.25808313  0.26330112  0.97898424  1
  Ga  Ga44  1  0.43873197  0.73336845  0.55999689  1
  Ga  Ga45  1  0.94132716  0.34069760  0.44875834  1
  Ga  Ga46  1  0.54890808  0.08982010  0.94827959  1
  Ga  Ga47  1  0.82610530  0.00754286  0.93889152  1
  Ga  Ga48  1  0.31297327  0.78610377  0.36902806  1
  Ga  Ga49  1  0.12976232  0.86088726  0.02560111  1
  As  As0  1  0.36514099  0.11252732  0.98487382  1
  As  As1  1  0.98035418  0.03006850  0.63847984  1
  As  As2  1  0.32859404  0.86241792  0.79931737  1
  As  As3  1  0.28145331  0.03662837  0.37341428  1
  As  As4  1  0.19533800  0.85024106  0.65557086  1
  As  As5  1  0.54462651  0.25974148  0.83567203  1
  As  As6  1  0.81583793  0.38298120  0.30572150  1
  As  As7  1  0.12867414  0.74594204  0.31159935  1
  As  As8  1  0.71445259  0.84608505  0.53452994  1
  As  As9  1  0.74923264  0.68318596  0.18394129  1
  As  As10  1  0.21749288  0.58661984  0.86655266  1
  As  As11  1  0.23075395  0.02845111  0.08937383  1
  As  As12  1  0.31767446  0.62056654  0.12011788  1
  As  As13  1  0.35295319  0.38857967  0.29102647  1
  As  As14  1  0.41876849  0.00218115  0.70159326  1
  As  As15  1  0.54611187  0.86086619  0.45248610  1
  As  As16  1  0.95698791  0.54724928  0.78390128  1
  As  As17  1  0.58750679  0.98979327  0.77912748  1
  As  As18  1  0.20296459  0.44410108  0.43151566  1
  As  As19  1  0.99968978  0.63052491  0.07135036  1
  As  As20  1  0.76366080  0.18142549  0.61844683  1
  As  As21  1  0.01334774  0.55036134  0.51659808  1
  As  As22  1  0.25420903  0.55538957  0.66841889  1
  As  As23  1  0.72830509  0.87696282  0.20530883  1
  As  As24  1  0.64805447  0.35942576  0.41244476  1
  As  As25  1  0.12638219  0.02987324  0.52177614  1
  As  As26  1  0.01449176  0.80671077  0.16699369  1
  As  As27  1  0.09548926  0.15860710  0.06133360  1
  As  As28  1  0.42157740  0.71535705  0.74607271  1
  As  As29  1  0.59036436  0.18560035  0.67038458  1
  As  As30  1  0.66872591  0.39918612  0.13925264  1
  As  As31  1  0.85461860  0.82454966  0.86369980  1
  As  As32  1  0.08364692  0.30225354  0.33482193  1
  As  As33  1  0.52697293  0.56522855  0.54905726  1
  As  As34  1  0.08989057  0.03563845  0.79456891  1
  As  As35  1  0.56342076  0.22077533  0.13978872  1
  As  As36  1  0.84950166  0.88068189  0.41712051  1
  As  As37  1  0.50635092  0.46906519  0.07564952  1
  As  As38  1  0.95965443  0.47198329  0.17473618  1
  As  As39  1  0.03499443  0.85524410  0.86024318  1
  As  As40  1  0.10466832  0.10668011  0.34964698  1
  As  As41  1  0.55970699  0.57152916  0.92931268  1
  As  As42  1  0.36817143  0.25783643  0.57751569  1
  As  As43  1  0.21697987  0.27289106  0.79457869  1
  As  As44  1  0.88505247  0.93005223  0.11583683  1
  As  As45  1  0.67933905  0.10365457  0.21713389  1
  As  As46  1  0.11283129  0.42419696  0.59939516  1
  As  As47  1  0.81972661  0.38327614  0.86829239  1
  As  As48  1  0.98197803  0.13152618  0.90708396  1
  As  As49  1  0.35376278  0.93066927  0.23863043  1
loop_
_geom_bond_atom_site_label_1
_geom_bond_atom_site_label_2
_geom_bond_distance
_geom_bond_site_symmetry_2
Ga0 Ga4 2.627516 1_455
Ga0 Ga9 2.889807 1_556
Ga1 Ga13 2.663934 1_555
Ga1 Ga32 2.730517 1_555
Ga1 Ga37 2.884823 1_555
Ga2 Ga4 2.598110 1_555
Ga2 Ga45 2.778667 1_555
Ga5 Ga7 2.491011 1_556
Ga10 Ga17 2.521497 1_555
Ga11 Ga23 2.601450 1_556
Ga11 Ga14 2.608486 1_555
Ga11 Ga27 2.728305 1_556
Ga11 Ga35 2.741052 1_555
Ga12 Ga45 3.004018 1_555
Ga13 Ga22 2.564944 1_655
Ga14 Ga32 2.554901 1_555
Ga15 Ga6 2.556437 1_555
Ga15 Ga29 2.556792 1_555
Ga16 Ga17 2.634842 1_555
Ga16 Ga37 2.820434 1_555
Ga19 Ga30 2.555885 1_555
Ga19 Ga21 2.651178 1_555
Ga22 Ga42 2.960660 1_555
Ga23 Ga8 2.642917 1_555
Ga23 Ga36 2.809390 1_555
Ga25 Ga36 2.493162 1_555
Ga26 Ga48 2.720002 1_555
Ga26 Ga44 2.930433 1_555
Ga27 Ga47 2.643951 1_564
Ga27 Ga46 2.682038 1_564
Ga28 Ga49 2.477040 1_555
Ga31 Ga37 3.099097 1_555
Ga32 Ga37 2.818157 1_555
Ga34 Ga45 2.721445 1_555
Ga34 Ga37 2.725060 1_555
Ga36 Ga8 2.872445 1_555
Ga37 Ga41 2.548063 1_555
Ga38 Ga43 2.573447 1_554
Ga38 Ga9 2.796693 1_555
Ga39 Ga47 2.899088 1_555
As0 As11 2.533221 1_556
As0 Ga43 2.554209 1_555
As0 Ga46 2.644257 1_555
As0 Ga3 2.681918 1_555
As1 As34 2.538587 1_655
As1 As25 2.605882 1_655
As1 Ga13 2.724676 1_545
As1 Ga2 2.762258 1_555
As1 Ga18 2.994412 1_545
As2 As28 2.488617 1_555
As2 As4 2.606362 1_555
As3 Ga21 2.523536 1_555
As3 As49 2.531885 1_545
As3 As40 2.700423 1_555
As3 Ga26 2.717893 1_545
As4 Ga42 2.585366 1_555
As4 Ga24 2.608011 1_555
As4 Ga22 2.875606 1_555
As4 Ga26 2.927814 1_555
As5 Ga41 2.536892 1_555
As5 Ga3 2.645316 1_555
As5 Ga46 2.694044 1_555
As6 Ga15 2.511574 1_555
As6 Ga45 2.654535 1_555
As7 Ga22 2.514561 1_555
As7 Ga10 2.552747 1_455
As7 Ga48 2.608588 1_555
As8 Ga16 2.681743 1_555
As8 Ga18 2.724267 1_555
As8 Ga32 2.816631 1_555
As9 Ga36 2.507255 1_555
As9 Ga7 2.553212 1_555
As9 Ga17 2.608790 1_555
As9 Ga23 3.053541 1_555
As10 Ga0 2.586371 1_555
As10 Ga28 2.589150 1_556
As10 Ga35 2.643264 1_555
As10 As22 2.770354 1_555
As10 Ga20 2.875843 1_555
As10 Ga24 2.963527 1_555
As11 Ga49 2.504982 1_545
As11 As27 2.658974 1_555
As11 As49 2.983559 1_545
As12 Ga28 2.450879 1_555
As12 Ga33 2.585585 1_555
As12 Ga38 2.591932 1_555
As12 Ga35 2.747607 1_554
As13 Ga38 2.575394 1_555
As13 Ga21 2.580456 1_555
As13 Ga25 2.594931 1_555
As13 Ga33 2.737985 1_555
As14 As2 2.495685 1_545
As14 As17 2.534510 1_545
As14 Ga3 2.604289 1_555
As14 Ga26 2.627140 1_545
As15 Ga30 2.546705 1_565
As15 As8 2.559181 1_555
As15 Ga44 2.589802 1_555
As15 Ga8 2.649188 1_555
As15 Ga26 3.108618 1_555
As16 Ga5 2.494616 1_555
As16 Ga1 2.539311 1_555
As16 Ga24 2.608044 1_655
As16 Ga4 3.069426 1_555
As17 Ga14 2.531914 1_555
As17 Ga46 2.678780 1_565
As17 Ga18 2.840020 1_555
As17 As29 2.935118 1_565
As18 As32 2.570183 1_555
As18 Ga40 2.620133 1_555
As18 As46 2.637655 1_555
As18 Ga33 2.706429 1_555
As19 As38 2.515881 1_555
As19 Ga5 2.516015 1_554
As19 Ga28 2.523316 1_655
As19 As26 2.526566 1_655
As20 As29 2.519987 1_555
As20 Ga18 2.630653 1_545
As20 Ga2 2.681839 1_555
As20 Ga34 2.738922 1_555
As20 Ga39 2.800778 1_555
As20 Ga12 2.871000 1_555
As21 As46 2.496871 1_555
As21 Ga10 2.537640 1_455
As21 Ga1 2.604383 1_455
As21 Ga45 2.835859 1_455
As22 As46 2.530968 1_555
As22 Ga40 2.583018 1_555
As22 Ga42 2.621929 1_555
As22 Ga20 2.911551 1_555
As22 As28 3.012903 1_555
As23 As9 2.520811 1_555
As23 As44 2.549973 1_555
As23 Ga27 2.658574 1_555
As23 Ga23 2.971451 1_555
As23 As45 3.036012 1_565
As24 Ga19 2.475843 1_555
As24 Ga25 2.561910 1_555
As24 Ga31 2.606736 1_555
As24 Ga34 2.760327 1_555
As24 As6 2.765153 1_555
As25 Ga22 2.578043 1_545
As25 As40 2.578416 1_555
As26 Ga49 2.595136 1_555
As26 As44 2.599513 1_455
As26 As7 2.654820 1_555
As27 As48 2.543658 1_454
As27 Ga29 2.662827 1_455
As27 Ga43 2.761528 1_554
As27 Ga9 2.862152 1_555
As28 Ga14 2.533053 1_555
As28 Ga44 2.554041 1_555
As28 Ga35 2.743488 1_555
As29 As5 2.526088 1_555
As29 Ga31 2.543264 1_555
As30 As35 2.542516 1_555
As30 As37 2.626749 1_555
As30 Ga6 2.629856 1_555
As30 Ga36 2.675782 1_555
As30 As6 2.996936 1_555
As30 Ga7 3.063223 1_555
As31 As39 2.469970 1_655
As31 Ga47 2.582701 1_565
As31 Ga32 2.603125 1_555
As31 Ga5 2.624886 1_555
As32 As40 2.550780 1_555
As32 Ga45 2.620638 1_455
As32 Ga9 2.767771 1_555
As33 Ga25 2.581177 1_555
As33 Ga44 2.583091 1_555
As33 Ga40 2.639121 1_555
As33 Ga37 2.713555 1_555
As33 Ga16 2.799113 1_555
As33 Ga31 2.953834 1_555
As34 As39 2.532256 1_545
As34 As48 2.546136 1_455
As35 As45 2.530586 1_555
As35 Ga19 2.532567 1_555
As35 Ga46 3.013096 1_554
As36 As8 2.503735 1_555
As36 Ga17 2.559205 1_555
As36 Ga13 2.672101 1_555
As37 As41 2.497531 1_554
As37 Ga36 2.592224 1_555
As37 Ga38 2.726888 1_555
As38 Ga10 2.608218 1_555
As38 Ga9 2.652148 1_655
As38 Ga6 2.837648 1_555
As38 As6 2.870553 1_555
As39 Ga49 2.538063 1_556
As39 Ga24 2.566490 1_555
As40 Ga29 2.642027 1_455
As41 Ga7 2.533591 1_556
As41 Ga41 2.598767 1_555
As41 Ga35 2.738825 1_555
As42 Ga40 2.475470 1_555
As42 Ga31 2.508980 1_555
As42 Ga21 2.509934 1_555
As43 Ga43 2.546338 1_555
As43 Ga3 2.567870 1_555
As43 Ga20 2.723436 1_555
As43 Ga4 3.157972 1_455
As44 Ga29 2.571311 1_565
As44 Ga47 2.751096 1_564
As45 Ga15 2.603876 1_555
As45 Ga27 2.619874 1_545
As45 Ga19 2.854113 1_555
As45 Ga12 2.987558 1_555
As45 Ga30 3.093151 1_555
As46 Ga2 3.005583 1_455
As46 Ga45 3.115763 1_455
As47 Ga6 2.482802 1_556
As47 Ga39 2.650766 1_555
As47 Ga41 2.669653 1_555
As47 Ga4 2.813283 1_555
As48 Ga47 2.567959 1_555
As48 Ga4 2.743315 1_555
As49 Ga30 2.581104 1_565
As49 Ga48 2.623111 1_555
