# generated using pymatgen
data_Nd3RuO7
_symmetry_space_group_name_H-M   'P 1'
_cell_length_a   7.50906123
_cell_length_b   7.60959400
_cell_length_c   10.97169608
_cell_angle_alpha   90.00000000
_cell_angle_beta   90.14461098
_cell_angle_gamma   90.00000000
_symmetry_Int_Tables_number   1
_chemical_formula_structural   Nd3RuO7
_chemical_formula_sum   'Nd12 Ru4 O28'
_cell_volume   626.93067175
_cell_formula_units_Z   4
loop_
 _symmetry_equiv_pos_site_id
 _symmetry_equiv_pos_as_xyz
  1  'x, y, z'
loop_
 _atom_site_type_symbol
 _atom_site_label
 _atom_site_symmetry_multiplicity
 _atom_site_fract_x
 _atom_site_fract_y
 _atom_site_fract_z
 _atom_site_occupancy
  Nd  Nd0  1  0.00000000  0.50000000  0.00000000  1
  Nd  Nd1  1  0.00000000  0.00000000  0.00000000  1
  Nd  Nd2  1  0.50000000  0.50000000  0.50000000  1
  Nd  Nd3  1  0.50000000  0.00000000  0.50000000  1
  Nd  Nd4  1  0.30895900  0.25000000  0.22397100  1
  Nd  Nd5  1  0.69104100  0.75000000  0.77602900  1
  Nd  Nd6  1  0.30113200  0.25000000  0.78185200  1
  Nd  Nd7  1  0.69886800  0.75000000  0.21814800  1
  Nd  Nd8  1  0.80365300  0.25000000  0.71796100  1
  Nd  Nd9  1  0.19634700  0.75000000  0.28203900  1
  Nd  Nd10  1  0.80747300  0.25000000  0.27509400  1
  Nd  Nd11  1  0.19252700  0.75000000  0.72490600  1
  Ru  Ru0  1  0.50000000  0.50000000  0.00000000  1
  Ru  Ru1  1  0.50000000  0.00000000  0.00000000  1
  Ru  Ru2  1  0.00000000  0.50000000  0.50000000  1
  Ru  Ru3  1  0.00000000  0.00000000  0.50000000  1
  O  O0  1  0.41634100  0.25000000  0.00375600  1
  O  O1  1  0.58365900  0.75000000  0.99624400  1
  O  O2  1  0.91810300  0.25000000  0.49406000  1
  O  O3  1  0.08189700  0.75000000  0.50594000  1
  O  O4  1  0.03216700  0.25000000  0.13294600  1
  O  O5  1  0.96783300  0.75000000  0.86705400  1
  O  O6  1  0.01876600  0.25000000  0.86943600  1
  O  O7  1  0.98123400  0.75000000  0.13056400  1
  O  O8  1  0.51732700  0.25000000  0.63243600  1
  O  O9  1  0.48267300  0.75000000  0.36756400  1
  O  O10  1  0.53344000  0.25000000  0.36896300  1
  O  O11  1  0.46656000  0.75000000  0.63103700  1
  O  O12  1  0.32147800  0.54011100  0.12948500  1
  O  O13  1  0.67852200  0.04011100  0.87051500  1
  O  O14  1  0.67852200  0.45988900  0.87051500  1
  O  O15  1  0.32147800  0.95988900  0.12948500  1
  O  O16  1  0.30851500  0.53857200  0.87790600  1
  O  O17  1  0.69148500  0.03857200  0.12209400  1
  O  O18  1  0.69148500  0.46142800  0.12209400  1
  O  O19  1  0.30851500  0.96142800  0.87790600  1
  O  O20  1  0.79873000  0.53675000  0.61598400  1
  O  O21  1  0.20127000  0.03675000  0.38401600  1
  O  O22  1  0.20127000  0.46325000  0.38401600  1
  O  O23  1  0.79873000  0.96325000  0.61598400  1
  O  O24  1  0.83510500  0.54284700  0.36367900  1
  O  O25  1  0.16489500  0.04284700  0.63632100  1
  O  O26  1  0.16489500  0.45715300  0.63632100  1
  O  O27  1  0.83510500  0.95715300  0.36367900  1
loop_
_geom_bond_atom_site_label_1
_geom_bond_atom_site_label_2
_geom_bond_distance
_geom_bond_site_symmetry_2
Nd0 O7 2.385807 1_455
Nd0 O6 2.385807 1_554
Nd0 O4 2.409009 1_555
Nd0 O5 2.409009 1_454
Nd0 O16 2.695031 1_554
Nd0 O18 2.695031 1_455
Nd0 O12 2.814523 1_555
Nd0 O14 2.814523 1_454
Nd1 O7 2.385807 1_445
Nd1 O6 2.385807 1_554
Nd1 O4 2.409009 1_555
Nd1 O5 2.409009 1_444
Nd1 O17 2.695031 1_455
Nd1 O19 2.695031 1_544
Nd1 O15 2.814523 1_545
Nd1 O13 2.814523 1_454
Nd2 O8 2.397174 1_555
Nd2 O9 2.397174 1_555
Nd2 O11 2.398118 1_555
Nd2 O10 2.398118 1_555
Nd2 O20 2.591336 1_555
Nd2 O22 2.591336 1_555
Nd2 O24 2.948598 1_555
Nd2 O26 2.948598 1_555
Nd3 O8 2.397174 1_555
Nd3 O9 2.397174 1_545
Nd3 O11 2.398118 1_545
Nd3 O10 2.398118 1_555
Nd3 O23 2.591336 1_545
Nd3 O21 2.591336 1_555
Nd3 O27 2.948598 1_545
Nd3 O25 2.948598 1_555
Nd4 O4 2.303664 1_555
Nd4 O10 2.314848 1_555
Nd4 O12 2.440826 1_555
Nd4 O15 2.440826 1_545
Nd4 O21 2.525429 1_555
Nd4 O22 2.525429 1_555
Nd4 O0 2.549061 1_555
Nd5 O5 2.303664 1_555
Nd5 O11 2.314848 1_555
Nd5 O13 2.440826 1_565
Nd5 O14 2.440826 1_555
Nd5 O20 2.525429 1_555
Nd5 O23 2.525429 1_555
Nd5 O1 2.549061 1_555
Nd6 O8 2.310063 1_555
Nd6 O6 2.330105 1_555
Nd6 O16 2.436284 1_555
Nd6 O19 2.436284 1_545
Nd6 O26 2.464287 1_555
Nd6 O25 2.464287 1_555
Nd6 O0 2.581738 1_556
Nd7 O9 2.310063 1_555
Nd7 O7 2.330105 1_555
Nd7 O17 2.436284 1_565
Nd7 O18 2.436284 1_555
Nd7 O27 2.464287 1_555
Nd7 O24 2.464287 1_555
Nd7 O1 2.581738 1_554
Nd8 O6 2.314664 1_655
Nd8 O8 2.343714 1_555
Nd8 O23 2.452418 1_545
Nd8 O20 2.452418 1_555
Nd8 O14 2.498659 1_555
Nd8 O13 2.498659 1_555
Nd8 O2 2.604611 1_555
Nd9 O7 2.314664 1_455
Nd9 O9 2.343714 1_555
Nd9 O22 2.452418 1_555
Nd9 O21 2.452418 1_565
Nd9 O15 2.498659 1_555
Nd9 O12 2.498659 1_555
Nd9 O3 2.604611 1_555
Nd10 O4 2.300529 1_655
Nd10 O10 2.303400 1_555
Nd10 O24 2.439806 1_555
Nd10 O27 2.439806 1_545
Nd10 O18 2.481456 1_555
Nd10 O17 2.481456 1_555
Nd10 O2 2.540019 1_555
Nd11 O5 2.300529 1_455
Nd11 O11 2.303400 1_555
Nd11 O25 2.439806 1_565
Nd11 O26 2.439806 1_555
Nd11 O19 2.481456 1_555
Nd11 O16 2.481456 1_555
Nd11 O3 2.540019 1_555
O0 Ru1 2.003892 1_555
O0 Ru0 2.003892 1_555
O1 Ru0 2.003892 1_556
O1 Ru1 2.003892 1_566
O2 Ru2 2.000338 1_655
O2 Ru3 2.000338 1_655
O3 Ru2 2.000338 1_555
O3 Ru3 2.000338 1_565
O12 Ru0 1.979421 1_555
O13 Ru1 1.979421 1_556
O14 Ru0 1.979421 1_556
O15 Ru1 1.979421 1_565
O16 Ru0 1.984534 1_556
O17 Ru1 1.984534 1_555
O18 Ru0 1.984534 1_555
O19 Ru1 1.984534 1_566
O20 Ru2 1.997861 1_655
O21 Ru3 1.997861 1_555
O22 Ru2 1.997861 1_555
O23 Ru3 1.997861 1_665
O24 Ru2 1.966507 1_655
O25 Ru3 1.966507 1_555
O26 Ru2 1.966507 1_555
O27 Ru3 1.966507 1_665
