# generated using pymatgen
data_NaMg6Zr
_symmetry_space_group_name_H-M   'P 1'
_cell_length_a   6.39888400
_cell_length_b   6.39888400
_cell_length_c   4.63488000
_cell_angle_alpha   90.00000000
_cell_angle_beta   90.00000000
_cell_angle_gamma   90.00000000
_symmetry_Int_Tables_number   1
_chemical_formula_structural   NaMg6Zr
_chemical_formula_sum   'Na1 Mg6 Zr1'
_cell_volume   189.77848224
_cell_formula_units_Z   1
loop_
 _symmetry_equiv_pos_site_id
 _symmetry_equiv_pos_as_xyz
  1  'x, y, z'
loop_
 _atom_site_type_symbol
 _atom_site_label
 _atom_site_symmetry_multiplicity
 _atom_site_fract_x
 _atom_site_fract_y
 _atom_site_fract_z
 _atom_site_occupancy
  Na  Na0  1  0.00000000  0.00000000  0.50000000  1
  Mg  Mg0  1  0.50000000  0.00000000  0.50000000  1
  Mg  Mg1  1  0.00000000  0.50000000  0.50000000  1
  Mg  Mg2  1  0.25780800  0.74219200  0.00000000  1
  Mg  Mg3  1  0.74219200  0.25780800  0.00000000  1
  Mg  Mg4  1  0.25780800  0.25780800  0.00000000  1
  Mg  Mg5  1  0.74219200  0.74219200  0.00000000  1
  Zr  Zr0  1  0.50000000  0.50000000  0.50000000  1
loop_
_geom_bond_atom_site_label_1
_geom_bond_atom_site_label_2
_geom_bond_distance
_geom_bond_site_symmetry_2
Mg0 Na0 3.199442 1_555
Mg0 Zr0 3.199442 1_555
Mg0 Na0 3.199442 1_655
Mg0 Zr0 3.199442 1_545
Mg0 Mg3 3.239404 1_555
Mg0 Mg3 3.239404 1_556
Mg0 Mg5 3.239404 1_545
Mg0 Mg5 3.239404 1_546
Mg0 Mg2 3.239404 1_546
Mg0 Mg4 3.239404 1_556
Mg0 Mg4 3.239404 1_555
Mg0 Mg2 3.239404 1_545
Mg1 Na0 3.199442 1_555
Mg1 Zr0 3.199442 1_555
Mg1 Zr0 3.199442 1_455
Mg1 Na0 3.199442 1_565
Mg1 Mg2 3.239404 1_555
Mg1 Mg3 3.239404 1_456
Mg1 Mg3 3.239404 1_455
Mg1 Mg5 3.239404 1_456
Mg1 Mg5 3.239404 1_455
Mg1 Mg4 3.239404 1_556
Mg1 Mg4 3.239404 1_555
Mg1 Mg2 3.239404 1_556
Mg2 Mg5 3.099517 1_555
Mg2 Mg4 3.099517 1_555
Mg2 Zr0 3.189676 1_554
Mg2 Zr0 3.189676 1_555
Mg2 Na0 3.288379 1_565
Mg2 Na0 3.288379 1_564
Mg2 Mg5 3.299367 1_455
Mg2 Mg4 3.299367 1_565
Mg3 Mg5 3.099517 1_555
Mg3 Mg4 3.099517 1_555
Mg3 Zr0 3.189676 1_554
Mg3 Zr0 3.189676 1_555
Mg3 Na0 3.288379 1_655
Mg3 Na0 3.288379 1_654
Mg3 Mg4 3.299367 1_655
Mg3 Mg5 3.299367 1_545
Mg4 Zr0 3.189676 1_555
Mg4 Zr0 3.189676 1_554
Mg4 Na0 3.288379 1_555
Mg4 Na0 3.288379 1_554
Mg5 Zr0 3.189676 1_555
Mg5 Zr0 3.189676 1_554
Mg5 Na0 3.288379 1_665
Mg5 Na0 3.288379 1_664
