# generated using pymatgen
data_Ce7Pt3
_symmetry_space_group_name_H-M   'P 1'
_cell_length_a   9.97699155
_cell_length_b   9.97699155
_cell_length_c   6.17649600
_cell_angle_alpha   90.00000000
_cell_angle_beta   90.00000000
_cell_angle_gamma   119.99999698
_symmetry_Int_Tables_number   1
_chemical_formula_structural   Ce7Pt3
_chemical_formula_sum   'Ce14 Pt6'
_cell_volume   532.44164649
_cell_formula_units_Z   2
loop_
 _symmetry_equiv_pos_site_id
 _symmetry_equiv_pos_as_xyz
  1  'x, y, z'
loop_
 _atom_site_type_symbol
 _atom_site_label
 _atom_site_symmetry_multiplicity
 _atom_site_fract_x
 _atom_site_fract_y
 _atom_site_fract_z
 _atom_site_occupancy
  Ce  Ce0  1  0.66666700  0.33333300  0.56806800  1
  Ce  Ce1  1  0.33333300  0.66666700  0.06806800  1
  Ce  Ce2  1  0.87058300  0.74116500  0.75384100  1
  Ce  Ce3  1  0.25883500  0.12941700  0.75384100  1
  Ce  Ce4  1  0.87058300  0.12941700  0.75384100  1
  Ce  Ce5  1  0.12941700  0.25883500  0.25384100  1
  Ce  Ce6  1  0.74116500  0.87058300  0.25384100  1
  Ce  Ce7  1  0.12941700  0.87058300  0.25384100  1
  Ce  Ce8  1  0.46309000  0.92617900  0.53575200  1
  Ce  Ce9  1  0.07382100  0.53691000  0.53575200  1
  Ce  Ce10  1  0.46309000  0.53691000  0.53575200  1
  Ce  Ce11  1  0.53691000  0.07382100  0.03575200  1
  Ce  Ce12  1  0.92617900  0.46309000  0.03575200  1
  Ce  Ce13  1  0.53691000  0.46309000  0.03575200  1
  Pt  Pt0  1  0.18828600  0.37657200  0.80195600  1
  Pt  Pt1  1  0.62342800  0.81171400  0.80195600  1
  Pt  Pt2  1  0.18828600  0.81171400  0.80195600  1
  Pt  Pt3  1  0.81171400  0.62342800  0.30195600  1
  Pt  Pt4  1  0.37657200  0.18828600  0.30195600  1
  Pt  Pt5  1  0.81171400  0.18828600  0.30195600  1
loop_
_geom_bond_atom_site_label_1
_geom_bond_atom_site_label_2
_geom_bond_distance
_geom_bond_site_symmetry_2
Ce0 Pt5 2.997354 1_555
Ce0 Pt3 2.997361 1_555
Ce0 Pt4 2.997361 1_555
Ce1 Pt2 2.997354 1_554
Ce1 Pt1 2.997361 1_554
Ce1 Pt0 2.997361 1_554
Ce2 Pt2 2.898243 1_655
Ce2 Pt1 2.898252 1_555
Ce2 Pt3 2.970677 1_555
Ce2 Pt3 3.534969 1_556
Ce3 Pt2 2.898243 1_545
Ce3 Pt0 2.898252 1_555
Ce3 Pt4 2.970677 1_555
Ce3 Pt4 3.534969 1_556
Ce4 Pt0 2.898246 1_655
Ce4 Pt1 2.898246 1_545
Ce4 Pt5 2.970680 1_555
Ce4 Pt5 3.534972 1_556
Ce5 Pt5 2.898243 1_455
Ce5 Pt4 2.898252 1_555
Ce5 Pt0 2.970677 1_554
Ce5 Pt0 3.534969 1_555
Ce6 Pt5 2.898243 1_565
Ce6 Pt3 2.898252 1_555
Ce6 Pt1 2.970677 1_554
Ce6 Pt1 3.534969 1_555
Ce7 Pt3 2.898246 1_455
Ce7 Pt4 2.898246 1_565
Ce7 Pt2 2.970680 1_554
Ce7 Pt2 3.534972 1_555
Ce8 Pt1 2.897155 1_555
Ce8 Pt2 2.897162 1_555
Ce8 Pt5 3.453406 1_565
Ce8 Pt4 3.453412 1_565
Ce9 Pt0 2.897155 1_555
Ce9 Pt2 2.897162 1_555
Ce9 Pt5 3.453406 1_455
Ce9 Pt3 3.453412 1_455
Ce10 Pt0 2.897161 1_555
Ce10 Pt1 2.897161 1_555
Ce10 Pt4 3.453403 1_555
Ce10 Pt3 3.453403 1_555
Ce11 Pt4 2.897155 1_555
Ce11 Pt5 2.897162 1_555
Ce11 Pt2 3.453406 1_544
Ce11 Pt1 3.453412 1_544
Ce12 Pt3 2.897155 1_555
Ce12 Pt5 2.897162 1_555
Ce12 Pt2 3.453406 1_654
Ce12 Pt0 3.453412 1_654
Ce13 Pt4 2.897161 1_555
Ce13 Pt3 2.897161 1_555
Ce13 Pt0 3.453403 1_554
Ce13 Pt1 3.453403 1_554
