# generated using pymatgen
data_Li4Mn3NbO8
_symmetry_space_group_name_H-M   'P 1'
_cell_length_a   6.05452504
_cell_length_b   6.11856112
_cell_length_c   10.67690397
_cell_angle_alpha   90.12795368
_cell_angle_beta   73.50175640
_cell_angle_gamma   61.85984785
_symmetry_Int_Tables_number   1
_chemical_formula_structural   Li4Mn3NbO8
_chemical_formula_sum   'Li8 Mn6 Nb2 O16'
_cell_volume   330.04812642
_cell_formula_units_Z   2
loop_
 _symmetry_equiv_pos_site_id
 _symmetry_equiv_pos_as_xyz
  1  'x, y, z'
loop_
 _atom_site_type_symbol
 _atom_site_label
 _atom_site_symmetry_multiplicity
 _atom_site_fract_x
 _atom_site_fract_y
 _atom_site_fract_z
 _atom_site_occupancy
  Li  Li0  1  0.50024800  0.74614500  0.25148600  1
  Li  Li1  1  0.50062200  0.24658600  0.75145900  1
  Li  Li2  1  0.53298800  0.96261400  0.98903500  1
  Li  Li3  1  0.46499100  0.53470400  0.51307000  1
  Li  Li4  1  0.99831100  0.24882500  0.25120600  1
  Li  Li5  1  0.99907500  0.74883400  0.75096900  1
  Li  Li6  1  0.01078000  0.49651000  0.01175300  1
  Li  Li7  1  0.98620700  0.00233000  0.49018500  1
  Mn  Mn0  1  0.99855900  0.74911600  0.25089600  1
  Mn  Mn1  1  0.49891100  0.99875900  0.50241900  1
  Mn  Mn2  1  0.49821200  0.49941500  0.99949500  1
  Mn  Mn3  1  0.99852000  0.24963300  0.75126200  1
  Mn  Mn4  1  0.49832500  0.74920200  0.75092400  1
  Mn  Mn5  1  0.49823600  0.24852400  0.25057000  1
  Nb  Nb0  1  0.99644500  0.48558400  0.49965800  1
  Nb  Nb1  1  0.00077300  0.01317200  0.00241300  1
  O  O0  1  0.26872400  0.87239400  0.64139200  1
  O  O1  1  0.22539700  0.42276600  0.14258900  1
  O  O2  1  0.77115700  0.07578500  0.35912200  1
  O  O3  1  0.72820400  0.62638600  0.86078800  1
  O  O4  1  0.24199200  0.66220100  0.87537700  1
  O  O5  1  0.22145100  0.14893300  0.38555100  1
  O  O6  1  0.76049500  0.36820300  0.61352900  1
  O  O7  1  0.77405800  0.87176200  0.11621400  1
  O  O8  1  0.76085000  0.11313600  0.88952200  1
  O  O9  1  0.76233900  0.61275600  0.38157100  1
  O  O10  1  0.77489200  0.35011300  0.11665000  1
  O  O11  1  0.75462600  0.83711600  0.62683100  1
  O  O12  1  0.23650500  0.13082100  0.88856400  1
  O  O13  1  0.22310800  0.62667300  0.38550100  1
  O  O14  1  0.23425500  0.88589700  0.12025600  1
  O  O15  1  0.23569100  0.38576700  0.61242200  1
loop_
_geom_bond_atom_site_label_1
_geom_bond_atom_site_label_2
_geom_bond_distance
_geom_bond_site_symmetry_2
Li0 O9 2.269019 1_555
Li0 O13 2.279309 1_555
Li0 O7 2.296060 1_555
Li0 O14 2.296940 1_555
Li0 O10 2.352296 1_555
Li0 O5 2.379038 1_565
Li1 O12 2.223783 1_555
Li1 O6 2.234120 1_555
Li1 O8 2.330886 1_555
Li1 O15 2.360386 1_555
Li1 O11 2.366652 1_545
Li1 O4 2.391940 1_555
Li2 O8 2.061720 1_565
Li2 O3 2.068517 1_555
Li2 O7 2.155666 1_556
Li2 O12 2.188194 1_565
Li2 O14 2.195240 1_556
Li3 O15 2.060166 1_555
Li3 O0 2.074849 1_555
Li3 O13 2.162302 1_555
Li3 O6 2.182859 1_555
Li3 O9 2.195160 1_555
Li4 O5 2.140547 1_655
Li4 O10 2.143546 1_555
Li4 O14 2.187711 1_645
Li4 O9 2.189238 1_555
Li4 O2 2.195208 1_555
Li4 O1 2.201826 1_655
Li5 O4 2.141446 1_655
Li5 O11 2.145277 1_555
Li5 O0 2.165413 1_655
Li5 O3 2.167127 1_555
Li5 O15 2.226023 1_655
Li5 O8 2.231148 1_565
Li6 O1 2.079466 1_555
Li6 O10 2.097405 1_455
Li6 O7 2.132225 1_455
Li6 O12 2.164624 1_554
Li6 O4 2.301113 1_554
Li6 O3 2.538923 1_454
Li7 O2 2.083532 1_555
Li7 O5 2.094542 1_655
Li7 O13 2.134908 1_645
Li7 O6 2.166159 1_555
Li7 O11 2.301739 1_545
Li7 O0 2.540807 1_645
Mn0 O1 1.926522 1_655
Mn0 O2 1.927729 1_565
Mn0 O13 2.151480 1_655
Mn0 O7 2.152051 1_555
Mn0 O14 2.164157 1_655
Mn0 O9 2.164619 1_555
Mn1 O2 2.140910 1_565
Mn1 O0 2.142146 1_555
Mn1 O11 2.206638 1_555
Mn1 O15 2.211608 1_565
Mn1 O5 2.227774 1_565
Mn1 O9 2.247456 1_555
Mn2 O1 2.140800 1_556
Mn2 O3 2.142450 1_555
Mn2 O4 2.206981 1_555
Mn2 O8 2.208022 1_555
Mn2 O10 2.226451 1_556
Mn2 O14 2.249373 1_556
Mn3 O3 2.168455 1_555
Mn3 O0 2.171675 1_645
Mn3 O15 2.208606 1_655
Mn3 O8 2.209051 1_555
Mn3 O12 2.229374 1_655
Mn3 O6 2.233380 1_555
Mn4 O0 1.951196 1_555
Mn4 O3 1.955104 1_555
Mn4 O4 2.017121 1_555
Mn4 O11 2.018809 1_555
Mn4 O6 2.297326 1_555
Mn4 O12 2.301025 1_565
Mn5 O1 2.149553 1_555
Mn5 O2 2.153289 1_555
Mn5 O5 2.202733 1_555
Mn5 O10 2.205055 1_555
Mn5 O7 2.270264 1_545
Mn5 O13 2.278208 1_555
Nb0 O5 1.995557 1_655
Nb0 O6 2.004986 1_555
Nb0 O15 2.019926 1_655
Nb0 O9 2.045281 1_555
Nb0 O13 2.070326 1_655
Nb0 O11 2.121538 1_555
Nb1 O10 1.997513 1_455
Nb1 O12 2.005096 1_554
Nb1 O8 2.024030 1_454
Nb1 O14 2.040595 1_545
Nb1 O7 2.070458 1_445
Nb1 O4 2.118424 1_544
