# generated using pymatgen
data_LiMnVP2(O4F)2
_symmetry_space_group_name_H-M   'P 1'
_cell_length_a   5.19161800
_cell_length_b   5.26969533
_cell_length_c   7.38128403
_cell_angle_alpha   108.89418036
_cell_angle_beta   104.78983038
_cell_angle_gamma   96.99641455
_symmetry_Int_Tables_number   1
_chemical_formula_structural   LiMnVP2(O4F)2
_chemical_formula_sum   'Li1 Mn1 V1 P2 O8 F2'
_cell_volume   180.05438066
_cell_formula_units_Z   1
loop_
 _symmetry_equiv_pos_site_id
 _symmetry_equiv_pos_as_xyz
  1  'x, y, z'
loop_
 _atom_site_type_symbol
 _atom_site_label
 _atom_site_symmetry_multiplicity
 _atom_site_fract_x
 _atom_site_fract_y
 _atom_site_fract_z
 _atom_site_occupancy
  Li  Li0  1  0.92134500  0.38968600  0.17711500  1
  Mn  Mn0  1  0.50629200  0.99634600  0.50420200  1
  V  V0  1  0.99904100  0.00433200  0.99313700  1
  P  P0  1  0.44062900  0.35832800  0.75929200  1
  P  P1  1  0.55507900  0.64378200  0.24136300  1
  O  O0  1  0.27438300  0.22512800  0.91141800  1
  O  O1  1  0.36058100  0.22040400  0.60319500  1
  O  O2  1  0.36508500  0.66354300  0.66455900  1
  O  O3  1  0.24197700  0.66917500  0.13157700  1
  O  O4  1  0.74762700  0.31506300  0.89187700  1
  O  O5  1  0.64390100  0.33703800  0.33582300  1
  O  O6  1  0.64692900  0.79072700  0.39152700  1
  O  O7  1  0.71948500  0.76096900  0.08672800  1
  F  F0  1  0.11744800  0.06796000  0.24582100  1
  F  F1  1  0.87925400  0.94141400  0.75095000  1
loop_
_geom_bond_atom_site_label_1
_geom_bond_atom_site_label_2
_geom_bond_distance
_geom_bond_site_symmetry_2
Li0 O4 1.951608 1_554
Li0 O5 2.120998 1_555
Li0 O3 2.249911 1_655
Mn0 O6 1.522497 1_555
Mn0 O1 1.562471 1_565
Mn0 O2 2.547222 1_555
Mn0 O5 2.619981 1_565
O0 P0 1.831981 1_555
O0 V0 2.061695 1_455
O1 P0 1.080795 1_555
O2 P0 1.992920 1_555
O3 P1 1.663599 1_555
O4 P0 1.728198 1_555
O5 P1 2.014707 1_555
O6 P1 1.067660 1_555
O7 P1 1.799489 1_555
O7 V0 2.204665 1_564
F0 V0 1.711266 1_454
F0 Li0 2.209482 1_455
F1 V0 1.640332 1_565
