# generated using pymatgen
data_CaSiP2
_symmetry_space_group_name_H-M   'P 1'
_cell_length_a   7.20456200
_cell_length_b   7.20456200
_cell_length_c   26.32007500
_cell_angle_alpha   90.00000000
_cell_angle_beta   90.00000000
_cell_angle_gamma   90.00000000
_symmetry_Int_Tables_number   1
_chemical_formula_structural   CaSiP2
_chemical_formula_sum   'Ca16 Si16 P32'
_cell_volume   1366.16227519
_cell_formula_units_Z   16
loop_
 _symmetry_equiv_pos_site_id
 _symmetry_equiv_pos_as_xyz
  1  'x, y, z'
loop_
 _atom_site_type_symbol
 _atom_site_label
 _atom_site_symmetry_multiplicity
 _atom_site_fract_x
 _atom_site_fract_y
 _atom_site_fract_z
 _atom_site_occupancy
  Ca  Ca0  1  0.65280700  0.37713400  0.31917900  1
  Ca  Ca1  1  0.34719300  0.62286600  0.81917900  1
  Ca  Ca2  1  0.87713400  0.84719300  0.06917900  1
  Ca  Ca3  1  0.12286600  0.15280700  0.56917900  1
  Ca  Ca4  1  0.62286600  0.34719300  0.18082100  1
  Ca  Ca5  1  0.37713400  0.65280700  0.68082100  1
  Ca  Ca6  1  0.84719300  0.87713400  0.93082100  1
  Ca  Ca7  1  0.15280700  0.12286600  0.43082100  1
  Ca  Ca8  1  0.62795200  0.15454300  0.56448200  1
  Ca  Ca9  1  0.37204800  0.84545700  0.06448200  1
  Ca  Ca10  1  0.65454300  0.87204800  0.31448200  1
  Ca  Ca11  1  0.34545700  0.12795200  0.81448200  1
  Ca  Ca12  1  0.84545700  0.37204800  0.93551800  1
  Ca  Ca13  1  0.15454300  0.62795200  0.43551800  1
  Ca  Ca14  1  0.87204800  0.65454300  0.68551800  1
  Ca  Ca15  1  0.12795200  0.34545700  0.18551800  1
  Si  Si0  1  0.62625100  0.11610100  0.70575900  1
  Si  Si1  1  0.37374900  0.88389900  0.20575900  1
  Si  Si2  1  0.61610100  0.87374900  0.45575900  1
  Si  Si3  1  0.38389900  0.12625100  0.95575900  1
  Si  Si4  1  0.88389900  0.37374900  0.79424100  1
  Si  Si5  1  0.11610100  0.62625100  0.29424100  1
  Si  Si6  1  0.87374900  0.61610100  0.54424100  1
  Si  Si7  1  0.12625100  0.38389900  0.04424100  1
  Si  Si8  1  0.61686500  0.37599700  0.45033700  1
  Si  Si9  1  0.38313500  0.62400300  0.95033700  1
  Si  Si10  1  0.87599700  0.88313500  0.20033700  1
  Si  Si11  1  0.12400300  0.11686500  0.70033700  1
  Si  Si12  1  0.62400300  0.38313500  0.04966300  1
  Si  Si13  1  0.37599700  0.61686500  0.54966300  1
  Si  Si14  1  0.88313500  0.87599700  0.79966300  1
  Si  Si15  1  0.11686500  0.12400300  0.29966300  1
  P  P0  1  0.88807800  0.36692100  0.49204500  1
  P  P1  1  0.11192200  0.63307900  0.99204500  1
  P  P2  1  0.86692100  0.61192200  0.24204500  1
  P  P3  1  0.13307900  0.38807800  0.74204500  1
  P  P4  1  0.63307900  0.11192200  0.00795500  1
  P  P5  1  0.36692100  0.88807800  0.50795500  1
  P  P6  1  0.61192200  0.86692100  0.75795500  1
  P  P7  1  0.38807800  0.13307900  0.25795500  1
  P  P8  1  0.13562700  0.86437300  0.75000000  1
  P  P9  1  0.86437300  0.13562700  0.25000000  1
  P  P10  1  0.36437300  0.36437300  0.50000000  1
  P  P11  1  0.63562700  0.63562700  0.00000000  1
  P  P12  1  0.57296400  0.11838600  0.40246700  1
  P  P13  1  0.42703600  0.88161400  0.90246700  1
  P  P14  1  0.61838600  0.92703600  0.15246700  1
  P  P15  1  0.38161400  0.07296400  0.65246700  1
  P  P16  1  0.88161400  0.42703600  0.09753300  1
  P  P17  1  0.11838600  0.57296400  0.59753300  1
  P  P18  1  0.92703600  0.61838600  0.84753300  1
  P  P19  1  0.07296400  0.38161400  0.34753300  1
  P  P20  1  0.61526200  0.38473800  0.75000000  1
  P  P21  1  0.38473800  0.61526200  0.25000000  1
  P  P22  1  0.88473800  0.88473800  0.50000000  1
  P  P23  1  0.11526200  0.11526200  0.00000000  1
  P  P24  1  0.86869200  0.06714300  0.65186000  1
  P  P25  1  0.13130800  0.93285700  0.15186000  1
  P  P26  1  0.56714300  0.63130800  0.40186000  1
  P  P27  1  0.43285700  0.36869200  0.90186000  1
  P  P28  1  0.93285700  0.13130800  0.84814000  1
  P  P29  1  0.06714300  0.86869200  0.34814000  1
  P  P30  1  0.63130800  0.56714300  0.59814000  1
  P  P31  1  0.36869200  0.43285700  0.09814000  1
loop_
_geom_bond_atom_site_label_1
_geom_bond_atom_site_label_2
_geom_bond_distance
_geom_bond_site_symmetry_2
Ca0 P26 2.910319 1_555
Ca0 P12 2.934538 1_555
Ca0 P9 2.943814 1_555
Ca0 P7 3.053843 1_555
Ca0 P2 3.059825 1_555
Ca0 P19 3.117850 1_655
Ca0 P21 3.160476 1_555
Ca1 P27 2.910319 1_555
Ca1 P13 2.934538 1_555
Ca1 P8 2.943814 1_555
Ca1 P6 3.053843 1_555
Ca1 P3 3.059825 1_555
Ca1 P18 3.117850 1_455
Ca1 P20 3.160476 1_555
Ca2 P25 2.910319 1_655
Ca2 P14 2.934538 1_555
Ca2 P11 2.943814 1_555
Ca2 P4 3.053843 1_565
Ca2 P1 3.059825 1_654
Ca2 P16 3.117850 1_555
Ca2 P23 3.160476 1_665
Ca3 P24 2.910319 1_455
Ca3 P15 2.934538 1_555
Ca3 P10 2.943814 1_555
Ca3 P5 3.053843 1_545
Ca3 P0 3.059825 1_455
Ca3 P17 3.117850 1_555
Ca3 P22 3.160476 1_445
Ca4 P31 2.910319 1_555
Ca4 P16 2.934538 1_555
Ca4 P9 2.943814 1_555
Ca4 P2 3.053843 1_555
Ca4 P7 3.059825 1_555
Ca4 P14 3.117850 1_545
Ca4 P21 3.160476 1_555
Ca5 P30 2.910319 1_555
Ca5 P17 2.934538 1_555
Ca5 P8 2.943814 1_555
Ca5 P3 3.053843 1_555
Ca5 P6 3.059825 1_555
Ca5 P15 3.117850 1_565
Ca5 P20 3.160476 1_555
Ca6 P28 2.910319 1_565
Ca6 P18 2.934538 1_555
Ca6 P11 2.943814 1_556
Ca6 P1 3.053843 1_655
Ca6 P4 3.059825 1_566
Ca6 P13 3.117850 1_555
Ca6 P23 3.160476 1_666
Ca7 P29 2.910319 1_545
Ca7 P19 2.934538 1_555
Ca7 P10 2.943814 1_555
Ca7 P0 3.053843 1_455
Ca7 P5 3.059825 1_545
Ca7 P12 3.117850 1_555
Ca7 P22 3.160476 1_445
Ca8 P24 2.948523 1_555
Ca8 P10 2.961726 1_555
Ca8 P15 2.976240 1_555
Ca8 P5 3.071764 1_545
Ca8 P0 3.080313 1_555
Ca8 P30 3.101892 1_555
Ca8 P22 3.175132 1_545
Ca9 P25 2.948523 1_555
Ca9 P11 2.961726 1_555
Ca9 P14 2.976240 1_555
Ca9 P4 3.071764 1_565
Ca9 P1 3.080313 1_554
Ca9 P31 3.101892 1_555
Ca9 P23 3.175132 1_565
Ca10 P26 2.948523 1_555
Ca10 P9 2.961726 1_565
Ca10 P12 2.976240 1_565
Ca10 P7 3.071764 1_565
Ca10 P2 3.080313 1_555
Ca10 P29 3.101892 1_655
Ca10 P21 3.175132 1_555
Ca11 P27 2.948523 1_555
Ca11 P8 2.961726 1_545
Ca11 P13 2.976240 1_545
Ca11 P6 3.071764 1_545
Ca11 P3 3.080313 1_555
Ca11 P28 3.101892 1_455
Ca11 P20 3.175132 1_555
Ca12 P28 2.948523 1_555
Ca12 P11 2.961726 1_556
Ca12 P18 2.976240 1_555
Ca12 P1 3.071764 1_655
Ca12 P4 3.080313 1_556
Ca12 P27 3.101892 1_555
Ca12 P23 3.175132 1_656
Ca13 P29 2.948523 1_555
Ca13 P10 2.961726 1_555
Ca13 P19 2.976240 1_555
Ca13 P0 3.071764 1_455
Ca13 P5 3.080313 1_555
Ca13 P26 3.101892 1_555
Ca13 P22 3.175132 1_455
Ca14 P30 2.948523 1_555
Ca14 P8 2.961726 1_655
Ca14 P17 2.976240 1_655
Ca14 P3 3.071764 1_655
Ca14 P6 3.080313 1_555
Ca14 P24 3.101892 1_565
Ca14 P20 3.175132 1_555
Ca15 P31 2.948523 1_555
Ca15 P9 2.961726 1_455
Ca15 P16 2.976240 1_455
Ca15 P2 3.071764 1_455
Ca15 P7 3.080313 1_555
Ca15 P25 3.101892 1_545
Ca15 P21 3.175132 1_555
P0 Si8 2.242175 1_555
P0 Si6 2.262930 1_555
P1 Si9 2.242175 1_555
P1 Si7 2.262930 1_556
P2 Si10 2.242175 1_555
P2 Si5 2.262930 1_655
P3 Si11 2.242175 1_555
P3 Si4 2.262930 1_455
P4 Si12 2.242175 1_555
P4 Si3 2.262930 1_554
P5 Si13 2.242175 1_555
P5 Si2 2.262930 1_555
P6 Si14 2.242175 1_555
P6 Si0 2.262930 1_565
P7 Si15 2.242175 1_555
P7 Si1 2.262930 1_545
P8 Si14 2.241588 1_455
P8 Si11 2.241588 1_565
P9 Si10 2.241588 1_545
P9 Si15 2.241588 1_655
P10 Si13 2.241588 1_555
P10 Si8 2.241588 1_555
P11 Si9 2.241588 1_554
P11 Si12 2.241588 1_555
P12 Si8 2.265421 1_555
P12 Si2 2.273857 1_545
P13 Si9 2.265421 1_555
P13 Si3 2.273857 1_565
P14 Si10 2.265421 1_555
P14 Si1 2.273857 1_555
P15 Si11 2.265421 1_555
P15 Si0 2.273857 1_555
P16 Si12 2.265421 1_555
P16 Si7 2.273857 1_655
P17 Si13 2.265421 1_555
P17 Si6 2.273857 1_455
P18 Si14 2.265421 1_555
P18 Si4 2.273857 1_555
P19 Si15 2.265421 1_555
P19 Si5 2.273857 1_555
P20 Si4 2.260083 1_555
P20 Si0 2.260083 1_555
P21 Si5 2.260083 1_555
P21 Si1 2.260083 1_555
P22 Si6 2.260083 1_555
P22 Si2 2.260083 1_555
P23 Si7 2.260083 1_555
P23 Si3 2.260083 1_554
P24 Si11 2.267091 1_655
P24 Si0 2.277676 1_555
P25 Si10 2.267091 1_455
P25 Si1 2.277676 1_555
P26 Si8 2.267091 1_555
P26 Si2 2.277676 1_555
P27 Si9 2.267091 1_555
P27 Si3 2.277676 1_555
P28 Si14 2.267091 1_545
P28 Si4 2.277676 1_555
P29 Si15 2.267091 1_565
P29 Si5 2.277676 1_555
P30 Si13 2.267091 1_555
P30 Si6 2.277676 1_555
P31 Si12 2.267091 1_555
P31 Si7 2.277676 1_555
