# generated using pymatgen
data_NdGaNi
_symmetry_space_group_name_H-M   'P 1'
_cell_length_a   4.45580796
_cell_length_b   7.13171148
_cell_length_c   7.16155834
_cell_angle_alpha   90.00000000
_cell_angle_beta   90.00000000
_cell_angle_gamma   90.00000000
_symmetry_Int_Tables_number   1
_chemical_formula_structural   NdGaNi
_chemical_formula_sum   'Nd4 Ga4 Ni4'
_cell_volume   227.57668356
_cell_formula_units_Z   4
loop_
 _symmetry_equiv_pos_site_id
 _symmetry_equiv_pos_as_xyz
  1  'x, y, z'
loop_
 _atom_site_type_symbol
 _atom_site_label
 _atom_site_symmetry_multiplicity
 _atom_site_fract_x
 _atom_site_fract_y
 _atom_site_fract_z
 _atom_site_occupancy
  Nd  Nd0  1  0.25000000  0.03153104  0.81033567  1
  Nd  Nd1  1  0.25000000  0.53153104  0.68966433  1
  Nd  Nd2  1  0.75000000  0.96846896  0.18966433  1
  Nd  Nd3  1  0.75000000  0.46846896  0.31033567  1
  Ga  Ga0  1  0.25000000  0.17120003  0.41376181  1
  Ga  Ga1  1  0.25000000  0.67120003  0.08623819  1
  Ga  Ga2  1  0.75000000  0.82879997  0.58623819  1
  Ga  Ga3  1  0.75000000  0.32879997  0.91376181  1
  Ni  Ni0  1  0.25000000  0.80723557  0.40942573  1
  Ni  Ni1  1  0.25000000  0.30723557  0.09057427  1
  Ni  Ni2  1  0.75000000  0.19276443  0.59057427  1
  Ni  Ni3  1  0.75000000  0.69276443  0.90942573  1
loop_
_geom_bond_atom_site_label_1
_geom_bond_atom_site_label_2
_geom_bond_distance
_geom_bond_site_symmetry_2
Nd0 Ni1 2.809617 1_556
Nd0 Ni2 2.960188 1_455
Nd0 Ni2 2.960188 1_555
Nd0 Ni0 3.286670 1_545
Nd0 Ni3 3.362162 1_545
Nd0 Ni3 3.362162 1_445
Nd1 Ni0 2.809617 1_555
Nd1 Ni3 2.960188 1_455
Nd1 Ni3 2.960188 1_555
Nd1 Ni1 3.286670 1_556
Nd1 Ni2 3.362162 1_555
Nd1 Ni2 3.362162 1_455
Nd2 Ni3 2.809617 1_554
Nd2 Ni0 2.960188 1_655
Nd2 Ni0 2.960188 1_555
Nd2 Ni2 3.286670 1_565
Nd2 Ni1 3.362162 1_565
Nd2 Ni1 3.362162 1_665
Nd3 Ni2 2.809617 1_555
Nd3 Ni1 2.960188 1_555
Nd3 Ni1 2.960188 1_655
Nd3 Ni3 3.286670 1_554
Nd3 Ni0 3.362162 1_555
Nd3 Ni0 3.362162 1_655
Ga0 Ni1 2.509632 1_555
Ga0 Ni2 2.567217 1_455
Ga0 Ni2 2.567217 1_555
Ga0 Ni0 2.595875 1_545
Ga0 Nd0 3.009695 1_555
Ga0 Nd2 3.103162 1_445
Ga0 Nd2 3.103162 1_545
Ga0 Nd3 3.163342 1_555
Ga0 Nd3 3.163342 1_455
Ga0 Nd1 3.241589 1_555
Ga1 Ni0 2.509632 1_555
Ga1 Ni3 2.567217 1_454
Ga1 Ni3 2.567217 1_554
Ga1 Ni1 2.595875 1_555
Ga1 Nd1 3.009695 1_554
Ga1 Nd3 3.103162 1_455
Ga1 Nd3 3.103162 1_555
Ga1 Nd2 3.163342 1_455
Ga1 Nd2 3.163342 1_555
Ga1 Nd0 3.241589 1_564
Ga2 Ni3 2.509632 1_555
Ga2 Ni0 2.567217 1_655
Ga2 Ni0 2.567217 1_555
Ga2 Ni2 2.595875 1_565
Ga2 Nd2 3.009695 1_555
Ga2 Nd0 3.103162 1_565
Ga2 Nd0 3.103162 1_665
Ga2 Nd1 3.163342 1_555
Ga2 Nd1 3.163342 1_655
Ga2 Nd3 3.241589 1_555
Ga3 Ni2 2.509632 1_555
Ga3 Ni1 2.567217 1_556
Ga3 Ni1 2.567217 1_656
Ga3 Ni3 2.595875 1_555
Ga3 Nd3 3.009695 1_556
Ga3 Nd1 3.103162 1_555
Ga3 Nd1 3.103162 1_655
Ga3 Nd0 3.163342 1_655
Ga3 Nd0 3.163342 1_555
Ga3 Nd2 3.241589 1_546
