# generated using pymatgen
data_K3B6ClO10
_symmetry_space_group_name_H-M   'P 1'
_cell_length_a   6.60637587
_cell_length_b   6.60637587
_cell_length_c   6.60637645
_cell_angle_alpha   100.50825247
_cell_angle_beta   100.50825247
_cell_angle_gamma   100.50824328
_symmetry_Int_Tables_number   1
_chemical_formula_structural   K3B6ClO10
_chemical_formula_sum   'K3 B6 Cl1 O10'
_cell_volume   271.71698668
_cell_formula_units_Z   1
loop_
 _symmetry_equiv_pos_site_id
 _symmetry_equiv_pos_as_xyz
  1  'x, y, z'
loop_
 _atom_site_type_symbol
 _atom_site_label
 _atom_site_symmetry_multiplicity
 _atom_site_fract_x
 _atom_site_fract_y
 _atom_site_fract_z
 _atom_site_occupancy
  K  K0  1  0.38466300  0.92250100  0.38466300  1
  K  K1  1  0.38466300  0.38466300  0.92250100  1
  K  K2  1  0.92250100  0.38466300  0.38466300  1
  B  B0  1  0.81223400  0.07544000  0.81223400  1
  B  B1  1  0.81223400  0.81223400  0.07544000  1
  B  B2  1  0.07544000  0.81223400  0.81223400  1
  B  B3  1  0.93188600  0.93188600  0.48452000  1
  B  B4  1  0.48452000  0.93188600  0.93188600  1
  B  B5  1  0.93188600  0.48452000  0.93188600  1
  Cl  Cl0  1  0.43807700  0.43807700  0.43807700  1
  O  O0  1  0.81991500  0.05486600  0.58834700  1
  O  O1  1  0.58834700  0.81991500  0.05486600  1
  O  O2  1  0.05486600  0.58834700  0.81991500  1
  O  O3  1  0.58834700  0.05486600  0.81991500  1
  O  O4  1  0.81991500  0.58834700  0.05486600  1
  O  O5  1  0.05486600  0.81991500  0.58834700  1
  O  O6  1  0.93882800  0.93882800  0.27872500  1
  O  O7  1  0.27872500  0.93882800  0.93882800  1
  O  O8  1  0.93882800  0.27872500  0.93882800  1
  O  O9  1  0.89687500  0.89687500  0.89687500  1
loop_
_geom_bond_atom_site_label_1
_geom_bond_atom_site_label_2
_geom_bond_distance
_geom_bond_site_symmetry_2
K0 O1 2.807207 1_555
K0 O5 2.807207 1_555
K0 O0 2.843558 1_565
K0 O3 2.843558 1_565
K0 O6 2.927129 1_455
K0 O7 2.927129 1_554
K1 O2 2.807207 1_555
K1 O3 2.807207 1_555
K1 O4 2.843558 1_556
K1 O1 2.843558 1_556
K1 O8 2.927129 1_455
K1 O7 2.927129 1_545
K2 O4 2.807207 1_555
K2 O0 2.807207 1_555
K2 O5 2.843558 1_655
K2 O2 2.843558 1_655
K2 O6 2.927129 1_545
K2 O8 2.927129 1_554
B0 O8 1.458763 1_555
B0 O3 1.471494 1_555
B0 O0 1.471494 1_555
B0 O9 1.544059 1_545
B1 O6 1.458763 1_555
B1 O1 1.471494 1_555
B1 O4 1.471494 1_555
B1 O9 1.544059 1_554
B2 O7 1.458763 1_555
B2 O2 1.471494 1_555
B2 O5 1.471494 1_555
B2 O9 1.544059 1_455
B3 O0 1.370683 1_565
B3 O5 1.370683 1_655
B3 O6 1.377435 1_555
B4 O1 1.370683 1_556
B4 O3 1.370683 1_565
B4 O7 1.377435 1_555
B5 O4 1.370683 1_556
B5 O2 1.370683 1_655
B5 O8 1.377435 1_555
Cl0 K0 3.305791 1_545
Cl0 K2 3.305791 1_455
Cl0 K1 3.305791 1_554
Cl0 K0 3.356976 1_555
Cl0 K2 3.356976 1_555
Cl0 K1 3.356976 1_555
