# generated using pymatgen
data_ZrCrCuS4
_symmetry_space_group_name_H-M   'P 1'
_cell_length_a   6.67892100
_cell_length_b   7.25947900
_cell_length_c   11.62942600
_cell_angle_alpha   90.00000000
_cell_angle_beta   90.00000000
_cell_angle_gamma   90.00000000
_symmetry_Int_Tables_number   1
_chemical_formula_structural   ZrCrCuS4
_chemical_formula_sum   'Zr4 Cr4 Cu4 S16'
_cell_volume   563.85838014
_cell_formula_units_Z   4
loop_
 _symmetry_equiv_pos_site_id
 _symmetry_equiv_pos_as_xyz
  1  'x, y, z'
loop_
 _atom_site_type_symbol
 _atom_site_label
 _atom_site_symmetry_multiplicity
 _atom_site_fract_x
 _atom_site_fract_y
 _atom_site_fract_z
 _atom_site_occupancy
  Zr  Zr0  1  0.70488900  0.00000000  0.30977900  1
  Zr  Zr1  1  0.29511100  0.50000000  0.80977900  1
  Zr  Zr2  1  0.81834900  0.00000000  0.00830200  1
  Zr  Zr3  1  0.18165100  0.50000000  0.50830200  1
  Cr  Cr0  1  0.80755200  0.50000000  0.72951800  1
  Cr  Cr1  1  0.19244800  0.00000000  0.22951800  1
  Cr  Cr2  1  0.64915300  0.50000000  0.96441400  1
  Cr  Cr3  1  0.35084700  0.00000000  0.46441400  1
  Cu  Cu0  1  0.95978200  0.00000000  0.62808200  1
  Cu  Cu1  1  0.58025700  0.50000000  0.40932300  1
  Cu  Cu2  1  0.04021800  0.50000000  0.12808200  1
  Cu  Cu3  1  0.41974300  0.00000000  0.90932300  1
  S  S0  1  0.94175700  0.21055300  0.16641300  1
  S  S1  1  0.59452500  0.26186600  0.83648200  1
  S  S2  1  0.05824300  0.28944700  0.66641300  1
  S  S3  1  0.40547500  0.23813400  0.33648200  1
  S  S4  1  0.40547500  0.76186600  0.33648200  1
  S  S5  1  0.05824300  0.71055300  0.66641300  1
  S  S6  1  0.59452500  0.73813400  0.83648200  1
  S  S7  1  0.94175700  0.78944700  0.16641300  1
  S  S8  1  0.64344100  0.00000000  0.54270500  1
  S  S9  1  0.90840000  0.50000000  0.38229000  1
  S  S10  1  0.35655900  0.50000000  0.04270500  1
  S  S11  1  0.09160000  0.00000000  0.88229000  1
  S  S12  1  0.97668500  0.50000000  0.91473600  1
  S  S13  1  0.47358600  0.00000000  0.10506100  1
  S  S14  1  0.02331500  0.00000000  0.41473600  1
  S  S15  1  0.52641400  0.50000000  0.60506100  1
loop_
_geom_bond_atom_site_label_1
_geom_bond_atom_site_label_2
_geom_bond_distance
_geom_bond_site_symmetry_2
Cr0 S15 2.370783 1_555
Cr0 S5 2.382925 1_655
Cr0 S2 2.382925 1_655
Cr0 S12 2.432217 1_555
Cr0 S6 2.561288 1_555
Cr0 S1 2.561288 1_555
Cr1 S13 2.370783 1_555
Cr1 S0 2.382925 1_455
Cr1 S7 2.382925 1_445
Cr1 S14 2.432217 1_555
Cr1 S3 2.561288 1_555
Cr1 S4 2.561288 1_545
Cr2 S10 2.155903 1_556
Cr2 S12 2.262562 1_555
Cr2 S6 2.309783 1_555
Cr2 S1 2.309783 1_555
Cr3 S8 2.155903 1_555
Cr3 S14 2.262562 1_555
Cr3 S3 2.309783 1_555
Cr3 S4 2.309783 1_545
Cu0 S2 2.246408 1_655
Cu0 S5 2.246408 1_645
Cu0 S8 2.334484 1_555
Cu0 S14 2.517116 1_655
Cu1 S9 2.214074 1_555
Cu1 S15 2.304551 1_555
Cu1 S4 2.386239 1_555
Cu1 S3 2.386239 1_555
Cu2 S0 2.246408 1_455
Cu2 S7 2.246408 1_455
Cu2 S10 2.334484 1_555
Cu2 S12 2.517116 1_454
Cu3 S11 2.214074 1_555
Cu3 S13 2.304551 1_556
Cu3 S1 2.386239 1_555
Cu3 S6 2.386239 1_545
S0 Zr2 2.529160 1_555
S0 Zr0 2.760234 1_555
S1 Zr1 2.661576 1_555
S1 Zr2 3.137077 1_556
S2 Zr3 2.529160 1_555
S2 Zr1 2.760234 1_555
S3 Zr0 2.661576 1_555
S3 Zr3 3.137077 1_555
S4 Zr0 2.661576 1_565
S4 Zr3 3.137077 1_555
S5 Zr3 2.529160 1_555
S5 Zr1 2.760234 1_555
S6 Zr1 2.661576 1_555
S6 Zr2 3.137077 1_566
S7 Zr2 2.529160 1_565
S7 Zr0 2.760234 1_565
S8 Zr0 2.739709 1_555
S9 Zr3 2.340564 1_655
S10 Zr1 2.739709 1_554
S11 Zr2 2.340564 1_456
S12 Zr1 2.452116 1_655
S13 Zr2 2.562882 1_555
S13 Zr0 2.838056 1_555
S14 Zr0 2.452116 1_455
S15 Zr3 2.562882 1_555
S15 Zr1 2.838056 1_555
