# generated using pymatgen
data_BP4H36Rh(C9F5)4
_symmetry_space_group_name_H-M   'P 1'
_cell_length_a   12.27590689
_cell_length_b   12.78799220
_cell_length_c   16.05132428
_cell_angle_alpha   104.71849674
_cell_angle_beta   109.82979904
_cell_angle_gamma   98.46126699
_symmetry_Int_Tables_number   1
_chemical_formula_structural   BP4H36Rh(C9F5)4
_chemical_formula_sum   'B2 P8 H72 Rh2 C72 F40'
_cell_volume   2215.93750195
_cell_formula_units_Z   2
loop_
 _symmetry_equiv_pos_site_id
 _symmetry_equiv_pos_as_xyz
  1  'x, y, z'
loop_
 _atom_site_type_symbol
 _atom_site_label
 _atom_site_symmetry_multiplicity
 _atom_site_fract_x
 _atom_site_fract_y
 _atom_site_fract_z
 _atom_site_occupancy
  B  B0  1  0.39468351  0.67172687  0.74427722  1
  B  B1  1  0.60531649  0.32827313  0.25572278  1
  P  P0  1  0.83399245  0.12447324  0.86667081  1
  P  P1  1  0.16600755  0.87552676  0.13332919  1
  P  P2  1  0.89322042  0.38472175  0.74418094  1
  P  P3  1  0.10677958  0.61527825  0.25581906  1
  P  P4  1  0.09504116  0.27832292  0.88450407  1
  P  P5  1  0.90495884  0.72167708  0.11549593  1
  P  P6  1  0.77411157  0.10668655  0.63702649  1
  P  P7  1  0.22588843  0.89331345  0.36297351  1
  H  H0  1  0.15741458  0.22507622  0.75448466  1
  H  H1  1  0.84258542  0.77492378  0.24551534  1
  H  H2  1  0.17122699  0.37194526  0.79279734  1
  H  H3  1  0.82877301  0.62805474  0.20720266  1
  H  H4  1  0.28044532  0.31457906  0.85902751  1
  H  H5  1  0.71955468  0.68542094  0.14097249  1
  H  H6  1  0.65470726  0.19245302  0.83561237  1
  H  H7  1  0.34529274  0.80754698  0.16438763  1
  H  H8  1  0.62276238  0.05163494  0.76278964  1
  H  H9  1  0.37723762  0.94836506  0.23721036  1
  H  H10  1  0.64349802  0.07993036  0.88250430  1
  H  H11  1  0.35650198  0.92006964  0.11749570  1
  H  H12  1  0.97333054  0.58725211  0.80920514  1
  H  H13  1  0.02666946  0.41274789  0.19079486  1
  H  H14  1  0.99613406  0.52355372  0.89912172  1
  H  H15  1  0.00386594  0.47644628  0.10087828  1
  H  H16  1  0.08937999  0.51686131  0.83408469  1
  H  H17  1  0.91062001  0.48313869  0.16591531  1
  H  H18  1  0.98434877  0.39839894  0.63287077  1
  H  H19  1  0.01565123  0.60160106  0.36712923  1
  H  H20  1  0.82602905  0.34340518  0.57434188  1
  H  H21  1  0.17397095  0.65659482  0.42565812  1
  H  H22  1  0.88804891  0.48953945  0.63602162  1
  H  H23  1  0.11195109  0.51046055  0.36397838  1
  H  H24  1  0.57043656  0.12941497  0.58788492  1
  H  H25  1  0.42956344  0.87058503  0.41211508  1
  H  H26  1  0.66010968  0.21298574  0.54952786  1
  H  H27  1  0.33989032  0.78701426  0.45047214  1
  H  H28  1  0.60363273  0.06617613  0.48914454  1
  H  H29  1  0.39636727  0.93382387  0.51085546  1
  H  H30  1  0.80218351  0.95644142  0.91054864  1
  H  H31  1  0.19781649  0.04355858  0.08945136  1
  H  H32  1  0.80146603  0.92393719  0.79540669  1
  H  H33  1  0.19853397  0.07606281  0.20459331  1
  H  H34  1  0.94018312  0.98125355  0.89442818  1
  H  H35  1  0.05981688  0.01874645  0.10557182  1
  H  H36  1  0.98590920  0.20924267  0.02710688  1
  H  H37  1  0.01409080  0.79075733  0.97289312  1
  H  H38  1  0.87064998  0.28102203  0.00469892  1
  H  H39  1  0.12935002  0.71897797  0.99530108  1
  H  H40  1  0.84343908  0.15065421  0.02547247  1
  H  H41  1  0.15656092  0.84934579  0.97452753  1
  H  H42  1  0.89123942  0.18014616  0.55845152  1
  H  H43  1  0.10876058  0.81985384  0.44154848  1
  H  H44  1  0.95307303  0.08234688  0.60904435  1
  H  H45  1  0.04692697  0.91765312  0.39095565  1
  H  H46  1  0.82326167  0.03327090  0.50197800  1
  H  H47  1  0.17673833  0.96672910  0.49802200  1
  H  H48  1  0.27021837  0.40049023  0.02262005  1
  H  H49  1  0.72978163  0.59950977  0.97737995  1
  H  H50  1  0.16437116  0.47614681  0.98050851  1
  H  H51  1  0.83562884  0.52385319  0.01949149  1
  H  H52  1  0.13737479  0.38805715  0.04560499  1
  H  H53  1  0.86262521  0.61194285  0.95439501  1
  H  H54  1  0.24624535  0.18959817  0.95769020  1
  H  H55  1  0.75375465  0.81040183  0.04230980  1
  H  H56  1  0.11201184  0.14886821  0.97402431  1
  H  H57  1  0.88798816  0.85113179  0.02597569  1
  H  H58  1  0.11894172  0.08891517  0.86294006  1
  H  H59  1  0.88105828  0.91108483  0.13705994  1
  H  H60  1  0.67458537  0.34578016  0.68422916  1
  H  H61  1  0.32541463  0.65421984  0.31577084  1
  H  H62  1  0.74204097  0.41694236  0.80729279  1
  H  H63  1  0.25795903  0.58305764  0.19270721  1
  H  H64  1  0.74304489  0.49252649  0.72777625  1
  H  H65  1  0.25695511  0.50747351  0.27222375  1
  H  H66  1  0.67465877  0.91120369  0.54217268  1
  H  H67  1  0.32534123  0.08879631  0.45782732  1
  H  H68  1  0.79507092  0.92358177  0.64811775  1
  H  H69  1  0.20492908  0.07641823  0.35188225  1
  H  H70  1  0.65509864  0.94510543  0.65035360  1
  H  H71  1  0.34490136  0.05489457  0.34964640  1
  Rh  Rh0  1  0.89827090  0.22454213  0.78537770  1
  Rh  Rh1  1  0.10172910  0.77545787  0.21462230  1
  C  C0  1  0.41257428  0.65713255  0.91739873  1
  C  C1  1  0.58742572  0.34286745  0.08260127  1
  C  C2  1  0.50684130  0.67986196  0.70690957  1
  C  C3  1  0.49315870  0.32013804  0.29309043  1
  C  C4  1  0.52823295  0.80836224  0.06261557  1
  C  C5  1  0.47176705  0.19163776  0.93738443  1
  C  C6  1  0.51473376  0.82408256  0.91344370  1
  C  C7  1  0.48526624  0.17591744  0.08655630  1
  C  C8  1  0.71668453  0.69325438  0.72327681  1
  C  C9  1  0.28331547  0.30674562  0.27672319  1
  C  C10  1  0.33855366  0.85044901  0.68895734  1
  C  C11  1  0.66144634  0.14955099  0.31104266  1
  C  C12  1  0.30947197  0.75874776  0.71716104  1
  C  C13  1  0.69052803  0.24125224  0.28283896  1
  C  C14  1  0.68521279  0.67241974  0.62760952  1
  C  C15  1  0.31478721  0.32758026  0.37239048  1
  C  C16  1  0.20523428  0.75354608  0.73568595  1
  C  C17  1  0.79476572  0.24645392  0.26431405  1
  C  C18  1  0.23087928  0.29798194  0.60017940  1
  C  C19  1  0.76912072  0.70201806  0.39982060  1
  C  C20  1  0.48067816  0.65822642  0.61098709  1
  C  C21  1  0.51932184  0.34177358  0.38901291  1
  C  C22  1  0.45419578  0.70039635  0.01525237  1
  C  C23  1  0.54580422  0.29960365  0.98474763  1
  C  C24  1  0.16512406  0.37185468  0.57226877  1
  C  C25  1  0.83487594  0.62814532  0.42773123  1
  C  C26  1  0.27149595  0.92925608  0.67910205  1
  C  C27  1  0.72850405  0.07074392  0.32089795  1
  C  C28  1  0.21259718  0.48728114  0.61758545  1
  C  C29  1  0.78740282  0.51271886  0.38241455  1
  C  C30  1  0.13480245  0.82953471  0.72631577  1
  C  C31  1  0.86519755  0.17046529  0.27368423  1
  C  C32  1  0.56492657  0.65467094  0.57064984  1
  C  C33  1  0.43507343  0.34532906  0.42935016  1
  C  C34  1  0.55741810  0.87161654  0.01052905  1
  C  C35  1  0.44258190  0.12838346  0.98947095  1
  C  C36  1  0.38668072  0.45644134  0.71691534  1
  C  C37  1  0.61331928  0.54355866  0.28308466  1
  C  C38  1  0.16830258  0.91855295  0.69738357  1
  C  C39  1  0.83169742  0.08144705  0.30261643  1
  C  C40  1  0.34377234  0.34121035  0.67312640  1
  C  C41  1  0.65622766  0.65878965  0.32687360  1
  C  C42  1  0.44264012  0.71497482  0.86163012  1
  C  C43  1  0.55735988  0.28502518  0.13836988  1
  C  C44  1  0.32469055  0.53555005  0.69280543  1
  C  C45  1  0.67530945  0.46444995  0.30719457  1
  C  C46  1  0.62867521  0.69595312  0.76024796  1
  C  C47  1  0.37132479  0.30404688  0.23975204  1
  C  C48  1  0.18466511  0.29975082  0.81625152  1
  C  C49  1  0.81533489  0.70024918  0.18374848  1
  C  C50  1  0.67326739  0.11065141  0.83384463  1
  C  C51  1  0.32673261  0.88934859  0.16615537  1
  C  C52  1  0.99819363  0.51589011  0.83002744  1
  C  C53  1  0.00180637  0.48410989  0.16997256  1
  C  C54  1  0.89802289  0.40565294  0.63651791  1
  C  C55  1  0.10197711  0.59434706  0.36348209  1
  C  C56  1  0.63912795  0.13110207  0.55826781  1
  C  C57  1  0.36087205  0.86889793  0.44173219  1
  C  C58  1  0.84569861  0.98297608  0.86703683  1
  C  C59  1  0.15430139  0.01702392  0.13296317  1
  C  C60  1  0.88903998  0.19823868  0.99314364  1
  C  C61  1  0.11096002  0.80176132  0.00685636  1
  C  C62  1  0.86936537  0.10009124  0.56990704  1
  C  C63  1  0.13063463  0.89990876  0.43009296  1
  C  C64  1  0.17434143  0.39734399  0.99368377  1
  C  C65  1  0.82565857  0.60265601  0.00631623  1
  C  C66  1  0.14807596  0.16528609  0.92341739  1
  C  C67  1  0.85192404  0.83471391  0.07658261  1
  C  C68  1  0.74941434  0.41260720  0.74029315  1
  C  C69  1  0.25058566  0.58739280  0.25970685  1
  C  C70  1  0.71926720  0.95730926  0.61774798  1
  C  C71  1  0.28073280  0.04269074  0.38225202  1
  F  F0  1  0.33826688  0.55188680  0.87879855  1
  F  F1  1  0.66173312  0.44811320  0.12120145  1
  F  F2  1  0.14287261  0.55170862  0.58226906  1
  F  F3  1  0.85712739  0.44829138  0.41773094  1
  F  F4  1  0.62915691  0.97745779  0.05512830  1
  F  F5  1  0.37084309  0.02254221  0.94487170  1
  F  F6  1  0.49803194  0.49244687  0.78761961  1
  F  F7  1  0.50196806  0.50755313  0.21238039  1
  F  F8  1  0.83325904  0.71004796  0.78014324  1
  F  F9  1  0.16674096  0.28995204  0.21985676  1
  F  F10  1  0.67089280  0.71489701  0.85440537  1
  F  F11  1  0.32910720  0.28510299  0.14559463  1
  F  F12  1  0.54999566  0.89075104  0.86822111  1
  F  F13  1  0.45000434  0.10924896  0.13177889  1
  F  F14  1  0.16886495  0.67080812  0.76713345  1
  F  F15  1  0.83113505  0.32919188  0.23286655  1
  F  F16  1  0.43930007  0.87119493  0.67089749  1
  F  F17  1  0.56069993  0.12880507  0.32910251  1
  F  F18  1  0.05664668  0.33052574  0.49923776  1
  F  F19  1  0.94335332  0.66947426  0.50076224  1
  F  F20  1  0.30772648  0.01722923  0.65350695  1
  F  F21  1  0.69227352  0.98277077  0.34649305  1
  F  F22  1  0.42244876  0.63824979  0.06450676  1
  F  F23  1  0.57755124  0.36175021  0.93549324  1
  F  F24  1  0.36502673  0.63904340  0.55024818  1
  F  F25  1  0.63497327  0.36095660  0.44975182  1
  F  F26  1  0.57195631  0.85073951  0.15700009  1
  F  F27  1  0.42804369  0.14926049  0.84299991  1
  F  F28  1  0.53168991  0.63434918  0.47706529  1
  F  F29  1  0.46831009  0.36565082  0.52293471  1
  F  F30  1  0.41050941  0.27054119  0.69968950  1
  F  F31  1  0.58949059  0.72945881  0.30031050  1
  F  F32  1  0.76941527  0.66913859  0.59127106  1
  F  F33  1  0.23058473  0.33086141  0.40872894  1
  F  F34  1  0.10237432  0.99450945  0.68892795  1
  F  F35  1  0.89762568  0.00549055  0.31107205  1
  F  F36  1  0.03576755  0.81930634  0.74652130  1
  F  F37  1  0.96423245  0.18069366  0.25347870  1
  F  F38  1  0.18639595  0.18624062  0.55597817  1
  F  F39  1  0.81360405  0.81375938  0.44402183  1
loop_
_geom_bond_atom_site_label_1
_geom_bond_atom_site_label_2
_geom_bond_distance
_geom_bond_site_symmetry_2
B0 C44 1.673437 1_555
B0 C12 1.673865 1_555
B0 C2 1.678127 1_555
B0 C42 1.680213 1_555
B1 C45 1.673437 1_555
B1 C13 1.673865 1_555
B1 C3 1.678127 1_555
B1 C43 1.680213 1_555
P0 Rh0 2.283153 1_555
P1 Rh1 2.283153 1_555
P2 Rh0 2.309718 1_555
P3 Rh1 2.309718 1_555
P4 Rh0 2.277485 1_455
P5 Rh1 2.277485 1_655
P6 Rh0 2.302781 1_555
P7 Rh1 2.302781 1_555
C0 F0 1.363417 1_555
C0 C42 1.401765 1_555
C1 F1 1.363417 1_555
C1 C43 1.401765 1_555
C2 C46 1.401209 1_555
C2 C20 1.404354 1_555
C3 C47 1.401209 1_555
C4 F26 1.350002 1_555
C5 F27 1.350002 1_555
C6 F12 1.363883 1_555
C7 F13 1.363883 1_555
C8 F8 1.360493 1_555
C9 F9 1.360493 1_555
C10 F16 1.367382 1_555
C10 C12 1.401346 1_555
C11 F17 1.367382 1_555
C11 C13 1.401346 1_555
C12 C16 1.404776 1_555
C13 C17 1.404776 1_555
C14 F32 1.349004 1_555
C15 F33 1.349004 1_555
C16 F14 1.363406 1_555
C17 F15 1.363406 1_555
C18 F38 1.354921 1_555
C19 F39 1.354921 1_555
C20 F24 1.364993 1_555
C21 F25 1.364993 1_555
C21 C3 1.404354 1_555
C22 F22 1.358562 1_555
C23 F23 1.358562 1_555
C24 F18 1.358594 1_555
C25 F19 1.358594 1_555
C26 F20 1.357868 1_565
C27 F21 1.357868 1_545
C28 F2 1.359573 1_555
C28 C44 1.405857 1_555
C29 F3 1.359573 1_555
C29 C45 1.405857 1_555
C30 F36 1.357424 1_555
C31 F37 1.357424 1_555
C32 F28 1.358341 1_555
C33 F29 1.358341 1_555
C34 F4 1.359830 1_555
C35 F5 1.359830 1_555
C36 F6 1.365744 1_555
C36 C44 1.406403 1_555
C37 F7 1.365744 1_555
C37 C45 1.406403 1_555
C38 F34 1.356734 1_555
C39 F35 1.356734 1_555
C40 F30 1.358811 1_555
C41 F31 1.358811 1_555
C42 C6 1.403317 1_555
C43 C7 1.403317 1_555
C46 F10 1.362738 1_555
C47 F11 1.362738 1_555
C48 H2 1.095709 1_555
C48 H0 1.098477 1_555
C48 H4 1.100172 1_555
C48 P4 1.835038 1_555
C49 H3 1.095709 1_555
C49 H1 1.098477 1_555
C49 H5 1.100172 1_555
C49 P5 1.835038 1_555
C50 H8 1.095417 1_555
C50 H10 1.097841 1_555
C50 H6 1.098381 1_555
C50 P0 1.829345 1_555
C51 H9 1.095417 1_555
C51 H11 1.097841 1_555
C51 H7 1.098381 1_555
C51 P1 1.829345 1_555
C52 H16 1.097032 1_655
C52 H14 1.097620 1_555
C52 H12 1.097909 1_555
C52 P2 1.832385 1_555
C53 H17 1.097032 1_455
C53 H15 1.097620 1_555
C53 H13 1.097909 1_555
C53 P3 1.832385 1_555
C54 H20 1.096186 1_555
C54 H18 1.096958 1_555
C54 H22 1.099163 1_555
C54 P2 1.833329 1_555
C55 H21 1.096186 1_555
C55 H19 1.096958 1_555
C55 H23 1.099163 1_555
C55 P3 1.833329 1_555
C56 H26 1.096490 1_555
C56 H28 1.098946 1_555
C56 H24 1.099712 1_555
C56 P6 1.836581 1_555
C57 H27 1.096490 1_555
C57 H29 1.098946 1_555
C57 H25 1.099712 1_555
C57 P7 1.836581 1_555
C58 H32 1.096126 1_555
C58 H34 1.097987 1_555
C58 H30 1.099317 1_555
C58 P0 1.837443 1_565
C59 H33 1.096126 1_555
C59 H35 1.097987 1_555
C59 H31 1.099317 1_555
C59 P1 1.837443 1_545
C60 H36 1.096832 1_556
C60 H38 1.097741 1_556
C60 H40 1.100102 1_556
C60 P0 1.837451 1_555
C61 H37 1.096832 1_554
C61 H39 1.097741 1_554
C61 H41 1.100102 1_554
C61 P1 1.837451 1_555
C62 H42 1.096457 1_555
C62 H46 1.097688 1_555
C62 H44 1.097796 1_555
C62 P6 1.836488 1_555
C63 H43 1.096457 1_555
C63 H47 1.097688 1_555
C63 H45 1.097796 1_555
C63 P7 1.836488 1_555
C64 H50 1.096472 1_555
C64 H52 1.098009 1_556
C64 H48 1.099228 1_556
C64 P4 1.840270 1_555
C65 H51 1.096472 1_555
C65 H53 1.098009 1_554
C65 H49 1.099228 1_554
C65 P5 1.840270 1_555
C66 H56 1.096915 1_555
C66 H58 1.097258 1_555
C66 H54 1.097564 1_555
C66 P4 1.833947 1_555
C67 H57 1.096915 1_555
C67 H59 1.097258 1_555
C67 H55 1.097564 1_555
C67 P5 1.833947 1_555
C68 H60 1.096044 1_555
C68 H62 1.097746 1_555
C68 H64 1.099170 1_555
C68 P2 1.835576 1_555
C69 H61 1.096044 1_555
C69 H63 1.097746 1_555
C69 H65 1.099170 1_555
C69 P3 1.835576 1_555
C70 H70 1.097183 1_555
C70 H68 1.098537 1_555
C70 H66 1.099967 1_555
C70 P6 1.837893 1_565
C71 H71 1.097183 1_555
C71 H69 1.098537 1_555
C71 H67 1.099967 1_555
C71 P7 1.837893 1_545
