# generated using pymatgen
data_MgMn2(P2O7)2
_symmetry_space_group_name_H-M   'P 1'
_cell_length_a   5.06880443
_cell_length_b   6.31644471
_cell_length_c   9.55406228
_cell_angle_alpha   109.86887213
_cell_angle_beta   102.54680150
_cell_angle_gamma   102.71745580
_symmetry_Int_Tables_number   1
_chemical_formula_structural   MgMn2(P2O7)2
_chemical_formula_sum   'Mg1 Mn2 P4 O14'
_cell_volume   266.02417048
_cell_formula_units_Z   1
loop_
 _symmetry_equiv_pos_site_id
 _symmetry_equiv_pos_as_xyz
  1  'x, y, z'
loop_
 _atom_site_type_symbol
 _atom_site_label
 _atom_site_symmetry_multiplicity
 _atom_site_fract_x
 _atom_site_fract_y
 _atom_site_fract_z
 _atom_site_occupancy
  Mg  Mg0  1  0.18336700  0.72771300  0.07036400  1
  Mn  Mn0  1  0.08330300  0.60147100  0.37188300  1
  Mn  Mn1  1  0.91523800  0.38799700  0.63580400  1
  P  P0  1  0.25039300  0.14047800  0.36311000  1
  P  P1  1  0.58815000  0.67704900  0.85986300  1
  P  P2  1  0.40804500  0.33100300  0.13222000  1
  P  P3  1  0.74542500  0.85656500  0.63823400  1
  O  O0  1  0.08531000  0.87775500  0.31375700  1
  O  O1  1  0.06433000  0.30117400  0.40202100  1
  O  O2  1  0.32309500  0.49166100  0.72825000  1
  O  O3  1  0.20461900  0.48271600  0.15957300  1
  O  O4  1  0.39730200  0.20757400  0.96912900  1
  O  O5  1  0.46092300  0.76205800  0.50927500  1
  O  O6  1  0.68904300  0.88767200  0.80121200  1
  O  O7  1  0.28386500  0.11491700  0.19270600  1
  O  O8  1  0.53743600  0.22866100  0.48623500  1
  O  O9  1  0.54074600  0.78459800  0.01540300  1
  O  O10  1  0.84530300  0.58040300  0.87167400  1
  O  O11  1  0.69234600  0.48303400  0.26349800  1
  O  O12  1  0.92595000  0.68476900  0.60463600  1
  O  O13  1  0.92581000  0.09906300  0.65976600  1
loop_
_geom_bond_atom_site_label_1
_geom_bond_atom_site_label_2
_geom_bond_distance
_geom_bond_site_symmetry_2
Mg0 O9 1.985261 1_555
Mg0 O3 2.015656 1_555
Mg0 O10 2.022309 1_454
Mg0 O7 2.203860 1_565
Mg0 O0 2.400876 1_555
Mn0 O11 1.867661 1_455
Mn0 O5 1.887893 1_555
Mn0 O1 1.998252 1_555
Mn0 O0 2.001847 1_555
Mn0 O3 2.183134 1_555
Mn0 O12 2.453172 1_455
Mn1 O2 1.923624 1_655
Mn1 O8 1.925371 1_555
Mn1 O13 1.925557 1_555
Mn1 O12 1.986751 1_555
Mn1 O10 2.314332 1_555
Mn1 O1 2.438023 1_655
O0 P0 1.536780 1_565
O1 P0 1.541192 1_555
O2 P1 1.526384 1_555
O3 P2 1.559401 1_555
O4 P2 1.468814 1_556
O5 P3 1.517585 1_555
O6 P3 1.598421 1_555
O6 P1 1.636202 1_555
O7 P0 1.630582 1_555
O7 P2 1.705584 1_555
O8 P0 1.505039 1_555
O9 P1 1.506100 1_554
O10 P1 1.554881 1_555
O11 P2 1.535797 1_555
O12 P3 1.563940 1_555
O13 P3 1.520518 1_545
