# generated using pymatgen
data_KSm(MoO4)2
_symmetry_space_group_name_H-M   'P 1'
_cell_length_a   7.10703756
_cell_length_b   7.10703756
_cell_length_c   7.10703756
_cell_angle_alpha   135.14763242
_cell_angle_beta   135.14763242
_cell_angle_gamma   65.30089842
_symmetry_Int_Tables_number   1
_chemical_formula_structural   KSm(MoO4)2
_chemical_formula_sum   'K1 Sm1 Mo2 O8'
_cell_volume   175.95402405
_cell_formula_units_Z   1
loop_
 _symmetry_equiv_pos_site_id
 _symmetry_equiv_pos_as_xyz
  1  'x, y, z'
loop_
 _atom_site_type_symbol
 _atom_site_label
 _atom_site_symmetry_multiplicity
 _atom_site_fract_x
 _atom_site_fract_y
 _atom_site_fract_z
 _atom_site_occupancy
  K  K0  1  0.75000000  0.25000000  0.50000000  1
  Sm  Sm0  1  0.00000000  0.00000000  0.00000000  1
  Mo  Mo0  1  0.25000000  0.75000000  0.50000000  1
  Mo  Mo1  1  0.50000000  0.50000000  0.00000000  1
  O  O0  1  0.57784400  0.71227000  0.61773800  1
  O  O1  1  0.18812800  0.58533200  0.92539600  1
  O  O2  1  0.65993600  0.26273100  0.07460400  1
  O  O3  1  0.09453100  0.96010600  0.38226200  1
  O  O4  1  0.41466800  0.34006400  0.60279500  1
  O  O5  1  0.28773000  0.90546900  0.86557400  1
  O  O6  1  0.03989400  0.42215600  0.13442600  1
  O  O7  1  0.73726900  0.81187200  0.39720500  1
loop_
_geom_bond_atom_site_label_1
_geom_bond_atom_site_label_2
_geom_bond_distance
_geom_bond_site_symmetry_2
K0 O4 2.674682 1_555
K0 O2 2.674682 1_555
K0 O1 2.674687 1_655
K0 O7 2.674689 1_545
K0 O3 2.680541 1_645
K0 O5 2.680545 1_544
K0 O6 2.680547 1_656
K0 O0 2.680547 1_555
Mo0 O5 1.797951 1_555
Mo0 O3 1.797953 1_555
Mo0 O6 1.797953 1_555
Mo0 O0 1.797953 1_555
Mo1 O1 1.796665 1_554
Mo1 O7 1.796668 1_555
Mo1 O2 1.796671 1_555
Mo1 O4 1.796671 1_554
O0 Sm0 2.501506 1_666
O1 Sm0 2.500129 1_566
O2 Sm0 2.500127 1_655
O3 Sm0 2.501510 1_565
O4 Sm0 2.500127 1_555
O5 Sm0 2.501509 1_566
O6 Sm0 2.501506 1_555
O7 Sm0 2.500125 1_666
