# generated using pymatgen
data_Mg2Zn
_symmetry_space_group_name_H-M   'P 1'
_cell_length_a   15.15719114
_cell_length_b   15.15719114
_cell_length_c   9.60019096
_cell_angle_alpha   90.00000000
_cell_angle_beta   90.00000000
_cell_angle_gamma   155.65820912
_symmetry_Int_Tables_number   1
_chemical_formula_structural   Mg2Zn
_chemical_formula_sum   'Mg32 Zn16'
_cell_volume   909.08230588
_cell_formula_units_Z   16
loop_
 _symmetry_equiv_pos_site_id
 _symmetry_equiv_pos_as_xyz
  1  'x, y, z'
loop_
 _atom_site_type_symbol
 _atom_site_label
 _atom_site_symmetry_multiplicity
 _atom_site_fract_x
 _atom_site_fract_y
 _atom_site_fract_z
 _atom_site_occupancy
  Mg  Mg0_0  1  0.22019582  0.27980418  0.12500000  1
  Mg  Mg0_1  1  0.22019582  0.27980418  0.62500000  1
  Mg  Mg0_2  1  0.22019582  0.77980418  0.12500000  1
  Mg  Mg0_3  1  0.22019582  0.77980418  0.62500000  1
  Mg  Mg0_4  1  0.72019581  0.27980418  0.12500000  1
  Mg  Mg0_5  1  0.72019581  0.27980418  0.62500000  1
  Mg  Mg0_6  1  0.72019582  0.77980418  0.12500000  1
  Mg  Mg0_7  1  0.72019582  0.77980418  0.62500000  1
  Mg  Mg1_0  1  0.38284766  0.11715234  0.12500000  1
  Mg  Mg1_1  1  0.38284766  0.11715234  0.62500000  1
  Mg  Mg1_2  1  0.38284766  0.61715234  0.12500000  1
  Mg  Mg1_3  1  0.38284766  0.61715234  0.62500000  1
  Mg  Mg1_4  1  0.88284765  0.11715234  0.12500000  1
  Mg  Mg1_5  1  0.88284765  0.11715234  0.62500000  1
  Mg  Mg1_6  1  0.88284765  0.61715234  0.12500000  1
  Mg  Mg1_7  1  0.88284765  0.61715234  0.62500000  1
  Mg  Mg2_0  1  0.11715235  0.38284765  0.37500000  1
  Mg  Mg2_1  1  0.11715235  0.38284765  0.87500000  1
  Mg  Mg2_2  1  0.11715235  0.88284765  0.37500000  1
  Mg  Mg2_3  1  0.11715235  0.88284765  0.87500000  1
  Mg  Mg2_4  1  0.61715234  0.38284765  0.37500000  1
  Mg  Mg2_5  1  0.61715234  0.38284765  0.87500000  1
  Mg  Mg2_6  1  0.61715235  0.88284765  0.37500000  1
  Mg  Mg2_7  1  0.61715235  0.88284765  0.87500000  1
  Mg  Mg3_0  1  0.27980418  0.22019581  0.37500000  1
  Mg  Mg3_1  1  0.27980418  0.22019581  0.87500000  1
  Mg  Mg3_2  1  0.27980419  0.72019581  0.37500000  1
  Mg  Mg3_3  1  0.27980419  0.72019581  0.87500000  1
  Mg  Mg3_4  1  0.77980418  0.22019581  0.37500000  1
  Mg  Mg3_5  1  0.77980418  0.22019581  0.87500000  1
  Mg  Mg3_6  1  0.77980418  0.72019581  0.37500000  1
  Mg  Mg3_7  1  0.77980418  0.72019581  0.87500000  1
  Zn  Zn0_0  1  0.05413156  0.44586844  0.12500000  1
  Zn  Zn0_1  1  0.05413156  0.44586844  0.62500000  1
  Zn  Zn0_2  1  0.05413156  0.94586844  0.12500000  1
  Zn  Zn0_3  1  0.05413156  0.94586844  0.62500000  1
  Zn  Zn0_4  1  0.55413155  0.44586844  0.12500000  1
  Zn  Zn0_5  1  0.55413155  0.44586844  0.62500000  1
  Zn  Zn0_6  1  0.55413155  0.94586844  0.12500000  1
  Zn  Zn0_7  1  0.55413155  0.94586844  0.62500000  1
  Zn  Zn1_0  1  0.44586844  0.05413155  0.37500000  1
  Zn  Zn1_1  1  0.44586844  0.05413155  0.87500000  1
  Zn  Zn1_2  1  0.44586845  0.55413155  0.37500000  1
  Zn  Zn1_3  1  0.44586845  0.55413155  0.87500000  1
  Zn  Zn1_4  1  0.94586844  0.05413155  0.37500000  1
  Zn  Zn1_5  1  0.94586844  0.05413155  0.87500000  1
  Zn  Zn1_6  1  0.94586845  0.55413155  0.37500000  1
  Zn  Zn1_7  1  0.94586845  0.55413155  0.87500000  1
loop_
_geom_bond_atom_site_label_1
_geom_bond_atom_site_label_2
_geom_bond_distance
_geom_bond_site_symmetry_2
Mg0_0 Zn0_4 2.956250 1_555
Mg0_0 Zn0_2 2.956250 1_545
Mg0_0 Zn1_2 2.972007 1_555
Mg0_0 Zn1_3 2.972007 1_554
Mg0_0 Zn1_4 2.972007 1_455
Mg0_0 Zn1_5 2.972007 1_454
Mg0_0 Mg1_2 3.041819 1_555
Mg0_0 Mg1_4 3.041819 1_455
Mg0_1 Zn0_5 2.956250 1_555
Mg0_1 Zn0_3 2.956250 1_545
Mg0_1 Zn1_2 2.972007 1_555
Mg0_1 Zn1_3 2.972007 1_555
Mg0_1 Zn1_4 2.972007 1_455
Mg0_1 Zn1_5 2.972007 1_455
Mg0_1 Mg1_3 3.041819 1_555
Mg0_1 Mg1_5 3.041819 1_455
Mg0_2 Zn0_0 2.956250 1_555
Mg0_2 Zn0_6 2.956250 1_555
Mg0_2 Zn1_6 2.972007 1_455
Mg0_2 Zn1_0 2.972007 1_565
Mg0_2 Zn1_1 2.972007 1_564
Mg0_2 Zn1_7 2.972007 1_454
Mg0_2 Mg1_6 3.041819 1_455
Mg0_2 Mg1_0 3.041819 1_565
Mg0_3 Zn0_1 2.956250 1_555
Mg0_3 Zn0_7 2.956250 1_555
Mg0_3 Zn1_6 2.972007 1_455
Mg0_3 Zn1_0 2.972007 1_565
Mg0_3 Zn1_7 2.972007 1_455
Mg0_3 Zn1_1 2.972007 1_565
Mg0_3 Mg1_7 3.041819 1_455
Mg0_3 Mg1_1 3.041819 1_565
Mg0_4 Zn0_0 2.956250 1_655
Mg0_4 Zn0_6 2.956250 1_545
Mg0_4 Zn1_6 2.972007 1_555
Mg0_4 Zn1_7 2.972007 1_554
Mg0_4 Zn1_0 2.972007 1_555
Mg0_4 Zn1_1 2.972007 1_554
Mg0_4 Mg1_6 3.041819 1_555
Mg0_4 Mg1_0 3.041819 1_555
Mg0_5 Zn0_7 2.956250 1_545
Mg0_5 Zn0_1 2.956250 1_655
Mg0_5 Zn1_6 2.972007 1_555
Mg0_5 Zn1_0 2.972007 1_555
Mg0_5 Zn1_7 2.972007 1_555
Mg0_5 Zn1_1 2.972007 1_555
Mg0_5 Mg1_7 3.041819 1_555
Mg0_5 Mg1_1 3.041819 1_555
Mg0_6 Zn0_4 2.956250 1_555
Mg0_6 Zn0_2 2.956250 1_655
Mg0_6 Zn1_4 2.972007 1_565
Mg0_6 Zn1_2 2.972007 1_555
Mg0_6 Zn1_5 2.972007 1_564
Mg0_6 Zn1_3 2.972007 1_554
Mg0_6 Mg1_2 3.041819 1_555
Mg0_6 Mg1_4 3.041819 1_565
Mg0_7 Zn0_5 2.956250 1_555
Mg0_7 Zn0_3 2.956250 1_655
Mg0_7 Zn1_4 2.972007 1_565
Mg0_7 Zn1_2 2.972007 1_555
Mg0_7 Zn1_5 2.972007 1_565
Mg0_7 Zn1_3 2.972007 1_555
Mg0_7 Mg1_3 3.041819 1_555
Mg0_7 Mg1_5 3.041819 1_565
Mg1_0 Zn0_2 2.827350 1_545
Mg1_0 Zn0_4 2.827350 1_555
Mg1_0 Mg2_2 2.920523 1_545
Mg1_0 Mg2_4 2.920523 1_555
Mg1_0 Mg2_3 2.920523 1_544
Mg1_0 Mg2_5 2.920523 1_554
Mg1_0 Zn1_0 3.041015 1_555
Mg1_0 Zn1_1 3.041015 1_554
Mg1_0 Mg1_6 3.195564 1_555
Mg1_0 Mg1_6 3.195564 1_445
Mg1_1 Zn0_3 2.827350 1_545
Mg1_1 Zn0_5 2.827350 1_555
Mg1_1 Mg2_2 2.920523 1_545
Mg1_1 Mg2_4 2.920523 1_555
Mg1_1 Mg2_3 2.920523 1_545
Mg1_1 Mg2_5 2.920523 1_555
Mg1_1 Zn1_0 3.041015 1_555
Mg1_1 Zn1_1 3.041015 1_555
Mg1_1 Mg1_7 3.195564 1_555
Mg1_1 Mg1_7 3.195564 1_445
Mg1_2 Zn0_6 2.827350 1_555
Mg1_2 Zn0_0 2.827350 1_555
Mg1_2 Mg2_6 2.920523 1_555
Mg1_2 Mg2_7 2.920523 1_554
Mg1_2 Mg2_0 2.920523 1_555
Mg1_2 Mg2_1 2.920523 1_554
Mg1_2 Zn1_2 3.041015 1_555
Mg1_2 Zn1_3 3.041015 1_554
Mg1_2 Mg1_4 3.195564 1_565
Mg1_2 Mg1_4 3.195564 1_455
Mg1_3 Zn0_7 2.827350 1_555
Mg1_3 Zn0_1 2.827350 1_555
Mg1_3 Mg2_6 2.920523 1_555
Mg1_3 Mg2_0 2.920523 1_555
Mg1_3 Mg2_7 2.920523 1_555
Mg1_3 Mg2_1 2.920523 1_555
Mg1_3 Zn1_2 3.041015 1_555
Mg1_3 Zn1_3 3.041015 1_555
Mg1_3 Mg1_5 3.195564 1_565
Mg1_3 Mg1_5 3.195564 1_455
Mg1_4 Zn0_6 2.827350 1_545
Mg1_4 Zn0_0 2.827350 1_655
Mg1_4 Mg2_6 2.920523 1_545
Mg1_4 Mg2_0 2.920523 1_655
Mg1_4 Mg2_7 2.920523 1_544
Mg1_4 Mg2_1 2.920523 1_654
Mg1_4 Zn1_4 3.041015 1_555
Mg1_4 Zn1_5 3.041015 1_554
Mg1_5 Zn0_7 2.827350 1_545
Mg1_5 Zn0_1 2.827350 1_655
Mg1_5 Mg2_6 2.920523 1_545
Mg1_5 Mg2_0 2.920523 1_655
Mg1_5 Mg2_7 2.920523 1_545
Mg1_5 Mg2_1 2.920523 1_655
Mg1_5 Zn1_4 3.041015 1_555
Mg1_5 Zn1_5 3.041015 1_555
Mg1_6 Zn0_2 2.827350 1_655
Mg1_6 Zn0_4 2.827350 1_555
Mg1_6 Mg2_4 2.920523 1_555
Mg1_6 Mg2_2 2.920523 1_655
Mg1_6 Mg2_3 2.920523 1_654
Mg1_6 Mg2_5 2.920523 1_554
Mg1_6 Zn1_6 3.041015 1_555
Mg1_6 Zn1_7 3.041015 1_554
Mg1_7 Zn0_3 2.827350 1_655
Mg1_7 Zn0_5 2.827350 1_555
Mg1_7 Mg2_4 2.920523 1_555
Mg1_7 Mg2_2 2.920523 1_655
Mg1_7 Mg2_3 2.920523 1_655
Mg1_7 Mg2_5 2.920523 1_555
Mg1_7 Zn1_6 3.041015 1_555
Mg1_7 Zn1_7 3.041015 1_555
Mg2_0 Zn1_4 2.827350 1_455
Mg2_0 Zn1_2 2.827350 1_555
Mg2_0 Zn0_1 3.041015 1_555
Mg2_0 Zn0_0 3.041015 1_555
Mg2_0 Mg3_2 3.041819 1_555
Mg2_0 Mg3_4 3.041819 1_455
Mg2_0 Mg2_6 3.195564 1_555
Mg2_0 Mg2_6 3.195564 1_445
Mg2_1 Zn1_5 2.827350 1_455
Mg2_1 Zn1_3 2.827350 1_555
Mg2_1 Zn0_1 3.041015 1_555
Mg2_1 Zn0_0 3.041015 1_556
Mg2_1 Mg3_3 3.041819 1_555
Mg2_1 Mg3_5 3.041819 1_455
Mg2_1 Mg2_7 3.195564 1_555
Mg2_1 Mg2_7 3.195564 1_445
Mg2_2 Zn1_0 2.827350 1_565
Mg2_2 Zn1_6 2.827350 1_455
Mg2_2 Zn0_3 3.041015 1_555
Mg2_2 Zn0_2 3.041015 1_555
Mg2_2 Mg3_6 3.041819 1_455
Mg2_2 Mg3_0 3.041819 1_565
Mg2_2 Mg2_4 3.195564 1_565
Mg2_2 Mg2_4 3.195564 1_455
Mg2_3 Zn1_1 2.827350 1_565
Mg2_3 Zn1_7 2.827350 1_455
Mg2_3 Zn0_3 3.041015 1_555
Mg2_3 Zn0_2 3.041015 1_556
Mg2_3 Mg3_1 3.041819 1_565
Mg2_3 Mg3_7 3.041819 1_455
Mg2_3 Mg2_5 3.195564 1_565
Mg2_3 Mg2_5 3.195564 1_455
Mg2_4 Zn1_0 2.827350 1_555
Mg2_4 Zn1_6 2.827350 1_555
Mg2_4 Zn0_5 3.041015 1_555
Mg2_4 Zn0_4 3.041015 1_555
Mg2_4 Mg3_6 3.041819 1_555
Mg2_4 Mg3_0 3.041819 1_555
Mg2_5 Zn1_1 2.827350 1_555
Mg2_5 Zn1_7 2.827350 1_555
Mg2_5 Zn0_5 3.041015 1_555
Mg2_5 Zn0_4 3.041015 1_556
Mg2_5 Mg3_7 3.041819 1_555
Mg2_5 Mg3_1 3.041819 1_555
Mg2_6 Zn1_4 2.827350 1_565
Mg2_6 Zn1_2 2.827350 1_555
Mg2_6 Zn0_7 3.041015 1_555
Mg2_6 Zn0_6 3.041015 1_555
Mg2_6 Mg3_2 3.041819 1_555
Mg2_6 Mg3_4 3.041819 1_565
Mg2_7 Zn1_5 2.827350 1_565
Mg2_7 Zn1_3 2.827350 1_555
Mg2_7 Zn0_7 3.041015 1_555
Mg2_7 Zn0_6 3.041015 1_556
Mg2_7 Mg3_3 3.041819 1_555
Mg2_7 Mg3_5 3.041819 1_565
Mg3_0 Zn1_2 2.956250 1_555
Mg3_0 Zn1_4 2.956250 1_455
Mg3_0 Zn0_3 2.972007 1_545
Mg3_0 Zn0_5 2.972007 1_555
Mg3_0 Zn0_4 2.972007 1_555
Mg3_0 Zn0_2 2.972007 1_545
Mg3_1 Zn1_3 2.956250 1_555
Mg3_1 Zn1_5 2.956250 1_455
Mg3_1 Zn0_5 2.972007 1_555
Mg3_1 Zn0_3 2.972007 1_545
Mg3_1 Zn0_4 2.972007 1_556
Mg3_1 Zn0_2 2.972007 1_546
Mg3_2 Zn1_6 2.956250 1_455
Mg3_2 Zn1_0 2.956250 1_565
Mg3_2 Zn0_1 2.972007 1_555
Mg3_2 Zn0_7 2.972007 1_555
Mg3_2 Zn0_0 2.972007 1_555
Mg3_2 Zn0_6 2.972007 1_555
Mg3_3 Zn1_7 2.956250 1_455
Mg3_3 Zn1_1 2.956250 1_565
Mg3_3 Zn0_1 2.972007 1_555
Mg3_3 Zn0_0 2.972007 1_556
Mg3_3 Zn0_7 2.972007 1_555
Mg3_3 Zn0_6 2.972007 1_556
Mg3_4 Zn1_6 2.956250 1_555
Mg3_4 Zn1_0 2.956250 1_555
Mg3_4 Zn0_1 2.972007 1_655
Mg3_4 Zn0_7 2.972007 1_545
Mg3_4 Zn0_6 2.972007 1_545
Mg3_4 Zn0_0 2.972007 1_655
Mg3_5 Zn1_7 2.956250 1_555
Mg3_5 Zn1_1 2.956250 1_555
Mg3_5 Zn0_7 2.972007 1_545
Mg3_5 Zn0_1 2.972007 1_655
Mg3_5 Zn0_6 2.972007 1_546
Mg3_5 Zn0_0 2.972007 1_656
Mg3_6 Zn1_2 2.956250 1_555
Mg3_6 Zn1_4 2.956250 1_565
Mg3_6 Zn0_5 2.972007 1_555
Mg3_6 Zn0_4 2.972007 1_555
Mg3_6 Zn0_3 2.972007 1_655
Mg3_6 Zn0_2 2.972007 1_655
Mg3_7 Zn1_3 2.956250 1_555
Mg3_7 Zn1_5 2.956250 1_565
Mg3_7 Zn0_5 2.972007 1_555
Mg3_7 Zn0_4 2.972007 1_556
Mg3_7 Zn0_3 2.972007 1_655
Mg3_7 Zn0_2 2.972007 1_656
