# generated using pymatgen
data_Tb6NiBr10
_symmetry_space_group_name_H-M   'P 1'
_cell_length_a   7.28553805
_cell_length_b   9.09115941
_cell_length_c   9.11453291
_cell_angle_alpha   108.40876847
_cell_angle_beta   97.13062022
_cell_angle_gamma   105.77745432
_symmetry_Int_Tables_number   1
_chemical_formula_structural   Tb6NiBr10
_chemical_formula_sum   'Tb6 Ni1 Br10'
_cell_volume   536.44320832
_cell_formula_units_Z   1
loop_
 _symmetry_equiv_pos_site_id
 _symmetry_equiv_pos_as_xyz
  1  'x, y, z'
loop_
 _atom_site_type_symbol
 _atom_site_label
 _atom_site_symmetry_multiplicity
 _atom_site_fract_x
 _atom_site_fract_y
 _atom_site_fract_z
 _atom_site_occupancy
  Tb  Tb0  1  0.12237680  0.04362256  0.75475402  1
  Tb  Tb1  1  0.87762320  0.95637744  0.24524598  1
  Tb  Tb2  1  0.97297527  0.29696814  0.09388248  1
  Tb  Tb3  1  0.02702473  0.70303186  0.90611752  1
  Tb  Tb4  1  0.35829042  0.13483755  0.17769390  1
  Tb  Tb5  1  0.64170958  0.86516245  0.82230610  1
  Ni  Ni0  1  -0.00000000  -0.00000000  -0.00000000  1
  Br  Br0  1  0.54916535  0.18148559  0.91332695  1
  Br  Br1  1  0.45083465  0.81851441  0.08667305  1
  Br  Br2  1  0.36152276  0.46102829  0.27447281  1
  Br  Br3  1  0.63847724  0.53897171  0.72552719  1
  Br  Br4  1  0.25887197  0.08701339  0.46242681  1
  Br  Br5  1  0.74112803  0.91298661  0.53757319  1
  Br  Br6  1  0.78927891  0.26205722  0.35303640  1
  Br  Br7  1  0.21072109  0.73794278  0.64696360  1
  Br  Br8  1  0.08656084  0.37002244  0.82282636  1
  Br  Br9  1  0.91343916  0.62997756  0.17717364  1
loop_
_geom_bond_atom_site_label_1
_geom_bond_atom_site_label_2
_geom_bond_distance
_geom_bond_site_symmetry_2
Ni0 Tb0 2.609819 1_554
Ni0 Tb1 2.609819 1_445
Ni0 Tb4 2.626030 1_555
Ni0 Tb5 2.626030 1_444
Ni0 Tb2 2.632796 1_455
Ni0 Tb3 2.632796 1_544
Br0 Tb0 2.991487 1_555
Br0 Tb4 3.012699 1_556
Br0 Tb5 3.016488 1_545
Br0 Tb2 3.037879 1_556
Br1 Tb1 2.991487 1_555
Br1 Tb5 3.012699 1_554
Br1 Tb4 3.016488 1_565
Br1 Tb3 3.037879 1_554
Br2 Tb4 2.806653 1_555
Br2 Tb2 2.818485 1_455
Br3 Tb5 2.806653 1_555
Br3 Tb3 2.818485 1_655
Br4 Tb1 2.898320 1_445
Br4 Tb4 2.908064 1_555
Br4 Tb0 3.058103 1_555
Br5 Tb0 2.898320 1_665
Br5 Tb5 2.908064 1_555
Br5 Tb1 3.058103 1_555
Br6 Tb2 2.915223 1_555
Br6 Tb1 2.916765 1_545
Br6 Tb4 3.059924 1_555
Br7 Tb3 2.915223 1_555
Br7 Tb0 2.916765 1_565
Br7 Tb5 3.059924 1_555
Br8 Tb2 2.911104 1_456
Br8 Tb0 2.925180 1_555
Br8 Tb3 3.045346 1_555
Br9 Tb3 2.911104 1_654
Br9 Tb1 2.925180 1_555
Br9 Tb2 3.045346 1_555
