# generated using pymatgen
data_Yb3Cr
_symmetry_space_group_name_H-M   'P 1'
_cell_length_a   5.24152334
_cell_length_b   5.24152334
_cell_length_c   5.24152384
_cell_angle_alpha   119.71106200
_cell_angle_beta   119.71107460
_cell_angle_gamma   90.50117174
_symmetry_Int_Tables_number   1
_chemical_formula_structural   Yb3Cr
_chemical_formula_sum   'Yb3 Cr1'
_cell_volume   102.26621147
_cell_formula_units_Z   1
loop_
 _symmetry_equiv_pos_site_id
 _symmetry_equiv_pos_as_xyz
  1  'x, y, z'
loop_
 _atom_site_type_symbol
 _atom_site_label
 _atom_site_symmetry_multiplicity
 _atom_site_fract_x
 _atom_site_fract_y
 _atom_site_fract_z
 _atom_site_occupancy
  Yb  Yb0  1  0.75000000  0.25000000  0.50000000  1
  Yb  Yb1  1  0.25000000  0.75000000  0.50000000  1
  Yb  Yb2  1  0.50000000  0.50000000  0.00000000  1
  Cr  Cr0  1  0.00000000  0.00000000  0.00000000  1
loop_
_geom_bond_atom_site_label_1
_geom_bond_atom_site_label_2
_geom_bond_distance
_geom_bond_site_symmetry_2
Yb0 Yb2 3.214440 1_656
Yb0 Yb2 3.214440 1_555
Yb0 Yb2 3.214441 1_556
Yb0 Yb2 3.214441 1_545
Yb1 Yb2 3.214440 1_455
Yb1 Yb2 3.214440 1_556
Yb1 Yb2 3.214441 1_555
Yb1 Yb2 3.214441 1_566
Cr0 Yb0 3.214440 1_454
Cr0 Yb0 3.214440 1_555
Cr0 Yb1 3.214440 1_545
Cr0 Yb1 3.214440 1_444
Cr0 Yb0 3.214441 1_455
Cr0 Yb1 3.214441 1_544
Cr0 Yb0 3.214441 1_444
Cr0 Yb1 3.214441 1_555
Cr0 Yb2 3.690072 1_555
Cr0 Yb2 3.690072 1_445
Cr0 Yb2 3.722491 1_455
Cr0 Yb2 3.722491 1_545
Cr0 Yb2 3.722492 1_444
Cr0 Yb2 3.722492 1_556
