# generated using pymatgen
data_LaMn3Ni2
_symmetry_space_group_name_H-M   'P 1'
_cell_length_a   9.12675279
_cell_length_b   9.12675279
_cell_length_c   4.16100800
_cell_angle_alpha   90.00000000
_cell_angle_beta   90.00000000
_cell_angle_gamma   120.00000574
_symmetry_Int_Tables_number   1
_chemical_formula_structural   LaMn3Ni2
_chemical_formula_sum   'La3 Mn9 Ni6'
_cell_volume   300.16616183
_cell_formula_units_Z   3
loop_
 _symmetry_equiv_pos_site_id
 _symmetry_equiv_pos_as_xyz
  1  'x, y, z'
loop_
 _atom_site_type_symbol
 _atom_site_label
 _atom_site_symmetry_multiplicity
 _atom_site_fract_x
 _atom_site_fract_y
 _atom_site_fract_z
 _atom_site_occupancy
  La  La0  1  0.66666700  0.33333300  0.50000000  1
  La  La1  1  0.33333300  0.66666700  0.50000000  1
  La  La2  1  0.00000000  0.00000000  0.00000000  1
  Mn  Mn0  1  0.00000000  0.50000000  0.00000000  1
  Mn  Mn1  1  0.50000000  0.50000000  0.00000000  1
  Mn  Mn2  1  0.50000000  0.00000000  0.00000000  1
  Mn  Mn3  1  0.69572300  0.00000000  0.50000000  1
  Mn  Mn4  1  0.69572300  0.69572300  0.50000000  1
  Mn  Mn5  1  0.00000000  0.30427700  0.50000000  1
  Mn  Mn6  1  0.00000000  0.69572300  0.50000000  1
  Mn  Mn7  1  0.30427700  0.00000000  0.50000000  1
  Mn  Mn8  1  0.30427700  0.30427700  0.50000000  1
  Ni  Ni0  1  0.82013400  0.17986600  0.00000000  1
  Ni  Ni1  1  0.17986600  0.82013400  0.00000000  1
  Ni  Ni2  1  0.64026900  0.82013400  0.00000000  1
  Ni  Ni3  1  0.35973100  0.17986600  0.00000000  1
  Ni  Ni4  1  0.17986600  0.35973100  0.00000000  1
  Ni  Ni5  1  0.82013400  0.64026900  0.00000000  1
loop_
_geom_bond_atom_site_label_1
_geom_bond_atom_site_label_2
_geom_bond_distance
_geom_bond_site_symmetry_2
La0 Mn5 3.183137 1_655
La0 Mn3 3.183137 1_555
La0 Mn6 3.183142 1_655
La0 Mn7 3.183142 1_555
La0 Mn4 3.183146 1_555
La0 Mn8 3.183146 1_555
La0 Ni0 3.195935 1_555
La0 Ni0 3.195935 1_556
La0 Ni5 3.195947 1_556
La0 Ni3 3.195947 1_555
La0 Ni5 3.195947 1_555
La0 Ni3 3.195947 1_556
La0 Mn0 3.357075 1_655
La0 Mn2 3.357075 1_555
La0 Mn2 3.357075 1_556
La0 Mn0 3.357075 1_656
La0 Mn1 3.357081 1_555
La0 Mn1 3.357081 1_556
La1 Mn7 3.183137 1_565
La1 Mn6 3.183137 1_555
La1 Mn3 3.183142 1_565
La1 Mn5 3.183142 1_555
La1 Mn4 3.183146 1_555
La1 Mn8 3.183146 1_555
La1 Ni1 3.195935 1_555
La1 Ni1 3.195935 1_556
La1 Ni4 3.195947 1_555
La1 Ni4 3.195947 1_556
La1 Ni2 3.195947 1_555
La1 Ni2 3.195947 1_556
La1 Mn0 3.357075 1_556
La1 Mn0 3.357075 1_555
La1 Mn2 3.357075 1_566
La1 Mn2 3.357075 1_565
La1 Mn1 3.357081 1_555
La1 Mn1 3.357081 1_556
La2 Ni4 2.843314 1_555
La2 Ni2 2.843314 1_445
La2 Ni5 2.843314 1_445
La2 Ni3 2.843314 1_555
La2 Ni0 2.843322 1_455
La2 Ni1 2.843322 1_545
Mn0 Ni1 2.536783 1_555
Mn0 Ni0 2.536783 1_455
Mn0 Ni5 2.536791 1_455
Mn0 Ni4 2.536791 1_555
Mn1 Ni5 2.536782 1_555
Mn1 Ni2 2.536782 1_555
Mn1 Ni3 2.536782 1_555
Mn1 Ni4 2.536782 1_555
Mn2 Ni0 2.536783 1_555
Mn2 Ni1 2.536783 1_545
Mn2 Ni2 2.536791 1_545
Mn2 Ni3 2.536791 1_555
Mn3 Ni0 2.539416 1_556
Mn3 Ni0 2.539416 1_555
Mn3 Ni2 2.539417 1_545
Mn3 Ni2 2.539417 1_546
Mn4 Ni5 2.539412 1_556
Mn4 Ni2 2.539412 1_556
Mn4 Ni5 2.539412 1_555
Mn4 Ni2 2.539412 1_555
Mn5 Ni0 2.539416 1_456
Mn5 Ni0 2.539416 1_455
Mn5 Ni4 2.539417 1_555
Mn5 Ni4 2.539417 1_556
Mn6 Ni1 2.539416 1_555
Mn6 Ni1 2.539416 1_556
Mn6 Ni5 2.539417 1_455
Mn6 Ni5 2.539417 1_456
Mn7 Ni1 2.539416 1_546
Mn7 Ni1 2.539416 1_545
Mn7 Ni3 2.539417 1_556
Mn7 Ni3 2.539417 1_555
Mn8 Ni4 2.539412 1_555
Mn8 Ni4 2.539412 1_556
Mn8 Ni3 2.539412 1_555
Mn8 Ni3 2.539412 1_556
