# generated using pymatgen
data_Ce2Fe14C
_symmetry_space_group_name_H-M   'P 1'
_cell_length_a   8.75394600
_cell_length_b   8.75394600
_cell_length_c   11.78331900
_cell_angle_alpha   90.00000000
_cell_angle_beta   90.00000000
_cell_angle_gamma   90.00000000
_symmetry_Int_Tables_number   1
_chemical_formula_structural   Ce2Fe14C
_chemical_formula_sum   'Ce8 Fe56 C4'
_cell_volume   902.97424151
_cell_formula_units_Z   4
loop_
 _symmetry_equiv_pos_site_id
 _symmetry_equiv_pos_as_xyz
  1  'x, y, z'
loop_
 _atom_site_type_symbol
 _atom_site_label
 _atom_site_symmetry_multiplicity
 _atom_site_fract_x
 _atom_site_fract_y
 _atom_site_fract_z
 _atom_site_occupancy
  Ce  Ce0  1  0.35640100  0.35640100  0.00000000  1
  Ce  Ce1  1  0.64359900  0.64359900  0.00000000  1
  Ce  Ce2  1  0.14359900  0.85640100  0.50000000  1
  Ce  Ce3  1  0.85640100  0.14359900  0.50000000  1
  Ce  Ce4  1  0.23963900  0.76036100  0.00000000  1
  Ce  Ce5  1  0.76036100  0.23963900  0.00000000  1
  Ce  Ce6  1  0.73963900  0.73963900  0.50000000  1
  Ce  Ce7  1  0.26036100  0.26036100  0.50000000  1
  Fe  Fe0  1  0.06503900  0.27539000  0.12009800  1
  Fe  Fe1  1  0.93496100  0.72461000  0.87990200  1
  Fe  Fe2  1  0.93496100  0.72461000  0.12009800  1
  Fe  Fe3  1  0.22461000  0.56503900  0.62009800  1
  Fe  Fe4  1  0.43496100  0.77539000  0.37990200  1
  Fe  Fe5  1  0.06503900  0.27539000  0.87990200  1
  Fe  Fe6  1  0.77539000  0.43496100  0.37990200  1
  Fe  Fe7  1  0.56503900  0.22461000  0.62009800  1
  Fe  Fe8  1  0.77539000  0.43496100  0.62009800  1
  Fe  Fe9  1  0.56503900  0.22461000  0.37990200  1
  Fe  Fe10  1  0.22461000  0.56503900  0.37990200  1
  Fe  Fe11  1  0.43496100  0.77539000  0.62009800  1
  Fe  Fe12  1  0.27539000  0.06503900  0.87990200  1
  Fe  Fe13  1  0.72461000  0.93496100  0.12009800  1
  Fe  Fe14  1  0.72461000  0.93496100  0.87990200  1
  Fe  Fe15  1  0.27539000  0.06503900  0.12009800  1
  Fe  Fe16  1  0.03727800  0.35867600  0.32366200  1
  Fe  Fe17  1  0.96272200  0.64132400  0.67633800  1
  Fe  Fe18  1  0.96272200  0.64132400  0.32366200  1
  Fe  Fe19  1  0.14132400  0.53727800  0.82366200  1
  Fe  Fe20  1  0.46272200  0.85867600  0.17633800  1
  Fe  Fe21  1  0.03727800  0.35867600  0.67633800  1
  Fe  Fe22  1  0.85867600  0.46272200  0.17633800  1
  Fe  Fe23  1  0.53727800  0.14132400  0.82366200  1
  Fe  Fe24  1  0.85867600  0.46272200  0.82366200  1
  Fe  Fe25  1  0.53727800  0.14132400  0.17633800  1
  Fe  Fe26  1  0.14132400  0.53727800  0.17633800  1
  Fe  Fe27  1  0.46272200  0.85867600  0.82366200  1
  Fe  Fe28  1  0.35867600  0.03727800  0.67633800  1
  Fe  Fe29  1  0.64132400  0.96272200  0.32366200  1
  Fe  Fe30  1  0.64132400  0.96272200  0.67633800  1
  Fe  Fe31  1  0.35867600  0.03727800  0.32366200  1
  Fe  Fe32  1  0.31732800  0.31732800  0.25505400  1
  Fe  Fe33  1  0.68267200  0.68267200  0.74494600  1
  Fe  Fe34  1  0.68267200  0.68267200  0.25505400  1
  Fe  Fe35  1  0.18267200  0.81732800  0.75505400  1
  Fe  Fe36  1  0.18267200  0.81732800  0.24494600  1
  Fe  Fe37  1  0.31732800  0.31732800  0.74494600  1
  Fe  Fe38  1  0.81732800  0.18267200  0.24494600  1
  Fe  Fe39  1  0.81732800  0.18267200  0.75505400  1
  Fe  Fe40  1  0.00000000  0.50000000  0.00000000  1
  Fe  Fe41  1  0.00000000  0.50000000  0.50000000  1
  Fe  Fe42  1  0.50000000  0.00000000  0.50000000  1
  Fe  Fe43  1  0.50000000  0.00000000  0.00000000  1
  Fe  Fe44  1  0.09790400  0.09790400  0.29426500  1
  Fe  Fe45  1  0.90209600  0.90209600  0.70573500  1
  Fe  Fe46  1  0.90209600  0.90209600  0.29426500  1
  Fe  Fe47  1  0.40209600  0.59790400  0.79426500  1
  Fe  Fe48  1  0.40209600  0.59790400  0.20573500  1
  Fe  Fe49  1  0.09790400  0.09790400  0.70573500  1
  Fe  Fe50  1  0.59790400  0.40209600  0.20573500  1
  Fe  Fe51  1  0.59790400  0.40209600  0.79426500  1
  Fe  Fe52  1  0.00000000  0.00000000  0.10725200  1
  Fe  Fe53  1  0.00000000  0.00000000  0.89274800  1
  Fe  Fe54  1  0.50000000  0.50000000  0.60725200  1
  Fe  Fe55  1  0.50000000  0.50000000  0.39274800  1
  C  C0  1  0.12484800  0.12484800  0.00000000  1
  C  C1  1  0.87515200  0.87515200  0.00000000  1
  C  C2  1  0.37515200  0.62484800  0.50000000  1
  C  C3  1  0.62484800  0.37515200  0.50000000  1
loop_
_geom_bond_atom_site_label_1
_geom_bond_atom_site_label_2
_geom_bond_distance
_geom_bond_site_symmetry_2
Ce0 Fe15 3.001827 1_555
Ce0 Fe0 3.001827 1_555
Ce0 Fe12 3.001827 1_554
Ce0 Fe5 3.001827 1_554
Ce0 Fe32 3.044062 1_555
Ce0 Fe37 3.044062 1_554
Ce0 Fe19 3.220155 1_554
Ce0 Fe23 3.220155 1_554
Ce0 Fe25 3.220155 1_555
Ce0 Fe26 3.220155 1_555
Ce0 Fe47 3.241356 1_554
Ce0 Fe51 3.241356 1_554
Ce0 Fe50 3.241356 1_555
Ce0 Fe48 3.241356 1_555
Ce0 Fe43 3.363639 1_555
Ce0 Fe40 3.363639 1_555
Ce1 Fe13 3.001827 1_555
Ce1 Fe2 3.001827 1_555
Ce1 Fe1 3.001827 1_554
Ce1 Fe14 3.001827 1_554
Ce1 Fe33 3.044062 1_554
Ce1 Fe34 3.044062 1_555
Ce1 Fe20 3.220155 1_555
Ce1 Fe27 3.220155 1_554
Ce1 Fe24 3.220155 1_554
Ce1 Fe22 3.220155 1_555
Ce1 Fe47 3.241356 1_554
Ce1 Fe51 3.241356 1_554
Ce1 Fe50 3.241356 1_555
Ce1 Fe48 3.241356 1_555
Ce1 Fe43 3.363639 1_565
Ce1 Fe40 3.363639 1_655
Ce2 Fe10 3.001827 1_555
Ce2 Fe4 3.001827 1_555
Ce2 Fe3 3.001827 1_555
Ce2 Fe11 3.001827 1_555
Ce2 Fe36 3.044062 1_555
Ce2 Fe35 3.044062 1_555
Ce2 Fe31 3.220155 1_565
Ce2 Fe28 3.220155 1_565
Ce2 Fe18 3.220155 1_455
Ce2 Fe17 3.220155 1_455
Ce2 Fe49 3.241356 1_565
Ce2 Fe44 3.241356 1_565
Ce2 Fe45 3.241356 1_455
Ce2 Fe46 3.241356 1_455
Ce2 Fe42 3.363639 1_565
Ce2 Fe41 3.363639 1_555
Ce3 Fe6 3.001827 1_555
Ce3 Fe9 3.001827 1_555
Ce3 Fe7 3.001827 1_555
Ce3 Fe8 3.001827 1_555
Ce3 Fe39 3.044062 1_555
Ce3 Fe38 3.044062 1_555
Ce3 Fe16 3.220155 1_655
Ce3 Fe21 3.220155 1_655
Ce3 Fe29 3.220155 1_545
Ce3 Fe30 3.220155 1_545
Ce3 Fe46 3.241356 1_545
Ce3 Fe45 3.241356 1_545
Ce3 Fe49 3.241356 1_655
Ce3 Fe44 3.241356 1_655
Ce3 Fe41 3.363639 1_655
Ce3 Fe42 3.363639 1_555
Ce4 Fe36 2.971190 1_555
Ce4 Fe35 2.971190 1_554
Ce4 Fe26 2.978558 1_555
Ce4 Fe19 2.978558 1_554
Ce4 Fe27 2.978558 1_554
Ce4 Fe20 2.978558 1_555
Ce4 Fe1 3.035492 1_454
Ce4 Fe2 3.035492 1_455
Ce4 Fe15 3.035492 1_565
Ce4 Fe12 3.035492 1_564
Ce4 Fe40 3.097644 1_555
Ce4 Fe43 3.097644 1_565
Ce4 Fe48 3.149906 1_555
Ce4 Fe47 3.149906 1_554
Ce4 Fe53 3.224682 1_564
Ce4 Fe52 3.224682 1_565
Ce5 Fe39 2.971190 1_554
Ce5 Fe38 2.971190 1_555
Ce5 Fe23 2.978558 1_554
Ce5 Fe25 2.978558 1_555
Ce5 Fe24 2.978558 1_554
Ce5 Fe22 2.978558 1_555
Ce5 Fe14 3.035492 1_544
Ce5 Fe13 3.035492 1_545
Ce5 Fe0 3.035492 1_655
Ce5 Fe5 3.035492 1_654
Ce5 Fe43 3.097644 1_555
Ce5 Fe40 3.097644 1_655
Ce5 Fe51 3.149906 1_554
Ce5 Fe50 3.149906 1_555
Ce5 Fe53 3.224682 1_654
Ce5 Fe52 3.224682 1_655
Ce6 Fe33 2.971190 1_555
Ce6 Fe34 2.971190 1_555
Ce6 Fe30 2.978558 1_555
Ce6 Fe29 2.978558 1_555
Ce6 Fe18 2.978558 1_555
Ce6 Fe17 2.978558 1_555
Ce6 Fe6 3.035492 1_555
Ce6 Fe4 3.035492 1_555
Ce6 Fe11 3.035492 1_555
Ce6 Fe8 3.035492 1_555
Ce6 Fe41 3.097644 1_655
Ce6 Fe42 3.097644 1_565
Ce6 Fe45 3.149906 1_555
Ce6 Fe46 3.149906 1_555
Ce6 Fe54 3.224682 1_555
Ce6 Fe55 3.224682 1_555
Ce7 Fe32 2.971190 1_555
Ce7 Fe37 2.971190 1_555
Ce7 Fe31 2.978558 1_555
Ce7 Fe21 2.978558 1_555
Ce7 Fe28 2.978558 1_555
Ce7 Fe16 2.978558 1_555
Ce7 Fe3 3.035492 1_555
Ce7 Fe7 3.035492 1_555
Ce7 Fe10 3.035492 1_555
Ce7 Fe9 3.035492 1_555
Ce7 Fe42 3.097644 1_555
Ce7 Fe41 3.097644 1_555
Ce7 Fe44 3.149906 1_555
Ce7 Fe49 3.149906 1_555
Ce7 Fe55 3.224682 1_555
Ce7 Fe54 3.224682 1_555
Fe0 Fe26 2.478087 1_555
Fe0 Fe40 2.488544 1_555
Fe0 Fe16 2.518767 1_555
Fe0 Fe22 2.528206 1_455
Fe0 Fe44 2.590088 1_555
Fe0 Fe38 2.743200 1_455
Fe0 Fe32 2.746123 1_555
Fe1 Fe24 2.478087 1_555
Fe1 Fe40 2.488544 1_656
Fe1 Fe17 2.518767 1_555
Fe1 Fe19 2.528206 1_655
Fe1 Fe45 2.590088 1_555
Fe1 Fe35 2.743200 1_655
Fe1 Fe33 2.746123 1_555
Fe2 Fe22 2.478087 1_555
Fe2 Fe40 2.488544 1_655
Fe2 Fe26 2.528206 1_655
Fe2 Fe46 2.590088 1_555
Fe2 Fe36 2.743200 1_655
Fe2 Fe34 2.746123 1_555
Fe3 Fe41 2.488544 1_555
Fe3 Fe47 2.590088 1_555
Fe3 Fe37 2.743200 1_555
Fe3 Fe35 2.746123 1_555
Fe4 Fe42 2.488544 1_565
Fe4 Fe48 2.590088 1_555
Fe10 Fe18 2.478087 1_455
Fe10 Fe41 2.488544 1_555
Fe10 Fe26 2.518767 1_555
Fe10 Fe16 2.528206 1_555
Fe10 Fe48 2.590088 1_555
Fe10 Fe32 2.743200 1_555
Fe10 Fe36 2.746123 1_555
Fe11 Fe28 2.478087 1_565
Fe11 Fe42 2.488544 1_565
Fe11 Fe27 2.518767 1_555
Fe11 Fe30 2.528206 1_555
Fe11 Fe47 2.590088 1_555
Fe11 Fe33 2.743200 1_555
Fe11 Fe35 2.746123 1_555
Fe12 Fe23 2.478087 1_555
Fe12 Fe43 2.488544 1_556
Fe12 Fe28 2.518767 1_555
Fe12 Fe27 2.528206 1_545
Fe12 Fe49 2.590088 1_555
Fe12 Fe35 2.743200 1_545
Fe12 Fe37 2.746123 1_555
Fe13 Fe20 2.478087 1_555
Fe13 Fe43 2.488544 1_565
Fe13 Fe29 2.518767 1_555
Fe13 Fe25 2.528206 1_565
Fe13 Fe46 2.590088 1_555
Fe13 Fe38 2.743200 1_565
Fe13 Fe34 2.746123 1_555
Fe14 Fe27 2.478087 1_555
Fe14 Fe43 2.488544 1_566
Fe14 Fe30 2.518767 1_555
Fe14 Fe23 2.528206 1_565
Fe14 Fe45 2.590088 1_555
Fe14 Fe39 2.743200 1_565
Fe14 Fe33 2.746123 1_555
Fe15 Fe25 2.478087 1_555
Fe15 Fe43 2.488544 1_555
Fe15 Fe31 2.518767 1_555
Fe15 Fe20 2.528206 1_545
Fe15 Fe44 2.590088 1_555
Fe15 Fe36 2.743200 1_545
Fe15 Fe32 2.746123 1_555
Fe16 Fe44 2.369125 1_555
Fe16 Fe41 2.440176 1_555
Fe16 Fe6 2.478087 1_455
Fe16 Fe26 2.507509 1_555
Fe16 Fe22 2.507509 1_455
Fe16 Fe18 2.558916 1_455
Fe16 Fe32 2.606652 1_555
Fe16 Fe38 2.634664 1_455
Fe17 Fe45 2.369125 1_555
Fe17 Fe41 2.440176 1_655
Fe17 Fe3 2.478087 1_655
Fe17 Fe24 2.507509 1_555
Fe17 Fe19 2.507509 1_655
Fe17 Fe8 2.528206 1_555
Fe17 Fe21 2.558916 1_655
Fe17 Fe33 2.606652 1_555
Fe17 Fe35 2.634664 1_655
Fe18 Fe46 2.369125 1_555
Fe18 Fe41 2.440176 1_655
Fe18 Fe22 2.507509 1_555
Fe18 Fe26 2.507509 1_655
Fe18 Fe2 2.518767 1_555
Fe18 Fe6 2.528206 1_555
Fe18 Fe34 2.606652 1_555
Fe18 Fe36 2.634664 1_655
Fe19 Fe47 2.369125 1_555
Fe19 Fe40 2.440176 1_556
Fe19 Fe5 2.478087 1_555
Fe19 Fe21 2.507509 1_555
Fe19 Fe3 2.518767 1_555
Fe19 Fe24 2.558916 1_455
Fe19 Fe35 2.606652 1_555
Fe19 Fe37 2.634664 1_555
Fe20 Fe48 2.369125 1_555
Fe20 Fe43 2.440176 1_565
Fe20 Fe31 2.507509 1_565
Fe20 Fe29 2.507509 1_555
Fe20 Fe4 2.518767 1_555
Fe20 Fe25 2.558916 1_565
Fe20 Fe36 2.606652 1_555
Fe20 Fe34 2.634664 1_555
Fe21 Fe49 2.369125 1_555
Fe21 Fe41 2.440176 1_555
Fe21 Fe8 2.478087 1_455
Fe21 Fe24 2.507509 1_455
Fe21 Fe5 2.518767 1_555
Fe21 Fe3 2.528206 1_555
Fe21 Fe37 2.606652 1_555
Fe21 Fe39 2.634664 1_455
Fe22 Fe50 2.369125 1_555
Fe22 Fe40 2.440176 1_655
Fe22 Fe6 2.518767 1_555
Fe22 Fe26 2.558916 1_655
Fe22 Fe38 2.606652 1_555
Fe22 Fe34 2.634664 1_555
Fe23 Fe51 2.369125 1_555
Fe23 Fe43 2.440176 1_556
Fe23 Fe28 2.507509 1_555
Fe23 Fe30 2.507509 1_545
Fe23 Fe7 2.518767 1_555
Fe23 Fe27 2.558916 1_545
Fe23 Fe39 2.606652 1_555
Fe23 Fe37 2.634664 1_555
Fe24 Fe51 2.369125 1_555
Fe24 Fe40 2.440176 1_656
Fe24 Fe8 2.518767 1_555
Fe24 Fe5 2.528206 1_655
Fe24 Fe39 2.606652 1_555
Fe24 Fe33 2.634664 1_555
Fe25 Fe50 2.369125 1_555
Fe25 Fe43 2.440176 1_555
Fe25 Fe29 2.507509 1_545
Fe25 Fe31 2.507509 1_555
Fe25 Fe9 2.518767 1_555
Fe25 Fe38 2.606652 1_555
Fe25 Fe32 2.634664 1_555
Fe26 Fe48 2.369125 1_555
Fe26 Fe40 2.440176 1_555
Fe26 Fe36 2.606652 1_555
Fe26 Fe32 2.634664 1_555
Fe27 Fe47 2.369125 1_555
Fe27 Fe43 2.440176 1_566
Fe27 Fe30 2.507509 1_555
Fe27 Fe28 2.507509 1_565
Fe27 Fe35 2.606652 1_555
Fe27 Fe33 2.634664 1_555
Fe28 Fe49 2.369125 1_555
Fe28 Fe42 2.440176 1_555
Fe28 Fe7 2.528206 1_555
Fe28 Fe30 2.558916 1_545
Fe28 Fe37 2.606652 1_555
Fe28 Fe35 2.634664 1_545
Fe29 Fe46 2.369125 1_555
Fe29 Fe42 2.440176 1_565
Fe29 Fe9 2.478087 1_565
Fe29 Fe4 2.528206 1_555
Fe29 Fe31 2.558916 1_565
Fe29 Fe34 2.606652 1_555
Fe29 Fe38 2.634664 1_565
Fe30 Fe45 2.369125 1_555
Fe30 Fe42 2.440176 1_565
Fe30 Fe7 2.478087 1_565
Fe30 Fe33 2.606652 1_555
Fe30 Fe39 2.634664 1_565
Fe31 Fe44 2.369125 1_555
Fe31 Fe42 2.440176 1_555
Fe31 Fe4 2.478087 1_545
Fe31 Fe9 2.528206 1_555
Fe31 Fe32 2.606652 1_555
Fe31 Fe36 2.634664 1_545
Fe32 Fe50 2.630785 1_555
Fe32 Fe48 2.630785 1_555
Fe32 Fe9 2.743200 1_555
Fe32 Fe44 2.755471 1_555
Fe32 Fe55 2.783294 1_555
Fe33 Fe47 2.630785 1_555
Fe33 Fe51 2.630785 1_555
Fe33 Fe8 2.743200 1_555
Fe33 Fe45 2.755471 1_555
Fe33 Fe54 2.783294 1_555
Fe34 Fe50 2.630785 1_555
Fe34 Fe48 2.630785 1_555
Fe34 Fe4 2.743200 1_555
Fe34 Fe6 2.743200 1_555
Fe34 Fe46 2.755471 1_555
Fe34 Fe55 2.783294 1_555
Fe35 Fe49 2.630785 1_565
Fe35 Fe45 2.630785 1_455
Fe35 Fe47 2.755471 1_555
Fe35 Fe53 2.783294 1_565
Fe36 Fe44 2.630785 1_565
Fe36 Fe46 2.630785 1_455
Fe36 Fe4 2.746123 1_555
Fe36 Fe48 2.755471 1_555
Fe36 Fe52 2.783294 1_565
Fe37 Fe47 2.630785 1_555
Fe37 Fe51 2.630785 1_555
Fe37 Fe7 2.743200 1_555
Fe37 Fe5 2.746123 1_555
Fe37 Fe49 2.755471 1_555
Fe37 Fe54 2.783294 1_555
Fe38 Fe44 2.630785 1_655
Fe38 Fe46 2.630785 1_545
Fe38 Fe6 2.746123 1_555
Fe38 Fe9 2.746123 1_555
Fe38 Fe50 2.755471 1_555
Fe38 Fe52 2.783294 1_655
Fe39 Fe49 2.630785 1_655
Fe39 Fe45 2.630785 1_545
Fe39 Fe5 2.743200 1_655
Fe39 Fe8 2.746123 1_555
Fe39 Fe7 2.746123 1_555
Fe39 Fe51 2.755471 1_555
Fe39 Fe53 2.783294 1_655
Fe40 Fe5 2.488544 1_554
Fe41 Fe6 2.488544 1_455
Fe41 Fe8 2.488544 1_455
Fe42 Fe9 2.488544 1_555
Fe42 Fe7 2.488544 1_555
Fe44 Fe46 2.424093 1_445
Fe44 Fe52 2.514967 1_555
Fe45 Fe49 2.424093 1_665
Fe45 Fe53 2.514967 1_665
Fe46 Fe52 2.514967 1_665
Fe47 Fe51 2.424093 1_555
Fe47 Fe54 2.514967 1_555
Fe48 Fe50 2.424093 1_555
Fe48 Fe55 2.514967 1_555
Fe49 Fe53 2.514967 1_555
Fe49 Fe5 2.590088 1_555
Fe50 Fe55 2.514967 1_555
Fe50 Fe9 2.590088 1_555
Fe50 Fe6 2.590088 1_555
Fe51 Fe54 2.514967 1_555
Fe51 Fe7 2.590088 1_555
Fe51 Fe8 2.590088 1_555
C0 Fe53 1.996514 1_554
C0 Fe52 1.996514 1_555
C0 Fe15 2.003365 1_555
C0 Fe0 2.003365 1_555
C0 Fe5 2.003365 1_554
C0 Fe12 2.003365 1_554
C0 Ce0 2.866614 1_555
C1 Fe52 1.996514 1_665
C1 Fe53 1.996514 1_664
C1 Fe13 2.003365 1_555
C1 Fe1 2.003365 1_554
C1 Fe14 2.003365 1_554
C1 Fe2 2.003365 1_555
C1 Ce1 2.866614 1_555
C2 Fe55 1.996514 1_555
C2 Fe54 1.996514 1_555
C2 Fe10 2.003365 1_555
C2 Fe4 2.003365 1_555
C2 Fe3 2.003365 1_555
C2 Fe11 2.003365 1_555
C2 Ce2 2.866614 1_555
C3 Fe54 1.996514 1_555
C3 Fe55 1.996514 1_555
C3 Fe9 2.003365 1_555
C3 Fe6 2.003365 1_555
C3 Fe7 2.003365 1_555
C3 Fe8 2.003365 1_555
C3 Ce3 2.866614 1_555
