# generated using pymatgen
data_Li2Fe3TeO8
_symmetry_space_group_name_H-M   'P 1'
_cell_length_a   6.06333119
_cell_length_b   6.13956494
_cell_length_c   10.50708889
_cell_angle_alpha   106.15201001
_cell_angle_beta   89.82988352
_cell_angle_gamma   61.09403121
_symmetry_Int_Tables_number   1
_chemical_formula_structural   Li2Fe3TeO8
_chemical_formula_sum   'Li4 Fe6 Te2 O16'
_cell_volume   324.46987280
_cell_formula_units_Z   2
loop_
 _symmetry_equiv_pos_site_id
 _symmetry_equiv_pos_as_xyz
  1  'x, y, z'
loop_
 _atom_site_type_symbol
 _atom_site_label
 _atom_site_symmetry_multiplicity
 _atom_site_fract_x
 _atom_site_fract_y
 _atom_site_fract_z
 _atom_site_occupancy
  Li  Li0  1  0.28387600  0.42214000  0.57785200  1
  Li  Li1  1  0.79073200  0.41465400  0.06523300  1
  Li  Li2  1  0.21288600  0.58209000  0.92544900  1
  Li  Li3  1  0.70969300  0.58396400  0.43381000  1
  Fe  Fe0  1  0.24763000  0.00328800  0.75014600  1
  Fe  Fe1  1  0.75248300  0.99552900  0.25012000  1
  Fe  Fe2  1  0.99949100  0.00110600  0.50282200  1
  Fe  Fe3  1  0.75254100  0.99959800  0.74859200  1
  Fe  Fe4  1  0.24942700  0.99904200  0.24974000  1
  Fe  Fe5  1  0.50158900  0.99681500  0.99479100  1
  Te  Te0  1  0.74860500  0.50050600  0.75117200  1
  Te  Te1  1  0.25319300  0.49731100  0.24773600  1
  O  O0  1  0.08475500  0.80638100  0.63764500  1
  O  O1  1  0.59479300  0.81288700  0.13731800  1
  O  O2  1  0.41191800  0.19488000  0.87025400  1
  O  O3  1  0.90746800  0.18707100  0.35540000  1
  O  O4  1  0.85870900  0.26983700  0.86313800  1
  O  O5  1  0.37088600  0.25843200  0.35803500  1
  O  O6  1  0.63068900  0.27286400  0.64218700  1
  O  O7  1  0.15136500  0.25499100  0.13329800  1
  O  O8  1  0.08208800  0.27997800  0.63956400  1
  O  O9  1  0.59385100  0.25871600  0.13555000  1
  O  O10  1  0.41535800  0.73509600  0.87105100  1
  O  O11  1  0.91096400  0.72475100  0.35432200  1
  O  O12  1  0.85135600  0.74592700  0.86940600  1
  O  O13  1  0.36424100  0.72924300  0.35613700  1
  O  O14  1  0.63628500  0.73707200  0.64181700  1
  O  O15  1  0.13312600  0.73583200  0.13741400  1
loop_
_geom_bond_atom_site_label_1
_geom_bond_atom_site_label_2
_geom_bond_distance
_geom_bond_site_symmetry_2
Li0 O0 1.958316 1_555
Li0 O8 2.005433 1_555
Li0 O6 2.051540 1_555
Li0 O5 2.193522 1_555
Li1 O4 2.014812 1_554
Li1 O1 2.029586 1_555
Li1 O9 2.093015 1_555
Li1 O7 2.140301 1_655
Li2 O2 1.974717 1_555
Li2 O10 2.031191 1_555
Li2 O12 2.090288 1_455
Li2 O15 2.113684 1_556
Li3 O3 2.026521 1_555
Li3 O14 2.074863 1_555
Li3 O11 2.085513 1_555
Li3 O13 2.111383 1_555
Fe0 O0 2.049414 1_545
Fe0 O2 2.069511 1_555
Fe0 O8 2.167934 1_555
Fe0 O14 2.178466 1_545
Fe0 O4 2.195479 1_455
Fe0 O10 2.216282 1_545
Fe1 O3 1.959703 1_565
Fe1 O1 1.969801 1_555
Fe1 O11 2.088163 1_555
Fe1 O9 2.138187 1_565
Fe1 O5 2.144795 1_565
Fe1 O15 2.155690 1_655
Fe2 O0 2.013057 1_645
Fe2 O3 2.094626 1_555
Fe2 O8 2.170515 1_655
Fe2 O6 2.223241 1_555
Fe2 O11 2.239186 1_545
Fe2 O13 2.243289 1_645
Fe3 O0 1.931386 1_655
Fe3 O2 2.018617 1_565
Fe3 O14 2.109600 1_555
Fe3 O6 2.112052 1_565
Fe3 O4 2.131155 1_565
Fe3 O12 2.144369 1_555
Fe4 O3 1.955377 1_465
Fe4 O1 2.001775 1_555
Fe4 O13 2.097214 1_555
Fe4 O7 2.119072 1_565
Fe4 O5 2.122233 1_565
Fe4 O15 2.132392 1_555
Fe5 O2 1.933114 1_565
Fe5 O1 2.041113 1_556
Fe5 O10 2.049289 1_555
Fe5 O12 2.074169 1_555
Fe5 O7 2.141014 1_566
Fe5 O9 2.153419 1_566
O4 Te0 1.962891 1_555
O5 Te1 1.985467 1_555
O6 Te0 1.963734 1_555
O7 Te1 1.984314 1_555
O8 Te0 1.937207 1_455
O9 Te1 1.975199 1_555
O10 Te0 1.976316 1_555
O11 Te1 1.955716 1_655
O12 Te0 2.018041 1_555
O13 Te1 1.951255 1_555
O14 Te0 1.967334 1_555
O15 Te1 1.984178 1_555
