# generated using pymatgen
data_Na6FeSe4
_symmetry_space_group_name_H-M   'P 1'
_cell_length_a   9.35791019
_cell_length_b   9.35791019
_cell_length_c   7.23878200
_cell_angle_alpha   90.00000000
_cell_angle_beta   90.00000000
_cell_angle_gamma   120.00000131
_symmetry_Int_Tables_number   1
_chemical_formula_structural   Na6FeSe4
_chemical_formula_sum   'Na12 Fe2 Se8'
_cell_volume   548.97664535
_cell_formula_units_Z   2
loop_
 _symmetry_equiv_pos_site_id
 _symmetry_equiv_pos_as_xyz
  1  'x, y, z'
loop_
 _atom_site_type_symbol
 _atom_site_label
 _atom_site_symmetry_multiplicity
 _atom_site_fract_x
 _atom_site_fract_y
 _atom_site_fract_z
 _atom_site_occupancy
  Na  Na0  1  0.14823400  0.85176600  0.54155700  1
  Na  Na1  1  0.29646800  0.14823400  0.04155700  1
  Na  Na2  1  0.85176600  0.70353200  0.04155700  1
  Na  Na3  1  0.14823400  0.29646800  0.54155700  1
  Na  Na4  1  0.70353200  0.85176600  0.54155700  1
  Na  Na5  1  0.85176600  0.14823400  0.04155700  1
  Na  Na6  1  0.53002200  0.46997800  0.36993800  1
  Na  Na7  1  0.06004300  0.53002200  0.86993800  1
  Na  Na8  1  0.46997800  0.93995700  0.86993800  1
  Na  Na9  1  0.53002200  0.06004300  0.36993800  1
  Na  Na10  1  0.93995700  0.46997800  0.36993800  1
  Na  Na11  1  0.46997800  0.53002200  0.86993800  1
  Fe  Fe0  1  0.33333300  0.66666700  0.25279100  1
  Fe  Fe1  1  0.66666700  0.33333300  0.75279100  1
  Se  Se0  1  0.33333300  0.66666700  0.59585800  1
  Se  Se1  1  0.66666700  0.33333300  0.09585800  1
  Se  Se2  1  0.18797900  0.81202100  0.14502200  1
  Se  Se3  1  0.37595700  0.18797900  0.64502200  1
  Se  Se4  1  0.81202100  0.62404300  0.64502200  1
  Se  Se5  1  0.18797900  0.37595700  0.14502200  1
  Se  Se6  1  0.62404300  0.81202100  0.14502200  1
  Se  Se7  1  0.81202100  0.18797900  0.64502200  1
loop_
_geom_bond_atom_site_label_1
_geom_bond_atom_site_label_2
_geom_bond_distance
_geom_bond_site_symmetry_2
Na0 Se3 2.880339 1_565
Na0 Se4 2.880339 1_455
Na0 Se2 2.941831 1_555
Na0 Se0 3.025794 1_555
Na1 Se5 2.880332 1_555
Na1 Se2 2.880340 1_545
Na1 Se3 2.941829 1_554
Na1 Se1 3.025802 1_555
Na2 Se6 2.880332 1_555
Na2 Se2 2.880340 1_655
Na2 Se4 2.941829 1_554
Na2 Se1 3.025802 1_555
Na3 Se3 2.880332 1_555
Na3 Se7 2.880340 1_455
Na3 Se5 2.941829 1_555
Na3 Se0 3.025802 1_555
Na4 Se4 2.880332 1_555
Na4 Se7 2.880340 1_565
Na4 Se6 2.941829 1_555
Na4 Se0 3.025802 1_555
Na5 Se5 2.880339 1_655
Na5 Se6 2.880339 1_545
Na5 Se7 2.941831 1_554
Na5 Se1 3.025794 1_555
Na6 Se1 2.973481 1_555
Na6 Se4 3.033652 1_555
Na6 Se3 3.033652 1_555
Na6 Se5 3.294519 1_555
Na6 Se6 3.294519 1_555
Na7 Se0 2.973481 1_555
Na7 Se2 3.033652 1_556
Na7 Se5 3.033664 1_556
Na7 Se7 3.294519 1_455
Na7 Se4 3.294519 1_455
Na8 Se0 2.973481 1_555
Na8 Se2 3.033652 1_556
Na8 Se6 3.033664 1_556
Na8 Se7 3.294519 1_565
Na8 Se3 3.294519 1_565
Na9 Se1 2.973481 1_555
Na9 Se7 3.033652 1_555
Na9 Se3 3.033664 1_555
Na9 Se2 3.294519 1_545
Na9 Se6 3.294519 1_545
Na10 Se1 2.973481 1_555
Na10 Se7 3.033652 1_555
Na10 Se4 3.033664 1_555
Na10 Se2 3.294519 1_655
Na10 Se5 3.294519 1_655
Na11 Se0 2.973481 1_555
Na11 Se5 3.033652 1_556
Na11 Se6 3.033652 1_556
Na11 Se3 3.294519 1_555
Na11 Se4 3.294519 1_555
Fe0 Se2 2.481752 1_555
Fe0 Se6 2.481767 1_555
Fe0 Se5 2.481767 1_555
Fe0 Se0 2.483387 1_555
Fe1 Se7 2.481752 1_555
Fe1 Se3 2.481767 1_555
Fe1 Se4 2.481767 1_555
Fe1 Se1 2.483387 1_556
