# generated using pymatgen
data_Ba7V6CoCl4O21
_symmetry_space_group_name_H-M   'P 1'
_cell_length_a   10.07483770
_cell_length_b   10.07483770
_cell_length_c   15.03349600
_cell_angle_alpha   90.00000000
_cell_angle_beta   90.00000000
_cell_angle_gamma   115.41707775
_symmetry_Int_Tables_number   1
_chemical_formula_structural   Ba7V6CoCl4O21
_chemical_formula_sum   'Ba14 V12 Co2 Cl8 O42'
_cell_volume   1378.23600747
_cell_formula_units_Z   2
loop_
 _symmetry_equiv_pos_site_id
 _symmetry_equiv_pos_as_xyz
  1  'x, y, z'
loop_
 _atom_site_type_symbol
 _atom_site_label
 _atom_site_symmetry_multiplicity
 _atom_site_fract_x
 _atom_site_fract_y
 _atom_site_fract_z
 _atom_site_occupancy
  Ba  Ba0  1  0.54476500  0.84676200  0.25000000  1
  Ba  Ba1  1  0.15323800  0.45523500  0.75000000  1
  Ba  Ba2  1  0.45523500  0.15323800  0.75000000  1
  Ba  Ba3  1  0.84676200  0.54476500  0.25000000  1
  Ba  Ba4  1  0.54542000  0.83682200  0.96048200  1
  Ba  Ba5  1  0.16317800  0.45458000  0.03951800  1
  Ba  Ba6  1  0.54542000  0.83682200  0.53951800  1
  Ba  Ba7  1  0.16317800  0.45458000  0.46048200  1
  Ba  Ba8  1  0.45458000  0.16317800  0.03951800  1
  Ba  Ba9  1  0.83682200  0.54542000  0.96048200  1
  Ba  Ba10  1  0.45458000  0.16317800  0.46048200  1
  Ba  Ba11  1  0.83682200  0.54542000  0.53951800  1
  Ba  Ba12  1  0.86593700  0.86593700  0.75000000  1
  Ba  Ba13  1  0.13406300  0.13406300  0.25000000  1
  V  V0  1  0.49263900  0.49263900  0.13753600  1
  V  V1  1  0.50736100  0.50736100  0.86246400  1
  V  V2  1  0.49263900  0.49263900  0.36246400  1
  V  V3  1  0.50736100  0.50736100  0.63753600  1
  V  V4  1  0.82573700  0.16820300  0.86857000  1
  V  V5  1  0.83179700  0.17426300  0.13143000  1
  V  V6  1  0.82573700  0.16820300  0.63143000  1
  V  V7  1  0.83179700  0.17426300  0.36857000  1
  V  V8  1  0.17426300  0.83179700  0.13143000  1
  V  V9  1  0.16820300  0.82573700  0.86857000  1
  V  V10  1  0.17426300  0.83179700  0.36857000  1
  V  V11  1  0.16820300  0.82573700  0.63143000  1
  Co  Co0  1  0.00000000  0.00000000  0.00000000  1
  Co  Co1  1  0.00000000  0.00000000  0.50000000  1
  Cl  Cl0  1  0.81670200  0.81670200  0.11081000  1
  Cl  Cl1  1  0.18329800  0.18329800  0.88919000  1
  Cl  Cl2  1  0.81670200  0.81670200  0.38919000  1
  Cl  Cl3  1  0.18329800  0.18329800  0.61081000  1
  Cl  Cl4  1  0.50951400  0.84114800  0.75000000  1
  Cl  Cl5  1  0.15885200  0.49048600  0.25000000  1
  Cl  Cl6  1  0.49048600  0.15885200  0.25000000  1
  Cl  Cl7  1  0.84114800  0.50951400  0.75000000  1
  O  O0  1  0.55815600  0.55815600  0.25000000  1
  O  O1  1  0.44184400  0.44184400  0.75000000  1
  O  O2  1  0.33328100  0.33328100  0.12679000  1
  O  O3  1  0.66671900  0.66671900  0.87321000  1
  O  O4  1  0.33328100  0.33328100  0.37321000  1
  O  O5  1  0.66671900  0.66671900  0.62679000  1
  O  O6  1  0.94569400  0.33260600  0.91199800  1
  O  O7  1  0.66739400  0.05430600  0.08800200  1
  O  O8  1  0.94569400  0.33260600  0.58800200  1
  O  O9  1  0.66739400  0.05430600  0.41199800  1
  O  O10  1  0.05430600  0.66739400  0.08800200  1
  O  O11  1  0.33260600  0.94569400  0.91199800  1
  O  O12  1  0.05430600  0.66739400  0.41199800  1
  O  O13  1  0.33260600  0.94569400  0.58800200  1
  O  O14  1  0.87480600  0.16776100  0.75000000  1
  O  O15  1  0.83223900  0.12519400  0.25000000  1
  O  O16  1  0.12519400  0.83223900  0.25000000  1
  O  O17  1  0.16776100  0.87480600  0.75000000  1
  O  O18  1  0.83762300  0.01405600  0.91480900  1
  O  O19  1  0.98594400  0.16237700  0.08519100  1
  O  O20  1  0.83762300  0.01405600  0.58519100  1
  O  O21  1  0.98594400  0.16237700  0.41480900  1
  O  O22  1  0.16237700  0.98594400  0.08519100  1
  O  O23  1  0.01405600  0.83762300  0.91480900  1
  O  O24  1  0.16237700  0.98594400  0.41480900  1
  O  O25  1  0.01405600  0.83762300  0.58519100  1
  O  O26  1  0.65020400  0.14508300  0.88401500  1
  O  O27  1  0.85491700  0.34979600  0.11598500  1
  O  O28  1  0.65020400  0.14508300  0.61598500  1
  O  O29  1  0.85491700  0.34979600  0.38401500  1
  O  O30  1  0.34979600  0.85491700  0.11598500  1
  O  O31  1  0.14508300  0.65020400  0.88401500  1
  O  O32  1  0.34979600  0.85491700  0.38401500  1
  O  O33  1  0.14508300  0.65020400  0.61598500  1
  O  O34  1  0.46019600  0.63045300  0.09105000  1
  O  O35  1  0.36954700  0.53980400  0.90895000  1
  O  O36  1  0.46019600  0.63045300  0.40895000  1
  O  O37  1  0.36954700  0.53980400  0.59105000  1
  O  O38  1  0.53980400  0.36954700  0.90895000  1
  O  O39  1  0.63045300  0.46019600  0.09105000  1
  O  O40  1  0.53980400  0.36954700  0.59105000  1
  O  O41  1  0.63045300  0.46019600  0.40895000  1
loop_
_geom_bond_atom_site_label_1
_geom_bond_atom_site_label_2
_geom_bond_distance
_geom_bond_site_symmetry_2
Ba0 O32 2.839500 1_555
Ba0 O30 2.839500 1_555
Ba0 O0 2.968066 1_555
Ba0 O15 3.046818 1_565
Ba0 O34 3.096994 1_555
Ba0 O36 3.096994 1_555
Ba0 O7 3.100346 1_565
Ba0 O9 3.100346 1_565
Ba0 Cl6 3.414876 1_565
Ba0 Cl0 3.562112 1_555
Ba0 Cl2 3.562112 1_555
Ba1 O33 2.839500 1_555
Ba1 O31 2.839500 1_555
Ba1 O1 2.968066 1_555
Ba1 O14 3.046818 1_455
Ba1 O37 3.096994 1_555
Ba1 O35 3.096994 1_555
Ba1 O6 3.100346 1_455
Ba1 O8 3.100346 1_455
Ba1 Cl7 3.414876 1_455
Ba1 Cl3 3.562112 1_555
Ba1 Cl1 3.562112 1_555
Ba2 O28 2.839500 1_555
Ba2 O26 2.839500 1_555
Ba2 O1 2.968066 1_555
Ba2 O17 3.046818 1_545
Ba2 O40 3.096994 1_555
Ba2 O38 3.096994 1_555
Ba2 O11 3.100346 1_545
Ba2 O13 3.100346 1_545
Ba2 Cl4 3.414876 1_545
Ba2 Cl3 3.562112 1_555
Ba2 Cl1 3.562112 1_555
Ba3 O29 2.839500 1_555
Ba3 O27 2.839500 1_555
Ba3 O0 2.968066 1_555
Ba3 O16 3.046818 1_655
Ba3 O39 3.096994 1_555
Ba3 O41 3.096994 1_555
Ba3 O12 3.100346 1_655
Ba3 O10 3.100346 1_655
Ba3 Cl5 3.414876 1_655
Ba3 Cl0 3.562112 1_555
Ba3 Cl2 3.562112 1_555
Ba4 O34 2.716718 1_556
Ba4 O7 2.770365 1_566
Ba4 O18 2.795358 1_565
Ba4 O3 2.819498 1_555
Ba4 O35 2.853560 1_555
Ba4 O11 2.889668 1_555
Ba4 O26 3.044146 1_565
Ba4 O30 3.113057 1_556
Ba4 Cl4 3.187313 1_555
Ba5 O35 2.716718 1_554
Ba5 O6 2.770365 1_454
Ba5 O19 2.795358 1_455
Ba5 O2 2.819498 1_555
Ba5 O34 2.853560 1_555
Ba5 O10 2.889668 1_555
Ba5 O27 3.044146 1_455
Ba5 O31 3.113057 1_554
Ba5 Cl5 3.187313 1_555
Ba6 O36 2.716718 1_555
Ba6 O9 2.770365 1_565
Ba6 O20 2.795358 1_565
Ba6 O5 2.819498 1_555
Ba6 O37 2.853560 1_555
Ba6 O13 2.889668 1_555
Ba6 O28 3.044146 1_565
Ba6 O32 3.113057 1_555
Ba6 Cl4 3.187313 1_555
Ba7 O37 2.716718 1_555
Ba7 O8 2.770365 1_455
Ba7 O21 2.795358 1_455
Ba7 O4 2.819498 1_555
Ba7 O36 2.853560 1_555
Ba7 O12 2.889668 1_555
Ba7 O29 3.044146 1_455
Ba7 O33 3.113057 1_555
Ba7 Cl5 3.187313 1_555
Ba8 O38 2.716718 1_554
Ba8 O11 2.770365 1_544
Ba8 O22 2.795358 1_545
Ba8 O2 2.819498 1_555
Ba8 O39 2.853560 1_555
Ba8 O7 2.889668 1_555
Ba8 O30 3.044146 1_545
Ba8 O26 3.113057 1_554
Ba8 Cl6 3.187313 1_555
Ba9 O39 2.716718 1_556
Ba9 O10 2.770365 1_656
Ba9 O23 2.795358 1_655
Ba9 O3 2.819498 1_555
Ba9 O38 2.853560 1_555
Ba9 O6 2.889668 1_555
Ba9 O31 3.044146 1_655
Ba9 O27 3.113057 1_556
Ba9 Cl7 3.187313 1_555
Ba10 O40 2.716718 1_555
Ba10 O13 2.770365 1_545
Ba10 O24 2.795358 1_545
Ba10 O4 2.819498 1_555
Ba10 O41 2.853560 1_555
Ba10 O9 2.889668 1_555
Ba10 O32 3.044146 1_545
Ba10 O28 3.113057 1_555
Ba10 Cl6 3.187313 1_555
Ba11 O41 2.716718 1_555
Ba11 O12 2.770365 1_655
Ba11 O25 2.795358 1_655
Ba11 O5 2.819498 1_555
Ba11 O40 2.853560 1_555
Ba11 O8 2.889668 1_555
Ba11 O33 3.044146 1_655
Ba11 O29 3.113057 1_555
Ba11 Cl7 3.187313 1_555
Ba12 O5 2.833677 1_555
Ba12 O3 2.833677 1_555
Ba12 O25 2.968576 1_655
Ba12 O18 2.968576 1_565
Ba12 O20 2.968576 1_565
Ba12 O23 2.968576 1_655
Ba12 O17 3.003561 1_655
Ba12 O14 3.003561 1_565
Ba12 Cl7 3.491007 1_555
Ba12 Cl4 3.491007 1_555
Ba13 O2 2.833677 1_555
Ba13 O4 2.833677 1_555
Ba13 O24 2.968576 1_545
Ba13 O19 2.968576 1_455
Ba13 O21 2.968576 1_455
Ba13 O22 2.968576 1_545
Ba13 O16 3.003561 1_545
Ba13 O15 3.003561 1_455
Ba13 Cl5 3.491007 1_555
Ba13 Cl6 3.491007 1_555
Co0 O18 2.129648 1_454
Co0 O23 2.129648 1_544
Co0 O22 2.129648 1_545
Co0 O19 2.129648 1_455
Co1 O25 2.129648 1_545
Co1 O20 2.129648 1_455
Co1 O24 2.129648 1_545
Co1 O21 2.129648 1_455
Cl0 Co0 2.582296 1_665
Cl1 Co0 2.582296 1_556
Cl2 Co1 2.582296 1_665
Cl3 Co1 2.582296 1_555
O0 V0 1.831924 1_555
O0 V2 1.831924 1_555
O1 V1 1.831924 1_555
O1 V3 1.831924 1_555
O2 V0 1.722998 1_555
O3 V1 1.722998 1_555
O4 V2 1.722998 1_555
O5 V3 1.722998 1_555
O6 V4 1.706443 1_555
O7 V5 1.706443 1_555
O8 V6 1.706443 1_555
O9 V7 1.706443 1_555
O10 V8 1.706443 1_555
O11 V9 1.706443 1_555
O12 V10 1.706443 1_555
O13 V11 1.706443 1_555
O14 V6 1.850321 1_555
O14 V4 1.850321 1_555
O15 V5 1.850321 1_555
O15 V7 1.850321 1_555
O16 V8 1.850321 1_555
O16 V10 1.850321 1_555
O17 V11 1.850321 1_555
O17 V9 1.850321 1_555
O18 V4 1.751861 1_555
O19 V5 1.751861 1_555
O20 V6 1.751861 1_555
O21 V7 1.751861 1_555
O22 V8 1.751861 1_555
O23 V9 1.751861 1_555
O24 V10 1.751861 1_555
O25 V11 1.751861 1_555
O26 V4 1.697657 1_555
O27 V5 1.697657 1_555
O28 V6 1.697657 1_555
O29 V7 1.697657 1_555
O30 V8 1.697657 1_555
O31 V9 1.697657 1_555
O32 V10 1.697657 1_555
O33 V11 1.697657 1_555
O34 V0 1.706633 1_555
O35 V1 1.706633 1_555
O36 V2 1.706633 1_555
O37 V3 1.706633 1_555
O38 V1 1.706633 1_555
O39 V0 1.706633 1_555
O40 V3 1.706633 1_555
O41 V2 1.706633 1_555
