# generated using pymatgen
data_Ho(Fe5Mo)2
_symmetry_space_group_name_H-M   'P 1'
_cell_length_a   4.72505900
_cell_length_b   6.49634616
_cell_length_c   6.49634616
_cell_angle_alpha   97.27489474
_cell_angle_beta   111.32579102
_cell_angle_gamma   68.67420898
_symmetry_Int_Tables_number   1
_chemical_formula_structural   Ho(Fe5Mo)2
_chemical_formula_sum   'Ho1 Fe10 Mo2'
_cell_volume   173.03258529
_cell_formula_units_Z   1
loop_
 _symmetry_equiv_pos_site_id
 _symmetry_equiv_pos_as_xyz
  1  'x, y, z'
loop_
 _atom_site_type_symbol
 _atom_site_label
 _atom_site_symmetry_multiplicity
 _atom_site_fract_x
 _atom_site_fract_y
 _atom_site_fract_z
 _atom_site_occupancy
  Ho  Ho0  1  0.00000000  0.00000000  0.00000000  1
  Fe  Fe0  1  0.71690000  0.78310000  0.21690000  1
  Fe  Fe1  1  0.28310000  0.21690000  0.78310000  1
  Fe  Fe2  1  0.50000000  0.77512200  0.77512200  1
  Fe  Fe3  1  0.50000000  0.22487800  0.22487800  1
  Fe  Fe4  1  0.50000000  0.00000000  0.50000000  1
  Fe  Fe5  1  0.00000000  0.00000000  0.50000000  1
  Fe  Fe6  1  0.50000000  0.50000000  0.00000000  1
  Fe  Fe7  1  0.00000000  0.50000000  0.00000000  1
  Fe  Fe8  1  0.64261900  0.35738100  0.64261900  1
  Fe  Fe9  1  0.35738100  0.64261900  0.35738100  1
  Mo  Mo0  1  0.00000000  0.35752100  0.35752100  1
  Mo  Mo1  1  0.00000000  0.64247900  0.64247900  1
loop_
_geom_bond_atom_site_label_1
_geom_bond_atom_site_label_2
_geom_bond_distance
_geom_bond_site_symmetry_2
Ho0 Mo0 3.069622 1_555
Ho0 Mo1 3.069622 1_544
Fe0 Fe7 2.466255 1_655
Fe0 Fe5 2.466255 1_665
Fe0 Fe6 2.466255 1_555
Fe0 Fe4 2.466255 1_565
Fe0 Fe9 2.649075 1_655
Fe0 Fe9 2.649075 1_555
Fe0 Fe3 2.674180 1_565
Fe0 Fe2 2.674180 1_554
Fe0 Mo0 2.707107 1_655
Fe0 Mo1 2.707107 1_655
Fe0 Ho0 3.000819 1_565
Fe0 Ho0 3.000819 1_665
Fe1 Fe5 2.466255 1_555
Fe1 Fe7 2.466255 1_556
Fe1 Fe4 2.466255 1_555
Fe1 Fe6 2.466255 1_556
Fe1 Fe8 2.649075 1_455
Fe1 Fe8 2.649075 1_555
Fe1 Fe3 2.674180 1_556
Fe1 Fe2 2.674180 1_545
Fe1 Mo0 2.707107 1_555
Fe1 Mo1 2.707107 1_555
Fe1 Ho0 3.000819 1_656
Fe1 Ho0 3.000819 1_556
Fe2 Fe7 2.447417 1_656
Fe2 Fe5 2.447417 1_565
Fe2 Fe4 2.447417 1_565
Fe2 Fe6 2.447417 1_556
Fe2 Mo1 2.622695 1_555
Fe2 Mo1 2.622695 1_655
Fe2 Fe8 2.657043 1_555
Fe2 Fe9 2.657043 1_555
Fe2 Ho0 3.051133 1_566
Fe2 Ho0 3.051133 1_666
Fe3 Fe7 2.447417 1_555
Fe3 Fe5 2.447417 1_655
Fe3 Fe6 2.447417 1_555
Fe3 Fe4 2.447417 1_555
Fe3 Mo0 2.622695 1_655
Fe3 Mo0 2.622695 1_555
Fe3 Fe9 2.657043 1_555
Fe3 Fe8 2.657043 1_555
Fe3 Ho0 3.051133 1_555
Fe3 Ho0 3.051133 1_655
Fe4 Fe5 2.362529 1_555
Fe4 Fe5 2.362529 1_655
Fe4 Mo0 2.606827 1_555
Fe4 Mo1 2.606827 1_645
Fe4 Fe9 2.615672 1_545
Fe4 Fe8 2.615672 1_555
Fe4 Ho0 3.248173 1_656
Fe4 Ho0 3.248173 1_555
Fe5 Mo1 2.606828 1_545
Fe5 Mo0 2.606828 1_555
Fe5 Fe9 2.615672 1_545
Fe5 Fe8 2.615672 1_455
Fe5 Ho0 3.248173 1_556
Fe5 Ho0 3.248173 1_555
Fe6 Fe7 2.362529 1_655
Fe6 Fe7 2.362529 1_555
Fe6 Mo1 2.606827 1_554
Fe6 Mo0 2.606827 1_655
Fe6 Fe9 2.615672 1_555
Fe6 Fe8 2.615672 1_554
Fe6 Ho0 3.248173 1_655
Fe6 Ho0 3.248173 1_565
Fe7 Mo1 2.606828 1_554
Fe7 Mo0 2.606828 1_555
Fe7 Fe8 2.615672 1_454
Fe7 Fe9 2.615672 1_555
Fe7 Ho0 3.248173 1_565
Fe7 Ho0 3.248173 1_555
Fe8 Fe9 2.433183 1_555
Fe8 Mo1 2.925425 1_555
Fe8 Mo0 2.925425 1_555
Fe8 Mo1 2.925425 1_655
Fe8 Mo0 2.925425 1_655
Fe8 Ho0 3.048589 1_656
Fe9 Mo1 2.925425 1_655
Fe9 Mo0 2.925425 1_655
Fe9 Mo0 2.925425 1_555
Fe9 Mo1 2.925425 1_555
Fe9 Ho0 3.048589 1_565
Mo0 Mo1 2.446607 1_555
