# generated using pymatgen
data_Mg6NbSb
_symmetry_space_group_name_H-M   'P 1'
_cell_length_a   5.27145200
_cell_length_b   5.96206200
_cell_length_c   10.96630300
_cell_angle_alpha   90.00000000
_cell_angle_beta   90.00000000
_cell_angle_gamma   90.00000000
_symmetry_Int_Tables_number   1
_chemical_formula_structural   Mg6NbSb
_chemical_formula_sum   'Mg12 Nb2 Sb2'
_cell_volume   344.65690649
_cell_formula_units_Z   2
loop_
 _symmetry_equiv_pos_site_id
 _symmetry_equiv_pos_as_xyz
  1  'x, y, z'
loop_
 _atom_site_type_symbol
 _atom_site_label
 _atom_site_symmetry_multiplicity
 _atom_site_fract_x
 _atom_site_fract_y
 _atom_site_fract_z
 _atom_site_occupancy
  Mg  Mg0  1  0.50000000  0.74813800  0.91755000  1
  Mg  Mg1  1  0.50000000  0.25186200  0.91755000  1
  Mg  Mg2  1  0.00000000  0.26053400  0.58293000  1
  Mg  Mg3  1  0.00000000  0.73946600  0.58293000  1
  Mg  Mg4  1  0.00000000  0.50000000  0.82688300  1
  Mg  Mg5  1  0.00000000  0.00000000  0.83541300  1
  Mg  Mg6  1  0.50000000  0.24813800  0.41755000  1
  Mg  Mg7  1  0.50000000  0.75186200  0.41755000  1
  Mg  Mg8  1  0.00000000  0.76053400  0.08293000  1
  Mg  Mg9  1  0.00000000  0.23946600  0.08293000  1
  Mg  Mg10  1  0.00000000  0.00000000  0.32688300  1
  Mg  Mg11  1  0.00000000  0.50000000  0.33541300  1
  Nb  Nb0  1  0.50000000  0.50000000  0.66853900  1
  Nb  Nb1  1  0.50000000  0.00000000  0.16853900  1
  Sb  Sb0  1  0.50000000  0.00000000  0.66820100  1
  Sb  Sb1  1  0.50000000  0.50000000  0.16820100  1
loop_
_geom_bond_atom_site_label_1
_geom_bond_atom_site_label_2
_geom_bond_distance
_geom_bond_site_symmetry_2
Mg0 Mg1 2.958828 1_555
Mg0 Mg1 3.003234 1_565
Mg0 Nb0 3.105729 1_555
Mg0 Sb0 3.119615 1_565
Mg0 Sb1 3.121554 1_556
Mg0 Nb1 3.135391 1_566
Mg0 Mg5 3.164370 1_565
Mg0 Mg5 3.164370 1_665
Mg0 Mg4 3.181873 1_555
Mg0 Mg4 3.181873 1_655
Mg0 Mg8 3.200263 1_656
Mg0 Mg8 3.200263 1_556
Mg1 Nb0 3.105729 1_555
Mg1 Sb0 3.119615 1_555
Mg1 Sb1 3.121554 1_556
Mg1 Nb1 3.135391 1_556
Mg1 Mg5 3.164370 1_655
Mg1 Mg5 3.164370 1_555
Mg1 Mg4 3.181873 1_555
Mg1 Mg4 3.181873 1_655
Mg1 Mg9 3.200263 1_556
Mg1 Mg9 3.200263 1_656
Mg2 Mg3 2.855422 1_555
Mg2 Mg4 3.032390 1_555
Mg2 Mg3 3.106640 1_545
Mg2 Nb0 3.141144 1_455
Mg2 Nb0 3.141144 1_555
Mg2 Mg5 3.174757 1_555
Mg2 Sb0 3.199106 1_455
Mg2 Sb0 3.199106 1_555
Mg2 Mg6 3.200263 1_455
Mg2 Mg6 3.200263 1_555
Mg3 Mg4 3.032390 1_555
Mg3 Nb0 3.141144 1_455
Mg3 Nb0 3.141144 1_555
Mg3 Mg5 3.174757 1_565
Mg3 Sb0 3.199106 1_565
Mg3 Sb0 3.199106 1_465
Mg3 Mg7 3.200263 1_455
Mg3 Mg7 3.200263 1_555
Mg4 Mg5 2.982498 1_555
Mg4 Mg5 2.982498 1_565
Mg4 Nb0 3.156312 1_455
Mg4 Nb0 3.156312 1_555
Mg4 Mg9 3.208901 1_556
Mg4 Mg8 3.208901 1_556
Mg5 Mg8 3.066926 1_546
Mg5 Mg9 3.066926 1_556
Mg5 Sb0 3.210841 1_455
Mg5 Sb0 3.210841 1_555
Mg6 Mg7 2.958828 1_545
Mg6 Mg7 3.003234 1_555
Mg6 Nb1 3.105729 1_555
Mg6 Sb1 3.119615 1_555
Mg6 Sb0 3.121554 1_555
Mg6 Nb0 3.135391 1_555
Mg7 Nb1 3.105729 1_565
Mg7 Sb1 3.119615 1_555
Mg7 Sb0 3.121554 1_565
Mg7 Nb0 3.135391 1_555
Mg8 Mg9 2.855422 1_565
Mg8 Mg9 3.106640 1_555
Mg8 Nb1 3.141144 1_465
Mg8 Nb1 3.141144 1_565
Mg8 Sb1 3.199106 1_455
Mg8 Sb1 3.199106 1_555
Mg9 Nb1 3.141144 1_455
Mg9 Nb1 3.141144 1_555
Mg9 Sb1 3.199106 1_455
Mg9 Sb1 3.199106 1_555
Mg10 Mg11 2.982498 1_545
Mg10 Mg11 2.982498 1_555
Mg10 Mg9 3.032390 1_555
Mg10 Mg8 3.032390 1_545
Mg10 Nb1 3.156312 1_455
Mg10 Nb1 3.156312 1_555
Mg10 Mg7 3.181873 1_445
Mg10 Mg6 3.181873 1_455
Mg10 Mg6 3.181873 1_555
Mg10 Mg7 3.181873 1_545
Mg10 Mg2 3.208901 1_555
Mg10 Mg3 3.208901 1_545
Mg11 Mg3 3.066926 1_555
Mg11 Mg2 3.066926 1_555
Mg11 Mg6 3.164370 1_555
Mg11 Mg7 3.164370 1_455
Mg11 Mg7 3.164370 1_555
Mg11 Mg6 3.164370 1_455
Mg11 Mg8 3.174757 1_555
Mg11 Mg9 3.174757 1_555
Mg11 Sb1 3.210841 1_455
Mg11 Sb1 3.210841 1_555
Nb0 Sb0 2.981033 1_555
Nb0 Sb0 2.981033 1_565
Nb1 Sb1 2.981033 1_555
Nb1 Sb1 2.981033 1_545
