# generated using pymatgen
data_HoO3
_symmetry_space_group_name_H-M   'P 1'
_cell_length_a   6.48793206
_cell_length_b   6.48793206
_cell_length_c   3.40243000
_cell_angle_alpha   90.00000000
_cell_angle_beta   90.00000000
_cell_angle_gamma   120.00000062
_symmetry_Int_Tables_number   1
_chemical_formula_structural   HoO3
_chemical_formula_sum   'Ho2 O6'
_cell_volume   124.03161964
_cell_formula_units_Z   2
loop_
 _symmetry_equiv_pos_site_id
 _symmetry_equiv_pos_as_xyz
  1  'x, y, z'
loop_
 _atom_site_type_symbol
 _atom_site_label
 _atom_site_symmetry_multiplicity
 _atom_site_fract_x
 _atom_site_fract_y
 _atom_site_fract_z
 _atom_site_occupancy
  Ho  Ho0  1  0.33333300  0.66666700  0.75000000  1
  Ho  Ho1  1  0.66666700  0.33333300  0.25000000  1
  O  O0  1  0.94205100  0.57547800  0.75000000  1
  O  O1  1  0.05794900  0.42452200  0.25000000  1
  O  O2  1  0.63342700  0.05794900  0.75000000  1
  O  O3  1  0.36657300  0.94205100  0.25000000  1
  O  O4  1  0.42452200  0.36657300  0.75000000  1
  O  O5  1  0.57547800  0.63342700  0.25000000  1
loop_
_geom_bond_atom_site_label_1
_geom_bond_atom_site_label_2
_geom_bond_distance
_geom_bond_site_symmetry_2
Ho0 O0 2.300577 1_455
Ho0 O2 2.300579 1_565
Ho0 O4 2.300584 1_555
Ho0 O3 2.397400 1_555
Ho0 O3 2.397400 1_556
Ho0 O1 2.397402 1_555
Ho0 O1 2.397402 1_556
Ho0 O5 2.397405 1_555
Ho0 O5 2.397405 1_556
Ho1 O1 2.300577 1_655
Ho1 O3 2.300579 1_545
Ho1 O5 2.300584 1_555
Ho1 O2 2.397400 1_555
Ho1 O2 2.397400 1_554
Ho1 O0 2.397402 1_554
Ho1 O0 2.397402 1_555
Ho1 O4 2.397405 1_555
Ho1 O4 2.397405 1_554
