# generated using pymatgen
data_Rb2Th(AsO4)2
_symmetry_space_group_name_H-M   'P 1'
_cell_length_a   11.59821900
_cell_length_b   8.18269400
_cell_length_c   10.26164124
_cell_angle_alpha   63.09647924
_cell_angle_beta   90.00000000
_cell_angle_gamma   90.00000000
_symmetry_Int_Tables_number   1
_chemical_formula_structural   Rb2Th(AsO4)2
_chemical_formula_sum   'Rb8 Th4 As8 O32'
_cell_volume   868.47469243
_cell_formula_units_Z   4
loop_
 _symmetry_equiv_pos_site_id
 _symmetry_equiv_pos_as_xyz
  1  'x, y, z'
loop_
 _atom_site_type_symbol
 _atom_site_label
 _atom_site_symmetry_multiplicity
 _atom_site_fract_x
 _atom_site_fract_y
 _atom_site_fract_z
 _atom_site_occupancy
  Rb  Rb0  1  0.62533800  0.14932100  0.45110200  1
  Rb  Rb1  1  0.87466200  0.14932100  0.95110200  1
  Rb  Rb2  1  0.37466200  0.85067900  0.54889800  1
  Rb  Rb3  1  0.12533800  0.85067900  0.04889800  1
  Rb  Rb4  1  0.61487100  0.33567300  0.04371000  1
  Rb  Rb5  1  0.88512900  0.33567300  0.54371000  1
  Rb  Rb6  1  0.38512900  0.66432700  0.95629000  1
  Rb  Rb7  1  0.11487100  0.66432700  0.45629000  1
  Th  Th0  1  0.63908200  0.74383300  0.27886800  1
  Th  Th1  1  0.86091800  0.74383300  0.77886800  1
  Th  Th2  1  0.36091800  0.25616700  0.72113200  1
  Th  Th3  1  0.13908200  0.25616700  0.22113200  1
  As  As0  1  0.63861800  0.93515400  0.85270700  1
  As  As1  1  0.86138200  0.93515400  0.35270700  1
  As  As2  1  0.36138200  0.06484600  0.14729300  1
  As  As3  1  0.13861800  0.06484600  0.64729300  1
  As  As4  1  0.63214400  0.53784900  0.63389500  1
  As  As5  1  0.86785600  0.53784900  0.13389500  1
  As  As6  1  0.36785600  0.46215100  0.36610500  1
  As  As7  1  0.13214400  0.46215100  0.86610500  1
  O  O0  1  0.51422100  0.03603700  0.76070200  1
  O  O1  1  0.98577900  0.03603700  0.26070200  1
  O  O2  1  0.48577900  0.96396300  0.23929800  1
  O  O3  1  0.01422100  0.96396300  0.73929800  1
  O  O4  1  0.65349500  0.71695900  0.86839500  1
  O  O5  1  0.84650500  0.71695900  0.36839500  1
  O  O6  1  0.34650500  0.28304100  0.13160500  1
  O  O7  1  0.15349500  0.28304100  0.63160500  1
  O  O8  1  0.76014900  0.03409400  0.75006100  1
  O  O9  1  0.73985100  0.03409400  0.25006100  1
  O  O10  1  0.23985100  0.96590600  0.24993900  1
  O  O11  1  0.26014900  0.96590600  0.74993900  1
  O  O12  1  0.64507300  0.45337900  0.50761400  1
  O  O13  1  0.85492700  0.45337900  0.00761400  1
  O  O14  1  0.35492700  0.54662100  0.49238600  1
  O  O15  1  0.14507300  0.54662100  0.99238600  1
  O  O16  1  0.60623900  0.76489000  0.51339200  1
  O  O17  1  0.89376100  0.76489000  0.01339200  1
  O  O18  1  0.39376100  0.23511000  0.48660800  1
  O  O19  1  0.10623900  0.23511000  0.98660800  1
  O  O20  1  0.64256600  0.93273400  0.02156800  1
  O  O21  1  0.85743400  0.93273400  0.52156800  1
  O  O22  1  0.35743400  0.06726600  0.97843200  1
  O  O23  1  0.14256600  0.06726600  0.47843200  1
  O  O24  1  0.51842200  0.43114400  0.75102700  1
  O  O25  1  0.98157800  0.43114400  0.25102700  1
  O  O26  1  0.48157800  0.56885600  0.24897300  1
  O  O27  1  0.01842200  0.56885600  0.74897300  1
  O  O28  1  0.75793600  0.51256800  0.73026500  1
  O  O29  1  0.74206400  0.51256800  0.23026500  1
  O  O30  1  0.24206400  0.48743200  0.26973500  1
  O  O31  1  0.25793600  0.48743200  0.76973500  1
loop_
_geom_bond_atom_site_label_1
_geom_bond_atom_site_label_2
_geom_bond_distance
_geom_bond_site_symmetry_2
As0 O0 1.717301 1_565
As0 O20 1.724529 1_556
As0 O8 1.726268 1_565
As0 O4 1.727226 1_555
As1 O1 1.717301 1_565
As1 O21 1.724529 1_555
As1 O9 1.726268 1_565
As1 O5 1.727226 1_555
As2 O2 1.717301 1_545
As2 O22 1.724529 1_554
As2 O10 1.726268 1_545
As2 O6 1.727226 1_555
As3 O3 1.717301 1_545
As3 O23 1.724529 1_555
As3 O11 1.726268 1_545
As3 O7 1.727226 1_555
As4 O28 1.721681 1_555
As4 O12 1.729171 1_555
As4 O16 1.729682 1_555
As4 O24 1.731190 1_555
As5 O29 1.721681 1_555
As5 O13 1.729171 1_555
As5 O17 1.729682 1_555
As5 O25 1.731190 1_555
As6 O30 1.721681 1_555
As6 O14 1.729171 1_555
As6 O18 1.729682 1_555
As6 O26 1.731190 1_555
As7 O31 1.721681 1_555
As7 O15 1.729171 1_555
As7 O19 1.729682 1_555
As7 O27 1.731190 1_555
O0 Th2 2.430829 1_555
O0 Rb0 3.154105 1_555
O0 Rb6 3.161753 1_545
O1 Th3 2.430829 1_655
O1 Rb1 3.154105 1_554
O1 Rb7 3.161753 1_645
O2 Th0 2.430829 1_555
O2 Rb2 3.154105 1_555
O2 Rb4 3.161753 1_565
O3 Th1 2.430829 1_455
O3 Rb3 3.154105 1_556
O3 Rb5 3.161753 1_465
O4 Th1 2.548941 1_555
O4 Rb4 2.844593 1_556
O4 Rb6 3.214892 1_555
O5 Th0 2.548941 1_555
O5 Rb5 2.844593 1_555
O5 Rb7 3.214892 1_655
O6 Th3 2.548941 1_555
O6 Rb6 2.844593 1_554
O6 Rb4 3.214892 1_555
O7 Th2 2.548941 1_555
O7 Rb7 2.844593 1_555
O7 Rb5 3.214892 1_455
O8 Th1 2.541482 1_545
O8 Rb5 2.818826 1_555
O8 Rb1 2.944368 1_555
O8 Rb0 3.182376 1_555
O9 Th0 2.541482 1_545
O9 Rb4 2.818826 1_555
O9 Rb0 2.944368 1_555
O9 Rb1 3.182376 1_554
O10 Th3 2.541482 1_565
O10 Rb7 2.818826 1_555
O10 Rb3 2.944368 1_555
O10 Rb2 3.182376 1_555
O11 Th2 2.541482 1_565
O11 Rb6 2.818826 1_555
O11 Rb2 2.944368 1_555
O11 Rb3 3.182376 1_556
O12 Th0 2.472780 1_555
O12 Rb0 2.807955 1_555
O12 Rb5 2.914429 1_555
O13 Th1 2.472780 1_554
O13 Rb1 2.807955 1_554
O13 Rb4 2.914429 1_555
O14 Th2 2.472780 1_555
O14 Rb2 2.807955 1_555
O14 Rb7 2.914429 1_555
O15 Th3 2.472780 1_556
O15 Rb3 2.807955 1_556
O15 Rb6 2.914429 1_555
O16 Th0 2.518289 1_555
O16 Rb2 2.840942 1_555
O16 Rb0 2.921181 1_565
O17 Th1 2.518289 1_554
O17 Rb3 2.840942 1_655
O17 Rb1 2.921181 1_564
O18 Th2 2.518289 1_555
O18 Rb0 2.840942 1_555
O18 Rb2 2.921181 1_545
O19 Th3 2.518289 1_556
O19 Rb1 2.840942 1_455
O19 Rb3 2.921181 1_546
O20 Th0 2.380919 1_555
O20 Rb1 3.122558 1_564
O20 Rb4 3.421084 1_565
O21 Th1 2.380919 1_555
O21 Rb0 3.122558 1_565
O21 Rb5 3.421084 1_565
O22 Th2 2.380919 1_555
O22 Rb3 3.122558 1_546
O22 Rb6 3.421084 1_545
O23 Th3 2.380919 1_555
O23 Rb2 3.122558 1_545
O23 Rb7 3.421084 1_545
O24 Th2 2.424599 1_555
O24 Rb4 2.959519 1_556
O25 Th3 2.424599 1_655
O25 Rb5 2.959519 1_555
O26 Th0 2.424599 1_555
O26 Rb6 2.959519 1_554
O27 Th1 2.424599 1_455
O27 Rb7 2.959519 1_555
O28 Th1 2.471954 1_555
O28 Rb1 3.115657 1_555
O28 Rb5 3.231704 1_555
O28 Rb4 3.313717 1_556
O29 Th0 2.471954 1_555
O29 Rb0 3.115657 1_555
O29 Rb4 3.231704 1_555
O29 Rb5 3.313717 1_555
O30 Th3 2.471954 1_555
O30 Rb3 3.115657 1_555
O30 Rb7 3.231704 1_555
O30 Rb6 3.313717 1_554
O31 Th2 2.471954 1_555
O31 Rb2 3.115657 1_555
O31 Rb6 3.231704 1_555
O31 Rb7 3.313717 1_555
