# generated using pymatgen
data_Mg14CuW
_symmetry_space_group_name_H-M   'P 1'
_cell_length_a   6.21054665
_cell_length_b   6.23267027
_cell_length_c   9.84755313
_cell_angle_alpha   90.00000000
_cell_angle_beta   90.00000000
_cell_angle_gamma   120.11791410
_symmetry_Int_Tables_number   1
_chemical_formula_structural   Mg14CuW
_chemical_formula_sum   'Mg14 Cu1 W1'
_cell_volume   329.72030827
_cell_formula_units_Z   1
loop_
 _symmetry_equiv_pos_site_id
 _symmetry_equiv_pos_as_xyz
  1  'x, y, z'
loop_
 _atom_site_type_symbol
 _atom_site_label
 _atom_site_symmetry_multiplicity
 _atom_site_fract_x
 _atom_site_fract_y
 _atom_site_fract_z
 _atom_site_occupancy
  Mg  Mg0  1  0.16940491  0.33470195  0.62500000  1
  Mg  Mg1  1  0.16969646  0.83484773  0.62500000  1
  Mg  Mg2  1  0.66702276  0.33742267  0.12500000  1
  Mg  Mg3  1  0.66551046  0.33261251  0.62500000  1
  Mg  Mg4  1  0.66702276  0.82959909  0.12500000  1
  Mg  Mg5  1  0.66551046  0.83289694  0.62500000  1
  Mg  Mg6  1  0.32390936  0.15956356  0.35867229  1
  Mg  Mg7  1  0.32390936  0.15956356  0.89132771  1
  Mg  Mg8  1  0.32390936  0.66434680  0.35867229  1
  Mg  Mg9  1  0.32390936  0.66434680  0.89132771  1
  Mg  Mg10  1  0.84092660  0.17046380  0.36617807  1
  Mg  Mg11  1  0.84092660  0.17046380  0.88382193  1
  Mg  Mg12  1  0.84491553  0.67245827  0.36886762  1
  Mg  Mg13  1  0.84491553  0.67245827  0.88113238  1
  Cu  Cu0  1  0.16639959  0.33319929  0.12500000  1
  W  W0  1  0.16211089  0.83105495  0.12500000  1
loop_
_geom_bond_atom_site_label_1
_geom_bond_atom_site_label_2
_geom_bond_distance
_geom_bond_site_symmetry_2
Mg0 Mg5 3.087642 1_555
Mg0 Mg3 3.087642 1_555
Mg0 Mg11 3.100009 1_455
Mg0 Mg10 3.100009 1_455
Mg0 Mg1 3.116335 1_545
Mg0 Mg1 3.116336 1_555
Mg0 Mg5 3.122945 1_445
Mg0 Mg3 3.122946 1_455
Mg0 Mg6 3.168894 1_555
Mg0 Mg7 3.168894 1_555
Mg0 Mg9 3.168901 1_555
Mg0 Mg8 3.168901 1_555
Mg1 Mg12 3.066927 1_455
Mg1 Mg13 3.066927 1_455
Mg1 Mg3 3.085395 1_565
Mg1 Mg5 3.085395 1_555
Mg1 Mg3 3.125187 1_455
Mg1 Mg5 3.125187 1_455
Mg1 Mg8 3.153790 1_555
Mg1 Mg9 3.153790 1_555
Mg1 Mg6 3.153796 1_565
Mg1 Mg7 3.153796 1_565
Mg2 Mg6 2.948580 1_555
Mg2 Mg7 2.948580 1_554
Mg2 Mg4 3.067573 1_555
Mg2 W0 3.070225 1_655
Mg2 W0 3.140341 1_545
Mg2 Mg4 3.165097 1_545
Mg3 Mg5 3.114562 1_545
Mg3 Mg5 3.118108 1_555
Mg3 Mg7 3.200978 1_555
Mg3 Mg6 3.200978 1_555
Mg4 Mg8 2.948580 1_555
Mg4 Mg9 2.948580 1_554
Mg4 W0 3.070225 1_655
Mg4 W0 3.140342 1_555
Mg5 Mg9 3.200978 1_555
Mg5 Mg8 3.200978 1_555
Mg6 W0 2.903832 1_545
Mg7 W0 2.903832 1_546
Mg8 W0 2.903825 1_555
Mg9 W0 2.903825 1_556
Mg10 Mg2 3.002984 1_555
Mg10 Mg4 3.002990 1_545
Mg10 Mg3 3.131984 1_555
Mg10 Mg5 3.131990 1_545
Mg11 Mg2 3.002984 1_556
Mg11 Mg4 3.002990 1_546
Mg11 Mg3 3.131984 1_555
Mg11 Mg5 3.131990 1_545
Mg12 W0 2.944626 1_655
Mg12 Mg4 3.005488 1_555
Mg12 Mg2 3.005495 1_555
Mg12 Mg5 3.117913 1_555
Mg12 Mg3 3.117920 1_555
Mg13 W0 2.944626 1_656
Mg13 Mg4 3.005488 1_556
Mg13 Mg2 3.005495 1_556
Mg13 Mg5 3.117913 1_555
Mg13 Mg3 3.117920 1_555
Cu0 Mg7 2.913003 1_554
Cu0 Mg6 2.913003 1_555
Cu0 Mg8 2.913009 1_555
Cu0 Mg9 2.913009 1_554
Cu0 Mg10 2.949210 1_455
Cu0 Mg11 2.949210 1_454
Cu0 Mg4 3.096019 1_555
Cu0 Mg2 3.096019 1_555
Cu0 Mg4 3.114694 1_445
Cu0 Mg2 3.114695 1_455
Cu0 W0 3.116420 1_545
Cu0 W0 3.116420 1_555
