# generated using pymatgen
data_Tm(AlCr)6
_symmetry_space_group_name_H-M   'P 1'
_cell_length_a   6.68008111
_cell_length_b   6.68008111
_cell_length_c   6.68008111
_cell_angle_alpha   135.57960220
_cell_angle_beta   98.89112167
_cell_angle_gamma   97.54004846
_symmetry_Int_Tables_number   1
_chemical_formula_structural   Tm(AlCr)6
_chemical_formula_sum   'Tm1 Al6 Cr6'
_cell_volume   193.13929130
_cell_formula_units_Z   1
loop_
 _symmetry_equiv_pos_site_id
 _symmetry_equiv_pos_as_xyz
  1  'x, y, z'
loop_
 _atom_site_type_symbol
 _atom_site_label
 _atom_site_symmetry_multiplicity
 _atom_site_fract_x
 _atom_site_fract_y
 _atom_site_fract_z
 _atom_site_occupancy
  Tm  Tm0  1  0.00000000  0.00000000  0.00000000  1
  Al  Al0  1  0.34575700  0.00000000  0.34575700  1
  Al  Al1  1  0.65424300  0.00000000  0.65424300  1
  Al  Al2  1  0.33225800  0.33225800  0.00000000  1
  Al  Al3  1  0.66774200  0.66774200  0.00000000  1
  Al  Al4  1  0.80706200  0.50000000  0.30706200  1
  Al  Al5  1  0.19293800  0.50000000  0.69293800  1
  Cr  Cr0  1  0.00000000  0.50000000  0.00000000  1
  Cr  Cr1  1  0.00000000  0.00000000  0.50000000  1
  Cr  Cr2  1  0.50000000  0.00000000  0.00000000  1
  Cr  Cr3  1  0.50000000  0.50000000  0.50000000  1
  Cr  Cr4  1  0.76083300  0.26083300  0.50000000  1
  Cr  Cr5  1  0.23916700  0.73916700  0.50000000  1
loop_
_geom_bond_atom_site_label_1
_geom_bond_atom_site_label_2
_geom_bond_distance
_geom_bond_site_symmetry_2
Al0 Cr4 2.658980 1_555
Al0 Cr5 2.658980 1_545
Al0 Cr1 2.670563 1_555
Al0 Cr3 2.670563 1_555
Al0 Cr0 2.670563 1_545
Al0 Cr2 2.670563 1_555
Al0 Al1 2.679627 1_555
Al0 Al5 2.852767 1_555
Al0 Al5 2.852767 1_544
Al0 Tm0 3.003377 1_555
Al1 Cr5 2.658980 1_545
Al1 Cr4 2.658980 1_555
Al1 Cr3 2.670563 1_545
Al1 Cr2 2.670563 1_556
Al1 Cr1 2.670563 1_655
Al1 Cr0 2.670563 1_656
Al1 Al4 2.852767 1_556
Al1 Al4 2.852767 1_545
Al1 Tm0 3.003377 1_656
Al2 Cr0 2.614289 1_555
Al2 Cr1 2.614289 1_554
Al2 Cr3 2.614289 1_555
Al2 Cr2 2.614289 1_555
Al2 Cr5 2.654824 1_555
Al2 Cr5 2.654824 1_544
Al2 Tm0 2.925683 1_555
Al2 Al4 3.048922 1_555
Al2 Al5 3.048922 1_554
Al3 Cr2 2.614289 1_565
Al3 Cr1 2.614289 1_665
Al3 Cr3 2.614289 1_554
Al3 Cr0 2.614289 1_655
Al3 Cr4 2.654824 1_565
Al3 Cr4 2.654824 1_554
Al3 Tm0 2.925683 1_665
Al3 Al4 3.048922 1_555
Al3 Al5 3.048922 1_554
Al4 Cr3 2.585677 1_555
Al4 Cr2 2.585677 1_555
Al4 Cr1 2.585677 1_665
Al4 Cr0 2.585677 1_655
Al4 Cr5 2.691446 1_655
Al4 Cr4 2.691446 1_555
Al4 Tm0 3.030663 1_655
Al4 Tm0 3.030663 1_666
Al5 Cr3 2.585677 1_555
Al5 Cr2 2.585677 1_566
Al5 Cr1 2.585677 1_555
Al5 Cr0 2.585677 1_556
Al5 Cr5 2.691446 1_555
Al5 Cr4 2.691446 1_455
Al5 Tm0 3.030663 1_555
Al5 Tm0 3.030663 1_566
Cr0 Cr5 2.513755 1_555
Cr0 Cr4 2.513755 1_454
Cr0 Cr1 2.525108 1_565
Cr0 Cr1 2.525108 1_554
Cr0 Tm0 3.340041 1_565
Cr0 Tm0 3.340041 1_555
Cr1 Cr5 2.513755 1_545
Cr1 Cr4 2.513755 1_455
Cr1 Tm0 3.340041 1_555
Cr1 Tm0 3.340041 1_556
Cr2 Cr5 2.513755 1_544
Cr2 Cr4 2.513755 1_555
Cr2 Cr3 2.525108 1_544
Cr2 Cr3 2.525108 1_555
Cr2 Tm0 3.340041 1_555
Cr2 Tm0 3.340041 1_655
Cr3 Cr5 2.513755 1_555
Cr3 Cr4 2.513755 1_555
Cr3 Tm0 3.340041 1_666
Cr3 Tm0 3.340041 1_555
Cr4 Tm0 3.288054 1_666
Cr4 Tm0 3.288054 1_655
Cr5 Tm0 3.288054 1_566
Cr5 Tm0 3.288054 1_555
