# generated using pymatgen
data_LaTaTiO6
_symmetry_space_group_name_H-M   'P 1'
_cell_length_a   7.20205708
_cell_length_b   7.20205708
_cell_length_c   5.30810462
_cell_angle_alpha   70.68647880
_cell_angle_beta   70.68647880
_cell_angle_gamma   76.46908648
_symmetry_Int_Tables_number   1
_chemical_formula_structural   LaTaTiO6
_chemical_formula_sum   'La2 Ta2 Ti2 O12'
_cell_volume   242.80097006
_cell_formula_units_Z   2
loop_
 _symmetry_equiv_pos_site_id
 _symmetry_equiv_pos_as_xyz
  1  'x, y, z'
loop_
 _atom_site_type_symbol
 _atom_site_label
 _atom_site_symmetry_multiplicity
 _atom_site_fract_x
 _atom_site_fract_y
 _atom_site_fract_z
 _atom_site_occupancy
  La  La0  1  0.19462800  0.80537200  0.50000000  1
  La  La1  1  0.80466200  0.19533800  0.00000000  1
  Ta  Ta0  1  0.34682700  0.18395000  0.70048400  1
  Ta  Ta1  1  0.81605000  0.65317300  0.29951600  1
  Ti  Ti0  1  0.65301000  0.81757700  0.79902800  1
  Ti  Ti1  1  0.18242300  0.34699000  0.20097200  1
  O  O0  1  0.11243700  0.59721900  0.28111600  1
  O  O1  1  0.40278100  0.88756300  0.71888400  1
  O  O2  1  0.88926000  0.39719000  0.21938300  1
  O  O3  1  0.60281000  0.11074000  0.78061700  1
  O  O4  1  0.90141900  0.81560300  0.89623600  1
  O  O5  1  0.18439700  0.09858100  0.10376400  1
  O  O6  1  0.09761900  0.18516800  0.60211100  1
  O  O7  1  0.81483200  0.90238100  0.39788900  1
  O  O8  1  0.55993600  0.72296100  0.20587900  1
  O  O9  1  0.27703900  0.44006400  0.79412100  1
  O  O10  1  0.43839900  0.27852900  0.29008200  1
  O  O11  1  0.72147100  0.56160100  0.70991800  1
loop_
_geom_bond_atom_site_label_1
_geom_bond_atom_site_label_2
_geom_bond_distance
_geom_bond_site_symmetry_2
La0 O1 2.443364 1_555
La0 O0 2.443364 1_555
La0 O4 2.445451 1_455
La0 O5 2.445451 1_565
La0 O9 2.622384 1_555
La0 O8 2.622384 1_555
La0 O6 2.846012 1_565
La0 O7 2.846012 1_455
La1 O2 2.417498 1_555
La1 O3 2.417498 1_554
La1 O6 2.449506 1_654
La1 O7 2.449506 1_545
La1 O10 2.621473 1_555
La1 O11 2.621473 1_554
La1 O5 2.849425 1_655
La1 O4 2.849425 1_544
O0 Ti1 1.903433 1_555
O0 Ta1 2.052812 1_455
O1 Ti0 1.903433 1_555
O1 Ta0 2.052812 1_565
O2 Ta1 1.942501 1_555
O2 Ti1 2.031712 1_655
O3 Ta0 1.942501 1_555
O3 Ti0 2.031712 1_545
O4 Ti0 2.015203 1_555
O4 Ta1 2.034311 1_556
O5 Ti1 2.015203 1_555
O5 Ta0 2.034311 1_554
O6 Ti1 2.023986 1_555
O6 Ta0 2.025741 1_555
O7 Ti0 2.023986 1_555
O7 Ta1 2.025741 1_555
O8 Ti0 1.964769 1_554
O8 Ta1 1.977218 1_555
O9 Ti1 1.964769 1_556
O9 Ta0 1.977218 1_555
O10 Ti1 1.965382 1_555
O10 Ta0 1.980637 1_555
O11 Ti0 1.965382 1_555
O11 Ta1 1.980637 1_555
