# generated using pymatgen
data_Li4B7ClO12
_symmetry_space_group_name_H-M   'P 1'
_cell_length_a   8.66872307
_cell_length_b   8.66872307
_cell_length_c   8.66872340
_cell_angle_alpha   60.61269913
_cell_angle_beta   60.61269913
_cell_angle_gamma   60.61270422
_symmetry_Int_Tables_number   1
_chemical_formula_structural   Li4B7ClO12
_chemical_formula_sum   'Li8 B14 Cl2 O24'
_cell_volume   467.00166843
_cell_formula_units_Z   2
loop_
 _symmetry_equiv_pos_site_id
 _symmetry_equiv_pos_as_xyz
  1  'x, y, z'
loop_
 _atom_site_type_symbol
 _atom_site_label
 _atom_site_symmetry_multiplicity
 _atom_site_fract_x
 _atom_site_fract_y
 _atom_site_fract_z
 _atom_site_occupancy
  Li  Li0  1  0.49269600  0.49280300  0.01819700  1
  Li  Li1  1  0.49280300  0.01819700  0.49269600  1
  Li  Li2  1  0.01819700  0.49269600  0.49280300  1
  Li  Li3  1  0.99269600  0.51819700  0.99280300  1
  Li  Li4  1  0.51819700  0.99280300  0.99269600  1
  Li  Li5  1  0.99280300  0.99269600  0.51819700  1
  Li  Li6  1  0.63191900  0.63191900  0.63191900  1
  Li  Li7  1  0.13191900  0.13191900  0.13191900  1
  B  B0  1  0.40007600  0.40007600  0.40007600  1
  B  B1  1  0.39989800  0.39667300  0.80393400  1
  B  B2  1  0.80393400  0.39989800  0.39667300  1
  B  B3  1  0.39667300  0.80393400  0.39989800  1
  B  B4  1  0.30393400  0.89667300  0.89989800  1
  B  B5  1  0.89667300  0.89989800  0.30393400  1
  B  B6  1  0.90007600  0.90007600  0.90007600  1
  B  B7  1  0.89989800  0.30393400  0.89667300  1
  B  B8  1  0.24770900  0.25229200  0.74876600  1
  B  B9  1  0.25229200  0.74876600  0.24770900  1
  B  B10  1  0.74876600  0.24770900  0.25229200  1
  B  B11  1  0.74770900  0.24876600  0.75229200  1
  B  B12  1  0.24876600  0.75229200  0.74770900  1
  B  B13  1  0.75229200  0.74770900  0.24876600  1
  Cl  Cl0  1  0.24321000  0.24321000  0.24321000  1
  Cl  Cl1  1  0.74321000  0.74321000  0.74321000  1
  O  O0  1  0.56278600  0.38719000  0.24792300  1
  O  O1  1  0.38719000  0.24792300  0.56278600  1
  O  O2  1  0.24792300  0.56278600  0.38719000  1
  O  O3  1  0.39591800  0.56319800  0.79558000  1
  O  O4  1  0.24240200  0.38767100  0.80989100  1
  O  O5  1  0.56071800  0.24378900  0.80396200  1
  O  O6  1  0.80989100  0.24240200  0.38767100  1
  O  O7  1  0.80396200  0.56071800  0.24378900  1
  O  O8  1  0.79558000  0.39591800  0.56319800  1
  O  O9  1  0.24378900  0.80396200  0.56071800  1
  O  O10  1  0.56319800  0.79558000  0.39591800  1
  O  O11  1  0.38767100  0.80989100  0.24240200  1
  O  O12  1  0.30989100  0.88767100  0.74240200  1
  O  O13  1  0.30396200  0.74378900  0.06071800  1
  O  O14  1  0.29558000  0.06319800  0.89591800  1
  O  O15  1  0.74378900  0.06071800  0.30396200  1
  O  O16  1  0.06319800  0.89591800  0.29558000  1
  O  O17  1  0.88767100  0.74240200  0.30989100  1
  O  O18  1  0.06278600  0.74792300  0.88719000  1
  O  O19  1  0.88719000  0.06278600  0.74792300  1
  O  O20  1  0.74792300  0.88719000  0.06278600  1
  O  O21  1  0.89591800  0.29558000  0.06319800  1
  O  O22  1  0.74240200  0.30989100  0.88767100  1
  O  O23  1  0.06071800  0.30396200  0.74378900  1
loop_
_geom_bond_atom_site_label_1
_geom_bond_atom_site_label_2
_geom_bond_distance
_geom_bond_site_symmetry_2
Li0 O0 2.006335 1_555
Li0 O13 2.061094 1_555
Li0 O22 2.113905 1_554
Li0 O3 2.175104 1_554
Li1 O1 2.006335 1_555
Li1 O15 2.061094 1_555
Li1 O12 2.113905 1_545
Li1 O10 2.175104 1_545
Li2 O2 2.006335 1_555
Li2 O23 2.061094 1_555
Li2 O17 2.113905 1_455
Li2 O8 2.175104 1_455
Li3 O18 2.006335 1_655
Li3 O7 2.061094 1_556
Li3 O4 2.113905 1_655
Li3 O21 2.175104 1_556
Li4 O20 2.006335 1_556
Li4 O5 2.061094 1_565
Li4 O11 2.113905 1_556
Li4 O14 2.175104 1_565
Li5 O19 2.006335 1_565
Li5 O9 2.061094 1_655
Li5 O6 2.113905 1_565
Li5 O16 2.175104 1_655
Li6 O3 2.017715 1_555
Li6 O10 2.017715 1_555
Li6 O8 2.017715 1_555
Li7 O16 2.017715 1_545
Li7 O14 2.017715 1_554
Li7 O21 2.017715 1_455
B0 O1 1.380499 1_555
B0 O0 1.380499 1_555
B0 O2 1.380499 1_555
B1 O5 1.373570 1_555
B1 O4 1.379922 1_555
B1 O3 1.393295 1_555
B2 O7 1.373570 1_555
B2 O6 1.379922 1_555
B2 O8 1.393295 1_555
B3 O9 1.373570 1_555
B3 O11 1.379922 1_555
B3 O10 1.393295 1_555
B4 O13 1.373570 1_556
B4 O12 1.379922 1_555
B4 O14 1.393295 1_565
B5 O15 1.373570 1_565
B5 O17 1.379922 1_555
B5 O16 1.393295 1_655
B6 O20 1.380499 1_556
B6 O19 1.380499 1_565
B6 O18 1.380499 1_655
B7 O23 1.373570 1_655
B7 O22 1.379922 1_555
B7 O21 1.393295 1_556
B8 O1 1.471214 1_555
B8 O23 1.472123 1_555
B8 O4 1.481052 1_555
B8 O14 1.512010 1_555
B9 O2 1.471214 1_555
B9 O13 1.472123 1_555
B9 O11 1.481052 1_555
B9 O16 1.512010 1_555
B10 O0 1.471214 1_555
B10 O15 1.472123 1_555
B10 O6 1.481052 1_555
B10 O21 1.512010 1_555
B11 O19 1.471214 1_555
B11 O5 1.472123 1_555
B11 O22 1.481052 1_555
B11 O8 1.512010 1_555
B12 O18 1.471214 1_555
B12 O9 1.472123 1_555
B12 O12 1.481052 1_555
B12 O3 1.512010 1_555
B13 O20 1.471214 1_555
B13 O7 1.472123 1_555
B13 O17 1.481052 1_555
B13 O10 1.512010 1_555
Cl0 Li7 2.352146 1_555
Cl1 Li6 2.352146 1_555
