# generated using pymatgen
data_NiC4
_symmetry_space_group_name_H-M   'P 1'
_cell_length_a   4.89302600
_cell_length_b   4.89302600
_cell_length_c   15.64145200
_cell_angle_alpha   90.00000000
_cell_angle_beta   90.00000000
_cell_angle_gamma   90.00000000
_symmetry_Int_Tables_number   1
_chemical_formula_structural   NiC4
_chemical_formula_sum   'Ni4 C16'
_cell_volume   374.48300510
_cell_formula_units_Z   4
loop_
 _symmetry_equiv_pos_site_id
 _symmetry_equiv_pos_as_xyz
  1  'x, y, z'
loop_
 _atom_site_type_symbol
 _atom_site_label
 _atom_site_symmetry_multiplicity
 _atom_site_fract_x
 _atom_site_fract_y
 _atom_site_fract_z
 _atom_site_occupancy
  Ni  Ni0  1  0.00000000  0.50000000  0.50000000  1
  Ni  Ni1  1  0.50000000  0.00000000  0.00000000  1
  Ni  Ni2  1  0.00000000  0.00000000  0.25000000  1
  Ni  Ni3  1  0.00000000  0.00000000  0.75000000  1
  C  C0  1  0.00000000  0.37021300  0.25019400  1
  C  C1  1  0.00000000  0.62978700  0.74980600  1
  C  C2  1  0.00000000  0.62978700  0.25019400  1
  C  C3  1  0.62978700  0.00000000  0.75019400  1
  C  C4  1  0.00000000  0.37021300  0.74980600  1
  C  C5  1  0.37021300  0.00000000  0.24980600  1
  C  C6  1  0.37021300  0.00000000  0.75019400  1
  C  C7  1  0.62978700  0.00000000  0.24980600  1
  C  C8  1  0.37002700  0.50000000  0.50000000  1
  C  C9  1  0.62997300  0.50000000  0.50000000  1
  C  C10  1  0.50000000  0.37002700  0.00000000  1
  C  C11  1  0.50000000  0.62997300  0.00000000  1
  C  C12  1  0.12942200  0.00000000  0.00000000  1
  C  C13  1  0.87057800  0.00000000  0.00000000  1
  C  C14  1  0.00000000  0.12942200  0.50000000  1
  C  C15  1  0.00000000  0.87057800  0.50000000  1
loop_
_geom_bond_atom_site_label_1
_geom_bond_atom_site_label_2
_geom_bond_distance
_geom_bond_site_symmetry_2
C0 C2 1.270102 1_555
C0 Ni2 1.811464 1_555
C1 C4 1.270102 1_555
C1 Ni3 1.811464 1_565
C2 Ni2 1.811464 1_565
C3 C6 1.270102 1_555
C3 Ni3 1.811464 1_655
C4 Ni3 1.811464 1_555
C5 C7 1.270102 1_555
C5 Ni2 1.811464 1_555
C6 Ni3 1.811464 1_555
C7 Ni2 1.811464 1_655
C8 C9 1.271923 1_555
C8 Ni0 1.810552 1_555
C9 Ni0 1.810552 1_655
C10 C11 1.271923 1_555
C10 Ni1 1.810552 1_555
C11 Ni1 1.810552 1_565
C12 C13 1.266530 1_455
C12 Ni1 1.813248 1_555
C13 Ni1 1.813248 1_555
C14 C15 1.266530 1_545
C14 Ni0 1.813248 1_555
C15 Ni0 1.813248 1_555
