# generated using pymatgen
data_NdCuGe
_symmetry_space_group_name_H-M   'P 1'
_cell_length_a   4.17119416
_cell_length_b   4.17119416
_cell_length_c   4.15898435
_cell_angle_alpha   90.00000000
_cell_angle_beta   90.00000000
_cell_angle_gamma   119.99999180
_symmetry_Int_Tables_number   1
_chemical_formula_structural   NdCuGe
_chemical_formula_sum   'Nd1 Cu1 Ge1'
_cell_volume   62.66697998
_cell_formula_units_Z   1
loop_
 _symmetry_equiv_pos_site_id
 _symmetry_equiv_pos_as_xyz
  1  'x, y, z'
loop_
 _atom_site_type_symbol
 _atom_site_label
 _atom_site_symmetry_multiplicity
 _atom_site_fract_x
 _atom_site_fract_y
 _atom_site_fract_z
 _atom_site_occupancy
  Nd  Nd0  1  0.33333300  0.66666700  0.00000000  1
  Cu  Cu0  1  0.66666700  0.33333300  0.50000000  1
  Ge  Ge0  1  -0.00000000  -0.00000000  0.50000000  1
loop_
_geom_bond_atom_site_label_1
_geom_bond_atom_site_label_2
_geom_bond_distance
_geom_bond_site_symmetry_2
Cu0 Ge0 2.408238 1_655
Cu0 Ge0 2.408241 1_665
Cu0 Ge0 2.408241 1_555
Cu0 Nd0 3.181807 1_546
Cu0 Nd0 3.181807 1_545
Cu0 Nd0 3.181807 1_656
Cu0 Nd0 3.181807 1_655
Cu0 Nd0 3.181812 1_555
Cu0 Nd0 3.181812 1_556
Ge0 Nd0 3.181807 1_546
Ge0 Nd0 3.181807 1_545
Ge0 Nd0 3.181810 1_445
Ge0 Nd0 3.181810 1_446
Ge0 Nd0 3.181810 1_555
Ge0 Nd0 3.181810 1_556
