# generated using pymatgen
data_CeCuSi2Pd
_symmetry_space_group_name_H-M   'P 1'
_cell_length_a   5.78055181
_cell_length_b   5.78055181
_cell_length_c   5.78055181
_cell_angle_alpha   137.97024908
_cell_angle_beta   137.97026288
_cell_angle_gamma   60.94855596
_symmetry_Int_Tables_number   1
_chemical_formula_structural   CeCuSi2Pd
_chemical_formula_sum   'Ce1 Cu1 Si2 Pd1'
_cell_volume   85.63444552
_cell_formula_units_Z   1
loop_
 _symmetry_equiv_pos_site_id
 _symmetry_equiv_pos_as_xyz
  1  'x, y, z'
loop_
 _atom_site_type_symbol
 _atom_site_label
 _atom_site_symmetry_multiplicity
 _atom_site_fract_x
 _atom_site_fract_y
 _atom_site_fract_z
 _atom_site_occupancy
  Ce  Ce0  1  0.99999963  0.99999963  -0.00000000  1
  Cu  Cu0  1  0.25000011  0.75000011  0.50000000  1
  Si  Si0  1  0.61926390  0.61926390  -0.00000000  1
  Si  Si1  1  0.38073623  0.38073623  0.00000000  1
  Pd  Pd0  1  0.75000013  0.25000013  0.50000000  1
loop_
_geom_bond_atom_site_label_1
_geom_bond_atom_site_label_2
_geom_bond_distance
_geom_bond_site_symmetry_2
Ce0 Si1 3.163310 1_666
Ce0 Si1 3.163310 1_554
Ce0 Si1 3.163310 1_565
Ce0 Si1 3.163310 1_655
Ce0 Si0 3.163313 1_554
Ce0 Si0 3.163313 1_655
Ce0 Si0 3.163313 1_666
Ce0 Si0 3.163313 1_565
Ce0 Cu0 3.240719 1_655
Ce0 Cu0 3.240719 1_554
Ce0 Pd0 3.240720 1_565
Ce0 Pd0 3.240720 1_554
Ce0 Pd0 3.240727 1_564
Ce0 Pd0 3.240727 1_665
Ce0 Cu0 3.240727 1_665
Ce0 Cu0 3.240727 1_654
Cu0 Si0 2.448285 1_455
Cu0 Si0 2.448285 1_556
Cu0 Si1 2.448285 1_555
Cu0 Si1 2.448285 1_566
Cu0 Pd0 2.931616 1_555
Cu0 Pd0 2.931616 1_454
Cu0 Pd0 2.931616 1_566
Cu0 Pd0 2.931616 1_465
Si0 Si1 2.376694 1_555
Pd0 Si1 2.448285 1_555
Pd0 Si1 2.448285 1_656
Pd0 Si0 2.448286 1_556
Pd0 Si0 2.448286 1_545
