# generated using pymatgen
data_NiSbP2O9
_symmetry_space_group_name_H-M   'P 1'
_cell_length_a   6.39852100
_cell_length_b   7.88102700
_cell_length_c   14.06983200
_cell_angle_alpha   90.00000000
_cell_angle_beta   90.00000000
_cell_angle_gamma   90.00000000
_symmetry_Int_Tables_number   1
_chemical_formula_structural   NiSbP2O9
_chemical_formula_sum   'Ni4 Sb4 P8 O36'
_cell_volume   709.49824711
_cell_formula_units_Z   4
loop_
 _symmetry_equiv_pos_site_id
 _symmetry_equiv_pos_as_xyz
  1  'x, y, z'
loop_
 _atom_site_type_symbol
 _atom_site_label
 _atom_site_symmetry_multiplicity
 _atom_site_fract_x
 _atom_site_fract_y
 _atom_site_fract_z
 _atom_site_occupancy
  Ni  Ni0  1  0.00000000  0.00000000  0.00000000  1
  Ni  Ni1  1  0.00000000  0.50000000  0.50000000  1
  Ni  Ni2  1  0.50000000  0.50000000  0.50000000  1
  Ni  Ni3  1  0.50000000  0.00000000  0.00000000  1
  Sb  Sb0  1  0.75000000  0.65213600  0.87669700  1
  Sb  Sb1  1  0.25000000  0.34786400  0.12330300  1
  Sb  Sb2  1  0.25000000  0.15213600  0.62330300  1
  Sb  Sb3  1  0.75000000  0.84786400  0.37669700  1
  P  P0  1  0.25000000  0.65503200  0.94042100  1
  P  P1  1  0.75000000  0.34496800  0.05957900  1
  P  P2  1  0.75000000  0.15503200  0.55957900  1
  P  P3  1  0.25000000  0.84496800  0.44042100  1
  P  P4  1  0.75000000  0.60698400  0.68556700  1
  P  P5  1  0.25000000  0.39301600  0.31443300  1
  P  P6  1  0.25000000  0.10698400  0.81443300  1
  P  P7  1  0.75000000  0.89301600  0.18556700  1
  O  O0  1  0.44976100  0.40619500  0.37402500  1
  O  O1  1  0.94976100  0.59380500  0.62597500  1
  O  O2  1  0.55023900  0.90619500  0.12597500  1
  O  O3  1  0.05023900  0.09380500  0.87402500  1
  O  O4  1  0.55023900  0.59380500  0.62597500  1
  O  O5  1  0.05023900  0.40619500  0.37402500  1
  O  O6  1  0.44976100  0.09380500  0.87402500  1
  O  O7  1  0.94976100  0.90619500  0.12597500  1
  O  O8  1  0.25000000  0.66506000  0.48211900  1
  O  O9  1  0.75000000  0.33494000  0.51788100  1
  O  O10  1  0.75000000  0.16506000  0.01788100  1
  O  O11  1  0.25000000  0.83494000  0.98211900  1
  O  O12  1  0.75000000  0.85473000  0.95355100  1
  O  O13  1  0.25000000  0.14527000  0.04644900  1
  O  O14  1  0.25000000  0.35473000  0.54644900  1
  O  O15  1  0.75000000  0.64527000  0.45355100  1
  O  O16  1  0.75000000  0.77516800  0.74763000  1
  O  O17  1  0.25000000  0.22483200  0.25237000  1
  O  O18  1  0.25000000  0.27516800  0.75237000  1
  O  O19  1  0.75000000  0.72483200  0.24763000  1
  O  O20  1  0.06009300  0.86927000  0.37333600  1
  O  O21  1  0.56009300  0.13073000  0.62666400  1
  O  O22  1  0.93990700  0.36927000  0.12666400  1
  O  O23  1  0.43990700  0.63073000  0.87333600  1
  O  O24  1  0.93990700  0.13073000  0.62666400  1
  O  O25  1  0.43990700  0.86927000  0.37333600  1
  O  O26  1  0.06009300  0.63073000  0.87333600  1
  O  O27  1  0.56009300  0.36927000  0.12666400  1
  O  O28  1  0.75000000  0.02584000  0.27210500  1
  O  O29  1  0.25000000  0.97416000  0.72789500  1
  O  O30  1  0.25000000  0.52584000  0.22789500  1
  O  O31  1  0.75000000  0.47416000  0.77210500  1
  O  O32  1  0.75000000  0.01982300  0.48114800  1
  O  O33  1  0.25000000  0.98017700  0.51885200  1
  O  O34  1  0.25000000  0.51982300  0.01885200  1
  O  O35  1  0.75000000  0.48017700  0.98114800  1
loop_
_geom_bond_atom_site_label_1
_geom_bond_atom_site_label_2
_geom_bond_distance
_geom_bond_site_symmetry_2
Ni0 O7 1.947161 1_445
Ni0 O3 1.947161 1_554
Ni0 O13 2.072839 1_555
Ni0 O12 2.072839 1_444
Ni0 O10 2.077090 1_455
Ni0 O11 2.077090 1_544
Ni1 O1 1.947161 1_455
Ni1 O5 1.947161 1_555
Ni1 O14 2.072839 1_555
Ni1 O15 2.072839 1_455
Ni1 O9 2.077090 1_455
Ni1 O8 2.077090 1_555
Ni2 O4 1.947161 1_555
Ni2 O0 1.947161 1_555
Ni2 O14 2.072839 1_555
Ni2 O15 2.072839 1_555
Ni2 O9 2.077090 1_555
Ni2 O8 2.077090 1_555
Ni3 O2 1.947161 1_545
Ni3 O6 1.947161 1_554
Ni3 O13 2.072839 1_555
Ni3 O12 2.072839 1_544
Ni3 O10 2.077090 1_555
Ni3 O11 2.077090 1_544
O0 P5 1.532161 1_555
O1 P4 1.532161 1_555
O2 P7 1.532161 1_555
O3 P6 1.532161 1_555
O4 P4 1.532161 1_555
O5 P5 1.532161 1_555
O6 P6 1.532161 1_555
O7 P7 1.532161 1_555
O8 P3 1.534446 1_555
O9 P2 1.534446 1_555
O10 P1 1.534446 1_555
O11 P0 1.534446 1_555
O12 Sb0 1.928353 1_555
O13 Sb1 1.928353 1_555
O14 Sb2 1.928353 1_555
O15 Sb3 1.928353 1_555
O16 P4 1.587248 1_555
O16 Sb0 2.058601 1_555
O17 P5 1.587248 1_555
O17 Sb1 2.058601 1_555
O18 P6 1.587248 1_555
O18 Sb2 2.058601 1_555
O19 P7 1.587248 1_555
O19 Sb3 2.058601 1_555
O20 P3 1.550518 1_555
O20 Sb3 1.991857 1_455
O21 P2 1.550518 1_555
O21 Sb2 1.991857 1_555
O22 P1 1.550518 1_555
O22 Sb1 1.991857 1_655
O23 P0 1.550518 1_555
O23 Sb0 1.991857 1_555
O24 P2 1.550518 1_555
O24 Sb2 1.991857 1_655
O25 P3 1.550518 1_555
O25 Sb3 1.991857 1_555
O26 P0 1.550518 1_555
O26 Sb0 1.991857 1_455
O27 P1 1.550518 1_555
O27 Sb1 1.991857 1_555
O28 P7 1.605695 1_545
O28 Sb3 2.032969 1_545
O29 P6 1.605695 1_565
O29 Sb2 2.032969 1_565
O30 P5 1.605695 1_555
O30 Sb1 2.032969 1_555
O31 P4 1.605695 1_555
O31 Sb0 2.032969 1_555
O32 P2 1.534017 1_555
O32 Sb3 1.999088 1_545
O33 P3 1.534017 1_555
O33 Sb2 1.999088 1_565
O34 P0 1.534017 1_554
O34 Sb1 1.999088 1_555
O35 P1 1.534017 1_556
O35 Sb0 1.999088 1_555
