# generated using pymatgen
data_Na2(WO3)3
_symmetry_space_group_name_H-M   'P 1'
_cell_length_a   5.55859930
_cell_length_b   5.55859930
_cell_length_c   6.80549000
_cell_angle_alpha   90.00000000
_cell_angle_beta   90.00000000
_cell_angle_gamma   119.99999166
_symmetry_Int_Tables_number   1
_chemical_formula_structural   Na2(WO3)3
_chemical_formula_sum   'Na2 W3 O9'
_cell_volume   182.10455333
_cell_formula_units_Z   1
loop_
 _symmetry_equiv_pos_site_id
 _symmetry_equiv_pos_as_xyz
  1  'x, y, z'
loop_
 _atom_site_type_symbol
 _atom_site_label
 _atom_site_symmetry_multiplicity
 _atom_site_fract_x
 _atom_site_fract_y
 _atom_site_fract_z
 _atom_site_occupancy
  Na  Na0  1  0.66666700  0.33333300  0.33222500  1
  Na  Na1  1  0.33333300  0.66666700  0.66777500  1
  W  W0  1  0.00000000  0.00000000  0.50000000  1
  W  W1  1  0.66666700  0.33333300  0.83835900  1
  W  W2  1  0.33333300  0.66666700  0.16164100  1
  O  O0  1  0.83259100  0.16740900  0.66215700  1
  O  O1  1  0.50000000  0.50000000  0.00000000  1
  O  O2  1  0.16740900  0.83259100  0.33784300  1
  O  O3  1  0.66518100  0.83259100  0.33784300  1
  O  O4  1  0.33481900  0.16740900  0.66215700  1
  O  O5  1  0.00000000  0.50000000  0.00000000  1
  O  O6  1  0.83259100  0.66518100  0.66215700  1
  O  O7  1  0.50000000  0.00000000  0.00000000  1
  O  O8  1  0.16740900  0.33481900  0.33784300  1
loop_
_geom_bond_atom_site_label_1
_geom_bond_atom_site_label_2
_geom_bond_distance
_geom_bond_site_symmetry_2
Na0 O0 2.755636 1_555
Na0 O4 2.755636 1_555
Na0 O6 2.755636 1_555
Na0 O5 2.772498 1_655
Na0 O7 2.772498 1_555
Na0 O1 2.772500 1_555
Na0 O8 2.779566 1_655
Na0 O3 2.779566 1_545
Na0 O2 2.779572 1_655
Na0 O2 2.779572 1_545
Na0 O8 2.779577 1_555
Na0 O3 2.779577 1_555
Na1 O2 2.755636 1_555
Na1 O3 2.755636 1_555
Na1 O8 2.755636 1_555
Na1 O7 2.772498 1_566
Na1 O5 2.772498 1_556
Na1 O1 2.772500 1_556
Na1 O4 2.779566 1_565
Na1 O6 2.779566 1_455
Na1 O0 2.779572 1_565
Na1 O0 2.779572 1_455
Na1 O6 2.779577 1_555
Na1 O4 2.779577 1_555
O0 W0 1.953372 1_655
O0 W1 1.997468 1_555
O1 W2 1.945494 1_555
O1 W1 1.945494 1_554
O2 W0 1.953372 1_565
O2 W2 1.997468 1_555
O3 W0 1.953376 1_665
O3 W2 1.997468 1_555
O4 W0 1.953376 1_555
O4 W1 1.997468 1_555
O5 W2 1.945490 1_555
O5 W1 1.945490 1_454
O6 W0 1.953376 1_665
O6 W1 1.997468 1_555
O7 W2 1.945490 1_545
O7 W1 1.945490 1_554
O8 W0 1.953376 1_555
O8 W2 1.997468 1_555
