# generated using pymatgen
data_AlSnO3
_symmetry_space_group_name_H-M   'P 1'
_cell_length_a   3.43220772
_cell_length_b   3.43220772
_cell_length_c   12.47037200
_cell_angle_alpha   90.00000000
_cell_angle_beta   90.00000000
_cell_angle_gamma   119.99999467
_symmetry_Int_Tables_number   1
_chemical_formula_structural   AlSnO3
_chemical_formula_sum   'Al2 Sn2 O6'
_cell_volume   127.22052767
_cell_formula_units_Z   2
loop_
 _symmetry_equiv_pos_site_id
 _symmetry_equiv_pos_as_xyz
  1  'x, y, z'
loop_
 _atom_site_type_symbol
 _atom_site_label
 _atom_site_symmetry_multiplicity
 _atom_site_fract_x
 _atom_site_fract_y
 _atom_site_fract_z
 _atom_site_occupancy
  Al  Al0  1  0.00000000  0.00000000  0.50000000  1
  Al  Al1  1  0.00000000  0.00000000  0.00000000  1
  Sn  Sn0  1  0.66666700  0.33333300  0.75000000  1
  Sn  Sn1  1  0.33333300  0.66666700  0.25000000  1
  O  O0  1  0.33333300  0.66666700  0.43155800  1
  O  O1  1  0.66666700  0.33333300  0.93155800  1
  O  O2  1  0.66666700  0.33333300  0.56844200  1
  O  O3  1  0.33333300  0.66666700  0.06844200  1
  O  O4  1  0.00000000  0.00000000  0.25000000  1
  O  O5  1  0.00000000  0.00000000  0.75000000  1
loop_
_geom_bond_atom_site_label_1
_geom_bond_atom_site_label_2
_geom_bond_distance
_geom_bond_site_symmetry_2
Al0 O0 2.157576 1_545
Al0 O2 2.157576 1_455
Al0 O0 2.157579 1_555
Al0 O2 2.157579 1_555
Al0 O2 2.157579 1_445
Al0 O0 2.157579 1_445
Al1 O3 2.157576 1_545
Al1 O1 2.157576 1_454
Al1 O3 2.157579 1_555
Al1 O3 2.157579 1_445
Al1 O1 2.157579 1_554
Al1 O1 2.157579 1_444
O0 Sn1 2.264096 1_555
O1 Sn0 2.264096 1_555
O2 Sn0 2.264096 1_555
O3 Sn1 2.264096 1_555
O4 Sn1 1.981584 1_545
O4 Sn1 1.981587 1_445
O4 Sn1 1.981587 1_555
O5 Sn0 1.981584 1_455
O5 Sn0 1.981587 1_445
O5 Sn0 1.981587 1_555
