# generated using pymatgen
data_MnAlF5
_symmetry_space_group_name_H-M   'P 1'
_cell_length_a   5.22673105
_cell_length_b   5.22673105
_cell_length_c   5.22673105
_cell_angle_alpha   139.92172754
_cell_angle_beta   106.59349661
_cell_angle_gamma   87.09126498
_symmetry_Int_Tables_number   1
_chemical_formula_structural   MnAlF5
_chemical_formula_sum   'Mn1 Al1 F5'
_cell_volume   84.78361726
_cell_formula_units_Z   1
loop_
 _symmetry_equiv_pos_site_id
 _symmetry_equiv_pos_as_xyz
  1  'x, y, z'
loop_
 _atom_site_type_symbol
 _atom_site_label
 _atom_site_symmetry_multiplicity
 _atom_site_fract_x
 _atom_site_fract_y
 _atom_site_fract_z
 _atom_site_occupancy
  Mn  Mn0  1  -0.00000000  0.00000000  -0.00000000  1
  Al  Al0  1  0.50000000  0.50000000  -0.00000000  1
  F  F0  1  0.79137617  0.50000000  0.29137617  1
  F  F1  1  0.20862383  0.50000000  0.70862383  1
  F  F2  1  0.26540219  0.26540219  0.00000000  1
  F  F3  1  0.73459781  0.73459781  -0.00000000  1
  F  F4  1  0.50000000  0.00000000  0.50000000  1
loop_
_geom_bond_atom_site_label_1
_geom_bond_atom_site_label_2
_geom_bond_distance
_geom_bond_site_symmetry_2
Al0 F2 1.777534 1_555
Al0 F3 1.777534 1_555
Al0 F4 1.791002 1_554
Al0 F4 1.791002 1_565
Al0 F1 1.820439 1_554
Al0 F0 1.820439 1_555
F0 Mn0 2.215085 1_655
F0 Mn0 2.215085 1_666
F1 Mn0 2.215085 1_555
F1 Mn0 2.215085 1_566
F2 Mn0 2.010937 1_555
F3 Mn0 2.010937 1_665
