# generated using pymatgen
data_LaGa4Fe9C
_symmetry_space_group_name_H-M   'P 1'
_cell_length_a   8.27611906
_cell_length_b   8.27611906
_cell_length_c   8.27611906
_cell_angle_alpha   119.42706307
_cell_angle_beta   119.42706307
_cell_angle_gamma   90.99525393
_symmetry_Int_Tables_number   1
_chemical_formula_structural   LaGa4Fe9C
_chemical_formula_sum   'La2 Ga8 Fe18 C2'
_cell_volume   404.23977412
_cell_formula_units_Z   2
loop_
 _symmetry_equiv_pos_site_id
 _symmetry_equiv_pos_as_xyz
  1  'x, y, z'
loop_
 _atom_site_type_symbol
 _atom_site_label
 _atom_site_symmetry_multiplicity
 _atom_site_fract_x
 _atom_site_fract_y
 _atom_site_fract_z
 _atom_site_occupancy
  La  La0  1  0.75000000  0.75000000  0.00000000  1
  La  La1  1  0.25000000  0.25000000  0.00000000  1
  Ga  Ga0  1  0.30547000  0.80547000  0.86625700  1
  Ga  Ga1  1  0.69453000  0.19453000  0.13374300  1
  Ga  Ga2  1  0.93921200  0.43921200  0.13374300  1
  Ga  Ga3  1  0.80547000  0.93921200  0.50000000  1
  Ga  Ga4  1  0.56078800  0.69453000  0.50000000  1
  Ga  Ga5  1  0.06078800  0.56078800  0.86625700  1
  Ga  Ga6  1  0.19453000  0.06078800  0.50000000  1
  Ga  Ga7  1  0.43921200  0.30547000  0.50000000  1
  Fe  Fe0  1  0.71187900  0.56481400  0.27669400  1
  Fe  Fe1  1  0.28812100  0.43518600  0.72330600  1
  Fe  Fe2  1  0.56481400  0.28812100  0.85293500  1
  Fe  Fe3  1  0.21187900  0.93518600  0.14706500  1
  Fe  Fe4  1  0.43518600  0.71187900  0.14706500  1
  Fe  Fe5  1  0.78812100  0.06481400  0.85293500  1
  Fe  Fe6  1  0.06481400  0.21187900  0.27669400  1
  Fe  Fe7  1  0.93518600  0.78812100  0.72330600  1
  Fe  Fe8  1  0.78251800  0.28251800  0.71655600  1
  Fe  Fe9  1  0.21748200  0.71748200  0.28344400  1
  Fe  Fe10  1  0.56596100  0.06596100  0.28344400  1
  Fe  Fe11  1  0.28251800  0.56596100  0.50000000  1
  Fe  Fe12  1  0.93403900  0.21748200  0.50000000  1
  Fe  Fe13  1  0.43403900  0.93403900  0.71655600  1
  Fe  Fe14  1  0.71748200  0.43403900  0.50000000  1
  Fe  Fe15  1  0.06596100  0.78251800  0.50000000  1
  Fe  Fe16  1  0.00000000  0.50000000  0.50000000  1
  Fe  Fe17  1  0.50000000  0.00000000  0.50000000  1
  C  C0  1  0.50000000  0.50000000  0.00000000  1
  C  C1  1  0.00000000  0.00000000  0.00000000  1
loop_
_geom_bond_atom_site_label_1
_geom_bond_atom_site_label_2
_geom_bond_distance
_geom_bond_site_symmetry_2
Ga0 Ga5 2.838827 1_555
Ga0 La1 3.395200 1_566
Ga0 La0 3.395200 1_556
Ga1 Ga2 2.838827 1_555
Ga1 La0 3.395200 1_545
Ga1 La1 3.395200 1_555
Ga2 La1 3.395206 1_655
Ga2 La0 3.395206 1_555
Ga3 Ga4 2.838827 1_555
Ga3 La1 3.395202 1_666
Ga3 La0 3.395202 1_555
Ga4 La1 3.395202 1_555
Ga4 La0 3.395202 1_556
Ga5 La1 3.395206 1_556
Ga5 La0 3.395206 1_456
Ga6 Ga7 2.838827 1_555
Ga6 La0 3.395202 1_445
Ga6 La1 3.395202 1_556
Ga7 La0 3.395202 1_556
Ga7 La1 3.395202 1_555
Fe0 Fe16 2.465245 1_655
Fe0 Fe14 2.544024 1_555
Fe0 Fe15 2.544033 1_655
Fe0 Ga4 2.549413 1_555
Fe0 Ga3 2.549419 1_555
Fe0 Ga2 2.658336 1_555
Fe0 Ga1 2.658336 1_555
Fe1 Fe16 2.465245 1_555
Fe1 Fe11 2.544024 1_555
Fe1 Fe12 2.544033 1_455
Fe1 Ga7 2.549413 1_555
Fe1 Ga6 2.549419 1_555
Fe1 Ga5 2.658336 1_555
Fe1 Ga0 2.658336 1_555
Fe2 Fe8 2.544038 1_555
Fe2 Ga2 2.549420 1_556
Fe2 Ga1 2.549426 1_556
Fe2 Ga7 2.658336 1_555
Fe2 Ga6 2.658336 1_555
Fe3 Fe9 2.544038 1_555
Fe3 Ga5 2.549420 1_554
Fe3 Ga0 2.549426 1_554
Fe3 Ga6 2.658336 1_565
Fe3 Ga7 2.658336 1_565
Fe4 Fe9 2.544038 1_555
Fe4 Ga5 2.549420 1_554
Fe4 Ga0 2.549426 1_554
Fe4 Ga4 2.658336 1_555
Fe4 Ga3 2.658336 1_555
Fe5 Fe8 2.544038 1_555
Fe5 Ga2 2.549420 1_556
Fe5 Ga1 2.549426 1_556
Fe5 Ga4 2.658336 1_545
Fe5 Ga3 2.658336 1_545
Fe6 Ga6 2.549413 1_555
Fe6 Ga7 2.549419 1_555
Fe6 Ga1 2.658336 1_455
Fe6 Ga2 2.658336 1_455
Fe7 Ga3 2.549413 1_555
Fe7 Ga4 2.549419 1_555
Fe7 Ga5 2.658336 1_655
Fe7 Ga0 2.658336 1_655
Fe8 Ga5 2.520093 1_655
Fe8 Ga2 2.535082 1_556
Fe8 Ga3 2.582712 1_545
Fe8 Ga7 2.582712 1_555
Fe8 La1 3.504611 1_656
Fe8 La0 3.504611 1_556
Fe9 Ga2 2.520093 1_455
Fe9 Ga5 2.535082 1_554
Fe9 Ga4 2.582712 1_555
Fe9 Ga6 2.582712 1_565
Fe9 La0 3.504611 1_455
Fe9 La1 3.504611 1_555
Fe10 Fe17 2.391775 1_555
Fe10 Ga1 2.520093 1_555
Fe10 Fe12 2.521586 1_555
Fe10 Fe14 2.521586 1_555
Fe10 Ga0 2.535076 1_544
Fe10 Fe4 2.544029 1_545
Fe10 Fe3 2.544029 1_545
Fe10 Fe8 2.556533 1_555
Fe10 Ga3 2.582710 1_545
Fe10 Ga7 2.582710 1_555
Fe10 La0 3.504614 1_545
Fe10 La1 3.504614 1_555
Fe11 Fe16 2.391783 1_555
Fe11 Ga4 2.520093 1_555
Fe11 Fe9 2.521578 1_555
Fe11 Fe13 2.521586 1_555
Fe11 Ga7 2.535068 1_555
Fe11 Fe6 2.544033 1_555
Fe11 Fe15 2.556544 1_555
Fe11 Ga0 2.582708 1_555
Fe11 Ga2 2.582710 1_455
Fe11 La1 3.504610 1_555
Fe11 La0 3.504610 1_556
Fe12 Fe16 2.391783 1_655
Fe12 Ga3 2.520093 1_545
Fe12 Fe8 2.521578 1_555
Fe12 Ga6 2.535068 1_655
Fe12 Fe6 2.544024 1_655
Fe12 Fe14 2.556544 1_555
Fe12 Ga1 2.582708 1_555
Fe12 Ga5 2.582710 1_655
Fe12 La1 3.504610 1_656
Fe12 La0 3.504610 1_545
Fe13 Fe17 2.391775 1_565
Fe13 Ga0 2.520093 1_555
Fe13 Fe15 2.521586 1_555
Fe13 Ga1 2.535076 1_566
Fe13 Fe5 2.544029 1_565
Fe13 Fe2 2.544029 1_565
Fe13 Fe9 2.556533 1_555
Fe13 Ga4 2.582710 1_555
Fe13 Ga6 2.582710 1_565
Fe13 La0 3.504614 1_556
Fe13 La1 3.504614 1_566
Fe14 Fe16 2.391783 1_655
Fe14 Ga7 2.520093 1_555
Fe14 Fe8 2.521578 1_555
Fe14 Ga4 2.535068 1_555
Fe14 Fe7 2.544033 1_555
Fe14 Ga1 2.582708 1_555
Fe14 Ga5 2.582710 1_655
Fe14 La1 3.504610 1_555
Fe14 La0 3.504610 1_556
Fe15 Fe16 2.391783 1_555
Fe15 Ga6 2.520093 1_565
Fe15 Fe9 2.521578 1_555
Fe15 Ga3 2.535068 1_455
Fe15 Fe7 2.544024 1_455
Fe15 Ga0 2.582708 1_555
Fe15 Ga2 2.582710 1_455
Fe15 La1 3.504610 1_566
Fe15 La0 3.504610 1_455
Fe16 Fe6 2.465245 1_555
Fe16 Fe7 2.465245 1_455
Fe16 Ga2 2.586225 1_455
Fe16 Ga5 2.586225 1_555
Fe16 Ga1 2.586231 1_455
Fe16 Ga0 2.586231 1_555
Fe17 Fe8 2.391784 1_555
Fe17 Fe9 2.391784 1_545
Fe17 Fe5 2.465248 1_555
Fe17 Fe2 2.465248 1_555
Fe17 Fe3 2.465248 1_545
Fe17 Fe4 2.465248 1_545
Fe17 Ga6 2.586233 1_555
Fe17 Ga4 2.586233 1_545
Fe17 Ga3 2.586233 1_545
Fe17 Ga7 2.586233 1_555
C0 Fe4 1.849602 1_555
C0 Fe2 1.849602 1_554
C0 Fe0 1.849608 1_555
C0 Fe1 1.849608 1_554
C0 La0 2.900526 1_555
C0 La1 2.900526 1_555
C1 Fe5 1.849602 1_454
C1 Fe3 1.849602 1_545
C1 Fe7 1.849608 1_444
C1 Fe6 1.849608 1_555
C1 La1 2.900526 1_555
C1 La0 2.900526 1_445
