# generated using pymatgen
data_C2S3I
_symmetry_space_group_name_H-M   'P 1'
_cell_length_a   9.83176322
_cell_length_b   9.83176322
_cell_length_c   16.67666631
_cell_angle_alpha   69.44873930
_cell_angle_beta   69.44873930
_cell_angle_gamma   63.06056371
_symmetry_Int_Tables_number   1
_chemical_formula_structural   C2S3I
_chemical_formula_sum   'C16 S24 I8'
_cell_volume   1309.55903537
_cell_formula_units_Z   8
loop_
 _symmetry_equiv_pos_site_id
 _symmetry_equiv_pos_as_xyz
  1  'x, y, z'
loop_
 _atom_site_type_symbol
 _atom_site_label
 _atom_site_symmetry_multiplicity
 _atom_site_fract_x
 _atom_site_fract_y
 _atom_site_fract_z
 _atom_site_occupancy
  C  C0  1  0.80753400  0.91860800  0.75132300  1
  C  C1  1  0.19246600  0.08139200  0.24867700  1
  C  C2  1  0.08139200  0.19246600  0.74867700  1
  C  C3  1  0.91860800  0.80753400  0.25132300  1
  C  C4  1  0.64192300  0.09987600  0.84569900  1
  C  C5  1  0.35807700  0.90012400  0.15430100  1
  C  C6  1  0.90012400  0.35807700  0.65430100  1
  C  C7  1  0.09987600  0.64192300  0.34569900  1
  C  C8  1  0.68248600  0.02489900  0.61652100  1
  C  C9  1  0.31751400  0.97510100  0.38347900  1
  C  C10  1  0.97510100  0.31751400  0.88347900  1
  C  C11  1  0.02489900  0.68248600  0.11652100  1
  C  C12  1  0.67592000  0.05275700  0.76735300  1
  C  C13  1  0.32408000  0.94724300  0.23264700  1
  C  C14  1  0.94724300  0.32408000  0.73264700  1
  C  C15  1  0.05275700  0.67592000  0.26735300  1
  S  S0  1  0.56777200  0.15241400  0.68687800  1
  S  S1  1  0.43222800  0.84758600  0.31312200  1
  S  S2  1  0.84758600  0.43222800  0.81312200  1
  S  S3  1  0.15241400  0.56777200  0.18687800  1
  S  S4  1  0.48848300  0.26081400  0.87431700  1
  S  S5  1  0.51151700  0.73918600  0.12568300  1
  S  S6  1  0.73918600  0.51151700  0.62568300  1
  S  S7  1  0.26081400  0.48848300  0.37431700  1
  S  S8  1  0.84605900  0.86881800  0.65388600  1
  S  S9  1  0.15394100  0.13118200  0.34611400  1
  S  S10  1  0.13118200  0.15394100  0.84611400  1
  S  S11  1  0.86881800  0.84605900  0.15388600  1
  S  S12  1  0.18299400  0.08161600  0.67127200  1
  S  S13  1  0.81700600  0.91838400  0.32872800  1
  S  S14  1  0.91838400  0.81700600  0.82872800  1
  S  S15  1  0.08161600  0.18299400  0.17127200  1
  S  S16  1  0.64272400  0.04926100  0.52367500  1
  S  S17  1  0.35727600  0.95073900  0.47632500  1
  S  S18  1  0.95073900  0.35727600  0.97632500  1
  S  S19  1  0.04926100  0.64272400  0.02367500  1
  S  S20  1  0.77428300  0.97416600  0.91140400  1
  S  S21  1  0.22571700  0.02583400  0.08859600  1
  S  S22  1  0.02583400  0.22571700  0.58859600  1
  S  S23  1  0.97416600  0.77428300  0.41140400  1
  I  I0  1  0.25511400  0.53243500  0.52821900  1
  I  I1  1  0.74488600  0.46756500  0.47178100  1
  I  I2  1  0.46756500  0.74488600  0.97178100  1
  I  I3  1  0.53243500  0.25511400  0.02821900  1
  I  I4  1  0.40717500  0.75143300  0.81126000  1
  I  I5  1  0.59282500  0.24856700  0.18874000  1
  I  I6  1  0.24856700  0.59282500  0.68874000  1
  I  I7  1  0.75143300  0.40717500  0.31126000  1
loop_
_geom_bond_atom_site_label_1
_geom_bond_atom_site_label_2
_geom_bond_distance
_geom_bond_site_symmetry_2
C0 C12 1.394169 1_565
C0 S14 1.716944 1_555
C0 S8 1.726797 1_555
C1 C13 1.394169 1_545
C1 S15 1.716944 1_555
C1 S9 1.726797 1_555
C2 S12 1.716944 1_555
C2 S10 1.726797 1_555
C3 S13 1.716944 1_555
C3 S11 1.726797 1_555
C4 S4 1.693841 1_555
C4 S20 1.736270 1_545
C5 S5 1.693841 1_555
C5 S21 1.736270 1_565
C6 S6 1.693841 1_555
C6 S22 1.736270 1_655
C7 S7 1.693841 1_555
C7 S23 1.736270 1_455
C8 S16 1.639321 1_555
C8 S0 1.744404 1_555
C8 S8 1.767925 1_545
C9 S17 1.639321 1_555
C9 S1 1.744404 1_555
C9 S9 1.767925 1_565
C10 S18 1.639321 1_555
C10 S2 1.744404 1_555
C10 S10 1.767925 1_655
C11 S19 1.639321 1_555
C11 S3 1.744404 1_555
C11 S11 1.767925 1_455
C12 C4 1.418256 1_555
C12 S0 1.739650 1_555
C13 C5 1.418256 1_555
C13 S1 1.739650 1_555
C14 C2 1.394169 1_655
C14 C6 1.418256 1_555
C14 S2 1.739650 1_555
C15 C3 1.394169 1_455
C15 C7 1.418256 1_555
C15 S3 1.739650 1_555
S12 S22 2.106288 1_555
S13 S23 2.106288 1_555
S14 S20 2.106288 1_555
S15 S21 2.106288 1_555
I0 S7 2.726337 1_555
I0 I6 2.912570 1_555
I1 S6 2.726337 1_555
I1 I7 2.912570 1_555
I2 S5 2.726337 1_556
I2 I4 2.912570 1_555
I3 S4 2.726337 1_554
I3 I5 2.912570 1_555
