# generated using pymatgen
data_ErSeBr
_symmetry_space_group_name_H-M   'P 1'
_cell_length_a   10.62790700
_cell_length_b   14.66707700
_cell_length_c   37.32454900
_cell_angle_alpha   90.00000000
_cell_angle_beta   90.00000000
_cell_angle_gamma   90.00000000
_symmetry_Int_Tables_number   1
_chemical_formula_structural   ErSeBr
_chemical_formula_sum   'Er2 Se2 Br2'
_cell_volume   5818.16302708
_cell_formula_units_Z   2
loop_
 _symmetry_equiv_pos_site_id
 _symmetry_equiv_pos_as_xyz
  1  'x, y, z'
loop_
 _atom_site_type_symbol
 _atom_site_label
 _atom_site_symmetry_multiplicity
 _atom_site_fract_x
 _atom_site_fract_y
 _atom_site_fract_z
 _atom_site_occupancy
  Er  Er0  1  0.50000000  0.50000000  0.11388000  1
  Er  Er1  1  0.50000000  0.50000000  0.88612000  1
  Se  Se0  1  0.50000000  0.50000000  0.04973900  1
  Se  Se1  1  0.50000000  0.50000000  0.95026100  1
  Br  Br0  1  0.50000000  0.50000000  0.67054400  1
  Br  Br1  1  0.50000000  0.50000000  0.32945600  1
loop_
_geom_bond_atom_site_label_1
_geom_bond_atom_site_label_2
_geom_bond_distance
_geom_bond_site_symmetry_2
Er0 Se0 2.394034 1_555
Er1 Se1 2.394034 1_555
