# generated using pymatgen
data_MgSi2
_symmetry_space_group_name_H-M   'P 1'
_cell_length_a   5.25660090
_cell_length_b   5.25660090
_cell_length_c   3.42995305
_cell_angle_alpha   72.55927052
_cell_angle_beta   72.55927052
_cell_angle_gamma   35.22161655
_symmetry_Int_Tables_number   1
_chemical_formula_structural   MgSi2
_chemical_formula_sum   'Mg1 Si2'
_cell_volume   51.88828354
_cell_formula_units_Z   1
loop_
 _symmetry_equiv_pos_site_id
 _symmetry_equiv_pos_as_xyz
  1  'x, y, z'
loop_
 _atom_site_type_symbol
 _atom_site_label
 _atom_site_symmetry_multiplicity
 _atom_site_fract_x
 _atom_site_fract_y
 _atom_site_fract_z
 _atom_site_occupancy
  Mg  Mg0  1  0.00000000  0.00000000  0.50000000  1
  Si  Si0  1  0.30255500  0.30255500  0.20163800  1
  Si  Si1  1  0.69744500  0.69744500  0.79836200  1
loop_
_geom_bond_atom_site_label_1
_geom_bond_atom_site_label_2
_geom_bond_distance
_geom_bond_site_symmetry_2
Mg0 Si0 2.878805 1_555
Mg0 Si1 2.878805 1_445
Mg0 Si1 2.960476 1_545
Mg0 Si0 2.960476 1_455
Mg0 Si1 2.960476 1_455
Mg0 Si0 2.960476 1_545
Mg0 Si1 3.039884 1_454
Mg0 Si0 3.039884 1_456
Mg0 Si1 3.039884 1_544
Mg0 Si0 3.039884 1_546
Si0 Si1 2.543266 1_544
Si0 Si1 2.543266 1_454
Si0 Si1 2.544016 1_545
Si0 Si1 2.544016 1_455
