# generated using pymatgen
data_CdH9C4(N2O3)3
_symmetry_space_group_name_H-M   'P 1'
_cell_length_a   9.75286300
_cell_length_b   10.86199201
_cell_length_c   11.38267010
_cell_angle_alpha   108.55861314
_cell_angle_beta   90.00000000
_cell_angle_gamma   90.00000000
_symmetry_Int_Tables_number   1
_chemical_formula_structural   CdH9C4(N2O3)3
_chemical_formula_sum   'Cd4 H36 C16 N24 O36'
_cell_volume   1143.12422607
_cell_formula_units_Z   4
loop_
 _symmetry_equiv_pos_site_id
 _symmetry_equiv_pos_as_xyz
  1  'x, y, z'
loop_
 _atom_site_type_symbol
 _atom_site_label
 _atom_site_symmetry_multiplicity
 _atom_site_fract_x
 _atom_site_fract_y
 _atom_site_fract_z
 _atom_site_occupancy
  Cd  Cd0  1  0.65206600  0.77707500  0.81886300  1
  Cd  Cd1  1  0.15206600  0.22292500  0.68113700  1
  Cd  Cd2  1  0.34793400  0.22292500  0.18113700  1
  Cd  Cd3  1  0.84793400  0.77707500  0.31886300  1
  H  H0  1  0.37844600  0.89191900  0.50459800  1
  H  H1  1  0.87844600  0.10808100  0.99540200  1
  H  H2  1  0.62155400  0.10808100  0.49540200  1
  H  H3  1  0.12155400  0.89191900  0.00459800  1
  H  H4  1  0.32867900  0.10092800  0.46239900  1
  H  H5  1  0.82867900  0.89907200  0.03760100  1
  H  H6  1  0.67132100  0.89907200  0.53760100  1
  H  H7  1  0.17132100  0.10092800  0.96239900  1
  H  H8  1  0.19425800  0.00502500  0.45620200  1
  H  H9  1  0.69425800  0.99497500  0.04379800  1
  H  H10  1  0.80574200  0.99497500  0.54379800  1
  H  H11  1  0.30574200  0.00502500  0.95620200  1
  H  H12  1  0.89649300  0.40311500  0.48456000  1
  H  H13  1  0.39649300  0.59688500  0.01544000  1
  H  H14  1  0.10350700  0.59688500  0.51544000  1
  H  H15  1  0.60350700  0.40311500  0.98456000  1
  H  H16  1  0.11004400  0.28803800  0.44970800  1
  H  H17  1  0.61004400  0.71196200  0.05029200  1
  H  H18  1  0.88995600  0.71196200  0.55029200  1
  H  H19  1  0.38995600  0.28803800  0.94970800  1
  H  H20  1  0.98247200  0.19017200  0.45567800  1
  H  H21  1  0.48247200  0.80982800  0.04432200  1
  H  H22  1  0.01752800  0.80982800  0.54432200  1
  H  H23  1  0.51752800  0.19017200  0.95567800  1
  H  H24  1  0.47764800  0.63784200  0.56160100  1
  H  H25  1  0.97764800  0.36215800  0.93839900  1
  H  H26  1  0.52235200  0.36215800  0.43839900  1
  H  H27  1  0.02235200  0.63784200  0.06160100  1
  H  H28  1  0.38114500  0.53687200  0.44270800  1
  H  H29  1  0.88114500  0.46312800  0.05729200  1
  H  H30  1  0.61885500  0.46312800  0.55729200  1
  H  H31  1  0.11885500  0.53687200  0.94270800  1
  H  H32  1  0.54857000  0.57193800  0.41667800  1
  H  H33  1  0.04857000  0.42806200  0.08332200  1
  H  H34  1  0.45143000  0.42806200  0.58332200  1
  H  H35  1  0.95143000  0.57193800  0.91667800  1
  C  C0  1  0.46152800  0.92145400  0.72541600  1
  C  C1  1  0.96152800  0.07854600  0.77458400  1
  C  C2  1  0.53847200  0.07854600  0.27458400  1
  C  C3  1  0.03847200  0.92145400  0.22541600  1
  C  C4  1  0.36706600  0.01510500  0.68592400  1
  C  C5  1  0.86706600  0.98489500  0.81407600  1
  C  C6  1  0.63293400  0.98489500  0.31407600  1
  C  C7  1  0.13293400  0.01510500  0.18592400  1
  C  C8  1  0.83296500  0.54637100  0.70879400  1
  C  C9  1  0.33296500  0.45362900  0.79120600  1
  C  C10  1  0.16703500  0.45362900  0.29120600  1
  C  C11  1  0.66703500  0.54637100  0.20879400  1
  C  C12  1  0.93003000  0.42836000  0.67184000  1
  C  C13  1  0.43003000  0.57164000  0.82816000  1
  C  C14  1  0.06997000  0.57164000  0.32816000  1
  C  C15  1  0.56997000  0.42836000  0.17184000  1
  N  N0  1  0.47903600  0.55601100  0.48305400  1
  N  N1  1  0.97903500  0.44398900  0.01694600  1
  N  N2  1  0.52096500  0.44398900  0.51694600  1
  N  N3  1  0.02096500  0.55601100  0.98305400  1
  N  N4  1  0.34878900  0.98218600  0.56320600  1
  N  N5  1  0.84878900  0.01781400  0.93679400  1
  N  N6  1  0.65121100  0.01781400  0.43679400  1
  N  N7  1  0.15121100  0.98218600  0.06320600  1
  N  N8  1  0.26729600  0.06116000  0.51456300  1
  N  N9  1  0.76729600  0.93884000  0.98543700  1
  N  N10  1  0.73270400  0.93884000  0.48543700  1
  N  N11  1  0.23270400  0.06116000  0.01456300  1
  N  N12  1  0.95070500  0.37585000  0.55018900  1
  N  N13  1  0.45070500  0.62415000  0.94981100  1
  N  N14  1  0.04929500  0.62415000  0.44981100  1
  N  N15  1  0.54929500  0.37585000  0.05018900  1
  N  N16  1  0.03871200  0.26856400  0.50766100  1
  N  N17  1  0.53871200  0.73143600  0.99233900  1
  N  N18  1  0.96128800  0.73143600  0.49233900  1
  N  N19  1  0.46128800  0.26856400  0.00766100  1
  N  N20  1  0.14856400  0.72870900  0.76823300  1
  N  N21  1  0.64856400  0.27129100  0.73176700  1
  N  N22  1  0.85143600  0.27129100  0.23176700  1
  N  N23  1  0.35143600  0.72870900  0.26823300  1
  O  O0  1  0.51828000  0.83062300  0.63988100  1
  O  O1  1  0.01828000  0.16937700  0.86011900  1
  O  O2  1  0.48172000  0.16937700  0.36011900  1
  O  O3  1  0.98172000  0.83062300  0.13988100  1
  O  O4  1  0.47851500  0.94324200  0.84048500  1
  O  O5  1  0.97851500  0.05675800  0.65951500  1
  O  O6  1  0.52148500  0.05675800  0.15951500  1
  O  O7  1  0.02148500  0.94324200  0.34048500  1
  O  O8  1  0.31656200  0.11356300  0.76379600  1
  O  O9  1  0.81656200  0.88643700  0.73620400  1
  O  O10  1  0.68343800  0.88643700  0.23620400  1
  O  O11  1  0.18343800  0.11356300  0.26379600  1
  O  O12  1  0.83457100  0.61610300  0.82209500  1
  O  O13  1  0.33457100  0.38389700  0.67790500  1
  O  O14  1  0.16542900  0.38389700  0.17790500  1
  O  O15  1  0.66542900  0.61610300  0.32209500  1
  O  O16  1  0.76152100  0.56742300  0.62449100  1
  O  O17  1  0.26152100  0.43257700  0.87550900  1
  O  O18  1  0.23847900  0.43257700  0.37550900  1
  O  O19  1  0.73847900  0.56742300  0.12449100  1
  O  O20  1  0.98553600  0.38867200  0.75212300  1
  O  O21  1  0.48553600  0.61132800  0.74787700  1
  O  O22  1  0.01446400  0.61132800  0.24787700  1
  O  O23  1  0.51446400  0.38867200  0.25212300  1
  O  O24  1  0.14555100  0.61899800  0.68337400  1
  O  O25  1  0.64555100  0.38100200  0.81662600  1
  O  O26  1  0.85444900  0.38100200  0.31662600  1
  O  O27  1  0.35444900  0.61899800  0.18337400  1
  O  O28  1  0.15068300  0.83280700  0.74198900  1
  O  O29  1  0.65068300  0.16719300  0.75801100  1
  O  O30  1  0.84931700  0.16719300  0.25801100  1
  O  O31  1  0.34931700  0.83280700  0.24198900  1
  O  O32  1  0.14990200  0.73121100  0.88134300  1
  O  O33  1  0.64990200  0.26878900  0.61865700  1
  O  O34  1  0.85009800  0.26878900  0.11865700  1
  O  O35  1  0.35009800  0.73121100  0.38134300  1
loop_
_geom_bond_atom_site_label_1
_geom_bond_atom_site_label_2
_geom_bond_distance
_geom_bond_site_symmetry_2
Cd0 O9 2.362537 1_555
Cd0 O21 2.367694 1_555
Cd0 N9 2.413438 1_555
Cd0 O4 2.429084 1_555
Cd0 N17 2.447482 1_555
Cd0 O12 2.503533 1_555
Cd0 O0 2.635460 1_555
Cd1 O8 2.362537 1_555
Cd1 O20 2.367694 1_455
Cd1 N8 2.413438 1_555
Cd1 O5 2.429084 1_455
Cd1 N16 2.447482 1_555
Cd1 O13 2.503533 1_555
Cd1 O1 2.635460 1_555
Cd2 O11 2.362537 1_555
Cd2 O23 2.367694 1_555
Cd2 N11 2.413438 1_555
Cd2 O6 2.429084 1_555
Cd2 N19 2.447482 1_555
Cd2 O14 2.503533 1_555
Cd2 O2 2.635460 1_555
Cd3 O10 2.362537 1_555
Cd3 O22 2.367694 1_655
Cd3 N10 2.413438 1_555
Cd3 O7 2.429084 1_655
Cd3 N18 2.447482 1_555
Cd3 O15 2.503533 1_555
Cd3 O3 2.635460 1_555
H0 N4 1.036186 1_555
H1 N5 1.036186 1_555
H2 N6 1.036186 1_555
H3 N7 1.036186 1_555
H4 N8 1.029954 1_555
H5 N9 1.029954 1_554
H6 N10 1.029954 1_555
H7 N11 1.029954 1_556
H8 N8 1.030853 1_555
H9 N9 1.030853 1_554
H10 N10 1.030853 1_555
H11 N11 1.030853 1_556
H12 N12 1.032540 1_555
H13 N13 1.032540 1_554
H14 N14 1.032540 1_555
H15 N15 1.032540 1_556
H16 N16 1.026013 1_555
H17 N17 1.026013 1_554
H18 N18 1.026013 1_555
H19 N19 1.026013 1_556
H20 N16 1.027275 1_655
H21 N17 1.027275 1_554
H22 N18 1.027275 1_455
H23 N19 1.027275 1_556
H24 N0 1.041028 1_555
H25 N1 1.041028 1_556
H26 N2 1.041028 1_555
H27 N3 1.041028 1_554
H28 N0 1.051112 1_555
H29 N1 1.051103 1_555
H30 N2 1.051103 1_555
H31 N3 1.051103 1_555
H32 N0 1.069514 1_555
H33 N1 1.069520 1_455
H34 N2 1.069520 1_555
H35 N3 1.069520 1_655
C0 O4 1.265581 1_555
C0 O0 1.271307 1_555
C1 O5 1.265581 1_555
C1 O1 1.271307 1_655
C2 O6 1.265581 1_555
C2 O2 1.271307 1_555
C3 O7 1.265581 1_555
C3 O3 1.271307 1_455
C4 O8 1.252441 1_555
C4 N4 1.338994 1_545
C5 O9 1.252441 1_555
C5 N5 1.338994 1_565
C6 O10 1.252441 1_555
C6 N6 1.338994 1_565
C7 O11 1.252441 1_555
C7 N7 1.338994 1_545
C8 O16 1.264235 1_555
C8 O12 1.270978 1_555
C9 O17 1.264235 1_555
C9 O13 1.270978 1_555
C10 O18 1.264235 1_555
C10 O14 1.270978 1_555
C11 O19 1.264235 1_555
C11 O15 1.270978 1_555
C12 O20 1.250900 1_555
C12 N12 1.334415 1_555
C13 O21 1.250900 1_555
C13 N13 1.334415 1_555
C14 O22 1.250900 1_555
C14 N14 1.334415 1_555
C15 O23 1.250900 1_555
C15 N15 1.334415 1_555
N4 N8 1.405860 1_565
N5 N9 1.405860 1_545
N10 N6 1.405860 1_565
N11 N7 1.405860 1_545
N20 O28 1.258246 1_555
N20 O24 1.273286 1_555
N20 O32 1.279170 1_555
N21 O29 1.258246 1_555
N21 O25 1.273286 1_555
N21 O33 1.279170 1_555
N22 O30 1.258246 1_555
N22 O26 1.273286 1_555
N22 O34 1.279170 1_555
N23 O31 1.258246 1_555
N23 O27 1.273286 1_555
N23 O35 1.279170 1_555
