# generated using pymatgen
data_Mg6TiFe
_symmetry_space_group_name_H-M   'P 1'
_cell_length_a   4.81383200
_cell_length_b   5.72350300
_cell_length_c   10.81177300
_cell_angle_alpha   90.00000000
_cell_angle_beta   90.00000000
_cell_angle_gamma   90.00000000
_symmetry_Int_Tables_number   1
_chemical_formula_structural   Mg6TiFe
_chemical_formula_sum   'Mg12 Ti2 Fe2'
_cell_volume   297.88577393
_cell_formula_units_Z   2
loop_
 _symmetry_equiv_pos_site_id
 _symmetry_equiv_pos_as_xyz
  1  'x, y, z'
loop_
 _atom_site_type_symbol
 _atom_site_label
 _atom_site_symmetry_multiplicity
 _atom_site_fract_x
 _atom_site_fract_y
 _atom_site_fract_z
 _atom_site_occupancy
  Mg  Mg0  1  0.50000000  0.25082200  0.42383600  1
  Mg  Mg1  1  0.50000000  0.74917800  0.42383600  1
  Mg  Mg2  1  0.00000000  0.75478100  0.08483400  1
  Mg  Mg3  1  0.00000000  0.24521900  0.08483400  1
  Mg  Mg4  1  0.00000000  0.00000000  0.31243200  1
  Mg  Mg5  1  0.00000000  0.50000000  0.32474300  1
  Mg  Mg6  1  0.50000000  0.75082200  0.92383600  1
  Mg  Mg7  1  0.50000000  0.24917800  0.92383600  1
  Mg  Mg8  1  0.00000000  0.25478100  0.58483400  1
  Mg  Mg9  1  0.00000000  0.74521900  0.58483400  1
  Mg  Mg10  1  0.00000000  0.50000000  0.81243200  1
  Mg  Mg11  1  0.00000000  0.00000000  0.82474300  1
  Ti  Ti0  1  0.50000000  0.50000000  0.17469600  1
  Ti  Ti1  1  0.50000000  0.00000000  0.67469600  1
  Fe  Fe0  1  0.50000000  0.00000000  0.17078500  1
  Fe  Fe1  1  0.50000000  0.50000000  0.67078500  1
loop_
_geom_bond_atom_site_label_1
_geom_bond_atom_site_label_2
_geom_bond_distance
_geom_bond_site_symmetry_2
Mg0 Mg1 2.852342 1_555
Mg0 Mg1 2.871161 1_545
Mg0 Mg8 2.970472 1_655
Mg0 Mg8 2.970472 1_555
Mg0 Mg5 2.995838 1_655
Mg0 Mg5 2.995838 1_555
Mg0 Ti0 3.047899 1_555
Mg0 Mg4 3.050393 1_655
Mg0 Mg4 3.050393 1_555
Mg0 Ti1 3.068737 1_555
Mg1 Mg9 2.970472 1_655
Mg1 Mg9 2.970472 1_555
Mg1 Mg5 2.995838 1_655
Mg1 Mg5 2.995838 1_555
Mg1 Ti0 3.047899 1_555
Mg1 Mg4 3.050393 1_565
Mg1 Mg4 3.050393 1_665
Mg1 Ti1 3.068737 1_565
Mg2 Mg3 2.807023 1_565
Mg2 Mg4 2.832857 1_565
Mg2 Mg3 2.916480 1_555
Mg2 Mg6 2.970472 1_454
Mg2 Mg6 2.970472 1_554
Mg2 Mg5 2.975647 1_555
Mg2 Ti0 2.977189 1_455
Mg2 Ti0 2.977189 1_555
Mg3 Mg4 2.832857 1_555
Mg3 Mg7 2.970472 1_554
Mg3 Mg7 2.970472 1_454
Mg3 Mg5 2.975647 1_555
Mg3 Ti0 2.977189 1_555
Mg3 Ti0 2.977189 1_455
Mg4 Mg5 2.864845 1_555
Mg4 Mg5 2.864845 1_545
Mg4 Mg8 3.286391 1_555
Mg4 Mg9 3.286391 1_545
Mg5 Ti0 2.902588 1_555
Mg5 Ti0 2.902588 1_455
Mg5 Mg9 3.142840 1_555
Mg5 Mg8 3.142840 1_555
Mg6 Mg7 2.852342 1_565
Mg6 Mg7 2.871161 1_555
Mg6 Ti1 3.047899 1_565
Mg6 Ti0 3.068737 1_556
Mg7 Ti1 3.047899 1_555
Mg7 Ti0 3.068737 1_556
Mg8 Mg9 2.807023 1_555
Mg8 Mg9 2.916480 1_545
Mg8 Ti1 2.977189 1_455
Mg8 Ti1 2.977189 1_555
Mg9 Ti1 2.977189 1_565
Mg9 Ti1 2.977189 1_465
Mg10 Mg9 2.832857 1_555
Mg10 Mg8 2.832857 1_555
Mg10 Mg11 2.864845 1_565
Mg10 Mg11 2.864845 1_555
Mg10 Mg6 3.050393 1_555
Mg10 Mg6 3.050393 1_455
Mg10 Mg7 3.050393 1_455
Mg10 Mg7 3.050393 1_555
Mg10 Mg2 3.286391 1_556
Mg10 Mg3 3.286391 1_556
Mg11 Ti1 2.902588 1_455
Mg11 Ti1 2.902588 1_555
Mg11 Mg9 2.975647 1_545
Mg11 Mg8 2.975647 1_555
Mg11 Mg7 2.995838 1_455
Mg11 Mg7 2.995838 1_555
Mg11 Mg6 2.995838 1_545
Mg11 Mg6 2.995838 1_445
Mg11 Mg3 3.142840 1_556
Mg11 Mg2 3.142840 1_546
Fe0 Mg4 2.852823 1_655
Fe0 Mg4 2.852823 1_555
Fe0 Ti0 2.862064 1_545
Fe0 Ti0 2.862064 1_555
Fe0 Mg3 2.937117 1_555
Fe0 Mg3 2.937117 1_655
Fe0 Mg2 2.937117 1_645
Fe0 Mg2 2.937117 1_545
Fe0 Mg7 3.026984 1_554
Fe0 Mg6 3.026984 1_544
Fe0 Mg1 3.089693 1_545
Fe0 Mg0 3.089693 1_555
Fe1 Mg10 2.852823 1_555
Fe1 Mg10 2.852823 1_655
Fe1 Ti1 2.862064 1_555
Fe1 Ti1 2.862064 1_565
Fe1 Mg9 2.937117 1_555
Fe1 Mg9 2.937117 1_655
Fe1 Mg8 2.937117 1_555
Fe1 Mg8 2.937117 1_655
Fe1 Mg0 3.026984 1_555
Fe1 Mg1 3.026984 1_555
Fe1 Mg6 3.089693 1_555
Fe1 Mg7 3.089693 1_555
