# generated using pymatgen
data_Ba2ZnTe3
_symmetry_space_group_name_H-M   'P 1'
_cell_length_a   4.73219700
_cell_length_b   9.87616300
_cell_length_c   19.16008900
_cell_angle_alpha   90.00000000
_cell_angle_beta   90.00000000
_cell_angle_gamma   90.00000000
_symmetry_Int_Tables_number   1
_chemical_formula_structural   Ba2ZnTe3
_chemical_formula_sum   'Ba8 Zn4 Te12'
_cell_volume   895.46494081
_cell_formula_units_Z   4
loop_
 _symmetry_equiv_pos_site_id
 _symmetry_equiv_pos_as_xyz
  1  'x, y, z'
loop_
 _atom_site_type_symbol
 _atom_site_label
 _atom_site_symmetry_multiplicity
 _atom_site_fract_x
 _atom_site_fract_y
 _atom_site_fract_z
 _atom_site_occupancy
  Ba  Ba0  1  0.25000000  0.24598500  0.54211000  1
  Ba  Ba1  1  0.25000000  0.74598500  0.95789000  1
  Ba  Ba2  1  0.75000000  0.75401500  0.45789000  1
  Ba  Ba3  1  0.75000000  0.25401500  0.04211000  1
  Ba  Ba4  1  0.25000000  0.41966100  0.28819700  1
  Ba  Ba5  1  0.25000000  0.91966100  0.21180300  1
  Ba  Ba6  1  0.75000000  0.58033900  0.71180300  1
  Ba  Ba7  1  0.75000000  0.08033900  0.78819700  1
  Zn  Zn0  1  0.25000000  0.36014700  0.86356700  1
  Zn  Zn1  1  0.25000000  0.86014700  0.63643300  1
  Zn  Zn2  1  0.75000000  0.63985300  0.13643300  1
  Zn  Zn3  1  0.75000000  0.13985300  0.36356700  1
  Te  Te0  1  0.25000000  0.00462100  0.39845500  1
  Te  Te1  1  0.25000000  0.50462100  0.10154500  1
  Te  Te2  1  0.75000000  0.99537900  0.60154500  1
  Te  Te3  1  0.75000000  0.49537900  0.89845500  1
  Te  Te4  1  0.25000000  0.12103900  0.92998000  1
  Te  Te5  1  0.25000000  0.62103900  0.57002000  1
  Te  Te6  1  0.75000000  0.87896100  0.07002000  1
  Te  Te7  1  0.75000000  0.37896100  0.42998000  1
  Te  Te8  1  0.25000000  0.31498100  0.72505100  1
  Te  Te9  1  0.25000000  0.81498100  0.77494900  1
  Te  Te10  1  0.75000000  0.68501900  0.27494900  1
  Te  Te11  1  0.75000000  0.18501900  0.22505100  1
loop_
_geom_bond_atom_site_label_1
_geom_bond_atom_site_label_2
_geom_bond_distance
_geom_bond_site_symmetry_2
Ba0 Te7 3.455267 1_555
Ba0 Te7 3.455267 1_455
Ba0 Te8 3.570786 1_555
Ba0 Te2 3.608461 1_445
Ba0 Te2 3.608461 1_545
Ba0 Te0 3.641182 1_555
Ba0 Te5 3.742497 1_555
Ba1 Te6 3.455267 1_456
Ba1 Te6 3.455267 1_556
Ba1 Te9 3.570786 1_555
Ba1 Te3 3.608461 1_455
Ba1 Te3 3.608461 1_555
Ba1 Te1 3.641182 1_556
Ba1 Te4 3.742497 1_565
Ba2 Te5 3.455267 1_655
Ba2 Te5 3.455267 1_555
Ba2 Te10 3.570786 1_555
Ba2 Te0 3.608461 1_665
Ba2 Te0 3.608461 1_565
Ba2 Te2 3.641182 1_555
Ba2 Te7 3.742497 1_555
Ba3 Te4 3.455267 1_654
Ba3 Te4 3.455267 1_554
Ba3 Te11 3.570786 1_555
Ba3 Te1 3.608461 1_655
Ba3 Te1 3.608461 1_555
Ba3 Te3 3.641182 1_554
Ba3 Te6 3.742497 1_545
Ba4 Te11 3.525962 1_555
Ba4 Te11 3.525962 1_455
Ba4 Te10 3.539918 1_455
Ba4 Te10 3.539918 1_555
Ba4 Te7 3.624882 1_455
Ba4 Te7 3.624882 1_555
Ba4 Te1 3.673384 1_555
Ba5 Te10 3.525962 1_555
Ba5 Te10 3.525962 1_455
Ba5 Te11 3.539918 1_565
Ba5 Te11 3.539918 1_465
Ba5 Te6 3.624882 1_555
Ba5 Te6 3.624882 1_455
Ba5 Te0 3.673384 1_565
Ba6 Te9 3.525962 1_655
Ba6 Te9 3.525962 1_555
Ba6 Te8 3.539918 1_655
Ba6 Te8 3.539918 1_555
Ba6 Te5 3.624882 1_555
Ba6 Te5 3.624882 1_655
Ba6 Te3 3.673384 1_555
Ba7 Te8 3.525962 1_555
Ba7 Te8 3.525962 1_655
Ba7 Te9 3.539918 1_545
Ba7 Te9 3.539918 1_645
Ba7 Te4 3.624882 1_655
Ba7 Te4 3.624882 1_555
Ba7 Te2 3.673384 1_545
Te0 Zn3 2.798037 1_555
Te0 Zn3 2.798037 1_455
Te1 Zn2 2.798037 1_555
Te1 Zn2 2.798037 1_455
Te2 Zn1 2.798037 1_655
Te2 Zn1 2.798037 1_555
Te3 Zn0 2.798037 1_555
Te3 Zn0 2.798037 1_655
Te4 Zn0 2.682488 1_555
Te5 Zn1 2.682488 1_555
Te6 Zn2 2.682488 1_555
Te7 Zn3 2.682488 1_555
Te8 Zn0 2.691204 1_555
Te9 Zn1 2.691204 1_555
Te10 Zn2 2.691204 1_555
Te11 Zn3 2.691204 1_555
