# generated using pymatgen
data_Cr(NiN)3
_symmetry_space_group_name_H-M   'P 1'
_cell_length_a   6.24410801
_cell_length_b   6.24318427
_cell_length_c   4.11887000
_cell_angle_alpha   90.00000000
_cell_angle_beta   90.00000000
_cell_angle_gamma   119.99769108
_symmetry_Int_Tables_number   1
_chemical_formula_structural   Cr(NiN)3
_chemical_formula_sum   'Cr2 Ni6 N6'
_cell_volume   139.05780857
_cell_formula_units_Z   2
loop_
 _symmetry_equiv_pos_site_id
 _symmetry_equiv_pos_as_xyz
  1  'x, y, z'
loop_
 _atom_site_type_symbol
 _atom_site_label
 _atom_site_symmetry_multiplicity
 _atom_site_fract_x
 _atom_site_fract_y
 _atom_site_fract_z
 _atom_site_occupancy
  Cr  Cr0  1  0.66665500  0.33331700  0.75000000  1
  Cr  Cr1  1  0.33334500  0.66668300  0.25000000  1
  Ni  Ni0  1  0.88269200  0.59778400  0.25000000  1
  Ni  Ni1  1  0.71512900  0.11732800  0.25000000  1
  Ni  Ni2  1  0.40222200  0.28492200  0.25000000  1
  Ni  Ni3  1  0.11730800  0.40221600  0.75000000  1
  Ni  Ni4  1  0.28487100  0.88267200  0.75000000  1
  Ni  Ni5  1  0.59777800  0.71507800  0.75000000  1
  N  N0  1  0.95317300  0.61720000  0.75000000  1
  N  N1  1  0.66403000  0.04679800  0.75000000  1
  N  N2  1  0.38280200  0.33595200  0.75000000  1
  N  N3  1  0.04682700  0.38280000  0.25000000  1
  N  N4  1  0.33597000  0.95320200  0.25000000  1
  N  N5  1  0.61719800  0.66404800  0.25000000  1
loop_
_geom_bond_atom_site_label_1
_geom_bond_atom_site_label_2
_geom_bond_distance
_geom_bond_site_symmetry_2
Cr0 N1 1.780653 1_555
Cr0 N2 1.780691 1_555
Cr0 N0 1.780813 1_555
Cr1 N4 1.780653 1_555
Cr1 N5 1.780691 1_555
Cr1 N3 1.780813 1_555
N0 Ni4 1.898463 1_655
N0 Ni3 2.056042 1_655
N0 Ni0 2.096736 1_556
N0 Ni0 2.096736 1_555
N1 Ni5 1.898277 1_545
N1 Ni4 2.056527 1_545
N1 Ni1 2.096779 1_556
N1 Ni1 2.096779 1_555
N2 Ni3 1.898718 1_555
N2 Ni5 2.056042 1_555
N2 Ni2 2.096689 1_555
N2 Ni2 2.096689 1_556
N3 Ni1 1.898463 1_455
N3 Ni0 2.056042 1_455
N3 Ni3 2.096736 1_555
N3 Ni3 2.096736 1_554
N4 Ni2 1.898277 1_565
N4 Ni1 2.056527 1_565
N4 Ni4 2.096779 1_554
N4 Ni4 2.096779 1_555
N5 Ni0 1.898718 1_555
N5 Ni2 2.056042 1_555
N5 Ni5 2.096689 1_554
N5 Ni5 2.096689 1_555
