# generated using pymatgen
data_La4Mg
_symmetry_space_group_name_H-M   'P 1'
_cell_length_a   8.25532601
_cell_length_b   8.25532601
_cell_length_c   8.25532601
_cell_angle_alpha   60.00000000
_cell_angle_beta   60.00000000
_cell_angle_gamma   60.00000000
_symmetry_Int_Tables_number   1
_chemical_formula_structural   La4Mg
_chemical_formula_sum   'La8 Mg2'
_cell_volume   397.82098412
_cell_formula_units_Z   2
loop_
 _symmetry_equiv_pos_site_id
 _symmetry_equiv_pos_as_xyz
  1  'x, y, z'
loop_
 _atom_site_type_symbol
 _atom_site_label
 _atom_site_symmetry_multiplicity
 _atom_site_fract_x
 _atom_site_fract_y
 _atom_site_fract_z
 _atom_site_occupancy
  La  La0  1  0.39757300  0.39757300  0.39757300  1
  La  La1  1  0.39757300  0.39757300  0.80728200  1
  La  La2  1  0.39757300  0.80728200  0.39757300  1
  La  La3  1  0.85242700  0.85242700  0.44271800  1
  La  La4  1  0.85242700  0.85242700  0.85242700  1
  La  La5  1  0.80728200  0.39757300  0.39757300  1
  La  La6  1  0.85242700  0.44271800  0.85242700  1
  La  La7  1  0.44271800  0.85242700  0.85242700  1
  Mg  Mg0  1  0.00000000  0.00000000  0.00000000  1
  Mg  Mg1  1  0.25000000  0.25000000  0.25000000  1
loop_
_geom_bond_atom_site_label_1
_geom_bond_atom_site_label_2
_geom_bond_distance
_geom_bond_site_symmetry_2
La0 Mg1 2.984123 1_555
La0 La1 3.382281 1_555
La0 La2 3.382281 1_555
La0 La5 3.382281 1_555
La0 La6 4.161178 1_455
La0 La3 4.161178 1_455
La0 La3 4.161178 1_545
La0 La7 4.161178 1_554
La0 La7 4.161178 1_545
La0 La6 4.161178 1_554
La1 Mg1 2.984117 1_556
La1 La2 3.382281 1_555
La1 La5 3.382281 1_555
La1 La7 4.161169 1_555
La1 La6 4.161169 1_555
La1 La4 4.161178 1_455
La1 La4 4.161178 1_545
La1 La6 4.161185 1_455
La1 La7 4.161185 1_545
La2 Mg1 2.984117 1_565
La2 La5 3.382281 1_555
La2 La3 4.161169 1_555
La2 La7 4.161169 1_555
La2 La4 4.161178 1_554
La2 La4 4.161178 1_455
La2 La7 4.161185 1_554
La2 La3 4.161185 1_455
La3 Mg0 2.984117 1_665
La3 La4 3.382281 1_555
La3 La7 3.382281 1_555
La3 La6 3.382281 1_555
La3 La5 4.161169 1_555
La3 La5 4.161185 1_565
La4 Mg0 2.984123 1_666
La4 La7 3.382281 1_555
La4 La6 3.382281 1_555
La4 La5 4.161178 1_556
La4 La5 4.161178 1_565
La5 Mg1 2.984117 1_655
La5 La6 4.161169 1_555
La5 La6 4.161185 1_554
La6 Mg0 2.984117 1_656
La6 La7 3.382281 1_555
La7 Mg0 2.984117 1_566
