# generated using pymatgen
data_Y2AgOs
_symmetry_space_group_name_H-M   'P 1'
_cell_length_a   11.86015551
_cell_length_b   11.86015551
_cell_length_c   11.86015551
_cell_angle_alpha   125.62227382
_cell_angle_beta   118.12927476
_cell_angle_gamma   86.91017099
_symmetry_Int_Tables_number   1
_chemical_formula_structural   Y2AgOs
_chemical_formula_sum   'Y2 Ag1 Os1'
_cell_volume   1137.84737945
_cell_formula_units_Z   1
loop_
 _symmetry_equiv_pos_site_id
 _symmetry_equiv_pos_as_xyz
  1  'x, y, z'
loop_
 _atom_site_type_symbol
 _atom_site_label
 _atom_site_symmetry_multiplicity
 _atom_site_fract_x
 _atom_site_fract_y
 _atom_site_fract_z
 _atom_site_occupancy
  Y  Y0  1  0.00000000  0.27934100  0.27934100  1
  Y  Y1  1  0.00000000  0.72065900  0.72065900  1
  Ag  Ag0  1  0.00000000  0.00000000  0.00000000  1
  Os  Os0  1  0.00000000  0.50000000  0.50000000  1
loop_
_geom_bond_atom_site_label_1
_geom_bond_atom_site_label_2
_geom_bond_distance
_geom_bond_site_symmetry_2
Ag0 Y1 3.027611 1_544
Ag0 Y0 3.027611 1_555
Os0 Y0 2.391591 1_555
Os0 Y1 2.391591 1_555
