# generated using pymatgen
data_HfNb
_symmetry_space_group_name_H-M   'P 1'
_cell_length_a   5.95787857
_cell_length_b   5.95787857
_cell_length_c   9.60518800
_cell_angle_alpha   90.00000000
_cell_angle_beta   90.00000000
_cell_angle_gamma   109.24262921
_symmetry_Int_Tables_number   1
_chemical_formula_structural   HfNb
_chemical_formula_sum   'Hf8 Nb8'
_cell_volume   321.90047482
_cell_formula_units_Z   8
loop_
 _symmetry_equiv_pos_site_id
 _symmetry_equiv_pos_as_xyz
  1  'x, y, z'
loop_
 _atom_site_type_symbol
 _atom_site_label
 _atom_site_symmetry_multiplicity
 _atom_site_fract_x
 _atom_site_fract_y
 _atom_site_fract_z
 _atom_site_occupancy
  Hf  Hf0_0  1  0.00000000  0.00000000  0.00000000  1
  Hf  Hf0_1  1  0.00000000  0.00000000  0.50000000  1
  Hf  Hf0_2  1  0.00000000  0.50000000  0.00000000  1
  Hf  Hf0_3  1  0.00000000  0.50000000  0.50000000  1
  Hf  Hf0_4  1  0.50000000  0.00000000  0.00000000  1
  Hf  Hf0_5  1  0.50000000  0.00000000  0.50000000  1
  Hf  Hf0_6  1  0.50000000  0.50000000  0.00000000  1
  Hf  Hf0_7  1  0.50000000  0.50000000  0.50000000  1
  Nb  Nb0_0  1  0.25000000  0.25000000  0.25000000  1
  Nb  Nb0_1  1  0.25000000  0.25000000  0.75000000  1
  Nb  Nb0_2  1  0.25000000  0.75000000  0.25000000  1
  Nb  Nb0_3  1  0.25000000  0.75000000  0.75000000  1
  Nb  Nb0_4  1  0.75000000  0.25000000  0.25000000  1
  Nb  Nb0_5  1  0.75000000  0.25000000  0.75000000  1
  Nb  Nb0_6  1  0.75000000  0.75000000  0.25000000  1
  Nb  Nb0_7  1  0.75000000  0.75000000  0.75000000  1
loop_
_geom_bond_atom_site_label_1
_geom_bond_atom_site_label_2
_geom_bond_distance
_geom_bond_site_symmetry_2
Hf0_0 Nb0_1 2.956511 1_554
Hf0_0 Nb0_7 2.956511 1_444
Hf0_0 Nb0_0 2.956511 1_555
Hf0_0 Nb0_6 2.956511 1_445
Hf0_0 Hf0_2 2.978939 1_555
Hf0_0 Hf0_4 2.978939 1_555
Hf0_0 Hf0_4 2.978939 1_455
Hf0_0 Hf0_2 2.978939 1_545
Hf0_1 Nb0_0 2.956511 1_555
Hf0_1 Nb0_6 2.956511 1_445
Hf0_1 Nb0_1 2.956511 1_555
Hf0_1 Nb0_7 2.956511 1_445
Hf0_1 Hf0_3 2.978939 1_555
Hf0_1 Hf0_5 2.978939 1_455
Hf0_1 Hf0_5 2.978939 1_555
Hf0_1 Hf0_3 2.978939 1_545
Hf0_2 Nb0_3 2.956511 1_554
Hf0_2 Nb0_5 2.956511 1_454
Hf0_2 Nb0_4 2.956511 1_455
Hf0_2 Nb0_2 2.956511 1_555
Hf0_2 Hf0_6 2.978939 1_555
Hf0_2 Hf0_6 2.978939 1_455
Hf0_3 Nb0_4 2.956511 1_455
Hf0_3 Nb0_2 2.956511 1_555
Hf0_3 Nb0_3 2.956511 1_555
Hf0_3 Nb0_5 2.956511 1_455
Hf0_3 Hf0_7 2.978939 1_455
Hf0_3 Hf0_7 2.978939 1_555
Hf0_4 Nb0_3 2.956511 1_544
Hf0_4 Nb0_5 2.956511 1_554
Hf0_4 Nb0_2 2.956511 1_545
Hf0_4 Nb0_4 2.956511 1_555
Hf0_4 Hf0_6 2.978939 1_555
Hf0_4 Hf0_6 2.978939 1_545
Hf0_5 Nb0_2 2.956511 1_545
Hf0_5 Nb0_4 2.956511 1_555
Hf0_5 Nb0_3 2.956511 1_545
Hf0_5 Nb0_5 2.956511 1_555
Hf0_5 Hf0_7 2.978939 1_555
Hf0_5 Hf0_7 2.978939 1_545
Hf0_6 Nb0_7 2.956511 1_554
Hf0_6 Nb0_1 2.956511 1_554
Hf0_6 Nb0_6 2.956511 1_555
Hf0_6 Nb0_0 2.956511 1_555
Hf0_7 Nb0_6 2.956511 1_555
Hf0_7 Nb0_0 2.956511 1_555
Hf0_7 Nb0_7 2.956511 1_555
Hf0_7 Nb0_1 2.956511 1_555
Nb0_0 Nb0_2 2.978939 1_555
Nb0_0 Nb0_4 2.978939 1_455
Nb0_0 Nb0_4 2.978939 1_555
Nb0_0 Nb0_2 2.978939 1_545
Nb0_1 Nb0_3 2.978939 1_555
Nb0_1 Nb0_5 2.978939 1_555
Nb0_1 Nb0_5 2.978939 1_455
Nb0_1 Nb0_3 2.978939 1_545
Nb0_2 Nb0_6 2.978939 1_555
Nb0_2 Nb0_6 2.978939 1_455
Nb0_3 Nb0_7 2.978939 1_555
Nb0_3 Nb0_7 2.978939 1_455
Nb0_4 Nb0_6 2.978939 1_555
Nb0_4 Nb0_6 2.978939 1_545
Nb0_5 Nb0_7 2.978939 1_555
Nb0_5 Nb0_7 2.978939 1_545
