# generated using pymatgen
data_PrC2BrO7
_symmetry_space_group_name_H-M   'P 1'
_cell_length_a   16.58446400
_cell_length_b   6.06648400
_cell_length_c   8.99188975
_cell_angle_alpha   67.89002146
_cell_angle_beta   90.00000000
_cell_angle_gamma   90.00000000
_symmetry_Int_Tables_number   1
_chemical_formula_structural   PrC2BrO7
_chemical_formula_sum   'Pr4 C8 Br4 O28'
_cell_volume   838.14197979
_cell_formula_units_Z   4
loop_
 _symmetry_equiv_pos_site_id
 _symmetry_equiv_pos_as_xyz
  1  'x, y, z'
loop_
 _atom_site_type_symbol
 _atom_site_label
 _atom_site_symmetry_multiplicity
 _atom_site_fract_x
 _atom_site_fract_y
 _atom_site_fract_z
 _atom_site_occupancy
  Pr  Pr0  1  0.60785200  0.33925700  0.14746200  1
  Pr  Pr1  1  0.89214800  0.33925700  0.64746200  1
  Pr  Pr2  1  0.39214800  0.66074300  0.85253800  1
  Pr  Pr3  1  0.10785200  0.66074300  0.35253800  1
  C  C0  1  0.52998300  0.89843400  0.04492100  1
  C  C1  1  0.97001700  0.89843400  0.54492100  1
  C  C2  1  0.47001700  0.10156600  0.95507900  1
  C  C3  1  0.02998300  0.10156600  0.45507900  1
  C  C4  1  0.57431100  0.80093800  0.56583500  1
  C  C5  1  0.92568900  0.80093800  0.06583500  1
  C  C6  1  0.42568900  0.19906200  0.43416500  1
  C  C7  1  0.07431100  0.19906200  0.93416500  1
  Br  Br0  1  0.78620300  0.19189300  0.13043700  1
  Br  Br1  1  0.71379700  0.19189300  0.63043700  1
  Br  Br2  1  0.21379700  0.80810700  0.86956300  1
  Br  Br3  1  0.28620300  0.80810700  0.36956300  1
  O  O0  1  0.52112200  0.70517100  0.01973700  1
  O  O1  1  0.97887800  0.70517100  0.51973700  1
  O  O2  1  0.47887800  0.29482900  0.98026300  1
  O  O3  1  0.02112200  0.29482900  0.48026300  1
  O  O4  1  0.60667800  0.91524700  0.44629600  1
  O  O5  1  0.89332200  0.91524700  0.94629600  1
  O  O6  1  0.39332200  0.08475300  0.55370400  1
  O  O7  1  0.10667800  0.08475300  0.05370400  1
  O  O8  1  0.58166200  0.93452000  0.13460200  1
  O  O9  1  0.91833800  0.93452000  0.63460200  1
  O  O10  1  0.41833800  0.06548000  0.86539800  1
  O  O11  1  0.08166200  0.06548000  0.36539800  1
  O  O12  1  0.46179700  0.30722400  0.31618100  1
  O  O13  1  0.03820300  0.30722400  0.81618100  1
  O  O14  1  0.53820300  0.69277600  0.68381900  1
  O  O15  1  0.96179700  0.69277600  0.18381900  1
  O  O16  1  0.68313600  0.42288500  0.91649700  1
  O  O17  1  0.81686400  0.42288500  0.41649700  1
  O  O18  1  0.31686400  0.57711500  0.08350300  1
  O  O19  1  0.18313600  0.57711500  0.58350300  1
  O  O20  1  0.72493500  0.58378300  0.08895200  1
  O  O21  1  0.77506500  0.58378300  0.58895200  1
  O  O22  1  0.27506500  0.41621700  0.91104800  1
  O  O23  1  0.22493500  0.41621700  0.41104800  1
  O  O24  1  0.64825600  0.41286600  0.37602700  1
  O  O25  1  0.85174400  0.41286600  0.87602700  1
  O  O26  1  0.35174400  0.58713400  0.62397300  1
  O  O27  1  0.14825600  0.58713400  0.12397300  1
loop_
_geom_bond_atom_site_label_1
_geom_bond_atom_site_label_2
_geom_bond_distance
_geom_bond_site_symmetry_2
C0 O8 1.251265 1_555
C0 O0 1.283480 1_555
C1 O9 1.251265 1_555
C1 O1 1.283480 1_555
C2 O10 1.251265 1_555
C2 O2 1.283480 1_555
C3 O11 1.251265 1_555
C3 O3 1.283480 1_555
C4 O4 1.167600 1_555
C4 O14 1.179252 1_555
C5 O5 1.167600 1_554
C5 O15 1.179252 1_555
C6 O6 1.167600 1_555
C6 O12 1.179252 1_555
C7 O7 1.167600 1_556
C7 O13 1.179252 1_555
Br0 O25 2.429665 1_554
Br0 O20 2.481133 1_555
Br0 O16 2.560636 1_554
Br0 Pr0 3.110397 1_555
Br1 O24 2.429665 1_555
Br1 O21 2.481133 1_555
Br1 O17 2.560636 1_555
Br1 Pr1 3.110397 1_555
Br2 O27 2.429665 1_556
Br2 O22 2.481133 1_555
Br2 O18 2.560636 1_556
Br2 Pr2 3.110397 1_555
Br3 O26 2.429665 1_555
Br3 O23 2.481133 1_555
Br3 O19 2.560636 1_555
Br3 Pr3 3.110397 1_555
O0 Pr0 2.529103 1_555
O0 Pr2 2.685732 1_554
O1 Pr1 2.529103 1_555
O1 Pr3 2.685732 1_655
O2 Pr2 2.529103 1_555
O2 Pr0 2.685732 1_556
O3 Pr3 2.529103 1_555
O3 Pr1 2.685732 1_455
O4 Pr0 2.938404 1_565
O5 Pr1 2.938404 1_565
O6 Pr2 2.938404 1_545
O7 Pr3 2.938404 1_545
O8 Pr0 2.538584 1_565
O9 Pr1 2.538584 1_565
O10 Pr2 2.538584 1_545
O11 Pr3 2.538584 1_545
O12 Pr0 2.825721 1_555
O13 Pr1 2.825721 1_455
O14 Pr2 2.825721 1_555
O15 Pr3 2.825721 1_655
O16 Pr0 2.310033 1_556
O17 Pr1 2.310033 1_555
O18 Pr2 2.310033 1_554
O19 Pr3 2.310033 1_555
O20 Pr0 2.379126 1_555
O21 Pr1 2.379126 1_555
O22 Pr2 2.379126 1_555
O23 Pr3 2.379126 1_555
O24 Pr0 2.358654 1_555
O25 Pr1 2.358654 1_555
O26 Pr2 2.358654 1_555
O27 Pr3 2.358654 1_555
