# generated using pymatgen
data_Mg(CuO2)2
_symmetry_space_group_name_H-M   'P 1'
_cell_length_a   5.04848100
_cell_length_b   5.75328300
_cell_length_c   10.07995400
_cell_angle_alpha   90.00000000
_cell_angle_beta   90.00000000
_cell_angle_gamma   90.00000000
_symmetry_Int_Tables_number   1
_chemical_formula_structural   Mg(CuO2)2
_chemical_formula_sum   'Mg4 Cu8 O16'
_cell_volume   292.77569024
_cell_formula_units_Z   4
loop_
 _symmetry_equiv_pos_site_id
 _symmetry_equiv_pos_as_xyz
  1  'x, y, z'
loop_
 _atom_site_type_symbol
 _atom_site_label
 _atom_site_symmetry_multiplicity
 _atom_site_fract_x
 _atom_site_fract_y
 _atom_site_fract_z
 _atom_site_occupancy
  Mg  Mg0  1  0.84316400  0.00000000  0.50000000  1
  Mg  Mg1  1  0.15683600  0.50000000  0.00000000  1
  Mg  Mg2  1  0.51566600  0.00000000  0.00000000  1
  Mg  Mg3  1  0.48433400  0.50000000  0.50000000  1
  Cu  Cu0  1  0.51519500  0.50000000  0.23303600  1
  Cu  Cu1  1  0.51519500  0.50000000  0.76696400  1
  Cu  Cu2  1  0.48480500  0.00000000  0.26696400  1
  Cu  Cu3  1  0.48480500  0.00000000  0.73303600  1
  Cu  Cu4  1  0.00000000  0.25000000  0.25000000  1
  Cu  Cu5  1  0.00000000  0.75000000  0.75000000  1
  Cu  Cu6  1  0.00000000  0.75000000  0.25000000  1
  Cu  Cu7  1  0.00000000  0.25000000  0.75000000  1
  O  O0  1  0.86034800  0.50000000  0.14467800  1
  O  O1  1  0.86034800  0.50000000  0.85532200  1
  O  O2  1  0.13965200  0.00000000  0.35532200  1
  O  O3  1  0.13965200  0.00000000  0.64467800  1
  O  O4  1  0.19826800  0.50000000  0.34555300  1
  O  O5  1  0.19826800  0.50000000  0.65444700  1
  O  O6  1  0.80173200  0.00000000  0.15444700  1
  O  O7  1  0.80173200  0.00000000  0.84555300  1
  O  O8  1  0.66508500  0.25288600  0.36813500  1
  O  O9  1  0.66508500  0.74711400  0.63186500  1
  O  O10  1  0.33491500  0.75288600  0.13186500  1
  O  O11  1  0.33491500  0.24711400  0.86813500  1
  O  O12  1  0.33491500  0.24711400  0.13186500  1
  O  O13  1  0.33491500  0.75288600  0.86813500  1
  O  O14  1  0.66508500  0.74711400  0.36813500  1
  O  O15  1  0.66508500  0.25288600  0.63186500  1
loop_
_geom_bond_atom_site_label_1
_geom_bond_atom_site_label_2
_geom_bond_distance
_geom_bond_site_symmetry_2
Mg0 O3 2.089792 1_655
Mg0 O2 2.089792 1_655
Mg0 O15 2.166059 1_555
Mg0 O8 2.166059 1_555
Mg0 O14 2.166059 1_545
Mg0 O9 2.166059 1_545
Mg1 O0 2.089792 1_455
Mg1 O1 2.089792 1_454
Mg1 O10 2.166059 1_555
Mg1 O12 2.166059 1_555
Mg1 O13 2.166059 1_554
Mg1 O11 2.166059 1_554
Mg2 O6 2.123533 1_555
Mg2 O7 2.123533 1_554
Mg2 O12 2.149586 1_555
Mg2 O10 2.149586 1_545
Mg2 O11 2.149586 1_554
Mg2 O13 2.149586 1_544
Mg3 O4 2.123533 1_555
Mg3 O5 2.123533 1_555
Mg3 O15 2.149586 1_555
Mg3 O8 2.149586 1_555
Mg3 O9 2.149586 1_555
Mg3 O14 2.149586 1_555
Cu0 O0 1.956923 1_555
Cu0 O4 1.961207 1_555
Cu0 O10 1.996284 1_555
Cu0 O12 1.996284 1_555
Cu0 O8 2.109117 1_555
Cu0 O14 2.109117 1_555
Cu1 O1 1.956923 1_555
Cu1 O5 1.961207 1_555
Cu1 O13 1.996284 1_555
Cu1 O11 1.996284 1_555
Cu1 O9 2.109117 1_555
Cu1 O15 2.109117 1_555
Cu2 O2 1.956923 1_555
Cu2 O6 1.961207 1_555
Cu2 O8 1.996284 1_555
Cu2 O14 1.996284 1_545
Cu2 O12 2.109117 1_555
Cu2 O10 2.109117 1_545
Cu3 O3 1.956923 1_555
Cu3 O7 1.961207 1_555
Cu3 O15 1.996284 1_555
Cu3 O9 1.996284 1_545
Cu3 O11 2.109117 1_555
Cu3 O13 2.109117 1_545
Cu4 O2 1.921696 1_555
Cu4 O0 1.921696 1_455
Cu4 O4 1.999592 1_555
Cu4 O6 1.999592 1_455
Cu4 O12 2.068119 1_555
Cu4 O8 2.068119 1_455
Cu5 O1 1.921696 1_455
Cu5 O3 1.921696 1_565
Cu5 O5 1.999592 1_555
Cu5 O7 1.999592 1_465
Cu5 O13 2.068119 1_555
Cu5 O9 2.068119 1_455
Cu6 O2 1.921696 1_565
Cu6 O0 1.921696 1_455
Cu6 O4 1.999592 1_555
Cu6 O6 1.999592 1_465
Cu6 O10 2.068119 1_555
Cu6 O14 2.068119 1_455
Cu7 O1 1.921696 1_455
Cu7 O3 1.921696 1_555
Cu7 O7 1.999592 1_455
Cu7 O5 1.999592 1_555
Cu7 O11 2.068119 1_555
Cu7 O15 2.068119 1_455
