# generated using pymatgen
data_Cs2HgCl4
_symmetry_space_group_name_H-M   'P 1'
_cell_length_a   7.57339496
_cell_length_b   9.94793797
_cell_length_c   13.67243556
_cell_angle_alpha   90.00000000
_cell_angle_beta   90.00000000
_cell_angle_gamma   90.00000000
_symmetry_Int_Tables_number   1
_chemical_formula_structural   Cs2HgCl4
_chemical_formula_sum   'Cs8 Hg4 Cl16'
_cell_volume   1030.07669137
_cell_formula_units_Z   4
loop_
 _symmetry_equiv_pos_site_id
 _symmetry_equiv_pos_as_xyz
  1  'x, y, z'
loop_
 _atom_site_type_symbol
 _atom_site_label
 _atom_site_symmetry_multiplicity
 _atom_site_fract_x
 _atom_site_fract_y
 _atom_site_fract_z
 _atom_site_occupancy
  Cs  Cs0  1  0.25000000  0.61487774  0.42522736  1
  Cs  Cs1  1  0.25000000  0.11487774  0.07477264  1
  Cs  Cs2  1  0.75000000  0.38512226  0.57477264  1
  Cs  Cs3  1  0.75000000  0.88512226  0.92522736  1
  Cs  Cs4  1  0.25000000  0.98433916  0.67731876  1
  Cs  Cs5  1  0.25000000  0.48433916  0.82268124  1
  Cs  Cs6  1  0.75000000  0.01566084  0.32268124  1
  Cs  Cs7  1  0.75000000  0.51566084  0.17731876  1
  Hg  Hg0  1  0.25000000  0.21186091  0.42442960  1
  Hg  Hg1  1  0.25000000  0.71186091  0.07557040  1
  Hg  Hg2  1  0.75000000  0.78813909  0.57557040  1
  Hg  Hg3  1  0.75000000  0.28813909  0.92442960  1
  Cl  Cl0  1  0.25000000  0.96457629  0.41435778  1
  Cl  Cl1  1  0.25000000  0.46457629  0.08564222  1
  Cl  Cl2  1  0.75000000  0.03542371  0.58564222  1
  Cl  Cl3  1  0.75000000  0.53542371  0.91435778  1
  Cl  Cl4  1  0.25000000  0.32120056  0.59307727  1
  Cl  Cl5  1  0.25000000  0.82120056  0.90692273  1
  Cl  Cl6  1  0.75000000  0.67879944  0.40692273  1
  Cl  Cl7  1  0.75000000  0.17879944  0.09307727  1
  Cl  Cl8  1  0.98611135  0.32458442  0.34805744  1
  Cl  Cl9  1  0.51388865  0.82458442  0.15194256  1
  Cl  Cl10  1  0.48611135  0.67541558  0.65194256  1
  Cl  Cl11  1  0.01388865  0.17541558  0.84805744  1
  Cl  Cl12  1  0.01388865  0.67541558  0.65194256  1
  Cl  Cl13  1  0.48611135  0.17541558  0.84805744  1
  Cl  Cl14  1  0.51388865  0.32458442  0.34805744  1
  Cl  Cl15  1  0.98611135  0.82458442  0.15194256  1
loop_
_geom_bond_atom_site_label_1
_geom_bond_atom_site_label_2
_geom_bond_distance
_geom_bond_site_symmetry_2
Cl0 Hg0 2.463823 1_565
Cl0 Cs0 3.481952 1_555
Cl0 Cs4 3.600688 1_555
Cl0 Cs6 4.021001 1_565
Cl0 Cs6 4.021001 1_465
Cl1 Hg1 2.463823 1_555
Cl1 Cs1 3.481952 1_555
Cl1 Cs5 3.600688 1_554
Cl1 Cs7 4.021001 1_455
Cl1 Cs7 4.021001 1_555
Cl2 Hg2 2.463823 1_545
Cl2 Cs2 3.481952 1_555
Cl2 Cs6 3.600688 1_555
Cl2 Cs4 4.021001 1_545
Cl2 Cs4 4.021001 1_645
Cl3 Hg3 2.463823 1_555
Cl3 Cs3 3.481952 1_555
Cl3 Cs7 3.600688 1_556
Cl3 Cs5 4.021001 1_655
Cl3 Cs5 4.021001 1_555
Cl4 Hg0 2.549495 1_555
Cl4 Cs5 3.533927 1_555
Cl4 Cs4 3.543490 1_545
Cl4 Cs0 3.715064 1_555
Cl4 Cs2 3.847865 1_555
Cl4 Cs2 3.847865 1_455
Cl5 Hg1 2.549495 1_556
Cl5 Cs4 3.533927 1_555
Cl5 Cs5 3.543490 1_555
Cl5 Cs1 3.715064 1_566
Cl5 Cs3 3.847865 1_455
Cl5 Cs3 3.847865 1_555
Cl6 Hg2 2.549495 1_555
Cl6 Cs7 3.533927 1_555
Cl6 Cs6 3.543490 1_565
Cl6 Cs2 3.715064 1_555
Cl6 Cs0 3.847865 1_555
Cl6 Cs0 3.847865 1_655
Cl7 Hg3 2.549495 1_554
Cl7 Cs6 3.533927 1_555
Cl7 Cs7 3.543490 1_555
Cl7 Cs3 3.715064 1_544
Cl7 Cs1 3.847865 1_555
Cl7 Cs1 3.847865 1_655
Cl8 Hg0 2.518320 1_655
Cl8 Cs7 3.501446 1_555
Cl8 Cs6 3.572419 1_555
Cl8 Cs2 3.628864 1_555
Cl8 Cs0 3.666998 1_655
Cl9 Hg1 2.518320 1_555
Cl9 Cs6 3.501446 1_565
Cl9 Cs7 3.572419 1_555
Cl9 Cs3 3.628864 1_554
Cl9 Cs1 3.666998 1_565
Cl10 Hg2 2.518320 1_555
Cl10 Cs5 3.501446 1_555
Cl10 Cs4 3.572419 1_555
Cl10 Cs0 3.628864 1_555
Cl10 Cs2 3.666998 1_555
Cl11 Hg3 2.518320 1_455
Cl11 Cs4 3.501446 1_545
Cl11 Cs5 3.572419 1_555
Cl11 Cs1 3.628864 1_556
Cl11 Cs3 3.666998 1_445
Cl12 Hg2 2.518320 1_455
Cl12 Cs5 3.501446 1_555
Cl12 Cs4 3.572419 1_555
Cl12 Cs0 3.628864 1_555
Cl12 Cs2 3.666998 1_455
Cl13 Hg3 2.518320 1_555
Cl13 Cs4 3.501446 1_545
Cl13 Cs5 3.572419 1_555
Cl13 Cs1 3.628864 1_556
Cl13 Cs3 3.666998 1_545
Cl14 Hg0 2.518320 1_555
Cl14 Cs7 3.501446 1_555
Cl14 Cs6 3.572419 1_555
Cl14 Cs2 3.628864 1_555
Cl14 Cs0 3.666998 1_555
Cl15 Hg1 2.518320 1_655
Cl15 Cs6 3.501446 1_565
Cl15 Cs7 3.572419 1_555
Cl15 Cs3 3.628864 1_554
Cl15 Cs1 3.666998 1_665
