# generated using pymatgen
data_Li7NbS6
_symmetry_space_group_name_H-M   'P 1'
_cell_length_a   7.55339200
_cell_length_b   7.13458600
_cell_length_c   12.24329612
_cell_angle_alpha   55.58565694
_cell_angle_beta   90.00000000
_cell_angle_gamma   90.00000000
_symmetry_Int_Tables_number   1
_chemical_formula_structural   Li7NbS6
_chemical_formula_sum   'Li14 Nb2 S12'
_cell_volume   544.31259729
_cell_formula_units_Z   2
loop_
 _symmetry_equiv_pos_site_id
 _symmetry_equiv_pos_as_xyz
  1  'x, y, z'
loop_
 _atom_site_type_symbol
 _atom_site_label
 _atom_site_symmetry_multiplicity
 _atom_site_fract_x
 _atom_site_fract_y
 _atom_site_fract_z
 _atom_site_occupancy
  Li  Li0  1  0.09869400  0.40108300  0.70708900  1
  Li  Li1  1  0.47799800  0.44386500  0.68304500  1
  Li  Li2  1  0.87155900  0.24951700  0.96949500  1
  Li  Li3  1  0.86036400  0.55962300  0.51153100  1
  Li  Li4  1  0.05816300  0.95087000  0.29750100  1
  Li  Li5  1  0.36512700  0.91360000  0.41645500  1
  Li  Li6  1  0.74143100  0.62400400  0.77136100  1
  Li  Li7  1  0.90130600  0.40108300  0.20708900  1
  Li  Li8  1  0.52200200  0.44386500  0.18304500  1
  Li  Li9  1  0.12844100  0.24951700  0.46949500  1
  Li  Li10  1  0.13963600  0.55962300  0.01153100  1
  Li  Li11  1  0.94183700  0.95087000  0.79750100  1
  Li  Li12  1  0.63487300  0.91360000  0.91645500  1
  Li  Li13  1  0.25856900  0.62400400  0.27136100  1
  Nb  Nb0  1  0.26626400  0.04055200  0.98655400  1
  Nb  Nb1  1  0.73373600  0.04055200  0.48655400  1
  S  S0  1  0.78229600  0.29073900  0.75864300  1
  S  S1  1  0.19158800  0.57760500  0.47893300  1
  S  S2  1  0.01989600  0.88408900  0.11821900  1
  S  S3  1  0.26630400  0.42598900  0.87457400  1
  S  S4  1  0.73424200  0.96919300  0.32712800  1
  S  S5  1  0.49218500  0.86020000  0.61800700  1
  S  S6  1  0.80841200  0.57760500  0.97893300  1
  S  S7  1  0.98010400  0.88408900  0.61821900  1
  S  S8  1  0.21770400  0.29073900  0.25864300  1
  S  S9  1  0.26575800  0.96919300  0.82712800  1
  S  S10  1  0.73369600  0.42598900  0.37457400  1
  S  S11  1  0.50781500  0.86020000  0.11800700  1
loop_
_geom_bond_atom_site_label_1
_geom_bond_atom_site_label_2
_geom_bond_distance
_geom_bond_site_symmetry_2
Li0 S1 2.429990 1_555
Li0 S0 2.483549 1_455
Li0 S3 2.500218 1_555
Li0 S9 2.851002 1_545
Li1 S0 2.488022 1_555
Li1 S5 2.606748 1_555
Li1 S3 2.780973 1_555
Li2 S2 2.449942 1_646
Li2 S6 2.454752 1_555
Li2 S0 2.519358 1_555
Li3 S1 2.525311 1_655
Li3 S10 2.538345 1_555
Li3 S0 2.573095 1_555
Li3 S4 2.662011 1_555
Li4 S4 2.487693 1_455
Li4 S8 2.500868 1_565
Li4 S2 2.512117 1_555
Li4 S1 2.520983 1_555
Li5 S1 2.444817 1_555
Li5 S5 2.468374 1_555
Li5 S8 2.517270 1_565
Li5 S4 2.938778 1_555
Li6 S6 2.423457 1_555
Li6 S0 2.488274 1_555
Li6 S7 2.505216 1_555
Li6 S5 2.516539 1_555
Li7 S6 2.429990 1_554
Li7 S8 2.483549 1_655
Li7 S10 2.500218 1_555
Li7 S4 2.851002 1_545
Li8 S8 2.488022 1_555
Li8 S11 2.606748 1_555
Li8 S10 2.780973 1_555
Li9 S7 2.449942 1_445
Li9 S1 2.454752 1_555
Li9 S8 2.519358 1_555
Li10 S6 2.525311 1_454
Li10 S3 2.538345 1_554
Li10 S8 2.573095 1_555
Li10 S9 2.662011 1_554
Li11 S9 2.487693 1_655
Li11 S0 2.500868 1_565
Li11 S7 2.512117 1_555
Li11 S6 2.520983 1_555
Li12 S6 2.444817 1_555
Li12 S11 2.468374 1_556
Li12 S0 2.517270 1_565
Li12 S9 2.938778 1_555
Li13 S1 2.423457 1_555
Li13 S8 2.488274 1_555
Li13 S2 2.505216 1_555
Li13 S11 2.516539 1_555
Nb0 S3 2.276002 1_555
Nb0 S9 2.278685 1_545
Nb0 S11 2.287792 1_546
Nb0 S2 2.296446 1_546
Nb1 S10 2.276002 1_555
Nb1 S4 2.278685 1_545
Nb1 S5 2.287792 1_545
Nb1 S7 2.296446 1_545
