# generated using pymatgen
data_Sr3V2O8
_symmetry_space_group_name_H-M   'P 1'
_cell_length_a   7.46402992
_cell_length_b   7.46403061
_cell_length_c   7.46402953
_cell_angle_alpha   44.22675936
_cell_angle_beta   44.22675018
_cell_angle_gamma   44.22676373
_symmetry_Int_Tables_number   1
_chemical_formula_structural   Sr3V2O8
_chemical_formula_sum   'Sr3 V2 O8'
_cell_volume   183.83545087
_cell_formula_units_Z   1
loop_
 _symmetry_equiv_pos_site_id
 _symmetry_equiv_pos_as_xyz
  1  'x, y, z'
loop_
 _atom_site_type_symbol
 _atom_site_label
 _atom_site_symmetry_multiplicity
 _atom_site_fract_x
 _atom_site_fract_y
 _atom_site_fract_z
 _atom_site_occupancy
  Sr  Sr0  1  0.79815518  0.79815518  0.79815518  1
  Sr  Sr1  1  0.20184482  0.20184482  0.20184482  1
  Sr  Sr2  1  -0.00000000  0.00000000  -0.00000000  1
  V  V0  1  0.59394380  0.59394380  0.59394380  1
  V  V1  1  0.40605620  0.40605620  0.40605620  1
  O  O0  1  0.73155248  0.23228685  0.73155248  1
  O  O1  1  0.23228685  0.73155248  0.73155248  1
  O  O2  1  0.73155248  0.73155248  0.23228685  1
  O  O3  1  0.26844752  0.76771315  0.26844752  1
  O  O4  1  0.76771315  0.26844752  0.26844752  1
  O  O5  1  0.32162850  0.32162850  0.32162850  1
  O  O6  1  0.67837150  0.67837150  0.67837150  1
  O  O7  1  0.26844752  0.26844752  0.76771315  1
loop_
_geom_bond_atom_site_label_1
_geom_bond_atom_site_label_2
_geom_bond_distance
_geom_bond_site_symmetry_2
O0 V0 1.720896 1_555
O0 Sr0 2.594449 1_545
O0 Sr2 2.613791 1_656
O0 Sr1 2.873955 1_655
O0 Sr1 2.873955 1_556
O1 V0 1.720896 1_555
O1 Sr0 2.594448 1_455
O1 Sr2 2.613791 1_566
O1 Sr1 2.873956 1_565
O1 Sr1 2.873956 1_556
O2 V0 1.720896 1_555
O2 Sr0 2.594448 1_554
O2 Sr2 2.613791 1_665
O2 Sr1 2.873956 1_565
O2 Sr1 2.873956 1_655
O3 V1 1.720896 1_555
O3 Sr1 2.594449 1_565
O3 Sr2 2.613791 1_565
O3 Sr0 2.873955 1_455
O3 Sr0 2.873955 1_554
O4 V1 1.720896 1_555
O4 Sr1 2.594448 1_655
O4 Sr2 2.613791 1_655
O4 Sr0 2.873956 1_545
O4 Sr0 2.873956 1_554
O5 V1 1.702571 1_555
O5 Sr1 2.415560 1_555
O6 V0 1.702571 1_555
O6 Sr0 2.415560 1_555
O7 V1 1.720896 1_555
O7 Sr1 2.594448 1_556
O7 Sr2 2.613791 1_556
O7 Sr0 2.873956 1_545
O7 Sr0 2.873956 1_455
