# generated using pymatgen
data_LaPbNO5
_symmetry_space_group_name_H-M   'P 1'
_cell_length_a   7.64323086
_cell_length_b   7.64323086
_cell_length_c   3.88306564
_cell_angle_alpha   80.02165143
_cell_angle_beta   80.02165143
_cell_angle_gamma   35.82948570
_symmetry_Int_Tables_number   1
_chemical_formula_structural   LaPbNO5
_chemical_formula_sum   'La1 Pb1 N1 O5'
_cell_volume   130.56886393
_cell_formula_units_Z   1
loop_
 _symmetry_equiv_pos_site_id
 _symmetry_equiv_pos_as_xyz
  1  'x, y, z'
loop_
 _atom_site_type_symbol
 _atom_site_label
 _atom_site_symmetry_multiplicity
 _atom_site_fract_x
 _atom_site_fract_y
 _atom_site_fract_z
 _atom_site_occupancy
  La  La0  1  0.83014900  0.83014900  0.17532800  1
  Pb  Pb0  1  0.17768600  0.17768600  0.79252100  1
  N  N0  1  0.48355100  0.48355100  0.46567700  1
  O  O0  1  0.27310900  0.27310900  0.22193500  1
  O  O1  1  0.74556000  0.74556000  0.73509200  1
  O  O2  1  0.55349200  0.55349200  0.22497900  1
  O  O3  1  0.68085800  0.21359500  0.58823400  1
  O  O4  1  0.21359500  0.68085800  0.58823400  1
loop_
_geom_bond_atom_site_label_1
_geom_bond_atom_site_label_2
_geom_bond_distance
_geom_bond_site_symmetry_2
La0 O1 2.280817 1_554
La0 O1 2.294413 1_555
La0 O0 2.488762 1_655
La0 O0 2.488762 1_565
La0 O3 2.834406 1_565
La0 O4 2.834406 1_655
La0 O3 2.872616 1_564
La0 O4 2.872616 1_654
N0 O2 1.249875 1_555
N0 O4 1.273148 1_555
N0 O3 1.273148 1_555
O0 Pb0 2.355779 1_554
O0 Pb0 2.390688 1_555
O1 Pb0 2.543959 1_655
O1 Pb0 2.543959 1_565
