# generated using pymatgen
data_ZnCu3
_symmetry_space_group_name_H-M   'P 1'
_cell_length_a   5.12291968
_cell_length_b   5.12291968
_cell_length_c   16.79517310
_cell_angle_alpha   90.00000000
_cell_angle_beta   90.00000000
_cell_angle_gamma   120.00001399
_symmetry_Int_Tables_number   1
_chemical_formula_structural   ZnCu3
_chemical_formula_sum   'Zn8 Cu24'
_cell_volume   381.72460022
_cell_formula_units_Z   8
loop_
 _symmetry_equiv_pos_site_id
 _symmetry_equiv_pos_as_xyz
  1  'x, y, z'
loop_
 _atom_site_type_symbol
 _atom_site_label
 _atom_site_symmetry_multiplicity
 _atom_site_fract_x
 _atom_site_fract_y
 _atom_site_fract_z
 _atom_site_occupancy
  Zn  Zn0_0  1  0.33333350  0.16666650  0.00000000  1
  Zn  Zn0_1  1  0.33333350  0.16666650  0.50000000  1
  Zn  Zn0_2  1  0.33333350  0.66666650  0.00000000  1
  Zn  Zn0_3  1  0.33333350  0.66666650  0.50000000  1
  Zn  Zn0_4  1  0.83333350  0.16666650  0.00000000  1
  Zn  Zn0_5  1  0.83333350  0.16666650  0.50000000  1
  Zn  Zn0_6  1  0.83333350  0.66666650  0.00000000  1
  Zn  Zn0_7  1  0.83333350  0.66666650  0.50000000  1
  Cu  Cu0_0  1  0.33333350  0.16666650  0.25000000  1
  Cu  Cu0_1  1  0.33333350  0.16666650  0.75000000  1
  Cu  Cu0_2  1  0.33333350  0.66666650  0.25000000  1
  Cu  Cu0_3  1  0.33333350  0.66666650  0.75000000  1
  Cu  Cu0_4  1  0.83333350  0.16666650  0.25000000  1
  Cu  Cu0_5  1  0.83333350  0.16666650  0.75000000  1
  Cu  Cu0_6  1  0.83333350  0.66666650  0.25000000  1
  Cu  Cu0_7  1  0.83333350  0.66666650  0.75000000  1
  Cu  Cu1_0  1  0.16666650  0.33333350  0.12703627  1
  Cu  Cu1_1  1  0.16666650  0.33333350  0.62703626  1
  Cu  Cu1_2  1  0.16666650  0.83333350  0.12703627  1
  Cu  Cu1_3  1  0.16666650  0.83333350  0.62703626  1
  Cu  Cu1_4  1  0.66666650  0.33333350  0.12703627  1
  Cu  Cu1_5  1  0.66666650  0.33333350  0.62703626  1
  Cu  Cu1_6  1  0.66666650  0.83333350  0.12703627  1
  Cu  Cu1_7  1  0.66666650  0.83333350  0.62703626  1
  Cu  Cu2_0  1  0.16666650  0.33333350  0.37296374  1
  Cu  Cu2_1  1  0.16666650  0.33333350  0.87296373  1
  Cu  Cu2_2  1  0.16666650  0.83333350  0.37296374  1
  Cu  Cu2_3  1  0.16666650  0.83333350  0.87296373  1
  Cu  Cu2_4  1  0.66666650  0.33333350  0.37296374  1
  Cu  Cu2_5  1  0.66666650  0.33333350  0.87296373  1
  Cu  Cu2_6  1  0.66666650  0.83333350  0.37296374  1
  Cu  Cu2_7  1  0.66666650  0.83333350  0.87296373  1
loop_
_geom_bond_atom_site_label_1
_geom_bond_atom_site_label_2
_geom_bond_distance
_geom_bond_site_symmetry_2
Zn0_0 Zn0_6 2.561459 1_555
Zn0_0 Zn0_6 2.561459 1_445
Zn0_0 Zn0_4 2.561460 1_555
Zn0_0 Zn0_2 2.561460 1_545
Zn0_0 Zn0_2 2.561460 1_555
Zn0_0 Zn0_4 2.561460 1_455
Zn0_1 Zn0_7 2.561459 1_555
Zn0_1 Zn0_7 2.561459 1_445
Zn0_1 Zn0_5 2.561460 1_555
Zn0_1 Zn0_5 2.561460 1_455
Zn0_1 Zn0_3 2.561460 1_555
Zn0_1 Zn0_3 2.561460 1_545
Zn0_2 Zn0_4 2.561459 1_455
Zn0_2 Zn0_4 2.561459 1_565
Zn0_2 Zn0_6 2.561460 1_555
Zn0_2 Zn0_6 2.561460 1_455
Zn0_3 Zn0_5 2.561459 1_565
Zn0_3 Zn0_5 2.561459 1_455
Zn0_3 Zn0_7 2.561460 1_555
Zn0_3 Zn0_7 2.561460 1_455
Zn0_4 Zn0_6 2.561460 1_545
Zn0_4 Zn0_6 2.561460 1_555
Zn0_5 Zn0_7 2.561460 1_545
Zn0_5 Zn0_7 2.561460 1_555
Cu0_0 Cu1_2 2.540091 1_545
Cu0_0 Cu2_4 2.540091 1_555
Cu0_0 Cu1_4 2.540091 1_555
Cu0_0 Cu2_2 2.540091 1_545
Cu0_0 Cu1_0 2.540093 1_555
Cu0_0 Cu2_0 2.540093 1_555
Cu0_0 Cu0_6 2.561459 1_555
Cu0_0 Cu0_6 2.561459 1_445
Cu0_0 Cu0_4 2.561460 1_555
Cu0_0 Cu0_4 2.561460 1_455
Cu0_0 Cu0_2 2.561460 1_555
Cu0_0 Cu0_2 2.561460 1_545
Cu0_1 Cu2_5 2.540091 1_555
Cu0_1 Cu2_3 2.540091 1_545
Cu0_1 Cu1_5 2.540091 1_555
Cu0_1 Cu1_3 2.540091 1_545
Cu0_1 Cu2_1 2.540093 1_555
Cu0_1 Cu1_1 2.540093 1_555
Cu0_1 Cu0_7 2.561459 1_445
Cu0_1 Cu0_7 2.561459 1_555
Cu0_1 Cu0_5 2.561460 1_555
Cu0_1 Cu0_5 2.561460 1_455
Cu0_1 Cu0_3 2.561460 1_555
Cu0_1 Cu0_3 2.561460 1_545
Cu0_2 Cu1_0 2.540091 1_555
Cu0_2 Cu1_6 2.540091 1_555
Cu0_2 Cu2_6 2.540091 1_555
Cu0_2 Cu2_0 2.540091 1_555
Cu0_2 Cu1_2 2.540093 1_555
Cu0_2 Cu2_2 2.540093 1_555
Cu0_2 Cu0_4 2.561459 1_455
Cu0_2 Cu0_4 2.561459 1_565
Cu0_2 Cu0_6 2.561460 1_555
Cu0_2 Cu0_6 2.561460 1_455
Cu0_3 Cu2_1 2.540091 1_555
Cu0_3 Cu2_7 2.540091 1_555
Cu0_3 Cu1_1 2.540091 1_555
Cu0_3 Cu1_7 2.540091 1_555
Cu0_3 Cu2_3 2.540093 1_555
Cu0_3 Cu1_3 2.540093 1_555
Cu0_3 Cu0_5 2.561459 1_565
Cu0_3 Cu0_5 2.561459 1_455
Cu0_3 Cu0_7 2.561460 1_555
Cu0_3 Cu0_7 2.561460 1_455
Cu0_4 Cu1_6 2.540091 1_545
Cu0_4 Cu1_0 2.540091 1_655
Cu0_4 Cu2_6 2.540091 1_545
Cu0_4 Cu2_0 2.540091 1_655
Cu0_4 Cu1_4 2.540093 1_555
Cu0_4 Cu2_4 2.540093 1_555
Cu0_4 Cu0_6 2.561460 1_555
Cu0_4 Cu0_6 2.561460 1_545
Cu0_5 Cu2_7 2.540091 1_545
Cu0_5 Cu2_1 2.540091 1_655
Cu0_5 Cu1_7 2.540091 1_545
Cu0_5 Cu1_1 2.540091 1_655
Cu0_5 Cu2_5 2.540093 1_555
Cu0_5 Cu1_5 2.540093 1_555
Cu0_5 Cu0_7 2.561460 1_545
Cu0_5 Cu0_7 2.561460 1_555
Cu0_6 Cu1_4 2.540091 1_555
Cu0_6 Cu1_2 2.540091 1_655
Cu0_6 Cu2_2 2.540091 1_655
Cu0_6 Cu2_4 2.540091 1_555
Cu0_6 Cu1_6 2.540093 1_555
Cu0_6 Cu2_6 2.540093 1_555
Cu0_7 Cu2_5 2.540091 1_555
Cu0_7 Cu2_3 2.540091 1_655
Cu0_7 Cu1_5 2.540091 1_555
Cu0_7 Cu1_3 2.540091 1_655
Cu0_7 Cu2_7 2.540093 1_555
Cu0_7 Cu1_7 2.540093 1_555
Cu1_0 Cu1_6 2.561459 1_555
Cu1_0 Cu1_6 2.561459 1_445
Cu1_0 Cu1_4 2.561460 1_555
Cu1_0 Cu1_2 2.561460 1_545
Cu1_0 Cu1_2 2.561460 1_555
Cu1_0 Cu1_4 2.561460 1_455
Cu1_0 Zn0_4 2.596007 1_455
Cu1_0 Zn0_2 2.596007 1_555
Cu1_0 Zn0_0 2.596010 1_555
Cu1_1 Cu1_7 2.561459 1_555
Cu1_1 Cu1_7 2.561459 1_445
Cu1_1 Cu1_5 2.561460 1_555
Cu1_1 Cu1_5 2.561460 1_455
Cu1_1 Cu1_3 2.561460 1_555
Cu1_1 Cu1_3 2.561460 1_545
Cu1_1 Zn0_5 2.596007 1_455
Cu1_1 Zn0_3 2.596007 1_555
Cu1_1 Zn0_1 2.596010 1_555
Cu1_2 Cu1_4 2.561459 1_565
Cu1_2 Cu1_4 2.561459 1_455
Cu1_2 Cu1_6 2.561460 1_455
Cu1_2 Cu1_6 2.561460 1_555
Cu1_2 Zn0_6 2.596007 1_455
Cu1_2 Zn0_0 2.596007 1_565
Cu1_2 Zn0_2 2.596010 1_555
Cu1_3 Cu1_5 2.561459 1_565
Cu1_3 Cu1_5 2.561459 1_455
Cu1_3 Cu1_7 2.561460 1_455
Cu1_3 Cu1_7 2.561460 1_555
Cu1_3 Zn0_7 2.596007 1_455
Cu1_3 Zn0_1 2.596007 1_565
Cu1_3 Zn0_3 2.596010 1_555
Cu1_4 Cu1_6 2.561460 1_555
Cu1_4 Cu1_6 2.561460 1_545
Cu1_4 Zn0_0 2.596007 1_555
Cu1_4 Zn0_6 2.596007 1_555
Cu1_4 Zn0_4 2.596010 1_555
Cu1_5 Cu1_7 2.561460 1_555
Cu1_5 Cu1_7 2.561460 1_545
Cu1_5 Zn0_1 2.596007 1_555
Cu1_5 Zn0_7 2.596007 1_555
Cu1_5 Zn0_5 2.596010 1_555
Cu1_6 Zn0_2 2.596007 1_555
Cu1_6 Zn0_4 2.596007 1_565
Cu1_6 Zn0_6 2.596010 1_555
Cu1_7 Zn0_3 2.596007 1_555
Cu1_7 Zn0_5 2.596007 1_565
Cu1_7 Zn0_7 2.596010 1_555
Cu2_0 Cu2_6 2.561459 1_555
Cu2_0 Cu2_6 2.561459 1_445
Cu2_0 Cu2_4 2.561460 1_555
Cu2_0 Cu2_2 2.561460 1_545
Cu2_0 Cu2_2 2.561460 1_555
Cu2_0 Cu2_4 2.561460 1_455
Cu2_0 Zn0_5 2.596007 1_455
Cu2_0 Zn0_3 2.596007 1_555
Cu2_0 Zn0_1 2.596010 1_555
Cu2_1 Cu2_7 2.561459 1_555
Cu2_1 Cu2_7 2.561459 1_445
Cu2_1 Cu2_5 2.561460 1_555
Cu2_1 Cu2_5 2.561460 1_455
Cu2_1 Cu2_3 2.561460 1_545
Cu2_1 Cu2_3 2.561460 1_555
Cu2_1 Zn0_2 2.596007 1_556
Cu2_1 Zn0_4 2.596007 1_456
Cu2_1 Zn0_0 2.596010 1_556
Cu2_2 Cu2_4 2.561459 1_565
Cu2_2 Cu2_4 2.561459 1_455
Cu2_2 Cu2_6 2.561460 1_455
Cu2_2 Cu2_6 2.561460 1_555
Cu2_2 Zn0_7 2.596007 1_455
Cu2_2 Zn0_1 2.596007 1_565
Cu2_2 Zn0_3 2.596010 1_555
Cu2_3 Cu2_5 2.561459 1_565
Cu2_3 Cu2_5 2.561459 1_455
Cu2_3 Cu2_7 2.561460 1_455
Cu2_3 Cu2_7 2.561460 1_555
Cu2_3 Zn0_0 2.596007 1_566
Cu2_3 Zn0_6 2.596007 1_456
Cu2_3 Zn0_2 2.596010 1_556
Cu2_4 Cu2_6 2.561460 1_555
Cu2_4 Cu2_6 2.561460 1_545
Cu2_4 Zn0_1 2.596007 1_555
Cu2_4 Zn0_7 2.596007 1_555
Cu2_4 Zn0_5 2.596010 1_555
Cu2_5 Cu2_7 2.561460 1_555
Cu2_5 Cu2_7 2.561460 1_545
Cu2_5 Zn0_6 2.596007 1_556
Cu2_5 Zn0_0 2.596007 1_556
Cu2_5 Zn0_4 2.596010 1_556
Cu2_6 Zn0_3 2.596007 1_555
Cu2_6 Zn0_5 2.596007 1_565
Cu2_6 Zn0_7 2.596010 1_555
Cu2_7 Zn0_2 2.596007 1_556
Cu2_7 Zn0_4 2.596007 1_566
Cu2_7 Zn0_6 2.596010 1_556
