# generated using pymatgen
data_Li7Mn4CoO12
_symmetry_space_group_name_H-M   'P 1'
_cell_length_a   14.79836304
_cell_length_b   14.79836304
_cell_length_c   5.30445517
_cell_angle_alpha   81.77784695
_cell_angle_beta   81.77784695
_cell_angle_gamma   11.11295957
_symmetry_Int_Tables_number   1
_chemical_formula_structural   Li7Mn4CoO12
_chemical_formula_sum   'Li7 Mn4 Co1 O12'
_cell_volume   221.57394816
_cell_formula_units_Z   1
loop_
 _symmetry_equiv_pos_site_id
 _symmetry_equiv_pos_as_xyz
  1  'x, y, z'
loop_
 _atom_site_type_symbol
 _atom_site_label
 _atom_site_symmetry_multiplicity
 _atom_site_fract_x
 _atom_site_fract_y
 _atom_site_fract_z
 _atom_site_occupancy
  Li  Li0  1  0.42084000  0.42084000  0.23615500  1
  Li  Li1  1  0.25016200  0.25016200  0.74700500  1
  Li  Li2  1  0.07742200  0.07742200  0.26998300  1
  Li  Li3  1  0.92188000  0.92188000  0.73115200  1
  Li  Li4  1  0.75076500  0.75076500  0.24884900  1
  Li  Li5  1  0.57921300  0.57921300  0.76561700  1
  Li  Li6  1  0.49966500  0.49966500  0.49973200  1
  Mn  Mn0  1  0.99959100  0.99959100  0.99906700  1
  Mn  Mn1  1  0.83422700  0.83422700  0.49702100  1
  Mn  Mn2  1  0.66675200  0.66675200  0.00369700  1
  Mn  Mn3  1  0.16604200  0.16604200  0.50463300  1
  Co  Co0  1  0.33339800  0.33339800  0.99555600  1
  O  O0  1  0.46191200  0.46191200  0.88609100  1
  O  O1  1  0.29553000  0.29553000  0.39216700  1
  O  O2  1  0.12909300  0.12909300  0.89634400  1
  O  O3  1  0.96182200  0.96182200  0.32987000  1
  O  O4  1  0.79660400  0.79660400  0.88658400  1
  O  O5  1  0.62788100  0.62788100  0.39484100  1
  O  O6  1  0.37204100  0.37204100  0.60949600  1
  O  O7  1  0.20611800  0.20611800  0.10628000  1
  O  O8  1  0.03733400  0.03733400  0.66980600  1
  O  O9  1  0.86905800  0.86905800  0.11090000  1
  O  O10  1  0.70538700  0.70538700  0.60479800  1
  O  O11  1  0.53725200  0.53725200  0.11435500  1
loop_
_geom_bond_atom_site_label_1
_geom_bond_atom_site_label_2
_geom_bond_distance
_geom_bond_site_symmetry_2
Li0 O3 1.982456 1_455
Li0 O3 1.982456 1_545
Li0 O0 2.065495 1_554
Li0 O9 2.261107 1_545
Li0 O9 2.261107 1_455
Li0 O6 2.273806 1_555
Li1 O7 2.145854 1_556
Li1 O1 2.146145 1_555
Li1 O10 2.155864 1_545
Li1 O10 2.155864 1_455
Li1 O4 2.182666 1_455
Li1 O4 2.182666 1_545
Li2 O11 2.101329 1_455
Li2 O11 2.101329 1_545
Li2 O5 2.232508 1_455
Li2 O5 2.232508 1_545
Li2 O8 2.274372 1_555
Li2 O2 2.319053 1_554
Li3 O0 2.097083 1_655
Li3 O0 2.097083 1_565
Li3 O6 2.212980 1_655
Li3 O6 2.212980 1_565
Li3 O3 2.279369 1_555
Li3 O9 2.361794 1_556
Li4 O10 2.150936 1_555
Li4 O7 2.154212 1_565
Li4 O7 2.154212 1_655
Li4 O1 2.158256 1_655
Li4 O1 2.158256 1_565
Li4 O4 2.184098 1_554
Li5 O8 2.003378 1_655
Li5 O8 2.003378 1_565
Li5 O11 2.071902 1_556
Li5 O2 2.232887 1_565
Li5 O2 2.232887 1_655
Li5 O5 2.261241 1_555
Li6 O8 2.094278 1_655
Li6 O8 2.094278 1_565
Li6 O3 2.096746 1_455
Li6 O3 2.096746 1_545
Li6 O11 2.180440 1_555
Li6 O0 2.186769 1_555
Mn0 O8 1.930944 1_665
Mn0 O3 1.938011 1_556
Mn0 O0 1.958413 1_655
Mn0 O0 1.958413 1_565
Mn0 O11 1.962874 1_566
Mn0 O11 1.962874 1_656
Mn1 O6 1.959817 1_565
Mn1 O6 1.959817 1_655
Mn1 O1 1.960643 1_655
Mn1 O1 1.960643 1_565
Mn1 O9 2.154950 1_555
Mn1 O4 2.200056 1_555
Mn2 O2 1.946691 1_654
Mn2 O2 1.946691 1_564
Mn2 O7 1.968583 1_655
Mn2 O7 1.968583 1_565
Mn2 O5 2.221087 1_555
Mn2 O10 2.253982 1_554
Mn3 O5 1.960646 1_455
Mn3 O5 1.960646 1_545
Mn3 O10 1.963599 1_545
Mn3 O10 1.963599 1_455
Mn3 O2 2.202744 1_555
Mn3 O7 2.267550 1_555
Co0 O9 1.927603 1_546
Co0 O9 1.927603 1_456
Co0 O4 1.934445 1_545
Co0 O4 1.934445 1_455
Co0 O6 2.195345 1_555
Co0 O1 2.235159 1_556
