# generated using pymatgen
data_K2FeP2O7
_symmetry_space_group_name_H-M   'P 1'
_cell_length_a   10.37484262
_cell_length_b   10.37593305
_cell_length_c   10.37616444
_cell_angle_alpha   72.17696803
_cell_angle_beta   67.17156012
_cell_angle_gamma   107.81746484
_symmetry_Int_Tables_number   1
_chemical_formula_structural   K2FeP2O7
_chemical_formula_sum   'K8 Fe4 P8 O28'
_cell_volume   857.60115455
_cell_formula_units_Z   4
loop_
 _symmetry_equiv_pos_site_id
 _symmetry_equiv_pos_as_xyz
  1  'x, y, z'
loop_
 _atom_site_type_symbol
 _atom_site_label
 _atom_site_symmetry_multiplicity
 _atom_site_fract_x
 _atom_site_fract_y
 _atom_site_fract_z
 _atom_site_occupancy
  K  K0  1  0.56810500  0.35608000  0.57536100  1
  K  K1  1  0.06835000  0.35641100  0.07546100  1
  K  K2  1  0.57541900  0.14387400  0.06808400  1
  K  K3  1  0.07547400  0.14350000  0.56852600  1
  K  K4  1  0.06822400  0.64362200  0.78806700  1
  K  K5  1  0.56843500  0.64391400  0.28803900  1
  K  K6  1  0.78800400  0.85632500  0.56831300  1
  K  K7  1  0.28804500  0.85616700  0.06842300  1
  Fe  Fe0  1  0.99994800  0.49983600  0.50003200  1
  Fe  Fe1  1  0.49977400  0.99989100  0.50003300  1
  Fe  Fe2  1  0.49995700  0.50009300  0.00012100  1
  Fe  Fe3  1  0.00000600  0.99998800  0.00003800  1
  P  P0  1  0.69013300  0.37425600  0.18422500  1
  P  P1  1  0.19021800  0.37435600  0.68411400  1
  P  P2  1  0.68395900  0.12551900  0.69017500  1
  P  P3  1  0.18403600  0.12574300  0.19033300  1
  P  P4  1  0.44162000  0.62562000  0.68412500  1
  P  P5  1  0.94158200  0.62574500  0.18401600  1
  P  P6  1  0.18418800  0.87432100  0.44147100  1
  P  P7  1  0.68427200  0.87443400  0.94147300  1
  O  O0  1  0.26433200  0.49998600  0.73571500  1
  O  O1  1  0.76432700  0.50005700  0.23564600  1
  O  O2  1  0.73568400  0.99998300  0.76424800  1
  O  O3  1  0.23566500  0.00002800  0.26428100  1
  O  O4  1  0.82266300  0.37457700  0.05217600  1
  O  O5  1  0.32271900  0.37489900  0.55183300  1
  O  O6  1  0.55173600  0.12501600  0.82267600  1
  O  O7  1  0.05199700  0.12535400  0.32292000  1
  O  O8  1  0.57332000  0.62502200  0.55217700  1
  O  O9  1  0.07332900  0.62546900  0.05181600  1
  O  O10  1  0.05213000  0.87467100  0.57329400  1
  O  O11  1  0.55229500  0.87494100  0.07320500  1
  O  O12  1  0.84065600  0.27953300  0.58658900  1
  O  O13  1  0.34080200  0.27963200  0.08662100  1
  O  O14  1  0.58640000  0.22040700  0.34101300  1
  O  O15  1  0.08666400  0.22040200  0.84073300  1
  O  O16  1  0.13394900  0.72041800  0.43860100  1
  O  O17  1  0.63387200  0.72045700  0.93878900  1
  O  O18  1  0.43897900  0.77959700  0.63360500  1
  O  O19  1  0.93870900  0.77964000  0.13386400  1
  O  O20  1  0.43869100  0.57268400  0.84092900  1
  O  O21  1  0.93887100  0.57268000  0.34070300  1
  O  O22  1  0.34099300  0.92741700  0.43851500  1
  O  O23  1  0.84112300  0.92751200  0.93842400  1
  O  O24  1  0.58649700  0.42733100  0.13390900  1
  O  O25  1  0.08636300  0.42738800  0.63407200  1
  O  O26  1  0.63385700  0.07246800  0.58647400  1
  O  O27  1  0.13362800  0.07273800  0.08674200  1
loop_
_geom_bond_atom_site_label_1
_geom_bond_atom_site_label_2
_geom_bond_distance
_geom_bond_site_symmetry_2
K0 O8 2.708208 1_555
K0 O5 2.708567 1_555
K0 O6 2.829943 1_555
K0 O1 2.854545 1_555
K0 O14 3.135512 1_555
K0 O21 3.141373 1_555
K0 O12 3.195861 1_555
K0 O26 3.196900 1_555
K1 O4 2.708345 1_455
K1 O9 2.709102 1_555
K1 O7 2.830927 1_555
K1 O0 2.854924 1_554
K1 O20 3.137809 1_554
K1 O15 3.141456 1_554
K1 O27 3.194732 1_555
K1 O13 3.195869 1_555
K2 O11 2.708605 1_545
K2 O6 2.709954 1_554
K2 O4 2.830030 1_555
K2 O3 2.854680 1_555
K2 O13 3.137987 1_555
K2 O22 3.138802 1_545
K2 O24 3.195892 1_555
K2 O14 3.199248 1_555
K3 O10 2.708208 1_545
K3 O7 2.708630 1_555
K3 O5 2.829529 1_555
K3 O2 2.854869 1_445
K3 O23 3.134338 1_445
K3 O12 3.142359 1_455
K3 O15 3.194550 1_555
K3 O25 3.199099 1_555
K4 O9 2.707555 1_556
K4 O4 2.709367 1_456
K4 O10 2.829257 1_555
K4 O0 2.854726 1_555
K4 O25 3.137223 1_555
K4 O18 3.141023 1_555
K4 O16 3.198242 1_555
K4 O22 3.198836 1_555
K5 O5 2.708526 1_555
K5 O8 2.708806 1_555
K5 O11 2.829761 1_555
K5 O1 2.854800 1_555
K5 O19 3.137102 1_555
K5 O24 3.141367 1_555
K5 O17 3.197391 1_554
K5 O23 3.198413 1_554
K6 O7 2.708469 1_665
K6 O10 2.710103 1_655
K6 O8 2.830711 1_555
K6 O2 2.853725 1_555
K6 O26 3.137279 1_565
K6 O17 3.139254 1_555
K6 O18 3.194851 1_555
K6 O20 3.196723 1_555
K7 O6 2.707482 1_564
K7 O11 2.709458 1_555
K7 O9 2.830027 1_555
K7 O3 2.854815 1_565
K7 O16 3.136644 1_555
K7 O27 3.143337 1_565
K7 O21 3.194937 1_455
K7 O19 3.197867 1_455
Fe0 O12 2.010632 1_555
Fe0 O25 2.010776 1_655
Fe0 O21 2.011716 1_555
Fe0 O16 2.012338 1_655
Fe1 O22 2.009552 1_555
Fe1 O18 2.010848 1_555
Fe1 O14 2.011293 1_565
Fe1 O26 2.011776 1_565
Fe2 O17 2.010574 1_554
Fe2 O24 2.010868 1_555
Fe2 O20 2.011428 1_554
Fe2 O13 2.011563 1_555
Fe3 O19 2.010326 1_455
Fe3 O27 2.010995 1_565
Fe3 O23 2.011181 1_454
Fe3 O15 2.011313 1_564
O0 P1 1.646334 1_555
O0 P4 1.646361 1_555
O1 P5 1.646156 1_555
O1 P0 1.646556 1_555
O2 P2 1.646306 1_565
O2 P7 1.646315 1_555
O3 P6 1.646381 1_545
O3 P3 1.646496 1_555
O4 P0 1.516735 1_555
O5 P1 1.516626 1_555
O6 P2 1.516523 1_555
O7 P3 1.516619 1_555
O8 P4 1.516670 1_555
O9 P5 1.516534 1_455
O10 P6 1.516577 1_555
O11 P7 1.516494 1_554
O12 P2 1.534515 1_555
O13 P3 1.534162 1_555
O14 P0 1.534103 1_555
O15 P1 1.533881 1_555
O16 P6 1.534405 1_555
O17 P7 1.534271 1_555
O18 P4 1.534046 1_555
O19 P5 1.534263 1_555
O20 P4 1.534334 1_555
O21 P5 1.534362 1_555
O22 P6 1.534105 1_555
O23 P7 1.534066 1_555
O24 P0 1.534227 1_555
O25 P1 1.534734 1_555
O26 P2 1.533781 1_555
O27 P3 1.534075 1_555
