# generated using pymatgen
data_YbFeC6(N3O2)2
_symmetry_space_group_name_H-M   'P 1'
_cell_length_a   7.38990298
_cell_length_b   7.38990298
_cell_length_c   12.93743669
_cell_angle_alpha   90.00000000
_cell_angle_beta   90.00000000
_cell_angle_gamma   120.32014624
_symmetry_Int_Tables_number   1
_chemical_formula_structural   YbFeC6(N3O2)2
_chemical_formula_sum   'Yb2 Fe2 C12 N12 O8'
_cell_volume   609.88260580
_cell_formula_units_Z   2
loop_
 _symmetry_equiv_pos_site_id
 _symmetry_equiv_pos_as_xyz
  1  'x, y, z'
loop_
 _atom_site_type_symbol
 _atom_site_label
 _atom_site_symmetry_multiplicity
 _atom_site_fract_x
 _atom_site_fract_y
 _atom_site_fract_z
 _atom_site_occupancy
  Yb  Yb0  1  0.66745096  0.33254904  0.25000000  1
  Yb  Yb1  1  0.33254904  0.66745096  0.75000000  1
  Fe  Fe0  1  0.00000000  0.00000000  0.00000000  1
  Fe  Fe1  1  0.00000000  0.00000000  0.50000000  1
  C  C0  1  0.87723164  0.12276836  0.08201848  1
  C  C1  1  0.12276836  0.87723164  0.91798252  1
  C  C2  1  0.12276836  0.87723164  0.58201848  1
  C  C3  1  0.87723164  0.12276836  0.41798252  1
  C  C4  1  0.87644209  0.75563671  0.08384063  1
  C  C5  1  0.12355791  0.24436329  0.91615937  1
  C  C6  1  0.12355791  0.24436329  0.58384063  1
  C  C7  1  0.24436329  0.12355791  0.41615937  1
  C  C8  1  0.87644209  0.75563671  0.41615937  1
  C  C9  1  0.75563671  0.87644209  0.58384063  1
  C  C10  1  0.75563671  0.87644209  0.91615937  1
  C  C11  1  0.24436329  0.12355791  0.08384063  1
  N  N0  1  0.80271154  0.60976199  0.13785107  1
  N  N1  1  0.19728846  0.39023801  0.86214893  1
  N  N2  1  0.19728846  0.39023801  0.63785107  1
  N  N3  1  0.39023801  0.19728846  0.36214893  1
  N  N4  1  0.80271154  0.60976199  0.36214893  1
  N  N5  1  0.60976199  0.80271154  0.63785107  1
  N  N6  1  0.60976199  0.80271154  0.86214893  1
  N  N7  1  0.39023801  0.19728846  0.13785107  1
  N  N8  1  0.80421194  0.19578806  0.13556810  1
  N  N9  1  0.19578806  0.80421194  0.86443190  1
  N  N10  1  0.19578806  0.80421194  0.63556810  1
  N  N11  1  0.80421194  0.19578806  0.36443190  1
  O  O0  1  0.16398907  0.56066854  0.25000000  1
  O  O1  1  0.83601093  0.43933146  0.75000000  1
  O  O2  1  0.43933146  0.83601093  0.25000000  1
  O  O3  1  0.56066854  0.16398907  0.75000000  1
  O  O4  1  0.32806966  0.67193034  0.17156654  1
  O  O5  1  0.67193034  0.32806966  0.82843346  1
  O  O6  1  0.67193034  0.32806966  0.67156654  1
  O  O7  1  0.32806966  0.67193034  0.32843346  1
loop_
_geom_bond_atom_site_label_1
_geom_bond_atom_site_label_2
_geom_bond_distance
_geom_bond_site_symmetry_2
C0 N8 1.164607 1_555
C0 Fe0 1.898208 1_655
C1 N9 1.164615 1_555
C1 Fe0 1.898200 1_566
C2 N10 1.164607 1_555
C2 Fe1 1.898208 1_565
C3 N11 1.164615 1_555
C3 Fe1 1.898200 1_655
C4 N0 1.163694 1_555
C4 Fe0 1.899066 1_665
C5 N1 1.163694 1_555
C5 Fe0 1.899066 1_556
C6 N2 1.163694 1_555
C6 Fe1 1.899066 1_555
C7 N3 1.163694 1_555
C7 Fe1 1.899066 1_555
C8 N4 1.163694 1_555
C8 Fe1 1.899066 1_665
C9 N5 1.163694 1_555
C9 Fe1 1.899066 1_665
C10 N6 1.163694 1_555
C10 Fe0 1.899066 1_666
C11 N7 1.163694 1_555
C11 Fe0 1.899066 1_555
N0 Yb0 2.287683 1_555
N1 Yb1 2.287683 1_555
N2 Yb1 2.287683 1_555
N3 Yb0 2.287683 1_555
N4 Yb0 2.287683 1_555
N5 Yb1 2.287683 1_555
N6 Yb1 2.287683 1_555
N7 Yb0 2.287683 1_555
N8 Yb0 2.294746 1_555
N9 Yb1 2.294746 1_555
N10 Yb1 2.294746 1_555
N11 Yb0 2.294746 1_555
O0 O7 1.472875 1_555
O0 O4 1.472875 1_555
O1 O5 1.472875 1_555
O1 O6 1.472875 1_555
O2 O7 1.472875 1_555
O2 O4 1.472875 1_555
O3 O5 1.472875 1_555
O3 O6 1.472875 1_555
