# generated using pymatgen
data_Ca3(Ru2O7)2
_symmetry_space_group_name_H-M   'P 1'
_cell_length_a   7.25460524
_cell_length_b   7.25460524
_cell_length_c   7.25460538
_cell_angle_alpha   60.19615860
_cell_angle_beta   60.19615860
_cell_angle_gamma   60.19615823
_symmetry_Int_Tables_number   1
_chemical_formula_structural   Ca3(Ru2O7)2
_chemical_formula_sum   'Ca3 Ru4 O14'
_cell_volume   271.17595243
_cell_formula_units_Z   1
loop_
 _symmetry_equiv_pos_site_id
 _symmetry_equiv_pos_as_xyz
  1  'x, y, z'
loop_
 _atom_site_type_symbol
 _atom_site_label
 _atom_site_symmetry_multiplicity
 _atom_site_fract_x
 _atom_site_fract_y
 _atom_site_fract_z
 _atom_site_occupancy
  Ca  Ca0  1  0.00000000  0.50000000  0.50000000  1
  Ca  Ca1  1  0.50000000  0.50000000  0.00000000  1
  Ca  Ca2  1  0.50000000  0.00000000  0.50000000  1
  Ru  Ru0  1  0.00000000  0.00000000  0.00000000  1
  Ru  Ru1  1  0.50000000  0.00000000  0.00000000  1
  Ru  Ru2  1  0.00000000  0.00000000  0.50000000  1
  Ru  Ru3  1  0.00000000  0.50000000  0.00000000  1
  O  O0  1  0.94217000  0.31359700  0.31359700  1
  O  O1  1  0.31908000  0.93014000  0.93014000  1
  O  O2  1  0.31359700  0.31359700  0.94217000  1
  O  O3  1  0.93014000  0.93014000  0.31908000  1
  O  O4  1  0.93014000  0.31908000  0.93014000  1
  O  O5  1  0.31359700  0.94217000  0.31359700  1
  O  O6  1  0.05783000  0.68640300  0.68640300  1
  O  O7  1  0.68092000  0.06986000  0.06986000  1
  O  O8  1  0.68640300  0.68640300  0.05783000  1
  O  O9  1  0.06986000  0.06986000  0.68092000  1
  O  O10  1  0.06986000  0.68092000  0.06986000  1
  O  O11  1  0.68640300  0.05783000  0.68640300  1
  O  O12  1  0.37006200  0.37006200  0.37006200  1
  O  O13  1  0.62993800  0.62993800  0.62993800  1
loop_
_geom_bond_atom_site_label_1
_geom_bond_atom_site_label_2
_geom_bond_distance
_geom_bond_site_symmetry_2
Ca0 O12 2.199210 1_555
Ca0 O13 2.199210 1_455
Ca0 O9 2.595149 1_555
Ca0 O3 2.595149 1_455
Ca0 O10 2.595149 1_555
Ca0 O4 2.595149 1_455
Ca0 O6 2.603663 1_555
Ca0 O0 2.603663 1_455
Ca1 O12 2.199210 1_555
Ca1 O13 2.199210 1_554
Ca1 O7 2.595149 1_555
Ca1 O10 2.595149 1_555
Ca1 O1 2.595149 1_554
Ca1 O4 2.595149 1_554
Ca1 O8 2.603663 1_555
Ca1 O2 2.603663 1_554
Ca2 O12 2.199210 1_555
Ca2 O13 2.199210 1_545
Ca2 O9 2.595149 1_555
Ca2 O3 2.595149 1_545
Ca2 O7 2.595149 1_555
Ca2 O1 2.595149 1_545
Ca2 O11 2.603663 1_555
Ca2 O5 2.603663 1_545
O0 Ru2 1.933227 1_655
O0 Ru3 1.933227 1_655
O1 Ru0 1.948062 1_566
O1 Ru1 1.952991 1_566
O2 Ru3 1.933227 1_556
O2 Ru1 1.933227 1_556
O3 Ru0 1.948062 1_665
O3 Ru2 1.952991 1_665
O4 Ru0 1.948062 1_656
O4 Ru3 1.952991 1_656
O5 Ru2 1.933227 1_565
O5 Ru1 1.933227 1_565
O6 Ru2 1.933227 1_565
O6 Ru3 1.933227 1_556
O7 Ru0 1.948062 1_655
O7 Ru1 1.952991 1_555
O8 Ru1 1.933227 1_565
O8 Ru3 1.933227 1_655
O9 Ru0 1.948062 1_556
O9 Ru2 1.952991 1_555
O10 Ru0 1.948062 1_565
O10 Ru3 1.952991 1_555
O11 Ru2 1.933227 1_655
O11 Ru1 1.933227 1_556
