# generated using pymatgen
data_Dy2Ga3Fe14
_symmetry_space_group_name_H-M   'P 1'
_cell_length_a   8.27204400
_cell_length_b   8.56311794
_cell_length_c   8.56311794
_cell_angle_alpha   120.08115334
_cell_angle_beta   90.00000000
_cell_angle_gamma   90.00000000
_symmetry_Int_Tables_number   1
_chemical_formula_structural   Dy2Ga3Fe14
_chemical_formula_sum   'Dy4 Ga6 Fe28'
_cell_volume   524.86980786
_cell_formula_units_Z   2
loop_
 _symmetry_equiv_pos_site_id
 _symmetry_equiv_pos_as_xyz
  1  'x, y, z'
loop_
 _atom_site_type_symbol
 _atom_site_label
 _atom_site_symmetry_multiplicity
 _atom_site_fract_x
 _atom_site_fract_y
 _atom_site_fract_z
 _atom_site_occupancy
  Dy  Dy0  1  0.75000000  0.00002100  0.99997900  1
  Dy  Dy1  1  0.25000000  0.99997900  0.00002100  1
  Dy  Dy2  1  0.25000000  0.66681500  0.33318500  1
  Dy  Dy3  1  0.75000000  0.33318500  0.66681500  1
  Ga  Ga0  1  0.50000000  0.50000000  0.00000000  1
  Ga  Ga1  1  0.50000000  0.50000000  0.50000000  1
  Ga  Ga2  1  0.50000000  0.00000000  0.50000000  1
  Ga  Ga3  1  0.00000000  0.50000000  0.00000000  1
  Ga  Ga4  1  0.00000000  0.50000000  0.50000000  1
  Ga  Ga5  1  0.00000000  0.00000000  0.50000000  1
  Fe  Fe0  1  0.61165200  0.66675100  0.33324900  1
  Fe  Fe1  1  0.38834800  0.33324900  0.66675100  1
  Fe  Fe2  1  0.11165200  0.33324900  0.66675100  1
  Fe  Fe3  1  0.88834800  0.66675100  0.33324900  1
  Fe  Fe4  1  0.75000000  0.67669500  0.02936900  1
  Fe  Fe5  1  0.75000000  0.35259800  0.32332300  1
  Fe  Fe6  1  0.75000000  0.97067400  0.64741700  1
  Fe  Fe7  1  0.75000000  0.35258300  0.02932600  1
  Fe  Fe8  1  0.75000000  0.97063100  0.32330500  1
  Fe  Fe9  1  0.75000000  0.67667700  0.64740200  1
  Fe  Fe10  1  0.25000000  0.32330500  0.97063100  1
  Fe  Fe11  1  0.25000000  0.64740200  0.67667700  1
  Fe  Fe12  1  0.25000000  0.02932600  0.35258300  1
  Fe  Fe13  1  0.25000000  0.64741700  0.97067400  1
  Fe  Fe14  1  0.25000000  0.02936900  0.67669500  1
  Fe  Fe15  1  0.25000000  0.32332300  0.35259800  1
  Fe  Fe16  1  0.49127900  0.83450000  0.66878000  1
  Fe  Fe17  1  0.49116200  0.83452600  0.16547400  1
  Fe  Fe18  1  0.49127900  0.33122000  0.16550000  1
  Fe  Fe19  1  0.50872100  0.16550000  0.33122000  1
  Fe  Fe20  1  0.50883800  0.16547400  0.83452600  1
  Fe  Fe21  1  0.50872100  0.66878000  0.83450000  1
  Fe  Fe22  1  0.99127900  0.16550000  0.33122000  1
  Fe  Fe23  1  0.99116200  0.16547400  0.83452600  1
  Fe  Fe24  1  0.99127900  0.66878000  0.83450000  1
  Fe  Fe25  1  0.00872100  0.83450000  0.66878000  1
  Fe  Fe26  1  0.00883800  0.83452600  0.16547400  1
  Fe  Fe27  1  0.00872100  0.33122000  0.16550000  1
loop_
_geom_bond_atom_site_label_1
_geom_bond_atom_site_label_2
_geom_bond_distance
_geom_bond_site_symmetry_2
Dy0 Fe9 2.898570 1_545
Dy0 Fe5 2.898570 1_556
Dy0 Fe6 2.901232 1_545
Dy0 Fe7 2.901232 1_556
Dy0 Fe4 2.903002 1_546
Dy0 Fe8 2.903002 1_546
Dy0 Fe20 3.163301 1_555
Dy0 Fe23 3.163301 1_555
Dy0 Fe21 3.163504 1_545
Dy0 Fe24 3.163504 1_545
Dy0 Fe19 3.163504 1_556
Dy0 Fe22 3.163504 1_556
Dy0 Fe25 3.256221 1_645
Dy0 Fe16 3.256221 1_545
Dy0 Fe18 3.256221 1_556
Dy0 Fe27 3.256221 1_656
Dy0 Fe26 3.257957 1_646
Dy0 Fe17 3.257957 1_546
Dy1 Fe11 2.898570 1_554
Dy1 Fe15 2.898570 1_565
Dy1 Fe13 2.901232 1_554
Dy1 Fe12 2.901232 1_565
Dy1 Fe14 2.903002 1_564
Dy1 Fe10 2.903002 1_564
Dy1 Fe17 3.163301 1_555
Dy1 Fe26 3.163301 1_555
Dy1 Fe25 3.163504 1_554
Dy1 Fe16 3.163504 1_554
Dy1 Fe27 3.163504 1_565
Dy1 Fe18 3.163504 1_565
Dy1 Fe24 3.256221 1_454
Dy1 Fe21 3.256221 1_554
Dy1 Fe22 3.256221 1_465
Dy1 Fe19 3.256221 1_565
Dy1 Fe23 3.257957 1_464
Dy1 Fe20 3.257957 1_564
Dy2 Fe3 2.991601 1_455
Dy2 Fe0 2.991601 1_555
Dy2 Fe14 3.022650 1_565
Dy2 Fe10 3.022650 1_554
Dy2 Fe13 3.024385 1_554
Dy2 Fe12 3.024385 1_565
Dy2 Fe11 3.028103 1_555
Dy2 Fe15 3.028103 1_555
Dy2 Fe27 3.188599 1_555
Dy2 Fe25 3.188599 1_555
Dy2 Fe18 3.188599 1_555
Dy2 Fe16 3.188599 1_555
Dy2 Fe17 3.189372 1_555
Dy2 Fe26 3.189372 1_555
Dy2 Ga5 3.220532 1_565
Dy2 Ga2 3.220532 1_565
Dy2 Ga0 3.220532 1_555
Dy2 Ga3 3.220532 1_555
Dy2 Ga4 3.225389 1_555
Dy2 Ga1 3.225389 1_555
Dy3 Fe1 2.991601 1_555
Dy3 Fe2 2.991601 1_655
Dy3 Fe4 3.022650 1_556
Dy3 Fe8 3.022650 1_545
Dy3 Fe7 3.024385 1_556
Dy3 Fe6 3.024385 1_545
Dy3 Fe9 3.028103 1_555
Dy3 Fe5 3.028103 1_555
Dy3 Fe24 3.188599 1_555
Dy3 Fe21 3.188599 1_555
Dy3 Fe22 3.188599 1_555
Dy3 Fe19 3.188599 1_555
Dy3 Fe20 3.189372 1_555
Dy3 Fe23 3.189372 1_555
Dy3 Ga3 3.220532 1_656
Dy3 Ga0 3.220532 1_556
Dy3 Ga5 3.220532 1_655
Dy3 Ga2 3.220532 1_555
Dy3 Ga1 3.225389 1_555
Dy3 Ga4 3.225389 1_655
Fe0 Fe3 2.288841 1_555
Fe0 Ga2 2.636384 1_565
Fe0 Ga0 2.636384 1_555
Fe0 Ga1 2.640982 1_555
Fe0 Fe18 2.678205 1_555
Fe0 Fe16 2.678205 1_555
Fe0 Fe17 2.681528 1_555
Fe0 Fe7 2.881267 1_555
Fe0 Fe6 2.881267 1_555
Fe0 Fe4 2.882761 1_555
Fe0 Fe8 2.882761 1_555
Fe0 Fe5 2.885222 1_555
Fe0 Fe9 2.885222 1_555
Fe1 Fe2 2.288841 1_555
Fe1 Ga2 2.636384 1_555
Fe1 Ga0 2.636384 1_556
Fe1 Ga1 2.640982 1_555
Fe1 Fe19 2.678205 1_555
Fe1 Fe21 2.678205 1_555
Fe1 Fe20 2.681528 1_555
Fe1 Fe12 2.881267 1_555
Fe1 Fe13 2.881267 1_555
Fe1 Fe10 2.882761 1_555
Fe1 Fe14 2.882761 1_555
Fe1 Fe15 2.885222 1_555
Fe1 Fe11 2.885222 1_555
Fe2 Ga5 2.636384 1_555
Fe2 Ga3 2.636384 1_556
Fe2 Ga4 2.640982 1_555
Fe2 Fe22 2.678205 1_455
Fe2 Fe24 2.678205 1_455
Fe2 Fe23 2.681528 1_455
Fe3 Ga3 2.636384 1_655
Fe3 Ga5 2.636384 1_665
Fe3 Ga4 2.640982 1_655
Fe3 Fe7 2.881267 1_555
Fe3 Fe6 2.881267 1_555
Fe3 Fe4 2.882761 1_555
Fe3 Fe8 2.882761 1_555
Fe3 Fe5 2.885222 1_555
Fe3 Fe9 2.885222 1_555
Fe4 Ga3 2.499563 1_655
Fe4 Ga0 2.499563 1_555
Fe4 Fe8 2.513921 1_555
Fe4 Fe7 2.775225 1_555
Fe5 Ga4 2.498890 1_655
Fe5 Ga1 2.498890 1_555
Fe5 Fe7 2.517467 1_555
Fe5 Fe9 2.771722 1_555
Fe6 Ga5 2.500208 1_665
Fe6 Ga2 2.500208 1_565
Fe6 Fe9 2.517467 1_555
Fe6 Fe8 2.775225 1_555
Fe7 Ga0 2.500208 1_555
Fe7 Ga3 2.500208 1_655
Fe8 Ga2 2.499563 1_565
Fe8 Ga5 2.499563 1_665
Fe9 Ga4 2.498890 1_655
Fe9 Ga1 2.498890 1_555
Fe10 Fe23 2.488036 1_455
Fe10 Fe20 2.488036 1_555
Fe10 Ga3 2.499563 1_556
Fe10 Ga0 2.499563 1_556
Fe10 Fe14 2.513921 1_555
Fe10 Fe27 2.580548 1_556
Fe10 Fe18 2.580548 1_556
Fe10 Fe13 2.775225 1_555
Fe10 Fe2 2.882761 1_555
Fe11 Fe21 2.488411 1_555
Fe11 Fe24 2.488411 1_455
Fe11 Ga4 2.498890 1_555
Fe11 Ga1 2.498890 1_555
Fe11 Fe13 2.517467 1_555
Fe11 Fe25 2.581383 1_555
Fe11 Fe16 2.581383 1_555
Fe11 Fe15 2.771722 1_555
Fe11 Fe2 2.885222 1_555
Fe12 Fe19 2.487424 1_555
Fe12 Fe22 2.487424 1_455
Fe12 Ga5 2.500208 1_555
Fe12 Ga2 2.500208 1_555
Fe12 Fe15 2.517467 1_555
Fe12 Fe17 2.578779 1_545
Fe12 Fe26 2.578779 1_545
Fe12 Fe14 2.775225 1_555
Fe12 Fe2 2.881267 1_555
Fe13 Fe21 2.487424 1_555
Fe13 Fe24 2.487424 1_455
Fe13 Ga3 2.500208 1_556
Fe13 Ga0 2.500208 1_556
Fe13 Fe26 2.578779 1_556
Fe13 Fe17 2.578779 1_556
Fe13 Fe2 2.881267 1_555
Fe14 Fe23 2.488036 1_455
Fe14 Fe20 2.488036 1_555
Fe14 Ga2 2.499563 1_555
Fe14 Ga5 2.499563 1_555
Fe14 Fe16 2.580548 1_545
Fe14 Fe25 2.580548 1_545
Fe14 Fe2 2.882761 1_555
Fe15 Fe22 2.488411 1_455
Fe15 Fe19 2.488411 1_555
Fe15 Ga4 2.498890 1_555
Fe15 Ga1 2.498890 1_555
Fe15 Fe18 2.581383 1_555
Fe15 Fe27 2.581383 1_555
Fe15 Fe2 2.885222 1_555
Fe16 Fe20 2.456751 1_565
Fe16 Fe21 2.463152 1_555
Fe16 Ga1 2.479648 1_555
Fe16 Ga2 2.481081 1_565
Fe16 Fe6 2.487424 1_555
Fe16 Fe9 2.488411 1_555
Fe17 Fe21 2.456751 1_554
Fe17 Fe19 2.456751 1_565
Fe17 Ga2 2.479922 1_565
Fe17 Ga0 2.479922 1_555
Fe17 Fe4 2.488036 1_555
Fe17 Fe8 2.488036 1_555
Fe18 Fe20 2.456751 1_554
Fe18 Fe19 2.463152 1_555
Fe18 Ga1 2.479648 1_555
Fe18 Ga0 2.481081 1_555
Fe18 Fe7 2.487424 1_555
Fe18 Fe5 2.488411 1_555
Fe19 Ga1 2.479648 1_555
Fe19 Ga2 2.481081 1_555
Fe19 Fe8 2.580548 1_545
Fe19 Fe5 2.581383 1_555
Fe20 Ga2 2.479922 1_555
Fe20 Ga0 2.479922 1_556
Fe20 Fe6 2.578779 1_545
Fe20 Fe7 2.578779 1_556
Fe21 Ga1 2.479648 1_555
Fe21 Ga0 2.481081 1_556
Fe21 Fe4 2.580548 1_556
Fe21 Fe9 2.581383 1_555
Fe22 Fe26 2.456751 1_645
Fe22 Fe27 2.463152 1_655
Fe22 Ga4 2.479648 1_655
Fe22 Ga5 2.481081 1_655
Fe22 Fe8 2.580548 1_545
Fe22 Fe5 2.581383 1_555
Fe23 Fe25 2.456751 1_645
Fe23 Fe27 2.456751 1_656
Fe23 Ga5 2.479922 1_655
Fe23 Ga3 2.479922 1_656
Fe23 Fe7 2.578779 1_556
Fe23 Fe6 2.578779 1_545
Fe24 Fe26 2.456751 1_656
Fe24 Fe25 2.463152 1_655
Fe24 Ga4 2.479648 1_655
Fe24 Ga3 2.481081 1_656
Fe24 Fe4 2.580548 1_556
Fe24 Fe9 2.581383 1_555
Fe25 Ga4 2.479648 1_555
Fe25 Ga5 2.481081 1_565
Fe25 Fe6 2.487424 1_455
Fe25 Fe9 2.488411 1_455
Fe25 Fe3 2.678205 1_455
Fe26 Ga3 2.479922 1_555
Fe26 Ga5 2.479922 1_565
Fe26 Fe4 2.488036 1_455
Fe26 Fe8 2.488036 1_455
Fe26 Fe3 2.681528 1_455
Fe27 Ga4 2.479648 1_555
Fe27 Ga3 2.481081 1_555
Fe27 Fe7 2.487424 1_455
Fe27 Fe5 2.488411 1_455
Fe27 Fe3 2.678205 1_455
