# generated using pymatgen
data_Ca5(SnN3)2
_symmetry_space_group_name_H-M   'P 1'
_cell_length_a   6.28221222
_cell_length_b   6.02494695
_cell_length_c   13.96361870
_cell_angle_alpha   90.00000198
_cell_angle_beta   94.42265058
_cell_angle_gamma   118.65433268
_symmetry_Int_Tables_number   1
_chemical_formula_structural   Ca5(SnN3)2
_chemical_formula_sum   'Ca10 Sn4 N12'
_cell_volume   461.99978668
_cell_formula_units_Z   2
loop_
 _symmetry_equiv_pos_site_id
 _symmetry_equiv_pos_as_xyz
  1  'x, y, z'
loop_
 _atom_site_type_symbol
 _atom_site_label
 _atom_site_symmetry_multiplicity
 _atom_site_fract_x
 _atom_site_fract_y
 _atom_site_fract_z
 _atom_site_occupancy
  Ca  Ca0  1  0.19638400  0.84751516  0.02964122  1
  Ca  Ca1  1  0.80361600  0.65113116  0.47035878  1
  Ca  Ca2  1  0.80361600  0.15248484  0.97035878  1
  Ca  Ca3  1  0.19638400  0.34886884  0.52964122  1
  Ca  Ca4  1  0.29344009  0.05599841  0.71577347  1
  Ca  Ca5  1  0.70655991  0.76255932  0.78422653  1
  Ca  Ca6  1  0.70655991  0.94400159  0.28422653  1
  Ca  Ca7  1  0.29344009  0.23744068  0.21577347  1
  Ca  Ca8  1  0.00000000  0.37900988  0.75000000  1
  Ca  Ca9  1  -0.00000000  0.62099012  0.25000000  1
  Sn  Sn0  1  0.58632574  0.92915187  0.58694124  1
  Sn  Sn1  1  0.41367426  0.34282614  0.91305876  1
  Sn  Sn2  1  0.41367426  0.07084813  0.41305876  1
  Sn  Sn3  1  0.58632574  0.65717386  0.08694124  1
  N  N0  1  0.93536124  0.02690076  0.63589288  1
  N  N1  1  0.06463876  0.09153952  0.86410712  1
  N  N2  1  0.06463876  0.97309924  0.36410712  1
  N  N3  1  0.93536124  0.90846048  0.13589288  1
  N  N4  1  0.32965435  0.68157032  0.67513955  1
  N  N5  1  0.67034565  0.35191597  0.82486045  1
  N  N6  1  0.67034565  0.31842968  0.32486045  1
  N  N7  1  0.32965435  0.64808403  0.17513955  1
  N  N8  1  0.51857724  0.24331790  0.55592859  1
  N  N9  1  0.48142276  0.72474066  0.94407141  1
  N  N10  1  0.48142276  0.75668210  0.44407141  1
  N  N11  1  0.51857724  0.27525934  0.05592859  1
loop_
_geom_bond_atom_site_label_1
_geom_bond_atom_site_label_2
_geom_bond_distance
_geom_bond_site_symmetry_2
Ca0 N11 2.399162 1_565
Ca0 N3 2.444933 1_455
Ca0 N9 2.604171 1_554
Ca0 N7 2.641003 1_555
Ca0 N1 3.010213 1_564
Ca1 N10 2.399162 1_555
Ca1 N2 2.444933 1_655
Ca1 N8 2.604171 1_555
Ca1 N6 2.641003 1_555
Ca1 N0 3.010213 1_565
Ca2 N9 2.399162 1_545
Ca2 N1 2.444933 1_655
Ca2 N11 2.604171 1_556
Ca2 N5 2.641003 1_555
Ca2 N3 3.010213 1_546
Ca3 N8 2.399162 1_555
Ca3 N0 2.444933 1_455
Ca3 N10 2.604171 1_555
Ca3 N4 2.641003 1_555
Ca3 N2 3.010213 1_545
Ca4 N0 2.360101 1_455
Ca4 N4 2.444371 1_545
Ca4 N5 2.549619 1_555
Ca4 N1 2.675152 1_555
Ca4 N8 2.685520 1_555
Ca5 N1 2.360098 1_665
Ca5 N5 2.444377 1_555
Ca5 N4 2.549617 1_555
Ca5 N0 2.675150 1_565
Ca5 N9 2.685519 1_555
Ca6 N2 2.360101 1_655
Ca6 N6 2.444371 1_565
Ca6 N7 2.549619 1_555
Ca6 N3 2.675152 1_555
Ca6 N10 2.685520 1_555
Ca7 N3 2.360098 1_445
Ca7 N7 2.444377 1_555
Ca7 N6 2.549617 1_555
Ca7 N2 2.675150 1_545
Ca7 N11 2.685519 1_555
Ca8 N5 2.327632 1_455
Ca8 N4 2.327632 1_555
Ca8 N0 2.505631 1_455
Ca8 N1 2.505631 1_555
Ca9 N7 2.327632 1_555
Ca9 N6 2.327632 1_455
Ca9 N2 2.505631 1_555
Ca9 N3 2.505631 1_455
N0 Sn0 2.037753 1_545
N1 Sn1 2.037753 1_555
N2 Sn2 2.037753 1_565
N3 Sn3 2.037753 1_555
N4 Sn0 2.083598 1_555
N5 Sn1 2.083598 1_555
N6 Sn2 2.083598 1_555
N7 Sn3 2.083598 1_555
N8 Sn2 2.152789 1_555
N8 Sn0 2.166954 1_545
N9 Sn3 2.152789 1_556
N9 Sn1 2.166954 1_555
N10 Sn0 2.152789 1_555
N10 Sn2 2.166954 1_565
N11 Sn1 2.152789 1_554
N11 Sn3 2.166954 1_555
