# generated using pymatgen
data_Mg5Si6
_symmetry_space_group_name_H-M   'P 1'
_cell_length_a   5.48001000
_cell_length_b   5.73833966
_cell_length_c   12.76981356
_cell_angle_alpha   89.79909832
_cell_angle_beta   88.47218887
_cell_angle_gamma   87.76413081
_symmetry_Int_Tables_number   1
_chemical_formula_structural   Mg5Si6
_chemical_formula_sum   'Mg10 Si12'
_cell_volume   401.11200235
_cell_formula_units_Z   2
loop_
 _symmetry_equiv_pos_site_id
 _symmetry_equiv_pos_as_xyz
  1  'x, y, z'
loop_
 _atom_site_type_symbol
 _atom_site_label
 _atom_site_symmetry_multiplicity
 _atom_site_fract_x
 _atom_site_fract_y
 _atom_site_fract_z
 _atom_site_occupancy
  Mg  Mg0  1  0.78038400  0.84806900  0.05109300  1
  Mg  Mg1  1  0.77277800  0.34340300  0.44939200  1
  Mg  Mg2  1  0.56102200  0.09411300  0.64989600  1
  Mg  Mg3  1  0.27838200  0.07997700  0.42324500  1
  Mg  Mg4  1  0.26376800  0.10121000  0.07461400  1
  Mg  Mg5  1  0.41458200  0.76646500  0.84741200  1
  Mg  Mg6  1  0.05514400  0.85035000  0.61825700  1
  Mg  Mg7  1  0.24964900  0.57952200  0.38721000  1
  Mg  Mg8  1  0.30823700  0.59812300  0.11560200  1
  Mg  Mg9  1  0.61056700  0.25116700  0.88677100  1
  Si  Si0  1  0.09377700  0.46849100  0.92738300  1
  Si  Si1  1  0.79974200  0.35539300  0.07465900  1
  Si  Si2  1  0.78076900  0.84715600  0.43743600  1
  Si  Si3  1  0.47767800  0.61256700  0.58518000  1
  Si  Si4  1  0.90636800  0.82373800  0.83381100  1
  Si  Si5  1  0.00746600  0.88651100  0.25080500  1
  Si  Si6  1  0.53705600  0.28893900  0.25288000  1
  Si  Si7  1  0.77484900  0.51509100  0.71641500  1
  Si  Si8  1  0.14976300  0.17173200  0.79184400  1
  Si  Si9  1  0.98751200  0.31943000  0.24800400  1
  Si  Si10  1  0.57134300  0.85943500  0.26285000  1
  Si  Si11  1  0.11916500  0.33911600  0.61161100  1
loop_
_geom_bond_atom_site_label_1
_geom_bond_atom_site_label_2
_geom_bond_distance
_geom_bond_site_symmetry_2
Mg0 Si1 2.840226 1_555
Mg0 Si4 2.843918 1_554
Mg0 Si5 2.880238 1_655
Mg0 Si10 2.908419 1_555
Mg0 Si1 2.934080 1_565
Mg0 Si0 3.126816 1_654
Mg1 Si3 2.771624 1_555
Mg1 Si9 2.801019 1_555
Mg1 Si11 2.846156 1_655
Mg1 Si2 2.850826 1_545
Mg1 Si6 2.876347 1_555
Mg1 Si2 2.896176 1_555
Mg1 Mg3 3.114607 1_655
Mg1 Mg3 3.179326 1_555
Mg2 Si11 2.805596 1_555
Mg2 Si7 2.866811 1_555
Mg2 Si8 2.876241 1_555
Mg2 Si3 2.943103 1_545
Mg2 Si3 3.104743 1_555
Mg2 Si2 3.246342 1_545
Mg2 Mg3 3.321595 1_555
Mg3 Si10 2.838748 1_545
Mg3 Si6 2.851324 1_555
Mg3 Mg7 2.900534 1_555
Mg3 Mg7 2.920972 1_545
Mg3 Si11 2.927525 1_555
Mg3 Si5 2.933528 1_545
Mg3 Si2 3.022440 1_545
Mg3 Mg6 3.061796 1_545
Mg3 Si9 3.071525 1_455
Mg3 Si2 3.083842 1_445
Mg4 Si1 2.881698 1_455
Mg4 Si9 2.907780 1_455
Mg4 Si5 2.915446 1_545
Mg4 Si0 2.959212 1_554
Mg4 Si6 2.985016 1_555
Mg5 Si0 2.680250 1_555
Mg5 Si4 2.728536 1_555
Mg5 Si8 2.792449 1_565
Mg5 Si4 2.801513 1_455
Mg5 Si7 2.897471 1_555
Mg6 Si3 2.665911 1_555
Mg6 Si7 2.782558 1_455
Mg6 Si2 2.789333 1_455
Mg6 Si11 2.840806 1_565
Mg6 Si4 2.855143 1_455
Mg6 Si11 2.942168 1_555
Mg6 Si8 2.957725 1_565
Mg7 Si9 2.788039 1_455
Mg7 Si5 2.796079 1_555
Mg7 Si6 2.806173 1_555
Mg7 Si3 2.859852 1_555
Mg7 Si10 2.874621 1_555
Mg7 Si2 2.997208 1_455
Mg8 Si6 2.777591 1_555
Mg8 Si0 2.818304 1_554
Mg8 Si5 2.844569 1_555
Mg8 Si10 2.862869 1_555
Mg8 Si9 2.923551 1_455
Mg8 Si1 3.017517 1_555
Mg9 Si1 2.716634 1_556
Mg9 Si7 2.795608 1_555
Mg9 Si8 2.882848 1_555
Mg9 Si4 2.956997 1_545
Mg9 Si0 3.028443 1_655
Mg9 Si0 3.081414 1_555
Si0 Si8 2.437477 1_555
Si0 Si1 2.542824 1_456
Si0 Si4 2.554038 1_455
Si1 Si9 2.470431 1_555
Si1 Si6 2.694286 1_555
Si2 Si5 2.671030 1_655
Si2 Si3 2.849543 1_555
Si3 Si7 2.416863 1_555
Si4 Si7 2.465670 1_555
Si4 Si8 2.493208 1_665
Si5 Si9 2.482550 1_465
Si6 Si9 2.480610 1_555
Si10 Si5 2.401854 1_655
Si10 Si6 2.467571 1_565
Si10 Si2 2.534061 1_555
Si11 Si7 2.469251 1_455
Si11 Si8 2.498058 1_555
Si11 Si3 2.576336 1_555
