# generated using pymatgen
data_Na(Nb3S4)2
_symmetry_space_group_name_H-M   'P 1'
_cell_length_a   9.65269649
_cell_length_b   9.65269649
_cell_length_c   3.42038592
_cell_angle_alpha   90.00000000
_cell_angle_beta   90.00000000
_cell_angle_gamma   120.00000282
_symmetry_Int_Tables_number   1
_chemical_formula_structural   Na(Nb3S4)2
_chemical_formula_sum   'Na1 Nb6 S8'
_cell_volume   275.99615462
_cell_formula_units_Z   1
loop_
 _symmetry_equiv_pos_site_id
 _symmetry_equiv_pos_as_xyz
  1  'x, y, z'
loop_
 _atom_site_type_symbol
 _atom_site_label
 _atom_site_symmetry_multiplicity
 _atom_site_fract_x
 _atom_site_fract_y
 _atom_site_fract_z
 _atom_site_occupancy
  Na  Na0  1  0.00000000  0.00000000  0.50000000  1
  Nb  Nb0  1  0.48669054  0.37669383  0.74968178  1
  Nb  Nb1  1  0.62330617  0.10999671  0.74968178  1
  Nb  Nb2  1  0.89000329  0.51330946  0.74968178  1
  Nb  Nb3  1  0.51330946  0.62330617  0.25031822  1
  Nb  Nb4  1  0.37669383  0.89000329  0.25031822  1
  Nb  Nb5  1  0.10999671  0.48669054  0.25031822  1
  S  S0  1  0.33333300  0.66666700  0.75017566  1
  S  S1  1  0.66666700  0.33333300  0.24982434  1
  S  S2  1  0.34098208  0.05603575  0.75081981  1
  S  S3  1  0.94396425  0.28494633  0.75081981  1
  S  S4  1  0.71505367  0.65901792  0.75081981  1
  S  S5  1  0.65901792  0.94396425  0.24918019  1
  S  S6  1  0.05603575  0.71505367  0.24918019  1
  S  S7  1  0.28494633  0.34098208  0.24918019  1
loop_
_geom_bond_atom_site_label_1
_geom_bond_atom_site_label_2
_geom_bond_distance
_geom_bond_site_symmetry_2
Na0 S4 3.175145 1_445
Na0 S7 3.175145 1_555
Na0 S5 3.175146 1_445
Na0 S2 3.175146 1_555
Na0 S6 3.175146 1_545
Na0 S3 3.175146 1_455
Nb0 S7 2.481674 1_556
Nb0 S7 2.484037 1_555
Nb0 S4 2.505695 1_555
Nb0 S1 2.616002 1_555
Nb0 S1 2.616640 1_556
Nb0 S2 2.684250 1_555
Nb1 S5 2.481674 1_546
Nb1 S5 2.484037 1_545
Nb1 S2 2.505695 1_555
Nb1 S1 2.615995 1_555
Nb1 S1 2.616633 1_556
Nb1 S3 2.684250 1_555
Nb2 S6 2.481674 1_656
Nb2 S6 2.484037 1_655
Nb2 S3 2.505695 1_555
Nb2 S1 2.615998 1_555
Nb2 S1 2.616635 1_556
Nb2 S4 2.684250 1_555
Nb3 S4 2.481674 1_554
Nb3 S4 2.484037 1_555
Nb3 S7 2.505695 1_555
Nb3 S0 2.616002 1_555
Nb3 S0 2.616640 1_554
Nb3 S5 2.684250 1_555
Nb4 S2 2.481674 1_564
Nb4 S2 2.484037 1_565
Nb4 S5 2.505695 1_555
Nb4 S0 2.615995 1_555
Nb4 S0 2.616633 1_554
Nb4 S6 2.684250 1_555
Nb5 S3 2.481674 1_454
Nb5 S3 2.484037 1_455
Nb5 S6 2.505695 1_555
Nb5 S0 2.615998 1_555
Nb5 S0 2.616635 1_554
Nb5 S7 2.684250 1_555
