# generated using pymatgen
data_Pu5Ru3
_symmetry_space_group_name_H-M   'P 1'
_cell_length_a   8.16100258
_cell_length_b   8.16100258
_cell_length_c   8.16100258
_cell_angle_alpha   96.92886823
_cell_angle_beta   96.92886823
_cell_angle_gamma   139.35200971
_symmetry_Int_Tables_number   1
_chemical_formula_structural   Pu5Ru3
_chemical_formula_sum   'Pu10 Ru6'
_cell_volume   332.02365075
_cell_formula_units_Z   2
loop_
 _symmetry_equiv_pos_site_id
 _symmetry_equiv_pos_as_xyz
  1  'x, y, z'
loop_
 _atom_site_type_symbol
 _atom_site_label
 _atom_site_symmetry_multiplicity
 _atom_site_fract_x
 _atom_site_fract_y
 _atom_site_fract_z
 _atom_site_occupancy
  Pu  Pu0  1  0.71808600  0.58795600  0.30604100  1
  Pu  Pu1  1  0.28191400  0.41204400  0.69395900  1
  Pu  Pu2  1  0.58795600  0.28191400  0.86987000  1
  Pu  Pu3  1  0.41204400  0.71808600  0.13013000  1
  Pu  Pu4  1  0.08795600  0.21808600  0.30604100  1
  Pu  Pu5  1  0.78191400  0.08795600  0.86987000  1
  Pu  Pu6  1  0.21808600  0.91204400  0.13013000  1
  Pu  Pu7  1  0.91204400  0.78191400  0.69395900  1
  Pu  Pu8  1  0.75000000  0.25000000  0.50000000  1
  Pu  Pu9  1  0.25000000  0.75000000  0.50000000  1
  Ru  Ru0  1  0.14722200  0.64722200  0.79444300  1
  Ru  Ru1  1  0.35277900  0.14722200  0.50000000  1
  Ru  Ru2  1  0.64722200  0.85277900  0.50000000  1
  Ru  Ru3  1  0.85277900  0.35277900  0.20555700  1
  Ru  Ru4  1  0.75000000  0.75000000  0.00000000  1
  Ru  Ru5  1  0.25000000  0.25000000  0.00000000  1
loop_
_geom_bond_atom_site_label_1
_geom_bond_atom_site_label_2
_geom_bond_distance
_geom_bond_site_symmetry_2
Pu0 Ru4 2.913057 1_555
Pu0 Ru5 2.913060 1_555
Pu0 Ru3 2.933187 1_555
Pu0 Ru2 2.966986 1_555
Pu0 Ru1 3.251334 1_555
Pu0 Ru1 3.251334 1_665
Pu1 Ru5 2.913057 1_556
Pu1 Ru4 2.913060 1_556
Pu1 Ru0 2.933187 1_555
Pu1 Ru1 2.966986 1_555
Pu1 Ru2 3.251329 1_445
Pu1 Ru2 3.251339 1_555
Pu2 Ru5 2.913065 1_556
Pu2 Ru4 2.913065 1_556
Pu2 Ru1 2.933189 1_555
Pu2 Ru3 2.966983 1_556
Pu2 Ru0 3.251328 1_545
Pu2 Ru0 3.251333 1_655
Pu3 Ru5 2.913065 1_555
Pu3 Ru4 2.913065 1_555
Pu3 Ru2 2.933189 1_555
Pu3 Ru0 2.966983 1_554
Pu3 Ru3 3.251328 1_455
Pu3 Ru3 3.251333 1_565
Pu4 Ru5 2.913057 1_555
Pu4 Ru4 2.913060 1_445
Pu4 Ru3 2.933187 1_455
Pu4 Ru1 2.966986 1_555
Pu4 Ru2 3.251334 1_445
Pu4 Ru2 3.251334 1_555
Pu5 Ru4 2.913065 1_546
Pu5 Ru5 2.913065 1_656
Pu5 Ru2 2.933189 1_545
Pu5 Ru3 2.966983 1_556
Pu5 Ru0 3.251328 1_545
Pu5 Ru0 3.251333 1_655
Pu6 Ru5 2.913065 1_565
Pu6 Ru4 2.913065 1_455
Pu6 Ru1 2.933189 1_565
Pu6 Ru0 2.966983 1_554
Pu6 Ru3 3.251328 1_455
Pu6 Ru3 3.251333 1_565
Pu7 Ru4 2.913057 1_556
Pu7 Ru5 2.913060 1_666
Pu7 Ru0 2.933187 1_655
Pu7 Ru2 2.966986 1_555
Pu7 Ru1 3.251329 1_555
Pu7 Ru1 3.251339 1_665
Pu8 Ru1 2.662001 1_555
Pu8 Ru2 2.662001 1_545
Pu8 Ru0 2.662004 1_655
Pu8 Ru3 2.662004 1_555
Pu9 Ru3 2.662001 1_455
Pu9 Ru0 2.662001 1_555
Pu9 Ru1 2.662004 1_565
Pu9 Ru2 2.662004 1_555
