# generated using pymatgen
data_Li3CeGa8
_symmetry_space_group_name_H-M   'P 1'
_cell_length_a   6.08826600
_cell_length_b   18.32159017
_cell_length_c   18.32159017
_cell_angle_alpha   119.99999340
_cell_angle_beta   90.00000000
_cell_angle_gamma   90.00000000
_symmetry_Int_Tables_number   1
_chemical_formula_structural   Li3CeGa8
_chemical_formula_sum   'Li24 Ce8 Ga64'
_cell_volume   1769.90765695
_cell_formula_units_Z   8
loop_
 _symmetry_equiv_pos_site_id
 _symmetry_equiv_pos_as_xyz
  1  'x, y, z'
loop_
 _atom_site_type_symbol
 _atom_site_label
 _atom_site_symmetry_multiplicity
 _atom_site_fract_x
 _atom_site_fract_y
 _atom_site_fract_z
 _atom_site_occupancy
  Li  Li0_0  1  0.00000000  0.25000000  0.25000000  1
  Li  Li0_1  1  0.00000000  0.25000000  0.75000000  1
  Li  Li0_2  1  0.00000000  0.75000000  0.25000000  1
  Li  Li0_3  1  0.00000000  0.75000000  0.75000000  1
  Li  Li0_4  1  0.50000000  0.25000000  0.25000000  1
  Li  Li0_5  1  0.50000000  0.25000000  0.75000000  1
  Li  Li0_6  1  0.50000000  0.75000000  0.25000000  1
  Li  Li0_7  1  0.50000000  0.75000000  0.75000000  1
  Li  Li1_0  1  0.00000000  0.00000000  0.25000000  1
  Li  Li1_1  1  0.00000000  0.00000000  0.75000000  1
  Li  Li1_2  1  0.00000000  0.50000000  0.25000000  1
  Li  Li1_3  1  0.00000000  0.50000000  0.75000000  1
  Li  Li1_4  1  0.50000000  0.00000000  0.25000000  1
  Li  Li1_5  1  0.50000000  0.00000000  0.75000000  1
  Li  Li1_6  1  0.50000000  0.50000000  0.25000000  1
  Li  Li1_7  1  0.50000000  0.50000000  0.75000000  1
  Li  Li2_0  1  0.00000000  0.25000000  0.00000000  1
  Li  Li2_1  1  0.00000000  0.25000000  0.50000000  1
  Li  Li2_2  1  0.00000000  0.75000000  0.00000000  1
  Li  Li2_3  1  0.00000000  0.75000000  0.50000000  1
  Li  Li2_4  1  0.50000000  0.25000000  0.00000000  1
  Li  Li2_5  1  0.50000000  0.25000000  0.50000000  1
  Li  Li2_6  1  0.50000000  0.75000000  0.00000000  1
  Li  Li2_7  1  0.50000000  0.75000000  0.50000000  1
  Ce  Ce0_0  1  0.00000000  0.00000000  0.00000000  1
  Ce  Ce0_1  1  0.00000000  0.00000000  0.50000000  1
  Ce  Ce0_2  1  0.00000000  0.50000000  0.00000000  1
  Ce  Ce0_3  1  0.00000000  0.50000000  0.50000000  1
  Ce  Ce0_4  1  0.50000000  0.00000000  0.00000000  1
  Ce  Ce0_5  1  0.50000000  0.00000000  0.50000000  1
  Ce  Ce0_6  1  0.50000000  0.50000000  0.00000000  1
  Ce  Ce0_7  1  0.50000000  0.50000000  0.50000000  1
  Ga  Ga0_0  1  0.25000000  0.33333350  0.16666650  1
  Ga  Ga0_1  1  0.25000000  0.33333350  0.66666650  1
  Ga  Ga0_2  1  0.25000000  0.83333350  0.16666650  1
  Ga  Ga0_3  1  0.25000000  0.83333350  0.66666650  1
  Ga  Ga0_4  1  0.75000000  0.33333350  0.16666650  1
  Ga  Ga0_5  1  0.75000000  0.33333350  0.66666650  1
  Ga  Ga0_6  1  0.75000000  0.83333350  0.16666650  1
  Ga  Ga0_7  1  0.75000000  0.83333350  0.66666650  1
  Ga  Ga1_0  1  0.25000000  0.16666650  0.33333350  1
  Ga  Ga1_1  1  0.25000000  0.16666650  0.83333350  1
  Ga  Ga1_2  1  0.25000000  0.66666650  0.33333350  1
  Ga  Ga1_3  1  0.25000000  0.66666650  0.83333350  1
  Ga  Ga1_4  1  0.75000000  0.16666650  0.33333350  1
  Ga  Ga1_5  1  0.75000000  0.16666650  0.83333350  1
  Ga  Ga1_6  1  0.75000000  0.66666650  0.33333350  1
  Ga  Ga1_7  1  0.75000000  0.66666650  0.83333350  1
  Ga  Ga2_0  1  0.25000000  0.41355750  0.08644250  1
  Ga  Ga2_1  1  0.25000000  0.41355750  0.58644250  1
  Ga  Ga2_2  1  0.25000000  0.91355750  0.08644250  1
  Ga  Ga2_3  1  0.25000000  0.91355750  0.58644250  1
  Ga  Ga2_4  1  0.75000000  0.41355750  0.08644250  1
  Ga  Ga2_5  1  0.75000000  0.41355750  0.58644250  1
  Ga  Ga2_6  1  0.75000000  0.91355750  0.08644250  1
  Ga  Ga2_7  1  0.75000000  0.91355750  0.58644250  1
  Ga  Ga3_0  1  0.25000000  0.08644250  0.41355750  1
  Ga  Ga3_1  1  0.25000000  0.08644250  0.91355750  1
  Ga  Ga3_2  1  0.25000000  0.58644250  0.41355750  1
  Ga  Ga3_3  1  0.25000000  0.58644250  0.91355750  1
  Ga  Ga3_4  1  0.75000000  0.08644250  0.41355750  1
  Ga  Ga3_5  1  0.75000000  0.08644250  0.91355750  1
  Ga  Ga3_6  1  0.75000000  0.58644250  0.41355750  1
  Ga  Ga3_7  1  0.75000000  0.58644250  0.91355750  1
  Ga  Ga4_0  1  0.25000000  0.17288500  0.08644250  1
  Ga  Ga4_1  1  0.25000000  0.17288500  0.58644250  1
  Ga  Ga4_2  1  0.25000000  0.67288500  0.08644250  1
  Ga  Ga4_3  1  0.25000000  0.67288500  0.58644250  1
  Ga  Ga4_4  1  0.75000000  0.17288500  0.08644250  1
  Ga  Ga4_5  1  0.75000000  0.17288500  0.58644250  1
  Ga  Ga4_6  1  0.75000000  0.67288500  0.08644250  1
  Ga  Ga4_7  1  0.75000000  0.67288500  0.58644250  1
  Ga  Ga5_0  1  0.25000000  0.32711500  0.41355750  1
  Ga  Ga5_1  1  0.25000000  0.32711500  0.91355750  1
  Ga  Ga5_2  1  0.25000000  0.82711500  0.41355750  1
  Ga  Ga5_3  1  0.25000000  0.82711500  0.91355750  1
  Ga  Ga5_4  1  0.75000000  0.32711500  0.41355750  1
  Ga  Ga5_5  1  0.75000000  0.32711500  0.91355750  1
  Ga  Ga5_6  1  0.75000000  0.82711500  0.41355750  1
  Ga  Ga5_7  1  0.75000000  0.82711500  0.91355750  1
  Ga  Ga6_0  1  0.25000000  0.41355750  0.32711500  1
  Ga  Ga6_1  1  0.25000000  0.41355750  0.82711500  1
  Ga  Ga6_2  1  0.25000000  0.91355750  0.32711500  1
  Ga  Ga6_3  1  0.25000000  0.91355750  0.82711500  1
  Ga  Ga6_4  1  0.75000000  0.41355750  0.32711500  1
  Ga  Ga6_5  1  0.75000000  0.41355750  0.82711500  1
  Ga  Ga6_6  1  0.75000000  0.91355750  0.32711500  1
  Ga  Ga6_7  1  0.75000000  0.91355750  0.82711500  1
  Ga  Ga7_0  1  0.25000000  0.08644250  0.17288500  1
  Ga  Ga7_1  1  0.25000000  0.08644250  0.67288500  1
  Ga  Ga7_2  1  0.25000000  0.58644250  0.17288500  1
  Ga  Ga7_3  1  0.25000000  0.58644250  0.67288500  1
  Ga  Ga7_4  1  0.75000000  0.08644250  0.17288500  1
  Ga  Ga7_5  1  0.75000000  0.08644250  0.67288500  1
  Ga  Ga7_6  1  0.75000000  0.58644250  0.17288500  1
  Ga  Ga7_7  1  0.75000000  0.58644250  0.67288500  1
loop_
_geom_bond_atom_site_label_1
_geom_bond_atom_site_label_2
_geom_bond_distance
_geom_bond_site_symmetry_2
Li0_0 Li0_4 3.044133 1_555
Li0_0 Li0_4 3.044133 1_455
Li0_1 Li0_5 3.044133 1_555
Li0_1 Li0_5 3.044133 1_455
Li0_2 Li0_6 3.044133 1_455
Li0_2 Li0_6 3.044133 1_555
Li0_3 Li0_7 3.044133 1_455
Li0_3 Li0_7 3.044133 1_555
Li1_0 Li1_4 3.044133 1_455
Li1_0 Li1_4 3.044133 1_555
Li1_1 Li1_5 3.044133 1_455
Li1_1 Li1_5 3.044133 1_555
Li1_2 Li1_6 3.044133 1_455
Li1_2 Li1_6 3.044133 1_555
Li1_3 Li1_7 3.044133 1_455
Li1_3 Li1_7 3.044133 1_555
Li2_0 Li2_4 3.044133 1_455
Li2_0 Li2_4 3.044133 1_555
Li2_1 Li2_5 3.044133 1_555
Li2_1 Li2_5 3.044133 1_455
Li2_2 Li2_6 3.044133 1_455
Li2_2 Li2_6 3.044133 1_555
Li2_3 Li2_7 3.044133 1_555
Li2_3 Li2_7 3.044133 1_455
Ce0_0 Ce0_4 3.044133 1_455
Ce0_0 Ce0_4 3.044133 1_555
Ce0_0 Ga2_6 3.137134 1_445
Ce0_0 Ga2_2 3.137134 1_545
Ce0_0 Ga3_1 3.137134 1_554
Ce0_0 Ga3_5 3.137134 1_454
Ce0_0 Ga5_3 3.137135 1_544
Ce0_0 Ga5_7 3.137135 1_444
Ce0_0 Ga7_0 3.137135 1_555
Ce0_0 Ga7_4 3.137135 1_455
Ce0_0 Ga4_0 3.137135 1_555
Ce0_0 Ga6_3 3.137135 1_544
Ce0_0 Ga6_7 3.137135 1_444
Ce0_0 Ga4_4 3.137135 1_455
Ce0_1 Ce0_5 3.044133 1_555
Ce0_1 Ce0_5 3.044133 1_455
Ce0_1 Ga2_3 3.137134 1_545
Ce0_1 Ga2_7 3.137134 1_445
Ce0_1 Ga3_4 3.137134 1_455
Ce0_1 Ga3_0 3.137134 1_555
Ce0_1 Ga6_2 3.137135 1_545
Ce0_1 Ga6_6 3.137135 1_445
Ce0_1 Ga4_1 3.137135 1_555
Ce0_1 Ga4_5 3.137135 1_455
Ce0_1 Ga7_5 3.137135 1_455
Ce0_1 Ga7_1 3.137135 1_555
Ce0_1 Ga5_2 3.137135 1_545
Ce0_1 Ga5_6 3.137135 1_445
Ce0_2 Ce0_6 3.044133 1_555
Ce0_2 Ce0_6 3.044133 1_455
Ce0_2 Ga2_0 3.137134 1_555
Ce0_2 Ga2_4 3.137134 1_455
Ce0_2 Ga3_7 3.137134 1_454
Ce0_2 Ga3_3 3.137134 1_554
Ce0_2 Ga7_2 3.137135 1_555
Ce0_2 Ga5_5 3.137135 1_454
Ce0_2 Ga4_6 3.137135 1_455
Ce0_2 Ga5_1 3.137135 1_554
Ce0_2 Ga7_6 3.137135 1_455
Ce0_2 Ga4_2 3.137135 1_555
Ce0_2 Ga6_5 3.137135 1_454
Ce0_2 Ga6_1 3.137135 1_554
Ce0_3 Ce0_7 3.044133 1_455
Ce0_3 Ce0_7 3.044133 1_555
Ce0_3 Ga2_5 3.137134 1_455
Ce0_3 Ga2_1 3.137134 1_555
Ce0_3 Ga3_2 3.137134 1_555
Ce0_3 Ga3_6 3.137134 1_455
Ce0_3 Ga7_3 3.137135 1_555
Ce0_3 Ga7_7 3.137135 1_455
Ce0_3 Ga4_3 3.137135 1_555
Ce0_3 Ga5_4 3.137135 1_455
Ce0_3 Ga6_4 3.137135 1_455
Ce0_3 Ga4_7 3.137135 1_455
Ce0_3 Ga5_0 3.137135 1_555
Ce0_3 Ga6_0 3.137135 1_555
Ce0_4 Ga2_6 3.137134 1_545
Ce0_4 Ga2_2 3.137134 1_545
Ce0_4 Ga3_1 3.137134 1_554
Ce0_4 Ga3_5 3.137134 1_554
Ce0_4 Ga5_3 3.137135 1_544
Ce0_4 Ga5_7 3.137135 1_544
Ce0_4 Ga7_4 3.137135 1_555
Ce0_4 Ga7_0 3.137135 1_555
Ce0_4 Ga4_0 3.137135 1_555
Ce0_4 Ga4_4 3.137135 1_555
Ce0_4 Ga6_3 3.137135 1_544
Ce0_4 Ga6_7 3.137135 1_544
Ce0_5 Ga2_3 3.137134 1_545
Ce0_5 Ga2_7 3.137134 1_545
Ce0_5 Ga3_4 3.137134 1_555
Ce0_5 Ga3_0 3.137134 1_555
Ce0_5 Ga6_2 3.137135 1_545
Ce0_5 Ga6_6 3.137135 1_545
Ce0_5 Ga4_1 3.137135 1_555
Ce0_5 Ga4_5 3.137135 1_555
Ce0_5 Ga7_5 3.137135 1_555
Ce0_5 Ga7_1 3.137135 1_555
Ce0_5 Ga5_6 3.137135 1_545
Ce0_5 Ga5_2 3.137135 1_545
Ce0_6 Ga2_0 3.137134 1_555
Ce0_6 Ga2_4 3.137134 1_555
Ce0_6 Ga3_7 3.137134 1_554
Ce0_6 Ga3_3 3.137134 1_554
Ce0_6 Ga7_6 3.137135 1_555
Ce0_6 Ga7_2 3.137135 1_555
Ce0_6 Ga5_1 3.137135 1_554
Ce0_6 Ga4_6 3.137135 1_555
Ce0_6 Ga5_5 3.137135 1_554
Ce0_6 Ga4_2 3.137135 1_555
Ce0_6 Ga6_5 3.137135 1_554
Ce0_6 Ga6_1 3.137135 1_554
Ce0_7 Ga2_1 3.137134 1_555
Ce0_7 Ga2_5 3.137134 1_555
Ce0_7 Ga3_2 3.137134 1_555
Ce0_7 Ga3_6 3.137134 1_555
Ce0_7 Ga7_3 3.137135 1_555
Ce0_7 Ga7_7 3.137135 1_555
Ce0_7 Ga4_3 3.137135 1_555
Ce0_7 Ga4_7 3.137135 1_555
Ce0_7 Ga6_4 3.137135 1_555
Ce0_7 Ga5_4 3.137135 1_555
Ce0_7 Ga5_0 3.137135 1_555
Ce0_7 Ga6_0 3.137135 1_555
Ga0_0 Ga2_0 2.545822 1_555
Ga0_0 Ga4_0 2.545831 1_555
Ga0_0 Ga6_0 2.545831 1_555
Ga0_0 Ga0_4 3.044133 1_455
Ga0_0 Ga0_4 3.044133 1_555
Ga0_0 Li2_4 3.051233 1_555
Ga0_0 Li2_0 3.051233 1_555
Ga0_0 Li1_2 3.051233 1_555
Ga0_0 Li1_6 3.051233 1_555
Ga0_0 Li0_0 3.051239 1_555
Ga0_0 Li0_4 3.051239 1_555
Ga0_1 Ga2_1 2.545822 1_555
Ga0_1 Ga6_1 2.545831 1_555
Ga0_1 Ga4_1 2.545831 1_555
Ga0_1 Ga0_5 3.044133 1_455
Ga0_1 Ga0_5 3.044133 1_555
Ga0_1 Li2_1 3.051233 1_555
Ga0_1 Li2_5 3.051233 1_555
Ga0_1 Li1_3 3.051233 1_555
Ga0_1 Li1_7 3.051233 1_555
Ga0_1 Li0_1 3.051239 1_555
Ga0_1 Li0_5 3.051239 1_555
Ga0_2 Ga2_2 2.545822 1_555
Ga0_2 Ga4_2 2.545831 1_555
Ga0_2 Ga6_2 2.545831 1_555
Ga0_2 Ga0_6 3.044133 1_555
Ga0_2 Ga0_6 3.044133 1_455
Ga0_2 Li2_6 3.051233 1_555
Ga0_2 Li2_2 3.051233 1_555
Ga0_2 Li1_0 3.051233 1_565
Ga0_2 Li1_4 3.051233 1_565
Ga0_2 Li0_2 3.051239 1_555
Ga0_2 Li0_6 3.051239 1_555
Ga0_3 Ga2_3 2.545822 1_555
Ga0_3 Ga6_3 2.545831 1_555
Ga0_3 Ga4_3 2.545831 1_555
Ga0_3 Ga0_7 3.044133 1_455
Ga0_3 Ga0_7 3.044133 1_555
Ga0_3 Li1_5 3.051233 1_565
Ga0_3 Li1_1 3.051233 1_565
Ga0_3 Li2_3 3.051233 1_555
Ga0_3 Li2_7 3.051233 1_555
Ga0_3 Li0_7 3.051239 1_555
Ga0_3 Li0_3 3.051239 1_555
Ga0_4 Ga2_4 2.545822 1_555
Ga0_4 Ga4_4 2.545831 1_555
Ga0_4 Ga6_4 2.545831 1_555
Ga0_4 Li2_4 3.051233 1_555
Ga0_4 Li2_0 3.051233 1_655
Ga0_4 Li1_2 3.051233 1_655
Ga0_4 Li1_6 3.051233 1_555
Ga0_4 Li0_0 3.051239 1_655
Ga0_4 Li0_4 3.051239 1_555
Ga0_5 Ga2_5 2.545822 1_555
Ga0_5 Ga6_5 2.545831 1_555
Ga0_5 Ga4_5 2.545831 1_555
Ga0_5 Li2_1 3.051233 1_655
Ga0_5 Li2_5 3.051233 1_555
Ga0_5 Li1_3 3.051233 1_655
Ga0_5 Li1_7 3.051233 1_555
Ga0_5 Li0_5 3.051239 1_555
Ga0_5 Li0_1 3.051239 1_655
Ga0_6 Ga2_6 2.545822 1_555
Ga0_6 Ga4_6 2.545831 1_555
Ga0_6 Ga6_6 2.545831 1_555
Ga0_6 Li2_6 3.051233 1_555
Ga0_6 Li2_2 3.051233 1_655
Ga0_6 Li1_0 3.051233 1_665
Ga0_6 Li1_4 3.051233 1_565
Ga0_6 Li0_2 3.051239 1_655
Ga0_6 Li0_6 3.051239 1_555
Ga0_7 Ga2_7 2.545822 1_555
Ga0_7 Ga6_7 2.545831 1_555
Ga0_7 Ga4_7 2.545831 1_555
Ga0_7 Li1_5 3.051233 1_565
Ga0_7 Li1_1 3.051233 1_665
Ga0_7 Li2_7 3.051233 1_555
Ga0_7 Li2_3 3.051233 1_655
Ga0_7 Li0_7 3.051239 1_555
Ga0_7 Li0_3 3.051239 1_655
Ga1_0 Ga3_0 2.545822 1_555
Ga1_0 Ga7_0 2.545831 1_555
Ga1_0 Ga5_0 2.545831 1_555
Ga1_0 Ga1_4 3.044133 1_455
Ga1_0 Ga1_4 3.044133 1_555
Ga1_0 Li1_0 3.051233 1_555
Ga1_0 Li2_1 3.051233 1_555
Ga1_0 Li1_4 3.051233 1_555
Ga1_0 Li2_5 3.051233 1_555
Ga1_0 Li0_0 3.051239 1_555
Ga1_0 Li0_4 3.051239 1_555
Ga1_1 Ga3_1 2.545822 1_555
Ga1_1 Ga7_1 2.545831 1_555
Ga1_1 Ga5_1 2.545831 1_555
Ga1_1 Ga1_5 3.044133 1_555
Ga1_1 Ga1_5 3.044133 1_455
Ga1_1 Li1_5 3.051233 1_555
Ga1_1 Li1_1 3.051233 1_555
Ga1_1 Li2_0 3.051233 1_556
Ga1_1 Li2_4 3.051233 1_556
Ga1_1 Li0_5 3.051239 1_555
Ga1_1 Li0_1 3.051239 1_555
Ga1_2 Ga3_2 2.545822 1_555
Ga1_2 Ga5_2 2.545831 1_555
Ga1_2 Ga7_2 2.545831 1_555
Ga1_2 Ga1_6 3.044133 1_455
Ga1_2 Ga1_6 3.044133 1_555
Ga1_2 Li2_3 3.051233 1_555
Ga1_2 Li2_7 3.051233 1_555
Ga1_2 Li1_2 3.051233 1_555
Ga1_2 Li1_6 3.051233 1_555
Ga1_2 Li0_2 3.051239 1_555
Ga1_2 Li0_6 3.051239 1_555
Ga1_3 Ga3_3 2.545822 1_555
Ga1_3 Ga5_3 2.545831 1_555
Ga1_3 Ga7_3 2.545831 1_555
Ga1_3 Ga1_7 3.044133 1_555
Ga1_3 Ga1_7 3.044133 1_455
Ga1_3 Li2_2 3.051233 1_556
Ga1_3 Li2_6 3.051233 1_556
Ga1_3 Li1_3 3.051233 1_555
Ga1_3 Li1_7 3.051233 1_555
Ga1_3 Li0_3 3.051239 1_555
Ga1_3 Li0_7 3.051239 1_555
Ga1_4 Ga3_4 2.545822 1_555
Ga1_4 Ga7_4 2.545831 1_555
Ga1_4 Ga5_4 2.545831 1_555
Ga1_4 Li1_4 3.051233 1_555
Ga1_4 Li2_1 3.051233 1_655
Ga1_4 Li2_5 3.051233 1_555
Ga1_4 Li1_0 3.051233 1_655
Ga1_4 Li0_0 3.051239 1_655
Ga1_4 Li0_4 3.051239 1_555
Ga1_5 Ga3_5 2.545822 1_555
Ga1_5 Ga7_5 2.545831 1_555
Ga1_5 Ga5_5 2.545831 1_555
Ga1_5 Li1_1 3.051233 1_655
Ga1_5 Li1_5 3.051233 1_555
Ga1_5 Li2_4 3.051233 1_556
Ga1_5 Li2_0 3.051233 1_656
Ga1_5 Li0_5 3.051239 1_555
Ga1_5 Li0_1 3.051239 1_655
Ga1_6 Ga3_6 2.545822 1_555
Ga1_6 Ga5_6 2.545831 1_555
Ga1_6 Ga7_6 2.545831 1_555
Ga1_6 Li2_3 3.051233 1_655
Ga1_6 Li2_7 3.051233 1_555
Ga1_6 Li1_6 3.051233 1_555
Ga1_6 Li1_2 3.051233 1_655
Ga1_6 Li0_2 3.051239 1_655
Ga1_6 Li0_6 3.051239 1_555
Ga1_7 Ga3_7 2.545822 1_555
Ga1_7 Ga5_7 2.545831 1_555
Ga1_7 Ga7_7 2.545831 1_555
Ga1_7 Li2_2 3.051233 1_656
Ga1_7 Li2_6 3.051233 1_556
Ga1_7 Li1_3 3.051233 1_655
Ga1_7 Li1_7 3.051233 1_555
Ga1_7 Li0_3 3.051239 1_655
Ga1_7 Li0_7 3.051239 1_555
Ga2_0 Ga7_2 2.743160 1_555
Ga2_0 Ga5_1 2.743160 1_554
Ga2_0 Li2_0 3.009792 1_555
Ga2_0 Li2_4 3.009792 1_555
Ga2_0 Li1_6 3.009792 1_555
Ga2_0 Li1_2 3.009792 1_555
Ga2_0 Ga2_4 3.044133 1_555
Ga2_0 Ga2_4 3.044133 1_455
Ga2_1 Ga7_3 2.743160 1_555
Ga2_1 Ga5_0 2.743160 1_555
Ga2_1 Li2_1 3.009792 1_555
Ga2_1 Li2_5 3.009792 1_555
Ga2_1 Li1_3 3.009792 1_555
Ga2_1 Li1_7 3.009792 1_555
Ga2_1 Ga2_5 3.044133 1_455
Ga2_1 Ga2_5 3.044133 1_555
Ga2_2 Ga5_3 2.743160 1_554
Ga2_2 Ga7_0 2.743160 1_565
Ga2_2 Li2_2 3.009792 1_555
Ga2_2 Li2_6 3.009792 1_555
Ga2_2 Li1_0 3.009792 1_565
Ga2_2 Li1_4 3.009792 1_565
Ga2_2 Ga2_6 3.044133 1_555
Ga2_2 Ga2_6 3.044133 1_455
Ga2_3 Ga5_2 2.743160 1_555
Ga2_3 Ga7_1 2.743160 1_565
Ga2_3 Li2_7 3.009792 1_555
Ga2_3 Li2_3 3.009792 1_555
Ga2_3 Li1_5 3.009792 1_565
Ga2_3 Li1_1 3.009792 1_565
Ga2_3 Ga2_7 3.044133 1_555
Ga2_3 Ga2_7 3.044133 1_455
Ga2_4 Ga7_6 2.743160 1_555
Ga2_4 Ga5_5 2.743160 1_554
Ga2_4 Li2_0 3.009792 1_655
Ga2_4 Li2_4 3.009792 1_555
Ga2_4 Li1_6 3.009792 1_555
Ga2_4 Li1_2 3.009792 1_655
Ga2_5 Ga5_4 2.743160 1_555
Ga2_5 Ga7_7 2.743160 1_555
Ga2_5 Li2_5 3.009792 1_555
Ga2_5 Li2_1 3.009792 1_655
Ga2_5 Li1_3 3.009792 1_655
Ga2_5 Li1_7 3.009792 1_555
Ga2_6 Ga5_7 2.743160 1_554
Ga2_6 Ga7_4 2.743160 1_565
Ga2_6 Li2_6 3.009792 1_555
Ga2_6 Li2_2 3.009792 1_655
Ga2_6 Li1_0 3.009792 1_665
Ga2_6 Li1_4 3.009792 1_565
Ga2_7 Ga5_6 2.743160 1_555
Ga2_7 Ga7_5 2.743160 1_565
Ga2_7 Li2_7 3.009792 1_555
Ga2_7 Li2_3 3.009792 1_655
Ga2_7 Li1_5 3.009792 1_565
Ga2_7 Li1_1 3.009792 1_665
Ga3_0 Ga4_1 2.743160 1_555
Ga3_0 Ga6_2 2.743160 1_545
Ga3_0 Li1_0 3.009792 1_555
Ga3_0 Li1_4 3.009792 1_555
Ga3_0 Li2_1 3.009792 1_555
Ga3_0 Li2_5 3.009792 1_555
Ga3_0 Ga3_4 3.044133 1_455
Ga3_0 Ga3_4 3.044133 1_555
Ga3_1 Ga6_3 2.743160 1_545
Ga3_1 Ga4_0 2.743160 1_556
Ga3_1 Li1_1 3.009792 1_555
Ga3_1 Li1_5 3.009792 1_555
Ga3_1 Li2_4 3.009792 1_556
Ga3_1 Li2_0 3.009792 1_556
Ga3_1 Ga3_5 3.044133 1_455
Ga3_1 Ga3_5 3.044133 1_555
Ga3_2 Ga6_0 2.743160 1_555
Ga3_2 Ga4_3 2.743160 1_555
Ga3_2 Li1_2 3.009792 1_555
Ga3_2 Li1_6 3.009792 1_555
Ga3_2 Li2_3 3.009792 1_555
Ga3_2 Li2_7 3.009792 1_555
Ga3_2 Ga3_6 3.044133 1_455
Ga3_2 Ga3_6 3.044133 1_555
Ga3_3 Ga6_1 2.743160 1_555
Ga3_3 Ga4_2 2.743160 1_556
Ga3_3 Li1_3 3.009792 1_555
Ga3_3 Li1_7 3.009792 1_555
Ga3_3 Li2_6 3.009792 1_556
Ga3_3 Li2_2 3.009792 1_556
Ga3_3 Ga3_7 3.044133 1_455
Ga3_3 Ga3_7 3.044133 1_555
Ga3_4 Ga6_6 2.743160 1_545
Ga3_4 Ga4_5 2.743160 1_555
Ga3_4 Li1_4 3.009792 1_555
Ga3_4 Li1_0 3.009792 1_655
Ga3_4 Li2_5 3.009792 1_555
Ga3_4 Li2_1 3.009792 1_655
Ga3_5 Ga6_7 2.743160 1_545
Ga3_5 Ga4_4 2.743160 1_556
Ga3_5 Li1_5 3.009792 1_555
Ga3_5 Li1_1 3.009792 1_655
Ga3_5 Li2_4 3.009792 1_556
Ga3_5 Li2_0 3.009792 1_656
Ga3_6 Ga4_7 2.743160 1_555
Ga3_6 Ga6_4 2.743160 1_555
Ga3_6 Li1_6 3.009792 1_555
Ga3_6 Li1_2 3.009792 1_655
Ga3_6 Li2_3 3.009792 1_655
Ga3_6 Li2_7 3.009792 1_555
Ga3_7 Ga6_5 2.743160 1_555
Ga3_7 Ga4_6 2.743160 1_556
Ga3_7 Li1_3 3.009792 1_655
Ga3_7 Li1_7 3.009792 1_555
Ga3_7 Li2_2 3.009792 1_656
Ga3_7 Li2_6 3.009792 1_556
Ga4_0 Ga7_0 2.743160 1_555
Ga4_0 Li2_0 3.009792 1_555
Ga4_0 Li2_4 3.009792 1_555
Ga4_0 Li0_0 3.009792 1_555
Ga4_0 Li0_4 3.009792 1_555
Ga4_0 Ga4_4 3.044133 1_555
Ga4_0 Ga4_4 3.044133 1_455
Ga4_1 Ga7_1 2.743160 1_555
Ga4_1 Li2_5 3.009792 1_555
Ga4_1 Li2_1 3.009792 1_555
Ga4_1 Li0_1 3.009792 1_555
Ga4_1 Li0_5 3.009792 1_555
Ga4_1 Ga4_5 3.044133 1_455
Ga4_1 Ga4_5 3.044133 1_555
Ga4_2 Ga7_2 2.743160 1_555
Ga4_2 Li2_2 3.009792 1_555
Ga4_2 Li2_6 3.009792 1_555
Ga4_2 Li0_2 3.009792 1_555
Ga4_2 Li0_6 3.009792 1_555
Ga4_2 Ga4_6 3.044133 1_455
Ga4_2 Ga4_6 3.044133 1_555
Ga4_3 Ga7_3 2.743160 1_555
Ga4_3 Li2_7 3.009792 1_555
Ga4_3 Li2_3 3.009792 1_555
Ga4_3 Li0_3 3.009792 1_555
Ga4_3 Li0_7 3.009792 1_555
Ga4_3 Ga4_7 3.044133 1_555
Ga4_3 Ga4_7 3.044133 1_455
Ga4_4 Ga7_4 2.743160 1_555
Ga4_4 Li2_0 3.009792 1_655
Ga4_4 Li2_4 3.009792 1_555
Ga4_4 Li0_0 3.009792 1_655
Ga4_4 Li0_4 3.009792 1_555
Ga4_5 Ga7_5 2.743160 1_555
Ga4_5 Li2_5 3.009792 1_555
Ga4_5 Li2_1 3.009792 1_655
Ga4_5 Li0_5 3.009792 1_555
Ga4_5 Li0_1 3.009792 1_655
Ga4_6 Ga7_6 2.743160 1_555
Ga4_6 Li2_2 3.009792 1_655
Ga4_6 Li2_6 3.009792 1_555
Ga4_6 Li0_2 3.009792 1_655
Ga4_6 Li0_6 3.009792 1_555
Ga4_7 Ga7_7 2.743160 1_555
Ga4_7 Li2_7 3.009792 1_555
Ga4_7 Li2_3 3.009792 1_655
Ga4_7 Li0_3 3.009792 1_655
Ga4_7 Li0_7 3.009792 1_555
Ga5_0 Ga6_0 2.743160 1_555
Ga5_0 Li2_1 3.009792 1_555
Ga5_0 Li2_5 3.009792 1_555
Ga5_0 Li0_4 3.009792 1_555
Ga5_0 Li0_0 3.009792 1_555
Ga5_0 Ga5_4 3.044133 1_555
Ga5_0 Ga5_4 3.044133 1_455
Ga5_1 Ga6_1 2.743160 1_555
Ga5_1 Li2_0 3.009792 1_556
Ga5_1 Li2_4 3.009792 1_556
Ga5_1 Li0_1 3.009792 1_555
Ga5_1 Li0_5 3.009792 1_555
Ga5_1 Ga5_5 3.044133 1_555
Ga5_1 Ga5_5 3.044133 1_455
Ga5_2 Ga6_2 2.743160 1_555
Ga5_2 Li2_7 3.009792 1_555
Ga5_2 Li2_3 3.009792 1_555
Ga5_2 Li0_2 3.009792 1_555
Ga5_2 Li0_6 3.009792 1_555
Ga5_2 Ga5_6 3.044133 1_455
Ga5_2 Ga5_6 3.044133 1_555
Ga5_3 Ga6_3 2.743160 1_555
Ga5_3 Li2_2 3.009792 1_556
Ga5_3 Li2_6 3.009792 1_556
Ga5_3 Li0_7 3.009792 1_555
Ga5_3 Li0_3 3.009792 1_555
Ga5_3 Ga5_7 3.044133 1_455
Ga5_3 Ga5_7 3.044133 1_555
Ga5_4 Ga6_4 2.743160 1_555
Ga5_4 Li2_5 3.009792 1_555
Ga5_4 Li2_1 3.009792 1_655
Ga5_4 Li0_4 3.009792 1_555
Ga5_4 Li0_0 3.009792 1_655
Ga5_5 Ga6_5 2.743160 1_555
Ga5_5 Li2_4 3.009792 1_556
Ga5_5 Li2_0 3.009792 1_656
Ga5_5 Li0_5 3.009792 1_555
Ga5_5 Li0_1 3.009792 1_655
Ga5_6 Ga6_6 2.743160 1_555
Ga5_6 Li2_7 3.009792 1_555
Ga5_6 Li2_3 3.009792 1_655
Ga5_6 Li0_2 3.009792 1_655
Ga5_6 Li0_6 3.009792 1_555
Ga5_7 Ga6_7 2.743160 1_555
Ga5_7 Li2_2 3.009792 1_656
Ga5_7 Li2_6 3.009792 1_556
Ga5_7 Li0_7 3.009792 1_555
Ga5_7 Li0_3 3.009792 1_655
Ga6_0 Li1_2 3.009792 1_555
Ga6_0 Li1_6 3.009792 1_555
Ga6_0 Li0_0 3.009792 1_555
Ga6_0 Li0_4 3.009792 1_555
Ga6_0 Ga6_4 3.044133 1_555
Ga6_0 Ga6_4 3.044133 1_455
Ga6_1 Li1_3 3.009792 1_555
Ga6_1 Li1_7 3.009792 1_555
Ga6_1 Li0_1 3.009792 1_555
Ga6_1 Li0_5 3.009792 1_555
Ga6_1 Ga6_5 3.044133 1_455
Ga6_1 Ga6_5 3.044133 1_555
Ga6_2 Li1_0 3.009792 1_565
Ga6_2 Li1_4 3.009792 1_565
Ga6_2 Li0_2 3.009792 1_555
Ga6_2 Li0_6 3.009792 1_555
Ga6_2 Ga6_6 3.044133 1_555
Ga6_2 Ga6_6 3.044133 1_455
Ga6_3 Li1_1 3.009792 1_565
Ga6_3 Li1_5 3.009792 1_565
Ga6_3 Li0_7 3.009792 1_555
Ga6_3 Li0_3 3.009792 1_555
Ga6_3 Ga6_7 3.044133 1_455
Ga6_3 Ga6_7 3.044133 1_555
Ga6_4 Li1_6 3.009792 1_555
Ga6_4 Li1_2 3.009792 1_655
Ga6_4 Li0_0 3.009792 1_655
Ga6_4 Li0_4 3.009792 1_555
Ga6_5 Li1_3 3.009792 1_655
Ga6_5 Li1_7 3.009792 1_555
Ga6_5 Li0_5 3.009792 1_555
Ga6_5 Li0_1 3.009792 1_655
Ga6_6 Li1_0 3.009792 1_665
Ga6_6 Li1_4 3.009792 1_565
Ga6_6 Li0_2 3.009792 1_655
Ga6_6 Li0_6 3.009792 1_555
Ga6_7 Li1_1 3.009792 1_665
Ga6_7 Li1_5 3.009792 1_565
Ga6_7 Li0_7 3.009792 1_555
Ga6_7 Li0_3 3.009792 1_655
Ga7_0 Li1_4 3.009792 1_555
Ga7_0 Li1_0 3.009792 1_555
Ga7_0 Li0_4 3.009792 1_555
Ga7_0 Li0_0 3.009792 1_555
Ga7_0 Ga7_4 3.044133 1_555
Ga7_0 Ga7_4 3.044133 1_455
Ga7_1 Li1_1 3.009792 1_555
Ga7_1 Li1_5 3.009792 1_555
Ga7_1 Li0_1 3.009792 1_555
Ga7_1 Li0_5 3.009792 1_555
Ga7_1 Ga7_5 3.044133 1_555
Ga7_1 Ga7_5 3.044133 1_455
Ga7_2 Li1_2 3.009792 1_555
Ga7_2 Li1_6 3.009792 1_555
Ga7_2 Li0_6 3.009792 1_555
Ga7_2 Li0_2 3.009792 1_555
Ga7_2 Ga7_6 3.044133 1_455
Ga7_2 Ga7_6 3.044133 1_555
Ga7_3 Li1_3 3.009792 1_555
Ga7_3 Li1_7 3.009792 1_555
Ga7_3 Li0_3 3.009792 1_555
Ga7_3 Li0_7 3.009792 1_555
Ga7_3 Ga7_7 3.044133 1_555
Ga7_3 Ga7_7 3.044133 1_455
Ga7_4 Li1_4 3.009792 1_555
Ga7_4 Li1_0 3.009792 1_655
Ga7_4 Li0_0 3.009792 1_655
Ga7_4 Li0_4 3.009792 1_555
Ga7_5 Li1_5 3.009792 1_555
Ga7_5 Li1_1 3.009792 1_655
Ga7_5 Li0_5 3.009792 1_555
Ga7_5 Li0_1 3.009792 1_655
Ga7_6 Li1_2 3.009792 1_655
Ga7_6 Li1_6 3.009792 1_555
Ga7_6 Li0_6 3.009792 1_555
Ga7_6 Li0_2 3.009792 1_655
Ga7_7 Li1_3 3.009792 1_655
Ga7_7 Li1_7 3.009792 1_555
Ga7_7 Li0_3 3.009792 1_655
Ga7_7 Li0_7 3.009792 1_555
