# generated using pymatgen
data_Mn5Zn4(TeO6)3
_symmetry_space_group_name_H-M   'P 1'
_cell_length_a   8.87695623
_cell_length_b   8.87695623
_cell_length_c   10.79210846
_cell_angle_alpha   87.40848083
_cell_angle_beta   87.40848083
_cell_angle_gamma   61.17444065
_symmetry_Int_Tables_number   1
_chemical_formula_structural   Mn5Zn4(TeO6)3
_chemical_formula_sum   'Mn10 Zn8 Te6 O36'
_cell_volume   744.01919708
_cell_formula_units_Z   2
loop_
 _symmetry_equiv_pos_site_id
 _symmetry_equiv_pos_as_xyz
  1  'x, y, z'
loop_
 _atom_site_type_symbol
 _atom_site_label
 _atom_site_symmetry_multiplicity
 _atom_site_fract_x
 _atom_site_fract_y
 _atom_site_fract_z
 _atom_site_occupancy
  Mn  Mn0  1  0.27894500  0.00287700  0.74053900  1
  Mn  Mn1  1  0.00287700  0.27894500  0.24053900  1
  Mn  Mn2  1  0.12982800  0.54864700  0.05575700  1
  Mn  Mn3  1  0.54864700  0.12982800  0.55575700  1
  Mn  Mn4  1  0.45135300  0.87017200  0.44424300  1
  Mn  Mn5  1  0.80551200  0.19448800  0.75000000  1
  Mn  Mn6  1  0.19448800  0.80551200  0.25000000  1
  Mn  Mn7  1  0.87017200  0.45135300  0.94424300  1
  Mn  Mn8  1  0.72105500  0.99712300  0.25946100  1
  Mn  Mn9  1  0.99712300  0.72105500  0.75946100  1
  Zn  Zn0  1  0.34630400  0.05761300  0.07290600  1
  Zn  Zn1  1  0.38500900  0.67629900  0.94708500  1
  Zn  Zn2  1  0.94238700  0.65369600  0.42709400  1
  Zn  Zn3  1  0.32370100  0.61499100  0.55291500  1
  Zn  Zn4  1  0.67629900  0.38500900  0.44708500  1
  Zn  Zn5  1  0.05761300  0.34630400  0.57290600  1
  Zn  Zn6  1  0.65369600  0.94238700  0.92709400  1
  Zn  Zn7  1  0.61499100  0.32370100  0.05291500  1
  Te  Te0  1  0.66115500  0.66657600  0.69495300  1
  Te  Te1  1  0.00000000  0.00000000  0.00000000  1
  Te  Te2  1  0.00000000  0.00000000  0.50000000  1
  Te  Te3  1  0.66657600  0.66115500  0.19495300  1
  Te  Te4  1  0.33884500  0.33342400  0.30504700  1
  Te  Te5  1  0.33342400  0.33884500  0.80504700  1
  O  O0  1  0.88691200  0.59552500  0.60423200  1
  O  O1  1  0.22692200  0.92404400  0.56674400  1
  O  O2  1  0.44582300  0.75627700  0.28053300  1
  O  O3  1  0.95363400  0.91437800  0.15666600  1
  O  O4  1  0.07595600  0.77307800  0.93325600  1
  O  O5  1  0.08562200  0.04636600  0.34333400  1
  O  O6  1  0.59864700  0.56430600  0.05597100  1
  O  O7  1  0.90318700  0.24337500  0.55136100  1
  O  O8  1  0.09681300  0.75662500  0.44863900  1
  O  O9  1  0.23789000  0.26326700  0.17187900  1
  O  O10  1  0.44729900  0.75157200  0.79134900  1
  O  O11  1  0.76211000  0.73673300  0.82812100  1
  O  O12  1  0.77307800  0.07595600  0.43325600  1
  O  O13  1  0.56158700  0.89082000  0.61221200  1
  O  O14  1  0.24842800  0.55270100  0.70865100  1
  O  O15  1  0.40135300  0.43569400  0.94402900  1
  O  O16  1  0.55270100  0.24842800  0.20865100  1
  O  O17  1  0.10918000  0.43841300  0.88778800  1
  O  O18  1  0.24372300  0.55417700  0.21946700  1
  O  O19  1  0.75157200  0.44729900  0.29134900  1
  O  O20  1  0.59552500  0.88691200  0.10423200  1
  O  O21  1  0.43841300  0.10918000  0.38778800  1
  O  O22  1  0.75662500  0.09681300  0.94863900  1
  O  O23  1  0.56430600  0.59864700  0.55597100  1
  O  O24  1  0.55417700  0.24372300  0.71946700  1
  O  O25  1  0.91437800  0.95363400  0.65666600  1
  O  O26  1  0.26326700  0.23789000  0.67187900  1
  O  O27  1  0.43569400  0.40135300  0.44402900  1
  O  O28  1  0.92404400  0.22692200  0.06674400  1
  O  O29  1  0.89082000  0.56158700  0.11221200  1
  O  O30  1  0.11308800  0.40447500  0.39576800  1
  O  O31  1  0.04636600  0.08562200  0.84333400  1
  O  O32  1  0.24337500  0.90318700  0.05136100  1
  O  O33  1  0.73673300  0.76211000  0.32812100  1
  O  O34  1  0.75627700  0.44582300  0.78053300  1
  O  O35  1  0.40447500  0.11308800  0.89576800  1
loop_
_geom_bond_atom_site_label_1
_geom_bond_atom_site_label_2
_geom_bond_distance
_geom_bond_site_symmetry_2
Mn0 O10 2.063818 1_545
Mn0 O31 2.106422 1_555
Mn0 O26 2.123728 1_555
Mn0 O1 2.174756 1_545
Mn0 O35 2.524599 1_555
Mn0 O13 2.570268 1_545
Mn1 O19 2.063818 1_455
Mn1 O5 2.106422 1_555
Mn1 O9 2.123728 1_555
Mn1 O28 2.174756 1_455
Mn1 O30 2.524599 1_555
Mn1 O29 2.570268 1_455
Mn2 O18 2.088863 1_555
Mn2 O29 2.130794 1_455
Mn2 O17 2.154199 1_554
Mn2 O4 2.201337 1_554
Mn2 O15 2.405190 1_554
Mn2 O9 2.527178 1_555
Mn3 O24 2.088863 1_555
Mn3 O13 2.130794 1_545
Mn3 O21 2.154199 1_555
Mn3 O12 2.201337 1_555
Mn3 O27 2.405190 1_555
Mn3 O26 2.527178 1_555
Mn4 O2 2.088863 1_555
Mn4 O21 2.130794 1_565
Mn4 O13 2.154199 1_555
Mn4 O1 2.201337 1_555
Mn4 O23 2.405190 1_555
Mn4 O33 2.527178 1_555
Mn5 O34 2.095359 1_555
Mn5 O24 2.095359 1_555
Mn5 O31 2.152691 1_655
Mn5 O25 2.152691 1_545
Mn5 O7 2.376201 1_555
Mn5 O22 2.376201 1_555
Mn6 O2 2.095359 1_555
Mn6 O18 2.095359 1_555
Mn6 O5 2.152691 1_565
Mn6 O3 2.152691 1_455
Mn6 O8 2.376201 1_555
Mn6 O32 2.376201 1_555
Mn7 O34 2.088863 1_555
Mn7 O17 2.130794 1_655
Mn7 O29 2.154199 1_556
Mn7 O28 2.201337 1_556
Mn7 O6 2.405190 1_556
Mn7 O11 2.527178 1_555
Mn8 O16 2.063818 1_565
Mn8 O3 2.106422 1_555
Mn8 O33 2.123728 1_555
Mn8 O12 2.174756 1_565
Mn8 O20 2.524599 1_555
Mn8 O21 2.570268 1_565
Mn9 O14 2.063818 1_655
Mn9 O25 2.106422 1_555
Mn9 O11 2.123728 1_555
Mn9 O4 2.174756 1_655
Mn9 O0 2.524599 1_555
Mn9 O17 2.570268 1_655
O0 Te0 2.008011 1_555
O0 Zn5 2.023240 1_655
O0 Zn2 2.057798 1_555
O1 Te2 1.951606 1_565
O1 Zn3 2.457548 1_555
O2 Te3 1.928047 1_555
O3 Te1 1.930875 1_665
O4 Te1 1.951606 1_566
O4 Zn1 2.457548 1_555
O5 Te2 1.930875 1_555
O6 Te3 2.012652 1_555
O6 Zn1 2.060002 1_554
O6 Zn7 2.071491 1_555
O7 Te2 1.997024 1_655
O7 Zn5 2.005971 1_655
O7 Zn4 2.130462 1_555
O8 Te2 1.997024 1_565
O8 Zn2 2.005971 1_455
O8 Zn3 2.130462 1_555
O9 Zn0 1.946544 1_555
O9 Te4 1.998003 1_555
O10 Zn1 1.935907 1_555
O10 Te0 1.940777 1_555
O11 Zn6 1.946544 1_555
O11 Te0 1.998003 1_555
O12 Te2 1.951606 1_655
O12 Zn4 2.457548 1_555
O13 Te0 1.937813 1_555
O14 Zn3 1.935907 1_555
O14 Te5 1.940777 1_555
O15 Te5 2.012652 1_555
O15 Zn7 2.060002 1_556
O15 Zn1 2.071491 1_555
O16 Zn7 1.935907 1_555
O16 Te4 1.940777 1_555
O17 Te5 1.937813 1_555
O18 Te4 1.928047 1_555
O19 Zn4 1.935907 1_555
O19 Te3 1.940777 1_555
O20 Te3 2.008011 1_555
O20 Zn0 2.023240 1_565
O20 Zn6 2.057798 1_554
O21 Te4 1.937813 1_555
O22 Te1 1.997024 1_656
O22 Zn6 2.005971 1_545
O22 Zn7 2.130462 1_556
O23 Te0 2.012652 1_555
O23 Zn4 2.060002 1_555
O23 Zn3 2.071491 1_555
O24 Te5 1.928047 1_555
O25 Te2 1.930875 1_665
O26 Zn5 1.946544 1_555
O26 Te5 1.998003 1_555
O27 Te4 2.012652 1_555
O27 Zn3 2.060002 1_555
O27 Zn4 2.071491 1_555
O28 Te1 1.951606 1_655
O28 Zn7 2.457548 1_555
O29 Te3 1.937813 1_555
O30 Te4 2.008011 1_555
O30 Zn2 2.023240 1_455
O30 Zn5 2.057798 1_555
O31 Te1 1.930875 1_556
O32 Te1 1.997024 1_565
O32 Zn0 2.005971 1_565
O32 Zn1 2.130462 1_554
O33 Zn2 1.946544 1_555
O33 Te3 1.998003 1_555
O34 Te0 1.928047 1_555
O35 Te5 2.008011 1_555
O35 Zn6 2.023240 1_545
O35 Zn0 2.057798 1_556
