# generated using pymatgen
data_Ca2MgAl
_symmetry_space_group_name_H-M   'P 1'
_cell_length_a   12.79305845
_cell_length_b   12.85017293
_cell_length_c   12.85017317
_cell_angle_alpha   60.21404662
_cell_angle_beta   60.14691841
_cell_angle_gamma   60.14691500
_symmetry_Int_Tables_number   1
_chemical_formula_structural   Ca2MgAl
_chemical_formula_sum   'Ca2 Mg1 Al1'
_cell_volume   1499.47394826
_cell_formula_units_Z   1
loop_
 _symmetry_equiv_pos_site_id
 _symmetry_equiv_pos_as_xyz
  1  'x, y, z'
loop_
 _atom_site_type_symbol
 _atom_site_label
 _atom_site_symmetry_multiplicity
 _atom_site_fract_x
 _atom_site_fract_y
 _atom_site_fract_z
 _atom_site_occupancy
  Ca  Ca0  1  0.72944242  1.00000000  1.00000000  1
  Ca  Ca1  1  0.27055758  0.00000000  0.00000000  1
  Mg  Mg0  1  -0.00000000  -0.00000000  0.00000000  1
  Al  Al0  1  0.50000000  -0.00000000  0.00000000  1
loop_
_geom_bond_atom_site_label_1
_geom_bond_atom_site_label_2
_geom_bond_distance
_geom_bond_site_symmetry_2
Ca0 Mg0 3.461259 1_666
Ca1 Mg0 3.461259 1_555
Al0 Ca1 2.935270 1_555
Al0 Ca0 2.935270 1_544
