# generated using pymatgen
data_TbSi3Ir
_symmetry_space_group_name_H-M   'P 1'
_cell_length_a   5.71228497
_cell_length_b   5.71228497
_cell_length_c   5.71228497
_cell_angle_alpha   137.08175266
_cell_angle_beta   137.08175266
_cell_angle_gamma   62.31228874
_symmetry_Int_Tables_number   1
_chemical_formula_structural   TbSi3Ir
_chemical_formula_sum   'Tb1 Si3 Ir1'
_cell_volume   85.39214365
_cell_formula_units_Z   1
loop_
 _symmetry_equiv_pos_site_id
 _symmetry_equiv_pos_as_xyz
  1  'x, y, z'
loop_
 _atom_site_type_symbol
 _atom_site_label
 _atom_site_symmetry_multiplicity
 _atom_site_fract_x
 _atom_site_fract_y
 _atom_site_fract_z
 _atom_site_occupancy
  Tb  Tb0  1  0.99814995  0.99814995  0.00000000  1
  Si  Si0  1  0.41424293  0.41424293  -0.00000000  1
  Si  Si1  1  0.26467917  0.76467917  0.50000000  1
  Si  Si2  1  0.76467917  0.26467917  0.50000000  1
  Ir  Ir0  1  0.65224777  0.65224777  -0.00000000  1
loop_
_geom_bond_atom_site_label_1
_geom_bond_atom_site_label_2
_geom_bond_distance
_geom_bond_site_symmetry_2
Si0 Si2 2.550543 1_555
Si0 Si2 2.550543 1_454
Si0 Si1 2.550543 1_544
Si0 Si1 2.550543 1_555
Si0 Tb0 3.067116 1_556
Si0 Tb0 3.067116 1_455
Si0 Tb0 3.067116 1_545
Si0 Tb0 3.067116 1_444
Si1 Tb0 3.094716 1_455
Si1 Tb0 3.094716 1_556
Si1 Tb0 3.340238 1_445
Si1 Tb0 3.340238 1_456
Si2 Tb0 3.094716 1_545
Si2 Tb0 3.094716 1_556
Si2 Tb0 3.340238 1_546
Si2 Tb0 3.340238 1_445
Ir0 Si0 2.326901 1_555
Ir0 Si1 2.361225 1_554
Ir0 Si1 2.361225 1_655
Ir0 Si2 2.361225 1_565
Ir0 Si2 2.361225 1_554
Ir0 Tb0 3.317228 1_455
Ir0 Tb0 3.317228 1_444
Ir0 Tb0 3.317228 1_545
Ir0 Tb0 3.317228 1_556
Ir0 Tb0 3.381780 1_555
