# generated using pymatgen
data_KMg14Zr
_symmetry_space_group_name_H-M   'P 1'
_cell_length_a   6.61814369
_cell_length_b   6.61814311
_cell_length_c   10.27554067
_cell_angle_alpha   90.00000000
_cell_angle_beta   90.00000000
_cell_angle_gamma   120.00000287
_symmetry_Int_Tables_number   1
_chemical_formula_structural   KMg14Zr
_chemical_formula_sum   'K1 Mg14 Zr1'
_cell_volume   389.76931655
_cell_formula_units_Z   1
loop_
 _symmetry_equiv_pos_site_id
 _symmetry_equiv_pos_as_xyz
  1  'x, y, z'
loop_
 _atom_site_type_symbol
 _atom_site_label
 _atom_site_symmetry_multiplicity
 _atom_site_fract_x
 _atom_site_fract_y
 _atom_site_fract_z
 _atom_site_occupancy
  K  K0  1  0.16666700  0.33333300  0.62500000  1
  Mg  Mg0  1  0.16865579  0.83432740  0.12500000  1
  Mg  Mg1  1  0.17361121  0.83680511  0.62500000  1
  Mg  Mg2  1  0.66567260  0.33134421  0.12500000  1
  Mg  Mg3  1  0.66319489  0.32638879  0.62500000  1
  Mg  Mg4  1  0.66567260  0.83432740  0.12500000  1
  Mg  Mg5  1  0.66319489  0.83680511  0.62500000  1
  Mg  Mg6  1  0.33601116  0.16398884  0.36418385  1
  Mg  Mg7  1  0.33601116  0.16398884  0.88581615  1
  Mg  Mg8  1  0.33601116  0.67202333  0.36418385  1
  Mg  Mg9  1  0.33601116  0.67202333  0.88581615  1
  Mg  Mg10  1  0.82797667  0.16398884  0.36418385  1
  Mg  Mg11  1  0.82797667  0.16398884  0.88581615  1
  Mg  Mg12  1  0.83333300  0.66666700  0.37557494  1
  Mg  Mg13  1  0.83333300  0.66666700  0.87442506  1
  Zr  Zr0  1  0.16666700  0.33333300  0.12500000  1
loop_
_geom_bond_atom_site_label_1
_geom_bond_atom_site_label_2
_geom_bond_distance
_geom_bond_site_symmetry_2
K0 Mg6 3.309191 1_555
K0 Mg7 3.309191 1_555
K0 Mg8 3.309198 1_555
K0 Mg9 3.309198 1_555
K0 Mg10 3.309198 1_455
K0 Mg11 3.309198 1_455
K0 Mg1 3.309311 1_545
K0 Mg5 3.309311 1_555
K0 Mg5 3.309311 1_445
K0 Mg1 3.309311 1_555
K0 Mg3 3.309311 1_555
K0 Mg3 3.309311 1_455
Mg0 Mg8 3.100121 1_555
Mg0 Mg9 3.100121 1_554
Mg0 Mg7 3.100128 1_564
Mg0 Mg6 3.100128 1_565
Mg0 Mg12 3.212980 1_455
Mg0 Mg13 3.212980 1_454
Mg0 Mg2 3.289328 1_565
Mg0 Mg4 3.289329 1_555
Mg0 Zr0 3.309091 1_565
Mg0 Zr0 3.309091 1_555
Mg0 Mg2 3.328815 1_455
Mg0 Mg4 3.328815 1_455
Mg1 Mg13 3.220639 1_455
Mg1 Mg12 3.220639 1_455
Mg1 Mg3 3.240135 1_565
Mg1 Mg5 3.240135 1_555
Mg1 Mg8 3.270950 1_555
Mg1 Mg9 3.270950 1_555
Mg1 Mg6 3.270957 1_565
Mg1 Mg7 3.270957 1_565
Mg1 Mg3 3.378008 1_455
Mg1 Mg5 3.378009 1_455
Mg2 Mg7 3.100128 1_554
Mg2 Mg6 3.100128 1_555
Mg2 Mg4 3.289328 1_545
Mg2 Zr0 3.309091 1_555
Mg2 Zr0 3.309092 1_655
Mg2 Mg4 3.328815 1_555
Mg3 Mg5 3.240135 1_545
Mg3 Mg7 3.270957 1_555
Mg3 Mg6 3.270957 1_555
Mg3 Mg5 3.378008 1_555
Mg4 Mg8 3.100128 1_555
Mg4 Mg9 3.100128 1_554
Mg4 Zr0 3.309091 1_555
Mg4 Zr0 3.309091 1_665
Mg5 Mg8 3.270957 1_555
Mg5 Mg9 3.270957 1_555
Mg6 Zr0 3.131885 1_555
Mg6 Mg8 3.255898 1_545
Mg6 Mg8 3.362245 1_555
Mg7 Zr0 3.131885 1_556
Mg7 Mg9 3.255898 1_545
Mg7 Mg9 3.362245 1_555
Mg8 Zr0 3.131892 1_555
Mg9 Zr0 3.131892 1_556
Mg10 Mg2 3.100121 1_555
Mg10 Mg4 3.100128 1_545
Mg10 Zr0 3.131892 1_655
Mg10 Mg8 3.255898 1_545
Mg10 Mg6 3.255898 1_555
Mg10 Mg3 3.270950 1_555
Mg10 Mg5 3.270957 1_545
Mg10 Mg12 3.311283 1_555
Mg10 Mg12 3.311283 1_545
Mg10 Mg8 3.362245 1_655
Mg10 Mg6 3.362245 1_655
Mg11 Mg2 3.100121 1_556
Mg11 Mg4 3.100128 1_546
Mg11 Zr0 3.131892 1_656
Mg11 Mg9 3.255898 1_545
Mg11 Mg7 3.255898 1_555
Mg11 Mg3 3.270950 1_555
Mg11 Mg5 3.270957 1_545
Mg11 Mg13 3.311283 1_555
Mg11 Mg13 3.311283 1_545
Mg11 Mg9 3.362245 1_655
Mg11 Mg7 3.362245 1_655
Mg12 Mg4 3.212974 1_555
Mg12 Mg2 3.212980 1_555
Mg12 Mg5 3.220632 1_555
Mg12 Mg3 3.220639 1_555
Mg12 Mg6 3.311283 1_555
Mg12 Mg6 3.311283 1_665
Mg12 Mg8 3.311284 1_655
Mg12 Mg8 3.311284 1_555
Mg13 Mg4 3.212974 1_556
Mg13 Mg2 3.212980 1_556
Mg13 Mg5 3.220632 1_555
Mg13 Mg3 3.220639 1_555
Mg13 Mg7 3.311283 1_555
Mg13 Mg7 3.311283 1_665
Mg13 Mg9 3.311284 1_655
Mg13 Mg9 3.311284 1_555
