# generated using pymatgen
data_PaV
_symmetry_space_group_name_H-M   'P 1'
_cell_length_a   6.10872462
_cell_length_b   6.16764235
_cell_length_c   9.39817626
_cell_angle_alpha   90.08023035
_cell_angle_beta   90.99014282
_cell_angle_gamma   120.02473035
_symmetry_Int_Tables_number   1
_chemical_formula_structural   PaV
_chemical_formula_sum   'Pa8 V8'
_cell_volume   306.50782306
_cell_formula_units_Z   8
loop_
 _symmetry_equiv_pos_site_id
 _symmetry_equiv_pos_as_xyz
  1  'x, y, z'
loop_
 _atom_site_type_symbol
 _atom_site_label
 _atom_site_symmetry_multiplicity
 _atom_site_fract_x
 _atom_site_fract_y
 _atom_site_fract_z
 _atom_site_occupancy
  Pa  Pa0_0  1  0.32885300  0.16256950  0.37490700  1
  Pa  Pa0_1  1  0.32885300  0.16256950  0.87490700  1
  Pa  Pa0_2  1  0.32885300  0.66256950  0.37490700  1
  Pa  Pa0_3  1  0.32885300  0.66256950  0.87490700  1
  Pa  Pa0_4  1  0.82885300  0.16256950  0.37490700  1
  Pa  Pa0_5  1  0.82885300  0.16256950  0.87490700  1
  Pa  Pa0_6  1  0.82885300  0.66256950  0.37490700  1
  Pa  Pa0_7  1  0.82885300  0.66256950  0.87490700  1
  V  V0_0  1  0.17114650  0.33742950  0.12509300  1
  V  V0_1  1  0.17114650  0.33742950  0.62509300  1
  V  V0_2  1  0.17114650  0.83742950  0.12509300  1
  V  V0_3  1  0.17114650  0.83742950  0.62509300  1
  V  V0_4  1  0.67114650  0.33742950  0.12509300  1
  V  V0_5  1  0.67114650  0.33742950  0.62509300  1
  V  V0_6  1  0.67114650  0.83742950  0.12509300  1
  V  V0_7  1  0.67114650  0.83742950  0.62509300  1
loop_
_geom_bond_atom_site_label_1
_geom_bond_atom_site_label_2
_geom_bond_distance
_geom_bond_site_symmetry_2
Pa0_0 V0_2 2.904643 1_545
Pa0_0 V0_0 2.927806 1_555
Pa0_0 V0_5 2.937702 1_555
Pa0_0 V0_3 2.938746 1_545
Pa0_0 V0_1 2.954783 1_555
Pa0_0 V0_4 2.994569 1_555
Pa0_0 Pa0_4 3.054362 1_555
Pa0_0 Pa0_4 3.054362 1_455
Pa0_0 Pa0_6 3.068051 1_555
Pa0_0 Pa0_6 3.068051 1_445
Pa0_0 Pa0_2 3.083821 1_555
Pa0_0 Pa0_2 3.083821 1_545
Pa0_1 V0_3 2.904643 1_545
Pa0_1 V0_1 2.927806 1_555
Pa0_1 V0_4 2.937702 1_556
Pa0_1 V0_2 2.938746 1_546
Pa0_1 V0_0 2.954783 1_556
Pa0_1 V0_5 2.994569 1_555
Pa0_1 Pa0_5 3.054362 1_455
Pa0_1 Pa0_5 3.054362 1_555
Pa0_1 Pa0_7 3.068051 1_555
Pa0_1 Pa0_7 3.068051 1_445
Pa0_1 Pa0_3 3.083821 1_555
Pa0_1 Pa0_3 3.083821 1_545
Pa0_2 V0_0 2.904643 1_555
Pa0_2 V0_2 2.927806 1_555
Pa0_2 V0_7 2.937702 1_555
Pa0_2 V0_1 2.938746 1_555
Pa0_2 V0_3 2.954783 1_555
Pa0_2 V0_6 2.994569 1_555
Pa0_2 Pa0_6 3.054362 1_455
Pa0_2 Pa0_6 3.054362 1_555
Pa0_2 Pa0_4 3.068051 1_565
Pa0_2 Pa0_4 3.068051 1_455
Pa0_3 V0_1 2.904643 1_555
Pa0_3 V0_3 2.927806 1_555
Pa0_3 V0_6 2.937702 1_556
Pa0_3 V0_0 2.938746 1_556
Pa0_3 V0_2 2.954783 1_556
Pa0_3 V0_7 2.994569 1_555
Pa0_3 Pa0_7 3.054362 1_455
Pa0_3 Pa0_7 3.054362 1_555
Pa0_3 Pa0_5 3.068051 1_565
Pa0_3 Pa0_5 3.068051 1_455
Pa0_4 V0_6 2.904643 1_545
Pa0_4 V0_4 2.927806 1_555
Pa0_4 V0_1 2.937702 1_655
Pa0_4 V0_7 2.938746 1_545
Pa0_4 V0_5 2.954783 1_555
Pa0_4 V0_0 2.994569 1_655
Pa0_4 Pa0_6 3.083821 1_555
Pa0_4 Pa0_6 3.083821 1_545
Pa0_5 V0_7 2.904643 1_545
Pa0_5 V0_5 2.927806 1_555
Pa0_5 V0_0 2.937702 1_656
Pa0_5 V0_6 2.938746 1_546
Pa0_5 V0_4 2.954783 1_556
Pa0_5 V0_1 2.994569 1_655
Pa0_5 Pa0_7 3.083821 1_545
Pa0_5 Pa0_7 3.083821 1_555
Pa0_6 V0_4 2.904643 1_555
Pa0_6 V0_6 2.927806 1_555
Pa0_6 V0_3 2.937702 1_655
Pa0_6 V0_5 2.938746 1_555
Pa0_6 V0_7 2.954783 1_555
Pa0_6 V0_2 2.994569 1_655
Pa0_7 V0_5 2.904643 1_555
Pa0_7 V0_7 2.927806 1_555
Pa0_7 V0_2 2.937702 1_656
Pa0_7 V0_4 2.938746 1_556
Pa0_7 V0_6 2.954783 1_556
Pa0_7 V0_3 2.994569 1_655
V0_0 V0_4 3.054362 1_455
V0_0 V0_4 3.054362 1_555
V0_0 V0_6 3.068051 1_445
V0_0 V0_6 3.068051 1_555
V0_0 V0_2 3.083821 1_545
V0_0 V0_2 3.083821 1_555
V0_1 V0_5 3.054362 1_555
V0_1 V0_5 3.054362 1_455
V0_1 V0_7 3.068051 1_445
V0_1 V0_7 3.068051 1_555
V0_1 V0_3 3.083821 1_545
V0_1 V0_3 3.083821 1_555
V0_2 V0_6 3.054362 1_455
V0_2 V0_6 3.054362 1_555
V0_2 V0_4 3.068051 1_565
V0_2 V0_4 3.068051 1_455
V0_3 V0_7 3.054362 1_455
V0_3 V0_7 3.054362 1_555
V0_3 V0_5 3.068051 1_565
V0_3 V0_5 3.068051 1_455
V0_4 V0_6 3.083821 1_545
V0_4 V0_6 3.083821 1_555
V0_5 V0_7 3.083821 1_555
V0_5 V0_7 3.083821 1_545
