# generated using pymatgen
data_ErSiPd
_symmetry_space_group_name_H-M   'P 1'
_cell_length_a   5.58053319
_cell_length_b   5.58053319
_cell_length_c   6.93033083
_cell_angle_alpha   51.55825792
_cell_angle_beta   51.55825792
_cell_angle_gamma   44.69976480
_symmetry_Int_Tables_number   1
_chemical_formula_structural   ErSiPd
_chemical_formula_sum   'Er2 Si2 Pd2'
_cell_volume   112.39387782
_cell_formula_units_Z   2
loop_
 _symmetry_equiv_pos_site_id
 _symmetry_equiv_pos_as_xyz
  1  'x, y, z'
loop_
 _atom_site_type_symbol
 _atom_site_label
 _atom_site_symmetry_multiplicity
 _atom_site_fract_x
 _atom_site_fract_y
 _atom_site_fract_z
 _atom_site_occupancy
  Er  Er0  1  0.45167500  0.45167500  0.30841900  1
  Er  Er1  1  0.54832500  0.54832500  0.69158100  1
  Si  Si0  1  0.15257900  0.15257900  0.89846100  1
  Si  Si1  1  0.84742100  0.84742100  0.10153900  1
  Pd  Pd0  1  0.81665000  0.81665000  0.74317400  1
  Pd  Pd1  1  0.18335000  0.18335000  0.25682600  1
loop_
_geom_bond_atom_site_label_1
_geom_bond_atom_site_label_2
_geom_bond_distance
_geom_bond_site_symmetry_2
Er0 Si0 2.992418 1_564
Er0 Si0 2.992418 1_654
Er0 Pd1 3.021794 1_555
Er0 Pd1 3.033254 1_565
Er0 Pd1 3.033254 1_655
Er0 Si0 3.046330 1_555
Er0 Pd0 3.114112 1_554
Er0 Si1 3.129112 1_455
Er0 Si1 3.129112 1_545
Er0 Pd0 3.142927 1_455
Er0 Pd0 3.142927 1_545
Er0 Si1 3.296907 1_555
Er1 Si1 2.992418 1_456
Er1 Si1 2.992418 1_546
Er1 Pd0 3.021794 1_555
Er1 Pd0 3.033254 1_455
Er1 Pd0 3.033254 1_545
Er1 Si1 3.046330 1_555
Er1 Pd1 3.114112 1_556
Er1 Si0 3.129112 1_565
Er1 Si0 3.129112 1_655
Er1 Pd1 3.142927 1_655
Er1 Pd1 3.142927 1_565
Er1 Si0 3.296907 1_555
Si0 Si1 2.437857 1_446
Pd0 Si0 2.465622 1_565
Pd0 Si0 2.465622 1_655
Pd0 Si1 2.707342 1_556
Pd0 Pd1 2.921668 1_665
Pd1 Si1 2.465622 1_455
Pd1 Si1 2.465622 1_545
Pd1 Si0 2.707342 1_554
