# generated using pymatgen
data_LiSm4Tm4O12
_symmetry_space_group_name_H-M   'P 1'
_cell_length_a   6.16286629
_cell_length_b   8.31575800
_cell_length_c   5.68639890
_cell_angle_alpha   90.00000000
_cell_angle_beta   91.48262014
_cell_angle_gamma   90.00000000
_symmetry_Int_Tables_number   1
_chemical_formula_structural   LiSm4Tm4O12
_chemical_formula_sum   'Li1 Sm4 Tm4 O12'
_cell_volume   291.32415249
_cell_formula_units_Z   1
loop_
 _symmetry_equiv_pos_site_id
 _symmetry_equiv_pos_as_xyz
  1  'x, y, z'
loop_
 _atom_site_type_symbol
 _atom_site_label
 _atom_site_symmetry_multiplicity
 _atom_site_fract_x
 _atom_site_fract_y
 _atom_site_fract_z
 _atom_site_occupancy
  Li  Li0  1  0.72269400  0.25000000  0.05141400  1
  Sm  Sm0  1  0.10940300  0.25000000  0.96873000  1
  Sm  Sm1  1  0.42412900  0.75000000  0.45597900  1
  Sm  Sm2  1  0.54528100  0.25000000  0.52605600  1
  Sm  Sm3  1  0.96850700  0.75000000  0.99378700  1
  Tm  Tm0  1  0.97723500  0.00475900  0.49050800  1
  Tm  Tm1  1  0.97723500  0.49524100  0.49050800  1
  Tm  Tm2  1  0.49183100  0.97092700  0.98584700  1
  Tm  Tm3  1  0.49183100  0.52907300  0.98584700  1
  O  O0  1  0.06629400  0.75000000  0.61502500  1
  O  O1  1  0.17001400  0.55014800  0.17584400  1
  O  O2  1  0.17001400  0.94985200  0.17584400  1
  O  O3  1  0.29144600  0.42473600  0.68949900  1
  O  O4  1  0.29144600  0.07526400  0.68949900  1
  O  O5  1  0.44639400  0.25000000  0.13178200  1
  O  O6  1  0.61228500  0.75000000  0.81762100  1
  O  O7  1  0.66512900  0.94164400  0.32117800  1
  O  O8  1  0.66512900  0.55835600  0.32117800  1
  O  O9  1  0.79714900  0.08255500  0.81631600  1
  O  O10  1  0.79714900  0.41744500  0.81631600  1
  O  O11  1  0.91315400  0.25000000  0.33538800  1
loop_
_geom_bond_atom_site_label_1
_geom_bond_atom_site_label_2
_geom_bond_distance
_geom_bond_site_symmetry_2
Li0 O5 1.774444 1_555
Li0 O11 1.971604 1_555
Li0 O10 1.992073 1_554
Li0 O9 1.992073 1_554
Li0 Sm0 2.441078 1_654
O0 Sm3 2.251482 1_455
O0 Tm0 2.295774 1_465
O0 Tm1 2.295774 1_455
O0 Sm1 2.405088 1_555
O1 Tm1 2.220723 1_455
O1 Tm3 2.289628 1_554
O1 Sm3 2.304216 1_454
O1 Sm1 2.760979 1_555
O1 Sm0 2.780940 1_554
O2 Tm0 2.220723 1_465
O2 Tm2 2.289628 1_554
O2 Sm3 2.304216 1_454
O2 Sm1 2.760979 1_555
O2 Sm0 2.780940 1_564
O3 Tm3 2.238290 1_555
O3 Tm1 2.293589 1_455
O3 Sm2 2.344698 1_555
O3 Sm0 2.446102 1_555
O3 Sm1 3.131159 1_555
O4 Tm2 2.238290 1_545
O4 Tm0 2.293589 1_455
O4 Sm2 2.344698 1_555
O4 Sm0 2.446102 1_555
O4 Sm1 3.131159 1_545
O5 Sm0 2.252386 1_554
O5 Sm2 2.308085 1_555
O5 Tm2 2.482890 1_544
O5 Tm3 2.482890 1_554
O6 Tm3 2.208646 1_555
O6 Tm2 2.208646 1_555
O6 Sm1 2.334561 1_555
O6 Sm3 2.389405 1_555
O7 Tm2 2.174982 1_554
O7 Tm0 2.192370 1_565
O7 Sm1 2.322116 1_555
O7 Sm2 2.919337 1_565
O8 Tm3 2.174982 1_554
O8 Tm1 2.192370 1_555
O8 Sm1 2.322116 1_555
O8 Sm2 2.919337 1_555
O9 Tm0 2.277956 1_555
O9 Tm2 2.329257 1_545
O9 Sm0 2.511363 1_655
O9 Sm2 2.634382 1_555
O10 Tm1 2.277956 1_555
O10 Tm3 2.329257 1_555
O10 Sm0 2.511363 1_655
O10 Sm2 2.634382 1_555
O11 Tm0 2.252776 1_555
O11 Tm1 2.252776 1_555
O11 Sm0 2.437283 1_654
O11 Sm2 2.538247 1_555
