# generated using pymatgen
data_Nb6PtAu
_symmetry_space_group_name_H-M   'P 1'
_cell_length_a   5.21713608
_cell_length_b   5.21713211
_cell_length_c   5.21713480
_cell_angle_alpha   90.00000000
_cell_angle_beta   90.00000000
_cell_angle_gamma   90.00000000
_symmetry_Int_Tables_number   1
_chemical_formula_structural   Nb6PtAu
_chemical_formula_sum   'Nb6 Pt1 Au1'
_cell_volume   142.00252181
_cell_formula_units_Z   1
loop_
 _symmetry_equiv_pos_site_id
 _symmetry_equiv_pos_as_xyz
  1  'x, y, z'
loop_
 _atom_site_type_symbol
 _atom_site_label
 _atom_site_symmetry_multiplicity
 _atom_site_fract_x
 _atom_site_fract_y
 _atom_site_fract_z
 _atom_site_occupancy
  Nb  Nb0  1  0.00000100  0.49999900  0.75394244  1
  Nb  Nb1  1  0.49999900  0.24605835  0.99999900  1
  Nb  Nb2  1  0.75394581  0.00000100  0.50000100  1
  Nb  Nb3  1  0.00000100  0.49999900  0.24605756  1
  Nb  Nb4  1  0.49999900  0.75394265  0.99999900  1
  Nb  Nb5  1  0.24605419  0.00000100  0.50000100  1
  Pt  Pt0  1  0.00000100  0.00000100  0.99999900  1
  Au  Au0  1  0.49999900  0.49999900  0.50000100  1
loop_
_geom_bond_atom_site_label_1
_geom_bond_atom_site_label_2
_geom_bond_distance
_geom_bond_site_symmetry_2
Nb0 Nb3 2.567431 1_556
Nb0 Nb3 2.649704 1_555
Nb0 Pt0 2.907314 1_555
Nb0 Pt0 2.907333 1_565
Nb1 Nb4 2.567433 1_545
Nb1 Nb4 2.649699 1_555
Nb1 Pt0 2.907317 1_555
Nb1 Pt0 2.907336 1_655
Nb2 Nb5 2.567396 1_655
Nb2 Nb5 2.649740 1_555
Nb2 Pt0 2.907312 1_655
Nb2 Pt0 2.907331 1_654
Nb3 Pt0 2.907319 1_554
Nb3 Pt0 2.907337 1_564
Nb4 Pt0 2.907320 1_565
Nb4 Pt0 2.907338 1_665
Nb5 Pt0 2.907308 1_555
Nb5 Pt0 2.907326 1_554
Au0 Nb1 2.925709 1_555
Au0 Nb0 2.925712 1_555
Au0 Nb4 2.925716 1_555
Au0 Nb3 2.925717 1_555
Au0 Nb5 2.925718 1_555
Au0 Nb2 2.925723 1_555
Au0 Nb1 2.925728 1_554
Au0 Nb0 2.925731 1_655
Au0 Nb4 2.925735 1_554
Au0 Nb3 2.925735 1_655
Au0 Nb5 2.925737 1_565
Au0 Nb2 2.925742 1_565
