# generated using pymatgen
data_Mg14MnGa
_symmetry_space_group_name_H-M   'P 1'
_cell_length_a   6.24922299
_cell_length_b   6.24922250
_cell_length_c   10.26103103
_cell_angle_alpha   90.00000000
_cell_angle_beta   90.00000000
_cell_angle_gamma   120.00000262
_symmetry_Int_Tables_number   1
_chemical_formula_structural   Mg14MnGa
_chemical_formula_sum   'Mg14 Mn1 Ga1'
_cell_volume   347.03528251
_cell_formula_units_Z   1
loop_
 _symmetry_equiv_pos_site_id
 _symmetry_equiv_pos_as_xyz
  1  'x, y, z'
loop_
 _atom_site_type_symbol
 _atom_site_label
 _atom_site_symmetry_multiplicity
 _atom_site_fract_x
 _atom_site_fract_y
 _atom_site_fract_z
 _atom_site_occupancy
  Mg  Mg0  1  0.16711440  0.83355670  0.12500000  1
  Mg  Mg1  1  0.16602453  0.83301177  0.62500000  1
  Mg  Mg2  1  0.66644330  0.33288560  0.12500000  1
  Mg  Mg3  1  0.66698823  0.33397547  0.62500000  1
  Mg  Mg4  1  0.66644330  0.83355670  0.12500000  1
  Mg  Mg5  1  0.66698823  0.83301177  0.62500000  1
  Mg  Mg6  1  0.33045976  0.16954024  0.37365742  1
  Mg  Mg7  1  0.33045976  0.16954024  0.87634258  1
  Mg  Mg8  1  0.33045976  0.66092052  0.37365742  1
  Mg  Mg9  1  0.33045976  0.66092052  0.87634258  1
  Mg  Mg10  1  0.83907948  0.16954024  0.37365742  1
  Mg  Mg11  1  0.83907948  0.16954024  0.87634258  1
  Mg  Mg12  1  0.83333300  0.66666700  0.37436601  1
  Mg  Mg13  1  0.83333300  0.66666700  0.87563399  1
  Mn  Mn0  1  0.16666700  0.33333300  0.12500000  1
  Ga  Ga0  1  0.16666700  0.33333300  0.62500000  1
loop_
_geom_bond_atom_site_label_1
_geom_bond_atom_site_label_2
_geom_bond_distance
_geom_bond_site_symmetry_2
Mg0 Mg2 3.120417 1_565
Mg0 Mg4 3.120418 1_555
Mg0 Mn0 3.124612 1_555
Mg0 Mn0 3.124612 1_565
Mg0 Mg2 3.128805 1_455
Mg0 Mg4 3.128805 1_455
Mg0 Mg12 3.132151 1_455
Mg0 Mg13 3.132151 1_454
Mg0 Mg9 3.133243 1_554
Mg0 Mg8 3.133243 1_555
Mg0 Mg6 3.133250 1_565
Mg0 Mg7 3.133250 1_564
Mg1 Mg3 3.118589 1_455
Mg1 Mg5 3.118589 1_455
Mg1 Mg3 3.130634 1_565
Mg1 Mg5 3.130634 1_555
Mg1 Mg12 3.139402 1_455
Mg1 Mg13 3.139402 1_455
Mg1 Mg9 3.157378 1_555
Mg1 Mg8 3.157378 1_555
Mg1 Mg6 3.157384 1_565
Mg1 Mg7 3.157384 1_565
Mg2 Mg4 3.120417 1_545
Mg2 Mn0 3.124612 1_655
Mg2 Mn0 3.124612 1_555
Mg2 Mg4 3.128805 1_555
Mg2 Mg7 3.133250 1_554
Mg2 Mg6 3.133250 1_555
Mg3 Mg5 3.118589 1_555
Mg3 Mg5 3.130634 1_545
Mg3 Mg7 3.157384 1_555
Mg3 Mg6 3.157384 1_555
Mg4 Mn0 3.124612 1_555
Mg4 Mn0 3.124612 1_665
Mg4 Mg9 3.133250 1_554
Mg4 Mg8 3.133250 1_555
Mg5 Mg9 3.157384 1_555
Mg5 Mg8 3.157384 1_555
Mg6 Mg8 3.070745 1_555
Mg6 Mn0 3.106958 1_555
Mg6 Mg8 3.178478 1_545
Mg7 Mg9 3.070745 1_555
Mg7 Mn0 3.106958 1_556
Mg7 Mg9 3.178478 1_545
Mg8 Mn0 3.106964 1_555
Mg9 Mn0 3.106964 1_556
Mg10 Mg8 3.070745 1_655
Mg10 Mg6 3.070745 1_655
Mg10 Mn0 3.106965 1_655
Mg10 Mg12 3.124774 1_545
Mg10 Mg12 3.124774 1_555
Mg10 Mg2 3.133243 1_555
Mg10 Mg4 3.133250 1_545
Mg10 Mg3 3.157378 1_555
Mg10 Mg5 3.157384 1_545
Mg10 Mg8 3.178478 1_545
Mg10 Mg6 3.178478 1_555
Mg11 Mg9 3.070745 1_655
Mg11 Mg7 3.070745 1_655
Mg11 Mn0 3.106965 1_656
Mg11 Mg13 3.124774 1_545
Mg11 Mg13 3.124774 1_555
Mg11 Mg2 3.133243 1_556
Mg11 Mg4 3.133250 1_546
Mg11 Mg3 3.157378 1_555
Mg11 Mg5 3.157384 1_545
Mg11 Mg9 3.178478 1_545
Mg11 Mg7 3.178478 1_555
Mg12 Mg6 3.124774 1_665
Mg12 Mg6 3.124774 1_555
Mg12 Mg8 3.124775 1_555
Mg12 Mg8 3.124775 1_655
Mg12 Mg4 3.132144 1_555
Mg12 Mg2 3.132151 1_555
Mg12 Mg5 3.139396 1_555
Mg12 Mg3 3.139402 1_555
Mg13 Mg7 3.124774 1_665
Mg13 Mg7 3.124774 1_555
Mg13 Mg9 3.124775 1_555
Mg13 Mg9 3.124775 1_655
Mg13 Mg4 3.132144 1_556
Mg13 Mg2 3.132151 1_556
Mg13 Mg5 3.139396 1_555
Mg13 Mg3 3.139402 1_555
Ga0 Mg1 3.124613 1_545
Ga0 Mg5 3.124613 1_445
Ga0 Mg5 3.124613 1_555
Ga0 Mg1 3.124613 1_555
Ga0 Mg3 3.124613 1_555
Ga0 Mg3 3.124613 1_455
Ga0 Mg7 3.129624 1_555
Ga0 Mg6 3.129624 1_555
Ga0 Mg8 3.129630 1_555
Ga0 Mg9 3.129630 1_555
Ga0 Mg11 3.129631 1_455
Ga0 Mg10 3.129631 1_455
