# generated using pymatgen
data_Mg14MnFe
_symmetry_space_group_name_H-M   'P 1'
_cell_length_a   6.28941033
_cell_length_b   6.28940984
_cell_length_c   9.88588479
_cell_angle_alpha   90.00000000
_cell_angle_beta   90.00000000
_cell_angle_gamma   120.00000264
_symmetry_Int_Tables_number   1
_chemical_formula_structural   Mg14MnFe
_chemical_formula_sum   'Mg14 Mn1 Fe1'
_cell_volume   338.66162691
_cell_formula_units_Z   1
loop_
 _symmetry_equiv_pos_site_id
 _symmetry_equiv_pos_as_xyz
  1  'x, y, z'
loop_
 _atom_site_type_symbol
 _atom_site_label
 _atom_site_symmetry_multiplicity
 _atom_site_fract_x
 _atom_site_fract_y
 _atom_site_fract_z
 _atom_site_occupancy
  Mg  Mg0  1  0.16710927  0.83355414  0.12500000  1
  Mg  Mg1  1  0.16604697  0.83302298  0.62500000  1
  Mg  Mg2  1  0.66644586  0.33289073  0.12500000  1
  Mg  Mg3  1  0.66697702  0.33395303  0.62500000  1
  Mg  Mg4  1  0.66644586  0.83355414  0.12500000  1
  Mg  Mg5  1  0.66697702  0.83302298  0.62500000  1
  Mg  Mg6  1  0.32678009  0.17321991  0.37720313  1
  Mg  Mg7  1  0.32678009  0.17321991  0.87279687  1
  Mg  Mg8  1  0.32678009  0.65356118  0.37720313  1
  Mg  Mg9  1  0.32678009  0.65356118  0.87279687  1
  Mg  Mg10  1  0.84643882  0.17321991  0.37720313  1
  Mg  Mg11  1  0.84643882  0.17321991  0.87279687  1
  Mg  Mg12  1  0.83333300  0.66666700  0.37422846  1
  Mg  Mg13  1  0.83333300  0.66666700  0.87577154  1
  Mn  Mn0  1  0.16666700  0.33333300  0.12500000  1
  Fe  Fe0  1  0.16666700  0.33333300  0.62500000  1
loop_
_geom_bond_atom_site_label_1
_geom_bond_atom_site_label_2
_geom_bond_distance
_geom_bond_site_symmetry_2
Mg0 Mg12 3.061974 1_455
Mg0 Mg13 3.061974 1_454
Mg0 Mg8 3.105345 1_555
Mg0 Mg9 3.105345 1_554
Mg0 Mg7 3.105352 1_564
Mg0 Mg6 3.105352 1_565
Mg0 Mg2 3.140532 1_565
Mg0 Mg4 3.140533 1_555
Mg0 Mn0 3.144706 1_565
Mg0 Mn0 3.144706 1_555
Mg0 Mg2 3.148877 1_455
Mg0 Mg4 3.148878 1_455
Mg1 Mg12 3.070844 1_455
Mg1 Mg13 3.070844 1_455
Mg1 Mg9 3.072125 1_555
Mg1 Mg8 3.072125 1_555
Mg1 Mg7 3.072132 1_565
Mg1 Mg6 3.072132 1_565
Mg1 Mg3 3.138855 1_455
Mg1 Mg5 3.138856 1_455
Mg1 Mg3 3.150554 1_565
Mg1 Mg5 3.150555 1_555
Mg2 Mg6 3.105352 1_555
Mg2 Mg7 3.105352 1_554
Mg2 Mg4 3.140532 1_545
Mg2 Mn0 3.144706 1_555
Mg2 Mn0 3.144706 1_655
Mg2 Mg4 3.148877 1_555
Mg3 Mg7 3.072132 1_555
Mg3 Mg6 3.072132 1_555
Mg3 Mg5 3.138855 1_555
Mg3 Mg5 3.150554 1_545
Mg4 Mg8 3.105352 1_555
Mg4 Mg9 3.105352 1_554
Mg4 Mn0 3.144706 1_555
Mg4 Mn0 3.144706 1_665
Mg5 Mg9 3.072132 1_555
Mg5 Mg8 3.072132 1_555
Mg6 Mg8 3.021063 1_555
Mg6 Mn0 3.042787 1_555
Mg6 Mg8 3.268347 1_545
Mg7 Mg9 3.021063 1_555
Mg7 Mn0 3.042787 1_556
Mg7 Mg9 3.268347 1_545
Mg8 Mn0 3.042793 1_555
Mg9 Mn0 3.042793 1_556
Mg10 Mg8 3.021063 1_655
Mg10 Mg6 3.021063 1_655
Mg10 Mn0 3.042793 1_655
Mg10 Mg3 3.072125 1_555
Mg10 Mg5 3.072132 1_545
Mg10 Mg2 3.105345 1_555
Mg10 Mg4 3.105352 1_545
Mg10 Mg12 3.145652 1_545
Mg10 Mg12 3.145652 1_555
Mg10 Mg8 3.268347 1_545
Mg10 Mg6 3.268347 1_555
Mg11 Mg9 3.021063 1_655
Mg11 Mg7 3.021063 1_655
Mg11 Mn0 3.042793 1_656
Mg11 Mg3 3.072125 1_555
Mg11 Mg5 3.072132 1_545
Mg11 Mg2 3.105345 1_556
Mg11 Mg4 3.105352 1_546
Mg11 Mg13 3.145652 1_545
Mg11 Mg13 3.145652 1_555
Mg11 Mg9 3.268347 1_545
Mg11 Mg7 3.268347 1_555
Mg12 Mg4 3.061967 1_555
Mg12 Mg2 3.061974 1_555
Mg12 Mg5 3.070837 1_555
Mg12 Mg3 3.070844 1_555
Mg12 Mg6 3.145652 1_665
Mg12 Mg6 3.145652 1_555
Mg12 Mg8 3.145653 1_555
Mg12 Mg8 3.145653 1_655
Mg13 Mg4 3.061967 1_556
Mg13 Mg2 3.061974 1_556
Mg13 Mg5 3.070837 1_555
Mg13 Mg3 3.070844 1_555
Mg13 Mg7 3.145652 1_665
Mg13 Mg7 3.145652 1_555
Mg13 Mg9 3.145653 1_555
Mg13 Mg9 3.145653 1_655
Fe0 Mg7 3.007197 1_555
Fe0 Mg6 3.007197 1_555
Fe0 Mg9 3.007204 1_555
Fe0 Mg8 3.007204 1_555
Fe0 Mg11 3.007204 1_455
Fe0 Mg10 3.007204 1_455
Fe0 Mg1 3.144707 1_555
Fe0 Mg5 3.144707 1_445
Fe0 Mg5 3.144707 1_555
Fe0 Mg1 3.144707 1_545
Fe0 Mg3 3.144707 1_455
Fe0 Mg3 3.144707 1_555
