# generated using pymatgen
data_LaGa2Pt3
_symmetry_space_group_name_H-M   'P 1'
_cell_length_a   11.25574163
_cell_length_b   11.25574163
_cell_length_c   8.01180710
_cell_angle_alpha   90.00000000
_cell_angle_beta   90.00000000
_cell_angle_gamma   120.00000137
_symmetry_Int_Tables_number   1
_chemical_formula_structural   LaGa2Pt3
_chemical_formula_sum   'La8 Ga16 Pt24'
_cell_volume   879.04142394
_cell_formula_units_Z   8
loop_
 _symmetry_equiv_pos_site_id
 _symmetry_equiv_pos_as_xyz
  1  'x, y, z'
loop_
 _atom_site_type_symbol
 _atom_site_label
 _atom_site_symmetry_multiplicity
 _atom_site_fract_x
 _atom_site_fract_y
 _atom_site_fract_z
 _atom_site_occupancy
  La  La0_0  1  0.00000000  0.00000000  0.00000000  1
  La  La0_1  1  0.00000000  0.00000000  0.50000000  1
  La  La0_2  1  1.00000000  0.50000000  0.00000000  1
  La  La0_3  1  1.00000000  0.50000000  0.50000000  1
  La  La0_4  1  0.50000000  0.00000000  0.00000000  1
  La  La0_5  1  0.50000000  0.00000000  0.50000000  1
  La  La0_6  1  0.50000000  0.50000000  0.00000000  1
  La  La0_7  1  0.50000000  0.50000000  0.50000000  1
  Ga  Ga0_0  1  0.33333350  0.16666650  0.00000000  1
  Ga  Ga0_1  1  0.33333350  0.16666650  0.50000000  1
  Ga  Ga0_2  1  0.33333350  0.66666650  0.00000000  1
  Ga  Ga0_3  1  0.33333350  0.66666650  0.50000000  1
  Ga  Ga0_4  1  0.83333350  0.16666650  0.00000000  1
  Ga  Ga0_5  1  0.83333350  0.16666650  0.50000000  1
  Ga  Ga0_6  1  0.83333350  0.66666650  0.00000000  1
  Ga  Ga0_7  1  0.83333350  0.66666650  0.50000000  1
  Ga  Ga1_0  1  0.16666650  0.33333350  0.00000000  1
  Ga  Ga1_1  1  0.16666650  0.33333350  0.50000000  1
  Ga  Ga1_2  1  0.16666650  0.83333350  0.00000000  1
  Ga  Ga1_3  1  0.16666650  0.83333350  0.50000000  1
  Ga  Ga1_4  1  0.66666650  0.33333350  0.00000000  1
  Ga  Ga1_5  1  0.66666650  0.33333350  0.50000000  1
  Ga  Ga1_6  1  0.66666650  0.83333350  0.00000000  1
  Ga  Ga1_7  1  0.66666650  0.83333350  0.50000000  1
  Pt  Pt0_0  1  0.25000000  0.25000000  0.25000000  1
  Pt  Pt0_1  1  0.25000000  0.25000000  0.75000000  1
  Pt  Pt0_2  1  0.25000000  0.75000000  0.25000000  1
  Pt  Pt0_3  1  0.25000000  0.75000000  0.75000000  1
  Pt  Pt0_4  1  0.75000000  0.25000000  0.25000000  1
  Pt  Pt0_5  1  0.75000000  0.25000000  0.75000000  1
  Pt  Pt0_6  1  0.75000000  0.75000000  0.25000000  1
  Pt  Pt0_7  1  0.75000000  0.75000000  0.75000000  1
  Pt  Pt1_0  1  0.25000000  0.00000000  0.25000000  1
  Pt  Pt1_1  1  0.25000000  0.00000000  0.75000000  1
  Pt  Pt1_2  1  0.25000000  0.50000000  0.25000000  1
  Pt  Pt1_3  1  0.25000000  0.50000000  0.75000000  1
  Pt  Pt1_4  1  0.75000000  0.00000000  0.25000000  1
  Pt  Pt1_5  1  0.75000000  0.00000000  0.75000000  1
  Pt  Pt1_6  1  0.75000000  0.50000000  0.25000000  1
  Pt  Pt1_7  1  0.75000000  0.50000000  0.75000000  1
  Pt  Pt2_0  1  0.00000000  0.25000000  0.25000000  1
  Pt  Pt2_1  1  0.00000000  0.25000000  0.75000000  1
  Pt  Pt2_2  1  1.00000000  0.75000000  0.25000000  1
  Pt  Pt2_3  1  1.00000000  0.75000000  0.75000000  1
  Pt  Pt2_4  1  0.50000000  0.25000000  0.25000000  1
  Pt  Pt2_5  1  0.50000000  0.25000000  0.75000000  1
  Pt  Pt2_6  1  0.50000000  0.75000000  0.25000000  1
  Pt  Pt2_7  1  0.50000000  0.75000000  0.75000000  1
loop_
_geom_bond_atom_site_label_1
_geom_bond_atom_site_label_2
_geom_bond_distance
_geom_bond_site_symmetry_2
La0_0 Pt0_1 3.453990 1_554
La0_0 Pt0_0 3.453990 1_555
La0_0 Pt0_6 3.453990 1_445
La0_0 Pt0_7 3.453990 1_444
La0_0 Pt1_1 3.453990 1_554
La0_0 Pt2_3 3.453990 1_444
La0_0 Pt1_0 3.453990 1_555
La0_0 Pt2_2 3.453990 1_445
La0_0 Pt1_4 3.453990 1_455
La0_0 Pt2_0 3.453990 1_555
La0_0 Pt1_5 3.453990 1_454
La0_0 Pt2_1 3.453990 1_554
La0_0 La0_1 4.005904 1_555
La0_0 La0_1 4.005904 1_554
La0_1 Pt0_1 3.453990 1_555
La0_1 Pt0_0 3.453990 1_555
La0_1 Pt0_7 3.453990 1_445
La0_1 Pt0_6 3.453990 1_445
La0_1 Pt1_0 3.453990 1_555
La0_1 Pt1_1 3.453990 1_555
La0_1 Pt2_3 3.453990 1_445
La0_1 Pt2_2 3.453990 1_445
La0_1 Pt1_4 3.453990 1_455
La0_1 Pt1_5 3.453990 1_455
La0_1 Pt2_1 3.453990 1_555
La0_1 Pt2_0 3.453990 1_555
La0_2 Pt0_3 3.453990 1_654
La0_2 Pt0_2 3.453990 1_655
La0_2 Pt0_4 3.453990 1_555
La0_2 Pt0_5 3.453990 1_554
La0_2 Pt2_3 3.453990 1_554
La0_2 Pt2_2 3.453990 1_555
La0_2 Pt1_7 3.453990 1_554
La0_2 Pt1_6 3.453990 1_555
La0_2 Pt2_1 3.453990 1_654
La0_2 Pt2_0 3.453990 1_655
La0_2 Pt1_3 3.453990 1_654
La0_2 Pt1_2 3.453990 1_655
La0_2 La0_3 4.005904 1_554
La0_2 La0_3 4.005904 1_555
La0_3 Pt0_2 3.453990 1_655
La0_3 Pt0_3 3.453990 1_655
La0_3 Pt0_4 3.453990 1_555
La0_3 Pt0_5 3.453990 1_555
La0_3 Pt2_2 3.453990 1_555
La0_3 Pt2_3 3.453990 1_555
La0_3 Pt1_7 3.453990 1_555
La0_3 Pt1_6 3.453990 1_555
La0_3 Pt2_0 3.453990 1_655
La0_3 Pt2_1 3.453990 1_655
La0_3 Pt1_3 3.453990 1_655
La0_3 Pt1_2 3.453990 1_655
La0_4 Pt0_4 3.453990 1_555
La0_4 Pt0_5 3.453990 1_554
La0_4 Pt0_3 3.453990 1_544
La0_4 Pt0_2 3.453990 1_545
La0_4 Pt1_1 3.453990 1_554
La0_4 Pt1_0 3.453990 1_555
La0_4 Pt2_7 3.453990 1_544
La0_4 Pt2_6 3.453990 1_545
La0_4 Pt2_4 3.453990 1_555
La0_4 Pt2_5 3.453990 1_554
La0_4 Pt1_4 3.453990 1_555
La0_4 Pt1_5 3.453990 1_554
La0_4 La0_5 4.005904 1_555
La0_4 La0_5 4.005904 1_554
La0_5 Pt0_4 3.453990 1_555
La0_5 Pt0_5 3.453990 1_555
La0_5 Pt0_3 3.453990 1_545
La0_5 Pt0_2 3.453990 1_545
La0_5 Pt1_0 3.453990 1_555
La0_5 Pt1_1 3.453990 1_555
La0_5 Pt2_7 3.453990 1_545
La0_5 Pt2_6 3.453990 1_545
La0_5 Pt2_4 3.453990 1_555
La0_5 Pt2_5 3.453990 1_555
La0_5 Pt1_4 3.453990 1_555
La0_5 Pt1_5 3.453990 1_555
La0_6 Pt0_6 3.453990 1_555
La0_6 Pt0_1 3.453990 1_554
La0_6 Pt0_0 3.453990 1_555
La0_6 Pt0_7 3.453990 1_554
La0_6 Pt1_3 3.453990 1_554
La0_6 Pt1_2 3.453990 1_555
La0_6 Pt1_7 3.453990 1_554
La0_6 Pt2_6 3.453990 1_555
La0_6 Pt1_6 3.453990 1_555
La0_6 Pt2_7 3.453990 1_554
La0_6 Pt2_4 3.453990 1_555
La0_6 Pt2_5 3.453990 1_554
La0_6 La0_7 4.005904 1_554
La0_6 La0_7 4.005904 1_555
La0_7 Pt0_6 3.453990 1_555
La0_7 Pt0_7 3.453990 1_555
La0_7 Pt0_1 3.453990 1_555
La0_7 Pt0_0 3.453990 1_555
La0_7 Pt1_2 3.453990 1_555
La0_7 Pt1_3 3.453990 1_555
La0_7 Pt2_7 3.453990 1_555
La0_7 Pt1_7 3.453990 1_555
La0_7 Pt2_6 3.453990 1_555
La0_7 Pt1_6 3.453990 1_555
La0_7 Pt2_4 3.453990 1_555
La0_7 Pt2_5 3.453990 1_555
Ga0_0 Pt1_1 2.578996 1_554
Ga0_0 Pt2_4 2.578996 1_555
Ga0_0 Pt2_5 2.578996 1_554
Ga0_0 Pt1_0 2.578996 1_555
Ga0_0 Pt0_1 2.578999 1_554
Ga0_0 Pt0_0 2.578999 1_555
Ga0_0 La0_4 3.249250 1_555
Ga0_0 La0_0 3.249254 1_555
Ga0_0 La0_6 3.249254 1_555
Ga0_1 Pt2_4 2.578996 1_555
Ga0_1 Pt2_5 2.578996 1_555
Ga0_1 Pt1_1 2.578996 1_555
Ga0_1 Pt1_0 2.578996 1_555
Ga0_1 Pt0_1 2.578999 1_555
Ga0_1 Pt0_0 2.578999 1_555
Ga0_1 La0_5 3.249250 1_555
Ga0_1 La0_1 3.249254 1_555
Ga0_1 La0_7 3.249254 1_555
Ga0_2 Pt2_6 2.578996 1_555
Ga0_2 Pt2_7 2.578996 1_554
Ga0_2 Pt1_3 2.578996 1_554
Ga0_2 Pt1_2 2.578996 1_555
Ga0_2 Pt0_3 2.578999 1_554
Ga0_2 Pt0_2 2.578999 1_555
Ga0_2 La0_6 3.249250 1_555
Ga0_2 La0_4 3.249254 1_565
Ga0_2 La0_2 3.249254 1_455
Ga0_3 Pt2_6 2.578996 1_555
Ga0_3 Pt2_7 2.578996 1_555
Ga0_3 Pt1_3 2.578996 1_555
Ga0_3 Pt1_2 2.578996 1_555
Ga0_3 Pt0_2 2.578999 1_555
Ga0_3 Pt0_3 2.578999 1_555
Ga0_3 La0_7 3.249250 1_555
Ga0_3 La0_5 3.249254 1_565
Ga0_3 La0_3 3.249254 1_455
Ga0_4 Pt2_0 2.578996 1_655
Ga0_4 Pt1_5 2.578996 1_554
Ga0_4 Pt2_1 2.578996 1_654
Ga0_4 Pt1_4 2.578996 1_555
Ga0_4 Pt0_4 2.578999 1_555
Ga0_4 Pt0_5 2.578999 1_554
Ga0_4 La0_0 3.249250 1_655
Ga0_4 La0_4 3.249254 1_555
Ga0_4 La0_2 3.249254 1_555
Ga0_5 Pt1_5 2.578996 1_555
Ga0_5 Pt2_0 2.578996 1_655
Ga0_5 Pt2_1 2.578996 1_655
Ga0_5 Pt1_4 2.578996 1_555
Ga0_5 Pt0_5 2.578999 1_555
Ga0_5 Pt0_4 2.578999 1_555
Ga0_5 La0_1 3.249250 1_655
Ga0_5 La0_5 3.249254 1_555
Ga0_5 La0_3 3.249254 1_555
Ga0_6 Pt1_6 2.578996 1_555
Ga0_6 Pt2_3 2.578996 1_554
Ga0_6 Pt2_2 2.578996 1_555
Ga0_6 Pt1_7 2.578996 1_554
Ga0_6 Pt0_7 2.578999 1_554
Ga0_6 Pt0_6 2.578999 1_555
Ga0_6 La0_2 3.249250 1_555
Ga0_6 La0_6 3.249254 1_555
Ga0_6 La0_0 3.249254 1_665
Ga0_7 Pt1_6 2.578996 1_555
Ga0_7 Pt2_2 2.578996 1_555
Ga0_7 Pt1_7 2.578996 1_555
Ga0_7 Pt2_3 2.578996 1_555
Ga0_7 Pt0_7 2.578999 1_555
Ga0_7 Pt0_6 2.578999 1_555
Ga0_7 La0_3 3.249250 1_555
Ga0_7 La0_7 3.249254 1_555
Ga0_7 La0_1 3.249254 1_665
Ga1_0 Pt2_1 2.578996 1_554
Ga1_0 Pt2_0 2.578996 1_555
Ga1_0 Pt1_2 2.578996 1_555
Ga1_0 Pt1_3 2.578996 1_554
Ga1_0 Pt0_1 2.578999 1_554
Ga1_0 Pt0_0 2.578999 1_555
Ga1_0 La0_2 3.249250 1_455
Ga1_0 La0_6 3.249254 1_555
Ga1_0 La0_0 3.249254 1_555
Ga1_1 Pt2_0 2.578996 1_555
Ga1_1 Pt2_1 2.578996 1_555
Ga1_1 Pt1_2 2.578996 1_555
Ga1_1 Pt1_3 2.578996 1_555
Ga1_1 Pt0_1 2.578999 1_555
Ga1_1 Pt0_0 2.578999 1_555
Ga1_1 La0_3 3.249250 1_455
Ga1_1 La0_7 3.249254 1_555
Ga1_1 La0_1 3.249254 1_555
Ga1_2 Pt1_0 2.578996 1_565
Ga1_2 Pt1_1 2.578996 1_564
Ga1_2 Pt2_2 2.578996 1_455
Ga1_2 Pt2_3 2.578996 1_454
Ga1_2 Pt0_2 2.578999 1_555
Ga1_2 Pt0_3 2.578999 1_554
Ga1_2 La0_0 3.249250 1_565
Ga1_2 La0_4 3.249254 1_565
Ga1_2 La0_2 3.249254 1_455
Ga1_3 Pt1_0 2.578996 1_565
Ga1_3 Pt1_1 2.578996 1_565
Ga1_3 Pt2_2 2.578996 1_455
Ga1_3 Pt2_3 2.578996 1_455
Ga1_3 Pt0_2 2.578999 1_555
Ga1_3 Pt0_3 2.578999 1_555
Ga1_3 La0_1 3.249250 1_565
Ga1_3 La0_3 3.249254 1_455
Ga1_3 La0_5 3.249254 1_565
Ga1_4 Pt1_7 2.578996 1_554
Ga1_4 Pt2_4 2.578996 1_555
Ga1_4 Pt1_6 2.578996 1_555
Ga1_4 Pt2_5 2.578996 1_554
Ga1_4 Pt0_4 2.578999 1_555
Ga1_4 Pt0_5 2.578999 1_554
Ga1_4 La0_6 3.249250 1_555
Ga1_4 La0_2 3.249254 1_555
Ga1_4 La0_4 3.249254 1_555
Ga1_5 Pt1_7 2.578996 1_555
Ga1_5 Pt2_4 2.578996 1_555
Ga1_5 Pt1_6 2.578996 1_555
Ga1_5 Pt2_5 2.578996 1_555
Ga1_5 Pt0_4 2.578999 1_555
Ga1_5 Pt0_5 2.578999 1_555
Ga1_5 La0_7 3.249250 1_555
Ga1_5 La0_3 3.249254 1_555
Ga1_5 La0_5 3.249254 1_555
Ga1_6 Pt2_7 2.578996 1_554
Ga1_6 Pt1_5 2.578996 1_564
Ga1_6 Pt2_6 2.578996 1_555
Ga1_6 Pt1_4 2.578996 1_565
Ga1_6 Pt0_7 2.578999 1_554
Ga1_6 Pt0_6 2.578999 1_555
Ga1_6 La0_4 3.249250 1_565
Ga1_6 La0_6 3.249254 1_555
Ga1_6 La0_0 3.249254 1_665
Ga1_7 Pt1_5 2.578996 1_565
Ga1_7 Pt2_7 2.578996 1_555
Ga1_7 Pt2_6 2.578996 1_555
Ga1_7 Pt1_4 2.578996 1_565
Ga1_7 Pt0_7 2.578999 1_555
Ga1_7 Pt0_6 2.578999 1_555
Ga1_7 La0_5 3.249250 1_565
Ga1_7 La0_7 3.249254 1_555
Ga1_7 La0_1 3.249254 1_665
Pt0_0 Pt2_0 2.813935 1_555
Pt0_0 Pt1_2 2.813935 1_555
Pt0_0 Pt2_4 2.813935 1_555
Pt0_0 Pt1_0 2.813935 1_555
Pt0_1 Pt2_1 2.813935 1_555
Pt0_1 Pt2_5 2.813935 1_555
Pt0_1 Pt1_3 2.813935 1_555
Pt0_1 Pt1_1 2.813935 1_555
Pt0_2 Pt1_0 2.813935 1_565
Pt0_2 Pt2_2 2.813935 1_455
Pt0_2 Pt2_6 2.813935 1_555
Pt0_2 Pt1_2 2.813935 1_555
Pt0_3 Pt2_3 2.813935 1_455
Pt0_3 Pt1_1 2.813935 1_565
Pt0_3 Pt2_7 2.813935 1_555
Pt0_3 Pt1_3 2.813935 1_555
Pt0_4 Pt2_4 2.813935 1_555
Pt0_4 Pt1_6 2.813935 1_555
Pt0_4 Pt1_4 2.813935 1_555
Pt0_4 Pt2_0 2.813935 1_655
Pt0_5 Pt2_5 2.813935 1_555
Pt0_5 Pt1_7 2.813935 1_555
Pt0_5 Pt1_5 2.813935 1_555
Pt0_5 Pt2_1 2.813935 1_655
Pt0_6 Pt1_4 2.813935 1_565
Pt0_6 Pt1_6 2.813935 1_555
Pt0_6 Pt2_6 2.813935 1_555
Pt0_6 Pt2_2 2.813935 1_555
Pt0_7 Pt1_5 2.813935 1_565
Pt0_7 Pt2_3 2.813935 1_555
Pt0_7 Pt2_7 2.813935 1_555
Pt0_7 Pt1_7 2.813935 1_555
Pt1_0 Pt2_4 2.813935 1_555
Pt1_0 Pt2_2 2.813935 1_445
Pt1_1 Pt2_5 2.813935 1_555
Pt1_1 Pt2_3 2.813935 1_445
Pt1_2 Pt2_6 2.813935 1_555
Pt1_2 Pt2_0 2.813935 1_555
Pt1_3 Pt2_7 2.813935 1_555
Pt1_3 Pt2_1 2.813935 1_555
Pt1_4 Pt2_0 2.813935 1_655
Pt1_4 Pt2_6 2.813935 1_545
Pt1_5 Pt2_1 2.813935 1_655
Pt1_5 Pt2_7 2.813935 1_545
Pt1_6 Pt2_4 2.813935 1_555
Pt1_6 Pt2_2 2.813935 1_555
Pt1_7 Pt2_5 2.813935 1_555
Pt1_7 Pt2_3 2.813935 1_555
