# generated using pymatgen
data_Ir5C3
_symmetry_space_group_name_H-M   'P 1'
_cell_length_a   5.99031400
_cell_length_b   13.84569800
_cell_length_c   21.18144200
_cell_angle_alpha   90.00000000
_cell_angle_beta   90.00000000
_cell_angle_gamma   90.00000000
_symmetry_Int_Tables_number   1
_chemical_formula_structural   Ir5C3
_chemical_formula_sum   'Ir80 C48'
_cell_volume   1756.79046369
_cell_formula_units_Z   16
loop_
 _symmetry_equiv_pos_site_id
 _symmetry_equiv_pos_as_xyz
  1  'x, y, z'
loop_
 _atom_site_type_symbol
 _atom_site_label
 _atom_site_symmetry_multiplicity
 _atom_site_fract_x
 _atom_site_fract_y
 _atom_site_fract_z
 _atom_site_occupancy
  Ir  Ir0_0  1  0.00000000  0.25000000  0.25000000  1
  Ir  Ir0_1  1  0.00000000  0.25000000  0.75000000  1
  Ir  Ir0_2  1  0.00000000  0.75000000  0.25000000  1
  Ir  Ir0_3  1  0.00000000  0.75000000  0.75000000  1
  Ir  Ir0_4  1  0.50000000  0.25000000  0.25000000  1
  Ir  Ir0_5  1  0.50000000  0.25000000  0.75000000  1
  Ir  Ir0_6  1  0.50000000  0.75000000  0.25000000  1
  Ir  Ir0_7  1  0.50000000  0.75000000  0.75000000  1
  Ir  Ir1_0  1  0.00000000  0.00000000  0.00000000  1
  Ir  Ir1_1  1  0.00000000  0.00000000  0.50000000  1
  Ir  Ir1_2  1  0.00000000  0.50000000  0.00000000  1
  Ir  Ir1_3  1  0.00000000  0.50000000  0.50000000  1
  Ir  Ir1_4  1  0.50000000  0.00000000  0.00000000  1
  Ir  Ir1_5  1  0.50000000  0.00000000  0.50000000  1
  Ir  Ir1_6  1  0.50000000  0.50000000  0.00000000  1
  Ir  Ir1_7  1  0.50000000  0.50000000  0.50000000  1
  Ir  Ir2_0  1  0.25000000  0.38906250  0.18806350  1
  Ir  Ir2_1  1  0.25000000  0.38906250  0.68806350  1
  Ir  Ir2_2  1  0.25000000  0.88906250  0.18806350  1
  Ir  Ir2_3  1  0.25000000  0.88906250  0.68806350  1
  Ir  Ir2_4  1  0.75000000  0.38906250  0.18806350  1
  Ir  Ir2_5  1  0.75000000  0.38906250  0.68806350  1
  Ir  Ir2_6  1  0.75000000  0.88906250  0.18806350  1
  Ir  Ir2_7  1  0.75000000  0.88906250  0.68806350  1
  Ir  Ir3_0  1  0.25000000  0.11093750  0.31193650  1
  Ir  Ir3_1  1  0.25000000  0.11093750  0.81193650  1
  Ir  Ir3_2  1  0.25000000  0.61093750  0.31193650  1
  Ir  Ir3_3  1  0.25000000  0.61093750  0.81193650  1
  Ir  Ir3_4  1  0.75000000  0.11093750  0.31193650  1
  Ir  Ir3_5  1  0.75000000  0.11093750  0.81193650  1
  Ir  Ir3_6  1  0.75000000  0.61093750  0.31193650  1
  Ir  Ir3_7  1  0.75000000  0.61093750  0.81193650  1
  Ir  Ir4_0  1  0.25000000  0.13906250  0.06193650  1
  Ir  Ir4_1  1  0.25000000  0.13906250  0.56193650  1
  Ir  Ir4_2  1  0.25000000  0.63906250  0.06193650  1
  Ir  Ir4_3  1  0.25000000  0.63906250  0.56193650  1
  Ir  Ir4_4  1  0.75000000  0.13906250  0.06193650  1
  Ir  Ir4_5  1  0.75000000  0.13906250  0.56193650  1
  Ir  Ir4_6  1  0.75000000  0.63906250  0.06193650  1
  Ir  Ir4_7  1  0.75000000  0.63906250  0.56193650  1
  Ir  Ir5_0  1  0.25000000  0.36093750  0.43806350  1
  Ir  Ir5_1  1  0.25000000  0.36093750  0.93806350  1
  Ir  Ir5_2  1  0.25000000  0.86093750  0.43806350  1
  Ir  Ir5_3  1  0.25000000  0.86093750  0.93806350  1
  Ir  Ir5_4  1  0.75000000  0.36093750  0.43806350  1
  Ir  Ir5_5  1  0.75000000  0.36093750  0.93806350  1
  Ir  Ir5_6  1  0.75000000  0.86093750  0.43806350  1
  Ir  Ir5_7  1  0.75000000  0.86093750  0.93806350  1
  Ir  Ir6_0  1  0.25000000  0.36285850  0.06232050  1
  Ir  Ir6_1  1  0.25000000  0.36285850  0.56232050  1
  Ir  Ir6_2  1  0.25000000  0.86285850  0.06232050  1
  Ir  Ir6_3  1  0.25000000  0.86285850  0.56232050  1
  Ir  Ir6_4  1  0.75000000  0.36285850  0.06232050  1
  Ir  Ir6_5  1  0.75000000  0.36285850  0.56232050  1
  Ir  Ir6_6  1  0.75000000  0.86285850  0.06232050  1
  Ir  Ir6_7  1  0.75000000  0.86285850  0.56232050  1
  Ir  Ir7_0  1  0.25000000  0.13714150  0.43767950  1
  Ir  Ir7_1  1  0.25000000  0.13714150  0.93767950  1
  Ir  Ir7_2  1  0.25000000  0.63714150  0.43767950  1
  Ir  Ir7_3  1  0.25000000  0.63714150  0.93767950  1
  Ir  Ir7_4  1  0.75000000  0.13714150  0.43767950  1
  Ir  Ir7_5  1  0.75000000  0.13714150  0.93767950  1
  Ir  Ir7_6  1  0.75000000  0.63714150  0.43767950  1
  Ir  Ir7_7  1  0.75000000  0.63714150  0.93767950  1
  Ir  Ir8_0  1  0.25000000  0.11285850  0.18767950  1
  Ir  Ir8_1  1  0.25000000  0.11285850  0.68767950  1
  Ir  Ir8_2  1  0.25000000  0.61285850  0.18767950  1
  Ir  Ir8_3  1  0.25000000  0.61285850  0.68767950  1
  Ir  Ir8_4  1  0.75000000  0.11285850  0.18767950  1
  Ir  Ir8_5  1  0.75000000  0.11285850  0.68767950  1
  Ir  Ir8_6  1  0.75000000  0.61285850  0.18767950  1
  Ir  Ir8_7  1  0.75000000  0.61285850  0.68767950  1
  Ir  Ir9_0  1  0.25000000  0.38714150  0.31232050  1
  Ir  Ir9_1  1  0.25000000  0.38714150  0.81232050  1
  Ir  Ir9_2  1  0.25000000  0.88714150  0.31232050  1
  Ir  Ir9_3  1  0.25000000  0.88714150  0.81232050  1
  Ir  Ir9_4  1  0.75000000  0.38714150  0.31232050  1
  Ir  Ir9_5  1  0.75000000  0.38714150  0.81232050  1
  Ir  Ir9_6  1  0.75000000  0.88714150  0.31232050  1
  Ir  Ir9_7  1  0.75000000  0.88714150  0.81232050  1
  C  C0_0  1  0.25000000  0.25000000  0.00000000  1
  C  C0_1  1  0.25000000  0.25000000  0.50000000  1
  C  C0_2  1  0.25000000  0.75000000  0.00000000  1
  C  C0_3  1  0.25000000  0.75000000  0.50000000  1
  C  C0_4  1  0.75000000  0.25000000  0.00000000  1
  C  C0_5  1  0.75000000  0.25000000  0.50000000  1
  C  C0_6  1  0.75000000  0.75000000  0.00000000  1
  C  C0_7  1  0.75000000  0.75000000  0.50000000  1
  C  C1_0  1  0.25000000  0.00000000  0.25000000  1
  C  C1_1  1  0.25000000  0.00000000  0.75000000  1
  C  C1_2  1  0.25000000  0.50000000  0.25000000  1
  C  C1_3  1  0.25000000  0.50000000  0.75000000  1
  C  C1_4  1  0.75000000  0.00000000  0.25000000  1
  C  C1_5  1  0.75000000  0.00000000  0.75000000  1
  C  C1_6  1  0.75000000  0.50000000  0.25000000  1
  C  C1_7  1  0.75000000  0.50000000  0.75000000  1
  C  C2_0  1  0.00000000  0.37610600  0.12495950  1
  C  C2_1  1  0.00000000  0.37610600  0.62495950  1
  C  C2_2  1  0.00000000  0.87610600  0.12495950  1
  C  C2_3  1  0.00000000  0.87610600  0.62495950  1
  C  C2_4  1  0.50000000  0.37610600  0.12495950  1
  C  C2_5  1  0.50000000  0.37610600  0.62495950  1
  C  C2_6  1  0.50000000  0.87610600  0.12495950  1
  C  C2_7  1  0.50000000  0.87610600  0.62495950  1
  C  C3_0  1  0.00000000  0.12389400  0.37504050  1
  C  C3_1  1  0.00000000  0.12389400  0.87504050  1
  C  C3_2  1  0.00000000  0.62389400  0.37504050  1
  C  C3_3  1  0.00000000  0.62389400  0.87504050  1
  C  C3_4  1  0.50000000  0.12389400  0.37504050  1
  C  C3_5  1  0.50000000  0.12389400  0.87504050  1
  C  C3_6  1  0.50000000  0.62389400  0.37504050  1
  C  C3_7  1  0.50000000  0.62389400  0.87504050  1
  C  C4_0  1  0.00000000  0.12610600  0.12504050  1
  C  C4_1  1  0.00000000  0.12610600  0.62504050  1
  C  C4_2  1  0.00000000  0.62610600  0.12504050  1
  C  C4_3  1  0.00000000  0.62610600  0.62504050  1
  C  C4_4  1  0.50000000  0.12610600  0.12504050  1
  C  C4_5  1  0.50000000  0.12610600  0.62504050  1
  C  C4_6  1  0.50000000  0.62610600  0.12504050  1
  C  C4_7  1  0.50000000  0.62610600  0.62504050  1
  C  C5_0  1  0.00000000  0.37389400  0.37495950  1
  C  C5_1  1  0.00000000  0.37389400  0.87495950  1
  C  C5_2  1  0.00000000  0.87389400  0.37495950  1
  C  C5_3  1  0.00000000  0.87389400  0.87495950  1
  C  C5_4  1  0.50000000  0.37389400  0.37495950  1
  C  C5_5  1  0.50000000  0.37389400  0.87495950  1
  C  C5_6  1  0.50000000  0.87389400  0.37495950  1
  C  C5_7  1  0.50000000  0.87389400  0.87495950  1
loop_
_geom_bond_atom_site_label_1
_geom_bond_atom_site_label_2
_geom_bond_distance
_geom_bond_site_symmetry_2
Ir0_0 Ir9_4 2.755133 1_455
Ir0_0 Ir9_0 2.755133 1_555
Ir0_0 Ir8_4 2.755133 1_455
Ir0_0 Ir8_0 2.755133 1_555
Ir0_0 Ir2_4 2.769669 1_455
Ir0_0 Ir2_0 2.769669 1_555
Ir0_0 Ir3_4 2.769669 1_455
Ir0_0 Ir3_0 2.769669 1_555
Ir0_0 Ir0_4 2.995157 1_455
Ir0_0 Ir0_4 2.995157 1_555
Ir0_1 Ir9_5 2.755133 1_455
Ir0_1 Ir9_1 2.755133 1_555
Ir0_1 Ir8_5 2.755133 1_455
Ir0_1 Ir8_1 2.755133 1_555
Ir0_1 Ir2_5 2.769669 1_455
Ir0_1 Ir2_1 2.769669 1_555
Ir0_1 Ir3_5 2.769669 1_455
Ir0_1 Ir3_1 2.769669 1_555
Ir0_1 Ir0_5 2.995157 1_555
Ir0_1 Ir0_5 2.995157 1_455
Ir0_2 Ir9_6 2.755133 1_455
Ir0_2 Ir9_2 2.755133 1_555
Ir0_2 Ir8_6 2.755133 1_455
Ir0_2 Ir8_2 2.755133 1_555
Ir0_2 Ir2_6 2.769669 1_455
Ir0_2 Ir2_2 2.769669 1_555
Ir0_2 Ir3_6 2.769669 1_455
Ir0_2 Ir3_2 2.769669 1_555
Ir0_2 Ir0_6 2.995157 1_455
Ir0_2 Ir0_6 2.995157 1_555
Ir0_3 Ir9_7 2.755133 1_455
Ir0_3 Ir9_3 2.755133 1_555
Ir0_3 Ir8_7 2.755133 1_455
Ir0_3 Ir8_3 2.755133 1_555
Ir0_3 Ir2_7 2.769669 1_455
Ir0_3 Ir2_3 2.769669 1_555
Ir0_3 Ir3_7 2.769669 1_455
Ir0_3 Ir3_3 2.769669 1_555
Ir0_3 Ir0_7 2.995157 1_455
Ir0_3 Ir0_7 2.995157 1_555
Ir0_4 Ir9_0 2.755133 1_555
Ir0_4 Ir9_4 2.755133 1_555
Ir0_4 Ir8_4 2.755133 1_555
Ir0_4 Ir8_0 2.755133 1_555
Ir0_4 Ir2_0 2.769669 1_555
Ir0_4 Ir3_0 2.769669 1_555
Ir0_4 Ir2_4 2.769669 1_555
Ir0_4 Ir3_4 2.769669 1_555
Ir0_5 Ir9_1 2.755133 1_555
Ir0_5 Ir9_5 2.755133 1_555
Ir0_5 Ir8_5 2.755133 1_555
Ir0_5 Ir8_1 2.755133 1_555
Ir0_5 Ir2_1 2.769669 1_555
Ir0_5 Ir2_5 2.769669 1_555
Ir0_5 Ir3_1 2.769669 1_555
Ir0_5 Ir3_5 2.769669 1_555
Ir0_6 Ir9_2 2.755133 1_555
Ir0_6 Ir9_6 2.755133 1_555
Ir0_6 Ir8_2 2.755133 1_555
Ir0_6 Ir8_6 2.755133 1_555
Ir0_6 Ir2_2 2.769669 1_555
Ir0_6 Ir2_6 2.769669 1_555
Ir0_6 Ir3_2 2.769669 1_555
Ir0_6 Ir3_6 2.769669 1_555
Ir0_7 Ir9_7 2.755133 1_555
Ir0_7 Ir9_3 2.755133 1_555
Ir0_7 Ir8_7 2.755133 1_555
Ir0_7 Ir8_3 2.755133 1_555
Ir0_7 Ir2_3 2.769669 1_555
Ir0_7 Ir2_7 2.769669 1_555
Ir0_7 Ir3_3 2.769669 1_555
Ir0_7 Ir3_7 2.769669 1_555
Ir1_0 Ir6_6 2.755133 1_445
Ir1_0 Ir6_2 2.755133 1_545
Ir1_0 Ir7_5 2.755133 1_454
Ir1_0 Ir7_1 2.755133 1_554
Ir1_0 Ir4_4 2.769669 1_455
Ir1_0 Ir4_0 2.769669 1_555
Ir1_0 Ir5_7 2.769669 1_444
Ir1_0 Ir5_3 2.769669 1_544
Ir1_0 Ir1_4 2.995157 1_555
Ir1_0 Ir1_4 2.995157 1_455
Ir1_1 Ir6_7 2.755133 1_445
Ir1_1 Ir6_3 2.755133 1_545
Ir1_1 Ir7_4 2.755133 1_455
Ir1_1 Ir7_0 2.755133 1_555
Ir1_1 Ir4_5 2.769669 1_455
Ir1_1 Ir4_1 2.769669 1_555
Ir1_1 Ir5_6 2.769669 1_445
Ir1_1 Ir5_2 2.769669 1_545
Ir1_1 Ir1_5 2.995157 1_555
Ir1_1 Ir1_5 2.995157 1_455
Ir1_2 Ir6_4 2.755133 1_455
Ir1_2 Ir6_0 2.755133 1_555
Ir1_2 Ir7_7 2.755133 1_454
Ir1_2 Ir7_3 2.755133 1_554
Ir1_2 Ir4_6 2.769669 1_455
Ir1_2 Ir4_2 2.769669 1_555
Ir1_2 Ir5_5 2.769669 1_454
Ir1_2 Ir5_1 2.769669 1_554
Ir1_2 Ir1_6 2.995157 1_555
Ir1_2 Ir1_6 2.995157 1_455
Ir1_3 Ir6_5 2.755133 1_455
Ir1_3 Ir6_1 2.755133 1_555
Ir1_3 Ir7_6 2.755133 1_455
Ir1_3 Ir7_2 2.755133 1_555
Ir1_3 Ir4_7 2.769669 1_455
Ir1_3 Ir4_3 2.769669 1_555
Ir1_3 Ir5_4 2.769669 1_455
Ir1_3 Ir5_0 2.769669 1_555
Ir1_3 Ir1_7 2.995157 1_555
Ir1_3 Ir1_7 2.995157 1_455
Ir1_4 Ir6_2 2.755133 1_545
Ir1_4 Ir6_6 2.755133 1_545
Ir1_4 Ir7_1 2.755133 1_554
Ir1_4 Ir7_5 2.755133 1_554
Ir1_4 Ir4_0 2.769669 1_555
Ir1_4 Ir4_4 2.769669 1_555
Ir1_4 Ir5_7 2.769669 1_544
Ir1_4 Ir5_3 2.769669 1_544
Ir1_5 Ir6_7 2.755133 1_545
Ir1_5 Ir6_3 2.755133 1_545
Ir1_5 Ir7_0 2.755133 1_555
Ir1_5 Ir7_4 2.755133 1_555
Ir1_5 Ir4_1 2.769669 1_555
Ir1_5 Ir4_5 2.769669 1_555
Ir1_5 Ir5_2 2.769669 1_545
Ir1_5 Ir5_6 2.769669 1_545
Ir1_6 Ir6_0 2.755133 1_555
Ir1_6 Ir6_4 2.755133 1_555
Ir1_6 Ir7_3 2.755133 1_554
Ir1_6 Ir7_7 2.755133 1_554
Ir1_6 Ir4_2 2.769669 1_555
Ir1_6 Ir4_6 2.769669 1_555
Ir1_6 Ir5_1 2.769669 1_554
Ir1_6 Ir5_5 2.769669 1_554
Ir1_7 Ir6_1 2.755133 1_555
Ir1_7 Ir6_5 2.755133 1_555
Ir1_7 Ir7_2 2.755133 1_555
Ir1_7 Ir7_6 2.755133 1_555
Ir1_7 Ir4_7 2.769669 1_555
Ir1_7 Ir4_3 2.769669 1_555
Ir1_7 Ir5_0 2.769669 1_555
Ir1_7 Ir5_4 2.769669 1_555
C0_0 Ir5_1 2.020003 1_554
C0_0 Ir4_0 2.020003 1_555
C0_0 Ir6_0 2.045540 1_555
C0_0 Ir7_1 2.045540 1_554
C0_1 Ir5_0 2.020003 1_555
C0_1 Ir4_1 2.020003 1_555
C0_1 Ir6_1 2.045540 1_555
C0_1 Ir7_0 2.045540 1_555
C0_2 Ir5_3 2.020003 1_554
C0_2 Ir4_2 2.020003 1_555
C0_2 Ir6_2 2.045540 1_555
C0_2 Ir7_3 2.045540 1_554
C0_3 Ir5_2 2.020003 1_555
C0_3 Ir4_3 2.020003 1_555
C0_3 Ir6_3 2.045540 1_555
C0_3 Ir7_2 2.045540 1_555
C0_4 Ir5_5 2.020003 1_554
C0_4 Ir4_4 2.020003 1_555
C0_4 Ir6_4 2.045540 1_555
C0_4 Ir7_5 2.045540 1_554
C0_5 Ir5_4 2.020003 1_555
C0_5 Ir4_5 2.020003 1_555
C0_5 Ir6_5 2.045540 1_555
C0_5 Ir7_4 2.045540 1_555
C0_6 Ir5_7 2.020003 1_554
C0_6 Ir4_6 2.020003 1_555
C0_6 Ir6_6 2.045540 1_555
C0_6 Ir7_7 2.045540 1_554
C0_7 Ir5_6 2.020003 1_555
C0_7 Ir4_7 2.020003 1_555
C0_7 Ir6_7 2.045540 1_555
C0_7 Ir7_6 2.045540 1_555
C1_0 Ir3_0 2.020003 1_555
C1_0 Ir2_2 2.020003 1_545
C1_0 Ir8_0 2.045540 1_555
C1_0 Ir9_2 2.045540 1_545
C1_1 Ir2_3 2.020003 1_545
C1_1 Ir3_1 2.020003 1_555
C1_1 Ir8_1 2.045540 1_555
C1_1 Ir9_3 2.045540 1_545
C1_2 Ir3_2 2.020003 1_555
C1_2 Ir2_0 2.020003 1_555
C1_2 Ir8_2 2.045540 1_555
C1_2 Ir9_0 2.045540 1_555
C1_3 Ir2_1 2.020003 1_555
C1_3 Ir3_3 2.020003 1_555
C1_3 Ir8_3 2.045540 1_555
C1_3 Ir9_1 2.045540 1_555
C1_4 Ir3_4 2.020003 1_555
C1_4 Ir2_6 2.020003 1_545
C1_4 Ir8_4 2.045540 1_555
C1_4 Ir9_6 2.045540 1_545
C1_5 Ir2_7 2.020003 1_545
C1_5 Ir3_5 2.020003 1_555
C1_5 Ir8_5 2.045540 1_555
C1_5 Ir9_7 2.045540 1_545
C1_6 Ir3_6 2.020003 1_555
C1_6 Ir2_4 2.020003 1_555
C1_6 Ir8_6 2.045540 1_555
C1_6 Ir9_4 2.045540 1_555
C1_7 Ir2_5 2.020003 1_555
C1_7 Ir3_7 2.020003 1_555
C1_7 Ir8_7 2.045540 1_555
C1_7 Ir9_5 2.045540 1_555
C2_0 Ir6_4 2.009164 1_455
C2_0 Ir6_0 2.009164 1_555
C2_0 Ir2_4 2.015319 1_455
C2_0 Ir2_0 2.015319 1_555
C2_1 Ir6_5 2.009164 1_455
C2_1 Ir6_1 2.009164 1_555
C2_1 Ir2_5 2.015319 1_455
C2_1 Ir2_1 2.015319 1_555
C2_2 Ir6_6 2.009164 1_455
C2_2 Ir6_2 2.009164 1_555
C2_2 Ir2_6 2.015319 1_455
C2_2 Ir2_2 2.015319 1_555
C2_3 Ir6_7 2.009164 1_455
C2_3 Ir6_3 2.009164 1_555
C2_3 Ir2_7 2.015319 1_455
C2_3 Ir2_3 2.015319 1_555
C2_4 Ir6_0 2.009164 1_555
C2_4 Ir6_4 2.009164 1_555
C2_4 Ir2_0 2.015319 1_555
C2_4 Ir2_4 2.015319 1_555
C2_5 Ir6_1 2.009164 1_555
C2_5 Ir6_5 2.009164 1_555
C2_5 Ir2_1 2.015319 1_555
C2_5 Ir2_5 2.015319 1_555
C2_6 Ir6_2 2.009164 1_555
C2_6 Ir6_6 2.009164 1_555
C2_6 Ir2_2 2.015319 1_555
C2_6 Ir2_6 2.015319 1_555
C2_7 Ir6_3 2.009164 1_555
C2_7 Ir6_7 2.009164 1_555
C2_7 Ir2_3 2.015319 1_555
C2_7 Ir2_7 2.015319 1_555
C3_0 Ir7_4 2.009164 1_455
C3_0 Ir7_0 2.009164 1_555
C3_0 Ir3_4 2.015319 1_455
C3_0 Ir3_0 2.015319 1_555
C3_1 Ir7_5 2.009164 1_455
C3_1 Ir7_1 2.009164 1_555
C3_1 Ir3_5 2.015319 1_455
C3_1 Ir3_1 2.015319 1_555
C3_2 Ir7_6 2.009164 1_455
C3_2 Ir7_2 2.009164 1_555
C3_2 Ir3_6 2.015319 1_455
C3_2 Ir3_2 2.015319 1_555
C3_3 Ir7_7 2.009164 1_455
C3_3 Ir7_3 2.009164 1_555
C3_3 Ir3_7 2.015319 1_455
C3_3 Ir3_3 2.015319 1_555
C3_4 Ir7_0 2.009164 1_555
C3_4 Ir7_4 2.009164 1_555
C3_4 Ir3_0 2.015319 1_555
C3_4 Ir3_4 2.015319 1_555
C3_5 Ir7_1 2.009164 1_555
C3_5 Ir7_5 2.009164 1_555
C3_5 Ir3_1 2.015319 1_555
C3_5 Ir3_5 2.015319 1_555
C3_6 Ir7_2 2.009164 1_555
C3_6 Ir7_6 2.009164 1_555
C3_6 Ir3_2 2.015319 1_555
C3_6 Ir3_6 2.015319 1_555
C3_7 Ir7_3 2.009164 1_555
C3_7 Ir7_7 2.009164 1_555
C3_7 Ir3_3 2.015319 1_555
C3_7 Ir3_7 2.015319 1_555
C4_0 Ir8_4 2.009164 1_455
C4_0 Ir8_0 2.009164 1_555
C4_0 Ir4_4 2.015319 1_455
C4_0 Ir4_0 2.015319 1_555
C4_1 Ir8_5 2.009164 1_455
C4_1 Ir8_1 2.009164 1_555
C4_1 Ir4_5 2.015319 1_455
C4_1 Ir4_1 2.015319 1_555
C4_2 Ir8_6 2.009164 1_455
C4_2 Ir8_2 2.009164 1_555
C4_2 Ir4_6 2.015319 1_455
C4_2 Ir4_2 2.015319 1_555
C4_3 Ir8_7 2.009164 1_455
C4_3 Ir8_3 2.009164 1_555
C4_3 Ir4_7 2.015319 1_455
C4_3 Ir4_3 2.015319 1_555
C4_4 Ir8_0 2.009164 1_555
C4_4 Ir8_4 2.009164 1_555
C4_4 Ir4_0 2.015319 1_555
C4_4 Ir4_4 2.015319 1_555
C4_5 Ir8_1 2.009164 1_555
C4_5 Ir8_5 2.009164 1_555
C4_5 Ir4_1 2.015319 1_555
C4_5 Ir4_5 2.015319 1_555
C4_6 Ir8_2 2.009164 1_555
C4_6 Ir8_6 2.009164 1_555
C4_6 Ir4_2 2.015319 1_555
C4_6 Ir4_6 2.015319 1_555
C4_7 Ir8_3 2.009164 1_555
C4_7 Ir8_7 2.009164 1_555
C4_7 Ir4_3 2.015319 1_555
C4_7 Ir4_7 2.015319 1_555
C5_0 Ir9_4 2.009164 1_455
C5_0 Ir9_0 2.009164 1_555
C5_0 Ir5_4 2.015319 1_455
C5_0 Ir5_0 2.015319 1_555
C5_1 Ir9_5 2.009164 1_455
C5_1 Ir9_1 2.009164 1_555
C5_1 Ir5_5 2.015319 1_455
C5_1 Ir5_1 2.015319 1_555
C5_2 Ir9_6 2.009164 1_455
C5_2 Ir9_2 2.009164 1_555
C5_2 Ir5_6 2.015319 1_455
C5_2 Ir5_2 2.015319 1_555
C5_3 Ir9_7 2.009164 1_455
C5_3 Ir9_3 2.009164 1_555
C5_3 Ir5_7 2.015319 1_455
C5_3 Ir5_3 2.015319 1_555
C5_4 Ir9_0 2.009164 1_555
C5_4 Ir9_4 2.009164 1_555
C5_4 Ir5_0 2.015319 1_555
C5_4 Ir5_4 2.015319 1_555
C5_5 Ir9_1 2.009164 1_555
C5_5 Ir9_5 2.009164 1_555
C5_5 Ir5_1 2.015319 1_555
C5_5 Ir5_5 2.015319 1_555
C5_6 Ir9_2 2.009164 1_555
C5_6 Ir9_6 2.009164 1_555
C5_6 Ir5_2 2.015319 1_555
C5_6 Ir5_6 2.015319 1_555
C5_7 Ir9_3 2.009164 1_555
C5_7 Ir9_7 2.009164 1_555
C5_7 Ir5_3 2.015319 1_555
C5_7 Ir5_7 2.015319 1_555
