# generated using pymatgen
data_Tb3Ru
_symmetry_space_group_name_H-M   'P 1'
_cell_length_a   6.36404193
_cell_length_b   7.28476811
_cell_length_c   9.19482205
_cell_angle_alpha   90.00215753
_cell_angle_beta   89.99997752
_cell_angle_gamma   90.00000000
_symmetry_Int_Tables_number   1
_chemical_formula_structural   Tb3Ru
_chemical_formula_sum   'Tb12 Ru4'
_cell_volume   426.27718840
_cell_formula_units_Z   4
loop_
 _symmetry_equiv_pos_site_id
 _symmetry_equiv_pos_as_xyz
  1  'x, y, z'
loop_
 _atom_site_type_symbol
 _atom_site_label
 _atom_site_symmetry_multiplicity
 _atom_site_fract_x
 _atom_site_fract_y
 _atom_site_fract_z
 _atom_site_occupancy
  Tb  Tb0  1  0.32867304  0.67547334  0.06548753  1
  Tb  Tb1  1  0.17133407  0.17547096  0.43451182  1
  Tb  Tb2  1  0.67133848  0.32455562  0.56549578  1
  Tb  Tb3  1  0.82866786  0.82455380  0.93450474  1
  Tb  Tb4  1  0.67133214  0.32455280  0.93450474  1
  Tb  Tb5  1  0.82866052  0.82455662  0.56549478  1
  Tb  Tb6  1  0.32866593  0.67546996  0.43451182  1
  Tb  Tb7  1  0.17132696  0.17547334  0.06548753  1
  Tb  Tb8  1  0.86687453  0.54464310  0.25001012  1
  Tb  Tb9  1  0.63312647  0.04464310  0.25001012  1
  Tb  Tb10  1  0.13311373  0.45533882  0.74999009  1
  Tb  Tb11  1  0.36688727  0.95533882  0.74999009  1
  Ru  Ru0  1  0.03393992  0.88690376  0.24999940  1
  Ru  Ru1  1  0.46606008  0.38690376  0.24999940  1
  Ru  Ru2  1  0.96601225  0.11306260  0.75000052  1
  Ru  Ru3  1  0.53398675  0.61306260  0.75000052  1
loop_
_geom_bond_atom_site_label_1
_geom_bond_atom_site_label_2
_geom_bond_distance
_geom_bond_site_symmetry_2
Ru0 Tb8 2.710519 1_455
Ru0 Tb9 2.797672 1_465
Ru0 Tb1 2.839296 1_565
Ru0 Tb7 2.839386 1_565
Ru0 Tb0 2.961183 1_555
Ru0 Tb6 2.961238 1_555
Ru0 Tb3 3.213737 1_454
Ru0 Tb5 3.213789 1_455
Ru1 Tb9 2.710521 1_555
Ru1 Tb8 2.797677 1_555
Ru1 Tb6 2.839290 1_555
Ru1 Tb0 2.839387 1_555
Ru1 Tb7 2.961184 1_555
Ru1 Tb1 2.961233 1_555
Ru1 Tb4 3.213737 1_554
Ru1 Tb2 3.213796 1_555
Ru2 Tb10 2.710713 1_655
Ru2 Tb11 2.797982 1_645
Ru2 Tb5 2.838846 1_545
Ru2 Tb3 2.838933 1_545
Ru2 Tb4 2.961156 1_555
Ru2 Tb2 2.961211 1_555
Ru2 Tb7 3.213846 1_656
Ru2 Tb1 3.213906 1_655
Ru3 Tb11 2.710708 1_555
Ru3 Tb10 2.797971 1_555
Ru3 Tb2 2.838846 1_555
Ru3 Tb4 2.838941 1_555
Ru3 Tb3 2.961164 1_555
Ru3 Tb5 2.961219 1_555
Ru3 Tb0 3.213843 1_556
Ru3 Tb6 3.213903 1_555
