# generated using pymatgen
data_CeGaAg
_symmetry_space_group_name_H-M   'P 1'
_cell_length_a   4.68280800
_cell_length_b   7.47630100
_cell_length_c   7.79077500
_cell_angle_alpha   90.00000000
_cell_angle_beta   90.00000000
_cell_angle_gamma   90.00000000
_symmetry_Int_Tables_number   1
_chemical_formula_structural   CeGaAg
_chemical_formula_sum   'Ce4 Ga4 Ag4'
_cell_volume   272.75567263
_cell_formula_units_Z   4
loop_
 _symmetry_equiv_pos_site_id
 _symmetry_equiv_pos_as_xyz
  1  'x, y, z'
loop_
 _atom_site_type_symbol
 _atom_site_label
 _atom_site_symmetry_multiplicity
 _atom_site_fract_x
 _atom_site_fract_y
 _atom_site_fract_z
 _atom_site_occupancy
  Ce  Ce0  1  0.75000000  0.00340400  0.29647200  1
  Ce  Ce1  1  0.25000000  0.00340400  0.70352800  1
  Ce  Ce2  1  0.75000000  0.49636200  0.20290000  1
  Ce  Ce3  1  0.25000000  0.49636200  0.79710000  1
  Ga  Ga0  1  0.75000000  0.70921900  0.58416500  1
  Ga  Ga1  1  0.25000000  0.70921900  0.41583500  1
  Ga  Ga2  1  0.75000000  0.79165500  0.91611600  1
  Ga  Ga3  1  0.25000000  0.79165500  0.08388400  1
  Ag  Ag0  1  0.75000000  0.32602300  0.58952700  1
  Ag  Ag1  1  0.25000000  0.32602300  0.41047300  1
  Ag  Ag2  1  0.75000000  0.17323700  0.91040800  1
  Ag  Ag3  1  0.25000000  0.17323700  0.08959200  1
loop_
_geom_bond_atom_site_label_1
_geom_bond_atom_site_label_2
_geom_bond_distance
_geom_bond_site_symmetry_2
Ce0 Ga0 3.140236 1_545
Ce0 Ga3 3.275890 1_545
Ce0 Ga3 3.275890 1_645
Ce0 Ga1 3.344304 1_545
Ce0 Ga1 3.344304 1_645
Ce0 Ga2 3.359637 1_544
Ce1 Ga1 3.140236 1_545
Ce1 Ga2 3.275890 1_545
Ce1 Ga2 3.275890 1_445
Ce1 Ga0 3.344304 1_545
Ce1 Ga0 3.344304 1_445
Ce1 Ga3 3.359637 1_546
Ce2 Ga2 3.141003 1_554
Ce2 Ga1 3.281268 1_655
Ce2 Ga1 3.281268 1_555
Ce2 Ga3 3.349009 1_555
Ce2 Ga3 3.349009 1_655
Ce2 Ga0 3.369789 1_555
Ce3 Ga3 3.141003 1_556
Ce3 Ga0 3.281268 1_555
Ce3 Ga0 3.281268 1_455
Ce3 Ga2 3.349009 1_455
Ce3 Ga2 3.349009 1_555
Ce3 Ga1 3.369789 1_555
Ga0 Ga2 2.658580 1_555
Ga0 Ga1 2.683654 1_655
Ga0 Ga1 2.683654 1_555
Ga1 Ga3 2.658580 1_555
Ga2 Ga3 2.681517 1_556
Ga2 Ga3 2.681517 1_656
Ag0 Ag1 2.725456 1_655
Ag0 Ag1 2.725456 1_555
Ag0 Ag2 2.748518 1_555
Ag0 Ga0 2.865193 1_555
Ag0 Ce3 3.117560 1_555
Ag0 Ce3 3.117560 1_655
Ag0 Ce2 3.270276 1_555
Ag0 Ce0 3.321203 1_555
Ag0 Ce1 3.476884 1_555
Ag0 Ce1 3.476884 1_655
Ag1 Ag3 2.748518 1_555
Ag1 Ga1 2.865193 1_555
Ag1 Ce2 3.117560 1_455
Ag1 Ce2 3.117560 1_555
Ag1 Ce3 3.270276 1_555
Ag1 Ce1 3.321203 1_555
Ag1 Ce0 3.476884 1_455
Ag1 Ce0 3.476884 1_555
Ag2 Ag3 2.725975 1_556
Ag2 Ag3 2.725975 1_656
Ag2 Ga2 2.853168 1_545
Ag2 Ce1 3.113218 1_555
Ag2 Ce1 3.113218 1_655
Ag2 Ce0 3.264764 1_556
Ag2 Ce2 3.320940 1_556
Ag2 Ce3 3.478135 1_555
Ag2 Ce3 3.478135 1_655
Ag3 Ga3 2.853168 1_545
Ag3 Ce0 3.113218 1_455
Ag3 Ce0 3.113218 1_555
Ag3 Ce1 3.264764 1_554
Ag3 Ce3 3.320940 1_554
Ag3 Ce2 3.478135 1_555
Ag3 Ce2 3.478135 1_455
