# generated using pymatgen
data_BaCu9Si4
_symmetry_space_group_name_H-M   'P 1'
_cell_length_a   8.25774206
_cell_length_b   8.25774206
_cell_length_c   8.25774206
_cell_angle_alpha   120.27927229
_cell_angle_beta   120.27927229
_cell_angle_gamma   89.51696302
_symmetry_Int_Tables_number   1
_chemical_formula_structural   BaCu9Si4
_chemical_formula_sum   'Ba2 Cu18 Si8'
_cell_volume   396.47434553
_cell_formula_units_Z   2
loop_
 _symmetry_equiv_pos_site_id
 _symmetry_equiv_pos_as_xyz
  1  'x, y, z'
loop_
 _atom_site_type_symbol
 _atom_site_label
 _atom_site_symmetry_multiplicity
 _atom_site_fract_x
 _atom_site_fract_y
 _atom_site_fract_z
 _atom_site_occupancy
  Ba  Ba0  1  0.75000000  0.75000000  0.00000000  1
  Ba  Ba1  1  0.25000000  0.25000000  0.00000000  1
  Cu  Cu0  1  0.43579400  0.70484700  0.14064100  1
  Cu  Cu1  1  0.70484700  0.56420600  0.26905300  1
  Cu  Cu2  1  0.29515300  0.43579400  0.73094700  1
  Cu  Cu3  1  0.93579400  0.79515300  0.73094700  1
  Cu  Cu4  1  0.56420600  0.29515300  0.85935900  1
  Cu  Cu5  1  0.30451400  0.55947100  0.50000000  1
  Cu  Cu6  1  0.05947100  0.80451400  0.50000000  1
  Cu  Cu7  1  0.69548600  0.44052900  0.50000000  1
  Cu  Cu8  1  0.94052900  0.19548600  0.50000000  1
  Cu  Cu9  1  0.44052900  0.94052900  0.74504300  1
  Cu  Cu10  1  0.19548600  0.69548600  0.25495700  1
  Cu  Cu11  1  0.55947100  0.05947100  0.25495700  1
  Cu  Cu12  1  0.20484700  0.93579400  0.14064100  1
  Cu  Cu13  1  0.06420600  0.20484700  0.26905300  1
  Cu  Cu14  1  0.00000000  0.50000000  0.50000000  1
  Cu  Cu15  1  0.50000000  0.00000000  0.50000000  1
  Cu  Cu16  1  0.80451400  0.30451400  0.74504300  1
  Cu  Cu17  1  0.79515300  0.06420600  0.85935900  1
  Si  Si0  1  0.29054400  0.79054400  0.85071900  1
  Si  Si1  1  0.06017500  0.56017500  0.85071900  1
  Si  Si2  1  0.56017500  0.70945600  0.50000000  1
  Si  Si3  1  0.79054400  0.93982500  0.50000000  1
  Si  Si4  1  0.43982500  0.29054400  0.50000000  1
  Si  Si5  1  0.93982500  0.43982500  0.14928100  1
  Si  Si6  1  0.70945600  0.20945600  0.14928100  1
  Si  Si7  1  0.20945600  0.06017500  0.50000000  1
loop_
_geom_bond_atom_site_label_1
_geom_bond_atom_site_label_2
_geom_bond_distance
_geom_bond_site_symmetry_2
Ba0 Cu7 3.359407 1_554
Ba0 Cu5 3.359407 1_554
Ba0 Cu6 3.359407 1_655
Ba0 Cu16 3.359407 1_554
Ba0 Cu9 3.359407 1_554
Ba0 Cu8 3.359407 1_565
Ba0 Cu11 3.359407 1_565
Ba0 Cu10 3.359407 1_655
Ba0 Si2 3.421253 1_554
Ba0 Si7 3.421253 1_665
Ba0 Si1 3.421253 1_654
Ba0 Si6 3.421253 1_565
Ba0 Si5 3.421253 1_555
Ba0 Si4 3.421253 1_554
Ba0 Si0 3.421253 1_554
Ba0 Si3 3.421253 1_555
Ba0 Cu3 3.422234 1_554
Ba0 Cu12 3.422234 1_655
Ba0 Cu13 3.422234 1_665
Ba0 Cu1 3.422234 1_555
Ba0 Cu17 3.422234 1_564
Ba0 Cu4 3.422234 1_554
Ba0 Cu2 3.422234 1_554
Ba0 Cu0 3.422234 1_555
Ba1 Cu10 3.359407 1_555
Ba1 Cu7 3.359407 1_555
Ba1 Cu5 3.359407 1_555
Ba1 Cu6 3.359407 1_544
Ba1 Cu8 3.359407 1_454
Ba1 Cu9 3.359407 1_544
Ba1 Cu16 3.359407 1_454
Ba1 Cu11 3.359407 1_555
Ba1 Si6 3.421253 1_555
Ba1 Si2 3.421253 1_555
Ba1 Si1 3.421253 1_554
Ba1 Si7 3.421253 1_554
Ba1 Si3 3.421253 1_444
Ba1 Si5 3.421253 1_455
Ba1 Si4 3.421253 1_555
Ba1 Si0 3.421253 1_544
Ba1 Cu2 3.422234 1_554
Ba1 Cu0 3.422234 1_555
Ba1 Cu13 3.422234 1_555
Ba1 Cu1 3.422234 1_555
Ba1 Cu4 3.422234 1_554
Ba1 Cu17 3.422234 1_454
Ba1 Cu3 3.422234 1_444
Ba1 Cu12 3.422234 1_545
Cu0 Cu15 2.483763 1_565
Cu0 Cu2 2.496412 1_554
Cu0 Cu1 2.496412 1_555
Cu0 Si1 2.543534 1_554
Cu0 Si0 2.543534 1_554
Cu0 Si2 2.583709 1_555
Cu0 Si3 2.583709 1_555
Cu0 Cu11 2.607714 1_565
Cu0 Cu10 2.607714 1_555
Cu0 Cu12 2.685655 1_555
Cu1 Cu14 2.483763 1_655
Cu1 Cu4 2.496412 1_554
Cu1 Si3 2.543534 1_555
Cu1 Si2 2.543534 1_555
Cu1 Si5 2.583709 1_555
Cu1 Si6 2.583709 1_555
Cu1 Cu6 2.607714 1_655
Cu1 Cu7 2.607714 1_555
Cu1 Cu3 2.685655 1_555
Cu2 Cu4 2.496412 1_555
Cu2 Si4 2.543534 1_555
Cu2 Si7 2.543534 1_555
Cu2 Si1 2.583709 1_555
Cu2 Si0 2.583709 1_555
Cu2 Cu8 2.607714 1_455
Cu2 Cu5 2.607714 1_555
Cu3 Si3 2.543534 1_555
Cu3 Si2 2.543534 1_555
Cu3 Si0 2.583709 1_655
Cu3 Si1 2.583709 1_655
Cu3 Cu6 2.607714 1_655
Cu3 Cu7 2.607714 1_555
Cu4 Si5 2.543534 1_556
Cu4 Si6 2.543534 1_556
Cu4 Si4 2.583709 1_555
Cu4 Si7 2.583709 1_555
Cu4 Cu9 2.607714 1_545
Cu5 Si2 2.456655 1_555
Cu5 Si4 2.477560 1_555
Cu5 Cu9 2.569896 1_555
Cu5 Si5 2.608129 1_455
Cu5 Si0 2.608129 1_555
Cu5 Cu6 2.849576 1_555
Cu6 Si7 2.456655 1_565
Cu6 Si3 2.477560 1_455
Cu6 Cu9 2.569896 1_555
Cu6 Si0 2.608129 1_555
Cu6 Si5 2.608129 1_455
Cu7 Si4 2.456655 1_555
Cu7 Si2 2.477560 1_555
Cu7 Si6 2.608129 1_555
Cu7 Si1 2.608129 1_655
Cu7 Cu8 2.849576 1_555
Cu8 Si3 2.456655 1_545
Cu8 Si7 2.477560 1_655
Cu8 Si1 2.608129 1_655
Cu8 Si6 2.608129 1_555
Cu9 Si0 2.456655 1_555
Cu9 Si6 2.477560 1_566
Cu9 Si2 2.608129 1_555
Cu9 Si7 2.608129 1_565
Cu10 Si5 2.456655 1_455
Cu10 Si1 2.477560 1_554
Cu10 Cu15 2.566165 1_565
Cu10 Cu5 2.569896 1_555
Cu10 Cu6 2.569896 1_555
Cu10 Cu12 2.607714 1_555
Cu10 Si2 2.608129 1_555
Cu10 Si7 2.608129 1_565
Cu10 Cu9 2.849576 1_555
Cu11 Si6 2.456655 1_555
Cu11 Si0 2.477560 1_544
Cu11 Cu15 2.566165 1_555
Cu11 Cu8 2.569896 1_555
Cu11 Cu7 2.569896 1_555
Cu11 Cu12 2.607714 1_545
Cu11 Si3 2.608129 1_545
Cu11 Si4 2.608129 1_555
Cu11 Cu16 2.849576 1_555
Cu12 Cu15 2.483763 1_565
Cu12 Cu3 2.496412 1_454
Cu12 Cu13 2.496412 1_565
Cu12 Si0 2.543534 1_554
Cu12 Si1 2.543534 1_554
Cu12 Si4 2.583709 1_565
Cu12 Si7 2.583709 1_565
Cu13 Cu14 2.483763 1_555
Cu13 Cu17 2.496412 1_454
Cu13 Si4 2.543534 1_555
Cu13 Si7 2.543534 1_555
Cu13 Si5 2.583709 1_455
Cu13 Si6 2.583709 1_455
Cu13 Cu5 2.607714 1_555
Cu13 Cu8 2.607714 1_455
Cu13 Cu2 2.685655 1_555
Cu14 Si0 2.446049 1_555
Cu14 Si5 2.446049 1_455
Cu14 Si1 2.446049 1_555
Cu14 Si6 2.446049 1_455
Cu14 Cu3 2.483763 1_455
Cu14 Cu2 2.483763 1_555
Cu14 Cu6 2.566165 1_555
Cu14 Cu5 2.566165 1_555
Cu14 Cu8 2.566165 1_455
Cu14 Cu7 2.566165 1_455
Cu15 Si3 2.446049 1_545
Cu15 Si4 2.446049 1_555
Cu15 Si7 2.446049 1_555
Cu15 Si2 2.446049 1_545
Cu15 Cu4 2.483763 1_555
Cu15 Cu17 2.483763 1_555
Cu15 Cu16 2.566165 1_555
Cu15 Cu9 2.566165 1_545
Cu16 Si1 2.456655 1_655
Cu16 Si5 2.477560 1_556
Cu16 Cu7 2.569896 1_555
Cu16 Cu8 2.569896 1_555
Cu16 Cu4 2.607714 1_555
Cu16 Cu17 2.607714 1_555
Cu16 Si4 2.608129 1_555
Cu16 Si3 2.608129 1_545
Cu17 Cu3 2.496412 1_545
Cu17 Si5 2.543534 1_556
Cu17 Si6 2.543534 1_556
Cu17 Si3 2.583709 1_545
Cu17 Si2 2.583709 1_545
Cu17 Cu9 2.607714 1_545
Cu17 Cu4 2.685655 1_555
Si0 Si1 2.701614 1_555
Si2 Si3 2.701614 1_555
Si4 Si7 2.701614 1_555
Si5 Si6 2.701614 1_555
