# generated using pymatgen
data_Li3MnV(PO4)3
_symmetry_space_group_name_H-M   'P 1'
_cell_length_a   8.61799200
_cell_length_b   8.79195455
_cell_length_c   11.99189865
_cell_angle_alpha   90.08597236
_cell_angle_beta   91.66255596
_cell_angle_gamma   90.77271887
_symmetry_Int_Tables_number   1
_chemical_formula_structural   Li3MnV(PO4)3
_chemical_formula_sum   'Li12 Mn4 V4 P12 O48'
_cell_volume   908.14737886
_cell_formula_units_Z   4
loop_
 _symmetry_equiv_pos_site_id
 _symmetry_equiv_pos_as_xyz
  1  'x, y, z'
loop_
 _atom_site_type_symbol
 _atom_site_label
 _atom_site_symmetry_multiplicity
 _atom_site_fract_x
 _atom_site_fract_y
 _atom_site_fract_z
 _atom_site_occupancy
  Li  Li0  1  0.06503600  0.48623300  0.34769500  1
  Li  Li1  1  0.07888700  0.91407300  0.69007700  1
  Li  Li2  1  0.18048100  0.22055700  0.17791200  1
  Li  Li3  1  0.32100600  0.72241500  0.32273600  1
  Li  Li4  1  0.41879600  0.41330900  0.80970200  1
  Li  Li5  1  0.43553500  0.98898300  0.15388700  1
  Li  Li6  1  0.56386400  0.01515800  0.84708900  1
  Li  Li7  1  0.58062300  0.58535800  0.19121200  1
  Li  Li8  1  0.67993500  0.27700900  0.67788600  1
  Li  Li9  1  0.82063900  0.77890600  0.82259100  1
  Li  Li10  1  0.92115400  0.08536300  0.30984400  1
  Li  Li11  1  0.93517900  0.51313600  0.65196400  1
  Mn  Mn0  1  0.25244100  0.03570100  0.39197700  1
  Mn  Mn1  1  0.74808000  0.96477500  0.60819000  1
  Mn  Mn2  1  0.75207500  0.46336300  0.89112800  1
  Mn  Mn3  1  0.75163800  0.02781500  0.10681500  1
  V  V0  1  0.24421900  0.97198600  0.89525800  1
  V  V1  1  0.24582500  0.53484000  0.10813000  1
  V  V2  1  0.25410900  0.47217100  0.60620500  1
  V  V3  1  0.74521200  0.52726100  0.39468700  1
  P  P0  1  0.04321900  0.75039100  0.48967600  1
  P  P1  1  0.11382100  0.61770000  0.84617000  1
  P  P2  1  0.11643100  0.88723800  0.14787100  1
  P  P3  1  0.38433400  0.11783800  0.65193800  1
  P  P4  1  0.38541800  0.38919100  0.35359500  1
  P  P5  1  0.45603100  0.25258400  0.01059700  1
  P  P6  1  0.54321200  0.75114500  0.98936000  1
  P  P7  1  0.61638200  0.61066000  0.64885400  1
  P  P8  1  0.61557000  0.88185500  0.34917100  1
  P  P9  1  0.88395100  0.11060800  0.85146600  1
  P  P10  1  0.88363300  0.38111800  0.14947500  1
  P  P11  1  0.95690900  0.24979700  0.50994100  1
  O  O0  1  0.05116400  0.10715100  0.89532900  1
  O  O1  1  0.04494400  0.12988400  0.44567100  1
  O  O2  1  0.05490000  0.33519100  0.60120200  1
  O  O3  1  0.05584100  0.42010400  0.18724300  1
  O  O4  1  0.10147600  0.63726800  0.58127800  1
  O  O5  1  0.12507500  0.79413600  0.82958100  1
  O  O6  1  0.13919400  0.57946800  0.96951200  1
  O  O7  1  0.13081900  0.00604900  0.24840000  1
  O  O8  1  0.17623300  0.73030200  0.18814600  1
  O  O9  1  0.18878800  0.82121600  0.43410700  1
  O  O10  1  0.22983200  0.52907900  0.77624400  1
  O  O11  1  0.23680000  0.95006200  0.06270800  1
  O  O12  1  0.26608800  0.44878600  0.43774900  1
  O  O13  1  0.26758100  0.02864100  0.72330800  1
  O  O14  1  0.31109000  0.32417200  0.06501200  1
  O  O15  1  0.32689000  0.23001500  0.31233600  1
  O  O16  1  0.36229500  0.08028300  0.52743600  1
  O  O17  1  0.37241700  0.50606700  0.25406400  1
  O  O18  1  0.37246500  0.29425100  0.66889000  1
  O  O19  1  0.39936700  0.13997700  0.91765900  1
  O  O20  1  0.44572200  0.83625200  0.90012000  1
  O  O21  1  0.44620600  0.91745100  0.30917900  1
  O  O22  1  0.44869700  0.60493700  0.60539600  1
  O  O23  1  0.45151000  0.63263500  0.05607500  1
  O  O24  1  0.54618000  0.37454300  0.94652900  1
  O  O25  1  0.55300600  0.39157700  0.39780700  1
  O  O26  1  0.55417900  0.08168800  0.69096100  1
  O  O27  1  0.54958300  0.17040900  0.10312500  1
  O  O28  1  0.60179000  0.86430500  0.08445200  1
  O  O29  1  0.62842200  0.70538900  0.33130500  1
  O  O30  1  0.62987000  0.49203500  0.74900200  1
  O  O31  1  0.63632500  0.91821200  0.47398700  1
  O  O32  1  0.67257500  0.76973400  0.68943800  1
  O  O33  1  0.68649400  0.68133100  0.93515800  1
  O  O34  1  0.73287400  0.97282300  0.27983000  1
  O  O35  1  0.73472600  0.55078400  0.56393400  1
  O  O36  1  0.76335200  0.04896900  0.93540700  1
  O  O37  1  0.76965800  0.46854800  0.22156900  1
  O  O38  1  0.81125700  0.17977500  0.56561100  1
  O  O39  1  0.82908100  0.26822300  0.80995900  1
  O  O40  1  0.87098100  0.99267100  0.75006800  1
  O  O41  1  0.86219400  0.41932500  0.02534100  1
  O  O42  1  0.87525300  0.20308600  0.16594300  1
  O  O43  1  0.89935800  0.36306700  0.41804900  1
  O  O44  1  0.94238000  0.58028200  0.80761400  1
  O  O45  1  0.94578800  0.66453500  0.39836200  1
  O  O46  1  0.95474500  0.87018500  0.55381900  1
  O  O47  1  0.95088700  0.88658800  0.10298900  1
loop_
_geom_bond_atom_site_label_1
_geom_bond_atom_site_label_2
_geom_bond_distance
_geom_bond_site_symmetry_2
Li0 O43 1.988463 1_455
Li0 O45 1.989865 1_455
Li0 O3 2.008262 1_555
Li0 O12 2.045635 1_555
Li1 O13 1.932571 1_565
Li1 O46 1.961873 1_455
Li1 O5 2.011716 1_555
Li1 O40 2.076552 1_455
Li2 O14 1.998576 1_555
Li2 O15 2.018965 1_555
Li2 O3 2.073999 1_555
Li2 O7 2.111509 1_555
Li3 O9 1.986989 1_555
Li3 O8 2.013015 1_555
Li3 O21 2.022890 1_555
Li3 O17 2.128787 1_555
Li4 O10 1.963922 1_555
Li4 O24 1.980111 1_555
Li4 O18 2.012659 1_555
Li4 O30 2.088588 1_555
Li5 O21 1.966489 1_555
Li5 O27 1.968815 1_565
Li5 O28 2.014103 1_555
Li5 O11 2.029871 1_555
Li6 O26 1.962153 1_555
Li6 O20 1.978015 1_545
Li6 O19 2.009711 1_555
Li6 O36 2.011288 1_555
Li7 O37 1.962916 1_555
Li7 O23 1.986682 1_555
Li7 O29 2.012087 1_555
Li7 O17 2.078450 1_555
Li8 O38 1.983799 1_555
Li8 O39 2.012815 1_555
Li8 O26 2.026958 1_555
Li8 O30 2.127428 1_555
Li9 O33 1.990455 1_555
Li9 O32 2.015679 1_555
Li9 O44 2.059599 1_555
Li9 O40 2.116974 1_555
Li10 O34 1.913924 1_545
Li10 O1 1.957136 1_655
Li10 O42 2.045088 1_555
Li10 O7 2.098508 1_655
Li11 O44 1.955840 1_555
Li11 O2 1.989927 1_655
Li11 O4 1.998647 1_655
Li11 O35 2.029500 1_555
Mn0 O16 1.894062 1_555
Mn0 O7 2.004391 1_555
Mn0 O9 2.025643 1_545
Mn0 O15 2.062349 1_555
Mn0 O1 2.098358 1_555
Mn0 O21 2.234976 1_545
Mn1 O31 1.892779 1_555
Mn1 O40 1.990946 1_555
Mn1 O38 2.030158 1_565
Mn1 O32 2.079645 1_555
Mn1 O46 2.096313 1_555
Mn1 O26 2.230170 1_565
Mn2 O41 1.887872 1_556
Mn2 O30 1.995454 1_555
Mn2 O24 2.057249 1_555
Mn2 O33 2.077055 1_555
Mn2 O39 2.096316 1_555
Mn2 O44 2.191424 1_555
Mn3 O28 1.932587 1_545
Mn3 O42 1.980118 1_555
Mn3 O36 2.069438 1_554
Mn3 O47 2.134071 1_545
Mn3 O34 2.141258 1_545
Mn3 O27 2.158797 1_555
O0 P9 1.520343 1_455
O0 V0 2.057588 1_545
O1 P11 1.527796 1_455
O2 P11 1.549622 1_455
O2 V2 2.083115 1_555
O3 P10 1.572240 1_455
O3 V1 2.155641 1_555
O4 P0 1.559694 1_555
O4 V2 1.989099 1_555
O5 P1 1.566283 1_555
O5 V0 2.006404 1_555
O6 P1 1.527501 1_555
O6 V1 1.919551 1_556
O7 P2 1.594957 1_545
O8 P2 1.552220 1_555
O8 V1 2.071202 1_555
O9 P0 1.560220 1_555
O10 P1 1.541913 1_555
O10 V2 2.115777 1_555
O11 P2 1.572213 1_555
O11 V0 2.020337 1_554
O12 P4 1.556820 1_555
O12 V2 2.035974 1_555
O13 P3 1.546152 1_555
O13 V0 2.136583 1_545
O14 P5 1.565078 1_555
O14 V1 2.014049 1_555
O15 P4 1.556318 1_555
O16 P3 1.534459 1_555
O17 P4 1.578631 1_555
O17 V1 2.052994 1_555
O18 P3 1.569068 1_555
O18 V2 2.013566 1_555
O19 P5 1.553326 1_556
O19 V0 1.991493 1_545
O20 P6 1.542140 1_555
O20 V0 2.119756 1_555
O21 P8 1.558993 1_555
O22 P7 1.522078 1_555
O22 V2 2.030514 1_555
O23 P6 1.538579 1_554
O23 V1 2.072616 1_555
O24 P5 1.535655 1_556
O25 P4 1.523869 1_555
O25 V3 2.029450 1_555
O26 P3 1.560684 1_555
O27 P5 1.539277 1_555
O28 P6 1.579454 1_554
O29 P8 1.571712 1_555
O29 V3 2.011240 1_555
O30 P7 1.594519 1_555
O31 P8 1.534930 1_555
O32 P7 1.547059 1_555
O33 P6 1.545894 1_555
O34 P8 1.543385 1_555
O35 P7 1.558036 1_555
O35 V3 2.044523 1_555
O36 P9 1.560222 1_555
O37 P10 1.539720 1_555
O37 V3 2.155406 1_555
O38 P11 1.558617 1_555
O39 P9 1.548461 1_555
O40 P9 1.597310 1_565
O41 P10 1.533013 1_555
O42 P10 1.578900 1_555
O43 P11 1.561074 1_555
O43 V3 1.989597 1_555
O44 P1 1.565802 1_655
O45 P0 1.549508 1_655
O45 V3 2.094193 1_555
O46 P0 1.528254 1_655
O47 P2 1.510059 1_655
