# generated using pymatgen
data_U2O5F8
_symmetry_space_group_name_H-M   'P 1'
_cell_length_a   10.23198300
_cell_length_b   10.44369600
_cell_length_c   12.69860200
_cell_angle_alpha   90.00000000
_cell_angle_beta   90.00000000
_cell_angle_gamma   90.00000000
_symmetry_Int_Tables_number   1
_chemical_formula_structural   U2O5F8
_chemical_formula_sum   'U8 O20 F32'
_cell_volume   1356.96905321
_cell_formula_units_Z   4
loop_
 _symmetry_equiv_pos_site_id
 _symmetry_equiv_pos_as_xyz
  1  'x, y, z'
loop_
 _atom_site_type_symbol
 _atom_site_label
 _atom_site_symmetry_multiplicity
 _atom_site_fract_x
 _atom_site_fract_y
 _atom_site_fract_z
 _atom_site_occupancy
  U  U0  1  0.29028000  0.25000000  0.71827300  1
  U  U1  1  0.20972000  0.25000000  0.21827300  1
  U  U2  1  0.70972000  0.75000000  0.28172700  1
  U  U3  1  0.79028000  0.75000000  0.78172700  1
  U  U4  1  0.43757200  0.75000000  0.56393000  1
  U  U5  1  0.06242800  0.75000000  0.06393000  1
  U  U6  1  0.56242800  0.25000000  0.43607000  1
  U  U7  1  0.93757200  0.25000000  0.93607000  1
  O  O0  1  0.60099600  0.75000000  0.02498900  1
  O  O1  1  0.89900400  0.75000000  0.52498900  1
  O  O2  1  0.39900400  0.25000000  0.97501100  1
  O  O3  1  0.10099600  0.25000000  0.47501100  1
  O  O4  1  0.23383200  0.41964200  0.20860100  1
  O  O5  1  0.26616800  0.08035800  0.70860100  1
  O  O6  1  0.76616800  0.91964200  0.79139900  1
  O  O7  1  0.73383200  0.58035800  0.29139900  1
  O  O8  1  0.76616800  0.58035800  0.79139900  1
  O  O9  1  0.73383200  0.91964200  0.29139900  1
  O  O10  1  0.23383200  0.08035800  0.20860100  1
  O  O11  1  0.26616800  0.41964200  0.70860100  1
  O  O12  1  0.37306500  0.35481500  0.92658700  1
  O  O13  1  0.12693500  0.14518500  0.42658700  1
  O  O14  1  0.62693500  0.85481500  0.07341300  1
  O  O15  1  0.87306500  0.64518500  0.57341300  1
  O  O16  1  0.62693500  0.64518500  0.07341300  1
  O  O17  1  0.87306500  0.85481500  0.57341300  1
  O  O18  1  0.37306500  0.14518500  0.92658700  1
  O  O19  1  0.12693500  0.35481500  0.42658700  1
  F  F0  1  0.40058400  0.60379400  0.46342800  1
  F  F1  1  0.09941600  0.89620600  0.96342800  1
  F  F2  1  0.59941600  0.10379400  0.53657200  1
  F  F3  1  0.90058400  0.39620600  0.03657200  1
  F  F4  1  0.59941600  0.39620600  0.53657200  1
  F  F5  1  0.90058400  0.10379400  0.03657200  1
  F  F6  1  0.40058400  0.89620600  0.46342800  1
  F  F7  1  0.09941600  0.60379400  0.96342800  1
  F  F8  1  0.38639800  0.25000000  0.54998400  1
  F  F9  1  0.11360200  0.25000000  0.04998400  1
  F  F10  1  0.61360200  0.75000000  0.45001600  1
  F  F11  1  0.88639800  0.75000000  0.95001600  1
  F  F12  1  0.36346300  0.25000000  0.35280000  1
  F  F13  1  0.13653700  0.25000000  0.85280000  1
  F  F14  1  0.63653700  0.75000000  0.64720000  1
  F  F15  1  0.86346300  0.75000000  0.14720000  1
  F  F16  1  0.43540900  0.61157700  0.67417900  1
  F  F17  1  0.06459100  0.88842300  0.17417900  1
  F  F18  1  0.56459100  0.11157700  0.32582100  1
  F  F19  1  0.93540900  0.38842300  0.82582100  1
  F  F20  1  0.56459100  0.38842300  0.32582100  1
  F  F21  1  0.93540900  0.11157700  0.82582100  1
  F  F22  1  0.43540900  0.88842300  0.67417900  1
  F  F23  1  0.06459100  0.61157700  0.17417900  1
  F  F24  1  0.51167300  0.75000000  0.24425400  1
  F  F25  1  0.98832700  0.75000000  0.74425400  1
  F  F26  1  0.48832700  0.25000000  0.75574600  1
  F  F27  1  0.01167300  0.25000000  0.25574600  1
  F  F28  1  0.23958000  0.75000000  0.58172400  1
  F  F29  1  0.26042000  0.75000000  0.08172400  1
  F  F30  1  0.76042000  0.25000000  0.41827600  1
  F  F31  1  0.73958000  0.25000000  0.91827600  1
loop_
_geom_bond_atom_site_label_1
_geom_bond_atom_site_label_2
_geom_bond_distance
_geom_bond_site_symmetry_2
O0 O16 1.283291 1_555
O0 O14 1.283291 1_555
O1 O17 1.283291 1_555
O1 O15 1.283291 1_555
O4 U1 1.792996 1_555
O5 U0 1.792996 1_555
O6 U3 1.792996 1_555
O7 U2 1.792996 1_555
O8 U3 1.792996 1_555
O9 U2 1.792996 1_555
O10 U1 1.792996 1_555
O11 U0 1.792996 1_555
O12 O2 1.283291 1_555
O13 O3 1.283291 1_555
O18 O2 1.283291 1_555
O19 O3 1.283291 1_555
F0 U4 2.025716 1_555
F1 U5 2.025716 1_556
F2 U6 2.025716 1_555
F3 U7 2.025716 1_554
F4 U6 2.025716 1_555
F5 U7 2.025716 1_554
F6 U4 2.025716 1_555
F7 U5 2.025716 1_556
F8 U6 2.310107 1_555
F8 U0 2.352477 1_555
F9 U7 2.310107 1_454
F9 U1 2.352477 1_555
F10 U4 2.310107 1_555
F10 U2 2.352477 1_555
F11 U5 2.310107 1_656
F11 U3 2.352477 1_555
F12 U6 2.294042 1_555
F12 U1 2.322270 1_555
F13 U7 2.294042 1_455
F13 U0 2.322270 1_555
F14 U4 2.294042 1_555
F14 U3 2.322270 1_555
F15 U5 2.294042 1_655
F15 U2 2.322270 1_555
F16 U4 2.012563 1_555
F17 U5 2.012563 1_555
F18 U6 2.012563 1_555
F19 U7 2.012563 1_555
F20 U6 2.012563 1_555
F21 U7 2.012563 1_555
F22 U4 2.012563 1_555
F23 U5 2.012563 1_555
F24 U2 2.081535 1_555
F25 U3 2.081535 1_555
F26 U0 2.081535 1_555
F27 U1 2.081535 1_555
F28 U4 2.038413 1_555
F29 U5 2.038413 1_555
F30 U6 2.038413 1_555
F31 U7 2.038413 1_555
