# generated using pymatgen
data_Zr6Ga16Pt7
_symmetry_space_group_name_H-M   'P 1'
_cell_length_a   8.85717853
_cell_length_b   8.85717853
_cell_length_c   8.85717853
_cell_angle_alpha   60.00000000
_cell_angle_beta   60.00000000
_cell_angle_gamma   60.00000000
_symmetry_Int_Tables_number   1
_chemical_formula_structural   Zr6Ga16Pt7
_chemical_formula_sum   'Zr6 Ga16 Pt7'
_cell_volume   491.32764175
_cell_formula_units_Z   1
loop_
 _symmetry_equiv_pos_site_id
 _symmetry_equiv_pos_as_xyz
  1  'x, y, z'
loop_
 _atom_site_type_symbol
 _atom_site_label
 _atom_site_symmetry_multiplicity
 _atom_site_fract_x
 _atom_site_fract_y
 _atom_site_fract_z
 _atom_site_occupancy
  Zr  Zr0  1  0.68880200  0.68880200  0.31119800  1
  Zr  Zr1  1  0.31119800  0.68880200  0.31119800  1
  Zr  Zr2  1  0.68880200  0.31119800  0.31119800  1
  Zr  Zr3  1  0.31119800  0.31119800  0.68880200  1
  Zr  Zr4  1  0.68880200  0.31119800  0.68880200  1
  Zr  Zr5  1  0.31119800  0.68880200  0.68880200  1
  Ga  Ga0  1  0.87962100  0.87962100  0.36113600  1
  Ga  Ga1  1  0.87962100  0.36113600  0.87962100  1
  Ga  Ga2  1  0.36113600  0.87962100  0.87962100  1
  Ga  Ga3  1  0.87962100  0.87962100  0.87962100  1
  Ga  Ga4  1  0.12037900  0.12037900  0.63886400  1
  Ga  Ga5  1  0.12037900  0.63886400  0.12037900  1
  Ga  Ga6  1  0.63886400  0.12037900  0.12037900  1
  Ga  Ga7  1  0.12037900  0.12037900  0.12037900  1
  Ga  Ga8  1  0.66098100  0.66098100  0.01705600  1
  Ga  Ga9  1  0.66098100  0.01705600  0.66098100  1
  Ga  Ga10  1  0.01705600  0.66098100  0.66098100  1
  Ga  Ga11  1  0.66098100  0.66098100  0.66098100  1
  Ga  Ga12  1  0.33901900  0.33901900  0.98294400  1
  Ga  Ga13  1  0.33901900  0.98294400  0.33901900  1
  Ga  Ga14  1  0.98294400  0.33901900  0.33901900  1
  Ga  Ga15  1  0.33901900  0.33901900  0.33901900  1
  Pt  Pt0  1  0.00000000  0.00000000  0.00000000  1
  Pt  Pt1  1  0.00000000  0.00000000  0.50000000  1
  Pt  Pt2  1  0.50000000  0.00000000  0.50000000  1
  Pt  Pt3  1  0.00000000  0.50000000  0.50000000  1
  Pt  Pt4  1  0.50000000  0.50000000  0.00000000  1
  Pt  Pt5  1  0.00000000  0.50000000  0.00000000  1
  Pt  Pt6  1  0.50000000  0.00000000  0.00000000  1
loop_
_geom_bond_atom_site_label_1
_geom_bond_atom_site_label_2
_geom_bond_distance
_geom_bond_site_symmetry_2
Ga0 Pt0 2.611684 1_665
Ga0 Pt2 2.746991 1_565
Ga0 Pt3 2.746991 1_655
Ga0 Pt1 2.746998 1_665
Ga0 Zr0 3.203162 1_555
Ga0 Zr1 3.203169 1_655
Ga0 Zr2 3.203169 1_565
Ga1 Pt0 2.611684 1_656
Ga1 Pt4 2.746991 1_556
Ga1 Pt3 2.746991 1_655
Ga1 Pt5 2.746998 1_656
Ga1 Zr4 3.203162 1_555
Ga1 Zr3 3.203169 1_655
Ga1 Zr2 3.203169 1_556
Ga2 Pt0 2.611684 1_566
Ga2 Pt4 2.746991 1_556
Ga2 Pt2 2.746991 1_565
Ga2 Pt6 2.746998 1_566
Ga2 Zr5 3.203162 1_555
Ga2 Zr3 3.203169 1_565
Ga2 Zr1 3.203169 1_556
Ga3 Pt0 2.611691 1_666
Ga3 Pt1 2.746991 1_665
Ga3 Pt5 2.746991 1_656
Ga3 Pt6 2.746991 1_566
Ga3 Zr4 3.203168 1_565
Ga3 Zr5 3.203168 1_655
Ga3 Zr0 3.203168 1_556
Ga4 Pt0 2.611684 1_556
Ga4 Pt2 2.746991 1_555
Ga4 Pt3 2.746991 1_555
Ga4 Pt1 2.746998 1_555
Ga4 Zr3 3.203162 1_555
Ga4 Zr5 3.203169 1_545
Ga4 Zr4 3.203169 1_455
Ga5 Pt0 2.611684 1_565
Ga5 Pt3 2.746991 1_555
Ga5 Pt4 2.746991 1_555
Ga5 Pt5 2.746998 1_555
Ga5 Zr1 3.203162 1_555
Ga5 Zr5 3.203169 1_554
Ga5 Zr0 3.203169 1_455
Ga6 Pt0 2.611684 1_655
Ga6 Pt2 2.746991 1_555
Ga6 Pt4 2.746991 1_555
Ga6 Pt6 2.746998 1_555
Ga6 Zr2 3.203162 1_555
Ga6 Zr0 3.203169 1_545
Ga6 Zr4 3.203169 1_554
Ga7 Pt0 2.611691 1_555
Ga7 Pt1 2.746991 1_555
Ga7 Pt5 2.746991 1_555
Ga7 Pt6 2.746991 1_555
Ga7 Zr1 3.203168 1_545
Ga7 Zr2 3.203168 1_455
Ga7 Zr3 3.203168 1_554
Ga8 Pt4 2.559816 1_555
Ga8 Pt5 2.559823 1_655
Ga8 Pt6 2.559823 1_565
Ga8 Zr2 2.872893 1_555
Ga8 Zr1 2.872893 1_555
Ga8 Zr0 2.872898 1_555
Ga9 Pt2 2.559816 1_555
Ga9 Pt6 2.559823 1_556
Ga9 Pt1 2.559823 1_655
Ga9 Zr2 2.872893 1_555
Ga9 Zr3 2.872893 1_555
Ga9 Zr4 2.872898 1_555
Ga10 Pt3 2.559816 1_555
Ga10 Pt5 2.559823 1_556
Ga10 Pt1 2.559823 1_565
Ga10 Zr1 2.872893 1_555
Ga10 Zr3 2.872893 1_555
Ga10 Zr5 2.872898 1_555
Ga11 Pt2 2.559821 1_565
Ga11 Pt3 2.559821 1_655
Ga11 Pt4 2.559821 1_556
Ga11 Zr0 2.872889 1_555
Ga11 Zr4 2.872889 1_555
Ga11 Zr5 2.872889 1_555
Ga12 Pt4 2.559816 1_556
Ga12 Pt5 2.559823 1_556
Ga12 Pt6 2.559823 1_556
Ga12 Zr5 2.872893 1_555
Ga12 Zr4 2.872893 1_555
Ga12 Zr3 2.872898 1_555
Ga13 Pt2 2.559816 1_565
Ga13 Pt6 2.559823 1_565
Ga13 Pt1 2.559823 1_565
Ga13 Zr5 2.872893 1_555
Ga13 Zr0 2.872893 1_555
Ga13 Zr1 2.872898 1_555
Ga14 Pt3 2.559816 1_655
Ga14 Pt1 2.559823 1_655
Ga14 Pt5 2.559823 1_655
Ga14 Zr0 2.872893 1_555
Ga14 Zr4 2.872893 1_555
Ga14 Zr2 2.872898 1_555
Ga15 Pt3 2.559821 1_555
Ga15 Pt4 2.559821 1_555
Ga15 Pt2 2.559821 1_555
Ga15 Zr2 2.872889 1_555
Ga15 Zr1 2.872889 1_555
Ga15 Zr3 2.872889 1_555
Pt1 Zr5 3.223945 1_545
Pt1 Zr4 3.223945 1_455
Pt1 Zr1 3.223945 1_545
Pt1 Zr2 3.223945 1_455
Pt2 Zr2 3.223945 1_555
Pt2 Zr3 3.223945 1_555
Pt2 Zr0 3.223945 1_545
Pt2 Zr5 3.223945 1_545
Pt3 Zr1 3.223945 1_555
Pt3 Zr3 3.223945 1_555
Pt3 Zr0 3.223945 1_455
Pt3 Zr4 3.223945 1_455
Pt4 Zr2 3.223945 1_555
Pt4 Zr1 3.223945 1_555
Pt4 Zr4 3.223945 1_554
Pt4 Zr5 3.223945 1_554
Pt5 Zr5 3.223945 1_554
Pt5 Zr0 3.223945 1_455
Pt5 Zr2 3.223945 1_455
Pt5 Zr3 3.223945 1_554
Pt6 Zr4 3.223945 1_554
Pt6 Zr0 3.223945 1_545
Pt6 Zr1 3.223945 1_545
Pt6 Zr3 3.223945 1_554
