# generated using pymatgen
data_SrGaGe
_symmetry_space_group_name_H-M   'P 1'
_cell_length_a   4.26940621
_cell_length_b   4.26940621
_cell_length_c   4.71168950
_cell_angle_alpha   90.00000000
_cell_angle_beta   90.00000000
_cell_angle_gamma   120.00000352
_symmetry_Int_Tables_number   1
_chemical_formula_structural   SrGaGe
_chemical_formula_sum   'Sr1 Ga1 Ge1'
_cell_volume   74.37761247
_cell_formula_units_Z   1
loop_
 _symmetry_equiv_pos_site_id
 _symmetry_equiv_pos_as_xyz
  1  'x, y, z'
loop_
 _atom_site_type_symbol
 _atom_site_label
 _atom_site_symmetry_multiplicity
 _atom_site_fract_x
 _atom_site_fract_y
 _atom_site_fract_z
 _atom_site_occupancy
  Sr  Sr0  1  0.33333300  0.66666700  -0.00000000  1
  Ga  Ga0  1  0.66666700  0.33333300  0.50000000  1
  Ge  Ge0  1  0.00000000  -0.00000000  0.50000000  1
loop_
_geom_bond_atom_site_label_1
_geom_bond_atom_site_label_2
_geom_bond_distance
_geom_bond_site_symmetry_2
Ga0 Ge0 2.464940 1_655
Ga0 Ge0 2.464944 1_555
Ga0 Ge0 2.464944 1_665
Ga0 Sr0 3.409683 1_546
Ga0 Sr0 3.409683 1_545
Ga0 Sr0 3.409683 1_656
Ga0 Sr0 3.409683 1_655
Ga0 Sr0 3.409688 1_555
Ga0 Sr0 3.409688 1_556
Ge0 Sr0 3.409683 1_546
Ge0 Sr0 3.409683 1_545
Ge0 Sr0 3.409685 1_446
Ge0 Sr0 3.409685 1_555
Ge0 Sr0 3.409685 1_556
Ge0 Sr0 3.409685 1_445
