# generated using pymatgen
data_Cs5(SO4)4
_symmetry_space_group_name_H-M   'P 1'
_cell_length_a   6.10695979
_cell_length_b   6.10695979
_cell_length_c   29.32565224
_cell_angle_alpha   90.00000000
_cell_angle_beta   90.00000000
_cell_angle_gamma   119.04392639
_symmetry_Int_Tables_number   1
_chemical_formula_structural   Cs5(SO4)4
_chemical_formula_sum   'Cs10 S8 O32'
_cell_volume   956.16387742
_cell_formula_units_Z   2
loop_
 _symmetry_equiv_pos_site_id
 _symmetry_equiv_pos_as_xyz
  1  'x, y, z'
loop_
 _atom_site_type_symbol
 _atom_site_label
 _atom_site_symmetry_multiplicity
 _atom_site_fract_x
 _atom_site_fract_y
 _atom_site_fract_z
 _atom_site_occupancy
  Cs  Cs0  1  0.98079852  0.01920148  0.25000000  1
  Cs  Cs1  1  0.01920148  0.98079852  0.75000000  1
  Cs  Cs2  1  0.65355392  0.34644608  0.13119644  1
  Cs  Cs3  1  0.34644608  0.65355392  0.86880356  1
  Cs  Cs4  1  0.65355392  0.34644608  0.36880356  1
  Cs  Cs5  1  0.34644608  0.65355392  0.63119644  1
  Cs  Cs6  1  0.33321049  0.66678951  0.02977113  1
  Cs  Cs7  1  0.66678951  0.33321049  0.97022887  1
  Cs  Cs8  1  0.33321049  0.66678951  0.47022887  1
  Cs  Cs9  1  0.66678951  0.33321049  0.52977113  1
  S  S0  1  0.99948464  0.00051536  0.06974349  1
  S  S1  1  0.00051536  0.99948464  0.93025651  1
  S  S2  1  0.99948464  0.00051536  0.43025651  1
  S  S3  1  0.00051536  0.99948464  0.56974349  1
  S  S4  1  0.68457917  0.31542083  0.81131914  1
  S  S5  1  0.31542083  0.68457917  0.18868086  1
  S  S6  1  0.68457917  0.31542083  0.68868086  1
  S  S7  1  0.31542083  0.68457917  0.31131914  1
  O  O0  1  0.98932917  0.01067083  0.12008374  1
  O  O1  1  0.01067083  0.98932917  0.87991626  1
  O  O2  1  0.98932917  0.01067083  0.37991626  1
  O  O3  1  0.01067083  0.98932917  0.62008374  1
  O  O4  1  0.86645827  0.13354173  0.05256152  1
  O  O5  1  0.13354173  0.86645827  0.94743848  1
  O  O6  1  0.86645827  0.13354173  0.44743848  1
  O  O7  1  0.13354173  0.86645827  0.55256152  1
  O  O8  1  0.26086024  0.12931024  0.05395259  1
  O  O9  1  0.12931024  0.26086024  0.94604741  1
  O  O10  1  0.26086024  0.12931024  0.44604741  1
  O  O11  1  0.12931024  0.26086024  0.55395259  1
  O  O12  1  0.73913976  0.87068976  0.94604741  1
  O  O13  1  0.87068976  0.73913976  0.05395259  1
  O  O14  1  0.73913976  0.87068976  0.55395259  1
  O  O15  1  0.87068976  0.73913976  0.44604741  1
  O  O16  1  0.68072041  0.31927959  0.86150708  1
  O  O17  1  0.31927959  0.68072041  0.13849292  1
  O  O18  1  0.68072041  0.31927959  0.63849292  1
  O  O19  1  0.31927959  0.68072041  0.36150708  1
  O  O20  1  0.55219962  0.44780038  0.79448564  1
  O  O21  1  0.44780038  0.55219962  0.20551436  1
  O  O22  1  0.55219962  0.44780038  0.70551436  1
  O  O23  1  0.44780038  0.55219962  0.29448564  1
  O  O24  1  0.94640929  0.44390307  0.79569050  1
  O  O25  1  0.44390307  0.94640929  0.20430950  1
  O  O26  1  0.94640929  0.44390307  0.70430950  1
  O  O27  1  0.44390307  0.94640929  0.29569050  1
  O  O28  1  0.05359071  0.55609693  0.20430950  1
  O  O29  1  0.55609693  0.05359071  0.79569050  1
  O  O30  1  0.05359071  0.55609693  0.29569050  1
  O  O31  1  0.55609693  0.05359071  0.70430950  1
loop_
_geom_bond_atom_site_label_1
_geom_bond_atom_site_label_2
_geom_bond_distance
_geom_bond_site_symmetry_2
Cs0 O30 3.348458 1_645
Cs0 O27 3.348458 1_645
Cs0 O25 3.348458 1_645
Cs0 O28 3.348458 1_645
Cs0 O30 3.365747 1_655
Cs0 O27 3.365747 1_545
Cs0 O28 3.365747 1_655
Cs0 O25 3.365747 1_545
Cs0 O23 3.378913 1_655
Cs0 O21 3.378913 1_655
Cs0 O23 3.378913 1_545
Cs0 O21 3.378913 1_545
Cs0 O2 3.810937 1_555
Cs0 O0 3.810937 1_555
Cs1 O24 3.348458 1_465
Cs1 O29 3.348458 1_465
Cs1 O31 3.348458 1_465
Cs1 O26 3.348458 1_465
Cs1 O29 3.365747 1_565
Cs1 O24 3.365747 1_455
Cs1 O26 3.365747 1_455
Cs1 O31 3.365747 1_565
Cs1 O22 3.378913 1_565
Cs1 O20 3.378913 1_565
Cs1 O22 3.378913 1_455
Cs1 O20 3.378913 1_455
Cs1 O3 3.810937 1_555
Cs1 O1 3.810937 1_555
Cs2 O28 3.027809 1_655
Cs2 O25 3.027809 1_545
Cs2 O21 3.072559 1_555
Cs2 O8 3.090811 1_555
Cs2 O13 3.090811 1_555
Cs2 O4 3.215616 1_555
Cs2 O17 3.525153 1_555
Cs2 O0 3.549445 1_555
Cs2 O17 3.561384 1_545
Cs2 O17 3.561384 1_655
Cs2 O0 3.562163 1_455
Cs2 O0 3.562163 1_565
Cs3 O24 3.027809 1_455
Cs3 O29 3.027809 1_565
Cs3 O20 3.072559 1_555
Cs3 O9 3.090811 1_555
Cs3 O12 3.090811 1_555
Cs3 O5 3.215616 1_555
Cs3 O16 3.525153 1_555
Cs3 O1 3.549445 1_555
Cs3 O16 3.561384 1_455
Cs3 O16 3.561384 1_565
Cs3 O1 3.562163 1_545
Cs3 O1 3.562163 1_655
Cs4 O30 3.027809 1_655
Cs4 O27 3.027809 1_545
Cs4 O23 3.072559 1_555
Cs4 O10 3.090811 1_555
Cs4 O15 3.090811 1_555
Cs4 O6 3.215616 1_555
Cs4 O19 3.525153 1_555
Cs4 O2 3.549445 1_555
Cs4 O19 3.561384 1_545
Cs4 O19 3.561384 1_655
Cs4 O2 3.562163 1_565
Cs4 O2 3.562163 1_455
Cs5 O26 3.027809 1_455
Cs5 O31 3.027809 1_565
Cs5 O22 3.072559 1_555
Cs5 O11 3.090811 1_555
Cs5 O14 3.090811 1_555
Cs5 O7 3.215616 1_555
Cs5 O18 3.525153 1_555
Cs5 O3 3.549445 1_555
Cs5 O18 3.561384 1_455
Cs5 O18 3.561384 1_565
Cs5 O3 3.562163 1_655
Cs5 O3 3.562163 1_545
Cs6 O8 3.144553 1_565
Cs6 O13 3.144553 1_455
Cs6 O13 3.172357 1_555
Cs6 O8 3.172357 1_555
Cs6 O4 3.188050 1_565
Cs6 O4 3.188050 1_455
Cs6 O17 3.191708 1_555
Cs6 O5 3.201096 1_554
Cs6 O9 3.275210 1_554
Cs6 O12 3.275210 1_554
Cs7 O9 3.144553 1_655
Cs7 O12 3.144553 1_545
Cs7 O12 3.172357 1_555
Cs7 O9 3.172357 1_555
Cs7 O5 3.188050 1_655
Cs7 O5 3.188050 1_545
Cs7 O16 3.191708 1_555
Cs7 O4 3.201096 1_556
Cs7 O13 3.275210 1_556
Cs7 O8 3.275210 1_556
Cs8 O10 3.144553 1_565
Cs8 O15 3.144553 1_455
Cs8 O10 3.172357 1_555
Cs8 O15 3.172357 1_555
Cs8 O6 3.188050 1_565
Cs8 O6 3.188050 1_455
Cs8 O19 3.191708 1_555
Cs8 O7 3.201096 1_555
Cs8 O11 3.275210 1_555
Cs8 O14 3.275210 1_555
Cs9 O11 3.144553 1_655
Cs9 O14 3.144553 1_545
Cs9 O14 3.172357 1_555
Cs9 O11 3.172357 1_555
Cs9 O7 3.188050 1_655
Cs9 O7 3.188050 1_545
Cs9 O18 3.191708 1_555
Cs9 O6 3.201096 1_555
Cs9 O10 3.275210 1_555
Cs9 O15 3.275210 1_555
O0 S0 1.480126 1_555
O1 S1 1.480126 1_555
O2 S2 1.480126 1_555
O3 S3 1.480126 1_555
O4 S0 1.488166 1_555
O5 S1 1.488166 1_555
O6 S2 1.488166 1_555
O7 S3 1.488166 1_555
O8 S0 1.470357 1_455
O9 S1 1.470357 1_545
O10 S2 1.470357 1_455
O11 S3 1.470357 1_545
O12 S1 1.470357 1_655
O13 S0 1.470357 1_565
O14 S3 1.470357 1_655
O15 S2 1.470357 1_565
O16 S4 1.472354 1_555
O17 S5 1.472354 1_555
O18 S6 1.472354 1_555
O19 S7 1.472354 1_555
O20 S4 1.478318 1_555
O21 S5 1.478318 1_555
O22 S6 1.478318 1_555
O23 S7 1.478318 1_555
O24 S4 1.471149 1_555
O25 S5 1.471149 1_555
O26 S6 1.471149 1_555
O27 S7 1.471149 1_555
O28 S5 1.471149 1_555
O29 S4 1.471149 1_555
O30 S7 1.471149 1_555
O31 S6 1.471149 1_555
