# generated using pymatgen
data_CdHOF
_symmetry_space_group_name_H-M   'P 1'
_cell_length_a   3.53435881
_cell_length_b   4.84468700
_cell_length_c   5.62795968
_cell_angle_alpha   90.00000000
_cell_angle_beta   90.08310871
_cell_angle_gamma   90.00000000
_symmetry_Int_Tables_number   1
_chemical_formula_structural   CdHOF
_chemical_formula_sum   'Cd2 H2 O2 F2'
_cell_volume   96.36667663
_cell_formula_units_Z   2
loop_
 _symmetry_equiv_pos_site_id
 _symmetry_equiv_pos_as_xyz
  1  'x, y, z'
loop_
 _atom_site_type_symbol
 _atom_site_label
 _atom_site_symmetry_multiplicity
 _atom_site_fract_x
 _atom_site_fract_y
 _atom_site_fract_z
 _atom_site_occupancy
  Cd  Cd0  1  0.74775600  0.75453200  0.98336900  1
  Cd  Cd1  1  0.25224400  0.25453200  0.51663100  1
  H  H0  1  0.74969900  0.68416700  0.52240400  1
  H  H1  1  0.25030100  0.18416700  0.97759600  1
  O  O0  1  0.24815900  0.02155300  0.86969200  1
  O  O1  1  0.75184100  0.52155300  0.63030800  1
  F  F0  1  0.24887400  0.47974800  0.14419800  1
  F  F1  1  0.75112600  0.97974800  0.35580200  1
loop_
_geom_bond_atom_site_label_1
_geom_bond_atom_site_label_2
_geom_bond_distance
_geom_bond_site_symmetry_2
Cd0 O0 2.279782 1_565
Cd0 O0 2.283426 1_665
Cd0 O1 2.285279 1_555
Cd0 F1 2.363037 1_556
Cd0 F0 2.388532 1_556
Cd0 F0 2.392433 1_656
Cd1 O1 2.279782 1_555
Cd1 O1 2.283426 1_455
Cd1 O0 2.285279 1_555
Cd1 F0 2.363037 1_555
Cd1 F1 2.388532 1_545
Cd1 F1 2.392433 1_445
H0 O1 0.994728 1_555
H1 O0 0.994728 1_555
