# generated using pymatgen
data_EuF3
_symmetry_space_group_name_H-M   'P 1'
_cell_length_a   4.31982316
_cell_length_b   6.71786343
_cell_length_c   6.97825222
_cell_angle_alpha   90.00000000
_cell_angle_beta   90.00000000
_cell_angle_gamma   90.00000000
_symmetry_Int_Tables_number   1
_chemical_formula_structural   EuF3
_chemical_formula_sum   'Eu4 F12'
_cell_volume   202.50875403
_cell_formula_units_Z   4
loop_
 _symmetry_equiv_pos_site_id
 _symmetry_equiv_pos_as_xyz
  1  'x, y, z'
loop_
 _atom_site_type_symbol
 _atom_site_label
 _atom_site_symmetry_multiplicity
 _atom_site_fract_x
 _atom_site_fract_y
 _atom_site_fract_z
 _atom_site_occupancy
  Eu  Eu0  1  0.94787890  0.63855539  0.75000000  1
  Eu  Eu1  1  0.44787890  0.86144461  0.25000000  1
  Eu  Eu2  1  0.55212110  0.13855539  0.75000000  1
  Eu  Eu3  1  0.05212110  0.36144461  0.25000000  1
  F  F0  1  0.41122770  0.16466511  0.43334059  1
  F  F1  1  0.91122770  0.33533489  0.56665941  1
  F  F2  1  0.08877230  0.66466511  0.06665941  1
  F  F3  1  0.58877230  0.83533489  0.93334059  1
  F  F4  1  0.56380183  0.51541030  0.25000000  1
  F  F5  1  0.06380183  0.98458970  0.75000000  1
  F  F6  1  0.93619817  0.01541030  0.25000000  1
  F  F7  1  0.43619817  0.48458970  0.75000000  1
  F  F8  1  0.41122770  0.16466511  0.06665941  1
  F  F9  1  0.91122770  0.33533489  0.93334059  1
  F  F10  1  0.08877230  0.66466511  0.43334059  1
  F  F11  1  0.58877230  0.83533489  0.56665941  1
loop_
_geom_bond_atom_site_label_1
_geom_bond_atom_site_label_2
_geom_bond_distance
_geom_bond_site_symmetry_2
Eu0 F2 2.298718 1_656
Eu0 F10 2.298718 1_655
Eu0 F7 2.349385 1_655
Eu0 F5 2.377937 1_655
Eu0 F11 2.406416 1_555
Eu0 F3 2.406416 1_555
Eu0 F9 2.410657 1_555
Eu0 F1 2.410657 1_555
Eu0 F7 2.440401 1_555
Eu1 F3 2.298718 1_554
Eu1 F11 2.298718 1_555
Eu1 F6 2.349385 1_565
Eu1 F4 2.377937 1_555
Eu1 F10 2.406416 1_555
Eu1 F2 2.406416 1_555
Eu1 F8 2.410657 1_565
Eu1 F0 2.410657 1_565
Eu1 F6 2.440401 1_465
Eu2 F8 2.298718 1_556
Eu2 F0 2.298718 1_555
Eu2 F5 2.349385 1_545
Eu2 F7 2.377937 1_555
Eu2 F9 2.406416 1_555
Eu2 F1 2.406416 1_555
Eu2 F3 2.410657 1_545
Eu2 F11 2.410657 1_545
Eu2 F5 2.440401 1_645
Eu3 F9 2.298718 1_454
Eu3 F1 2.298718 1_455
Eu3 F4 2.349385 1_455
Eu3 F6 2.377937 1_455
Eu3 F8 2.406416 1_555
Eu3 F0 2.406416 1_555
Eu3 F2 2.410657 1_555
Eu3 F10 2.410657 1_555
Eu3 F4 2.440401 1_555
