# generated using pymatgen
data_KNa2AlF6
_symmetry_space_group_name_H-M   'P 1'
_cell_length_a   6.05407290
_cell_length_b   6.05407290
_cell_length_c   6.05407290
_cell_angle_alpha   60.00000000
_cell_angle_beta   60.00000000
_cell_angle_gamma   60.00000000
_symmetry_Int_Tables_number   1
_chemical_formula_structural   KNa2AlF6
_chemical_formula_sum   'K1 Na2 Al1 F6'
_cell_volume   156.90180522
_cell_formula_units_Z   1
loop_
 _symmetry_equiv_pos_site_id
 _symmetry_equiv_pos_as_xyz
  1  'x, y, z'
loop_
 _atom_site_type_symbol
 _atom_site_label
 _atom_site_symmetry_multiplicity
 _atom_site_fract_x
 _atom_site_fract_y
 _atom_site_fract_z
 _atom_site_occupancy
  K  K0  1  0.50000000  0.50000000  0.50000000  1
  Na  Na0  1  0.25000000  0.25000000  0.25000000  1
  Na  Na1  1  0.75000000  0.75000000  0.75000000  1
  Al  Al0  1  0.00000000  0.00000000  0.00000000  1
  F  F0  1  0.21307000  0.21307000  0.78693000  1
  F  F1  1  0.21307000  0.78693000  0.78693000  1
  F  F2  1  0.78693000  0.78693000  0.21307000  1
  F  F3  1  0.21307000  0.78693000  0.21307000  1
  F  F4  1  0.78693000  0.21307000  0.78693000  1
  F  F5  1  0.78693000  0.21307000  0.21307000  1
loop_
_geom_bond_atom_site_label_1
_geom_bond_atom_site_label_2
_geom_bond_distance
_geom_bond_site_symmetry_2
Al0 F4 1.824252 1_454
Al0 F2 1.824252 1_445
Al0 F1 1.824252 1_544
Al0 F5 1.824252 1_455
Al0 F0 1.824252 1_554
Al0 F3 1.824252 1_545
F0 K0 2.456624 1_555
F1 K0 2.456624 1_555
F2 K0 2.456624 1_555
F3 K0 2.456624 1_555
F4 K0 2.456624 1_555
F5 K0 2.456624 1_555
