# generated using pymatgen
data_TeMoWSe2S
_symmetry_space_group_name_H-M   'P 1'
_cell_length_a   3.34357175
_cell_length_b   3.34357175
_cell_length_c   38.08547000
_cell_angle_alpha   90.00000000
_cell_angle_beta   90.00000000
_cell_angle_gamma   119.99999501
_symmetry_Int_Tables_number   1
_chemical_formula_structural   TeMoWSe2S
_chemical_formula_sum   'Te2 Mo2 W2 Se4 S2'
_cell_volume   368.73237169
_cell_formula_units_Z   2
loop_
 _symmetry_equiv_pos_site_id
 _symmetry_equiv_pos_as_xyz
  1  'x, y, z'
loop_
 _atom_site_type_symbol
 _atom_site_label
 _atom_site_symmetry_multiplicity
 _atom_site_fract_x
 _atom_site_fract_y
 _atom_site_fract_z
 _atom_site_occupancy
  Te  Te0  1  0.33333300  0.66666700  0.33185200  1
  Te  Te1  1  0.33333300  0.66666700  0.23174600  1
  Mo  Mo0  1  0.33333300  0.66666700  0.09387800  1
  Mo  Mo1  1  0.33333300  0.66666700  0.46968800  1
  W  W0  1  0.66666700  0.33333300  0.28178200  1
  W  W1  1  0.66666700  0.33333300  0.65753700  1
  Se  Se0  1  0.66666700  0.33333300  0.05018200  1
  Se  Se1  1  0.66666700  0.33333300  0.42596900  1
  Se  Se2  1  0.66666700  0.33333300  0.13762000  1
  Se  Se3  1  0.66666700  0.33333300  0.51342200  1
  S  S0  1  0.33333300  0.66666700  0.69753400  1
  S  S1  1  0.33333300  0.66666700  0.61753700  1
loop_
_geom_bond_atom_site_label_1
_geom_bond_atom_site_label_2
_geom_bond_distance
_geom_bond_site_symmetry_2
Te0 W0 2.713467 1_455
Te0 W0 2.713467 1_565
Te0 W0 2.713471 1_555
Te1 W0 2.712557 1_455
Te1 W0 2.712557 1_565
Te1 W0 2.712561 1_555
Mo0 Se0 2.548723 1_455
Mo0 Se0 2.548723 1_565
Mo0 Se0 2.548727 1_555
Mo0 Se2 2.549867 1_565
Mo0 Se2 2.549867 1_455
Mo0 Se2 2.549871 1_555
Mo1 Se1 2.549295 1_455
Mo1 Se1 2.549295 1_565
Mo1 Se1 2.549299 1_555
Mo1 Se3 2.549668 1_565
Mo1 Se3 2.549668 1_455
Mo1 Se3 2.549672 1_555
S0 W1 2.459053 1_455
S0 W1 2.459053 1_565
S0 W1 2.459057 1_555
S1 W1 2.459124 1_455
S1 W1 2.459124 1_565
S1 W1 2.459128 1_555
