# generated using pymatgen
data_La6NbGa11O28
_symmetry_space_group_name_H-M   'P 1'
_cell_length_a   8.26841410
_cell_length_b   9.80353330
_cell_length_c   9.81258382
_cell_angle_alpha   63.95109326
_cell_angle_beta   64.98772635
_cell_angle_gamma   64.65855121
_symmetry_Int_Tables_number   1
_chemical_formula_structural   La6NbGa11O28
_chemical_formula_sum   'La6 Nb1 Ga11 O28'
_cell_volume   618.23670077
_cell_formula_units_Z   1
loop_
 _symmetry_equiv_pos_site_id
 _symmetry_equiv_pos_as_xyz
  1  'x, y, z'
loop_
 _atom_site_type_symbol
 _atom_site_label
 _atom_site_symmetry_multiplicity
 _atom_site_fract_x
 _atom_site_fract_y
 _atom_site_fract_z
 _atom_site_occupancy
  La  La0  1  0.00028000  0.28890600  0.28575600  1
  La  La1  1  0.99925000  0.78578700  0.79054500  1
  La  La2  1  0.41746300  0.00210800  0.99981700  1
  La  La3  1  0.43408800  0.50583600  0.49941400  1
  La  La4  1  0.57589500  0.71137600  0.71960200  1
  La  La5  1  0.57439900  0.21268600  0.21220800  1
  Nb  Nb0  1  0.00224100  0.49976500  0.49974100  1
  Ga  Ga0  1  0.33148800  0.93676700  0.40495800  1
  Ga  Ga1  1  0.34324300  0.42503000  0.89803100  1
  Ga  Ga2  1  0.66341200  0.06877500  0.59673300  1
  Ga  Ga3  1  0.66184400  0.57253500  0.10358700  1
  Ga  Ga4  1  0.99844700  0.87586500  0.37082700  1
  Ga  Ga5  1  0.00029900  0.36953500  0.87757500  1
  Ga  Ga6  1  0.99846700  0.99711000  0.99748600  1
  Ga  Ga7  1  0.76109600  0.76979300  0.24616800  1
  Ga  Ga8  1  0.77297000  0.22998800  0.75664000  1
  Ga  Ga9  1  0.23557400  0.12925400  0.64356000  1
  Ga  Ga10  1  0.23518800  0.63831700  0.11985900  1
  O  O0  1  0.53666300  0.93033300  0.22382800  1
  O  O1  1  0.55445800  0.41363300  0.72399200  1
  O  O2  1  0.45703000  0.99111000  0.69478100  1
  O  O3  1  0.45135100  0.50226900  0.19430300  1
  O  O4  1  0.22997200  0.34642400  0.57018500  1
  O  O5  1  0.22840600  0.84736900  0.06300000  1
  O  O6  1  0.77270300  0.68181600  0.46054900  1
  O  O7  1  0.77039500  0.18062200  0.96348000  1
  O  O8  1  0.14420300  0.00805600  0.30629800  1
  O  O9  1  0.14926300  0.50277200  0.80750800  1
  O  O10  1  0.85416900  0.88016400  0.57823000  1
  O  O11  1  0.85023200  0.38026100  0.08117200  1
  O  O12  1  0.85290700  0.96645600  0.23546400  1
  O  O13  1  0.86354800  0.49189500  0.72920400  1
  O  O14  1  0.14095700  0.66026800  0.42194000  1
  O  O15  1  0.14374900  0.16089500  0.89826400  1
  O  O16  1  0.67392900  0.24126100  0.41850100  1
  O  O17  1  0.67500500  0.74086800  0.92134800  1
  O  O18  1  0.32968900  0.75813800  0.57765200  1
  O  O19  1  0.32221500  0.25668500  0.07924600  1
  O  O20  1  0.91872800  0.31513600  0.54484300  1
  O  O21  1  0.94198000  0.79280900  0.04933700  1
  O  O22  1  0.05089300  0.02656200  0.76207400  1
  O  O23  1  0.08445700  0.50421300  0.27329100  1
  O  O24  1  0.31273200  0.12087400  0.43055100  1
  O  O25  1  0.32529600  0.61089000  0.92020900  1
  O  O26  1  0.67427900  0.08021400  0.77625300  1
  O  O27  1  0.68515000  0.59177500  0.27518900  1
loop_
_geom_bond_atom_site_label_1
_geom_bond_atom_site_label_2
_geom_bond_distance
_geom_bond_site_symmetry_2
La0 O23 2.431789 1_555
La0 O11 2.438706 1_455
La0 O8 2.438894 1_555
La0 O20 2.441364 1_455
La0 O19 2.563747 1_555
La0 O16 2.601647 1_455
La0 O24 2.968506 1_555
La0 O27 2.991901 1_455
La1 O21 2.405491 1_556
La1 O22 2.452517 1_665
La1 O9 2.467253 1_655
La1 O10 2.470985 1_555
La1 O17 2.575538 1_555
La1 O18 2.634254 1_655
La1 O25 2.975599 1_655
La1 O26 2.982454 1_565
La2 O5 2.348105 1_546
La2 O26 2.425956 1_555
La2 O15 2.463153 1_555
La2 O0 2.485597 1_546
La2 O19 2.638809 1_556
La2 O17 2.713578 1_545
La2 O8 2.906537 1_556
La2 O2 2.915995 1_545
La3 O27 2.422161 1_555
La3 O1 2.449277 1_555
La3 O4 2.467089 1_555
La3 O14 2.480047 1_555
La3 O18 2.594638 1_555
La3 O16 2.713821 1_555
La3 O9 2.940583 1_555
La3 O3 2.951525 1_555
La4 O25 2.394543 1_555
La4 O2 2.419606 1_555
La4 O13 2.434381 1_555
La4 O6 2.437017 1_555
La4 O17 2.598369 1_555
La4 O18 2.707887 1_555
La4 O10 2.915571 1_555
La4 O1 2.979840 1_555
La5 O7 2.361139 1_554
La5 O24 2.476889 1_555
La5 O3 2.523120 1_555
La5 O12 2.526691 1_545
La5 O16 2.637706 1_555
La5 O19 2.696763 1_555
La5 O0 2.864357 1_545
La5 O11 2.902769 1_555
Nb0 O4 2.012008 1_555
Nb0 O6 2.012481 1_455
Nb0 O20 2.014144 1_455
Nb0 O23 2.016058 1_555
Nb0 O14 2.030678 1_555
Nb0 O13 2.032370 1_455
Ga0 O18 1.825694 1_555
Ga0 O24 1.862883 1_565
Ga0 O0 1.870318 1_555
Ga0 O8 1.889640 1_565
Ga1 O19 1.822815 1_556
Ga1 O1 1.859415 1_555
Ga1 O25 1.865173 1_555
Ga1 O9 1.872474 1_555
Ga2 O16 1.823606 1_555
Ga2 O26 1.854642 1_555
Ga2 O10 1.869723 1_545
Ga2 O2 1.870253 1_545
Ga3 O17 1.824915 1_554
Ga3 O3 1.863784 1_555
Ga3 O27 1.868837 1_555
Ga3 O11 1.894413 1_555
Ga4 O12 1.844421 1_555
Ga4 O8 1.871841 1_665
Ga4 O14 1.882586 1_655
Ga4 O10 1.883090 1_555
Ga5 O15 1.842256 1_555
Ga5 O11 1.875771 1_456
Ga5 O13 1.879961 1_455
Ga5 O9 1.888988 1_555
Ga6 O5 1.999625 1_656
Ga6 O7 2.001217 1_565
Ga6 O21 2.047761 1_556
Ga6 O15 2.063541 1_665
Ga6 O22 2.069291 1_665
Ga6 O12 2.075703 1_556
Ga7 O21 1.865899 1_555
Ga7 O0 1.873390 1_555
Ga7 O6 1.919563 1_555
Ga7 O27 1.967632 1_555
Ga7 O12 2.304791 1_555
Ga8 O7 1.861093 1_555
Ga8 O26 1.871776 1_555
Ga8 O20 1.920413 1_555
Ga8 O1 1.951079 1_555
Ga8 O22 2.312567 1_655
Ga9 O22 1.866486 1_555
Ga9 O2 1.870093 1_545
Ga9 O4 1.910707 1_555
Ga9 O24 1.939303 1_555
Ga9 O15 2.407041 1_555
Ga10 O5 1.854314 1_555
Ga10 O25 1.876771 1_554
Ga10 O23 1.904174 1_555
Ga10 O3 1.927375 1_555
Ga10 O21 2.450571 1_455
