# generated using pymatgen
data_SrYCoO4
_symmetry_space_group_name_H-M   'P 1'
_cell_length_a   5.42303537
_cell_length_b   6.70948485
_cell_length_c   10.16962522
_cell_angle_alpha   76.61061277
_cell_angle_beta   89.40385179
_cell_angle_gamma   90.25804194
_symmetry_Int_Tables_number   1
_chemical_formula_structural   SrYCoO4
_chemical_formula_sum   'Sr4 Y4 Co4 O16'
_cell_volume   359.94325130
_cell_formula_units_Z   4
loop_
 _symmetry_equiv_pos_site_id
 _symmetry_equiv_pos_as_xyz
  1  'x, y, z'
loop_
 _atom_site_type_symbol
 _atom_site_label
 _atom_site_symmetry_multiplicity
 _atom_site_fract_x
 _atom_site_fract_y
 _atom_site_fract_z
 _atom_site_occupancy
  Sr  Sr0  1  0.00670900  0.46999200  0.82320700  1
  Sr  Sr1  1  0.00225000  0.96158900  0.32327700  1
  Sr  Sr2  1  0.49346500  0.71911200  0.57191200  1
  Sr  Sr3  1  0.49711800  0.21809300  0.07120000  1
  Y  Y0  1  0.52419100  0.78126300  0.94521800  1
  Y  Y1  1  0.52258600  0.27832100  0.43889700  1
  Y  Y2  1  0.97736700  0.05828600  0.66337300  1
  Y  Y3  1  0.97726500  0.54934700  0.17268000  1
  Co  Co0  1  0.50065200  0.25208700  0.74943800  1
  Co  Co1  1  0.00077300  0.50364600  0.49919100  1
  Co  Co2  1  0.49564600  0.75155500  0.25296500  1
  Co  Co3  1  0.00237200  0.99819600  0.99916500  1
  O  O0  1  0.95861700  0.73242300  0.94602100  1
  O  O1  1  0.93865100  0.22587900  0.43570100  1
  O  O2  1  0.54883600  0.03081600  0.64075500  1
  O  O3  1  0.54682900  0.52526400  0.15144600  1
  O  O4  1  0.48561100  0.52182400  0.84388000  1
  O  O5  1  0.47428100  0.01215100  0.33839700  1
  O  O6  1  0.02449700  0.77644200  0.59334900  1
  O  O7  1  0.01688000  0.26729300  0.08574000  1
  O  O8  1  0.76141000  0.10129000  0.86942300  1
  O  O9  1  0.75461100  0.60937500  0.37435000  1
  O  O10  1  0.24367300  0.35906900  0.61383900  1
  O  O11  1  0.24352400  0.85655600  0.11636600  1
  O  O12  1  0.74194900  0.88527700  0.13211900  1
  O  O13  1  0.75034200  0.39330500  0.63139400  1
  O  O14  1  0.26376100  0.08742600  0.85936100  1
  O  O15  1  0.24613200  0.57412000  0.35733600  1
loop_
_geom_bond_atom_site_label_1
_geom_bond_atom_site_label_2
_geom_bond_distance
_geom_bond_site_symmetry_2
Co0 O14 1.872413 1_555
Co0 O13 1.897426 1_555
Co0 O10 1.987349 1_555
Co0 O8 1.997317 1_555
Co0 O2 2.061895 1_555
Co0 O4 2.238120 1_555
Co1 O9 1.877190 1_455
Co1 O10 1.885520 1_555
Co1 O13 1.921469 1_455
Co1 O15 1.927084 1_555
Co1 O1 2.135376 1_455
Co1 O6 2.257361 1_555
Co2 O12 1.882503 1_555
Co2 O15 1.935254 1_555
Co2 O11 1.972423 1_555
Co2 O9 1.977093 1_555
Co2 O3 2.042532 1_555
Co2 O5 2.128065 1_565
Co3 O8 1.883685 1_465
Co3 O11 1.884954 1_556
Co3 O12 1.967968 1_456
Co3 O14 1.986299 1_565
Co3 O0 1.993338 1_455
Co3 O7 2.185765 1_566
O0 Y3 2.350939 1_556
O0 Y0 2.379887 1_555
O0 Sr0 2.396696 1_655
O1 Y1 2.286226 1_555
O1 Y2 2.340033 1_555
O1 Sr1 2.346653 1_645
O1 Y3 3.033879 1_555
O1 Y1 3.185946 1_655
O2 Y1 2.328395 1_555
O2 Y2 2.348291 1_555
O2 Sr2 2.372972 1_545
O3 Y3 2.354741 1_555
O3 Y0 2.388034 1_554
O3 Sr3 2.400983 1_555
O3 Y1 3.009126 1_555
O3 Y3 3.101611 1_455
O4 Y0 2.228884 1_555
O4 Sr0 2.635748 1_555
O4 Sr3 2.706169 1_556
O4 Sr2 2.775819 1_555
O4 Sr0 2.860313 1_655
O5 Y1 2.269185 1_555
O5 Sr1 2.591533 1_545
O5 Sr2 2.713037 1_545
O5 Sr3 2.749697 1_555
O5 Sr1 2.891429 1_645
O6 Y2 2.184643 1_465
O6 Sr2 2.588362 1_555
O6 Sr0 2.732895 1_555
O6 Sr1 2.743947 1_555
O6 Sr2 2.920734 1_455
O7 Y3 2.276799 1_455
O7 Sr3 2.633590 1_555
O7 Sr0 2.702389 1_554
O7 Sr1 2.783630 1_545
O7 Sr3 2.845827 1_455
O8 Y0 2.459183 1_545
O8 Y2 2.465306 1_555
O8 Sr0 2.743914 1_655
O8 Sr3 2.751872 1_556
O9 Y3 2.482299 1_555
O9 Y1 2.496049 1_555
O9 Sr1 2.654492 1_655
O9 Sr2 2.686939 1_555
O10 Y2 2.428979 1_455
O10 Y1 2.478772 1_555
O10 Sr2 2.708121 1_555
O10 Sr0 2.724760 1_555
O11 Y0 2.441370 1_554
O11 Y3 2.463899 1_455
O11 Sr1 2.697055 1_555
O11 Sr3 2.725294 1_565
O12 Y0 2.479499 1_554
O12 Y3 2.546579 1_555
O12 Sr3 2.556595 1_565
O12 Sr1 2.558431 1_655
O13 Y2 2.523659 1_555
O13 Sr0 2.552953 1_655
O13 Sr2 2.552967 1_555
O13 Y1 2.587317 1_555
O14 Y0 2.489549 1_545
O14 Y2 2.581690 1_455
O14 Sr3 2.816504 1_556
O14 Sr0 2.876248 1_555
O15 Y3 2.424749 1_455
O15 Y1 2.482899 1_555
O15 Sr1 2.872488 1_555
O15 Sr2 2.922257 1_555
