# generated using pymatgen
data_CaMg14Ti
_symmetry_space_group_name_H-M   'P 1'
_cell_length_a   6.49188093
_cell_length_b   6.49188038
_cell_length_c   10.27974946
_cell_angle_alpha   90.00000000
_cell_angle_beta   90.00000000
_cell_angle_gamma   120.00000276
_symmetry_Int_Tables_number   1
_chemical_formula_structural   CaMg14Ti
_chemical_formula_sum   'Ca1 Mg14 Ti1'
_cell_volume   375.19254821
_cell_formula_units_Z   1
loop_
 _symmetry_equiv_pos_site_id
 _symmetry_equiv_pos_as_xyz
  1  'x, y, z'
loop_
 _atom_site_type_symbol
 _atom_site_label
 _atom_site_symmetry_multiplicity
 _atom_site_fract_x
 _atom_site_fract_y
 _atom_site_fract_z
 _atom_site_occupancy
  Ca  Ca0  1  0.16666700  0.33333300  0.12500000  1
  Mg  Mg0  1  0.17345458  0.83672679  0.12500000  1
  Mg  Mg1  1  0.16876395  0.83438147  0.62500000  1
  Mg  Mg2  1  0.66327321  0.32654542  0.12500000  1
  Mg  Mg3  1  0.66561853  0.33123605  0.62500000  1
  Mg  Mg4  1  0.66327321  0.83672679  0.12500000  1
  Mg  Mg5  1  0.66561853  0.83438147  0.62500000  1
  Mg  Mg6  1  0.33322131  0.16677869  0.38436284  1
  Mg  Mg7  1  0.33322131  0.16677869  0.86563716  1
  Mg  Mg8  1  0.33322131  0.66644363  0.38436284  1
  Mg  Mg9  1  0.33322131  0.66644363  0.86563716  1
  Mg  Mg10  1  0.83355637  0.16677869  0.38436284  1
  Mg  Mg11  1  0.83355637  0.16677869  0.86563716  1
  Mg  Mg12  1  0.83333300  0.66666700  0.37157821  1
  Mg  Mg13  1  0.83333300  0.66666700  0.87842179  1
  Ti  Ti0  1  0.16666700  0.33333300  0.62500000  1
loop_
_geom_bond_atom_site_label_1
_geom_bond_atom_site_label_2
_geom_bond_distance
_geom_bond_site_symmetry_2
Ca0 Mg0 3.246164 1_555
Ca0 Mg4 3.246164 1_555
Ca0 Mg0 3.246165 1_545
Ca0 Mg4 3.246165 1_445
Ca0 Mg2 3.246165 1_555
Ca0 Mg2 3.246165 1_455
Ca0 Mg6 3.258198 1_555
Ca0 Mg7 3.258198 1_554
Ca0 Mg9 3.258204 1_554
Ca0 Mg8 3.258204 1_555
Ca0 Mg11 3.258204 1_454
Ca0 Mg10 3.258204 1_455
Mg0 Mg12 3.175148 1_455
Mg0 Mg13 3.175148 1_454
Mg0 Mg2 3.179844 1_565
Mg0 Mg4 3.179844 1_555
Mg0 Mg8 3.248523 1_555
Mg0 Mg9 3.248523 1_554
Mg0 Mg6 3.248529 1_565
Mg0 Mg7 3.248529 1_564
Mg0 Mg2 3.312036 1_455
Mg0 Mg4 3.312037 1_455
Mg1 Mg8 3.100253 1_555
Mg1 Mg9 3.100253 1_555
Mg1 Mg6 3.100260 1_565
Mg1 Mg7 3.100260 1_565
Mg1 Mg12 3.216053 1_455
Mg1 Mg13 3.216053 1_455
Mg1 Mg3 3.225521 1_565
Mg1 Mg5 3.225521 1_555
Mg1 Ti0 3.245962 1_555
Mg1 Ti0 3.245962 1_565
Mg1 Mg3 3.266360 1_455
Mg1 Mg5 3.266360 1_455
Mg2 Mg4 3.179844 1_545
Mg2 Mg7 3.248530 1_554
Mg2 Mg6 3.248530 1_555
Mg2 Mg4 3.312036 1_555
Mg3 Mg7 3.100260 1_555
Mg3 Mg6 3.100260 1_555
Mg3 Mg5 3.225520 1_545
Mg3 Ti0 3.245962 1_655
Mg3 Ti0 3.245962 1_555
Mg3 Mg5 3.266360 1_555
Mg4 Mg9 3.248529 1_554
Mg4 Mg8 3.248529 1_555
Mg5 Mg8 3.100260 1_555
Mg5 Mg9 3.100260 1_555
Mg5 Ti0 3.245962 1_555
Mg5 Ti0 3.245962 1_665
Mg6 Ti0 3.102652 1_555
Mg6 Mg8 3.243765 1_555
Mg6 Mg8 3.248115 1_545
Mg7 Ti0 3.102652 1_555
Mg7 Mg9 3.243765 1_555
Mg7 Mg9 3.248115 1_545
Mg8 Ti0 3.102659 1_555
Mg9 Ti0 3.102659 1_555
Mg10 Mg3 3.100253 1_555
Mg10 Mg5 3.100260 1_545
Mg10 Ti0 3.102659 1_655
Mg10 Mg8 3.243765 1_655
Mg10 Mg6 3.243765 1_655
Mg10 Mg8 3.248115 1_545
Mg10 Mg6 3.248116 1_555
Mg10 Mg2 3.248523 1_555
Mg10 Mg4 3.248529 1_545
Mg10 Mg12 3.248600 1_555
Mg10 Mg12 3.248600 1_545
Mg11 Mg3 3.100253 1_555
Mg11 Mg5 3.100260 1_545
Mg11 Ti0 3.102659 1_655
Mg11 Mg9 3.243765 1_655
Mg11 Mg7 3.243765 1_655
Mg11 Mg9 3.248115 1_545
Mg11 Mg7 3.248116 1_555
Mg11 Mg2 3.248523 1_556
Mg11 Mg4 3.248529 1_546
Mg11 Mg13 3.248600 1_555
Mg11 Mg13 3.248600 1_545
Mg12 Mg4 3.175141 1_555
Mg12 Mg2 3.175148 1_555
Mg12 Mg5 3.216046 1_555
Mg12 Mg3 3.216053 1_555
Mg12 Mg6 3.248600 1_665
Mg12 Mg6 3.248600 1_555
Mg12 Mg8 3.248600 1_655
Mg12 Mg8 3.248600 1_555
Mg13 Mg4 3.175141 1_556
Mg13 Mg2 3.175148 1_556
Mg13 Mg5 3.216046 1_555
Mg13 Mg3 3.216053 1_555
Mg13 Mg7 3.248600 1_665
Mg13 Mg7 3.248600 1_555
Mg13 Mg9 3.248600 1_655
Mg13 Mg9 3.248600 1_555
