# generated using pymatgen
data_Tb8Cu3Te16
_symmetry_space_group_name_H-M   'P 1'
_cell_length_a   12.54590591
_cell_length_b   9.86348697
_cell_length_c   8.13272139
_cell_angle_alpha   90.14494182
_cell_angle_beta   90.25875977
_cell_angle_gamma   50.52283523
_symmetry_Int_Tables_number   1
_chemical_formula_structural   Tb8Cu3Te16
_chemical_formula_sum   'Tb8 Cu3 Te16'
_cell_volume   776.80605977
_cell_formula_units_Z   1
loop_
 _symmetry_equiv_pos_site_id
 _symmetry_equiv_pos_as_xyz
  1  'x, y, z'
loop_
 _atom_site_type_symbol
 _atom_site_label
 _atom_site_symmetry_multiplicity
 _atom_site_fract_x
 _atom_site_fract_y
 _atom_site_fract_z
 _atom_site_occupancy
  Tb  Tb0  1  0.00245100  0.23883000  0.43955800  1
  Tb  Tb1  1  0.25631300  0.23509500  0.05705700  1
  Tb  Tb2  1  0.50826400  0.23517500  0.44354700  1
  Tb  Tb3  1  0.24041400  0.76408500  0.94500500  1
  Tb  Tb4  1  0.76189100  0.23237700  0.06112300  1
  Tb  Tb5  1  0.49249700  0.76597400  0.55379900  1
  Tb  Tb6  1  0.74878200  0.76078800  0.94184400  1
  Tb  Tb7  1  0.99410300  0.76256600  0.55599000  1
  Cu  Cu0  1  0.08688100  0.40332100  0.69624100  1
  Cu  Cu1  1  0.50806300  0.40027900  0.80513500  1
  Cu  Cu2  1  0.66486000  0.59491700  0.19765400  1
  Te  Te0  1  0.21419200  0.07087100  0.75177400  1
  Te  Te1  1  0.18558000  0.39363000  0.40467800  1
  Te  Te2  1  0.06712400  0.61136500  0.91360900  1
  Te  Te3  1  0.46744200  0.06541300  0.75112500  1
  Te  Te4  1  0.03716500  0.92464200  0.25105000  1
  Te  Te5  1  0.32321000  0.61177800  0.58796000  1
  Te  Te6  1  0.42156100  0.39374300  0.09743700  1
  Te  Te7  1  0.28096800  0.93265200  0.25143000  1
  Te  Te8  1  0.71532400  0.07081600  0.74784500  1
  Te  Te9  1  0.68282900  0.38984400  0.41424500  1
  Te  Te10  1  0.56305200  0.60843700  0.90579600  1
  Te  Te11  1  0.96420100  0.07154200  0.74949800  1
  Te  Te12  1  0.53524300  0.92821200  0.24964200  1
  Te  Te13  1  0.82448400  0.61021500  0.59176200  1
  Te  Te14  1  0.92558400  0.39116500  0.09093100  1
  Te  Te15  1  0.78652300  0.92926600  0.24926600  1
loop_
_geom_bond_atom_site_label_1
_geom_bond_atom_site_label_2
_geom_bond_distance
_geom_bond_site_symmetry_2
Tb0 Te14 3.062825 1_455
Tb0 Te13 3.088412 1_455
Tb0 Te7 3.205905 1_545
Tb0 Te11 3.216433 1_455
Tb0 Te4 3.226390 1_545
Tb0 Te0 3.257795 1_555
Tb0 Te9 3.277198 1_455
Tb0 Te1 3.486982 1_555
Tb1 Te1 3.075880 1_555
Tb1 Te2 3.092667 1_554
Tb1 Te0 3.181746 1_554
Tb1 Te7 3.215560 1_545
Tb1 Te12 3.219794 1_545
Tb1 Te3 3.226331 1_554
Tb1 Te6 3.312244 1_555
Tb1 Te14 3.398325 1_455
Tb2 Te6 3.063326 1_555
Tb2 Te5 3.099122 1_555
Tb2 Te8 3.179351 1_555
Tb2 Te15 3.227975 1_545
Tb2 Te12 3.232045 1_545
Tb2 Te3 3.232103 1_555
Tb2 Te1 3.298098 1_555
Tb2 Te9 3.381647 1_555
Tb3 Te6 3.080050 1_556
Tb3 Te5 3.128664 1_555
Tb3 Te4 3.179276 1_556
Tb3 Te7 3.205766 1_556
Tb3 Te11 3.216423 1_465
Tb3 Te0 3.238513 1_565
Tb3 Te10 3.309176 1_555
Tb3 Te2 3.349353 1_555
Tb4 Te9 3.112544 1_555
Tb4 Te10 3.131601 1_554
Tb4 Te4 3.189443 1_645
Tb4 Te15 3.196767 1_545
Tb4 Te11 3.209324 1_554
Tb4 Te8 3.243740 1_554
Tb4 Te14 3.288284 1_555
Tb4 Te6 3.495576 1_555
Tb5 Te9 3.080996 1_555
Tb5 Te10 3.105435 1_555
Tb5 Te12 3.176537 1_555
Tb5 Te3 3.193352 1_565
Tb5 Te7 3.194764 1_555
Tb5 Te0 3.240715 1_565
Tb5 Te5 3.319025 1_555
Tb5 Te13 3.414350 1_555
Tb6 Te14 3.065492 1_556
Tb6 Te13 3.069743 1_555
Tb6 Te15 3.194588 1_556
Tb6 Te3 3.221986 1_565
Tb6 Te8 3.225342 1_565
Tb6 Te12 3.253416 1_556
Tb6 Te2 3.270769 1_655
Tb6 Te10 3.495377 1_555
Tb7 Te1 3.068539 1_655
Tb7 Te2 3.127770 1_655
Tb7 Te4 3.182485 1_655
Tb7 Te15 3.197747 1_555
Tb7 Te8 3.227259 1_565
Tb7 Te11 3.229936 1_565
Tb7 Te13 3.308355 1_555
Tb7 Te5 3.392877 1_655
Cu0 Te2 2.595428 1_555
Cu0 Te0 2.617058 1_555
Cu0 Te1 2.653283 1_555
Cu0 Te13 2.676762 1_455
Cu0 Tb7 3.158424 1_455
Cu0 Tb0 3.203171 1_555
Cu0 Tb1 3.371346 1_556
Cu1 Te5 2.584529 1_555
Cu1 Te8 2.607208 1_555
Cu1 Te6 2.635543 1_556
Cu1 Te10 2.673776 1_555
Cu1 Tb3 3.184098 1_555
Cu1 Tb4 3.235673 1_556
Cu1 Tb2 3.357130 1_555
Cu2 Te9 2.584509 1_555
Cu2 Te12 2.613830 1_555
Cu2 Te10 2.653455 1_554
Cu2 Te14 2.673910 1_555
Cu2 Tb4 3.155778 1_555
Cu2 Tb6 3.215710 1_554
Cu2 Tb5 3.362260 1_555
Te0 Te11 3.132131 1_455
Te0 Te3 3.143327 1_555
