# generated using pymatgen
data_AlNi4Ge
_symmetry_space_group_name_H-M   'P 1'
_cell_length_a   3.76765853
_cell_length_b   4.95509211
_cell_length_c   7.27738578
_cell_angle_alpha   90.00000000
_cell_angle_beta   90.00000000
_cell_angle_gamma   90.00000000
_symmetry_Int_Tables_number   1
_chemical_formula_structural   AlNi4Ge
_chemical_formula_sum   'Al2 Ni8 Ge2'
_cell_volume   135.86220688
_cell_formula_units_Z   2
loop_
 _symmetry_equiv_pos_site_id
 _symmetry_equiv_pos_as_xyz
  1  'x, y, z'
loop_
 _atom_site_type_symbol
 _atom_site_label
 _atom_site_symmetry_multiplicity
 _atom_site_fract_x
 _atom_site_fract_y
 _atom_site_fract_z
 _atom_site_occupancy
  Al  Al0  1  0.75000000  0.81180424  0.89005786  1
  Al  Al1  1  0.75000000  0.31180424  0.60994214  1
  Ni  Ni0  1  0.75000000  0.44572296  0.28121446  1
  Ni  Ni1  1  0.75000000  0.94572296  0.21878554  1
  Ni  Ni2  1  0.25000000  0.56611962  0.72850775  1
  Ni  Ni3  1  0.25000000  0.06611962  0.77149225  1
  Ni  Ni4  1  0.75000000  0.33391380  0.93801410  1
  Ni  Ni5  1  0.75000000  0.83391380  0.56198590  1
  Ni  Ni6  1  0.25000000  0.66064538  0.07056482  1
  Ni  Ni7  1  0.25000000  0.16064538  0.42943518  1
  Ge  Ge0  1  0.25000000  0.18179300  0.10017428  1
  Ge  Ge1  1  0.25000000  0.68179300  0.39982572  1
loop_
_geom_bond_atom_site_label_1
_geom_bond_atom_site_label_2
_geom_bond_distance
_geom_bond_site_symmetry_2
Al0 Ni5 2.390018 1_555
Al0 Ni4 2.393571 1_555
Al0 Ni6 2.415661 1_556
Al0 Ni6 2.415661 1_656
Al0 Ni3 2.425142 1_565
Al0 Ni3 2.425142 1_665
Al0 Ni1 2.482606 1_556
Al0 Ni2 2.532397 1_555
Al0 Ni2 2.532397 1_655
Al0 Ni4 2.610534 1_565
Al1 Ni4 2.390018 1_555
Al1 Ni5 2.393571 1_545
Al1 Ni7 2.415661 1_555
Al1 Ni7 2.415661 1_655
Al1 Ni2 2.425142 1_555
Al1 Ni2 2.425142 1_655
Al1 Ni0 2.482606 1_555
Al1 Ni3 2.532397 1_555
Al1 Ni3 2.532397 1_655
Al1 Ni5 2.610534 1_555
Ni0 Ni7 2.589926 1_555
Ni0 Ni7 2.589926 1_655
Ni0 Ni6 2.651976 1_655
Ni0 Ni6 2.651976 1_555
Ni1 Ni6 2.589926 1_555
Ni1 Ni6 2.589926 1_655
Ni1 Ni7 2.651976 1_565
Ni1 Ni7 2.651976 1_665
Ni2 Ni6 2.532964 1_556
Ni3 Ni7 2.532964 1_555
Ni4 Ni6 2.664662 1_656
Ni4 Ni6 2.664662 1_556
Ni5 Ni7 2.664662 1_665
Ni5 Ni7 2.664662 1_565
Ge0 Ni4 2.347259 1_554
Ge0 Ni4 2.347259 1_454
Ge0 Ni1 2.379539 1_545
Ge0 Ni1 2.379539 1_445
Ge0 Ni6 2.382522 1_555
Ge0 Ni7 2.398449 1_555
Ge0 Ni3 2.459661 1_554
Ge0 Ni6 2.591309 1_545
Ge0 Ni0 2.644797 1_455
Ge0 Ni0 2.644797 1_555
Ge1 Ni5 2.347259 1_555
Ge1 Ni5 2.347259 1_455
Ge1 Ni0 2.379539 1_555
Ge1 Ni0 2.379539 1_455
Ge1 Ni7 2.382522 1_565
Ge1 Ni6 2.398449 1_555
Ge1 Ni2 2.459661 1_555
Ge1 Ni7 2.591309 1_555
Ge1 Ni1 2.644797 1_455
Ge1 Ni1 2.644797 1_555
