# generated using pymatgen
data_Mg6NiC
_symmetry_space_group_name_H-M   'P 1'
_cell_length_a   3.66877000
_cell_length_b   7.50160400
_cell_length_c   10.47064600
_cell_angle_alpha   90.00000000
_cell_angle_beta   90.00000000
_cell_angle_gamma   90.00000000
_symmetry_Int_Tables_number   1
_chemical_formula_structural   Mg6NiC
_chemical_formula_sum   'Mg12 Ni2 C2'
_cell_volume   288.16955613
_cell_formula_units_Z   2
loop_
 _symmetry_equiv_pos_site_id
 _symmetry_equiv_pos_as_xyz
  1  'x, y, z'
loop_
 _atom_site_type_symbol
 _atom_site_label
 _atom_site_symmetry_multiplicity
 _atom_site_fract_x
 _atom_site_fract_y
 _atom_site_fract_z
 _atom_site_occupancy
  Mg  Mg0  1  0.00000000  0.67826100  0.10893600  1
  Mg  Mg1  1  0.00000000  0.32173900  0.10893600  1
  Mg  Mg2  1  0.00000000  0.50000000  0.84811000  1
  Mg  Mg3  1  0.50000000  0.81766100  0.84077800  1
  Mg  Mg4  1  0.50000000  0.18233900  0.84077800  1
  Mg  Mg5  1  0.50000000  0.50000000  0.62617400  1
  Mg  Mg6  1  0.00000000  0.17826100  0.60893600  1
  Mg  Mg7  1  0.00000000  0.82173900  0.60893600  1
  Mg  Mg8  1  0.00000000  0.00000000  0.34811000  1
  Mg  Mg9  1  0.50000000  0.31766100  0.34077800  1
  Mg  Mg10  1  0.50000000  0.68233900  0.34077800  1
  Mg  Mg11  1  0.50000000  0.00000000  0.12617400  1
  Ni  Ni0  1  0.00000000  0.50000000  0.46673400  1
  Ni  Ni1  1  0.00000000  0.00000000  0.96673400  1
  C  C0  1  0.50000000  0.50000000  0.15955600  1
  C  C1  1  0.50000000  0.00000000  0.65955600  1
loop_
_geom_bond_atom_site_label_1
_geom_bond_atom_site_label_2
_geom_bond_distance
_geom_bond_site_symmetry_2
Mg0 Ni1 2.835882 1_564
Mg0 Mg2 3.040834 1_554
Mg1 Ni1 2.835882 1_554
Mg1 Mg2 3.040834 1_554
Mg2 Mg5 2.960587 1_555
Mg2 Mg5 2.960587 1_455
Mg2 Mg4 3.008221 1_555
Mg2 Mg3 3.008221 1_455
Mg2 Mg4 3.008221 1_455
Mg2 Mg3 3.008221 1_555
Mg3 Ni1 2.641076 1_665
Mg3 Ni1 2.641076 1_565
Mg4 Ni1 2.641076 1_555
Mg4 Ni1 2.641076 1_655
Mg5 Ni0 2.480322 1_655
Mg5 Ni0 2.480322 1_555
Mg6 Ni0 2.835882 1_555
Mg6 Mg8 3.040834 1_555
Mg7 Ni0 2.835882 1_555
Mg7 Mg8 3.040834 1_565
Mg8 Mg9 3.008221 1_455
Mg8 Mg9 3.008221 1_555
Mg9 Ni0 2.641076 1_655
Mg9 Ni0 2.641076 1_555
Mg10 Ni0 2.641076 1_655
Mg10 Ni0 2.641076 1_555
Mg10 Mg8 3.008221 1_565
Mg10 Mg8 3.008221 1_665
Mg11 Ni1 2.480322 1_554
Mg11 Ni1 2.480322 1_654
Mg11 Mg8 2.960587 1_655
Mg11 Mg8 2.960587 1_555
C0 Mg0 2.331119 1_555
C0 Mg0 2.331119 1_655
C0 Mg1 2.331119 1_655
C0 Mg1 2.331119 1_555
C0 Mg10 2.339128 1_555
C0 Mg9 2.339128 1_555
C1 Mg7 2.331119 1_645
C1 Mg6 2.331119 1_655
C1 Mg7 2.331119 1_545
C1 Mg6 2.331119 1_555
C1 Mg4 2.339128 1_555
C1 Mg3 2.339128 1_545
