# generated using pymatgen
data_Ti27CuP16
_symmetry_space_group_name_H-M   'P 1'
_cell_length_a   7.45023680
_cell_length_b   7.45023680
_cell_length_c   27.25579941
_cell_angle_alpha   75.76413420
_cell_angle_beta   75.76413420
_cell_angle_gamma   26.44074473
_symmetry_Int_Tables_number   1
_chemical_formula_structural   Ti27CuP16
_chemical_formula_sum   'Ti27 Cu1 P16'
_cell_volume   651.78776302
_cell_formula_units_Z   1
loop_
 _symmetry_equiv_pos_site_id
 _symmetry_equiv_pos_as_xyz
  1  'x, y, z'
loop_
 _atom_site_type_symbol
 _atom_site_label
 _atom_site_symmetry_multiplicity
 _atom_site_fract_x
 _atom_site_fract_y
 _atom_site_fract_z
 _atom_site_occupancy
  Ti  Ti0  1  0.99757500  0.99757500  0.33105000  1
  Ti  Ti1  1  0.99705600  0.99705600  0.83117500  1
  Ti  Ti2  1  0.00249500  0.00249500  0.16840500  1
  Ti  Ti3  1  0.00280000  0.00280000  0.66878000  1
  Ti  Ti4  1  0.66038800  0.66038800  0.01624900  1
  Ti  Ti5  1  0.65999200  0.65999200  0.51589000  1
  Ti  Ti6  1  0.33931700  0.33931700  0.48397200  1
  Ti  Ti7  1  0.33989800  0.33989800  0.98307300  1
  Ti  Ti8  1  0.82089500  0.82089500  0.26889600  1
  Ti  Ti9  1  0.82142500  0.82142500  0.77111400  1
  Ti  Ti10  1  0.17832000  0.17832000  0.22970200  1
  Ti  Ti11  1  0.17848200  0.17848200  0.72883400  1
  Ti  Ti12  1  0.79401100  0.79401100  0.39646500  1
  Ti  Ti13  1  0.79394400  0.79394400  0.89698200  1
  Ti  Ti14  1  0.20850600  0.20850600  0.10433800  1
  Ti  Ti15  1  0.20582700  0.20582700  0.60301700  1
  Ti  Ti16  1  0.99900300  0.99900300  0.00107000  1
  Ti  Ti17  1  0.99998100  0.99998100  0.49990900  1
  Ti  Ti18  1  0.56960700  0.56960700  0.41541600  1
  Ti  Ti19  1  0.57047300  0.57047300  0.91531300  1
  Ti  Ti20  1  0.42335500  0.42335500  0.08794500  1
  Ti  Ti21  1  0.42991200  0.42991200  0.58466100  1
  Ti  Ti22  1  0.50216600  0.50216600  0.24840900  1
  Ti  Ti23  1  0.49997000  0.49997000  0.74991700  1
  Ti  Ti24  1  0.80441200  0.80441200  0.65356500  1
  Ti  Ti25  1  0.19617300  0.19617300  0.34609200  1
  Ti  Ti26  1  0.19545000  0.19545000  0.84658900  1
  Cu  Cu0  1  0.80419700  0.80419700  0.15941500  1
  P  P0  1  0.63439600  0.63439600  0.17020700  1
  P  P1  1  0.63011400  0.63011400  0.67099800  1
  P  P2  1  0.37062300  0.37062300  0.32750700  1
  P  P3  1  0.36990300  0.36990300  0.82898900  1
  P  P4  1  0.82121700  0.82121700  0.05221500  1
  P  P5  1  0.82204400  0.82204400  0.55462200  1
  P  P6  1  0.17821500  0.17821500  0.44522400  1
  P  P7  1  0.17787100  0.17787100  0.94581700  1
  P  P8  1  0.93829600  0.93829600  0.42466800  1
  P  P9  1  0.93954400  0.93954400  0.92465200  1
  P  P10  1  0.06001100  0.06001100  0.07667000  1
  P  P11  1  0.06154200  0.06154200  0.57513500  1
  P  P12  1  0.62942400  0.62942400  0.30064500  1
  P  P13  1  0.62813900  0.62813900  0.80133700  1
  P  P14  1  0.37150900  0.37150900  0.19634100  1
  P  P15  1  0.37152100  0.37152100  0.69872800  1
loop_
_geom_bond_atom_site_label_1
_geom_bond_atom_site_label_2
_geom_bond_distance
_geom_bond_site_symmetry_2
Cu0 P14 2.316433 1_655
Cu0 P14 2.316433 1_565
Cu0 P0 2.405652 1_555
Cu0 Ti20 2.825631 1_655
Cu0 Ti20 2.825631 1_565
Cu0 Ti10 2.853043 1_565
Cu0 Ti10 2.853043 1_655
Cu0 P4 2.869417 1_555
P0 Ti22 2.481257 1_555
P0 Ti14 2.511339 1_565
P0 Ti14 2.511339 1_655
P0 Ti10 2.541763 1_565
P0 Ti10 2.541763 1_655
P0 Ti2 2.571711 1_565
P0 Ti2 2.571711 1_655
P1 Ti24 2.451755 1_555
P1 Ti23 2.477723 1_555
P1 Ti3 2.524616 1_655
P1 Ti3 2.524616 1_565
P1 Ti11 2.537527 1_565
P1 Ti11 2.537527 1_655
P1 Ti15 2.552319 1_565
P1 Ti15 2.552319 1_655
P2 Ti25 2.452022 1_555
P2 Ti22 2.492067 1_555
P2 Ti0 2.528523 1_455
P2 Ti0 2.528523 1_545
P2 Ti8 2.560774 1_455
P2 Ti8 2.560774 1_545
P2 Ti12 2.572038 1_455
P2 Ti12 2.572038 1_545
P3 Ti26 2.453664 1_555
P3 Ti23 2.479938 1_555
P3 Ti1 2.522712 1_545
P3 Ti1 2.522712 1_455
P3 Ti9 2.538953 1_545
P3 Ti9 2.538953 1_455
P3 Ti13 2.553404 1_545
P3 Ti13 2.553404 1_455
P4 Ti7 2.503986 1_564
P4 Ti7 2.503986 1_654
P4 Ti14 2.533952 1_565
P4 Ti14 2.533952 1_655
P4 Ti20 2.602973 1_565
P4 Ti20 2.602973 1_655
P4 Ti16 2.603393 1_555
P4 Ti4 2.749336 1_555
P5 Ti15 2.522192 1_565
P5 Ti15 2.522192 1_655
P5 Ti6 2.535772 1_565
P5 Ti6 2.535772 1_655
P5 Ti21 2.582419 1_565
P5 Ti21 2.582419 1_655
P5 Ti17 2.634613 1_555
P5 Ti24 2.643770 1_555
P5 Ti5 2.809581 1_555
P6 Ti12 2.522464 1_545
P6 Ti12 2.522464 1_455
P6 Ti5 2.534847 1_545
P6 Ti5 2.534847 1_455
P6 Ti18 2.586843 1_455
P6 Ti18 2.586843 1_545
P6 Ti17 2.637977 1_445
P6 Ti25 2.648141 1_555
P6 Ti6 2.797004 1_555
P7 Ti13 2.525349 1_545
P7 Ti13 2.525349 1_455
P7 Ti4 2.531131 1_546
P7 Ti4 2.531131 1_456
P7 Ti19 2.583732 1_455
P7 Ti19 2.583732 1_545
P7 Ti16 2.650609 1_446
P7 Ti26 2.651628 1_555
P7 Ti7 2.785813 1_555
P8 Ti12 2.405013 1_555
P8 Ti17 2.435831 1_555
P8 Ti0 2.478251 1_555
P8 Ti18 2.520329 1_655
P8 Ti18 2.520329 1_565
P8 Ti6 2.530747 1_565
P8 Ti6 2.530747 1_655
P9 Ti13 2.415384 1_555
P9 Ti16 2.447379 1_556
P9 Ti1 2.472523 1_555
P9 Ti19 2.516071 1_565
P9 Ti19 2.516071 1_655
P9 Ti7 2.522896 1_655
P9 Ti7 2.522896 1_565
P10 Ti2 2.427699 1_555
P10 Ti16 2.439308 1_445
P10 Ti14 2.455419 1_555
P10 Ti4 2.554156 1_545
P10 Ti4 2.554156 1_455
P10 Ti20 2.572777 1_455
P10 Ti20 2.572777 1_545
P11 Ti15 2.400305 1_555
P11 Ti17 2.434406 1_445
P11 Ti3 2.478280 1_555
P11 Ti21 2.523041 1_545
P11 Ti21 2.523041 1_455
P11 Ti5 2.526843 1_455
P11 Ti5 2.526843 1_545
P12 Ti25 2.445580 1_565
P12 Ti25 2.445580 1_655
P12 Ti0 2.539083 1_545
P12 Ti0 2.539083 1_455
P12 Ti10 2.540101 1_565
P12 Ti10 2.540101 1_655
P12 Ti22 2.600449 1_555
P12 Ti8 2.692306 1_555
P12 Ti18 3.027715 1_555
P13 Ti26 2.446642 1_565
P13 Ti26 2.446642 1_655
P13 Ti1 2.529563 1_545
P13 Ti1 2.529563 1_455
P13 Ti11 2.571454 1_655
P13 Ti11 2.571454 1_565
P13 Ti23 2.595588 1_555
P13 Ti9 2.715254 1_555
P13 Ti19 3.006204 1_555
P14 Ti2 2.522310 1_565
P14 Ti2 2.522310 1_655
P14 Ti8 2.572798 1_455
P14 Ti8 2.572798 1_545
P14 Ti22 2.639102 1_555
P14 Ti10 2.718903 1_555
P14 Ti20 2.858609 1_555
P15 Ti24 2.443634 1_455
P15 Ti24 2.443634 1_545
P15 Ti3 2.531865 1_655
P15 Ti3 2.531865 1_565
P15 Ti9 2.568913 1_455
P15 Ti9 2.568913 1_545
P15 Ti23 2.594521 1_555
P15 Ti11 2.711694 1_555
P15 Ti21 3.008789 1_555
