# generated using pymatgen
data_Li2TiCr(PO4)3
_symmetry_space_group_name_H-M   'P 1'
_cell_length_a   8.52857990
_cell_length_b   8.59584780
_cell_length_c   11.92623202
_cell_angle_alpha   90.00000000
_cell_angle_beta   90.00000000
_cell_angle_gamma   89.99988216
_symmetry_Int_Tables_number   1
_chemical_formula_structural   Li2TiCr(PO4)3
_chemical_formula_sum   'Li8 Ti4 Cr4 P12 O48'
_cell_volume   874.31653899
_cell_formula_units_Z   4
loop_
 _symmetry_equiv_pos_site_id
 _symmetry_equiv_pos_as_xyz
  1  'x, y, z'
loop_
 _atom_site_type_symbol
 _atom_site_label
 _atom_site_symmetry_multiplicity
 _atom_site_fract_x
 _atom_site_fract_y
 _atom_site_fract_z
 _atom_site_occupancy
  Li  Li0  1  0.46653539  0.78242447  0.68406702  1
  Li  Li1  1  0.53198846  0.27733762  0.81852809  1
  Li  Li2  1  0.53346461  0.21757553  0.18406702  1
  Li  Li3  1  0.46801154  0.72266238  0.31852809  1
  Li  Li4  1  0.03199060  0.22266706  0.31853215  1
  Li  Li5  1  0.96656426  0.71756206  0.18406560  1
  Li  Li6  1  0.96800940  0.77733294  0.81853215  1
  Li  Li7  1  0.03343574  0.28243794  0.68406560  1
  Ti  Ti0  1  0.50315816  0.46323501  0.61299299  1
  Ti  Ti1  1  0.49684184  0.53676499  0.11299299  1
  Ti  Ti2  1  0.00316532  0.03675954  0.11299335  1
  Ti  Ti3  1  0.99683468  0.96324046  0.61299335  1
  Cr  Cr0  1  0.49809499  0.96608881  0.88536926  1
  Cr  Cr1  1  0.50190501  0.03391119  0.38536926  1
  Cr  Cr2  1  0.99809336  0.53391287  0.38536994  1
  Cr  Cr3  1  0.00190664  0.46608713  0.88536994  1
  P  P0  1  0.71185024  0.74648082  0.49817773  1
  P  P1  1  0.28814976  0.25351918  0.99817773  1
  P  P2  1  0.78814879  0.24648469  0.49817582  1
  P  P3  1  0.21185121  0.75351531  0.99817582  1
  P  P4  1  0.64617658  0.60838957  0.85309028  1
  P  P5  1  0.35364114  0.10712815  0.64516293  1
  P  P6  1  0.35382342  0.39161043  0.35309028  1
  P  P7  1  0.64635886  0.89287185  0.14516293  1
  P  P8  1  0.85364742  0.39287438  0.14516592  1
  P  P9  1  0.14616729  0.89160896  0.35309255  1
  P  P10  1  0.14635258  0.60712562  0.64516592  1
  P  P11  1  0.85383271  0.10839104  0.85309255  1
  O  O0  1  0.59273490  0.56228168  0.97206619  1
  O  O1  1  0.40186382  0.06569135  0.52798530  1
  O  O2  1  0.40726510  0.43771832  0.47206619  1
  O  O3  1  0.59813618  0.93430865  0.02798530  1
  O  O4  1  0.90187300  0.43431608  0.02798928  1
  O  O5  1  0.09273393  0.93772180  0.47206859  1
  O  O6  1  0.09812700  0.56568392  0.52798928  1
  O  O7  1  0.90726607  0.06227820  0.97206859  1
  O  O8  1  0.60789544  0.66040005  0.58497144  1
  O  O9  1  0.40103646  0.16639869  0.92180764  1
  O  O10  1  0.39210456  0.33959995  0.08497144  1
  O  O11  1  0.59896354  0.83360131  0.42180764  1
  O  O12  1  0.90104368  0.33360295  0.42181011  1
  O  O13  1  0.10790059  0.83959573  0.08497264  1
  O  O14  1  0.09895632  0.66639705  0.92181011  1
  O  O15  1  0.89209941  0.16040427  0.58497264  1
  O  O16  1  0.58432797  0.76882180  0.82215814  1
  O  O17  1  0.40949181  0.27327673  0.67689105  1
  O  O18  1  0.41567203  0.23117820  0.32215814  1
  O  O19  1  0.59050819  0.72672327  0.17689105  1
  O  O20  1  0.90949732  0.22672667  0.17689598  1
  O  O21  1  0.08431462  0.73117697  0.32216106  1
  O  O22  1  0.09050268  0.77327333  0.67689598  1
  O  O23  1  0.91568538  0.26882303  0.82216106  1
  O  O24  1  0.30551680  0.86497946  0.92858200  1
  O  O25  1  0.68617633  0.35771248  0.56754652  1
  O  O26  1  0.69448320  0.13502054  0.42858200  1
  O  O27  1  0.31382367  0.64228752  0.06754652  1
  O  O28  1  0.18618513  0.14228470  0.06754990  1
  O  O29  1  0.80551969  0.63501304  0.42858383  1
  O  O30  1  0.81381487  0.85771530  0.56754990  1
  O  O31  1  0.19448031  0.36498696  0.92858383  1
  O  O32  1  0.42339278  0.98953552  0.72720720  1
  O  O33  1  0.57635616  0.48513589  0.77353532  1
  O  O34  1  0.57660722  0.01046448  0.22720720  1
  O  O35  1  0.42364384  0.51486411  0.27353532  1
  O  O36  1  0.07634361  0.01485849  0.27353462  1
  O  O37  1  0.92339714  0.51046454  0.22721390  1
  O  O38  1  0.92365639  0.98514151  0.77353462  1
  O  O39  1  0.07660286  0.48953546  0.72721390  1
  O  O40  1  0.32656678  0.60668897  0.65629391  1
  O  O41  1  0.67612808  0.10756394  0.84355064  1
  O  O42  1  0.67343322  0.39331103  0.15629391  1
  O  O43  1  0.32387192  0.89243606  0.34355064  1
  O  O44  1  0.17611763  0.39244613  0.34355063  1
  O  O45  1  0.82657427  0.89330573  0.15629251  1
  O  O46  1  0.82388237  0.60755387  0.84355063  1
  O  O47  1  0.17342573  0.10669427  0.65629251  1
loop_
_geom_bond_atom_site_label_1
_geom_bond_atom_site_label_2
_geom_bond_distance
_geom_bond_site_symmetry_2
Li0 O32 1.889323 1_555
Li0 O16 1.932667 1_555
Li0 O40 1.953617 1_555
Li0 O8 1.987562 1_555
Li1 O33 1.903060 1_555
Li1 O9 1.916736 1_555
Li1 O41 1.931306 1_555
Li1 O17 1.986466 1_555
Li2 O34 1.889323 1_555
Li2 O18 1.932667 1_555
Li2 O42 1.953617 1_555
Li2 O10 1.987562 1_555
Li3 O35 1.903060 1_555
Li3 O11 1.916736 1_555
Li3 O43 1.931306 1_555
Li3 O19 1.986466 1_555
Li4 O36 1.903132 1_555
Li4 O12 1.916683 1_455
Li4 O44 1.931269 1_555
Li4 O20 1.986442 1_455
Li5 O37 1.889282 1_555
Li5 O21 1.932530 1_655
Li5 O45 1.953779 1_555
Li5 O13 1.987466 1_655
Li6 O38 1.903132 1_555
Li6 O14 1.916683 1_655
Li6 O46 1.931269 1_555
Li6 O22 1.986442 1_655
Li7 O39 1.889282 1_555
Li7 O23 1.932530 1_455
Li7 O47 1.953779 1_555
Li7 O15 1.987466 1_455
Cr0 O3 1.922383 1_556
Cr0 O24 1.928345 1_555
Cr0 O9 1.959276 1_565
Cr0 O16 1.996125 1_555
Cr0 O32 2.001141 1_555
Cr0 O41 2.008255 1_565
Cr1 O1 1.922383 1_555
Cr1 O26 1.928345 1_555
Cr1 O11 1.959276 1_545
Cr1 O18 1.996125 1_555
Cr1 O34 2.001141 1_555
Cr1 O43 2.008255 1_545
Cr2 O6 1.922379 1_655
Cr2 O29 1.928278 1_555
Cr2 O12 1.959252 1_555
Cr2 O21 1.996060 1_655
Cr2 O37 2.001058 1_555
Cr2 O44 2.008153 1_655
Cr3 O4 1.922379 1_456
Cr3 O31 1.928278 1_555
Cr3 O14 1.959252 1_555
Cr3 O23 1.996060 1_455
Cr3 O39 2.001058 1_555
Cr3 O46 2.008153 1_455
O0 P4 1.542140 1_555
O0 Ti1 1.881966 1_556
O1 P5 1.499661 1_555
O2 P6 1.542140 1_555
O2 Ti0 1.881966 1_555
O3 P7 1.499661 1_555
O4 P8 1.499667 1_555
O5 P9 1.542131 1_555
O5 Ti3 1.881969 1_455
O6 P10 1.499667 1_555
O7 P11 1.542131 1_555
O7 Ti2 1.881969 1_656
O8 P0 1.550814 1_555
O8 Ti0 1.944725 1_555
O9 P1 1.522266 1_555
O10 P1 1.550814 1_554
O10 Ti1 1.944725 1_555
O11 P0 1.522266 1_555
O12 P2 1.522271 1_555
O13 P3 1.550815 1_554
O13 Ti2 1.944702 1_565
O14 P3 1.522271 1_555
O15 P2 1.550815 1_555
O15 Ti3 1.944702 1_545
O16 P4 1.521875 1_555
O17 P5 1.552351 1_555
O17 Ti0 1.971066 1_555
O18 P6 1.521875 1_555
O19 P7 1.552351 1_555
O19 Ti1 1.971066 1_555
O20 P8 1.552346 1_555
O20 Ti2 1.971153 1_655
O21 P9 1.521886 1_555
O22 P10 1.552346 1_555
O22 Ti3 1.971153 1_455
O23 P11 1.521886 1_555
O24 P3 1.498345 1_555
O25 P2 1.534581 1_555
O25 Ti0 1.884907 1_555
O26 P2 1.498345 1_555
O27 P3 1.534581 1_554
O27 Ti1 1.884907 1_555
O28 P1 1.534591 1_554
O28 Ti2 1.884923 1_555
O29 P0 1.498381 1_555
O30 P0 1.534591 1_555
O30 Ti3 1.884923 1_555
O31 P1 1.498381 1_555
O32 P5 1.527428 1_565
O33 P4 1.541839 1_555
O33 Ti0 2.022647 1_555
O34 P7 1.527428 1_545
O35 P6 1.541839 1_555
O35 Ti1 2.022647 1_555
O36 P9 1.541845 1_545
O36 Ti2 2.022583 1_555
O37 P8 1.527438 1_555
O38 P11 1.541845 1_565
O38 Ti3 2.022583 1_555
O39 P10 1.527438 1_555
O40 P10 1.542695 1_555
O40 Ti0 2.013825 1_555
O41 P11 1.519851 1_555
O42 P8 1.542695 1_555
O42 Ti1 2.013825 1_555
O43 P9 1.519851 1_555
O44 P6 1.519859 1_555
O45 P7 1.542707 1_555
O45 Ti2 2.013821 1_665
O46 P4 1.519859 1_555
O47 P5 1.542707 1_555
O47 Ti3 2.013821 1_445
