# generated using pymatgen
data_Sr4CaYCo2(Cu2O7)2
_symmetry_space_group_name_H-M   'P 1'
_cell_length_a   5.43879266
_cell_length_b   5.45546575
_cell_length_c   12.24809475
_cell_angle_alpha   102.86598762
_cell_angle_beta   102.86525328
_cell_angle_gamma   89.60159186
_symmetry_Int_Tables_number   1
_chemical_formula_structural   Sr4CaYCo2(Cu2O7)2
_chemical_formula_sum   'Sr4 Ca1 Y1 Co2 Cu4 O14'
_cell_volume   345.04942154
_cell_formula_units_Z   1
loop_
 _symmetry_equiv_pos_site_id
 _symmetry_equiv_pos_as_xyz
  1  'x, y, z'
loop_
 _atom_site_type_symbol
 _atom_site_label
 _atom_site_symmetry_multiplicity
 _atom_site_fract_x
 _atom_site_fract_y
 _atom_site_fract_z
 _atom_site_occupancy
  Sr  Sr0  1  0.15718600  0.16054500  0.30184700  1
  Sr  Sr1  1  0.36122800  0.36268600  0.70026300  1
  Sr  Sr2  1  0.63877200  0.63731400  0.29973700  1
  Sr  Sr3  1  0.84281400  0.83945500  0.69815300  1
  Ca  Ca0  1  0.50000000  0.50000000  0.00000000  1
  Y  Y0  1  0.00000000  0.00000000  0.00000000  1
  Co  Co0  1  0.18607400  0.80958800  0.50011000  1
  Co  Co1  1  0.81392600  0.19041200  0.49989000  1
  Cu  Cu0  1  0.07184400  0.57400600  0.14814800  1
  Cu  Cu1  1  0.42689900  0.92709300  0.85137300  1
  Cu  Cu2  1  0.57310100  0.07290700  0.14862700  1
  Cu  Cu3  1  0.92815600  0.42599400  0.85185200  1
  O  O0  1  0.17969900  0.17891300  0.86604700  1
  O  O1  1  0.18048800  0.69117200  0.86970900  1
  O  O2  1  0.17516000  0.16978900  0.50164300  1
  O  O3  1  0.19115100  0.65559800  0.35254400  1
  O  O4  1  0.33615000  0.80030700  0.64759400  1
  O  O5  1  0.30685500  0.30802000  0.12445200  1
  O  O6  1  0.30805200  0.82066300  0.13110700  1
  O  O7  1  0.69194800  0.17933700  0.86889300  1
  O  O8  1  0.69314500  0.69198000  0.87554800  1
  O  O9  1  0.66385000  0.19969300  0.35240600  1
  O  O10  1  0.80884900  0.34440200  0.64745600  1
  O  O11  1  0.82484000  0.83021100  0.49835700  1
  O  O12  1  0.81951200  0.30882800  0.13029100  1
  O  O13  1  0.82030100  0.82108700  0.13395300  1
loop_
_geom_bond_atom_site_label_1
_geom_bond_atom_site_label_2
_geom_bond_distance
_geom_bond_site_symmetry_2
Ca0 O8 2.441976 1_554
Ca0 O5 2.441976 1_555
Ca0 O12 2.476935 1_555
Ca0 O1 2.476935 1_554
Ca0 O7 2.489754 1_554
Ca0 O6 2.489754 1_555
Ca0 O13 2.506929 1_555
Ca0 O0 2.506929 1_554
Co0 O4 1.820834 1_555
Co0 O3 1.821789 1_555
Co0 O2 1.961580 1_565
Co0 O11 1.962725 1_455
Co1 O9 1.820834 1_555
Co1 O10 1.821789 1_555
Co1 O11 1.961580 1_545
Co1 O2 1.962725 1_655
Cu0 O13 1.921366 1_455
Cu0 O6 1.942480 1_555
Cu0 O5 1.943050 1_555
Cu0 O12 1.943490 1_455
Cu0 O3 2.381356 1_555
Cu1 O0 1.923324 1_565
Cu1 O7 1.943220 1_565
Cu1 O8 1.944763 1_555
Cu1 O1 1.946736 1_555
Cu1 O4 2.374638 1_555
Cu2 O13 1.923324 1_545
Cu2 O6 1.943220 1_545
Cu2 O5 1.944763 1_555
Cu2 O12 1.946736 1_555
Cu2 O9 2.374638 1_555
Cu3 O0 1.921366 1_655
Cu3 O7 1.942480 1_555
Cu3 O8 1.943050 1_555
Cu3 O1 1.943490 1_655
Cu3 O10 2.381356 1_555
O0 Y0 2.457677 1_556
O0 Sr3 2.772857 1_445
O0 Sr1 2.813558 1_555
O1 Y0 2.413716 1_566
O1 Sr3 2.731358 1_455
O1 Sr1 2.777168 1_555
O2 Sr1 2.414134 1_555
O2 Sr0 2.416418 1_555
O3 Sr0 2.631108 1_555
O3 Sr2 2.650330 1_555
O3 Sr2 2.926445 1_455
O3 Sr0 2.951575 1_565
O4 Sr1 2.603214 1_555
O4 Sr3 2.685520 1_555
O4 Sr3 2.881222 1_455
O4 Sr1 2.988786 1_565
O5 Y0 2.387035 1_555
O5 Sr0 2.757894 1_555
O5 Sr2 2.774328 1_555
O6 Y0 2.412815 1_565
O6 Sr0 2.738753 1_565
O6 Sr2 2.782515 1_555
O7 Y0 2.412815 1_656
O7 Sr3 2.738753 1_545
O7 Sr1 2.782515 1_555
O8 Y0 2.387035 1_666
O8 Sr3 2.757894 1_555
O8 Sr1 2.774328 1_555
O9 Sr2 2.603214 1_555
O9 Sr0 2.685520 1_555
O9 Sr0 2.881222 1_655
O9 Sr2 2.988786 1_545
O10 Sr3 2.631108 1_555
O10 Sr1 2.650330 1_555
O10 Sr1 2.926445 1_655
O10 Sr3 2.951575 1_545
O11 Sr2 2.414134 1_555
O11 Sr3 2.416418 1_555
O12 Y0 2.413716 1_655
O12 Sr0 2.731358 1_655
O12 Sr2 2.777168 1_555
O13 Y0 2.457677 1_665
O13 Sr0 2.772857 1_665
O13 Sr2 2.813558 1_555
