# generated using pymatgen
data_ReSbO6
_symmetry_space_group_name_H-M   'P 1'
_cell_length_a   7.38235000
_cell_length_b   5.21642900
_cell_length_c   5.36350923
_cell_angle_alpha   89.98314299
_cell_angle_beta   90.00000000
_cell_angle_gamma   90.00000000
_symmetry_Int_Tables_number   1
_chemical_formula_structural   ReSbO6
_chemical_formula_sum   'Re2 Sb2 O12'
_cell_volume   206.54607466
_cell_formula_units_Z   2
loop_
 _symmetry_equiv_pos_site_id
 _symmetry_equiv_pos_as_xyz
  1  'x, y, z'
loop_
 _atom_site_type_symbol
 _atom_site_label
 _atom_site_symmetry_multiplicity
 _atom_site_fract_x
 _atom_site_fract_y
 _atom_site_fract_z
 _atom_site_occupancy
  Re  Re0  1  0.50000000  0.50000000  0.00000000  1
  Re  Re1  1  0.00000000  0.50000000  0.00000000  1
  Sb  Sb0  1  0.50000000  0.00000000  0.50000000  1
  Sb  Sb1  1  0.00000000  0.00000000  0.50000000  1
  O  O0  1  0.54979400  0.68928200  0.28757300  1
  O  O1  1  0.95044800  0.79274300  0.80905800  1
  O  O2  1  0.04979400  0.31071800  0.71242700  1
  O  O3  1  0.45044800  0.20725700  0.19094200  1
  O  O4  1  0.54955200  0.79274300  0.80905800  1
  O  O5  1  0.04955200  0.20725700  0.19094200  1
  O  O6  1  0.75000000  0.11999200  0.47702300  1
  O  O7  1  0.95020600  0.68928200  0.28757300  1
  O  O8  1  0.25000000  0.58526400  0.01628800  1
  O  O9  1  0.45020600  0.31071800  0.71242700  1
  O  O10  1  0.25000000  0.88000800  0.52297700  1
  O  O11  1  0.75000000  0.41473600  0.98371200  1
loop_
_geom_bond_atom_site_label_1
_geom_bond_atom_site_label_2
_geom_bond_distance
_geom_bond_site_symmetry_2
O0 Re0 1.868137 1_555
O0 Sb0 2.015306 1_565
O1 Re1 1.874478 1_656
O1 Sb1 2.012308 1_665
O2 Re1 1.868137 1_556
O2 Sb1 2.015306 1_555
O3 Re0 1.874478 1_555
O3 Sb0 2.012308 1_555
O4 Re0 1.874478 1_556
O4 Sb0 2.012308 1_565
O5 Re1 1.874478 1_555
O5 Sb1 2.012308 1_555
O6 Sb0 1.952722 1_555
O6 Sb1 1.952722 1_655
O7 Re1 1.868137 1_655
O7 Sb1 2.015306 1_665
O8 Re0 1.900440 1_555
O8 Re1 1.900440 1_555
O9 Re0 1.868137 1_556
O9 Sb0 2.015306 1_555
O10 Sb0 1.952722 1_565
O10 Sb1 1.952722 1_565
O11 Re1 1.900440 1_656
O11 Re0 1.900440 1_556
