# generated using pymatgen
data_BaHoFe4O7
_symmetry_space_group_name_H-M   'P 1'
_cell_length_a   6.48946966
_cell_length_b   6.48946966
_cell_length_c   6.48946966
_cell_angle_alpha   60.00000000
_cell_angle_beta   60.00000000
_cell_angle_gamma   60.00000000
_symmetry_Int_Tables_number   1
_chemical_formula_structural   BaHoFe4O7
_chemical_formula_sum   'Ba1 Ho1 Fe4 O7'
_cell_volume   193.24693760
_cell_formula_units_Z   1
loop_
 _symmetry_equiv_pos_site_id
 _symmetry_equiv_pos_as_xyz
  1  'x, y, z'
loop_
 _atom_site_type_symbol
 _atom_site_label
 _atom_site_symmetry_multiplicity
 _atom_site_fract_x
 _atom_site_fract_y
 _atom_site_fract_z
 _atom_site_occupancy
  Ba  Ba0  1  0.75000000  0.75000000  0.75000000  1
  Ho  Ho0  1  0.00000000  0.00000000  0.00000000  1
  Fe  Fe0  1  0.38192600  0.38192600  0.38192600  1
  Fe  Fe1  1  0.38192600  0.38192600  0.85422300  1
  Fe  Fe2  1  0.38192600  0.85422300  0.38192600  1
  Fe  Fe3  1  0.85422300  0.38192600  0.38192600  1
  O  O0  1  0.75397900  0.24602100  0.24602100  1
  O  O1  1  0.24602100  0.75397900  0.75397900  1
  O  O2  1  0.24602100  0.75397900  0.24602100  1
  O  O3  1  0.75397900  0.24602100  0.75397900  1
  O  O4  1  0.24602100  0.24602100  0.75397900  1
  O  O5  1  0.75397900  0.75397900  0.24602100  1
  O  O6  1  0.25000000  0.25000000  0.25000000  1
loop_
_geom_bond_atom_site_label_1
_geom_bond_atom_site_label_2
_geom_bond_distance
_geom_bond_site_symmetry_2
Ba0 O1 3.244940 1_555
Ba0 O0 3.244940 1_565
Ba0 O5 3.244940 1_555
Ba0 O5 3.244940 1_556
Ba0 O4 3.244940 1_565
Ba0 O2 3.244940 1_655
Ba0 O4 3.244940 1_655
Ba0 O2 3.244940 1_556
Ba0 O1 3.244940 1_655
Ba0 O3 3.244940 1_555
Ba0 O0 3.244940 1_556
Ba0 O3 3.244940 1_565
Ho0 O4 2.257857 1_554
Ho0 O2 2.257857 1_545
Ho0 O0 2.257857 1_455
Ho0 O1 2.257857 1_544
Ho0 O5 2.257857 1_445
Ho0 O3 2.257857 1_454
Fe0 O4 1.975894 1_555
Fe0 O2 1.975894 1_555
Fe0 O0 1.975894 1_555
Fe0 O6 2.097081 1_555
Fe1 O1 1.975894 1_555
Fe1 O3 1.975894 1_555
Fe1 O4 1.975899 1_555
Fe1 O6 2.097076 1_556
Fe2 O5 1.975894 1_555
Fe2 O1 1.975894 1_555
Fe2 O2 1.975899 1_555
Fe2 O6 2.097076 1_565
Fe3 O5 1.975894 1_555
Fe3 O3 1.975894 1_555
Fe3 O0 1.975899 1_555
Fe3 O6 2.097076 1_655
