# generated using pymatgen
data_Li9Mn2Co5O16
_symmetry_space_group_name_H-M   'P 1'
_cell_length_a   5.17697510
_cell_length_b   10.27689286
_cell_length_c   5.88875292
_cell_angle_alpha   104.20076950
_cell_angle_beta   70.82023015
_cell_angle_gamma   84.70416564
_symmetry_Int_Tables_number   1
_chemical_formula_structural   Li9Mn2Co5O16
_chemical_formula_sum   'Li9 Mn2 Co5 O16'
_cell_volume   281.70710856
_cell_formula_units_Z   1
loop_
 _symmetry_equiv_pos_site_id
 _symmetry_equiv_pos_as_xyz
  1  'x, y, z'
loop_
 _atom_site_type_symbol
 _atom_site_label
 _atom_site_symmetry_multiplicity
 _atom_site_fract_x
 _atom_site_fract_y
 _atom_site_fract_z
 _atom_site_occupancy
  Li  Li0  1  0.50045174  0.12613783  0.93525903  1
  Li  Li1  1  0.49954826  0.37386217  0.31474097  1
  Li  Li2  1  0.49431394  0.63110005  0.70008715  1
  Li  Li3  1  0.49979784  0.86945984  0.06452128  1
  Li  Li4  1  0.50165521  0.12362422  0.44109829  1
  Li  Li5  1  0.49834479  0.37637578  0.80890171  1
  Li  Li6  1  0.50020216  0.63054016  0.18547872  1
  Li  Li7  1  0.50568606  0.86889995  0.54991285  1
  Li  Li8  1  -0.00000000  0.75000000  0.12500000  1
  Mn  Mn0  1  0.00006338  0.99536978  -0.00000836  1
  Mn  Mn1  1  0.99993662  0.50463022  0.25000836  1
  Co  Co0  1  0.99775416  0.24964001  0.37300671  1
  Co  Co1  1  0.00577654  0.50272178  0.75327737  1
  Co  Co2  1  0.99422346  0.99727822  0.49672263  1
  Co  Co3  1  0.00224584  0.25035999  0.87699329  1
  Co  Co4  1  -0.00000000  0.75000000  0.62500000  1
  O  O0  1  0.22748777  0.07106593  0.73877470  1
  O  O1  1  0.22978545  0.31717430  0.11791622  1
  O  O2  1  0.21502675  0.56038782  0.46348439  1
  O  O3  1  0.23875482  0.82504353  0.85229582  1
  O  O4  1  0.20995956  0.06255198  0.21817529  1
  O  O5  1  0.22253918  0.31864352  0.61648360  1
  O  O6  1  0.24097628  0.55684842  0.98272979  1
  O  O7  1  0.21745003  0.82222605  0.37634556  1
  O  O8  1  0.77021455  0.18282570  0.13208378  1
  O  O9  1  0.77251223  0.42893407  0.51122530  1
  O  O10  1  0.78254997  0.67777395  0.87365444  1
  O  O11  1  0.75902372  0.94315158  0.26727021  1
  O  O12  1  0.77746082  0.18135648  0.63351640  1
  O  O13  1  0.79004044  0.43744802  0.03182471  1
  O  O14  1  0.76124518  0.67495647  0.39770418  1
  O  O15  1  0.78497325  0.93961218  0.78651561  1
loop_
_geom_bond_atom_site_label_1
_geom_bond_atom_site_label_2
_geom_bond_distance
_geom_bond_site_symmetry_2
Li0 O15 2.102047 1_545
Li0 O1 2.107264 1_556
Li0 O12 2.122863 1_555
Li0 O8 2.125002 1_556
Li0 O4 2.129219 1_556
Li0 O0 2.134640 1_555
Li1 O2 2.102047 1_555
Li1 O8 2.107264 1_555
Li1 O5 2.122863 1_555
Li1 O1 2.125002 1_555
Li1 O13 2.129219 1_555
Li1 O9 2.134640 1_555
Li2 O14 2.043386 1_555
Li2 O3 2.093774 1_555
Li2 O10 2.096450 1_555
Li2 O6 2.108606 1_555
Li2 O9 2.211153 1_555
Li2 O2 2.362358 1_555
Li3 O3 2.130785 1_554
Li3 O7 2.132781 1_555
Li3 O15 2.137045 1_554
Li3 O10 2.141720 1_554
Li3 O11 2.144010 1_555
Li3 O4 2.164549 1_565
Li4 O11 1.994785 1_545
Li4 O0 2.085759 1_555
Li4 O12 2.136411 1_555
Li4 O5 2.154216 1_555
Li4 O8 2.156730 1_555
Li4 O4 2.338989 1_555
Li5 O6 1.994785 1_555
Li5 O9 2.085759 1_555
Li5 O5 2.136411 1_555
Li5 O12 2.154216 1_555
Li5 O1 2.156730 1_556
Li5 O13 2.338989 1_556
Li6 O14 2.130785 1_555
Li6 O10 2.132781 1_554
Li6 O2 2.137045 1_555
Li6 O7 2.141720 1_555
Li6 O6 2.144010 1_554
Li6 O13 2.164549 1_555
Li7 O3 2.043386 1_555
Li7 O14 2.093774 1_555
Li7 O7 2.096450 1_555
Li7 O11 2.108606 1_555
Li7 O0 2.211153 1_565
Li7 O15 2.362358 1_555
Li8 O14 2.044701 1_455
Li8 O3 2.044701 1_554
Li8 O6 2.058793 1_554
Li8 O11 2.058793 1_455
Li8 O7 2.172322 1_555
Li8 O10 2.172322 1_454
Mn0 O3 1.869485 1_554
Mn0 O11 1.889425 1_455
Mn0 O15 1.957730 1_454
Mn0 O0 1.980843 1_564
Mn0 O4 1.982129 1_565
Mn0 O8 1.991401 1_465
Mn1 O14 1.869485 1_555
Mn1 O6 1.889425 1_654
Mn1 O2 1.957730 1_655
Mn1 O9 1.980843 1_555
Mn1 O13 1.982129 1_555
Mn1 O1 1.991401 1_655
Co0 O1 1.913352 1_655
Co0 O9 1.913440 1_555
Co0 O12 1.916461 1_555
Co0 O4 1.956206 1_655
Co0 O8 2.154378 1_555
Co0 O5 2.159304 1_655
Co1 O10 1.877935 1_455
Co1 O5 1.937365 1_555
Co1 O2 1.958812 1_555
Co1 O13 1.965291 1_456
Co1 O6 2.110694 1_555
Co1 O9 2.198814 1_455
Co2 O7 1.877935 1_655
Co2 O12 1.937365 1_565
Co2 O15 1.958812 1_555
Co2 O4 1.965291 1_665
Co2 O11 2.110694 1_555
Co2 O0 2.198814 1_665
Co3 O8 1.913352 1_456
Co3 O0 1.913440 1_555
Co3 O5 1.916461 1_555
Co3 O13 1.956206 1_456
Co3 O1 2.154378 1_556
Co3 O12 2.159304 1_455
Co4 O10 1.888574 1_455
Co4 O7 1.888574 1_555
Co4 O2 1.983810 1_555
Co4 O15 1.983810 1_455
Co4 O3 2.161167 1_555
Co4 O14 2.161167 1_455
