# generated using pymatgen
data_KS2N(O2F)2
_symmetry_space_group_name_H-M   'P 1'
_cell_length_a   5.70619300
_cell_length_b   15.03869100
_cell_length_c   15.73031991
_cell_angle_alpha   88.89375548
_cell_angle_beta   90.00000000
_cell_angle_gamma   90.00000000
_symmetry_Int_Tables_number   1
_chemical_formula_structural   KS2N(O2F)2
_chemical_formula_sum   'K8 S16 N8 O32 F16'
_cell_volume   1349.62493590
_cell_formula_units_Z   8
loop_
 _symmetry_equiv_pos_site_id
 _symmetry_equiv_pos_as_xyz
  1  'x, y, z'
loop_
 _atom_site_type_symbol
 _atom_site_label
 _atom_site_symmetry_multiplicity
 _atom_site_fract_x
 _atom_site_fract_y
 _atom_site_fract_z
 _atom_site_occupancy
  K  K0  1  0.73298700  0.79341900  0.81728500  1
  K  K1  1  0.76701300  0.79341900  0.31728500  1
  K  K2  1  0.26701300  0.20658100  0.18271500  1
  K  K3  1  0.23298700  0.20658100  0.68271500  1
  K  K4  1  0.78395700  0.70733800  0.06727900  1
  K  K5  1  0.71604300  0.70733800  0.56727900  1
  K  K6  1  0.21604300  0.29266200  0.93272100  1
  K  K7  1  0.28395700  0.29266200  0.43272100  1
  S  S0  1  0.24032200  0.86562900  0.99520800  1
  S  S1  1  0.25967800  0.86562900  0.49520800  1
  S  S2  1  0.75967800  0.13437100  0.00479200  1
  S  S3  1  0.74032200  0.13437100  0.50479200  1
  S  S4  1  0.30659600  0.60694800  0.91896500  1
  S  S5  1  0.19340400  0.60694800  0.41896500  1
  S  S6  1  0.69340400  0.39305200  0.08103500  1
  S  S7  1  0.80659600  0.39305200  0.58103500  1
  S  S8  1  0.22960000  0.63339700  0.74424600  1
  S  S9  1  0.27040000  0.63339700  0.24424600  1
  S  S10  1  0.77040000  0.36660300  0.25575400  1
  S  S11  1  0.72960000  0.36660300  0.75575400  1
  S  S12  1  0.31529500  0.89279100  0.16888700  1
  S  S13  1  0.18470500  0.89279100  0.66888700  1
  S  S14  1  0.68470500  0.10720900  0.83111300  1
  S  S15  1  0.81529500  0.10720900  0.33111300  1
  N  N0  1  0.16187400  0.86127500  0.09150300  1
  N  N1  1  0.33812600  0.86127500  0.59150300  1
  N  N2  1  0.83812600  0.13872500  0.90849700  1
  N  N3  1  0.66187400  0.13872500  0.40849700  1
  N  N4  1  0.14895200  0.63384400  0.84019700  1
  N  N5  1  0.35104800  0.63384400  0.34019700  1
  N  N6  1  0.85104800  0.36615600  0.15980300  1
  N  N7  1  0.64895200  0.36615600  0.65980300  1
  O  O0  1  0.17491600  0.62197900  0.99521500  1
  O  O1  1  0.32508400  0.62197900  0.49521500  1
  O  O2  1  0.82508400  0.37802100  0.00478500  1
  O  O3  1  0.67491600  0.37802100  0.50478500  1
  O  O4  1  0.46683900  0.66168700  0.72629300  1
  O  O5  1  0.03316100  0.66168700  0.22629300  1
  O  O6  1  0.53316100  0.33831300  0.27370700  1
  O  O7  1  0.96683900  0.33831300  0.77370700  1
  O  O8  1  0.54852200  0.63515700  0.91586700  1
  O  O9  1  0.95147800  0.63515700  0.41586700  1
  O  O10  1  0.45147800  0.36484300  0.08413300  1
  O  O11  1  0.04852200  0.36484300  0.58413300  1
  O  O12  1  0.47621300  0.83677800  0.97687800  1
  O  O13  1  0.02378700  0.83677800  0.47687800  1
  O  O14  1  0.52378700  0.16322200  0.02312200  1
  O  O15  1  0.97621300  0.16322200  0.52312200  1
  O  O16  1  0.19482800  0.86872700  0.24625800  1
  O  O17  1  0.30517200  0.86872700  0.74625800  1
  O  O18  1  0.80517200  0.13127300  0.75374200  1
  O  O19  1  0.69482800  0.13127300  0.25374200  1
  O  O20  1  0.56476400  0.87738400  0.16393800  1
  O  O21  1  0.93523600  0.87738400  0.66393800  1
  O  O22  1  0.43523600  0.12261600  0.83606200  1
  O  O23  1  0.06476400  0.12261600  0.33606200  1
  O  O24  1  0.05038500  0.82929300  0.94647700  1
  O  O25  1  0.44961500  0.82929300  0.44647700  1
  O  O26  1  0.94961500  0.17070700  0.05352300  1
  O  O27  1  0.55038500  0.17070700  0.55352300  1
  O  O28  1  0.04197200  0.67202300  0.69468800  1
  O  O29  1  0.45802800  0.67202300  0.19468800  1
  O  O30  1  0.95802800  0.32797700  0.30531200  1
  O  O31  1  0.54197200  0.32797700  0.80531200  1
  F  F0  1  0.24195100  0.96953100  0.97185400  1
  F  F1  1  0.25804900  0.96953100  0.47185400  1
  F  F2  1  0.75804900  0.03046900  0.02814600  1
  F  F3  1  0.74195100  0.03046900  0.52814600  1
  F  F4  1  0.32128100  0.49980300  0.91286900  1
  F  F5  1  0.17871900  0.49980300  0.41286900  1
  F  F6  1  0.67871900  0.50019700  0.08713100  1
  F  F7  1  0.82128100  0.50019700  0.58713100  1
  F  F8  1  0.29102700  0.99998600  0.16207500  1
  F  F9  1  0.20897300  0.99998600  0.66207500  1
  F  F10  1  0.70897300  0.00001400  0.83792500  1
  F  F11  1  0.79102700  0.00001400  0.33792500  1
  F  F12  1  0.22919600  0.53027000  0.72130900  1
  F  F13  1  0.27080400  0.53027000  0.22130900  1
  F  F14  1  0.77080400  0.46973000  0.27869100  1
  F  F15  1  0.72919600  0.46973000  0.77869100  1
loop_
_geom_bond_atom_site_label_1
_geom_bond_atom_site_label_2
_geom_bond_distance
_geom_bond_site_symmetry_2
K0 O24 2.782726 1_655
K0 O4 2.896428 1_555
K0 O17 2.905429 1_555
K0 O21 2.937250 1_555
K0 O12 2.989576 1_555
K0 O8 3.005802 1_555
K0 O28 3.208830 1_655
K0 N4 3.389602 1_655
K1 O25 2.782726 1_555
K1 O5 2.896428 1_655
K1 O16 2.905429 1_655
K1 O20 2.937250 1_555
K1 O13 2.989576 1_655
K1 O9 3.005802 1_555
K1 O29 3.208830 1_555
K1 N5 3.389602 1_555
K2 O26 2.782726 1_455
K2 O6 2.896428 1_555
K2 O19 2.905429 1_555
K2 O23 2.937250 1_555
K2 O14 2.989576 1_555
K2 O10 3.005802 1_555
K2 O30 3.208830 1_455
K2 N6 3.389602 1_455
K3 O27 2.782726 1_555
K3 O7 2.896428 1_455
K3 O18 2.905429 1_455
K3 O22 2.937250 1_555
K3 O15 2.989576 1_455
K3 O11 3.005802 1_555
K3 O31 3.208830 1_555
K3 N7 3.389602 1_555
K4 O29 2.777881 1_555
K4 O0 2.822397 1_654
K4 O5 2.946833 1_655
K4 O8 2.959013 1_554
K4 O12 2.964504 1_554
K4 O24 3.025127 1_654
K4 N0 3.192004 1_655
K4 O20 3.250540 1_555
K5 O28 2.777881 1_655
K5 O1 2.822397 1_555
K5 O4 2.946833 1_555
K5 O9 2.959013 1_555
K5 O13 2.964504 1_655
K5 O25 3.025127 1_555
K5 N1 3.192004 1_555
K5 O21 3.250540 1_555
K6 O31 2.777881 1_555
K6 O2 2.822397 1_456
K6 O7 2.946833 1_455
K6 O10 2.959013 1_556
K6 O14 2.964504 1_556
K6 O26 3.025127 1_456
K6 N2 3.192004 1_455
K6 O22 3.250540 1_555
K7 O30 2.777881 1_455
K7 O3 2.822397 1_555
K7 O6 2.946833 1_555
K7 O11 2.959013 1_555
K7 O15 2.964504 1_455
K7 O27 3.025127 1_555
K7 N3 3.192004 1_555
K7 O23 3.250540 1_555
N0 S12 1.579584 1_555
N0 S0 1.579655 1_554
N1 S13 1.579584 1_555
N1 S1 1.579655 1_555
N2 S14 1.579584 1_555
N2 S2 1.579655 1_556
N3 S15 1.579584 1_555
N3 S3 1.579655 1_555
N4 S4 1.577553 1_555
N4 S8 1.578075 1_555
N5 S5 1.577553 1_555
N5 S9 1.578075 1_555
N6 S6 1.577553 1_555
N6 S10 1.578075 1_555
N7 S7 1.577553 1_555
N7 S11 1.578075 1_555
O0 S4 1.436943 1_555
O1 S5 1.436943 1_555
O2 S6 1.436943 1_555
O3 S7 1.436943 1_555
O4 S8 1.445236 1_555
O5 S9 1.445236 1_555
O6 S10 1.445236 1_555
O7 S11 1.445236 1_555
O8 S4 1.444735 1_555
O9 S5 1.444735 1_655
O10 S6 1.444735 1_555
O11 S7 1.444735 1_455
O12 S0 1.445007 1_555
O13 S1 1.445007 1_555
O14 S2 1.445007 1_555
O15 S3 1.445007 1_555
O16 S12 1.437967 1_555
O17 S13 1.437967 1_555
O18 S14 1.437967 1_555
O19 S15 1.437967 1_555
O20 S12 1.444592 1_555
O21 S13 1.444592 1_655
O22 S14 1.444592 1_555
O23 S15 1.444592 1_455
O24 S0 1.441195 1_555
O25 S1 1.441195 1_555
O26 S2 1.441195 1_555
O27 S3 1.441195 1_555
O28 S8 1.440116 1_555
O29 S9 1.440116 1_555
O30 S10 1.440116 1_555
O31 S11 1.440116 1_555
F0 S0 1.598262 1_555
F1 S1 1.598262 1_555
F2 S2 1.598262 1_555
F3 S3 1.598262 1_555
F4 S4 1.618189 1_555
F4 K6 3.181917 1_555
F5 S5 1.618189 1_555
F5 K7 3.181917 1_555
F6 S6 1.618189 1_555
F6 K4 3.181917 1_555
F7 S7 1.618189 1_555
F7 K5 3.181917 1_555
F8 S12 1.619496 1_555
F8 K2 3.133063 1_565
F9 S13 1.619496 1_555
F9 K3 3.133063 1_565
F10 S14 1.619496 1_555
F10 K0 3.133063 1_545
F11 S15 1.619496 1_555
F11 K1 3.133063 1_545
F12 S8 1.599084 1_555
F13 S9 1.599084 1_555
F14 S10 1.599084 1_555
F15 S11 1.599084 1_555
