# generated using pymatgen
data_NdP3(H5O7)2
_symmetry_space_group_name_H-M   'P 1'
_cell_length_a   7.76970000
_cell_length_b   11.37392500
_cell_length_c   14.35528233
_cell_angle_alpha   90.00000000
_cell_angle_beta   106.47069588
_cell_angle_gamma   90.00000000
_symmetry_Int_Tables_number   1
_chemical_formula_structural   NdP3(H5O7)2
_chemical_formula_sum   'Nd4 P12 H40 O56'
_cell_volume   1216.54743400
_cell_formula_units_Z   4
loop_
 _symmetry_equiv_pos_site_id
 _symmetry_equiv_pos_as_xyz
  1  'x, y, z'
loop_
 _atom_site_type_symbol
 _atom_site_label
 _atom_site_symmetry_multiplicity
 _atom_site_fract_x
 _atom_site_fract_y
 _atom_site_fract_z
 _atom_site_occupancy
  Nd  Nd0  1  0.31992000  0.75479000  0.65251400  1
  Nd  Nd1  1  0.68008000  0.25479000  0.84748600  1
  Nd  Nd2  1  0.68008000  0.24521000  0.34748600  1
  Nd  Nd3  1  0.31992000  0.74521000  0.15251400  1
  P  P0  1  0.26009100  0.04537000  0.51284900  1
  P  P1  1  0.73990900  0.54537000  0.98715100  1
  P  P2  1  0.73990900  0.95463000  0.48715100  1
  P  P3  1  0.26009100  0.45463000  0.01284900  1
  P  P4  1  0.09273900  0.25393500  0.56699300  1
  P  P5  1  0.90726100  0.75393500  0.93300700  1
  P  P6  1  0.90726100  0.74606500  0.43300700  1
  P  P7  1  0.09273900  0.24606500  0.06699300  1
  P  P8  1  0.47817000  0.25640900  0.56531600  1
  P  P9  1  0.52183000  0.75640900  0.93468400  1
  P  P10  1  0.52183000  0.74359100  0.43468400  1
  P  P11  1  0.47817000  0.24359100  0.06531600  1
  H  H0  1  0.05619100  0.67397200  0.76095800  1
  H  H1  1  0.94380900  0.17397200  0.73904200  1
  H  H2  1  0.94380900  0.32602800  0.23904200  1
  H  H3  1  0.05619100  0.82602800  0.26095800  1
  H  H4  1  0.01574700  0.58216200  0.67499800  1
  H  H5  1  0.98425300  0.08216200  0.82500200  1
  H  H6  1  0.98425300  0.41783800  0.32500200  1
  H  H7  1  0.01574700  0.91783800  0.17499800  1
  H  H8  1  0.00226900  0.91653600  0.66357900  1
  H  H9  1  0.99773100  0.41653600  0.83642100  1
  H  H10  1  0.99773100  0.08346400  0.33642100  1
  H  H11  1  0.00226900  0.58346400  0.16357900  1
  H  H12  1  0.13745100  0.91180900  0.77102000  1
  H  H13  1  0.86254900  0.41180900  0.72898000  1
  H  H14  1  0.86254900  0.08819100  0.22898000  1
  H  H15  1  0.13745100  0.58819100  0.27102000  1
  H  H16  1  0.66706100  0.89734300  0.65763300  1
  H  H17  1  0.33293900  0.39734300  0.84236700  1
  H  H18  1  0.33293900  0.10265700  0.34236700  1
  H  H19  1  0.66706100  0.60265700  0.15763300  1
  H  H20  1  0.71770900  0.82938800  0.75698800  1
  H  H21  1  0.28229100  0.32938800  0.74301200  1
  H  H22  1  0.28229100  0.17061200  0.24301200  1
  H  H23  1  0.71770900  0.67061200  0.25698800  1
  H  H24  1  0.55998400  0.52667500  0.66841800  1
  H  H25  1  0.44001600  0.02667500  0.83158200  1
  H  H26  1  0.44001600  0.47332500  0.33158200  1
  H  H27  1  0.55998400  0.97332500  0.16841800  1
  H  H28  1  0.43219900  0.49316600  0.73222200  1
  H  H29  1  0.56780100  0.99316600  0.76777800  1
  H  H30  1  0.56780100  0.50683400  0.26777800  1
  H  H31  1  0.43219900  0.00683400  0.23222200  1
  H  H32  1  0.23881900  0.05944600  0.94270100  1
  H  H33  1  0.76118100  0.55944600  0.55729900  1
  H  H34  1  0.76118100  0.94055400  0.05729900  1
  H  H35  1  0.23881900  0.44055400  0.44270100  1
  H  H36  1  0.16251500  0.93197900  0.93301100  1
  H  H37  1  0.83748500  0.43197900  0.56698900  1
  H  H38  1  0.83748500  0.06802100  0.06698900  1
  H  H39  1  0.16251500  0.56802100  0.43301100  1
  O  O0  1  0.11948000  0.11383300  0.55847000  1
  O  O1  1  0.88052000  0.61383300  0.94153000  1
  O  O2  1  0.88052000  0.88616700  0.44153000  1
  O  O3  1  0.11948000  0.38616700  0.05847000  1
  O  O4  1  0.44470400  0.11590400  0.56162500  1
  O  O5  1  0.55529600  0.61590400  0.93837500  1
  O  O6  1  0.55529600  0.88409600  0.43837500  1
  O  O7  1  0.44470400  0.38409600  0.06162500  1
  O  O8  1  0.27246200  0.30781100  0.54442000  1
  O  O9  1  0.72753800  0.80781100  0.95558000  1
  O  O10  1  0.72753800  0.69218900  0.45558000  1
  O  O11  1  0.27246200  0.19218900  0.04442000  1
  O  O12  1  0.20448500  0.06375200  0.40489200  1
  O  O13  1  0.79551500  0.56375200  0.09510800  1
  O  O14  1  0.79551500  0.93624800  0.59510800  1
  O  O15  1  0.20448500  0.43624800  0.90489200  1
  O  O16  1  0.28455900  0.92406800  0.55250800  1
  O  O17  1  0.71544100  0.42406800  0.94749200  1
  O  O18  1  0.71544100  0.07593200  0.44749200  1
  O  O19  1  0.28455900  0.57593200  0.05250800  1
  O  O20  1  0.93643300  0.29844000  0.48653700  1
  O  O21  1  0.06356700  0.79844000  0.01346300  1
  O  O22  1  0.06356700  0.70156000  0.51346300  1
  O  O23  1  0.93643300  0.20156000  0.98653700  1
  O  O24  1  0.09281100  0.27956100  0.66939000  1
  O  O25  1  0.90718900  0.77956100  0.83061000  1
  O  O26  1  0.90718900  0.72043900  0.33061000  1
  O  O27  1  0.09281100  0.22043900  0.16939000  1
  O  O28  1  0.58552600  0.28497000  0.66692600  1
  O  O29  1  0.41447400  0.78497000  0.83307400  1
  O  O30  1  0.41447400  0.71503000  0.33307400  1
  O  O31  1  0.58552600  0.21503000  0.16692600  1
  O  O32  1  0.53975600  0.29876800  0.48102800  1
  O  O33  1  0.46024400  0.79876800  0.01897200  1
  O  O34  1  0.46024400  0.70123200  0.51897200  1
  O  O35  1  0.53975600  0.20123200  0.98102800  1
  O  O36  1  0.11219600  0.63066500  0.71792300  1
  O  O37  1  0.88780400  0.13066500  0.78207700  1
  O  O38  1  0.88780400  0.36933500  0.28207700  1
  O  O39  1  0.11219600  0.86933500  0.21792300  1
  O  O40  1  0.12662800  0.89520300  0.70292700  1
  O  O41  1  0.87337200  0.39520300  0.79707300  1
  O  O42  1  0.87337200  0.10479700  0.29707300  1
  O  O43  1  0.12662800  0.60479700  0.20292700  1
  O  O44  1  0.61139700  0.86569400  0.70820800  1
  O  O45  1  0.38860300  0.36569400  0.79179200  1
  O  O46  1  0.38860300  0.13430600  0.29179200  1
  O  O47  1  0.61139700  0.63430600  0.20820800  1
  O  O48  1  0.46350700  0.55774400  0.69244800  1
  O  O49  1  0.53649300  0.05774400  0.80755200  1
  O  O50  1  0.53649300  0.44225600  0.30755200  1
  O  O51  1  0.46350700  0.94225600  0.19244800  1
  O  O52  1  0.17942700  0.00040000  0.89467300  1
  O  O53  1  0.82057300  0.50040000  0.60532700  1
  O  O54  1  0.82057300  0.99960000  0.10532700  1
  O  O55  1  0.17942700  0.49960000  0.39467300  1
loop_
_geom_bond_atom_site_label_1
_geom_bond_atom_site_label_2
_geom_bond_distance
_geom_bond_site_symmetry_2
Nd0 O16 2.370613 1_555
Nd0 O40 2.438454 1_555
Nd0 O22 2.462467 1_555
Nd0 O48 2.496701 1_555
Nd0 O29 2.509218 1_555
Nd0 O44 2.516440 1_555
Nd0 O36 2.517733 1_555
Nd0 O34 2.533769 1_555
Nd1 O17 2.370613 1_555
Nd1 O41 2.438454 1_555
Nd1 O23 2.462467 1_555
Nd1 O49 2.496701 1_555
Nd1 O28 2.509218 1_555
Nd1 O45 2.516440 1_555
Nd1 O37 2.517733 1_555
Nd1 O35 2.533769 1_555
Nd2 O18 2.370613 1_555
Nd2 O42 2.438454 1_555
Nd2 O20 2.462467 1_555
Nd2 O50 2.496701 1_555
Nd2 O31 2.509218 1_555
Nd2 O46 2.516440 1_555
Nd2 O38 2.517733 1_555
Nd2 O32 2.533769 1_555
Nd3 O19 2.370613 1_555
Nd3 O43 2.438454 1_555
Nd3 O21 2.462467 1_555
Nd3 O51 2.496701 1_555
Nd3 O30 2.509218 1_555
Nd3 O47 2.516440 1_555
Nd3 O39 2.517733 1_555
Nd3 O33 2.533769 1_555
H0 O36 0.982884 1_555
H1 O37 0.982884 1_555
H2 O38 0.982884 1_555
H3 O39 0.982884 1_555
H4 O36 0.991850 1_555
H5 O37 0.991850 1_555
H6 O38 0.991850 1_555
H7 O39 0.991850 1_555
H8 O40 1.001026 1_555
H8 O14 1.643659 1_455
H9 O41 1.001026 1_555
H9 O15 1.643659 1_655
H10 O42 1.001026 1_555
H10 O12 1.643659 1_655
H11 O43 1.001026 1_555
H11 O13 1.643659 1_455
H12 O40 0.975515 1_555
H13 O41 0.975515 1_555
H14 O42 0.975515 1_555
H15 O43 0.975515 1_555
H16 O44 1.010834 1_555
H16 O14 1.582878 1_555
H17 O45 1.010834 1_555
H17 O15 1.582878 1_555
H18 O46 1.010834 1_555
H18 O12 1.582878 1_555
H19 O47 1.010834 1_555
H19 O13 1.582878 1_555
H20 O44 1.007560 1_555
H20 O25 1.650225 1_555
H21 O45 1.007560 1_555
H21 O24 1.650225 1_555
H22 O46 1.007560 1_555
H22 O27 1.650225 1_555
H23 O47 1.007560 1_555
H23 O26 1.650225 1_555
H24 O48 0.975907 1_555
H25 O49 0.975907 1_555
H26 O50 0.975907 1_555
H27 O51 0.975907 1_555
H28 O48 1.001714 1_555
H29 O49 1.001714 1_565
H30 O50 1.001714 1_555
H31 O51 1.001714 1_545
H32 O52 0.979239 1_555
H33 O53 0.979239 1_555
H34 O54 0.979239 1_555
H35 O55 0.979239 1_555
H36 O52 0.983250 1_565
H37 O53 0.983250 1_555
H38 O54 0.983250 1_545
H39 O55 0.983250 1_555
O0 P4 1.616114 1_555
O0 P0 1.623128 1_555
O1 P5 1.616114 1_555
O1 P1 1.623128 1_555
O2 P6 1.616114 1_555
O2 P2 1.623128 1_555
O3 P7 1.616114 1_555
O3 P3 1.623128 1_555
O4 P8 1.617562 1_555
O4 P0 1.619205 1_555
O5 P9 1.617562 1_555
O5 P1 1.619205 1_555
O6 P10 1.617562 1_555
O6 P2 1.619205 1_555
O7 P11 1.617562 1_555
O7 P3 1.619205 1_555
O8 P4 1.639208 1_555
O8 P8 1.647560 1_555
O9 P5 1.639208 1_555
O9 P9 1.647560 1_555
O10 P6 1.639208 1_555
O10 P10 1.647560 1_555
O11 P7 1.639208 1_555
O11 P11 1.647560 1_555
O12 P0 1.500811 1_555
O13 P1 1.500811 1_554
O14 P2 1.500811 1_555
O15 P3 1.500811 1_556
O16 P0 1.484050 1_565
O17 P1 1.484050 1_555
O18 P2 1.484050 1_545
O19 P3 1.484050 1_555
O20 P4 1.506554 1_655
O21 P5 1.506554 1_454
O22 P6 1.506554 1_455
O23 P7 1.506554 1_656
O24 P4 1.498401 1_555
O25 P5 1.498401 1_555
O26 P6 1.498401 1_555
O27 P7 1.498401 1_555
O28 P8 1.496329 1_555
O29 P9 1.496329 1_555
O30 P10 1.496329 1_555
O31 P11 1.496329 1_555
O32 P8 1.501148 1_555
O33 P9 1.501148 1_554
O34 P10 1.501148 1_555
O35 P11 1.501148 1_556
