# generated using pymatgen
data_Ca3Si4(SnO7)2
_symmetry_space_group_name_H-M   'P 1'
_cell_length_a   9.85382702
_cell_length_b   9.85382702
_cell_length_c   10.71663359
_cell_angle_alpha   57.30333791
_cell_angle_beta   57.30333791
_cell_angle_gamma   46.29670870
_symmetry_Int_Tables_number   1
_chemical_formula_structural   Ca3Si4(SnO7)2
_chemical_formula_sum   'Ca6 Si8 Sn4 O28'
_cell_volume   608.74537795
_cell_formula_units_Z   2
loop_
 _symmetry_equiv_pos_site_id
 _symmetry_equiv_pos_as_xyz
  1  'x, y, z'
loop_
 _atom_site_type_symbol
 _atom_site_label
 _atom_site_symmetry_multiplicity
 _atom_site_fract_x
 _atom_site_fract_y
 _atom_site_fract_z
 _atom_site_occupancy
  Ca  Ca0  1  0.24074300  0.17323600  0.53730100  1
  Ca  Ca1  1  0.82676400  0.75925700  0.96269900  1
  Ca  Ca2  1  0.17323600  0.24074300  0.03730100  1
  Ca  Ca3  1  0.68458800  0.31541200  0.25000000  1
  Ca  Ca4  1  0.75925700  0.82676400  0.46269900  1
  Ca  Ca5  1  0.31541200  0.68458800  0.75000000  1
  Si  Si0  1  0.08176800  0.53803300  0.66786000  1
  Si  Si1  1  0.53803300  0.08176800  0.16786000  1
  Si  Si2  1  0.25568000  0.49334600  0.14225100  1
  Si  Si3  1  0.49334600  0.25568000  0.64225100  1
  Si  Si4  1  0.46196700  0.91823200  0.83214000  1
  Si  Si5  1  0.74432000  0.50665400  0.85774900  1
  Si  Si6  1  0.50665400  0.74432000  0.35774900  1
  Si  Si7  1  0.91823200  0.46196700  0.33214000  1
  Sn  Sn0  1  0.23058100  0.76941900  0.25000000  1
  Sn  Sn1  1  0.76941900  0.23058100  0.75000000  1
  Sn  Sn2  1  0.00000000  0.00000000  0.00000000  1
  Sn  Sn3  1  0.00000000  0.00000000  0.50000000  1
  O  O0  1  0.30890200  0.85289300  0.48999100  1
  O  O1  1  0.93528800  0.92952800  0.72649200  1
  O  O2  1  0.58416600  0.53732300  0.82394700  1
  O  O3  1  0.92952800  0.93528800  0.22649200  1
  O  O4  1  0.96657100  0.25675200  0.47145800  1
  O  O5  1  0.48764300  0.08179700  0.81245800  1
  O  O6  1  0.53732300  0.58416600  0.32394700  1
  O  O7  1  0.74324800  0.03342900  0.02854200  1
  O  O8  1  0.51235700  0.91820300  0.18754200  1
  O  O9  1  0.70352800  0.64693200  0.40479800  1
  O  O10  1  0.06471200  0.07047200  0.27350800  1
  O  O11  1  0.03342900  0.74324800  0.52854200  1
  O  O12  1  0.91820300  0.51235700  0.68754200  1
  O  O13  1  0.85289300  0.30890200  0.98999100  1
  O  O14  1  0.64693200  0.70352800  0.90479800  1
  O  O15  1  0.25675200  0.96657100  0.97145800  1
  O  O16  1  0.48043500  0.93384300  0.66671300  1
  O  O17  1  0.29647200  0.35306800  0.59520200  1
  O  O18  1  0.06615700  0.51956500  0.83328700  1
  O  O19  1  0.35306800  0.29647200  0.09520200  1
  O  O20  1  0.08179700  0.48764300  0.31245800  1
  O  O21  1  0.07047200  0.06471200  0.77350800  1
  O  O22  1  0.93384300  0.48043500  0.16671300  1
  O  O23  1  0.41583400  0.46267700  0.17605300  1
  O  O24  1  0.51956500  0.06615700  0.33328700  1
  O  O25  1  0.46267700  0.41583400  0.67605300  1
  O  O26  1  0.14710700  0.69109800  0.01000900  1
  O  O27  1  0.69109800  0.14710700  0.51000900  1
loop_
_geom_bond_atom_site_label_1
_geom_bond_atom_site_label_2
_geom_bond_distance
_geom_bond_site_symmetry_2
Ca0 O21 2.309243 1_555
Ca0 O16 2.317728 1_545
Ca0 O24 2.332088 1_555
Ca0 O17 2.593731 1_555
Ca0 O4 2.614176 1_455
Ca0 O20 2.676614 1_555
Ca1 O1 2.309243 1_555
Ca1 O18 2.317728 1_655
Ca1 O22 2.332088 1_556
Ca1 O14 2.593731 1_555
Ca1 O7 2.614176 1_566
Ca1 O8 2.676614 1_556
Ca2 O10 2.309243 1_555
Ca2 O22 2.317728 1_455
Ca2 O18 2.332088 1_554
Ca2 O19 2.593731 1_555
Ca2 O15 2.614176 1_544
Ca2 O5 2.676614 1_554
Ca3 O6 2.337004 1_555
Ca3 O23 2.337004 1_555
Ca3 O27 2.360554 1_555
Ca3 O13 2.360554 1_554
Ca3 O3 2.790860 1_545
Ca3 O10 2.790860 1_655
Ca4 O3 2.309243 1_555
Ca4 O24 2.317728 1_565
Ca4 O16 2.332088 1_555
Ca4 O9 2.593731 1_555
Ca4 O11 2.614176 1_655
Ca4 O12 2.676614 1_555
Ca5 O2 2.337004 1_555
Ca5 O25 2.337004 1_555
Ca5 O26 2.360554 1_556
Ca5 O0 2.360554 1_555
Ca5 O1 2.790860 1_455
Ca5 O21 2.790860 1_565
O0 Si6 1.650411 1_555
O0 Sn3 2.257434 1_565
O1 Sn3 1.974590 1_665
O1 Sn1 2.279835 1_565
O2 Si5 1.597923 1_555
O2 Sn1 2.548875 1_555
O3 Sn2 1.974590 1_665
O3 Sn0 2.279835 1_655
O4 Si7 1.649432 1_555
O4 Sn3 2.173497 1_655
O4 Sn1 2.519220 1_555
O5 Si4 1.686643 1_545
O5 Si3 1.706408 1_555
O6 Si6 1.597923 1_555
O6 Sn0 2.548875 1_555
O7 Si1 1.649432 1_555
O7 Sn2 2.173497 1_655
O7 Sn1 2.519220 1_554
O8 Si1 1.686643 1_565
O8 Si6 1.706408 1_555
O9 Si7 1.682040 1_555
O9 Si6 1.702956 1_555
O10 Sn3 1.974590 1_555
O10 Sn0 2.279835 1_545
O11 Si0 1.649432 1_555
O11 Sn3 2.173497 1_565
O11 Sn0 2.519220 1_555
O12 Si0 1.686643 1_655
O12 Si5 1.706408 1_555
O13 Si5 1.650411 1_555
O13 Sn2 2.257434 1_656
O14 Si4 1.682040 1_555
O14 Si5 1.702956 1_555
O15 Si4 1.649432 1_555
O15 Sn2 2.173497 1_566
O15 Sn0 2.519220 1_556
O16 Si4 1.610954 1_555
O17 Si0 1.682040 1_555
O17 Si3 1.702956 1_555
O18 Si0 1.610954 1_555
O19 Si1 1.682040 1_555
O19 Si2 1.702956 1_555
O20 Si7 1.686643 1_455
O20 Si2 1.706408 1_555
O21 Sn2 1.974590 1_556
O21 Sn1 2.279835 1_455
O22 Si7 1.610954 1_555
O23 Si2 1.597923 1_555
O23 Sn0 2.548875 1_555
O24 Si1 1.610954 1_555
O25 Si3 1.597923 1_555
O25 Sn1 2.548875 1_555
O26 Si2 1.650411 1_555
O26 Sn2 2.257434 1_565
O27 Si3 1.650411 1_555
O27 Sn3 2.257434 1_655
