# generated using pymatgen
data_Pd(NO4)2
_symmetry_space_group_name_H-M   'P 1'
_cell_length_a   5.19207700
_cell_length_b   10.35553000
_cell_length_c   11.68028900
_cell_angle_alpha   90.00000000
_cell_angle_beta   90.00000000
_cell_angle_gamma   90.00000000
_symmetry_Int_Tables_number   1
_chemical_formula_structural   Pd(NO4)2
_chemical_formula_sum   'Pd4 N8 O32'
_cell_volume   628.01070129
_cell_formula_units_Z   4
loop_
 _symmetry_equiv_pos_site_id
 _symmetry_equiv_pos_as_xyz
  1  'x, y, z'
loop_
 _atom_site_type_symbol
 _atom_site_label
 _atom_site_symmetry_multiplicity
 _atom_site_fract_x
 _atom_site_fract_y
 _atom_site_fract_z
 _atom_site_occupancy
  Pd  Pd0  1  0.50000000  0.00000000  0.50000000  1
  Pd  Pd1  1  0.00000000  0.50000000  0.50000000  1
  Pd  Pd2  1  0.50000000  0.50000000  0.00000000  1
  Pd  Pd3  1  0.00000000  0.00000000  0.00000000  1
  N  N0  1  0.64049000  0.32886200  0.61677600  1
  N  N1  1  0.14049000  0.17113800  0.38322400  1
  N  N2  1  0.35951000  0.82886200  0.88322400  1
  N  N3  1  0.85951000  0.67113800  0.11677600  1
  N  N4  1  0.35951000  0.67113800  0.38322400  1
  N  N5  1  0.85951000  0.82886200  0.61677600  1
  N  N6  1  0.64049000  0.17113800  0.11677600  1
  N  N7  1  0.14049000  0.32886200  0.88322400  1
  O  O0  1  0.83528500  0.45711000  0.37357700  1
  O  O1  1  0.33528500  0.04289000  0.62642300  1
  O  O2  1  0.16471500  0.95711000  0.12642300  1
  O  O3  1  0.66471500  0.54289000  0.87357700  1
  O  O4  1  0.16471500  0.54289000  0.62642300  1
  O  O5  1  0.66471500  0.95711000  0.37357700  1
  O  O6  1  0.83528500  0.04289000  0.87357700  1
  O  O7  1  0.33528500  0.45711000  0.12642300  1
  O  O8  1  0.83106700  0.54505300  0.09980800  1
  O  O9  1  0.33106700  0.95494700  0.90019200  1
  O  O10  1  0.16893300  0.04505300  0.40019200  1
  O  O11  1  0.66893300  0.45494700  0.59980800  1
  O  O12  1  0.16893300  0.45494700  0.90019200  1
  O  O13  1  0.66893300  0.04505300  0.09980800  1
  O  O14  1  0.83106700  0.95494700  0.59980800  1
  O  O15  1  0.33106700  0.54505300  0.40019200  1
  O  O16  1  0.55698900  0.70439400  0.33134200  1
  O  O17  1  0.05698900  0.79560600  0.66865800  1
  O  O18  1  0.44301100  0.20439400  0.16865800  1
  O  O19  1  0.94301100  0.29560600  0.83134200  1
  O  O20  1  0.44301100  0.29560600  0.66865800  1
  O  O21  1  0.94301100  0.20439400  0.33134200  1
  O  O22  1  0.55698900  0.79560600  0.83134200  1
  O  O23  1  0.05698900  0.70439400  0.16865800  1
  O  O24  1  0.19335200  0.74626000  0.41951000  1
  O  O25  1  0.69335200  0.75374000  0.58049000  1
  O  O26  1  0.80664800  0.24626000  0.08049000  1
  O  O27  1  0.30664800  0.25374000  0.91951000  1
  O  O28  1  0.80664800  0.25374000  0.58049000  1
  O  O29  1  0.30664800  0.24626000  0.41951000  1
  O  O30  1  0.19335200  0.75374000  0.91951000  1
  O  O31  1  0.69335200  0.74626000  0.08049000  1
loop_
_geom_bond_atom_site_label_1
_geom_bond_atom_site_label_2
_geom_bond_distance
_geom_bond_site_symmetry_2
N0 O28 1.236554 1_555
N0 O20 1.239809 1_555
N0 O11 1.328865 1_555
N1 O29 1.236554 1_555
N1 O21 1.239809 1_455
N1 O10 1.328865 1_555
N2 O30 1.236554 1_555
N2 O22 1.239809 1_555
N2 O9 1.328865 1_555
N3 O31 1.236554 1_555
N3 O23 1.239809 1_655
N3 O8 1.328865 1_555
N4 O24 1.236554 1_555
N4 O16 1.239809 1_555
N4 O15 1.328865 1_555
N5 O25 1.236554 1_555
N5 O17 1.239809 1_655
N5 O14 1.328865 1_555
N6 O26 1.236554 1_555
N6 O18 1.239809 1_555
N6 O13 1.328865 1_555
N7 O27 1.236554 1_555
N7 O19 1.239809 1_455
N7 O12 1.328865 1_555
O0 Pd1 1.763285 1_655
O1 Pd0 1.763285 1_555
O2 Pd3 1.763285 1_565
O3 Pd2 1.763285 1_556
O4 Pd1 1.763285 1_555
O5 Pd0 1.763285 1_565
O6 Pd3 1.763285 1_656
O7 Pd2 1.763285 1_555
O8 Pd2 2.128715 1_555
O9 Pd3 2.128715 1_566
O10 Pd0 2.128715 1_555
O11 Pd1 2.128715 1_655
O12 Pd2 2.128715 1_556
O13 Pd3 2.128715 1_655
O14 Pd0 2.128715 1_565
O15 Pd1 2.128715 1_555
