# generated using pymatgen
data_V2O5
_symmetry_space_group_name_H-M   'P 1'
_cell_length_a   13.05109981
_cell_length_b   11.61321793
_cell_length_c   12.60941074
_cell_angle_alpha   87.46486777
_cell_angle_beta   83.08895679
_cell_angle_gamma   84.59042299
_symmetry_Int_Tables_number   1
_chemical_formula_structural   V2O5
_chemical_formula_sum   'V30 O75'
_cell_volume   1887.76653706
_cell_formula_units_Z   15
loop_
 _symmetry_equiv_pos_site_id
 _symmetry_equiv_pos_as_xyz
  1  'x, y, z'
loop_
 _atom_site_type_symbol
 _atom_site_label
 _atom_site_symmetry_multiplicity
 _atom_site_fract_x
 _atom_site_fract_y
 _atom_site_fract_z
 _atom_site_occupancy
  V  V0  1  0.84933890  0.65258773  0.02256450  1
  V  V1  1  0.95643348  0.82454971  0.14900408  1
  V  V2  1  0.88968161  0.91610974  0.66105215  1
  V  V3  1  0.49917913  0.60239064  0.95759026  1
  V  V4  1  0.86187096  0.14740735  0.55992765  1
  V  V5  1  0.45506110  0.12507119  0.72975924  1
  V  V6  1  0.37305926  0.41047608  0.81077732  1
  V  V7  1  0.54854870  0.50302218  0.67893528  1
  V  V8  1  0.72493219  0.89844322  0.13803456  1
  V  V9  1  0.39401990  0.87831601  0.04164138  1
  V  V10  1  0.63437482  0.06785544  0.32712581  1
  V  V11  1  0.17248478  0.57226183  0.41521951  1
  V  V12  1  0.87642597  0.68883916  0.61044749  1
  V  V13  1  0.98797575  0.98377894  0.89108775  1
  V  V14  1  0.22391276  0.33550502  0.26790087  1
  V  V15  1  0.05735653  0.11007001  0.33759210  1
  V  V16  1  0.92660862  0.40252755  0.66820440  1
  V  V17  1  0.90919946  0.59578650  0.35130889  1
  V  V18  1  0.06814393  0.54494424  0.12750065  1
  V  V19  1  0.58528656  0.06356673  0.98131053  1
  V  V20  1  0.89430626  0.28026826  0.92062935  1
  V  V21  1  0.62106688  0.00995528  0.60466088  1
  V  V22  1  0.41310106  0.38776514  0.12805618  1
  V  V23  1  0.19357602  0.36816986  -0.00503715  1
  V  V24  1  0.73618240  0.40406772  0.49217379  1
  V  V25  1  0.34821460  0.64384490  0.20863066  1
  V  V26  1  0.62736583  0.29815736  0.27338371  1
  V  V27  1  0.25637397  0.95296739  0.84050953  1
  V  V28  1  0.62858088  0.33600082  0.90200014  1
  V  V29  1  0.86901560  0.38043303  0.17081414  1
  O  O0  1  0.18191488  0.59468195  0.53886268  1
  O  O1  1  0.53298193  0.35718670  0.00280746  1
  O  O2  1  0.15472724  0.24241075  0.97978770  1
  O  O3  1  0.36030620  0.87120972  0.51609909  1
  O  O4  1  0.95278196  0.35548529  0.80902141  1
  O  O5  1  0.32462340  0.47644847  0.21637661  1
  O  O6  1  0.09224841  0.48016585  0.99075914  1
  O  O7  1  0.41993296  0.52381102  0.87503416  1
  O  O8  1  0.75373601  0.24950177  0.51620795  1
  O  O9  1  0.34322097  0.26890429  0.20974556  1
  O  O10  1  0.49188032  0.12892977  0.59566893  1
  O  O11  1  0.20970623  0.42274894  0.38663815  1
  O  O12  1  0.85828527  0.67259197  0.89393923  1
  O  O13  1  0.55105856  0.63357415  0.71656744  1
  O  O14  1  0.34312274  0.04715633  0.76287861  1
  O  O15  1  0.11850101  -0.00310628  0.83336994  1
  O  O16  1  0.62684272  0.18834159  0.88824930  1
  O  O17  1  0.33385100  0.36406423  0.02022851  1
  O  O18  1  0.36691393  0.76800411  0.54247399  1
  O  O19  1  0.58778225  0.88017583  0.60718825  1
  O  O20  1  0.76125518  0.33070419  0.93120152  1
  O  O21  1  0.24356753  0.40729430  0.84096435  1
  O  O22  1  0.42963662  0.26239672  0.79952135  1
  O  O23  1  0.45301751  0.66763094  0.25680063  1
  O  O24  1  0.53602739  0.13043680  0.08827768  1
  O  O25  1  0.70165005  0.98504801  0.01796738  1
  O  O26  1  0.15863333  0.22171242  0.32021854  1
  O  O27  1  0.77617552  0.02494656  0.62202377  1
  O  O28  1  0.25357128  0.66012364  0.33260191  1
  O  O29  1  0.49533875  0.96838548  0.95721235  1
  O  O30  1  0.91497121  0.28558829  0.25520821  1
  O  O31  1  0.90989305  0.56158681  0.68788659  1
  O  O32  1  0.28144223  0.82428819  0.79617492  1
  O  O33  1  0.05807262  0.84863084  0.19973281  1
  O  O34  1  0.62185626  0.54965894  0.93659770  1
  O  O35  1  0.03339663  0.58944891  0.38969297  1
  O  O36  1  0.89529670  0.71983746  0.27782795  1
  O  O37  1  0.83780698  0.51178198  0.06106088  1
  O  O38  1  0.84448721  0.65454681  0.48549990  1
  O  O39  1  0.02481784  0.08211044  0.22062463  1
  O  O40  1  0.97202929  0.78772002  0.59853188  1
  O  O41  1  0.80769903  0.42838101  0.59660932  1
  O  O42  1  0.94575092  0.50142098  0.22906592  1
  O  O43  1  0.73399861  0.36560533  0.18903318  1
  O  O44  1  0.96499968  0.01751333  0.60103928  1
  O  O45  1  0.48710962  0.74998337  0.97261961  1
  O  O46  1  0.60810145  0.39958965  0.77068451  1
  O  O47  1  0.89105287  0.23818402  0.65297374  1
  O  O48  1  0.56684504  0.05062100  0.76047701  1
  O  O49  1  0.63344969  0.36611640  0.38561712  1
  O  O50  1  0.61852218  0.48747161  0.55032056  1
  O  O51  1  0.02953222  0.39037780  0.58424946  1
  O  O52  1  0.32495493  0.75478780  0.11194724  1
  O  O53  1  0.84462872  0.92636194  0.18650642  1
  O  O54  1  0.78719557  0.79131555  0.66923746  1
  O  O55  1  0.28592157  0.94959339  0.97463058  1
  O  O56  1  0.80886986  0.47448278  0.38834777  1
  O  O57  1  0.15783617  0.62141576  0.15891961  1
  O  O58  1  0.92967140  0.30500193  0.04517056  1
  O  O59  1  0.94167378  0.15761123  0.44244407  1
  O  O60  1  0.11158225  0.99109785  0.38804417  1
  O  O61  1  0.62811855  0.94392731  0.24598171  1
  O  O62  1  0.44054783  0.54923689  0.08436959  1
  O  O63  1  0.91430837  0.13246950  0.90046240  1
  O  O64  1  0.15427939  0.38639000  0.15729480  1
  O  O65  1  0.52305080  0.36367464  0.20547966  1
  O  O66  1  0.40417379  0.94131701  0.15043908  1
  O  O67  1  0.66586515  0.02923997  0.45126804  1
  O  O68  1  0.97265555  0.68268658  0.07617704  1
  O  O69  1  0.72280720  0.16138664  0.26570884  1
  O  O70  1  0.53563218  0.17748575  0.33129852  1
  O  O71  1  0.97211641  0.90307799  0.00770540  1
  O  O72  1  0.75030692  0.75356879  0.09490438  1
  O  O73  1  0.91119558  0.92010799  0.79356763  1
  O  O74  1  0.41338667  0.46332098  0.67916456  1
loop_
_geom_bond_atom_site_label_1
_geom_bond_atom_site_label_2
_geom_bond_distance
_geom_bond_site_symmetry_2
O0 V11 1.612997 1_555
O1 V28 1.679609 1_554
O1 V22 2.102008 1_555
O2 V23 1.616892 1_556
O4 V20 1.756261 1_555
O4 V16 1.895503 1_555
O5 V22 1.789442 1_555
O5 V25 1.993072 1_555
O5 V14 2.221465 1_555
O6 V23 1.769113 1_556
O6 V18 1.891416 1_556
O7 V6 1.768760 1_555
O7 V3 1.872747 1_555
O8 V24 1.804835 1_555
O8 V4 1.874911 1_555
O9 V14 1.763189 1_555
O9 V22 1.919289 1_555
O10 V5 1.701044 1_555
O10 V21 2.087459 1_555
O11 V11 1.798578 1_555
O11 V14 1.826065 1_555
O12 V0 1.619980 1_556
O13 V7 1.612959 1_555
O14 V5 1.787852 1_555
O14 V27 1.818944 1_545
O15 V13 1.787604 1_445
O15 V27 1.835211 1_545
O16 V28 1.733695 1_555
O16 V19 1.901430 1_555
O17 V22 1.849157 1_555
O17 V23 1.891547 1_555
O18 O3 1.227482 1_555
O19 V21 1.605337 1_565
O20 V20 1.770755 1_555
O20 V28 1.808028 1_555
O21 V6 1.690593 1_555
O21 V23 2.018856 1_556
O22 V6 1.810971 1_555
O22 V5 1.838843 1_555
O23 V25 1.613105 1_555
O24 V19 1.620329 1_554
O25 V19 1.795002 1_564
O25 V8 1.820547 1_555
O26 V14 1.705083 1_555
O26 V15 1.924674 1_555
O27 V2 1.949772 1_545
O27 V4 1.969046 1_555
O27 V21 2.086305 1_555
O28 V11 1.758003 1_555
O28 V25 1.876833 1_555
O29 V19 1.747129 1_565
O29 V9 1.949235 1_556
O30 V29 1.621946 1_555
O31 V12 1.783663 1_555
O31 V16 1.863556 1_555
O32 V27 1.609482 1_555
O33 V1 1.592781 1_455
O34 V3 1.654084 1_555
O35 V17 1.740740 1_455
O35 V11 1.872218 1_555
O36 V17 1.685208 1_555
O36 V1 2.109586 1_555
O37 V0 1.700232 1_555
O37 V29 2.059053 1_555
O38 V12 1.749129 1_555
O38 V17 1.921359 1_555
O39 V15 1.637123 1_555
O40 V12 1.762903 1_555
O40 V2 1.896736 1_555
O41 V24 1.750267 1_555
O41 V16 1.881188 1_555
O42 V17 1.917913 1_555
O42 V18 2.012420 1_655
O42 V29 2.012540 1_555
O43 V29 1.773073 1_555
O43 V26 1.859350 1_555
O44 V2 1.698853 1_545
O44 V4 2.017857 1_555
O45 V3 1.723154 1_555
O45 V9 1.993374 1_556
O46 V7 1.817357 1_555
O46 V28 1.821980 1_555
O47 V4 1.710437 1_555
O47 V16 2.028711 1_555
O48 V5 1.701324 1_555
O48 V21 2.066039 1_555
O49 V26 1.664219 1_555
O49 V24 2.096325 1_555
O50 V7 1.770618 1_555
O50 V24 1.828995 1_555
O51 V16 1.606305 1_455
O52 V25 1.764868 1_555
O52 V9 1.896140 1_555
O53 V8 1.806067 1_555
O53 V1 1.819040 1_555
O54 V12 1.712013 1_555
O54 V2 2.054047 1_555
O55 V27 1.777244 1_555
O55 V9 1.842372 1_556
O56 V24 1.742208 1_555
O56 V17 2.014849 1_555
O57 V18 1.629308 1_555
O58 V20 1.732339 1_554
O58 V29 1.895843 1_555
O59 V4 1.711657 1_555
O59 V15 1.938894 1_655
O60 V15 1.631179 1_565
O61 V8 1.803360 1_555
O61 V10 1.815875 1_565
O62 V3 1.797086 1_554
O62 V22 1.983922 1_555
O62 V25 2.136025 1_555
O63 V20 1.736969 1_555
O63 V13 1.896780 1_545
O64 V14 1.803079 1_555
O64 V23 2.064669 1_555
O64 V18 2.108438 1_555
O65 V26 1.786929 1_555
O65 V22 1.824217 1_555
O66 V9 1.608021 1_555
O67 V10 1.696567 1_555
O67 V21 1.961458 1_555
O68 V0 1.886325 1_555
O68 V1 1.903577 1_555
O68 V18 2.063337 1_655
O69 V10 1.748847 1_555
O69 V26 1.922322 1_555
O70 V10 1.721832 1_555
O70 V26 1.986437 1_555
O71 V13 1.710236 1_554
O71 V1 1.962575 1_555
O72 V8 1.780071 1_555
O72 V0 1.844701 1_555
O73 V2 1.730685 1_555
O73 V13 1.891998 1_555
O74 V6 1.779993 1_555
O74 V7 1.864492 1_555
