# generated using pymatgen
data_Mn7PbO12
_symmetry_space_group_name_H-M   'P 1'
_cell_length_a   6.54679196
_cell_length_b   6.54679196
_cell_length_c   6.54679180
_cell_angle_alpha   109.49143036
_cell_angle_beta   109.49143036
_cell_angle_gamma   109.49143689
_symmetry_Int_Tables_number   1
_chemical_formula_structural   Mn7PbO12
_chemical_formula_sum   'Mn7 Pb1 O12'
_cell_volume   215.84316477
_cell_formula_units_Z   1
loop_
 _symmetry_equiv_pos_site_id
 _symmetry_equiv_pos_as_xyz
  1  'x, y, z'
loop_
 _atom_site_type_symbol
 _atom_site_label
 _atom_site_symmetry_multiplicity
 _atom_site_fract_x
 _atom_site_fract_y
 _atom_site_fract_z
 _atom_site_occupancy
  Mn  Mn0  1  0.00000000  0.50000000  0.50000000  1
  Mn  Mn1  1  0.50000000  0.00000000  0.50000000  1
  Mn  Mn2  1  0.50000000  0.50000000  0.00000000  1
  Mn  Mn3  1  0.50000000  0.00000000  0.00000000  1
  Mn  Mn4  1  0.00000000  0.50000000  0.00000000  1
  Mn  Mn5  1  0.00000000  0.00000000  0.50000000  1
  Mn  Mn6  1  0.50000000  0.50000000  0.50000000  1
  Pb  Pb0  1  0.00000000  0.00000000  0.00000000  1
  O  O0  1  0.19221900  0.86775400  0.69001600  1
  O  O1  1  0.69001600  0.19221900  0.86775400  1
  O  O2  1  0.86775400  0.69001600  0.19221900  1
  O  O3  1  0.80778100  0.13224600  0.30998400  1
  O  O4  1  0.30998400  0.80778100  0.13224600  1
  O  O5  1  0.13224600  0.30998400  0.80778100  1
  O  O6  1  0.18150000  0.48861000  0.31666500  1
  O  O7  1  0.31666500  0.18150000  0.48861000  1
  O  O8  1  0.48861000  0.31666500  0.18150000  1
  O  O9  1  0.81850000  0.51139000  0.68333500  1
  O  O10  1  0.68333500  0.81850000  0.51139000  1
  O  O11  1  0.51139000  0.68333500  0.81850000  1
loop_
_geom_bond_atom_site_label_1
_geom_bond_atom_site_label_2
_geom_bond_distance
_geom_bond_site_symmetry_2
Mn0 O9 1.951728 1_455
Mn0 O6 1.951728 1_555
Mn0 O0 1.965318 1_555
Mn0 O3 1.965318 1_455
Mn1 O10 1.951728 1_545
Mn1 O7 1.951728 1_555
Mn1 O1 1.965318 1_555
Mn1 O4 1.965318 1_545
Mn2 O11 1.951728 1_554
Mn2 O8 1.951728 1_555
Mn2 O2 1.965318 1_555
Mn2 O5 1.965318 1_554
Mn3 O0 1.965358 1_544
Mn3 O3 1.965358 1_555
Mn3 O8 2.057615 1_555
Mn3 O11 2.057615 1_544
Mn3 O4 2.069264 1_545
Mn3 O1 2.069264 1_554
Mn4 O1 1.965357 1_454
Mn4 O4 1.965357 1_555
Mn4 O6 2.057615 1_555
Mn4 O9 2.057615 1_454
Mn4 O5 2.069264 1_554
Mn4 O2 2.069264 1_455
Mn5 O2 1.965358 1_445
Mn5 O5 1.965358 1_555
Mn5 O7 2.057615 1_555
Mn5 O10 2.057615 1_445
Mn5 O3 2.069264 1_455
Mn5 O0 2.069264 1_545
Mn6 O10 1.990077 1_555
Mn6 O7 1.990077 1_555
Mn6 O11 1.990078 1_555
Mn6 O8 1.990078 1_555
Mn6 O9 1.990078 1_555
Mn6 O6 1.990078 1_555
O0 Pb0 2.776774 1_566
O1 Pb0 2.776774 1_656
O2 Pb0 2.776774 1_665
O3 Pb0 2.776774 1_655
O4 Pb0 2.776774 1_565
O5 Pb0 2.776774 1_556
O6 Pb0 2.708583 1_555
O7 Pb0 2.708583 1_555
O8 Pb0 2.708583 1_555
O9 Pb0 2.708583 1_666
O10 Pb0 2.708583 1_666
O11 Pb0 2.708583 1_666
