# generated using pymatgen
data_Dy(Mo3Se4)2
_symmetry_space_group_name_H-M   'P 1'
_cell_length_a   6.78137676
_cell_length_b   6.78137676
_cell_length_c   6.78137637
_cell_angle_alpha   89.29601240
_cell_angle_beta   89.29601240
_cell_angle_gamma   89.29600352
_symmetry_Int_Tables_number   1
_chemical_formula_structural   Dy(Mo3Se4)2
_chemical_formula_sum   'Dy1 Mo6 Se8'
_cell_volume   311.78558797
_cell_formula_units_Z   1
loop_
 _symmetry_equiv_pos_site_id
 _symmetry_equiv_pos_as_xyz
  1  'x, y, z'
loop_
 _atom_site_type_symbol
 _atom_site_label
 _atom_site_symmetry_multiplicity
 _atom_site_fract_x
 _atom_site_fract_y
 _atom_site_fract_z
 _atom_site_occupancy
  Dy  Dy0  1  0.00000000  0.00000000  0.00000000  1
  Mo  Mo0  1  0.76615300  0.57695600  0.44123600  1
  Mo  Mo1  1  0.44123600  0.76615300  0.57695600  1
  Mo  Mo2  1  0.57695600  0.44123600  0.76615300  1
  Mo  Mo3  1  0.23384700  0.42304400  0.55876400  1
  Mo  Mo4  1  0.55876400  0.23384700  0.42304400  1
  Mo  Mo5  1  0.42304400  0.55876400  0.23384700  1
  Se  Se0  1  0.76334700  0.76334700  0.76334700  1
  Se  Se1  1  0.23665300  0.23665300  0.23665300  1
  Se  Se2  1  0.24422300  0.63003500  0.87753400  1
  Se  Se3  1  0.87753400  0.24422300  0.63003500  1
  Se  Se4  1  0.63003500  0.87753400  0.24422300  1
  Se  Se5  1  0.75577700  0.36996500  0.12246600  1
  Se  Se6  1  0.12246600  0.75577700  0.36996500  1
  Se  Se7  1  0.36996500  0.12246600  0.75577700  1
loop_
_geom_bond_atom_site_label_1
_geom_bond_atom_site_label_2
_geom_bond_distance
_geom_bond_site_symmetry_2
Dy0 Se1 2.813598 1_555
Dy0 Se0 2.813598 1_444
Dy0 Se5 3.105212 1_455
Dy0 Se2 3.105212 1_544
Dy0 Se6 3.105212 1_545
Dy0 Se3 3.105212 1_454
Dy0 Se4 3.105212 1_445
Dy0 Se7 3.105212 1_554
Mo0 Se0 2.536863 1_555
Mo0 Se4 2.590164 1_555
Mo0 Se5 2.594022 1_555
Mo0 Se3 2.685497 1_555
Mo0 Se6 2.751635 1_655
Mo1 Se0 2.536863 1_555
Mo1 Se2 2.590164 1_555
Mo1 Se6 2.594022 1_555
Mo1 Se4 2.685497 1_555
Mo1 Se7 2.751635 1_565
Mo2 Se0 2.536863 1_555
Mo2 Se3 2.590164 1_555
Mo2 Se7 2.594023 1_555
Mo2 Se2 2.685497 1_555
Mo2 Se5 2.751635 1_556
Mo3 Se1 2.536863 1_555
Mo3 Se7 2.590164 1_555
Mo3 Se2 2.594022 1_555
Mo3 Se6 2.685497 1_555
Mo3 Se3 2.751635 1_455
Mo4 Se1 2.536863 1_555
Mo4 Se5 2.590164 1_555
Mo4 Se3 2.594022 1_555
Mo4 Se7 2.685497 1_555
Mo4 Se4 2.751635 1_545
Mo5 Se1 2.536863 1_555
Mo5 Se6 2.590164 1_555
Mo5 Se4 2.594023 1_555
Mo5 Se5 2.685497 1_555
Mo5 Se2 2.751635 1_554
