# generated using pymatgen
data_Tb3Zn11
_symmetry_space_group_name_H-M   'P 1'
_cell_length_a   4.36226169
_cell_length_b   8.07489537
_cell_length_c   8.07489537
_cell_angle_alpha   65.12722783
_cell_angle_beta   74.32902999
_cell_angle_gamma   74.32902999
_symmetry_Int_Tables_number   1
_chemical_formula_structural   Tb3Zn11
_chemical_formula_sum   'Tb3 Zn11'
_cell_volume   244.44102810
_cell_formula_units_Z   1
loop_
 _symmetry_equiv_pos_site_id
 _symmetry_equiv_pos_as_xyz
  1  'x, y, z'
loop_
 _atom_site_type_symbol
 _atom_site_label
 _atom_site_symmetry_multiplicity
 _atom_site_fract_x
 _atom_site_fract_y
 _atom_site_fract_z
 _atom_site_occupancy
  Tb  Tb0  1  -0.00000000  0.00000000  0.00000000  1
  Tb  Tb1  1  0.29227806  0.70772194  0.70772194  1
  Tb  Tb2  1  0.70772194  0.29227806  0.29227806  1
  Zn  Zn0  1  -0.00000000  0.50000000  0.50000000  1
  Zn  Zn1  1  0.50000000  0.32109715  0.67890285  1
  Zn  Zn2  1  0.50000000  0.67890285  0.32109715  1
  Zn  Zn3  1  0.34400463  0.29694346  0.01504928  1
  Zn  Zn4  1  0.65599537  0.70305654  0.98495072  1
  Zn  Zn5  1  0.34400463  0.01504928  0.29694346  1
  Zn  Zn6  1  0.65599537  0.98495072  0.70305654  1
  Zn  Zn7  1  0.14011927  0.57650680  0.14325366  1
  Zn  Zn8  1  0.85988073  0.42349320  0.85674634  1
  Zn  Zn9  1  0.14011927  0.14325366  0.57650680  1
  Zn  Zn10  1  0.85988073  0.85674634  0.42349320  1
loop_
_geom_bond_atom_site_label_1
_geom_bond_atom_site_label_2
_geom_bond_distance
_geom_bond_site_symmetry_2
Tb0 Zn8 3.054665 1_454
Tb0 Zn10 3.054665 1_445
Tb0 Zn9 3.054665 1_554
Tb0 Zn7 3.054665 1_545
Tb0 Zn4 3.209907 1_544
Tb0 Zn6 3.209907 1_544
Tb0 Zn3 3.209907 1_455
Tb0 Zn5 3.209907 1_455
Tb0 Zn6 3.209913 1_444
Tb0 Zn4 3.209913 1_444
Tb0 Zn5 3.209913 1_555
Tb0 Zn3 3.209913 1_555
Tb0 Zn2 3.542257 1_445
Tb0 Zn1 3.542257 1_554
Tb0 Zn2 3.542257 1_545
Tb0 Zn1 3.542257 1_454
Tb1 Zn10 3.010432 1_455
Tb1 Zn8 3.010432 1_455
Tb1 Zn8 3.010435 1_555
Tb1 Zn10 3.010435 1_555
Tb1 Zn4 3.057068 1_555
Tb1 Zn6 3.057068 1_555
Tb1 Zn4 3.057074 1_455
Tb1 Zn6 3.057074 1_455
Tb1 Zn1 3.096905 1_555
Tb1 Zn2 3.096905 1_555
Tb1 Zn9 3.148948 1_565
Tb1 Zn7 3.148948 1_556
Tb1 Zn5 3.191485 1_565
Tb1 Zn3 3.191485 1_556
Tb2 Zn9 3.010432 1_655
Tb2 Zn7 3.010432 1_655
Tb2 Zn9 3.010435 1_555
Tb2 Zn7 3.010435 1_555
Tb2 Zn5 3.057068 1_555
Tb2 Zn3 3.057068 1_555
Tb2 Zn5 3.057074 1_655
Tb2 Zn3 3.057074 1_655
Tb2 Zn2 3.096905 1_555
Tb2 Zn1 3.096905 1_555
Tb2 Zn8 3.148948 1_554
Tb2 Zn10 3.148948 1_545
Tb2 Zn4 3.191485 1_554
Tb2 Zn6 3.191485 1_545
Zn0 Zn8 2.609475 1_455
Zn0 Zn10 2.609475 1_455
Zn0 Zn7 2.609475 1_555
Zn0 Zn9 2.609475 1_555
Zn0 Zn1 2.678740 1_455
Zn0 Zn1 2.678740 1_555
Zn0 Zn2 2.678740 1_555
Zn0 Zn2 2.678740 1_455
Zn1 Zn3 2.548981 1_556
Zn1 Zn6 2.548981 1_545
Zn1 Zn8 2.851053 1_455
Zn1 Zn9 2.851053 1_655
Zn1 Zn8 2.851057 1_555
Zn1 Zn9 2.851057 1_555
Zn1 Zn2 3.110188 1_555
Zn2 Zn5 2.548981 1_565
Zn2 Zn4 2.548981 1_554
Zn2 Zn7 2.851053 1_655
Zn2 Zn7 2.851057 1_555
Zn3 Zn5 2.450335 1_555
Zn3 Zn8 2.516333 1_554
Zn3 Zn8 2.516337 1_454
Zn3 Zn7 2.709732 1_555
Zn4 Zn6 2.450335 1_555
Zn4 Zn7 2.516333 1_556
Zn4 Zn7 2.516337 1_656
Zn4 Zn8 2.709732 1_555
Zn5 Zn9 2.709732 1_555
Zn6 Zn9 2.516333 1_565
Zn6 Zn9 2.516337 1_665
Zn10 Zn5 2.516333 1_565
Zn10 Zn5 2.516337 1_665
Zn10 Zn6 2.709732 1_555
Zn10 Zn2 2.851053 1_655
Zn10 Zn2 2.851057 1_555
