# generated using pymatgen
data_Y2Mg
_symmetry_space_group_name_H-M   'P 1'
_cell_length_a   13.17240837
_cell_length_b   13.17240837
_cell_length_c   16.56950464
_cell_angle_alpha   74.69340461
_cell_angle_beta   74.69340461
_cell_angle_gamma   31.00663521
_symmetry_Int_Tables_number   1
_chemical_formula_structural   Y2Mg
_chemical_formula_sum   'Y32 Mg16'
_cell_volume   1424.36780240
_cell_formula_units_Z   16
loop_
 _symmetry_equiv_pos_site_id
 _symmetry_equiv_pos_as_xyz
  1  'x, y, z'
loop_
 _atom_site_type_symbol
 _atom_site_label
 _atom_site_symmetry_multiplicity
 _atom_site_fract_x
 _atom_site_fract_y
 _atom_site_fract_z
 _atom_site_occupancy
  Y  Y0_0  1  0.00533500  0.00533500  0.00776350  1
  Y  Y0_1  1  0.00533500  0.00533500  0.50776350  1
  Y  Y0_2  1  0.00533500  0.50533500  0.00776350  1
  Y  Y0_3  1  0.00533500  0.50533500  0.50776350  1
  Y  Y0_4  1  0.50533500  0.00533500  0.00776350  1
  Y  Y0_5  1  0.50533500  0.00533500  0.50776350  1
  Y  Y0_6  1  0.50533500  0.50533500  0.00776350  1
  Y  Y0_7  1  0.50533500  0.50533500  0.50776350  1
  Y  Y1_0  1  0.16150850  0.16150850  0.16698950  1
  Y  Y1_1  1  0.16150850  0.16150850  0.66698950  1
  Y  Y1_2  1  0.16150850  0.66150850  0.16698950  1
  Y  Y1_3  1  0.16150850  0.66150850  0.66698950  1
  Y  Y1_4  1  0.66150850  0.16150850  0.16698950  1
  Y  Y1_5  1  0.66150850  0.16150850  0.66698950  1
  Y  Y1_6  1  0.66150850  0.66150850  0.16698950  1
  Y  Y1_7  1  0.66150850  0.66150850  0.66698950  1
  Y  Y2_0  1  0.32901100  0.32901100  0.33441850  1
  Y  Y2_1  1  0.32901100  0.32901100  0.83441850  1
  Y  Y2_2  1  0.32901100  0.82901100  0.33441850  1
  Y  Y2_3  1  0.32901100  0.82901100  0.83441850  1
  Y  Y2_4  1  0.82901100  0.32901100  0.33441850  1
  Y  Y2_5  1  0.82901100  0.32901100  0.83441850  1
  Y  Y2_6  1  0.82901100  0.82901100  0.33441850  1
  Y  Y2_7  1  0.82901100  0.82901100  0.83441850  1
  Y  Y3_0  1  0.14547300  0.14547300  0.46553650  1
  Y  Y3_1  1  0.14547300  0.14547300  0.96553650  1
  Y  Y3_2  1  0.14547300  0.64547300  0.46553650  1
  Y  Y3_3  1  0.14547300  0.64547300  0.96553650  1
  Y  Y3_4  1  0.64547300  0.14547300  0.46553650  1
  Y  Y3_5  1  0.64547300  0.14547300  0.96553650  1
  Y  Y3_6  1  0.64547300  0.64547300  0.46553650  1
  Y  Y3_7  1  0.64547300  0.64547300  0.96553650  1
  Mg  Mg0_0  1  0.30435150  0.30435150  0.14270900  1
  Mg  Mg0_1  1  0.30435150  0.30435150  0.64270900  1
  Mg  Mg0_2  1  0.30435150  0.80435150  0.14270900  1
  Mg  Mg0_3  1  0.30435150  0.80435150  0.64270900  1
  Mg  Mg0_4  1  0.80435150  0.30435150  0.14270900  1
  Mg  Mg0_5  1  0.80435150  0.30435150  0.64270900  1
  Mg  Mg0_6  1  0.80435150  0.80435150  0.14270900  1
  Mg  Mg0_7  1  0.80435150  0.80435150  0.64270900  1
  Mg  Mg1_0  1  0.47098750  0.47098750  0.29924900  1
  Mg  Mg1_1  1  0.47098750  0.47098750  0.79924900  1
  Mg  Mg1_2  1  0.47098750  0.97098750  0.29924900  1
  Mg  Mg1_3  1  0.47098750  0.97098750  0.79924900  1
  Mg  Mg1_4  1  0.97098750  0.47098750  0.29924900  1
  Mg  Mg1_5  1  0.97098750  0.47098750  0.79924900  1
  Mg  Mg1_6  1  0.97098750  0.97098750  0.29924900  1
  Mg  Mg1_7  1  0.97098750  0.97098750  0.79924900  1
loop_
_geom_bond_atom_site_label_1
_geom_bond_atom_site_label_2
_geom_bond_distance
_geom_bond_site_symmetry_2
Y0_0 Y3_1 3.432507 1_554
Y0_0 Y2_3 3.450189 1_544
Y0_0 Y2_5 3.450189 1_454
Y0_0 Y1_4 3.505731 1_455
Y0_0 Y1_2 3.505731 1_545
Y0_0 Y0_6 3.520908 1_545
Y0_0 Y0_6 3.520908 1_455
Y0_0 Y3_5 3.526524 1_454
Y0_0 Y3_3 3.526524 1_544
Y0_1 Y3_0 3.432507 1_555
Y0_1 Y2_2 3.450189 1_545
Y0_1 Y2_4 3.450189 1_455
Y0_1 Y1_5 3.505731 1_455
Y0_1 Y1_3 3.505731 1_545
Y0_1 Y0_7 3.520908 1_545
Y0_1 Y0_7 3.520908 1_455
Y0_1 Y3_4 3.526524 1_455
Y0_1 Y3_2 3.526524 1_545
Y0_2 Y3_3 3.432507 1_554
Y0_2 Y2_7 3.450189 1_454
Y0_2 Y2_1 3.450189 1_554
Y0_2 Y1_0 3.505731 1_555
Y0_2 Y1_6 3.505731 1_455
Y0_2 Y0_4 3.520908 1_555
Y0_2 Y0_4 3.520908 1_465
Y0_2 Y3_1 3.526524 1_554
Y0_2 Y3_7 3.526524 1_454
Y0_3 Y3_2 3.432507 1_555
Y0_3 Y2_0 3.450189 1_555
Y0_3 Y2_6 3.450189 1_455
Y0_3 Y1_1 3.505731 1_555
Y0_3 Y1_7 3.505731 1_455
Y0_3 Y0_5 3.520908 1_555
Y0_3 Y0_5 3.520908 1_465
Y0_3 Y3_0 3.526524 1_555
Y0_3 Y3_6 3.526524 1_455
Y0_4 Y3_5 3.432507 1_554
Y0_4 Y2_7 3.450189 1_544
Y0_4 Y2_1 3.450189 1_554
Y0_4 Y1_0 3.505731 1_555
Y0_4 Y1_6 3.505731 1_545
Y0_4 Y3_1 3.526524 1_554
Y0_4 Y3_7 3.526524 1_544
Y0_5 Y3_4 3.432507 1_555
Y0_5 Y2_0 3.450189 1_555
Y0_5 Y2_6 3.450189 1_545
Y0_5 Y1_1 3.505731 1_555
Y0_5 Y1_7 3.505731 1_545
Y0_5 Y3_0 3.526524 1_555
Y0_5 Y3_6 3.526524 1_545
Y0_6 Y3_7 3.432507 1_554
Y0_6 Y2_3 3.450189 1_554
Y0_6 Y2_5 3.450189 1_554
Y0_6 Y1_4 3.505731 1_555
Y0_6 Y1_2 3.505731 1_555
Y0_6 Y3_5 3.526524 1_554
Y0_6 Y3_3 3.526524 1_554
Y0_7 Y3_6 3.432507 1_555
Y0_7 Y2_2 3.450189 1_555
Y0_7 Y2_4 3.450189 1_555
Y0_7 Y1_5 3.505731 1_555
Y0_7 Y1_3 3.505731 1_555
Y0_7 Y3_4 3.526524 1_555
Y0_7 Y3_2 3.526524 1_555
Y1_0 Y2_4 3.463846 1_455
Y1_0 Y2_2 3.463846 1_545
Y1_0 Y3_1 3.471644 1_554
Y1_0 Y1_6 3.520908 1_545
Y1_0 Y1_6 3.520908 1_455
Y1_1 Y2_5 3.463846 1_455
Y1_1 Y2_3 3.463846 1_545
Y1_1 Y3_0 3.471644 1_555
Y1_1 Y1_7 3.520908 1_455
Y1_1 Y1_7 3.520908 1_545
Y1_2 Y2_0 3.463846 1_555
Y1_2 Y2_6 3.463846 1_455
Y1_2 Y3_3 3.471644 1_554
Y1_2 Y1_4 3.520908 1_555
Y1_2 Y1_4 3.520908 1_465
Y1_3 Y2_1 3.463846 1_555
Y1_3 Y2_7 3.463846 1_455
Y1_3 Y3_2 3.471644 1_555
Y1_3 Y1_5 3.520908 1_555
Y1_3 Y1_5 3.520908 1_465
Y1_4 Y2_0 3.463846 1_555
Y1_4 Y2_6 3.463846 1_545
Y1_4 Y3_5 3.471644 1_554
Y1_5 Y2_1 3.463846 1_555
Y1_5 Y2_7 3.463846 1_545
Y1_5 Y3_4 3.471644 1_555
Y1_6 Y2_4 3.463846 1_555
Y1_6 Y2_2 3.463846 1_555
Y1_6 Y3_7 3.471644 1_554
Y1_7 Y2_5 3.463846 1_555
Y1_7 Y2_3 3.463846 1_555
Y1_7 Y3_6 3.471644 1_555
Y2_0 Y2_6 3.520908 1_545
Y2_0 Y2_6 3.520908 1_455
Y2_0 Y3_2 3.560102 1_555
Y2_0 Y3_4 3.560102 1_555
Y2_1 Y2_7 3.520908 1_545
Y2_1 Y2_7 3.520908 1_455
Y2_1 Y3_3 3.560102 1_555
Y2_1 Y3_5 3.560102 1_555
Y2_2 Y2_4 3.520908 1_555
Y2_2 Y2_4 3.520908 1_465
Y2_2 Y3_6 3.560102 1_555
Y2_2 Y3_0 3.560102 1_565
Y2_3 Y2_5 3.520908 1_555
Y2_3 Y2_5 3.520908 1_465
Y2_3 Y3_7 3.560102 1_555
Y2_3 Y3_1 3.560102 1_565
Y2_4 Y3_6 3.560102 1_555
Y2_4 Y3_0 3.560102 1_655
Y2_5 Y3_7 3.560102 1_555
Y2_5 Y3_1 3.560102 1_655
Y2_6 Y3_2 3.560102 1_655
Y2_6 Y3_4 3.560102 1_565
Y2_7 Y3_3 3.560102 1_655
Y2_7 Y3_5 3.560102 1_565
Y3_0 Y3_6 3.520908 1_455
Y3_0 Y3_6 3.520908 1_545
Y3_1 Y3_7 3.520908 1_455
Y3_1 Y3_7 3.520908 1_545
Y3_2 Y3_4 3.520908 1_555
Y3_2 Y3_4 3.520908 1_465
Y3_3 Y3_5 3.520908 1_555
Y3_3 Y3_5 3.520908 1_465
Mg0_0 Y0_4 3.342402 1_555
Mg0_0 Y0_2 3.342402 1_555
Mg0_0 Y1_4 3.355713 1_555
Mg0_0 Y1_2 3.355713 1_555
Mg0_0 Mg1_4 3.361264 1_455
Mg0_0 Mg1_2 3.361264 1_545
Mg0_0 Y2_0 3.401731 1_555
Mg0_0 Mg0_6 3.520908 1_455
Mg0_0 Mg0_6 3.520908 1_545
Mg0_0 Y1_0 3.537260 1_555
Mg0_0 Y3_3 3.653438 1_554
Mg0_0 Y3_5 3.653438 1_554
Mg0_1 Y0_5 3.342402 1_555
Mg0_1 Y0_3 3.342402 1_555
Mg0_1 Y1_3 3.355713 1_555
Mg0_1 Y1_5 3.355713 1_555
Mg0_1 Mg1_5 3.361264 1_455
Mg0_1 Mg1_3 3.361264 1_545
Mg0_1 Y2_1 3.401731 1_555
Mg0_1 Mg0_7 3.520908 1_545
Mg0_1 Mg0_7 3.520908 1_455
Mg0_1 Y1_1 3.537260 1_555
Mg0_1 Y3_2 3.653438 1_555
Mg0_1 Y3_4 3.653438 1_555
Mg0_2 Y0_6 3.342402 1_555
Mg0_2 Y0_0 3.342402 1_565
Mg0_2 Y1_6 3.355713 1_555
Mg0_2 Y1_0 3.355713 1_565
Mg0_2 Mg1_0 3.361264 1_555
Mg0_2 Mg1_6 3.361264 1_455
Mg0_2 Y2_2 3.401731 1_555
Mg0_2 Mg0_4 3.520908 1_555
Mg0_2 Mg0_4 3.520908 1_465
Mg0_2 Y1_2 3.537260 1_555
Mg0_2 Y3_1 3.653438 1_564
Mg0_2 Y3_7 3.653438 1_554
Mg0_3 Y0_1 3.342402 1_565
Mg0_3 Y0_7 3.342402 1_555
Mg0_3 Y1_7 3.355713 1_555
Mg0_3 Y1_1 3.355713 1_565
Mg0_3 Mg1_1 3.361264 1_555
Mg0_3 Mg1_7 3.361264 1_455
Mg0_3 Y2_3 3.401731 1_555
Mg0_3 Mg0_5 3.520908 1_555
Mg0_3 Mg0_5 3.520908 1_465
Mg0_3 Y1_3 3.537260 1_555
Mg0_3 Y3_0 3.653438 1_565
Mg0_3 Y3_6 3.653438 1_555
Mg0_4 Y0_6 3.342402 1_555
Mg0_4 Y0_0 3.342402 1_655
Mg0_4 Y1_6 3.355713 1_555
Mg0_4 Y1_0 3.355713 1_655
Mg0_4 Mg1_0 3.361264 1_555
Mg0_4 Mg1_6 3.361264 1_545
Mg0_4 Y2_4 3.401731 1_555
Mg0_4 Y1_4 3.537260 1_555
Mg0_4 Y3_7 3.653438 1_554
Mg0_4 Y3_1 3.653438 1_654
Mg0_5 Y0_1 3.342402 1_655
Mg0_5 Y0_7 3.342402 1_555
Mg0_5 Y1_7 3.355713 1_555
Mg0_5 Y1_1 3.355713 1_655
Mg0_5 Mg1_1 3.361264 1_555
Mg0_5 Mg1_7 3.361264 1_545
Mg0_5 Y2_5 3.401731 1_555
Mg0_5 Y1_5 3.537260 1_555
Mg0_5 Y3_6 3.653438 1_555
Mg0_5 Y3_0 3.653438 1_655
Mg0_6 Y0_4 3.342402 1_565
Mg0_6 Y0_2 3.342402 1_655
Mg0_6 Y1_2 3.355713 1_655
Mg0_6 Y1_4 3.355713 1_565
Mg0_6 Mg1_2 3.361264 1_555
Mg0_6 Mg1_4 3.361264 1_555
Mg0_6 Y2_6 3.401731 1_555
Mg0_6 Y1_6 3.537260 1_555
Mg0_6 Y3_3 3.653438 1_654
Mg0_6 Y3_5 3.653438 1_564
Mg0_7 Y0_5 3.342402 1_565
Mg0_7 Y0_3 3.342402 1_655
Mg0_7 Y1_5 3.355713 1_565
Mg0_7 Y1_3 3.355713 1_655
Mg0_7 Mg1_5 3.361264 1_555
Mg0_7 Mg1_3 3.361264 1_555
Mg0_7 Y2_7 3.401731 1_555
Mg0_7 Y1_7 3.537260 1_555
Mg0_7 Y3_2 3.653438 1_655
Mg0_7 Y3_4 3.653438 1_565
Mg1_0 Y3_4 3.387014 1_555
Mg1_0 Y3_2 3.387014 1_555
Mg1_0 Y2_2 3.440152 1_555
Mg1_0 Y2_4 3.440152 1_555
Mg1_0 Y1_4 3.463340 1_555
Mg1_0 Y1_2 3.463340 1_555
Mg1_0 Y2_0 3.489905 1_555
Mg1_0 Mg1_6 3.520908 1_455
Mg1_0 Mg1_6 3.520908 1_545
Mg1_0 Y0_7 3.787851 1_555
Mg1_1 Y3_5 3.387014 1_555
Mg1_1 Y3_3 3.387014 1_555
Mg1_1 Y2_3 3.440152 1_555
Mg1_1 Y2_5 3.440152 1_555
Mg1_1 Y1_5 3.463340 1_555
Mg1_1 Y1_3 3.463340 1_555
Mg1_1 Y2_1 3.489905 1_555
Mg1_1 Mg1_7 3.520908 1_455
Mg1_1 Mg1_7 3.520908 1_545
Mg1_1 Y0_6 3.787851 1_556
Mg1_2 Y3_0 3.387014 1_565
Mg1_2 Y3_6 3.387014 1_555
Mg1_2 Y2_6 3.440152 1_555
Mg1_2 Y2_0 3.440152 1_565
Mg1_2 Y1_0 3.463340 1_565
Mg1_2 Y1_6 3.463340 1_555
Mg1_2 Y2_2 3.489905 1_555
Mg1_2 Mg1_4 3.520908 1_555
Mg1_2 Mg1_4 3.520908 1_465
Mg1_2 Y0_5 3.787851 1_565
Mg1_3 Y3_7 3.387014 1_555
Mg1_3 Y3_1 3.387014 1_565
Mg1_3 Y2_7 3.440152 1_555
Mg1_3 Y2_1 3.440152 1_565
Mg1_3 Y1_1 3.463340 1_565
Mg1_3 Y1_7 3.463340 1_555
Mg1_3 Y2_3 3.489905 1_555
Mg1_3 Mg1_5 3.520908 1_555
Mg1_3 Mg1_5 3.520908 1_465
Mg1_3 Y0_4 3.787851 1_566
Mg1_4 Y3_0 3.387014 1_655
Mg1_4 Y3_6 3.387014 1_555
Mg1_4 Y2_6 3.440152 1_555
Mg1_4 Y2_0 3.440152 1_655
Mg1_4 Y1_0 3.463340 1_655
Mg1_4 Y1_6 3.463340 1_555
Mg1_4 Y2_4 3.489905 1_555
Mg1_4 Y0_3 3.787851 1_655
Mg1_5 Y3_7 3.387014 1_555
Mg1_5 Y3_1 3.387014 1_655
Mg1_5 Y2_7 3.440152 1_555
Mg1_5 Y2_1 3.440152 1_655
Mg1_5 Y1_7 3.463340 1_555
Mg1_5 Y1_1 3.463340 1_655
Mg1_5 Y2_5 3.489905 1_555
Mg1_5 Y0_2 3.787851 1_656
Mg1_6 Y3_4 3.387014 1_565
Mg1_6 Y3_2 3.387014 1_655
Mg1_6 Y2_2 3.440152 1_655
Mg1_6 Y2_4 3.440152 1_565
Mg1_6 Y1_4 3.463340 1_565
Mg1_6 Y1_2 3.463340 1_655
Mg1_6 Y2_6 3.489905 1_555
Mg1_6 Y0_1 3.787851 1_665
Mg1_7 Y3_5 3.387014 1_565
Mg1_7 Y3_3 3.387014 1_655
Mg1_7 Y2_3 3.440152 1_655
Mg1_7 Y2_5 3.440152 1_565
Mg1_7 Y1_5 3.463340 1_565
Mg1_7 Y1_3 3.463340 1_655
Mg1_7 Y2_7 3.489905 1_555
Mg1_7 Y0_0 3.787851 1_666
