# generated using pymatgen
data_NaCaSb2O7
_symmetry_space_group_name_H-M   'P 1'
_cell_length_a   7.39069028
_cell_length_b   7.39069028
_cell_length_c   7.39069028
_cell_angle_alpha   119.81259006
_cell_angle_beta   119.67050183
_cell_angle_gamma   90.44828524
_symmetry_Int_Tables_number   1
_chemical_formula_structural   NaCaSb2O7
_chemical_formula_sum   'Na2 Ca2 Sb4 O14'
_cell_volume   286.56165009
_cell_formula_units_Z   2
loop_
 _symmetry_equiv_pos_site_id
 _symmetry_equiv_pos_as_xyz
  1  'x, y, z'
loop_
 _atom_site_type_symbol
 _atom_site_label
 _atom_site_symmetry_multiplicity
 _atom_site_fract_x
 _atom_site_fract_y
 _atom_site_fract_z
 _atom_site_occupancy
  Na  Na0  1  0.50000000  0.00000000  0.00000000  1
  Na  Na1  1  0.50000000  0.50000000  0.50000000  1
  Ca  Ca0  1  0.00000000  0.00000000  0.00000000  1
  Ca  Ca1  1  0.50000000  0.00000000  0.50000000  1
  Sb  Sb0  1  0.00000000  0.50000000  0.50000000  1
  Sb  Sb1  1  0.50000000  0.50000000  0.00000000  1
  Sb  Sb2  1  0.00000000  0.00000000  0.50000000  1
  Sb  Sb3  1  0.00000000  0.50000000  0.00000000  1
  O  O0  1  0.36816300  0.11816300  0.25000000  1
  O  O1  1  0.63183700  0.88183700  0.75000000  1
  O  O2  1  0.67645300  0.82524100  0.25518000  1
  O  O3  1  0.07006100  0.82524100  0.64878800  1
  O  O4  1  0.67657400  0.42657400  0.25000000  1
  O  O5  1  0.07006100  0.42127300  0.24482000  1
  O  O6  1  0.67645300  0.42127300  0.85121200  1
  O  O7  1  0.07786800  0.82786800  0.25000000  1
  O  O8  1  0.32354700  0.17475900  0.74482000  1
  O  O9  1  0.92993900  0.17475900  0.35121200  1
  O  O10  1  0.32342600  0.57342600  0.75000000  1
  O  O11  1  0.92993900  0.57872700  0.75518000  1
  O  O12  1  0.32354700  0.57872700  0.14878800  1
  O  O13  1  0.92213200  0.17213200  0.75000000  1
loop_
_geom_bond_atom_site_label_1
_geom_bond_atom_site_label_2
_geom_bond_distance
_geom_bond_site_symmetry_2
Na0 O1 2.305901 1_544
Na0 O0 2.305901 1_555
Na0 O4 2.610110 1_555
Na0 O10 2.610110 1_544
Na0 O9 2.634238 1_555
Na0 O2 2.634238 1_545
Na0 O3 2.634238 1_544
Na0 O8 2.634238 1_554
Na1 O1 2.305901 1_555
Na1 O0 2.305901 1_555
Na1 O4 2.610110 1_555
Na1 O10 2.610110 1_555
Na1 O11 2.634238 1_555
Na1 O12 2.634238 1_555
Na1 O6 2.634238 1_555
Na1 O5 2.634238 1_555
Ca0 O0 2.227408 1_555
Ca0 O1 2.227408 1_444
Ca0 O13 2.580598 1_454
Ca0 O7 2.580598 1_545
Ca0 O3 2.584862 1_544
Ca0 O5 2.584862 1_555
Ca0 O9 2.584862 1_455
Ca0 O11 2.584862 1_444
Ca1 O1 2.227408 1_545
Ca1 O0 2.227408 1_555
Ca1 O7 2.580598 1_545
Ca1 O13 2.580598 1_555
Ca1 O2 2.584862 1_545
Ca1 O6 2.584862 1_555
Ca1 O12 2.584862 1_545
Ca1 O8 2.584862 1_555
O2 Sb2 2.001132 1_665
O2 Sb1 2.010944 1_555
O3 Sb2 2.001132 1_565
O3 Sb0 2.010944 1_555
O4 Sb1 2.008065 1_555
O4 Sb0 2.008065 1_655
O5 Sb3 2.001132 1_555
O5 Sb0 2.010944 1_555
O6 Sb3 2.001132 1_656
O6 Sb1 2.010944 1_556
O7 Sb2 2.022490 1_565
O7 Sb3 2.022490 1_555
O8 Sb2 2.001132 1_555
O8 Sb1 2.010944 1_556
O9 Sb2 2.001132 1_655
O9 Sb0 2.010944 1_655
O10 Sb0 2.008065 1_555
O10 Sb1 2.008065 1_556
O11 Sb3 2.001132 1_656
O11 Sb0 2.010944 1_655
O12 Sb3 2.001132 1_555
O12 Sb1 2.010944 1_555
O13 Sb3 2.022490 1_656
O13 Sb2 2.022490 1_655
