# generated using pymatgen
data_BaTbAgTe3
_symmetry_space_group_name_H-M   'P 1'
_cell_length_a   7.91766634
_cell_length_b   7.91766634
_cell_length_c   11.56613300
_cell_angle_alpha   90.00000000
_cell_angle_beta   90.00000000
_cell_angle_gamma   146.56406193
_symmetry_Int_Tables_number   1
_chemical_formula_structural   BaTbAgTe3
_chemical_formula_sum   'Ba2 Tb2 Ag2 Te6'
_cell_volume   399.51909955
_cell_formula_units_Z   2
loop_
 _symmetry_equiv_pos_site_id
 _symmetry_equiv_pos_as_xyz
  1  'x, y, z'
loop_
 _atom_site_type_symbol
 _atom_site_label
 _atom_site_symmetry_multiplicity
 _atom_site_fract_x
 _atom_site_fract_y
 _atom_site_fract_z
 _atom_site_occupancy
  Ba  Ba0  1  0.24514400  0.75485600  0.25000000  1
  Ba  Ba1  1  0.75485600  0.24514400  0.75000000  1
  Tb  Tb0  1  0.00000000  0.00000000  0.50000000  1
  Tb  Tb1  1  0.00000000  0.00000000  0.00000000  1
  Ag  Ag0  1  0.53131400  0.46868600  0.25000000  1
  Ag  Ag1  1  0.46868600  0.53131400  0.75000000  1
  Te  Te0  1  0.63874600  0.36125400  0.44838100  1
  Te  Te1  1  0.36125400  0.63874600  0.55161900  1
  Te  Te2  1  0.63874600  0.36125400  0.05161900  1
  Te  Te3  1  0.36125400  0.63874600  0.94838100  1
  Te  Te4  1  0.92043500  0.07956500  0.25000000  1
  Te  Te5  1  0.07956500  0.92043500  0.75000000  1
loop_
_geom_bond_atom_site_label_1
_geom_bond_atom_site_label_2
_geom_bond_distance
_geom_bond_site_symmetry_2
Ba0 Te4 3.500702 1_455
Ba0 Te4 3.500702 1_565
Ba0 Te0 3.613312 1_565
Ba0 Te2 3.613312 1_565
Ba0 Te2 3.613312 1_455
Ba0 Te0 3.613312 1_455
Ba0 Te3 3.907806 1_554
Ba0 Te1 3.907806 1_555
Ba1 Te5 3.500702 1_655
Ba1 Te5 3.500702 1_545
Ba1 Te1 3.613312 1_545
Ba1 Te3 3.613312 1_655
Ba1 Te1 3.613312 1_655
Ba1 Te3 3.613312 1_545
Ba1 Te0 3.907806 1_555
Ba1 Te2 3.907806 1_556
Tb0 Te4 3.133217 1_455
Tb0 Te5 3.133217 1_545
Tb0 Te0 3.157796 1_555
Tb0 Te1 3.157796 1_445
Tb0 Te1 3.157796 1_555
Tb0 Te0 3.157796 1_445
Tb1 Te4 3.133217 1_455
Tb1 Te5 3.133217 1_544
Tb1 Te2 3.157796 1_555
Tb1 Te3 3.157796 1_554
Tb1 Te3 3.157796 1_444
Tb1 Te2 3.157796 1_445
Ag0 Te0 2.814143 1_555
Ag0 Te2 2.814143 1_555
Ag0 Te4 2.831118 1_455
Ag0 Te4 2.831118 1_565
Ag0 Ba0 3.962851 1_545
Ag0 Ba0 3.962851 1_655
Ag1 Te3 2.814143 1_555
Ag1 Te1 2.814143 1_555
Ag1 Te5 2.831118 1_545
Ag1 Te5 2.831118 1_655
Ag1 Ba1 3.962851 1_455
Ag1 Ba1 3.962851 1_565
