# generated using pymatgen
data_Lu6Cu23
_symmetry_space_group_name_H-M   'P 1'
_cell_length_a   8.43898426
_cell_length_b   8.43898426
_cell_length_c   8.43898426
_cell_angle_alpha   60.00000000
_cell_angle_beta   60.00000000
_cell_angle_gamma   60.00000000
_symmetry_Int_Tables_number   1
_chemical_formula_structural   Lu6Cu23
_chemical_formula_sum   'Lu6 Cu23'
_cell_volume   424.96731943
_cell_formula_units_Z   1
loop_
 _symmetry_equiv_pos_site_id
 _symmetry_equiv_pos_as_xyz
  1  'x, y, z'
loop_
 _atom_site_type_symbol
 _atom_site_label
 _atom_site_symmetry_multiplicity
 _atom_site_fract_x
 _atom_site_fract_y
 _atom_site_fract_z
 _atom_site_occupancy
  Lu  Lu0  1  0.71190900  0.71190900  0.28809100  1
  Lu  Lu1  1  0.28809100  0.71190900  0.28809100  1
  Lu  Lu2  1  0.71190900  0.28809100  0.28809100  1
  Lu  Lu3  1  0.28809100  0.28809100  0.71190900  1
  Lu  Lu4  1  0.71190900  0.28809100  0.71190900  1
  Lu  Lu5  1  0.28809100  0.71190900  0.71190900  1
  Cu  Cu0  1  0.00000000  0.00000000  0.00000000  1
  Cu  Cu1  1  0.00000000  0.00000000  0.50000000  1
  Cu  Cu2  1  0.50000000  0.00000000  0.50000000  1
  Cu  Cu3  1  0.00000000  0.50000000  0.50000000  1
  Cu  Cu4  1  0.50000000  0.50000000  0.00000000  1
  Cu  Cu5  1  0.00000000  0.50000000  0.00000000  1
  Cu  Cu6  1  0.50000000  0.00000000  0.00000000  1
  Cu  Cu7  1  0.87869400  0.87869400  0.36391800  1
  Cu  Cu8  1  0.87869400  0.36391800  0.87869400  1
  Cu  Cu9  1  0.36391800  0.87869400  0.87869400  1
  Cu  Cu10  1  0.87869400  0.87869400  0.87869400  1
  Cu  Cu11  1  0.12130600  0.12130600  0.63608200  1
  Cu  Cu12  1  0.12130600  0.63608200  0.12130600  1
  Cu  Cu13  1  0.63608200  0.12130600  0.12130600  1
  Cu  Cu14  1  0.12130600  0.12130600  0.12130600  1
  Cu  Cu15  1  0.67211200  0.67211200  0.98366400  1
  Cu  Cu16  1  0.67211200  0.98366400  0.67211200  1
  Cu  Cu17  1  0.98366400  0.67211200  0.67211200  1
  Cu  Cu18  1  0.67211200  0.67211200  0.67211200  1
  Cu  Cu19  1  0.32788800  0.32788800  0.01633600  1
  Cu  Cu20  1  0.32788800  0.01633600  0.32788800  1
  Cu  Cu21  1  0.01633600  0.32788800  0.32788800  1
  Cu  Cu22  1  0.32788800  0.32788800  0.32788800  1
loop_
_geom_bond_atom_site_label_1
_geom_bond_atom_site_label_2
_geom_bond_distance
_geom_bond_site_symmetry_2
Cu0 Cu9 2.507541 1_544
Cu0 Cu12 2.507541 1_545
Cu0 Cu7 2.507541 1_445
Cu0 Cu13 2.507541 1_455
Cu0 Cu8 2.507541 1_454
Cu0 Cu14 2.507541 1_555
Cu0 Cu11 2.507541 1_554
Cu0 Cu10 2.507541 1_444
Cu1 Cu17 2.438724 1_445
Cu1 Cu16 2.438724 1_445
Cu1 Cu20 2.438724 1_555
Cu1 Cu21 2.438724 1_555
Cu1 Cu14 2.610347 1_555
Cu1 Cu11 2.610347 1_555
Cu1 Cu7 2.610347 1_445
Cu1 Cu10 2.610347 1_445
Cu1 Lu5 3.018065 1_545
Cu1 Lu4 3.018065 1_455
Cu1 Lu2 3.018065 1_455
Cu1 Lu1 3.018065 1_545
Cu2 Cu20 2.438724 1_555
Cu2 Cu22 2.438724 1_555
Cu2 Cu9 2.610347 1_545
Cu2 Cu7 2.610347 1_545
Cu2 Lu2 3.018065 1_555
Cu2 Lu5 3.018065 1_545
Cu2 Lu3 3.018065 1_555
Cu2 Lu0 3.018065 1_545
Cu3 Cu8 2.610347 1_455
Cu3 Cu7 2.610347 1_455
Cu3 Lu4 3.018065 1_455
Cu3 Lu3 3.018065 1_555
Cu3 Lu1 3.018065 1_555
Cu3 Lu0 3.018065 1_455
Cu4 Cu8 2.610347 1_554
Cu4 Cu9 2.610347 1_554
Cu4 Lu2 3.018065 1_555
Cu4 Lu5 3.018065 1_554
Cu4 Lu1 3.018065 1_555
Cu4 Lu4 3.018065 1_554
Cu5 Cu8 2.610347 1_454
Cu5 Lu5 3.018065 1_554
Cu5 Lu2 3.018065 1_455
Cu5 Lu0 3.018065 1_455
Cu5 Lu3 3.018065 1_554
Cu6 Cu9 2.610347 1_544
Cu6 Lu0 3.018065 1_545
Cu6 Lu3 3.018065 1_554
Cu6 Lu1 3.018065 1_545
Cu6 Lu4 3.018065 1_554
Cu7 Lu0 2.855509 1_555
Cu7 Lu2 2.855509 1_565
Cu7 Lu1 2.855509 1_655
Cu8 Lu4 2.855509 1_555
Cu8 Lu2 2.855509 1_556
Cu8 Lu3 2.855509 1_655
Cu9 Lu5 2.855509 1_555
Cu9 Lu3 2.855509 1_565
Cu9 Lu1 2.855509 1_556
Cu10 Cu16 2.610325 1_555
Cu10 Cu17 2.610325 1_555
Cu10 Cu15 2.610325 1_555
Cu10 Cu6 2.610347 1_566
Cu10 Cu5 2.610347 1_656
Cu10 Lu4 2.855509 1_565
Cu10 Lu0 2.855509 1_556
Cu10 Lu5 2.855509 1_655
Cu10 Cu11 2.895459 1_665
Cu10 Cu12 2.895459 1_656
Cu10 Cu13 2.895459 1_566
Cu11 Cu21 2.610325 1_555
Cu11 Cu20 2.610325 1_555
Cu11 Cu22 2.610325 1_555
Cu11 Cu2 2.610347 1_555
Cu11 Cu3 2.610347 1_555
Cu11 Lu5 2.855509 1_545
Cu11 Lu4 2.855509 1_455
Cu11 Lu3 2.855509 1_555
Cu11 Cu8 2.895459 1_455
Cu11 Cu9 2.895459 1_545
Cu12 Cu21 2.610325 1_555
Cu12 Cu19 2.610325 1_555
Cu12 Cu22 2.610325 1_555
Cu12 Cu3 2.610347 1_555
Cu12 Cu5 2.610347 1_555
Cu12 Cu4 2.610347 1_555
Cu12 Lu1 2.855509 1_555
Cu12 Lu0 2.855509 1_455
Cu12 Lu5 2.855509 1_554
Cu12 Cu9 2.895459 1_554
Cu12 Cu7 2.895459 1_455
Cu13 Cu19 2.610325 1_555
Cu13 Cu20 2.610325 1_555
Cu13 Cu22 2.610325 1_555
Cu13 Cu2 2.610347 1_555
Cu13 Cu4 2.610347 1_555
Cu13 Cu6 2.610347 1_555
Cu13 Lu2 2.855509 1_555
Cu13 Lu4 2.855509 1_554
Cu13 Lu0 2.855509 1_545
Cu13 Cu7 2.895459 1_545
Cu13 Cu8 2.895459 1_554
Cu14 Cu20 2.610325 1_555
Cu14 Cu21 2.610325 1_555
Cu14 Cu19 2.610325 1_555
Cu14 Cu6 2.610347 1_555
Cu14 Cu5 2.610347 1_555
Cu14 Lu3 2.855509 1_554
Cu14 Lu2 2.855509 1_455
Cu14 Lu1 2.855509 1_545
Cu14 Cu9 2.895459 1_544
Cu14 Cu7 2.895459 1_445
Cu14 Cu8 2.895459 1_454
Cu15 Cu5 2.438724 1_656
Cu15 Cu6 2.438724 1_566
Cu15 Cu4 2.438724 1_556
Cu15 Cu9 2.610325 1_555
Cu15 Cu8 2.610325 1_555
Cu15 Cu18 2.629182 1_555
Cu15 Cu16 2.629182 1_555
Cu15 Cu17 2.629182 1_555
Cu15 Lu1 2.943473 1_556
Cu15 Lu2 2.943473 1_556
Cu15 Lu0 2.943473 1_556
Cu16 Cu6 2.438724 1_566
Cu16 Cu2 2.438724 1_565
Cu16 Cu9 2.610325 1_555
Cu16 Cu7 2.610325 1_555
Cu16 Cu18 2.629182 1_555
Cu16 Cu17 2.629182 1_555
Cu16 Lu3 2.943473 1_565
Cu16 Lu4 2.943473 1_565
Cu16 Lu2 2.943473 1_565
Cu17 Cu5 2.438724 1_656
Cu17 Cu3 2.438724 1_655
Cu17 Cu7 2.610325 1_555
Cu17 Cu8 2.610325 1_555
Cu17 Cu18 2.629182 1_555
Cu17 Lu3 2.943473 1_655
Cu17 Lu1 2.943473 1_655
Cu17 Lu5 2.943473 1_655
Cu18 Cu4 2.438724 1_556
Cu18 Cu2 2.438724 1_565
Cu18 Cu3 2.438724 1_655
Cu18 Cu8 2.610325 1_555
Cu18 Cu9 2.610325 1_555
Cu18 Cu7 2.610325 1_555
Cu18 Lu5 2.943473 1_555
Cu18 Lu4 2.943473 1_555
Cu18 Lu0 2.943473 1_555
Cu19 Cu6 2.438724 1_555
Cu19 Cu4 2.438724 1_555
Cu19 Cu5 2.438724 1_555
Cu19 Cu21 2.629182 1_555
Cu19 Cu20 2.629182 1_555
Cu19 Cu22 2.629182 1_555
Cu19 Lu3 2.943473 1_554
Cu19 Lu4 2.943473 1_554
Cu19 Lu5 2.943473 1_554
Cu20 Cu6 2.438724 1_555
Cu20 Cu21 2.629182 1_555
Cu20 Cu22 2.629182 1_555
Cu20 Lu0 2.943473 1_545
Cu20 Lu1 2.943473 1_545
Cu20 Lu5 2.943473 1_545
Cu21 Cu3 2.438724 1_555
Cu21 Cu5 2.438724 1_555
Cu21 Cu22 2.629182 1_555
Cu21 Lu2 2.943473 1_455
Cu21 Lu0 2.943473 1_455
Cu21 Lu4 2.943473 1_455
Cu22 Cu3 2.438724 1_555
Cu22 Cu4 2.438724 1_555
Cu22 Lu2 2.943473 1_555
Cu22 Lu3 2.943473 1_555
Cu22 Lu1 2.943473 1_555
