# generated using pymatgen
data_KBaB(PO4)2
_symmetry_space_group_name_H-M   'P 1'
_cell_length_a   7.28098074
_cell_length_b   7.28098074
_cell_length_c   8.88139275
_cell_angle_alpha   66.18220409
_cell_angle_beta   66.18220409
_cell_angle_gamma   89.95749917
_symmetry_Int_Tables_number   1
_chemical_formula_structural   KBaB(PO4)2
_chemical_formula_sum   'K2 Ba2 B2 P4 O16'
_cell_volume   386.56109726
_cell_formula_units_Z   2
loop_
 _symmetry_equiv_pos_site_id
 _symmetry_equiv_pos_as_xyz
  1  'x, y, z'
loop_
 _atom_site_type_symbol
 _atom_site_label
 _atom_site_symmetry_multiplicity
 _atom_site_fract_x
 _atom_site_fract_y
 _atom_site_fract_z
 _atom_site_occupancy
  K  K0  1  0.23594300  0.37428300  0.24985800  1
  K  K1  1  0.37428300  0.23594300  0.74985800  1
  Ba  Ba0  1  0.50671900  0.87397700  0.25053600  1
  Ba  Ba1  1  0.87397700  0.50671900  0.75053600  1
  B  B0  1  0.74762700  0.00282300  0.50002900  1
  B  B1  1  0.00282300  0.74762700  0.00002900  1
  P  P0  1  0.72679300  0.37615500  0.24865200  1
  P  P1  1  0.02650900  0.87495300  0.25124900  1
  P  P2  1  0.37615500  0.72679300  0.74865200  1
  P  P3  1  0.87495300  0.02650900  0.75124900  1
  O  O0  1  0.56845100  0.48454000  0.33454000  1
  O  O1  1  0.65934100  0.27068800  0.15559000  1
  O  O2  1  0.09307700  0.68041400  0.34917800  1
  O  O3  1  0.18910200  0.06461000  0.16069300  1
  O  O4  1  0.27068800  0.65934100  0.65559000  1
  O  O5  1  0.68041400  0.09307700  0.84917800  1
  O  O6  1  0.06461000  0.18910200  0.66069300  1
  O  O7  1  0.48454000  0.56845100  0.83454000  1
  O  O8  1  0.79669900  0.22474600  0.39328300  1
  O  O9  1  0.94226100  0.52426000  0.10516000  1
  O  O10  1  0.80856500  0.88675500  0.39009800  1
  O  O11  1  0.94957900  0.86112800  0.11113200  1
  O  O12  1  0.52426000  0.94226100  0.60516000  1
  O  O13  1  0.88675500  0.80856500  0.89009800  1
  O  O14  1  0.86112800  0.94957900  0.61113200  1
  O  O15  1  0.22474600  0.79669900  0.89328300  1
loop_
_geom_bond_atom_site_label_1
_geom_bond_atom_site_label_2
_geom_bond_distance
_geom_bond_site_symmetry_2
K0 O3 2.736529 1_555
K0 O2 2.769788 1_555
K0 O9 2.915269 1_455
K0 O8 2.937826 1_455
K0 O0 3.005391 1_555
K0 O6 3.006753 1_555
K0 O1 3.032373 1_555
K0 O7 3.046377 1_554
K1 O6 2.736529 1_555
K1 O5 2.769788 1_555
K1 O12 2.915269 1_545
K1 O15 2.937826 1_545
K1 O7 3.005391 1_555
K1 O3 3.006753 1_556
K1 O4 3.032373 1_555
K1 O0 3.046377 1_555
Ba0 O0 2.712743 1_555
Ba0 O1 2.751323 1_565
Ba0 O3 2.915863 1_565
Ba0 O5 2.935986 1_564
Ba0 O10 2.944258 1_555
Ba0 O2 2.949959 1_555
Ba0 O4 2.967716 1_555
Ba0 O11 2.967747 1_555
Ba1 O7 2.712743 1_555
Ba1 O4 2.751323 1_655
Ba1 O6 2.915863 1_655
Ba1 O2 2.935986 1_655
Ba1 O13 2.944258 1_555
Ba1 O5 2.949959 1_555
Ba1 O1 2.967716 1_556
Ba1 O14 2.967747 1_555
B0 O8 1.458550 1_555
B0 O12 1.467410 1_545
B0 O14 1.468356 1_545
B0 O10 1.476565 1_545
B1 O15 1.458550 1_554
B1 O9 1.467410 1_455
B1 O11 1.468356 1_455
B1 O13 1.476565 1_454
O0 P0 1.519319 1_555
O1 P0 1.534608 1_555
O2 P1 1.530400 1_555
O3 P1 1.513809 1_545
O4 P2 1.534608 1_555
O5 P3 1.530400 1_555
O6 P3 1.513809 1_455
O7 P2 1.519319 1_555
O8 P0 1.583630 1_555
O9 P0 1.589327 1_555
O10 P1 1.597213 1_655
O11 P1 1.592707 1_655
O12 P2 1.589327 1_555
O13 P3 1.597213 1_565
O14 P3 1.592707 1_565
O15 P2 1.583630 1_555
