# generated using pymatgen
data_V3(H3O5)2
_symmetry_space_group_name_H-M   'P 1'
_cell_length_a   6.10990900
_cell_length_b   8.90692701
_cell_length_c   9.07209393
_cell_angle_alpha   88.65203732
_cell_angle_beta   86.15278078
_cell_angle_gamma   81.79564230
_symmetry_Int_Tables_number   1
_chemical_formula_structural   V3(H3O5)2
_chemical_formula_sum   'V6 H12 O20'
_cell_volume   487.50527528
_cell_formula_units_Z   2
loop_
 _symmetry_equiv_pos_site_id
 _symmetry_equiv_pos_as_xyz
  1  'x, y, z'
loop_
 _atom_site_type_symbol
 _atom_site_label
 _atom_site_symmetry_multiplicity
 _atom_site_fract_x
 _atom_site_fract_y
 _atom_site_fract_z
 _atom_site_occupancy
  V  V0  1  0.73416800  0.49543600  0.49740500  1
  V  V1  1  0.72907000  0.99288100  0.00314000  1
  V  V2  1  0.74985000  0.36472900  0.87579000  1
  V  V3  1  0.76015400  0.63042400  0.13574800  1
  V  V4  1  0.68400700  0.13021600  0.37100500  1
  V  V5  1  0.70993800  0.85568900  0.64572400  1
  H  H0  1  0.34581900  0.65481500  0.44724100  1
  H  H1  1  0.34067100  0.12790600  0.06275800  1
  H  H2  1  0.29101000  0.32870900  0.08349100  1
  H  H3  1  0.28801100  0.22402200  0.23413300  1
  H  H4  1  0.12087900  0.72280700  0.89412300  1
  H  H5  1  0.30838700  0.58642500  0.84563900  1
  H  H6  1  0.33738700  0.78847000  0.73224100  1
  H  H7  1  0.19886800  0.09628100  0.69803100  1
  H  H8  1  0.26990300  0.18196300  0.55127000  1
  H  H9  1  0.99973700  0.29746500  0.66187000  1
  H  H10  1  0.28540900  0.84937400  0.41220400  1
  H  H11  1  0.33205100  0.73156500  0.27243700  1
  O  O0  1  0.45724000  0.54061200  0.50858800  1
  O  O1  1  0.44839200  0.02028400  0.00442800  1
  O  O2  1  0.85458900  0.38239600  0.68080400  1
  O  O3  1  0.84165200  0.57394900  0.31248400  1
  O  O4  1  0.77178700  0.07032800  0.19483100  1
  O  O5  1  0.81355600  0.90362300  0.80682100  1
  O  O6  1  0.78462300  0.29578100  0.41075500  1
  O  O7  1  0.81354900  0.67429900  0.59687900  1
  O  O8  1  0.86405800  0.79659500  0.07546000  1
  O  O9  1  0.82803500  0.17718600  0.92292300  1
  O  O10  1  0.47782300  0.40929900  0.89127300  1
  O  O11  1  0.48451400  0.66305100  0.14192800  1
  O  O12  1  0.40334200  0.15613800  0.38534800  1
  O  O13  1  0.41935500  0.86908700  0.66717200  1
  O  O14  1  0.86219400  0.48547900  0.99832200  1
  O  O15  1  0.78321800  0.98362600  0.50258600  1
  O  O16  1  0.24033200  0.23755600  0.12913500  1
  O  O17  1  0.22247500  0.68239800  0.81213500  1
  O  O18  1  0.19746800  0.19721300  0.65329400  1
  O  O19  1  0.25697000  0.75134900  0.37709900  1
loop_
_geom_bond_atom_site_label_1
_geom_bond_atom_site_label_2
_geom_bond_distance
_geom_bond_site_symmetry_2
H0 O19 1.151654 1_555
H0 O0 1.278458 1_555
H1 O1 1.195470 1_555
H1 O16 1.224558 1_555
H2 O16 0.982466 1_555
H3 O16 1.014181 1_555
H3 O12 1.647169 1_555
H4 O17 0.977230 1_555
H5 O17 0.989832 1_555
H6 O13 1.076059 1_555
H6 O17 1.414109 1_555
H7 O18 0.976775 1_555
H8 O18 1.002392 1_555
H8 O12 1.667786 1_555
H9 O2 1.087403 1_555
H9 O18 1.394885 1_655
H10 O19 0.978638 1_555
H11 O19 1.034118 1_555
H11 O11 1.538095 1_555
O0 V0 1.679182 1_555
O1 V1 1.696653 1_545
O2 V2 1.851255 1_555
O2 V0 2.048749 1_555
O3 V3 1.751988 1_555
O3 V0 1.913833 1_555
O4 V4 1.723389 1_555
O4 V1 1.933120 1_545
O5 V5 1.717470 1_555
O5 V1 1.974000 1_556
O6 V4 1.730937 1_555
O6 V0 1.937050 1_555
O7 V5 1.706312 1_555
O7 V0 1.983574 1_555
O8 V3 1.753932 1_555
O8 V1 1.942774 1_555
O9 V2 1.722625 1_555
O9 V1 1.938579 1_546
O10 V2 1.650075 1_555
O11 V3 1.665028 1_555
O12 V4 1.693923 1_555
O13 V5 1.760266 1_555
O14 V2 1.798036 1_555
O14 V3 1.830704 1_556
O15 V5 1.784159 1_555
O15 V4 1.815226 1_565
