# generated using pymatgen
data_TmIn5Rh
_symmetry_space_group_name_H-M   'P 1'
_cell_length_a   4.62352379
_cell_length_b   4.62352379
_cell_length_c   7.37866890
_cell_angle_alpha   90.00000000
_cell_angle_beta   90.00000000
_cell_angle_gamma   90.00000000
_symmetry_Int_Tables_number   1
_chemical_formula_structural   TmIn5Rh
_chemical_formula_sum   'Tm1 In5 Rh1'
_cell_volume   157.73360022
_cell_formula_units_Z   1
loop_
 _symmetry_equiv_pos_site_id
 _symmetry_equiv_pos_as_xyz
  1  'x, y, z'
loop_
 _atom_site_type_symbol
 _atom_site_label
 _atom_site_symmetry_multiplicity
 _atom_site_fract_x
 _atom_site_fract_y
 _atom_site_fract_z
 _atom_site_occupancy
  Tm  Tm0  1  -0.00000000  -0.00000000  -0.00000000  1
  In  In0  1  -0.00000000  0.50000000  0.29910621  1
  In  In1  1  0.00000000  0.50000000  0.70089379  1
  In  In2  1  0.50000000  0.00000000  0.29910621  1
  In  In3  1  0.50000000  -0.00000000  0.70089379  1
  In  In4  1  0.50000000  0.50000000  -0.00000000  1
  Rh  Rh0  1  -0.00000000  -0.00000000  0.50000000  1
loop_
_geom_bond_atom_site_label_1
_geom_bond_atom_site_label_2
_geom_bond_distance
_geom_bond_site_symmetry_2
In0 Rh0 2.746187 1_565
In0 Rh0 2.746187 1_555
In0 Tm0 3.196110 1_565
In0 Tm0 3.196110 1_555
In0 In4 3.196110 1_455
In0 In4 3.196110 1_555
In1 Rh0 2.746187 1_565
In1 Rh0 2.746187 1_555
In1 In4 3.196110 1_556
In1 In4 3.196110 1_456
In1 Tm0 3.196110 1_556
In1 Tm0 3.196110 1_566
In2 Rh0 2.746187 1_655
In2 Rh0 2.746187 1_555
In2 Tm0 3.196110 1_555
In2 Tm0 3.196110 1_655
In2 In4 3.196110 1_555
In2 In4 3.196110 1_545
In3 Rh0 2.746187 1_655
In3 Rh0 2.746187 1_555
In3 In4 3.196110 1_556
In3 Tm0 3.196110 1_556
In3 In4 3.196110 1_546
In3 Tm0 3.196110 1_656
In4 Tm0 3.269325 1_665
In4 Tm0 3.269325 1_565
In4 Tm0 3.269325 1_555
In4 Tm0 3.269325 1_655
