# generated using pymatgen
data_Sb2S4O15
_symmetry_space_group_name_H-M   'P 1'
_cell_length_a   7.20288500
_cell_length_b   9.45350100
_cell_length_c   18.85297654
_cell_angle_alpha   70.99695220
_cell_angle_beta   90.00000000
_cell_angle_gamma   90.00000000
_symmetry_Int_Tables_number   1
_chemical_formula_structural   Sb2S4O15
_chemical_formula_sum   'Sb8 S16 O60'
_cell_volume   1213.78339725
_cell_formula_units_Z   4
loop_
 _symmetry_equiv_pos_site_id
 _symmetry_equiv_pos_as_xyz
  1  'x, y, z'
loop_
 _atom_site_type_symbol
 _atom_site_label
 _atom_site_symmetry_multiplicity
 _atom_site_fract_x
 _atom_site_fract_y
 _atom_site_fract_z
 _atom_site_occupancy
  Sb  Sb0  1  0.66673600  0.52569700  0.35695400  1
  Sb  Sb1  1  0.83326400  0.52569700  0.85695400  1
  Sb  Sb2  1  0.33326400  0.47430300  0.64304600  1
  Sb  Sb3  1  0.16673600  0.47430300  0.14304600  1
  Sb  Sb4  1  0.15383700  0.96412400  0.64330000  1
  Sb  Sb5  1  0.34616300  0.96412400  0.14330000  1
  Sb  Sb6  1  0.84616300  0.03587600  0.35670000  1
  Sb  Sb7  1  0.65383700  0.03587600  0.85670000  1
  S  S0  1  0.45845700  0.26524200  0.50934100  1
  S  S1  1  0.04154300  0.26524200  0.00934100  1
  S  S2  1  0.54154300  0.73475800  0.49065900  1
  S  S3  1  0.95845700  0.73475800  0.99065900  1
  S  S4  1  0.74734600  0.36601300  0.22212700  1
  S  S5  1  0.75265400  0.36601300  0.72212700  1
  S  S6  1  0.25265400  0.63398700  0.77787300  1
  S  S7  1  0.24734600  0.63398700  0.27787300  1
  S  S8  1  0.05885200  0.25603800  0.48431100  1
  S  S9  1  0.44114800  0.25603800  0.98431100  1
  S  S10  1  0.94114800  0.74396200  0.51568900  1
  S  S11  1  0.55885200  0.74396200  0.01568900  1
  S  S12  1  0.73926600  0.86209600  0.72858100  1
  S  S13  1  0.76073400  0.86209600  0.22858100  1
  S  S14  1  0.26073400  0.13790400  0.27141900  1
  S  S15  1  0.23926600  0.13790400  0.77141900  1
  O  O0  1  0.81219700  0.21157800  0.23334700  1
  O  O1  1  0.68780300  0.21157800  0.73334700  1
  O  O2  1  0.18780300  0.78842200  0.76665300  1
  O  O3  1  0.31219700  0.78842200  0.26665300  1
  O  O4  1  0.89489600  0.47749700  0.18015300  1
  O  O5  1  0.60510400  0.47749700  0.68015300  1
  O  O6  1  0.10510400  0.52250300  0.81984700  1
  O  O7  1  0.39489600  0.52250300  0.31984700  1
  O  O8  1  0.55416000  0.30096500  0.43578100  1
  O  O9  1  0.94584000  0.30096500  0.93578100  1
  O  O10  1  0.44584000  0.69903500  0.56421900  1
  O  O11  1  0.05416000  0.69903500  0.06421900  1
  O  O12  1  0.74452000  0.37698600  0.30224300  1
  O  O13  1  0.75548000  0.37698600  0.80224300  1
  O  O14  1  0.25548000  0.62301400  0.69775700  1
  O  O15  1  0.24452000  0.62301400  0.19775700  1
  O  O16  1  0.53383300  0.34440600  0.55707200  1
  O  O17  1  0.96616700  0.34440600  0.05707200  1
  O  O18  1  0.46616700  0.65559400  0.44292800  1
  O  O19  1  0.03383300  0.65559400  0.94292800  1
  O  O20  1  0.42342000  0.10666800  0.54286600  1
  O  O21  1  0.07658000  0.10666800  0.04286600  1
  O  O22  1  0.57658000  0.89333200  0.45713400  1
  O  O23  1  0.92342000  0.89333200  0.95713400  1
  O  O24  1  0.57239000  0.40629200  0.18485900  1
  O  O25  1  0.92761000  0.40629200  0.68485900  1
  O  O26  1  0.42761000  0.59370800  0.81514100  1
  O  O27  1  0.07239000  0.59370800  0.31514100  1
  O  O28  1  0.25136900  0.34786200  0.48628900  1
  O  O29  1  0.24863100  0.34786200  0.98628900  1
  O  O30  1  0.74863100  0.65213800  0.51371100  1
  O  O31  1  0.75136900  0.65213800  0.01371100  1
  O  O32  1  0.92621300  0.37552400  0.46186200  1
  O  O33  1  0.57378700  0.37552400  0.96186200  1
  O  O34  1  0.07378700  0.62447600  0.53813800  1
  O  O35  1  0.42621300  0.62447600  0.03813800  1
  O  O36  1  0.08629100  0.16536500  0.43615200  1
  O  O37  1  0.41370900  0.16536500  0.93615200  1
  O  O38  1  0.91370900  0.83463500  0.56384800  1
  O  O39  1  0.58629100  0.83463500  0.06384800  1
  O  O40  1  0.02894800  0.16329700  0.56501700  1
  O  O41  1  0.47105200  0.16329700  0.06501700  1
  O  O42  1  0.97105200  0.83670300  0.43498300  1
  O  O43  1  0.52894800  0.83670300  0.93498300  1
  O  O44  1  0.88771800  0.97012900  0.68590200  1
  O  O45  1  0.61228200  0.97012900  0.18590200  1
  O  O46  1  0.11228200  0.02987100  0.31409800  1
  O  O47  1  0.38771800  0.02987100  0.81409800  1
  O  O48  1  0.80524900  0.70588300  0.74195900  1
  O  O49  1  0.69475100  0.70588300  0.24195900  1
  O  O50  1  0.19475100  0.29411700  0.25804100  1
  O  O51  1  0.30524900  0.29411700  0.75804100  1
  O  O52  1  0.73501700  0.87744600  0.80758300  1
  O  O53  1  0.76498300  0.87744600  0.30758300  1
  O  O54  1  0.26498300  0.12255400  0.19241700  1
  O  O55  1  0.23501700  0.12255400  0.69241700  1
  O  O56  1  0.56461100  0.89757100  0.69084400  1
  O  O57  1  0.93538900  0.89757100  0.19084400  1
  O  O58  1  0.43538900  0.10242900  0.30915600  1
  O  O59  1  0.06461100  0.10242900  0.80915600  1
loop_
_geom_bond_atom_site_label_1
_geom_bond_atom_site_label_2
_geom_bond_distance
_geom_bond_site_symmetry_2
O0 S4 1.480973 1_555
O0 Sb6 2.389869 1_555
O1 S5 1.480973 1_555
O1 Sb7 2.389869 1_555
O2 S6 1.480973 1_555
O2 Sb4 2.389869 1_555
O3 S7 1.480973 1_555
O3 Sb5 2.389869 1_555
O4 S4 1.524247 1_555
O4 Sb3 2.082779 1_655
O5 S5 1.524247 1_555
O5 Sb2 2.082779 1_555
O6 S6 1.524247 1_555
O6 Sb1 2.082779 1_455
O7 S7 1.524247 1_555
O7 Sb0 2.082779 1_555
O8 S0 1.485771 1_555
O8 Sb0 2.307262 1_555
O9 S1 1.485771 1_656
O9 Sb1 2.307262 1_555
O10 S2 1.485771 1_555
O10 Sb2 2.307262 1_555
O11 S3 1.485771 1_454
O11 Sb3 2.307262 1_555
O12 S4 1.547448 1_555
O12 Sb0 2.073294 1_555
O13 S5 1.547448 1_555
O13 Sb1 2.073294 1_555
O14 S6 1.547448 1_555
O14 Sb2 2.073294 1_555
O15 S7 1.547448 1_555
O15 Sb3 2.073294 1_555
O16 S0 1.450233 1_555
O17 S1 1.450233 1_655
O18 S2 1.450233 1_555
O19 S3 1.450233 1_455
O20 S0 1.446849 1_555
O21 S1 1.446849 1_555
O22 S2 1.446849 1_555
O23 S3 1.446849 1_555
O24 S4 1.432654 1_555
O25 S5 1.432654 1_555
O26 S6 1.432654 1_555
O27 S7 1.432654 1_555
O28 S8 1.642824 1_555
O28 S0 1.674162 1_555
O29 S9 1.642824 1_555
O29 S1 1.674162 1_556
O30 S10 1.642824 1_555
O30 S2 1.674162 1_555
O31 S11 1.642824 1_555
O31 S3 1.674162 1_554
O32 S8 1.434035 1_655
O33 S9 1.434035 1_555
O34 S10 1.434035 1_455
O35 S11 1.434035 1_555
O36 S8 1.450864 1_555
O37 S9 1.450864 1_555
O38 S10 1.450864 1_555
O39 S11 1.450864 1_555
O40 S8 1.503801 1_555
O40 Sb4 2.173230 1_545
O41 S9 1.503801 1_554
O41 Sb5 2.173230 1_545
O42 S10 1.503801 1_555
O42 Sb6 2.173230 1_565
O43 S11 1.503801 1_556
O43 Sb7 2.173230 1_565
O44 S12 1.516135 1_555
O44 Sb4 2.086198 1_655
O45 S13 1.516135 1_555
O45 Sb5 2.086198 1_555
O46 S14 1.516135 1_555
O46 Sb6 2.086198 1_455
O47 S15 1.516135 1_555
O47 Sb7 2.086198 1_555
O48 S12 1.492565 1_555
O48 Sb1 2.288555 1_555
O49 S13 1.492565 1_555
O49 Sb0 2.288555 1_555
O50 S14 1.492565 1_555
O50 Sb3 2.288555 1_555
O51 S15 1.492565 1_555
O51 Sb2 2.288555 1_555
O52 S12 1.543090 1_555
O52 Sb7 2.084644 1_565
O53 S13 1.543090 1_555
O53 Sb6 2.084644 1_565
O54 S14 1.543090 1_555
O54 Sb5 2.084644 1_545
O55 S15 1.543090 1_555
O55 Sb4 2.084644 1_545
O56 S12 1.430338 1_555
O57 S13 1.430338 1_555
O58 S14 1.430338 1_555
O59 S15 1.430338 1_555
