# generated using pymatgen
data_Si18Sn
_symmetry_space_group_name_H-M   'P 1'
_cell_length_a   10.46330970
_cell_length_b   10.46330970
_cell_length_c   126.63034229
_cell_angle_alpha   89.97181487
_cell_angle_beta   89.97181487
_cell_angle_gamma   140.51639823
_symmetry_Int_Tables_number   1
_chemical_formula_structural   Si18Sn
_chemical_formula_sum   'Si144 Sn8'
_cell_volume   8815.26105994
_cell_formula_units_Z   8
loop_
 _symmetry_equiv_pos_site_id
 _symmetry_equiv_pos_as_xyz
  1  'x, y, z'
loop_
 _atom_site_type_symbol
 _atom_site_label
 _atom_site_symmetry_multiplicity
 _atom_site_fract_x
 _atom_site_fract_y
 _atom_site_fract_z
 _atom_site_occupancy
  Si  Si0_0  1  0.32799150  0.32799150  0.00013400  1
  Si  Si0_1  1  0.32799150  0.32799150  0.50013400  1
  Si  Si0_2  1  0.32799150  0.82799150  0.00013400  1
  Si  Si0_3  1  0.32799150  0.82799150  0.50013400  1
  Si  Si0_4  1  0.82799150  0.32799150  0.00013400  1
  Si  Si0_5  1  0.82799150  0.32799150  0.50013400  1
  Si  Si0_6  1  0.82799150  0.82799150  0.00013400  1
  Si  Si0_7  1  0.82799150  0.82799150  0.50013400  1
  Si  Si1_0  1  0.15991250  0.49508700  0.00023650  1
  Si  Si1_1  1  0.15991250  0.49508700  0.50023650  1
  Si  Si1_2  1  0.15991250  0.99508700  0.00023650  1
  Si  Si1_3  1  0.15991250  0.99508700  0.50023650  1
  Si  Si1_4  1  0.65991250  0.49508700  0.00023650  1
  Si  Si1_5  1  0.65991250  0.49508700  0.50023650  1
  Si  Si1_6  1  0.65991250  0.99508700  0.00023650  1
  Si  Si1_7  1  0.65991250  0.99508700  0.50023650  1
  Si  Si2_0  1  0.49508700  0.15991250  0.00023650  1
  Si  Si2_1  1  0.49508700  0.15991250  0.50023650  1
  Si  Si2_2  1  0.49508700  0.65991250  0.00023650  1
  Si  Si2_3  1  0.49508700  0.65991250  0.50023650  1
  Si  Si2_4  1  0.99508700  0.15991250  0.00023650  1
  Si  Si2_5  1  0.99508700  0.15991250  0.50023650  1
  Si  Si2_6  1  0.99508700  0.65991250  0.00023650  1
  Si  Si2_7  1  0.99508700  0.65991250  0.50023650  1
  Si  Si3_0  1  0.21799050  0.21799050  0.02484350  1
  Si  Si3_1  1  0.21799050  0.21799050  0.52484350  1
  Si  Si3_2  1  0.21799050  0.71799050  0.02484350  1
  Si  Si3_3  1  0.21799050  0.71799050  0.52484350  1
  Si  Si3_4  1  0.71799050  0.21799050  0.02484350  1
  Si  Si3_5  1  0.71799050  0.21799050  0.52484350  1
  Si  Si3_6  1  0.71799050  0.71799050  0.02484350  1
  Si  Si3_7  1  0.71799050  0.71799050  0.52484350  1
  Si  Si4_0  1  0.05094100  0.38570300  0.02469950  1
  Si  Si4_1  1  0.05094100  0.38570300  0.52469950  1
  Si  Si4_2  1  0.05094100  0.88570300  0.02469950  1
  Si  Si4_3  1  0.05094100  0.88570300  0.52469950  1
  Si  Si4_4  1  0.55094100  0.38570300  0.02469950  1
  Si  Si4_5  1  0.55094100  0.38570300  0.52469950  1
  Si  Si4_6  1  0.55094100  0.88570300  0.02469950  1
  Si  Si4_7  1  0.55094100  0.88570300  0.52469950  1
  Si  Si5_0  1  0.38570300  0.05094100  0.02469950  1
  Si  Si5_1  1  0.38570300  0.05094100  0.52469950  1
  Si  Si5_2  1  0.38570300  0.55094100  0.02469950  1
  Si  Si5_3  1  0.38570300  0.55094100  0.52469950  1
  Si  Si5_4  1  0.88570300  0.05094100  0.02469950  1
  Si  Si5_5  1  0.88570300  0.05094100  0.52469950  1
  Si  Si5_6  1  0.88570300  0.55094100  0.02469950  1
  Si  Si5_7  1  0.88570300  0.55094100  0.52469950  1
  Si  Si6_0  1  0.35992050  0.35992050  0.10044100  1
  Si  Si6_1  1  0.35992050  0.35992050  0.60044100  1
  Si  Si6_2  1  0.35992050  0.85992050  0.10044100  1
  Si  Si6_3  1  0.35992050  0.85992050  0.60044100  1
  Si  Si6_4  1  0.85992050  0.35992050  0.10044100  1
  Si  Si6_5  1  0.85992050  0.35992050  0.60044100  1
  Si  Si6_6  1  0.85992050  0.85992050  0.10044100  1
  Si  Si6_7  1  0.85992050  0.85992050  0.60044100  1
  Si  Si7_0  1  0.19235800  0.02755050  0.10052650  1
  Si  Si7_1  1  0.19235800  0.02755050  0.60052650  1
  Si  Si7_2  1  0.19235800  0.52755050  0.10052650  1
  Si  Si7_3  1  0.19235800  0.52755050  0.60052650  1
  Si  Si7_4  1  0.69235800  0.02755050  0.10052650  1
  Si  Si7_5  1  0.69235800  0.02755050  0.60052650  1
  Si  Si7_6  1  0.69235800  0.52755050  0.10052650  1
  Si  Si7_7  1  0.69235800  0.52755050  0.60052650  1
  Si  Si8_0  1  0.02755050  0.19235800  0.10052650  1
  Si  Si8_1  1  0.02755050  0.19235800  0.60052650  1
  Si  Si8_2  1  0.02755050  0.69235800  0.10052650  1
  Si  Si8_3  1  0.02755050  0.69235800  0.60052650  1
  Si  Si8_4  1  0.52755050  0.19235800  0.10052650  1
  Si  Si8_5  1  0.52755050  0.19235800  0.60052650  1
  Si  Si8_6  1  0.52755050  0.69235800  0.10052650  1
  Si  Si8_7  1  0.52755050  0.69235800  0.60052650  1
  Si  Si9_0  1  0.08442300  0.41936600  0.12442600  1
  Si  Si9_1  1  0.08442300  0.41936600  0.62442600  1
  Si  Si9_2  1  0.08442300  0.91936600  0.12442600  1
  Si  Si9_3  1  0.08442300  0.91936600  0.62442600  1
  Si  Si9_4  1  0.58442300  0.41936600  0.12442600  1
  Si  Si9_5  1  0.58442300  0.41936600  0.62442600  1
  Si  Si9_6  1  0.58442300  0.91936600  0.12442600  1
  Si  Si9_7  1  0.58442300  0.91936600  0.62442600  1
  Si  Si10_0  1  0.25172950  0.25172950  0.12460050  1
  Si  Si10_1  1  0.25172950  0.25172950  0.62460050  1
  Si  Si10_2  1  0.25172950  0.75172950  0.12460050  1
  Si  Si10_3  1  0.25172950  0.75172950  0.62460050  1
  Si  Si10_4  1  0.75172950  0.25172950  0.12460050  1
  Si  Si10_5  1  0.75172950  0.25172950  0.62460050  1
  Si  Si10_6  1  0.75172950  0.75172950  0.12460050  1
  Si  Si10_7  1  0.75172950  0.75172950  0.62460050  1
  Si  Si11_0  1  0.41936600  0.08442300  0.12442600  1
  Si  Si11_1  1  0.41936600  0.08442300  0.62442600  1
  Si  Si11_2  1  0.41936600  0.58442300  0.12442600  1
  Si  Si11_3  1  0.41936600  0.58442300  0.62442600  1
  Si  Si11_4  1  0.91936600  0.08442300  0.12442600  1
  Si  Si11_5  1  0.91936600  0.08442300  0.62442600  1
  Si  Si11_6  1  0.91936600  0.58442300  0.12442600  1
  Si  Si11_7  1  0.91936600  0.58442300  0.62442600  1
  Si  Si12_0  1  0.22542850  0.06050600  0.20059250  1
  Si  Si12_1  1  0.22542850  0.06050600  0.70059250  1
  Si  Si12_2  1  0.22542850  0.56050600  0.20059250  1
  Si  Si12_3  1  0.22542850  0.56050600  0.70059250  1
  Si  Si12_4  1  0.72542850  0.06050600  0.20059250  1
  Si  Si12_5  1  0.72542850  0.06050600  0.70059250  1
  Si  Si12_6  1  0.72542850  0.56050600  0.20059250  1
  Si  Si12_7  1  0.72542850  0.56050600  0.70059250  1
  Si  Si13_0  1  0.39217300  0.39217300  0.20076050  1
  Si  Si13_1  1  0.39217300  0.39217300  0.70076050  1
  Si  Si13_2  1  0.39217300  0.89217300  0.20076050  1
  Si  Si13_3  1  0.39217300  0.89217300  0.70076050  1
  Si  Si13_4  1  0.89217300  0.39217300  0.20076050  1
  Si  Si13_5  1  0.89217300  0.39217300  0.70076050  1
  Si  Si13_6  1  0.89217300  0.89217300  0.20076050  1
  Si  Si13_7  1  0.89217300  0.89217300  0.70076050  1
  Si  Si14_0  1  0.06050600  0.22542850  0.20059250  1
  Si  Si14_1  1  0.06050600  0.22542850  0.70059250  1
  Si  Si14_2  1  0.06050600  0.72542850  0.20059250  1
  Si  Si14_3  1  0.06050600  0.72542850  0.70059250  1
  Si  Si14_4  1  0.56050600  0.22542850  0.20059250  1
  Si  Si14_5  1  0.56050600  0.22542850  0.70059250  1
  Si  Si14_6  1  0.56050600  0.72542850  0.20059250  1
  Si  Si14_7  1  0.56050600  0.72542850  0.70059250  1
  Si  Si15_0  1  0.28647100  0.28647100  0.22411750  1
  Si  Si15_1  1  0.28647100  0.28647100  0.72411750  1
  Si  Si15_2  1  0.28647100  0.78647100  0.22411750  1
  Si  Si15_3  1  0.28647100  0.78647100  0.72411750  1
  Si  Si15_4  1  0.78647100  0.28647100  0.22411750  1
  Si  Si15_5  1  0.78647100  0.28647100  0.72411750  1
  Si  Si15_6  1  0.78647100  0.78647100  0.22411750  1
  Si  Si15_7  1  0.78647100  0.78647100  0.72411750  1
  Si  Si16_0  1  0.11888950  0.45361050  0.22441350  1
  Si  Si16_1  1  0.11888950  0.45361050  0.72441350  1
  Si  Si16_2  1  0.11888950  0.95361050  0.22441350  1
  Si  Si16_3  1  0.11888950  0.95361050  0.72441350  1
  Si  Si16_4  1  0.61888950  0.45361050  0.22441350  1
  Si  Si16_5  1  0.61888950  0.45361050  0.72441350  1
  Si  Si16_6  1  0.61888950  0.95361050  0.22441350  1
  Si  Si16_7  1  0.61888950  0.95361050  0.72441350  1
  Si  Si17_0  1  0.45361050  0.11888950  0.22441350  1
  Si  Si17_1  1  0.45361050  0.11888950  0.72441350  1
  Si  Si17_2  1  0.45361050  0.61888950  0.22441350  1
  Si  Si17_3  1  0.45361050  0.61888950  0.72441350  1
  Si  Si17_4  1  0.95361050  0.11888950  0.22441350  1
  Si  Si17_5  1  0.95361050  0.11888950  0.72441350  1
  Si  Si17_6  1  0.95361050  0.61888950  0.22441350  1
  Si  Si17_7  1  0.95361050  0.61888950  0.72441350  1
  Sn  Sn0_0  1  0.10002000  0.10002000  0.29998700  1
  Sn  Sn0_1  1  0.10002000  0.10002000  0.79998700  1
  Sn  Sn0_2  1  0.10002000  0.60002000  0.29998700  1
  Sn  Sn0_3  1  0.10002000  0.60002000  0.79998700  1
  Sn  Sn0_4  1  0.60002000  0.10002000  0.29998700  1
  Sn  Sn0_5  1  0.60002000  0.10002000  0.79998700  1
  Sn  Sn0_6  1  0.60002000  0.60002000  0.29998700  1
  Sn  Sn0_7  1  0.60002000  0.60002000  0.79998700  1
loop_
_geom_bond_atom_site_label_1
_geom_bond_atom_site_label_2
_geom_bond_distance
_geom_bond_site_symmetry_2
Si0_0 Si1_4 2.397033 1_555
Si0_0 Si2_2 2.397033 1_555
Si0_0 Si1_2 2.402125 1_545
Si0_0 Si2_4 2.402125 1_455
Si0_1 Si2_3 2.397033 1_555
Si0_1 Si1_5 2.397033 1_555
Si0_1 Si1_3 2.402125 1_545
Si0_1 Si2_5 2.402125 1_455
Si0_2 Si2_0 2.397033 1_565
Si0_2 Si1_6 2.397033 1_555
Si0_2 Si2_6 2.402125 1_455
Si0_2 Si1_0 2.402125 1_555
Si0_3 Si2_1 2.397033 1_565
Si0_3 Si1_7 2.397033 1_555
Si0_3 Si2_7 2.402125 1_455
Si0_3 Si1_1 2.402125 1_555
Si0_4 Si2_6 2.397033 1_555
Si0_4 Si1_0 2.397033 1_655
Si0_4 Si2_0 2.402125 1_555
Si0_4 Si1_6 2.402125 1_545
Si0_5 Si1_1 2.397033 1_655
Si0_5 Si2_7 2.397033 1_555
Si0_5 Si1_7 2.402125 1_545
Si0_5 Si2_1 2.402125 1_555
Si0_6 Si1_2 2.397033 1_655
Si0_6 Si2_4 2.397033 1_565
Si0_6 Si1_4 2.402125 1_555
Si0_6 Si2_2 2.402125 1_555
Si0_7 Si2_5 2.397033 1_565
Si0_7 Si1_3 2.397033 1_655
Si0_7 Si1_5 2.402125 1_555
Si0_7 Si2_3 2.402125 1_555
Si3_0 Si4_2 2.400659 1_545
Si3_0 Si5_4 2.400659 1_455
Si3_0 Si4_4 2.404067 1_555
Si3_0 Si5_2 2.404067 1_555
Si3_1 Si4_3 2.400659 1_545
Si3_1 Si5_5 2.400659 1_455
Si3_1 Si4_5 2.404067 1_555
Si3_1 Si5_3 2.404067 1_555
Si3_2 Si4_0 2.400659 1_555
Si3_2 Si5_6 2.400659 1_455
Si3_2 Si4_6 2.404067 1_555
Si3_2 Si5_0 2.404067 1_565
Si3_3 Si4_1 2.400659 1_555
Si3_3 Si5_7 2.400659 1_455
Si3_3 Si4_7 2.404067 1_555
Si3_3 Si5_1 2.404067 1_565
Si3_4 Si5_0 2.400659 1_555
Si3_4 Si4_6 2.400659 1_545
Si3_4 Si4_0 2.404067 1_655
Si3_4 Si5_6 2.404067 1_555
Si3_5 Si5_1 2.400659 1_555
Si3_5 Si4_7 2.400659 1_545
Si3_5 Si4_1 2.404067 1_655
Si3_5 Si5_7 2.404067 1_555
Si3_6 Si4_4 2.400659 1_555
Si3_6 Si5_2 2.400659 1_555
Si3_6 Si4_2 2.404067 1_655
Si3_6 Si5_4 2.404067 1_565
Si3_7 Si4_5 2.400659 1_555
Si3_7 Si5_3 2.400659 1_555
Si3_7 Si4_3 2.404067 1_655
Si3_7 Si5_5 2.404067 1_565
Si6_0 Si7_0 2.399260 1_555
Si6_0 Si8_0 2.399260 1_555
Si6_0 Si7_6 2.399635 1_555
Si6_0 Si8_6 2.399635 1_555
Si6_1 Si7_1 2.399260 1_555
Si6_1 Si8_1 2.399260 1_555
Si6_1 Si7_7 2.399635 1_555
Si6_1 Si8_7 2.399635 1_555
Si6_2 Si8_2 2.399260 1_555
Si6_2 Si7_2 2.399260 1_555
Si6_2 Si7_4 2.399635 1_565
Si6_2 Si8_4 2.399635 1_565
Si6_3 Si8_3 2.399260 1_555
Si6_3 Si7_3 2.399260 1_555
Si6_3 Si7_5 2.399635 1_565
Si6_3 Si8_5 2.399635 1_565
Si6_4 Si7_4 2.399260 1_555
Si6_4 Si8_4 2.399260 1_555
Si6_4 Si8_2 2.399635 1_655
Si6_4 Si7_2 2.399635 1_655
Si6_5 Si8_5 2.399260 1_555
Si6_5 Si7_5 2.399260 1_555
Si6_5 Si8_3 2.399635 1_655
Si6_5 Si7_3 2.399635 1_655
Si6_6 Si8_6 2.399260 1_555
Si6_6 Si7_6 2.399260 1_555
Si6_6 Si8_0 2.399635 1_665
Si6_6 Si7_0 2.399635 1_665
Si6_7 Si7_7 2.399260 1_555
Si6_7 Si8_7 2.399260 1_555
Si6_7 Si7_1 2.399635 1_665
Si6_7 Si8_1 2.399635 1_665
Si10_0 Si11_4 2.400353 1_455
Si10_0 Si9_2 2.400353 1_545
Si10_0 Si11_2 2.402022 1_555
Si10_0 Si9_4 2.402022 1_555
Si10_1 Si9_3 2.400353 1_545
Si10_1 Si11_5 2.400353 1_455
Si10_1 Si9_5 2.402022 1_555
Si10_1 Si11_3 2.402022 1_555
Si10_2 Si9_0 2.400353 1_555
Si10_2 Si11_6 2.400353 1_455
Si10_2 Si11_0 2.402022 1_565
Si10_2 Si9_6 2.402022 1_555
Si10_3 Si9_1 2.400353 1_555
Si10_3 Si11_7 2.400353 1_455
Si10_3 Si9_7 2.402022 1_555
Si10_3 Si11_1 2.402022 1_565
Si10_4 Si11_0 2.400353 1_555
Si10_4 Si9_6 2.400353 1_545
Si10_4 Si9_0 2.402022 1_655
Si10_4 Si11_6 2.402022 1_555
Si10_5 Si11_1 2.400353 1_555
Si10_5 Si9_7 2.400353 1_545
Si10_5 Si11_7 2.402022 1_555
Si10_5 Si9_1 2.402022 1_655
Si10_6 Si9_4 2.400353 1_555
Si10_6 Si11_2 2.400353 1_555
Si10_6 Si9_2 2.402022 1_655
Si10_6 Si11_4 2.402022 1_565
Si10_7 Si11_3 2.400353 1_555
Si10_7 Si9_5 2.400353 1_555
Si10_7 Si9_3 2.402022 1_655
Si10_7 Si11_5 2.402022 1_565
Si12_0 Si13_0 2.396176 1_555
Si12_0 Si13_6 2.404397 1_445
Si12_0 Si14_2 2.435356 1_545
Si12_0 Si14_4 2.435356 1_555
Si12_1 Si13_1 2.396176 1_555
Si12_1 Si13_7 2.404397 1_445
Si12_1 Si14_3 2.435356 1_545
Si12_1 Si14_5 2.435356 1_555
Si12_2 Si13_2 2.396176 1_555
Si12_2 Si13_4 2.404397 1_455
Si12_2 Si14_0 2.435356 1_555
Si12_2 Si14_6 2.435356 1_555
Si12_3 Si13_3 2.396176 1_555
Si12_3 Si13_5 2.404397 1_455
Si12_3 Si14_1 2.435356 1_555
Si12_3 Si14_7 2.435356 1_555
Si12_4 Si13_4 2.396176 1_555
Si12_4 Si13_2 2.404397 1_545
Si12_4 Si14_0 2.435356 1_655
Si12_4 Si14_6 2.435356 1_545
Si12_5 Si13_5 2.396176 1_555
Si12_5 Si13_3 2.404397 1_545
Si12_5 Si14_1 2.435356 1_655
Si12_5 Si14_7 2.435356 1_545
Si12_6 Si13_6 2.396176 1_555
Si12_6 Si13_0 2.404397 1_555
Si12_6 Si14_2 2.435356 1_655
Si12_6 Si14_4 2.435356 1_555
Si12_7 Si13_7 2.396176 1_555
Si12_7 Si13_1 2.404397 1_555
Si12_7 Si14_3 2.435356 1_655
Si12_7 Si14_5 2.435356 1_555
Si13_0 Si14_0 2.396176 1_555
Si13_0 Si14_6 2.404397 1_555
Si13_1 Si14_1 2.396176 1_555
Si13_1 Si14_7 2.404397 1_555
Si13_2 Si14_2 2.396176 1_555
Si13_2 Si14_4 2.404397 1_565
Si13_3 Si14_3 2.396176 1_555
Si13_3 Si14_5 2.404397 1_565
Si13_4 Si14_4 2.396176 1_555
Si13_4 Si14_2 2.404397 1_655
Si13_5 Si14_5 2.396176 1_555
Si13_5 Si14_3 2.404397 1_655
Si13_6 Si14_6 2.396176 1_555
Si13_6 Si14_0 2.404397 1_665
Si13_7 Si14_7 2.396176 1_555
Si13_7 Si14_1 2.404397 1_665
Si15_0 Si16_4 2.401750 1_555
Si15_0 Si17_2 2.401750 1_555
Si15_0 Si16_2 2.403968 1_545
Si15_0 Si17_4 2.403968 1_455
Si15_1 Si16_5 2.401750 1_555
Si15_1 Si17_3 2.401750 1_555
Si15_1 Si16_3 2.403968 1_545
Si15_1 Si17_5 2.403968 1_455
Si15_2 Si16_6 2.401750 1_555
Si15_2 Si17_0 2.401750 1_565
Si15_2 Si16_0 2.403968 1_555
Si15_2 Si17_6 2.403968 1_455
Si15_3 Si16_7 2.401750 1_555
Si15_3 Si17_1 2.401750 1_565
Si15_3 Si16_1 2.403968 1_555
Si15_3 Si17_7 2.403968 1_455
Si15_4 Si16_0 2.401750 1_655
Si15_4 Si17_6 2.401750 1_555
Si15_4 Si16_6 2.403968 1_545
Si15_4 Si17_0 2.403968 1_555
Si15_5 Si17_7 2.401750 1_555
Si15_5 Si16_1 2.401750 1_655
Si15_5 Si17_1 2.403968 1_555
Si15_5 Si16_7 2.403968 1_545
Si15_6 Si16_2 2.401750 1_655
Si15_6 Si17_4 2.401750 1_565
Si15_6 Si16_4 2.403968 1_555
Si15_6 Si17_2 2.403968 1_555
Si15_7 Si16_3 2.401750 1_655
Si15_7 Si17_5 2.401750 1_565
Si15_7 Si16_5 2.403968 1_555
Si15_7 Si17_3 2.403968 1_555
Si16_0 Si17_4 2.430530 1_455
Si16_0 Si17_2 2.430530 1_555
Si16_1 Si17_5 2.430530 1_455
Si16_1 Si17_3 2.430530 1_555
Si16_2 Si17_6 2.430530 1_455
Si16_2 Si17_0 2.430530 1_565
Si16_3 Si17_1 2.430530 1_565
Si16_3 Si17_7 2.430530 1_455
Si16_4 Si17_6 2.430530 1_555
Si16_4 Si17_0 2.430530 1_555
Si16_5 Si17_1 2.430530 1_555
Si16_5 Si17_7 2.430530 1_555
Si16_6 Si17_4 2.430530 1_565
Si16_6 Si17_2 2.430530 1_555
Si16_7 Si17_5 2.430530 1_565
Si16_7 Si17_3 2.430530 1_555
Sn0_0 Sn0_6 3.534318 1_555
Sn0_0 Sn0_6 3.534318 1_445
Sn0_1 Sn0_7 3.534318 1_555
Sn0_1 Sn0_7 3.534318 1_445
Sn0_2 Sn0_4 3.534318 1_455
Sn0_2 Sn0_4 3.534318 1_565
Sn0_3 Sn0_5 3.534318 1_455
Sn0_3 Sn0_5 3.534318 1_565
