# generated using pymatgen
data_Zr2SN2
_symmetry_space_group_name_H-M   'P 1'
_cell_length_a   3.61937849
_cell_length_b   3.61937823
_cell_length_c   12.86769356
_cell_angle_alpha   90.00000000
_cell_angle_beta   90.00000000
_cell_angle_gamma   120.00001158
_symmetry_Int_Tables_number   1
_chemical_formula_structural   Zr2SN2
_chemical_formula_sum   'Zr4 S2 N4'
_cell_volume   145.98198411
_cell_formula_units_Z   2
loop_
 _symmetry_equiv_pos_site_id
 _symmetry_equiv_pos_as_xyz
  1  'x, y, z'
loop_
 _atom_site_type_symbol
 _atom_site_label
 _atom_site_symmetry_multiplicity
 _atom_site_fract_x
 _atom_site_fract_y
 _atom_site_fract_z
 _atom_site_occupancy
  Zr  Zr0  1  0.33333300  0.66666700  0.60222188  1
  Zr  Zr1  1  0.66666700  0.33333300  0.10222188  1
  Zr  Zr2  1  0.66666700  0.33333300  0.39777812  1
  Zr  Zr3  1  0.33333300  0.66666700  0.89777812  1
  S  S0  1  -0.00000000  0.00000000  0.25000000  1
  S  S1  1  -0.00000000  0.00000000  0.75000000  1
  N  N0  1  0.66666700  0.33333300  0.56776941  1
  N  N1  1  0.33333300  0.66666700  0.06776941  1
  N  N2  1  0.33333300  0.66666700  0.43223059  1
  N  N3  1  0.66666700  0.33333300  0.93223059  1
loop_
_geom_bond_atom_site_label_1
_geom_bond_atom_site_label_2
_geom_bond_distance
_geom_bond_site_symmetry_2
S0 Zr1 2.825344 1_455
S0 Zr2 2.825344 1_455
S0 Zr2 2.825346 1_445
S0 Zr1 2.825346 1_445
S0 Zr2 2.825346 1_555
S0 Zr1 2.825346 1_555
S1 Zr0 2.825344 1_545
S1 Zr3 2.825344 1_545
S1 Zr0 2.825346 1_555
S1 Zr3 2.825346 1_555
S1 Zr3 2.825346 1_445
S1 Zr0 2.825346 1_445
N0 Zr0 2.136155 1_545
N0 Zr0 2.136155 1_655
N0 Zr0 2.136162 1_555
N0 Zr2 2.187396 1_555
N1 Zr1 2.136155 1_565
N1 Zr1 2.136155 1_455
N1 Zr1 2.136162 1_555
N1 Zr3 2.187396 1_554
N2 Zr2 2.136155 1_565
N2 Zr2 2.136155 1_455
N2 Zr2 2.136162 1_555
N2 Zr0 2.187396 1_555
N3 Zr3 2.136155 1_545
N3 Zr3 2.136155 1_655
N3 Zr3 2.136162 1_555
N3 Zr1 2.187396 1_556
