# generated using pymatgen
data_Sr3Zr2N4
_symmetry_space_group_name_H-M   'P 1'
_cell_length_a   7.34292800
_cell_length_b   10.37954100
_cell_length_c   10.23792200
_cell_angle_alpha   90.00000000
_cell_angle_beta   90.00000000
_cell_angle_gamma   90.00000000
_symmetry_Int_Tables_number   1
_chemical_formula_structural   Sr3Zr2N4
_chemical_formula_sum   'Sr12 Zr8 N16'
_cell_volume   780.29573839
_cell_formula_units_Z   4
loop_
 _symmetry_equiv_pos_site_id
 _symmetry_equiv_pos_as_xyz
  1  'x, y, z'
loop_
 _atom_site_type_symbol
 _atom_site_label
 _atom_site_symmetry_multiplicity
 _atom_site_fract_x
 _atom_site_fract_y
 _atom_site_fract_z
 _atom_site_occupancy
  Sr  Sr0  1  0.50204800  0.17367600  0.43978700  1
  Sr  Sr1  1  0.99795200  0.82632400  0.43978700  1
  Sr  Sr2  1  0.50204800  0.32632400  0.06021300  1
  Sr  Sr3  1  0.99795200  0.67367600  0.06021300  1
  Sr  Sr4  1  0.49795200  0.82632400  0.56021300  1
  Sr  Sr5  1  0.00204800  0.17367600  0.56021300  1
  Sr  Sr6  1  0.49795200  0.67367600  0.93978700  1
  Sr  Sr7  1  0.00204800  0.32632400  0.93978700  1
  Sr  Sr8  1  0.75000000  0.50000000  0.33979500  1
  Sr  Sr9  1  0.75000000  0.00000000  0.16020500  1
  Sr  Sr10  1  0.25000000  0.50000000  0.66020500  1
  Sr  Sr11  1  0.25000000  0.00000000  0.83979500  1
  Zr  Zr0  1  0.75000000  0.50000000  0.69770900  1
  Zr  Zr1  1  0.75000000  0.00000000  0.80229100  1
  Zr  Zr2  1  0.25000000  0.50000000  0.30229100  1
  Zr  Zr3  1  0.25000000  0.00000000  0.19770900  1
  Zr  Zr4  1  0.55362000  0.25000000  0.75000000  1
  Zr  Zr5  1  0.94638000  0.75000000  0.75000000  1
  Zr  Zr6  1  0.44638000  0.75000000  0.25000000  1
  Zr  Zr7  1  0.05362000  0.25000000  0.25000000  1
  N  N0  1  0.72009200  0.32225800  0.59858300  1
  N  N1  1  0.77990800  0.67774200  0.59858300  1
  N  N2  1  0.72009200  0.17774200  0.90141700  1
  N  N3  1  0.77990800  0.82225800  0.90141700  1
  N  N4  1  0.27990800  0.67774200  0.40141700  1
  N  N5  1  0.22009200  0.32225800  0.40141700  1
  N  N6  1  0.27990800  0.82225800  0.09858300  1
  N  N7  1  0.22009200  0.17774200  0.09858300  1
  N  N8  1  0.52448000  0.45450000  0.81462600  1
  N  N9  1  0.97552000  0.54550000  0.81462600  1
  N  N10  1  0.52448000  0.04550000  0.68537400  1
  N  N11  1  0.97552000  0.95450000  0.68537400  1
  N  N12  1  0.47552000  0.54550000  0.18537400  1
  N  N13  1  0.02448000  0.45450000  0.18537400  1
  N  N14  1  0.47552000  0.95450000  0.31462600  1
  N  N15  1  0.02448000  0.04550000  0.31462600  1
loop_
_geom_bond_atom_site_label_1
_geom_bond_atom_site_label_2
_geom_bond_distance
_geom_bond_site_symmetry_2
N0 Zr4 2.111837 1_555
N0 Zr0 2.117008 1_555
N0 Sr5 2.611364 1_655
N0 Sr0 2.754073 1_555
N0 Sr8 3.235955 1_555
N1 Zr5 2.111837 1_555
N1 Zr0 2.117008 1_555
N1 Sr4 2.611364 1_555
N1 Sr1 2.754073 1_555
N1 Sr8 3.235955 1_555
N2 Zr4 2.111837 1_555
N2 Zr1 2.117008 1_555
N2 Sr7 2.611364 1_655
N2 Sr2 2.754073 1_556
N2 Sr9 3.235955 1_556
N3 Zr5 2.111837 1_555
N3 Zr1 2.117008 1_565
N3 Sr6 2.611364 1_555
N3 Sr3 2.754073 1_556
N3 Sr9 3.235955 1_566
N4 Zr6 2.111837 1_555
N4 Zr2 2.117008 1_555
N4 Sr1 2.611364 1_455
N4 Sr4 2.754073 1_555
N4 Sr10 3.235955 1_555
N5 Zr7 2.111837 1_555
N5 Zr2 2.117008 1_555
N5 Sr0 2.611364 1_555
N5 Sr5 2.754073 1_555
N5 Sr10 3.235955 1_555
N6 Zr6 2.111837 1_555
N6 Zr3 2.117008 1_565
N6 Sr3 2.611364 1_455
N6 Sr6 2.754073 1_554
N6 Sr11 3.235955 1_564
N7 Zr7 2.111837 1_555
N7 Zr3 2.117008 1_555
N7 Sr2 2.611364 1_555
N7 Sr7 2.754073 1_554
N7 Sr11 3.235955 1_554
N8 Zr0 2.097159 1_555
N8 Zr4 2.233617 1_555
N8 Sr10 2.604732 1_555
N8 Sr6 2.618259 1_555
N8 Sr2 2.849355 1_556
N9 Zr0 2.097159 1_555
N9 Zr5 2.233617 1_555
N9 Sr10 2.604732 1_655
N9 Sr7 2.618259 1_655
N9 Sr3 2.849355 1_556
N10 Zr1 2.097159 1_555
N10 Zr4 2.233617 1_555
N10 Sr11 2.604732 1_555
N10 Sr4 2.618259 1_545
N10 Sr0 2.849355 1_555
N11 Zr1 2.097159 1_565
N11 Zr5 2.233617 1_555
N11 Sr11 2.604732 1_665
N11 Sr5 2.618259 1_665
N11 Sr1 2.849355 1_555
N12 Zr2 2.097159 1_555
N12 Zr6 2.233617 1_555
N12 Sr8 2.604732 1_555
N12 Sr2 2.618259 1_555
N12 Sr6 2.849355 1_554
N13 Zr2 2.097159 1_555
N13 Zr7 2.233617 1_555
N13 Sr8 2.604732 1_455
N13 Sr3 2.618259 1_455
N13 Sr7 2.849355 1_554
N14 Zr3 2.097159 1_565
N14 Zr6 2.233617 1_555
N14 Sr9 2.604732 1_565
N14 Sr0 2.618259 1_565
N14 Sr4 2.849355 1_555
N15 Zr3 2.097159 1_555
N15 Zr7 2.233617 1_555
N15 Sr9 2.604732 1_455
N15 Sr1 2.618259 1_445
N15 Sr5 2.849355 1_555
