# generated using pymatgen
data_Nd(Ga3Co)3
_symmetry_space_group_name_H-M   'P 1'
_cell_length_a   10.94069991
_cell_length_b   10.94069991
_cell_length_c   12.13940450
_cell_angle_alpha   56.52795873
_cell_angle_beta   56.52795873
_cell_angle_gamma   21.46554999
_symmetry_Int_Tables_number   1
_chemical_formula_structural   Nd(Ga3Co)3
_chemical_formula_sum   'Nd2 Ga18 Co6'
_cell_volume   440.05679036
_cell_formula_units_Z   2
loop_
 _symmetry_equiv_pos_site_id
 _symmetry_equiv_pos_as_xyz
  1  'x, y, z'
loop_
 _atom_site_type_symbol
 _atom_site_label
 _atom_site_symmetry_multiplicity
 _atom_site_fract_x
 _atom_site_fract_y
 _atom_site_fract_z
 _atom_site_occupancy
  Nd  Nd0  1  0.96585100  0.96585100  0.78357100  1
  Nd  Nd1  1  0.03414900  0.03414900  0.21642900  1
  Ga  Ga0  1  0.67647300  0.67647300  0.07112600  1
  Ga  Ga1  1  0.32352700  0.32352700  0.92887400  1
  Ga  Ga2  1  0.79250800  0.79250800  0.79272100  1
  Ga  Ga3  1  0.20749200  0.20749200  0.20727900  1
  Ga  Ga4  1  0.20120200  0.20120200  0.89225400  1
  Ga  Ga5  1  0.79879800  0.79879800  0.10774600  1
  Ga  Ga6  1  0.00000000  0.00000000  0.50000000  1
  Ga  Ga7  1  0.00000000  0.00000000  0.00000000  1
  Ga  Ga8  1  0.19034100  0.19034100  0.55682200  1
  Ga  Ga9  1  0.80965900  0.80965900  0.44317800  1
  Ga  Ga10  1  0.58567600  0.58567600  0.56367800  1
  Ga  Ga11  1  0.41432400  0.41432400  0.43632200  1
  Ga  Ga12  1  0.41476100  0.41476100  0.23051900  1
  Ga  Ga13  1  0.58523900  0.58523900  0.76948100  1
  Ga  Ga14  1  0.59356800  0.59356800  0.97248800  1
  Ga  Ga15  1  0.40643200  0.40643200  0.02751200  1
  Ga  Ga16  1  0.40124800  0.40124800  0.66338600  1
  Ga  Ga17  1  0.59875200  0.59875200  0.33661400  1
  Co  Co0  1  0.87575500  0.87575500  0.18785100  1
  Co  Co1  1  0.12424500  0.12424500  0.81214900  1
  Co  Co2  1  0.12383300  0.12383300  0.43704100  1
  Co  Co3  1  0.87616700  0.87616700  0.56295900  1
  Co  Co4  1  0.72192900  0.72192900  0.36269600  1
  Co  Co5  1  0.27807100  0.27807100  0.63730400  1
loop_
_geom_bond_atom_site_label_1
_geom_bond_atom_site_label_2
_geom_bond_distance
_geom_bond_site_symmetry_2
Ga0 Ga14 2.646995 1_554
Ga0 Ga17 2.670756 1_555
Ga0 Ga4 2.802296 1_564
Ga0 Ga4 2.802296 1_654
Ga0 Ga2 2.860034 1_554
Ga0 Ga5 2.902771 1_555
Ga0 Ga3 2.926645 1_565
Ga0 Ga3 2.926645 1_655
Ga0 Nd1 3.250456 1_565
Ga0 Nd1 3.250456 1_655
Ga1 Ga15 2.646995 1_556
Ga1 Ga16 2.670756 1_555
Ga1 Ga5 2.802296 1_456
Ga1 Ga5 2.802296 1_546
Ga1 Ga3 2.860034 1_556
Ga1 Ga4 2.902771 1_555
Ga1 Ga2 2.926645 1_545
Ga1 Ga2 2.926645 1_455
Ga1 Nd0 3.250456 1_545
Ga1 Nd0 3.250456 1_455
Ga2 Ga4 2.607987 1_655
Ga2 Ga4 2.607987 1_565
Ga3 Ga5 2.607987 1_455
Ga3 Ga5 2.607987 1_545
Ga4 Nd1 3.537986 1_556
Ga5 Nd0 3.537986 1_554
Ga6 Nd0 3.090574 1_445
Ga6 Nd1 3.090574 1_555
Ga7 Nd1 3.099569 1_555
Ga7 Nd0 3.099569 1_444
Ga8 Ga9 2.943053 1_455
Ga8 Ga9 2.943053 1_545
Ga10 Ga13 2.493064 1_555
Ga10 Ga17 2.609011 1_555
Ga10 Ga8 3.001858 1_655
Ga10 Ga8 3.001858 1_565
Ga10 Nd0 3.192607 1_545
Ga10 Nd0 3.192607 1_455
Ga11 Ga12 2.493064 1_555
Ga11 Ga16 2.609011 1_555
Ga11 Ga9 3.001858 1_455
Ga11 Ga9 3.001858 1_545
Ga11 Nd1 3.192607 1_565
Ga11 Nd1 3.192607 1_655
Ga12 Ga15 2.569178 1_555
Ga12 Ga9 3.061437 1_455
Ga12 Ga9 3.061437 1_545
Ga12 Nd1 3.205541 1_565
Ga12 Nd1 3.205541 1_655
Ga13 Ga14 2.569178 1_555
Ga13 Ga8 3.061437 1_565
Ga13 Ga8 3.061437 1_655
Ga13 Nd0 3.205541 1_545
Ga13 Nd0 3.205541 1_455
Ga14 Ga7 2.748643 1_656
Ga14 Ga7 2.748643 1_566
Ga14 Ga4 2.814982 1_655
Ga14 Ga4 2.814982 1_565
Ga14 Nd1 3.210203 1_656
Ga14 Nd1 3.210203 1_566
Ga15 Ga7 2.748643 1_655
Ga15 Ga7 2.748643 1_565
Ga15 Ga5 2.814982 1_545
Ga15 Ga5 2.814982 1_455
Ga15 Nd0 3.210203 1_454
Ga15 Nd0 3.210203 1_544
Ga16 Ga6 2.804453 1_655
Ga16 Ga6 2.804453 1_565
Ga16 Ga2 2.821473 1_545
Ga16 Ga2 2.821473 1_455
Ga16 Nd0 3.237875 1_545
Ga16 Nd0 3.237875 1_455
Ga17 Ga6 2.804453 1_655
Ga17 Ga6 2.804453 1_565
Ga17 Ga3 2.821473 1_565
Ga17 Ga3 2.821473 1_655
Ga17 Nd1 3.237875 1_565
Ga17 Nd1 3.237875 1_655
Co0 Ga5 2.342891 1_555
Co0 Ga7 2.344445 1_665
Co0 Ga12 2.368635 1_655
Co0 Ga12 2.368635 1_565
Co0 Ga9 2.584847 1_555
Co0 Ga15 2.633173 1_655
Co0 Ga15 2.633173 1_565
Co0 Co4 2.749746 1_555
Co1 Ga4 2.342891 1_555
Co1 Ga7 2.344445 1_556
Co1 Ga13 2.368635 1_455
Co1 Ga13 2.368635 1_545
Co1 Ga8 2.584847 1_555
Co1 Ga14 2.633173 1_545
Co1 Ga14 2.633173 1_455
Co1 Co5 2.749746 1_555
Co2 Ga3 2.319975 1_555
Co2 Ga6 2.321051 1_555
Co2 Ga10 2.402434 1_455
Co2 Ga10 2.402434 1_545
Co2 Ga8 2.548119 1_555
Co2 Ga17 2.581921 1_545
Co2 Ga17 2.581921 1_455
Co2 Co4 2.697505 1_545
Co2 Co4 2.697505 1_455
Co3 Ga2 2.319975 1_555
Co3 Ga6 2.321051 1_665
Co3 Ga11 2.402434 1_565
Co3 Ga11 2.402434 1_655
Co3 Ga9 2.548119 1_555
Co3 Ga16 2.581921 1_655
Co3 Ga16 2.581921 1_565
Co3 Co5 2.697505 1_565
Co3 Co5 2.697505 1_655
Co4 Ga10 2.551361 1_555
Co4 Ga5 2.562709 1_555
Co4 Ga9 2.565270 1_555
Co4 Ga17 2.837992 1_555
Co4 Ga8 2.892957 1_655
Co4 Ga8 2.892957 1_565
Co4 Ga3 2.909394 1_565
Co4 Ga3 2.909394 1_655
Co5 Ga11 2.551361 1_555
Co5 Ga4 2.562709 1_555
Co5 Ga8 2.565270 1_555
Co5 Ga16 2.837992 1_555
Co5 Ga9 2.892957 1_545
Co5 Ga9 2.892957 1_455
Co5 Ga2 2.909394 1_545
Co5 Ga2 2.909394 1_455
