# generated using pymatgen
data_Li9Mn2Co5O16
_symmetry_space_group_name_H-M   'P 1'
_cell_length_a   3.02811500
_cell_length_b   6.41986348
_cell_length_c   15.54785024
_cell_angle_alpha   89.01573885
_cell_angle_beta   87.29002077
_cell_angle_gamma   76.72646444
_symmetry_Int_Tables_number   1
_chemical_formula_structural   Li9Mn2Co5O16
_chemical_formula_sum   'Li9 Mn2 Co5 O16'
_cell_volume   293.84168282
_cell_formula_units_Z   1
loop_
 _symmetry_equiv_pos_site_id
 _symmetry_equiv_pos_as_xyz
  1  'x, y, z'
loop_
 _atom_site_type_symbol
 _atom_site_label
 _atom_site_symmetry_multiplicity
 _atom_site_fract_x
 _atom_site_fract_y
 _atom_site_fract_z
 _atom_site_occupancy
  Li  Li0  1  0.93060100  0.13076300  0.81152100  1
  Li  Li1  1  0.19209500  0.62217700  0.56447500  1
  Li  Li2  1  0.43905800  0.12569500  0.31380000  1
  Li  Li3  1  0.55786800  0.87802500  0.68519200  1
  Li  Li4  1  0.82019800  0.36935800  0.43813400  1
  Li  Li5  1  0.06372800  0.87209400  0.18814000  1
  Li  Li6  1  0.68738700  0.62489200  0.06238400  1
  Li  Li7  1  0.30856400  0.37755300  0.93632100  1
  Li  Li8  1  0.87546000  0.24993600  0.62480600  1
  Mn  Mn0  1  0.99592100  0.99846900  0.99854700  1
  Mn  Mn1  1  0.37989000  0.25096500  0.12612100  1
  Co  Co0  1  0.25513500  0.49098600  0.74332600  1
  Co  Co1  1  0.49642600  0.00765900  0.50595400  1
  Co  Co2  1  0.75109400  0.50418800  0.25215900  1
  Co  Co3  1  0.12376800  0.75348100  0.37744900  1
  Co  Co4  1  0.62316900  0.74426300  0.87201000  1
  O  O0  1  0.44274800  0.04511200  0.90641400  1
  O  O1  1  0.69911400  0.55673200  0.66414300  1
  O  O2  1  0.94486400  0.04513400  0.41038500  1
  O  O3  1  0.11262000  0.78569600  0.78170100  1
  O  O4  1  0.35585400  0.28213500  0.52564300  1
  O  O5  1  0.60308600  0.79931800  0.28446500  1
  O  O6  1  0.23590000  0.54894800  0.16012100  1
  O  O7  1  0.81943000  0.29849100  0.03287300  1
  O  O8  1  0.39574000  0.21640400  0.72326000  1
  O  O9  1  0.63448300  0.71299400  0.46812700  1
  O  O10  1  0.93379700  0.20443000  0.21908600  1
  O  O11  1  0.05093900  0.94311100  0.58522900  1
  O  O12  1  0.26299000  0.45648900  0.34330900  1
  O  O13  1  0.55660100  0.95129700  0.09186900  1
  O  O14  1  0.14547500  0.70012200  0.96457800  1
  O  O15  1  0.80600100  0.45308200  0.83845500  1
loop_
_geom_bond_atom_site_label_1
_geom_bond_atom_site_label_2
_geom_bond_distance
_geom_bond_site_symmetry_2
Li0 O15 2.062961 1_555
Li0 O8 2.077540 1_655
Li0 O8 2.141008 1_555
Li0 O0 2.163589 1_655
Li0 O0 2.191002 1_555
Li0 O3 2.208317 1_645
Li1 O11 2.034028 1_555
Li1 O9 2.125409 1_555
Li1 O1 2.200326 1_555
Li1 O1 2.203001 1_455
Li1 O4 2.212664 1_555
Li1 O9 2.278625 1_455
Li2 O5 2.092487 1_545
Li2 O12 2.120158 1_555
Li2 O10 2.144123 1_455
Li2 O2 2.166917 1_555
Li2 O10 2.186772 1_555
Li2 O2 2.208669 1_455
Li3 O1 2.037016 1_555
Li3 O3 2.136771 1_555
Li3 O8 2.199407 1_565
Li3 O11 2.203466 1_555
Li3 O11 2.205487 1_655
Li3 O3 2.274936 1_655
Li4 O4 2.072747 1_555
Li4 O2 2.077452 1_555
Li4 O12 2.100830 1_655
Li4 O4 2.135681 1_655
Li4 O9 2.200323 1_555
Li4 O12 2.259861 1_555
Li5 O6 2.068398 1_555
Li5 O5 2.117687 1_455
Li5 O10 2.137812 1_465
Li5 O13 2.165597 1_455
Li5 O13 2.199443 1_555
Li5 O5 2.232836 1_555
Li6 O7 2.095770 1_555
Li6 O13 2.095894 1_555
Li6 O6 2.121362 1_555
Li6 O14 2.133731 1_654
Li6 O14 2.255059 1_554
Li6 O6 2.268708 1_655
Li7 O14 2.065536 1_555
Li7 O0 2.134069 1_555
Li7 O15 2.172809 1_455
Li7 O7 2.176488 1_556
Li7 O7 2.194028 1_456
Li7 O15 2.216447 1_555
Li8 O1 2.016440 1_555
Li8 O11 2.017695 1_645
Li8 O8 2.102789 1_555
Li8 O4 2.109730 1_655
Li8 O8 2.220950 1_655
Li8 O4 2.228127 1_555
Mn0 O14 1.940723 1_655
Mn0 O7 1.953451 1_566
Mn0 O13 1.988490 1_556
Mn0 O0 1.990075 1_665
Mn0 O0 2.220210 1_565
Mn0 O13 2.249726 1_656
Mn1 O6 1.938838 1_555
Mn1 O13 1.951046 1_545
Mn1 O7 1.988804 1_555
Mn1 O10 1.997252 1_455
Mn1 O10 2.230713 1_555
Mn1 O7 2.248332 1_455
Co0 O8 1.745763 1_555
Co0 O1 1.894068 1_555
Co0 O3 1.939428 1_555
Co0 O15 2.011437 1_455
Co0 O1 2.092959 1_455
Co0 O15 2.250301 1_555
Co1 O4 1.744039 1_555
Co1 O11 1.895415 1_545
Co1 O9 1.936762 1_545
Co1 O2 2.014112 1_555
Co1 O11 2.090222 1_645
Co1 O2 2.256807 1_455
Co2 O5 1.914288 1_555
Co2 O10 1.947314 1_555
Co2 O6 2.065530 1_655
Co2 O12 2.069210 1_555
Co2 O12 2.116551 1_655
Co2 O6 2.134301 1_555
Co3 O2 1.898003 1_465
Co3 O12 1.933725 1_555
Co3 O9 2.053565 1_455
Co3 O5 2.065523 1_555
Co3 O9 2.110901 1_555
Co3 O5 2.156491 1_455
Co4 O15 1.898442 1_555
Co4 O0 1.959149 1_565
Co4 O3 2.051915 1_655
Co4 O14 2.054617 1_555
Co4 O3 2.106182 1_555
Co4 O14 2.156059 1_655
