# generated using pymatgen
data_Sr3Bi2Se6O19
_symmetry_space_group_name_H-M   'P 1'
_cell_length_a   17.72412200
_cell_length_b   7.18188400
_cell_length_c   7.35961443
_cell_angle_alpha   88.10818146
_cell_angle_beta   90.00000000
_cell_angle_gamma   90.00000000
_symmetry_Int_Tables_number   1
_chemical_formula_structural   Sr3Bi2Se6O19
_chemical_formula_sum   'Sr6 Bi4 Se12 O38'
_cell_volume   936.31374368
_cell_formula_units_Z   2
loop_
 _symmetry_equiv_pos_site_id
 _symmetry_equiv_pos_as_xyz
  1  'x, y, z'
loop_
 _atom_site_type_symbol
 _atom_site_label
 _atom_site_symmetry_multiplicity
 _atom_site_fract_x
 _atom_site_fract_y
 _atom_site_fract_z
 _atom_site_occupancy
  Sr  Sr0  1  0.60631800  0.40383300  0.93613100  1
  Sr  Sr1  1  0.10631800  0.59616700  0.06386900  1
  Sr  Sr2  1  0.39368200  0.59616700  0.06386900  1
  Sr  Sr3  1  0.89368200  0.40383300  0.93613100  1
  Sr  Sr4  1  0.75000000  0.64057700  0.33524400  1
  Sr  Sr5  1  0.25000000  0.35942300  0.66475600  1
  Bi  Bi0  1  0.58374000  0.90412800  0.66178500  1
  Bi  Bi1  1  0.08374000  0.09587200  0.33821500  1
  Bi  Bi2  1  0.41626000  0.09587200  0.33821500  1
  Bi  Bi3  1  0.91626000  0.90412800  0.66178500  1
  Se  Se0  1  0.43045300  0.61732400  0.60780300  1
  Se  Se1  1  0.93045300  0.38267600  0.39219700  1
  Se  Se2  1  0.56954700  0.38267600  0.39219700  1
  Se  Se3  1  0.06954700  0.61732400  0.60780300  1
  Se  Se4  1  0.75000000  0.17229100  0.60888100  1
  Se  Se5  1  0.25000000  0.82770900  0.39111900  1
  Se  Se6  1  0.75000000  0.68710700  0.80991800  1
  Se  Se7  1  0.25000000  0.31289300  0.19008200  1
  Se  Se8  1  0.58099900  0.91036800  0.15573800  1
  Se  Se9  1  0.08099900  0.08963200  0.84426200  1
  Se  Se10  1  0.41900100  0.08963200  0.84426200  1
  Se  Se11  1  0.91900100  0.91036800  0.15573800  1
  O  O0  1  0.45318800  0.85756500  0.56254800  1
  O  O1  1  0.95318800  0.14243500  0.43745200  1
  O  O2  1  0.54681200  0.14243500  0.43745200  1
  O  O3  1  0.04681200  0.85756500  0.56254800  1
  O  O4  1  0.49430300  0.59024300  0.78338100  1
  O  O5  1  0.99430300  0.40975700  0.21661900  1
  O  O6  1  0.50569700  0.40975700  0.21661900  1
  O  O7  1  0.00569700  0.59024300  0.78338100  1
  O  O8  1  0.34743300  0.63123000  0.72118300  1
  O  O9  1  0.84743300  0.36877000  0.27881700  1
  O  O10  1  0.65256700  0.36877000  0.27881700  1
  O  O11  1  0.15256700  0.63123000  0.72118300  1
  O  O12  1  0.75000000  0.96175300  0.50559300  1
  O  O13  1  0.25000000  0.03824700  0.49440700  1
  O  O14  1  0.67182500  0.13994400  0.75336100  1
  O  O15  1  0.17182500  0.86005600  0.24663900  1
  O  O16  1  0.32817500  0.86005600  0.24663900  1
  O  O17  1  0.82817500  0.13994400  0.75336100  1
  O  O18  1  0.75000000  0.51718400  0.98009000  1
  O  O19  1  0.25000000  0.48281600  0.01991000  1
  O  O20  1  0.67504800  0.61209800  0.67555400  1
  O  O21  1  0.17504800  0.38790200  0.32444600  1
  O  O22  1  0.32495200  0.38790200  0.32444600  1
  O  O23  1  0.82495200  0.61209800  0.67555400  1
  O  O24  1  0.60502100  0.76941400  0.97895500  1
  O  O25  1  0.10502100  0.23058600  0.02104500  1
  O  O26  1  0.39497900  0.23058600  0.02104500  1
  O  O27  1  0.89497900  0.76941400  0.97895500  1
  O  O28  1  0.60985900  0.77570600  0.34111600  1
  O  O29  1  0.10985900  0.22429400  0.65888400  1
  O  O30  1  0.39014100  0.22429400  0.65888400  1
  O  O31  1  0.89014100  0.77570600  0.34111600  1
  O  O32  1  0.48204100  0.87890700  0.16488200  1
  O  O33  1  0.98204100  0.12109300  0.83511800  1
  O  O34  1  0.51795900  0.12109300  0.83511800  1
  O  O35  1  0.01795900  0.87890700  0.16488200  1
  O  O36  1  0.75000000  0.96843100  0.14845500  1
  O  O37  1  0.25000000  0.03156900  0.85154500  1
loop_
_geom_bond_atom_site_label_1
_geom_bond_atom_site_label_2
_geom_bond_distance
_geom_bond_site_symmetry_2
Bi0 O34 2.354984 1_565
Bi0 O14 2.415640 1_565
Bi0 O2 2.428343 1_565
Bi0 O0 2.452669 1_555
Bi0 O24 2.525457 1_555
Bi0 O28 2.603514 1_555
Bi0 O20 2.648411 1_555
Bi1 O35 2.354984 1_545
Bi1 O15 2.415640 1_545
Bi1 O3 2.428343 1_545
Bi1 O1 2.452669 1_455
Bi1 O25 2.525457 1_555
Bi1 O29 2.603514 1_555
Bi1 O21 2.648411 1_555
Bi2 O32 2.354984 1_545
Bi2 O16 2.415640 1_545
Bi2 O0 2.428343 1_545
Bi2 O2 2.452669 1_555
Bi2 O26 2.525457 1_555
Bi2 O30 2.603514 1_555
Bi2 O22 2.648411 1_555
Bi3 O33 2.354984 1_565
Bi3 O17 2.415640 1_565
Bi3 O1 2.428343 1_565
Bi3 O3 2.452669 1_655
Bi3 O27 2.525457 1_555
Bi3 O31 2.603514 1_555
Bi3 O23 2.648411 1_555
O0 Se0 1.792291 1_555
O1 Se1 1.792291 1_555
O2 Se2 1.792291 1_555
O3 Se3 1.792291 1_555
O4 Se0 1.723859 1_555
O4 Sr0 2.626484 1_555
O4 Sr2 2.729370 1_556
O5 Se1 1.723859 1_555
O5 Sr1 2.626484 1_655
O5 Sr3 2.729370 1_554
O6 Se2 1.723859 1_555
O6 Sr2 2.626484 1_555
O6 Sr0 2.729370 1_554
O7 Se3 1.723859 1_555
O7 Sr3 2.626484 1_455
O7 Sr1 2.729370 1_556
O8 Se0 1.696154 1_555
O8 Sr5 2.649312 1_555
O8 Sr2 2.655955 1_556
O9 Se1 1.696154 1_555
O9 Sr4 2.649312 1_555
O9 Sr3 2.655955 1_554
O10 Se2 1.696154 1_555
O10 Sr4 2.649312 1_555
O10 Sr0 2.655955 1_554
O11 Se3 1.696154 1_555
O11 Sr5 2.649312 1_555
O11 Sr1 2.655955 1_556
O12 Se4 1.714659 1_565
O12 Sr4 2.661453 1_555
O13 Se5 1.714659 1_545
O13 Sr5 2.661453 1_555
O14 Se4 1.757311 1_555
O14 Sr0 2.630126 1_555
O15 Se5 1.757311 1_555
O15 Sr1 2.630126 1_555
O16 Se5 1.757311 1_555
O16 Sr2 2.630126 1_555
O17 Se4 1.757311 1_555
O17 Sr3 2.630126 1_555
O18 Se6 1.719561 1_555
O18 Sr3 2.696318 1_555
O18 Sr0 2.696318 1_555
O18 Sr4 2.787509 1_556
O19 Se7 1.719561 1_555
O19 Sr2 2.696318 1_555
O19 Sr1 2.696318 1_555
O19 Sr5 2.787509 1_554
O20 Se6 1.751581 1_555
O20 Sr0 2.685060 1_555
O20 Sr4 2.836474 1_555
O21 Se7 1.751581 1_555
O21 Sr1 2.685060 1_555
O21 Sr5 2.836474 1_555
O22 Se7 1.751581 1_555
O22 Sr2 2.685060 1_555
O22 Sr5 2.836474 1_555
O23 Se6 1.751581 1_555
O23 Sr3 2.685060 1_555
O23 Sr4 2.836474 1_555
O24 Se8 1.727937 1_556
O24 Sr0 2.654819 1_555
O25 Se9 1.727937 1_554
O25 Sr1 2.654819 1_555
O26 Se10 1.727937 1_554
O26 Sr2 2.654819 1_555
O27 Se11 1.727937 1_556
O27 Sr3 2.654819 1_555
O28 Se8 1.723720 1_555
O28 Sr4 2.667604 1_555
O29 Se9 1.723720 1_555
O29 Sr5 2.667604 1_555
O30 Se10 1.723720 1_555
O30 Sr5 2.667604 1_555
O31 Se11 1.723720 1_555
O31 Sr4 2.667604 1_555
O32 Se8 1.769434 1_555
O32 Sr2 2.688554 1_555
O33 Se9 1.769434 1_655
O33 Sr3 2.688554 1_555
O34 Se10 1.769434 1_555
O34 Sr0 2.688554 1_555
O35 Se11 1.769434 1_455
O35 Sr1 2.688554 1_555
O36 Sr4 2.687054 1_555
O37 Sr5 2.687054 1_555
