# generated using pymatgen
data_H3F2
_symmetry_space_group_name_H-M   'P 1'
_cell_length_a   4.99191892
_cell_length_b   4.01856755
_cell_length_c   8.15201336
_cell_angle_alpha   121.01764358
_cell_angle_beta   69.09807905
_cell_angle_gamma   128.67768087
_symmetry_Int_Tables_number   1
_chemical_formula_structural   H3F2
_chemical_formula_sum   'H6 F4'
_cell_volume   109.26281562
_cell_formula_units_Z   2
loop_
 _symmetry_equiv_pos_site_id
 _symmetry_equiv_pos_as_xyz
  1  'x, y, z'
loop_
 _atom_site_type_symbol
 _atom_site_label
 _atom_site_symmetry_multiplicity
 _atom_site_fract_x
 _atom_site_fract_y
 _atom_site_fract_z
 _atom_site_occupancy
  H  H0  1  0.78862411  0.31505346  0.18702268  1
  H  H1  1  0.78604388  0.84427162  0.21580687  1
  H  H2  1  0.27371032  0.48957852  0.50952117  1
  H  H3  1  0.45821102  0.64420774  0.53028421  1
  H  H4  1  0.13024377  0.13409311  0.77472837  1
  H  H5  1  0.63375261  0.63984790  0.80307158  1
  F  F0  1  0.79321920  0.44820436  0.11082687  1
  F  F1  1  0.78876192  0.13436352  0.29136998  1
  F  F2  1  0.91300306  0.90715450  0.70744669  1
  F  F3  1  0.43444111  0.44322427  0.86991158  1
loop_
_geom_bond_atom_site_label_1
_geom_bond_atom_site_label_2
_geom_bond_distance
_geom_bond_site_symmetry_2
H2 H3 0.741999 1_555
F0 H0 0.994829 1_555
F0 H1 1.382941 1_555
F1 H1 0.992338 1_545
F1 H0 1.374205 1_555
F2 H4 0.990629 1_665
F2 H5 1.385934 1_555
F3 H5 0.992689 1_555
F3 H4 1.393115 1_555
