# generated using pymatgen
data_Li2CoCuO4
_symmetry_space_group_name_H-M   'P 1'
_cell_length_a   4.14791987
_cell_length_b   7.72157515
_cell_length_c   5.11688910
_cell_angle_alpha   103.90268426
_cell_angle_beta   113.91178254
_cell_angle_gamma   74.41831009
_symmetry_Int_Tables_number   1
_chemical_formula_structural   Li2CoCuO4
_chemical_formula_sum   'Li4 Co2 Cu2 O8'
_cell_volume   142.69811132
_cell_formula_units_Z   2
loop_
 _symmetry_equiv_pos_site_id
 _symmetry_equiv_pos_as_xyz
  1  'x, y, z'
loop_
 _atom_site_type_symbol
 _atom_site_label
 _atom_site_symmetry_multiplicity
 _atom_site_fract_x
 _atom_site_fract_y
 _atom_site_fract_z
 _atom_site_occupancy
  Li  Li0  1  0.74726200  0.87523400  0.36968200  1
  Li  Li1  1  0.74807600  0.37671200  0.87280900  1
  Li  Li2  1  0.50281700  0.74785200  0.75357400  1
  Li  Li3  1  0.49632100  0.25262500  0.24515500  1
  Co  Co0  1  0.99746600  0.50109300  0.49605800  1
  Co  Co1  1  0.00103700  0.00005600  0.00204500  1
  Cu  Cu0  1  0.25308200  0.12677900  0.63306900  1
  Cu  Cu1  1  0.24936200  0.62200600  0.12076200  1
  O  O0  1  0.02454000  0.24832000  0.29744200  1
  O  O1  1  0.01991700  0.72986100  0.76981500  1
  O  O2  1  0.47984600  0.00890200  0.96870700  1
  O  O3  1  0.47541800  0.51323600  0.46413400  1
  O  O4  1  0.22543700  0.88791900  0.33868000  1
  O  O5  1  0.24194900  0.37882500  0.86262100  1
  O  O6  1  0.76290900  0.61790500  0.14373000  1
  O  O7  1  0.77456300  0.11267600  0.66171600  1
loop_
_geom_bond_atom_site_label_1
_geom_bond_atom_site_label_2
_geom_bond_distance
_geom_bond_site_symmetry_2
Li0 O6 2.043684 1_555
Li0 O7 2.065195 1_565
Li0 O4 2.082064 1_555
Li0 O4 2.082225 1_655
Li0 O2 2.250106 1_564
Li0 O1 2.297034 1_655
Li1 O6 2.036119 1_556
Li1 O7 2.062279 1_555
Li1 O5 2.074522 1_555
Li1 O5 2.074719 1_655
Li1 O3 2.294534 1_555
Li1 O0 2.328829 1_656
Li2 O3 2.042820 1_555
Li2 O2 2.049276 1_565
Li2 O1 2.080320 1_655
Li2 O1 2.080460 1_555
Li2 O6 2.188912 1_556
Li2 O4 2.335646 1_555
Li3 O3 2.052795 1_555
Li3 O2 2.063673 1_554
Li3 O0 2.088816 1_655
Li3 O0 2.089458 1_555
Li3 O5 2.141076 1_554
Li3 O7 2.342148 1_555
Co0 O0 1.968899 1_655
Co0 O1 1.970980 1_655
Co0 O6 1.974431 1_555
Co0 O5 2.057301 1_655
Co0 O3 2.082200 1_655
Co0 O3 2.082312 1_555
Co1 O4 1.888708 1_545
Co1 O7 1.906292 1_454
Co1 O2 2.081185 1_554
Co1 O2 2.081996 1_454
Co1 O0 2.134844 1_555
Co1 O1 2.137114 1_544
Cu0 O2 1.909040 1_555
Cu0 O0 1.924982 1_555
Cu0 O5 2.016589 1_555
Cu0 O4 2.079056 1_545
Cu0 O7 2.081504 1_455
Cu0 O7 2.082372 1_555
Cu1 O3 1.903195 1_555
Cu1 O1 1.931706 1_554
Cu1 O5 2.019352 1_554
Cu1 O6 2.077151 1_455
Cu1 O6 2.077250 1_555
Cu1 O4 2.085458 1_555
