# generated using pymatgen
data_EuNi9Ge4
_symmetry_space_group_name_H-M   'P 1'
_cell_length_a   8.19732231
_cell_length_b   8.19732231
_cell_length_c   8.19732231
_cell_angle_alpha   121.67561898
_cell_angle_beta   121.67561898
_cell_angle_gamma   87.12144574
_symmetry_Int_Tables_number   1
_chemical_formula_structural   EuNi9Ge4
_chemical_formula_sum   'Eu2 Ni18 Ge8'
_cell_volume   379.10928371
_cell_formula_units_Z   2
loop_
 _symmetry_equiv_pos_site_id
 _symmetry_equiv_pos_as_xyz
  1  'x, y, z'
loop_
 _atom_site_type_symbol
 _atom_site_label
 _atom_site_symmetry_multiplicity
 _atom_site_fract_x
 _atom_site_fract_y
 _atom_site_fract_z
 _atom_site_occupancy
  Eu  Eu0  1  0.75000000  0.75000000  0.00000000  1
  Eu  Eu1  1  0.25000000  0.25000000  0.00000000  1
  Ni  Ni0  1  0.06710500  0.20358300  0.27068800  1
  Ni  Ni1  1  0.93289500  0.79641700  0.72931200  1
  Ni  Ni2  1  0.56710500  0.29641700  0.86352100  1
  Ni  Ni3  1  0.43289500  0.70358300  0.13647900  1
  Ni  Ni4  1  0.79641700  0.06710500  0.86352100  1
  Ni  Ni5  1  0.20358300  0.93289500  0.13647900  1
  Ni  Ni6  1  0.70358300  0.56710500  0.27068800  1
  Ni  Ni7  1  0.29641700  0.43289500  0.72931200  1
  Ni  Ni8  1  0.44269800  0.94269800  0.74840200  1
  Ni  Ni9  1  0.19429600  0.69429600  0.25159800  1
  Ni  Ni10  1  0.94269800  0.19429600  0.50000000  1
  Ni  Ni11  1  0.69429600  0.44269800  0.50000000  1
  Ni  Ni12  1  0.55730200  0.05730200  0.25159800  1
  Ni  Ni13  1  0.80570400  0.30570400  0.74840200  1
  Ni  Ni14  1  0.05730200  0.80570400  0.50000000  1
  Ni  Ni15  1  0.30570400  0.55730200  0.50000000  1
  Ni  Ni16  1  0.00000000  0.50000000  0.50000000  1
  Ni  Ni17  1  0.50000000  0.00000000  0.50000000  1
  Ge  Ge0  1  0.05123400  0.55123400  0.84772600  1
  Ge  Ge1  1  0.70350800  0.20350800  0.15227400  1
  Ge  Ge2  1  0.55123400  0.70350800  0.50000000  1
  Ge  Ge3  1  0.20350800  0.05123400  0.50000000  1
  Ge  Ge4  1  0.94876600  0.44876600  0.15227400  1
  Ge  Ge5  1  0.29649200  0.79649200  0.84772600  1
  Ge  Ge6  1  0.44876600  0.29649200  0.50000000  1
  Ge  Ge7  1  0.79649200  0.94876600  0.50000000  1
loop_
_geom_bond_atom_site_label_1
_geom_bond_atom_site_label_2
_geom_bond_distance
_geom_bond_site_symmetry_2
Eu0 Ni8 3.264952 1_554
Eu0 Ni11 3.264952 1_554
Eu0 Ni13 3.264952 1_554
Eu0 Ni15 3.264952 1_554
Eu0 Ni12 3.264952 1_565
Eu0 Ni14 3.264952 1_655
Eu0 Ni10 3.264952 1_565
Eu0 Ni9 3.264952 1_655
Eu0 Ge0 3.317742 1_654
Eu0 Ge3 3.317742 1_665
Eu0 Ge1 3.317742 1_565
Eu0 Ge4 3.317742 1_555
Eu0 Ge6 3.317742 1_554
Eu0 Ge5 3.317742 1_554
Eu0 Ge2 3.317742 1_554
Eu0 Ge7 3.317742 1_555
Eu0 Ni5 3.428388 1_655
Eu0 Ni2 3.428388 1_554
Eu0 Ni1 3.428392 1_554
Eu0 Ni0 3.428392 1_665
Eu0 Ni7 3.428392 1_554
Eu0 Ni6 3.428392 1_555
Eu0 Ni4 3.428399 1_564
Eu0 Ni3 3.428399 1_555
Eu1 Ni9 3.264952 1_555
Eu1 Ni11 3.264952 1_555
Eu1 Ni15 3.264952 1_555
Eu1 Ni12 3.264952 1_555
Eu1 Ni14 3.264952 1_544
Eu1 Ni13 3.264952 1_454
Eu1 Ni10 3.264952 1_454
Eu1 Ni8 3.264952 1_544
Eu1 Ge3 3.317742 1_554
Eu1 Ge4 3.317742 1_455
Eu1 Ge1 3.317742 1_555
Eu1 Ge7 3.317742 1_444
Eu1 Ge2 3.317742 1_555
Eu1 Ge6 3.317742 1_555
Eu1 Ge5 3.317742 1_544
Eu1 Ge0 3.317742 1_554
Eu1 Ni3 3.428388 1_555
Eu1 Ni4 3.428388 1_454
Eu1 Ni6 3.428392 1_555
Eu1 Ni0 3.428392 1_555
Eu1 Ni7 3.428392 1_554
Eu1 Ni1 3.428392 1_444
Eu1 Ni2 3.428399 1_554
Eu1 Ni5 3.428399 1_545
Ni0 Ni5 2.421793 1_545
Ni0 Ni4 2.421800 1_454
Ni0 Ni16 2.427952 1_555
Ni0 Ni7 2.590750 1_555
Ni0 Ni15 2.598184 1_555
Ni0 Ni10 2.598184 1_455
Ni1 Ni4 2.421793 1_565
Ni1 Ni5 2.421800 1_656
Ni1 Ni16 2.427952 1_655
Ni1 Ni6 2.590750 1_555
Ni1 Ni11 2.598184 1_555
Ni1 Ni14 2.598184 1_655
Ni2 Ni7 2.421793 1_555
Ni2 Ni6 2.421800 1_556
Ni2 Ni4 2.590750 1_555
Ni2 Ni8 2.598188 1_545
Ni3 Ni6 2.421793 1_555
Ni3 Ni7 2.421800 1_554
Ni3 Ni5 2.590750 1_555
Ni3 Ni9 2.598178 1_555
Ni4 Ni8 2.598188 1_545
Ni5 Ni9 2.598178 1_555
Ni10 Ni16 2.572678 1_655
Ni10 Ni7 2.598184 1_655
Ni11 Ni16 2.572678 1_655
Ni11 Ni6 2.598184 1_555
Ni12 Ni17 2.572678 1_555
Ni12 Ni3 2.598188 1_545
Ni12 Ni5 2.598188 1_545
Ni13 Ni17 2.572678 1_555
Ni13 Ni2 2.598178 1_555
Ni13 Ni4 2.598178 1_555
Ni14 Ni16 2.572678 1_555
Ni14 Ni6 2.598184 1_455
Ni15 Ni16 2.572678 1_555
Ni15 Ni7 2.598184 1_555
Ni16 Ni7 2.427952 1_555
Ni16 Ni6 2.427952 1_455
Ni17 Ni5 2.427947 1_545
Ni17 Ni4 2.427947 1_555
Ni17 Ni3 2.427947 1_545
Ni17 Ni2 2.427947 1_555
Ni17 Ni8 2.572678 1_545
Ni17 Ni9 2.572678 1_545
Ge0 Ni9 2.386266 1_556
Ge0 Ni13 2.393656 1_455
Ge0 Ni16 2.445589 1_555
Ge0 Ni11 2.513298 1_455
Ge0 Ni10 2.513298 1_455
Ge0 Ni5 2.541871 1_556
Ge0 Ni3 2.541871 1_556
Ge0 Ni1 2.605162 1_455
Ge0 Ni7 2.605162 1_555
Ge1 Ni8 2.386266 1_544
Ge1 Ni12 2.393656 1_555
Ge1 Ni16 2.445589 1_655
Ge1 Ni10 2.513298 1_555
Ge1 Ni11 2.513298 1_555
Ge1 Ni4 2.541878 1_554
Ge1 Ni2 2.541878 1_554
Ge1 Ni6 2.605162 1_555
Ge1 Ni0 2.605162 1_655
Ge2 Ni11 2.386266 1_555
Ge2 Ni15 2.393656 1_555
Ge2 Ni17 2.445589 1_565
Ge2 Ni9 2.513298 1_555
Ge2 Ni8 2.513298 1_555
Ge2 Ni1 2.541871 1_555
Ge2 Ni6 2.541871 1_555
Ge2 Ni3 2.605154 1_555
Ge2 Ni4 2.605160 1_565
Ge3 Ni10 2.386266 1_455
Ge3 Ni14 2.393656 1_545
Ge3 Ni17 2.445589 1_555
Ge3 Ni8 2.513298 1_545
Ge3 Ni9 2.513298 1_545
Ge3 Ni0 2.541871 1_555
Ge3 Ni7 2.541871 1_555
Ge3 Ni5 2.605154 1_545
Ge3 Ni2 2.605160 1_555
Ge4 Ni13 2.386266 1_554
Ge4 Ni9 2.393656 1_655
Ge4 Ni16 2.445589 1_655
Ge4 Ni14 2.513298 1_655
Ge4 Ni15 2.513298 1_655
Ge4 Ni2 2.541871 1_554
Ge4 Ni4 2.541871 1_554
Ge4 Ni0 2.605162 1_655
Ge4 Ni6 2.605162 1_555
Ge5 Ni12 2.386266 1_566
Ge5 Ni8 2.393656 1_555
Ge5 Ni16 2.445589 1_555
Ge5 Ni14 2.513298 1_555
Ge5 Ni15 2.513298 1_555
Ge5 Ni3 2.541878 1_556
Ge5 Ni5 2.541878 1_556
Ge5 Ni7 2.605162 1_555
Ge5 Ni1 2.605162 1_455
Ge6 Ni15 2.386266 1_555
Ge6 Ni11 2.393656 1_555
Ge6 Ni17 2.445589 1_555
Ge6 Ni12 2.513298 1_555
Ge6 Ni13 2.513298 1_555
Ge6 Ni7 2.541871 1_555
Ge6 Ni0 2.541871 1_555
Ge6 Ni2 2.605154 1_555
Ge6 Ni5 2.605160 1_545
Ge7 Ni14 2.386266 1_655
Ge7 Ni10 2.393656 1_565
Ge7 Ni17 2.445589 1_565
Ge7 Ni12 2.513298 1_565
Ge7 Ni13 2.513298 1_565
Ge7 Ni6 2.541871 1_555
Ge7 Ni1 2.541871 1_555
Ge7 Ni4 2.605154 1_565
Ge7 Ni3 2.605160 1_555
