# generated using pymatgen
data_Mg30FeSiO32
_symmetry_space_group_name_H-M   'P 1'
_cell_length_a   8.52961700
_cell_length_b   8.52961700
_cell_length_c   8.56434500
_cell_angle_alpha   90.00000000
_cell_angle_beta   90.00000000
_cell_angle_gamma   90.00000000
_symmetry_Int_Tables_number   1
_chemical_formula_structural   Mg30FeSiO32
_chemical_formula_sum   'Mg30 Fe1 Si1 O32'
_cell_volume   623.09349211
_cell_formula_units_Z   1
loop_
 _symmetry_equiv_pos_site_id
 _symmetry_equiv_pos_as_xyz
  1  'x, y, z'
loop_
 _atom_site_type_symbol
 _atom_site_label
 _atom_site_symmetry_multiplicity
 _atom_site_fract_x
 _atom_site_fract_y
 _atom_site_fract_z
 _atom_site_occupancy
  Mg  Mg0  1  0.00000000  0.50000000  0.00000000  1
  Mg  Mg1  1  0.00000000  0.50000000  0.50000000  1
  Mg  Mg2  1  0.50000000  0.00000000  0.00000000  1
  Mg  Mg3  1  0.50000000  0.00000000  0.50000000  1
  Mg  Mg4  1  0.50000000  0.50000000  0.00000000  1
  Mg  Mg5  1  0.50000000  0.50000000  0.50000000  1
  Mg  Mg6  1  0.00000000  0.24891300  0.24545900  1
  Mg  Mg7  1  0.00000000  0.24891300  0.75454100  1
  Mg  Mg8  1  0.00000000  0.75108700  0.24545900  1
  Mg  Mg9  1  0.00000000  0.75108700  0.75454100  1
  Mg  Mg10  1  0.50000000  0.24996800  0.24893700  1
  Mg  Mg11  1  0.50000000  0.24996800  0.75106300  1
  Mg  Mg12  1  0.50000000  0.75003200  0.24893700  1
  Mg  Mg13  1  0.50000000  0.75003200  0.75106300  1
  Mg  Mg14  1  0.24891300  0.00000000  0.24545900  1
  Mg  Mg15  1  0.24891300  0.00000000  0.75454100  1
  Mg  Mg16  1  0.24996800  0.50000000  0.24893700  1
  Mg  Mg17  1  0.24996800  0.50000000  0.75106300  1
  Mg  Mg18  1  0.75108700  0.00000000  0.24545900  1
  Mg  Mg19  1  0.75108700  0.00000000  0.75454100  1
  Mg  Mg20  1  0.75003200  0.50000000  0.24893700  1
  Mg  Mg21  1  0.75003200  0.50000000  0.75106300  1
  Mg  Mg22  1  0.24937300  0.24937300  0.00000000  1
  Mg  Mg23  1  0.25067000  0.25067000  0.50000000  1
  Mg  Mg24  1  0.24937300  0.75062700  0.00000000  1
  Mg  Mg25  1  0.25067000  0.74933000  0.50000000  1
  Mg  Mg26  1  0.75062700  0.24937300  0.00000000  1
  Mg  Mg27  1  0.74933000  0.25067000  0.50000000  1
  Mg  Mg28  1  0.75062700  0.75062700  0.00000000  1
  Mg  Mg29  1  0.74933000  0.74933000  0.50000000  1
  Fe  Fe0  1  0.00000000  0.00000000  0.00000000  1
  Si  Si0  1  0.00000000  0.00000000  0.50000000  1
  O  O0  1  0.26043800  0.00000000  0.00000000  1
  O  O1  1  0.22641000  0.00000000  0.50000000  1
  O  O2  1  0.25106500  0.50000000  0.00000000  1
  O  O3  1  0.24689700  0.50000000  0.50000000  1
  O  O4  1  0.73956200  0.00000000  0.00000000  1
  O  O5  1  0.77359000  0.00000000  0.50000000  1
  O  O6  1  0.74893500  0.50000000  0.00000000  1
  O  O7  1  0.75310300  0.50000000  0.50000000  1
  O  O8  1  0.24910600  0.24910600  0.25132800  1
  O  O9  1  0.24910600  0.24910600  0.74867200  1
  O  O10  1  0.24910600  0.75089400  0.25132800  1
  O  O11  1  0.24910600  0.75089400  0.74867200  1
  O  O12  1  0.75089400  0.24910600  0.25132800  1
  O  O13  1  0.75089400  0.24910600  0.74867200  1
  O  O14  1  0.75089400  0.75089400  0.25132800  1
  O  O15  1  0.75089400  0.75089400  0.74867200  1
  O  O16  1  0.00000000  0.00000000  0.29248500  1
  O  O17  1  0.00000000  0.00000000  0.70751500  1
  O  O18  1  0.00000000  0.50000000  0.25619100  1
  O  O19  1  0.00000000  0.50000000  0.74380900  1
  O  O20  1  0.50000000  0.00000000  0.25619100  1
  O  O21  1  0.50000000  0.00000000  0.74380900  1
  O  O22  1  0.50000000  0.50000000  0.25188200  1
  O  O23  1  0.50000000  0.50000000  0.74811800  1
  O  O24  1  0.00000000  0.26043800  0.00000000  1
  O  O25  1  0.00000000  0.22641000  0.50000000  1
  O  O26  1  0.00000000  0.73956200  0.00000000  1
  O  O27  1  0.00000000  0.77359000  0.50000000  1
  O  O28  1  0.50000000  0.25106500  0.00000000  1
  O  O29  1  0.50000000  0.24689700  0.50000000  1
  O  O30  1  0.50000000  0.74893500  0.00000000  1
  O  O31  1  0.50000000  0.75310300  0.50000000  1
loop_
_geom_bond_atom_site_label_1
_geom_bond_atom_site_label_2
_geom_bond_distance
_geom_bond_site_symmetry_2
Mg0 O24 2.043372 1_555
Mg0 O26 2.043372 1_555
Mg0 O6 2.141488 1_455
Mg0 O2 2.141488 1_555
Mg0 O19 2.194108 1_554
Mg0 O18 2.194108 1_555
Mg1 O18 2.088064 1_555
Mg1 O19 2.088064 1_555
Mg1 O7 2.105937 1_455
Mg1 O3 2.105937 1_555
Mg1 O27 2.333618 1_555
Mg1 O25 2.333618 1_555
Mg2 O0 2.043372 1_555
Mg2 O4 2.043372 1_555
Mg2 O28 2.141488 1_555
Mg2 O30 2.141488 1_545
Mg2 O21 2.194108 1_554
Mg2 O20 2.194108 1_555
Mg3 O20 2.088064 1_555
Mg3 O21 2.088064 1_555
Mg3 O31 2.105937 1_545
Mg3 O29 2.105937 1_555
Mg3 O1 2.333618 1_555
Mg3 O5 2.333618 1_555
Mg4 O30 2.123320 1_555
Mg4 O2 2.123320 1_555
Mg4 O28 2.123320 1_555
Mg4 O6 2.123320 1_555
Mg4 O22 2.157204 1_555
Mg4 O23 2.157204 1_554
Mg5 O23 2.124968 1_555
Mg5 O22 2.124968 1_555
Mg5 O29 2.158872 1_555
Mg5 O7 2.158872 1_555
Mg5 O31 2.158872 1_555
Mg5 O3 2.158872 1_555
Mg6 O24 2.104493 1_555
Mg6 O8 2.125374 1_555
Mg6 O12 2.125374 1_455
Mg6 O18 2.143647 1_555
Mg6 O16 2.160994 1_555
Mg6 O25 2.188411 1_555
Mg7 O24 2.104493 1_556
Mg7 O9 2.125374 1_555
Mg7 O13 2.125374 1_455
Mg7 O19 2.143647 1_555
Mg7 O17 2.160994 1_555
Mg7 O25 2.188411 1_555
Mg8 O26 2.104493 1_555
Mg8 O10 2.125374 1_555
Mg8 O14 2.125374 1_455
Mg8 O18 2.143647 1_555
Mg8 O16 2.160994 1_565
Mg8 O27 2.188411 1_555
Mg9 O26 2.104493 1_556
Mg9 O11 2.125374 1_555
Mg9 O15 2.125374 1_455
Mg9 O19 2.143647 1_555
Mg9 O17 2.160994 1_565
Mg9 O27 2.188411 1_555
Mg10 O28 2.132003 1_555
Mg10 O22 2.132826 1_555
Mg10 O20 2.133036 1_555
Mg10 O12 2.140140 1_555
Mg10 O8 2.140140 1_555
Mg10 O29 2.150350 1_555
Mg11 O28 2.132003 1_556
Mg11 O23 2.132826 1_555
Mg11 O21 2.133036 1_555
Mg11 O13 2.140140 1_555
Mg11 O9 2.140140 1_555
Mg11 O29 2.150350 1_555
Mg12 O30 2.132003 1_555
Mg12 O22 2.132826 1_555
Mg12 O20 2.133036 1_565
Mg12 O14 2.140140 1_555
Mg12 O10 2.140140 1_555
Mg12 O31 2.150350 1_555
Mg13 O30 2.132003 1_556
Mg13 O23 2.132826 1_555
Mg13 O21 2.133036 1_565
Mg13 O15 2.140140 1_555
Mg13 O11 2.140140 1_555
Mg13 O31 2.150350 1_555
Mg14 O0 2.104493 1_555
Mg14 O8 2.125374 1_555
Mg14 O10 2.125374 1_545
Mg14 O20 2.143647 1_555
Mg14 O16 2.160994 1_555
Mg14 O1 2.188411 1_555
Mg15 O0 2.104493 1_556
Mg15 O9 2.125374 1_555
Mg15 O11 2.125374 1_545
Mg15 O21 2.143647 1_555
Mg15 O17 2.160994 1_555
Mg15 O1 2.188411 1_555
Mg16 O2 2.132003 1_555
Mg16 O22 2.132826 1_555
Mg16 O18 2.133036 1_555
Mg16 O10 2.140140 1_555
Mg16 O8 2.140140 1_555
Mg16 O3 2.150350 1_555
Mg17 O2 2.132003 1_556
Mg17 O23 2.132826 1_555
Mg17 O19 2.133036 1_555
Mg17 O11 2.140140 1_555
Mg17 O9 2.140140 1_555
Mg17 O3 2.150350 1_555
Mg18 O4 2.104493 1_555
Mg18 O12 2.125374 1_555
Mg18 O14 2.125374 1_545
Mg18 O20 2.143647 1_555
Mg18 O16 2.160994 1_655
Mg18 O5 2.188411 1_555
Mg19 O4 2.104493 1_556
Mg19 O13 2.125374 1_555
Mg19 O15 2.125374 1_545
Mg19 O21 2.143647 1_555
Mg19 O17 2.160994 1_655
Mg19 O5 2.188411 1_555
Mg20 O6 2.132003 1_555
Mg20 O22 2.132826 1_555
Mg20 O18 2.133036 1_655
Mg20 O14 2.140140 1_555
Mg20 O12 2.140140 1_555
Mg20 O7 2.150350 1_555
Mg21 O6 2.132003 1_556
Mg21 O23 2.132826 1_555
Mg21 O19 2.133036 1_655
Mg21 O15 2.140140 1_555
Mg21 O13 2.140140 1_555
Mg21 O7 2.150350 1_555
Mg22 O0 2.129149 1_555
Mg22 O24 2.129149 1_555
Mg22 O2 2.137801 1_555
Mg22 O28 2.137801 1_555
Mg22 O8 2.152462 1_555
Mg22 O9 2.152462 1_554
Mg23 O3 2.126933 1_555
Mg23 O29 2.126933 1_555
Mg23 O8 2.129796 1_555
Mg23 O9 2.129796 1_555
Mg23 O25 2.148109 1_555
Mg23 O1 2.148109 1_555
Mg24 O0 2.129149 1_565
Mg24 O26 2.129149 1_555
Mg24 O30 2.137801 1_555
Mg24 O2 2.137801 1_555
Mg24 O10 2.152462 1_555
Mg24 O11 2.152462 1_554
Mg25 O31 2.126933 1_555
Mg25 O3 2.126933 1_555
Mg25 O11 2.129796 1_555
Mg25 O10 2.129796 1_555
Mg25 O1 2.148109 1_565
Mg25 O27 2.148109 1_555
Mg26 O24 2.129149 1_655
Mg26 O4 2.129149 1_555
Mg26 O6 2.137801 1_555
Mg26 O28 2.137801 1_555
Mg26 O13 2.152462 1_554
Mg26 O12 2.152462 1_555
Mg27 O7 2.126933 1_555
Mg27 O29 2.126933 1_555
Mg27 O13 2.129796 1_555
Mg27 O12 2.129796 1_555
Mg27 O25 2.148109 1_655
Mg27 O5 2.148109 1_555
Mg28 O26 2.129149 1_655
Mg28 O4 2.129149 1_565
Mg28 O30 2.137801 1_555
Mg28 O6 2.137801 1_555
Mg28 O14 2.152462 1_555
Mg28 O15 2.152462 1_554
Mg29 O7 2.126933 1_555
Mg29 O31 2.126933 1_555
Mg29 O14 2.129796 1_555
Mg29 O15 2.129796 1_555
Mg29 O27 2.148109 1_655
Mg29 O5 2.148109 1_565
Fe0 O26 2.221436 1_545
Fe0 O4 2.221436 1_455
Fe0 O24 2.221436 1_555
Fe0 O0 2.221436 1_555
Fe0 O17 2.504942 1_554
Fe0 O16 2.504942 1_555
O1 Si0 1.931191 1_555
O5 Si0 1.931191 1_655
O16 Si0 1.777230 1_555
O17 Si0 1.777230 1_555
O25 Si0 1.931191 1_555
O27 Si0 1.931191 1_565
