# generated using pymatgen
data_Eu2H16S3O20
_symmetry_space_group_name_H-M   'P 1'
_cell_length_a   7.83076693
_cell_length_b   7.83076693
_cell_length_c   18.90192480
_cell_angle_alpha   78.68693779
_cell_angle_beta   78.68693779
_cell_angle_gamma   53.17203170
_symmetry_Int_Tables_number   1
_chemical_formula_structural   Eu2H16S3O20
_chemical_formula_sum   'Eu4 H32 S6 O40'
_cell_volume   905.17742710
_cell_formula_units_Z   2
loop_
 _symmetry_equiv_pos_site_id
 _symmetry_equiv_pos_as_xyz
  1  'x, y, z'
loop_
 _atom_site_type_symbol
 _atom_site_label
 _atom_site_symmetry_multiplicity
 _atom_site_fract_x
 _atom_site_fract_y
 _atom_site_fract_z
 _atom_site_occupancy
  Eu  Eu0  1  0.30436700  0.35695400  0.39372100  1
  Eu  Eu1  1  0.64304600  0.69563300  0.10627900  1
  Eu  Eu2  1  0.69563300  0.64304600  0.60627900  1
  Eu  Eu3  1  0.35695400  0.30436700  0.89372100  1
  H  H0  1  0.03275600  0.20524400  0.48616300  1
  H  H1  1  0.79475600  0.96724400  0.01383700  1
  H  H2  1  0.96724400  0.79475600  0.51383700  1
  H  H3  1  0.20524400  0.03275600  0.98616300  1
  H  H4  1  0.27696200  0.00794500  0.48463600  1
  H  H5  1  0.99205500  0.72303800  0.01536400  1
  H  H6  1  0.72303800  0.99205500  0.51536400  1
  H  H7  1  0.00794500  0.27696200  0.98463600  1
  H  H8  1  0.65306300  0.44546700  0.35396300  1
  H  H9  1  0.55453300  0.34693700  0.14603700  1
  H  H10  1  0.34693700  0.55453300  0.64603700  1
  H  H11  1  0.44546700  0.65306300  0.85396300  1
  H  H12  1  0.78464300  0.19680500  0.34506700  1
  H  H13  1  0.80319500  0.21535700  0.15493300  1
  H  H14  1  0.21535700  0.80319500  0.65493300  1
  H  H15  1  0.19680500  0.78464300  0.84506700  1
  H  H16  1  0.17506300  0.81094300  0.39659400  1
  H  H17  1  0.18905700  0.82493700  0.10340600  1
  H  H18  1  0.82493700  0.18905700  0.60340600  1
  H  H19  1  0.81094300  0.17506300  0.89659400  1
  H  H20  1  0.33831700  0.68135200  0.45573700  1
  H  H21  1  0.31864800  0.66168300  0.04426300  1
  H  H22  1  0.66168300  0.31864800  0.54426300  1
  H  H23  1  0.68135200  0.33831700  0.95573700  1
  H  H24  1  0.24219200  0.29656600  0.24699900  1
  H  H25  1  0.70343400  0.75780800  0.25300100  1
  H  H26  1  0.75780800  0.70343400  0.75300100  1
  H  H27  1  0.29656600  0.24219200  0.74699900  1
  H  H28  1  0.21890000  0.12843500  0.30264100  1
  H  H29  1  0.87156500  0.78110000  0.19735900  1
  H  H30  1  0.78110000  0.87156500  0.69735900  1
  H  H31  1  0.12843500  0.21890000  0.80264100  1
  S  S0  1  0.31385000  0.25334700  0.58897100  1
  S  S1  1  0.74665300  0.68615000  0.91102900  1
  S  S2  1  0.68615000  0.74665300  0.41102900  1
  S  S3  1  0.25334700  0.31385000  0.08897100  1
  S  S4  1  0.17581100  0.82418900  0.25000000  1
  S  S5  1  0.82418900  0.17581100  0.75000000  1
  O  O0  1  0.17125800  0.13810900  0.45601900  1
  O  O1  1  0.86189100  0.82874200  0.04398100  1
  O  O2  1  0.82874200  0.86189100  0.54398100  1
  O  O3  1  0.13810900  0.17125800  0.95601900  1
  O  O4  1  0.64392700  0.32258800  0.36141900  1
  O  O5  1  0.67741200  0.35607300  0.13858100  1
  O  O6  1  0.35607300  0.67741200  0.63858100  1
  O  O7  1  0.32258800  0.64392700  0.86141900  1
  O  O8  1  0.21903100  0.69784100  0.43796200  1
  O  O9  1  0.30215900  0.78096900  0.06203800  1
  O  O10  1  0.78096900  0.30215900  0.56203800  1
  O  O11  1  0.69784100  0.21903100  0.93796200  1
  O  O12  1  0.24796300  0.23633100  0.29809600  1
  O  O13  1  0.76366900  0.75203700  0.20190400  1
  O  O14  1  0.75203700  0.76366900  0.70190400  1
  O  O15  1  0.23633100  0.24796300  0.79809600  1
  O  O16  1  0.62277100  0.97021000  0.39803000  1
  O  O17  1  0.02979000  0.37722900  0.10197000  1
  O  O18  1  0.37722900  0.02979000  0.60197000  1
  O  O19  1  0.97021000  0.62277100  0.89803000  1
  O  O20  1  0.36833900  0.30594600  0.64820400  1
  O  O21  1  0.69405400  0.63166100  0.85179600  1
  O  O22  1  0.63166100  0.69405400  0.35179600  1
  O  O23  1  0.30594600  0.36833900  0.14820400  1
  O  O24  1  0.43076100  0.27673800  0.51806000  1
  O  O25  1  0.72326200  0.56923900  0.98194000  1
  O  O26  1  0.56923900  0.72326200  0.48194000  1
  O  O27  1  0.27673800  0.43076100  0.01806000  1
  O  O28  1  0.92015900  0.59712700  0.41848400  1
  O  O29  1  0.40287300  0.07984100  0.08151600  1
  O  O30  1  0.07984100  0.40287300  0.58151600  1
  O  O31  1  0.59712700  0.92015900  0.91848400  1
  O  O32  1  0.21857200  0.61745400  0.28727100  1
  O  O33  1  0.38254600  0.78142800  0.21272900  1
  O  O34  1  0.78142800  0.38254600  0.71272900  1
  O  O35  1  0.61745400  0.21857200  0.78727100  1
  O  O36  1  0.08963700  0.97706500  0.30537000  1
  O  O37  1  0.02293500  0.91036300  0.19463000  1
  O  O38  1  0.91036300  0.02293500  0.69463000  1
  O  O39  1  0.97706500  0.08963700  0.80537000  1
loop_
_geom_bond_atom_site_label_1
_geom_bond_atom_site_label_2
_geom_bond_distance
_geom_bond_site_symmetry_2
Eu0 O28 2.411956 1_455
Eu0 O12 2.416106 1_555
Eu0 O32 2.436846 1_555
Eu0 O4 2.466825 1_555
Eu0 O0 2.505617 1_555
Eu0 O16 2.515085 1_545
Eu0 O24 2.546755 1_555
Eu0 O8 2.605695 1_555
Eu1 O29 2.411956 1_565
Eu1 O13 2.416106 1_555
Eu1 O33 2.436846 1_555
Eu1 O5 2.466825 1_555
Eu1 O1 2.505617 1_555
Eu1 O17 2.515085 1_655
Eu1 O25 2.546755 1_554
Eu1 O9 2.605695 1_555
Eu2 O30 2.411956 1_655
Eu2 O14 2.416106 1_555
Eu2 O34 2.436846 1_555
Eu2 O6 2.466825 1_555
Eu2 O2 2.505617 1_555
Eu2 O18 2.515085 1_565
Eu2 O26 2.546755 1_555
Eu2 O10 2.605695 1_555
Eu3 O31 2.411956 1_545
Eu3 O15 2.416106 1_555
Eu3 O35 2.436846 1_555
Eu3 O7 2.466825 1_555
Eu3 O3 2.505617 1_555
Eu3 O19 2.515085 1_455
Eu3 O27 2.546755 1_556
Eu3 O11 2.605695 1_555
H0 O0 0.984304 1_555
H1 O1 0.984304 1_555
H2 O2 0.984304 1_555
H3 O3 0.984304 1_555
H4 O0 0.982131 1_555
H5 O1 0.982131 1_555
H6 O2 0.982131 1_555
H7 O3 0.982131 1_555
H8 O4 0.988052 1_555
H9 O5 0.988052 1_555
H10 O6 0.988052 1_555
H11 O7 0.988052 1_555
H12 O4 0.982134 1_555
H13 O5 0.982134 1_555
H14 O6 0.982134 1_555
H15 O7 0.982134 1_555
H16 O8 0.991328 1_555
H17 O9 0.991328 1_555
H18 O10 0.991328 1_555
H19 O11 0.991328 1_555
H20 O8 0.981641 1_555
H21 O9 0.981641 1_555
H22 O10 0.981641 1_555
H23 O11 0.981641 1_555
H24 O12 0.984984 1_555
H25 O13 0.984984 1_555
H26 O14 0.984984 1_555
H27 O15 0.984984 1_555
H28 O12 0.983574 1_555
H29 O13 0.983574 1_555
H30 O14 0.983574 1_555
H31 O15 0.983574 1_555
O16 S2 1.486223 1_555
O17 S3 1.486223 1_555
O18 S0 1.486223 1_555
O19 S1 1.486223 1_555
O20 S0 1.477945 1_555
O21 S1 1.477945 1_555
O22 S2 1.477945 1_555
O23 S3 1.477945 1_555
O24 S0 1.513776 1_555
O25 S1 1.513776 1_555
O26 S2 1.513776 1_555
O27 S3 1.513776 1_555
O28 S2 1.487660 1_555
O29 S3 1.487660 1_555
O30 S0 1.487660 1_555
O31 S1 1.487660 1_555
O32 S4 1.491466 1_555
O33 S4 1.491466 1_555
O34 S5 1.491466 1_555
O35 S5 1.491466 1_555
O36 S4 1.493283 1_555
O37 S4 1.493283 1_555
O38 S5 1.493283 1_555
O39 S5 1.493283 1_555
