# generated using pymatgen
data_P3Ir
_symmetry_space_group_name_H-M   'P 1'
_cell_length_a   6.96602673
_cell_length_b   6.96602598
_cell_length_c   6.96602730
_cell_angle_alpha   109.47122149
_cell_angle_beta   109.47121932
_cell_angle_gamma   109.47122412
_symmetry_Int_Tables_number   1
_chemical_formula_structural   P3Ir
_chemical_formula_sum   'P12 Ir4'
_cell_volume   260.21569759
_cell_formula_units_Z   4
loop_
 _symmetry_equiv_pos_site_id
 _symmetry_equiv_pos_as_xyz
  1  'x, y, z'
loop_
 _atom_site_type_symbol
 _atom_site_label
 _atom_site_symmetry_multiplicity
 _atom_site_fract_x
 _atom_site_fract_y
 _atom_site_fract_z
 _atom_site_occupancy
  P  P0  1  0.50661821  0.86116300  0.64545321  1
  P  P1  1  0.21570979  0.86116300  0.35454679  1
  P  P2  1  0.78429021  0.13883700  0.64545321  1
  P  P3  1  0.13883700  0.35454679  0.49338179  1
  P  P4  1  0.49338179  0.13883700  0.35454679  1
  P  P5  1  0.13883700  0.64545321  0.78429021  1
  P  P6  1  0.35454679  0.21570979  0.86116300  1
  P  P7  1  0.86116300  0.64545321  0.50661821  1
  P  P8  1  0.64545321  0.78429021  0.13883700  1
  P  P9  1  0.86116300  0.35454679  0.21570979  1
  P  P10  1  0.64545321  0.50661821  0.86116300  1
  P  P11  1  0.35454679  0.49338179  0.13883700  1
  Ir  Ir0  1  0.50000000  0.00000000  0.00000000  1
  Ir  Ir1  1  -0.00000000  0.00000000  0.50000000  1
  Ir  Ir2  1  -0.00000000  0.50000000  0.00000000  1
  Ir  Ir3  1  0.50000000  0.50000000  0.50000000  1
loop_
_geom_bond_atom_site_label_1
_geom_bond_atom_site_label_2
_geom_bond_distance
_geom_bond_site_symmetry_2
P0 P2 2.233511 1_565
P0 P1 2.339965 1_555
P1 P4 2.233511 1_565
P2 P4 2.339965 1_555
P3 P9 2.233511 1_455
P3 P5 2.339965 1_555
P5 P7 2.233511 1_455
P7 P9 2.339965 1_555
P10 P8 2.233511 1_556
P10 P6 2.339964 1_555
P11 P6 2.233511 1_554
P11 P8 2.339964 1_555
Ir0 P5 2.355949 1_544
Ir0 P9 2.355949 1_555
Ir0 P8 2.355949 1_545
Ir0 P6 2.355949 1_554
Ir0 P4 2.355956 1_555
Ir0 P0 2.355956 1_544
Ir1 P1 2.355949 1_545
Ir1 P2 2.355949 1_455
Ir1 P6 2.355949 1_555
Ir1 P8 2.355949 1_445
Ir1 P7 2.355956 1_445
Ir1 P3 2.355956 1_555
Ir2 P1 2.355949 1_555
Ir2 P2 2.355949 1_454
Ir2 P5 2.355949 1_554
Ir2 P9 2.355949 1_455
Ir2 P10 2.355956 1_454
Ir2 P11 2.355956 1_555
Ir3 P4 2.355942 1_555
Ir3 P0 2.355942 1_555
Ir3 P3 2.355942 1_555
Ir3 P7 2.355942 1_555
Ir3 P11 2.355942 1_555
Ir3 P10 2.355942 1_555
