# generated using pymatgen
data_CsCeMg14
_symmetry_space_group_name_H-M   'P 1'
_cell_length_a   6.80781908
_cell_length_b   6.80781908
_cell_length_c   10.86250100
_cell_angle_alpha   90.00000000
_cell_angle_beta   90.00000000
_cell_angle_gamma   124.84471794
_symmetry_Int_Tables_number   1
_chemical_formula_structural   CsCeMg14
_chemical_formula_sum   'Cs1 Ce1 Mg14'
_cell_volume   413.17319933
_cell_formula_units_Z   1
loop_
 _symmetry_equiv_pos_site_id
 _symmetry_equiv_pos_as_xyz
  1  'x, y, z'
loop_
 _atom_site_type_symbol
 _atom_site_label
 _atom_site_symmetry_multiplicity
 _atom_site_fract_x
 _atom_site_fract_y
 _atom_site_fract_z
 _atom_site_occupancy
  Cs  Cs0  1  0.32918500  0.67081500  0.50000000  1
  Ce  Ce0  1  0.83651600  0.16348400  0.50000000  1
  Mg  Mg0  1  0.82780000  0.17220000  0.00000000  1
  Mg  Mg1  1  0.33081800  0.66918200  0.00000000  1
  Mg  Mg2  1  0.33388000  0.16744900  0.50000000  1
  Mg  Mg3  1  0.33609500  0.16936700  0.00000000  1
  Mg  Mg4  1  0.83255100  0.66612000  0.50000000  1
  Mg  Mg5  1  0.83063300  0.66390500  0.00000000  1
  Mg  Mg6  1  0.16649100  0.32217700  0.23008800  1
  Mg  Mg7  1  0.16649100  0.32217700  0.76991200  1
  Mg  Mg8  1  0.67782300  0.83350900  0.23008800  1
  Mg  Mg9  1  0.67782300  0.83350900  0.76991200  1
  Mg  Mg10  1  0.66795900  0.33204100  0.25226200  1
  Mg  Mg11  1  0.66795900  0.33204100  0.74773800  1
  Mg  Mg12  1  0.15899200  0.84100800  0.23525400  1
  Mg  Mg13  1  0.15899200  0.84100800  0.76474600  1
loop_
_geom_bond_atom_site_label_1
_geom_bond_atom_site_label_2
_geom_bond_distance
_geom_bond_site_symmetry_2
Cs0 Mg2 3.362835 1_565
Cs0 Mg4 3.362835 1_455
Cs0 Mg4 3.445187 1_555
Cs0 Mg2 3.445187 1_555
Cs0 Mg9 3.528776 1_555
Cs0 Mg7 3.528776 1_555
Cs0 Mg8 3.528776 1_555
Cs0 Mg6 3.528776 1_555
Cs0 Mg12 3.534005 1_555
Cs0 Mg13 3.534005 1_555
Ce0 Cs0 3.152923 1_545
Ce0 Cs0 3.152923 1_655
Ce0 Mg2 3.370614 1_655
Ce0 Mg4 3.370614 1_545
Ce0 Mg10 3.373425 1_555
Ce0 Mg11 3.373425 1_555
Ce0 Mg4 3.437349 1_555
Ce0 Mg2 3.437349 1_555
Ce0 Mg6 3.469354 1_655
Ce0 Mg8 3.469354 1_545
Ce0 Mg7 3.469354 1_655
Ce0 Mg9 3.469354 1_545
Mg0 Mg6 3.148877 1_655
Mg0 Mg7 3.148877 1_654
Mg0 Mg9 3.148877 1_544
Mg0 Mg8 3.148877 1_545
Mg0 Mg1 3.151891 1_545
Mg0 Mg1 3.151891 1_655
Mg0 Mg5 3.336457 1_555
Mg0 Mg3 3.336457 1_555
Mg0 Mg10 3.351118 1_555
Mg0 Mg11 3.351118 1_554
Mg0 Mg5 3.471436 1_545
Mg0 Mg3 3.471436 1_655
Mg1 Mg8 3.171581 1_555
Mg1 Mg9 3.171581 1_554
Mg1 Mg7 3.171581 1_554
Mg1 Mg6 3.171581 1_555
Mg1 Mg13 3.290988 1_554
Mg1 Mg12 3.290988 1_555
Mg1 Mg3 3.384772 1_565
Mg1 Mg5 3.384772 1_455
Mg1 Mg5 3.423303 1_555
Mg1 Mg3 3.423303 1_555
Mg2 Mg4 3.143304 1_555
Mg2 Mg4 3.160058 1_445
Mg2 Mg6 3.517949 1_555
Mg2 Mg7 3.517949 1_555
Mg3 Mg5 3.117252 1_555
Mg3 Mg7 3.167752 1_554
Mg3 Mg6 3.167752 1_555
Mg3 Mg5 3.186110 1_445
Mg4 Mg9 3.517949 1_555
Mg4 Mg8 3.517949 1_555
Mg5 Mg8 3.167752 1_555
Mg5 Mg9 3.167752 1_554
Mg6 Mg8 3.080251 1_445
Mg6 Mg8 3.223111 1_555
Mg7 Mg9 3.080251 1_445
Mg7 Mg9 3.223111 1_555
Mg10 Mg12 3.158946 1_655
Mg10 Mg12 3.158946 1_545
Mg10 Mg2 3.279919 1_555
Mg10 Mg4 3.279919 1_555
Mg10 Mg5 3.313658 1_555
Mg10 Mg3 3.313658 1_555
Mg10 Mg6 3.384567 1_555
Mg10 Mg8 3.384567 1_555
Mg10 Mg8 3.441166 1_545
Mg10 Mg6 3.441166 1_655
Mg11 Mg13 3.158946 1_545
Mg11 Mg13 3.158946 1_655
Mg11 Mg2 3.279919 1_555
Mg11 Mg4 3.279919 1_555
Mg11 Mg3 3.313658 1_556
Mg11 Mg5 3.313658 1_556
Mg11 Mg7 3.384567 1_555
Mg11 Mg9 3.384567 1_555
Mg11 Mg9 3.441166 1_545
Mg11 Mg7 3.441166 1_655
Mg12 Mg5 3.146619 1_455
Mg12 Mg3 3.146619 1_565
Mg12 Mg6 3.247298 1_565
Mg12 Mg8 3.247298 1_455
Mg12 Mg2 3.406331 1_565
Mg12 Mg4 3.406331 1_455
Mg12 Mg8 3.561965 1_555
Mg12 Mg6 3.561965 1_555
Mg13 Mg5 3.146619 1_456
Mg13 Mg3 3.146619 1_566
Mg13 Mg7 3.247298 1_565
Mg13 Mg9 3.247298 1_455
Mg13 Mg2 3.406331 1_565
Mg13 Mg4 3.406331 1_455
Mg13 Mg9 3.561965 1_555
Mg13 Mg7 3.561965 1_555
