# generated using pymatgen
data_HoAsS
_symmetry_space_group_name_H-M   'P 1'
_cell_length_a   3.81260700
_cell_length_b   3.82922700
_cell_length_c   16.96747400
_cell_angle_alpha   90.00000000
_cell_angle_beta   90.00000000
_cell_angle_gamma   90.00000000
_symmetry_Int_Tables_number   1
_chemical_formula_structural   HoAsS
_chemical_formula_sum   'Ho4 As4 S4'
_cell_volume   247.71388224
_cell_formula_units_Z   4
loop_
 _symmetry_equiv_pos_site_id
 _symmetry_equiv_pos_as_xyz
  1  'x, y, z'
loop_
 _atom_site_type_symbol
 _atom_site_label
 _atom_site_symmetry_multiplicity
 _atom_site_fract_x
 _atom_site_fract_y
 _atom_site_fract_z
 _atom_site_occupancy
  Ho  Ho0  1  0.25000000  0.21854800  0.85425500  1
  Ho  Ho1  1  0.25000000  0.28145200  0.35425500  1
  Ho  Ho2  1  0.75000000  0.78145200  0.14574500  1
  Ho  Ho3  1  0.75000000  0.71854800  0.64574500  1
  As  As0  1  0.75000000  0.21999300  0.50176500  1
  As  As1  1  0.75000000  0.28000700  0.00176500  1
  As  As2  1  0.25000000  0.78000700  0.49823500  1
  As  As3  1  0.25000000  0.71999300  0.99823500  1
  S  S0  1  0.25000000  0.21873100  0.68698500  1
  S  S1  1  0.25000000  0.28126900  0.18698500  1
  S  S2  1  0.75000000  0.78126900  0.31301500  1
  S  S3  1  0.75000000  0.71873100  0.81301500  1
loop_
_geom_bond_atom_site_label_1
_geom_bond_atom_site_label_2
_geom_bond_distance
_geom_bond_site_symmetry_2
Ho0 S3 2.790464 1_445
Ho0 S3 2.790464 1_545
Ho0 S3 2.791425 1_555
Ho0 S3 2.791425 1_455
Ho0 S0 2.838149 1_555
Ho1 S2 2.790464 1_555
Ho1 S2 2.790464 1_455
Ho1 S2 2.791425 1_445
Ho1 S2 2.791425 1_545
Ho1 S1 2.838149 1_555
Ho2 S1 2.790464 1_665
Ho2 S1 2.790464 1_565
Ho2 S1 2.791425 1_655
Ho2 S1 2.791425 1_555
Ho2 S2 2.838149 1_555
Ho3 S0 2.790464 1_655
Ho3 S0 2.790464 1_555
Ho3 S0 2.791425 1_565
Ho3 S0 2.791425 1_665
Ho3 S3 2.838149 1_555
As0 As2 2.544829 1_545
As0 As2 2.544829 1_645
As0 As2 2.869864 1_555
As0 As2 2.869864 1_655
As0 Ho3 3.100439 1_555
As0 Ho3 3.107266 1_545
As0 Ho1 3.154956 1_655
As0 Ho1 3.154956 1_555
As1 As3 2.544829 1_554
As1 As3 2.544829 1_654
As1 As3 2.869864 1_544
As1 As3 2.869864 1_644
As1 Ho2 3.100439 1_545
As1 Ho2 3.107266 1_555
As1 Ho0 3.154956 1_654
As1 Ho0 3.154956 1_554
As2 Ho1 3.100439 1_555
As2 Ho1 3.107266 1_565
As2 Ho3 3.154956 1_555
As2 Ho3 3.154956 1_455
As3 Ho0 3.100439 1_565
As3 Ho0 3.107266 1_555
As3 Ho2 3.154956 1_556
As3 Ho2 3.154956 1_456
