# generated using pymatgen
data_Be2V
_symmetry_space_group_name_H-M   'P 1'
_cell_length_a   4.36153826
_cell_length_b   4.36152754
_cell_length_c   7.03320941
_cell_angle_alpha   90.00000000
_cell_angle_beta   90.00000000
_cell_angle_gamma   119.99991608
_symmetry_Int_Tables_number   1
_chemical_formula_structural   Be2V
_chemical_formula_sum   'Be8 V4'
_cell_volume   115.86782461
_cell_formula_units_Z   4
loop_
 _symmetry_equiv_pos_site_id
 _symmetry_equiv_pos_as_xyz
  1  'x, y, z'
loop_
 _atom_site_type_symbol
 _atom_site_label
 _atom_site_symmetry_multiplicity
 _atom_site_fract_x
 _atom_site_fract_y
 _atom_site_fract_z
 _atom_site_occupancy
  Be  Be0  1  -0.00000000  0.00000000  -0.00000000  1
  Be  Be1  1  -0.00000000  0.00000000  0.50000000  1
  Be  Be2  1  0.82860543  0.65721086  0.24999645  1
  Be  Be3  1  0.17139457  0.82860643  0.75000355  1
  Be  Be4  1  0.65720986  0.82860643  0.75000355  1
  Be  Be5  1  0.34279014  0.17139357  0.24999645  1
  Be  Be6  1  0.82860543  0.17139357  0.24999645  1
  Be  Be7  1  0.17139457  0.34278914  0.75000355  1
  V  V0  1  0.33333300  0.66666700  0.06711126  1
  V  V1  1  0.66666700  0.33333300  0.56716174  1
  V  V2  1  0.66666700  0.33333300  0.93288874  1
  V  V3  1  0.33333300  0.66666700  0.43283826  1
loop_
_geom_bond_atom_site_label_1
_geom_bond_atom_site_label_2
_geom_bond_distance
_geom_bond_site_symmetry_2
Be0 Be6 2.183573 1_455
Be0 Be3 2.183573 1_544
Be0 Be2 2.183575 1_445
Be0 Be7 2.183575 1_554
Be0 Be5 2.183579 1_555
Be0 Be4 2.183579 1_444
Be0 V2 2.561984 1_454
Be0 V0 2.561984 1_545
Be0 V0 2.561988 1_555
Be0 V2 2.561988 1_444
Be0 V0 2.561994 1_445
Be0 V2 2.561994 1_554
Be1 Be3 2.183613 1_545
Be1 Be6 2.183613 1_455
Be1 Be7 2.183615 1_555
Be1 Be2 2.183615 1_445
Be1 Be5 2.183619 1_555
Be1 Be4 2.183619 1_445
Be1 V3 2.562050 1_545
Be1 V1 2.562050 1_455
Be1 V1 2.562053 1_445
Be1 V3 2.562053 1_555
Be1 V3 2.562059 1_445
Be1 V1 2.562059 1_555
Be2 Be6 2.118905 1_555
Be2 Be5 2.118906 1_555
Be2 Be6 2.242622 1_565
Be2 Be5 2.242632 1_665
Be2 V3 2.531941 1_655
Be2 V3 2.531945 1_555
Be2 V0 2.532096 1_655
Be2 V0 2.532100 1_555
Be2 V2 2.543768 1_554
Be2 V1 2.544123 1_555
Be3 Be4 2.118902 1_555
Be3 Be7 2.118905 1_555
Be3 Be7 2.242622 1_565
Be3 Be4 2.242636 1_455
Be3 V1 2.531941 1_565
Be3 V1 2.531945 1_455
Be3 V2 2.532096 1_565
Be3 V2 2.532100 1_455
Be3 V0 2.543768 1_556
Be3 V3 2.544123 1_555
Be4 Be7 2.118906 1_555
Be4 Be7 2.242632 1_665
Be4 V1 2.531931 1_565
Be4 V1 2.531946 1_555
Be4 V2 2.532086 1_565
Be4 V2 2.532101 1_555
Be4 V0 2.543768 1_556
Be4 V3 2.544123 1_555
Be5 Be6 2.118902 1_555
Be5 Be6 2.242636 1_455
Be5 V3 2.531931 1_545
Be5 V3 2.531946 1_555
Be5 V0 2.532086 1_545
Be5 V0 2.532101 1_555
Be5 V2 2.543768 1_554
Be5 V1 2.544123 1_555
Be6 V3 2.531941 1_545
Be6 V3 2.531945 1_655
Be6 V0 2.532096 1_545
Be6 V0 2.532100 1_655
Be6 V2 2.543768 1_554
Be6 V1 2.544123 1_555
Be7 V1 2.531941 1_455
Be7 V1 2.531945 1_555
Be7 V2 2.532096 1_455
Be7 V2 2.532100 1_555
Be7 V0 2.543768 1_556
Be7 V3 2.544123 1_555
V0 V3 2.572235 1_555
V0 V2 2.689263 1_564
V0 V2 2.689269 1_454
V0 V2 2.689270 1_554
V1 V2 2.572235 1_555
V1 V3 2.689513 1_545
V1 V3 2.689518 1_655
V1 V3 2.689520 1_555
