# generated using pymatgen
data_Li2MgTl
_symmetry_space_group_name_H-M   'P 1'
_cell_length_a   4.78678481
_cell_length_b   4.78678481
_cell_length_c   4.78678481
_cell_angle_alpha   60.00000000
_cell_angle_beta   60.00000000
_cell_angle_gamma   60.00000000
_symmetry_Int_Tables_number   1
_chemical_formula_structural   Li2MgTl
_chemical_formula_sum   'Li2 Mg1 Tl1'
_cell_volume   77.55623449
_cell_formula_units_Z   1
loop_
 _symmetry_equiv_pos_site_id
 _symmetry_equiv_pos_as_xyz
  1  'x, y, z'
loop_
 _atom_site_type_symbol
 _atom_site_label
 _atom_site_symmetry_multiplicity
 _atom_site_fract_x
 _atom_site_fract_y
 _atom_site_fract_z
 _atom_site_occupancy
  Li  Li0  1  0.50000000  0.50000000  0.50000000  1
  Li  Li1  1  0.75000000  0.75000000  0.75000000  1
  Mg  Mg0  1  0.25000000  0.25000000  0.25000000  1
  Tl  Tl0  1  0.00000000  0.00000000  0.00000000  1
loop_
_geom_bond_atom_site_label_1
_geom_bond_atom_site_label_2
_geom_bond_distance
_geom_bond_site_symmetry_2
Li0 Mg0 2.931295 1_555
Li0 Mg0 2.931295 1_565
Li0 Li1 2.931295 1_455
Li0 Li1 2.931295 1_554
Li0 Mg0 2.931295 1_655
Li0 Li1 2.931295 1_555
Li0 Mg0 2.931295 1_556
Li0 Li1 2.931295 1_545
Li0 Tl0 3.384768 1_655
Li0 Tl0 3.384768 1_665
Li0 Tl0 3.384768 1_656
Li0 Tl0 3.384768 1_566
Li0 Tl0 3.384768 1_556
Li0 Tl0 3.384768 1_565
Li1 Tl0 2.931295 1_665
Li1 Tl0 2.931295 1_656
Li1 Tl0 2.931295 1_566
Li1 Tl0 2.931295 1_666
Mg0 Tl0 2.931295 1_655
Mg0 Tl0 2.931295 1_555
Mg0 Tl0 2.931295 1_556
Mg0 Tl0 2.931295 1_565
