# generated using pymatgen
data_Mg6GaCo
_symmetry_space_group_name_H-M   'P 1'
_cell_length_a   4.76350600
_cell_length_b   6.04024000
_cell_length_c   10.36589000
_cell_angle_alpha   90.00000000
_cell_angle_beta   90.00000000
_cell_angle_gamma   90.00000000
_symmetry_Int_Tables_number   1
_chemical_formula_structural   Mg6GaCo
_chemical_formula_sum   'Mg12 Ga2 Co2'
_cell_volume   298.25484515
_cell_formula_units_Z   2
loop_
 _symmetry_equiv_pos_site_id
 _symmetry_equiv_pos_as_xyz
  1  'x, y, z'
loop_
 _atom_site_type_symbol
 _atom_site_label
 _atom_site_symmetry_multiplicity
 _atom_site_fract_x
 _atom_site_fract_y
 _atom_site_fract_z
 _atom_site_occupancy
  Mg  Mg0  1  0.50000000  0.25128000  0.08375300  1
  Mg  Mg1  1  0.50000000  0.74872000  0.08375300  1
  Mg  Mg2  1  0.00000000  0.23975800  0.91164900  1
  Mg  Mg3  1  0.00000000  0.76024200  0.91164900  1
  Mg  Mg4  1  0.00000000  0.50000000  0.17520200  1
  Mg  Mg5  1  0.00000000  0.50000000  0.66872900  1
  Mg  Mg6  1  0.50000000  0.75128000  0.58375300  1
  Mg  Mg7  1  0.50000000  0.24872000  0.58375300  1
  Mg  Mg8  1  0.00000000  0.73975800  0.41164900  1
  Mg  Mg9  1  0.00000000  0.26024200  0.41164900  1
  Mg  Mg10  1  0.00000000  0.00000000  0.67520200  1
  Mg  Mg11  1  0.00000000  0.00000000  0.16872900  1
  Ga  Ga0  1  0.50000000  0.50000000  0.83205400  1
  Ga  Ga1  1  0.50000000  0.00000000  0.33205400  1
  Co  Co0  1  0.50000000  0.50000000  0.33321400  1
  Co  Co1  1  0.50000000  0.00000000  0.83321400  1
loop_
_geom_bond_atom_site_label_1
_geom_bond_atom_site_label_2
_geom_bond_distance
_geom_bond_site_symmetry_2
Mg0 Mg11 2.958435 1_555
Mg0 Mg11 2.958435 1_655
Mg0 Mg4 2.971254 1_555
Mg0 Mg4 2.971254 1_655
Mg0 Mg2 2.976623 1_654
Mg0 Mg2 2.976623 1_554
Mg0 Mg1 3.004657 1_555
Mg0 Mg1 3.035583 1_545
Mg1 Mg11 2.958435 1_665
Mg1 Mg11 2.958435 1_565
Mg1 Mg4 2.971254 1_555
Mg1 Mg4 2.971254 1_655
Mg1 Mg3 2.976623 1_654
Mg1 Mg3 2.976623 1_554
Mg2 Mg3 2.896392 1_545
Mg2 Mg5 2.968448 1_555
Mg2 Mg3 3.143848 1_555
Mg2 Mg4 3.151913 1_556
Mg3 Mg5 2.968448 1_555
Mg3 Mg4 3.151913 1_556
Mg4 Mg8 2.846856 1_555
Mg4 Mg9 2.846856 1_555
Mg5 Mg7 2.958435 1_555
Mg5 Mg6 2.958435 1_455
Mg5 Mg6 2.958435 1_555
Mg5 Mg7 2.958435 1_455
Mg5 Mg8 3.032947 1_555
Mg5 Mg9 3.032947 1_555
Mg6 Mg8 2.976623 1_555
Mg6 Mg8 2.976623 1_655
Mg6 Mg7 3.004657 1_565
Mg6 Mg7 3.035583 1_555
Mg7 Mg9 2.976623 1_655
Mg7 Mg9 2.976623 1_555
Mg8 Mg9 2.896392 1_555
Mg8 Mg9 3.143848 1_565
Mg10 Mg2 2.846856 1_555
Mg10 Mg3 2.846856 1_545
Mg10 Mg6 2.971254 1_545
Mg10 Mg7 2.971254 1_555
Mg10 Mg6 2.971254 1_445
Mg10 Mg7 2.971254 1_455
Mg10 Mg5 3.020865 1_555
Mg10 Mg5 3.020865 1_545
Mg10 Mg8 3.151913 1_545
Mg10 Mg9 3.151913 1_555
Mg11 Mg8 2.968448 1_545
Mg11 Mg9 2.968448 1_555
Mg11 Mg4 3.020865 1_555
Mg11 Mg4 3.020865 1_545
Mg11 Mg2 3.032947 1_554
Mg11 Mg3 3.032947 1_544
Ga0 Mg5 2.922161 1_555
Ga0 Mg5 2.922161 1_655
Ga0 Mg2 2.970596 1_655
Ga0 Mg3 2.970596 1_555
Ga0 Mg3 2.970596 1_655
Ga0 Mg2 2.970596 1_555
Ga0 Mg6 2.988051 1_555
Ga0 Mg7 2.988051 1_555
Ga0 Mg1 3.010699 1_556
Ga0 Mg0 3.010699 1_556
Ga1 Mg11 2.922161 1_555
Ga1 Mg11 2.922161 1_655
Ga1 Mg9 2.970596 1_655
Ga1 Mg8 2.970596 1_645
Ga1 Mg8 2.970596 1_545
Ga1 Mg9 2.970596 1_555
Ga1 Mg1 2.988051 1_545
Ga1 Mg0 2.988051 1_555
Ga1 Mg7 3.010699 1_555
Ga1 Mg6 3.010699 1_545
Co0 Mg4 2.890602 1_655
Co0 Mg4 2.890602 1_555
Co0 Mg8 2.903630 1_655
Co0 Mg9 2.903630 1_555
Co0 Mg9 2.903630 1_655
Co0 Mg8 2.903630 1_555
Co0 Mg0 2.990618 1_555
Co0 Mg1 2.990618 1_555
Co0 Mg6 3.008058 1_555
Co0 Mg7 3.008058 1_555
Co0 Ga1 3.020144 1_565
Co0 Ga1 3.020144 1_555
Co1 Mg10 2.890602 1_655
Co1 Mg10 2.890602 1_555
Co1 Mg2 2.903630 1_555
Co1 Mg2 2.903630 1_655
Co1 Mg3 2.903630 1_545
Co1 Mg3 2.903630 1_645
Co1 Mg7 2.990618 1_555
Co1 Mg6 2.990618 1_545
Co1 Mg1 3.008058 1_546
Co1 Mg0 3.008058 1_556
Co1 Ga0 3.020144 1_555
Co1 Ga0 3.020144 1_545
