# generated using pymatgen
data_Sr2CoSbO6
_symmetry_space_group_name_H-M   'P 1'
_cell_length_a   5.71950200
_cell_length_b   5.76202500
_cell_length_c   7.78626895
_cell_angle_alpha   89.41045181
_cell_angle_beta   90.00019578
_cell_angle_gamma   89.99999762
_symmetry_Int_Tables_number   1
_chemical_formula_structural   Sr2CoSbO6
_chemical_formula_sum   'Sr4 Co2 Sb2 O12'
_cell_volume   256.59002203
_cell_formula_units_Z   2
loop_
 _symmetry_equiv_pos_site_id
 _symmetry_equiv_pos_as_xyz
  1  'x, y, z'
loop_
 _atom_site_type_symbol
 _atom_site_label
 _atom_site_symmetry_multiplicity
 _atom_site_fract_x
 _atom_site_fract_y
 _atom_site_fract_z
 _atom_site_occupancy
  Sr  Sr0  1  0.50000100  0.99749600  0.24943300  1
  Sr  Sr1  1  0.00000000  0.49748900  0.74943600  1
  Sr  Sr2  1  0.00000000  0.50251100  0.25056400  1
  Sr  Sr3  1  0.49999900  0.00250400  0.75056700  1
  Co  Co0  1  0.50000000  0.50000000  0.00000000  1
  Co  Co1  1  0.00000000  0.00000000  0.50000000  1
  Sb  Sb0  1  0.00000000  0.00000000  0.00000000  1
  Sb  Sb1  1  0.50000000  0.50000000  0.50000000  1
  O  O0  1  0.00000300  0.05421300  0.25798400  1
  O  O1  1  0.50000100  0.55417500  0.75798200  1
  O  O2  1  0.49999900  0.44582500  0.24201800  1
  O  O3  1  0.99999700  0.94578700  0.74201600  1
  O  O4  1  0.74565800  0.25666300  0.52995000  1
  O  O5  1  0.24565500  0.75666300  0.02996200  1
  O  O6  1  0.75434500  0.24333700  0.97003800  1
  O  O7  1  0.25434200  0.74333700  0.47005000  1
  O  O8  1  0.24565500  0.24333600  0.97003800  1
  O  O9  1  0.74565800  0.74333700  0.47005100  1
  O  O10  1  0.25434200  0.25666300  0.52994900  1
  O  O11  1  0.75434500  0.75666400  0.02996200  1
loop_
_geom_bond_atom_site_label_1
_geom_bond_atom_site_label_2
_geom_bond_distance
_geom_bond_site_symmetry_2
Co0 O2 1.906926 1_555
Co0 O1 1.906926 1_554
Co0 O6 2.089234 1_554
Co0 O5 2.089234 1_555
Co0 O11 2.089237 1_555
Co0 O8 2.089237 1_554
Co1 O0 1.906944 1_555
Co1 O3 1.906944 1_445
Co1 O10 2.089209 1_555
Co1 O9 2.089209 1_445
Co1 O4 2.089211 1_455
Co1 O7 2.089211 1_545
O0 Sb0 2.036050 1_555
O0 Sr2 2.583156 1_555
O0 Sr0 2.879200 1_545
O0 Sr0 2.879222 1_445
O0 Sr2 3.180040 1_545
O1 Sb1 2.035999 1_555
O1 Sr3 2.583334 1_565
O1 Sr1 2.879185 1_655
O1 Sr1 2.879196 1_555
O1 Sr3 3.179860 1_555
O2 Sb1 2.035999 1_555
O2 Sr0 2.583334 1_545
O2 Sr2 2.879185 1_555
O2 Sr2 2.879196 1_655
O2 Sr0 3.179860 1_555
O3 Sb0 2.036050 1_666
O3 Sr1 2.583156 1_655
O3 Sr3 2.879200 1_565
O3 Sr3 2.879222 1_665
O3 Sr1 3.180040 1_665
O4 Sb1 1.996926 1_555
O4 Sr1 2.647853 1_655
O4 Sr3 2.649124 1_555
O4 Sr2 2.965088 1_655
O4 Sr0 3.006975 1_545
O5 Sb0 1.996925 1_565
O5 Sr0 2.647811 1_555
O5 Sr2 2.649015 1_555
O5 Sr3 2.965126 1_564
O5 Sr1 3.007041 1_554
O6 Sb0 1.996925 1_656
O6 Sr3 2.647811 1_555
O6 Sr1 2.649015 1_655
O6 Sr0 2.965126 1_546
O6 Sr2 3.007041 1_656
O7 Sb1 1.996926 1_555
O7 Sr2 2.647853 1_555
O7 Sr0 2.649124 1_555
O7 Sr1 2.965088 1_555
O7 Sr3 3.006975 1_565
O8 Sb0 1.996922 1_556
O8 Sr3 2.647808 1_555
O8 Sr1 2.649012 1_555
O8 Sr0 2.965121 1_546
O8 Sr2 3.007051 1_556
O9 Sb1 1.996927 1_555
O9 Sr2 2.647865 1_655
O9 Sr0 2.649117 1_555
O9 Sr1 2.965075 1_655
O9 Sr3 3.006981 1_565
O10 Sb1 1.996927 1_555
O10 Sr1 2.647865 1_555
O10 Sr3 2.649117 1_555
O10 Sr2 2.965075 1_555
O10 Sr0 3.006981 1_545
O11 Sb0 1.996922 1_665
O11 Sr0 2.647808 1_555
O11 Sr2 2.649012 1_655
O11 Sr3 2.965121 1_564
O11 Sr1 3.007051 1_654
