# generated using pymatgen
data_Y2GeRh3
_symmetry_space_group_name_H-M   'P 1'
_cell_length_a   5.08800889
_cell_length_b   5.08800930
_cell_length_c   5.08800873
_cell_angle_alpha   66.46946719
_cell_angle_beta   66.46946249
_cell_angle_gamma   66.46946625
_symmetry_Int_Tables_number   1
_chemical_formula_structural   Y2GeRh3
_chemical_formula_sum   'Y2 Ge1 Rh3'
_cell_volume   106.12030936
_cell_formula_units_Z   1
loop_
 _symmetry_equiv_pos_site_id
 _symmetry_equiv_pos_as_xyz
  1  'x, y, z'
loop_
 _atom_site_type_symbol
 _atom_site_label
 _atom_site_symmetry_multiplicity
 _atom_site_fract_x
 _atom_site_fract_y
 _atom_site_fract_z
 _atom_site_occupancy
  Y  Y0  1  0.62934334  0.62934334  0.62934334  1
  Y  Y1  1  0.37065666  0.37065666  0.37065666  1
  Ge  Ge0  1  0.00000000  0.00000000  -0.00000000  1
  Rh  Rh0  1  0.00000000  0.00000000  0.50000000  1
  Rh  Rh1  1  0.00000000  0.50000000  -0.00000000  1
  Rh  Rh2  1  0.50000000  0.00000000  -0.00000000  1
loop_
_geom_bond_atom_site_label_1
_geom_bond_atom_site_label_2
_geom_bond_distance
_geom_bond_site_symmetry_2
Y0 Y1 3.057277 1_555
Y0 Y1 3.338649 1_556
Y0 Y1 3.338649 1_655
Y0 Y1 3.338650 1_565
Ge0 Rh0 2.544004 1_554
Ge0 Rh0 2.544004 1_555
Ge0 Rh2 2.544004 1_555
Ge0 Rh2 2.544004 1_455
Ge0 Rh1 2.544005 1_555
Ge0 Rh1 2.544005 1_545
Ge0 Y0 3.250056 1_544
Ge0 Y1 3.250056 1_455
Ge0 Y1 3.250056 1_554
Ge0 Y0 3.250056 1_445
Ge0 Y1 3.250056 1_545
Ge0 Y0 3.250056 1_454
Rh0 Rh2 2.788587 1_555
Rh0 Rh2 2.788587 1_456
Rh0 Rh1 2.788587 1_546
Rh0 Rh1 2.788587 1_555
Rh0 Y0 2.899009 1_445
Rh0 Y1 2.899009 1_555
Rh0 Y1 3.180087 1_455
Rh0 Y0 3.180087 1_545
Rh0 Y1 3.180087 1_545
Rh0 Y0 3.180087 1_455
Rh1 Rh2 2.788587 1_555
Rh1 Rh2 2.788587 1_465
Rh1 Y0 2.899009 1_454
Rh1 Y1 2.899009 1_555
Rh1 Y1 3.180087 1_554
Rh1 Y0 3.180087 1_455
Rh1 Y1 3.180087 1_455
Rh1 Y0 3.180087 1_554
Rh2 Y0 2.899009 1_544
Rh2 Y1 2.899009 1_555
Rh2 Y0 3.180087 1_545
Rh2 Y1 3.180087 1_554
Rh2 Y1 3.180087 1_545
Rh2 Y0 3.180087 1_554
