# generated using pymatgen
data_ZnS
_symmetry_space_group_name_H-M   'P 1'
_cell_length_a   12.89828125
_cell_length_b   13.60906525
_cell_length_c   14.36083762
_cell_angle_alpha   97.24952207
_cell_angle_beta   83.89188068
_cell_angle_gamma   88.70951874
_symmetry_Int_Tables_number   1
_chemical_formula_structural   ZnS
_chemical_formula_sum   'Zn50 S50'
_cell_volume   2484.80907322
_cell_formula_units_Z   50
loop_
 _symmetry_equiv_pos_site_id
 _symmetry_equiv_pos_as_xyz
  1  'x, y, z'
loop_
 _atom_site_type_symbol
 _atom_site_label
 _atom_site_symmetry_multiplicity
 _atom_site_fract_x
 _atom_site_fract_y
 _atom_site_fract_z
 _atom_site_occupancy
  Zn  Zn0  1  0.30277368  0.78670816  0.91981294  1
  Zn  Zn1  1  0.35098836  0.28544534  0.07049819  1
  Zn  Zn2  1  0.53071411  0.22000189  0.01040746  1
  Zn  Zn3  1  0.50956267  0.28948617  0.67380265  1
  Zn  Zn4  1  0.15286285  0.07520750  0.21239164  1
  Zn  Zn5  1  0.00420592  0.53867178  0.51321678  1
  Zn  Zn6  1  0.21118064  0.01914254  0.77298503  1
  Zn  Zn7  1  0.61276075  0.04227214  0.19512733  1
  Zn  Zn8  1  0.09320354  0.15754385  0.87828030  1
  Zn  Zn9  1  0.46966192  0.96549661  0.73601575  1
  Zn  Zn10  1  0.79830333  0.46563904  0.18755224  1
  Zn  Zn11  1  0.65020653  0.75422457  0.07170155  1
  Zn  Zn12  1  0.82924603  0.83098452  0.14825964  1
  Zn  Zn13  1  0.93304775  0.98641399  0.04798674  1
  Zn  Zn14  1  0.09123364  0.63613510  0.09522584  1
  Zn  Zn15  1  0.64943660  0.50422376  0.04923475  1
  Zn  Zn16  1  0.24523290  0.17491259  0.56833819  1
  Zn  Zn17  1  0.11753530  0.81215628  0.28613270  1
  Zn  Zn18  1  0.72299273  0.05382989  0.42302943  1
  Zn  Zn19  1  0.01687571  0.05197110  0.67086387  1
  Zn  Zn20  1  0.03136083  0.19498121  0.10200585  1
  Zn  Zn21  1  0.51439509  0.90203288  0.40066282  1
  Zn  Zn22  1  0.84045974  0.20770944  0.26961970  1
  Zn  Zn23  1  0.70776484  0.25840547  0.55781676  1
  Zn  Zn24  1  0.23631965  0.06792556  0.94110480  1
  Zn  Zn25  1  0.30041426  0.71689579  0.67684634  1
  Zn  Zn26  1  0.97243255  0.81252552  0.99699074  1
  Zn  Zn27  1  0.40322792  0.65470846  0.00181990  1
  Zn  Zn28  1  0.76992731  0.23060120  0.01005519  1
  Zn  Zn29  1  0.70680246  0.88619884  0.44391190  1
  Zn  Zn30  1  0.29401039  0.78624401  0.09921571  1
  Zn  Zn31  1  0.21596151  0.49277178  0.58858133  1
  Zn  Zn32  1  0.56595596  0.77049305  0.49833395  1
  Zn  Zn33  1  0.22415411  0.32952205  0.35576612  1
  Zn  Zn34  1  0.51770748  0.16324258  0.43902473  1
  Zn  Zn35  1  0.93038427  0.79467340  0.47699520  1
  Zn  Zn36  1  0.51949164  0.32290063  0.17965680  1
  Zn  Zn37  1  0.78521808  0.45505436  0.67840689  1
  Zn  Zn38  1  0.02879509  0.35046160  0.77257772  1
  Zn  Zn39  1  0.54977805  0.60703123  0.31596091  1
  Zn  Zn40  1  0.30727750  0.54670416  0.27044378  1
  Zn  Zn41  1  0.48231510  0.51351825  0.49328182  1
  Zn  Zn42  1  0.24904107  0.34232303  0.82970930  1
  Zn  Zn43  1  0.86309424  0.63019432  0.26269025  1
  Zn  Zn44  1  0.60761179  0.05854007  0.79536078  1
  Zn  Zn45  1  0.78441626  0.64964111  0.53880061  1
  Zn  Zn46  1  0.04410409  0.45128643  0.05693256  1
  Zn  Zn47  1  0.89874339  0.57847736  0.08631017  1
  Zn  Zn48  1  0.21493431  0.58465966  0.85412385  1
  Zn  Zn49  1  0.17686429  0.83602152  0.54518867  1
  S  S0  1  0.77525675  0.82483914  0.56990287  1
  S  S1  1  0.96246662  0.08221119  0.20852771  1
  S  S2  1  0.42213821  0.83192924  0.61773929  1
  S  S3  1  0.93097610  0.13725686  0.98029917  1
  S  S4  1  0.34743513  0.09400236  0.67839740  1
  S  S5  1  0.21987117  0.16317242  0.08224413  1
  S  S6  1  0.89872226  0.36794953  0.27305090  1
  S  S7  1  0.97493365  0.75609359  0.20376246  1
  S  S8  1  0.66089947  0.19933953  0.15645771  1
  S  S9  1  0.88049947  0.58221141  0.64526713  1
  S  S10  1  0.57760821  0.14229173  0.58213830  1
  S  S11  1  0.63012774  0.40842979  0.63310970  1
  S  S12  1  0.36399153  0.28189598  0.47577649  1
  S  S13  1  0.12840049  0.71964648  0.95527251  1
  S  S14  1  0.38774926  0.60203055  0.39918222  1
  S  S15  1  0.71093624  0.21817753  0.39370977  1
  S  S16  1  0.36712760  0.65953922  0.79728227  1
  S  S17  1  0.21988066  0.66480811  0.20703519  1
  S  S18  1  0.10259832  0.91403426  0.69783367  1
  S  S19  1  0.62781857  0.60439199  0.46980327  1
  S  S20  1  0.79994815  0.40484665  0.01781560  1
  S  S21  1  0.84488593  0.08596435  0.65962077  1
  S  S22  1  0.65816810  0.19299312  0.89007964  1
  S  S23  1  0.24268835  0.15726328  0.32699277  1
  S  S24  1  0.57801010  0.62644626  0.98099606  1
  S  S25  1  0.10611612  0.19952549  0.69307230  1
  S  S26  1  0.60942887  0.47045883  0.20724175  1
  S  S27  1  0.11734506  0.40508194  0.48397000  1
  S  S28  1  0.36674460  0.39165928  0.94540048  1
  S  S29  1  0.92528973  0.62719178  0.41059636  1
  S  S30  1  0.04199654  0.35145557  0.18826516  1
  S  S31  1  0.83074813  0.69716626  0.00955578  1
  S  S32  1  0.58641962  0.75343580  0.24807625  1
  S  S33  1  0.17957065  0.66564117  0.58516183  1
  S  S34  1  0.19615442  0.91107665  0.18260923  1
  S  S35  1  0.16720568  0.46009514  0.74501755  1
  S  S36  1  0.69819483  0.92227789  0.08818333  1
  S  S37  1  0.38084945  0.21886144  0.77328509  1
  S  S38  1  0.39119348  0.40159507  0.57547883  1
  S  S39  1  0.73526884  0.77514769  0.28875878  1
  S  S40  1  0.33575648  0.37724009  0.22736031  1
  S  S41  1  0.08810063  0.33224190  0.92157671  1
  S  S42  1  0.34772658  0.90532483  0.52138785  1
  S  S43  1  0.49015310  0.03811012  0.32092591  1
  S  S44  1  0.85311681  0.32882026  0.75385214  1
  S  S45  1  0.34485878  0.93831626  0.87321381  1
  S  S46  1  0.86662069  0.22613080  0.62757268  1
  S  S47  1  0.06940058  0.87956053  0.43868152  1
  S  S48  1  0.19116148  0.08387778  0.44076762  1
  S  S49  1  0.28228052  0.52452901  0.99131757  1
loop_
_geom_bond_atom_site_label_1
_geom_bond_atom_site_label_2
_geom_bond_distance
_geom_bond_site_symmetry_2
Zn21 Zn32 2.528411 1_555
Zn21 Zn29 2.632272 1_555
S0 Zn35 2.282293 1_555
S0 Zn29 2.332096 1_555
S0 Zn45 2.367607 1_555
S1 Zn22 2.317348 1_555
S1 Zn20 2.418615 1_655
S1 Zn4 2.462282 1_655
S1 Zn13 2.570770 1_545
S2 S42 2.102788 1_555
S2 Zn25 2.408061 1_555
S2 Zn32 2.443739 1_555
S2 Zn9 2.461192 1_555
S3 Zn20 2.351454 1_656
S3 Zn13 2.380416 1_546
S3 Zn28 2.380453 1_556
S3 Zn8 2.465108 1_655
S4 Zn6 2.427660 1_555
S4 Zn16 2.503108 1_555
S4 Zn9 2.597530 1_545
S5 Zn24 2.250880 1_554
S5 Zn1 2.407160 1_555
S5 Zn4 2.437393 1_555
S5 Zn20 2.440218 1_555
S6 Zn22 2.318893 1_555
S6 Zn10 2.371818 1_555
S7 Zn12 2.375431 1_555
S7 Zn17 2.379687 1_655
S7 Zn43 2.439298 1_555
S7 Zn14 2.468751 1_655
S8 Zn7 2.355628 1_555
S8 Zn36 2.420007 1_555
S8 Zn28 2.490471 1_555
S8 Zn2 2.859170 1_555
S8 Zn22 2.963782 1_555
S9 Zn37 2.215992 1_555
S9 Zn45 2.328471 1_555
S9 Zn5 2.350127 1_655
S10 Zn34 2.319072 1_555
S10 Zn3 2.350597 1_555
S10 Zn23 2.360378 1_555
S10 Zn18 2.911858 1_555
S11 Zn37 2.248841 1_555
S11 Zn23 2.336823 1_555
S11 Zn3 2.353453 1_555
S12 S38 2.090644 1_555
S12 Zn34 2.497001 1_555
S12 Zn16 2.527579 1_555
S12 Zn33 2.744879 1_555
S13 Zn26 2.332700 1_455
S13 Zn48 2.370577 1_555
S13 Zn14 2.440686 1_556
S13 Zn0 2.473210 1_555
S14 Zn40 2.270360 1_555
S14 Zn39 2.301307 1_555
S14 Zn41 2.336730 1_555
S15 Zn22 2.297521 1_555
S15 Zn18 2.332354 1_555
S15 Zn23 2.346985 1_555
S15 Zn34 2.656243 1_555
S16 Zn25 2.228968 1_555
S16 Zn48 2.348895 1_555
S16 Zn0 2.374103 1_555
S17 Zn40 2.278050 1_555
S17 Zn14 2.433486 1_555
S17 Zn17 2.457802 1_555
S17 Zn30 2.538662 1_555
S18 Zn19 2.253333 1_565
S18 Zn6 2.279171 1_565
S18 Zn49 2.402092 1_555
S19 Zn41 2.289196 1_555
S19 Zn32 2.351544 1_555
S19 Zn45 2.401814 1_555
S19 Zn39 2.527291 1_555
S20 Zn15 2.311444 1_555
S20 Zn28 2.401947 1_555
S20 Zn10 2.471003 1_555
S20 Zn47 2.826776 1_555
S21 S46 2.036491 1_555
S21 Zn19 2.282567 1_655
S22 Zn2 2.243121 1_556
S22 Zn44 2.288650 1_555
S22 Zn28 2.376478 1_556
S23 S48 2.078316 1_555
S23 Zn4 2.301769 1_555
S23 Zn33 2.330837 1_555
S24 Zn27 2.260107 1_556
S24 Zn15 2.260588 1_556
S24 Zn11 2.312413 1_556
S25 Zn19 2.340855 1_555
S25 Zn38 2.364544 1_555
S25 Zn16 2.382884 1_555
S25 Zn8 2.778834 1_555
S26 Zn39 2.330594 1_555
S26 Zn36 2.353114 1_555
S26 Zn15 2.377174 1_555
S26 Zn10 2.420876 1_555
S27 Zn5 2.273446 1_555
S27 Zn33 2.294262 1_555
S27 Zn31 2.306853 1_555
S28 S49 2.085393 1_555
S28 Zn42 2.411874 1_555
S28 Zn1 2.439068 1_556
S29 Zn5 2.317590 1_655
S29 Zn43 2.353694 1_555
S29 Zn35 2.362242 1_555
S29 Zn45 2.430176 1_555
S30 S6 2.093201 1_455
S30 Zn20 2.339133 1_555
S30 Zn46 2.457879 1_555
S31 Zn47 2.276931 1_555
S31 Zn26 2.442846 1_554
S31 Zn11 2.474585 1_555
S31 Zn12 2.521763 1_555
S32 S39 2.082147 1_555
S32 Zn39 2.361803 1_555
S32 Zn11 2.579985 1_555
S32 Zn21 2.849218 1_555
S33 Zn25 2.214395 1_555
S33 Zn31 2.396192 1_555
S33 Zn49 2.458404 1_555
S34 Zn30 2.231971 1_555
S34 Zn4 2.266248 1_565
S34 Zn17 2.301434 1_555
S35 Zn48 2.299929 1_555
S35 Zn31 2.367345 1_555
S35 Zn38 2.385065 1_555
S35 Zn42 2.418937 1_555
S36 Zn7 2.272782 1_565
S36 Zn11 2.372352 1_555
S36 Zn12 2.373066 1_555
S37 S4 2.122153 1_555
S37 Zn42 2.367394 1_555
S37 Zn3 2.373753 1_555
S38 Zn41 2.309537 1_555
S38 Zn31 2.531358 1_555
S38 Zn3 2.747742 1_555
S39 Zn12 2.454739 1_555
S39 Zn43 2.507127 1_555
S39 Zn29 2.516833 1_555
S40 Zn40 2.321609 1_555
S40 Zn33 2.381943 1_555
S40 Zn1 2.420384 1_555
S40 Zn36 2.465798 1_555
S41 Zn42 2.354618 1_555
S41 Zn46 2.377859 1_556
S41 Zn8 2.377917 1_555
S41 Zn38 2.387222 1_555
S42 Zn49 2.424440 1_555
S42 Zn21 2.609990 1_555
S43 Zn7 2.278091 1_555
S43 Zn34 2.308533 1_555
S43 Zn21 2.328901 1_545
S44 S46 2.134072 1_555
S44 Zn38 2.330949 1_655
S44 Zn37 2.344368 1_555
S45 Zn24 2.277272 1_565
S45 Zn0 2.306747 1_555
S45 Zn9 2.479094 1_555
S45 Zn6 2.664011 1_565
S46 Zn23 2.429406 1_555
S47 Zn35 2.212731 1_455
S47 Zn17 2.281212 1_555
S47 Zn49 2.292320 1_555
S48 Zn16 2.261763 1_555
S49 Zn27 2.387918 1_556
S49 Zn48 2.458670 1_555
