# generated using pymatgen
data_KBaTbBiO6
_symmetry_space_group_name_H-M   'P 1'
_cell_length_a   8.74178874
_cell_length_b   8.70938544
_cell_length_c   8.75197493
_cell_angle_alpha   90.00000000
_cell_angle_beta   90.00000000
_cell_angle_gamma   90.00000000
_symmetry_Int_Tables_number   1
_chemical_formula_structural   KBaTbBiO6
_chemical_formula_sum   'K4 Ba4 Tb4 Bi4 O24'
_cell_volume   666.33692875
_cell_formula_units_Z   4
loop_
 _symmetry_equiv_pos_site_id
 _symmetry_equiv_pos_as_xyz
  1  'x, y, z'
loop_
 _atom_site_type_symbol
 _atom_site_label
 _atom_site_symmetry_multiplicity
 _atom_site_fract_x
 _atom_site_fract_y
 _atom_site_fract_z
 _atom_site_occupancy
  K  K0  1  0.50000000  -0.00000000  0.50000000  1
  K  K1  1  0.50000000  0.50000000  -0.00000000  1
  K  K2  1  0.00000000  0.50000000  -0.00000000  1
  K  K3  1  0.00000000  -0.00000000  0.50000000  1
  Ba  Ba0  1  0.00000000  0.50000000  0.50000000  1
  Ba  Ba1  1  0.50000000  -0.00000000  -0.00000000  1
  Ba  Ba2  1  0.00000000  -0.00000000  -0.00000000  1
  Ba  Ba3  1  0.50000000  0.50000000  0.50000000  1
  Tb  Tb0  1  0.25000000  0.25000000  0.25000000  1
  Tb  Tb1  1  0.75000000  0.75000000  0.25000000  1
  Tb  Tb2  1  0.75000000  0.25000000  0.75000000  1
  Tb  Tb3  1  0.25000000  0.75000000  0.75000000  1
  Bi  Bi0  1  0.75000000  0.75000000  0.75000000  1
  Bi  Bi1  1  0.25000000  0.25000000  0.75000000  1
  Bi  Bi2  1  0.25000000  0.75000000  0.25000000  1
  Bi  Bi3  1  0.75000000  0.25000000  0.25000000  1
  O  O0  1  0.99285409  0.23567185  0.26366422  1
  O  O1  1  0.00714591  0.76432815  0.26366422  1
  O  O2  1  0.00714591  0.23567185  0.73633578  1
  O  O3  1  0.99285409  0.76432815  0.73633578  1
  O  O4  1  0.26327334  0.99303839  0.22482368  1
  O  O5  1  0.26327334  0.00696161  0.77517632  1
  O  O6  1  0.73672666  0.00696161  0.22482368  1
  O  O7  1  0.73672666  0.99303839  0.77517632  1
  O  O8  1  0.23413985  0.25381817  0.99301135  1
  O  O9  1  0.76586015  0.25381817  0.00698865  1
  O  O10  1  0.23413985  0.74618183  0.00698865  1
  O  O11  1  0.76586015  0.74618183  0.99301135  1
  O  O12  1  0.50714591  0.26432815  0.23633578  1
  O  O13  1  0.49285409  0.73567185  0.23633578  1
  O  O14  1  0.49285409  0.26432815  0.76366422  1
  O  O15  1  0.50714591  0.73567185  0.76366422  1
  O  O16  1  0.23672666  0.50696161  0.27517632  1
  O  O17  1  0.23672666  0.49303839  0.72482368  1
  O  O18  1  0.76327334  0.49303839  0.27517632  1
  O  O19  1  0.76327334  0.50696161  0.72482368  1
  O  O20  1  0.26586015  0.24618183  0.50698865  1
  O  O21  1  0.73413985  0.24618183  0.49301135  1
  O  O22  1  0.26586015  0.75381817  0.49301135  1
  O  O23  1  0.73413985  0.75381817  0.50698865  1
loop_
_geom_bond_atom_site_label_1
_geom_bond_atom_site_label_2
_geom_bond_distance
_geom_bond_site_symmetry_2
K0 O20 2.964839 1_555
K0 O22 2.964839 1_545
K0 O21 2.964839 1_555
K0 O23 2.964839 1_545
K0 O5 3.175883 1_555
K0 O6 3.175883 1_555
K0 O7 3.175883 1_545
K0 O4 3.175883 1_545
K0 O15 3.260164 1_545
K0 O14 3.260164 1_555
K0 O13 3.260164 1_545
K0 O12 3.260164 1_555
K1 O12 2.914651 1_555
K1 O13 2.914651 1_555
K1 O14 2.914651 1_554
K1 O15 2.914651 1_554
K1 O9 3.162639 1_555
K1 O8 3.162639 1_554
K1 O11 3.162639 1_554
K1 O10 3.162639 1_555
K1 O18 3.331752 1_555
K1 O16 3.331752 1_555
K1 O19 3.331752 1_554
K1 O17 3.331752 1_554
K2 O8 2.964839 1_554
K2 O10 2.964839 1_555
K2 O9 2.964839 1_455
K2 O11 2.964839 1_454
K2 O18 3.175883 1_455
K2 O19 3.175883 1_454
K2 O16 3.175883 1_555
K2 O17 3.175883 1_554
K2 O0 3.260164 1_455
K2 O1 3.260164 1_555
K2 O2 3.260164 1_554
K2 O3 3.260164 1_454
K3 O0 2.914651 1_455
K3 O2 2.914651 1_555
K3 O3 2.914651 1_445
K3 O1 2.914651 1_545
K3 O21 3.162639 1_455
K3 O20 3.162639 1_555
K3 O23 3.162639 1_445
K3 O22 3.162639 1_545
K3 O4 3.331752 1_545
K3 O7 3.331752 1_445
K3 O5 3.331752 1_555
K3 O6 3.331752 1_455
Ba0 O19 2.856187 1_455
Ba0 O18 2.856187 1_455
Ba0 O17 2.856187 1_555
Ba0 O16 2.856187 1_555
Ba0 O0 3.095485 1_455
Ba0 O3 3.095485 1_455
Ba0 O2 3.095485 1_555
Ba0 O1 3.095485 1_555
Ba0 O23 3.208100 1_455
Ba0 O22 3.208100 1_555
Ba0 O21 3.208100 1_455
Ba0 O20 3.208100 1_555
Ba1 O5 2.856187 1_554
Ba1 O7 2.856187 1_544
Ba1 O6 2.856187 1_555
Ba1 O4 2.856187 1_545
Ba1 O13 3.095485 1_545
Ba1 O15 3.095485 1_544
Ba1 O12 3.095485 1_555
Ba1 O14 3.095485 1_554
Ba1 O11 3.208100 1_544
Ba1 O10 3.208100 1_545
Ba1 O9 3.208100 1_555
Ba1 O8 3.208100 1_554
Ba2 O10 3.013285 1_545
Ba2 O11 3.013285 1_444
Ba2 O8 3.013285 1_554
Ba2 O9 3.013285 1_455
Ba2 O5 3.028554 1_554
Ba2 O7 3.028554 1_444
Ba2 O6 3.028554 1_455
Ba2 O4 3.028554 1_545
Ba2 O2 3.088985 1_554
Ba2 O0 3.088985 1_455
Ba2 O1 3.088985 1_545
Ba2 O3 3.088985 1_444
Ba3 O22 3.013285 1_555
Ba3 O20 3.013285 1_555
Ba3 O23 3.013285 1_555
Ba3 O21 3.013285 1_555
Ba3 O17 3.028554 1_555
Ba3 O18 3.028554 1_555
Ba3 O19 3.028554 1_555
Ba3 O16 3.028554 1_555
Ba3 O14 3.088985 1_555
Ba3 O15 3.088985 1_555
Ba3 O12 3.088985 1_555
Ba3 O13 3.088985 1_555
Bi0 O3 2.130003 1_555
Bi0 O15 2.130003 1_555
Bi0 O7 2.131313 1_555
Bi0 O19 2.131313 1_555
Bi0 O23 2.131603 1_555
Bi0 O11 2.131603 1_555
Bi1 O2 2.130003 1_555
Bi1 O14 2.130003 1_555
Bi1 O5 2.131313 1_555
Bi1 O17 2.131313 1_555
Bi1 O20 2.131603 1_555
Bi1 O8 2.131603 1_555
Bi2 O1 2.130003 1_555
Bi2 O13 2.130003 1_555
Bi2 O16 2.131313 1_555
Bi2 O4 2.131313 1_555
Bi2 O10 2.131603 1_555
Bi2 O22 2.131603 1_555
Bi3 O0 2.130003 1_555
Bi3 O12 2.130003 1_555
Bi3 O18 2.131313 1_555
Bi3 O6 2.131313 1_555
Bi3 O9 2.131603 1_555
Bi3 O21 2.131603 1_555
O0 Tb0 2.254550 1_655
O1 Tb1 2.254550 1_455
O2 Tb2 2.254550 1_455
O3 Tb3 2.254550 1_655
O4 Tb0 2.251790 1_565
O5 Tb3 2.251790 1_545
O6 Tb1 2.251790 1_545
O7 Tb2 2.251790 1_565
O8 Tb0 2.253673 1_556
O9 Tb2 2.253673 1_554
O10 Tb3 2.253673 1_554
O11 Tb1 2.253673 1_556
O12 Tb0 2.254550 1_555
O13 Tb1 2.254550 1_555
O14 Tb2 2.254550 1_555
O15 Tb3 2.254550 1_555
O16 Tb0 2.251790 1_555
O17 Tb3 2.251790 1_555
O18 Tb1 2.251790 1_555
O19 Tb2 2.251790 1_555
O20 Tb0 2.253673 1_555
O21 Tb2 2.253673 1_555
O22 Tb3 2.253673 1_555
O23 Tb1 2.253673 1_555
