# generated using pymatgen
data_Ba6MgSc2C2(O3F7)2
_symmetry_space_group_name_H-M   'P 1'
_cell_length_a   6.64932025
_cell_length_b   8.96782447
_cell_length_c   8.90553503
_cell_angle_alpha   97.76261300
_cell_angle_beta   87.61250321
_cell_angle_gamma   86.00786803
_symmetry_Int_Tables_number   1
_chemical_formula_structural   Ba6MgSc2C2(O3F7)2
_chemical_formula_sum   'Ba6 Mg1 Sc2 C2 O6 F14'
_cell_volume   524.19264587
_cell_formula_units_Z   1
loop_
 _symmetry_equiv_pos_site_id
 _symmetry_equiv_pos_as_xyz
  1  'x, y, z'
loop_
 _atom_site_type_symbol
 _atom_site_label
 _atom_site_symmetry_multiplicity
 _atom_site_fract_x
 _atom_site_fract_y
 _atom_site_fract_z
 _atom_site_occupancy
  Ba  Ba0  1  0.13308488  0.84641786  0.59447416  1
  Ba  Ba1  1  0.78753320  0.61375621  0.85518158  1
  Ba  Ba2  1  0.26719713  0.40251009  0.15849403  1
  Ba  Ba3  1  0.81535575  0.13154321  0.94533674  1
  Ba  Ba4  1  0.28616115  0.91340384  0.09494830  1
  Ba  Ba5  1  0.73002129  0.17550533  0.41755770  1
  Mg  Mg0  1  0.61754405  0.90373912  0.65238359  1
  Sc  Sc0  1  0.25242104  0.27338584  0.73816250  1
  Sc  Sc1  1  0.73512473  0.73121214  0.26175777  1
  C  C0  1  0.24641304  0.46841629  0.54284861  1
  C  C1  1  0.74757856  0.54316391  0.46855757  1
  O  O0  1  0.22860250  0.55871224  0.44394313  1
  O  O1  1  0.76817446  0.68996453  0.50314451  1
  O  O2  1  0.17564189  0.50484474  0.68323062  1
  O  O3  1  0.33384117  0.33141365  0.50957856  1
  O  O4  1  0.75014890  0.45616858  0.56945088  1
  O  O5  1  0.72581894  0.49801390  0.32522390  1
  F  F0  1  0.52373693  0.17176385  0.16666171  1
  F  F1  1  0.24294215  0.12501400  0.90490891  1
  F  F2  1  0.69609942  0.87380289  0.09379332  1
  F  F3  1  0.45317633  0.78562122  0.77509591  1
  F  F4  1  0.40427876  0.07194758  0.62088360  1
  F  F5  1  0.52409804  0.62830954  0.11029644  1
  F  F6  1  0.03056605  0.37496644  0.91237858  1
  F  F7  1  0.49623643  0.34634775  0.85982224  1
  F  F8  1  0.00815461  0.17515738  0.65144677  1
  F  F9  1  0.94302793  0.89055826  0.33435212  1
  F  F10  1  0.03092727  0.84741777  0.88598348  1
  F  F11  1  0.02961308  0.16957917  0.20063434  1
  F  F12  1  0.98270105  0.63707552  0.12878420  1
  F  F13  1  0.48169626  0.86026718  0.36211323  1
loop_
_geom_bond_atom_site_label_1
_geom_bond_atom_site_label_2
_geom_bond_distance
_geom_bond_site_symmetry_2
Ba0 F10 2.654600 1_555
Ba0 F9 2.746272 1_455
Ba0 O0 2.761144 1_555
Ba0 F3 2.788414 1_555
Ba0 F4 2.795040 1_565
Ba0 O1 2.974505 1_455
Ba0 F8 2.976321 1_565
Ba0 F13 3.062769 1_555
Ba1 F6 2.708878 1_655
Ba1 F10 2.727497 1_655
Ba1 O4 2.768406 1_555
Ba1 F3 2.789066 1_555
Ba1 F5 2.793483 1_556
Ba1 F12 2.797917 1_556
Ba1 F2 2.946158 1_556
Ba1 O2 2.979000 1_655
Ba1 F7 3.189199 1_555
Ba2 F0 2.599341 1_555
Ba2 O0 2.724681 1_555
Ba2 F6 2.745149 1_554
Ba2 F11 2.760762 1_555
Ba2 F12 2.776944 1_455
Ba2 F5 2.803197 1_555
Ba2 F7 2.973480 1_554
Ba3 F0 2.677149 1_556
Ba3 F11 2.728211 1_656
Ba3 F6 2.733561 1_655
Ba3 F10 2.809054 1_645
Ba3 F1 2.846479 1_655
Ba3 F2 2.951695 1_546
Ba3 F8 2.951820 1_655
Ba3 F7 2.958896 1_555
Ba4 F10 2.607494 1_554
Ba4 F1 2.716650 1_564
Ba4 F2 2.723630 1_555
Ba4 F11 2.794646 1_565
Ba4 F13 2.838323 1_555
Ba4 F0 2.909551 1_565
Ba4 F5 2.933867 1_555
Ba4 F3 3.055756 1_554
Ba4 F9 3.093702 1_455
Ba4 F12 3.339224 1_455
Ba5 F0 2.667663 1_555
Ba5 O4 2.706460 1_555
Ba5 F11 2.709250 1_655
Ba5 F9 2.825255 1_545
Ba5 F8 2.842653 1_655
Ba5 O3 2.926410 1_555
Ba5 F4 3.039767 1_555
Ba5 O5 3.110443 1_555
Ba5 F13 3.361990 1_545
Mg0 O1 2.319107 1_555
C0 O0 1.278110 1_555
C0 O2 1.307808 1_555
C0 O3 1.312669 1_555
C1 O4 1.266903 1_555
C1 O5 1.303135 1_555
C1 O1 1.328846 1_555
O1 Sc1 2.247016 1_555
O2 Sc0 2.226202 1_555
O3 Sc0 2.222924 1_555
O5 Sc1 2.243020 1_555
F1 Sc0 2.125360 1_555
F2 Sc1 2.107791 1_555
F3 Mg0 1.971087 1_555
F4 Mg0 2.052970 1_545
F4 Sc0 2.126550 1_555
F5 Sc1 2.154443 1_555
F6 Sc0 2.157204 1_555
F7 Sc0 2.081544 1_555
F8 Sc0 2.032324 1_555
F9 Sc1 2.114471 1_555
F12 Sc1 2.049157 1_555
F13 Sc1 2.073978 1_555
