# generated using pymatgen
data_Mn2NiN2
_symmetry_space_group_name_H-M   'P 1'
_cell_length_a   2.85533500
_cell_length_b   2.85094100
_cell_length_c   11.64487600
_cell_angle_alpha   90.00000000
_cell_angle_beta   90.00000000
_cell_angle_gamma   90.00000000
_symmetry_Int_Tables_number   1
_chemical_formula_structural   Mn2NiN2
_chemical_formula_sum   'Mn4 Ni2 N4'
_cell_volume   94.79385101
_cell_formula_units_Z   2
loop_
 _symmetry_equiv_pos_site_id
 _symmetry_equiv_pos_as_xyz
  1  'x, y, z'
loop_
 _atom_site_type_symbol
 _atom_site_label
 _atom_site_symmetry_multiplicity
 _atom_site_fract_x
 _atom_site_fract_y
 _atom_site_fract_z
 _atom_site_occupancy
  Mn  Mn0  1  0.25825400  0.25000000  0.90976400  1
  Mn  Mn1  1  0.25825400  0.25000000  0.59023600  1
  Mn  Mn2  1  0.74174600  0.75000000  0.09023600  1
  Mn  Mn3  1  0.74174600  0.75000000  0.40976400  1
  Ni  Ni0  1  0.22738500  0.25000000  0.25000000  1
  Ni  Ni1  1  0.77261500  0.75000000  0.75000000  1
  N  N0  1  0.24238600  0.25000000  0.41038300  1
  N  N1  1  0.24238600  0.25000000  0.08961700  1
  N  N2  1  0.75761400  0.75000000  0.58961700  1
  N  N3  1  0.75761400  0.75000000  0.91038300  1
loop_
_geom_bond_atom_site_label_1
_geom_bond_atom_site_label_2
_geom_bond_distance
_geom_bond_site_symmetry_2
Mn0 N3 2.016194 1_545
Mn0 N3 2.016194 1_555
Mn0 N3 2.018780 1_445
Mn0 N3 2.018780 1_455
Mn0 N1 2.094856 1_556
Mn1 N2 2.016194 1_555
Mn1 N2 2.016194 1_545
Mn1 N2 2.018780 1_445
Mn1 N2 2.018780 1_455
Mn1 N0 2.094856 1_555
Mn2 N1 2.016194 1_555
Mn2 N1 2.016194 1_565
Mn2 N1 2.018780 1_655
Mn2 N1 2.018780 1_665
Mn2 N3 2.094856 1_554
Mn3 N0 2.016194 1_565
Mn3 N0 2.016194 1_555
Mn3 N0 2.018780 1_655
Mn3 N0 2.018780 1_665
Mn3 N2 2.094856 1_555
N0 Ni0 1.868131 1_555
N1 Ni0 1.868131 1_555
N2 Ni1 1.868131 1_555
N3 Ni1 1.868131 1_555
