# generated using pymatgen
data_Li15Fe15SiO32
_symmetry_space_group_name_H-M   'P 1'
_cell_length_a   6.68666200
_cell_length_b   10.63040419
_cell_length_c   10.67797151
_cell_angle_alpha   90.45933706
_cell_angle_beta   90.07889327
_cell_angle_gamma   90.11705581
_symmetry_Int_Tables_number   1
_chemical_formula_structural   Li15Fe15SiO32
_chemical_formula_sum   'Li15 Fe15 Si1 O32'
_cell_volume   758.98400140
_cell_formula_units_Z   1
loop_
 _symmetry_equiv_pos_site_id
 _symmetry_equiv_pos_as_xyz
  1  'x, y, z'
loop_
 _atom_site_type_symbol
 _atom_site_label
 _atom_site_symmetry_multiplicity
 _atom_site_fract_x
 _atom_site_fract_y
 _atom_site_fract_z
 _atom_site_occupancy
  Li  Li0  1  0.75475900  0.90464100  0.89945100  1
  Li  Li1  1  0.49552600  0.90527700  0.65028700  1
  Li  Li2  1  0.51432000  0.83827900  0.16738300  1
  Li  Li3  1  0.24973100  0.66085900  0.65807200  1
  Li  Li4  1  0.25332900  0.59968200  0.16675800  1
  Li  Li5  1  0.99814700  0.59336000  0.41063300  1
  Li  Li6  1  0.00252100  0.66219500  0.89460400  1
  Li  Li7  1  0.50140900  0.33957200  0.09518200  1
  Li  Li8  1  0.49953400  0.40341000  0.59413200  1
  Li  Li9  1  0.75088500  0.40331300  0.84118500  1
  Li  Li10  1  0.75005400  0.34180000  0.34177200  1
  Li  Li11  1  0.00087100  0.15889500  0.83902400  1
  Li  Li12  1  0.99654300  0.09376200  0.33921500  1
  Li  Li13  1  0.24847600  0.09351900  0.09600400  1
  Li  Li14  1  0.24913000  0.15928500  0.59467700  1
  Fe  Fe0  1  0.24634900  0.91002800  0.90949300  1
  Fe  Fe1  1  0.99648500  0.90462900  0.65933900  1
  Fe  Fe2  1  0.24481400  0.83349500  0.39888900  1
  Fe  Fe3  1  0.74699800  0.65759100  0.66354300  1
  Fe  Fe4  1  0.50099300  0.66156700  0.91032900  1
  Fe  Fe5  1  0.75195200  0.59597300  0.16523500  1
  Fe  Fe6  1  0.50092300  0.58655100  0.41512500  1
  Fe  Fe7  1  0.00073600  0.40893700  0.59073900  1
  Fe  Fe8  1  0.25267800  0.40455900  0.83801300  1
  Fe  Fe9  1  0.00388900  0.33822500  0.09214600  1
  Fe  Fe10  1  0.24864500  0.33837600  0.33957000  1
  Fe  Fe11  1  0.50109700  0.15763900  0.84065200  1
  Fe  Fe12  1  0.74930600  0.16075000  0.59358200  1
  Fe  Fe13  1  0.49930200  0.09171600  0.33845400  1
  Fe  Fe14  1  0.75540800  0.08937200  0.08996500  1
  Si  Si0  1  0.00013200  0.84575700  0.15530800  1
  O  O0  1  0.46881400  0.91634100  0.33270100  1
  O  O1  1  0.79139100  0.90825000  0.09863000  1
  O  O2  1  0.20779400  0.89929700  0.08750800  1
  O  O3  1  0.01914700  0.89043900  0.30259600  1
  O  O4  1  0.01618400  0.84286200  0.83116700  1
  O  O5  1  0.23250100  0.84528600  0.57757600  1
  O  O6  1  0.75255000  0.82937700  0.61704100  1
  O  O7  1  0.48648900  0.83394900  0.85409700  1
  O  O8  1  0.26309900  0.65946900  0.34902500  1
  O  O9  1  0.98937600  0.69297500  0.11617900  1
  O  O10  1  0.51403100  0.66095700  0.08970000  1
  O  O11  1  0.73966600  0.63470900  0.33607800  1
  O  O12  1  0.73939300  0.59751900  0.83676700  1
  O  O13  1  0.50595900  0.59366700  0.59364200  1
  O  O14  1  0.99070800  0.58741300  0.60272100  1
  O  O15  1  0.26135600  0.58408700  0.85007300  1
  O  O16  1  0.76487300  0.41748000  0.14851300  1
  O  O17  1  0.48930700  0.40640100  0.40407200  1
  O  O18  1  0.00960800  0.40000300  0.41261900  1
  O  O19  1  0.24019600  0.40333100  0.16839700  1
  O  O20  1  0.23832500  0.34405000  0.66718700  1
  O  O21  1  0.01342800  0.34237000  0.91369900  1
  O  O22  1  0.49047400  0.32911500  0.90213900  1
  O  O23  1  0.76262600  0.33274000  0.65524700  1
  O  O24  1  0.98943300  0.16782000  0.15556700  1
  O  O25  1  0.25831800  0.16668700  0.39999200  1
  O  O26  1  0.73864400  0.15453400  0.41512400  1
  O  O27  1  0.51595200  0.14964100  0.16452400  1
  O  O28  1  0.50970000  0.09799900  0.66934800  1
  O  O29  1  0.74207200  0.09441400  0.91272400  1
  O  O30  1  0.25980400  0.08813800  0.90544200  1
  O  O31  1  0.98804000  0.08486200  0.65594300  1
loop_
_geom_bond_atom_site_label_1
_geom_bond_atom_site_label_2
_geom_bond_distance
_geom_bond_site_symmetry_2
Li0 O7 2.000839 1_555
Li0 O4 2.004789 1_655
Li0 O29 2.023163 1_565
Li0 O1 2.140581 1_556
Li1 O6 1.932221 1_555
Li1 O5 2.021498 1_555
Li1 O28 2.059150 1_565
Li1 O7 2.311148 1_555
Li2 O0 1.968852 1_555
Li2 O10 2.053344 1_555
Li2 O1 2.128738 1_555
Li2 O2 2.314882 1_555
Li3 O13 1.979725 1_555
Li3 O14 1.985696 1_455
Li3 O5 2.150217 1_555
Li3 O15 2.214042 1_555
Li4 O10 2.036682 1_555
Li4 O8 2.043455 1_555
Li4 O19 2.089172 1_555
Li4 O9 2.098441 1_455
Li5 O11 1.954274 1_555
Li5 O8 2.017648 1_655
Li5 O14 2.053259 1_555
Li5 O18 2.057326 1_655
Li6 O15 1.978082 1_555
Li6 O12 1.983689 1_455
Li6 O4 2.043542 1_555
Li6 O9 2.387653 1_456
Li7 O16 2.024223 1_555
Li7 O19 2.030135 1_555
Li7 O22 2.064599 1_554
Li7 O27 2.158427 1_555
Li8 O20 2.016066 1_555
Li8 O13 2.022926 1_555
Li8 O23 2.023648 1_555
Li8 O17 2.031019 1_555
Li9 O22 2.020781 1_555
Li9 O21 2.027340 1_655
Li9 O12 2.066989 1_555
Li9 O23 2.118432 1_555
Li10 O18 1.987898 1_655
Li10 O17 1.988666 1_555
Li10 O26 2.146342 1_555
Li10 O16 2.223154 1_555
Li11 O30 2.019152 1_555
Li11 O29 2.022711 1_455
Li11 O21 2.102661 1_555
Li11 O31 2.103115 1_455
Li12 O26 2.012015 1_555
Li12 O25 2.017251 1_655
Li12 O24 2.119475 1_555
Li12 O3 2.198945 1_645
Li13 O24 2.007294 1_455
Li13 O27 2.018687 1_555
Li13 O30 2.036679 1_554
Li13 O2 2.083189 1_545
Li14 O28 2.026102 1_555
Li14 O31 2.026716 1_455
Li14 O25 2.081946 1_555
Li14 O20 2.106856 1_555
Fe0 O4 1.886882 1_555
Fe0 O7 1.892777 1_555
Fe0 O30 1.896177 1_565
Fe0 O2 1.922855 1_556
Fe1 O6 1.868502 1_555
Fe1 O5 1.910449 1_655
Fe1 O31 1.917529 1_565
Fe1 O4 1.958031 1_655
Fe2 O0 1.877780 1_555
Fe2 O5 1.913021 1_555
Fe2 O8 1.925132 1_555
Fe2 O3 1.926150 1_555
Fe3 O6 1.896600 1_555
Fe3 O13 1.897549 1_555
Fe3 O14 1.906324 1_555
Fe3 O12 1.962337 1_555
Fe4 O12 1.902900 1_555
Fe4 O15 1.908726 1_555
Fe4 O10 1.917245 1_556
Fe4 O7 1.935502 1_555
Fe5 O11 1.868885 1_555
Fe5 O16 1.906556 1_555
Fe5 O10 1.915358 1_555
Fe5 O9 1.965287 1_555
Fe6 O11 1.878908 1_555
Fe6 O13 1.907342 1_555
Fe6 O8 1.907521 1_555
Fe6 O17 1.919163 1_555
Fe7 O14 1.901883 1_455
Fe7 O18 1.904581 1_555
Fe7 O23 1.916311 1_455
Fe7 O20 1.917285 1_555
Fe8 O22 1.910858 1_555
Fe8 O21 1.912408 1_555
Fe8 O15 1.912521 1_555
Fe8 O20 1.931493 1_555
Fe9 O19 1.903056 1_555
Fe9 O16 1.904316 1_455
Fe9 O21 1.907466 1_554
Fe9 O24 1.941269 1_455
Fe10 O17 1.889739 1_555
Fe10 O18 1.895225 1_555
Fe10 O25 1.941847 1_555
Fe10 O19 1.959814 1_555
Fe11 O30 1.906328 1_555
Fe11 O29 1.910402 1_555
Fe11 O28 1.932098 1_555
Fe11 O22 1.934010 1_555
Fe12 O26 1.907415 1_555
Fe12 O31 1.911396 1_555
Fe12 O28 1.916844 1_555
Fe12 O23 1.940138 1_555
Fe13 O0 1.875514 1_545
Fe13 O26 1.913297 1_555
Fe13 O25 1.913963 1_555
Fe13 O27 1.964549 1_555
Fe14 O29 1.895744 1_554
Fe14 O27 1.899356 1_555
Fe14 O24 1.901885 1_555
Fe14 O1 1.943786 1_545
O1 Si0 1.662443 1_655
O2 Si0 1.668029 1_555
O3 Si0 1.643930 1_555
O9 Si0 1.675147 1_655
