# generated using pymatgen
data_MgSi
_symmetry_space_group_name_H-M   'P 1'
_cell_length_a   3.61430700
_cell_length_b   5.18689100
_cell_length_c   12.37572903
_cell_angle_alpha   82.56841319
_cell_angle_beta   90.00000000
_cell_angle_gamma   90.00000000
_symmetry_Int_Tables_number   1
_chemical_formula_structural   MgSi
_chemical_formula_sum   'Mg6 Si6'
_cell_volume   230.05913030
_cell_formula_units_Z   6
loop_
 _symmetry_equiv_pos_site_id
 _symmetry_equiv_pos_as_xyz
  1  'x, y, z'
loop_
 _atom_site_type_symbol
 _atom_site_label
 _atom_site_symmetry_multiplicity
 _atom_site_fract_x
 _atom_site_fract_y
 _atom_site_fract_z
 _atom_site_occupancy
  Mg  Mg0  1  0.75000000  0.25534400  0.05480900  1
  Mg  Mg1  1  0.75000000  0.42709400  0.38706700  1
  Mg  Mg2  1  0.25000000  0.57290600  0.61293300  1
  Mg  Mg3  1  0.75000000  0.03292200  0.72084000  1
  Mg  Mg4  1  0.25000000  0.96707800  0.27916000  1
  Mg  Mg5  1  0.25000000  0.74465600  0.94519100  1
  Si  Si0  1  0.25000000  0.26015300  0.87444700  1
  Si  Si1  1  0.25000000  0.10616300  0.53808400  1
  Si  Si2  1  0.25000000  0.48336400  0.20733000  1
  Si  Si3  1  0.75000000  0.73984700  0.12555300  1
  Si  Si4  1  0.75000000  0.51663600  0.79267000  1
  Si  Si5  1  0.75000000  0.89383700  0.46191600  1
loop_
_geom_bond_atom_site_label_1
_geom_bond_atom_site_label_2
_geom_bond_distance
_geom_bond_site_symmetry_2
Mg0 Si3 2.703756 1_545
Mg0 Si3 2.766074 1_555
Mg0 Si0 2.869555 1_654
Mg0 Si0 2.869555 1_554
Mg0 Si2 2.967321 1_555
Mg0 Si2 2.967321 1_655
Mg1 Si5 2.701692 1_555
Mg1 Si5 2.801022 1_545
Mg1 Si2 2.851473 1_655
Mg1 Si2 2.851473 1_555
Mg1 Si1 2.953806 1_555
Mg1 Si1 2.953806 1_655
Mg2 Si1 2.701692 1_555
Mg2 Si1 2.801022 1_565
Mg2 Si4 2.851473 1_555
Mg2 Si4 2.851473 1_455
Mg2 Si5 2.953806 1_555
Mg2 Si5 2.953806 1_455
Mg3 Si4 2.710290 1_545
Mg3 Si4 2.768054 1_555
Mg3 Si1 2.881548 1_655
Mg3 Si1 2.881548 1_555
Mg3 Si0 2.974617 1_555
Mg3 Si0 2.974617 1_655
Mg4 Si2 2.710290 1_565
Mg4 Si2 2.768054 1_555
Mg4 Si5 2.881548 1_555
Mg4 Si5 2.881548 1_455
Mg4 Si3 2.974617 1_555
Mg4 Si3 2.974617 1_455
Mg5 Si0 2.703756 1_565
Mg5 Si0 2.766074 1_555
Mg5 Si3 2.869555 1_556
Mg5 Si3 2.869555 1_456
Mg5 Si4 2.967321 1_555
Mg5 Si4 2.967321 1_455
Si0 Si4 2.389893 1_555
Si0 Si4 2.389893 1_455
Si1 Si5 2.373984 1_545
Si1 Si5 2.373984 1_445
Si2 Si3 2.389893 1_555
Si2 Si3 2.389893 1_455
