# generated using pymatgen
data_Cs3AsSe4
_symmetry_space_group_name_H-M   'P 1'
_cell_length_a   10.13696570
_cell_length_b   10.32970119
_cell_length_c   12.05357958
_cell_angle_alpha   90.00000000
_cell_angle_beta   90.00000000
_cell_angle_gamma   90.00000000
_symmetry_Int_Tables_number   1
_chemical_formula_structural   Cs3AsSe4
_chemical_formula_sum   'Cs12 As4 Se16'
_cell_volume   1262.15233554
_cell_formula_units_Z   4
loop_
 _symmetry_equiv_pos_site_id
 _symmetry_equiv_pos_as_xyz
  1  'x, y, z'
loop_
 _atom_site_type_symbol
 _atom_site_label
 _atom_site_symmetry_multiplicity
 _atom_site_fract_x
 _atom_site_fract_y
 _atom_site_fract_z
 _atom_site_occupancy
  Cs  Cs0  1  0.54333933  0.69798603  0.04052254  1
  Cs  Cs1  1  0.04333933  0.80201397  0.45947746  1
  Cs  Cs2  1  0.45666067  0.30201397  0.54052254  1
  Cs  Cs3  1  0.95666067  0.19798603  0.95947746  1
  Cs  Cs4  1  0.45666067  0.30201397  0.95947746  1
  Cs  Cs5  1  0.95666067  0.19798603  0.54052254  1
  Cs  Cs6  1  0.54333933  0.69798603  0.45947746  1
  Cs  Cs7  1  0.04333933  0.80201397  0.04052254  1
  Cs  Cs8  1  0.34491696  0.09035588  0.25000000  1
  Cs  Cs9  1  0.84491696  0.40964412  0.25000000  1
  Cs  Cs10  1  0.65508304  0.90964412  0.75000000  1
  Cs  Cs11  1  0.15508304  0.59035588  0.75000000  1
  As  As0  1  0.26996896  0.52522660  0.25000000  1
  As  As1  1  0.76996896  0.97477340  0.25000000  1
  As  As2  1  0.73003104  0.47477340  0.75000000  1
  As  As3  1  0.23003104  0.02522660  0.75000000  1
  Se  Se0  1  0.29541427  0.74880636  0.25000000  1
  Se  Se1  1  0.79541427  0.75119364  0.25000000  1
  Se  Se2  1  0.70458573  0.25119364  0.75000000  1
  Se  Se3  1  0.20458573  0.24880636  0.75000000  1
  Se  Se4  1  0.47824825  0.42776056  0.25000000  1
  Se  Se5  1  0.97824825  0.07223944  0.25000000  1
  Se  Se6  1  0.52175175  0.57223944  0.75000000  1
  Se  Se7  1  0.02175175  0.92776056  0.75000000  1
  Se  Se8  1  0.15816548  0.46452502  0.08978198  1
  Se  Se9  1  0.65816548  0.03547498  0.41021802  1
  Se  Se10  1  0.84183452  0.53547498  0.58978198  1
  Se  Se11  1  0.34183452  0.96452502  0.91021802  1
  Se  Se12  1  0.84183452  0.53547498  0.91021802  1
  Se  Se13  1  0.34183452  0.96452502  0.58978198  1
  Se  Se14  1  0.15816548  0.46452502  0.41021802  1
  Se  Se15  1  0.65816548  0.03547498  0.08978198  1
loop_
_geom_bond_atom_site_label_1
_geom_bond_atom_site_label_2
_geom_bond_distance
_geom_bond_site_symmetry_2
Cs0 Se0 3.600998 1_555
Cs0 Se1 3.634130 1_555
Cs0 Se15 3.722999 1_565
Cs0 Se6 3.741384 1_554
Cs0 Se11 3.770914 1_554
Cs0 Se12 3.800076 1_554
Cs0 Se4 3.821307 1_555
Cs1 Se1 3.600998 1_455
Cs1 Se0 3.634130 1_555
Cs1 Se14 3.722999 1_555
Cs1 Se7 3.741384 1_555
Cs1 Se10 3.770914 1_455
Cs1 Se13 3.800076 1_555
Cs1 Se5 3.821307 1_465
Cs2 Se2 3.600998 1_555
Cs2 Se3 3.634130 1_555
Cs2 Se13 3.722999 1_545
Cs2 Se4 3.741384 1_555
Cs2 Se9 3.770914 1_555
Cs2 Se14 3.800076 1_555
Cs2 Se6 3.821307 1_555
Cs3 Se3 3.600998 1_655
Cs3 Se2 3.634130 1_555
Cs3 Se12 3.722999 1_555
Cs3 Se5 3.741384 1_556
Cs3 Se8 3.770914 1_656
Cs3 Se15 3.800076 1_556
Cs3 Se7 3.821307 1_645
Cs4 Se2 3.600998 1_555
Cs4 Se3 3.634130 1_555
Cs4 Se11 3.722999 1_545
Cs4 Se4 3.741384 1_556
Cs4 Se15 3.770914 1_556
Cs4 Se8 3.800076 1_556
Cs4 Se6 3.821307 1_555
Cs5 Se3 3.600998 1_655
Cs5 Se2 3.634130 1_555
Cs5 Se10 3.722999 1_555
Cs5 Se5 3.741384 1_555
Cs5 Se14 3.770914 1_655
Cs5 Se9 3.800076 1_555
Cs5 Se7 3.821307 1_645
Cs6 Se0 3.600998 1_555
Cs6 Se1 3.634130 1_555
Cs6 Se9 3.722999 1_565
Cs6 Se6 3.741384 1_555
Cs6 Se13 3.770914 1_555
Cs6 Se10 3.800076 1_555
Cs6 Se4 3.821307 1_555
Cs7 Se1 3.600998 1_455
Cs7 Se0 3.634130 1_555
Cs7 Se8 3.722999 1_555
Cs7 Se7 3.741384 1_554
Cs7 Se12 3.770914 1_454
Cs7 Se11 3.800076 1_554
Cs7 Se5 3.821307 1_465
Cs8 Se0 3.563612 1_545
Cs8 Se5 3.721616 1_455
Cs8 Se4 3.738181 1_555
Cs8 Se15 3.759523 1_555
Cs8 Se9 3.759523 1_555
Cs9 Se1 3.563612 1_555
Cs9 Se4 3.721616 1_555
Cs9 Se5 3.738181 1_555
Cs9 Se8 3.759523 1_655
Cs9 Se14 3.759523 1_655
Cs10 Se2 3.563612 1_565
Cs10 Se7 3.721616 1_655
Cs10 Se6 3.738181 1_555
Cs10 Se13 3.759523 1_555
Cs10 Se11 3.759523 1_555
Cs11 Se3 3.563612 1_555
Cs11 Se6 3.721616 1_555
Cs11 Se7 3.738181 1_555
Cs11 Se10 3.759523 1_455
Cs11 Se12 3.759523 1_455
As0 Se0 2.323871 1_555
As0 Se8 2.325334 1_555
As0 Se14 2.325334 1_555
As0 Se4 2.339083 1_555
As1 Se1 2.323871 1_555
As1 Se9 2.325334 1_565
As1 Se15 2.325334 1_565
As1 Se5 2.339083 1_565
As2 Se2 2.323871 1_555
As2 Se10 2.325334 1_555
As2 Se12 2.325334 1_555
As2 Se6 2.339083 1_555
As3 Se3 2.323871 1_555
As3 Se13 2.325334 1_545
As3 Se11 2.325334 1_545
As3 Se7 2.339083 1_545
