# generated using pymatgen
data_La4Ti2Se5O4
_symmetry_space_group_name_H-M   'P 1'
_cell_length_a   16.77210175
_cell_length_b   16.77210175
_cell_length_c   18.68550500
_cell_angle_alpha   90.00000000
_cell_angle_beta   90.00000000
_cell_angle_gamma   166.17822670
_symmetry_Int_Tables_number   1
_chemical_formula_structural   La4Ti2Se5O4
_chemical_formula_sum   'La16 Ti8 Se20 O16'
_cell_volume   1255.74219413
_cell_formula_units_Z   4
loop_
 _symmetry_equiv_pos_site_id
 _symmetry_equiv_pos_as_xyz
  1  'x, y, z'
loop_
 _atom_site_type_symbol
 _atom_site_label
 _atom_site_symmetry_multiplicity
 _atom_site_fract_x
 _atom_site_fract_y
 _atom_site_fract_z
 _atom_site_occupancy
  La  La0  1  0.89678800  0.10321200  0.45492400  1
  La  La1  1  0.10314400  0.89685600  0.54375900  1
  La  La2  1  0.89685600  0.10314400  0.04375900  1
  La  La3  1  0.10321200  0.89678800  0.95492400  1
  La  La4  1  0.45771500  0.54228500  0.25048700  1
  La  La5  1  0.54228500  0.45771500  0.75048700  1
  La  La6  1  0.74140500  0.25859500  0.86159000  1
  La  La7  1  0.25754000  0.74246000  0.13814600  1
  La  La8  1  0.74246000  0.25754000  0.63814600  1
  La  La9  1  0.25859500  0.74140500  0.36159000  1
  La  La10  1  0.68421300  0.31578700  0.25011400  1
  La  La11  1  0.31578700  0.68421300  0.75011400  1
  La  La12  1  0.56576200  0.43423800  0.37964400  1
  La  La13  1  0.43417800  0.56582200  0.61989300  1
  La  La14  1  0.56582200  0.43417800  0.11989300  1
  La  La15  1  0.43423800  0.56576200  0.87964400  1
  Ti  Ti0  1  0.67136800  0.32863200  0.43758800  1
  Ti  Ti1  1  0.32885100  0.67114900  0.56214300  1
  Ti  Ti2  1  0.67114900  0.32885100  0.06214300  1
  Ti  Ti3  1  0.32863200  0.67136800  0.93758800  1
  Ti  Ti4  1  0.99996100  0.00003900  0.50020800  1
  Ti  Ti5  1  0.00003900  0.99996100  0.00020800  1
  Ti  Ti6  1  0.87043100  0.12956900  0.25218200  1
  Ti  Ti7  1  0.12956900  0.87043100  0.75218200  1
  Se  Se0  1  0.86366100  0.13633900  0.85037600  1
  Se  Se1  1  0.13636800  0.86363200  0.14987500  1
  Se  Se2  1  0.86363200  0.13636800  0.64987500  1
  Se  Se3  1  0.13633900  0.86366100  0.35037600  1
  Se  Se4  1  0.79267800  0.20732200  0.24937900  1
  Se  Se5  1  0.20732200  0.79267800  0.74937900  1
  Se  Se6  1  0.80205900  0.19794100  0.48435800  1
  Se  Se7  1  0.19758000  0.80242000  0.51674000  1
  Se  Se8  1  0.80242000  0.19758000  0.01674000  1
  Se  Se9  1  0.19794100  0.80205900  0.98435800  1
  Se  Se10  1  0.47341800  0.52658200  0.41564900  1
  Se  Se11  1  0.52675800  0.47324200  0.58549700  1
  Se  Se12  1  0.47324200  0.52675800  0.08549700  1
  Se  Se13  1  0.52658200  0.47341800  0.91564900  1
  Se  Se14  1  0.03336700  0.96663300  0.24998500  1
  Se  Se15  1  0.96663300  0.03336700  0.74998500  1
  Se  Se16  1  0.36435200  0.63564800  0.34495500  1
  Se  Se17  1  0.63001400  0.36998600  0.66001900  1
  Se  Se18  1  0.36998600  0.63001400  0.16001900  1
  Se  Se19  1  0.63564800  0.36435200  0.84495500  1
  O  O0  1  0.61620700  0.38379300  0.47818200  1
  O  O1  1  0.38383700  0.61616300  0.52191300  1
  O  O2  1  0.61616300  0.38383700  0.02191300  1
  O  O3  1  0.38379300  0.61620700  0.97818200  1
  O  O4  1  0.94883500  0.05116500  0.94868700  1
  O  O5  1  0.05110300  0.94889700  0.05134300  1
  O  O6  1  0.94889700  0.05110300  0.55134300  1
  O  O7  1  0.05116500  0.94883500  0.44868700  1
  O  O8  1  0.71617300  0.28382700  0.37138800  1
  O  O9  1  0.28400100  0.71599900  0.62884800  1
  O  O10  1  0.71599900  0.28400100  0.12884800  1
  O  O11  1  0.28382700  0.71617300  0.87138800  1
  O  O12  1  0.22081600  0.77918400  0.24993600  1
  O  O13  1  0.77918400  0.22081600  0.74993600  1
  O  O14  1  0.92706600  0.07293400  0.26069200  1
  O  O15  1  0.07293400  0.92706600  0.76069200  1
loop_
_geom_bond_atom_site_label_1
_geom_bond_atom_site_label_2
_geom_bond_distance
_geom_bond_site_symmetry_2
La0 O1 2.413624 1_545
La0 O1 2.413624 1_655
La0 O6 2.501401 1_555
La0 Se16 3.076000 1_545
La0 Se16 3.076000 1_655
La0 Se6 3.202108 1_555
La0 Se10 3.335133 1_545
La0 Se10 3.335133 1_655
La1 O0 2.400720 1_565
La1 O0 2.400720 1_455
La1 O7 2.480311 1_555
La1 Se17 3.097197 1_455
La1 Se17 3.097197 1_565
La1 Se7 3.185033 1_555
La1 Se11 3.339367 1_565
La1 Se11 3.339367 1_455
La2 O3 2.400720 1_654
La2 O3 2.400720 1_544
La2 O4 2.480311 1_554
La2 Se18 3.097197 1_655
La2 Se18 3.097197 1_545
La2 Se8 3.185033 1_555
La2 Se12 3.339367 1_655
La2 Se12 3.339367 1_545
La3 O2 2.413624 1_456
La3 O2 2.413624 1_566
La3 O5 2.501401 1_556
La3 Se19 3.076000 1_455
La3 Se19 3.076000 1_565
La3 Se9 3.202108 1_555
La3 Se13 3.335133 1_455
La3 Se13 3.335133 1_565
La4 O14 2.269540 1_455
La4 O14 2.269540 1_565
La4 Se12 3.125980 1_555
La4 Se10 3.130124 1_555
La4 Se14 3.227921 1_655
La4 Se14 3.227921 1_545
La4 Se18 3.375244 1_555
La5 O15 2.269540 1_545
La5 O15 2.269540 1_655
La5 Se11 3.125980 1_555
La5 Se13 3.130124 1_555
La5 Se15 3.227921 1_565
La5 Se15 3.227921 1_455
La5 Se17 3.375244 1_555
La6 O13 2.436269 1_555
La6 O11 2.470210 1_545
La6 O11 2.470210 1_655
La6 Se5 3.123649 1_545
La6 Se5 3.123649 1_655
La6 Se9 3.380830 1_545
La6 Se9 3.380830 1_655
La6 Se19 3.535450 1_555
La6 Se8 3.540177 1_556
La7 O12 2.420507 1_555
La7 O10 2.452871 1_565
La7 O10 2.452871 1_455
La7 Se4 3.124399 1_565
La7 Se4 3.124399 1_455
La7 Se8 3.384172 1_565
La7 Se8 3.384172 1_455
La7 Se9 3.492356 1_554
La7 Se18 3.766746 1_555
La8 O13 2.420507 1_555
La8 O9 2.452871 1_655
La8 O9 2.452871 1_545
La8 Se5 3.124399 1_655
La8 Se5 3.124399 1_545
La8 Se7 3.384172 1_655
La8 Se7 3.384172 1_545
La8 Se6 3.492356 1_555
La8 Se17 3.766746 1_555
La9 O12 2.436269 1_555
La9 O8 2.470210 1_455
La9 O8 2.470210 1_565
La9 Se4 3.123649 1_565
La9 Se4 3.123649 1_455
La9 Se6 3.380830 1_565
La9 Se6 3.380830 1_455
La9 Se16 3.535450 1_555
La9 Se7 3.540177 1_555
La10 O12 2.357646 1_655
La10 O12 2.357646 1_545
La10 O10 2.500955 1_555
La10 O8 2.503548 1_555
La10 Se1 3.181108 1_655
La10 Se1 3.181108 1_545
La10 Se3 3.181844 1_655
La10 Se3 3.181844 1_545
La11 O13 2.357646 1_565
La11 O13 2.357646 1_455
La11 O9 2.500955 1_555
La11 O11 2.503548 1_555
La11 Se2 3.181108 1_565
La11 Se2 3.181108 1_455
La11 Se0 3.181844 1_565
La11 Se0 3.181844 1_455
La12 O7 2.444058 1_655
La12 O7 2.444058 1_545
La12 O0 2.492390 1_555
La12 Se3 3.145715 1_545
La12 Se3 3.145715 1_655
La12 Se10 3.147835 1_555
La12 Se14 3.332597 1_545
La12 Se14 3.332597 1_655
La13 O6 2.440021 1_455
La13 O6 2.440021 1_565
La13 O1 2.482358 1_555
La13 Se2 3.147292 1_455
La13 Se2 3.147292 1_565
La13 Se11 3.149239 1_555
La13 Se15 3.339130 1_455
La13 Se15 3.339130 1_565
La14 O5 2.440021 1_545
La14 O5 2.440021 1_655
La14 O2 2.482358 1_555
La14 Se1 3.147292 1_545
La14 Se1 3.147292 1_655
La14 Se12 3.149239 1_555
La14 Se14 3.339130 1_545
La14 Se14 3.339130 1_655
La15 O4 2.444058 1_565
La15 O4 2.444058 1_455
La15 O3 2.492390 1_555
La15 Se0 3.145715 1_455
La15 Se0 3.145715 1_565
La15 Se13 3.147835 1_555
La15 Se15 3.332597 1_455
La15 Se15 3.332597 1_565
Se0 Ti3 2.844126 1_655
Se0 Ti3 2.844126 1_545
Se1 Ti2 2.846334 1_565
Se1 Ti2 2.846334 1_455
Se2 Ti1 2.846334 1_655
Se2 Ti1 2.846334 1_545
Se3 Ti0 2.844126 1_565
Se3 Ti0 2.844126 1_455
Se4 Ti6 2.589743 1_555
Se5 Ti7 2.589743 1_555
Se6 Ti1 2.642213 1_545
Se6 Ti1 2.642213 1_655
Se7 Ti0 2.649925 1_455
Se7 Ti0 2.649925 1_565
Se8 Ti3 2.649925 1_544
Se8 Ti3 2.649925 1_654
Se9 Ti2 2.642213 1_456
Se9 Ti2 2.642213 1_566
Se10 Ti4 2.711186 1_565
Se10 Ti4 2.711186 1_455
Se11 Ti4 2.721919 1_455
Se11 Ti4 2.721919 1_565
Se12 Ti5 2.721919 1_655
Se12 Ti5 2.721919 1_545
Se13 Ti5 2.711186 1_546
Se13 Ti5 2.711186 1_656
Se16 Ti6 2.668110 1_455
Se16 Ti6 2.668110 1_565
Se17 Ti7 2.653048 1_655
Se17 Ti7 2.653048 1_545
Se18 Ti6 2.653048 1_455
Se18 Ti6 2.653048 1_565
Se19 Ti7 2.668110 1_655
Se19 Ti7 2.668110 1_545
O0 Ti0 1.987337 1_555
O1 Ti1 1.979359 1_555
O2 Ti2 1.979359 1_555
O3 Ti3 1.987337 1_555
O4 Ti5 1.958114 1_646
O5 Ti5 1.950513 1_555
O6 Ti4 1.950513 1_555
O7 Ti4 1.958114 1_465
O8 Ti0 1.938110 1_555
O9 Ti1 1.945296 1_555
O10 Ti2 1.945296 1_555
O11 Ti3 1.938110 1_555
O14 Ti6 1.892665 1_555
O15 Ti7 1.892665 1_555
