# generated using pymatgen
data_TaWN3
_symmetry_space_group_name_H-M   'P 1'
_cell_length_a   5.88507527
_cell_length_b   9.57288785
_cell_length_c   7.88604412
_cell_angle_alpha   123.85719219
_cell_angle_beta   76.09126996
_cell_angle_gamma   119.13311914
_symmetry_Int_Tables_number   1
_chemical_formula_structural   TaWN3
_chemical_formula_sum   'Ta4 W4 N12'
_cell_volume   321.97469324
_cell_formula_units_Z   4
loop_
 _symmetry_equiv_pos_site_id
 _symmetry_equiv_pos_as_xyz
  1  'x, y, z'
loop_
 _atom_site_type_symbol
 _atom_site_label
 _atom_site_symmetry_multiplicity
 _atom_site_fract_x
 _atom_site_fract_y
 _atom_site_fract_z
 _atom_site_occupancy
  Ta  Ta0  1  0.12206000  0.38249100  0.53724300  1
  Ta  Ta1  1  0.87794000  0.61750900  0.46275700  1
  Ta  Ta2  1  0.03122500  0.94347800  0.26837400  1
  Ta  Ta3  1  0.96877500  0.05652200  0.73162600  1
  W  W0  1  0.72502800  0.77762200  0.86089200  1
  W  W1  1  0.27497200  0.22237800  0.13910800  1
  W  W2  1  0.76176000  0.20170600  0.17896000  1
  W  W3  1  0.23824000  0.79829400  0.82104000  1
  N  N0  1  0.36800900  0.03940100  0.16352500  1
  N  N1  1  0.63199100  0.96059900  0.83647500  1
  N  N2  1  0.91986200  0.71902900  0.97583800  1
  N  N3  1  0.08013800  0.28097100  0.02416200  1
  N  N4  1  0.85700500  0.03069300  0.17227300  1
  N  N5  1  0.14299500  0.96930700  0.82772700  1
  N  N6  1  0.20728300  0.64222700  0.53368000  1
  N  N7  1  0.79271700  0.35777300  0.46632000  1
  N  N8  1  0.61653400  0.40587600  0.22461200  1
  N  N9  1  0.38346600  0.59412400  0.77538800  1
  N  N10  1  0.99050800  0.83102100  0.43115700  1
  N  N11  1  0.00949200  0.16897900  0.56884300  1
loop_
_geom_bond_atom_site_label_1
_geom_bond_atom_site_label_2
_geom_bond_distance
_geom_bond_site_symmetry_2
Ta0 W1 2.763947 1_555
Ta1 W0 2.763947 1_555
N0 Ta2 1.934231 1_545
N0 W2 2.053729 1_555
N0 W1 2.182969 1_555
N0 W3 2.352535 1_544
N1 Ta3 1.934231 1_565
N1 W3 2.053729 1_555
N1 W0 2.182969 1_555
N1 W2 2.352535 1_566
N2 W3 2.030972 1_655
N2 W0 2.035545 1_555
N2 Ta2 2.049589 1_656
N3 W2 2.030972 1_455
N3 W1 2.035545 1_555
N3 Ta3 2.049589 1_454
N4 W2 1.944247 1_555
N4 Ta2 2.057842 1_645
N4 W0 2.226739 1_544
N4 W1 2.305786 1_655
N5 W3 1.944247 1_555
N5 Ta3 2.057842 1_465
N5 W1 2.226739 1_566
N5 W0 2.305786 1_455
N6 W3 1.887232 1_555
N6 Ta1 2.013107 1_455
N6 Ta0 2.300322 1_555
N7 W2 1.887232 1_555
N7 Ta0 2.013107 1_655
N7 Ta1 2.300322 1_555
N8 W1 1.864049 1_555
N8 Ta1 2.028028 1_555
N8 W2 2.318326 1_555
N9 W0 1.864049 1_555
N9 Ta0 2.028028 1_555
N9 W3 2.318326 1_555
N10 Ta1 1.961726 1_555
N10 Ta2 2.001268 1_655
N10 Ta3 2.171312 1_565
N11 Ta0 1.961726 1_555
N11 Ta3 2.001268 1_455
N11 Ta2 2.171312 1_545
