# generated using pymatgen
data_CaCuBi2O7
_symmetry_space_group_name_H-M   'P 1'
_cell_length_a   9.14798600
_cell_length_b   10.40008700
_cell_length_c   11.53457772
_cell_angle_alpha   83.53966536
_cell_angle_beta   90.00000000
_cell_angle_gamma   90.00000000
_symmetry_Int_Tables_number   1
_chemical_formula_structural   CaCuBi2O7
_chemical_formula_sum   'Ca6 Cu6 Bi12 O42'
_cell_volume   1090.42950557
_cell_formula_units_Z   6
loop_
 _symmetry_equiv_pos_site_id
 _symmetry_equiv_pos_as_xyz
  1  'x, y, z'
loop_
 _atom_site_type_symbol
 _atom_site_label
 _atom_site_symmetry_multiplicity
 _atom_site_fract_x
 _atom_site_fract_y
 _atom_site_fract_z
 _atom_site_occupancy
  Ca  Ca0  1  0.47566200  0.82532100  0.58314000  1
  Ca  Ca1  1  0.96609300  0.50000000  0.75000000  1
  Ca  Ca2  1  0.47566200  0.17467900  0.91686000  1
  Ca  Ca3  1  0.03390700  0.50000000  0.25000000  1
  Ca  Ca4  1  0.52433800  0.17467900  0.41686000  1
  Ca  Ca5  1  0.52433800  0.82532100  0.08314000  1
  Cu  Cu0  1  0.90096800  0.21663900  0.40845900  1
  Cu  Cu1  1  0.09903200  0.78336100  0.59154100  1
  Cu  Cu2  1  0.40262600  0.50000000  0.25000000  1
  Cu  Cu3  1  0.90096800  0.78336100  0.09154100  1
  Cu  Cu4  1  0.59737400  0.50000000  0.75000000  1
  Cu  Cu5  1  0.09903200  0.21663900  0.90845900  1
  Bi  Bi0  1  0.18503700  0.81517900  0.31216200  1
  Bi  Bi1  1  0.77471600  0.85728900  0.38109100  1
  Bi  Bi2  1  0.22528400  0.85728900  0.88109100  1
  Bi  Bi3  1  0.81496300  0.81517900  0.81216200  1
  Bi  Bi4  1  0.30153800  0.50551900  0.97478000  1
  Bi  Bi5  1  0.77471600  0.14271100  0.11890900  1
  Bi  Bi6  1  0.69846200  0.50551900  0.47478000  1
  Bi  Bi7  1  0.22528400  0.14271100  0.61890900  1
  Bi  Bi8  1  0.30153800  0.49448100  0.52522000  1
  Bi  Bi9  1  0.69846200  0.49448100  0.02522000  1
  Bi  Bi10  1  0.81496300  0.18482100  0.68783800  1
  Bi  Bi11  1  0.18503700  0.18482100  0.18783800  1
  O  O0  1  0.74647300  0.74644700  0.99464400  1
  O  O1  1  0.76859100  0.15332600  0.30198600  1
  O  O2  1  0.89800900  0.00000000  0.75000000  1
  O  O3  1  0.88822700  0.46746800  0.10679600  1
  O  O4  1  0.37464300  0.03419100  0.53919700  1
  O  O5  1  0.94662200  0.72598200  0.69462700  1
  O  O6  1  0.35409900  0.70466000  0.96177100  1
  O  O7  1  0.11177300  0.46746800  0.60679600  1
  O  O8  1  0.74528500  0.54751300  0.84778500  1
  O  O9  1  0.37464300  0.96580900  0.96080300  1
  O  O10  1  0.74528500  0.45248700  0.65221500  1
  O  O11  1  0.47938300  0.44104400  0.88006500  1
  O  O12  1  0.99561600  0.16833200  0.05164200  1
  O  O13  1  0.05337800  0.72598200  0.19462700  1
  O  O14  1  0.64590100  0.29534000  0.03822900  1
  O  O15  1  0.35409900  0.29534000  0.53822900  1
  O  O16  1  0.94662200  0.27401800  0.80537300  1
  O  O17  1  0.62535700  0.96580900  0.46080300  1
  O  O18  1  0.25352700  0.74644700  0.49464400  1
  O  O19  1  0.52061700  0.55895600  0.11993500  1
  O  O20  1  0.38822900  0.18622200  0.25382400  1
  O  O21  1  0.25471500  0.45248700  0.15221500  1
  O  O22  1  0.00438400  0.16833200  0.55164200  1
  O  O23  1  0.25471500  0.54751300  0.34778500  1
  O  O24  1  0.88822700  0.53253200  0.39320400  1
  O  O25  1  0.52061700  0.44104400  0.38006500  1
  O  O26  1  0.11177300  0.53253200  0.89320400  1
  O  O27  1  0.61177100  0.18622200  0.75382400  1
  O  O28  1  0.61177100  0.81377800  0.74617600  1
  O  O29  1  0.00438400  0.83166800  0.94835800  1
  O  O30  1  0.05337800  0.27401800  0.30537300  1
  O  O31  1  0.74647300  0.25355300  0.50535600  1
  O  O32  1  0.10199100  0.00000000  0.25000000  1
  O  O33  1  0.23140900  0.15332600  0.80198600  1
  O  O34  1  0.62535700  0.03419100  0.03919700  1
  O  O35  1  0.99561600  0.83166800  0.44835800  1
  O  O36  1  0.25352700  0.25355300  0.00535600  1
  O  O37  1  0.76859100  0.84667400  0.19801400  1
  O  O38  1  0.47938300  0.55895600  0.61993500  1
  O  O39  1  0.64590100  0.70466000  0.46177100  1
  O  O40  1  0.23140900  0.84667400  0.69801400  1
  O  O41  1  0.38822900  0.81377800  0.24617600  1
loop_
_geom_bond_atom_site_label_1
_geom_bond_atom_site_label_2
_geom_bond_distance
_geom_bond_site_symmetry_2
Ca0 O28 2.247313 1_555
Ca0 O17 2.353150 1_555
Ca0 O4 2.362601 1_565
Ca0 O18 2.456146 1_555
Ca0 O39 2.520955 1_555
Ca0 O40 2.619898 1_555
Ca0 O38 2.755146 1_555
Ca1 O26 2.178233 1_655
Ca1 O7 2.178233 1_655
Ca1 O16 2.371807 1_555
Ca1 O5 2.371807 1_555
Ca1 O8 2.392063 1_555
Ca1 O10 2.392063 1_555
Ca2 O27 2.247313 1_555
Ca2 O34 2.353150 1_556
Ca2 O9 2.362601 1_545
Ca2 O36 2.456146 1_556
Ca2 O14 2.520955 1_556
Ca2 O33 2.619898 1_555
Ca2 O11 2.755146 1_555
Ca3 O3 2.178233 1_455
Ca3 O24 2.178233 1_455
Ca3 O13 2.371807 1_555
Ca3 O30 2.371807 1_555
Ca3 O23 2.392063 1_555
Ca3 O21 2.392063 1_555
Ca4 O20 2.247313 1_555
Ca4 O4 2.353150 1_555
Ca4 O17 2.362601 1_545
Ca4 O31 2.456146 1_555
Ca4 O15 2.520955 1_555
Ca4 O1 2.619898 1_555
Ca4 O25 2.755146 1_555
Ca5 O41 2.247313 1_555
Ca5 O9 2.353150 1_554
Ca5 O34 2.362601 1_565
Ca5 O0 2.456146 1_554
Ca5 O6 2.520955 1_554
Ca5 O37 2.619898 1_555
Ca5 O19 2.755146 1_555
Cu0 O31 1.868311 1_555
Cu0 O30 1.885258 1_655
Cu0 O1 1.894811 1_555
Cu0 O22 1.920502 1_655
Cu1 O18 1.868311 1_555
Cu1 O5 1.885258 1_455
Cu1 O40 1.894811 1_555
Cu1 O35 1.920502 1_455
Cu2 O23 1.863496 1_555
Cu2 O21 1.863496 1_555
Cu2 O19 1.893343 1_555
Cu2 O25 1.893343 1_555
Cu3 O0 1.868311 1_554
Cu3 O13 1.885258 1_655
Cu3 O37 1.894811 1_555
Cu3 O29 1.920502 1_654
Cu4 O10 1.863496 1_555
Cu4 O8 1.863496 1_555
Cu4 O11 1.893343 1_555
Cu4 O38 1.893343 1_555
Cu5 O36 1.868311 1_556
Cu5 O16 1.885258 1_455
Cu5 O33 1.894811 1_555
Cu5 O12 1.920502 1_456
Bi0 O41 2.009264 1_555
Bi0 O13 2.105264 1_555
Bi0 O32 2.115607 1_565
Bi0 O18 2.235028 1_555
Bi0 O35 2.358098 1_455
Bi1 O17 2.054151 1_555
Bi1 O39 2.107590 1_555
Bi1 O37 2.127706 1_555
Bi1 O35 2.170273 1_555
Bi2 O9 2.054151 1_555
Bi2 O6 2.107590 1_555
Bi2 O40 2.127706 1_555
Bi2 O29 2.170273 1_555
Bi3 O28 2.009264 1_555
Bi3 O5 2.105264 1_555
Bi3 O2 2.115607 1_565
Bi3 O0 2.235028 1_555
Bi3 O29 2.358098 1_655
Bi4 O26 1.979495 1_555
Bi4 O21 2.102945 1_556
Bi4 O11 2.110667 1_555
Bi4 O6 2.114986 1_555
Bi4 O36 2.641244 1_556
Bi4 O19 2.708888 1_556
Bi5 O34 2.054151 1_555
Bi5 O14 2.107590 1_555
Bi5 O1 2.127706 1_555
Bi5 O12 2.170273 1_555
Bi6 O24 1.979495 1_555
Bi6 O10 2.102945 1_555
Bi6 O25 2.110667 1_555
Bi6 O39 2.114986 1_555
Bi6 O31 2.641244 1_555
Bi6 O38 2.708888 1_555
Bi7 O4 2.054151 1_555
Bi7 O15 2.107590 1_555
Bi7 O33 2.127706 1_555
Bi7 O22 2.170273 1_555
Bi8 O7 1.979495 1_555
Bi8 O23 2.102945 1_555
Bi8 O38 2.110667 1_555
Bi8 O15 2.114986 1_555
Bi8 O18 2.641244 1_555
Bi8 O25 2.708888 1_555
Bi9 O3 1.979495 1_555
Bi9 O8 2.102945 1_554
Bi9 O19 2.110667 1_555
Bi9 O14 2.114986 1_555
Bi9 O0 2.641244 1_554
Bi9 O11 2.708888 1_554
Bi10 O27 2.009264 1_555
Bi10 O16 2.105264 1_555
Bi10 O2 2.115607 1_555
Bi10 O31 2.235028 1_555
Bi10 O22 2.358098 1_655
Bi11 O20 2.009264 1_555
Bi11 O30 2.105264 1_555
Bi11 O32 2.115607 1_555
Bi11 O36 2.235028 1_555
Bi11 O12 2.358098 1_455
