# generated using pymatgen
data_Na4MnO5
_symmetry_space_group_name_H-M   'P 1'
_cell_length_a   7.47481600
_cell_length_b   9.11081200
_cell_length_c   8.33952000
_cell_angle_alpha   90.00000000
_cell_angle_beta   90.00000000
_cell_angle_gamma   90.00000000
_symmetry_Int_Tables_number   1
_chemical_formula_structural   Na4MnO5
_chemical_formula_sum   'Na16 Mn4 O20'
_cell_volume   567.93501642
_cell_formula_units_Z   4
loop_
 _symmetry_equiv_pos_site_id
 _symmetry_equiv_pos_as_xyz
  1  'x, y, z'
loop_
 _atom_site_type_symbol
 _atom_site_label
 _atom_site_symmetry_multiplicity
 _atom_site_fract_x
 _atom_site_fract_y
 _atom_site_fract_z
 _atom_site_occupancy
  Na  Na0  1  0.49330400  0.86929400  0.64836200  1
  Na  Na1  1  0.50669600  0.13070600  0.35163800  1
  Na  Na2  1  0.50669600  0.63070600  0.14836200  1
  Na  Na3  1  0.99330400  0.13070600  0.35163800  1
  Na  Na4  1  0.49330400  0.36929400  0.85163800  1
  Na  Na5  1  0.00669600  0.86929400  0.64836200  1
  Na  Na6  1  0.00669600  0.36929400  0.85163800  1
  Na  Na7  1  0.99330400  0.63070600  0.14836200  1
  Na  Na8  1  0.75000000  0.86165100  0.27433400  1
  Na  Na9  1  0.25000000  0.13834900  0.72566600  1
  Na  Na10  1  0.25000000  0.63834900  0.77433400  1
  Na  Na11  1  0.75000000  0.36165100  0.22566600  1
  Na  Na12  1  0.00000000  0.00000000  0.00000000  1
  Na  Na13  1  0.00000000  0.50000000  0.50000000  1
  Na  Na14  1  0.50000000  0.00000000  0.00000000  1
  Na  Na15  1  0.50000000  0.50000000  0.50000000  1
  Mn  Mn0  1  0.75000000  0.63823000  0.85153400  1
  Mn  Mn1  1  0.25000000  0.36177000  0.14846600  1
  Mn  Mn2  1  0.25000000  0.86177000  0.35153400  1
  Mn  Mn3  1  0.75000000  0.13823000  0.64846600  1
  O  O0  1  0.75000000  0.60774100  0.33175600  1
  O  O1  1  0.25000000  0.39225900  0.66824400  1
  O  O2  1  0.25000000  0.89225900  0.83175600  1
  O  O3  1  0.75000000  0.10774100  0.16824400  1
  O  O4  1  0.75000000  0.98762500  0.52115900  1
  O  O5  1  0.25000000  0.01237500  0.47884100  1
  O  O6  1  0.25000000  0.51237500  0.02115900  1
  O  O7  1  0.75000000  0.48762500  0.97884100  1
  O  O8  1  0.93881600  0.62785800  0.73743400  1
  O  O9  1  0.06118400  0.37214200  0.26256600  1
  O  O10  1  0.06118400  0.87214200  0.23743400  1
  O  O11  1  0.43881600  0.37214200  0.26256600  1
  O  O12  1  0.93881600  0.12785800  0.76256600  1
  O  O13  1  0.56118400  0.62785800  0.73743400  1
  O  O14  1  0.56118400  0.12785800  0.76256600  1
  O  O15  1  0.43881600  0.87214200  0.23743400  1
  O  O16  1  0.75000000  0.78909200  0.97274500  1
  O  O17  1  0.25000000  0.21090800  0.02725500  1
  O  O18  1  0.25000000  0.71090800  0.47274500  1
  O  O19  1  0.75000000  0.28909200  0.52725500  1
loop_
_geom_bond_atom_site_label_1
_geom_bond_atom_site_label_2
_geom_bond_distance
_geom_bond_site_symmetry_2
Na0 O13 2.376511 1_555
Na0 O2 2.385455 1_555
Na0 O4 2.443200 1_555
Na0 O14 2.591134 1_565
Na0 O5 2.646780 1_565
Na0 O18 2.744952 1_555
Na1 O11 2.376511 1_555
Na1 O3 2.385455 1_555
Na1 O5 2.443200 1_555
Na1 O15 2.591134 1_545
Na1 O4 2.646780 1_545
Na1 O19 2.744952 1_555
Na2 O15 2.376511 1_555
Na2 O0 2.385455 1_555
Na2 O6 2.443200 1_555
Na2 O11 2.591134 1_555
Na2 O7 2.646780 1_554
Na2 O16 2.744952 1_554
Na3 O9 2.376511 1_655
Na3 O3 2.385455 1_555
Na3 O5 2.443200 1_655
Na3 O10 2.591134 1_645
Na3 O4 2.646780 1_545
Na3 O19 2.744952 1_555
Na4 O14 2.376511 1_555
Na4 O1 2.385455 1_555
Na4 O7 2.443200 1_555
Na4 O13 2.591134 1_555
Na4 O6 2.646780 1_556
Na4 O17 2.744952 1_556
Na5 O8 2.376511 1_455
Na5 O2 2.385455 1_555
Na5 O4 2.443200 1_455
Na5 O12 2.591134 1_465
Na5 O5 2.646780 1_565
Na5 O18 2.744952 1_555
Na6 O12 2.376511 1_455
Na6 O1 2.385455 1_555
Na6 O7 2.443200 1_455
Na6 O8 2.591134 1_455
Na6 O6 2.646780 1_556
Na6 O17 2.744952 1_556
Na7 O10 2.376511 1_655
Na7 O0 2.385455 1_555
Na7 O6 2.443200 1_655
Na7 O9 2.591134 1_655
Na7 O7 2.646780 1_554
Na7 O16 2.744952 1_554
Na8 O10 2.348257 1_655
Na8 O15 2.348257 1_555
Na8 O4 2.356755 1_555
Na8 O0 2.362371 1_555
Na8 O3 2.410329 1_565
Na8 O16 2.600535 1_554
Na9 O14 2.348257 1_555
Na9 O12 2.348257 1_455
Na9 O5 2.356755 1_555
Na9 O1 2.362371 1_555
Na9 O2 2.410329 1_545
Na9 O17 2.600535 1_556
Na10 O13 2.348257 1_555
Na10 O8 2.348257 1_455
Na10 O6 2.356755 1_556
Na10 O2 2.362371 1_555
Na10 O1 2.410329 1_555
Na10 O18 2.600535 1_555
Na11 O9 2.348257 1_655
Na11 O11 2.348257 1_555
Na11 O7 2.356755 1_554
Na11 O3 2.362371 1_555
Na11 O0 2.410329 1_555
Na11 O19 2.600535 1_555
Na12 O10 2.342406 1_545
Na12 O12 2.342406 1_454
Na12 O3 2.534606 1_455
Na12 O2 2.534606 1_544
Na12 O17 2.689990 1_555
Na12 O16 2.689990 1_444
Na13 O8 2.342406 1_455
Na13 O9 2.342406 1_555
Na13 O0 2.534606 1_455
Na13 O1 2.534606 1_555
Na13 O18 2.689990 1_555
Na13 O19 2.689990 1_455
Na14 O15 2.342406 1_545
Na14 O14 2.342406 1_554
Na14 O3 2.534606 1_555
Na14 O2 2.534606 1_544
Na14 O17 2.689990 1_555
Na14 O16 2.689990 1_544
Na15 O13 2.342406 1_555
Na15 O11 2.342406 1_555
Na15 O0 2.534606 1_555
Na15 O1 2.534606 1_555
Na15 O18 2.689990 1_555
Na15 O19 2.689990 1_555
Mn0 O8 1.704790 1_555
Mn0 O13 1.704790 1_555
Mn0 O16 1.706160 1_555
Mn0 O7 1.734910 1_555
Mn1 O11 1.704790 1_555
Mn1 O9 1.704790 1_555
Mn1 O17 1.706160 1_555
Mn1 O6 1.734910 1_555
Mn2 O15 1.704790 1_555
Mn2 O10 1.704790 1_555
Mn2 O18 1.706160 1_555
Mn2 O5 1.734910 1_565
Mn3 O14 1.704790 1_555
Mn3 O12 1.704790 1_555
Mn3 O19 1.706160 1_555
Mn3 O4 1.734910 1_545
