# generated using pymatgen
data_ZnSi4NiO10
_symmetry_space_group_name_H-M   'P 1'
_cell_length_a   7.27014100
_cell_length_b   7.27014100
_cell_length_c   14.93009500
_cell_angle_alpha   90.00000000
_cell_angle_beta   90.00000000
_cell_angle_gamma   90.00000000
_symmetry_Int_Tables_number   1
_chemical_formula_structural   ZnSi4NiO10
_chemical_formula_sum   'Zn4 Si16 Ni4 O40'
_cell_volume   789.12942711
_cell_formula_units_Z   4
loop_
 _symmetry_equiv_pos_site_id
 _symmetry_equiv_pos_as_xyz
  1  'x, y, z'
loop_
 _atom_site_type_symbol
 _atom_site_label
 _atom_site_symmetry_multiplicity
 _atom_site_fract_x
 _atom_site_fract_y
 _atom_site_fract_z
 _atom_site_occupancy
  Zn  Zn0  1  0.50000000  0.50000000  0.50000000  1
  Zn  Zn1  1  0.00000000  0.00000000  0.50000000  1
  Zn  Zn2  1  0.00000000  0.00000000  0.00000000  1
  Zn  Zn3  1  0.50000000  0.50000000  0.00000000  1
  Si  Si0  1  0.16284900  0.24003100  0.64442100  1
  Si  Si1  1  0.83715100  0.75996900  0.64442100  1
  Si  Si2  1  0.24003100  0.16284900  0.85557900  1
  Si  Si3  1  0.74003100  0.33715100  0.64442100  1
  Si  Si4  1  0.25996900  0.66284900  0.64442100  1
  Si  Si5  1  0.33715100  0.74003100  0.85557900  1
  Si  Si6  1  0.66284900  0.25996900  0.85557900  1
  Si  Si7  1  0.75996900  0.83715100  0.85557900  1
  Si  Si8  1  0.33715100  0.25996900  0.35557900  1
  Si  Si9  1  0.66284900  0.74003100  0.35557900  1
  Si  Si10  1  0.25996900  0.33715100  0.14442100  1
  Si  Si11  1  0.75996900  0.16284900  0.35557900  1
  Si  Si12  1  0.24003100  0.83715100  0.35557900  1
  Si  Si13  1  0.16284900  0.75996900  0.14442100  1
  Si  Si14  1  0.83715100  0.24003100  0.14442100  1
  Si  Si15  1  0.74003100  0.66284900  0.14442100  1
  Ni  Ni0  1  0.50000000  0.00000000  0.57002800  1
  Ni  Ni1  1  0.00000000  0.50000000  0.92997200  1
  Ni  Ni2  1  0.00000000  0.50000000  0.42997200  1
  Ni  Ni3  1  0.50000000  0.00000000  0.07002800  1
  O  O0  1  0.23682800  0.08466100  0.57497600  1
  O  O1  1  0.76317200  0.91533900  0.57497600  1
  O  O2  1  0.08466100  0.23682800  0.92502400  1
  O  O3  1  0.58466100  0.26317200  0.57497600  1
  O  O4  1  0.41533900  0.73682800  0.57497600  1
  O  O5  1  0.26317200  0.58466100  0.92502400  1
  O  O6  1  0.73682800  0.41533900  0.92502400  1
  O  O7  1  0.91533900  0.76317200  0.92502400  1
  O  O8  1  0.26317200  0.41533900  0.42502400  1
  O  O9  1  0.73682800  0.58466100  0.42502400  1
  O  O10  1  0.41533900  0.26317200  0.07497600  1
  O  O11  1  0.91533900  0.23682800  0.42502400  1
  O  O12  1  0.08466100  0.76317200  0.42502400  1
  O  O13  1  0.23682800  0.91533900  0.07497600  1
  O  O14  1  0.76317200  0.08466100  0.07497600  1
  O  O15  1  0.25052300  0.05743900  0.37543400  1
  O  O16  1  0.58466100  0.73682800  0.07497600  1
  O  O17  1  0.75052300  0.55743900  0.62456600  1
  O  O18  1  0.44256100  0.24947700  0.87543400  1
  O  O19  1  0.94256100  0.25052300  0.62456600  1
  O  O20  1  0.05743900  0.74947700  0.62456600  1
  O  O21  1  0.25052300  0.94256100  0.87543400  1
  O  O22  1  0.74947700  0.05743900  0.87543400  1
  O  O23  1  0.55743900  0.75052300  0.87543400  1
  O  O24  1  0.69703900  0.69703900  0.25000000  1
  O  O25  1  0.80296100  0.19703900  0.25000000  1
  O  O26  1  0.19703900  0.80296100  0.25000000  1
  O  O27  1  0.30296100  0.30296100  0.25000000  1
  O  O28  1  0.80296100  0.80296100  0.75000000  1
  O  O29  1  0.69703900  0.30296100  0.75000000  1
  O  O30  1  0.30296100  0.69703900  0.75000000  1
  O  O31  1  0.19703900  0.19703900  0.75000000  1
  O  O32  1  0.94256100  0.74947700  0.12456600  1
  O  O33  1  0.75052300  0.44256100  0.12456600  1
  O  O34  1  0.24947700  0.55743900  0.12456600  1
  O  O35  1  0.44256100  0.75052300  0.37543400  1
  O  O36  1  0.55743900  0.24947700  0.37543400  1
  O  O37  1  0.05743900  0.25052300  0.12456600  1
  O  O38  1  0.74947700  0.94256100  0.37543400  1
  O  O39  1  0.24947700  0.44256100  0.62456600  1
loop_
_geom_bond_atom_site_label_1
_geom_bond_atom_site_label_2
_geom_bond_distance
_geom_bond_site_symmetry_2
Ni0 O3 2.011219 1_555
Ni0 O1 2.011219 1_545
Ni0 O0 2.011219 1_555
Ni0 O4 2.011219 1_545
Ni1 O5 2.011219 1_555
Ni1 O7 2.011219 1_455
Ni1 O2 2.011219 1_555
Ni1 O6 2.011219 1_455
Ni2 O8 2.011219 1_555
Ni2 O12 2.011219 1_555
Ni2 O11 2.011219 1_455
Ni2 O9 2.011219 1_455
Ni3 O10 2.011219 1_555
Ni3 O14 2.011219 1_555
Ni3 O13 2.011219 1_545
Ni3 O16 2.011219 1_545
O0 Si0 1.624862 1_555
O0 Zn1 2.143920 1_555
O1 Si1 1.624862 1_555
O1 Zn1 2.143920 1_665
O2 Si2 1.624862 1_555
O2 Zn2 2.143920 1_556
O3 Si3 1.624862 1_555
O3 Zn0 2.143920 1_555
O4 Si4 1.624862 1_555
O4 Zn0 2.143920 1_555
O5 Si5 1.624862 1_555
O5 Zn3 2.143920 1_556
O6 Si6 1.624862 1_555
O6 Zn3 2.143920 1_556
O7 Si7 1.624862 1_555
O7 Zn2 2.143920 1_666
O8 Si8 1.624862 1_555
O8 Zn0 2.143920 1_555
O9 Si9 1.624862 1_555
O9 Zn0 2.143920 1_555
O10 Si10 1.624862 1_555
O10 Zn3 2.143920 1_555
O11 Si11 1.624862 1_555
O11 Zn1 2.143920 1_655
O12 Si12 1.624862 1_555
O12 Zn1 2.143920 1_565
O13 Si13 1.624862 1_555
O13 Zn2 2.143920 1_565
O14 Si14 1.624862 1_555
O14 Zn2 2.143920 1_655
O15 Si8 1.628664 1_555
O15 Si12 1.630514 1_545
O16 Si15 1.624862 1_555
O16 Zn3 2.143920 1_555
O17 Si1 1.628664 1_555
O17 Si3 1.630514 1_555
O18 Si2 1.628664 1_555
O18 Si6 1.630514 1_555
O19 Si3 1.628664 1_555
O19 Si0 1.630514 1_655
O20 Si4 1.628664 1_555
O20 Si1 1.630514 1_455
O21 Si5 1.628664 1_555
O21 Si2 1.630514 1_565
O22 Si6 1.628664 1_555
O22 Si7 1.630514 1_545
O23 Si7 1.628664 1_555
O23 Si5 1.630514 1_555
O24 Si9 1.626104 1_555
O24 Si15 1.626104 1_555
O25 Si11 1.626104 1_555
O25 Si14 1.626104 1_555
O26 Si13 1.626104 1_555
O26 Si12 1.626104 1_555
O27 Si8 1.626104 1_555
O27 Si10 1.626104 1_555
O28 Si1 1.626104 1_555
O28 Si7 1.626104 1_555
O29 Si3 1.626104 1_555
O29 Si6 1.626104 1_555
O30 Si5 1.626104 1_555
O30 Si4 1.626104 1_555
O31 Si0 1.626104 1_555
O31 Si2 1.626104 1_555
O32 Si15 1.628664 1_555
O32 Si13 1.630514 1_655
O33 Si14 1.628664 1_555
O33 Si15 1.630514 1_555
O34 Si13 1.628664 1_555
O34 Si10 1.630514 1_555
O35 Si12 1.628664 1_555
O35 Si9 1.630514 1_555
O36 Si11 1.628664 1_555
O36 Si8 1.630514 1_555
O37 Si10 1.628664 1_555
O37 Si14 1.630514 1_455
O38 Si9 1.628664 1_555
O38 Si11 1.630514 1_565
O39 Si0 1.628664 1_555
O39 Si4 1.630514 1_555
