# generated using pymatgen
data_SrUO4
_symmetry_space_group_name_H-M   'P 1'
_cell_length_a   6.77945728
_cell_length_b   6.77945728
_cell_length_c   6.77945787
_cell_angle_alpha   33.51408289
_cell_angle_beta   33.51408289
_cell_angle_gamma   33.51408121
_symmetry_Int_Tables_number   1
_chemical_formula_structural   SrUO4
_chemical_formula_sum   'Sr1 U1 O4'
_cell_volume   84.60545165
_cell_formula_units_Z   1
loop_
 _symmetry_equiv_pos_site_id
 _symmetry_equiv_pos_as_xyz
  1  'x, y, z'
loop_
 _atom_site_type_symbol
 _atom_site_label
 _atom_site_symmetry_multiplicity
 _atom_site_fract_x
 _atom_site_fract_y
 _atom_site_fract_z
 _atom_site_occupancy
  Sr  Sr0  1  0.50000000  0.50000000  0.50000000  1
  U  U0  1  0.00000000  0.00000000  0.00000000  1
  O  O0  1  0.89464600  0.89464600  0.89464600  1
  O  O1  1  0.10535400  0.10535400  0.10535400  1
  O  O2  1  0.31147200  0.31147200  0.31147200  1
  O  O3  1  0.68852800  0.68852800  0.68852800  1
loop_
_geom_bond_atom_site_label_1
_geom_bond_atom_site_label_2
_geom_bond_distance
_geom_bond_site_symmetry_2
O0 U0 2.020500 1_666
O0 Sr0 2.544931 1_556
O0 Sr0 2.544931 1_565
O0 Sr0 2.544931 1_655
O1 U0 2.020500 1_555
O1 Sr0 2.544931 1_554
O1 Sr0 2.544931 1_455
O1 Sr0 2.544931 1_545
O2 U0 2.295602 1_565
O2 U0 2.295602 1_655
O2 U0 2.295603 1_556
O3 U0 2.295602 1_656
O3 U0 2.295602 1_566
O3 U0 2.295603 1_665
