# generated using pymatgen
data_Ag(OsO3)2
_symmetry_space_group_name_H-M   'P 1'
_cell_length_a   7.22508073
_cell_length_b   7.22508073
_cell_length_c   7.22508073
_cell_angle_alpha   119.86249540
_cell_angle_beta   119.65237989
_cell_angle_gamma   90.42074190
_symmetry_Int_Tables_number   1
_chemical_formula_structural   Ag(OsO3)2
_chemical_formula_sum   'Ag2 Os4 O12'
_cell_volume   267.66277736
_cell_formula_units_Z   2
loop_
 _symmetry_equiv_pos_site_id
 _symmetry_equiv_pos_as_xyz
  1  'x, y, z'
loop_
 _atom_site_type_symbol
 _atom_site_label
 _atom_site_symmetry_multiplicity
 _atom_site_fract_x
 _atom_site_fract_y
 _atom_site_fract_z
 _atom_site_occupancy
  Ag  Ag0  1  0.47137200  0.93098700  0.95961500  1
  Ag  Ag1  1  0.52862800  0.48824300  0.45961500  1
  Os  Os0  1  0.99767700  0.50875900  0.01108100  1
  Os  Os1  1  0.00232300  0.01340400  0.51108100  1
  Os  Os2  1  0.50000000  0.00427000  0.50427000  1
  Os  Os3  1  0.00000000  0.00427000  0.00427000  1
  O  O0  1  0.32421000  0.07238000  0.24816900  1
  O  O1  1  0.94261600  0.69944000  0.25682400  1
  O  O2  1  0.94261200  0.06288000  0.25359100  1
  O  O3  1  0.32331500  0.68069000  0.25480600  1
  O  O4  1  0.92588400  0.68069000  0.85737500  1
  O  O5  1  0.30929000  0.06288000  0.62026800  1
  O  O6  1  0.67579000  0.92395900  0.74816900  1
  O  O7  1  0.05738400  0.31420900  0.75682400  1
  O  O8  1  0.07411600  0.93149100  0.75480600  1
  O  O9  1  0.69071000  0.31097900  0.75359100  1
  O  O10  1  0.05738800  0.31097900  0.12026800  1
  O  O11  1  0.67668500  0.93149100  0.35737500  1
loop_
_geom_bond_atom_site_label_1
_geom_bond_atom_site_label_2
_geom_bond_distance
_geom_bond_site_symmetry_2
Ag0 O8 2.496157 1_555
Ag0 O11 2.496157 1_556
Ag0 O0 2.570799 1_566
Ag0 O6 2.583460 1_555
Ag0 O2 2.791584 1_566
Ag0 O5 2.791584 1_565
Ag1 O4 2.496157 1_555
Ag1 O3 2.496157 1_555
Ag1 O6 2.570799 1_555
Ag1 O0 2.583454 1_555
Ag1 O9 2.791584 1_555
Ag1 O10 2.791584 1_555
O0 Os3 1.967141 1_555
O0 Os2 1.967148 1_555
O1 Os0 1.865409 1_555
O1 Os1 1.938599 1_665
O2 Os3 1.891597 1_655
O2 Os1 1.909271 1_655
O3 Os2 1.956328 1_565
O3 Os0 1.964369 1_455
O4 Os3 1.956328 1_666
O4 Os0 1.964363 1_556
O5 Os2 1.891590 1_555
O5 Os1 1.909278 1_555
O6 Os2 1.967143 1_565
O6 Os3 1.967143 1_666
O7 Os1 1.865416 1_555
O7 Os0 1.938599 1_456
O8 Os3 1.956328 1_566
O8 Os1 1.964370 1_565
O9 Os2 1.891595 1_555
O9 Os0 1.909277 1_556
O10 Os3 1.891597 1_555
O10 Os0 1.909278 1_455
O11 Os2 1.956328 1_565
O11 Os1 1.964370 1_665
