# generated using pymatgen
data_Sn2Sb2Pb4O13
_symmetry_space_group_name_H-M   'P 1'
_cell_length_a   7.58842999
_cell_length_b   7.58842999
_cell_length_c   7.58842999
_cell_angle_alpha   120.16674902
_cell_angle_beta   119.90096827
_cell_angle_gamma   89.94151937
_symmetry_Int_Tables_number   1
_chemical_formula_structural   Sn2Sb2Pb4O13
_chemical_formula_sum   'Sn2 Sb2 Pb4 O13'
_cell_volume   308.82703403
_cell_formula_units_Z   1
loop_
 _symmetry_equiv_pos_site_id
 _symmetry_equiv_pos_as_xyz
  1  'x, y, z'
loop_
 _atom_site_type_symbol
 _atom_site_label
 _atom_site_symmetry_multiplicity
 _atom_site_fract_x
 _atom_site_fract_y
 _atom_site_fract_z
 _atom_site_occupancy
  Sn  Sn0  1  0.24977100  0.50022500  0.25045400  1
  Sn  Sn1  1  0.24977100  0.99931700  0.74954600  1
  Sb  Sb0  1  0.24975100  0.50012900  0.74962200  1
  Sb  Sb1  1  0.75050600  0.50012900  0.25037800  1
  Pb  Pb0  1  0.74967900  0.00147500  0.25179500  1
  Pb  Pb1  1  0.74967900  0.49788400  0.74820500  1
  Pb  Pb2  1  0.75010600  0.00100900  0.74909700  1
  Pb  Pb3  1  0.25191300  0.00100900  0.25090300  1
  O  O0  1  0.16960300  0.16960300  0.00000000  1
  O  O1  1  0.56959200  0.56959200  0.00000000  1
  O  O2  1  0.17187700  0.57209300  0.99034300  1
  O  O3  1  0.58175000  0.18153400  0.00965700  1
  O  O4  1  0.17187700  0.18153400  0.59978400  1
  O  O5  1  0.58175000  0.57209300  0.40021600  1
  O  O6  1  0.32813700  0.82813700  0.50000000  1
  O  O7  1  0.93232700  0.43232700  0.50000000  1
  O  O8  1  0.32626700  0.43018300  0.50960700  1
  O  O9  1  0.92057600  0.81666000  0.49039300  1
  O  O10  1  0.32626700  0.81666000  0.89608400  1
  O  O11  1  0.92057600  0.43018300  0.10391600  1
  O  O12  1  0.87322600  0.87322600  0.00000000  1
loop_
_geom_bond_atom_site_label_1
_geom_bond_atom_site_label_2
_geom_bond_distance
_geom_bond_site_symmetry_2
O0 Sn0 2.082028 1_555
O0 Sn1 2.082028 1_544
O0 Pb3 2.629221 1_555
O0 Pb2 2.629221 1_454
O1 Sb1 2.043767 1_555
O1 Sb0 2.043768 1_554
O1 Pb1 2.715028 1_554
O1 Pb0 2.715035 1_565
O2 Sb0 2.014262 1_555
O2 Sn0 2.112069 1_556
O2 Pb1 2.655621 1_455
O2 Pb3 2.685311 1_566
O3 Sb1 2.014260 1_555
O3 Sn1 2.112069 1_544
O3 Pb0 2.655614 1_555
O3 Pb2 2.685312 1_554
O4 Sb0 2.014262 1_555
O4 Sn1 2.112069 1_545
O4 Pb0 2.655621 1_455
O4 Pb3 2.685317 1_555
O5 Sb1 2.014255 1_555
O5 Sn0 2.112069 1_555
O5 Pb1 2.655621 1_555
O5 Pb2 2.685312 1_565
O6 Sn1 2.067824 1_555
O6 Sn0 2.067824 1_555
O6 Pb2 2.651237 1_565
O6 Pb3 2.651239 1_565
O7 Sb0 2.031963 1_655
O7 Sb1 2.031964 1_555
O7 Pb0 2.715805 1_555
O7 Pb1 2.715811 1_555
O8 Sb0 2.004563 1_555
O8 Sn0 2.097279 1_555
O8 Pb1 2.670991 1_555
O8 Pb3 2.693042 1_555
O9 Sb1 2.004565 1_555
O9 Sn1 2.097279 1_655
O9 Pb0 2.670997 1_565
O9 Pb2 2.693041 1_565
O10 Sb0 2.004563 1_555
O10 Sn1 2.097279 1_555
O10 Pb0 2.670991 1_566
O10 Pb3 2.693036 1_566
O11 Sb1 2.004570 1_555
O11 Sn0 2.097279 1_655
O11 Pb1 2.670991 1_554
O11 Pb2 2.693041 1_554
O12 Pb1 2.322113 1_554
O12 Pb0 2.322113 1_565
O12 Pb2 2.349121 1_564
O12 Pb3 2.349127 1_665
