# generated using pymatgen
data_Ca10P6SeO24
_symmetry_space_group_name_H-M   'P 1'
_cell_length_a   9.60492384
_cell_length_b   9.60492384
_cell_length_c   6.89718800
_cell_angle_alpha   90.00000000
_cell_angle_beta   90.00000000
_cell_angle_gamma   119.99999889
_symmetry_Int_Tables_number   1
_chemical_formula_structural   Ca10P6SeO24
_chemical_formula_sum   'Ca10 P6 Se1 O24'
_cell_volume   551.04942247
_cell_formula_units_Z   1
loop_
 _symmetry_equiv_pos_site_id
 _symmetry_equiv_pos_as_xyz
  1  'x, y, z'
loop_
 _atom_site_type_symbol
 _atom_site_label
 _atom_site_symmetry_multiplicity
 _atom_site_fract_x
 _atom_site_fract_y
 _atom_site_fract_z
 _atom_site_occupancy
  Ca  Ca0  1  0.73809600  0.74914200  0.25008000  1
  Ca  Ca1  1  0.74914200  0.01104500  0.74992000  1
  Ca  Ca2  1  0.98895500  0.73809600  0.74992000  1
  Ca  Ca3  1  0.26190400  0.25085800  0.74992000  1
  Ca  Ca4  1  0.25085800  0.98895500  0.25008000  1
  Ca  Ca5  1  0.66666700  0.33333300  0.48881200  1
  Ca  Ca6  1  0.33333300  0.66666700  0.51118800  1
  Ca  Ca7  1  0.66666700  0.33333300  0.98017700  1
  Ca  Ca8  1  0.33333300  0.66666700  0.01982300  1
  Ca  Ca9  1  0.01104500  0.26190400  0.25008000  1
  P  P0  1  0.37104200  0.97176800  0.75093400  1
  P  P1  1  0.60072600  0.62895800  0.75093400  1
  P  P2  1  0.97176800  0.60072600  0.24906600  1
  P  P3  1  0.62895800  0.02823200  0.24906600  1
  P  P4  1  0.39927400  0.37104200  0.24906600  1
  P  P5  1  0.02823200  0.39927400  0.75093400  1
  Se  Se0  1  0.00000000  0.00000000  0.50000000  1
  O  O0  1  0.32611700  0.48337800  0.25479600  1
  O  O1  1  0.51662200  0.84273900  0.25479600  1
  O  O2  1  0.15726100  0.67388300  0.25479600  1
  O  O3  1  0.67388300  0.51662200  0.74520400  1
  O  O4  1  0.48337800  0.15726100  0.74520400  1
  O  O5  1  0.84273900  0.32611700  0.74520400  1
  O  O6  1  0.58233000  0.46718000  0.19721200  1
  O  O7  1  0.53282000  0.11515000  0.19721200  1
  O  O8  1  0.88485000  0.41767000  0.19721200  1
  O  O9  1  0.41767000  0.53282000  0.80278800  1
  O  O10  1  0.46718000  0.88485000  0.80278800  1
  O  O11  1  0.11515000  0.58233000  0.80278800  1
  O  O12  1  0.30531800  0.23605400  0.09706600  1
  O  O13  1  0.76394600  0.06926500  0.09706600  1
  O  O14  1  0.93073500  0.69468200  0.09706600  1
  O  O15  1  0.69468200  0.76394600  0.90293400  1
  O  O16  1  0.23605400  0.93073500  0.90293400  1
  O  O17  1  0.06926500  0.30531800  0.90293400  1
  O  O18  1  0.38998700  0.29156500  0.44773000  1
  O  O19  1  0.70843500  0.09842200  0.44773000  1
  O  O20  1  0.90157800  0.61001300  0.44773000  1
  O  O21  1  0.61001300  0.70843500  0.55227000  1
  O  O22  1  0.29156500  0.90157800  0.55227000  1
  O  O23  1  0.09842200  0.38998700  0.55227000  1
loop_
_geom_bond_atom_site_label_1
_geom_bond_atom_site_label_2
_geom_bond_distance
_geom_bond_site_symmetry_2
Ca0 O21 2.351483 1_555
Ca0 O6 2.377811 1_555
Ca0 O14 2.403917 1_555
Ca0 O15 2.446674 1_554
Ca0 O1 2.691983 1_555
Ca0 O20 2.864982 1_555
Ca0 Se0 3.007282 1_665
Ca1 O19 2.351487 1_555
Ca1 O10 2.377812 1_545
Ca1 O15 2.403917 1_545
Ca1 O13 2.446677 1_556
Ca1 O5 2.691992 1_555
Ca1 O21 2.864974 1_545
Ca1 Se0 3.007278 1_655
Ca2 O20 2.351484 1_555
Ca2 O11 2.377803 1_655
Ca2 O16 2.403917 1_655
Ca2 O14 2.446676 1_556
Ca2 O3 2.691990 1_555
Ca2 O22 2.864975 1_655
Ca2 Se0 3.007286 1_665
Ca3 O18 2.351483 1_555
Ca3 O9 2.377811 1_555
Ca3 O17 2.403917 1_555
Ca3 O12 2.446674 1_556
Ca3 O4 2.691983 1_555
Ca3 O23 2.864982 1_555
Ca3 Se0 3.007282 1_555
Ca4 O22 2.351487 1_555
Ca4 O7 2.377812 1_565
Ca4 O12 2.403917 1_565
Ca4 O16 2.446677 1_554
Ca4 O2 2.691992 1_555
Ca4 O18 2.864974 1_565
Ca4 Se0 3.007278 1_565
Ca5 O5 2.471682 1_555
Ca5 O4 2.471686 1_555
Ca5 O3 2.471689 1_555
Ca5 O19 2.497461 1_555
Ca5 O20 2.497467 1_555
Ca5 O18 2.497470 1_555
Ca5 O8 2.719428 1_555
Ca5 O7 2.719429 1_555
Ca5 O6 2.719434 1_555
Ca6 O2 2.471682 1_555
Ca6 O1 2.471686 1_555
Ca6 O0 2.471689 1_555
Ca6 O22 2.497461 1_555
Ca6 O23 2.497467 1_555
Ca6 O21 2.497470 1_555
Ca6 O11 2.719428 1_555
Ca6 O10 2.719429 1_555
Ca6 O9 2.719434 1_555
Ca7 O8 2.364548 1_556
Ca7 O7 2.364549 1_556
Ca7 O6 2.364555 1_556
Ca7 O5 2.368237 1_555
Ca7 O4 2.368241 1_555
Ca7 O3 2.368244 1_555
Ca8 O11 2.364548 1_554
Ca8 O10 2.364549 1_554
Ca8 O9 2.364555 1_554
Ca8 O2 2.368237 1_555
Ca8 O1 2.368241 1_555
Ca8 O0 2.368244 1_555
Ca9 O23 2.351484 1_555
Ca9 O8 2.377803 1_455
Ca9 O13 2.403917 1_455
Ca9 O17 2.446676 1_554
Ca9 O0 2.691990 1_555
Ca9 O19 2.864975 1_455
Ca9 Se0 3.007286 1_555
O0 P4 1.554883 1_555
O1 P3 1.554883 1_565
O2 P2 1.554883 1_455
O3 P1 1.554883 1_555
O4 P0 1.554883 1_545
O5 P5 1.554883 1_655
O6 P4 1.564744 1_555
O7 P3 1.564744 1_555
O8 P2 1.564744 1_555
O9 P1 1.564744 1_555
O10 P0 1.564744 1_555
O11 P5 1.564744 1_555
O12 P4 1.557070 1_555
O13 P3 1.557068 1_555
O14 P2 1.557075 1_555
O15 P1 1.557070 1_555
O16 P0 1.557068 1_555
O17 P5 1.557075 1_555
O18 P4 1.549229 1_555
O19 P3 1.549229 1_555
O20 P2 1.549229 1_555
O21 P1 1.549229 1_555
O22 P0 1.549229 1_555
O23 P5 1.549229 1_555
