# generated using pymatgen
data_Na2HfN2
_symmetry_space_group_name_H-M   'P 1'
_cell_length_a   3.31081397
_cell_length_b   3.31081397
_cell_length_c   8.97651400
_cell_angle_alpha   90.00000000
_cell_angle_beta   90.00000000
_cell_angle_gamma   119.99999946
_symmetry_Int_Tables_number   1
_chemical_formula_structural   Na2HfN2
_chemical_formula_sum   'Na2 Hf1 N2'
_cell_volume   85.21340227
_cell_formula_units_Z   1
loop_
 _symmetry_equiv_pos_site_id
 _symmetry_equiv_pos_as_xyz
  1  'x, y, z'
loop_
 _atom_site_type_symbol
 _atom_site_label
 _atom_site_symmetry_multiplicity
 _atom_site_fract_x
 _atom_site_fract_y
 _atom_site_fract_z
 _atom_site_occupancy
  Na  Na0  1  0.66666700  0.33333300  0.29172400  1
  Na  Na1  1  0.33333300  0.66666700  0.70827600  1
  Hf  Hf0  1  0.00000000  0.00000000  0.00000000  1
  N  N0  1  0.66666700  0.33333300  0.87261600  1
  N  N1  1  0.33333300  0.66666700  0.12738400  1
loop_
_geom_bond_atom_site_label_1
_geom_bond_atom_site_label_2
_geom_bond_distance
_geom_bond_site_symmetry_2
Hf0 N1 2.227405 1_545
Hf0 N0 2.227405 1_454
Hf0 N1 2.227407 1_445
Hf0 N0 2.227407 1_554
Hf0 N1 2.227407 1_555
Hf0 N0 2.227407 1_444
N0 Na1 2.414547 1_545
N0 Na1 2.414547 1_655
N0 Na1 2.414552 1_555
N1 Na0 2.414547 1_455
N1 Na0 2.414547 1_565
N1 Na0 2.414552 1_555
