# generated using pymatgen
data_Ce2Fe12Co5
_symmetry_space_group_name_H-M   'P 1'
_cell_length_a   6.41325634
_cell_length_b   6.41325634
_cell_length_c   6.41325700
_cell_angle_alpha   82.09424856
_cell_angle_beta   82.09424856
_cell_angle_gamma   82.09424386
_symmetry_Int_Tables_number   1
_chemical_formula_structural   Ce2Fe12Co5
_chemical_formula_sum   'Ce2 Fe12 Co5'
_cell_volume   256.88743922
_cell_formula_units_Z   1
loop_
 _symmetry_equiv_pos_site_id
 _symmetry_equiv_pos_as_xyz
  1  'x, y, z'
loop_
 _atom_site_type_symbol
 _atom_site_label
 _atom_site_symmetry_multiplicity
 _atom_site_fract_x
 _atom_site_fract_y
 _atom_site_fract_z
 _atom_site_occupancy
  Ce  Ce0  1  0.65487300  0.65487300  0.65487300  1
  Ce  Ce1  1  0.34512700  0.34512700  0.34512700  1
  Fe  Fe0  1  0.71011100  0.28988900  0.00000000  1
  Fe  Fe1  1  0.00000000  0.71011100  0.28988900  1
  Fe  Fe2  1  0.28988900  0.00000000  0.71011100  1
  Fe  Fe3  1  0.00000000  0.28988900  0.71011100  1
  Fe  Fe4  1  0.71011100  0.00000000  0.28988900  1
  Fe  Fe5  1  0.28988900  0.71011100  0.00000000  1
  Fe  Fe6  1  0.34051200  0.34051200  0.84755100  1
  Fe  Fe7  1  0.84755100  0.34051200  0.34051200  1
  Fe  Fe8  1  0.34051200  0.84755100  0.34051200  1
  Fe  Fe9  1  0.65948800  0.65948800  0.15244900  1
  Fe  Fe10  1  0.15244900  0.65948800  0.65948800  1
  Fe  Fe11  1  0.65948800  0.15244900  0.65948800  1
  Co  Co0  1  0.00000000  0.00000000  0.50000000  1
  Co  Co1  1  0.50000000  0.00000000  0.00000000  1
  Co  Co2  1  0.00000000  0.50000000  0.00000000  1
  Co  Co3  1  0.90729800  0.90729800  0.90729800  1
  Co  Co4  1  0.09270200  0.09270200  0.09270200  1
loop_
_geom_bond_atom_site_label_1
_geom_bond_atom_site_label_2
_geom_bond_distance
_geom_bond_site_symmetry_2
Ce0 Fe2 3.010980 1_565
Ce0 Fe3 3.010980 1_655
Ce0 Fe5 3.010980 1_556
Ce0 Fe0 3.010980 1_556
Ce0 Fe1 3.010980 1_655
Ce0 Fe4 3.010980 1_565
Ce0 Fe8 3.066523 1_555
Ce0 Fe7 3.066523 1_555
Ce0 Fe6 3.066523 1_555
Ce0 Co3 3.166224 1_555
Ce0 Fe10 3.199525 1_655
Ce0 Fe11 3.199525 1_565
Ce0 Fe9 3.199526 1_556
Ce0 Fe10 3.214332 1_555
Ce0 Fe11 3.214332 1_555
Ce0 Fe9 3.214332 1_555
Ce0 Co2 3.304975 1_656
Ce0 Co1 3.304975 1_566
Ce0 Co0 3.304975 1_665
Ce1 Fe4 3.010980 1_555
Ce1 Fe1 3.010980 1_555
Ce1 Fe0 3.010980 1_555
Ce1 Fe5 3.010980 1_555
Ce1 Fe2 3.010980 1_555
Ce1 Fe3 3.010980 1_555
Ce1 Fe10 3.066523 1_555
Ce1 Fe11 3.066523 1_555
Ce1 Fe9 3.066523 1_555
Ce1 Co4 3.166224 1_555
Ce1 Fe8 3.199525 1_545
Ce1 Fe7 3.199525 1_455
Ce1 Fe6 3.199526 1_554
Ce1 Fe7 3.214332 1_555
Ce1 Fe8 3.214332 1_555
Ce1 Fe6 3.214332 1_555
Ce1 Co1 3.304975 1_555
Ce1 Co2 3.304975 1_555
Ce1 Co0 3.304975 1_555
Fe0 Fe4 2.441709 1_555
Fe0 Fe3 2.441709 1_654
Fe0 Fe11 2.540579 1_554
Fe0 Fe7 2.540579 1_555
Fe0 Fe6 2.649201 1_554
Fe0 Fe9 2.649201 1_555
Fe1 Fe4 2.441708 1_465
Fe1 Fe5 2.441709 1_555
Fe1 Fe9 2.540579 1_455
Fe1 Fe8 2.540579 1_555
Fe1 Fe7 2.649201 1_455
Fe1 Fe10 2.649201 1_555
Fe2 Fe3 2.441708 1_555
Fe2 Fe5 2.441709 1_546
Fe2 Fe6 2.540579 1_555
Fe2 Fe8 2.649201 1_545
Fe3 Fe6 2.540579 1_555
Fe3 Fe7 2.649201 1_455
Fe4 Fe9 2.540579 1_545
Fe4 Fe7 2.540579 1_555
Fe4 Fe8 2.649201 1_545
Fe5 Fe8 2.540579 1_555
Fe5 Fe6 2.649201 1_554
Fe5 Fe9 2.649201 1_555
Fe7 Fe9 2.477266 1_555
Fe8 Fe9 2.477266 1_555
Fe10 Fe6 2.477266 1_555
Fe10 Fe8 2.477266 1_555
Fe10 Fe2 2.540579 1_565
Fe10 Fe5 2.540579 1_556
Fe10 Fe3 2.649201 1_555
Fe11 Fe6 2.477266 1_555
Fe11 Fe7 2.477266 1_555
Fe11 Fe3 2.540579 1_655
Fe11 Fe2 2.649201 1_555
Fe11 Fe4 2.649201 1_555
Co0 Fe10 2.417505 1_545
Co0 Fe11 2.417505 1_455
Co0 Fe8 2.417505 1_545
Co0 Fe7 2.417505 1_455
Co0 Fe3 2.441569 1_555
Co0 Fe2 2.441569 1_555
Co0 Fe1 2.441569 1_545
Co0 Fe4 2.441569 1_455
Co0 Co3 2.602469 1_445
Co0 Co4 2.602469 1_555
Co1 Fe9 2.417505 1_545
Co1 Fe6 2.417505 1_554
Co1 Fe11 2.417505 1_554
Co1 Fe8 2.417505 1_545
Co1 Fe0 2.441569 1_555
Co1 Fe5 2.441569 1_545
Co1 Fe4 2.441570 1_555
Co1 Fe2 2.441570 1_554
Co1 Co3 2.602469 1_544
Co1 Co4 2.602469 1_555
Co2 Fe9 2.417505 1_455
Co2 Fe6 2.417505 1_554
Co2 Fe10 2.417505 1_554
Co2 Fe7 2.417505 1_455
Co2 Fe5 2.441569 1_555
Co2 Fe0 2.441569 1_455
Co2 Fe1 2.441570 1_555
Co2 Fe3 2.441570 1_554
Co2 Co3 2.602469 1_454
Co2 Co4 2.602469 1_555
Co3 Co4 2.325565 1_666
Co3 Fe10 2.616012 1_655
Co3 Fe11 2.616012 1_565
Co3 Fe9 2.616012 1_556
Co3 Fe5 2.704441 1_656
Co3 Fe0 2.704441 1_566
Co3 Fe3 2.704441 1_665
Co3 Fe2 2.704441 1_665
Co3 Fe1 2.704442 1_656
Co3 Fe4 2.704442 1_566
Co4 Fe7 2.616012 1_455
Co4 Fe8 2.616012 1_545
Co4 Fe6 2.616012 1_554
Co4 Fe5 2.704441 1_545
Co4 Fe0 2.704441 1_455
Co4 Fe4 2.704441 1_455
Co4 Fe1 2.704441 1_545
Co4 Fe2 2.704442 1_554
Co4 Fe3 2.704442 1_554
