# generated using pymatgen
data_Li2TiNi2O5
_symmetry_space_group_name_H-M   'P 1'
_cell_length_a   7.83612353
_cell_length_b   7.83612353
_cell_length_c   5.93116266
_cell_angle_alpha   78.26774494
_cell_angle_beta   78.26774494
_cell_angle_gamma   30.33727179
_symmetry_Int_Tables_number   1
_chemical_formula_structural   Li2TiNi2O5
_chemical_formula_sum   'Li4 Ti2 Ni4 O10'
_cell_volume   179.82572109
_cell_formula_units_Z   2
loop_
 _symmetry_equiv_pos_site_id
 _symmetry_equiv_pos_as_xyz
  1  'x, y, z'
loop_
 _atom_site_type_symbol
 _atom_site_label
 _atom_site_symmetry_multiplicity
 _atom_site_fract_x
 _atom_site_fract_y
 _atom_site_fract_z
 _atom_site_occupancy
  Li  Li0  1  0.50000000  0.50000000  0.00000000  1
  Li  Li1  1  0.69468800  0.69468800  0.39134600  1
  Li  Li2  1  0.50000000  0.50000000  0.50000000  1
  Li  Li3  1  0.30531200  0.30531200  0.60865400  1
  Ti  Ti0  1  0.89630200  0.89630200  0.31223100  1
  Ti  Ti1  1  0.10369800  0.10369800  0.68776900  1
  Ni  Ni0  1  0.70034900  0.70034900  0.90029500  1
  Ni  Ni1  1  0.90185800  0.90185800  0.80055600  1
  Ni  Ni2  1  0.29965100  0.29965100  0.09970500  1
  Ni  Ni3  1  0.09814200  0.09814200  0.19944400  1
  O  O0  1  0.19380000  0.19380000  0.88740000  1
  O  O1  1  0.39436000  0.39436000  0.81030300  1
  O  O2  1  0.00000000  0.00000000  0.00000000  1
  O  O3  1  0.80620000  0.80620000  0.11260000  1
  O  O4  1  0.19147900  0.19147900  0.41912500  1
  O  O5  1  0.60564000  0.60564000  0.18969700  1
  O  O6  1  0.39918100  0.39918100  0.30049500  1
  O  O7  1  0.00000000  0.00000000  0.50000000  1
  O  O8  1  0.80852100  0.80852100  0.58087500  1
  O  O9  1  0.60081900  0.60081900  0.69950500  1
loop_
_geom_bond_atom_site_label_1
_geom_bond_atom_site_label_2
_geom_bond_distance
_geom_bond_site_symmetry_2
Li0 O2 2.050407 1_565
Li0 O2 2.050407 1_655
Li0 O6 2.087330 1_555
Li0 O9 2.087330 1_554
Li0 O1 2.139356 1_554
Li0 O5 2.139356 1_555
Li1 O5 1.980795 1_555
Li1 O4 2.056770 1_565
Li1 O4 2.056770 1_655
Li1 O9 2.064754 1_555
Li1 O3 2.098444 1_555
Li1 O8 2.245897 1_555
Li2 O7 2.050407 1_565
Li2 O7 2.050407 1_655
Li2 O9 2.118066 1_555
Li2 O6 2.118066 1_555
Li2 O1 2.168293 1_555
Li2 O5 2.168293 1_555
Li3 O1 1.980795 1_555
Li3 O8 2.056770 1_455
Li3 O8 2.056770 1_545
Li3 O6 2.064754 1_555
Li3 O0 2.098444 1_555
Li3 O4 2.245897 1_555
Ni0 O5 1.990609 1_556
Ni0 O0 2.055000 1_655
Ni0 O0 2.055000 1_565
Ni0 O9 2.107208 1_555
Ni0 O8 2.227184 1_555
Ni0 O3 2.235789 1_556
Ni1 O1 2.053682 1_565
Ni1 O1 2.053682 1_655
Ni1 O7 2.065564 1_665
Ni1 O2 2.084003 1_666
Ni1 O3 2.095391 1_556
Ni1 O8 2.113318 1_555
Ni2 O1 1.990609 1_554
Ni2 O3 2.055000 1_545
Ni2 O3 2.055000 1_455
Ni2 O6 2.107208 1_555
Ni2 O4 2.227184 1_555
Ni2 O0 2.235789 1_554
Ni3 O5 2.053682 1_545
Ni3 O5 2.053682 1_455
Ni3 O7 2.065564 1_555
Ni3 O2 2.084003 1_555
Ni3 O0 2.095391 1_554
Ni3 O4 2.113318 1_555
O0 Ti1 1.984798 1_555
O2 Ti1 2.160075 1_554
O2 Ti0 2.160075 1_445
O3 Ti0 1.984798 1_555
O4 Ti1 1.846732 1_555
O6 Ti0 2.051739 1_545
O6 Ti0 2.051739 1_455
O7 Ti1 2.106358 1_555
O7 Ti0 2.106358 1_445
O8 Ti0 1.846732 1_555
O9 Ti1 2.051739 1_655
O9 Ti1 2.051739 1_565
