# generated using pymatgen
data_TaCo3
_symmetry_space_group_name_H-M   'P 1'
_cell_length_a   5.11863737
_cell_length_b   5.11865106
_cell_length_c   4.11545417
_cell_angle_alpha   90.00000000
_cell_angle_beta   90.00000000
_cell_angle_gamma   120.00007524
_symmetry_Int_Tables_number   1
_chemical_formula_structural   TaCo3
_chemical_formula_sum   'Ta2 Co6'
_cell_volume   93.38087931
_cell_formula_units_Z   2
loop_
 _symmetry_equiv_pos_site_id
 _symmetry_equiv_pos_as_xyz
  1  'x, y, z'
loop_
 _atom_site_type_symbol
 _atom_site_label
 _atom_site_symmetry_multiplicity
 _atom_site_fract_x
 _atom_site_fract_y
 _atom_site_fract_z
 _atom_site_occupancy
  Ta  Ta0  1  0.33332769  0.66666434  0.25000000  1
  Ta  Ta1  1  0.66667231  0.33333566  0.75000000  1
  Co  Co0  1  0.84224521  0.15775342  0.25000000  1
  Co  Co1  1  0.84224521  0.68449079  0.25000000  1
  Co  Co2  1  0.31551008  0.15775504  0.25000000  1
  Co  Co3  1  0.15775479  0.84224658  0.75000000  1
  Co  Co4  1  0.15775479  0.31550921  0.75000000  1
  Co  Co5  1  0.68448992  0.84224496  0.75000000  1
loop_
_geom_bond_atom_site_label_1
_geom_bond_atom_site_label_2
_geom_bond_distance
_geom_bond_site_symmetry_2
Co0 Co1 2.422466 1_545
Co0 Co2 2.422467 1_655
Co0 Co5 2.488042 1_545
Co0 Co5 2.488042 1_544
Co0 Co4 2.488043 1_654
Co0 Co4 2.488043 1_655
Co0 Ta0 2.560523 1_655
Co0 Ta0 2.560556 1_545
Co0 Ta1 2.580180 1_554
Co0 Ta1 2.580180 1_555
Co0 Co2 2.696170 1_555
Co0 Co1 2.696185 1_555
Co1 Co2 2.422470 1_665
Co1 Co3 2.488043 1_655
Co1 Co3 2.488043 1_654
Co1 Co5 2.488044 1_554
Co1 Co5 2.488044 1_555
Co1 Ta0 2.560517 1_655
Co1 Ta0 2.560560 1_555
Co1 Ta1 2.580181 1_554
Co1 Ta1 2.580181 1_555
Co1 Co2 2.696168 1_555
Co2 Co3 2.488042 1_545
Co2 Co3 2.488042 1_544
Co2 Co4 2.488044 1_554
Co2 Co4 2.488044 1_555
Co2 Ta0 2.560541 1_545
Co2 Ta0 2.560547 1_555
Co2 Ta1 2.580197 1_554
Co2 Ta1 2.580197 1_555
Co3 Co4 2.422466 1_565
Co3 Co5 2.422467 1_455
Co3 Ta1 2.560523 1_455
Co3 Ta1 2.560556 1_565
Co3 Ta0 2.580180 1_556
Co3 Ta0 2.580180 1_555
Co3 Co5 2.696170 1_555
Co3 Co4 2.696185 1_555
Co4 Co5 2.422470 1_445
Co4 Ta1 2.560517 1_455
Co4 Ta1 2.560560 1_555
Co4 Ta0 2.580181 1_556
Co4 Ta0 2.580181 1_555
Co4 Co5 2.696168 1_555
Co5 Ta1 2.560541 1_565
Co5 Ta1 2.560547 1_555
Co5 Ta0 2.580197 1_556
Co5 Ta0 2.580197 1_555
