# generated using pymatgen
data_Er5P12Ru19
_symmetry_space_group_name_H-M   'P 1'
_cell_length_a   12.51006244
_cell_length_b   12.51006244
_cell_length_c   3.96156300
_cell_angle_alpha   90.00000000
_cell_angle_beta   90.00000000
_cell_angle_gamma   120.00000231
_symmetry_Int_Tables_number   1
_chemical_formula_structural   Er5P12Ru19
_chemical_formula_sum   'Er5 P12 Ru19'
_cell_volume   536.92811192
_cell_formula_units_Z   1
loop_
 _symmetry_equiv_pos_site_id
 _symmetry_equiv_pos_as_xyz
  1  'x, y, z'
loop_
 _atom_site_type_symbol
 _atom_site_label
 _atom_site_symmetry_multiplicity
 _atom_site_fract_x
 _atom_site_fract_y
 _atom_site_fract_z
 _atom_site_occupancy
  Er  Er0  1  0.18476300  0.18476300  0.50000000  1
  Er  Er1  1  0.81523700  0.00000000  0.50000000  1
  Er  Er2  1  0.00000000  0.81523700  0.50000000  1
  Er  Er3  1  0.33333300  0.66666700  0.00000000  1
  Er  Er4  1  0.66666700  0.33333300  0.00000000  1
  P  P0  1  0.81659400  0.81659400  0.00000000  1
  P  P1  1  0.18340600  0.00000000  0.00000000  1
  P  P2  1  0.00000000  0.18340600  0.00000000  1
  P  P3  1  0.17019800  0.47799400  0.50000000  1
  P  P4  1  0.52200600  0.69220400  0.50000000  1
  P  P5  1  0.30779600  0.82980200  0.50000000  1
  P  P6  1  0.69220400  0.52200600  0.50000000  1
  P  P7  1  0.82980200  0.30779600  0.50000000  1
  P  P8  1  0.47799400  0.17019800  0.50000000  1
  P  P9  1  0.37219900  0.37219900  0.00000000  1
  P  P10  1  0.62780100  0.00000000  0.00000000  1
  P  P11  1  0.00000000  0.62780100  0.00000000  1
  Ru  Ru0  1  0.55465500  0.55465500  0.00000000  1
  Ru  Ru1  1  0.44534500  0.00000000  0.00000000  1
  Ru  Ru2  1  0.00000000  0.44534500  0.00000000  1
  Ru  Ru3  1  0.71721500  0.71721500  0.50000000  1
  Ru  Ru4  1  0.28278500  0.00000000  0.50000000  1
  Ru  Ru5  1  0.00000000  0.28278500  0.50000000  1
  Ru  Ru6  1  0.18424200  0.37692500  0.00000000  1
  Ru  Ru7  1  0.62307500  0.80731700  0.00000000  1
  Ru  Ru8  1  0.19268300  0.81575800  0.00000000  1
  Ru  Ru9  1  0.80731700  0.62307500  0.00000000  1
  Ru  Ru10  1  0.81575800  0.19268300  0.00000000  1
  Ru  Ru11  1  0.37692500  0.18424200  0.00000000  1
  Ru  Ru12  1  0.36496400  0.49120600  0.50000000  1
  Ru  Ru13  1  0.50879400  0.87375800  0.50000000  1
  Ru  Ru14  1  0.12624200  0.63503600  0.50000000  1
  Ru  Ru15  1  0.87375800  0.50879400  0.50000000  1
  Ru  Ru16  1  0.63503600  0.12624200  0.50000000  1
  Ru  Ru17  1  0.49120600  0.36496400  0.50000000  1
  Ru  Ru18  1  0.00000000  0.00000000  0.00000000  1
loop_
_geom_bond_atom_site_label_1
_geom_bond_atom_site_label_2
_geom_bond_distance
_geom_bond_site_symmetry_2
Er0 P1 3.037614 1_555
Er0 P2 3.037614 1_555
Er0 P1 3.037614 1_556
Er0 P2 3.037614 1_556
Er0 Ru18 3.044019 1_555
Er0 Ru18 3.044019 1_556
Er0 P9 3.069487 1_556
Er0 P9 3.069487 1_555
Er0 Ru4 3.111374 1_555
Er0 Ru5 3.111374 1_555
Er0 Ru11 3.117406 1_556
Er0 Ru6 3.117406 1_555
Er0 Ru11 3.117406 1_555
Er0 Ru6 3.117406 1_556
Er0 Ru12 3.337125 1_555
Er0 Ru17 3.337125 1_555
Er1 P2 3.037614 1_655
Er1 P2 3.037614 1_656
Er1 P0 3.037614 1_546
Er1 P0 3.037614 1_545
Er1 Ru18 3.044019 1_656
Er1 Ru18 3.044019 1_655
Er1 P10 3.069487 1_556
Er1 P10 3.069487 1_555
Er1 Ru5 3.111374 1_655
Er1 Ru3 3.111374 1_545
Er1 Ru7 3.117406 1_546
Er1 Ru7 3.117406 1_545
Er1 Ru10 3.117406 1_556
Er1 Ru10 3.117406 1_555
Er1 Ru13 3.337125 1_545
Er1 Ru16 3.337125 1_555
Er2 P1 3.037614 1_565
Er2 P1 3.037614 1_566
Er2 P0 3.037614 1_456
Er2 P0 3.037614 1_455
Er2 Ru18 3.044019 1_566
Er2 Ru18 3.044019 1_565
Er2 P11 3.069487 1_556
Er2 P11 3.069487 1_555
Er2 Ru4 3.111374 1_565
Er2 Ru3 3.111374 1_455
Er2 Ru9 3.117406 1_455
Er2 Ru9 3.117406 1_456
Er2 Ru8 3.117406 1_556
Er2 Ru8 3.117406 1_555
Er2 Ru15 3.337125 1_455
Er2 Ru14 3.337125 1_555
Er3 P5 2.973638 1_555
Er3 P5 2.973638 1_554
Er3 P3 2.973643 1_555
Er3 P3 2.973643 1_554
Er3 P4 2.973647 1_554
Er3 P4 2.973647 1_555
Er3 Ru14 3.125180 1_554
Er3 Ru14 3.125180 1_555
Er3 Ru13 3.125184 1_554
Er3 Ru13 3.125184 1_555
Er3 Ru12 3.125190 1_554
Er3 Ru12 3.125190 1_555
Er3 Ru8 3.139507 1_555
Er3 Ru6 3.139518 1_555
Er3 Ru7 3.139518 1_555
Er4 P7 2.973638 1_555
Er4 P7 2.973638 1_554
Er4 P8 2.973643 1_554
Er4 P8 2.973643 1_555
Er4 P6 2.973647 1_555
Er4 P6 2.973647 1_554
Er4 Ru16 3.125180 1_554
Er4 Ru16 3.125180 1_555
Er4 Ru15 3.125184 1_554
Er4 Ru15 3.125184 1_555
Er4 Ru17 3.125190 1_555
Er4 Ru17 3.125190 1_554
Er4 Ru10 3.139507 1_555
Er4 Ru11 3.139518 1_555
Er4 Ru9 3.139518 1_555
P0 Ru18 2.294420 1_665
P0 Ru3 2.338618 1_555
P0 Ru3 2.338618 1_554
P0 Ru9 2.365043 1_555
P0 Ru7 2.365043 1_555
P1 Ru18 2.294421 1_555
P1 Ru4 2.338618 1_555
P1 Ru4 2.338618 1_554
P1 Ru11 2.365043 1_555
P1 Ru8 2.365043 1_545
P2 Ru18 2.294421 1_555
P2 Ru5 2.338618 1_555
P2 Ru5 2.338618 1_554
P2 Ru6 2.365043 1_555
P2 Ru10 2.365043 1_455
P3 Ru14 2.289624 1_555
P3 Ru5 2.301638 1_555
P3 Ru12 2.358241 1_555
P3 Ru6 2.403156 1_555
P3 Ru6 2.403156 1_556
P3 Ru2 2.784621 1_555
P3 Ru2 2.784621 1_556
P4 Ru12 2.289624 1_555
P4 Ru3 2.301638 1_555
P4 Ru13 2.358241 1_555
P4 Ru7 2.403156 1_555
P4 Ru7 2.403156 1_556
P4 Ru0 2.784621 1_555
P4 Ru0 2.784621 1_556
P5 Ru13 2.289624 1_555
P5 Ru4 2.301638 1_565
P5 Ru14 2.358241 1_555
P5 Ru8 2.403156 1_555
P5 Ru8 2.403156 1_556
P5 Ru1 2.784621 1_566
P5 Ru1 2.784621 1_565
P6 Ru17 2.289624 1_555
P6 Ru3 2.301638 1_555
P6 Ru15 2.358241 1_555
P6 Ru9 2.403156 1_555
P6 Ru9 2.403156 1_556
P6 Ru0 2.784621 1_555
P6 Ru0 2.784621 1_556
P7 Ru15 2.289624 1_555
P7 Ru5 2.301638 1_655
P7 Ru16 2.358241 1_555
P7 Ru10 2.403156 1_555
P7 Ru10 2.403156 1_556
P7 Ru2 2.784621 1_655
P7 Ru2 2.784621 1_656
P8 Ru16 2.289624 1_555
P8 Ru4 2.301638 1_555
P8 Ru17 2.358241 1_555
P8 Ru11 2.403156 1_555
P8 Ru11 2.403156 1_556
P8 Ru1 2.784621 1_556
P8 Ru1 2.784621 1_555
P9 Ru0 2.282536 1_555
P9 Ru6 2.381466 1_555
P9 Ru11 2.381466 1_555
P9 Ru17 2.506575 1_554
P9 Ru12 2.506575 1_555
P9 Ru12 2.506575 1_554
P9 Ru17 2.506575 1_555
P10 Ru1 2.282536 1_555
P10 Ru10 2.381465 1_555
P10 Ru7 2.381466 1_545
P10 Ru13 2.506575 1_544
P10 Ru13 2.506575 1_545
P10 Ru16 2.506575 1_555
P10 Ru16 2.506575 1_554
P11 Ru2 2.282536 1_555
P11 Ru8 2.381465 1_555
P11 Ru9 2.381466 1_455
P11 Ru15 2.506575 1_454
P11 Ru15 2.506575 1_455
P11 Ru14 2.506575 1_555
P11 Ru14 2.506575 1_554
Ru0 Ru9 2.831595 1_555
Ru0 Ru7 2.831595 1_555
Ru0 Ru17 2.881194 1_554
Ru0 Ru12 2.881194 1_555
Ru0 Ru12 2.881194 1_554
Ru0 Ru17 2.881194 1_555
Ru1 Ru8 2.831595 1_545
Ru1 Ru11 2.831595 1_555
Ru1 Ru16 2.881194 1_554
Ru1 Ru16 2.881194 1_555
Ru1 Ru13 2.881194 1_544
Ru1 Ru13 2.881194 1_545
Ru2 Ru6 2.831595 1_555
Ru3 Ru7 2.812203 1_555
Ru3 Ru9 2.812203 1_556
Ru3 Ru7 2.812203 1_556
Ru3 Ru9 2.812203 1_555
Ru4 Ru8 2.812203 1_545
Ru4 Ru8 2.812203 1_546
Ru5 Ru6 2.812203 1_556
Ru5 Ru6 2.812203 1_555
Ru10 Ru16 2.801178 1_554
Ru10 Ru16 2.801178 1_555
Ru10 Ru5 2.812203 1_654
Ru10 Ru5 2.812203 1_655
Ru10 Ru2 2.831595 1_655
Ru11 Ru17 2.801178 1_554
Ru11 Ru17 2.801178 1_555
Ru11 Ru4 2.812203 1_555
Ru11 Ru4 2.812203 1_554
Ru12 Ru17 2.735420 1_555
Ru12 Ru6 2.801178 1_556
Ru12 Ru6 2.801178 1_555
Ru13 Ru16 2.735420 1_565
Ru13 Ru7 2.801178 1_555
Ru13 Ru7 2.801178 1_556
Ru14 Ru15 2.735420 1_455
Ru14 Ru8 2.801178 1_555
Ru14 Ru8 2.801178 1_556
Ru14 Ru2 2.881194 1_555
Ru14 Ru2 2.881194 1_556
Ru15 Ru9 2.801178 1_555
Ru15 Ru9 2.801178 1_556
Ru15 Ru2 2.881194 1_655
Ru15 Ru2 2.881194 1_656
