# generated using pymatgen
data_Rb3H12N5
_symmetry_space_group_name_H-M   'P 1'
_cell_length_a   8.60321292
_cell_length_b   8.60288410
_cell_length_c   8.60287099
_cell_angle_alpha   109.46938659
_cell_angle_beta   109.47094495
_cell_angle_gamma   109.47218449
_symmetry_Int_Tables_number   1
_chemical_formula_structural   Rb3H12N5
_chemical_formula_sum   'Rb6 H24 N10'
_cell_volume   490.15383442
_cell_formula_units_Z   2
loop_
 _symmetry_equiv_pos_site_id
 _symmetry_equiv_pos_as_xyz
  1  'x, y, z'
loop_
 _atom_site_type_symbol
 _atom_site_label
 _atom_site_symmetry_multiplicity
 _atom_site_fract_x
 _atom_site_fract_y
 _atom_site_fract_z
 _atom_site_occupancy
  Rb  Rb0  1  0.74999957  0.83041488  0.08041284  1
  Rb  Rb1  1  0.66959179  0.41960133  0.25000102  1
  Rb  Rb2  1  0.41959880  0.25000543  0.66960915  1
  Rb  Rb3  1  0.24999984  0.66960058  0.41959587  1
  Rb  Rb4  1  0.08040346  0.75000601  0.83040408  1
  Rb  Rb5  1  0.83040821  0.08041366  0.75000790  1
  H  H0  1  0.46559412  0.63694143  0.20319025  1
  H  H1  1  0.26240893  0.29676563  0.93375777  1
  H  H2  1  0.32864976  0.56624701  0.86299146  1
  H  H3  1  0.93374536  0.26241086  0.29673894  1
  H  H4  1  0.86302712  0.32864410  0.56623557  1
  H  H5  1  0.20315151  0.46556791  0.63692323  1
  H  H6  1  0.56625780  0.86301294  0.32866396  1
  H  H7  1  0.63696883  0.20320260  0.46561192  1
  H  H8  1  0.29682937  0.93377193  0.26241448  1
  H  H9  1  0.03442172  0.23759561  0.17134118  1
  H  H10  1  0.23758556  0.17134311  0.03440574  1
  H  H11  1  0.17135038  0.03436589  0.23759839  1
  H  H12  1  0.82227278  0.44368029  0.86342825  1
  H  H13  1  0.95886373  0.63659195  0.08025774  1
  H  H14  1  0.87861336  0.41976312  0.05633340  1
  H  H15  1  0.08023707  0.95886247  0.63659030  1
  H  H16  1  0.05632483  0.87860368  0.41976365  1
  H  H17  1  0.86341234  0.82228500  0.44367416  1
  H  H18  1  0.41975743  0.05635663  0.87863874  1
  H  H19  1  0.44367609  0.86344632  0.82227287  1
  H  H20  1  0.63658360  0.08026313  0.95886253  1
  H  H21  1  0.67772799  0.54115641  0.62141097  1
  H  H22  1  0.54112699  0.62138681  0.67772242  1
  H  H23  1  0.62139818  0.67772784  0.54116381  1
  N  N0  1  0.58091188  0.74997920  0.33089729  1
  N  N1  1  0.24999893  0.16906750  0.91910896  1
  N  N2  1  0.33087554  0.58088588  0.74995111  1
  N  N3  1  0.91910301  0.24999007  0.16905155  1
  N  N4  1  0.75000079  0.33090828  0.58090571  1
  N  N5  1  0.16911799  0.91909120  0.25001993  1
  N  N6  1  0.84342846  0.50001338  0.00001096  1
  N  N7  1  0.00000017  0.84343733  0.50000629  1
  N  N8  1  0.50000361  0.00000757  0.84343612  1
  N  N9  1  0.65657611  0.65658503  0.65658653  1
loop_
_geom_bond_atom_site_label_1
_geom_bond_atom_site_label_2
_geom_bond_distance
_geom_bond_site_symmetry_2
H0 N0 1.027091 1_555
H0 Rb1 2.992793 1_555
H0 Rb3 3.047293 1_555
H0 Rb0 3.170565 1_555
H1 N1 1.026979 1_555
H1 Rb2 2.992764 1_555
H1 Rb5 3.047343 1_455
H1 Rb1 3.170470 1_556
H2 N2 1.026827 1_555
H2 Rb0 2.992922 1_556
H2 Rb4 3.047329 1_555
H2 Rb2 3.170404 1_555
H3 N3 1.026875 1_555
H3 Rb1 2.992842 1_555
H3 Rb0 3.047220 1_545
H3 Rb3 3.170406 1_655
H4 N4 1.026962 1_555
H4 Rb4 2.992951 1_655
H4 Rb5 3.047190 1_555
H4 Rb1 3.170491 1_555
H5 N2 1.027134 1_555
H5 Rb3 2.992872 1_555
H5 Rb2 3.047373 1_555
H5 Rb4 3.170649 1_555
H6 N0 1.026854 1_555
H6 Rb5 2.992821 1_565
H6 Rb0 3.047215 1_555
H6 Rb3 3.170459 1_555
H7 N4 1.027010 1_555
H7 Rb2 2.993008 1_555
H7 Rb1 3.047239 1_555
H7 Rb5 3.170459 1_555
H8 N5 1.027098 1_555
H8 Rb3 2.992816 1_555
H8 Rb4 3.047349 1_554
H8 Rb2 3.170643 1_565
H9 N3 1.027104 1_455
H9 Rb5 2.992753 1_454
H9 Rb3 3.047318 1_555
H9 Rb0 3.170601 1_445
H10 N1 1.026980 1_554
H10 Rb4 2.992768 1_544
H10 Rb1 3.047398 1_555
H10 Rb5 3.170610 1_454
H11 N5 1.026917 1_545
H11 Rb0 2.992936 1_445
H11 Rb2 3.047352 1_555
H11 Rb4 3.170502 1_544
H12 N6 1.033274 1_556
H12 Rb2 2.829594 1_555
H12 Rb5 2.980290 1_555
H12 Rb4 2.995855 1_655
H13 N6 1.033289 1_555
H13 Rb0 2.829646 1_555
H13 Rb4 2.980212 1_654
H13 Rb3 2.995836 1_655
H14 N6 1.033233 1_555
H14 Rb1 2.829636 1_555
H14 Rb3 2.980278 1_655
H14 Rb5 2.995872 1_554
H15 N7 1.033291 1_555
H15 Rb4 2.829421 1_555
H15 Rb5 2.980181 1_465
H15 Rb2 2.995940 1_565
H16 N7 1.033129 1_555
H16 Rb3 2.829572 1_555
H16 Rb2 2.980364 1_565
H16 Rb0 2.995949 1_455
H17 N7 1.033356 1_655
H17 Rb1 2.829580 1_555
H17 Rb0 2.980189 1_555
H17 Rb5 2.995847 1_565
H18 N8 1.033427 1_555
H18 Rb2 2.829480 1_555
H18 Rb1 2.980080 1_556
H18 Rb4 2.995865 1_545
H19 N8 1.033065 1_565
H19 Rb3 2.829546 1_555
H19 Rb4 2.980382 1_555
H19 Rb0 2.995991 1_556
H20 N8 1.033283 1_555
H20 Rb5 2.829559 1_555
H20 Rb0 2.980239 1_546
H20 Rb1 2.995852 1_556
H21 N9 1.033270 1_555
H21 Rb4 2.829602 1_655
H21 Rb1 2.980346 1_555
H21 Rb2 2.995845 1_555
H22 N9 1.033369 1_555
H22 Rb0 2.829652 1_556
H22 Rb2 2.980162 1_555
H22 Rb3 2.995855 1_555
H23 N9 1.033158 1_555
H23 Rb5 2.829597 1_565
H23 Rb3 2.980377 1_555
H23 Rb1 2.995938 1_555
N0 Rb1 3.102516 1_555
N0 Rb5 3.102974 1_565
N0 Rb0 3.106634 1_555
N0 Rb3 3.106895 1_555
N1 Rb4 3.102435 1_545
N1 Rb2 3.102855 1_555
N1 Rb1 3.106786 1_556
N1 Rb5 3.106901 1_455
N2 Rb3 3.102456 1_555
N2 Rb0 3.103159 1_556
N2 Rb2 3.106743 1_555
N2 Rb4 3.106846 1_555
N3 Rb5 3.102353 1_554
N3 Rb1 3.103128 1_555
N3 Rb0 3.106686 1_545
N3 Rb3 3.106838 1_655
N4 Rb4 3.102811 1_655
N4 Rb2 3.102867 1_555
N4 Rb5 3.106698 1_555
N4 Rb1 3.106705 1_555
N5 Rb3 3.102486 1_555
N5 Rb0 3.103091 1_455
N5 Rb2 3.106780 1_565
N5 Rb4 3.106849 1_554
N6 Rb1 3.128366 1_555
N6 Rb0 3.128424 1_555
N6 Rb2 3.128493 1_554
N7 Rb4 3.128338 1_555
N7 Rb1 3.128486 1_455
N7 Rb3 3.128529 1_555
N8 Rb2 3.128332 1_555
N8 Rb5 3.128476 1_555
N8 Rb3 3.128519 1_545
N9 Rb5 3.128383 1_565
N9 Rb0 3.128393 1_556
N9 Rb4 3.128503 1_655
