# generated using pymatgen
data_MgCuW2O7
_symmetry_space_group_name_H-M   'P 1'
_cell_length_a   8.94110800
_cell_length_b   9.33509919
_cell_length_c   11.37407037
_cell_angle_alpha   102.46948554
_cell_angle_beta   90.00000000
_cell_angle_gamma   90.00000000
_symmetry_Int_Tables_number   1
_chemical_formula_structural   MgCuW2O7
_chemical_formula_sum   'Mg6 Cu6 W12 O42'
_cell_volume   926.95556111
_cell_formula_units_Z   6
loop_
 _symmetry_equiv_pos_site_id
 _symmetry_equiv_pos_as_xyz
  1  'x, y, z'
loop_
 _atom_site_type_symbol
 _atom_site_label
 _atom_site_symmetry_multiplicity
 _atom_site_fract_x
 _atom_site_fract_y
 _atom_site_fract_z
 _atom_site_occupancy
  Mg  Mg0  1  0.43138200  0.15325500  0.57743500  1
  Mg  Mg1  1  0.93549800  0.50000000  0.75000000  1
  Mg  Mg2  1  0.43138200  0.84674500  0.92256500  1
  Mg  Mg3  1  0.06450200  0.50000000  0.25000000  1
  Mg  Mg4  1  0.56861800  0.84674500  0.42256500  1
  Mg  Mg5  1  0.56861800  0.15325500  0.07743500  1
  Cu  Cu0  1  0.93307000  0.82071200  0.40508200  1
  Cu  Cu1  1  0.06693000  0.17928800  0.59491800  1
  Cu  Cu2  1  0.43355800  0.50000000  0.25000000  1
  Cu  Cu3  1  0.93307000  0.17928800  0.09491800  1
  Cu  Cu4  1  0.56644200  0.50000000  0.75000000  1
  Cu  Cu5  1  0.06693000  0.82071200  0.90508200  1
  W  W0  1  0.24729100  0.20678600  0.29352800  1
  W  W1  1  0.76463000  0.12103300  0.37434400  1
  W  W2  1  0.23537000  0.12103300  0.87434400  1
  W  W3  1  0.75270900  0.20678600  0.79352800  1
  W  W4  1  0.26627500  0.53817700  0.96084400  1
  W  W5  1  0.76463000  0.87896700  0.12565600  1
  W  W6  1  0.73372500  0.53817700  0.46084400  1
  W  W7  1  0.23537000  0.87896700  0.62565600  1
  W  W8  1  0.26627500  0.46182300  0.53915600  1
  W  W9  1  0.73372500  0.46182300  0.03915600  1
  W  W10  1  0.75270900  0.79321400  0.70647200  1
  W  W11  1  0.24729100  0.79321400  0.20647200  1
  O  O0  1  0.73910700  0.22627100  0.97131400  1
  O  O1  1  0.76331200  0.89015600  0.30653200  1
  O  O2  1  0.80060800  0.00000000  0.75000000  1
  O  O3  1  0.90857000  0.44719200  0.11435400  1
  O  O4  1  0.41241300  0.92140300  0.55062500  1
  O  O5  1  0.92295700  0.27291900  0.72204200  1
  O  O6  1  0.28724300  0.33671000  0.91834300  1
  O  O7  1  0.09143000  0.44719200  0.61435400  1
  O  O8  1  0.74358200  0.44646500  0.86619600  1
  O  O9  1  0.41241300  0.07859700  0.94937500  1
  O  O10  1  0.74358200  0.55353500  0.63380400  1
  O  O11  1  0.43088300  0.59133200  0.88455200  1
  O  O12  1  0.94311900  0.86556800  0.05068200  1
  O  O13  1  0.07704300  0.27291900  0.22204200  1
  O  O14  1  0.71275700  0.66329000  0.08165700  1
  O  O15  1  0.28724300  0.66329000  0.58165700  1
  O  O16  1  0.92295700  0.72708100  0.77795800  1
  O  O17  1  0.58758700  0.07859700  0.44937500  1
  O  O18  1  0.26089300  0.22627100  0.47131400  1
  O  O19  1  0.56911700  0.40866800  0.11544800  1
  O  O20  1  0.42467000  0.79711000  0.28290300  1
  O  O21  1  0.25641800  0.55353500  0.13380400  1
  O  O22  1  0.05688100  0.86556800  0.55068200  1
  O  O23  1  0.25641800  0.44646500  0.36619600  1
  O  O24  1  0.90857000  0.55280800  0.38564600  1
  O  O25  1  0.56911700  0.59133200  0.38455200  1
  O  O26  1  0.09143000  0.55280800  0.88564600  1
  O  O27  1  0.57533000  0.79711000  0.78290300  1
  O  O28  1  0.57533000  0.20289000  0.71709700  1
  O  O29  1  0.05688100  0.13443200  0.94931800  1
  O  O30  1  0.07704300  0.72708100  0.27795800  1
  O  O31  1  0.73910700  0.77372900  0.52868600  1
  O  O32  1  0.19939200  0.00000000  0.25000000  1
  O  O33  1  0.23668800  0.89015600  0.80653200  1
  O  O34  1  0.58758700  0.92140300  0.05062500  1
  O  O35  1  0.94311900  0.13443200  0.44931800  1
  O  O36  1  0.26089300  0.77372900  0.02868600  1
  O  O37  1  0.76331200  0.10984400  0.19346800  1
  O  O38  1  0.43088300  0.40866800  0.61544800  1
  O  O39  1  0.71275700  0.33671000  0.41834300  1
  O  O40  1  0.23668800  0.10984400  0.69346800  1
  O  O41  1  0.42467000  0.20289000  0.21709700  1
loop_
_geom_bond_atom_site_label_1
_geom_bond_atom_site_label_2
_geom_bond_distance
_geom_bond_site_symmetry_2
Mg0 O28 2.019100 1_555
Mg0 O17 2.029666 1_555
Mg0 O4 2.126311 1_545
Mg0 O18 2.144871 1_555
Mg0 O40 2.273167 1_555
Mg0 O38 2.329527 1_555
Mg1 O26 2.058824 1_655
Mg1 O7 2.058824 1_655
Mg1 O16 2.077558 1_555
Mg1 O5 2.077558 1_555
Mg1 O8 2.286070 1_555
Mg1 O10 2.286070 1_555
Mg2 O27 2.019100 1_555
Mg2 O34 2.029666 1_556
Mg2 O9 2.126311 1_565
Mg2 O36 2.144871 1_556
Mg2 O33 2.273167 1_555
Mg2 O11 2.329527 1_555
Mg3 O3 2.058824 1_455
Mg3 O24 2.058824 1_455
Mg3 O30 2.077558 1_555
Mg3 O13 2.077558 1_555
Mg3 O23 2.286070 1_555
Mg3 O21 2.286070 1_555
Mg4 O20 2.019100 1_555
Mg4 O4 2.029666 1_555
Mg4 O17 2.126311 1_565
Mg4 O31 2.144871 1_555
Mg4 O1 2.273167 1_555
Mg4 O25 2.329527 1_555
Mg5 O41 2.019100 1_555
Mg5 O9 2.029666 1_554
Mg5 O34 2.126311 1_545
Mg5 O0 2.144871 1_554
Mg5 O37 2.273167 1_555
Mg5 O19 2.329527 1_555
Cu0 O22 1.960585 1_655
Cu0 O30 1.991474 1_655
Cu0 O1 2.072266 1_555
Cu0 O31 2.332968 1_555
Cu0 O24 2.472379 1_555
Cu1 O35 1.960585 1_455
Cu1 O5 1.991474 1_455
Cu1 O40 2.072266 1_555
Cu1 O18 2.332968 1_555
Cu1 O7 2.472379 1_555
Cu2 O25 1.993650 1_555
Cu2 O19 1.993650 1_555
Cu2 O23 2.188646 1_555
Cu2 O21 2.188646 1_555
Cu3 O29 1.960585 1_654
Cu3 O13 1.991474 1_655
Cu3 O37 2.072266 1_555
Cu3 O0 2.332968 1_554
Cu3 O3 2.472379 1_555
Cu4 O11 1.993650 1_555
Cu4 O38 1.993650 1_555
Cu4 O8 2.188646 1_555
Cu4 O10 2.188646 1_555
Cu5 O12 1.960585 1_456
Cu5 O16 1.991474 1_455
Cu5 O33 2.072266 1_555
Cu5 O36 2.332968 1_556
Cu5 O26 2.472379 1_555
O0 W3 1.994525 1_555
O0 W9 2.167991 1_556
O1 W5 2.037332 1_555
O1 W1 2.126574 1_565
O2 W3 1.934461 1_555
O2 W10 1.934461 1_545
O3 W9 1.801273 1_555
O4 W7 1.880689 1_555
O5 W3 1.891063 1_555
O6 W4 1.847515 1_555
O6 W2 2.020913 1_555
O7 W8 1.801273 1_555
O8 W9 1.943356 1_556
O8 W3 2.212983 1_555
O9 W2 1.880689 1_555
O10 W6 1.943356 1_555
O10 W10 2.212983 1_555
O11 W4 1.830652 1_555
O12 W5 1.801012 1_555
O13 W0 1.891063 1_555
O14 W9 1.847515 1_555
O14 W5 2.020913 1_555
O15 W8 1.847515 1_555
O15 W7 2.020913 1_555
O16 W10 1.891063 1_555
O17 W1 1.880689 1_555
O18 W0 1.994525 1_555
O18 W8 2.167991 1_555
O19 W9 1.830652 1_555
O20 W11 1.805184 1_555
O21 W4 1.943356 1_554
O21 W11 2.212983 1_555
O22 W7 1.801012 1_555
O23 W8 1.943356 1_555
O23 W0 2.212983 1_555
O24 W6 1.801273 1_555
O25 W6 1.830652 1_555
O26 W4 1.801273 1_555
O27 W10 1.805184 1_555
O28 W3 1.805184 1_555
O29 W2 1.801012 1_555
O30 W11 1.891063 1_555
O31 W10 1.994525 1_555
O31 W6 2.167991 1_555
O32 W0 1.934461 1_555
O32 W11 1.934461 1_545
O33 W7 2.037332 1_555
O33 W2 2.126574 1_565
O34 W5 1.880689 1_555
O35 W1 1.801012 1_555
O36 W11 1.994525 1_555
O36 W4 2.167991 1_554
O37 W1 2.037332 1_555
O37 W5 2.126574 1_545
O38 W8 1.830652 1_555
O39 W6 1.847515 1_555
O39 W1 2.020913 1_555
O40 W2 2.037332 1_555
O40 W7 2.126574 1_545
O41 W0 1.805184 1_555
