# generated using pymatgen
data_Cs2MnSi5O12
_symmetry_space_group_name_H-M   'P 1'
_cell_length_a   13.90224237
_cell_length_b   14.01265172
_cell_length_c   14.01498160
_cell_angle_alpha   90.00000000
_cell_angle_beta   90.00000000
_cell_angle_gamma   90.00000000
_symmetry_Int_Tables_number   1
_chemical_formula_structural   Cs2MnSi5O12
_chemical_formula_sum   'Cs16 Mn8 Si40 O96'
_cell_volume   2730.22045116
_cell_formula_units_Z   8
loop_
 _symmetry_equiv_pos_site_id
 _symmetry_equiv_pos_as_xyz
  1  'x, y, z'
loop_
 _atom_site_type_symbol
 _atom_site_label
 _atom_site_symmetry_multiplicity
 _atom_site_fract_x
 _atom_site_fract_y
 _atom_site_fract_z
 _atom_site_occupancy
  Cs  Cs0  1  0.37339679  0.64925077  0.86411245  1
  Cs  Cs1  1  0.87339679  0.35074923  0.63588755  1
  Cs  Cs2  1  0.62660321  0.85074923  0.36411245  1
  Cs  Cs3  1  0.12660321  0.14925077  0.13588755  1
  Cs  Cs4  1  0.62660321  0.35074923  0.13588755  1
  Cs  Cs5  1  0.12660321  0.64925077  0.36411245  1
  Cs  Cs6  1  0.37339679  0.14925077  0.63588755  1
  Cs  Cs7  1  0.87339679  0.85074923  0.86411245  1
  Cs  Cs8  1  0.12291303  0.88801982  0.60965236  1
  Cs  Cs9  1  0.62291303  0.11198018  0.89034764  1
  Cs  Cs10  1  0.87708697  0.61198018  0.10965236  1
  Cs  Cs11  1  0.37708697  0.38801982  0.39034764  1
  Cs  Cs12  1  0.87708697  0.11198018  0.39034764  1
  Cs  Cs13  1  0.37708697  0.88801982  0.10965236  1
  Cs  Cs14  1  0.12291303  0.38801982  0.89034764  1
  Cs  Cs15  1  0.62291303  0.61198018  0.60965236  1
  Mn  Mn0  1  0.12136113  0.43341819  0.16408611  1
  Mn  Mn1  1  0.62136113  0.56658181  0.33591389  1
  Mn  Mn2  1  0.87863887  0.06658181  0.66408611  1
  Mn  Mn3  1  0.37863887  0.93341819  0.83591389  1
  Mn  Mn4  1  0.87863887  0.56658181  0.83591389  1
  Mn  Mn5  1  0.37863887  0.43341819  0.66408611  1
  Mn  Mn6  1  0.12136113  0.93341819  0.33591389  1
  Mn  Mn7  1  0.62136113  0.06658181  0.16408611  1
  Si  Si0  1  0.37217428  0.09984591  0.33233095  1
  Si  Si1  1  0.87217428  0.90015409  0.16766905  1
  Si  Si2  1  0.62782572  0.40015409  0.83233095  1
  Si  Si3  1  0.12782572  0.59984591  0.66766905  1
  Si  Si4  1  0.62782572  0.90015409  0.66766905  1
  Si  Si5  1  0.12782572  0.09984591  0.83233095  1
  Si  Si6  1  0.37217428  0.59984591  0.16766905  1
  Si  Si7  1  0.87217428  0.40015409  0.33233095  1
  Si  Si8  1  0.91224413  0.13602587  0.88687645  1
  Si  Si9  1  0.41224413  0.86397413  0.61312355  1
  Si  Si10  1  0.08775587  0.36397413  0.38687645  1
  Si  Si11  1  0.58775587  0.63602587  0.11312355  1
  Si  Si12  1  0.08775587  0.86397413  0.11312355  1
  Si  Si13  1  0.58775587  0.13602587  0.38687645  1
  Si  Si14  1  0.91224413  0.63602587  0.61312355  1
  Si  Si15  1  0.41224413  0.36397413  0.88687645  1
  Si  Si16  1  0.84730220  0.60819447  0.40340311  1
  Si  Si17  1  0.34730220  0.39180553  0.09659689  1
  Si  Si18  1  0.15269780  0.89180553  0.90340311  1
  Si  Si19  1  0.65269780  0.10819447  0.59659689  1
  Si  Si20  1  0.15269780  0.39180553  0.59659689  1
  Si  Si21  1  0.65269780  0.60819447  0.90340311  1
  Si  Si22  1  0.84730220  0.10819447  0.09659689  1
  Si  Si23  1  0.34730220  0.89180553  0.40340311  1
  Si  Si24  1  0.59497565  0.31834645  0.62875459  1
  Si  Si25  1  0.09497565  0.68165355  0.87124541  1
  Si  Si26  1  0.40502435  0.18165355  0.12875459  1
  Si  Si27  1  0.90502435  0.81834645  0.37124541  1
  Si  Si28  1  0.40502435  0.68165355  0.37124541  1
  Si  Si29  1  0.90502435  0.31834645  0.12875459  1
  Si  Si30  1  0.59497565  0.81834645  0.87124541  1
  Si  Si31  1  0.09497565  0.18165355  0.62875459  1
  Si  Si32  1  0.66820569  0.84914242  0.07862184  1
  Si  Si33  1  0.16820569  0.15085758  0.42137816  1
  Si  Si34  1  0.33179431  0.65085758  0.57862184  1
  Si  Si35  1  0.83179431  0.34914242  0.92137816  1
  Si  Si36  1  0.33179431  0.15085758  0.92137816  1
  Si  Si37  1  0.83179431  0.84914242  0.57862184  1
  Si  Si38  1  0.66820569  0.34914242  0.42137816  1
  Si  Si39  1  0.16820569  0.65085758  0.07862184  1
  O  O0  1  0.03014614  0.65242035  0.62899880  1
  O  O1  1  0.53014614  0.34757965  0.87100120  1
  O  O2  1  0.96985386  0.84757965  0.12899880  1
  O  O3  1  0.46985386  0.15242035  0.37100120  1
  O  O4  1  0.96985386  0.34757965  0.37100120  1
  O  O5  1  0.46985386  0.65242035  0.12899880  1
  O  O6  1  0.03014614  0.15242035  0.87100120  1
  O  O7  1  0.53014614  0.84757965  0.62899880  1
  O  O8  1  0.40311350  0.90987884  0.50546096  1
  O  O9  1  0.90311350  0.09012116  0.99453904  1
  O  O10  1  0.59688650  0.59012116  0.00546096  1
  O  O11  1  0.09688650  0.40987884  0.49453904  1
  O  O12  1  0.59688650  0.09012116  0.49453904  1
  O  O13  1  0.09688650  0.90987884  0.00546096  1
  O  O14  1  0.40311350  0.40987884  0.99453904  1
  O  O15  1  0.90311350  0.59012116  0.50546096  1
  O  O16  1  0.11901780  0.98323136  0.83475652  1
  O  O17  1  0.61901780  0.01676864  0.66524348  1
  O  O18  1  0.88098220  0.51676864  0.33475652  1
  O  O19  1  0.38098220  0.48323136  0.16524348  1
  O  O20  1  0.88098220  0.01676864  0.16524348  1
  O  O21  1  0.38098220  0.98323136  0.33475652  1
  O  O22  1  0.11901780  0.48323136  0.66524348  1
  O  O23  1  0.61901780  0.51676864  0.83475652  1
  O  O24  1  0.76620866  0.12030666  0.58628096  1
  O  O25  1  0.26620866  0.87969334  0.91371904  1
  O  O26  1  0.23379134  0.37969334  0.08628096  1
  O  O27  1  0.73379134  0.62030666  0.41371904  1
  O  O28  1  0.23379134  0.87969334  0.41371904  1
  O  O29  1  0.73379134  0.12030666  0.08628096  1
  O  O30  1  0.76620866  0.62030666  0.91371904  1
  O  O31  1  0.26620866  0.37969334  0.58628096  1
  O  O32  1  0.85084854  0.86901962  0.27830738  1
  O  O33  1  0.35084854  0.13098038  0.22169262  1
  O  O34  1  0.14915146  0.63098038  0.77830738  1
  O  O35  1  0.64915146  0.36901962  0.72169262  1
  O  O36  1  0.14915146  0.13098038  0.72169262  1
  O  O37  1  0.64915146  0.86901962  0.77830738  1
  O  O38  1  0.85084854  0.36901962  0.22169262  1
  O  O39  1  0.35084854  0.63098038  0.27830738  1
  O  O40  1  0.13789434  0.25814474  0.38572461  1
  O  O41  1  0.63789434  0.74185526  0.11427539  1
  O  O42  1  0.86210566  0.24185526  0.88572461  1
  O  O43  1  0.36210566  0.75814474  0.61427539  1
  O  O44  1  0.86210566  0.74185526  0.61427539  1
  O  O45  1  0.36210566  0.25814474  0.88572461  1
  O  O46  1  0.13789434  0.75814474  0.11427539  1
  O  O47  1  0.63789434  0.24185526  0.38572461  1
  O  O48  1  0.51287763  0.14890512  0.11106150  1
  O  O49  1  0.01287763  0.85109488  0.38893850  1
  O  O50  1  0.48712237  0.35109488  0.61106150  1
  O  O51  1  0.98712237  0.64890512  0.88893850  1
  O  O52  1  0.48712237  0.85109488  0.88893850  1
  O  O53  1  0.98712237  0.14890512  0.61106150  1
  O  O54  1  0.51287763  0.64890512  0.38893850  1
  O  O55  1  0.01287763  0.35109488  0.11106150  1
  O  O56  1  0.83388442  0.35004665  0.03973039  1
  O  O57  1  0.33388442  0.64995335  0.46026961  1
  O  O58  1  0.16611558  0.14995335  0.53973039  1
  O  O59  1  0.66611558  0.85004665  0.96026961  1
  O  O60  1  0.16611558  0.64995335  0.96026961  1
  O  O61  1  0.66611558  0.35004665  0.53973039  1
  O  O62  1  0.83388442  0.85004665  0.46026961  1
  O  O63  1  0.33388442  0.14995335  0.03973039  1
  O  O64  1  0.60179300  0.42554011  0.36868183  1
  O  O65  1  0.10179300  0.57445989  0.13131817  1
  O  O66  1  0.39820700  0.07445989  0.86868183  1
  O  O67  1  0.89820700  0.92554011  0.63131817  1
  O  O68  1  0.39820700  0.57445989  0.63131817  1
  O  O69  1  0.89820700  0.42554011  0.86868183  1
  O  O70  1  0.60179300  0.92554011  0.13131817  1
  O  O71  1  0.10179300  0.07445989  0.36868183  1
  O  O72  1  0.28479770  0.63760660  0.09970636  1
  O  O73  1  0.78479770  0.36239340  0.40029364  1
  O  O74  1  0.71520230  0.86239340  0.59970636  1
  O  O75  1  0.21520230  0.13760660  0.90029364  1
  O  O76  1  0.71520230  0.36239340  0.90029364  1
  O  O77  1  0.21520230  0.63760660  0.59970636  1
  O  O78  1  0.28479770  0.13760660  0.40029364  1
  O  O79  1  0.78479770  0.86239340  0.09970636  1
  O  O80  1  0.36341885  0.43114759  0.80900526  1
  O  O81  1  0.86341885  0.56885241  0.69099474  1
  O  O82  1  0.63658115  0.06885241  0.30900526  1
  O  O83  1  0.13658115  0.93114759  0.19099474  1
  O  O84  1  0.63658115  0.56885241  0.19099474  1
  O  O85  1  0.13658115  0.43114759  0.30900526  1
  O  O86  1  0.36341885  0.93114759  0.69099474  1
  O  O87  1  0.86341885  0.06885241  0.80900526  1
  O  O88  1  0.60145133  0.70169675  0.85168445  1
  O  O89  1  0.10145133  0.29830325  0.64831555  1
  O  O90  1  0.39854867  0.79830325  0.35168445  1
  O  O91  1  0.89854867  0.20169675  0.14831555  1
  O  O92  1  0.39854867  0.29830325  0.14831555  1
  O  O93  1  0.89854867  0.70169675  0.35168445  1
  O  O94  1  0.60145133  0.20169675  0.64831555  1
  O  O95  1  0.10145133  0.79830325  0.85168445  1
loop_
_geom_bond_atom_site_label_1
_geom_bond_atom_site_label_2
_geom_bond_distance
_geom_bond_site_symmetry_2
Cs0 O80 3.155331 1_555
Cs0 O60 3.181238 1_555
Cs0 O52 3.258901 1_555
Cs0 O88 3.259188 1_555
Cs0 O34 3.351205 1_555
Cs0 O68 3.444114 1_555
Cs0 O72 3.527882 1_556
Cs0 O25 3.623683 1_555
Cs1 O81 3.155331 1_555
Cs1 O61 3.181238 1_555
Cs1 O53 3.258901 1_555
Cs1 O89 3.259188 1_655
Cs1 O35 3.351205 1_555
Cs1 O69 3.444114 1_555
Cs1 O73 3.527882 1_555
Cs1 O24 3.623683 1_555
Cs2 O82 3.155331 1_565
Cs2 O62 3.181238 1_555
Cs2 O54 3.258901 1_555
Cs2 O90 3.259188 1_555
Cs2 O32 3.351205 1_555
Cs2 O70 3.444114 1_555
Cs2 O74 3.527882 1_555
Cs2 O27 3.623683 1_555
Cs3 O83 3.155331 1_545
Cs3 O63 3.181238 1_555
Cs3 O55 3.258901 1_555
Cs3 O91 3.259188 1_455
Cs3 O33 3.351205 1_555
Cs3 O71 3.444114 1_555
Cs3 O75 3.527882 1_554
Cs3 O26 3.623683 1_555
Cs4 O84 3.155331 1_555
Cs4 O56 3.181238 1_555
Cs4 O48 3.258901 1_555
Cs4 O92 3.259188 1_555
Cs4 O38 3.351205 1_555
Cs4 O64 3.444114 1_555
Cs4 O76 3.527882 1_554
Cs4 O29 3.623683 1_555
Cs5 O85 3.155331 1_555
Cs5 O57 3.181238 1_555
Cs5 O49 3.258901 1_555
Cs5 O93 3.259188 1_455
Cs5 O39 3.351205 1_555
Cs5 O65 3.444114 1_555
Cs5 O77 3.527882 1_555
Cs5 O28 3.623683 1_555
Cs6 O86 3.155331 1_545
Cs6 O58 3.181238 1_555
Cs6 O50 3.258901 1_555
Cs6 O94 3.259188 1_555
Cs6 O36 3.351205 1_555
Cs6 O66 3.444114 1_555
Cs6 O78 3.527882 1_555
Cs6 O31 3.623683 1_555
Cs7 O87 3.155331 1_565
Cs7 O59 3.181238 1_555
Cs7 O51 3.258901 1_555
Cs7 O95 3.259188 1_655
Cs7 O37 3.351205 1_555
Cs7 O67 3.444114 1_555
Cs7 O79 3.527882 1_556
Cs7 O30 3.623683 1_555
Cs8 O28 3.151227 1_555
Cs8 O67 3.182371 1_455
Cs8 O16 3.425768 1_555
Cs8 O49 3.489460 1_555
Cs8 O0 3.554691 1_555
Cs8 O86 3.583896 1_555
Cs8 O95 3.629830 1_555
Cs9 O29 3.151227 1_556
Cs9 O66 3.182371 1_555
Cs9 O17 3.425768 1_555
Cs9 O48 3.489460 1_556
Cs9 O1 3.554691 1_555
Cs9 O87 3.583896 1_555
Cs9 O94 3.629830 1_555
Cs10 O30 3.151227 1_554
Cs10 O65 3.182371 1_655
Cs10 O18 3.425768 1_555
Cs10 O51 3.489460 1_554
Cs10 O2 3.554691 1_555
Cs10 O84 3.583896 1_555
Cs10 O93 3.629830 1_555
Cs11 O31 3.151227 1_555
Cs11 O64 3.182371 1_555
Cs11 O19 3.425768 1_555
Cs11 O50 3.489460 1_555
Cs11 O3 3.554691 1_555
Cs11 O85 3.583896 1_555
Cs11 O92 3.629830 1_555
Cs12 O24 3.151227 1_555
Cs12 O71 3.182371 1_655
Cs12 O20 3.425768 1_555
Cs12 O53 3.489460 1_555
Cs12 O4 3.554691 1_555
Cs12 O82 3.583896 1_555
Cs12 O91 3.629830 1_555
Cs13 O25 3.151227 1_554
Cs13 O70 3.182371 1_555
Cs13 O21 3.425768 1_555
Cs13 O52 3.489460 1_554
Cs13 O5 3.554691 1_555
Cs13 O83 3.583896 1_555
Cs13 O90 3.629830 1_555
Cs14 O26 3.151227 1_556
Cs14 O69 3.182371 1_455
Cs14 O22 3.425768 1_555
Cs14 O55 3.489460 1_556
Cs14 O6 3.554691 1_555
Cs14 O80 3.583896 1_555
Cs14 O89 3.629830 1_555
Cs15 O27 3.151227 1_555
Cs15 O68 3.182371 1_555
Cs15 O23 3.425768 1_555
Cs15 O54 3.489460 1_555
Cs15 O7 3.554691 1_555
Cs15 O81 3.583896 1_555
Cs15 O88 3.629830 1_555
Mn0 O55 2.039003 1_555
Mn0 O85 2.042279 1_555
Mn0 O65 2.047179 1_555
Mn0 O26 2.049115 1_555
Mn1 O54 2.039003 1_555
Mn1 O84 2.042279 1_555
Mn1 O64 2.047179 1_555
Mn1 O27 2.049115 1_555
Mn2 O53 2.039003 1_555
Mn2 O87 2.042279 1_555
Mn2 O67 2.047179 1_545
Mn2 O24 2.049115 1_555
Mn3 O52 2.039003 1_555
Mn3 O86 2.042279 1_555
Mn3 O66 2.047179 1_565
Mn3 O25 2.049115 1_555
Mn4 O51 2.039003 1_555
Mn4 O81 2.042279 1_555
Mn4 O69 2.047179 1_555
Mn4 O30 2.049115 1_555
Mn5 O50 2.039003 1_555
Mn5 O80 2.042279 1_555
Mn5 O68 2.047179 1_555
Mn5 O31 2.049115 1_555
Mn6 O49 2.039003 1_555
Mn6 O83 2.042279 1_555
Mn6 O71 2.047179 1_565
Mn6 O28 2.049115 1_555
Mn7 O48 2.039003 1_555
Mn7 O82 2.042279 1_555
Mn7 O70 2.047179 1_545
Mn7 O29 2.049115 1_555
O0 Si3 1.637233 1_555
O0 Si14 1.670010 1_455
O1 Si2 1.637233 1_555
O1 Si15 1.670010 1_555
O2 Si1 1.637233 1_555
O2 Si12 1.670010 1_655
O3 Si0 1.637233 1_555
O3 Si13 1.670010 1_555
O4 Si7 1.637233 1_555
O4 Si10 1.670010 1_655
O5 Si6 1.637233 1_555
O5 Si11 1.670010 1_555
O6 Si5 1.637233 1_555
O6 Si8 1.670010 1_455
O7 Si4 1.637233 1_555
O7 Si9 1.670010 1_555
O8 Si9 1.645183 1_555
O8 Si23 1.646825 1_555
O9 Si8 1.645183 1_555
O9 Si22 1.646825 1_556
O10 Si11 1.645183 1_555
O10 Si21 1.646825 1_554
O11 Si10 1.645183 1_555
O11 Si20 1.646825 1_555
O12 Si13 1.645183 1_555
O12 Si19 1.646825 1_555
O13 Si12 1.645183 1_555
O13 Si18 1.646825 1_554
O14 Si15 1.645183 1_555
O14 Si17 1.646825 1_556
O15 Si14 1.645183 1_555
O15 Si16 1.646825 1_555
O16 Si5 1.639013 1_565
O16 Si18 1.669162 1_555
O17 Si4 1.639013 1_545
O17 Si19 1.669162 1_555
O18 Si7 1.639013 1_555
O18 Si16 1.669162 1_555
O19 Si6 1.639013 1_555
O19 Si17 1.669162 1_555
O20 Si1 1.639013 1_545
O20 Si22 1.669162 1_555
O21 Si0 1.639013 1_565
O21 Si23 1.669162 1_555
O22 Si3 1.639013 1_555
O22 Si20 1.669162 1_555
O23 Si2 1.639013 1_555
O23 Si21 1.669162 1_555
O24 Si19 1.593728 1_555
O25 Si18 1.593728 1_555
O26 Si17 1.593728 1_555
O27 Si16 1.593728 1_555
O28 Si23 1.593728 1_555
O29 Si22 1.593728 1_555
O30 Si21 1.593728 1_555
O31 Si20 1.593728 1_555
O32 Si1 1.637858 1_555
O32 Si27 1.663737 1_555
O33 Si0 1.637858 1_555
O33 Si26 1.663737 1_555
O34 Si3 1.637858 1_555
O34 Si25 1.663737 1_555
O35 Si2 1.637858 1_555
O35 Si24 1.663737 1_555
O36 Si5 1.637858 1_555
O36 Si31 1.663737 1_555
O37 Si4 1.637858 1_555
O37 Si30 1.663737 1_555
O38 Si7 1.637858 1_555
O38 Si29 1.663737 1_555
O39 Si6 1.637858 1_555
O39 Si28 1.663737 1_555
O40 Si10 1.638677 1_555
O40 Si33 1.639330 1_555
O41 Si11 1.638677 1_555
O41 Si32 1.639330 1_555
O42 Si8 1.638677 1_555
O42 Si35 1.639330 1_555
O43 Si9 1.638677 1_555
O43 Si34 1.639330 1_555
O44 Si14 1.638677 1_555
O44 Si37 1.639330 1_555
O45 Si15 1.638677 1_555
O45 Si36 1.639330 1_555
O46 Si12 1.638677 1_555
O46 Si39 1.639330 1_555
O47 Si13 1.638677 1_555
O47 Si38 1.639330 1_555
O48 Si26 1.587538 1_555
O49 Si27 1.587538 1_455
O50 Si24 1.587538 1_555
O51 Si25 1.587538 1_655
O52 Si30 1.587538 1_555
O53 Si31 1.587538 1_655
O54 Si28 1.587538 1_555
O55 Si29 1.587538 1_455
O56 Si29 1.652917 1_555
O56 Si35 1.659007 1_554
O57 Si28 1.652917 1_555
O57 Si34 1.659007 1_555
O58 Si31 1.652917 1_555
O58 Si33 1.659007 1_555
O59 Si30 1.652917 1_555
O59 Si32 1.659007 1_556
O60 Si25 1.652917 1_555
O60 Si39 1.659007 1_556
O61 Si24 1.652917 1_555
O61 Si38 1.659007 1_555
O62 Si27 1.652917 1_555
O62 Si37 1.659007 1_555
O63 Si26 1.652917 1_555
O63 Si36 1.659007 1_554
O64 Si38 1.594973 1_555
O65 Si39 1.594973 1_555
O66 Si36 1.594973 1_555
O67 Si37 1.594973 1_555
O68 Si34 1.594973 1_555
O69 Si35 1.594973 1_555
O70 Si32 1.594973 1_555
O71 Si33 1.594973 1_555
O72 Si6 1.631807 1_555
O72 Si39 1.658036 1_555
O73 Si7 1.631807 1_555
O73 Si38 1.658036 1_555
O74 Si4 1.631807 1_555
O74 Si37 1.658036 1_555
O75 Si5 1.631807 1_555
O75 Si36 1.658036 1_555
O76 Si2 1.631807 1_555
O76 Si35 1.658036 1_555
O77 Si3 1.631807 1_555
O77 Si34 1.658036 1_555
O78 Si0 1.631807 1_555
O78 Si33 1.658036 1_555
O79 Si1 1.631807 1_555
O79 Si32 1.658036 1_555
O80 Si15 1.593054 1_555
O81 Si14 1.593054 1_555
O82 Si13 1.593054 1_555
O83 Si12 1.593054 1_555
O84 Si11 1.593054 1_555
O85 Si10 1.593054 1_555
O86 Si9 1.593054 1_555
O87 Si8 1.593054 1_555
O88 Si21 1.658199 1_555
O88 Si30 1.659845 1_555
O89 Si20 1.658199 1_555
O89 Si31 1.659845 1_555
O90 Si23 1.658199 1_555
O90 Si28 1.659845 1_555
O91 Si22 1.658199 1_555
O91 Si29 1.659845 1_555
O92 Si17 1.658199 1_555
O92 Si26 1.659845 1_555
O93 Si16 1.658199 1_555
O93 Si27 1.659845 1_555
O94 Si19 1.658199 1_555
O94 Si24 1.659845 1_555
O95 Si18 1.658199 1_555
O95 Si25 1.659845 1_555
