# generated using pymatgen
data_Zn2FeS3
_symmetry_space_group_name_H-M   'P 1'
_cell_length_a   3.82934607
_cell_length_b   3.82934607
_cell_length_c   9.45313200
_cell_angle_alpha   90.00000000
_cell_angle_beta   90.00000000
_cell_angle_gamma   120.00000126
_symmetry_Int_Tables_number   1
_chemical_formula_structural   Zn2FeS3
_chemical_formula_sum   'Zn2 Fe1 S3'
_cell_volume   120.04818060
_cell_formula_units_Z   1
loop_
 _symmetry_equiv_pos_site_id
 _symmetry_equiv_pos_as_xyz
  1  'x, y, z'
loop_
 _atom_site_type_symbol
 _atom_site_label
 _atom_site_symmetry_multiplicity
 _atom_site_fract_x
 _atom_site_fract_y
 _atom_site_fract_z
 _atom_site_occupancy
  Zn  Zn0  1  0.66666700  0.33333300  0.33384100  1
  Zn  Zn1  1  0.33333300  0.66666700  0.66733200  1
  Fe  Fe0  1  0.00000000  0.00000000  0.00086900  1
  S  S0  1  0.00000000  0.00000000  0.24719600  1
  S  S1  1  0.66666700  0.33333300  0.58308700  1
  S  S2  1  0.33333300  0.66666700  0.91767600  1
loop_
_geom_bond_atom_site_label_1
_geom_bond_atom_site_label_2
_geom_bond_distance
_geom_bond_site_symmetry_2
Fe0 S0 2.328562 1_555
Fe0 S2 2.346579 1_544
Fe0 S2 2.346582 1_554
Fe0 S2 2.346582 1_444
S0 Zn0 2.357716 1_455
S0 Zn0 2.357719 1_555
S0 Zn0 2.357719 1_445
S1 Zn1 2.349931 1_545
S1 Zn1 2.349931 1_655
S1 Zn1 2.349937 1_555
S1 Zn0 2.356155 1_555
S2 Zn1 2.366535 1_555
