# generated using pymatgen
data_Nb3Zn2Bi3O14
_symmetry_space_group_name_H-M   'P 1'
_cell_length_a   10.66818600
_cell_length_b   10.66818600
_cell_length_c   10.66818600
_cell_angle_alpha   90.00000000
_cell_angle_beta   90.00000000
_cell_angle_gamma   90.00000000
_symmetry_Int_Tables_number   1
_chemical_formula_structural   Nb3Zn2Bi3O14
_chemical_formula_sum   'Nb12 Zn8 Bi12 O56'
_cell_volume   1214.14830261
_cell_formula_units_Z   4
loop_
 _symmetry_equiv_pos_site_id
 _symmetry_equiv_pos_as_xyz
  1  'x, y, z'
loop_
 _atom_site_type_symbol
 _atom_site_label
 _atom_site_symmetry_multiplicity
 _atom_site_fract_x
 _atom_site_fract_y
 _atom_site_fract_z
 _atom_site_occupancy
  Nb  Nb0  1  0.12500000  0.87437300  0.12437300  1
  Nb  Nb1  1  0.37500000  0.12562700  0.62437300  1
  Nb  Nb2  1  0.87500000  0.37437300  0.37562700  1
  Nb  Nb3  1  0.12437300  0.12500000  0.87437300  1
  Nb  Nb4  1  0.62437300  0.37500000  0.12562700  1
  Nb  Nb5  1  0.62500000  0.62562700  0.87562700  1
  Nb  Nb6  1  0.87562700  0.62500000  0.62562700  1
  Nb  Nb7  1  0.37562700  0.87500000  0.37437300  1
  Nb  Nb8  1  0.87437300  0.12437300  0.12500000  1
  Nb  Nb9  1  0.37437300  0.37562700  0.87500000  1
  Nb  Nb10  1  0.62562700  0.87562700  0.62500000  1
  Nb  Nb11  1  0.12562700  0.62437300  0.37500000  1
  Zn  Zn0  1  0.87500000  0.87500000  0.87500000  1
  Zn  Zn1  1  0.62500000  0.12500000  0.37500000  1
  Zn  Zn2  1  0.12500000  0.37500000  0.62500000  1
  Zn  Zn3  1  0.37500000  0.62500000  0.12500000  1
  Zn  Zn4  1  0.37500000  0.37500000  0.37500000  1
  Zn  Zn5  1  0.12500000  0.62500000  0.87500000  1
  Zn  Zn6  1  0.62500000  0.87500000  0.12500000  1
  Zn  Zn7  1  0.87500000  0.12500000  0.62500000  1
  Bi  Bi0  1  0.12500000  0.15433300  0.40433300  1
  Bi  Bi1  1  0.37500000  0.84566700  0.90433300  1
  Bi  Bi2  1  0.87500000  0.65433300  0.09566700  1
  Bi  Bi3  1  0.40433300  0.12500000  0.15433300  1
  Bi  Bi4  1  0.90433300  0.37500000  0.84566700  1
  Bi  Bi5  1  0.62500000  0.34566700  0.59566700  1
  Bi  Bi6  1  0.59566700  0.62500000  0.34566700  1
  Bi  Bi7  1  0.09566700  0.87500000  0.65433300  1
  Bi  Bi8  1  0.15433300  0.40433300  0.12500000  1
  Bi  Bi9  1  0.65433300  0.09566700  0.87500000  1
  Bi  Bi10  1  0.34566700  0.59566700  0.62500000  1
  Bi  Bi11  1  0.84566700  0.90433300  0.37500000  1
  O  O0  1  0.00422400  0.29805800  0.48953600  1
  O  O1  1  0.49577600  0.70194200  0.98953600  1
  O  O2  1  0.99577600  0.79805800  0.01046400  1
  O  O3  1  0.48953600  0.00422400  0.29805800  1
  O  O4  1  0.04805800  0.25422400  0.76046400  1
  O  O5  1  0.50422400  0.20194200  0.51046400  1
  O  O6  1  0.98953600  0.49577600  0.70194200  1
  O  O7  1  0.45194200  0.74577600  0.26046400  1
  O  O8  1  0.01046400  0.99577600  0.79805800  1
  O  O9  1  0.54805800  0.24577600  0.23953600  1
  O  O10  1  0.51046400  0.50422400  0.20194200  1
  O  O11  1  0.95194200  0.75422400  0.73953600  1
  O  O12  1  0.29805800  0.48953600  0.00422400  1
  O  O13  1  0.75422400  0.73953600  0.95194200  1
  O  O14  1  0.79805800  0.01046400  0.99577600  1
  O  O15  1  0.74577600  0.26046400  0.45194200  1
  O  O16  1  0.20194200  0.51046400  0.50422400  1
  O  O17  1  0.25422400  0.76046400  0.04805800  1
  O  O18  1  0.70194200  0.98953600  0.49577600  1
  O  O19  1  0.24577600  0.23953600  0.54805800  1
  O  O20  1  0.76046400  0.04805800  0.25422400  1
  O  O21  1  0.26046400  0.45194200  0.74577600  1
  O  O22  1  0.73953600  0.95194200  0.75422400  1
  O  O23  1  0.23953600  0.54805800  0.24577600  1
  O  O24  1  0.27091900  0.27091900  0.27091900  1
  O  O25  1  0.22908100  0.72908100  0.77091900  1
  O  O26  1  0.72908100  0.77091900  0.22908100  1
  O  O27  1  0.02091900  0.52091900  0.97908100  1
  O  O28  1  0.77091900  0.22908100  0.72908100  1
  O  O29  1  0.47908100  0.47908100  0.47908100  1
  O  O30  1  0.52091900  0.97908100  0.02091900  1
  O  O31  1  0.97908100  0.02091900  0.52091900  1
  O  O32  1  0.99926200  0.99961900  0.19002800  1
  O  O33  1  0.50073800  0.00038100  0.69002800  1
  O  O34  1  0.00073800  0.49961900  0.30997200  1
  O  O35  1  0.19002800  0.99926200  0.99961900  1
  O  O36  1  0.74961900  0.24926200  0.05997200  1
  O  O37  1  0.49926200  0.50038100  0.80997200  1
  O  O38  1  0.69002800  0.50073800  0.00038100  1
  O  O39  1  0.75038100  0.75073800  0.55997200  1
  O  O40  1  0.30997200  0.00073800  0.49961900  1
  O  O41  1  0.24961900  0.25073800  0.94002800  1
  O  O42  1  0.80997200  0.49926200  0.50038100  1
  O  O43  1  0.25038100  0.74926200  0.44002800  1
  O  O44  1  0.99961900  0.19002800  0.99926200  1
  O  O45  1  0.74926200  0.44002800  0.25038100  1
  O  O46  1  0.49961900  0.30997200  0.00073800  1
  O  O47  1  0.75073800  0.55997200  0.75038100  1
  O  O48  1  0.50038100  0.80997200  0.49926200  1
  O  O49  1  0.24926200  0.05997200  0.74961900  1
  O  O50  1  0.00038100  0.69002800  0.50073800  1
  O  O51  1  0.25073800  0.94002800  0.24961900  1
  O  O52  1  0.05997200  0.74961900  0.24926200  1
  O  O53  1  0.55997200  0.75038100  0.75073800  1
  O  O54  1  0.44002800  0.25038100  0.74926200  1
  O  O55  1  0.94002800  0.24961900  0.25073800  1
loop_
_geom_bond_atom_site_label_1
_geom_bond_atom_site_label_2
_geom_bond_distance
_geom_bond_site_symmetry_2
Nb0 O52 2.006908 1_555
Nb0 O35 2.006908 1_554
Nb0 O2 2.009986 1_455
Nb0 O17 2.009986 1_555
Nb0 O51 2.018718 1_555
Nb0 O32 2.018718 1_455
Nb1 O54 2.006908 1_555
Nb1 O40 2.006908 1_555
Nb1 O5 2.009986 1_555
Nb1 O19 2.009986 1_555
Nb1 O33 2.018718 1_555
Nb1 O49 2.018718 1_555
Nb2 O55 2.006908 1_555
Nb2 O42 2.006908 1_555
Nb2 O0 2.009986 1_655
Nb2 O15 2.009986 1_555
Nb2 O34 2.018718 1_655
Nb2 O45 2.018718 1_555
Nb3 O49 2.006908 1_555
Nb3 O44 2.006908 1_455
Nb3 O8 2.009986 1_545
Nb3 O4 2.009986 1_555
Nb3 O41 2.018718 1_555
Nb3 O35 2.018718 1_545
Nb4 O45 2.006908 1_555
Nb4 O46 2.006908 1_555
Nb4 O10 2.009986 1_555
Nb4 O9 2.009986 1_555
Nb4 O38 2.018718 1_555
Nb4 O36 2.018718 1_555
Nb5 O53 2.006908 1_555
Nb5 O38 2.006908 1_556
Nb5 O1 2.009986 1_555
Nb5 O13 2.009986 1_555
Nb5 O47 2.018718 1_555
Nb5 O37 2.018718 1_555
Nb6 O50 2.006908 1_655
Nb6 O47 2.006908 1_555
Nb6 O11 2.009986 1_555
Nb6 O6 2.009986 1_555
Nb6 O39 2.018718 1_555
Nb6 O42 2.018718 1_555
Nb7 O51 2.006908 1_555
Nb7 O48 2.006908 1_555
Nb7 O3 2.009986 1_565
Nb7 O7 2.009986 1_555
Nb7 O40 2.018718 1_565
Nb7 O43 2.018718 1_555
Nb8 O36 2.006908 1_555
Nb8 O32 2.006908 1_545
Nb8 O14 2.009986 1_554
Nb8 O20 2.009986 1_555
Nb8 O55 2.018718 1_555
Nb8 O44 2.018718 1_554
Nb9 O41 2.006908 1_555
Nb9 O37 2.006908 1_555
Nb9 O12 2.009986 1_556
Nb9 O21 2.009986 1_555
Nb9 O46 2.018718 1_556
Nb9 O54 2.018718 1_555
Nb10 O39 2.006908 1_555
Nb10 O33 2.006908 1_565
Nb10 O18 2.009986 1_555
Nb10 O22 2.009986 1_555
Nb10 O53 2.018718 1_555
Nb10 O48 2.018718 1_555
Nb11 O43 2.006908 1_555
Nb11 O34 2.006908 1_555
Nb11 O16 2.009986 1_555
Nb11 O23 2.009986 1_555
Nb11 O50 2.018718 1_555
Nb11 O52 2.018718 1_555
Bi0 O19 2.199387 1_555
Bi0 O0 2.199387 1_555
Bi0 O24 2.448667 1_555
Bi0 O31 2.448667 1_455
Bi0 O40 2.759031 1_555
Bi0 O55 2.759031 1_455
Bi1 O1 2.199387 1_555
Bi1 O17 2.199387 1_556
Bi1 O30 2.448667 1_556
Bi1 O25 2.448667 1_555
Bi1 O53 2.759031 1_555
Bi1 O35 2.759031 1_555
Bi2 O2 2.199387 1_555
Bi2 O13 2.199387 1_554
Bi2 O27 2.448667 1_654
Bi2 O26 2.448667 1_555
Bi2 O52 2.759031 1_655
Bi2 O38 2.759031 1_555
Bi3 O9 2.199387 1_555
Bi3 O3 2.199387 1_555
Bi3 O24 2.448667 1_555
Bi3 O30 2.448667 1_545
Bi3 O46 2.759031 1_555
Bi3 O51 2.759031 1_545
Bi4 O6 2.199387 1_555
Bi4 O4 2.199387 1_655
Bi4 O27 2.448667 1_655
Bi4 O28 2.448667 1_555
Bi4 O47 2.759031 1_555
Bi4 O44 2.759031 1_555
Bi5 O5 2.199387 1_555
Bi5 O15 2.199387 1_555
Bi5 O28 2.448667 1_555
Bi5 O29 2.448667 1_555
Bi5 O42 2.759031 1_555
Bi5 O54 2.759031 1_555
Bi6 O7 2.199387 1_555
Bi6 O10 2.199387 1_555
Bi6 O26 2.448667 1_555
Bi6 O29 2.448667 1_555
Bi6 O48 2.759031 1_555
Bi6 O45 2.759031 1_555
Bi7 O8 2.199387 1_555
Bi7 O11 2.199387 1_455
Bi7 O31 2.448667 1_465
Bi7 O25 2.448667 1_555
Bi7 O49 2.759031 1_565
Bi7 O50 2.759031 1_555
Bi8 O23 2.199387 1_555
Bi8 O12 2.199387 1_555
Bi8 O24 2.448667 1_555
Bi8 O27 2.448667 1_554
Bi8 O34 2.759031 1_555
Bi8 O41 2.759031 1_554
Bi9 O14 2.199387 1_555
Bi9 O22 2.199387 1_545
Bi9 O30 2.448667 1_546
Bi9 O28 2.448667 1_555
Bi9 O36 2.759031 1_556
Bi9 O33 2.759031 1_555
Bi10 O21 2.199387 1_555
Bi10 O16 2.199387 1_555
Bi10 O25 2.448667 1_555
Bi10 O29 2.448667 1_555
Bi10 O37 2.759031 1_555
Bi10 O43 2.759031 1_555
Bi11 O18 2.199387 1_555
Bi11 O20 2.199387 1_565
Bi11 O31 2.448667 1_565
Bi11 O26 2.448667 1_555
Bi11 O39 2.759031 1_555
Bi11 O32 2.759031 1_555
O0 Zn2 2.102943 1_555
O1 Zn3 2.102943 1_556
O2 Zn0 2.102943 1_554
O3 Zn1 2.102943 1_555
O4 Zn2 2.102943 1_555
O5 Zn1 2.102943 1_555
O6 Zn2 2.102943 1_655
O7 Zn3 2.102943 1_555
O8 Zn0 2.102943 1_455
O9 Zn1 2.102943 1_555
O10 Zn3 2.102943 1_555
O11 Zn0 2.102943 1_555
O12 Zn3 2.102943 1_555
O13 Zn0 2.102943 1_555
O14 Zn0 2.102943 1_545
O15 Zn1 2.102943 1_555
O16 Zn2 2.102943 1_555
O17 Zn3 2.102943 1_555
O18 Zn1 2.102943 1_565
O19 Zn2 2.102943 1_555
O20 Zn1 2.102943 1_555
O21 Zn2 2.102943 1_555
O22 Zn0 2.102943 1_555
O23 Zn3 2.102943 1_555
O24 Zn4 1.923192 1_555
O25 Zn5 1.923192 1_555
O26 Zn6 1.923192 1_555
O27 Zn5 1.923192 1_555
O28 Zn7 1.923192 1_555
O29 Zn4 1.923192 1_555
O30 Zn6 1.923192 1_555
O31 Zn7 1.923192 1_555
