# generated using pymatgen
data_Li10Zn(PS4)4
_symmetry_space_group_name_H-M   'P 1'
_cell_length_a   7.90896100
_cell_length_b   12.33501700
_cell_length_c   17.90837017
_cell_angle_alpha   46.48726749
_cell_angle_beta   90.00000000
_cell_angle_gamma   90.00000000
_symmetry_Int_Tables_number   1
_chemical_formula_structural   Li10Zn(PS4)4
_chemical_formula_sum   'Li20 Zn2 P8 S32'
_cell_volume   1267.02694382
_cell_formula_units_Z   2
loop_
 _symmetry_equiv_pos_site_id
 _symmetry_equiv_pos_as_xyz
  1  'x, y, z'
loop_
 _atom_site_type_symbol
 _atom_site_label
 _atom_site_symmetry_multiplicity
 _atom_site_fract_x
 _atom_site_fract_y
 _atom_site_fract_z
 _atom_site_occupancy
  Li  Li0  1  0.23933300  0.34083200  0.15399200  1
  Li  Li1  1  0.24255500  0.85038600  0.15525800  1
  Li  Li2  1  0.23631000  0.84859000  0.65401600  1
  Li  Li3  1  0.24217400  0.33588000  0.65541100  1
  Li  Li4  1  0.24051300  0.91212400  0.33830100  1
  Li  Li5  1  0.24585200  0.40258200  0.34724700  1
  Li  Li6  1  0.27146300  0.90905700  0.83709000  1
  Li  Li7  1  0.72853700  0.90905700  0.33709000  1
  Li  Li8  1  0.75414800  0.40258200  0.84724700  1
  Li  Li9  1  0.75948700  0.91212400  0.83830100  1
  Li  Li10  1  0.75782600  0.33588000  0.15541100  1
  Li  Li11  1  0.76369000  0.84859000  0.15401600  1
  Li  Li12  1  0.75744500  0.85038600  0.65525800  1
  Li  Li13  1  0.76066700  0.34083200  0.65399200  1
  Li  Li14  1  0.01317600  0.66902800  0.07122500  1
  Li  Li15  1  0.98682400  0.66902800  0.57122500  1
  Li  Li16  1  0.49120500  0.06657300  0.42714000  1
  Li  Li17  1  0.48832300  0.56876700  0.42540800  1
  Li  Li18  1  0.51167700  0.56876700  0.92540800  1
  Li  Li19  1  0.50879500  0.06657300  0.92714000  1
  Zn  Zn0  1  0.25119600  0.40016200  0.84799900  1
  Zn  Zn1  1  0.74880400  0.40016200  0.34799900  1
  P  P0  1  0.98882300  0.08925500  0.40944000  1
  P  P1  1  0.99889900  0.58566700  0.41191700  1
  P  P2  1  0.00110100  0.58566700  0.91191700  1
  P  P3  1  0.01117700  0.08925500  0.90944000  1
  P  P4  1  0.49275700  0.15610300  0.09416100  1
  P  P5  1  0.50333200  0.65632800  0.09485800  1
  P  P6  1  0.49666800  0.65632800  0.59485800  1
  P  P7  1  0.50724300  0.15610300  0.59416100  1
  S  S0  1  0.99946800  0.38290500  0.05612900  1
  S  S1  1  0.00609000  0.88219300  0.05758000  1
  S  S2  1  0.99391000  0.88219300  0.55758000  1
  S  S3  1  0.00053200  0.38290500  0.55612900  1
  S  S4  1  0.98535000  0.76460100  0.39952200  1
  S  S5  1  0.99213600  0.25252600  0.41465300  1
  S  S6  1  0.00786400  0.25252600  0.91465300  1
  S  S7  1  0.01465000  0.76460100  0.89952200  1
  S  S8  1  0.20601800  0.11176700  0.33636100  1
  S  S9  1  0.21034000  0.61170200  0.33362300  1
  S  S10  1  0.22137300  0.60466900  0.83609900  1
  S  S11  1  0.22651700  0.10711600  0.83739700  1
  S  S12  1  0.27420600  0.04185800  0.15800700  1
  S  S13  1  0.29065600  0.52665400  0.16584100  1
  S  S14  1  0.27750800  0.52440300  0.66913000  1
  S  S15  1  0.28772400  0.04092300  0.65560800  1
  S  S16  1  0.49685100  0.32228000  0.09577500  1
  S  S17  1  0.50349200  0.81572800  0.10178800  1
  S  S18  1  0.49650800  0.81572800  0.60178800  1
  S  S19  1  0.50314900  0.32228000  0.59577500  1
  S  S20  1  0.48366800  0.75088400  0.44559600  1
  S  S21  1  0.50220700  0.25937500  0.43775500  1
  S  S22  1  0.49779300  0.25937500  0.93775500  1
  S  S23  1  0.51633200  0.75088400  0.94559600  1
  S  S24  1  0.71227600  0.04092300  0.15560800  1
  S  S25  1  0.72249200  0.52440300  0.16913000  1
  S  S26  1  0.70934400  0.52665400  0.66584100  1
  S  S27  1  0.72579400  0.04185800  0.65800700  1
  S  S28  1  0.77348300  0.10711600  0.33739700  1
  S  S29  1  0.77862700  0.60466900  0.33609900  1
  S  S30  1  0.78966000  0.61170200  0.83362300  1
  S  S31  1  0.79398200  0.11176700  0.83636100  1
loop_
_geom_bond_atom_site_label_1
_geom_bond_atom_site_label_2
_geom_bond_distance
_geom_bond_site_symmetry_2
Li0 S16 2.369811 1_555
Li0 S0 2.384804 1_455
Li0 S8 2.451961 1_555
Li0 S13 2.476561 1_555
Li1 S1 2.401329 1_555
Li1 S12 2.409013 1_565
Li1 S17 2.433602 1_555
Li1 S9 2.446642 1_555
Li2 S18 2.407519 1_555
Li2 S2 2.417445 1_455
Li2 S15 2.426464 1_565
Li2 S10 2.487859 1_555
Li3 S19 2.382374 1_555
Li3 S3 2.393732 1_555
Li3 S11 2.436319 1_555
Li3 S14 2.516512 1_555
Li4 S4 2.416338 1_455
Li4 S12 2.437590 1_565
Li4 S8 2.454022 1_565
Li4 S20 2.466500 1_555
Li5 S5 2.415155 1_455
Li5 S21 2.432207 1_555
Li5 S9 2.434252 1_555
Li5 S13 2.485015 1_555
Li6 S7 2.409814 1_555
Li6 S15 2.438339 1_565
Li6 S23 2.472355 1_555
Li6 S11 2.472537 1_565
Li7 S4 2.409814 1_555
Li7 S24 2.438339 1_565
Li7 S20 2.472355 1_555
Li7 S28 2.472537 1_565
Li8 S6 2.415155 1_655
Li8 S22 2.432207 1_555
Li8 S30 2.434252 1_555
Li8 S26 2.485015 1_555
Li9 S7 2.416338 1_655
Li9 S27 2.437590 1_565
Li9 S31 2.454022 1_565
Li9 S23 2.466500 1_555
Li10 S16 2.382374 1_555
Li10 S0 2.393732 1_555
Li10 S28 2.436319 1_555
Li10 S25 2.516512 1_555
Li11 S17 2.407519 1_555
Li11 S1 2.417445 1_655
Li11 S24 2.426464 1_565
Li11 S29 2.487859 1_555
Li12 S2 2.401329 1_555
Li12 S27 2.409013 1_565
Li12 S18 2.433602 1_555
Li12 S30 2.446642 1_555
Li13 S19 2.369811 1_555
Li13 S3 2.384804 1_655
Li13 S31 2.451961 1_555
Li13 S26 2.476561 1_555
Li14 S7 2.419363 1_554
Li14 S1 2.468157 1_555
Li14 S13 2.583363 1_555
Li14 S25 2.689781 1_455
Li15 S4 2.419363 1_555
Li15 S2 2.468157 1_555
Li15 S26 2.583363 1_555
Li15 S14 2.689781 1_655
Li16 S18 2.455948 1_545
Li16 S21 2.514392 1_555
Li16 S28 2.590451 1_555
Li16 S8 2.606365 1_555
Li17 S19 2.406805 1_555
Li17 S20 2.509345 1_555
Li17 S9 2.572394 1_555
Li17 S29 2.655264 1_555
Li18 S16 2.406805 1_556
Li18 S23 2.509345 1_555
Li18 S30 2.572394 1_555
Li18 S10 2.655264 1_555
Li19 S17 2.455948 1_546
Li19 S22 2.514392 1_555
Li19 S11 2.590451 1_555
Li19 S31 2.606365 1_555
P0 S28 2.054817 1_555
P0 S2 2.057322 1_545
P0 S8 2.059182 1_655
P0 S5 2.079495 1_555
P1 S3 2.007670 1_655
P1 S9 2.060469 1_655
P1 S4 2.063403 1_555
P1 S29 2.120200 1_555
P2 S0 2.007670 1_456
P2 S30 2.060469 1_455
P2 S7 2.063403 1_555
P2 S10 2.120200 1_555
P3 S11 2.054817 1_555
P3 S1 2.057322 1_546
P3 S31 2.059182 1_455
P3 S6 2.079495 1_555
P4 S12 2.015487 1_555
P4 S24 2.022584 1_555
P4 S16 2.070056 1_555
P4 S22 2.134585 1_554
P5 S13 2.050311 1_555
P5 S17 2.053624 1_555
P5 S23 2.054972 1_554
P5 S25 2.107402 1_555
P6 S26 2.050311 1_555
P6 S18 2.053624 1_555
P6 S20 2.054972 1_555
P6 S14 2.107402 1_555
P7 S27 2.015487 1_555
P7 S15 2.022584 1_555
P7 S19 2.070056 1_555
P7 S21 2.134585 1_555
S5 Zn1 2.334860 1_555
S6 Zn0 2.334860 1_555
S10 Zn0 2.392544 1_555
S14 Zn0 2.427518 1_555
S21 Zn1 2.357843 1_555
S22 Zn0 2.357843 1_555
S25 Zn1 2.427518 1_555
S29 Zn1 2.392544 1_555
