# generated using pymatgen
data_SrGa4Au3
_symmetry_space_group_name_H-M   'P 1'
_cell_length_a   4.36835006
_cell_length_b   4.36835006
_cell_length_c   8.66493817
_cell_angle_alpha   90.00000000
_cell_angle_beta   90.00000000
_cell_angle_gamma   90.00000000
_symmetry_Int_Tables_number   1
_chemical_formula_structural   SrGa4Au3
_chemical_formula_sum   'Sr1 Ga4 Au3'
_cell_volume   165.34852880
_cell_formula_units_Z   1
loop_
 _symmetry_equiv_pos_site_id
 _symmetry_equiv_pos_as_xyz
  1  'x, y, z'
loop_
 _atom_site_type_symbol
 _atom_site_label
 _atom_site_symmetry_multiplicity
 _atom_site_fract_x
 _atom_site_fract_y
 _atom_site_fract_z
 _atom_site_occupancy
  Sr  Sr0  1  0.00000000  -0.00000000  0.50000000  1
  Ga  Ga0  1  -0.00000000  0.50000000  0.17213670  1
  Ga  Ga1  1  0.00000000  0.50000000  0.82786330  1
  Ga  Ga2  1  0.50000000  -0.00000000  0.17213670  1
  Ga  Ga3  1  0.50000000  -0.00000000  0.82786330  1
  Au  Au0  1  0.50000000  0.50000000  0.33867343  1
  Au  Au1  1  0.50000000  0.50000000  0.66132657  1
  Au  Au2  1  0.00000000  -0.00000000  -0.00000000  1
loop_
_geom_bond_atom_site_label_1
_geom_bond_atom_site_label_2
_geom_bond_distance
_geom_bond_site_symmetry_2
Ga0 Sr0 3.583493 1_565
Ga0 Sr0 3.583493 1_555
Ga1 Sr0 3.583493 1_565
Ga1 Sr0 3.583493 1_555
Ga2 Sr0 3.583493 1_655
Ga2 Sr0 3.583493 1_555
Ga3 Sr0 3.583493 1_655
Ga3 Sr0 3.583493 1_555
Au0 Ga0 2.617815 1_555
Au0 Ga2 2.617815 1_555
Au0 Ga0 2.617815 1_655
Au0 Ga2 2.617815 1_565
Au0 Au1 2.795770 1_555
Au0 Sr0 3.390475 1_555
Au0 Sr0 3.390475 1_565
Au0 Sr0 3.390475 1_665
Au0 Sr0 3.390475 1_655
Au1 Ga1 2.617815 1_555
Au1 Ga1 2.617815 1_655
Au1 Ga3 2.617815 1_565
Au1 Ga3 2.617815 1_555
Au1 Sr0 3.390475 1_655
Au1 Sr0 3.390475 1_555
Au1 Sr0 3.390475 1_665
Au1 Sr0 3.390475 1_565
Au2 Ga2 2.644873 1_455
Au2 Ga2 2.644873 1_555
Au2 Ga0 2.644873 1_555
Au2 Ga0 2.644873 1_545
Au2 Ga3 2.644873 1_554
Au2 Ga1 2.644873 1_544
Au2 Ga1 2.644873 1_554
Au2 Ga3 2.644873 1_454
