# generated using pymatgen
data_Zr9Ti3P4
_symmetry_space_group_name_H-M   'P 1'
_cell_length_a   3.54963600
_cell_length_b   3.99255400
_cell_length_c   22.87332100
_cell_angle_alpha   90.00000000
_cell_angle_beta   90.00000000
_cell_angle_gamma   90.00000000
_symmetry_Int_Tables_number   1
_chemical_formula_structural   Zr9Ti3P4
_chemical_formula_sum   'Zr9 Ti3 P4'
_cell_volume   324.16329928
_cell_formula_units_Z   1
loop_
 _symmetry_equiv_pos_site_id
 _symmetry_equiv_pos_as_xyz
  1  'x, y, z'
loop_
 _atom_site_type_symbol
 _atom_site_label
 _atom_site_symmetry_multiplicity
 _atom_site_fract_x
 _atom_site_fract_y
 _atom_site_fract_z
 _atom_site_occupancy
  Zr  Zr0  1  0.00000000  0.00000000  0.01162700  1
  Zr  Zr1  1  0.50000000  0.00000000  0.82330800  1
  Zr  Zr2  1  0.00000000  0.00000000  0.64111600  1
  Zr  Zr3  1  0.50000000  0.00000000  0.46222300  1
  Zr  Zr4  1  0.00000000  0.00000000  0.33704700  1
  Zr  Zr5  1  0.50000000  0.00000000  0.19278800  1
  Zr  Zr6  1  0.50000000  0.50000000  0.33986600  1
  Zr  Zr7  1  0.00000000  0.50000000  0.22543000  1
  Zr  Zr8  1  0.50000000  0.50000000  0.09636700  1
  Ti  Ti0  1  0.00000000  0.50000000  0.90555900  1
  Ti  Ti1  1  0.50000000  0.50000000  0.72052100  1
  Ti  Ti2  1  0.00000000  0.50000000  0.53745300  1
  P  P0  1  0.50000000  0.50000000  0.98123200  1
  P  P1  1  0.00000000  0.50000000  0.79650400  1
  P  P2  1  0.50000000  0.50000000  0.61248700  1
  P  P3  1  0.00000000  0.50000000  0.42757200  1
loop_
_geom_bond_atom_site_label_1
_geom_bond_atom_site_label_2
_geom_bond_distance
_geom_bond_site_symmetry_2
Zr4 Zr6 2.671939 1_545
Zr4 Zr6 2.671939 1_555
Zr4 Zr6 2.671939 1_445
Zr4 Zr6 2.671939 1_455
Zr5 Zr7 2.773546 1_655
Zr5 Zr7 2.773546 1_645
Zr5 Zr7 2.773546 1_555
Zr5 Zr7 2.773546 1_545
Zr5 Zr8 2.974763 1_545
Zr5 Zr8 2.974763 1_555
P0 Ti0 2.479106 1_555
P0 Ti0 2.479106 1_655
P0 Zr8 2.633520 1_556
P0 Zr0 2.760154 1_666
P0 Zr0 2.760154 1_556
P0 Zr0 2.760154 1_566
P0 Zr0 2.760154 1_656
P1 Ti1 2.484062 1_555
P1 Ti1 2.484062 1_455
P1 Ti0 2.494450 1_555
P1 Zr1 2.740618 1_565
P1 Zr1 2.740618 1_465
P1 Zr1 2.740618 1_555
P1 Zr1 2.740618 1_455
P2 Ti2 2.468924 1_555
P2 Ti2 2.468924 1_655
P2 Ti1 2.471096 1_555
P2 Zr2 2.750258 1_555
P2 Zr2 2.750258 1_565
P2 Zr2 2.750258 1_655
P2 Zr2 2.750258 1_665
P3 Ti2 2.513343 1_555
P3 Zr6 2.678531 1_555
P3 Zr6 2.678531 1_455
P3 Zr3 2.786268 1_465
P3 Zr3 2.786268 1_455
P3 Zr3 2.786268 1_555
P3 Zr3 2.786268 1_565
P3 Zr4 2.876202 1_555
P3 Zr4 2.876202 1_565
