# generated using pymatgen
data_BaErCuSe3
_symmetry_space_group_name_H-M   'P 1'
_cell_length_a   7.31323938
_cell_length_b   7.31323938
_cell_length_c   10.56699943
_cell_angle_alpha   90.00000000
_cell_angle_beta   90.00000000
_cell_angle_gamma   146.99008263
_symmetry_Int_Tables_number   1
_chemical_formula_structural   BaErCuSe3
_chemical_formula_sum   'Ba2 Er2 Cu2 Se6'
_cell_volume   307.89012561
_cell_formula_units_Z   2
loop_
 _symmetry_equiv_pos_site_id
 _symmetry_equiv_pos_as_xyz
  1  'x, y, z'
loop_
 _atom_site_type_symbol
 _atom_site_label
 _atom_site_symmetry_multiplicity
 _atom_site_fract_x
 _atom_site_fract_y
 _atom_site_fract_z
 _atom_site_occupancy
  Ba  Ba0  1  0.25309166  0.74690834  0.25000000  1
  Ba  Ba1  1  0.74690834  0.25309166  0.75000000  1
  Er  Er0  1  0.00000000  -0.00000000  0.50000000  1
  Er  Er1  1  0.00000000  -0.00000000  0.00000000  1
  Cu  Cu0  1  0.53272911  0.46727089  0.25000000  1
  Cu  Cu1  1  0.46727089  0.53272911  0.75000000  1
  Se  Se0  1  0.63245715  0.36754285  0.44033577  1
  Se  Se1  1  0.36754285  0.63245715  0.55966423  1
  Se  Se2  1  0.63245715  0.36754285  0.05966423  1
  Se  Se3  1  0.36754285  0.63245715  0.94033577  1
  Se  Se4  1  0.93331319  0.06668681  0.25000000  1
  Se  Se5  1  0.06668681  0.93331319  0.75000000  1
loop_
_geom_bond_atom_site_label_1
_geom_bond_atom_site_label_2
_geom_bond_distance
_geom_bond_site_symmetry_2
Ba0 Se4 3.271766 1_455
Ba0 Se4 3.271766 1_565
Ba0 Se2 3.350227 1_565
Ba0 Se2 3.350227 1_455
Ba0 Se0 3.350227 1_565
Ba0 Se0 3.350227 1_455
Ba0 Se3 3.644666 1_554
Ba0 Se1 3.644666 1_555
Ba1 Se5 3.271766 1_545
Ba1 Se5 3.271766 1_655
Ba1 Se3 3.350227 1_655
Ba1 Se3 3.350227 1_545
Ba1 Se1 3.350227 1_545
Ba1 Se1 3.350227 1_655
Ba1 Se0 3.644666 1_555
Ba1 Se2 3.644666 1_556
Er0 Se5 2.802400 1_545
Er0 Se4 2.802400 1_455
Er0 Se0 2.857402 1_555
Er0 Se1 2.857402 1_555
Er0 Se0 2.857402 1_445
Er0 Se1 2.857402 1_445
Er1 Se4 2.802400 1_455
Er1 Se5 2.802400 1_544
Er1 Se2 2.857402 1_555
Er1 Se3 2.857402 1_554
Er1 Se3 2.857402 1_444
Er1 Se2 2.857402 1_445
Cu0 Se0 2.449740 1_555
Cu0 Se2 2.449740 1_555
Cu0 Se4 2.502102 1_455
Cu0 Se4 2.502102 1_565
Cu1 Se1 2.449740 1_555
Cu1 Se3 2.449740 1_555
Cu1 Se5 2.502102 1_545
Cu1 Se5 2.502102 1_655
