# generated using pymatgen
data_MnGaPd2
_symmetry_space_group_name_H-M   'P 1'
_cell_length_a   3.33413800
_cell_length_b   3.33413800
_cell_length_c   5.48736400
_cell_angle_alpha   90.00000000
_cell_angle_beta   90.00000000
_cell_angle_gamma   90.00000000
_symmetry_Int_Tables_number   1
_chemical_formula_structural   MnGaPd2
_chemical_formula_sum   'Mn1 Ga1 Pd2'
_cell_volume   61.00015132
_cell_formula_units_Z   1
loop_
 _symmetry_equiv_pos_site_id
 _symmetry_equiv_pos_as_xyz
  1  'x, y, z'
loop_
 _atom_site_type_symbol
 _atom_site_label
 _atom_site_symmetry_multiplicity
 _atom_site_fract_x
 _atom_site_fract_y
 _atom_site_fract_z
 _atom_site_occupancy
  Mn  Mn0  1  0.50000000  0.50000000  0.26243200  1
  Ga  Ga0  1  0.00000000  0.00000000  0.98218800  1
  Pd  Pd0  1  0.00000000  0.00000000  0.47729800  1
  Pd  Pd1  1  0.50000000  0.50000000  0.77808300  1
loop_
_geom_bond_atom_site_label_1
_geom_bond_atom_site_label_2
_geom_bond_distance
_geom_bond_site_symmetry_2
Mn0 Pd0 2.635980 1_565
Mn0 Pd0 2.635980 1_655
Mn0 Pd0 2.635980 1_555
Mn0 Pd0 2.635980 1_665
Mn0 Pd1 2.657799 1_554
Mn0 Pd1 2.829565 1_555
Ga0 Pd1 2.610102 1_555
Ga0 Pd1 2.610102 1_545
Ga0 Pd1 2.610102 1_445
Ga0 Pd1 2.610102 1_455
Ga0 Pd0 2.716849 1_556
Ga0 Pd0 2.770515 1_555
Ga0 Mn0 2.814795 1_556
Ga0 Mn0 2.814795 1_456
Ga0 Mn0 2.814795 1_546
Ga0 Mn0 2.814795 1_446
