# generated using pymatgen
data_MgW2O5
_symmetry_space_group_name_H-M   'P 1'
_cell_length_a   3.22258400
_cell_length_b   5.23471386
_cell_length_c   12.54461107
_cell_angle_alpha   84.77366581
_cell_angle_beta   89.30338249
_cell_angle_gamma   89.44356245
_symmetry_Int_Tables_number   1
_chemical_formula_structural   MgW2O5
_chemical_formula_sum   'Mg2 W4 O10'
_cell_volume   210.71565293
_cell_formula_units_Z   2
loop_
 _symmetry_equiv_pos_site_id
 _symmetry_equiv_pos_as_xyz
  1  'x, y, z'
loop_
 _atom_site_type_symbol
 _atom_site_label
 _atom_site_symmetry_multiplicity
 _atom_site_fract_x
 _atom_site_fract_y
 _atom_site_fract_z
 _atom_site_occupancy
  Mg  Mg0  1  0.22820400  0.09732100  0.22357700  1
  Mg  Mg1  1  0.76471500  0.89556000  0.77731800  1
  W  W0  1  0.74232100  0.59766600  0.10396300  1
  W  W1  1  0.25591300  0.39814600  0.89630200  1
  W  W2  1  0.26061800  0.42412600  0.61222000  1
  W  W3  1  0.76420200  0.58470600  0.38914100  1
  O  O0  1  0.25180700  0.61803700  0.74254800  1
  O  O1  1  0.73303800  0.38213800  0.25744200  1
  O  O2  1  0.24996200  0.35078700  0.05816600  1
  O  O3  1  0.75311000  0.65715300  0.92369300  1
  O  O4  1  0.27235500  0.34788900  0.46247000  1
  O  O5  1  0.76006700  0.65277100  0.55615400  1
  O  O6  1  0.23364500  0.81079000  0.34855100  1
  O  O7  1  0.76550200  0.19789000  0.65666400  1
  O  O8  1  0.26088400  0.08465900  0.83666700  1
  O  O9  1  0.73360600  0.93148900  0.15921600  1
loop_
_geom_bond_atom_site_label_1
_geom_bond_atom_site_label_2
_geom_bond_distance
_geom_bond_site_symmetry_2
Mg0 O9 2.031342 1_545
Mg0 O9 2.032671 1_445
Mg0 O6 2.068728 1_545
Mg0 O1 2.236596 1_455
Mg0 O1 2.286783 1_555
Mg0 O2 2.359610 1_555
Mg1 O8 2.060099 1_565
Mg1 O8 2.069960 1_665
Mg1 O7 2.087849 1_565
Mg1 O3 2.124225 1_555
Mg1 O0 2.195264 1_655
Mg1 O0 2.283067 1_555
O0 W2 2.001191 1_555
O0 W1 2.154343 1_555
O1 W3 2.046763 1_555
O1 W0 2.141080 1_555
O2 W1 2.022939 1_554
O2 W0 2.171399 1_555
O2 W0 2.178937 1_455
O3 W1 2.147197 1_655
O3 W1 2.159635 1_555
O3 W0 2.254372 1_556
O4 W2 1.955562 1_555
O4 W3 2.165689 1_555
O4 W3 2.203188 1_455
O5 W2 2.089481 1_655
O5 W2 2.091480 1_555
O5 W3 2.156815 1_555
O6 W3 1.963362 1_455
O6 W3 2.110754 1_555
O7 W2 2.038120 1_655
O7 W2 2.055465 1_555
O8 W1 1.864319 1_555
O9 W0 1.937548 1_555
