# generated using pymatgen
data_MnTlOF4
_symmetry_space_group_name_H-M   'P 1'
_cell_length_a   7.79822892
_cell_length_b   7.79822892
_cell_length_c   10.10780062
_cell_angle_alpha   78.71234358
_cell_angle_beta   78.71234358
_cell_angle_gamma   51.84766572
_symmetry_Int_Tables_number   1
_chemical_formula_structural   MnTlOF4
_chemical_formula_sum   'Mn4 Tl4 O4 F16'
_cell_volume   471.77999804
_cell_formula_units_Z   4
loop_
 _symmetry_equiv_pos_site_id
 _symmetry_equiv_pos_as_xyz
  1  'x, y, z'
loop_
 _atom_site_type_symbol
 _atom_site_label
 _atom_site_symmetry_multiplicity
 _atom_site_fract_x
 _atom_site_fract_y
 _atom_site_fract_z
 _atom_site_occupancy
  Mn  Mn0  1  0.00000000  0.50000000  0.50000000  1
  Mn  Mn1  1  0.50000000  0.00000000  0.00000000  1
  Mn  Mn2  1  0.24556200  0.75443800  0.25000000  1
  Mn  Mn3  1  0.75443800  0.24556200  0.75000000  1
  Tl  Tl0  1  0.65977800  0.17185800  0.43085900  1
  Tl  Tl1  1  0.82814200  0.34022200  0.06914100  1
  Tl  Tl2  1  0.34022200  0.82814200  0.56914100  1
  Tl  Tl3  1  0.17185800  0.65977800  0.93085900  1
  O  O0  1  0.02915500  0.44196500  0.32855300  1
  O  O1  1  0.55803500  0.97084500  0.17144700  1
  O  O2  1  0.97084500  0.55803500  0.67144700  1
  O  O3  1  0.44196500  0.02915500  0.82855300  1
  F  F0  1  0.13908000  0.63491100  0.44006200  1
  F  F1  1  0.36508900  0.86092000  0.05993800  1
  F  F2  1  0.86092000  0.36508900  0.55993800  1
  F  F3  1  0.63491100  0.13908000  0.94006200  1
  F  F4  1  0.73185900  0.76803700  0.47160100  1
  F  F5  1  0.23196300  0.26814100  0.02839900  1
  F  F6  1  0.26814100  0.23196300  0.52839900  1
  F  F7  1  0.76803700  0.73185900  0.97160100  1
  F  F8  1  0.98883800  0.88554500  0.16998200  1
  F  F9  1  0.11445500  0.01116200  0.33001800  1
  F  F10  1  0.01116200  0.11445500  0.83001800  1
  F  F11  1  0.88554500  0.98883800  0.66998200  1
  F  F12  1  0.37726700  0.49653800  0.17132800  1
  F  F13  1  0.50346200  0.62273300  0.32867200  1
  F  F14  1  0.62273300  0.50346200  0.82867200  1
  F  F15  1  0.49653800  0.37726700  0.67132800  1
loop_
_geom_bond_atom_site_label_1
_geom_bond_atom_site_label_2
_geom_bond_distance
_geom_bond_site_symmetry_2
Mn0 O2 1.812537 1_455
Mn0 O0 1.812537 1_555
Mn1 O1 1.812537 1_545
Mn1 O3 1.812537 1_554
F0 Mn0 1.885001 1_555
F0 Mn2 2.209022 1_555
F1 Mn1 1.885001 1_565
F1 Mn2 2.209022 1_555
F2 Mn0 1.885001 1_655
F2 Mn3 2.209022 1_555
F3 Mn1 1.885001 1_556
F3 Mn3 2.209022 1_555
F4 Mn0 1.850363 1_655
F5 Mn1 1.850363 1_555
F6 Mn0 1.850363 1_555
F7 Mn1 1.850363 1_566
F8 Mn2 1.867811 1_655
F9 Mn2 1.867811 1_545
F10 Mn3 1.867811 1_455
F11 Mn3 1.867811 1_565
F12 Mn2 1.867155 1_555
F13 Mn2 1.867155 1_555
F14 Mn3 1.867155 1_555
F15 Mn3 1.867155 1_555
