# generated using pymatgen
data_LiNiPO4F
_symmetry_space_group_name_H-M   'P 1'
_cell_length_a   6.30507100
_cell_length_b   10.91885800
_cell_length_c   11.15345693
_cell_angle_alpha   89.76235974
_cell_angle_beta   90.00000000
_cell_angle_gamma   90.00000000
_symmetry_Int_Tables_number   1
_chemical_formula_structural   LiNiPO4F
_chemical_formula_sum   'Li8 Ni8 P8 O32 F8'
_cell_volume   767.84393573
_cell_formula_units_Z   8
loop_
 _symmetry_equiv_pos_site_id
 _symmetry_equiv_pos_as_xyz
  1  'x, y, z'
loop_
 _atom_site_type_symbol
 _atom_site_label
 _atom_site_symmetry_multiplicity
 _atom_site_fract_x
 _atom_site_fract_y
 _atom_site_fract_z
 _atom_site_occupancy
  Li  Li0  1  0.50000000  0.95626100  0.26739600  1
  Li  Li1  1  0.00000000  0.76385000  0.06978700  1
  Li  Li2  1  0.50000000  0.73747100  0.57922200  1
  Li  Li3  1  0.50000000  0.45221900  0.23412500  1
  Li  Li4  1  0.22845700  0.24192100  0.65964800  1
  Li  Li5  1  0.77154300  0.24192100  0.65964800  1
  Li  Li6  1  0.50000000  0.23355400  0.93498000  1
  Li  Li7  1  0.00000000  0.02810600  0.73301000  1
  Ni  Ni0  1  0.25052400  0.00041600  0.99934200  1
  Ni  Ni1  1  0.74947600  0.00041600  0.99934200  1
  Ni  Ni2  1  0.24934800  0.00225300  0.49991600  1
  Ni  Ni3  1  0.75065200  0.00225300  0.49991600  1
  Ni  Ni4  1  0.24560900  0.49668500  0.49972600  1
  Ni  Ni5  1  0.75439100  0.49668500  0.49972600  1
  Ni  Ni6  1  0.24656600  0.49963800  0.99628600  1
  Ni  Ni7  1  0.75343400  0.49963800  0.99628600  1
  P  P0  1  0.50000000  0.97600400  0.74188800  1
  P  P1  1  0.50000000  0.75832800  0.07265800  1
  P  P2  1  0.00000000  0.74155200  0.57488600  1
  P  P3  1  0.00000000  0.53146200  0.24245900  1
  P  P4  1  0.50000000  0.46374800  0.75153100  1
  P  P5  1  0.50000000  0.25629900  0.42956500  1
  P  P6  1  0.00000000  0.23824800  0.91859700  1
  P  P7  1  0.00000000  0.02874000  0.25443600  1
  O  O0  1  0.00000000  0.97916000  0.12388200  1
  O  O1  1  0.20174600  0.98492000  0.31987100  1
  O  O2  1  0.79825400  0.98492000  0.31987100  1
  O  O3  1  0.00000000  0.87993600  0.54237000  1
  O  O4  1  0.50000000  0.83623700  0.72982900  1
  O  O5  1  0.70502700  0.81849100  0.02392000  1
  O  O6  1  0.29497300  0.81849100  0.02392000  1
  O  O7  1  0.50000000  0.78299700  0.20932700  1
  O  O8  1  0.00000000  0.72422200  0.71323000  1
  O  O9  1  0.20452700  0.68116400  0.52878500  1
  O  O10  1  0.79547300  0.68116400  0.52878500  1
  O  O11  1  0.00000000  0.67300100  0.22969500  1
  O  O12  1  0.50000000  0.62104400  0.04098700  1
  O  O13  1  0.31250400  0.52153100  0.82243700  1
  O  O14  1  0.68749600  0.52153100  0.82243700  1
  O  O15  1  0.50000000  0.51614800  0.62245200  1
  O  O16  1  0.00000000  0.48994600  0.37468100  1
  O  O17  1  0.20171200  0.48460300  0.17830900  1
  O  O18  1  0.79828800  0.48460300  0.17830900  1
  O  O19  1  0.00000000  0.37530500  0.95731000  1
  O  O20  1  0.50000000  0.32305700  0.75213000  1
  O  O21  1  0.69509100  0.31366400  0.49359500  1
  O  O22  1  0.30490900  0.31366400  0.49359500  1
  O  O23  1  0.50000000  0.28418700  0.29605100  1
  O  O24  1  0.00000000  0.22355800  0.78072600  1
  O  O25  1  0.20405400  0.18045700  0.97177900  1
  O  O26  1  0.79594600  0.18045700  0.97177900  1
  O  O27  1  0.00000000  0.17059200  0.25995800  1
  O  O28  1  0.50000000  0.11741700  0.45892700  1
  O  O29  1  0.69987300  0.03249500  0.68118100  1
  O  O30  1  0.30012700  0.03249500  0.68118100  1
  O  O31  1  0.50000000  0.01890100  0.87594800  1
  F  F0  1  0.00000000  0.96386300  0.88923500  1
  F  F1  1  0.50000000  0.88628900  0.48176100  1
  F  F2  1  0.00000000  0.61397700  0.98602500  1
  F  F3  1  0.50000000  0.53056200  0.38996200  1
  F  F4  1  0.00000000  0.45148200  0.60816900  1
  F  F5  1  0.50000000  0.38599300  0.01567300  1
  F  F6  1  0.00000000  0.11778000  0.53480100  1
  F  F7  1  0.50000000  0.03443900  0.11038200  1
loop_
_geom_bond_atom_site_label_1
_geom_bond_atom_site_label_2
_geom_bond_distance
_geom_bond_site_symmetry_2
Li0 O2 1.994572 1_555
Li0 O1 1.994572 1_555
Li0 O7 2.002178 1_555
Li1 O6 2.018435 1_555
Li1 O5 2.018435 1_455
Li1 O11 2.037227 1_555
Li1 O0 2.429549 1_555
Li2 O4 1.999922 1_555
Li2 O9 2.041569 1_555
Li2 O10 2.041569 1_555
Li2 O15 2.462264 1_555
Li3 O23 1.957735 1_555
Li3 O17 2.011938 1_555
Li3 O18 2.011938 1_555
Li4 O24 1.984061 1_555
Li4 O22 2.064972 1_555
Li4 O20 2.188077 1_555
Li4 O30 2.342283 1_555
Li5 O24 1.984061 1_655
Li5 O21 2.064972 1_555
Li5 O20 2.188077 1_555
Li5 O29 2.342283 1_555
Li6 O25 1.996099 1_555
Li6 O26 1.996099 1_555
Li6 O20 2.257812 1_555
Li6 O31 2.437118 1_555
Li7 O30 1.979171 1_555
Li7 O29 1.979171 1_455
Li7 O24 2.201612 1_555
Ni0 O25 2.009945 1_555
Ni0 O6 2.023613 1_546
Ni0 O31 2.099230 1_555
Ni0 O0 2.115586 1_546
Ni1 O26 2.009945 1_555
Ni1 O5 2.023613 1_546
Ni1 O31 2.099230 1_555
Ni1 O0 2.115586 1_646
Ni2 O1 2.040003 1_545
Ni2 O28 2.069550 1_555
Ni2 O30 2.074724 1_555
Ni2 O3 2.115270 1_545
Ni3 O2 2.040003 1_545
Ni3 O28 2.069550 1_555
Ni3 O29 2.074724 1_555
Ni3 O3 2.115270 1_645
Ni4 O22 2.034485 1_555
Ni4 O9 2.057902 1_555
Ni4 O16 2.085549 1_555
Ni4 O15 2.119884 1_555
Ni5 O21 2.034485 1_555
Ni5 O10 2.057902 1_555
Ni5 O16 2.085549 1_655
Ni5 O15 2.119884 1_555
Ni6 O13 1.996479 1_555
Ni6 O17 2.055680 1_556
Ni6 O19 2.110382 1_555
Ni6 O12 2.136506 1_556
Ni7 O14 1.996479 1_555
Ni7 O18 2.055680 1_556
Ni7 O19 2.110382 1_655
Ni7 O12 2.136506 1_556
O0 P7 1.555608 1_565
O1 P7 1.541662 1_565
O2 P7 1.541662 1_665
O3 P2 1.552446 1_555
O4 P0 1.532567 1_555
O5 P1 1.547633 1_555
O6 P1 1.547633 1_555
O7 P1 1.549047 1_555
O8 P2 1.553794 1_555
O9 P2 1.537831 1_555
O10 P2 1.537831 1_655
O11 P3 1.551399 1_555
O12 P1 1.541469 1_555
O13 P4 1.557300 1_555
O14 P4 1.557300 1_555
O15 P4 1.546994 1_555
O16 P3 1.541031 1_555
O17 P3 1.547336 1_555
O18 P3 1.547336 1_655
O19 P6 1.559271 1_555
O20 P4 1.536172 1_555
O21 P5 1.555349 1_555
O22 P5 1.555349 1_555
O23 P5 1.518719 1_555
O24 P6 1.546743 1_555
O25 P6 1.549900 1_555
O26 P6 1.549900 1_655
O27 P7 1.550341 1_555
O28 P5 1.550064 1_555
O29 P0 1.556789 1_545
O30 P0 1.556789 1_545
O31 P0 1.568730 1_545
F0 Li7 1.875643 1_565
F0 Ni1 2.041218 1_465
F0 Ni0 2.041218 1_565
F1 Li2 1.951243 1_555
F1 Ni3 2.035675 1_565
F1 Ni2 2.035675 1_565
F1 Li0 2.506994 1_555
F2 Li1 1.887703 1_556
F2 Ni7 1.996841 1_455
F2 Ni6 1.996841 1_555
F3 Li3 1.940396 1_555
F3 Ni5 2.050492 1_555
F3 Ni4 2.050492 1_555
F4 Ni5 2.024768 1_455
F4 Ni4 2.024768 1_555
F5 Li6 1.895485 1_554
F5 Ni7 2.034120 1_554
F5 Ni6 2.034120 1_554
F6 Ni2 2.053856 1_555
F6 Ni3 2.053856 1_455
F6 Li7 2.414129 1_555
F6 Li5 2.422153 1_455
F6 Li4 2.422153 1_555
F7 Li0 1.945027 1_545
F7 Ni0 2.037123 1_554
F7 Ni1 2.037123 1_554
