# generated using pymatgen
data_GaMo4CS8
_symmetry_space_group_name_H-M   'P 1'
_cell_length_a   7.20383984
_cell_length_b   7.20383984
_cell_length_c   7.20383984
_cell_angle_alpha   60.00000000
_cell_angle_beta   60.00000000
_cell_angle_gamma   60.00000000
_symmetry_Int_Tables_number   1
_chemical_formula_structural   GaMo4CS8
_chemical_formula_sum   'Ga1 Mo4 C1 S8'
_cell_volume   264.34868119
_cell_formula_units_Z   1
loop_
 _symmetry_equiv_pos_site_id
 _symmetry_equiv_pos_as_xyz
  1  'x, y, z'
loop_
 _atom_site_type_symbol
 _atom_site_label
 _atom_site_symmetry_multiplicity
 _atom_site_fract_x
 _atom_site_fract_y
 _atom_site_fract_z
 _atom_site_occupancy
  Ga  Ga0  1  0.00000000  0.00000000  0.00000000  1
  Mo  Mo0  1  0.20829100  0.59723600  0.59723600  1
  Mo  Mo1  1  0.59723600  0.59723600  0.20829100  1
  Mo  Mo2  1  0.59723600  0.20829100  0.59723600  1
  Mo  Mo3  1  0.59723600  0.59723600  0.59723600  1
  C  C0  1  0.75000000  0.75000000  0.75000000  1
  S  S0  1  0.36997900  0.36997900  0.36997900  1
  S  S1  1  0.85652100  0.85652100  0.43043800  1
  S  S2  1  0.85652100  0.43043800  0.85652100  1
  S  S3  1  0.43043800  0.85652100  0.85652100  1
  S  S4  1  0.85652100  0.85652100  0.85652100  1
  S  S5  1  0.36997900  0.89006300  0.36997900  1
  S  S6  1  0.36997900  0.36997900  0.89006300  1
  S  S7  1  0.89006300  0.36997900  0.36997900  1
loop_
_geom_bond_atom_site_label_1
_geom_bond_atom_site_label_2
_geom_bond_distance
_geom_bond_site_symmetry_2
Ga0 S4 2.531792 1_444
Ga0 S2 2.531798 1_454
Ga0 S3 2.531798 1_544
Ga0 S1 2.531798 1_445
Mo0 S0 2.362934 1_555
Mo0 S6 2.362940 1_555
Mo0 S5 2.362940 1_555
Mo0 S1 2.724252 1_455
Mo0 S2 2.724252 1_455
Mo0 S4 2.724260 1_455
Mo1 S0 2.362934 1_555
Mo1 S7 2.362940 1_555
Mo1 S5 2.362940 1_555
Mo1 S2 2.724252 1_554
Mo1 S3 2.724252 1_554
Mo1 S4 2.724260 1_554
Mo2 S0 2.362934 1_555
Mo2 S6 2.362940 1_555
Mo2 S7 2.362940 1_555
Mo2 S3 2.724252 1_545
Mo2 S1 2.724252 1_545
Mo2 S4 2.724260 1_545
Mo3 S7 2.362935 1_555
Mo3 S5 2.362935 1_555
Mo3 S6 2.362935 1_555
Mo3 S1 2.724264 1_555
Mo3 S3 2.724264 1_555
Mo3 S2 2.724264 1_555
C0 S1 1.879635 1_555
C0 S3 1.879635 1_555
C0 S2 1.879635 1_555
C0 S4 1.879641 1_555
C0 Mo1 2.695627 1_556
C0 Mo2 2.695627 1_565
C0 Mo0 2.695627 1_655
C0 Mo3 2.695633 1_555
