# generated using pymatgen
data_La2CdPd2
_symmetry_space_group_name_H-M   'P 1'
_cell_length_a   7.89932906
_cell_length_b   7.89932906
_cell_length_c   3.96857199
_cell_angle_alpha   90.00000000
_cell_angle_beta   90.00000000
_cell_angle_gamma   90.00004599
_symmetry_Int_Tables_number   1
_chemical_formula_structural   La2CdPd2
_chemical_formula_sum   'La4 Cd2 Pd4'
_cell_volume   247.63650944
_cell_formula_units_Z   2
loop_
 _symmetry_equiv_pos_site_id
 _symmetry_equiv_pos_as_xyz
  1  'x, y, z'
loop_
 _atom_site_type_symbol
 _atom_site_label
 _atom_site_symmetry_multiplicity
 _atom_site_fract_x
 _atom_site_fract_y
 _atom_site_fract_z
 _atom_site_occupancy
  La  La0  1  0.67644726  0.17644826  0.50000000  1
  La  La1  1  0.32355174  0.82355274  0.50000000  1
  La  La2  1  0.17644726  0.32355274  0.50000000  1
  La  La3  1  0.82355374  0.67644626  0.50000000  1
  Cd  Cd0  1  0.00000000  -0.00000000  0.00000000  1
  Cd  Cd1  1  0.50000000  0.50000000  0.00000000  1
  Pd  Pd0  1  0.12676383  0.62676383  0.00000000  1
  Pd  Pd1  1  0.87323617  0.37323617  -0.00000000  1
  Pd  Pd2  1  0.62676283  0.87323717  0.00000000  1
  Pd  Pd3  1  0.37323717  0.12676283  -0.00000000  1
loop_
_geom_bond_atom_site_label_1
_geom_bond_atom_site_label_2
_geom_bond_distance
_geom_bond_site_symmetry_2
La0 Pd1 2.961470 1_556
La0 Pd1 2.961470 1_555
La0 Pd3 3.134997 1_555
La0 Pd3 3.134997 1_556
La0 Pd2 3.135002 1_545
La0 Pd2 3.135002 1_546
La1 Pd0 2.961470 1_555
La1 Pd0 2.961470 1_556
La1 Pd3 3.134997 1_566
La1 Pd3 3.134997 1_565
La1 Pd2 3.135002 1_556
La1 Pd2 3.135002 1_555
La2 Pd3 2.961484 1_556
La2 Pd3 2.961484 1_555
La2 Pd0 3.135001 1_555
La2 Pd0 3.135001 1_556
La2 Pd1 3.135001 1_456
La2 Pd1 3.135001 1_455
La3 Pd2 2.961492 1_556
La3 Pd2 2.961492 1_555
La3 Pd1 3.134994 1_555
La3 Pd1 3.134994 1_556
La3 Pd0 3.134994 1_655
La3 Pd0 3.134994 1_656
Cd0 Pd0 3.113723 1_545
Cd0 Pd1 3.113723 1_455
Cd0 Pd2 3.113726 1_445
Cd0 Pd3 3.113726 1_555
Cd0 La1 3.523130 1_544
Cd0 La1 3.523130 1_545
Cd0 La2 3.523134 1_554
Cd0 La2 3.523134 1_555
Cd0 La3 3.523136 1_445
Cd0 La3 3.523136 1_444
Cd0 La0 3.523139 1_454
Cd0 La0 3.523139 1_455
Cd1 Pd1 3.113723 1_555
Cd1 Pd0 3.113723 1_555
Cd1 Pd2 3.113726 1_555
Cd1 Pd3 3.113726 1_555
Cd1 La0 3.523130 1_555
Cd1 La0 3.523130 1_554
Cd1 La2 3.523134 1_555
Cd1 La2 3.523134 1_554
Cd1 La3 3.523136 1_554
Cd1 La3 3.523136 1_555
Cd1 La1 3.523139 1_555
Cd1 La1 3.523139 1_554
Pd0 Pd1 2.832242 1_455
Pd2 Pd3 2.832222 1_565
