# generated using pymatgen
data_Dy2N3
_symmetry_space_group_name_H-M   'P 1'
_cell_length_a   9.49786168
_cell_length_b   9.49786168
_cell_length_c   9.49786168
_cell_angle_alpha   109.47122063
_cell_angle_beta   109.47122063
_cell_angle_gamma   109.47122063
_symmetry_Int_Tables_number   1
_chemical_formula_structural   Dy2N3
_chemical_formula_sum   'Dy16 N24'
_cell_volume   659.56200785
_cell_formula_units_Z   8
loop_
 _symmetry_equiv_pos_site_id
 _symmetry_equiv_pos_as_xyz
  1  'x, y, z'
loop_
 _atom_site_type_symbol
 _atom_site_label
 _atom_site_symmetry_multiplicity
 _atom_site_fract_x
 _atom_site_fract_y
 _atom_site_fract_z
 _atom_site_occupancy
  Dy  Dy0  1  0.50000000  0.00000000  0.50000000  1
  Dy  Dy1  1  0.50000000  0.50000000  0.00000000  1
  Dy  Dy2  1  0.00000000  0.50000000  0.50000000  1
  Dy  Dy3  1  0.00000000  0.00000000  0.00000000  1
  Dy  Dy4  1  0.78028300  0.25000000  0.03028300  1
  Dy  Dy5  1  0.71971700  0.75000000  0.46971700  1
  Dy  Dy6  1  0.25000000  0.03028300  0.78028300  1
  Dy  Dy7  1  0.75000000  0.46971700  0.71971700  1
  Dy  Dy8  1  0.03028300  0.78028300  0.25000000  1
  Dy  Dy9  1  0.46971700  0.71971700  0.75000000  1
  Dy  Dy10  1  0.21971700  0.75000000  0.96971700  1
  Dy  Dy11  1  0.28028300  0.25000000  0.53028300  1
  Dy  Dy12  1  0.75000000  0.96971700  0.21971700  1
  Dy  Dy13  1  0.25000000  0.53028300  0.28028300  1
  Dy  Dy14  1  0.96971700  0.21971700  0.75000000  1
  Dy  Dy15  1  0.53028300  0.28028300  0.25000000  1
  N  N0  1  0.49003300  0.23014900  0.46266500  1
  N  N1  1  0.23251500  0.26985100  0.75988400  1
  N  N2  1  0.00996700  0.47263100  0.74011600  1
  N  N3  1  0.26748500  0.02736900  0.03733500  1
  N  N4  1  0.23014900  0.46266500  0.49003300  1
  N  N5  1  0.26985100  0.75988400  0.23251500  1
  N  N6  1  0.47263100  0.74011600  0.00996700  1
  N  N7  1  0.02736900  0.03733500  0.26748500  1
  N  N8  1  0.46266500  0.49003300  0.23014900  1
  N  N9  1  0.75988400  0.23251500  0.26985100  1
  N  N10  1  0.74011600  0.00996700  0.47263100  1
  N  N11  1  0.03733500  0.26748500  0.02736900  1
  N  N12  1  0.50996700  0.76985100  0.53733500  1
  N  N13  1  0.76748500  0.73014900  0.24011600  1
  N  N14  1  0.99003300  0.52736900  0.25988400  1
  N  N15  1  0.73251500  0.97263100  0.96266500  1
  N  N16  1  0.76985100  0.53733500  0.50996700  1
  N  N17  1  0.73014900  0.24011600  0.76748500  1
  N  N18  1  0.52736900  0.25988400  0.99003300  1
  N  N19  1  0.97263100  0.96266500  0.73251500  1
  N  N20  1  0.53733500  0.50996700  0.76985100  1
  N  N21  1  0.24011600  0.76748500  0.73014900  1
  N  N22  1  0.25988400  0.99003300  0.52736900  1
  N  N23  1  0.96266500  0.73251500  0.97263100  1
loop_
_geom_bond_atom_site_label_1
_geom_bond_atom_site_label_2
_geom_bond_distance
_geom_bond_site_symmetry_2
Dy0 N0 2.354845 1_555
Dy0 N12 2.354845 1_545
Dy0 N5 2.354850 1_545
Dy0 N17 2.354850 1_555
Dy0 N10 2.354850 1_555
Dy0 N22 2.354850 1_545
Dy1 N20 2.354845 1_554
Dy1 N8 2.354845 1_555
Dy1 N1 2.354850 1_554
Dy1 N6 2.354850 1_555
Dy1 N13 2.354850 1_555
Dy1 N18 2.354850 1_554
Dy2 N4 2.354845 1_555
Dy2 N16 2.354845 1_455
Dy2 N9 2.354850 1_455
Dy2 N21 2.354850 1_555
Dy2 N2 2.354850 1_555
Dy2 N14 2.354850 1_455
Dy3 N7 2.354852 1_555
Dy3 N11 2.354852 1_555
Dy3 N19 2.354852 1_444
Dy3 N3 2.354852 1_555
Dy3 N23 2.354852 1_444
Dy3 N15 2.354852 1_444
Dy4 N14 2.332258 1_555
Dy4 N15 2.332260 1_544
Dy4 N18 2.342498 1_554
Dy4 N17 2.342498 1_554
Dy4 N11 2.401418 1_655
Dy4 N9 2.401427 1_555
Dy5 N12 2.332253 1_555
Dy5 N13 2.332258 1_555
Dy5 N19 2.342500 1_555
Dy5 N16 2.342508 1_555
Dy5 N8 2.401424 1_555
Dy5 N10 2.401427 1_565
Dy6 N18 2.332258 1_555
Dy6 N19 2.332260 1_445
Dy6 N22 2.342498 1_545
Dy6 N21 2.342498 1_545
Dy6 N3 2.401418 1_556
Dy6 N1 2.401427 1_555
Dy7 N16 2.332253 1_555
Dy7 N17 2.332258 1_555
Dy7 N23 2.342500 1_555
Dy7 N20 2.342508 1_555
Dy7 N0 2.401424 1_555
Dy7 N2 2.401427 1_655
Dy8 N22 2.332258 1_555
Dy8 N23 2.332260 1_454
Dy8 N14 2.342498 1_455
Dy8 N13 2.342498 1_455
Dy8 N7 2.401418 1_565
Dy8 N5 2.401427 1_555
Dy9 N20 2.332253 1_555
Dy9 N21 2.332258 1_555
Dy9 N15 2.342500 1_555
Dy9 N12 2.342508 1_555
Dy9 N4 2.401424 1_555
Dy9 N6 2.401427 1_556
Dy10 N2 2.332258 1_555
Dy10 N3 2.332260 1_566
Dy10 N5 2.342498 1_556
Dy10 N6 2.342498 1_556
Dy10 N23 2.401418 1_455
Dy10 N21 2.401427 1_555
Dy11 N0 2.332253 1_555
Dy11 N1 2.332258 1_555
Dy11 N7 2.342500 1_555
Dy11 N4 2.342508 1_555
Dy11 N20 2.401424 1_555
Dy11 N22 2.401427 1_545
Dy12 N6 2.332258 1_555
Dy12 N7 2.332260 1_665
Dy12 N9 2.342498 1_565
Dy12 N10 2.342498 1_565
Dy12 N15 2.401418 1_554
Dy12 N13 2.401427 1_555
Dy13 N4 2.332253 1_555
Dy13 N5 2.332258 1_555
Dy13 N11 2.342500 1_555
Dy13 N8 2.342508 1_555
Dy13 N12 2.401424 1_555
Dy13 N14 2.401427 1_455
Dy14 N10 2.332258 1_555
Dy14 N11 2.332260 1_656
Dy14 N1 2.342498 1_655
Dy14 N2 2.342498 1_655
Dy14 N19 2.401418 1_545
Dy14 N17 2.401427 1_555
Dy15 N8 2.332253 1_555
Dy15 N9 2.332258 1_555
Dy15 N3 2.342500 1_555
Dy15 N0 2.342508 1_555
Dy15 N16 2.401424 1_555
Dy15 N18 2.401427 1_554
