# generated using pymatgen
data_CsPPbO4
_symmetry_space_group_name_H-M   'P 1'
_cell_length_a   5.80160800
_cell_length_b   9.16267500
_cell_length_c   10.08387500
_cell_angle_alpha   90.00000000
_cell_angle_beta   90.00000000
_cell_angle_gamma   90.00000000
_symmetry_Int_Tables_number   1
_chemical_formula_structural   CsPPbO4
_chemical_formula_sum   'Cs4 P4 Pb4 O16'
_cell_volume   536.04113391
_cell_formula_units_Z   4
loop_
 _symmetry_equiv_pos_site_id
 _symmetry_equiv_pos_as_xyz
  1  'x, y, z'
loop_
 _atom_site_type_symbol
 _atom_site_label
 _atom_site_symmetry_multiplicity
 _atom_site_fract_x
 _atom_site_fract_y
 _atom_site_fract_z
 _atom_site_occupancy
  Cs  Cs0  1  0.75000000  0.64797000  0.02296800  1
  Cs  Cs1  1  0.75000000  0.85203000  0.52296800  1
  Cs  Cs2  1  0.25000000  0.35203000  0.97703200  1
  Cs  Cs3  1  0.25000000  0.14797000  0.47703200  1
  P  P0  1  0.75000000  0.09064500  0.83503600  1
  P  P1  1  0.75000000  0.40935500  0.33503600  1
  P  P2  1  0.25000000  0.90935500  0.16496400  1
  P  P3  1  0.25000000  0.59064500  0.66496400  1
  Pb  Pb0  1  0.75000000  0.08759200  0.15721600  1
  Pb  Pb1  1  0.75000000  0.41240800  0.65721600  1
  Pb  Pb2  1  0.25000000  0.91240800  0.84278400  1
  Pb  Pb3  1  0.25000000  0.58759200  0.34278400  1
  O  O0  1  0.75000000  0.96540400  0.94211300  1
  O  O1  1  0.75000000  0.53459600  0.44211300  1
  O  O2  1  0.25000000  0.03459600  0.05788700  1
  O  O3  1  0.25000000  0.46540400  0.55788700  1
  O  O4  1  0.75000000  0.24212800  0.90336100  1
  O  O5  1  0.75000000  0.25787200  0.40336100  1
  O  O6  1  0.25000000  0.75787200  0.09663900  1
  O  O7  1  0.25000000  0.74212800  0.59663900  1
  O  O8  1  0.97046000  0.07193000  0.74652000  1
  O  O9  1  0.52954000  0.42807000  0.24652000  1
  O  O10  1  0.47046000  0.92807000  0.25348000  1
  O  O11  1  0.02954000  0.57193000  0.75348000  1
  O  O12  1  0.02954000  0.92807000  0.25348000  1
  O  O13  1  0.47046000  0.57193000  0.75348000  1
  O  O14  1  0.52954000  0.07193000  0.74652000  1
  O  O15  1  0.97046000  0.42807000  0.24652000  1
loop_
_geom_bond_atom_site_label_1
_geom_bond_atom_site_label_2
_geom_bond_distance
_geom_bond_site_symmetry_2
Cs0 O0 3.020662 1_554
Cs0 O6 3.159207 1_655
Cs0 O6 3.159207 1_555
Cs0 O13 3.240420 1_554
Cs0 O11 3.240420 1_654
Cs0 O15 3.282887 1_555
Cs0 O9 3.282887 1_555
Cs1 O1 3.020662 1_555
Cs1 O7 3.159207 1_655
Cs1 O7 3.159207 1_555
Cs1 O12 3.240420 1_655
Cs1 O10 3.240420 1_555
Cs1 O8 3.282887 1_565
Cs1 O14 3.282887 1_565
Cs2 O2 3.020662 1_556
Cs2 O4 3.159207 1_455
Cs2 O4 3.159207 1_555
Cs2 O9 3.240420 1_556
Cs2 O15 3.240420 1_456
Cs2 O11 3.282887 1_555
Cs2 O13 3.282887 1_555
Cs3 O3 3.020662 1_555
Cs3 O5 3.159207 1_555
Cs3 O5 3.159207 1_455
Cs3 O14 3.240420 1_555
Cs3 O8 3.240420 1_455
Cs3 O12 3.282887 1_545
Cs3 O10 3.282887 1_545
O0 P0 1.575664 1_565
O0 Pb0 2.440964 1_566
O1 P1 1.575664 1_555
O1 Pb1 2.440964 1_555
O2 P2 1.575664 1_545
O2 Pb2 2.440964 1_544
O3 P3 1.575664 1_555
O3 Pb3 2.440964 1_555
O4 P0 1.549584 1_555
O5 P1 1.549584 1_555
O6 P2 1.549584 1_555
O7 P3 1.549584 1_555
O8 P0 1.569079 1_555
O8 Pb2 2.389326 1_645
O9 P1 1.569079 1_555
O9 Pb3 2.389326 1_555
O10 P2 1.569079 1_555
O10 Pb0 2.389326 1_565
O11 P3 1.569079 1_555
O11 Pb1 2.389326 1_455
O12 P2 1.569079 1_555
O12 Pb0 2.389326 1_465
O13 P3 1.569079 1_555
O13 Pb1 2.389326 1_555
O14 P0 1.569079 1_555
O14 Pb2 2.389326 1_545
O15 P1 1.569079 1_555
O15 Pb3 2.389326 1_655
