# generated using pymatgen
data_BaEu(CoO3)4
_symmetry_space_group_name_H-M   'P 1'
_cell_length_a   5.39485006
_cell_length_b   5.39485006
_cell_length_c   7.65427481
_cell_angle_alpha   90.00000000
_cell_angle_beta   90.00000000
_cell_angle_gamma   90.00000000
_symmetry_Int_Tables_number   1
_chemical_formula_structural   BaEu(CoO3)4
_chemical_formula_sum   'Ba1 Eu1 Co4 O12'
_cell_volume   222.77313066
_cell_formula_units_Z   1
loop_
 _symmetry_equiv_pos_site_id
 _symmetry_equiv_pos_as_xyz
  1  'x, y, z'
loop_
 _atom_site_type_symbol
 _atom_site_label
 _atom_site_symmetry_multiplicity
 _atom_site_fract_x
 _atom_site_fract_y
 _atom_site_fract_z
 _atom_site_occupancy
  Ba  Ba0  1  0.50000000  0.50000000  0.00000000  1
  Eu  Eu0  1  -0.00000000  -0.00000000  0.50000000  1
  Co  Co0  1  -0.00000000  0.50000000  0.75218889  1
  Co  Co1  1  -0.00000000  0.50000000  0.24781111  1
  Co  Co2  1  0.50000000  -0.00000000  0.24781111  1
  Co  Co3  1  0.50000000  -0.00000000  0.75218889  1
  O  O0  1  0.23850698  0.23850698  0.27087852  1
  O  O1  1  0.23850698  0.23850698  0.72912148  1
  O  O2  1  0.76149302  0.76149302  0.27087852  1
  O  O3  1  0.76149302  0.76149302  0.72912148  1
  O  O4  1  0.76149302  0.23850698  0.72912148  1
  O  O5  1  0.76149302  0.23850698  0.27087852  1
  O  O6  1  0.23850698  0.76149302  0.72912148  1
  O  O7  1  0.23850698  0.76149302  0.27087852  1
  O  O8  1  -0.00000000  0.50000000  0.50000000  1
  O  O9  1  -0.00000000  0.50000000  0.00000000  1
  O  O10  1  0.50000000  -0.00000000  0.50000000  1
  O  O11  1  0.50000000  -0.00000000  0.00000000  1
loop_
_geom_bond_atom_site_label_1
_geom_bond_atom_site_label_2
_geom_bond_distance
_geom_bond_site_symmetry_2
Ba0 O11 2.697425 1_555
Ba0 O11 2.697425 1_565
Ba0 O9 2.697425 1_555
Ba0 O9 2.697425 1_655
Ba0 O1 2.877349 1_554
Ba0 O3 2.877349 1_554
Ba0 O4 2.877349 1_554
Ba0 O6 2.877349 1_554
Ba0 O7 2.877349 1_555
Ba0 O0 2.877349 1_555
Ba0 O5 2.877349 1_555
Ba0 O2 2.877349 1_555
Eu0 O3 2.527234 1_445
Eu0 O1 2.527234 1_555
Eu0 O0 2.527234 1_555
Eu0 O6 2.527234 1_545
Eu0 O5 2.527234 1_455
Eu0 O7 2.527234 1_545
Eu0 O2 2.527234 1_445
Eu0 O4 2.527234 1_455
Eu0 O8 2.697425 1_555
Eu0 O10 2.697425 1_455
Eu0 O10 2.697425 1_555
Eu0 O8 2.697425 1_545
Co0 O9 1.896814 1_556
Co0 O6 1.917528 1_555
Co0 O3 1.917528 1_455
Co0 O4 1.917528 1_455
Co0 O1 1.917528 1_555
Co0 O8 1.930323 1_555
Co1 O9 1.896814 1_555
Co1 O5 1.917528 1_455
Co1 O7 1.917528 1_555
Co1 O0 1.917528 1_555
Co1 O2 1.917528 1_455
Co1 O8 1.930323 1_555
Co2 O11 1.896814 1_555
Co2 O0 1.917528 1_555
Co2 O5 1.917528 1_555
Co2 O7 1.917528 1_545
Co2 O2 1.917528 1_545
Co2 O10 1.930323 1_555
Co3 O11 1.896814 1_556
Co3 O4 1.917528 1_555
Co3 O6 1.917528 1_545
Co3 O3 1.917528 1_545
Co3 O1 1.917528 1_555
Co3 O10 1.930323 1_555
