# generated using pymatgen
data_MgMn8O13F3
_symmetry_space_group_name_H-M   'P 1'
_cell_length_a   6.76963943
_cell_length_b   5.62167451
_cell_length_c   7.22142920
_cell_angle_alpha   83.42966701
_cell_angle_beta   93.85376444
_cell_angle_gamma   89.90773000
_symmetry_Int_Tables_number   1
_chemical_formula_structural   MgMn8O13F3
_chemical_formula_sum   'Mg1 Mn8 O13 F3'
_cell_volume   272.38949783
_cell_formula_units_Z   1
loop_
 _symmetry_equiv_pos_site_id
 _symmetry_equiv_pos_as_xyz
  1  'x, y, z'
loop_
 _atom_site_type_symbol
 _atom_site_label
 _atom_site_symmetry_multiplicity
 _atom_site_fract_x
 _atom_site_fract_y
 _atom_site_fract_z
 _atom_site_occupancy
  Mg  Mg0  1  0.56314300  0.98448100  0.98268600  1
  Mn  Mn0  1  0.36189900  0.36950300  0.12633900  1
  Mn  Mn1  1  0.13645300  0.69252400  0.38482600  1
  Mn  Mn2  1  0.90758600  0.18919800  0.14798500  1
  Mn  Mn3  1  0.37719300  0.13133100  0.62211600  1
  Mn  Mn4  1  0.11562300  0.83663000  0.87670300  1
  Mn  Mn5  1  0.64824300  0.88481100  0.41145700  1
  Mn  Mn6  1  0.60786500  0.57466500  0.84172900  1
  Mn  Mn7  1  0.88818900  0.35036000  0.63907300  1
  O  O0  1  0.16696500  0.11853600  0.08600700  1
  O  O1  1  0.15828300  0.61830300  0.10795500  1
  O  O2  1  0.56046500  0.61129700  0.09327500  1
  O  O3  1  0.07592800  0.60826900  0.64556100  1
  O  O4  1  0.36524100  0.91401900  0.43271400  1
  O  O5  1  0.09409300  0.10280600  0.67734500  1
  O  O6  1  0.61473000  0.14169500  0.20055200  1
  O  O7  1  0.39949900  0.83808300  0.79803400  1
  O  O8  1  0.66251400  0.12067600  0.59407400  1
  O  O9  1  0.91056800  0.89878700  0.32528500  1
  O  O10  1  0.43488100  0.31141900  0.84315700  1
  O  O11  1  0.67722200  0.59546700  0.58995100  1
  O  O12  1  0.82628700  0.35277700  0.89460800  1
  F  F0  1  0.33297900  0.40552100  0.42274400  1
  F  F1  1  0.93114400  0.39418900  0.36988200  1
  F  F2  1  0.81300800  0.84750700  0.90594300  1
loop_
_geom_bond_atom_site_label_1
_geom_bond_atom_site_label_2
_geom_bond_distance
_geom_bond_site_symmetry_2
Mg0 O6 1.903603 1_566
Mg0 O7 1.933438 1_555
Mg0 O10 2.144914 1_565
Mg0 O2 2.158246 1_556
Mn0 O2 1.919988 1_555
Mn0 O1 1.949516 1_555
Mn0 O0 1.965996 1_555
Mn0 O6 2.137609 1_555
Mn0 O10 2.195623 1_554
Mn1 O9 1.912997 1_455
Mn1 O3 1.959005 1_555
Mn1 O4 2.025246 1_555
Mn1 O1 2.103327 1_555
Mn2 O0 1.893513 1_655
Mn2 O9 1.955290 1_545
Mn2 O12 1.993603 1_554
Mn2 O6 2.055604 1_555
Mn3 O4 1.933279 1_545
Mn3 O8 1.957127 1_555
Mn3 O7 1.961762 1_545
Mn3 O5 1.986654 1_555
Mn3 O10 2.003175 1_555
Mn4 O5 1.952183 1_565
Mn4 O1 1.960509 1_556
Mn4 O7 2.040006 1_555
Mn4 O3 2.222076 1_555
Mn4 O0 2.322977 1_566
Mn5 O9 1.919595 1_555
Mn5 O4 1.940408 1_555
Mn5 O11 1.957282 1_555
Mn5 O8 1.972323 1_565
Mn5 O6 1.976297 1_565
Mn6 O10 1.888175 1_555
Mn6 O11 1.899010 1_555
Mn6 O2 1.899703 1_556
Mn6 O12 1.922838 1_555
Mn6 O7 2.026988 1_555
Mn7 O12 1.921117 1_555
Mn7 O3 1.932117 1_655
Mn7 O5 1.951927 1_655
Mn7 O11 1.969226 1_555
Mn7 O8 2.035299 1_555
F0 Mn3 1.992769 1_555
F0 Mn1 2.071513 1_555
F0 Mn0 2.194610 1_555
F1 Mn7 1.972509 1_555
F1 Mn2 2.076054 1_555
F1 Mn1 2.187453 1_655
F2 Mg0 1.995168 1_555
F2 Mn4 2.075033 1_655
F2 Mn6 2.139939 1_555
