# generated using pymatgen
data_Cd2As2O7
_symmetry_space_group_name_H-M   'P 1'
_cell_length_a   5.74463994
_cell_length_b   5.74463994
_cell_length_c   4.88641967
_cell_angle_alpha   82.90727010
_cell_angle_beta   82.90727010
_cell_angle_gamma   104.84424584
_symmetry_Int_Tables_number   1
_chemical_formula_structural   Cd2As2O7
_chemical_formula_sum   'Cd2 As2 O7'
_cell_volume   152.64592527
_cell_formula_units_Z   1
loop_
 _symmetry_equiv_pos_site_id
 _symmetry_equiv_pos_as_xyz
  1  'x, y, z'
loop_
 _atom_site_type_symbol
 _atom_site_label
 _atom_site_symmetry_multiplicity
 _atom_site_fract_x
 _atom_site_fract_y
 _atom_site_fract_z
 _atom_site_occupancy
  Cd  Cd0  1  0.30418747  0.69581253  0.50000000  1
  Cd  Cd1  1  0.69581253  0.30418747  0.50000000  1
  As  As0  1  0.22710164  0.22710164  0.09037106  1
  As  As1  1  0.77289836  0.77289836  0.90962894  1
  O  O0  1  0.91910219  0.60980787  0.72338547  1
  O  O1  1  0.39019213  0.08089781  0.27661453  1
  O  O2  1  0.08089781  0.39019213  0.27661453  1
  O  O3  1  0.60980787  0.91910219  0.72338547  1
  O  O4  1  -0.00000000  -0.00000000  -0.00000000  1
  O  O5  1  0.61403601  0.61403601  0.21691395  1
  O  O6  1  0.38596399  0.38596399  0.78308605  1
loop_
_geom_bond_atom_site_label_1
_geom_bond_atom_site_label_2
_geom_bond_distance
_geom_bond_site_symmetry_2
Cd0 O1 2.244951 1_565
Cd0 O0 2.244951 1_455
Cd0 O5 2.298547 1_555
Cd0 O6 2.298547 1_555
Cd0 O2 2.363131 1_555
Cd0 O3 2.363131 1_555
Cd1 O3 2.244951 1_545
Cd1 O2 2.244951 1_655
Cd1 O5 2.298547 1_555
Cd1 O6 2.298547 1_555
Cd1 O1 2.363131 1_555
Cd1 O0 2.363131 1_555
As0 O6 1.678315 1_554
As0 O2 1.684160 1_555
As0 O1 1.684160 1_555
As0 O4 1.735368 1_555
As1 O5 1.678315 1_556
As1 O3 1.684160 1_555
As1 O0 1.684160 1_555
As1 O4 1.735368 1_666
