# generated using pymatgen
data_Ba2InS4
_symmetry_space_group_name_H-M   'P 1'
_cell_length_a   6.31451728
_cell_length_b   10.15252747
_cell_length_c   13.15436476
_cell_angle_alpha   104.21037222
_cell_angle_beta   90.42755279
_cell_angle_gamma   91.01003372
_symmetry_Int_Tables_number   1
_chemical_formula_structural   Ba2InS4
_chemical_formula_sum   'Ba8 In4 S16'
_cell_volume   817.31228449
_cell_formula_units_Z   4
loop_
 _symmetry_equiv_pos_site_id
 _symmetry_equiv_pos_as_xyz
  1  'x, y, z'
loop_
 _atom_site_type_symbol
 _atom_site_label
 _atom_site_symmetry_multiplicity
 _atom_site_fract_x
 _atom_site_fract_y
 _atom_site_fract_z
 _atom_site_occupancy
  Ba  Ba0  1  0.74608567  0.37842343  0.52301310  1
  Ba  Ba1  1  0.25391433  0.62157657  0.47698690  1
  Ba  Ba2  1  0.76191635  0.92143878  0.61859926  1
  Ba  Ba3  1  0.23808365  0.07856122  0.38140074  1
  Ba  Ba4  1  0.25896767  0.89295556  0.84978707  1
  Ba  Ba5  1  0.74103233  0.10704444  0.15021293  1
  Ba  Ba6  1  0.74404741  0.57442686  0.89246809  1
  Ba  Ba7  1  0.25595259  0.42557314  0.10753191  1
  In  In0  1  0.67834725  0.79279727  0.30303882  1
  In  In1  1  0.32165275  0.20720273  0.69696118  1
  In  In2  1  0.83262726  0.19671069  0.88808355  1
  In  In3  1  0.16737274  0.80328931  0.11191645  1
  S  S0  1  0.58580146  0.65268404  0.68645672  1
  S  S1  1  0.41419854  0.34731596  0.31354328  1
  S  S2  1  0.91817855  0.65163003  0.68729576  1
  S  S3  1  0.08182145  0.34836997  0.31270424  1
  S  S4  1  0.76022607  0.66483072  0.42902149  1
  S  S5  1  0.23977393  0.33516928  0.57097851  1
  S  S6  1  0.26364354  0.96030410  0.60808671  1
  S  S7  1  0.73635646  0.03969590  0.39191329  1
  S  S8  1  0.71768696  0.25607688  0.72388255  1
  S  S9  1  0.28231304  0.74392312  0.27611745  1
  S  S10  1  0.24731445  0.63280962  0.95250318  1
  S  S11  1  0.75268555  0.36719038  0.04749682  1
  S  S12  1  0.75597797  0.96156542  0.88596570  1
  S  S13  1  0.24402203  0.03843458  0.11403430  1
  S  S14  1  0.77189035  0.78000977  0.12043736  1
  S  S15  1  0.22810965  0.21999023  0.87956264  1
loop_
_geom_bond_atom_site_label_1
_geom_bond_atom_site_label_2
_geom_bond_distance
_geom_bond_site_symmetry_2
Ba0 S8 3.188644 1_555
Ba0 S2 3.234245 1_555
Ba0 S5 3.234825 1_655
Ba0 S0 3.254630 1_555
Ba0 S5 3.305923 1_555
Ba0 S1 3.398151 1_555
Ba0 S4 3.427726 1_555
Ba0 S7 3.447226 1_555
Ba0 S3 3.454975 1_655
Ba1 S9 3.188644 1_555
Ba1 S3 3.234245 1_555
Ba1 S4 3.234825 1_455
Ba1 S1 3.254630 1_555
Ba1 S4 3.305923 1_555
Ba1 S0 3.398151 1_555
Ba1 S5 3.427726 1_555
Ba1 S6 3.447226 1_555
Ba1 S2 3.454975 1_455
Ba2 S4 3.132906 1_555
Ba2 S6 3.184088 1_555
Ba2 S6 3.193954 1_655
Ba2 S0 3.253005 1_555
Ba2 S2 3.254373 1_555
Ba2 S8 3.356733 1_565
Ba2 S12 3.440344 1_555
Ba2 S7 3.480899 1_565
Ba3 S5 3.132906 1_555
Ba3 S7 3.184088 1_555
Ba3 S7 3.193954 1_455
Ba3 S1 3.253005 1_555
Ba3 S3 3.254373 1_555
Ba3 S9 3.356733 1_545
Ba3 S13 3.440344 1_555
Ba3 S6 3.480899 1_545
Ba4 S12 3.209206 1_555
Ba4 S10 3.248596 1_555
Ba4 S15 3.255881 1_565
Ba4 S12 3.276788 1_455
Ba4 S6 3.412492 1_555
Ba4 S13 3.429604 1_566
Ba4 S2 3.518049 1_455
Ba4 S0 3.535018 1_555
Ba5 S13 3.209206 1_555
Ba5 S11 3.248596 1_555
Ba5 S14 3.255881 1_545
Ba5 S13 3.276788 1_655
Ba5 S7 3.412492 1_555
Ba5 S12 3.429604 1_544
Ba5 S3 3.518049 1_655
Ba5 S1 3.535018 1_555
Ba6 S0 3.165157 1_555
Ba6 S2 3.187476 1_555
Ba6 S14 3.207215 1_556
Ba6 S10 3.268965 1_555
Ba6 S11 3.270686 1_556
Ba6 S10 3.277238 1_655
Ba6 S8 3.442139 1_555
Ba7 S1 3.165157 1_555
Ba7 S3 3.187476 1_555
Ba7 S15 3.207215 1_554
Ba7 S11 3.268965 1_555
Ba7 S10 3.270686 1_554
Ba7 S11 3.277238 1_455
Ba7 S9 3.442139 1_555
In0 S4 2.401987 1_555
In0 S14 2.450748 1_555
In0 S7 2.511310 1_565
In0 S9 2.546018 1_555
In1 S5 2.401987 1_555
In1 S15 2.450748 1_555
In1 S6 2.511310 1_545
In1 S8 2.546018 1_555
In2 S12 2.420896 1_545
In2 S11 2.431558 1_556
In2 S8 2.487299 1_555
In2 S15 2.510221 1_655
In3 S13 2.420896 1_565
In3 S10 2.431558 1_554
In3 S9 2.487299 1_555
In3 S14 2.510221 1_455
S0 S2 2.098977 1_555
S1 S3 2.098977 1_555
