# generated using pymatgen
data_Y5Be6Fe3(SiO5)6
_symmetry_space_group_name_H-M   'P 1'
_cell_length_a   7.63242600
_cell_length_b   10.08172904
_cell_length_c   14.19003061
_cell_angle_alpha   90.10081034
_cell_angle_beta   90.04633721
_cell_angle_gamma   90.00522280
_symmetry_Int_Tables_number   1
_chemical_formula_structural   Y5Be6Fe3(SiO5)6
_chemical_formula_sum   'Y10 Be12 Fe6 Si12 O60'
_cell_volume   1091.89314502
_cell_formula_units_Z   2
loop_
 _symmetry_equiv_pos_site_id
 _symmetry_equiv_pos_as_xyz
  1  'x, y, z'
loop_
 _atom_site_type_symbol
 _atom_site_label
 _atom_site_symmetry_multiplicity
 _atom_site_fract_x
 _atom_site_fract_y
 _atom_site_fract_z
 _atom_site_occupancy
  Y  Y0  1  0.39950200  0.16430600  0.66736400  1
  Y  Y1  1  0.40021300  0.16706000  0.33361300  1
  Y  Y2  1  0.38734000  0.17292200  0.99616900  1
  Y  Y3  1  0.89371100  0.32884600  0.67102500  1
  Y  Y4  1  0.89496300  0.33084800  0.33110900  1
  Y  Y5  1  0.60461400  0.83095100  0.99533800  1
  Y  Y6  1  0.60368200  0.82896700  0.33744400  1
  Y  Y7  1  0.10971800  0.67166300  0.66920700  1
  Y  Y8  1  0.10478800  0.66988100  0.33257000  1
  Y  Y9  1  0.09861500  0.66226300  0.99646200  1
  Be  Be0  1  0.08183400  0.16420800  0.84839200  1
  Be  Be1  1  0.08441200  0.16054900  0.51397300  1
  Be  Be2  1  0.08998600  0.16120200  0.17836400  1
  Be  Be3  1  0.58441700  0.33897200  0.81920000  1
  Be  Be4  1  0.59186700  0.33905100  0.48628300  1
  Be  Be5  1  0.58508400  0.33752700  0.15143800  1
  Be  Be6  1  0.90777000  0.83793500  0.81888800  1
  Be  Be7  1  0.91690400  0.83979400  0.48763800  1
  Be  Be8  1  0.91176700  0.83819100  0.15156300  1
  Be  Be9  1  0.41064800  0.65987400  0.84530200  1
  Be  Be10  1  0.41337300  0.66423700  0.51690200  1
  Be  Be11  1  0.41818500  0.66189600  0.17989200  1
  Fe  Fe0  1  0.99527600  0.00958900  0.99653200  1
  Fe  Fe1  1  0.98272700  0.99488100  0.67164300  1
  Fe  Fe2  1  0.99966300  0.00035500  0.33251200  1
  Fe  Fe3  1  0.51491200  0.49723500  0.99941600  1
  Fe  Fe4  1  0.50635000  0.50879000  0.66838200  1
  Fe  Fe5  1  0.50254200  0.50109200  0.33350400  1
  Si  Si0  1  0.22858900  0.41710300  0.82720200  1
  Si  Si1  1  0.22071900  0.42062500  0.49383700  1
  Si  Si2  1  0.22092900  0.42453300  0.16052400  1
  Si  Si3  1  0.72561000  0.07996700  0.83987100  1
  Si  Si4  1  0.71876400  0.08276000  0.50580200  1
  Si  Si5  1  0.71655700  0.07869500  0.17226400  1
  Si  Si6  1  0.78834400  0.58078000  0.83969700  1
  Si  Si7  1  0.77559300  0.58030000  0.50816700  1
  Si  Si8  1  0.77810300  0.57762600  0.17092400  1
  Si  Si9  1  0.27994400  0.92300200  0.82725600  1
  Si  Si10  1  0.27633500  0.91991300  0.49559800  1
  Si  Si11  1  0.27517000  0.91836600  0.15931700  1
  O  O0  1  0.39833300  0.36633200  0.75886400  1
  O  O1  1  0.39471600  0.36279200  0.43226100  1
  O  O2  1  0.38921400  0.36592100  0.09961900  1
  O  O3  1  0.89617500  0.13436000  0.90120300  1
  O  O4  1  0.89244700  0.13514600  0.56707000  1
  O  O5  1  0.89311100  0.13626200  0.23218200  1
  O  O6  1  0.60728100  0.63510200  0.89721800  1
  O  O7  1  0.60090500  0.62905000  0.56516400  1
  O  O8  1  0.60943200  0.63782600  0.23792100  1
  O  O9  1  0.10810500  0.86449900  0.76742500  1
  O  O10  1  0.10623300  0.86913500  0.42513100  1
  O  O11  1  0.10386100  0.85822000  0.10090900  1
  O  O12  1  0.54899400  0.34124300  0.92760700  1
  O  O13  1  0.59427500  0.34228600  0.59731200  1
  O  O14  1  0.58414400  0.34034900  0.26683900  1
  O  O15  1  0.07274000  0.15866600  0.73388500  1
  O  O16  1  0.08095200  0.16143100  0.39981800  1
  O  O17  1  0.11657900  0.13850200  0.07236500  1
  O  O18  1  0.38365300  0.64317000  0.73608700  1
  O  O19  1  0.41718800  0.65911600  0.40158100  1
  O  O20  1  0.42934000  0.65977100  0.06884800  1
  O  O21  1  0.79875200  0.96079000  0.77037600  1
  O  O22  1  0.79411800  0.96025400  0.43645500  1
  O  O23  1  0.79394300  0.96005900  0.10297500  1
  O  O24  1  0.40776100  0.99287600  0.75394400  1
  O  O25  1  0.41393300  0.96922600  0.41313000  1
  O  O26  1  0.41916200  0.96382600  0.08308400  1
  O  O27  1  0.92040200  0.53667600  0.92047200  1
  O  O28  1  0.91590400  0.52625900  0.58424100  1
  O  O29  1  0.91180700  0.53115100  0.25521500  1
  O  O30  1  0.18399800  0.28761800  0.89076400  1
  O  O31  1  0.14929600  0.29969900  0.55948100  1
  O  O32  1  0.15443100  0.29980300  0.22830000  1
  O  O33  1  0.08428500  0.46293700  0.74897700  1
  O  O34  1  0.08753500  0.47067200  0.41077300  1
  O  O35  1  0.08837100  0.49661000  0.09222200  1
  O  O36  1  0.29471600  0.53976000  0.89893800  1
  O  O37  1  0.29150400  0.53917000  0.56277200  1
  O  O38  1  0.30236100  0.53872700  0.23631500  1
  O  O39  1  0.58604300  0.03063700  0.91980400  1
  O  O40  1  0.56994200  0.04530500  0.57851800  1
  O  O41  1  0.59028400  0.02449100  0.25735500  1
  O  O42  1  0.70689400  0.46132500  0.76935700  1
  O  O43  1  0.70837200  0.46062000  0.43259900  1
  O  O44  1  0.69603400  0.45960100  0.10632900  1
  O  O45  1  0.19902300  0.03480800  0.90166200  1
  O  O46  1  0.20718600  0.04587500  0.56004600  1
  O  O47  1  0.20678700  0.03700400  0.23555700  1
  O  O48  1  0.35023600  0.79974200  0.89356500  1
  O  O49  1  0.32310700  0.79270600  0.55762900  1
  O  O50  1  0.34158100  0.79687800  0.23006200  1
  O  O51  1  0.86390800  0.69732200  0.77206600  1
  O  O52  1  0.84425600  0.70217300  0.43873700  1
  O  O53  1  0.83529100  0.70353200  0.10522000  1
  O  O54  1  0.66294500  0.20412400  0.77166800  1
  O  O55  1  0.66586800  0.20454900  0.43185200  1
  O  O56  1  0.62830200  0.19408600  0.11106100  1
  O  O57  1  0.90649800  0.84364400  0.93327600  1
  O  O58  1  0.95447500  0.84157900  0.59412200  1
  O  O59  1  0.91348900  0.84036100  0.26543400  1
loop_
_geom_bond_atom_site_label_1
_geom_bond_atom_site_label_2
_geom_bond_distance
_geom_bond_site_symmetry_2
Be0 O30 1.585550 1_555
Be0 O15 1.627145 1_555
Be0 O3 1.631729 1_455
Be0 O45 1.753828 1_555
Be1 O16 1.620097 1_555
Be1 O31 1.620639 1_555
Be1 O46 1.626030 1_555
Be1 O4 1.668041 1_455
Be2 O17 1.534688 1_555
Be2 O32 1.640860 1_555
Be2 O5 1.704934 1_455
Be2 O47 1.738912 1_555
Be3 O12 1.562221 1_555
Be3 O54 1.630943 1_555
Be3 O0 1.680839 1_555
Be3 O42 1.702823 1_555
Be4 O13 1.575877 1_555
Be4 O55 1.658766 1_555
Be4 O43 1.696276 1_555
Be4 O1 1.705290 1_555
Be5 O56 1.589295 1_555
Be5 O44 1.626330 1_555
Be5 O14 1.637762 1_555
Be5 O2 1.690144 1_555
Be6 O51 1.599812 1_555
Be6 O57 1.624125 1_555
Be6 O21 1.643955 1_555
Be6 O9 1.716215 1_655
Be7 O58 1.537827 1_555
Be7 O52 1.646160 1_555
Be7 O22 1.697893 1_555
Be7 O10 1.722001 1_655
Be8 O59 1.615985 1_555
Be8 O53 1.616264 1_555
Be8 O11 1.645952 1_655
Be8 O23 1.672067 1_555
Be9 O18 1.571986 1_555
Be9 O48 1.633179 1_555
Be9 O36 1.683083 1_555
Be9 O6 1.690081 1_555
Be10 O49 1.576175 1_555
Be10 O7 1.625700 1_555
Be10 O19 1.637414 1_555
Be10 O37 1.697751 1_555
Be11 O20 1.578193 1_555
Be11 O50 1.642557 1_555
Be11 O8 1.693049 1_555
Be11 O38 1.723056 1_555
Fe0 O17 1.922884 1_656
Fe0 O3 1.997199 1_555
Fe0 O57 2.014279 1_545
Fe0 O45 2.073578 1_655
Fe0 O23 2.213218 1_546
Fe0 O11 2.283771 1_646
Fe1 O58 1.907576 1_555
Fe1 O15 1.993069 1_665
Fe1 O21 2.014322 1_555
Fe1 O9 2.120207 1_655
Fe1 O4 2.163877 1_565
Fe1 O46 2.390401 1_665
Fe2 O16 1.981826 1_655
Fe2 O59 1.983381 1_545
Fe2 O10 2.035586 1_645
Fe2 O47 2.129235 1_655
Fe2 O5 2.137952 1_555
Fe2 O22 2.192218 1_545
Fe3 O12 1.890535 1_555
Fe3 O20 2.019401 1_556
Fe3 O44 2.086937 1_556
Fe3 O6 2.130863 1_555
Fe3 O2 2.168733 1_556
Fe3 O36 2.244904 1_555
Fe4 O18 1.905923 1_555
Fe4 O7 2.035647 1_555
Fe4 O13 2.068960 1_555
Fe4 O0 2.097360 1_555
Fe4 O42 2.150317 1_555
Fe4 O37 2.241942 1_555
Fe5 O19 1.972693 1_555
Fe5 O14 1.976047 1_555
Fe5 O38 2.092567 1_555
Fe5 O8 2.100873 1_555
Fe5 O1 2.143297 1_555
Fe5 O43 2.147166 1_555
O0 Si0 1.697419 1_555
O0 Y0 2.413513 1_555
O1 Si1 1.693305 1_555
O1 Y1 2.417772 1_555
O2 Si2 1.657097 1_555
O2 Y2 2.435367 1_554
O3 Si3 1.658086 1_555
O4 Si4 1.669865 1_555
O4 Y3 2.445296 1_555
O5 Si5 1.694656 1_555
O5 Y4 2.410307 1_555
O6 Si6 1.695974 1_555
O6 Y5 2.414125 1_555
O7 Si7 1.635186 1_555
O8 Si8 1.711600 1_555
O8 Y6 2.387535 1_555
O9 Si9 1.668874 1_555
O9 Y7 2.390125 1_555
O10 Si10 1.715654 1_555
O10 Y8 2.398191 1_555
O11 Si11 1.661481 1_555
O11 Y9 2.467948 1_554
O12 Y2 2.314279 1_555
O13 Y3 2.516407 1_555
O13 Y0 2.534941 1_555
O14 Y1 2.434809 1_555
O14 Y4 2.542750 1_555
O15 Y3 2.368598 1_455
O15 Y0 2.667993 1_555
O16 Y4 2.426332 1_455
O16 Y1 2.612917 1_555
O17 Y2 2.359015 1_554
O18 Y7 2.313532 1_555
O19 Y6 2.407028 1_555
O19 Y8 2.579265 1_555
O20 Y5 2.421615 1_554
O20 Y9 2.724583 1_554
O21 Si3 1.650630 1_565
O22 Si4 1.679666 1_565
O22 Y6 2.414184 1_555
O23 Si5 1.656215 1_565
O23 Y5 2.470697 1_554
O24 Si9 1.591940 1_555
O24 Y0 2.123156 1_565
O25 Si10 1.650292 1_555
O25 Y6 2.290841 1_555
O25 Y1 2.295641 1_565
O26 Si11 1.609853 1_555
O26 Y5 2.312076 1_554
O26 Y2 2.456158 1_564
O27 Si6 1.589779 1_555
O27 Y9 2.146736 1_655
O28 Si7 1.615333 1_555
O28 Y3 2.348458 1_555
O28 Y7 2.404437 1_655
O29 Si8 1.640625 1_555
O29 Y4 2.293934 1_555
O29 Y8 2.306978 1_655
O30 Si0 1.624208 1_555
O30 Y2 2.446542 1_555
O31 Si1 1.629677 1_555
O31 Y3 2.529915 1_455
O31 Y0 2.802985 1_555
O32 Si2 1.663962 1_555
O32 Y4 2.480179 1_455
O32 Y1 2.747038 1_555
O33 Si0 1.630533 1_555
O33 Y3 2.271248 1_455
O33 Y7 2.399122 1_555
O34 Si1 1.636284 1_555
O34 Y8 2.300080 1_555
O34 Y4 2.327372 1_455
O35 Si2 1.578620 1_555
O35 Y9 2.156343 1_554
O36 Si0 1.677712 1_555
O36 Y9 2.382915 1_555
O37 Si1 1.634628 1_555
O37 Y7 2.446835 1_555
O38 Si2 1.691982 1_555
O38 Y8 2.425950 1_555
O39 Si3 1.634758 1_555
O39 Y5 2.286745 1_545
O39 Y2 2.351507 1_555
O40 Si4 1.581355 1_555
O40 Y0 2.172252 1_555
O41 Si5 1.639972 1_555
O41 Y6 2.279353 1_545
O41 Y1 2.310603 1_555
O42 Si6 1.681582 1_555
O42 Y3 2.400195 1_555
O43 Si7 1.692148 1_555
O43 Y4 2.410590 1_555
O44 Si8 1.625876 1_555
O45 Si9 1.662465 1_545
O45 Y2 2.406889 1_555
O46 Si10 1.650573 1_545
O46 Y0 2.426702 1_555
O47 Si11 1.694071 1_545
O47 Y1 2.413432 1_555
O48 Si9 1.649494 1_555
O48 Y5 2.438824 1_555
O48 Y9 2.784314 1_555
O49 Si10 1.597027 1_555
O49 Y7 2.580543 1_555
O50 Si11 1.663869 1_555
O50 Y6 2.534082 1_555
O50 Y8 2.651767 1_555
O51 Si6 1.624456 1_555
O51 Y7 2.391717 1_655
O52 Si7 1.661309 1_555
O52 Y8 2.516526 1_655
O52 Y6 2.659728 1_555
O53 Si8 1.635772 1_555
O53 Y9 2.568468 1_654
O53 Y5 2.680340 1_554
O54 Si3 1.654031 1_555
O54 Y0 2.527385 1_555
O54 Y3 2.594766 1_555
O55 Si4 1.666035 1_555
O55 Y1 2.488110 1_555
O55 Y4 2.594687 1_555
O56 Si5 1.601279 1_555
O56 Y2 2.465706 1_554
O57 Y5 2.470724 1_555
O57 Y9 2.510386 1_655
O58 Y7 2.340604 1_655
O59 Y8 2.448959 1_655
O59 Y6 2.579307 1_555
