# generated using pymatgen
data_Na3CaFe4(SiO3)8
_symmetry_space_group_name_H-M   'P 1'
_cell_length_a   11.06059948
_cell_length_b   10.52916602
_cell_length_c   10.53786461
_cell_angle_alpha   51.57641653
_cell_angle_beta   40.60654441
_cell_angle_gamma   40.57279609
_symmetry_Int_Tables_number   1
_chemical_formula_structural   Na3CaFe4(SiO3)8
_chemical_formula_sum   'Na3 Ca1 Fe4 Si8 O24'
_cell_volume   516.60369681
_cell_formula_units_Z   1
loop_
 _symmetry_equiv_pos_site_id
 _symmetry_equiv_pos_as_xyz
  1  'x, y, z'
loop_
 _atom_site_type_symbol
 _atom_site_label
 _atom_site_symmetry_multiplicity
 _atom_site_fract_x
 _atom_site_fract_y
 _atom_site_fract_z
 _atom_site_occupancy
  Na  Na0  1  0.11997100  0.71272900  0.28788000  1
  Na  Na1  1  0.62928400  0.71883700  0.27996600  1
  Na  Na2  1  0.86810700  0.29327200  0.71403700  1
  Ca  Ca0  1  0.38467200  0.27052200  0.72072100  1
  Fe  Fe0  1  0.12377500  0.08685900  0.90770500  1
  Fe  Fe1  1  0.37687300  0.89733500  0.10176900  1
  Fe  Fe2  1  0.62507100  0.11146700  0.89627000  1
  Fe  Fe3  1  0.87163700  0.90816100  0.09235400  1
  Si  Si0  1  0.13669000  0.20326300  0.25886400  1
  Si  Si1  1  0.38445900  0.26141300  0.20652200  1
  Si  Si2  1  0.63692000  0.20513300  0.25688700  1
  Si  Si3  1  0.11189600  0.74795400  0.79301800  1
  Si  Si4  1  0.89332800  0.25637400  0.19968200  1
  Si  Si5  1  0.36676000  0.79207000  0.73986200  1
  Si  Si6  1  0.61500500  0.73613200  0.79822700  1
  Si  Si7  1  0.85608700  0.79787900  0.74525900  1
  O  O0  1  0.06950100  0.01641900  0.19042900  1
  O  O1  1  0.30571500  0.19558100  0.01936500  1
  O  O2  1  0.13194300  0.30667700  0.33533300  1
  O  O3  1  0.27159700  0.02508300  0.66225100  1
  O  O4  1  0.56545000  0.02154900  0.19910000  1
  O  O5  1  0.99965800  0.33014700  0.96383000  1
  O  O6  1  0.37901800  0.33486100  0.31610900  1
  O  O7  1  0.11393900  0.66846200  0.69266300  1
  O  O8  1  0.51031200  0.66244700  0.03159500  1
  O  O9  1  0.81467700  0.19980000  0.01670300  1
  O  O10  1  0.23554000  0.96993900  0.33717000  1
  O  O11  1  0.63533000  0.30823200  0.33333400  1
  O  O12  1  0.37230400  0.68696400  0.66377100  1
  O  O13  1  0.75296300  0.02930600  0.66127300  1
  O  O14  1  0.18215200  0.80965200  0.97957000  1
  O  O15  1  0.47404600  0.35199400  0.98008000  1
  O  O16  1  0.88057700  0.33305500  0.31056800  1
  O  O17  1  0.61943200  0.66199300  0.69265200  1
  O  O18  1  0.01252300  0.66741300  0.02574400  1
  O  O19  1  0.43571300  0.97891000  0.80487000  1
  O  O20  1  0.74156700  0.97184900  0.33211100  1
  O  O21  1  0.86874300  0.68544100  0.66867700  1
  O  O22  1  0.68172200  0.79944200  0.98412700  1
  O  O23  1  0.94504300  0.98538100  0.79965200  1
loop_
_geom_bond_atom_site_label_1
_geom_bond_atom_site_label_2
_geom_bond_distance
_geom_bond_site_symmetry_2
Na0 O14 2.371151 1_554
Na0 O0 2.380789 1_565
Na0 O20 2.539588 1_455
Na0 O6 2.575401 1_555
Na0 O21 2.599115 1_455
Na0 O8 2.610427 1_555
Na1 O22 2.342919 1_554
Na1 O4 2.345747 1_565
Na1 O18 2.551796 1_655
Na1 O10 2.612032 1_555
Na1 O12 2.618446 1_555
Na1 O16 2.628755 1_555
Na2 O23 2.321018 1_545
Na2 O9 2.368646 1_556
Na2 O17 2.513978 1_555
Na2 O2 2.589310 1_655
Na2 O15 2.597281 1_555
Na2 O3 2.694677 1_655
Ca0 O1 2.253123 1_556
Ca0 O19 2.296789 1_545
Ca0 O13 2.412949 1_555
Ca0 O5 2.542528 1_455
Ca0 O11 2.642265 1_555
Ca0 O7 2.711856 1_555
Fe0 O3 1.959804 1_555
Fe0 O9 1.995155 1_456
Fe0 O5 2.025900 1_455
Fe0 O19 2.065576 1_545
Fe0 O14 2.154448 1_545
Fe0 O0 2.236284 1_556
Fe1 O10 1.958361 1_555
Fe1 O8 1.978005 1_555
Fe1 O22 1.982406 1_554
Fe1 O0 2.039727 1_565
Fe1 O1 2.264627 1_565
Fe1 O19 2.316744 1_554
Fe2 O15 2.024211 1_555
Fe2 O13 2.089629 1_555
Fe2 O23 2.096511 1_545
Fe2 O1 2.159218 1_556
Fe2 O4 2.347921 1_556
Fe2 O22 2.452811 1_545
Fe3 O18 1.973960 1_655
Fe3 O4 1.975457 1_565
Fe3 O20 2.005978 1_555
Fe3 O14 2.051003 1_654
Fe3 O23 2.217508 1_554
Fe3 O9 2.289696 1_565
O0 Si4 1.651810 1_455
O1 Si0 1.652577 1_555
O2 Si0 1.666500 1_555
O2 Si1 1.701708 1_555
O3 Si5 1.638937 1_545
O4 Si1 1.649005 1_555
O5 Si4 1.647303 1_556
O6 Si2 1.682122 1_555
O6 Si1 1.693837 1_555
O7 Si3 1.689547 1_555
O7 Si7 1.712483 1_455
O8 Si6 1.630932 1_554
O9 Si2 1.651612 1_555
O10 Si0 1.637502 1_565
O11 Si2 1.692375 1_555
O11 Si4 1.706209 1_555
O12 Si5 1.672317 1_555
O12 Si3 1.698258 1_555
O13 Si7 1.628471 1_545
O14 Si5 1.661226 1_555
O15 Si1 1.613154 1_556
O16 Si4 1.669305 1_555
O16 Si0 1.699969 1_655
O17 Si6 1.669783 1_555
O17 Si5 1.689585 1_555
O18 Si3 1.637007 1_554
O19 Si6 1.668098 1_555
O20 Si2 1.629541 1_565
O21 Si7 1.684235 1_555
O21 Si6 1.684502 1_555
O22 Si7 1.639495 1_555
O23 Si3 1.634887 1_655
