# generated using pymatgen
data_Li7Mn4CoO12
_symmetry_space_group_name_H-M   'P 1'
_cell_length_a   5.97053165
_cell_length_b   7.63273127
_cell_length_c   10.17562174
_cell_angle_alpha   76.79702460
_cell_angle_beta   75.69588096
_cell_angle_gamma   80.78109836
_symmetry_Int_Tables_number   1
_chemical_formula_structural   Li7Mn4CoO12
_chemical_formula_sum   'Li14 Mn8 Co2 O24'
_cell_volume   434.80944304
_cell_formula_units_Z   2
loop_
 _symmetry_equiv_pos_site_id
 _symmetry_equiv_pos_as_xyz
  1  'x, y, z'
loop_
 _atom_site_type_symbol
 _atom_site_label
 _atom_site_symmetry_multiplicity
 _atom_site_fract_x
 _atom_site_fract_y
 _atom_site_fract_z
 _atom_site_occupancy
  Li  Li0  1  0.16667400  0.33334300  0.00000200  1
  Li  Li1  1  0.66665300  0.33332400  0.50000200  1
  Li  Li2  1  0.80849500  0.18755200  0.25872500  1
  Li  Li3  1  0.30795800  0.18069200  0.75670200  1
  Li  Li4  1  0.02533100  0.48600600  0.24331400  1
  Li  Li5  1  0.52480900  0.47910900  0.74127400  1
  Li  Li6  1  0.51207200  0.48960000  0.25667800  1
  Li  Li7  1  0.00009000  0.49122200  0.75626000  1
  Li  Li8  1  0.33322200  0.17544400  0.24373000  1
  Li  Li9  1  0.82126300  0.17705100  0.74332300  1
  Li  Li10  1  0.16140300  0.83645700  0.25079000  1
  Li  Li11  1  0.66252300  0.83442400  0.75223700  1
  Li  Li12  1  0.67079700  0.83225000  0.24777200  1
  Li  Li13  1  0.17192800  0.83021000  0.74921200  1
  Mn  Mn0  1  0.49880500  0.00604900  0.50066200  1
  Mn  Mn1  1  0.83450700  0.66061000  0.49933900  1
  Mn  Mn2  1  0.49545300  0.00663600  0.99516900  1
  Mn  Mn3  1  0.83790100  0.66004800  0.00484000  1
  Mn  Mn4  1  0.99332400  0.00533800  0.00300600  1
  Mn  Mn5  1  0.34003400  0.66133200  0.99700800  1
  Mn  Mn6  1  0.99869600  0.00485800  0.49824200  1
  Mn  Mn7  1  0.33462300  0.66179500  0.50174700  1
  Co  Co0  1  0.66668200  0.33334400  0.99999600  1
  Co  Co1  1  0.16665600  0.33332600  0.49999600  1
  O  O0  1  0.19499000  0.06560900  0.10664300  1
  O  O1  1  0.69935200  0.06377700  0.60758400  1
  O  O2  1  0.63397600  0.60287500  0.39240900  1
  O  O3  1  0.13836700  0.60106500  0.89336100  1
  O  O4  1  0.83563700  0.43282600  0.12377100  1
  O  O5  1  0.32019300  0.42622700  0.61569600  1
  O  O6  1  0.01312200  0.24042500  0.38429700  1
  O  O7  1  0.49771900  0.23385300  0.87622900  1
  O  O8  1  0.51936300  0.75309800  0.10565800  1
  O  O9  1  0.01960400  0.75335000  0.60600400  1
  O  O10  1  0.31372300  0.91330100  0.39398800  1
  O  O11  1  0.81400200  0.91358600  0.89433800  1
  O  O12  1  0.64300400  0.09040800  0.11501500  1
  O  O13  1  0.14734000  0.09323600  0.61705800  1
  O  O14  1  0.18597700  0.57341800  0.38293400  1
  O  O15  1  0.69036200  0.57627500  0.88498700  1
  O  O16  1  0.36872600  0.42138400  0.10553400  1
  O  O17  1  0.84064600  0.42959500  0.61402900  1
  O  O18  1  0.49266800  0.23705700  0.38596900  1
  O  O19  1  0.96465000  0.24528700  0.89446100  1
  O  O20  1  0.98567500  0.75630700  0.11892100  1
  O  O21  1  0.48003700  0.75549400  0.61779000  1
  O  O22  1  0.85328200  0.91116000  0.38220500  1
  O  O23  1  0.34768300  0.91037000  0.88109300  1
loop_
_geom_bond_atom_site_label_1
_geom_bond_atom_site_label_2
_geom_bond_distance
_geom_bond_site_symmetry_2
Li0 O16 2.071124 1_555
Li0 O19 2.071125 1_454
Li0 O3 2.085382 1_554
Li0 O0 2.085462 1_555
Li0 O4 2.189775 1_455
Li0 O7 2.189844 1_554
Li1 O18 2.048182 1_555
Li1 O17 2.048186 1_555
Li1 O1 2.101762 1_555
Li1 O2 2.101815 1_555
Li1 O5 2.208095 1_555
Li1 O6 2.208169 1_655
Li2 O18 2.040512 1_555
Li2 O4 2.056628 1_555
Li2 O6 2.110244 1_655
Li2 O22 2.207986 1_545
Li2 O12 2.260204 1_555
Li3 O7 1.995300 1_555
Li3 O5 2.083277 1_555
Li3 O13 2.167052 1_555
Li3 O23 2.171203 1_545
Li3 O19 2.231947 1_455
Li4 O4 1.995193 1_455
Li4 O6 2.083427 1_555
Li4 O14 2.166780 1_555
Li4 O20 2.171042 1_455
Li4 O16 2.232466 1_555
Li5 O17 2.040573 1_555
Li5 O7 2.056508 1_555
Li5 O5 2.110272 1_555
Li5 O21 2.207948 1_555
Li5 O15 2.260562 1_555
Li6 O18 2.073085 1_555
Li6 O2 2.104443 1_555
Li6 O4 2.111238 1_555
Li6 O16 2.127908 1_555
Li6 O14 2.142625 1_555
Li6 O8 2.234176 1_555
Li7 O19 2.078574 1_455
Li7 O17 2.087441 1_455
Li7 O15 2.088962 1_455
Li7 O5 2.148052 1_555
Li7 O3 2.157775 1_555
Li7 O9 2.223410 1_555
Li8 O16 2.078611 1_555
Li8 O18 2.087470 1_555
Li8 O12 2.089082 1_555
Li8 O6 2.148029 1_555
Li8 O0 2.157458 1_555
Li8 O10 2.223503 1_545
Li9 O17 2.073097 1_555
Li9 O1 2.104530 1_555
Li9 O7 2.111187 1_555
Li9 O19 2.128078 1_555
Li9 O13 2.142583 1_655
Li9 O11 2.233965 1_545
Li10 O0 2.011463 1_565
Li10 O22 2.072247 1_455
Li10 O10 2.123778 1_555
Li10 O20 2.133526 1_455
Li10 O14 2.151831 1_555
Li10 O8 2.363759 1_555
Li11 O1 2.016394 1_565
Li11 O23 2.090190 1_555
Li11 O11 2.119968 1_555
Li11 O15 2.127182 1_555
Li11 O21 2.178315 1_555
Li11 O9 2.360655 1_655
Li12 O2 2.016429 1_555
Li12 O20 2.090319 1_555
Li12 O8 2.119869 1_555
Li12 O12 2.127243 1_565
Li12 O22 2.178118 1_555
Li12 O10 2.360499 1_555
Li13 O3 2.011426 1_555
Li13 O21 2.072260 1_555
Li13 O9 2.123942 1_555
Li13 O23 2.133776 1_555
Li13 O13 2.151804 1_565
Li13 O11 2.363622 1_455
Mn0 O18 1.879566 1_555
Mn0 O1 1.960448 1_555
Mn0 O21 2.012928 1_545
Mn0 O10 2.023586 1_545
Mn0 O13 2.221163 1_555
Mn0 O22 2.259152 1_545
Mn1 O17 1.879597 1_555
Mn1 O2 1.960459 1_555
Mn1 O22 2.012922 1_555
Mn1 O9 2.023549 1_655
Mn1 O14 2.221230 1_655
Mn1 O21 2.259086 1_555
Mn2 O7 1.874389 1_555
Mn2 O0 1.917406 1_556
Mn2 O12 1.933826 1_556
Mn2 O23 1.941421 1_545
Mn2 O8 2.006560 1_546
Mn2 O11 2.027361 1_545
Mn3 O4 1.874379 1_555
Mn3 O3 1.917458 1_654
Mn3 O15 1.933841 1_554
Mn3 O20 1.941446 1_555
Mn3 O11 2.006604 1_554
Mn3 O8 2.027265 1_555
Mn4 O19 1.916362 1_554
Mn4 O0 1.949364 1_655
Mn4 O20 1.995836 1_545
Mn4 O11 2.009586 1_544
Mn4 O12 2.195534 1_555
Mn4 O23 2.272237 1_644
Mn5 O16 1.916291 1_556
Mn5 O3 1.949431 1_555
Mn5 O23 1.995880 1_555
Mn5 O8 2.009536 1_556
Mn5 O15 2.195588 1_555
Mn5 O20 2.272253 1_456
Mn6 O1 1.903375 1_555
Mn6 O6 1.905939 1_655
Mn6 O22 1.936659 1_545
Mn6 O13 1.949100 1_655
Mn6 O9 1.983050 1_645
Mn6 O10 2.020643 1_645
Mn7 O2 1.903401 1_555
Mn7 O5 1.905962 1_555
Mn7 O21 1.936713 1_555
Mn7 O14 1.949079 1_555
Mn7 O10 1.983025 1_555
Mn7 O9 2.020614 1_555
Co0 O16 1.942200 1_556
Co0 O19 1.942281 1_555
Co0 O15 1.959262 1_555
Co0 O12 1.959329 1_556
Co0 O4 2.119092 1_556
Co0 O7 2.119099 1_555
Co1 O13 1.947590 1_555
Co1 O14 1.947604 1_555
Co1 O6 1.962667 1_555
Co1 O5 1.962688 1_555
Co1 O18 2.118992 1_555
Co1 O17 2.119008 1_455
