# generated using pymatgen
data_BaCaCrBiO6
_symmetry_space_group_name_H-M   'P 1'
_cell_length_a   5.81608854
_cell_length_b   5.81608854
_cell_length_c   5.81608854
_cell_angle_alpha   60.00000000
_cell_angle_beta   60.00000000
_cell_angle_gamma   60.00000000
_symmetry_Int_Tables_number   1
_chemical_formula_structural   BaCaCrBiO6
_chemical_formula_sum   'Ba1 Ca1 Cr1 Bi1 O6'
_cell_volume   139.11630406
_cell_formula_units_Z   1
loop_
 _symmetry_equiv_pos_site_id
 _symmetry_equiv_pos_as_xyz
  1  'x, y, z'
loop_
 _atom_site_type_symbol
 _atom_site_label
 _atom_site_symmetry_multiplicity
 _atom_site_fract_x
 _atom_site_fract_y
 _atom_site_fract_z
 _atom_site_occupancy
  Ba  Ba0  1  0.75000000  0.75000000  0.75000000  1
  Ca  Ca0  1  0.25000000  0.25000000  0.25000000  1
  Cr  Cr0  1  0.50000000  0.50000000  0.50000000  1
  Bi  Bi0  1  0.00000000  0.00000000  -0.00000000  1
  O  O0  1  0.74443482  0.25556518  0.25556518  1
  O  O1  1  0.25556518  0.74443482  0.74443482  1
  O  O2  1  0.74443482  0.25556518  0.74443482  1
  O  O3  1  0.25556518  0.74443482  0.25556518  1
  O  O4  1  0.74443482  0.74443482  0.25556518  1
  O  O5  1  0.25556518  0.25556518  0.74443482  1
loop_
_geom_bond_atom_site_label_1
_geom_bond_atom_site_label_2
_geom_bond_distance
_geom_bond_site_symmetry_2
Ba0 O4 2.908405 1_555
Ba0 O2 2.908405 1_555
Ba0 O1 2.908405 1_555
Ba0 O5 2.908405 1_655
Ba0 O5 2.908405 1_565
Ba0 O3 2.908405 1_556
Ba0 O0 2.908405 1_556
Ba0 O3 2.908405 1_655
Ba0 O0 2.908405 1_565
Ba0 O1 2.908405 1_655
Ba0 O2 2.908405 1_565
Ba0 O4 2.908405 1_556
Ca0 O5 2.908405 1_554
Ca0 O3 2.908405 1_545
Ca0 O0 2.908405 1_455
Ca0 O1 2.908405 1_545
Ca0 O2 2.908405 1_554
Ca0 O4 2.908405 1_545
Ca0 O4 2.908405 1_455
Ca0 O1 2.908405 1_554
Ca0 O2 2.908405 1_455
Ca0 O0 2.908405 1_555
Ca0 O3 2.908405 1_555
Ca0 O5 2.908405 1_555
Cr0 O3 2.010523 1_555
Cr0 O0 2.010523 1_555
Cr0 O5 2.010523 1_555
Cr0 O4 2.010523 1_555
Cr0 O1 2.010523 1_555
Cr0 O2 2.010523 1_555
Bi0 O4 2.102072 1_445
Bi0 O1 2.102072 1_544
Bi0 O2 2.102072 1_454
Bi0 O3 2.102072 1_545
Bi0 O5 2.102072 1_554
Bi0 O0 2.102072 1_455
