# generated using pymatgen
data_La2P3(HO3)3
_symmetry_space_group_name_H-M   'P 1'
_cell_length_a   7.11930500
_cell_length_b   8.41220500
_cell_length_c   14.89649700
_cell_angle_alpha   90.00000000
_cell_angle_beta   90.00000000
_cell_angle_gamma   90.00000000
_symmetry_Int_Tables_number   1
_chemical_formula_structural   La2P3(HO3)3
_chemical_formula_sum   'La8 P12 H12 O36'
_cell_volume   892.13710010
_cell_formula_units_Z   4
loop_
 _symmetry_equiv_pos_site_id
 _symmetry_equiv_pos_as_xyz
  1  'x, y, z'
loop_
 _atom_site_type_symbol
 _atom_site_label
 _atom_site_symmetry_multiplicity
 _atom_site_fract_x
 _atom_site_fract_y
 _atom_site_fract_z
 _atom_site_occupancy
  La  La0  1  0.34677000  0.29906100  0.42578700  1
  La  La1  1  0.15323000  0.79906100  0.07421300  1
  La  La2  1  0.65323000  0.70093900  0.92578700  1
  La  La3  1  0.84677000  0.20093900  0.57421300  1
  La  La4  1  0.65323000  0.70093900  0.57421300  1
  La  La5  1  0.84677000  0.20093900  0.92578700  1
  La  La6  1  0.34677000  0.29906100  0.07421300  1
  La  La7  1  0.15323000  0.79906100  0.42578700  1
  P  P0  1  0.33674800  0.04814900  0.59935500  1
  P  P1  1  0.16325200  0.54814900  0.90064500  1
  P  P2  1  0.66325200  0.95185100  0.09935500  1
  P  P3  1  0.83674800  0.45185100  0.40064500  1
  P  P4  1  0.66325200  0.95185100  0.40064500  1
  P  P5  1  0.83674800  0.45185100  0.09935500  1
  P  P6  1  0.33674800  0.04814900  0.90064500  1
  P  P7  1  0.16325200  0.54814900  0.59935500  1
  P  P8  1  0.11504000  0.03195000  0.25000000  1
  P  P9  1  0.38496000  0.53195000  0.25000000  1
  P  P10  1  0.88496000  0.96805000  0.75000000  1
  P  P11  1  0.61504000  0.46805000  0.75000000  1
  H  H0  1  0.26594500  0.09800300  0.68276700  1
  H  H1  1  0.23405500  0.59800300  0.81723300  1
  H  H2  1  0.73405500  0.90199700  0.18276700  1
  H  H3  1  0.76594500  0.40199700  0.31723300  1
  H  H4  1  0.73405500  0.90199700  0.31723300  1
  H  H5  1  0.76594500  0.40199700  0.18276700  1
  H  H6  1  0.26594500  0.09800300  0.81723300  1
  H  H7  1  0.23405500  0.59800300  0.68276700  1
  H  H8  1  0.94148000  0.11388300  0.25000000  1
  H  H9  1  0.55852000  0.61388300  0.25000000  1
  H  H10  1  0.05852000  0.88611700  0.75000000  1
  H  H11  1  0.44148000  0.38611700  0.75000000  1
  O  O0  1  0.21456100  0.07311900  0.33871100  1
  O  O1  1  0.28543900  0.57311900  0.16128900  1
  O  O2  1  0.78543900  0.92688100  0.83871100  1
  O  O3  1  0.71456100  0.42688100  0.66128900  1
  O  O4  1  0.78543900  0.92688100  0.66128900  1
  O  O5  1  0.71456100  0.42688100  0.83871100  1
  O  O6  1  0.21456100  0.07311900  0.16128900  1
  O  O7  1  0.28543900  0.57311900  0.33871100  1
  O  O8  1  0.10652000  0.37443100  0.89139900  1
  O  O9  1  0.39348000  0.87443100  0.60860100  1
  O  O10  1  0.89348000  0.62556900  0.39139900  1
  O  O11  1  0.60652000  0.12556900  0.10860100  1
  O  O12  1  0.89348000  0.62556900  0.10860100  1
  O  O13  1  0.60652000  0.12556900  0.39139900  1
  O  O14  1  0.10652000  0.37443100  0.60860100  1
  O  O15  1  0.39348000  0.87443100  0.89139900  1
  O  O16  1  0.49520400  0.16351200  0.57102300  1
  O  O17  1  0.00479600  0.66351200  0.92897700  1
  O  O18  1  0.50479600  0.83648800  0.07102300  1
  O  O19  1  0.99520400  0.33648800  0.42897700  1
  O  O20  1  0.50479600  0.83648800  0.42897700  1
  O  O21  1  0.99520400  0.33648800  0.07102300  1
  O  O22  1  0.49520400  0.16351200  0.92897700  1
  O  O23  1  0.00479600  0.66351200  0.57102300  1
  O  O24  1  0.17391200  0.06446400  0.52932700  1
  O  O25  1  0.32608800  0.56446400  0.97067300  1
  O  O26  1  0.82608800  0.93553600  0.02932700  1
  O  O27  1  0.67391200  0.43553600  0.47067300  1
  O  O28  1  0.82608800  0.93553600  0.47067300  1
  O  O29  1  0.67391200  0.43553600  0.02932700  1
  O  O30  1  0.17391200  0.06446400  0.97067300  1
  O  O31  1  0.32608800  0.56446400  0.52932700  1
  O  O32  1  0.07993600  0.85090800  0.25000000  1
  O  O33  1  0.42006400  0.35090800  0.25000000  1
  O  O34  1  0.92006400  0.14909200  0.75000000  1
  O  O35  1  0.57993600  0.64909200  0.75000000  1
loop_
_geom_bond_atom_site_label_1
_geom_bond_atom_site_label_2
_geom_bond_distance
_geom_bond_site_symmetry_2
La0 O13 2.410828 1_555
La0 O0 2.486164 1_555
La0 O19 2.523078 1_455
La0 O16 2.664148 1_555
La0 O7 2.681083 1_555
La0 O27 2.681318 1_555
La0 O33 2.705480 1_555
La0 O31 2.717579 1_555
La0 O24 2.790700 1_555
La1 O12 2.410828 1_455
La1 O1 2.486164 1_555
La1 O18 2.523078 1_555
La1 O17 2.664148 1_554
La1 O6 2.681083 1_565
La1 O26 2.681318 1_455
La1 O32 2.705480 1_555
La1 O30 2.717579 1_564
La1 O25 2.790700 1_554
La2 O15 2.410828 1_555
La2 O2 2.486164 1_555
La2 O17 2.523078 1_655
La2 O18 2.664148 1_556
La2 O5 2.681083 1_555
La2 O25 2.681318 1_555
La2 O35 2.705480 1_555
La2 O29 2.717579 1_556
La2 O26 2.790700 1_556
La3 O14 2.410828 1_655
La3 O3 2.486164 1_555
La3 O16 2.523078 1_555
La3 O19 2.664148 1_555
La3 O4 2.681083 1_545
La3 O24 2.681318 1_655
La3 O34 2.705480 1_555
La3 O28 2.717579 1_545
La3 O27 2.790700 1_555
La4 O9 2.410828 1_555
La4 O4 2.486164 1_555
La4 O23 2.523078 1_655
La4 O20 2.664148 1_555
La4 O3 2.681083 1_555
La4 O31 2.681318 1_555
La4 O35 2.705480 1_555
La4 O27 2.717579 1_555
La4 O28 2.790700 1_555
La5 O8 2.410828 1_655
La5 O5 2.486164 1_555
La5 O22 2.523078 1_555
La5 O21 2.664148 1_556
La5 O2 2.681083 1_545
La5 O30 2.681318 1_655
La5 O34 2.705480 1_555
La5 O26 2.717579 1_546
La5 O29 2.790700 1_556
La6 O11 2.410828 1_555
La6 O6 2.486164 1_555
La6 O21 2.523078 1_455
La6 O22 2.664148 1_554
La6 O1 2.681083 1_555
La6 O29 2.681318 1_555
La6 O33 2.705480 1_555
La6 O25 2.717579 1_554
La6 O30 2.790700 1_554
La7 O10 2.410828 1_455
La7 O7 2.486164 1_555
La7 O20 2.523078 1_555
La7 O23 2.664148 1_555
La7 O0 2.681083 1_565
La7 O28 2.681318 1_455
La7 O32 2.705480 1_555
La7 O24 2.717579 1_565
La7 O31 2.790700 1_555
H0 P0 1.404951 1_555
H1 P1 1.404951 1_555
H2 P2 1.404951 1_555
H3 P3 1.404951 1_555
H4 P4 1.404951 1_555
H5 P5 1.404951 1_555
H6 P6 1.404951 1_555
H7 P7 1.404951 1_555
H8 P8 1.414857 1_655
H9 P9 1.414857 1_555
H10 P10 1.414857 1_455
H11 P11 1.414857 1_555
O0 P8 1.538914 1_555
O1 P9 1.538914 1_555
O2 P10 1.538914 1_555
O3 P11 1.538914 1_555
O4 P10 1.538914 1_555
O5 P11 1.538914 1_555
O6 P8 1.538914 1_555
O7 P9 1.538914 1_555
O8 P1 1.522382 1_555
O9 P0 1.522382 1_565
O10 P3 1.522382 1_555
O11 P2 1.522382 1_545
O12 P5 1.522382 1_555
O13 P4 1.522382 1_545
O14 P7 1.522382 1_555
O15 P6 1.522382 1_565
O16 P0 1.546775 1_555
O17 P1 1.546775 1_555
O18 P2 1.546775 1_555
O19 P3 1.546775 1_555
O20 P4 1.546775 1_555
O21 P5 1.546775 1_555
O22 P6 1.546775 1_555
O23 P7 1.546775 1_555
O24 P0 1.565558 1_555
O25 P1 1.565558 1_555
O26 P2 1.565558 1_555
O27 P3 1.565558 1_555
O28 P4 1.565558 1_555
O29 P5 1.565558 1_555
O30 P6 1.565558 1_555
O31 P7 1.565558 1_555
O32 P8 1.543332 1_565
O33 P9 1.543332 1_555
O34 P10 1.543332 1_545
O35 P11 1.543332 1_555
