# generated using pymatgen
data_GdDyNi2
_symmetry_space_group_name_H-M   'P 1'
_cell_length_a   4.19460627
_cell_length_b   5.40359492
_cell_length_c   10.59200266
_cell_angle_alpha   97.00023116
_cell_angle_beta   90.00000000
_cell_angle_gamma   90.00000000
_symmetry_Int_Tables_number   1
_chemical_formula_structural   GdDyNi2
_chemical_formula_sum   'Gd3 Dy3 Ni6'
_cell_volume   238.28821387
_cell_formula_units_Z   3
loop_
 _symmetry_equiv_pos_site_id
 _symmetry_equiv_pos_as_xyz
  1  'x, y, z'
loop_
 _atom_site_type_symbol
 _atom_site_label
 _atom_site_symmetry_multiplicity
 _atom_site_fract_x
 _atom_site_fract_y
 _atom_site_fract_z
 _atom_site_occupancy
  Gd  Gd0  1  0.75000000  0.41502320  0.21081994  1
  Gd  Gd1  1  0.25000000  0.74447789  0.45464181  1
  Gd  Gd2  1  0.75000000  0.25633011  0.54769847  1
  Dy  Dy0  1  0.25000000  0.89441165  0.11885458  1
  Dy  Dy1  1  0.75000000  0.10557760  0.87981835  1
  Dy  Dy2  1  0.25000000  0.58545351  0.78896823  1
  Ni  Ni0  1  0.25000000  0.38103093  0.02169273  1
  Ni  Ni1  1  0.75000000  0.62019604  0.97426658  1
  Ni  Ni2  1  0.25000000  0.20988333  0.35669161  1
  Ni  Ni3  1  0.75000000  0.78895549  0.64580032  1
  Ni  Ni4  1  0.25000000  0.05317987  0.69360681  1
  Ni  Ni5  1  0.75000000  0.94548238  0.30713756  1
loop_
_geom_bond_atom_site_label_1
_geom_bond_atom_site_label_2
_geom_bond_distance
_geom_bond_site_symmetry_2
Gd0 Ni5 2.847658 1_545
Gd0 Ni1 2.860794 1_554
Gd0 Ni0 2.890620 1_555
Gd0 Ni0 2.890620 1_655
Gd0 Ni2 2.903817 1_555
Gd0 Ni2 2.903817 1_655
Gd0 Ni5 2.923045 1_555
Gd1 Ni2 2.834940 1_565
Gd1 Ni4 2.856568 1_565
Gd1 Ni5 2.903964 1_455
Gd1 Ni5 2.903964 1_555
Gd1 Ni3 2.904729 1_455
Gd1 Ni3 2.904729 1_555
Gd1 Ni2 2.947990 1_555
Gd2 Ni3 2.845617 1_545
Gd2 Ni5 2.875862 1_545
Gd2 Ni4 2.899257 1_555
Gd2 Ni4 2.899257 1_655
Gd2 Ni2 2.903622 1_555
Gd2 Ni2 2.903622 1_655
Gd2 Ni3 2.938397 1_555
Dy0 Ni0 2.838817 1_555
Dy0 Ni2 2.864510 1_565
Dy0 Ni5 2.884077 1_455
Dy0 Ni5 2.884077 1_555
Dy0 Ni1 2.895955 1_454
Dy0 Ni1 2.895955 1_554
Dy0 Ni0 2.938191 1_565
Dy1 Ni3 2.835054 1_545
Dy1 Ni1 2.838222 1_555
Dy1 Ni4 2.869304 1_655
Dy1 Ni4 2.869304 1_555
Dy1 Ni0 2.885679 1_556
Dy1 Ni0 2.885679 1_656
Dy1 Ni1 2.918810 1_545
Dy2 Ni0 2.821381 1_556
Dy2 Ni4 2.833771 1_565
Dy2 Ni1 2.862906 1_455
Dy2 Ni1 2.862906 1_555
Dy2 Ni3 2.883388 1_555
Dy2 Ni3 2.883388 1_455
Dy2 Ni4 2.929948 1_555
Ni0 Ni1 2.545474 1_554
Ni0 Ni1 2.545474 1_454
Ni2 Ni5 2.555899 1_545
Ni2 Ni5 2.555899 1_445
Ni3 Ni4 2.552914 1_665
Ni3 Ni4 2.552914 1_565
