# generated using pymatgen
data_Mn4FeS5
_symmetry_space_group_name_H-M   'P 1'
_cell_length_a   6.17606284
_cell_length_b   6.17606284
_cell_length_c   8.71741262
_cell_angle_alpha   61.46897643
_cell_angle_beta   61.46897643
_cell_angle_gamma   33.69925439
_symmetry_Int_Tables_number   1
_chemical_formula_structural   Mn4FeS5
_chemical_formula_sum   'Mn4 Fe1 S5'
_cell_volume   159.87339515
_cell_formula_units_Z   1
loop_
 _symmetry_equiv_pos_site_id
 _symmetry_equiv_pos_as_xyz
  1  'x, y, z'
loop_
 _atom_site_type_symbol
 _atom_site_label
 _atom_site_symmetry_multiplicity
 _atom_site_fract_x
 _atom_site_fract_y
 _atom_site_fract_z
 _atom_site_occupancy
  Mn  Mn0  1  0.60248300  0.60248300  0.60024900  1
  Mn  Mn1  1  0.20116100  0.20116100  0.19360600  1
  Mn  Mn2  1  0.79883900  0.79883900  0.80639400  1
  Mn  Mn3  1  0.39751700  0.39751700  0.39975100  1
  Fe  Fe0  1  0.00000000  0.00000000  0.00000000  1
  S  S0  1  0.00000000  0.00000000  0.50000000  1
  S  S1  1  0.59610700  0.59610700  0.10017400  1
  S  S2  1  0.19905800  0.19905800  0.70458100  1
  S  S3  1  0.80094200  0.80094200  0.29541900  1
  S  S4  1  0.40389300  0.40389300  0.89982600  1
loop_
_geom_bond_atom_site_label_1
_geom_bond_atom_site_label_2
_geom_bond_distance
_geom_bond_site_symmetry_2
Mn0 S4 2.492436 1_555
Mn0 S3 2.518541 1_555
Mn0 S2 2.524262 1_565
Mn0 S2 2.524262 1_655
Mn0 S0 2.548164 1_565
Mn0 S0 2.548164 1_655
Mn1 S4 2.485238 1_554
Mn1 S1 2.533816 1_545
Mn1 S1 2.533816 1_455
Mn1 S3 2.535541 1_545
Mn1 S3 2.535541 1_455
Mn1 S0 2.539589 1_555
Mn2 S1 2.485238 1_556
Mn2 S4 2.533816 1_565
Mn2 S4 2.533816 1_655
Mn2 S2 2.535541 1_655
Mn2 S2 2.535541 1_565
Mn2 S0 2.539589 1_665
Mn3 S1 2.492436 1_555
Mn3 S2 2.518541 1_555
Mn3 S3 2.524262 1_545
Mn3 S3 2.524262 1_455
Mn3 S0 2.548164 1_565
Mn3 S0 2.548164 1_655
Fe0 S3 2.474057 1_445
Fe0 S2 2.474057 1_554
Fe0 S4 2.499710 1_544
Fe0 S4 2.499710 1_454
Fe0 S1 2.499710 1_455
Fe0 S1 2.499710 1_545
