# generated using pymatgen
data_Zr3Ni3Sb4
_symmetry_space_group_name_H-M   'P 1'
_cell_length_a   7.87444377
_cell_length_b   7.87444333
_cell_length_c   7.87444369
_cell_angle_alpha   109.47122423
_cell_angle_beta   109.47122304
_cell_angle_gamma   109.47121562
_symmetry_Int_Tables_number   1
_chemical_formula_structural   Zr3Ni3Sb4
_chemical_formula_sum   'Zr6 Ni6 Sb8'
_cell_volume   375.87005998
_cell_formula_units_Z   2
loop_
 _symmetry_equiv_pos_site_id
 _symmetry_equiv_pos_as_xyz
  1  'x, y, z'
loop_
 _atom_site_type_symbol
 _atom_site_label
 _atom_site_symmetry_multiplicity
 _atom_site_fract_x
 _atom_site_fract_y
 _atom_site_fract_z
 _atom_site_occupancy
  Zr  Zr0  1  0.25000000  0.62500000  0.37500000  1
  Zr  Zr1  1  0.62500000  0.37500000  0.25000000  1
  Zr  Zr2  1  0.87500000  0.12500000  0.75000000  1
  Zr  Zr3  1  0.12500000  0.75000000  0.87500000  1
  Zr  Zr4  1  0.37500000  0.25000000  0.62500000  1
  Zr  Zr5  1  0.75000000  0.87500000  0.12500000  1
  Ni  Ni0  1  0.12500000  0.87500000  0.25000000  1
  Ni  Ni1  1  0.75000000  0.37500000  0.62500000  1
  Ni  Ni2  1  0.37500000  0.62500000  0.75000000  1
  Ni  Ni3  1  0.62500000  0.75000000  0.37500000  1
  Ni  Ni4  1  0.87500000  0.25000000  0.12500000  1
  Ni  Ni5  1  0.25000000  0.12500000  0.87500000  1
  Sb  Sb0  1  0.83710182  0.50000000  0.00000000  1
  Sb  Sb1  1  0.16289818  0.16289818  0.16289818  1
  Sb  Sb2  1  0.00000000  0.83710182  0.50000000  1
  Sb  Sb3  1  0.50000000  -0.00000000  0.83710182  1
  Sb  Sb4  1  0.00000000  0.33710182  0.50000000  1
  Sb  Sb5  1  0.50000000  -0.00000000  0.33710182  1
  Sb  Sb6  1  0.33710182  0.50000000  0.00000000  1
  Sb  Sb7  1  0.66289818  0.66289818  0.66289818  1
loop_
_geom_bond_atom_site_label_1
_geom_bond_atom_site_label_2
_geom_bond_distance
_geom_bond_site_symmetry_2
Ni0 Sb0 2.533966 1_455
Ni0 Sb1 2.533966 1_565
Ni0 Sb2 2.533966 1_555
Ni0 Sb5 2.533966 1_565
Ni0 Zr4 2.784036 1_565
Ni0 Zr0 2.784036 1_555
Ni0 Zr3 2.784036 1_554
Ni0 Zr5 2.784036 1_455
Ni1 Sb7 2.533966 1_555
Ni1 Sb5 2.533966 1_555
Ni1 Sb0 2.533966 1_556
Ni1 Sb4 2.533966 1_655
Ni1 Zr2 2.784036 1_555
Ni1 Zr1 2.784036 1_555
Ni1 Zr3 2.784036 1_655
Ni1 Zr4 2.784036 1_555
Ni2 Sb3 2.533966 1_565
Ni2 Sb4 2.533966 1_555
Ni2 Sb6 2.533966 1_556
Ni2 Sb7 2.533966 1_555
Ni2 Zr4 2.784036 1_555
Ni2 Zr5 2.784036 1_556
Ni2 Zr3 2.784036 1_555
Ni2 Zr0 2.784036 1_555
Ni3 Sb5 2.533966 1_565
Ni3 Sb6 2.533966 1_555
Ni3 Sb7 2.533966 1_555
Ni3 Sb2 2.533966 1_655
Ni3 Zr1 2.784036 1_555
Ni3 Zr2 2.784036 1_565
Ni3 Zr5 2.784036 1_555
Ni3 Zr0 2.784036 1_555
Ni4 Sb4 2.533966 1_655
Ni4 Sb0 2.533966 1_555
Ni4 Sb1 2.533966 1_655
Ni4 Sb3 2.533966 1_554
Ni4 Zr2 2.784036 1_554
Ni4 Zr1 2.784036 1_555
Ni4 Zr5 2.784036 1_545
Ni4 Zr0 2.784036 1_655
Ni5 Sb6 2.533966 1_556
Ni5 Sb2 2.533966 1_545
Ni5 Sb3 2.533966 1_555
Ni5 Sb1 2.533966 1_556
Ni5 Zr1 2.784036 1_556
Ni5 Zr3 2.784036 1_545
Ni5 Zr2 2.784036 1_455
Ni5 Zr4 2.784036 1_555
Sb0 Zr2 3.128565 1_554
Sb0 Zr0 3.128565 1_655
Sb0 Zr3 3.128565 1_654
Sb0 Zr5 3.165689 1_555
Sb0 Zr4 3.165690 1_554
Sb0 Zr1 3.165690 1_555
Sb1 Zr3 3.128565 1_544
Sb1 Zr2 3.128565 1_454
Sb1 Zr5 3.128565 1_445
Sb1 Zr0 3.165689 1_555
Sb1 Zr4 3.165690 1_555
Sb1 Zr1 3.165690 1_555
Sb2 Zr2 3.128565 1_465
Sb2 Zr5 3.128565 1_455
Sb2 Zr4 3.128565 1_565
Sb2 Zr0 3.165689 1_555
Sb2 Zr3 3.165690 1_555
Sb2 Zr1 3.165690 1_455
Sb3 Zr1 3.128565 1_556
Sb3 Zr5 3.128565 1_546
Sb3 Zr3 3.128565 1_545
Sb3 Zr0 3.165689 1_545
Sb3 Zr4 3.165690 1_555
Sb3 Zr2 3.165690 1_555
Sb4 Zr3 3.128565 1_555
Sb4 Zr1 3.128565 1_455
Sb4 Zr0 3.128565 1_555
Sb4 Zr5 3.165689 1_445
Sb4 Zr4 3.165690 1_555
Sb4 Zr2 3.165690 1_455
Sb5 Zr4 3.128565 1_555
Sb5 Zr2 3.128565 1_555
Sb5 Zr0 3.128565 1_545
Sb5 Zr3 3.165689 1_544
Sb5 Zr5 3.165690 1_545
Sb5 Zr1 3.165690 1_555
Sb6 Zr4 3.128565 1_554
Sb6 Zr1 3.128565 1_555
Sb6 Zr5 3.128565 1_555
Sb6 Zr3 3.165689 1_554
Sb6 Zr0 3.165690 1_555
Sb6 Zr2 3.165690 1_454
Sb7 Zr1 3.128565 1_555
Sb7 Zr0 3.128565 1_555
Sb7 Zr4 3.128565 1_555
Sb7 Zr5 3.165689 1_556
Sb7 Zr2 3.165690 1_565
Sb7 Zr3 3.165690 1_655
