# generated using pymatgen
data_Hg4SbO6
_symmetry_space_group_name_H-M   'P 1'
_cell_length_a   8.63180076
_cell_length_b   8.63180076
_cell_length_c   4.84584089
_cell_angle_alpha   74.19208081
_cell_angle_beta   74.19208081
_cell_angle_gamma   133.65202141
_symmetry_Int_Tables_number   1
_chemical_formula_structural   Hg4SbO6
_chemical_formula_sum   'Hg4 Sb1 O6'
_cell_volume   188.52770384
_cell_formula_units_Z   1
loop_
 _symmetry_equiv_pos_site_id
 _symmetry_equiv_pos_as_xyz
  1  'x, y, z'
loop_
 _atom_site_type_symbol
 _atom_site_label
 _atom_site_symmetry_multiplicity
 _atom_site_fract_x
 _atom_site_fract_y
 _atom_site_fract_z
 _atom_site_occupancy
  Hg  Hg0  1  0.06489200  0.62236700  0.95679600  1
  Hg  Hg1  1  0.24422200  0.45534100  0.94500000  1
  Hg  Hg2  1  0.45534100  0.24422200  0.94500000  1
  Hg  Hg3  1  0.62236700  0.06489200  0.95679600  1
  Sb  Sb0  1  0.85238800  0.85238800  0.94206900  1
  O  O0  1  0.17365900  0.96484200  0.88838200  1
  O  O1  1  0.09815900  0.09815900  0.38524600  1
  O  O2  1  0.96484200  0.17365900  0.88838200  1
  O  O3  1  0.74094400  0.53316700  0.99117400  1
  O  O4  1  0.53316700  0.74094400  0.99117400  1
  O  O5  1  0.60801400  0.60801400  0.49919700  1
loop_
_geom_bond_atom_site_label_1
_geom_bond_atom_site_label_2
_geom_bond_distance
_geom_bond_site_symmetry_2
Hg0 O3 2.267955 1_455
Hg0 O0 2.279295 1_555
Hg1 O2 2.105166 1_455
Hg1 O4 2.112876 1_555
Hg1 O1 2.287150 1_556
Hg1 O5 2.303081 1_555
Hg2 O0 2.105166 1_545
Hg2 O3 2.112876 1_555
Hg2 O1 2.287150 1_556
Hg2 O5 2.303081 1_555
Hg3 O4 2.267955 1_545
Hg3 O2 2.279295 1_555
O0 Sb0 2.110300 1_455
O1 Sb0 1.957317 1_445
O2 Sb0 2.110300 1_545
O3 Sb0 2.105521 1_555
O4 Sb0 2.105521 1_555
O5 Sb0 1.959470 1_554
