# generated using pymatgen
data_DyCrGeO5
_symmetry_space_group_name_H-M   'P 1'
_cell_length_a   5.81111500
_cell_length_b   7.45330400
_cell_length_c   8.48639000
_cell_angle_alpha   90.00000000
_cell_angle_beta   90.00000000
_cell_angle_gamma   90.00000000
_symmetry_Int_Tables_number   1
_chemical_formula_structural   DyCrGeO5
_chemical_formula_sum   'Dy4 Cr4 Ge4 O20'
_cell_volume   367.56258032
_cell_formula_units_Z   4
loop_
 _symmetry_equiv_pos_site_id
 _symmetry_equiv_pos_as_xyz
  1  'x, y, z'
loop_
 _atom_site_type_symbol
 _atom_site_label
 _atom_site_symmetry_multiplicity
 _atom_site_fract_x
 _atom_site_fract_y
 _atom_site_fract_z
 _atom_site_occupancy
  Dy  Dy0  1  0.50000000  0.35664900  0.32657000  1
  Dy  Dy1  1  0.50000000  0.64335100  0.67343000  1
  Dy  Dy2  1  0.50000000  0.14335100  0.82657000  1
  Dy  Dy3  1  0.50000000  0.85664900  0.17343000  1
  Cr  Cr0  1  0.24957300  0.00000000  0.50000000  1
  Cr  Cr1  1  0.75042800  0.00000000  0.50000000  1
  Cr  Cr2  1  0.75042800  0.50000000  0.00000000  1
  Cr  Cr3  1  0.24957300  0.50000000  0.00000000  1
  Ge  Ge0  1  0.00000000  0.11712700  0.14449700  1
  Ge  Ge1  1  0.00000000  0.88287300  0.85550300  1
  Ge  Ge2  1  0.00000000  0.38287300  0.64449700  1
  Ge  Ge3  1  0.00000000  0.61712700  0.35550300  1
  O  O0  1  0.25012800  0.11167300  0.28259800  1
  O  O1  1  0.74987200  0.88832700  0.71740200  1
  O  O2  1  0.25012800  0.88832700  0.71740200  1
  O  O3  1  0.74987200  0.38832700  0.78259800  1
  O  O4  1  0.74987200  0.11167300  0.28259800  1
  O  O5  1  0.25012800  0.61167300  0.21740200  1
  O  O6  1  0.74987200  0.61167300  0.21740200  1
  O  O7  1  0.25012800  0.38832700  0.78259800  1
  O  O8  1  0.00000000  0.34354000  0.08177400  1
  O  O9  1  0.00000000  0.65646000  0.91822600  1
  O  O10  1  0.00000000  0.15646000  0.58177400  1
  O  O11  1  0.00000000  0.84354000  0.41822600  1
  O  O12  1  0.50000000  0.33154300  0.05759400  1
  O  O13  1  0.50000000  0.66845700  0.94240600  1
  O  O14  1  0.50000000  0.16845700  0.55759400  1
  O  O15  1  0.50000000  0.83154300  0.44240600  1
  O  O16  1  0.21200800  0.00000000  0.00000000  1
  O  O17  1  0.78799200  0.00000000  0.00000000  1
  O  O18  1  0.78799200  0.50000000  0.50000000  1
  O  O19  1  0.21200800  0.50000000  0.50000000  1
loop_
_geom_bond_atom_site_label_1
_geom_bond_atom_site_label_2
_geom_bond_distance
_geom_bond_site_symmetry_2
Dy0 O12 2.290292 1_555
Dy0 O4 2.362519 1_555
Dy0 O0 2.362519 1_555
Dy0 O14 2.410649 1_555
Dy0 O18 2.471543 1_555
Dy0 O19 2.471543 1_555
Dy0 O6 2.565079 1_555
Dy0 O5 2.565079 1_555
Dy1 O13 2.290292 1_555
Dy1 O1 2.362519 1_555
Dy1 O2 2.362519 1_555
Dy1 O15 2.410649 1_555
Dy1 O18 2.471543 1_555
Dy1 O19 2.471543 1_555
Dy1 O3 2.565079 1_555
Dy1 O7 2.565079 1_555
Dy2 O14 2.290292 1_555
Dy2 O3 2.362519 1_555
Dy2 O7 2.362519 1_555
Dy2 O12 2.410649 1_556
Dy2 O17 2.471543 1_556
Dy2 O16 2.471543 1_556
Dy2 O1 2.565079 1_545
Dy2 O2 2.565079 1_545
Dy3 O15 2.290292 1_555
Dy3 O6 2.362519 1_555
Dy3 O5 2.362519 1_555
Dy3 O13 2.410649 1_554
Dy3 O17 2.471543 1_565
Dy3 O16 2.471543 1_565
Dy3 O4 2.565079 1_565
Dy3 O0 2.565079 1_565
Cr0 O14 1.983206 1_555
Cr0 O15 1.983206 1_545
Cr0 O11 1.986163 1_545
Cr0 O10 1.986163 1_555
Cr0 O2 2.024020 1_545
Cr0 O0 2.024020 1_555
Cr1 O14 1.983211 1_555
Cr1 O15 1.983211 1_545
Cr1 O11 1.986159 1_645
Cr1 O10 1.986159 1_655
Cr1 O1 2.024020 1_545
Cr1 O4 2.024020 1_555
Cr2 O13 1.983211 1_554
Cr2 O12 1.983211 1_555
Cr2 O8 1.986159 1_655
Cr2 O9 1.986159 1_654
Cr2 O6 2.024020 1_555
Cr2 O3 2.024020 1_554
Cr3 O13 1.983206 1_554
Cr3 O12 1.983206 1_555
Cr3 O8 1.986163 1_555
Cr3 O9 1.986163 1_554
Cr3 O5 2.024020 1_555
Cr3 O7 2.024020 1_554
Ge0 O8 1.769484 1_555
Ge0 O0 1.867596 1_555
Ge0 O4 1.867596 1_455
Ge0 O16 1.945158 1_555
Ge0 O17 1.945158 1_455
Ge1 O9 1.769484 1_555
Ge1 O2 1.867596 1_555
Ge1 O1 1.867596 1_455
Ge1 O16 1.945158 1_566
Ge1 O17 1.945158 1_466
Ge2 O10 1.769484 1_555
Ge2 O7 1.867596 1_555
Ge2 O3 1.867596 1_455
Ge2 O19 1.945158 1_555
Ge2 O18 1.945158 1_455
Ge3 O11 1.769484 1_555
Ge3 O5 1.867596 1_555
Ge3 O6 1.867596 1_455
Ge3 O19 1.945158 1_555
Ge3 O18 1.945158 1_455
