# generated using pymatgen
data_Mg5Si6
_symmetry_space_group_name_H-M   'P 1'
_cell_length_a   15.27600491
_cell_length_b   15.27600491
_cell_length_c   7.01685444
_cell_angle_alpha   85.45082199
_cell_angle_beta   85.45082199
_cell_angle_gamma   14.20403849
_symmetry_Int_Tables_number   1
_chemical_formula_structural   Mg5Si6
_chemical_formula_sum   'Mg10 Si12'
_cell_volume   400.49946024
_cell_formula_units_Z   2
loop_
 _symmetry_equiv_pos_site_id
 _symmetry_equiv_pos_as_xyz
  1  'x, y, z'
loop_
 _atom_site_type_symbol
 _atom_site_label
 _atom_site_symmetry_multiplicity
 _atom_site_fract_x
 _atom_site_fract_y
 _atom_site_fract_z
 _atom_site_occupancy
  Mg  Mg0  1  0.21055000  0.21055000  0.96579800  1
  Mg  Mg1  1  0.42474300  0.42474300  0.48394000  1
  Mg  Mg2  1  0.97468600  0.97468600  0.17617700  1
  Mg  Mg3  1  0.32845300  0.32845300  0.90835700  1
  Mg  Mg4  1  0.75810000  0.75810000  0.67029900  1
  Mg  Mg5  1  0.55566200  0.55566200  0.24653800  1
  Mg  Mg6  1  0.00436400  0.00436400  0.57179000  1
  Mg  Mg7  1  0.85400100  0.85400100  0.24087800  1
  Mg  Mg8  1  0.67719300  0.67719300  0.29974300  1
  Mg  Mg9  1  0.64090900  0.64090900  0.83165100  1
  Si  Si0  1  0.12230400  0.12230400  0.12730600  1
  Si  Si1  1  0.19093000  0.19093000  0.58479000  1
  Si  Si2  1  0.92834500  0.92834500  0.83476300  1
  Si  Si3  1  0.41201000  0.41201000  0.06662400  1
  Si  Si4  1  0.05405300  0.05405300  0.92668600  1
  Si  Si5  1  0.25262000  0.25262000  0.32052700  1
  Si  Si6  1  0.31956800  0.31956800  0.51013900  1
  Si  Si7  1  0.56903100  0.56903100  0.65282100  1
  Si  Si8  1  0.11270000  0.11270000  0.48387800  1
  Si  Si9  1  0.86289700  0.86289700  0.63767800  1
  Si  Si10  1  0.76815900  0.76815900  0.09270500  1
  Si  Si11  1  0.49202700  0.49202700  0.87054700  1
loop_
_geom_bond_atom_site_label_1
_geom_bond_atom_site_label_2
_geom_bond_distance
_geom_bond_site_symmetry_2
Mg0 Si10 2.767520 1_456
Mg0 Si10 2.767520 1_546
Mg0 Si1 2.784874 1_555
Mg0 Si0 2.820894 1_556
Mg0 Si5 2.886144 1_556
Mg1 Si9 2.814812 1_455
Mg1 Si9 2.814812 1_545
Mg1 Si3 2.984015 1_555
Mg1 Si2 3.111562 1_455
Mg1 Si2 3.111562 1_545
Mg1 Mg2 3.162371 1_545
Mg1 Mg2 3.162371 1_455
Mg1 Si6 3.179246 1_555
Mg2 Si3 2.828819 1_565
Mg2 Si3 2.828819 1_655
Mg2 Si4 2.860288 1_664
Mg2 Si2 2.872467 1_554
Mg2 Si11 2.874437 1_564
Mg2 Si11 2.874437 1_654
Mg2 Mg6 2.985766 1_665
Mg2 Mg5 3.167270 1_655
Mg2 Mg5 3.167270 1_565
Mg3 Si9 2.819202 1_455
Mg3 Si9 2.819202 1_545
Mg3 Si6 2.828542 1_555
Mg3 Si3 2.846112 1_556
Mg3 Si10 2.864230 1_546
Mg3 Si10 2.864230 1_456
Mg4 Si6 2.822787 1_565
Mg4 Si6 2.822787 1_655
Mg4 Si1 2.875668 1_565
Mg4 Si1 2.875668 1_655
Mg4 Si10 3.003759 1_556
Mg4 Si5 3.111824 1_565
Mg4 Si5 3.111824 1_655
Mg4 Si9 3.167128 1_555
Mg5 Si0 2.842348 1_565
Mg5 Si0 2.842348 1_655
Mg5 Si7 2.911394 1_555
Mg5 Si4 2.936680 1_564
Mg5 Si4 2.936680 1_654
Mg5 Si8 3.129099 1_655
Mg5 Si8 3.129099 1_565
Mg6 Si7 2.812883 1_455
Mg6 Si7 2.812883 1_545
Mg6 Si11 2.824226 1_455
Mg6 Si11 2.824226 1_545
Mg6 Si2 2.834925 1_445
Mg6 Si4 3.011719 1_555
Mg7 Si3 2.794881 1_655
Mg7 Si3 2.794881 1_565
Mg7 Si6 2.812698 1_655
Mg7 Si6 2.812698 1_565
Mg7 Si9 2.818695 1_555
Mg7 Si10 2.878658 1_555
Mg8 Si1 2.806104 1_655
Mg8 Si1 2.806104 1_565
Mg8 Si0 2.849948 1_565
Mg8 Si0 2.849948 1_655
Mg8 Si8 2.942060 1_565
Mg8 Si8 2.942060 1_655
Mg8 Si5 2.978415 1_655
Mg8 Si5 2.978415 1_565
Mg8 Si10 3.012621 1_555
Mg9 Si7 2.600093 1_555
Mg9 Si0 2.828783 1_656
Mg9 Si0 2.828783 1_566
Mg9 Si1 2.906450 1_655
Mg9 Si1 2.906450 1_565
Si0 Si8 2.495676 1_555
Si0 Si4 2.594019 1_554
Si1 Si5 2.526265 1_555
Si1 Si8 2.528839 1_555
Si2 Si9 2.507641 1_555
Si2 Si3 2.516040 1_566
Si2 Si3 2.516040 1_656
Si4 Si7 2.706771 1_455
Si4 Si7 2.706771 1_545
Si5 Si6 2.514271 1_555
Si6 Si9 2.506296 1_455
Si6 Si9 2.506296 1_545
Si7 Si8 2.544463 1_565
Si7 Si8 2.544463 1_655
Si10 Si5 2.494821 1_565
Si10 Si5 2.494821 1_655
Si11 Si7 2.685912 1_555
Si11 Si3 2.691561 1_556
Si11 Si4 2.716039 1_565
Si11 Si4 2.716039 1_655
Si11 Si2 2.726750 1_545
Si11 Si2 2.726750 1_455
