# generated using pymatgen
data_Nd(YS2)3
_symmetry_space_group_name_H-M   'P 1'
_cell_length_a   3.98995283
_cell_length_b   11.07743317
_cell_length_c   11.35410924
_cell_angle_alpha   71.23857404
_cell_angle_beta   90.00000000
_cell_angle_gamma   90.00000000
_symmetry_Int_Tables_number   1
_chemical_formula_structural   Nd(YS2)3
_chemical_formula_sum   'Nd2 Y6 S12'
_cell_volume   475.16943199
_cell_formula_units_Z   2
loop_
 _symmetry_equiv_pos_site_id
 _symmetry_equiv_pos_as_xyz
  1  'x, y, z'
loop_
 _atom_site_type_symbol
 _atom_site_label
 _atom_site_symmetry_multiplicity
 _atom_site_fract_x
 _atom_site_fract_y
 _atom_site_fract_z
 _atom_site_occupancy
  Nd  Nd0  1  0.75000000  0.54835125  0.80613039  1
  Nd  Nd1  1  0.25000000  0.45164875  0.19386961  1
  Y  Y0  1  0.75000000  0.18063306  0.99793760  1
  Y  Y1  1  0.25000000  0.81936694  0.00206240  1
  Y  Y2  1  0.75000000  0.93979164  0.66740031  1
  Y  Y3  1  0.25000000  0.06020836  0.33259969  1
  Y  Y4  1  0.75000000  0.66129557  0.41374006  1
  Y  Y5  1  0.25000000  0.33870443  0.58625994  1
  S  S0  1  0.75000000  0.97790573  0.88796812  1
  S  S1  1  0.25000000  0.02209427  0.11203188  1
  S  S2  1  0.75000000  0.30522258  0.74892580  1
  S  S3  1  0.25000000  0.69477742  0.25107420  1
  S  S4  1  0.75000000  0.89523972  0.44081277  1
  S  S5  1  0.25000000  0.10476028  0.55918723  1
  S  S6  1  0.75000000  0.41793314  0.40543987  1
  S  S7  1  0.25000000  0.58206686  0.59456013  1
  S  S8  1  0.75000000  0.23673405  0.22711561  1
  S  S9  1  0.25000000  0.76326595  0.77288439  1
  S  S10  1  0.75000000  0.61658765  0.03693315  1
  S  S11  1  0.25000000  0.38341235  0.96306685  1
loop_
_geom_bond_atom_site_label_1
_geom_bond_atom_site_label_2
_geom_bond_distance
_geom_bond_site_symmetry_2
Nd0 S11 2.898115 1_555
Nd0 S11 2.898115 1_655
Nd0 S10 2.951759 1_556
Nd0 S2 2.966588 1_555
Nd0 S9 3.035144 1_555
Nd0 S9 3.035144 1_655
Nd0 S7 3.051693 1_555
Nd0 S7 3.051693 1_655
Nd1 S10 2.898115 1_555
Nd1 S10 2.898115 1_455
Nd1 S11 2.951759 1_554
Nd1 S3 2.966588 1_555
Nd1 S8 3.035144 1_455
Nd1 S8 3.035144 1_555
Nd1 S6 3.051693 1_455
Nd1 S6 3.051693 1_555
S0 Y2 2.670240 1_555
S0 Y1 2.697943 1_556
S0 Y1 2.697943 1_656
S0 Y0 2.899287 1_565
S1 Y3 2.670240 1_555
S1 Y0 2.697943 1_554
S1 Y0 2.697943 1_454
S1 Y1 2.899287 1_545
S2 Y5 2.662328 1_655
S2 Y5 2.662328 1_555
S2 Y0 2.718162 1_555
S3 Y4 2.662328 1_455
S3 Y4 2.662328 1_555
S3 Y1 2.718162 1_555
S4 Y4 2.706063 1_555
S4 Y3 2.717488 1_565
S4 Y3 2.717488 1_665
S4 Y2 2.771115 1_555
S5 Y5 2.706063 1_555
S5 Y2 2.717488 1_445
S5 Y2 2.717488 1_545
S5 Y3 2.771115 1_555
S6 Y4 2.727602 1_555
S6 Y5 2.793951 1_555
S6 Y5 2.793951 1_655
S7 Y5 2.727602 1_555
S7 Y4 2.793951 1_455
S7 Y4 2.793951 1_555
S8 Y3 2.780584 1_655
S8 Y3 2.780584 1_555
S8 Y0 2.863110 1_554
S9 Y2 2.780584 1_455
S9 Y2 2.780584 1_555
S9 Y1 2.863110 1_556
S10 Y1 2.934340 1_655
S10 Y1 2.934340 1_555
S11 Y0 2.934340 1_455
S11 Y0 2.934340 1_555
