# generated using pymatgen
data_Cs3Ag2Sb3S8
_symmetry_space_group_name_H-M   'P 1'
_cell_length_a   7.39613100
_cell_length_b   10.84731800
_cell_length_c   13.00784289
_cell_angle_alpha   77.27955846
_cell_angle_beta   90.00000000
_cell_angle_gamma   90.00000000
_symmetry_Int_Tables_number   1
_chemical_formula_structural   Cs3Ag2Sb3S8
_chemical_formula_sum   'Cs6 Ag4 Sb6 S16'
_cell_volume   1017.98166247
_cell_formula_units_Z   2
loop_
 _symmetry_equiv_pos_site_id
 _symmetry_equiv_pos_as_xyz
  1  'x, y, z'
loop_
 _atom_site_type_symbol
 _atom_site_label
 _atom_site_symmetry_multiplicity
 _atom_site_fract_x
 _atom_site_fract_y
 _atom_site_fract_z
 _atom_site_occupancy
  Cs  Cs0  1  0.25000000  0.45769200  0.65773400  1
  Cs  Cs1  1  0.75000000  0.54230800  0.34226600  1
  Cs  Cs2  1  0.25000000  0.58169100  0.07418500  1
  Cs  Cs3  1  0.75000000  0.41830900  0.92581500  1
  Cs  Cs4  1  0.25000000  0.14530200  0.44826900  1
  Cs  Cs5  1  0.75000000  0.85469800  0.55173100  1
  Ag  Ag0  1  0.52822500  0.87273500  0.10182300  1
  Ag  Ag1  1  0.02822500  0.12726500  0.89817700  1
  Ag  Ag2  1  0.47177500  0.12726500  0.89817700  1
  Ag  Ag3  1  0.97177500  0.87273500  0.10182300  1
  Sb  Sb0  1  0.75000000  0.13246200  0.20941600  1
  Sb  Sb1  1  0.25000000  0.86753800  0.79058400  1
  Sb  Sb2  1  0.25000000  0.17574600  0.11476200  1
  Sb  Sb3  1  0.75000000  0.82425400  0.88523800  1
  Sb  Sb4  1  0.25000000  0.77097700  0.37294800  1
  Sb  Sb5  1  0.75000000  0.22902300  0.62705200  1
  S  S0  1  0.75000000  0.08908700  0.02670100  1
  S  S1  1  0.25000000  0.91091300  0.97329900  1
  S  S2  1  0.49879200  0.29547600  0.18482700  1
  S  S3  1  0.99879200  0.70452400  0.81517300  1
  S  S4  1  0.50120800  0.70452400  0.81517300  1
  S  S5  1  0.00120800  0.29547600  0.18482700  1
  S  S6  1  0.25000000  0.30246400  0.93662500  1
  S  S7  1  0.75000000  0.69753600  0.06337500  1
  S  S8  1  0.51628200  0.87528300  0.29502800  1
  S  S9  1  0.01628200  0.12471700  0.70497200  1
  S  S10  1  0.48371800  0.12471700  0.70497200  1
  S  S11  1  0.98371800  0.87528300  0.29502800  1
  S  S12  1  0.25000000  0.55747800  0.36005800  1
  S  S13  1  0.75000000  0.44252200  0.63994200  1
  S  S14  1  0.25000000  0.79647600  0.54797300  1
  S  S15  1  0.75000000  0.20352400  0.45202700  1
loop_
_geom_bond_atom_site_label_1
_geom_bond_atom_site_label_2
_geom_bond_distance
_geom_bond_site_symmetry_2
Cs0 S14 3.637678 1_555
Cs0 S6 3.647715 1_555
Cs0 S13 3.711213 1_555
Cs0 S13 3.711213 1_455
Cs0 S12 3.784069 1_555
Cs0 S9 3.928611 1_555
Cs0 S10 3.928611 1_555
Cs0 S4 4.150868 1_555
Cs0 S3 4.150868 1_455
Cs1 S15 3.637678 1_555
Cs1 S7 3.647715 1_555
Cs1 S12 3.711213 1_655
Cs1 S12 3.711213 1_555
Cs1 S13 3.784069 1_555
Cs1 S11 3.928611 1_555
Cs1 S8 3.928611 1_555
Cs1 S2 4.150868 1_555
Cs1 S5 4.150868 1_655
Cs2 S1 3.523007 1_554
Cs2 S5 3.623322 1_555
Cs2 S2 3.623322 1_555
Cs2 S12 3.669712 1_555
Cs2 S4 3.821232 1_554
Cs2 S3 3.821232 1_454
Cs2 S6 3.842214 1_554
Cs2 S7 3.898296 1_455
Cs2 S7 3.898296 1_555
Cs3 S0 3.523007 1_556
Cs3 S3 3.623322 1_555
Cs3 S4 3.623322 1_555
Cs3 S13 3.669712 1_555
Cs3 S2 3.821232 1_556
Cs3 S5 3.821232 1_656
Cs3 S7 3.842214 1_556
Cs3 S6 3.898296 1_655
Cs3 S6 3.898296 1_555
Cs4 S14 3.719977 1_545
Cs4 S10 3.722839 1_555
Cs4 S9 3.722839 1_555
Cs4 S15 3.753736 1_555
Cs4 S15 3.753736 1_455
Cs4 S5 3.914620 1_555
Cs4 S2 3.914620 1_555
Cs5 S15 3.719977 1_565
Cs5 S11 3.722839 1_555
Cs5 S8 3.722839 1_555
Cs5 S14 3.753736 1_655
Cs5 S14 3.753736 1_555
Cs5 S3 3.914620 1_555
Cs5 S4 3.914620 1_555
Ag0 S8 2.520958 1_555
Ag0 S1 2.626038 1_554
Ag0 S7 2.640241 1_555
Ag0 S0 2.853612 1_565
Ag0 Cs2 3.851042 1_555
Ag1 S9 2.520958 1_555
Ag1 S0 2.626038 1_456
Ag1 S6 2.640241 1_555
Ag1 S1 2.853612 1_545
Ag1 Cs3 3.851042 1_455
Ag2 S10 2.520958 1_555
Ag2 S0 2.626038 1_556
Ag2 S6 2.640241 1_555
Ag2 S1 2.853612 1_545
Ag2 Cs3 3.851042 1_555
Ag3 S11 2.520958 1_555
Ag3 S1 2.626038 1_654
Ag3 S7 2.640241 1_555
Ag3 S0 2.853612 1_565
Ag3 Cs2 3.851042 1_655
S0 Sb0 2.522434 1_555
S1 Sb1 2.522434 1_555
S2 Sb2 2.534685 1_555
S2 Sb0 2.536145 1_555
S3 Sb3 2.534685 1_555
S3 Sb1 2.536145 1_655
S4 Sb3 2.534685 1_555
S4 Sb1 2.536145 1_555
S5 Sb2 2.534685 1_555
S5 Sb0 2.536145 1_455
S6 Sb2 2.419924 1_556
S7 Sb3 2.419924 1_554
S8 Sb4 2.383528 1_555
S9 Sb5 2.383528 1_455
S10 Sb5 2.383528 1_555
S11 Sb4 2.383528 1_655
S12 Sb4 2.358490 1_555
S13 Sb5 2.358490 1_555
S14 Sb4 2.353122 1_555
S15 Sb5 2.353122 1_555
