# generated using pymatgen
data_SrCaCrF7
_symmetry_space_group_name_H-M   'P 1'
_cell_length_a   7.41077100
_cell_length_b   8.09472900
_cell_length_c   10.01235800
_cell_angle_alpha   90.00000000
_cell_angle_beta   90.00000000
_cell_angle_gamma   90.00000000
_symmetry_Int_Tables_number   1
_chemical_formula_structural   SrCaCrF7
_chemical_formula_sum   'Sr4 Ca4 Cr4 F28'
_cell_volume   600.62316323
_cell_formula_units_Z   4
loop_
 _symmetry_equiv_pos_site_id
 _symmetry_equiv_pos_as_xyz
  1  'x, y, z'
loop_
 _atom_site_type_symbol
 _atom_site_label
 _atom_site_symmetry_multiplicity
 _atom_site_fract_x
 _atom_site_fract_y
 _atom_site_fract_z
 _atom_site_occupancy
  Sr  Sr0  1  0.25000000  0.80327100  0.39429800  1
  Sr  Sr1  1  0.75000000  0.19672900  0.60570200  1
  Sr  Sr2  1  0.75000000  0.69672900  0.89429800  1
  Sr  Sr3  1  0.25000000  0.30327100  0.10570200  1
  Ca  Ca0  1  0.25000000  0.61866300  0.74337200  1
  Ca  Ca1  1  0.75000000  0.38133700  0.25662800  1
  Ca  Ca2  1  0.75000000  0.88133700  0.24337200  1
  Ca  Ca3  1  0.25000000  0.11866300  0.75662800  1
  Cr  Cr0  1  0.25000000  0.81464600  0.05475400  1
  Cr  Cr1  1  0.75000000  0.18535400  0.94524600  1
  Cr  Cr2  1  0.75000000  0.68535400  0.55475400  1
  Cr  Cr3  1  0.25000000  0.31464600  0.44524600  1
  F  F0  1  0.25000000  0.60136400  0.13736700  1
  F  F1  1  0.75000000  0.39863600  0.86263300  1
  F  F2  1  0.75000000  0.89863600  0.63736700  1
  F  F3  1  0.25000000  0.10136400  0.36263300  1
  F  F4  1  0.25000000  0.53673800  0.52170800  1
  F  F5  1  0.75000000  0.46326200  0.47829200  1
  F  F6  1  0.75000000  0.96326200  0.02170800  1
  F  F7  1  0.25000000  0.03673800  0.97829200  1
  F  F8  1  0.07712300  0.74101300  0.91985800  1
  F  F9  1  0.92287700  0.25898700  0.08014200  1
  F  F10  1  0.92287700  0.75898700  0.41985800  1
  F  F11  1  0.57712300  0.25898700  0.08014200  1
  F  F12  1  0.07712300  0.24101300  0.58014200  1
  F  F13  1  0.42287700  0.74101300  0.91985800  1
  F  F14  1  0.42287700  0.24101300  0.58014200  1
  F  F15  1  0.57712300  0.75898700  0.41985800  1
  F  F16  1  0.25000000  0.87391900  0.64142500  1
  F  F17  1  0.75000000  0.12608100  0.35857500  1
  F  F18  1  0.75000000  0.62608100  0.14142500  1
  F  F19  1  0.25000000  0.37391900  0.85857500  1
  F  F20  1  0.56559600  0.62133800  0.68467500  1
  F  F21  1  0.43440400  0.37866200  0.31532500  1
  F  F22  1  0.43440400  0.87866200  0.18467500  1
  F  F23  1  0.06559600  0.37866200  0.31532500  1
  F  F24  1  0.56559600  0.12133800  0.81532500  1
  F  F25  1  0.93440400  0.62133800  0.68467500  1
  F  F26  1  0.93440400  0.12133800  0.81532500  1
  F  F27  1  0.06559600  0.87866200  0.18467500  1
loop_
_geom_bond_atom_site_label_1
_geom_bond_atom_site_label_2
_geom_bond_distance
_geom_bond_site_symmetry_2
Ca0 F19 2.292456 1_555
Ca0 F16 2.304602 1_555
Ca0 F4 2.316339 1_555
Ca0 F13 2.396801 1_555
Ca0 F8 2.396801 1_555
Ca0 F25 2.411615 1_455
Ca0 F20 2.411615 1_555
Ca1 F18 2.292456 1_555
Ca1 F17 2.304602 1_555
Ca1 F5 2.316339 1_555
Ca1 F9 2.396801 1_555
Ca1 F11 2.396801 1_555
Ca1 F23 2.411615 1_655
Ca1 F21 2.411615 1_555
Ca2 F17 2.292456 1_565
Ca2 F18 2.304602 1_555
Ca2 F6 2.316339 1_555
Ca2 F10 2.396801 1_555
Ca2 F15 2.396801 1_555
Ca2 F27 2.411615 1_655
Ca2 F22 2.411615 1_555
Ca3 F16 2.292456 1_545
Ca3 F19 2.304602 1_555
Ca3 F7 2.316339 1_555
Ca3 F14 2.396801 1_555
Ca3 F12 2.396801 1_555
Ca3 F24 2.411615 1_555
Ca3 F26 2.411615 1_455
Cr0 F0 1.914378 1_555
Cr0 F7 1.953992 1_564
Cr0 F8 1.954688 1_554
Cr0 F13 1.954688 1_554
Cr0 F22 1.956572 1_555
Cr0 F27 1.956572 1_555
Cr1 F1 1.914378 1_555
Cr1 F6 1.953992 1_546
Cr1 F9 1.954688 1_556
Cr1 F11 1.954688 1_556
Cr1 F24 1.956572 1_555
Cr1 F26 1.956572 1_555
Cr2 F2 1.914378 1_555
Cr2 F5 1.953992 1_555
Cr2 F10 1.954688 1_555
Cr2 F15 1.954688 1_555
Cr2 F25 1.956572 1_555
Cr2 F20 1.956572 1_555
Cr3 F3 1.914378 1_555
Cr3 F4 1.953992 1_555
Cr3 F12 1.954688 1_555
Cr3 F14 1.954688 1_555
Cr3 F21 1.956572 1_555
Cr3 F23 1.956572 1_555
F0 Sr3 2.433721 1_555
F0 Sr0 3.047767 1_555
F1 Sr2 2.433721 1_555
F1 Sr1 3.047767 1_555
F2 Sr1 2.433721 1_565
F2 Sr2 3.047767 1_555
F3 Sr0 2.433721 1_545
F3 Sr3 3.047767 1_555
F4 Sr0 2.506433 1_555
F5 Sr1 2.506433 1_555
F6 Sr2 2.506433 1_554
F7 Sr3 2.506433 1_556
F8 Sr2 2.463920 1_455
F9 Sr3 2.463920 1_655
F10 Sr0 2.463920 1_655
F11 Sr3 2.463920 1_555
F12 Sr1 2.463920 1_455
F13 Sr2 2.463920 1_555
F14 Sr1 2.463920 1_555
F15 Sr0 2.463920 1_555
F16 Sr0 2.539552 1_555
F17 Sr1 2.539552 1_555
F18 Sr2 2.539552 1_554
F19 Sr3 2.539552 1_556
F20 Sr2 2.577791 1_555
F21 Sr3 2.577791 1_555
F22 Sr0 2.577791 1_555
F23 Sr3 2.577791 1_555
F24 Sr1 2.577791 1_555
F25 Sr2 2.577791 1_555
F26 Sr1 2.577791 1_555
F27 Sr0 2.577791 1_555
