# generated using pymatgen
data_Li5V3P8O29
_symmetry_space_group_name_H-M   'P 1'
_cell_length_a   9.80450299
_cell_length_b   9.75066407
_cell_length_c   14.09089778
_cell_angle_alpha   89.30400114
_cell_angle_beta   89.89857042
_cell_angle_gamma   59.95941423
_symmetry_Int_Tables_number   1
_chemical_formula_structural   Li5V3P8O29
_chemical_formula_sum   'Li10 V6 P16 O58'
_cell_volume   1166.04117553
_cell_formula_units_Z   2
loop_
 _symmetry_equiv_pos_site_id
 _symmetry_equiv_pos_as_xyz
  1  'x, y, z'
loop_
 _atom_site_type_symbol
 _atom_site_label
 _atom_site_symmetry_multiplicity
 _atom_site_fract_x
 _atom_site_fract_y
 _atom_site_fract_z
 _atom_site_occupancy
  Li  Li0  1  0.89878571  0.76053253  0.06123457  1
  Li  Li1  1  0.76170141  0.90085573  0.55987560  1
  Li  Li2  1  0.90821050  0.32611897  0.55788260  1
  Li  Li3  1  0.76472911  0.32900480  0.05754000  1
  Li  Li4  1  0.33817613  0.89857684  0.05883664  1
  Li  Li5  1  0.66565271  0.23437560  0.44008635  1
  Li  Li6  1  0.34025667  0.75785638  0.56098301  1
  Li  Li7  1  0.09676053  0.23536274  0.93960656  1
  Li  Li8  1  0.97830805  0.97696605  0.99636429  1
  Li  Li9  1  0.04436896  0.97705496  0.49652613  1
  V  V0  1  0.56377319  0.43803624  0.24513784  1
  V  V1  1  0.43560731  0.56161615  0.75468501  1
  V  V2  1  0.56309100  0.00101895  0.75206173  1
  V  V3  1  0.43308935  0.00268678  0.25151273  1
  V  V4  1  0.00087196  0.56726162  0.25344849  1
  V  V5  1  0.00001143  0.43832448  0.74398051  1
  P  P0  1  0.91211111  0.77386427  0.84355559  1
  P  P1  1  0.77143032  0.91408160  0.34324015  1
  P  P2  1  0.91195153  0.30984958  0.34283600  1
  P  P3  1  0.66631162  0.67158732  0.13013107  1
  P  P4  1  0.66215857  0.66874509  0.63082884  1
  P  P5  1  0.77996487  0.30903068  0.84156132  1
  P  P6  1  0.68665561  0.22577020  0.65971578  1
  P  P7  1  0.31122734  0.91406371  0.84417848  1
  P  P8  1  0.69304184  0.08510937  0.15862619  1
  P  P9  1  0.31287359  0.77339142  0.34388089  1
  P  P10  1  0.21816721  0.69774416  0.16086087  1
  P  P11  1  0.33748746  0.33203849  0.36795763  1
  P  P12  1  0.33269953  0.32975158  0.86820992  1
  P  P13  1  0.08388163  0.70104222  0.66055532  1
  P  P14  1  0.22292985  0.08476729  0.65883933  1
  P  P15  1  0.08670129  0.22807645  0.16008048  1
  O  O0  1  0.98754617  0.80516598  0.57954197  1
  O  O1  1  0.91250087  0.74526471  0.33679985  1
  O  O2  1  0.79959806  0.99031282  0.07980325  1
  O  O3  1  0.74087924  0.91636975  0.82813322  1
  O  O4  1  0.91366182  0.61822792  0.83039707  1
  O  O5  1  0.81167085  0.67915931  0.16935809  1
  O  O6  1  0.91214628  0.46593356  0.33115515  1
  O  O7  1  0.00103049  0.22817337  0.07110709  1
  O  O8  1  0.92274683  0.33723115  0.83170357  1
  O  O9  1  0.67169432  0.81274370  0.67353154  1
  O  O10  1  0.61620131  0.91113691  0.32656439  1
  O  O11  1  0.81082938  0.51091241  0.66602684  1
  O  O12  1  0.65747151  0.68056631  0.02413538  1
  O  O13  1  0.65512863  0.67918958  0.52479978  1
  O  O14  1  0.67825774  0.51266281  0.16754588  1
  O  O15  1  0.46944267  0.91377013  0.82667355  1
  O  O16  1  0.51242237  0.81440035  0.17360187  1
  O  O17  1  0.74104448  0.33824847  0.33343955  1
  O  O18  1  0.79612986  0.19920197  0.75176476  1
  O  O19  1  0.77471603  0.22327836  0.57092077  1
  O  O20  1  0.79806342  0.21950808  0.93244956  1
  O  O21  1  0.62496536  0.46706806  0.83123902  1
  O  O22  1  0.51209728  0.67224921  0.67347814  1
  O  O23  1  0.65887102  0.25824694  0.15486991  1
  O  O24  1  0.46698858  0.61785894  0.33132082  1
  O  O25  1  0.34037870  0.91720990  0.32804123  1
  O  O26  1  0.78851102  0.01408371  0.25790217  1
  O  O27  1  0.76804327  0.99582755  0.43394486  1
  O  O28  1  0.21328649  0.98864278  0.58002675  1
  O  O29  1  0.65974343  0.08123544  0.65975512  1
  O  O30  1  0.53076969  0.38038112  0.67117484  1
  O  O31  1  0.33970352  0.74703770  0.83966096  1
  O  O32  1  0.49033627  0.32313708  0.32757436  1
  O  O33  1  0.37859738  0.54070301  0.17061418  1
  O  O34  1  0.20669455  0.80335402  0.07975837  1
  O  O35  1  0.23150940  0.79137895  0.43650447  1
  O  O36  1  0.19498182  0.79124102  0.25931551  1
  O  O37  1  0.25474553  0.66454436  0.65887791  1
  O  O38  1  0.48015460  0.18524208  0.81718180  1
  O  O39  1  0.53961230  0.07816140  0.16911608  1
  O  O40  1  0.33238108  0.47896160  0.82415634  1
  O  O41  1  0.34607146  0.31561756  0.97311794  1
  O  O42  1  0.34510564  0.31037459  0.47268254  1
  O  O43  1  0.19335395  0.48077878  0.32526647  1
  O  O44  1  0.38289883  0.07901135  0.66953909  1
  O  O45  1  0.33661471  0.18460079  0.31650395  1
  O  O46  1  0.08115162  0.66234692  0.15938709  1
  O  O47  1  0.01221916  0.79302008  0.75936758  1
  O  O48  1  0.97492512  0.79188178  0.93637661  1
  O  O49  1  0.07905355  0.54331285  0.67097757  1
  O  O50  1  0.18687731  0.32545897  0.82893005  1
  O  O51  1  0.08786513  0.38338186  0.17394278  1
  O  O52  1  0.25747146  0.08375504  0.15899644  1
  O  O53  1  0.23344922  0.99991116  0.93440928  1
  O  O54  1  0.19653140  0.01598584  0.75819517  1
  O  O55  1  0.08475359  0.25789221  0.65429804  1
  O  O56  1  0.98395691  0.21858222  0.43284246  1
  O  O57  1  0.00427096  0.20084824  0.25196600  1
loop_
_geom_bond_atom_site_label_1
_geom_bond_atom_site_label_2
_geom_bond_distance
_geom_bond_site_symmetry_2
Li0 O2 1.966184 1_555
Li0 O48 1.989175 1_554
Li0 O46 2.071009 1_655
Li0 O5 2.079626 1_555
Li1 O0 1.943655 1_555
Li1 O27 2.006868 1_555
Li1 O29 2.090048 1_565
Li1 O9 2.191444 1_555
Li2 O56 2.003990 1_555
Li2 O19 2.015221 1_555
Li2 O55 2.029244 1_655
Li2 O11 2.195332 1_555
Li3 O20 2.011945 1_554
Li3 O7 2.021681 1_655
Li3 O23 2.030533 1_555
Li3 O14 2.207064 1_555
Li4 O34 1.949666 1_555
Li4 O53 2.013239 1_554
Li4 O52 2.122664 1_565
Li4 O16 2.186563 1_555
Li5 O27 2.022928 1_545
Li5 O19 2.107175 1_555
Li5 O17 2.130525 1_555
Li5 O32 2.168857 1_555
Li6 O28 1.973411 1_555
Li6 O35 1.990973 1_555
Li6 O37 2.040276 1_555
Li6 O22 2.148793 1_555
Li7 O53 1.998836 1_545
Li7 O7 2.091861 1_556
Li7 O8 2.117776 1_455
Li7 O50 2.173372 1_555
Li8 O48 2.017328 1_555
Li8 O2 2.058511 1_556
Li8 O20 2.301416 1_565
Li8 O34 2.329452 1_656
Li9 O35 2.016285 1_555
Li9 O28 2.082661 1_555
Li9 O56 2.292654 1_465
Li9 O0 2.317925 1_455
O0 P13 1.497190 1_655
O1 P1 1.534439 1_555
O1 V4 1.919082 1_655
O2 P8 1.494471 1_565
O3 P0 1.566786 1_555
O3 V2 1.847527 1_565
O4 P0 1.523587 1_555
O4 V5 1.959073 1_655
O5 P3 1.565642 1_555
O5 V4 1.996368 1_655
O6 P2 1.529760 1_555
O6 V4 1.939777 1_655
O7 P15 1.510046 1_555
O8 P5 1.561549 1_555
O8 V5 1.946327 1_655
O9 P4 1.579371 1_555
O9 V2 1.953582 1_565
O10 P1 1.554842 1_555
O10 V3 1.875536 1_565
O11 P4 1.573894 1_555
O11 V5 1.954951 1_655
O12 P3 1.495201 1_555
O13 P4 1.495638 1_555
O14 P3 1.578492 1_555
O14 V0 1.943941 1_555
O15 P7 1.568871 1_555
O15 V2 1.851772 1_565
O16 P3 1.582609 1_555
O16 V3 1.948593 1_565
O17 P2 1.561206 1_555
O17 V0 1.949556 1_555
O18 P6 1.618606 1_555
O18 P5 1.623344 1_555
O19 P6 1.512430 1_555
O20 P5 1.500732 1_555
O21 P5 1.534886 1_555
O21 V1 1.931221 1_555
O22 P4 1.572902 1_555
O22 V1 1.952550 1_555
O23 P8 1.548124 1_555
O23 V0 1.993461 1_555
O24 P9 1.525007 1_555
O24 V0 1.957388 1_555
O25 P9 1.568399 1_555
O25 V3 1.848504 1_565
O26 P1 1.599724 1_545
O26 P8 1.626259 1_555
O27 P1 1.506021 1_555
O28 P14 1.495030 1_565
O29 P6 1.558228 1_555
O29 V2 1.978532 1_555
O30 P6 1.527367 1_555
O30 V1 1.942653 1_555
O31 P7 1.510491 1_555
O31 V1 1.983224 1_555
O32 P11 1.563684 1_555
O32 V0 1.973825 1_555
O33 P10 1.556243 1_555
O33 V0 1.887483 1_555
O34 P10 1.494982 1_555
O35 P9 1.494104 1_555
O36 P9 1.607688 1_555
O36 P10 1.621589 1_555
O37 P13 1.528651 1_555
O37 V1 2.041549 1_555
O38 P12 1.604339 1_555
O38 V2 1.817922 1_555
O39 P8 1.546080 1_555
O39 V3 1.929997 1_555
O40 P12 1.573400 1_555
O40 V1 1.850977 1_555
O41 P12 1.482918 1_555
O42 P11 1.484862 1_555
O43 P11 1.546634 1_555
O43 V4 1.920771 1_555
O44 P14 1.548647 1_555
O44 V2 1.921534 1_555
O45 P11 1.621770 1_555
O45 V3 1.798947 1_555
O46 P10 1.545542 1_555
O46 V4 1.983165 1_555
O47 P0 1.606103 1_455
O47 P13 1.622532 1_555
O48 P0 1.495860 1_555
O49 P13 1.567332 1_555
O49 V5 1.863501 1_555
O50 P12 1.554177 1_555
O50 V5 1.989390 1_555
O51 P15 1.534920 1_555
O51 V4 1.926532 1_555
O52 P15 1.557324 1_555
O52 V3 1.977181 1_555
O53 P7 1.510649 1_555
O54 P7 1.605240 1_545
O54 P14 1.620654 1_555
O55 P14 1.548229 1_555
O55 V5 1.992306 1_555
O56 P2 1.498529 1_555
O57 P15 1.613322 1_555
O57 P2 1.629169 1_455
