# generated using pymatgen
data_Yb2(SiPt)3
_symmetry_space_group_name_H-M   'P 1'
_cell_length_a   2.81293218
_cell_length_b   2.81293218
_cell_length_c   20.15507941
_cell_angle_alpha   90.00000000
_cell_angle_beta   90.00000000
_cell_angle_gamma   90.00000000
_symmetry_Int_Tables_number   1
_chemical_formula_structural   Yb2(SiPt)3
_chemical_formula_sum   'Yb2 Si3 Pt3'
_cell_volume   159.47882785
_cell_formula_units_Z   1
loop_
 _symmetry_equiv_pos_site_id
 _symmetry_equiv_pos_as_xyz
  1  'x, y, z'
loop_
 _atom_site_type_symbol
 _atom_site_label
 _atom_site_symmetry_multiplicity
 _atom_site_fract_x
 _atom_site_fract_y
 _atom_site_fract_z
 _atom_site_occupancy
  Yb  Yb0  1  0.50000000  0.50000000  0.75376641  1
  Yb  Yb1  1  0.50000000  0.50000000  0.24623359  1
  Si  Si0  1  0.50000000  0.50000000  0.38457873  1
  Si  Si1  1  0.50000000  0.50000000  0.61542127  1
  Si  Si2  1  0.50000000  0.50000000  0.00000000  1
  Pt  Pt0  1  0.50000000  0.50000000  0.11419012  1
  Pt  Pt1  1  0.50000000  0.50000000  0.88580988  1
  Pt  Pt2  1  0.50000000  0.50000000  0.50000000  1
loop_
_geom_bond_atom_site_label_1
_geom_bond_atom_site_label_2
_geom_bond_distance
_geom_bond_site_symmetry_2
Si0 Yb1 2.788357 1_555
Si1 Yb0 2.788357 1_555
Pt0 Si2 2.301511 1_555
Pt0 Yb1 2.661347 1_555
Pt1 Si2 2.301511 1_556
Pt1 Yb0 2.661347 1_555
Pt2 Si1 2.326325 1_555
Pt2 Si0 2.326325 1_555
