# generated using pymatgen
data_Mn31Si11P
_symmetry_space_group_name_H-M   'P 1'
_cell_length_a   6.84586525
_cell_length_b   6.84586525
_cell_length_c   12.36921300
_cell_angle_alpha   90.00000000
_cell_angle_beta   90.00000000
_cell_angle_gamma   119.99999274
_symmetry_Int_Tables_number   1
_chemical_formula_structural   Mn31Si11P
_chemical_formula_sum   'Mn31 Si11 P1'
_cell_volume   502.02971600
_cell_formula_units_Z   1
loop_
 _symmetry_equiv_pos_site_id
 _symmetry_equiv_pos_as_xyz
  1  'x, y, z'
loop_
 _atom_site_type_symbol
 _atom_site_label
 _atom_site_symmetry_multiplicity
 _atom_site_fract_x
 _atom_site_fract_y
 _atom_site_fract_z
 _atom_site_occupancy
  Mn  Mn0  1  0.33333300  0.66666700  0.90985600  1
  Mn  Mn1  1  0.33333300  0.66666700  0.08585000  1
  Mn  Mn2  1  0.66478100  0.64625800  0.69320400  1
  Mn  Mn3  1  0.98147600  0.33521900  0.69320400  1
  Mn  Mn4  1  0.35374200  0.01852400  0.69320400  1
  Mn  Mn5  1  0.00958100  0.31649700  0.30835900  1
  Mn  Mn6  1  0.30691600  0.99041900  0.30835900  1
  Mn  Mn7  1  0.68350300  0.69308400  0.30835900  1
  Mn  Mn8  1  0.67268800  0.61012600  0.89844400  1
  Mn  Mn9  1  0.93743800  0.32731200  0.89844400  1
  Mn  Mn10  1  0.38987400  0.06256200  0.89844400  1
  Mn  Mn11  1  0.99038900  0.27025300  0.10225800  1
  Mn  Mn12  1  0.27986500  0.00961100  0.10225800  1
  Mn  Mn13  1  0.72974700  0.72013500  0.10225800  1
  Mn  Mn14  1  0.03924100  0.70607100  0.80426300  1
  Mn  Mn15  1  0.66683000  0.96075900  0.80426300  1
  Mn  Mn16  1  0.29392900  0.33317000  0.80426300  1
  Mn  Mn17  1  0.62615800  0.99813400  0.19519600  1
  Mn  Mn18  1  0.37197600  0.37384200  0.19519600  1
  Mn  Mn19  1  0.00186600  0.62802400  0.19519600  1
  Mn  Mn20  1  0.33333300  0.66666700  0.49854000  1
  Mn  Mn21  1  0.00000000  0.00000000  0.92430300  1
  Mn  Mn22  1  0.66666700  0.33333300  0.07310900  1
  Mn  Mn23  1  0.00000000  0.00000000  0.42769800  1
  Mn  Mn24  1  0.66666700  0.33333300  0.57187300  1
  Mn  Mn25  1  0.01774600  0.70464000  0.60178600  1
  Mn  Mn26  1  0.68689400  0.98225400  0.60178600  1
  Mn  Mn27  1  0.29536000  0.31310600  0.60178600  1
  Mn  Mn28  1  0.64935400  0.01901400  0.39781500  1
  Mn  Mn29  1  0.36966000  0.35064600  0.39781500  1
  Mn  Mn30  1  0.98098600  0.63034000  0.39781500  1
  Si  Si0  1  0.68446200  0.66518900  0.49997500  1
  Si  Si1  1  0.98072700  0.31553800  0.49997500  1
  Si  Si2  1  0.33481100  0.01927300  0.49997500  1
  Si  Si3  1  0.00000000  0.00000000  0.23180400  1
  Si  Si4  1  0.66666700  0.33333300  0.76769700  1
  Si  Si5  1  0.01473600  0.67054400  0.99922500  1
  Si  Si6  1  0.65580800  0.98526400  0.99922500  1
  Si  Si7  1  0.32945600  0.34419200  0.99922500  1
  Si  Si8  1  0.33333300  0.66666700  0.70787100  1
  Si  Si9  1  0.33333300  0.66666700  0.29102800  1
  Si  Si10  1  0.66666700  0.33333300  0.27748100  1
  P  P0  1  0.00000000  0.00000000  0.73128000  1
loop_
_geom_bond_atom_site_label_1
_geom_bond_atom_site_label_2
_geom_bond_distance
_geom_bond_site_symmetry_2
Mn0 Mn1 2.176907 1_556
Mn0 Si5 2.457159 1_555
Mn0 Si6 2.457163 1_555
Mn0 Si7 2.457165 1_555
Mn0 Si8 2.498395 1_555
Mn0 Mn14 2.524917 1_555
Mn0 Mn15 2.524921 1_555
Mn0 Mn16 2.524923 1_555
Mn0 Mn10 2.542855 1_565
Mn0 Mn9 2.542858 1_455
Mn0 Mn8 2.542862 1_555
Mn1 Si5 2.442078 1_554
Mn1 Si6 2.442081 1_554
Mn1 Si7 2.442084 1_554
Mn1 Si9 2.537890 1_555
Mn1 Mn19 2.539326 1_555
Mn1 Mn17 2.539329 1_555
Mn1 Mn18 2.539332 1_555
Mn1 Mn12 2.558603 1_565
Mn1 Mn11 2.558612 1_455
Mn1 Mn13 2.558617 1_555
Mn2 Si4 2.337957 1_555
Mn2 Si8 2.349051 1_555
Mn2 Si0 2.393746 1_555
Mn2 P0 2.407342 1_665
Mn2 Mn26 2.498838 1_555
Mn2 Mn25 2.512245 1_655
Mn2 Mn27 2.666126 1_555
Mn3 Si4 2.337944 1_555
Mn3 Si8 2.349051 1_655
Mn3 Si1 2.393746 1_555
Mn3 P0 2.407346 1_655
Mn4 Si4 2.337951 1_555
Mn4 Si8 2.349051 1_545
Mn4 Si2 2.393746 1_555
Mn4 P0 2.407339 1_555
Mn5 Si9 2.322018 1_555
Mn5 Si3 2.335257 1_555
Mn5 Si1 2.378093 1_455
Mn5 Si10 2.437353 1_455
Mn6 Si9 2.322013 1_555
Mn6 Si3 2.335257 1_565
Mn6 Si2 2.378093 1_565
Mn6 Si10 2.437357 1_565
Mn7 Si9 2.322020 1_555
Mn7 Si3 2.335257 1_665
Mn7 Si0 2.378093 1_555
Mn7 Si10 2.437360 1_555
Mn8 Si7 2.472199 1_555
Mn8 Si4 2.475813 1_555
Mn8 Si5 2.497935 1_655
Mn9 Si5 2.472199 1_655
Mn9 Si4 2.475808 1_555
Mn9 Si6 2.497935 1_545
Mn10 Si6 2.472199 1_545
Mn10 Si4 2.475811 1_555
Mn10 Si7 2.497935 1_555
Mn11 Si7 2.468495 1_654
Mn11 Si3 2.473179 1_655
Mn11 Si6 2.491626 1_544
Mn12 Si5 2.468497 1_544
Mn12 Si3 2.473184 1_555
Mn12 Si7 2.491628 1_554
Mn13 Si6 2.468500 1_554
Mn13 Si3 2.473182 1_665
Mn13 Si5 2.491622 1_654
Mn14 P0 2.340215 1_565
Mn14 Si5 2.421147 1_555
Mn14 Si8 2.467968 1_555
Mn14 Mn25 2.508532 1_555
Mn14 Si4 2.590936 1_455
Mn15 P0 2.340215 1_665
Mn15 Si6 2.421147 1_555
Mn15 Si8 2.467972 1_555
Mn15 Mn26 2.508532 1_555
Mn15 Si4 2.590933 1_565
Mn16 P0 2.340215 1_555
Mn16 Si7 2.421147 1_555
Mn16 Si8 2.467974 1_555
Mn16 Mn27 2.508532 1_555
Mn16 Si4 2.590939 1_555
Mn17 Si10 2.396294 1_565
Mn17 Si6 2.437757 1_554
Mn17 Si9 2.454376 1_555
Mn17 Mn28 2.510812 1_565
Mn17 Si3 2.592756 1_665
Mn18 Si10 2.396300 1_555
Mn18 Si7 2.437757 1_554
Mn18 Si9 2.454379 1_555
Mn18 Mn29 2.510812 1_555
Mn18 Si3 2.592756 1_555
Mn19 Si10 2.396297 1_455
Mn19 Si5 2.437757 1_554
Mn19 Si9 2.454373 1_555
Mn19 Mn30 2.510812 1_455
Mn19 Si3 2.592756 1_565
Mn20 Si2 2.408915 1_565
Mn20 Si1 2.408919 1_455
Mn20 Si0 2.408922 1_555
Mn20 Si9 2.566760 1_555
Mn20 Si8 2.589260 1_555
Mn20 Mn30 2.613913 1_455
Mn20 Mn28 2.613915 1_565
Mn20 Mn29 2.613919 1_555
Mn20 Mn25 2.632059 1_555
Mn20 Mn26 2.632063 1_555
Mn20 Mn27 2.632065 1_555
Mn21 P0 2.387543 1_555
Mn21 Si5 2.486646 1_545
Mn21 Si6 2.486646 1_445
Mn21 Si7 2.486646 1_555
Mn22 Si6 2.518228 1_544
Mn22 Si5 2.518231 1_654
Mn22 Si7 2.518235 1_554
Mn22 Si10 2.527921 1_555
Mn23 Si1 2.401632 1_455
Mn23 Si2 2.401632 1_555
Mn23 Si0 2.401632 1_445
Mn23 Si3 2.423055 1_555
Mn23 Mn28 2.495659 1_455
Mn23 Mn30 2.495659 1_445
Mn23 Mn29 2.495659 1_555
Mn24 Si1 2.385415 1_555
Mn24 Si2 2.385419 1_555
Mn24 Si0 2.385422 1_555
Mn24 Si4 2.422189 1_555
Mn24 Mn26 2.503079 1_545
Mn24 Mn25 2.503083 1_655
Mn24 Mn27 2.503086 1_555
Mn25 Mn4 2.498841 1_565
Mn25 Si0 2.499680 1_455
Mn25 Si2 2.502292 1_565
Mn25 Mn30 2.561129 1_455
Mn25 P0 2.629531 1_565
Mn25 Si8 2.649275 1_555
Mn25 Mn3 2.666123 1_455
Mn25 Si1 2.840874 1_455
Mn26 Si1 2.499680 1_565
Mn26 Si0 2.502292 1_555
Mn26 Mn3 2.512243 1_565
Mn26 Mn28 2.561129 1_565
Mn26 P0 2.629531 1_665
Mn26 Si8 2.649279 1_555
Mn26 Mn4 2.666129 1_565
Mn26 Si2 2.840874 1_565
Mn27 Mn3 2.498844 1_455
Mn27 Si2 2.499680 1_555
Mn27 Si1 2.502292 1_455
Mn27 Mn4 2.512239 1_555
Mn27 Mn29 2.561129 1_555
Mn27 P0 2.629531 1_555
Mn27 Si8 2.649281 1_555
Mn27 Si0 2.840874 1_555
Mn28 Si2 2.497476 1_555
Mn28 Si1 2.501748 1_555
Mn28 Mn6 2.509865 1_545
Mn28 Mn5 2.535953 1_655
Mn28 Si10 2.569949 1_555
Mn28 Mn7 2.603690 1_545
Mn28 Si9 2.650475 1_545
Mn28 Si0 2.846745 1_545
Mn29 Si0 2.497476 1_555
Mn29 Si2 2.501748 1_555
Mn29 Mn7 2.509865 1_555
Mn29 Mn6 2.535953 1_545
Mn29 Si10 2.569955 1_555
Mn29 Mn5 2.603690 1_555
Mn29 Si9 2.650478 1_555
Mn29 Si1 2.846745 1_455
Mn30 Si1 2.497476 1_555
Mn30 Si0 2.501748 1_555
Mn30 Mn5 2.509865 1_655
Mn30 Mn7 2.535953 1_555
Mn30 Si10 2.569952 1_555
Mn30 Mn6 2.603690 1_655
Mn30 Si9 2.650472 1_655
Mn30 Si2 2.846746 1_665
