# generated using pymatgen
data_DyMgS3
_symmetry_space_group_name_H-M   'P 1'
_cell_length_a   6.91811103
_cell_length_b   6.91811103
_cell_length_c   6.76534598
_cell_angle_alpha   73.49576855
_cell_angle_beta   73.49576855
_cell_angle_gamma   111.53975216
_symmetry_Int_Tables_number   1
_chemical_formula_structural   DyMgS3
_chemical_formula_sum   'Dy2 Mg2 S6'
_cell_volume   259.94856338
_cell_formula_units_Z   2
loop_
 _symmetry_equiv_pos_site_id
 _symmetry_equiv_pos_as_xyz
  1  'x, y, z'
loop_
 _atom_site_type_symbol
 _atom_site_label
 _atom_site_symmetry_multiplicity
 _atom_site_fract_x
 _atom_site_fract_y
 _atom_site_fract_z
 _atom_site_occupancy
  Dy  Dy0  1  0.78087600  0.78087600  0.24879100  1
  Dy  Dy1  1  0.21912400  0.21912400  0.75120900  1
  Mg  Mg0  1  0.33872900  0.66127100  0.00000000  1
  Mg  Mg1  1  0.66127100  0.33872900  0.00000000  1
  S  S0  1  0.22484600  0.92169700  0.15286100  1
  S  S1  1  0.77515400  0.07830300  0.84713900  1
  S  S2  1  0.07830300  0.77515400  0.84713900  1
  S  S3  1  0.92169700  0.22484600  0.15286100  1
  S  S4  1  0.58267400  0.58267400  0.70929900  1
  S  S5  1  0.41732600  0.41732600  0.29070100  1
loop_
_geom_bond_atom_site_label_1
_geom_bond_atom_site_label_2
_geom_bond_distance
_geom_bond_site_symmetry_2
Dy0 S0 2.667398 1_655
Dy0 S3 2.667398 1_565
Dy0 S4 2.689174 1_555
Dy0 S5 2.697486 1_555
Dy0 S2 2.926322 1_654
Dy0 S1 2.926322 1_564
Dy1 S1 2.667398 1_455
Dy1 S2 2.667398 1_545
Dy1 S5 2.689174 1_555
Dy1 S4 2.697486 1_555
Dy1 S0 2.926322 1_546
Dy1 S3 2.926322 1_456
Mg0 S4 2.531258 1_554
Mg0 S5 2.531258 1_555
Mg0 S2 2.564008 1_554
Mg0 S0 2.564008 1_555
Mg0 S3 2.939974 1_455
Mg0 S1 2.939974 1_564
Mg1 S4 2.531258 1_554
Mg1 S5 2.531258 1_555
Mg1 S1 2.564008 1_554
Mg1 S3 2.564008 1_555
Mg1 S0 2.939974 1_545
Mg1 S2 2.939974 1_654
