# generated using pymatgen
data_EuBe13
_symmetry_space_group_name_H-M   'P 1'
_cell_length_a   7.29255681
_cell_length_b   7.29255609
_cell_length_c   7.29253514
_cell_angle_alpha   60.00009501
_cell_angle_beta   60.00010482
_cell_angle_gamma   60.00017866
_symmetry_Int_Tables_number   1
_chemical_formula_structural   EuBe13
_chemical_formula_sum   'Eu2 Be26'
_cell_volume   274.23594187
_cell_formula_units_Z   2
loop_
 _symmetry_equiv_pos_site_id
 _symmetry_equiv_pos_as_xyz
  1  'x, y, z'
loop_
 _atom_site_type_symbol
 _atom_site_label
 _atom_site_symmetry_multiplicity
 _atom_site_fract_x
 _atom_site_fract_y
 _atom_site_fract_z
 _atom_site_occupancy
  Eu  Eu0  1  0.75000000  0.75000000  0.75000000  1
  Eu  Eu1  1  0.25000000  0.25000000  0.25000000  1
  Be  Be0  1  0.50000000  0.50000000  0.50000000  1
  Be  Be1  1  0.00000000  -0.00000000  0.00000000  1
  Be  Be2  1  0.78851141  0.43692383  0.21148065  1
  Be  Be3  1  0.21148859  0.56307617  0.78851935  1
  Be  Be4  1  0.56307617  0.21148859  0.43691589  1
  Be  Be5  1  0.43692383  0.78851141  0.56308411  1
  Be  Be6  1  0.28851838  0.06307684  0.71148841  1
  Be  Be7  1  0.71148162  0.93692316  0.28851159  1
  Be  Be8  1  0.93692316  0.71148162  0.06308262  1
  Be  Be9  1  0.06307684  0.28851838  0.93691738  1
  Be  Be10  1  0.43692316  0.21148162  0.78851159  1
  Be  Be11  1  0.56307684  0.78851838  0.21148841  1
  Be  Be12  1  0.21148162  0.43692316  0.56308262  1
  Be  Be13  1  0.78851838  0.56307684  0.43691738  1
  Be  Be14  1  0.06307617  0.71148859  0.28851935  1
  Be  Be15  1  0.93692383  0.28851141  0.71148065  1
  Be  Be16  1  0.71148859  0.06307617  0.93691589  1
  Be  Be17  1  0.28851141  0.93692383  0.06308411  1
  Be  Be18  1  0.21148902  0.78851098  0.43691497  1
  Be  Be19  1  0.78851098  0.21148902  0.56308503  1
  Be  Be20  1  0.43692541  0.56307459  0.21148055  1
  Be  Be21  1  0.56307459  0.43692541  0.78851945  1
  Be  Be22  1  0.71148902  0.28851098  0.06308503  1
  Be  Be23  1  0.28851098  0.71148902  0.93691497  1
  Be  Be24  1  0.06307459  0.93692541  0.71148055  1
  Be  Be25  1  0.93692541  0.06307459  0.28851945  1
loop_
_geom_bond_atom_site_label_1
_geom_bond_atom_site_label_2
_geom_bond_distance
_geom_bond_site_symmetry_2
Be0 Be18 2.153697 1_555
Be0 Be19 2.153697 1_555
Be0 Be10 2.153713 1_555
Be0 Be11 2.153713 1_555
Be0 Be4 2.153716 1_555
Be0 Be5 2.153716 1_555
Be0 Be2 2.153716 1_555
Be0 Be3 2.153716 1_555
Be0 Be13 2.153716 1_555
Be0 Be12 2.153716 1_555
Be0 Be20 2.153730 1_555
Be0 Be21 2.153730 1_555
Be1 Be22 2.153697 1_455
Be1 Be23 2.153697 1_544
Be1 Be7 2.153714 1_445
Be1 Be6 2.153714 1_554
Be1 Be15 2.153716 1_454
Be1 Be14 2.153716 1_545
Be1 Be16 2.153716 1_454
Be1 Be17 2.153716 1_545
Be1 Be8 2.153716 1_445
Be1 Be9 2.153716 1_554
Be1 Be24 2.153731 1_544
Be1 Be25 2.153731 1_455
Be2 Be22 2.246112 1_555
Be2 Be25 2.246221 1_555
Be2 Be20 2.249776 1_555
Be2 Be9 2.276042 1_654
Be2 Be8 2.276046 1_555
Be2 Be4 2.324966 1_555
Be2 Eu0 3.039347 1_554
Be2 Eu1 3.039424 1_655
Be3 Be8 2.276042 1_456
Be3 Be9 2.276046 1_555
Be3 Be5 2.324966 1_555
Be3 Eu1 3.039347 1_556
Be3 Eu0 3.039424 1_455
Be4 Be7 2.276047 1_545
Be4 Be6 2.276048 1_555
Be4 Eu1 3.039347 1_555
Be4 Eu0 3.039423 1_545
Be5 Be6 2.276047 1_565
Be5 Be7 2.276048 1_555
Be5 Eu0 3.039347 1_555
Be5 Eu1 3.039423 1_565
Be6 Be9 2.324966 1_555
Be6 Eu0 3.039364 1_545
Be6 Eu1 3.039410 1_555
Be7 Be8 2.324966 1_555
Be7 Eu1 3.039364 1_565
Be7 Eu0 3.039410 1_555
Be8 Eu1 3.039365 1_655
Be8 Eu0 3.039403 1_554
Be9 Eu0 3.039365 1_455
Be9 Eu1 3.039403 1_556
Be10 Be6 2.246124 1_555
Be10 Be9 2.246204 1_555
Be10 Be19 2.249786 1_555
Be10 Be4 2.249813 1_555
Be10 Be3 2.249837 1_555
Be10 Be21 2.249866 1_555
Be10 Be16 2.276047 1_555
Be10 Be17 2.276048 1_546
Be10 Be12 2.324966 1_555
Be10 Eu0 3.039364 1_545
Be10 Eu1 3.039410 1_556
Be11 Be7 2.246124 1_555
Be11 Be8 2.246204 1_555
Be11 Be18 2.249786 1_555
Be11 Be5 2.249813 1_555
Be11 Be2 2.249837 1_555
Be11 Be20 2.249866 1_555
Be11 Be17 2.276047 1_555
Be11 Be16 2.276048 1_564
Be11 Be13 2.324966 1_555
Be11 Eu1 3.039364 1_565
Be11 Eu0 3.039410 1_554
Be12 Be9 2.246135 1_555
Be12 Be6 2.246203 1_555
Be12 Be18 2.249787 1_555
Be12 Be3 2.249819 1_555
Be12 Be4 2.249836 1_555
Be12 Be20 2.249862 1_555
Be12 Be14 2.276042 1_555
Be12 Be15 2.276046 1_455
Be12 Eu0 3.039366 1_455
Be12 Eu1 3.039403 1_555
Be13 Be8 2.246135 1_555
Be13 Be7 2.246203 1_555
Be13 Be19 2.249787 1_555
Be13 Be2 2.249819 1_555
Be13 Be5 2.249836 1_555
Be13 Be21 2.249862 1_555
Be13 Be15 2.276042 1_555
Be13 Be14 2.276046 1_655
Be13 Eu1 3.039366 1_655
Be13 Eu0 3.039403 1_555
Be14 Be18 2.246112 1_555
Be14 Be20 2.246221 1_555
Be14 Be25 2.249776 1_465
Be14 Be8 2.249819 1_455
Be14 Be7 2.249837 1_455
Be14 Be23 2.249873 1_554
Be14 Be17 2.324966 1_555
Be14 Eu0 3.039347 1_455
Be14 Eu1 3.039423 1_555
Be15 Be19 2.246112 1_555
Be15 Be21 2.246221 1_555
Be15 Be24 2.249776 1_645
Be15 Be9 2.249819 1_655
Be15 Be6 2.249837 1_655
Be15 Be22 2.249873 1_556
Be15 Be16 2.324966 1_555
Be15 Eu1 3.039347 1_655
Be15 Eu0 3.039423 1_555
Be16 Be19 2.246112 1_555
Be16 Be21 2.246221 1_555
Be16 Be24 2.249776 1_645
Be16 Be7 2.249812 1_546
Be16 Be8 2.249835 1_546
Be16 Be22 2.249873 1_556
Be16 Eu0 3.039347 1_545
Be16 Eu1 3.039424 1_556
Be17 Be18 2.246112 1_555
Be17 Be20 2.246221 1_555
Be17 Be25 2.249776 1_465
Be17 Be6 2.249812 1_564
Be17 Be9 2.249835 1_564
Be17 Be23 2.249873 1_554
Be17 Eu1 3.039347 1_565
Be17 Eu0 3.039424 1_554
Be18 Be3 2.249873 1_555
Be18 Be5 2.249873 1_555
Be18 Be25 2.276010 1_465
Be18 Be24 2.276081 1_555
Be18 Be20 2.324968 1_555
Be18 Eu1 3.039409 1_565
Be18 Eu0 3.039410 1_455
Be19 Be2 2.249873 1_555
Be19 Be4 2.249873 1_555
Be19 Be24 2.276010 1_645
Be19 Be25 2.276081 1_555
Be19 Be21 2.324968 1_555
Be19 Eu0 3.039409 1_545
Be19 Eu1 3.039410 1_655
Be20 Be4 2.249776 1_555
Be20 Be22 2.276010 1_555
Be20 Be23 2.276081 1_554
Be20 Eu1 3.039362 1_555
Be20 Eu0 3.039363 1_554
Be21 Be5 2.249776 1_555
Be21 Be3 2.249776 1_555
Be21 Be23 2.276010 1_555
Be21 Be22 2.276081 1_556
Be21 Eu0 3.039362 1_555
Be21 Eu1 3.039363 1_556
Be22 Be4 2.246112 1_555
Be22 Be7 2.249786 1_545
Be22 Be9 2.249788 1_654
Be22 Be25 2.324967 1_555
Be22 Eu0 3.039409 1_554
Be22 Eu1 3.039410 1_555
Be23 Be3 2.246112 1_555
Be23 Be5 2.246112 1_555
Be23 Be6 2.249786 1_565
Be23 Be8 2.249788 1_456
Be23 Be24 2.324967 1_555
Be23 Eu1 3.039409 1_556
Be23 Eu0 3.039410 1_555
Be24 Be3 2.246221 1_555
Be24 Be5 2.246221 1_555
Be24 Be8 2.249862 1_456
Be24 Be6 2.249866 1_565
Be24 Eu0 3.039362 1_455
Be24 Eu1 3.039362 1_565
Be25 Be4 2.246221 1_555
Be25 Be9 2.249862 1_654
Be25 Be7 2.249866 1_545
Be25 Eu1 3.039362 1_655
Be25 Eu0 3.039362 1_545
