# generated using pymatgen
data_Tb5SbPt2
_symmetry_space_group_name_H-M   'P 1'
_cell_length_a   8.79741262
_cell_length_b   8.79741262
_cell_length_c   8.79741262
_cell_angle_alpha   127.39429104
_cell_angle_beta   127.39429104
_cell_angle_gamma   77.60832814
_symmetry_Int_Tables_number   1
_chemical_formula_structural   Tb5SbPt2
_chemical_formula_sum   'Tb10 Sb2 Pt4'
_cell_volume   416.73493303
_cell_formula_units_Z   2
loop_
 _symmetry_equiv_pos_site_id
 _symmetry_equiv_pos_as_xyz
  1  'x, y, z'
loop_
 _atom_site_type_symbol
 _atom_site_label
 _atom_site_symmetry_multiplicity
 _atom_site_fract_x
 _atom_site_fract_y
 _atom_site_fract_z
 _atom_site_occupancy
  Tb  Tb0  1  0.00000000  0.00000000  0.00000000  1
  Tb  Tb1  1  0.50000000  0.50000000  0.00000000  1
  Tb  Tb2  1  0.79688000  0.29688000  0.81696300  1
  Tb  Tb3  1  0.20312000  0.70312000  0.18303700  1
  Tb  Tb4  1  0.47991800  0.97991800  0.18303700  1
  Tb  Tb5  1  0.29688000  0.47991800  0.50000000  1
  Tb  Tb6  1  0.02008200  0.20312000  0.50000000  1
  Tb  Tb7  1  0.52008200  0.02008200  0.81696300  1
  Tb  Tb8  1  0.70312000  0.52008200  0.50000000  1
  Tb  Tb9  1  0.97991800  0.79688000  0.50000000  1
  Sb  Sb0  1  0.25000000  0.25000000  0.00000000  1
  Sb  Sb1  1  0.75000000  0.75000000  0.00000000  1
  Pt  Pt0  1  0.13684700  0.63684700  0.77369400  1
  Pt  Pt1  1  0.86315300  0.36315300  0.22630600  1
  Pt  Pt2  1  0.63684700  0.86315300  0.50000000  1
  Pt  Pt3  1  0.36315300  0.13684700  0.50000000  1
loop_
_geom_bond_atom_site_label_1
_geom_bond_atom_site_label_2
_geom_bond_distance
_geom_bond_site_symmetry_2
Sb0 Tb7 3.310296 1_554
Sb0 Tb4 3.310296 1_545
Sb0 Tb8 3.310301 1_555
Sb0 Tb6 3.310301 1_554
Sb0 Tb9 3.310301 1_444
Sb0 Tb5 3.310301 1_555
Sb0 Tb2 3.310302 1_454
Sb0 Tb3 3.310302 1_555
Sb0 Tb0 3.427878 1_555
Sb0 Tb1 3.427878 1_555
Sb1 Tb7 3.310296 1_564
Sb1 Tb4 3.310296 1_555
Sb1 Tb8 3.310301 1_554
Sb1 Tb6 3.310301 1_665
Sb1 Tb9 3.310301 1_555
Sb1 Tb5 3.310301 1_554
Sb1 Tb3 3.310302 1_655
Sb1 Tb2 3.310302 1_554
Sb1 Tb0 3.427878 1_665
Sb1 Tb1 3.427878 1_555
Pt0 Tb3 2.948525 1_556
Pt0 Tb4 2.948534 1_556
Pt0 Tb6 2.988519 1_555
Pt0 Tb8 2.988519 1_455
Pt0 Tb5 2.988519 1_555
Pt0 Tb9 2.988519 1_455
Pt0 Tb1 3.025695 1_556
Pt0 Tb0 3.025695 1_566
Pt1 Tb2 2.948525 1_554
Pt1 Tb7 2.948534 1_554
Pt1 Tb5 2.988519 1_655
Pt1 Tb9 2.988519 1_555
Pt1 Tb8 2.988519 1_555
Pt1 Tb6 2.988519 1_655
Pt1 Tb1 3.025695 1_555
Pt1 Tb0 3.025695 1_655
Pt2 Tb9 2.948534 1_555
Pt2 Tb8 2.948534 1_555
Pt2 Tb3 2.988518 1_555
Pt2 Tb2 2.988518 1_565
Pt2 Tb7 2.988526 1_565
Pt2 Tb4 2.988526 1_555
Pt2 Tb0 3.025695 1_666
Pt2 Tb1 3.025695 1_555
Pt3 Tb5 2.948534 1_555
Pt3 Tb6 2.948534 1_555
Pt3 Tb3 2.988518 1_545
Pt3 Tb2 2.988518 1_555
Pt3 Tb4 2.988526 1_545
Pt3 Tb7 2.988526 1_555
Pt3 Tb1 3.025695 1_556
Pt3 Tb0 3.025695 1_555
