# generated using pymatgen
data_PrBPt4
_symmetry_space_group_name_H-M   'P 1'
_cell_length_a   5.47111888
_cell_length_b   5.47112023
_cell_length_c   7.69044298
_cell_angle_alpha   90.00000000
_cell_angle_beta   90.00000000
_cell_angle_gamma   119.99998567
_symmetry_Int_Tables_number   1
_chemical_formula_structural   PrBPt4
_chemical_formula_sum   'Pr2 B2 Pt8'
_cell_volume   199.35836399
_cell_formula_units_Z   2
loop_
 _symmetry_equiv_pos_site_id
 _symmetry_equiv_pos_as_xyz
  1  'x, y, z'
loop_
 _atom_site_type_symbol
 _atom_site_label
 _atom_site_symmetry_multiplicity
 _atom_site_fract_x
 _atom_site_fract_y
 _atom_site_fract_z
 _atom_site_occupancy
  Pr  Pr0  1  -0.00000000  -0.00000000  0.50000000  1
  Pr  Pr1  1  -0.00000000  -0.00000000  0.00000000  1
  B  B0  1  0.66666700  0.33333300  0.50000000  1
  B  B1  1  0.33333300  0.66666700  0.50000000  1
  Pt  Pt0  1  0.66666700  0.33333300  0.00000000  1
  Pt  Pt1  1  0.50000000  0.50000000  0.29971175  1
  Pt  Pt2  1  0.50000000  -0.00000000  0.29971175  1
  Pt  Pt3  1  0.50000000  0.00000000  0.70028825  1
  Pt  Pt4  1  0.50000000  0.50000000  0.70028825  1
  Pt  Pt5  1  0.00000000  0.50000000  0.70028825  1
  Pt  Pt6  1  0.33333300  0.66666700  0.00000000  1
  Pt  Pt7  1  -0.00000000  0.50000000  0.29971175  1
loop_
_geom_bond_atom_site_label_1
_geom_bond_atom_site_label_2
_geom_bond_distance
_geom_bond_site_symmetry_2
Pr0 Pt2 3.139399 1_555
Pr0 Pt2 3.139399 1_455
Pr0 Pt3 3.139399 1_455
Pr0 Pt3 3.139399 1_555
Pr0 Pt7 3.139400 1_545
Pr0 Pt5 3.139400 1_545
Pr0 Pt7 3.139400 1_555
Pr0 Pt5 3.139400 1_555
Pr0 Pt4 3.139400 1_555
Pr0 Pt1 3.139400 1_555
Pr0 Pt4 3.139400 1_445
Pr0 Pt1 3.139400 1_445
Pr1 Pt0 3.158749 1_455
Pr1 Pt6 3.158749 1_545
Pr1 Pt6 3.158754 1_445
Pr1 Pt0 3.158754 1_555
Pr1 Pt6 3.158755 1_555
Pr1 Pt0 3.158755 1_445
B0 Pt7 2.206120 1_655
B0 Pt5 2.206120 1_655
B0 Pt2 2.206120 1_555
B0 Pt3 2.206120 1_555
B0 Pt1 2.206123 1_555
B0 Pt4 2.206123 1_555
B0 Pr0 3.158749 1_655
B0 Pr0 3.158754 1_555
B0 Pr0 3.158755 1_665
B1 Pt7 2.206120 1_555
B1 Pt5 2.206120 1_555
B1 Pt2 2.206120 1_565
B1 Pt3 2.206120 1_565
B1 Pt1 2.206123 1_555
B1 Pt4 2.206123 1_555
B1 Pr0 3.158749 1_565
B1 Pr0 3.158754 1_665
B1 Pr0 3.158755 1_555
