# generated using pymatgen
data_TiFe2Sn
_symmetry_space_group_name_H-M   'P 1'
_cell_length_a   4.23766402
_cell_length_b   4.23766420
_cell_length_c   4.23766427
_cell_angle_alpha   59.99999156
_cell_angle_beta   59.99999016
_cell_angle_gamma   59.99999484
_symmetry_Int_Tables_number   1
_chemical_formula_structural   TiFe2Sn
_chemical_formula_sum   'Ti1 Fe2 Sn1'
_cell_volume   53.81019084
_cell_formula_units_Z   1
loop_
 _symmetry_equiv_pos_site_id
 _symmetry_equiv_pos_as_xyz
  1  'x, y, z'
loop_
 _atom_site_type_symbol
 _atom_site_label
 _atom_site_symmetry_multiplicity
 _atom_site_fract_x
 _atom_site_fract_y
 _atom_site_fract_z
 _atom_site_occupancy
  Ti  Ti0  1  -0.00000000  -0.00000000  0.00000000  1
  Fe  Fe0  1  0.75000000  0.75000000  0.75000000  1
  Fe  Fe1  1  0.25000000  0.25000000  0.25000000  1
  Sn  Sn0  1  0.50000000  0.50000000  0.50000000  1
loop_
_geom_bond_atom_site_label_1
_geom_bond_atom_site_label_2
_geom_bond_distance
_geom_bond_site_symmetry_2
Fe0 Ti0 2.595028 1_566
Fe0 Sn0 2.595028 1_655
Fe0 Ti0 2.595028 1_665
Fe0 Sn0 2.595028 1_556
Fe0 Ti0 2.595029 1_656
Fe0 Sn0 2.595029 1_565
Fe0 Ti0 2.595029 1_666
Fe0 Sn0 2.595029 1_555
Fe1 Ti0 2.595028 1_655
Fe1 Sn0 2.595028 1_455
Fe1 Sn0 2.595028 1_554
Fe1 Ti0 2.595028 1_556
Fe1 Ti0 2.595029 1_565
Fe1 Sn0 2.595029 1_545
Fe1 Ti0 2.595029 1_555
Fe1 Sn0 2.595029 1_555
