# generated using pymatgen
data_Li4MnCo2O7
_symmetry_space_group_name_H-M   'P 1'
_cell_length_a   5.92905600
_cell_length_b   6.57350278
_cell_length_c   7.64408024
_cell_angle_alpha   114.66353113
_cell_angle_beta   99.20196186
_cell_angle_gamma   104.01863822
_symmetry_Int_Tables_number   1
_chemical_formula_structural   Li4MnCo2O7
_chemical_formula_sum   'Li8 Mn2 Co4 O14'
_cell_volume   250.91072917
_cell_formula_units_Z   2
loop_
 _symmetry_equiv_pos_site_id
 _symmetry_equiv_pos_as_xyz
  1  'x, y, z'
loop_
 _atom_site_type_symbol
 _atom_site_label
 _atom_site_symmetry_multiplicity
 _atom_site_fract_x
 _atom_site_fract_y
 _atom_site_fract_z
 _atom_site_occupancy
  Li  Li0  1  0.78467000  0.43141400  0.85859500  1
  Li  Li1  1  0.07675200  0.85090900  0.71509500  1
  Li  Li2  1  0.35598300  0.29151700  0.57521800  1
  Li  Li3  1  0.65193100  0.71206100  0.43527100  1
  Li  Li4  1  0.92911300  0.14451600  0.28773800  1
  Li  Li5  1  0.20899200  0.57031200  0.12904200  1
  Li  Li6  1  0.49882500  0.00090400  0.99881400  1
  Li  Li7  1  0.28589600  0.43279500  0.85636100  1
  Mn  Mn0  1  0.99858600  0.00418700  0.99798500  1
  Mn  Mn1  1  0.86230300  0.28563900  0.57375100  1
  Co  Co0  1  0.55775300  0.83995500  0.72114300  1
  Co  Co1  1  0.15186300  0.70619200  0.43807600  1
  Co  Co2  1  0.42513200  0.14991000  0.27815700  1
  Co  Co3  1  0.71429300  0.57105800  0.14315700  1
  O  O0  1  0.10498700  0.26034800  0.07361200  1
  O  O1  1  0.40100500  0.72604800  0.91864200  1
  O  O2  1  0.70695600  0.14441300  0.78913900  1
  O  O3  1  0.96527600  0.56214200  0.62537100  1
  O  O4  1  0.26528900  0.99500400  0.49410600  1
  O  O5  1  0.56650200  0.42369800  0.36223900  1
  O  O6  1  0.82628700  0.84565800  0.19992800  1
  O  O7  1  0.46010200  0.58634900  0.63095400  1
  O  O8  1  0.74343800  0.01383800  0.51157600  1
  O  O9  1  0.03178000  0.42084600  0.37497600  1
  O  O10  1  0.29019000  0.86835800  0.20003800  1
  O  O11  1  0.60780500  0.29837400  0.08895700  1
  O  O12  1  0.88272400  0.72207700  0.93884900  1
  O  O13  1  0.14556600  0.14147800  0.78321200  1
loop_
_geom_bond_atom_site_label_1
_geom_bond_atom_site_label_2
_geom_bond_distance
_geom_bond_site_symmetry_2
Li0 O2 1.648671 1_555
Li0 O12 1.653645 1_555
Li1 O3 1.634351 1_455
Li1 O13 1.676416 1_565
Li2 O4 1.688099 1_545
Li2 O7 1.722172 1_555
Li3 O5 1.650025 1_555
Li3 O8 1.726691 1_565
Li4 O9 1.561504 1_655
Li4 O6 1.694109 1_545
Li5 O10 1.713734 1_555
Li5 O0 1.816202 1_555
Li6 O1 1.559137 1_545
Li6 O11 1.684321 1_556
Li7 O13 1.690471 1_555
Li7 O1 1.703300 1_555
Mn0 O0 1.457363 1_656
Mn0 O12 1.642899 1_545
Mn1 O8 1.577641 1_555
Mn1 O3 1.618291 1_555
Co0 O7 1.426603 1_555
Co0 O2 1.784711 1_565
Co1 O9 1.657103 1_555
Co1 O4 1.688412 1_555
Co2 O5 1.576771 1_555
Co2 O10 1.621586 1_545
Co3 O11 1.591084 1_555
Co3 O6 1.600299 1_555
