# generated using pymatgen
data_YPdPb
_symmetry_space_group_name_H-M   'P 1'
_cell_length_a   7.75480303
_cell_length_b   7.75480303
_cell_length_c   3.92917298
_cell_angle_alpha   90.00000000
_cell_angle_beta   90.00000000
_cell_angle_gamma   119.99999784
_symmetry_Int_Tables_number   1
_chemical_formula_structural   YPdPb
_chemical_formula_sum   'Y3 Pd3 Pb3'
_cell_volume   204.63189794
_cell_formula_units_Z   3
loop_
 _symmetry_equiv_pos_site_id
 _symmetry_equiv_pos_as_xyz
  1  'x, y, z'
loop_
 _atom_site_type_symbol
 _atom_site_label
 _atom_site_symmetry_multiplicity
 _atom_site_fract_x
 _atom_site_fract_y
 _atom_site_fract_z
 _atom_site_occupancy
  Y  Y0  1  0.39997259  0.00000000  0.50000000  1
  Y  Y1  1  0.00000000  0.39997259  0.50000000  1
  Y  Y2  1  0.60002741  0.60002741  0.50000000  1
  Pd  Pd0  1  -0.00000000  -0.00000000  0.50000000  1
  Pd  Pd1  1  0.33333300  0.66666700  0.00000000  1
  Pd  Pd2  1  0.66666700  0.33333300  0.00000000  1
  Pb  Pb0  1  0.73393432  0.00000000  -0.00000000  1
  Pb  Pb1  1  0.00000000  0.73393432  -0.00000000  1
  Pb  Pb2  1  0.26606568  0.26606568  0.00000000  1
loop_
_geom_bond_atom_site_label_1
_geom_bond_atom_site_label_2
_geom_bond_distance
_geom_bond_site_symmetry_2
Pd0 Y1 3.101709 1_555
Pd0 Y0 3.101709 1_555
Pd0 Y2 3.101709 1_445
Pd1 Y0 3.077775 1_565
Pd1 Y0 3.077775 1_564
Pd1 Y1 3.077777 1_555
Pd1 Y1 3.077777 1_554
Pd1 Y2 3.077781 1_555
Pd1 Y2 3.077781 1_554
Pd2 Y1 3.077775 1_655
Pd2 Y1 3.077775 1_654
Pd2 Y0 3.077777 1_554
Pd2 Y0 3.077777 1_555
Pd2 Y2 3.077781 1_555
Pd2 Y2 3.077781 1_554
Pb0 Pd0 2.848992 1_654
Pb0 Pd0 2.848992 1_655
Pb0 Pd2 2.881389 1_555
Pb0 Pd1 2.881394 1_545
Pb0 Y0 3.250646 1_554
Pb0 Y0 3.250646 1_555
Pb0 Y2 3.367140 1_544
Pb0 Y2 3.367140 1_545
Pb0 Y1 3.367140 1_655
Pb0 Y1 3.367140 1_654
Pb1 Pd0 2.848992 1_565
Pb1 Pd0 2.848992 1_564
Pb1 Pd1 2.881389 1_555
Pb1 Pd2 2.881394 1_455
Pb1 Y1 3.250646 1_555
Pb1 Y1 3.250646 1_554
Pb1 Y2 3.367140 1_454
Pb1 Y2 3.367140 1_455
Pb1 Y0 3.367140 1_564
Pb1 Y0 3.367140 1_565
Pb2 Pd0 2.848992 1_554
Pb2 Pd0 2.848992 1_555
Pb2 Pd1 2.881397 1_555
Pb2 Pd2 2.881397 1_555
Pb2 Y2 3.250647 1_554
Pb2 Y2 3.250647 1_555
Pb2 Y0 3.367140 1_554
Pb2 Y1 3.367140 1_555
Pb2 Y0 3.367140 1_555
Pb2 Y1 3.367140 1_554
