# generated using pymatgen
data_BaO2
_symmetry_space_group_name_H-M   'P 1'
_cell_length_a   7.63192400
_cell_length_b   5.81909700
_cell_length_c   11.07874595
_cell_angle_alpha   58.92188888
_cell_angle_beta   90.00000000
_cell_angle_gamma   90.00000000
_symmetry_Int_Tables_number   1
_chemical_formula_structural   BaO2
_chemical_formula_sum   'Ba8 O16'
_cell_volume   421.39514704
_cell_formula_units_Z   8
loop_
 _symmetry_equiv_pos_site_id
 _symmetry_equiv_pos_as_xyz
  1  'x, y, z'
loop_
 _atom_site_type_symbol
 _atom_site_label
 _atom_site_symmetry_multiplicity
 _atom_site_fract_x
 _atom_site_fract_y
 _atom_site_fract_z
 _atom_site_occupancy
  Ba  Ba0  1  0.10925500  0.86425100  0.88585500  1
  Ba  Ba1  1  0.39074500  0.86425100  0.38585500  1
  Ba  Ba2  1  0.89074500  0.13574900  0.11414500  1
  Ba  Ba3  1  0.60925500  0.13574900  0.61414500  1
  Ba  Ba4  1  0.05720100  0.38599000  0.36261500  1
  Ba  Ba5  1  0.44279900  0.38599000  0.86261500  1
  Ba  Ba6  1  0.94279900  0.61401000  0.63738500  1
  Ba  Ba7  1  0.55720100  0.61401000  0.13738500  1
  O  O0  1  0.97570900  0.12964800  0.63037100  1
  O  O1  1  0.52429100  0.12964800  0.13037100  1
  O  O2  1  0.02429100  0.87035200  0.36962900  1
  O  O3  1  0.47570900  0.87035200  0.86962900  1
  O  O4  1  0.90089600  0.63463000  0.11421100  1
  O  O5  1  0.59910400  0.63463000  0.61421100  1
  O  O6  1  0.09910400  0.36537000  0.88578900  1
  O  O7  1  0.40089600  0.36537000  0.38578900  1
  O  O8  1  0.72921400  0.05765000  0.89180700  1
  O  O9  1  0.77078600  0.05765000  0.39180700  1
  O  O10  1  0.27078600  0.94235000  0.10819300  1
  O  O11  1  0.22921400  0.94235000  0.60819300  1
  O  O12  1  0.75889400  0.65919300  0.38863000  1
  O  O13  1  0.74110600  0.65919300  0.88863000  1
  O  O14  1  0.24110600  0.34080700  0.61137000  1
  O  O15  1  0.25889400  0.34080700  0.11137000  1
loop_
_geom_bond_atom_site_label_1
_geom_bond_atom_site_label_2
_geom_bond_distance
_geom_bond_site_symmetry_2
Ba0 O0 2.631035 1_465
Ba0 O4 2.687837 1_456
Ba0 O3 2.801570 1_555
Ba0 O6 2.904448 1_555
Ba0 O6 2.916712 1_565
Ba0 O10 2.991577 1_556
Ba0 O15 2.994581 1_556
Ba0 O11 3.010660 1_555
Ba0 O14 3.040383 1_565
Ba0 O13 3.046515 1_455
Ba0 O8 3.124113 1_465
Ba1 O1 2.631035 1_565
Ba1 O5 2.687837 1_555
Ba1 O2 2.801570 1_555
Ba1 O7 2.904448 1_555
Ba1 O7 2.916712 1_565
Ba1 O11 2.991577 1_555
Ba1 O14 2.994581 1_555
Ba1 O10 3.010660 1_555
Ba1 O15 3.040383 1_565
Ba1 O12 3.046515 1_555
Ba1 O9 3.124113 1_565
Ba2 O2 2.631035 1_645
Ba2 O6 2.687837 1_654
Ba2 O1 2.801570 1_555
Ba2 O4 2.904448 1_555
Ba2 O4 2.916712 1_545
Ba2 O8 2.991577 1_554
Ba2 O13 2.994581 1_554
Ba2 O9 3.010660 1_555
Ba2 O12 3.040383 1_545
Ba2 O15 3.046515 1_655
Ba2 O10 3.124113 1_645
Ba3 O3 2.631035 1_545
Ba3 O7 2.687837 1_555
Ba3 O0 2.801570 1_555
Ba3 O5 2.904448 1_555
Ba3 O5 2.916712 1_545
Ba3 O9 2.991577 1_555
Ba3 O12 2.994581 1_555
Ba3 O8 3.010660 1_555
Ba3 O13 3.040383 1_545
Ba3 O14 3.046515 1_555
Ba3 O11 3.124113 1_545
Ba4 O0 2.615934 1_455
Ba4 O7 2.632284 1_555
Ba4 O4 2.641806 1_455
Ba4 O9 2.809866 1_455
Ba4 O2 2.870446 1_555
Ba4 O12 2.875192 1_455
Ba4 O11 2.922126 1_545
Ba4 O2 2.971816 1_545
Ba4 O14 2.980931 1_555
Ba4 O15 3.307856 1_555
Ba4 O10 3.415005 1_555
Ba5 O1 2.615934 1_556
Ba5 O6 2.632284 1_555
Ba5 O5 2.641806 1_555
Ba5 O8 2.809866 1_555
Ba5 O3 2.870446 1_555
Ba5 O13 2.875192 1_555
Ba5 O10 2.922126 1_546
Ba5 O3 2.971816 1_545
Ba5 O15 2.980931 1_556
Ba5 O14 3.307856 1_555
Ba5 O11 3.415005 1_555
Ba6 O2 2.615934 1_655
Ba6 O5 2.632284 1_555
Ba6 O6 2.641806 1_655
Ba6 O11 2.809866 1_655
Ba6 O0 2.870446 1_555
Ba6 O14 2.875192 1_655
Ba6 O9 2.922126 1_565
Ba6 O0 2.971816 1_565
Ba6 O12 2.980931 1_555
Ba6 O13 3.307856 1_555
Ba6 O8 3.415005 1_555
Ba7 O3 2.615934 1_554
Ba7 O4 2.632284 1_555
Ba7 O7 2.641806 1_555
Ba7 O10 2.809866 1_555
Ba7 O1 2.870446 1_555
Ba7 O15 2.875192 1_555
Ba7 O8 2.922126 1_564
Ba7 O1 2.971816 1_565
Ba7 O13 2.980931 1_554
Ba7 O12 3.307856 1_555
Ba7 O9 3.415005 1_555
