# generated using pymatgen
data_CdS2(NO7)2
_symmetry_space_group_name_H-M   'P 1'
_cell_length_a   5.90271833
_cell_length_b   8.10194034
_cell_length_c   13.53534200
_cell_angle_alpha   90.00000000
_cell_angle_beta   90.00000000
_cell_angle_gamma   88.58618036
_symmetry_Int_Tables_number   1
_chemical_formula_structural   CdS2(NO7)2
_chemical_formula_sum   'Cd2 S4 N4 O28'
_cell_volume   647.10998485
_cell_formula_units_Z   2
loop_
 _symmetry_equiv_pos_site_id
 _symmetry_equiv_pos_as_xyz
  1  'x, y, z'
loop_
 _atom_site_type_symbol
 _atom_site_label
 _atom_site_symmetry_multiplicity
 _atom_site_fract_x
 _atom_site_fract_y
 _atom_site_fract_z
 _atom_site_occupancy
  Cd  Cd0  1  0.00000000  0.50000000  0.50000000  1
  Cd  Cd1  1  0.00000000  0.00000000  0.00000000  1
  S  S0  1  0.75633400  0.88535600  0.36807300  1
  S  S1  1  0.24366600  0.61464400  0.86807300  1
  S  S2  1  0.24366600  0.11464400  0.63192700  1
  S  S3  1  0.75633400  0.38535600  0.13192700  1
  N  N0  1  0.21624200  0.67949000  0.23215400  1
  N  N1  1  0.78375800  0.82051000  0.73215400  1
  N  N2  1  0.78375800  0.32051000  0.76784600  1
  N  N3  1  0.21624200  0.17949000  0.26784600  1
  O  O0  1  0.65749100  0.82606600  0.27924000  1
  O  O1  1  0.34250900  0.67393400  0.77924000  1
  O  O2  1  0.34250900  0.17393400  0.72076000  1
  O  O3  1  0.65749100  0.32606600  0.22076000  1
  O  O4  1  0.72426900  0.04887500  0.40588600  1
  O  O5  1  0.27573100  0.45112500  0.90588600  1
  O  O6  1  0.27573100  0.95112500  0.59411400  1
  O  O7  1  0.72426900  0.54887500  0.09411400  1
  O  O8  1  0.70683800  0.76734400  0.46067700  1
  O  O9  1  0.29316200  0.73265600  0.96067700  1
  O  O10  1  0.29316200  0.23265600  0.53932300  1
  O  O11  1  0.70683800  0.26734400  0.03932300  1
  O  O12  1  0.04052300  0.87599000  0.35886700  1
  O  O13  1  0.95947700  0.62401000  0.85886700  1
  O  O14  1  0.95947700  0.12401000  0.64113300  1
  O  O15  1  0.04052300  0.37599000  0.14113300  1
  O  O16  1  0.13051200  0.71085600  0.34302300  1
  O  O17  1  0.86948800  0.78914400  0.84302300  1
  O  O18  1  0.86948800  0.28914400  0.65697700  1
  O  O19  1  0.13051200  0.21085600  0.15697700  1
  O  O20  1  0.17724900  0.28848000  0.32120100  1
  O  O21  1  0.82275100  0.21151900  0.82120100  1
  O  O22  1  0.82275100  0.71151900  0.67879900  1
  O  O23  1  0.17724900  0.78848100  0.17879900  1
  O  O24  1  0.29200000  0.40954000  0.56813500  1
  O  O25  1  0.70800000  0.09046000  0.06813500  1
  O  O26  1  0.70800000  0.59046000  0.43186500  1
  O  O27  1  0.29200000  0.90954000  0.93186500  1
loop_
_geom_bond_atom_site_label_1
_geom_bond_atom_site_label_2
_geom_bond_distance
_geom_bond_site_symmetry_2
Cd0 O24 2.072702 1_555
Cd0 O26 2.072702 1_455
Cd1 O25 2.072702 1_455
Cd1 O27 2.072702 1_544
N0 O23 1.159416 1_555
N0 O16 1.601955 1_555
N1 O22 1.159416 1_555
N1 O17 1.601955 1_555
N2 O21 1.159416 1_555
N2 O18 1.601955 1_555
N3 O20 1.159410 1_555
N3 O19 1.601955 1_555
O0 S0 1.425031 1_555
O1 S1 1.425031 1_555
O2 S2 1.425031 1_555
O3 S3 1.425031 1_555
O4 S0 1.428479 1_545
O5 S1 1.428479 1_555
O6 S2 1.428479 1_565
O7 S3 1.428479 1_555
O8 S0 1.607607 1_555
O9 S1 1.607607 1_555
O10 O24 1.485070 1_555
O10 S2 1.607607 1_555
O11 O25 1.485070 1_555
O11 S3 1.607607 1_555
O12 O16 1.443283 1_555
O12 S0 1.681954 1_455
O13 O17 1.443283 1_555
O13 S1 1.681954 1_655
O14 O18 1.443283 1_555
O14 S2 1.681954 1_655
O15 O19 1.443283 1_555
O15 S3 1.681954 1_455
O26 O8 1.485070 1_555
O27 O9 1.485070 1_555
