# generated using pymatgen
data_Li7Fe8(BO3)8
_symmetry_space_group_name_H-M   'P 1'
_cell_length_a   5.22126800
_cell_length_b   5.23186630
_cell_length_c   20.57736742
_cell_angle_alpha   91.32464743
_cell_angle_beta   89.56776116
_cell_angle_gamma   119.81394217
_symmetry_Int_Tables_number   1
_chemical_formula_structural   Li7Fe8(BO3)8
_chemical_formula_sum   'Li7 Fe8 B8 O24'
_cell_volume   487.57751670
_cell_formula_units_Z   1
loop_
 _symmetry_equiv_pos_site_id
 _symmetry_equiv_pos_as_xyz
  1  'x, y, z'
loop_
 _atom_site_type_symbol
 _atom_site_label
 _atom_site_symmetry_multiplicity
 _atom_site_fract_x
 _atom_site_fract_y
 _atom_site_fract_z
 _atom_site_occupancy
  Li  Li0  1  0.02234300  0.34522000  0.66682200  1
  Li  Li1  1  0.97596200  0.32142400  0.91722500  1
  Li  Li2  1  0.02365200  0.34844300  0.16822600  1
  Li  Li3  1  0.97427300  0.32412900  0.41542900  1
  Li  Li4  1  0.01363900  0.66726300  0.79246400  1
  Li  Li5  1  0.98806800  0.65506200  0.54253300  1
  Li  Li6  1  0.98847700  0.65483800  0.04475600  1
  Fe  Fe0  1  0.32695800  0.32714000  0.80886400  1
  Fe  Fe1  1  0.33553300  0.32665400  0.30706300  1
  Fe  Fe2  1  0.31439100  0.99481400  0.93465100  1
  Fe  Fe3  1  0.30999400  0.99368700  0.43320500  1
  Fe  Fe4  1  0.67291900  0.99619700  0.55850300  1
  Fe  Fe5  1  0.67339000  0.99802700  0.05892800  1
  Fe  Fe6  1  0.68391400  0.67901200  0.68483000  1
  Fe  Fe7  1  0.68842000  0.68030700  0.18648100  1
  B  B0  1  0.65916600  0.66178900  0.93676300  1
  B  B1  1  0.65883200  0.66371100  0.43526400  1
  B  B2  1  0.66350200  0.99477000  0.81182500  1
  B  B3  1  0.66244100  0.99345500  0.31248300  1
  B  B4  1  0.34189500  0.00437900  0.68656000  1
  B  B5  1  0.34312400  0.00009500  0.18701000  1
  B  B6  1  0.33571600  0.33111600  0.56142200  1
  B  B7  1  0.33617600  0.33010200  0.06198600  1
  O  O0  1  0.67931700  0.74711200  0.79187900  1
  O  O1  1  0.62814500  0.72742700  0.29028300  1
  O  O2  1  0.67365600  0.93042600  0.95126300  1
  O  O3  1  0.39440200  0.41690000  0.91699900  1
  O  O4  1  0.66940000  0.92892200  0.45101400  1
  O  O5  1  0.39398200  0.42180700  0.41276800  1
  O  O6  1  0.39211000  0.97275400  0.82666800  1
  O  O7  1  0.08011700  0.34914800  0.56777200  1
  O  O8  1  0.41612700  0.01680300  0.32903100  1
  O  O9  1  0.07927100  0.34485100  0.06853700  1
  O  O10  1  0.91812100  0.26839100  0.81779100  1
  O  O11  1  0.93869900  0.23492900  0.32068500  1
  O  O12  1  0.09020000  0.72941200  0.69287800  1
  O  O13  1  0.08970800  0.73391200  0.18441500  1
  O  O14  1  0.91145700  0.63849900  0.94356900  1
  O  O15  1  0.60608500  0.02336200  0.66686300  1
  O  O16  1  0.90736500  0.63735400  0.44387300  1
  O  O17  1  0.61240000  0.02870700  0.16907600  1
  O  O18  1  0.60682800  0.58019600  0.57680000  1
  O  O19  1  0.60512700  0.57934000  0.07786200  1
  O  O20  1  0.32263800  0.07059700  0.54039800  1
  O  O21  1  0.32392000  0.06912100  0.04155200  1
  O  O22  1  0.32650100  0.25809600  0.70131700  1
  O  O23  1  0.33038700  0.25521600  0.20815200  1
loop_
_geom_bond_atom_site_label_1
_geom_bond_atom_site_label_2
_geom_bond_distance
_geom_bond_site_symmetry_2
Li0 O12 1.923059 1_555
Li0 O15 1.979911 1_455
Li0 O22 1.996352 1_555
Li0 O7 2.057213 1_555
Li1 O14 1.915844 1_555
Li1 O3 1.984337 1_655
Li1 O2 2.001379 1_545
Li1 O10 2.062626 1_555
Li2 O13 1.891064 1_555
Li2 O17 1.959177 1_455
Li2 O9 2.070586 1_555
Li2 O23 2.071948 1_555
Li3 O16 1.916236 1_555
Li3 O11 1.982515 1_555
Li3 O5 1.988050 1_655
Li3 O4 2.030991 1_545
Li4 O6 1.945057 1_555
Li4 O10 1.971477 1_455
Li4 O0 1.986810 1_455
Li4 O12 2.086628 1_555
Li5 O18 1.956844 1_555
Li5 O7 1.967081 1_655
Li5 O20 2.001694 1_665
Li5 O16 2.067146 1_555
Li6 O19 1.957576 1_555
Li6 O9 1.974631 1_655
Li6 O21 1.999966 1_665
Li6 O14 2.115336 1_554
Fe0 O10 2.007288 1_455
Fe0 O0 2.083482 1_555
Fe0 O6 2.085206 1_545
Fe0 O22 2.233892 1_555
Fe0 O3 2.257173 1_555
Fe1 O11 1.900180 1_455
Fe1 O1 1.920939 1_555
Fe1 O8 1.929885 1_555
Fe1 O23 2.058796 1_555
Fe1 O5 2.209307 1_555
Fe2 O14 2.011246 1_455
Fe2 O3 2.073763 1_565
Fe2 O2 2.095799 1_555
Fe2 O21 2.221565 1_566
Fe2 O6 2.266364 1_555
Fe3 O16 2.014447 1_455
Fe3 O4 2.102132 1_555
Fe3 O5 2.109555 1_565
Fe3 O8 2.200969 1_565
Fe3 O20 2.228531 1_565
Fe4 O7 2.013071 1_665
Fe4 O18 2.070489 1_555
Fe4 O20 2.088088 1_565
Fe4 O4 2.230392 1_555
Fe4 O15 2.266438 1_565
Fe5 O9 1.997172 1_665
Fe5 O21 2.070388 1_565
Fe5 O19 2.082835 1_555
Fe5 O2 2.235526 1_554
Fe5 O17 2.299470 1_565
Fe6 O12 2.010984 1_655
Fe6 O15 2.075718 1_565
Fe6 O22 2.094213 1_555
Fe6 O0 2.225131 1_555
Fe6 O18 2.263700 1_555
Fe7 O13 1.971131 1_655
Fe7 O17 2.088087 1_565
Fe7 O23 2.130459 1_555
Fe7 O1 2.182855 1_555
Fe7 O19 2.279355 1_555
B0 O14 1.390275 1_555
B0 O3 1.393259 1_555
B0 O2 1.394748 1_555
B1 O16 1.384502 1_555
B1 O4 1.391660 1_555
B1 O5 1.403783 1_555
B2 O10 1.390575 1_565
B2 O0 1.391201 1_555
B2 O6 1.395446 1_555
B3 O11 1.373649 1_565
B3 O1 1.379104 1_555
B3 O8 1.390156 1_565
B4 O15 1.390721 1_555
B4 O12 1.392711 1_545
B4 O22 1.395630 1_555
B5 O13 1.363212 1_545
B5 O17 1.385919 1_555
B5 O23 1.426973 1_555
B6 O7 1.388882 1_555
B6 O20 1.389327 1_555
B6 O18 1.398399 1_555
B7 O9 1.386764 1_555
B7 O21 1.390050 1_555
B7 O19 1.394794 1_555
