# generated using pymatgen
data_La4(YS2)11
_symmetry_space_group_name_H-M   'P 1'
_cell_length_a   19.85295513
_cell_length_b   19.85295513
_cell_length_c   11.44709179
_cell_angle_alpha   88.44478713
_cell_angle_beta   88.44478713
_cell_angle_gamma   11.54354994
_symmetry_Int_Tables_number   1
_chemical_formula_structural   La4(YS2)11
_chemical_formula_sum   'La4 Y11 S22'
_cell_volume   902.52348544
_cell_formula_units_Z   1
loop_
 _symmetry_equiv_pos_site_id
 _symmetry_equiv_pos_as_xyz
  1  'x, y, z'
loop_
 _atom_site_type_symbol
 _atom_site_label
 _atom_site_symmetry_multiplicity
 _atom_site_fract_x
 _atom_site_fract_y
 _atom_site_fract_z
 _atom_site_occupancy
  La  La0  1  0.10422400  0.10422400  0.98845100  1
  La  La1  1  0.89577600  0.89577600  0.01154900  1
  La  La2  1  0.36718300  0.36718300  0.65307700  1
  La  La3  1  0.63281700  0.63281700  0.34692300  1
  Y  Y0  1  0.79786600  0.79786600  0.94197700  1
  Y  Y1  1  0.20213400  0.20213400  0.05802300  1
  Y  Y2  1  0.46205400  0.46205400  0.72884400  1
  Y  Y3  1  0.53794600  0.53794600  0.27115600  1
  Y  Y4  1  0.65772100  0.65772100  0.69876200  1
  Y  Y5  1  0.34227900  0.34227900  0.30123800  1
  Y  Y6  1  0.26388700  0.26388700  0.64813200  1
  Y  Y7  1  0.73611300  0.73611300  0.35186800  1
  Y  Y8  1  0.06958800  0.06958800  0.63948900  1
  Y  Y9  1  0.93041200  0.93041200  0.36051100  1
  Y  Y10  1  0.00000000  0.00000000  0.00000000  1
  S  S0  1  0.08748100  0.08748100  0.24835000  1
  S  S1  1  0.91251900  0.91251900  0.75165000  1
  S  S2  1  0.18883000  0.18883000  0.30826500  1
  S  S3  1  0.81117000  0.81117000  0.69173500  1
  S  S4  1  0.27985500  0.27985500  0.40993000  1
  S  S5  1  0.72014500  0.72014500  0.59007000  1
  S  S6  1  0.44537200  0.44537200  0.50485700  1
  S  S7  1  0.55462800  0.55462800  0.49514300  1
  S  S8  1  0.13482500  0.13482500  0.54639900  1
  S  S9  1  0.86517500  0.86517500  0.45360100  1
  S  S10  1  0.59286500  0.59286500  0.78790600  1
  S  S11  1  0.40713500  0.40713500  0.21209400  1
  S  S12  1  0.45309300  0.45309300  0.96886300  1
  S  S13  1  0.54690700  0.54690700  0.03113700  1
  S  S14  1  0.35064500  0.35064500  0.90866100  1
  S  S15  1  0.64935500  0.64935500  0.09133900  1
  S  S16  1  0.16829800  0.16829800  0.84869000  1
  S  S17  1  0.83170200  0.83170200  0.15131000  1
  S  S18  1  0.00777300  0.00777300  0.76098500  1
  S  S19  1  0.99222700  0.99222700  0.23901500  1
  S  S20  1  0.25532200  0.25532200  0.88119800  1
  S  S21  1  0.74467800  0.74467800  0.11880200  1
loop_
_geom_bond_atom_site_label_1
_geom_bond_atom_site_label_2
_geom_bond_distance
_geom_bond_site_symmetry_2
La0 S15 2.943896 1_456
La0 S15 2.943896 1_546
La0 S16 2.957309 1_555
La0 S0 3.030062 1_556
La0 S13 3.048204 1_546
La0 S13 3.048204 1_456
La0 S10 3.084438 1_545
La0 S10 3.084438 1_455
La1 S14 2.943896 1_564
La1 S14 2.943896 1_654
La1 S17 2.957309 1_555
La1 S1 3.030062 1_554
La1 S12 3.048204 1_564
La1 S12 3.048204 1_654
La1 S11 3.084438 1_565
La1 S11 3.084438 1_655
La2 S1 2.928695 1_545
La2 S1 2.928695 1_455
La2 S14 2.980308 1_555
La2 S3 3.004150 1_545
La2 S3 3.004150 1_455
La2 S9 3.035842 1_455
La2 S9 3.035842 1_545
La2 S6 3.483343 1_555
La3 S0 2.928695 1_565
La3 S0 2.928695 1_655
La3 S15 2.980308 1_555
La3 S2 3.004150 1_565
La3 S2 3.004150 1_655
La3 S8 3.035842 1_565
La3 S8 3.035842 1_655
La3 S7 3.483343 1_555
S0 Y3 2.802810 1_545
S0 Y3 2.802810 1_455
S1 Y2 2.802810 1_655
S1 Y2 2.802810 1_565
S2 Y7 2.788402 1_545
S2 Y7 2.788402 1_455
S2 Y1 2.898223 1_555
S3 Y6 2.788402 1_655
S3 Y6 2.788402 1_565
S3 Y0 2.898223 1_555
S4 Y5 2.731664 1_555
S4 Y7 2.734334 1_455
S4 Y7 2.734334 1_545
S4 Y6 2.781921 1_555
S5 Y4 2.731664 1_555
S5 Y6 2.734334 1_655
S5 Y6 2.734334 1_565
S5 Y7 2.781921 1_555
S6 Y2 2.664692 1_555
S6 Y9 2.668133 1_455
S6 Y9 2.668133 1_545
S7 Y3 2.664692 1_555
S7 Y8 2.668133 1_565
S7 Y8 2.668133 1_655
S8 Y8 2.761786 1_555
S8 Y4 2.816428 1_455
S8 Y4 2.816428 1_545
S9 Y9 2.761786 1_555
S9 Y5 2.816428 1_655
S9 Y5 2.816428 1_565
S10 Y4 2.731863 1_555
S10 Y8 2.793451 1_655
S10 Y8 2.793451 1_565
S11 Y5 2.731863 1_555
S11 Y9 2.793451 1_545
S11 Y9 2.793451 1_455
S12 Y10 2.753725 1_566
S12 Y10 2.753725 1_656
S12 Y2 2.760637 1_555
S13 Y10 2.753725 1_565
S13 Y10 2.753725 1_655
S13 Y3 2.760637 1_555
S14 Y0 2.904394 1_455
S14 Y0 2.904394 1_545
S15 Y1 2.904394 1_565
S15 Y1 2.904394 1_655
S16 Y4 2.673078 1_545
S16 Y4 2.673078 1_455
S16 Y1 2.775516 1_556
S17 Y5 2.673078 1_565
S17 Y5 2.673078 1_655
S17 Y0 2.775516 1_554
S18 Y2 2.723934 1_545
S18 Y2 2.723934 1_455
S18 Y10 2.744867 1_556
S18 Y8 2.777089 1_555
S19 Y3 2.723934 1_565
S19 Y3 2.723934 1_655
S19 Y10 2.744867 1_665
S19 Y9 2.777089 1_555
S20 Y6 2.680126 1_555
S20 Y0 2.712694 1_455
S20 Y0 2.712694 1_545
S20 Y1 2.877499 1_556
S21 Y7 2.680126 1_555
S21 Y1 2.712694 1_655
S21 Y1 2.712694 1_565
S21 Y0 2.877499 1_554
