# generated using pymatgen
data_Ti2Mn3V
_symmetry_space_group_name_H-M   'P 1'
_cell_length_a   4.78626967
_cell_length_b   4.78626967
_cell_length_c   7.89845200
_cell_angle_alpha   90.00000000
_cell_angle_beta   90.00000000
_cell_angle_gamma   119.23625032
_symmetry_Int_Tables_number   1
_chemical_formula_structural   Ti2Mn3V
_chemical_formula_sum   'Ti4 Mn6 V2'
_cell_volume   157.89126717
_cell_formula_units_Z   2
loop_
 _symmetry_equiv_pos_site_id
 _symmetry_equiv_pos_as_xyz
  1  'x, y, z'
loop_
 _atom_site_type_symbol
 _atom_site_label
 _atom_site_symmetry_multiplicity
 _atom_site_fract_x
 _atom_site_fract_y
 _atom_site_fract_z
 _atom_site_occupancy
  Ti  Ti0  1  0.66658700  0.33341300  0.30294900  1
  Ti  Ti1  1  0.33255700  0.66744300  0.18285100  1
  Ti  Ti2  1  0.33255700  0.66744300  0.81714900  1
  Ti  Ti3  1  0.66658700  0.33341300  0.69705100  1
  Mn  Mn0  1  0.16992200  0.83007800  0.50000000  1
  Mn  Mn1  1  0.34273300  0.17147000  0.00000000  1
  Mn  Mn2  1  0.82853000  0.65726700  0.00000000  1
  Mn  Mn3  1  0.82792700  0.17207300  0.00000000  1
  Mn  Mn4  1  0.00231600  0.99768400  0.24080200  1
  Mn  Mn5  1  0.00231600  0.99768400  0.75919800  1
  V  V0  1  0.66175300  0.83374200  0.50000000  1
  V  V1  1  0.16625800  0.33824700  0.50000000  1
loop_
_geom_bond_atom_site_label_1
_geom_bond_atom_site_label_2
_geom_bond_distance
_geom_bond_site_symmetry_2
Ti0 V0 2.844015 1_545
Ti0 V1 2.844015 1_655
Ti0 V1 2.865600 1_555
Ti0 V0 2.865600 1_555
Ti0 Ti1 2.916961 1_555
Ti0 Ti1 2.939069 1_545
Ti0 Ti1 2.939069 1_655
Ti0 Ti3 3.112796 1_555
Ti1 V0 2.857625 1_555
Ti1 V1 2.857625 1_555
Ti1 Ti2 2.888480 1_554
Ti2 V0 2.857625 1_555
Ti2 V1 2.857625 1_555
Ti2 Ti3 2.916961 1_555
Ti2 Ti3 2.939069 1_565
Ti2 Ti3 2.939069 1_455
Ti3 V0 2.844015 1_545
Ti3 V1 2.844015 1_655
Ti3 V1 2.865600 1_555
Ti3 V0 2.865600 1_555
Mn0 V0 2.345520 1_555
Mn0 V1 2.345520 1_555
Mn0 V1 2.440847 1_565
Mn0 V0 2.440847 1_455
Mn0 Mn5 2.471231 1_555
Mn0 Mn4 2.471231 1_555
Mn0 Ti2 2.842306 1_555
Mn0 Ti1 2.842306 1_555
Mn0 Ti3 2.878013 1_565
Mn0 Ti0 2.878013 1_565
Mn0 Ti3 2.878013 1_455
Mn0 Ti0 2.878013 1_455
Mn1 Mn3 2.320861 1_555
Mn1 Mn2 2.351945 1_555
Mn1 Mn4 2.374910 1_545
Mn1 Mn5 2.374910 1_544
Mn1 Mn3 2.465411 1_455
Mn1 Mn2 2.489471 1_445
Mn1 Ti0 2.748721 1_555
Mn1 Ti3 2.748721 1_554
Mn1 Ti1 2.791621 1_545
Mn1 Ti2 2.791621 1_544
Mn1 Ti1 2.799349 1_555
Mn1 Ti2 2.799349 1_554
Mn2 Mn3 2.320861 1_555
Mn2 Mn4 2.374910 1_655
Mn2 Mn5 2.374910 1_654
Mn2 Mn3 2.465411 1_565
Mn2 Ti0 2.748721 1_555
Mn2 Ti3 2.748721 1_554
Mn2 Ti1 2.791621 1_655
Mn2 Ti2 2.791621 1_654
Mn2 Ti1 2.799349 1_555
Mn2 Ti2 2.799349 1_554
Mn3 Mn4 2.385656 1_645
Mn3 Mn5 2.385656 1_644
Mn3 Ti0 2.738752 1_555
Mn3 Ti3 2.738752 1_554
Mn3 Ti1 2.819063 1_655
Mn3 Ti1 2.819063 1_545
Mn3 Ti2 2.819063 1_654
Mn3 Ti2 2.819063 1_544
Mn4 V1 2.492908 1_565
Mn4 V0 2.492908 1_455
Mn4 Ti1 2.765269 1_555
Mn4 Ti0 2.815562 1_465
Mn4 Ti0 2.817977 1_565
Mn4 Ti0 2.817977 1_455
Mn4 Ti1 2.834531 1_455
Mn4 Ti1 2.834531 1_565
Mn5 V1 2.492908 1_565
Mn5 V0 2.492908 1_455
Mn5 Ti2 2.765269 1_555
Mn5 Ti3 2.815562 1_465
Mn5 Ti3 2.817977 1_565
Mn5 Ti3 2.817977 1_455
Mn5 Ti2 2.834531 1_455
Mn5 Ti2 2.834531 1_565
V0 V1 2.398897 1_555
V0 V1 2.442519 1_665
