# generated using pymatgen
data_CeMg
_symmetry_space_group_name_H-M   'P 1'
_cell_length_a   6.41974890
_cell_length_b   10.33261354
_cell_length_c   12.36526800
_cell_angle_alpha   90.00000000
_cell_angle_beta   90.00000000
_cell_angle_gamma   90.00000000
_symmetry_Int_Tables_number   1
_chemical_formula_structural   CeMg
_chemical_formula_sum   'Ce16 Mg16'
_cell_volume   820.22265639
_cell_formula_units_Z   16
loop_
 _symmetry_equiv_pos_site_id
 _symmetry_equiv_pos_as_xyz
  1  'x, y, z'
loop_
 _atom_site_type_symbol
 _atom_site_label
 _atom_site_symmetry_multiplicity
 _atom_site_fract_x
 _atom_site_fract_y
 _atom_site_fract_z
 _atom_site_occupancy
  Ce  Ce0_0  1  0.00000000  0.37500000  0.44122980  1
  Ce  Ce0_1  1  0.00000000  0.37500000  0.94122980  1
  Ce  Ce0_2  1  0.00000000  0.87500000  0.44122980  1
  Ce  Ce0_3  1  0.00000000  0.87500000  0.94122980  1
  Ce  Ce0_4  1  0.50000000  0.37500000  0.44122980  1
  Ce  Ce0_5  1  0.50000000  0.37500000  0.94122980  1
  Ce  Ce0_6  1  0.50000000  0.87500000  0.44122980  1
  Ce  Ce0_7  1  0.50000000  0.87500000  0.94122980  1
  Ce  Ce1_0  1  0.00000000  0.12500000  0.05877020  1
  Ce  Ce1_1  1  0.00000000  0.12500000  0.55877020  1
  Ce  Ce1_2  1  0.00000000  0.62500000  0.05877020  1
  Ce  Ce1_3  1  0.00000000  0.62500000  0.55877020  1
  Ce  Ce1_4  1  0.50000000  0.12500000  0.05877020  1
  Ce  Ce1_5  1  0.50000000  0.12500000  0.55877020  1
  Ce  Ce1_6  1  0.50000000  0.62500000  0.05877020  1
  Ce  Ce1_7  1  0.50000000  0.62500000  0.55877020  1
  Mg  Mg0_0  1  0.25000000  0.37500000  0.18521202  1
  Mg  Mg0_1  1  0.25000000  0.37500000  0.68521202  1
  Mg  Mg0_2  1  0.25000000  0.87500000  0.18521202  1
  Mg  Mg0_3  1  0.25000000  0.87500000  0.68521202  1
  Mg  Mg0_4  1  0.75000000  0.37500000  0.18521202  1
  Mg  Mg0_5  1  0.75000000  0.37500000  0.68521202  1
  Mg  Mg0_6  1  0.75000000  0.87500000  0.18521202  1
  Mg  Mg0_7  1  0.75000000  0.87500000  0.68521202  1
  Mg  Mg1_0  1  0.25000000  0.12500000  0.31478798  1
  Mg  Mg1_1  1  0.25000000  0.12500000  0.81478798  1
  Mg  Mg1_2  1  0.25000000  0.62500000  0.31478798  1
  Mg  Mg1_3  1  0.25000000  0.62500000  0.81478798  1
  Mg  Mg1_4  1  0.75000000  0.12500000  0.31478798  1
  Mg  Mg1_5  1  0.75000000  0.12500000  0.81478798  1
  Mg  Mg1_6  1  0.75000000  0.62500000  0.31478798  1
  Mg  Mg1_7  1  0.75000000  0.62500000  0.81478798  1
loop_
_geom_bond_atom_site_label_1
_geom_bond_atom_site_label_2
_geom_bond_distance
_geom_bond_site_symmetry_2
Ce0_0 Ce1_1 2.963968 1_555
Ce0_0 Ce1_3 2.963968 1_555
Ce0_0 Ce0_4 3.209874 1_455
Ce0_0 Ce0_4 3.209874 1_555
Ce0_0 Mg0_1 3.417242 1_555
Ce0_0 Mg0_5 3.417242 1_455
Ce0_0 Mg1_6 3.419502 1_455
Ce0_0 Mg1_0 3.419502 1_555
Ce0_0 Mg1_2 3.419502 1_555
Ce0_0 Mg1_4 3.419502 1_455
Ce0_0 Mg0_4 3.549318 1_455
Ce0_0 Mg0_0 3.549318 1_555
Ce0_1 Ce1_2 2.963968 1_556
Ce0_1 Ce1_0 2.963968 1_556
Ce0_1 Ce0_5 3.209874 1_455
Ce0_1 Ce0_5 3.209874 1_555
Ce0_1 Mg0_4 3.417242 1_456
Ce0_1 Mg0_0 3.417242 1_556
Ce0_1 Mg1_3 3.419502 1_555
Ce0_1 Mg1_1 3.419502 1_555
Ce0_1 Mg1_5 3.419502 1_455
Ce0_1 Mg1_7 3.419502 1_455
Ce0_1 Mg0_5 3.549318 1_455
Ce0_1 Mg0_1 3.549318 1_555
Ce0_2 Ce1_1 2.963968 1_565
Ce0_2 Ce1_3 2.963968 1_555
Ce0_2 Ce0_6 3.209874 1_555
Ce0_2 Ce0_6 3.209874 1_455
Ce0_2 Mg0_7 3.417242 1_455
Ce0_2 Mg0_3 3.417242 1_555
Ce0_2 Mg1_4 3.419502 1_465
Ce0_2 Mg1_0 3.419502 1_565
Ce0_2 Mg1_2 3.419502 1_555
Ce0_2 Mg1_6 3.419502 1_455
Ce0_2 Mg0_2 3.549318 1_555
Ce0_2 Mg0_6 3.549318 1_455
Ce0_3 Ce1_0 2.963968 1_566
Ce0_3 Ce1_2 2.963968 1_556
Ce0_3 Ce0_7 3.209874 1_455
Ce0_3 Ce0_7 3.209874 1_555
Ce0_3 Mg0_6 3.417242 1_456
Ce0_3 Mg0_2 3.417242 1_556
Ce0_3 Mg1_5 3.419502 1_465
Ce0_3 Mg1_1 3.419502 1_565
Ce0_3 Mg1_3 3.419502 1_555
Ce0_3 Mg1_7 3.419502 1_455
Ce0_3 Mg0_3 3.549318 1_555
Ce0_3 Mg0_7 3.549318 1_455
Ce0_4 Ce1_7 2.963968 1_555
Ce0_4 Ce1_5 2.963968 1_555
Ce0_4 Mg0_1 3.417242 1_555
Ce0_4 Mg0_5 3.417242 1_555
Ce0_4 Mg1_6 3.419502 1_555
Ce0_4 Mg1_0 3.419502 1_555
Ce0_4 Mg1_4 3.419502 1_555
Ce0_4 Mg1_2 3.419502 1_555
Ce0_4 Mg0_4 3.549318 1_555
Ce0_4 Mg0_0 3.549318 1_555
Ce0_5 Ce1_4 2.963968 1_556
Ce0_5 Ce1_6 2.963968 1_556
Ce0_5 Mg0_4 3.417242 1_556
Ce0_5 Mg0_0 3.417242 1_556
Ce0_5 Mg1_5 3.419502 1_555
Ce0_5 Mg1_3 3.419502 1_555
Ce0_5 Mg1_1 3.419502 1_555
Ce0_5 Mg1_7 3.419502 1_555
Ce0_5 Mg0_1 3.549318 1_555
Ce0_5 Mg0_5 3.549318 1_555
Ce0_6 Ce1_5 2.963968 1_565
Ce0_6 Ce1_7 2.963968 1_555
Ce0_6 Mg0_7 3.417242 1_555
Ce0_6 Mg0_3 3.417242 1_555
Ce0_6 Mg1_4 3.419502 1_565
Ce0_6 Mg1_0 3.419502 1_565
Ce0_6 Mg1_2 3.419502 1_555
Ce0_6 Mg1_6 3.419502 1_555
Ce0_6 Mg0_2 3.549318 1_555
Ce0_6 Mg0_6 3.549318 1_555
Ce0_7 Ce1_4 2.963968 1_566
Ce0_7 Ce1_6 2.963968 1_556
Ce0_7 Mg0_2 3.417242 1_556
Ce0_7 Mg0_6 3.417242 1_556
Ce0_7 Mg1_5 3.419502 1_565
Ce0_7 Mg1_1 3.419502 1_565
Ce0_7 Mg1_3 3.419502 1_555
Ce0_7 Mg1_7 3.419502 1_555
Ce0_7 Mg0_7 3.549318 1_555
Ce0_7 Mg0_3 3.549318 1_555
Ce1_0 Ce1_4 3.209874 1_455
Ce1_0 Ce1_4 3.209874 1_555
Ce1_0 Mg1_5 3.417242 1_454
Ce1_0 Mg1_1 3.417242 1_554
Ce1_0 Mg0_2 3.419502 1_545
Ce1_0 Mg0_6 3.419502 1_445
Ce1_0 Mg0_4 3.419502 1_455
Ce1_0 Mg0_0 3.419502 1_555
Ce1_0 Mg1_4 3.549318 1_455
Ce1_0 Mg1_0 3.549318 1_555
Ce1_1 Ce1_5 3.209874 1_455
Ce1_1 Ce1_5 3.209874 1_555
Ce1_1 Mg1_0 3.417242 1_555
Ce1_1 Mg1_4 3.417242 1_455
Ce1_1 Mg0_3 3.419502 1_545
Ce1_1 Mg0_7 3.419502 1_445
Ce1_1 Mg0_5 3.419502 1_455
Ce1_1 Mg0_1 3.419502 1_555
Ce1_1 Mg1_5 3.549318 1_455
Ce1_1 Mg1_1 3.549318 1_555
Ce1_2 Ce1_6 3.209874 1_455
Ce1_2 Ce1_6 3.209874 1_555
Ce1_2 Mg1_7 3.417242 1_454
Ce1_2 Mg1_3 3.417242 1_554
Ce1_2 Mg0_4 3.419502 1_455
Ce1_2 Mg0_0 3.419502 1_555
Ce1_2 Mg0_2 3.419502 1_555
Ce1_2 Mg0_6 3.419502 1_455
Ce1_2 Mg1_2 3.549318 1_555
Ce1_2 Mg1_6 3.549318 1_455
Ce1_3 Ce1_7 3.209874 1_555
Ce1_3 Ce1_7 3.209874 1_455
Ce1_3 Mg1_6 3.417242 1_455
Ce1_3 Mg1_2 3.417242 1_555
Ce1_3 Mg0_1 3.419502 1_555
Ce1_3 Mg0_5 3.419502 1_455
Ce1_3 Mg0_7 3.419502 1_455
Ce1_3 Mg0_3 3.419502 1_555
Ce1_3 Mg1_3 3.549318 1_555
Ce1_3 Mg1_7 3.549318 1_455
Ce1_4 Mg1_5 3.417242 1_554
Ce1_4 Mg1_1 3.417242 1_554
Ce1_4 Mg0_2 3.419502 1_545
Ce1_4 Mg0_6 3.419502 1_545
Ce1_4 Mg0_4 3.419502 1_555
Ce1_4 Mg0_0 3.419502 1_555
Ce1_4 Mg1_0 3.549318 1_555
Ce1_4 Mg1_4 3.549318 1_555
Ce1_5 Mg1_0 3.417242 1_555
Ce1_5 Mg1_4 3.417242 1_555
Ce1_5 Mg0_3 3.419502 1_545
Ce1_5 Mg0_7 3.419502 1_545
Ce1_5 Mg0_5 3.419502 1_555
Ce1_5 Mg0_1 3.419502 1_555
Ce1_5 Mg1_5 3.549318 1_555
Ce1_5 Mg1_1 3.549318 1_555
Ce1_6 Mg1_3 3.417242 1_554
Ce1_6 Mg1_7 3.417242 1_554
Ce1_6 Mg0_4 3.419502 1_555
Ce1_6 Mg0_0 3.419502 1_555
Ce1_6 Mg0_6 3.419502 1_555
Ce1_6 Mg0_2 3.419502 1_555
Ce1_6 Mg1_2 3.549318 1_555
Ce1_6 Mg1_6 3.549318 1_555
Ce1_7 Mg1_2 3.417242 1_555
Ce1_7 Mg1_6 3.417242 1_555
Ce1_7 Mg0_5 3.419502 1_555
Ce1_7 Mg0_1 3.419502 1_555
Ce1_7 Mg0_3 3.419502 1_555
Ce1_7 Mg0_7 3.419502 1_555
Ce1_7 Mg1_3 3.549318 1_555
Ce1_7 Mg1_7 3.549318 1_555
Mg0_0 Mg1_2 3.039714 1_555
Mg0_0 Mg1_0 3.039714 1_555
Mg0_0 Mg0_4 3.209874 1_455
Mg0_0 Mg0_4 3.209874 1_555
Mg0_1 Mg1_3 3.039714 1_555
Mg0_1 Mg1_1 3.039714 1_555
Mg0_1 Mg0_5 3.209874 1_455
Mg0_1 Mg0_5 3.209874 1_555
Mg0_2 Mg1_0 3.039714 1_565
Mg0_2 Mg1_2 3.039714 1_555
Mg0_2 Mg0_6 3.209874 1_455
Mg0_2 Mg0_6 3.209874 1_555
Mg0_3 Mg1_1 3.039714 1_565
Mg0_3 Mg1_3 3.039714 1_555
Mg0_3 Mg0_7 3.209874 1_455
Mg0_3 Mg0_7 3.209874 1_555
Mg0_4 Mg1_6 3.039714 1_555
Mg0_4 Mg1_4 3.039714 1_555
Mg0_5 Mg1_7 3.039714 1_555
Mg0_5 Mg1_5 3.039714 1_555
Mg0_6 Mg1_4 3.039714 1_565
Mg0_6 Mg1_6 3.039714 1_555
Mg0_7 Mg1_5 3.039714 1_565
Mg0_7 Mg1_7 3.039714 1_555
Mg1_0 Mg1_4 3.209874 1_455
Mg1_0 Mg1_4 3.209874 1_555
Mg1_1 Mg1_5 3.209874 1_455
Mg1_1 Mg1_5 3.209874 1_555
Mg1_2 Mg1_6 3.209874 1_555
Mg1_2 Mg1_6 3.209874 1_455
Mg1_3 Mg1_7 3.209874 1_555
Mg1_3 Mg1_7 3.209874 1_455
