# generated using pymatgen
data_Pr2S3O20
_symmetry_space_group_name_H-M   'P 1'
_cell_length_a   6.92917400
_cell_length_b   6.55268695
_cell_length_c   20.01908588
_cell_angle_alpha   94.69167631
_cell_angle_beta   90.00000000
_cell_angle_gamma   121.91952986
_symmetry_Int_Tables_number   1
_chemical_formula_structural   Pr2S3O20
_chemical_formula_sum   'Pr4 S6 O40'
_cell_volume   767.92758159
_cell_formula_units_Z   2
loop_
 _symmetry_equiv_pos_site_id
 _symmetry_equiv_pos_as_xyz
  1  'x, y, z'
loop_
 _atom_site_type_symbol
 _atom_site_label
 _atom_site_symmetry_multiplicity
 _atom_site_fract_x
 _atom_site_fract_y
 _atom_site_fract_z
 _atom_site_occupancy
  Pr  Pr0  1  0.14638400  0.31643500  0.38944700  1
  Pr  Pr1  1  0.82994900  0.68356500  0.11055300  1
  Pr  Pr2  1  0.85361600  0.68356500  0.61055300  1
  Pr  Pr3  1  0.17005100  0.31643500  0.88944700  1
  S  S0  1  0.82072700  0.61003000  0.91952400  1
  S  S1  1  0.21069700  0.38997000  0.58047600  1
  S  S2  1  0.17927300  0.38997000  0.08047600  1
  S  S3  1  0.78930300  0.61003000  0.41952400  1
  S  S4  1  0.23683100  0.00000000  0.75000000  1
  S  S5  1  0.76316900  0.00000000  0.25000000  1
  O  O0  1  0.86038900  0.68241500  0.99275500  1
  O  O1  1  0.17797400  0.31758500  0.50724500  1
  O  O2  1  0.13961100  0.31758500  0.00724500  1
  O  O3  1  0.82202600  0.68241500  0.49275500  1
  O  O4  1  0.92745600  0.83309000  0.88264700  1
  O  O5  1  0.09436600  0.16691000  0.61735300  1
  O  O6  1  0.07254400  0.16691000  0.11735300  1
  O  O7  1  0.90563400  0.83309000  0.38264700  1
  O  O8  1  0.57398800  0.46275500  0.90132200  1
  O  O9  1  0.11123300  0.53724500  0.59867800  1
  O  O10  1  0.42601200  0.53724500  0.09867800  1
  O  O11  1  0.88876700  0.46275500  0.40132200  1
  O  O12  1  0.92549400  0.47000700  0.89859300  1
  O  O13  1  0.45548700  0.52999300  0.60140700  1
  O  O14  1  0.07450600  0.52999300  0.10140700  1
  O  O15  1  0.54451300  0.47000700  0.39859300  1
  O  O16  1  0.33882100  0.94708500  0.80705100  1
  O  O17  1  0.39173700  0.05291500  0.69294900  1
  O  O18  1  0.66117900  0.05291500  0.19294900  1
  O  O19  1  0.60826300  0.94708500  0.30705100  1
  O  O20  1  0.00871600  0.79202500  0.72548200  1
  O  O21  1  0.21669200  0.20797500  0.77451800  1
  O  O22  1  0.99128400  0.20797500  0.27451800  1
  O  O23  1  0.78330800  0.79202500  0.22548200  1
  O  O24  1  0.57297400  0.32532800  0.17809200  1
  O  O25  1  0.24764600  0.67467200  0.32190800  1
  O  O26  1  0.42702600  0.67467200  0.82190800  1
  O  O27  1  0.75235400  0.32532800  0.67809200  1
  O  O28  1  0.57373000  0.22325300  0.07055200  1
  O  O29  1  0.35047600  0.77674700  0.42944800  1
  O  O30  1  0.42627000  0.77674700  0.92944800  1
  O  O31  1  0.64952400  0.22325300  0.57055200  1
  O  O32  1  0.30219100  0.01799200  0.12901500  1
  O  O33  1  0.28419900  0.98200800  0.37098500  1
  O  O34  1  0.69780900  0.98200800  0.87098500  1
  O  O35  1  0.71580100  0.01799200  0.62901500  1
  O  O36  1  0.31498600  0.01723300  0.91760900  1
  O  O37  1  0.29775300  0.98276700  0.58239100  1
  O  O38  1  0.68501400  0.98276700  0.08239100  1
  O  O39  1  0.70224700  0.01723300  0.41760900  1
loop_
_geom_bond_atom_site_label_1
_geom_bond_atom_site_label_2
_geom_bond_distance
_geom_bond_site_symmetry_2
O0 S0 1.482605 1_555
O0 Pr1 2.367375 1_556
O1 S1 1.482605 1_555
O1 Pr0 2.367375 1_555
O2 S2 1.482605 1_555
O2 Pr3 2.367375 1_554
O3 S3 1.482605 1_555
O3 Pr2 2.367375 1_555
O4 S0 1.503925 1_555
O4 Pr3 2.678618 1_665
O5 S1 1.503925 1_555
O5 Pr2 2.678618 1_445
O6 S2 1.503925 1_555
O6 Pr1 2.678618 1_445
O7 S3 1.503925 1_555
O7 Pr0 2.678618 1_665
O8 S0 1.478140 1_555
O8 Pr3 2.436151 1_555
O9 S1 1.478140 1_555
O9 Pr2 2.436151 1_455
O10 S2 1.478140 1_555
O10 Pr1 2.436151 1_555
O11 S3 1.478140 1_555
O11 Pr0 2.436151 1_655
O12 S0 1.478475 1_555
O12 Pr3 2.385557 1_655
O13 S1 1.478475 1_555
O13 Pr2 2.385557 1_555
O14 S2 1.478475 1_555
O14 Pr1 2.385557 1_455
O15 S3 1.478475 1_555
O15 Pr0 2.385557 1_555
O16 S4 1.499324 1_565
O17 S4 1.499328 1_555
O18 S5 1.499324 1_555
O19 S5 1.499328 1_565
O20 S4 1.486366 1_565
O20 Pr2 2.424560 1_455
O21 S4 1.486362 1_555
O21 Pr3 2.424562 1_555
O22 S5 1.486366 1_555
O22 Pr0 2.424560 1_655
O23 S5 1.486362 1_565
O23 Pr1 2.424562 1_555
O24 Pr1 2.570653 1_555
O25 Pr0 2.570653 1_555
O26 Pr3 2.570653 1_555
O27 Pr2 2.570653 1_555
O28 Pr1 2.614064 1_555
O29 Pr0 2.614065 1_555
O30 Pr3 2.614064 1_555
O31 Pr2 2.614065 1_555
O32 Pr1 2.816227 1_445
O33 Pr0 2.816227 1_565
O34 Pr3 2.816227 1_665
O35 Pr2 2.816227 1_545
O36 Pr3 2.726389 1_555
O37 Pr2 2.726389 1_455
O38 Pr1 2.726389 1_555
O39 Pr0 2.726389 1_655
