# generated using pymatgen
data_CsCaMg14
_symmetry_space_group_name_H-M   'P 1'
_cell_length_a   6.81608529
_cell_length_b   6.81608466
_cell_length_c   10.70359620
_cell_angle_alpha   90.00000000
_cell_angle_beta   90.00000000
_cell_angle_gamma   120.00000309
_symmetry_Int_Tables_number   1
_chemical_formula_structural   CsCaMg14
_chemical_formula_sum   'Cs1 Ca1 Mg14'
_cell_volume   430.65582647
_cell_formula_units_Z   1
loop_
 _symmetry_equiv_pos_site_id
 _symmetry_equiv_pos_as_xyz
  1  'x, y, z'
loop_
 _atom_site_type_symbol
 _atom_site_label
 _atom_site_symmetry_multiplicity
 _atom_site_fract_x
 _atom_site_fract_y
 _atom_site_fract_z
 _atom_site_occupancy
  Cs  Cs0  1  0.16666700  0.33333300  0.62500000  1
  Ca  Ca0  1  0.16666700  0.33333300  0.12500000  1
  Mg  Mg0  1  0.17320694  0.83660297  0.12500000  1
  Mg  Mg1  1  0.17255937  0.83627919  0.62500000  1
  Mg  Mg2  1  0.66339703  0.32679306  0.12500000  1
  Mg  Mg3  1  0.66372081  0.32744063  0.62500000  1
  Mg  Mg4  1  0.66339703  0.83660297  0.12500000  1
  Mg  Mg5  1  0.66372081  0.83627919  0.62500000  1
  Mg  Mg6  1  0.34412084  0.15587916  0.36528057  1
  Mg  Mg7  1  0.34412084  0.15587916  0.88471943  1
  Mg  Mg8  1  0.34412084  0.68824269  0.36528057  1
  Mg  Mg9  1  0.34412084  0.68824269  0.88471943  1
  Mg  Mg10  1  0.81175731  0.15587916  0.36528057  1
  Mg  Mg11  1  0.81175731  0.15587916  0.88471943  1
  Mg  Mg12  1  0.83333300  0.66666700  0.37605115  1
  Mg  Mg13  1  0.83333300  0.66666700  0.87394885  1
loop_
_geom_bond_atom_site_label_1
_geom_bond_atom_site_label_2
_geom_bond_distance
_geom_bond_site_symmetry_2
Cs0 Mg1 3.408220 1_545
Cs0 Mg5 3.408220 1_555
Cs0 Mg5 3.408220 1_445
Cs0 Mg1 3.408220 1_555
Cs0 Mg3 3.408220 1_555
Cs0 Mg3 3.408220 1_455
Cs0 Mg6 3.480946 1_555
Cs0 Mg7 3.480946 1_555
Cs0 Mg9 3.480953 1_555
Cs0 Mg8 3.480953 1_555
Cs0 Mg10 3.480953 1_455
Cs0 Mg11 3.480953 1_455
Ca0 Mg6 3.317146 1_555
Ca0 Mg7 3.317146 1_554
Ca0 Mg8 3.317154 1_555
Ca0 Mg9 3.317154 1_554
Ca0 Mg10 3.317154 1_455
Ca0 Mg11 3.317154 1_454
Ca0 Mg4 3.408261 1_555
Ca0 Mg0 3.408261 1_555
Ca0 Mg4 3.408261 1_445
Ca0 Mg0 3.408261 1_545
Ca0 Mg2 3.408261 1_455
Ca0 Mg2 3.408261 1_555
Mg0 Mg9 3.189403 1_554
Mg0 Mg8 3.189403 1_555
Mg0 Mg6 3.189409 1_565
Mg0 Mg7 3.189409 1_564
Mg0 Mg2 3.341177 1_565
Mg0 Mg4 3.341177 1_555
Mg0 Mg12 3.353474 1_455
Mg0 Mg13 3.353474 1_454
Mg0 Mg2 3.474908 1_455
Mg0 Mg4 3.474908 1_455
Mg1 Mg13 3.333172 1_455
Mg1 Mg12 3.333172 1_455
Mg1 Mg3 3.347798 1_565
Mg1 Mg5 3.347798 1_555
Mg1 Mg8 3.360587 1_555
Mg1 Mg9 3.360587 1_555
Mg1 Mg7 3.360593 1_565
Mg1 Mg6 3.360593 1_565
Mg1 Mg3 3.468287 1_455
Mg1 Mg5 3.468287 1_455
Mg2 Mg7 3.189409 1_554
Mg2 Mg6 3.189409 1_555
Mg2 Mg4 3.341177 1_545
Mg2 Mg4 3.474908 1_555
Mg3 Mg5 3.347798 1_545
Mg3 Mg6 3.360593 1_555
Mg3 Mg7 3.360593 1_555
Mg3 Mg5 3.468287 1_555
Mg4 Mg8 3.189410 1_555
Mg4 Mg9 3.189410 1_554
Mg5 Mg8 3.360593 1_555
Mg5 Mg9 3.360593 1_555
Mg6 Mg8 3.187450 1_545
Mg7 Mg9 3.187450 1_545
Mg10 Mg8 3.187450 1_545
Mg10 Mg6 3.187450 1_555
Mg10 Mg2 3.189403 1_555
Mg10 Mg4 3.189410 1_545
Mg10 Mg3 3.360587 1_555
Mg10 Mg5 3.360593 1_545
Mg10 Mg12 3.412369 1_555
Mg10 Mg12 3.412369 1_545
Mg11 Mg9 3.187450 1_545
Mg11 Mg7 3.187450 1_555
Mg11 Mg2 3.189403 1_556
Mg11 Mg4 3.189410 1_546
Mg11 Mg3 3.360587 1_555
Mg11 Mg5 3.360593 1_545
Mg11 Mg13 3.412369 1_555
Mg11 Mg13 3.412369 1_545
Mg12 Mg5 3.333165 1_555
Mg12 Mg3 3.333172 1_555
Mg12 Mg4 3.353467 1_555
Mg12 Mg2 3.353474 1_555
Mg12 Mg6 3.412369 1_555
Mg12 Mg6 3.412369 1_665
Mg12 Mg8 3.412369 1_655
Mg12 Mg8 3.412370 1_555
Mg13 Mg5 3.333165 1_555
Mg13 Mg3 3.333172 1_555
Mg13 Mg4 3.353467 1_556
Mg13 Mg2 3.353474 1_556
Mg13 Mg7 3.412369 1_555
Mg13 Mg7 3.412369 1_665
Mg13 Mg9 3.412369 1_655
Mg13 Mg9 3.412370 1_555
