# generated using pymatgen
data_Ca2MnWO6
_symmetry_space_group_name_H-M   'P 1'
_cell_length_a   5.62731400
_cell_length_b   5.63497870
_cell_length_c   5.70403964
_cell_angle_alpha   60.62993379
_cell_angle_beta   60.56437263
_cell_angle_gamma   60.04563031
_symmetry_Int_Tables_number   1
_chemical_formula_structural   Ca2MnWO6
_chemical_formula_sum   'Ca2 Mn1 W1 O6'
_cell_volume   129.08458555
_cell_formula_units_Z   1
loop_
 _symmetry_equiv_pos_site_id
 _symmetry_equiv_pos_as_xyz
  1  'x, y, z'
loop_
 _atom_site_type_symbol
 _atom_site_label
 _atom_site_symmetry_multiplicity
 _atom_site_fract_x
 _atom_site_fract_y
 _atom_site_fract_z
 _atom_site_occupancy
  Ca  Ca0  1  0.72482500  0.74408800  0.81106600  1
  Ca  Ca1  1  0.22504500  0.24086100  0.30408400  1
  Mn  Mn0  1  0.49486400  0.51269900  0.50013500  1
  W  W0  1  0.00291100  0.01837800  0.97945200  1
  O  O0  1  0.67492800  0.26148100  0.19973500  1
  O  O1  1  0.33973200  0.81373600  0.71072700  1
  O  O2  1  0.86379700  0.69333300  0.18816800  1
  O  O3  1  0.25037000  0.86970400  0.19958300  1
  O  O4  1  0.79335700  0.16121700  0.71280900  1
  O  O5  1  0.14109300  0.35336900  0.73042200  1
loop_
_geom_bond_atom_site_label_1
_geom_bond_atom_site_label_2
_geom_bond_distance
_geom_bond_site_symmetry_2
Ca0 O1 2.308045 1_555
Ca0 O5 2.308737 1_655
Ca0 O4 2.321278 1_565
Ca0 O2 2.479273 1_556
Ca0 O3 2.525164 1_556
Ca0 O0 2.574150 1_556
Ca1 O0 2.349847 1_555
Ca1 O2 2.358395 1_455
Ca1 O3 2.364646 1_545
Ca1 O1 2.456347 1_545
Ca1 O4 2.456378 1_455
Ca1 O5 2.573518 1_555
Mn0 O4 2.130634 1_555
Mn0 O5 2.133669 1_555
Mn0 O1 2.138183 1_555
Mn0 O3 2.247311 1_555
Mn0 O0 2.281901 1_555
Mn0 O2 2.283689 1_555
O0 W0 1.935451 1_654
O1 W0 1.991827 1_565
O2 W0 1.939570 1_664
O3 W0 1.933742 1_564
O4 W0 1.991454 1_655
O5 W0 1.983856 1_555
