# generated using pymatgen
data_V2ZnO4
_symmetry_space_group_name_H-M   'P 1'
_cell_length_a   6.06706662
_cell_length_b   6.06706662
_cell_length_c   14.91240400
_cell_angle_alpha   90.00000000
_cell_angle_beta   90.00000000
_cell_angle_gamma   120.00000678
_symmetry_Int_Tables_number   1
_chemical_formula_structural   V2ZnO4
_chemical_formula_sum   'V12 Zn6 O24'
_cell_volume   475.37440045
_cell_formula_units_Z   6
loop_
 _symmetry_equiv_pos_site_id
 _symmetry_equiv_pos_as_xyz
  1  'x, y, z'
loop_
 _atom_site_type_symbol
 _atom_site_label
 _atom_site_symmetry_multiplicity
 _atom_site_fract_x
 _atom_site_fract_y
 _atom_site_fract_z
 _atom_site_occupancy
  V  V0  1  0.83449200  0.16550800  0.16704600  1
  V  V1  1  0.33101500  0.16550800  0.16704600  1
  V  V2  1  0.50022100  0.49977900  0.49944200  1
  V  V3  1  0.83449200  0.66898500  0.16704600  1
  V  V4  1  0.66666700  0.33333300  0.33312300  1
  V  V5  1  0.99955900  0.49977900  0.49944200  1
  V  V6  1  0.16741300  0.83258700  0.83298600  1
  V  V7  1  0.50022100  0.00044100  0.49944200  1
  V  V8  1  0.16741300  0.33482600  0.83298600  1
  V  V9  1  0.33333300  0.66666700  0.66542900  1
  V  V10  1  0.66517400  0.83258700  0.83298600  1
  V  V11  1  0.66666700  0.33333300  0.95850300  1
  Zn  Zn0  1  0.33333300  0.66666700  0.04671300  1
  Zn  Zn1  1  0.00000000  0.00000000  0.37494500  1
  Zn  Zn2  1  0.00000000  0.00000000  0.00167000  1
  Zn  Zn3  1  0.66666700  0.33333300  0.70764100  1
  Zn  Zn4  1  0.33333300  0.66666700  0.29063800  1
  Zn  Zn5  1  0.00000000  0.00000000  0.62489400  1
  O  O0  1  0.68934000  0.84467000  0.09154100  1
  O  O1  1  0.00000000  0.00000000  0.24132900  1
  O  O2  1  0.15533000  0.31066000  0.09154100  1
  O  O3  1  0.15533000  0.84467000  0.09154100  1
  O  O4  1  0.51437300  0.48562700  0.24628500  1
  O  O5  1  0.36340400  0.18170200  0.41930700  1
  O  O6  1  0.51437300  0.02874500  0.24628500  1
  O  O7  1  0.66666700  0.33333300  0.08900900  1
  O  O8  1  0.81829800  0.63659600  0.41930700  1
  O  O9  1  0.66666700  0.33333300  0.57181100  1
  O  O10  1  0.97125500  0.48562700  0.24628500  1
  O  O11  1  0.81829800  0.18170200  0.41930700  1
  O  O12  1  0.18073300  0.81926700  0.58032100  1
  O  O13  1  0.02846500  0.51423200  0.75241200  1
  O  O14  1  0.18073300  0.36146500  0.58032100  1
  O  O15  1  0.33333300  0.66666700  0.42775200  1
  O  O16  1  0.33333300  0.66666700  0.90575700  1
  O  O17  1  0.48576800  0.97153500  0.75241200  1
  O  O18  1  0.63853500  0.81926700  0.58032100  1
  O  O19  1  0.48576800  0.51423200  0.75241200  1
  O  O20  1  0.84053700  0.15946300  0.91012900  1
  O  O21  1  0.00000000  0.00000000  0.76192400  1
  O  O22  1  0.84053700  0.68107300  0.91012900  1
  O  O23  1  0.31892700  0.15946300  0.91012900  1
loop_
_geom_bond_atom_site_label_1
_geom_bond_atom_site_label_2
_geom_bond_distance
_geom_bond_site_symmetry_2
O0 Zn0 1.986408 1_555
O0 V3 2.029317 1_555
O0 V0 2.029322 1_565
O0 Zn2 2.111979 1_665
O1 Zn1 1.992536 1_555
O1 V3 2.062039 1_445
O1 V1 2.062039 1_555
O1 V0 2.062044 1_455
O2 Zn0 1.986408 1_555
O2 V1 2.029317 1_555
O2 V0 2.029322 1_455
O2 Zn2 2.111979 1_555
O3 Zn0 1.986403 1_555
O3 V1 2.029322 1_565
O3 V3 2.029322 1_455
O3 Zn2 2.111979 1_565
O4 Zn4 2.014148 1_555
O4 V4 2.058673 1_555
O4 V1 2.060417 1_555
O4 V3 2.060417 1_555
O5 Zn1 2.020763 1_555
O5 V4 2.047129 1_555
O5 V2 2.058955 1_555
O5 V7 2.058959 1_555
O6 Zn4 2.014137 1_545
O6 V4 2.058673 1_555
O6 V0 2.060417 1_555
O6 V1 2.060426 1_555
O7 V11 1.946158 1_554
O7 V0 2.112929 1_555
O7 V1 2.112938 1_555
O7 V3 2.112938 1_555
O8 Zn1 2.020763 1_665
O8 V4 2.047129 1_555
O8 V2 2.058955 1_555
O8 V5 2.058959 1_555
O9 Zn3 2.025552 1_555
O9 V7 2.055234 1_555
O9 V5 2.055234 1_555
O9 V2 2.055234 1_555
O10 Zn4 2.014137 1_655
O10 V4 2.058673 1_555
O10 V0 2.060417 1_555
O10 V3 2.060426 1_555
O11 Zn1 2.020764 1_655
O11 V4 2.047125 1_555
O11 V5 2.058955 1_555
O11 V7 2.058955 1_555
O12 Zn5 2.012182 1_565
O12 V9 2.045064 1_555
O12 V7 2.071110 1_565
O12 V5 2.071110 1_455
O13 Zn3 2.014805 1_455
O13 V9 2.061177 1_555
O13 V8 2.063186 1_555
O13 V6 2.063190 1_555
O14 Zn5 2.012177 1_555
O14 V9 2.045072 1_555
O14 V2 2.071110 1_555
O14 V5 2.071110 1_455
O15 Zn4 2.044699 1_555
O15 V7 2.053891 1_565
O15 V5 2.053891 1_455
O15 V2 2.053900 1_555
O16 V6 2.053694 1_555
O16 V8 2.053698 1_555
O16 V10 2.053698 1_555
O16 Zn0 2.101993 1_556
O17 Zn3 2.014805 1_565
O17 V9 2.061177 1_555
O17 V10 2.063186 1_555
O17 V6 2.063190 1_555
O18 Zn5 2.012177 1_665
O18 V9 2.045072 1_555
O18 V2 2.071110 1_555
O18 V7 2.071110 1_565
O19 Zn3 2.014805 1_555
O19 V9 2.061185 1_555
O19 V10 2.063190 1_555
O19 V8 2.063190 1_555
O20 V11 1.964357 1_555
O20 V10 2.068423 1_545
O20 V8 2.068423 1_655
O20 Zn2 2.161365 1_656
O21 Zn5 2.043447 1_555
O21 V10 2.053765 1_445
O21 V8 2.053765 1_555
O21 V6 2.053765 1_545
O22 V11 1.964357 1_555
O22 V6 2.068423 1_655
O22 V10 2.068427 1_555
O22 Zn2 2.161369 1_666
O23 V11 1.964357 1_555
O23 V6 2.068423 1_545
O23 V8 2.068427 1_555
O23 Zn2 2.161369 1_556
