# generated using pymatgen
data_Ca2GaPd2
_symmetry_space_group_name_H-M   'P 1'
_cell_length_a   5.71127494
_cell_length_b   5.71127494
_cell_length_c   7.78437392
_cell_angle_alpha   78.83040982
_cell_angle_beta   78.83040982
_cell_angle_gamma   59.93396477
_symmetry_Int_Tables_number   1
_chemical_formula_structural   Ca2GaPd2
_chemical_formula_sum   'Ca4 Ga2 Pd4'
_cell_volume   214.18688432
_cell_formula_units_Z   2
loop_
 _symmetry_equiv_pos_site_id
 _symmetry_equiv_pos_as_xyz
  1  'x, y, z'
loop_
 _atom_site_type_symbol
 _atom_site_label
 _atom_site_symmetry_multiplicity
 _atom_site_fract_x
 _atom_site_fract_y
 _atom_site_fract_z
 _atom_site_occupancy
  Ca  Ca0  1  0.78474213  0.51519966  0.35025151  1
  Ca  Ca1  1  0.48480034  0.21525787  0.14974849  1
  Ca  Ca2  1  0.21525787  0.48480034  0.64974849  1
  Ca  Ca3  1  0.51519966  0.78474213  0.85025151  1
  Ga  Ga0  1  0.13323440  0.86676560  0.25000000  1
  Ga  Ga1  1  0.86676560  0.13323440  0.75000000  1
  Pd  Pd0  1  0.00425211  0.74043514  0.00248404  1
  Pd  Pd1  1  0.25956486  0.99574789  0.49751596  1
  Pd  Pd2  1  0.99574789  0.25956486  0.99751596  1
  Pd  Pd3  1  0.74043514  0.00425211  0.50248404  1
loop_
_geom_bond_atom_site_label_1
_geom_bond_atom_site_label_2
_geom_bond_distance
_geom_bond_site_symmetry_2
Ca0 Pd3 3.044335 1_555
Ca0 Pd1 3.048797 1_645
Ca0 Pd1 3.079213 1_555
Ca0 Pd0 3.083345 1_655
Ca0 Pd2 3.103487 1_554
Ca0 Pd3 3.118942 1_565
Ca1 Pd2 3.044335 1_554
Ca1 Pd0 3.048797 1_645
Ca1 Pd0 3.079213 1_555
Ca1 Pd1 3.083345 1_545
Ca1 Pd3 3.103487 1_555
Ca1 Pd2 3.118942 1_454
Ca2 Pd1 3.044335 1_555
Ca2 Pd3 3.048797 1_465
Ca2 Pd3 3.079213 1_555
Ca2 Pd2 3.083345 1_455
Ca2 Pd0 3.103487 1_556
Ca2 Pd1 3.118942 1_545
Ca3 Pd0 3.044335 1_556
Ca3 Pd2 3.048797 1_465
Ca3 Pd2 3.079213 1_555
Ca3 Pd3 3.083345 1_565
Ca3 Pd1 3.103487 1_555
Ca3 Pd0 3.118942 1_656
Ga0 Pd0 2.529164 1_555
Ga0 Pd1 2.529164 1_555
Ga0 Pd3 2.576210 1_465
Ga0 Pd2 2.576210 1_464
Ga1 Pd3 2.529164 1_555
Ga1 Pd2 2.529164 1_555
Ga1 Pd0 2.576210 1_646
Ga1 Pd1 2.576210 1_645
