# generated using pymatgen
data_CaYCd2
_symmetry_space_group_name_H-M   'P 1'
_cell_length_a   5.32055600
_cell_length_b   5.32055600
_cell_length_c   5.32055600
_cell_angle_alpha   60.00000000
_cell_angle_beta   60.00000000
_cell_angle_gamma   60.00000000
_symmetry_Int_Tables_number   1
_chemical_formula_structural   CaYCd2
_chemical_formula_sum   'Ca1 Y1 Cd2'
_cell_volume   106.50158199
_cell_formula_units_Z   1
loop_
 _symmetry_equiv_pos_site_id
 _symmetry_equiv_pos_as_xyz
  1  'x, y, z'
loop_
 _atom_site_type_symbol
 _atom_site_label
 _atom_site_symmetry_multiplicity
 _atom_site_fract_x
 _atom_site_fract_y
 _atom_site_fract_z
 _atom_site_occupancy
  Ca  Ca0  1  0.50000000  0.50000000  0.50000000  1
  Y  Y0  1  0.00000000  -0.00000000  0.00000000  1
  Cd  Cd0  1  0.75000000  0.75000000  0.75000000  1
  Cd  Cd1  1  0.25000000  0.25000000  0.25000000  1
loop_
_geom_bond_atom_site_label_1
_geom_bond_atom_site_label_2
_geom_bond_distance
_geom_bond_site_symmetry_2
Ca0 Cd0 3.258162 1_555
Ca0 Cd0 3.258162 1_554
Ca0 Cd1 3.258162 1_556
Ca0 Cd1 3.258162 1_555
Ca0 Cd0 3.258162 1_545
Ca0 Cd0 3.258162 1_455
Ca0 Cd1 3.258162 1_655
Ca0 Cd1 3.258162 1_565
Cd0 Y0 3.258162 1_665
Cd0 Y0 3.258162 1_666
Cd0 Y0 3.258162 1_566
Cd0 Y0 3.258162 1_656
Cd1 Y0 3.258162 1_555
Cd1 Y0 3.258162 1_655
Cd1 Y0 3.258162 1_556
Cd1 Y0 3.258162 1_565
