# generated using pymatgen
data_Mn3BPO10
_symmetry_space_group_name_H-M   'P 1'
_cell_length_a   6.48663800
_cell_length_b   15.85489500
_cell_length_c   8.07581700
_cell_angle_alpha   90.00000000
_cell_angle_beta   90.00000000
_cell_angle_gamma   90.00000000
_symmetry_Int_Tables_number   1
_chemical_formula_structural   Mn3BPO10
_chemical_formula_sum   'Mn12 B4 P4 O40'
_cell_volume   830.55711181
_cell_formula_units_Z   4
loop_
 _symmetry_equiv_pos_site_id
 _symmetry_equiv_pos_as_xyz
  1  'x, y, z'
loop_
 _atom_site_type_symbol
 _atom_site_label
 _atom_site_symmetry_multiplicity
 _atom_site_fract_x
 _atom_site_fract_y
 _atom_site_fract_z
 _atom_site_occupancy
  Mn  Mn0  1  0.75000000  0.49768400  0.88667700  1
  Mn  Mn1  1  0.25000000  0.50231600  0.11332300  1
  Mn  Mn2  1  0.25000000  0.00231600  0.38667700  1
  Mn  Mn3  1  0.75000000  0.99768400  0.61332300  1
  Mn  Mn4  1  0.50780300  0.88299600  0.88582200  1
  Mn  Mn5  1  0.49219700  0.11700400  0.11417800  1
  Mn  Mn6  1  0.49219700  0.61700400  0.38582200  1
  Mn  Mn7  1  0.00780300  0.11700400  0.11417800  1
  Mn  Mn8  1  0.50780300  0.38299600  0.61417800  1
  Mn  Mn9  1  0.99219700  0.88299600  0.88582200  1
  Mn  Mn10  1  0.99219700  0.38299600  0.61417800  1
  Mn  Mn11  1  0.00780300  0.61700400  0.38582200  1
  B  B0  1  0.75000000  0.68947600  0.91963500  1
  B  B1  1  0.25000000  0.31052400  0.08036500  1
  B  B2  1  0.25000000  0.81052400  0.41963500  1
  B  B3  1  0.75000000  0.18947600  0.58036500  1
  P  P0  1  0.75000000  0.94976300  0.22970200  1
  P  P1  1  0.25000000  0.05023700  0.77029800  1
  P  P2  1  0.25000000  0.55023700  0.72970200  1
  P  P3  1  0.75000000  0.44976300  0.27029800  1
  O  O0  1  0.75000000  0.91584600  0.40601700  1
  O  O1  1  0.25000000  0.08415400  0.59398300  1
  O  O2  1  0.25000000  0.58415400  0.90601700  1
  O  O3  1  0.75000000  0.41584600  0.09398300  1
  O  O4  1  0.45123000  0.99533500  0.79092700  1
  O  O5  1  0.54877000  0.00466500  0.20907300  1
  O  O6  1  0.54877000  0.50466500  0.29092700  1
  O  O7  1  0.95123000  0.00466500  0.20907300  1
  O  O8  1  0.45123000  0.49533500  0.70907300  1
  O  O9  1  0.04877000  0.99533500  0.79092700  1
  O  O10  1  0.04877000  0.49533500  0.70907300  1
  O  O11  1  0.95123000  0.50466500  0.29092700  1
  O  O12  1  0.91809600  0.74029400  0.84325300  1
  O  O13  1  0.08190400  0.25970600  0.15674700  1
  O  O14  1  0.08190400  0.75970600  0.34325300  1
  O  O15  1  0.41809600  0.25970600  0.15674700  1
  O  O16  1  0.91809600  0.24029400  0.65674700  1
  O  O17  1  0.58190400  0.74029400  0.84325300  1
  O  O18  1  0.58190400  0.24029400  0.65674700  1
  O  O19  1  0.41809600  0.75970600  0.34325300  1
  O  O20  1  0.75000000  0.38336700  0.41296500  1
  O  O21  1  0.25000000  0.61663300  0.58703500  1
  O  O22  1  0.25000000  0.11663300  0.91296500  1
  O  O23  1  0.75000000  0.88336700  0.08703500  1
  O  O24  1  0.75000000  0.64198300  0.46729700  1
  O  O25  1  0.25000000  0.35801700  0.53270300  1
  O  O26  1  0.25000000  0.85801700  0.96729700  1
  O  O27  1  0.75000000  0.14198300  0.03270300  1
  O  O28  1  0.75000000  0.61746500  0.99286100  1
  O  O29  1  0.25000000  0.38253500  0.00713900  1
  O  O30  1  0.25000000  0.88253500  0.49286100  1
  O  O31  1  0.75000000  0.11746500  0.50713900  1
  O  O32  1  0.75000000  0.89484500  0.76176500  1
  O  O33  1  0.25000000  0.10515500  0.23823500  1
  O  O34  1  0.25000000  0.60515500  0.26176500  1
  O  O35  1  0.75000000  0.39484500  0.73823500  1
  O  O36  1  0.75000000  0.74090600  0.71420400  1
  O  O37  1  0.25000000  0.25909400  0.28579600  1
  O  O38  1  0.25000000  0.75909400  0.21420400  1
  O  O39  1  0.75000000  0.24090600  0.78579600  1
loop_
_geom_bond_atom_site_label_1
_geom_bond_atom_site_label_2
_geom_bond_distance
_geom_bond_site_symmetry_2
Mn0 O35 2.023767 1_555
Mn0 O28 2.083743 1_555
Mn0 O3 2.118117 1_556
Mn0 O8 2.411325 1_555
Mn0 O10 2.411325 1_655
Mn1 O34 2.023767 1_555
Mn1 O29 2.083743 1_555
Mn1 O2 2.118117 1_554
Mn1 O11 2.411325 1_455
Mn1 O6 2.411325 1_555
Mn2 O33 2.023767 1_555
Mn2 O30 2.083743 1_545
Mn2 O1 2.118117 1_555
Mn2 O7 2.411325 1_455
Mn2 O5 2.411325 1_555
Mn3 O32 2.023767 1_555
Mn3 O31 2.083743 1_565
Mn3 O0 2.118117 1_555
Mn3 O9 2.411325 1_655
Mn3 O4 2.411325 1_555
Mn4 O26 1.840186 1_555
Mn4 O32 1.872752 1_555
Mn4 O4 1.973414 1_555
Mn4 O23 2.260245 1_556
Mn4 O17 2.338428 1_555
Mn5 O27 1.840186 1_555
Mn5 O33 1.872752 1_555
Mn5 O5 1.973414 1_555
Mn5 O22 2.260245 1_554
Mn5 O15 2.338428 1_555
Mn6 O24 1.840186 1_555
Mn6 O34 1.872752 1_555
Mn6 O6 1.973414 1_555
Mn6 O21 2.260245 1_555
Mn6 O19 2.338428 1_555
Mn7 O27 1.840186 1_455
Mn7 O33 1.872752 1_555
Mn7 O7 1.973414 1_455
Mn7 O22 2.260245 1_554
Mn7 O13 2.338428 1_555
Mn8 O25 1.840186 1_555
Mn8 O35 1.872752 1_555
Mn8 O8 1.973414 1_555
Mn8 O20 2.260245 1_555
Mn8 O18 2.338428 1_555
Mn9 O26 1.840186 1_655
Mn9 O32 1.872752 1_555
Mn9 O9 1.973414 1_655
Mn9 O23 2.260245 1_556
Mn9 O12 2.338428 1_555
Mn10 O25 1.840186 1_655
Mn10 O35 1.872752 1_555
Mn10 O10 1.973414 1_655
Mn10 O20 2.260245 1_555
Mn10 O16 2.338428 1_555
Mn11 O24 1.840186 1_455
Mn11 O34 1.872752 1_555
Mn11 O11 1.973414 1_455
Mn11 O21 2.260245 1_555
Mn11 O14 2.338428 1_555
B0 O28 1.285786 1_555
B0 O12 1.489496 1_555
B0 O17 1.489496 1_555
B0 O36 1.848584 1_555
B1 O29 1.285786 1_555
B1 O15 1.489496 1_555
B1 O13 1.489496 1_555
B1 O37 1.848584 1_555
B2 O30 1.285786 1_555
B2 O19 1.489496 1_555
B2 O14 1.489496 1_555
B2 O38 1.848584 1_555
B3 O31 1.285786 1_555
B3 O16 1.489496 1_555
B3 O18 1.489496 1_555
B3 O39 1.848584 1_555
O0 P0 1.522049 1_555
O1 P1 1.522049 1_555
O2 P2 1.522049 1_555
O3 P3 1.522049 1_555
O4 P1 1.577748 1_565
O5 P0 1.577748 1_545
O6 P3 1.577748 1_555
O7 P0 1.577748 1_545
O8 P2 1.577748 1_555
O9 P1 1.577748 1_565
O10 P2 1.577748 1_555
O11 P3 1.577748 1_555
O12 O36 1.508360 1_555
O13 O37 1.508360 1_555
O14 O38 1.508360 1_555
O15 O37 1.508360 1_555
O16 O39 1.508360 1_555
O17 O36 1.508360 1_555
O18 O39 1.508360 1_555
O19 O38 1.508360 1_555
O20 P3 1.560653 1_555
O21 P2 1.560653 1_555
O22 P1 1.560653 1_555
O23 P0 1.560653 1_555
