# generated using pymatgen
data_Y(NO4)3
_symmetry_space_group_name_H-M   'P 1'
_cell_length_a   7.57270700
_cell_length_b   7.58992920
_cell_length_c   10.37721102
_cell_angle_alpha   70.47261211
_cell_angle_beta   71.77757765
_cell_angle_gamma   72.39426660
_symmetry_Int_Tables_number   1
_chemical_formula_structural   Y(NO4)3
_chemical_formula_sum   'Y2 N6 O24'
_cell_volume   520.73040092
_cell_formula_units_Z   2
loop_
 _symmetry_equiv_pos_site_id
 _symmetry_equiv_pos_as_xyz
  1  'x, y, z'
loop_
 _atom_site_type_symbol
 _atom_site_label
 _atom_site_symmetry_multiplicity
 _atom_site_fract_x
 _atom_site_fract_y
 _atom_site_fract_z
 _atom_site_occupancy
  Y  Y0  1  0.32023200  0.34367500  0.26814500  1
  Y  Y1  1  0.67976800  0.65632500  0.73185500  1
  N  N0  1  0.27062300  0.17256700  0.07830900  1
  N  N1  1  0.72937700  0.82743300  0.92169100  1
  N  N2  1  0.69805500  0.12205300  0.24454600  1
  N  N3  1  0.30194500  0.87794700  0.75545400  1
  N  N4  1  0.34077300  0.62341900  0.38558500  1
  N  N5  1  0.65922700  0.37658100  0.61441500  1
  O  O0  1  0.26077000  0.35363200  0.05391500  1
  O  O1  1  0.73923000  0.64636800  0.94608500  1
  O  O2  1  0.27933300  0.07044700  0.20423900  1
  O  O3  1  0.72066700  0.92955300  0.79576100  1
  O  O4  1  0.27353100  0.10143300  0.98764300  1
  O  O5  1  0.72646900  0.89856700  0.01235700  1
  O  O6  1  0.64036800  0.25095600  0.13853300  1
  O  O7  1  0.35963200  0.74904400  0.86146700  1
  O  O8  1  0.56793200  0.09231200  0.35884600  1
  O  O9  1  0.43206800  0.90768800  0.64115400  1
  O  O10  1  0.86479900  0.03608800  0.23548500  1
  O  O11  1  0.13520100  0.96391200  0.76451500  1
  O  O12  1  0.19207700  0.55009100  0.42570500  1
  O  O13  1  0.80792300  0.44990900  0.57429500  1
  O  O14  1  0.46829000  0.57235300  0.27997500  1
  O  O15  1  0.53171000  0.42764700  0.72002500  1
  O  O16  1  0.36053900  0.72924400  0.44366600  1
  O  O17  1  0.63946100  0.27075600  0.55633400  1
  O  O18  1  0.93001300  0.60799900  0.21696600  1
  O  O19  1  0.06998700  0.39200100  0.78303400  1
  O  O20  1  0.11080700  0.19513400  0.42276800  1
  O  O21  1  0.88919300  0.80486600  0.57723200  1
  O  O22  1  0.06481600  0.68659500  0.15053300  1
  O  O23  1  0.93518400  0.31340500  0.84946700  1
loop_
_geom_bond_atom_site_label_1
_geom_bond_atom_site_label_2
_geom_bond_distance
_geom_bond_site_symmetry_2
N0 O4 1.223370 1_554
N0 O2 1.287902 1_555
N0 O0 1.294405 1_555
N1 O5 1.223370 1_556
N1 O3 1.287902 1_555
N1 O1 1.294405 1_555
N2 O10 1.223662 1_555
N2 O8 1.285846 1_555
N2 O6 1.296449 1_555
N3 O11 1.223662 1_555
N3 O9 1.285846 1_555
N3 O7 1.296449 1_555
N4 O16 1.218029 1_555
N4 O14 1.295943 1_555
N4 O12 1.296935 1_555
N5 O17 1.218029 1_555
N5 O15 1.295943 1_555
N5 O13 1.296935 1_555
O0 Y0 2.375679 1_555
O1 Y1 2.375679 1_555
O2 Y0 2.504527 1_555
O3 Y1 2.504527 1_555
O6 Y0 2.396443 1_555
O7 Y1 2.396443 1_555
O8 Y0 2.404805 1_555
O9 Y1 2.404805 1_555
O12 Y0 2.422802 1_555
O13 Y1 2.422802 1_555
O14 Y0 2.385449 1_555
O15 Y1 2.385449 1_555
O18 O22 1.235524 1_655
O19 O23 1.235524 1_455
O20 Y0 2.154430 1_555
O21 Y1 2.154430 1_555
O22 Y0 2.883117 1_555
O23 Y1 2.883117 1_555
