# generated using pymatgen
data_Ba3Ge9O22
_symmetry_space_group_name_H-M   'P 1'
_cell_length_a   4.79990400
_cell_length_b   13.48833200
_cell_length_c   15.45004218
_cell_angle_alpha   73.15584703
_cell_angle_beta   90.00000000
_cell_angle_gamma   90.00000000
_symmetry_Int_Tables_number   1
_chemical_formula_structural   Ba3Ge9O22
_chemical_formula_sum   'Ba6 Ge18 O44'
_cell_volume   957.36200440
_cell_formula_units_Z   2
loop_
 _symmetry_equiv_pos_site_id
 _symmetry_equiv_pos_as_xyz
  1  'x, y, z'
loop_
 _atom_site_type_symbol
 _atom_site_label
 _atom_site_symmetry_multiplicity
 _atom_site_fract_x
 _atom_site_fract_y
 _atom_site_fract_z
 _atom_site_occupancy
  Ba  Ba0  1  0.05059200  0.86986800  0.88656900  1
  Ba  Ba1  1  0.05059200  0.13013200  0.11343100  1
  Ba  Ba2  1  0.02417300  0.75558500  0.50054300  1
  Ba  Ba3  1  0.02417300  0.24441500  0.49945700  1
  Ba  Ba4  1  0.98903800  0.62928400  0.11531200  1
  Ba  Ba5  1  0.98903800  0.37071600  0.88468800  1
  Ge  Ge0  1  0.52895900  0.61344900  0.91908500  1
  Ge  Ge1  1  0.52895900  0.38655100  0.08091500  1
  Ge  Ge2  1  0.53411300  0.81939300  0.69290800  1
  Ge  Ge3  1  0.53411300  0.18060700  0.30709200  1
  Ge  Ge4  1  0.54397500  0.55087700  0.69091200  1
  Ge  Ge5  1  0.54397500  0.44912300  0.30908800  1
  Ge  Ge6  1  0.51854200  0.95031300  0.30675100  1
  Ge  Ge7  1  0.51854200  0.04968700  0.69324900  1
  Ge  Ge8  1  0.52020900  0.88681100  0.08148500  1
  Ge  Ge9  1  0.52020900  0.11318900  0.91851500  1
  Ge  Ge10  1  0.52624000  0.68017500  0.30932000  1
  Ge  Ge11  1  0.52624000  0.31982500  0.69068000  1
  Ge  Ge12  1  0.04162600  0.65884000  0.77013300  1
  Ge  Ge13  1  0.04162600  0.34116000  0.22986700  1
  Ge  Ge14  1  0.01931300  0.84117700  0.23054500  1
  Ge  Ge15  1  0.01931300  0.15882300  0.76945500  1
  Ge  Ge16  1  0.46813500  0.00000000  0.50000000  1
  Ge  Ge17  1  0.60185300  0.50000000  0.50000000  1
  O  O0  1  0.37492600  0.93025000  0.41616900  1
  O  O1  1  0.37492600  0.06975000  0.58383100  1
  O  O2  1  0.38775300  0.57612300  0.27055800  1
  O  O3  1  0.38775300  0.42387700  0.72944200  1
  O  O4  1  0.67338000  0.92273000  0.73256200  1
  O  O5  1  0.67338000  0.07727000  0.26743800  1
  O  O6  1  0.36278400  0.00000000  0.00000000  1
  O  O7  1  0.68660700  0.50000000  0.00000000  1
  O  O8  1  0.36496500  0.68695100  0.98452700  1
  O  O9  1  0.36496500  0.31304900  0.01547300  1
  O  O10  1  0.67140300  0.81060600  0.01639200  1
  O  O11  1  0.67140300  0.18939400  0.98360800  1
  O  O12  1  0.80991600  0.54428200  0.77212500  1
  O  O13  1  0.80991600  0.45571800  0.22787500  1
  O  O14  1  0.25173300  0.95702100  0.22563000  1
  O  O15  1  0.25173300  0.04297900  0.77437000  1
  O  O16  1  0.81572900  0.68861200  0.86408700  1
  O  O17  1  0.81572900  0.31138800  0.13591300  1
  O  O18  1  0.23641700  0.81036800  0.13718300  1
  O  O19  1  0.23641700  0.18963200  0.86281700  1
  O  O20  1  0.81790500  0.74428100  0.67654100  1
  O  O21  1  0.81790500  0.25571900  0.32345900  1
  O  O22  1  0.24976600  0.75875800  0.32498900  1
  O  O23  1  0.24976600  0.24124200  0.67501100  1
  O  O24  1  0.27307800  0.77127100  0.77581300  1
  O  O25  1  0.27307800  0.22872900  0.22418700  1
  O  O26  1  0.78760500  0.72853600  0.22691200  1
  O  O27  1  0.78760500  0.27146400  0.77308800  1
  O  O28  1  0.27215100  0.56368400  0.86011200  1
  O  O29  1  0.27215100  0.43631600  0.13988800  1
  O  O30  1  0.78222800  0.93532400  0.13949600  1
  O  O31  1  0.78222800  0.06467600  0.86050400  1
  O  O32  1  0.27472100  0.64303300  0.67441400  1
  O  O33  1  0.27472100  0.35696700  0.32558600  1
  O  O34  1  0.79322500  0.85999800  0.32544000  1
  O  O35  1  0.79322500  0.14000200  0.67456000  1
  O  O36  1  0.39767700  0.86956900  0.58216000  1
  O  O37  1  0.39767700  0.13043100  0.41784000  1
  O  O38  1  0.22051700  0.50000000  0.50000000  1
  O  O39  1  0.67168700  0.63027400  0.41853800  1
  O  O40  1  0.67168700  0.36972600  0.58146200  1
  O  O41  1  0.69838500  0.42968500  0.41678600  1
  O  O42  1  0.69838500  0.57031500  0.58321400  1
  O  O43  1  0.85224700  0.00000000  0.50000000  1
loop_
_geom_bond_atom_site_label_1
_geom_bond_atom_site_label_2
_geom_bond_distance
_geom_bond_site_symmetry_2
Ba0 O15 2.653944 1_565
Ba0 O10 2.654346 1_456
Ba0 O24 2.675092 1_555
Ba0 O16 2.803729 1_455
Ba0 O31 2.848271 1_465
Ba0 O4 2.909465 1_455
Ba0 O8 2.913893 1_555
Ba0 O6 3.190684 1_566
Ba1 O14 2.653944 1_545
Ba1 O11 2.654346 1_454
Ba1 O25 2.675092 1_555
Ba1 O17 2.803729 1_455
Ba1 O30 2.848271 1_445
Ba1 O5 2.909465 1_455
Ba1 O9 2.913893 1_555
Ba1 O6 3.190684 1_555
Ba2 O20 2.856068 1_455
Ba2 O36 2.879493 1_555
Ba2 O0 2.881729 1_555
Ba2 O34 2.884981 1_455
Ba2 O22 2.909249 1_555
Ba2 O42 2.910642 1_455
Ba2 O39 2.926729 1_455
Ba2 O32 2.933226 1_555
Ba3 O21 2.856068 1_455
Ba3 O37 2.879493 1_555
Ba3 O1 2.881729 1_555
Ba3 O35 2.884981 1_455
Ba3 O23 2.909249 1_555
Ba3 O41 2.910642 1_455
Ba3 O40 2.926729 1_455
Ba3 O33 2.933226 1_555
Ba4 O13 2.623918 1_555
Ba4 O8 2.651985 1_654
Ba4 O26 2.652876 1_555
Ba4 O18 2.822821 1_655
Ba4 O29 2.862293 1_655
Ba4 O10 2.911286 1_555
Ba4 O2 2.988830 1_655
Ba4 O7 3.181616 1_555
Ba5 O12 2.623918 1_555
Ba5 O9 2.651985 1_656
Ba5 O27 2.652876 1_555
Ba5 O19 2.822821 1_655
Ba5 O28 2.862293 1_655
Ba5 O11 2.911286 1_555
Ba5 O3 2.988830 1_655
Ba5 O7 3.181616 1_556
Ge0 O16 1.773493 1_555
Ge0 O28 1.776125 1_555
Ge0 O8 1.790460 1_555
Ge0 O7 1.835320 1_556
Ge1 O17 1.773493 1_555
Ge1 O29 1.776125 1_555
Ge1 O9 1.790460 1_555
Ge1 O7 1.835320 1_555
Ge2 O20 1.759085 1_555
Ge2 O36 1.772997 1_555
Ge2 O24 1.774828 1_555
Ge2 O4 1.805517 1_555
Ge3 O21 1.759085 1_555
Ge3 O37 1.772997 1_555
Ge3 O25 1.774828 1_555
Ge3 O5 1.805517 1_555
Ge4 O32 1.759760 1_555
Ge4 O42 1.770286 1_555
Ge4 O12 1.773990 1_555
Ge4 O3 1.805574 1_555
Ge5 O33 1.759760 1_555
Ge5 O41 1.770286 1_555
Ge5 O13 1.773990 1_555
Ge5 O2 1.805574 1_555
Ge6 O34 1.761206 1_555
Ge6 O0 1.772324 1_555
Ge6 O14 1.775773 1_555
Ge6 O5 1.803035 1_565
Ge7 O35 1.761206 1_555
Ge7 O1 1.772324 1_555
Ge7 O15 1.775773 1_555
Ge7 O4 1.803035 1_545
Ge8 O18 1.773405 1_555
Ge8 O30 1.775698 1_555
Ge8 O10 1.787091 1_555
Ge8 O6 1.836548 1_565
Ge9 O19 1.773405 1_555
Ge9 O31 1.775698 1_555
Ge9 O11 1.787091 1_555
Ge9 O6 1.836548 1_556
Ge10 O22 1.758373 1_555
Ge10 O39 1.769067 1_555
Ge10 O26 1.771745 1_555
Ge10 O2 1.804826 1_555
Ge11 O23 1.758373 1_555
Ge11 O40 1.769067 1_555
Ge11 O27 1.771745 1_555
Ge11 O3 1.804826 1_555
Ge12 O12 1.896833 1_455
Ge12 O20 1.899060 1_455
Ge12 O24 1.902321 1_555
Ge12 O32 1.914945 1_555
Ge12 O28 1.941709 1_555
Ge12 O16 1.944706 1_455
Ge13 O13 1.896833 1_455
Ge13 O21 1.899060 1_455
Ge13 O25 1.902321 1_555
Ge13 O33 1.914945 1_555
Ge13 O29 1.941709 1_555
Ge13 O17 1.944706 1_455
Ge14 O26 1.896813 1_455
Ge14 O34 1.899303 1_455
Ge14 O14 1.903441 1_555
Ge14 O22 1.910105 1_555
Ge14 O18 1.920068 1_555
Ge14 O30 1.962445 1_455
Ge15 O27 1.896813 1_455
Ge15 O35 1.899303 1_455
Ge15 O15 1.903441 1_555
Ge15 O23 1.910105 1_555
Ge15 O19 1.920068 1_555
Ge15 O31 1.962445 1_455
Ge16 O43 1.843701 1_555
Ge16 O1 1.862524 1_555
Ge16 O0 1.862524 1_545
Ge16 O36 1.877919 1_545
Ge16 O37 1.877919 1_555
Ge17 O38 1.830376 1_555
Ge17 O42 1.863813 1_555
Ge17 O41 1.863813 1_555
Ge17 O39 1.871469 1_555
Ge17 O40 1.871469 1_555
