# generated using pymatgen
data_Mo12PN3O61
_symmetry_space_group_name_H-M   'P 1'
_cell_length_a   10.97260200
_cell_length_b   10.97260200
_cell_length_c   10.97260200
_cell_angle_alpha   90.00000000
_cell_angle_beta   90.00000000
_cell_angle_gamma   90.00000000
_symmetry_Int_Tables_number   1
_chemical_formula_structural   Mo12PN3O61
_chemical_formula_sum   'Mo12 P1 N3 O61'
_cell_volume   1321.07927690
_cell_formula_units_Z   1
loop_
 _symmetry_equiv_pos_site_id
 _symmetry_equiv_pos_as_xyz
  1  'x, y, z'
loop_
 _atom_site_type_symbol
 _atom_site_label
 _atom_site_symmetry_multiplicity
 _atom_site_fract_x
 _atom_site_fract_y
 _atom_site_fract_z
 _atom_site_occupancy
  Mo  Mo0  1  0.26653200  0.49093800  0.73346800  1
  Mo  Mo1  1  0.49093800  0.26653200  0.73346800  1
  Mo  Mo2  1  0.26653200  0.26653200  0.50906200  1
  Mo  Mo3  1  0.26653200  0.50906200  0.26653200  1
  Mo  Mo4  1  0.49093800  0.73346800  0.26653200  1
  Mo  Mo5  1  0.26653200  0.73346800  0.49093800  1
  Mo  Mo6  1  0.73346800  0.49093800  0.26653200  1
  Mo  Mo7  1  0.50906200  0.26653200  0.26653200  1
  Mo  Mo8  1  0.73346800  0.26653200  0.49093800  1
  Mo  Mo9  1  0.73346800  0.50906200  0.73346800  1
  Mo  Mo10  1  0.50906200  0.73346800  0.73346800  1
  Mo  Mo11  1  0.73346800  0.73346800  0.50906200  1
  P  P0  1  0.50000000  0.50000000  0.50000000  1
  N  N0  1  0.00000000  0.50000000  0.50000000  1
  N  N1  1  0.50000000  0.50000000  0.00000000  1
  N  N2  1  0.50000000  0.00000000  0.50000000  1
  O  O0  1  0.19041200  0.36287300  0.63712700  1
  O  O1  1  0.36287300  0.36287300  0.80958800  1
  O  O2  1  0.36287300  0.19041200  0.63712700  1
  O  O3  1  0.19041200  0.63712700  0.36287300  1
  O  O4  1  0.36287300  0.63712700  0.19041200  1
  O  O5  1  0.36287300  0.80958800  0.36287300  1
  O  O6  1  0.80958800  0.36287300  0.36287300  1
  O  O7  1  0.63712700  0.36287300  0.19041200  1
  O  O8  1  0.63712700  0.19041200  0.36287300  1
  O  O9  1  0.80958800  0.63712700  0.63712700  1
  O  O10  1  0.63712700  0.63712700  0.80958800  1
  O  O11  1  0.63712700  0.80958800  0.63712700  1
  O  O12  1  0.77618200  0.60751900  0.39248100  1
  O  O13  1  0.60751900  0.60751900  0.22381800  1
  O  O14  1  0.60751900  0.77618200  0.39248100  1
  O  O15  1  0.77618200  0.39248100  0.60751900  1
  O  O16  1  0.60751900  0.39248100  0.77618200  1
  O  O17  1  0.60751900  0.22381800  0.60751900  1
  O  O18  1  0.22381800  0.60751900  0.60751900  1
  O  O19  1  0.39248100  0.60751900  0.77618200  1
  O  O20  1  0.39248100  0.77618200  0.60751900  1
  O  O21  1  0.22381800  0.39248100  0.39248100  1
  O  O22  1  0.39248100  0.39248100  0.22381800  1
  O  O23  1  0.39248100  0.22381800  0.39248100  1
  O  O24  1  0.15773800  0.51649400  0.84226200  1
  O  O25  1  0.51649400  0.15773800  0.84226200  1
  O  O26  1  0.15773800  0.15773800  0.48350600  1
  O  O27  1  0.15773800  0.48350600  0.15773800  1
  O  O28  1  0.51649400  0.84226200  0.15773800  1
  O  O29  1  0.15773800  0.84226200  0.51649400  1
  O  O30  1  0.84226200  0.51649400  0.15773800  1
  O  O31  1  0.48350600  0.15773800  0.15773800  1
  O  O32  1  0.84226200  0.15773800  0.51649400  1
  O  O33  1  0.84226200  0.48350600  0.84226200  1
  O  O34  1  0.48350600  0.84226200  0.84226200  1
  O  O35  1  0.84226200  0.84226200  0.48350600  1
  O  O36  1  0.00000000  0.30365900  0.00000000  1
  O  O37  1  0.30365900  0.00000000  0.00000000  1
  O  O38  1  0.00000000  0.00000000  0.69634100  1
  O  O39  1  0.00000000  0.69634100  0.00000000  1
  O  O40  1  0.00000000  0.00000000  0.30365900  1
  O  O41  1  0.69634100  0.00000000  0.00000000  1
  O  O42  1  0.00000000  0.50000000  0.00000000  1
  O  O43  1  0.50000000  0.00000000  0.00000000  1
  O  O44  1  0.00000000  0.00000000  0.50000000  1
  O  O45  1  0.08123200  0.17514700  0.82485300  1
  O  O46  1  0.17514700  0.17514700  0.91876800  1
  O  O47  1  0.17514700  0.08123200  0.82485300  1
  O  O48  1  0.08123200  0.82485300  0.17514700  1
  O  O49  1  0.17514700  0.82485300  0.08123200  1
  O  O50  1  0.17514700  0.91876800  0.17514700  1
  O  O51  1  0.91876800  0.17514700  0.17514700  1
  O  O52  1  0.82485300  0.17514700  0.08123200  1
  O  O53  1  0.82485300  0.08123200  0.17514700  1
  O  O54  1  0.91876800  0.82485300  0.82485300  1
  O  O55  1  0.82485300  0.82485300  0.91876800  1
  O  O56  1  0.82485300  0.91876800  0.82485300  1
  O  O57  1  0.41847800  0.41847800  0.58152200  1
  O  O58  1  0.41847800  0.58152200  0.41847800  1
  O  O59  1  0.58152200  0.41847800  0.41847800  1
  O  O60  1  0.58152200  0.58152200  0.58152200  1
loop_
_geom_bond_atom_site_label_1
_geom_bond_atom_site_label_2
_geom_bond_distance
_geom_bond_site_symmetry_2
Mo0 O24 1.711352 1_555
Mo0 O19 1.940593 1_555
Mo0 O18 1.940593 1_555
Mo0 O1 1.946717 1_555
Mo0 O0 1.946717 1_555
Mo1 O25 1.711352 1_555
Mo1 O16 1.940593 1_555
Mo1 O17 1.940593 1_555
Mo1 O1 1.946717 1_555
Mo1 O2 1.946717 1_555
Mo2 O26 1.711352 1_555
Mo2 O21 1.940593 1_555
Mo2 O23 1.940593 1_555
Mo2 O0 1.946717 1_555
Mo2 O2 1.946717 1_555
Mo3 O27 1.711352 1_555
Mo3 O21 1.940593 1_555
Mo3 O22 1.940593 1_555
Mo3 O3 1.946717 1_555
Mo3 O4 1.946717 1_555
Mo4 O28 1.711352 1_555
Mo4 O14 1.940593 1_555
Mo4 O13 1.940593 1_555
Mo4 O5 1.946717 1_555
Mo4 O4 1.946717 1_555
Mo5 O29 1.711352 1_555
Mo5 O20 1.940593 1_555
Mo5 O18 1.940593 1_555
Mo5 O5 1.946717 1_555
Mo5 O3 1.946717 1_555
Mo6 O30 1.711352 1_555
Mo6 O12 1.940593 1_555
Mo6 O13 1.940593 1_555
Mo6 O6 1.946717 1_555
Mo6 O7 1.946717 1_555
Mo7 O31 1.711352 1_555
Mo7 O22 1.940593 1_555
Mo7 O23 1.940593 1_555
Mo7 O8 1.946717 1_555
Mo7 O7 1.946717 1_555
Mo8 O32 1.711352 1_555
Mo8 O15 1.940593 1_555
Mo8 O17 1.940593 1_555
Mo8 O6 1.946717 1_555
Mo8 O8 1.946717 1_555
Mo9 O33 1.711352 1_555
Mo9 O16 1.940593 1_555
Mo9 O15 1.940593 1_555
Mo9 O9 1.946717 1_555
Mo9 O10 1.946717 1_555
Mo10 O34 1.711352 1_555
Mo10 O19 1.940593 1_555
Mo10 O20 1.940593 1_555
Mo10 O11 1.946717 1_555
Mo10 O10 1.946717 1_555
Mo11 O35 1.711352 1_555
Mo11 O12 1.940593 1_555
Mo11 O14 1.940593 1_555
Mo11 O11 1.946717 1_555
Mo11 O9 1.946717 1_555
O45 O46 1.457336 1_555
O45 O47 1.457336 1_555
O46 O47 1.457336 1_555
O48 O50 1.457336 1_555
O48 O49 1.457336 1_555
O49 O50 1.457336 1_555
O51 O52 1.457336 1_555
O51 O53 1.457336 1_555
O52 O53 1.457336 1_555
O54 O56 1.457336 1_555
O54 O55 1.457336 1_555
O55 O56 1.457336 1_555
O57 P0 1.549334 1_555
O58 P0 1.549334 1_555
O59 P0 1.549334 1_555
O60 P0 1.549334 1_555
