# generated using pymatgen
data_NaAl12Ga(S2O33)2
_symmetry_space_group_name_H-M   'P 1'
_cell_length_a   11.04959139
_cell_length_b   11.04959139
_cell_length_c   11.04959139
_cell_angle_alpha   60.00000000
_cell_angle_beta   60.00000000
_cell_angle_gamma   60.00000000
_symmetry_Int_Tables_number   1
_chemical_formula_structural   NaAl12Ga(S2O33)2
_chemical_formula_sum   'Na1 Al12 Ga1 S4 O66'
_cell_volume   953.94570445
_cell_formula_units_Z   1
loop_
 _symmetry_equiv_pos_site_id
 _symmetry_equiv_pos_as_xyz
  1  'x, y, z'
loop_
 _atom_site_type_symbol
 _atom_site_label
 _atom_site_symmetry_multiplicity
 _atom_site_fract_x
 _atom_site_fract_y
 _atom_site_fract_z
 _atom_site_occupancy
  Na  Na0  1  0.00000000  0.00000000  0.00000000  1
  Al  Al0  1  0.70248400  0.70248400  0.42898400  1
  Al  Al1  1  0.70248400  0.16604900  0.42898400  1
  Al  Al2  1  0.16604900  0.70248400  0.42898400  1
  Al  Al3  1  0.70248400  0.70248400  0.16604900  1
  Al  Al4  1  0.16604900  0.70248400  0.70248400  1
  Al  Al5  1  0.70248400  0.16604900  0.70248400  1
  Al  Al6  1  0.42898400  0.16604900  0.70248400  1
  Al  Al7  1  0.42898400  0.70248400  0.70248400  1
  Al  Al8  1  0.42898400  0.70248400  0.16604900  1
  Al  Al9  1  0.16604900  0.42898400  0.70248400  1
  Al  Al10  1  0.70248400  0.42898400  0.16604900  1
  Al  Al11  1  0.70248400  0.42898400  0.70248400  1
  Ga  Ga0  1  0.50000000  0.50000000  0.50000000  1
  S  S0  1  0.13688500  0.13688500  0.58934600  1
  S  S1  1  0.13688500  0.13688500  0.13688500  1
  S  S2  1  0.58934600  0.13688500  0.13688500  1
  S  S3  1  0.13688500  0.58934600  0.13688500  1
  O  O0  1  0.31244200  0.31244200  0.80167700  1
  O  O1  1  0.31244200  0.57343900  0.80167700  1
  O  O2  1  0.57343900  0.31244200  0.80167700  1
  O  O3  1  0.31244200  0.31244200  0.57343900  1
  O  O4  1  0.57343900  0.31244200  0.31244200  1
  O  O5  1  0.31244200  0.57343900  0.31244200  1
  O  O6  1  0.80167700  0.57343900  0.31244200  1
  O  O7  1  0.80167700  0.31244200  0.31244200  1
  O  O8  1  0.80167700  0.31244200  0.57343900  1
  O  O9  1  0.57343900  0.80167700  0.31244200  1
  O  O10  1  0.31244200  0.80167700  0.57343900  1
  O  O11  1  0.31244200  0.80167700  0.31244200  1
  O  O12  1  0.58202500  0.58202500  0.25392500  1
  O  O13  1  0.58202500  0.58202500  0.58202500  1
  O  O14  1  0.25392500  0.58202500  0.58202500  1
  O  O15  1  0.58202500  0.25392500  0.58202500  1
  O  O16  1  0.81816700  0.81816700  0.28190900  1
  O  O17  1  0.81816700  0.08175800  0.28190900  1
  O  O18  1  0.08175800  0.81816700  0.28190900  1
  O  O19  1  0.81816700  0.81816700  0.08175800  1
  O  O20  1  0.08175800  0.81816700  0.81816700  1
  O  O21  1  0.81816700  0.08175800  0.81816700  1
  O  O22  1  0.28190900  0.08175800  0.81816700  1
  O  O23  1  0.28190900  0.81816700  0.81816700  1
  O  O24  1  0.28190900  0.81816700  0.08175800  1
  O  O25  1  0.08175800  0.28190900  0.81816700  1
  O  O26  1  0.81816700  0.28190900  0.08175800  1
  O  O27  1  0.81816700  0.28190900  0.81816700  1
  O  O28  1  0.57418800  0.57418800  0.81844800  1
  O  O29  1  0.57418800  0.03317600  0.81844800  1
  O  O30  1  0.03317600  0.57418800  0.81844800  1
  O  O31  1  0.57418800  0.57418800  0.03317600  1
  O  O32  1  0.03317600  0.57418800  0.57418800  1
  O  O33  1  0.57418800  0.03317600  0.57418800  1
  O  O34  1  0.81844800  0.03317600  0.57418800  1
  O  O35  1  0.81844800  0.57418800  0.57418800  1
  O  O36  1  0.81844800  0.57418800  0.03317600  1
  O  O37  1  0.03317600  0.81844800  0.57418800  1
  O  O38  1  0.57418800  0.81844800  0.03317600  1
  O  O39  1  0.57418800  0.81844800  0.57418800  1
  O  O40  1  0.04374400  0.04374400  0.26340100  1
  O  O41  1  0.04374400  0.64911100  0.26340100  1
  O  O42  1  0.64911100  0.04374400  0.26340100  1
  O  O43  1  0.04374400  0.04374400  0.64911100  1
  O  O44  1  0.64911100  0.04374400  0.04374400  1
  O  O45  1  0.04374400  0.64911100  0.04374400  1
  O  O46  1  0.26340100  0.64911100  0.04374400  1
  O  O47  1  0.26340100  0.04374400  0.04374400  1
  O  O48  1  0.26340100  0.04374400  0.64911100  1
  O  O49  1  0.64911100  0.26340100  0.04374400  1
  O  O50  1  0.04374400  0.26340100  0.64911100  1
  O  O51  1  0.04374400  0.26340100  0.04374400  1
  O  O52  1  0.19024600  0.19024600  0.42926300  1
  O  O53  1  0.19024600  0.19024600  0.19024600  1
  O  O54  1  0.42926300  0.19024600  0.19024600  1
  O  O55  1  0.19024600  0.42926300  0.19024600  1
  O  O56  1  0.41085700  0.41085700  0.76742800  1
  O  O57  1  0.41085700  0.41085700  0.41085700  1
  O  O58  1  0.76742800  0.41085700  0.41085700  1
  O  O59  1  0.41085700  0.76742800  0.41085700  1
  O  O60  1  0.52287300  0.52287300  0.97712700  1
  O  O61  1  0.52287300  0.97712700  0.97712700  1
  O  O62  1  0.97712700  0.52287300  0.97712700  1
  O  O63  1  0.97712700  0.52287300  0.52287300  1
  O  O64  1  0.52287300  0.97712700  0.52287300  1
  O  O65  1  0.97712700  0.97712700  0.52287300  1
loop_
_geom_bond_atom_site_label_1
_geom_bond_atom_site_label_2
_geom_bond_distance
_geom_bond_site_symmetry_2
Na0 O19 3.048996 1_445
Na0 O20 3.048996 1_544
Na0 O21 3.048996 1_454
Na0 O16 3.049000 1_445
Na0 O27 3.049000 1_454
Na0 O23 3.049000 1_544
Na0 O22 3.049006 1_554
Na0 O26 3.049006 1_455
Na0 O24 3.049006 1_545
Na0 O17 3.049006 1_455
Na0 O25 3.049006 1_554
Na0 O18 3.049006 1_545
Al0 O16 1.840696 1_555
Al0 O13 1.916470 1_555
Al0 O6 1.937701 1_555
Al0 O9 1.937701 1_555
Al0 O35 2.047109 1_555
Al0 O39 2.047109 1_555
Al1 O17 1.840696 1_555
Al1 O15 1.916463 1_555
Al1 O7 1.937692 1_555
Al1 O4 1.937700 1_555
Al1 O34 2.047109 1_555
Al1 O33 2.047117 1_555
Al2 O18 1.840696 1_555
Al2 O14 1.916463 1_555
Al2 O11 1.937692 1_555
Al2 O5 1.937700 1_555
Al2 O37 2.047109 1_555
Al2 O32 2.047117 1_555
Al3 O19 1.840696 1_555
Al3 O12 1.916472 1_555
Al3 O9 1.937693 1_555
Al3 O6 1.937693 1_555
Al3 O38 2.047117 1_555
Al3 O36 2.047117 1_555
Al4 O20 1.840696 1_555
Al4 O14 1.916472 1_555
Al4 O1 1.937693 1_555
Al4 O10 1.937693 1_555
Al4 O30 2.047117 1_555
Al4 O37 2.047117 1_555
Al5 O21 1.840696 1_555
Al5 O15 1.916472 1_555
Al5 O8 1.937693 1_555
Al5 O2 1.937693 1_555
Al5 O34 2.047117 1_555
Al5 O29 2.047117 1_555
Al6 O22 1.840696 1_555
Al6 O15 1.916463 1_555
Al6 O0 1.937692 1_555
Al6 O3 1.937700 1_555
Al6 O29 2.047109 1_555
Al6 O33 2.047117 1_555
Al7 O23 1.840696 1_555
Al7 O13 1.916470 1_555
Al7 O10 1.937701 1_555
Al7 O1 1.937701 1_555
Al7 O28 2.047109 1_555
Al7 O39 2.047109 1_555
Al8 O24 1.840696 1_555
Al8 O12 1.916463 1_555
Al8 O11 1.937692 1_555
Al8 O5 1.937700 1_555
Al8 O38 2.047109 1_555
Al8 O31 2.047117 1_555
Al9 O25 1.840696 1_555
Al9 O14 1.916463 1_555
Al9 O0 1.937692 1_555
Al9 O3 1.937700 1_555
Al9 O30 2.047109 1_555
Al9 O32 2.047117 1_555
Al10 O26 1.840696 1_555
Al10 O12 1.916463 1_555
Al10 O7 1.937692 1_555
Al10 O4 1.937700 1_555
Al10 O36 2.047109 1_555
Al10 O31 2.047117 1_555
Al11 O27 1.840696 1_555
Al11 O13 1.916470 1_555
Al11 O8 1.937701 1_555
Al11 O2 1.937701 1_555
Al11 O28 2.047109 1_555
Al11 O35 2.047109 1_555
Ga0 O14 2.220077 1_555
Ga0 O15 2.220077 1_555
Ga0 O12 2.220077 1_555
Ga0 O13 2.220077 1_555
Ga0 O58 2.412723 1_555
Ga0 O59 2.412723 1_555
Ga0 O56 2.412723 1_555
Ga0 O57 2.412732 1_555
O0 O56 1.693449 1_555
O1 O56 1.693458 1_555
O2 O56 1.693458 1_555
O3 O57 1.693453 1_555
O4 O57 1.693453 1_555
O5 O57 1.693453 1_555
O10 O59 1.693458 1_555
O11 O59 1.693449 1_555
O28 O60 1.431913 1_555
O29 O61 1.431913 1_545
O30 O62 1.431913 1_455
O31 O60 1.431913 1_554
O32 O63 1.431913 1_455
O33 O64 1.431913 1_545
O34 O65 1.431913 1_545
O35 O63 1.431913 1_555
O36 O62 1.431913 1_554
O37 O65 1.431913 1_455
O38 O61 1.431913 1_554
O39 O64 1.431913 1_555
O40 S1 1.501459 1_555
O41 S3 1.501453 1_555
O42 S2 1.501453 1_555
O43 S0 1.501462 1_555
O44 S2 1.501462 1_555
O45 S3 1.501462 1_555
O46 S3 1.501453 1_555
O47 S1 1.501459 1_555
O48 S0 1.501453 1_555
O49 S2 1.501453 1_555
O50 S0 1.501453 1_555
O51 S1 1.501459 1_555
O52 S0 1.444261 1_555
O53 S1 1.444261 1_555
O54 S2 1.444261 1_555
O55 S3 1.444261 1_555
O58 O7 1.693449 1_555
O58 O8 1.693458 1_555
O58 O6 1.693458 1_555
O59 O9 1.693458 1_555
