# generated using pymatgen
data_Yb3Sc2Al3O12
_symmetry_space_group_name_H-M   'P 1'
_cell_length_a   10.80385224
_cell_length_b   10.80385224
_cell_length_c   10.80385224
_cell_angle_alpha   109.47122063
_cell_angle_beta   109.47122063
_cell_angle_gamma   109.47122063
_symmetry_Int_Tables_number   1
_chemical_formula_structural   Yb3Sc2Al3O12
_chemical_formula_sum   'Yb12 Sc8 Al12 O48'
_cell_volume   970.76479262
_cell_formula_units_Z   4
loop_
 _symmetry_equiv_pos_site_id
 _symmetry_equiv_pos_as_xyz
  1  'x, y, z'
loop_
 _atom_site_type_symbol
 _atom_site_label
 _atom_site_symmetry_multiplicity
 _atom_site_fract_x
 _atom_site_fract_y
 _atom_site_fract_z
 _atom_site_occupancy
  Yb  Yb0  1  0.25000000  0.37500000  0.12500000  1
  Yb  Yb1  1  0.75000000  0.62500000  0.87500000  1
  Yb  Yb2  1  0.75000000  0.12500000  0.37500000  1
  Yb  Yb3  1  0.12500000  0.25000000  0.37500000  1
  Yb  Yb4  1  0.37500000  0.75000000  0.12500000  1
  Yb  Yb5  1  0.25000000  0.87500000  0.62500000  1
  Yb  Yb6  1  0.87500000  0.75000000  0.62500000  1
  Yb  Yb7  1  0.62500000  0.25000000  0.87500000  1
  Yb  Yb8  1  0.37500000  0.12500000  0.25000000  1
  Yb  Yb9  1  0.62500000  0.87500000  0.75000000  1
  Yb  Yb10  1  0.12500000  0.37500000  0.75000000  1
  Yb  Yb11  1  0.87500000  0.62500000  0.25000000  1
  Sc  Sc0  1  0.00000000  0.00000000  0.00000000  1
  Sc  Sc1  1  0.50000000  0.00000000  0.50000000  1
  Sc  Sc2  1  0.00000000  0.50000000  0.50000000  1
  Sc  Sc3  1  0.50000000  0.00000000  0.00000000  1
  Sc  Sc4  1  0.50000000  0.50000000  0.00000000  1
  Sc  Sc5  1  0.50000000  0.50000000  0.50000000  1
  Sc  Sc6  1  0.00000000  0.00000000  0.50000000  1
  Sc  Sc7  1  0.00000000  0.50000000  0.00000000  1
  Al  Al0  1  0.25000000  0.62500000  0.37500000  1
  Al  Al1  1  0.75000000  0.37500000  0.62500000  1
  Al  Al2  1  0.75000000  0.87500000  0.12500000  1
  Al  Al3  1  0.37500000  0.25000000  0.62500000  1
  Al  Al4  1  0.62500000  0.75000000  0.37500000  1
  Al  Al5  1  0.25000000  0.12500000  0.87500000  1
  Al  Al6  1  0.12500000  0.75000000  0.87500000  1
  Al  Al7  1  0.87500000  0.25000000  0.12500000  1
  Al  Al8  1  0.62500000  0.37500000  0.25000000  1
  Al  Al9  1  0.37500000  0.62500000  0.75000000  1
  Al  Al10  1  0.87500000  0.12500000  0.75000000  1
  Al  Al11  1  0.12500000  0.87500000  0.25000000  1
  O  O0  1  0.47787100  0.37716000  0.28887800  1
  O  O1  1  0.52212900  0.62284000  0.71112200  1
  O  O2  1  0.58828200  0.18899300  0.21112200  1
  O  O3  1  0.91171800  0.12284000  0.60071100  1
  O  O4  1  0.28887800  0.47787100  0.37716000  1
  O  O5  1  0.31100700  0.91171800  0.28887800  1
  O  O6  1  0.41171800  0.81100700  0.78887800  1
  O  O7  1  0.08828200  0.87716000  0.39928900  1
  O  O8  1  0.71112200  0.52212900  0.62284000  1
  O  O9  1  0.68899300  0.08828200  0.71112200  1
  O  O10  1  0.02212900  0.31100700  0.89928900  1
  O  O11  1  0.21112200  0.58828200  0.18899300  1
  O  O12  1  0.12284000  0.02212900  0.21112200  1
  O  O13  1  0.97787100  0.68899300  0.10071100  1
  O  O14  1  0.78887800  0.41171800  0.81100700  1
  O  O15  1  0.87716000  0.97787100  0.78887800  1
  O  O16  1  0.60071100  0.91171800  0.12284000  1
  O  O17  1  0.18899300  0.47787100  0.60071100  1
  O  O18  1  0.39928900  0.08828200  0.87716000  1
  O  O19  1  0.81100700  0.52212900  0.39928900  1
  O  O20  1  0.89928900  0.02212900  0.31100700  1
  O  O21  1  0.37716000  0.58828200  0.89928900  1
  O  O22  1  0.10071100  0.97787100  0.68899300  1
  O  O23  1  0.62284000  0.41171800  0.10071100  1
  O  O24  1  0.37716000  0.28887800  0.47787100  1
  O  O25  1  0.58828200  0.89928900  0.37716000  1
  O  O26  1  0.62284000  0.71112200  0.52212900  1
  O  O27  1  0.41171800  0.10071100  0.62284000  1
  O  O28  1  0.12284000  0.60071100  0.91171800  1
  O  O29  1  0.02212900  0.21112200  0.12284000  1
  O  O30  1  0.87716000  0.39928900  0.08828200  1
  O  O31  1  0.97787100  0.78887800  0.87716000  1
  O  O32  1  0.31100700  0.89928900  0.02212900  1
  O  O33  1  0.91171800  0.28887800  0.31100700  1
  O  O34  1  0.68899300  0.10071100  0.97787100  1
  O  O35  1  0.08828200  0.71112200  0.68899300  1
  O  O36  1  0.18899300  0.21112200  0.58828200  1
  O  O37  1  0.47787100  0.60071100  0.18899300  1
  O  O38  1  0.81100700  0.78887800  0.41171800  1
  O  O39  1  0.52212900  0.39928900  0.81100700  1
  O  O40  1  0.28887800  0.31100700  0.91171800  1
  O  O41  1  0.71112200  0.68899300  0.08828200  1
  O  O42  1  0.21112200  0.12284000  0.02212900  1
  O  O43  1  0.78887800  0.87716000  0.97787100  1
  O  O44  1  0.89928900  0.37716000  0.58828200  1
  O  O45  1  0.10071100  0.62284000  0.41171800  1
  O  O46  1  0.60071100  0.18899300  0.47787100  1
  O  O47  1  0.39928900  0.81100700  0.52212900  1
loop_
_geom_bond_atom_site_label_1
_geom_bond_atom_site_label_2
_geom_bond_distance
_geom_bond_site_symmetry_2
Al0 O45 1.779601 1_555
Al0 O11 1.779601 1_555
Al0 O4 1.779601 1_555
Al0 O47 1.779601 1_555
Al1 O8 1.779601 1_555
Al1 O46 1.779601 1_555
Al1 O44 1.779601 1_555
Al1 O14 1.779601 1_555
Al2 O43 1.779601 1_554
Al2 O20 1.779601 1_565
Al2 O41 1.779601 1_555
Al2 O16 1.779601 1_555
Al3 O27 1.779601 1_555
Al3 O36 1.779601 1_555
Al3 O24 1.779601 1_555
Al3 O39 1.779601 1_555
Al4 O26 1.779601 1_555
Al4 O37 1.779601 1_555
Al4 O25 1.779601 1_555
Al4 O38 1.779601 1_555
Al5 O40 1.779601 1_555
Al5 O18 1.779601 1_555
Al5 O22 1.779601 1_545
Al5 O42 1.779601 1_556
Al6 O31 1.779601 1_455
Al6 O32 1.779601 1_556
Al6 O35 1.779601 1_555
Al6 O28 1.779601 1_555
Al7 O33 1.779601 1_555
Al7 O30 1.779601 1_555
Al7 O34 1.779601 1_554
Al7 O29 1.779601 1_655
Al8 O23 1.779601 1_555
Al8 O2 1.779601 1_555
Al8 O0 1.779601 1_555
Al8 O19 1.779601 1_555
Al9 O1 1.779601 1_555
Al9 O17 1.779601 1_555
Al9 O21 1.779601 1_555
Al9 O6 1.779601 1_555
Al10 O15 1.779601 1_545
Al10 O10 1.779601 1_655
Al10 O3 1.779601 1_555
Al10 O9 1.779601 1_555
Al11 O5 1.779601 1_555
Al11 O7 1.779601 1_555
Al11 O13 1.779601 1_455
Al11 O12 1.779601 1_565
O0 Sc5 2.104272 1_555
O0 Yb8 2.396005 1_555
O0 Yb0 2.494880 1_555
O1 Sc5 2.104272 1_555
O1 Yb9 2.396005 1_555
O1 Yb1 2.494880 1_555
O2 Sc3 2.104272 1_555
O2 Yb8 2.396005 1_555
O2 Yb2 2.494880 1_555
O3 Sc6 2.104272 1_655
O3 Yb10 2.396005 1_655
O3 Yb2 2.494880 1_555
O4 Sc5 2.104272 1_555
O4 Yb0 2.396005 1_555
O4 Yb3 2.494880 1_555
O5 Sc1 2.104272 1_565
O5 Yb8 2.396005 1_565
O5 Yb4 2.494880 1_555
O6 Sc3 2.104272 1_566
O6 Yb9 2.396005 1_555
O6 Yb5 2.494880 1_555
O7 Sc6 2.104272 1_565
O7 Yb11 2.396005 1_455
O7 Yb5 2.494880 1_555
O8 Sc5 2.104272 1_555
O8 Yb1 2.396005 1_555
O8 Yb6 2.494880 1_555
O9 Sc1 2.104272 1_555
O9 Yb9 2.396005 1_545
O9 Yb7 2.494880 1_555
O10 Sc7 2.104272 1_556
O10 Yb10 2.396005 1_555
O10 Yb0 2.494880 1_556
O11 Sc7 2.104272 1_555
O11 Yb0 2.396005 1_555
O11 Yb4 2.494880 1_555
O12 Sc0 2.104272 1_555
O12 Yb8 2.396005 1_555
O12 Yb3 2.494880 1_555
O13 Sc7 2.104272 1_655
O13 Yb11 2.396005 1_555
O13 Yb1 2.494880 1_554
O14 Sc7 2.104272 1_656
O14 Yb1 2.396005 1_555
O14 Yb7 2.494880 1_555
O15 Sc0 2.104272 1_666
O15 Yb9 2.396005 1_555
O15 Yb6 2.494880 1_555
O16 Sc3 2.104272 1_565
O16 Yb2 2.396005 1_565
O16 Yb4 2.494880 1_555
O17 Sc2 2.104272 1_555
O17 Yb10 2.396005 1_555
O17 Yb3 2.494880 1_555
O18 Sc3 2.104272 1_556
O18 Yb5 2.396005 1_545
O18 Yb7 2.494880 1_555
O19 Sc2 2.104272 1_655
O19 Yb11 2.396005 1_555
O19 Yb6 2.494880 1_555
O20 Sc6 2.104272 1_655
O20 Yb2 2.396005 1_555
O20 Yb3 2.494880 1_655
O21 Sc4 2.104272 1_556
O21 Yb10 2.396005 1_555
O21 Yb4 2.494880 1_556
O22 Sc6 2.104272 1_565
O22 Yb5 2.396005 1_555
O22 Yb6 2.494880 1_455
O23 Sc4 2.104272 1_555
O23 Yb11 2.396005 1_555
O23 Yb7 2.494880 1_554
O24 Sc5 2.104272 1_555
O24 Yb3 2.396005 1_555
O24 Yb8 2.494880 1_555
O25 Sc1 2.104272 1_565
O25 Yb4 2.396005 1_555
O25 Yb2 2.494880 1_565
O26 Sc5 2.104272 1_555
O26 Yb6 2.396005 1_555
O26 Yb9 2.494880 1_555
O27 Sc1 2.104272 1_555
O27 Yb7 2.396005 1_555
O27 Yb5 2.494880 1_545
O28 Sc7 2.104272 1_556
O28 Yb4 2.396005 1_556
O28 Yb10 2.494880 1_555
O29 Sc0 2.104272 1_555
O29 Yb3 2.396005 1_555
O29 Yb0 2.494880 1_555
O30 Sc7 2.104272 1_655
O30 Yb7 2.396005 1_554
O30 Yb11 2.494880 1_555
O31 Sc0 2.104272 1_666
O31 Yb6 2.396005 1_555
O31 Yb1 2.494880 1_555
O32 Sc3 2.104272 1_565
O32 Yb4 2.396005 1_555
O32 Yb8 2.494880 1_565
O33 Sc2 2.104272 1_655
O33 Yb3 2.396005 1_655
O33 Yb2 2.494880 1_555
O34 Sc3 2.104272 1_556
O34 Yb7 2.396005 1_555
O34 Yb9 2.494880 1_545
O35 Sc2 2.104272 1_555
O35 Yb6 2.396005 1_455
O35 Yb5 2.494880 1_555
O36 Sc6 2.104272 1_555
O36 Yb3 2.396005 1_555
O36 Yb10 2.494880 1_555
O37 Sc4 2.104272 1_555
O37 Yb4 2.396005 1_555
O37 Yb0 2.494880 1_555
O38 Sc6 2.104272 1_665
O38 Yb6 2.396005 1_555
O38 Yb11 2.494880 1_555
O39 Sc4 2.104272 1_556
O39 Yb7 2.396005 1_555
O39 Yb1 2.494880 1_555
O40 Sc4 2.104272 1_556
O40 Yb0 2.396005 1_556
O40 Yb10 2.494880 1_555
O41 Sc4 2.104272 1_555
O41 Yb1 2.396005 1_554
O41 Yb11 2.494880 1_555
O42 Sc0 2.104272 1_555
O42 Yb0 2.396005 1_555
O42 Yb8 2.494880 1_555
O43 Sc0 2.104272 1_666
O43 Yb1 2.396005 1_555
O43 Yb9 2.494880 1_555
O44 Sc2 2.104272 1_655
O44 Yb2 2.396005 1_555
O44 Yb10 2.494880 1_655
O45 Sc2 2.104272 1_555
O45 Yb5 2.396005 1_555
O45 Yb11 2.494880 1_455
O46 Sc1 2.104272 1_555
O46 Yb2 2.396005 1_555
O46 Yb8 2.494880 1_555
O47 Sc1 2.104272 1_565
O47 Yb5 2.396005 1_555
O47 Yb9 2.494880 1_555
