# generated using pymatgen
data_Na8Te4W7O36
_symmetry_space_group_name_H-M   'P 1'
_cell_length_a   7.43218196
_cell_length_b   13.38472704
_cell_length_c   17.58959548
_cell_angle_alpha   111.79721847
_cell_angle_beta   102.19657840
_cell_angle_gamma   90.00000000
_symmetry_Int_Tables_number   1
_chemical_formula_structural   Na8Te4W7O36
_chemical_formula_sum   'Na16 Te8 W14 O72'
_cell_volume   1582.05596017
_cell_formula_units_Z   2
loop_
 _symmetry_equiv_pos_site_id
 _symmetry_equiv_pos_as_xyz
  1  'x, y, z'
loop_
 _atom_site_type_symbol
 _atom_site_label
 _atom_site_symmetry_multiplicity
 _atom_site_fract_x
 _atom_site_fract_y
 _atom_site_fract_z
 _atom_site_occupancy
  Na  Na0  1  0.61783682  0.20552935  0.19147563  1
  Na  Na1  1  0.57363881  0.70552935  0.19147563  1
  Na  Na2  1  0.98423578  0.31730908  0.00253896  1
  Na  Na3  1  0.01830318  0.81730908  0.00253896  1
  Na  Na4  1  0.84696438  0.45137142  0.20096871  1
  Na  Na5  1  0.35400433  0.95137142  0.20096871  1
  Na  Na6  1  0.32865735  0.36078468  0.59915633  1
  Na  Na7  1  0.27049898  0.86078468  0.59915633  1
  Na  Na8  1  0.80233618  0.34814602  0.58307263  1
  Na  Na9  1  0.78073645  0.84814602  0.58307263  1
  Na  Na10  1  0.87945127  0.10024417  0.79841404  1
  Na  Na11  1  0.91896276  0.60024417  0.79841404  1
  Na  Na12  1  0.55081524  0.60648356  0.58891932  1
  Na  Na13  1  0.03810408  0.10648356  0.58891932  1
  Na  Na14  1  0.70899506  0.09515697  0.39465178  1
  Na  Na15  1  0.68565673  0.59515697  0.39465178  1
  Te  Te0  1  0.49849137  0.33141623  0.03566942  1
  Te  Te1  1  0.53717805  0.83141623  0.03566942  1
  Te  Te2  1  0.38445249  0.59360118  0.76791891  1
  Te  Te3  1  0.38346641  0.09360118  0.76791891  1
  Te  Te4  1  0.20795404  0.10894748  0.40931052  1
  Te  Te5  1  0.20135649  0.60894748  0.40931052  1
  Te  Te6  1  0.10597961  0.24445796  0.19043809  1
  Te  Te7  1  0.08445848  0.74445796  0.19043809  1
  W  W0  1  0.57892019  0.11661479  0.59379352  1
  W  W1  1  0.01487333  0.61661479  0.59379352  1
  W  W2  1  0.12598325  0.35069521  0.77044997  1
  W  W3  1  0.64446672  0.85069521  0.77044997  1
  W  W4  1  0.46667815  0.35905713  0.40090917  1
  W  W5  1  0.93423101  0.85905713  0.40090917  1
  W  W6  1  0.95726977  0.36385304  0.39593948  1
  W  W7  1  0.43866971  0.86385304  0.39593948  1
  W  W8  1  0.26864137  0.05987312  0.01421138  1
  W  W9  1  0.74557001  0.55987312  0.01421138  1
  W  W10  1  0.64182763  0.36206139  0.78879611  1
  W  W11  1  0.14696848  0.86206139  0.78879611  1
  W  W12  1  0.77270724  0.04698938  0.00361515  1
  W  W13  1  0.23090791  0.54698938  0.00361515  1
  O  O0  1  0.77956266  0.03756154  0.24580568  1
  O  O1  1  0.46624302  0.53756154  0.24580568  1
  O  O2  1  0.89877195  0.25009292  0.41920266  1
  O  O3  1  0.52043071  0.75009292  0.41920266  1
  O  O4  1  0.32084552  0.31732495  0.27505742  1
  O  O5  1  0.95421190  0.81732495  0.27505742  1
  O  O6  1  0.58327927  0.00779583  0.77413341  1
  O  O7  1  0.19085414  0.50779583  0.77413341  1
  O  O8  1  0.20725877  0.18304641  0.00001505  1
  O  O9  1  0.79275628  0.68304641  0.00001505  1
  O  O10  1  0.88588489  0.41076716  0.78665789  1
  O  O11  1  0.90077300  0.91076716  0.78665789  1
  O  O12  1  0.64439387  0.47723984  0.89675718  1
  O  O13  1  0.25236331  0.97723984  0.89675718  1
  O  O14  1  0.57984001  0.33837221  0.14415082  1
  O  O15  1  0.56431081  0.83837221  0.14415082  1
  O  O16  1  0.00502615  0.46884126  0.50869923  1
  O  O17  1  0.50367309  0.96884126  0.50869923  1
  O  O18  1  0.38452640  0.32814811  0.77781460  1
  O  O19  1  0.39328820  0.82814811  0.77781460  1
  O  O20  1  0.36905157  0.08333589  0.65456656  1
  O  O21  1  0.28551499  0.58333589  0.65456656  1
  O  O22  1  0.06853362  0.30329371  0.65584505  1
  O  O23  1  0.58731143  0.80329371  0.65584505  1
  O  O24  1  0.75395787  0.06992613  0.65595698  1
  O  O25  1  0.90199911  0.56992613  0.65595698  1
  O  O26  1  0.27134454  0.13466419  0.14205614  1
  O  O27  1  0.87071160  0.63466419  0.14205614  1
  O  O28  1  0.22328305  0.43798440  0.90023166  1
  O  O29  1  0.67694861  0.93798440  0.90023166  1
  O  O30  1  0.40410486  0.52181006  0.41376055  1
  O  O31  1  0.00965569  0.02181006  0.41376055  1
  O  O32  1  0.71621523  0.15080939  0.53225500  1
  O  O33  1  0.81603976  0.65080939  0.53225500  1
  O  O34  1  0.79735356  0.15501845  0.96887901  1
  O  O35  1  0.17152545  0.65501845  0.96887901  1
  O  O36  1  0.54549382  0.48208599  0.73447284  1
  O  O37  1  0.18897902  0.98208599  0.73447284  1
  O  O38  1  0.29835802  0.53310425  0.24005947  1
  O  O39  1  0.94170145  0.03310425  0.24005947  1
  O  O40  1  0.94588882  0.28538400  0.27355789  1
  O  O41  1  0.32766907  0.78538400  0.27355789  1
  O  O42  1  0.70678805  0.42921523  0.04647895  1
  O  O43  1  0.33969090  0.92921523  0.04647895  1
  O  O44  1  0.21430033  0.34368595  0.41609420  1
  O  O45  1  0.20179387  0.84368595  0.41609420  1
  O  O46  1  0.59764833  0.26880391  0.66869720  1
  O  O47  1  0.07104887  0.76880391  0.66869720  1
  O  O48  1  0.69294202  0.39455742  0.37021221  1
  O  O49  1  0.67727020  0.89455742  0.37021221  1
  O  O50  1  0.55380715  0.41126229  0.51440883  1
  O  O51  1  0.96060167  0.91126229  0.51440883  1
  O  O52  1  0.49957396  0.21827389  0.37684028  1
  O  O53  1  0.87726632  0.71827389  0.37684028  1
  O  O54  1  0.31711756  0.43294020  0.05613147  1
  O  O55  1  0.73901391  0.93294020  0.05613147  1
  O  O56  1  0.32399383  0.16071639  0.52593650  1
  O  O57  1  0.20194267  0.66071639  0.52593650  1
  O  O58  1  0.02032215  0.99986260  0.99914470  1
  O  O59  1  0.97882255  0.49986260  0.99914470  1
  O  O60  1  0.07886160  0.22710661  0.78427249  1
  O  O61  1  0.70541089  0.72710661  0.78427249  1
  O  O62  1  0.53243356  0.09310542  0.03462952  1
  O  O63  1  0.50219596  0.59310542  0.03462952  1
  O  O64  1  0.36154200  0.99935264  0.36110763  1
  O  O65  1  0.99956563  0.49935264  0.36110763  1
  O  O66  1  0.89554721  0.13956795  0.12850030  1
  O  O67  1  0.23295309  0.63956795  0.12850030  1
  O  O68  1  0.71550048  0.26009611  0.82772011  1
  O  O69  1  0.11221963  0.76009611  0.82772011  1
  O  O70  1  0.05740700  0.34408456  0.14306142  1
  O  O71  1  0.08565443  0.84408456  0.14306142  1
loop_
_geom_bond_atom_site_label_1
_geom_bond_atom_site_label_2
_geom_bond_distance
_geom_bond_site_symmetry_2
Na0 O14 2.221275 1_555
Na0 O62 2.540777 1_555
Na0 O66 2.550749 1_555
Na0 O40 2.556963 1_555
Na0 O26 2.593983 1_555
Na0 O0 2.919355 1_555
Na1 O15 2.221275 1_555
Na1 O63 2.540777 1_555
Na1 O67 2.550749 1_555
Na1 O41 2.556963 1_555
Na1 O27 2.593983 1_555
Na1 O1 2.919355 1_555
Na2 O70 2.303873 1_655
Na2 O34 2.386555 1_554
Na2 O8 2.439413 1_655
Na2 O59 2.466344 1_554
Na2 O42 2.628031 1_555
Na2 O54 2.708489 1_655
Na3 O71 2.303873 1_555
Na3 O35 2.386555 1_554
Na3 O9 2.439413 1_455
Na3 O58 2.466344 1_554
Na3 O43 2.628031 1_555
Na3 O55 2.708489 1_455
Na4 O70 2.265551 1_655
Na4 O14 2.294977 1_555
Na4 O42 2.600572 1_555
Na4 O65 2.634334 1_555
Na5 O71 2.265551 1_555
Na5 O15 2.294977 1_555
Na5 O43 2.600572 1_555
Na5 O64 2.634334 1_555
Na6 O56 2.500143 1_555
Na6 O36 2.531349 1_555
Na6 O22 2.590051 1_555
Na6 O46 2.663414 1_555
Na6 O50 2.698263 1_555
Na6 O21 2.811027 1_555
Na7 O57 2.500143 1_555
Na7 O37 2.531349 1_555
Na7 O23 2.590051 1_555
Na7 O47 2.663414 1_555
Na7 O51 2.698264 1_455
Na7 O20 2.811027 1_565
Na8 O50 2.323643 1_555
Na8 O22 2.326739 1_655
Na8 O32 2.487977 1_555
Na8 O25 2.788646 1_555
Na8 O46 2.804699 1_555
Na8 O2 2.933930 1_555
Na8 O16 2.998771 1_655
Na9 O51 2.323643 1_555
Na9 O23 2.326739 1_555
Na9 O33 2.487977 1_555
Na9 O24 2.788646 1_565
Na9 O47 2.804699 1_655
Na9 O3 2.933930 1_555
Na9 O17 2.998771 1_555
Na10 O24 2.360249 1_555
Na10 O60 2.368769 1_655
Na10 O6 2.401907 1_555
Na10 O68 2.403040 1_555
Na10 O11 2.474681 1_545
Na11 O25 2.360249 1_555
Na11 O61 2.368769 1_555
Na11 O7 2.401907 1_655
Na11 O69 2.403040 1_655
Na11 O10 2.474681 1_555
Na12 O23 2.441466 1_555
Na12 O50 2.452534 1_555
Na12 O33 2.549573 1_555
Na12 O21 2.558299 1_555
Na12 O25 2.751426 1_555
Na12 O57 2.803706 1_555
Na12 O30 2.820132 1_555
Na13 O22 2.441466 1_555
Na13 O51 2.452534 1_445
Na13 O32 2.549573 1_455
Na13 O20 2.558299 1_555
Na13 O24 2.751426 1_455
Na13 O56 2.803706 1_555
Na13 O31 2.820132 1_555
Na14 O32 2.241025 1_555
Na14 O52 2.326716 1_555
Na14 O2 2.356690 1_555
Na14 O31 2.449029 1_655
Na14 O49 2.559190 1_545
Na14 O0 2.608702 1_555
Na14 O64 2.730428 1_545
Na15 O33 2.241025 1_555
Na15 O53 2.326716 1_555
Na15 O3 2.356690 1_555
Na15 O30 2.449029 1_555
Na15 O48 2.559190 1_555
Na15 O1 2.608702 1_555
Na15 O65 2.730428 1_555
O0 O39 1.229998 1_555
O1 O38 1.229998 1_555
O2 W6 1.792426 1_555
O3 W7 1.792426 1_555
O4 Te6 1.906407 1_555
O4 W4 2.110701 1_555
O5 Te7 1.906407 1_655
O5 W5 2.110701 1_555
O6 Te3 1.887051 1_555
O6 W3 2.131625 1_545
O7 Te2 1.887051 1_555
O7 W2 2.131625 1_555
O8 W8 1.801691 1_555
O9 W9 1.801691 1_555
O10 W10 1.939998 1_555
O10 W2 1.989163 1_655
O11 W11 1.939998 1_655
O11 W3 1.989163 1_555
O12 W9 1.924474 1_556
O12 W10 1.947750 1_555
O13 W8 1.924474 1_566
O13 W11 1.947750 1_555
O14 Te0 1.842777 1_555
O15 Te1 1.842777 1_555
O16 W6 1.915001 1_455
O16 W1 1.978114 1_555
O17 W7 1.915001 1_555
O17 W0 1.978114 1_565
O18 W10 1.918096 1_555
O18 W2 1.929774 1_555
O19 W11 1.918096 1_555
O19 W3 1.929774 1_555
O20 Te3 1.926650 1_555
O20 W0 2.198217 1_555
O21 Te2 1.926650 1_555
O21 W1 2.198217 1_555
O22 W2 1.826200 1_555
O23 W3 1.826200 1_555
O24 W0 1.784628 1_555
O25 W1 1.784628 1_655
O26 Te6 1.976740 1_555
O26 W8 2.090089 1_555
O27 Te7 1.976740 1_655
O27 W9 2.090089 1_555
O28 W13 1.850634 1_556
O28 W2 2.102605 1_555
O29 W12 1.850634 1_566
O29 W3 2.102605 1_555
O30 Te5 1.911806 1_555
O30 W4 2.165996 1_555
O31 Te4 1.911806 1_555
O31 W5 2.165996 1_445
O32 W0 1.804711 1_555
O33 W1 1.804711 1_655
O34 W12 1.789133 1_556
O35 W13 1.789133 1_556
O36 Te2 1.910994 1_555
O36 W10 2.203951 1_555
O37 Te3 1.910994 1_565
O37 W11 2.203951 1_555
O40 W6 1.997035 1_555
O40 Te6 1.998393 1_655
O41 W7 1.997035 1_555
O41 Te7 1.998393 1_555
O42 Te0 1.958843 1_555
O42 W9 2.066362 1_555
O43 Te1 1.958843 1_555
O43 W8 2.066362 1_565
O44 W6 1.905964 1_455
O44 W4 1.970910 1_555
O45 W7 1.905964 1_555
O45 W5 1.970910 1_455
O46 W0 1.958073 1_555
O46 W10 1.969051 1_555
O47 W1 1.958073 1_555
O47 W11 1.969051 1_555
O48 W4 1.979749 1_555
O48 W6 1.998886 1_555
O49 W5 1.979749 1_555
O49 W7 1.998886 1_555
O50 W4 1.819619 1_555
O51 W5 1.819619 1_555
O52 W4 1.800291 1_555
O53 W5 1.800291 1_555
O54 Te0 1.906560 1_555
O54 W13 2.095521 1_555
O55 Te1 1.906560 1_555
O55 W12 2.095521 1_565
O56 Te4 1.904993 1_555
O56 W0 2.220475 1_555
O57 Te5 1.904993 1_555
O57 W1 2.220475 1_555
O58 W8 1.938227 1_566
O58 W12 1.953241 1_466
O59 W9 1.938227 1_556
O59 W13 1.953241 1_656
O60 W2 1.803553 1_555
O61 W3 1.803553 1_555
O62 W8 1.937639 1_555
O62 W12 2.007259 1_555
O63 W9 1.937639 1_555
O63 W13 2.007259 1_555
O64 Te4 1.912842 1_565
O64 W7 2.161020 1_555
O65 Te5 1.912842 1_655
O65 W6 2.161020 1_555
O66 Te6 1.936000 1_655
O66 W12 2.079787 1_555
O67 Te7 1.936000 1_555
O67 W13 2.079787 1_555
O68 W10 1.779527 1_555
O69 W11 1.779527 1_555
O70 Te6 1.816884 1_555
O71 Te7 1.816884 1_555
