# generated using pymatgen
data_Nd14Ag51
_symmetry_space_group_name_H-M   'P 1'
_cell_length_a   12.83770728
_cell_length_b   12.83770301
_cell_length_c   9.46948063
_cell_angle_alpha   90.00000000
_cell_angle_beta   90.00000000
_cell_angle_gamma   119.99999304
_symmetry_Int_Tables_number   1
_chemical_formula_structural   Nd14Ag51
_chemical_formula_sum   'Nd14 Ag51'
_cell_volume   1351.54844040
_cell_formula_units_Z   1
loop_
 _symmetry_equiv_pos_site_id
 _symmetry_equiv_pos_as_xyz
  1  'x, y, z'
loop_
 _atom_site_type_symbol
 _atom_site_label
 _atom_site_symmetry_multiplicity
 _atom_site_fract_x
 _atom_site_fract_y
 _atom_site_fract_z
 _atom_site_occupancy
  Nd  Nd0  1  0.33895997  0.86452385  0.50000000  1
  Nd  Nd1  1  0.13547736  0.47443653  0.50000000  1
  Nd  Nd2  1  0.52556401  0.66104067  0.50000000  1
  Nd  Nd3  1  0.99678696  0.80643930  0.50000000  1
  Nd  Nd4  1  0.19356149  0.19034829  0.50000000  1
  Nd  Nd5  1  0.80965124  0.00321243  0.50000000  1
  Nd  Nd6  1  0.93262780  0.22044233  0.00000000  1
  Nd  Nd7  1  0.77955582  0.71218475  0.00000000  1
  Nd  Nd8  1  0.28781602  0.06737222  0.00000000  1
  Nd  Nd9  1  0.38275811  0.44933746  0.00000000  1
  Nd  Nd10  1  0.55066290  0.93342022  0.00000000  1
  Nd  Nd11  1  0.06657999  0.61724330  0.00000000  1
  Nd  Nd12  1  0.66666596  0.33333308  0.30305909  1
  Nd  Nd13  1  0.66666596  0.33333308  0.69694091  1
  Ag  Ag0  1  0.28912741  0.84131633  0.15294023  1
  Ag  Ag1  1  0.15868471  0.44781145  0.15294021  1
  Ag  Ag2  1  0.55218872  0.71087294  0.15294020  1
  Ag  Ag3  1  0.05013288  0.83245617  0.15176248  1
  Ag  Ag4  1  0.16754466  0.21767688  0.15176238  1
  Ag  Ag5  1  0.78232242  0.94986653  0.15176238  1
  Ag  Ag6  1  0.05013288  0.83245617  0.84823752  1
  Ag  Ag7  1  0.16754466  0.21767688  0.84823762  1
  Ag  Ag8  1  0.78232242  0.94986653  0.84823762  1
  Ag  Ag9  1  0.28912741  0.84131633  0.84705977  1
  Ag  Ag10  1  0.15868471  0.44781145  0.84705979  1
  Ag  Ag11  1  0.55218872  0.71087294  0.84705980  1
  Ag  Ag12  1  0.84539095  0.27497501  0.50000000  1
  Ag  Ag13  1  0.72502426  0.57041610  0.50000000  1
  Ag  Ag14  1  0.42958384  0.15460866  0.50000000  1
  Ag  Ag15  1  0.48566208  0.39257086  0.50000000  1
  Ag  Ag16  1  0.60742881  0.09309093  0.50000000  1
  Ag  Ag17  1  0.90690841  0.51433793  0.50000000  1
  Ag  Ag18  1  0.33333414  0.66666737  0.00000000  1
  Ag  Ag19  1  0.00000001  0.99999977  0.00000000  1
  Ag  Ag20  1  0.99736047  0.22922589  0.32924238  1
  Ag  Ag21  1  0.77077366  0.76813353  0.32924204  1
  Ag  Ag22  1  0.23186579  0.00263980  0.32924221  1
  Ag  Ag23  1  0.33041396  0.43755733  0.33170262  1
  Ag  Ag24  1  0.56244296  0.89285598  0.33170259  1
  Ag  Ag25  1  0.10714406  0.66958750  0.33170296  1
  Ag  Ag26  1  0.33041396  0.43755733  0.66829738  1
  Ag  Ag27  1  0.56244296  0.89285598  0.66829741  1
  Ag  Ag28  1  0.10714406  0.66958750  0.66829704  1
  Ag  Ag29  1  0.99736047  0.22922589  0.67075762  1
  Ag  Ag30  1  0.77077366  0.76813353  0.67075796  1
  Ag  Ag31  1  0.23186579  0.00263980  0.67075779  1
  Ag  Ag32  1  0.73939005  0.13574067  0.24120167  1
  Ag  Ag33  1  0.86425822  0.60364976  0.24120168  1
  Ag  Ag34  1  0.39635058  0.26060930  0.24120169  1
  Ag  Ag35  1  0.59031446  0.52276891  0.23546793  1
  Ag  Ag36  1  0.47723123  0.06754581  0.23546795  1
  Ag  Ag37  1  0.93245392  0.40968527  0.23546809  1
  Ag  Ag38  1  0.59031446  0.52276891  0.76453207  1
  Ag  Ag39  1  0.47723123  0.06754581  0.76453205  1
  Ag  Ag40  1  0.93245392  0.40968527  0.76453191  1
  Ag  Ag41  1  0.73939005  0.13574067  0.75879833  1
  Ag  Ag42  1  0.86425822  0.60364976  0.75879832  1
  Ag  Ag43  1  0.39635058  0.26060930  0.75879831  1
  Ag  Ag44  1  0.33333400  0.66666731  0.29201067  1
  Ag  Ag45  1  0.99999966  0.99999983  0.29190164  1
  Ag  Ag46  1  0.99999966  0.99999983  0.70809836  1
  Ag  Ag47  1  0.33333400  0.66666731  0.70798933  1
  Ag  Ag48  1  0.64770982  0.19958902  0.00000000  1
  Ag  Ag49  1  0.80040999  0.44812127  0.00000000  1
  Ag  Ag50  1  0.55187850  0.35228920  0.00000000  1
loop_
_geom_bond_atom_site_label_1
_geom_bond_atom_site_label_2
_geom_bond_distance
_geom_bond_site_symmetry_2
Nd12 Nd13 3.729856 1_555
Ag0 Ag36 2.804207 1_565
Ag0 Ag25 2.834321 1_555
Ag0 Ag44 2.890631 1_555
Ag0 Ag9 2.896529 1_554
Ag0 Ag18 2.952784 1_555
Ag0 Ag3 3.012901 1_555
Ag0 Ag22 3.023100 1_565
Ag0 Nd11 3.211892 1_555
Ag0 Nd8 3.250913 1_565
Ag0 Nd10 3.286111 1_555
Ag0 Nd0 3.332919 1_555
Ag1 Ag37 2.804222 1_455
Ag1 Ag23 2.834321 1_555
Ag1 Ag44 2.890635 1_555
Ag1 Ag10 2.896529 1_554
Ag1 Ag18 2.952787 1_555
Ag1 Ag4 3.012901 1_555
Ag1 Ag20 3.023107 1_455
Ag1 Nd9 3.211894 1_555
Ag1 Nd6 3.250930 1_455
Ag1 Nd11 3.286120 1_555
Ag1 Nd1 3.332919 1_555
Ag2 Ag35 2.804210 1_555
Ag2 Ag24 2.834316 1_555
Ag2 Ag44 2.890626 1_555
Ag2 Ag5 3.012890 1_555
Ag2 Ag21 3.023102 1_555
Ag2 Nd10 3.211891 1_555
Ag2 Nd7 3.250910 1_555
Ag2 Nd9 3.286108 1_555
Ag2 Nd2 3.332919 1_555
Ag3 Ag33 2.833759 1_455
Ag3 Ag45 2.861088 1_455
Ag3 Ag6 2.874224 1_554
Ag3 Nd11 3.213488 1_555
Ag3 Nd7 3.339435 1_455
Ag3 Nd3 3.350549 1_455
Ag3 Nd8 3.356878 1_565
Ag4 Ag45 2.861095 1_445
Ag4 Ag7 2.874222 1_554
Ag4 Nd9 3.213495 1_555
Ag4 Nd8 3.339423 1_555
Ag4 Nd4 3.350549 1_555
Ag4 Nd6 3.356878 1_455
Ag5 Ag8 2.874222 1_554
Ag5 Nd10 3.213487 1_555
Ag5 Nd6 3.339421 1_565
Ag5 Nd5 3.350550 1_565
Ag5 Nd7 3.356864 1_555
Ag6 Ag9 3.012901 1_555
Ag6 Nd11 3.213488 1_556
Ag6 Nd7 3.339435 1_456
Ag6 Nd3 3.350549 1_455
Ag6 Nd8 3.356878 1_566
Ag7 Nd9 3.213495 1_556
Ag7 Nd8 3.339423 1_556
Ag7 Nd4 3.350549 1_555
Ag7 Nd6 3.356878 1_456
Ag8 Nd10 3.213487 1_556
Ag8 Nd6 3.339421 1_566
Ag8 Nd5 3.350550 1_565
Ag8 Nd7 3.356864 1_556
Ag9 Nd11 3.211892 1_556
Ag9 Nd8 3.250913 1_566
Ag9 Nd10 3.286111 1_556
Ag9 Nd0 3.332919 1_555
Ag10 Ag40 2.804222 1_455
Ag10 Ag26 2.834321 1_555
Ag10 Ag47 2.890635 1_555
Ag10 Ag18 2.952787 1_556
Ag10 Ag7 3.012901 1_555
Ag10 Ag29 3.023107 1_455
Ag10 Nd9 3.211894 1_556
Ag10 Nd6 3.250930 1_456
Ag10 Nd11 3.286120 1_556
Ag10 Nd1 3.332919 1_555
Ag11 Ag38 2.804210 1_555
Ag11 Ag27 2.834316 1_555
Ag11 Ag47 2.890626 1_555
Ag11 Ag2 2.896529 1_556
Ag11 Ag18 2.952776 1_556
Ag11 Ag8 3.012890 1_555
Ag11 Ag30 3.023102 1_555
Ag11 Nd10 3.211891 1_556
Ag11 Nd7 3.250910 1_556
Ag11 Nd9 3.286108 1_556
Ag11 Nd2 3.332919 1_555
Ag12 Ag17 2.763955 1_555
Ag12 Ag16 2.766110 1_555
Ag12 Ag20 2.812750 1_555
Ag12 Ag29 2.812750 1_555
Ag12 Ag37 2.929501 1_555
Ag12 Ag40 2.929501 1_555
Ag12 Ag32 2.936028 1_555
Ag12 Ag41 2.936028 1_555
Ag12 Nd5 3.283530 1_555
Ag12 Nd1 3.299914 1_655
Ag12 Nd12 3.320020 1_555
Ag12 Nd13 3.320020 1_555
Ag13 Ag15 2.763949 1_555
Ag13 Ag17 2.766111 1_555
Ag13 Ag21 2.812738 1_555
Ag13 Ag30 2.812738 1_555
Ag13 Ag35 2.929500 1_555
Ag13 Ag38 2.929500 1_555
Ag13 Ag42 2.936025 1_555
Ag13 Ag33 2.936025 1_555
Ag13 Nd3 3.283533 1_555
Ag13 Nd2 3.299895 1_555
Ag13 Nd12 3.320018 1_555
Ag13 Nd13 3.320018 1_555
Ag14 Ag16 2.763952 1_555
Ag14 Ag15 2.766109 1_555
Ag14 Ag22 2.812745 1_555
Ag14 Ag31 2.812745 1_555
Ag14 Ag36 2.929502 1_555
Ag14 Ag39 2.929502 1_555
Ag14 Ag34 2.936025 1_555
Ag14 Ag43 2.936025 1_555
Ag14 Nd4 3.283524 1_555
Ag14 Nd0 3.299896 1_545
Ag14 Nd12 3.320012 1_555
Ag14 Nd13 3.320012 1_555
Ag15 Ag23 2.827820 1_555
Ag15 Ag26 2.827820 1_555
Ag15 Ag34 2.871934 1_555
Ag15 Ag43 2.871934 1_555
Ag15 Ag38 2.937356 1_555
Ag15 Ag35 2.937356 1_555
Ag15 Nd2 3.221106 1_555
Ag15 Nd4 3.326611 1_555
Ag15 Nd13 3.350052 1_555
Ag15 Nd12 3.350052 1_555
Ag16 Ag27 2.827825 1_545
Ag16 Ag24 2.827825 1_545
Ag16 Ag41 2.871933 1_555
Ag16 Ag32 2.871933 1_555
Ag16 Ag39 2.937354 1_555
Ag16 Ag36 2.937354 1_555
Ag16 Nd0 3.221095 1_545
Ag16 Nd5 3.326614 1_555
Ag16 Nd12 3.350058 1_555
Ag16 Nd13 3.350058 1_555
Ag17 Ag28 2.827830 1_655
Ag17 Ag25 2.827830 1_655
Ag17 Ag33 2.871937 1_555
Ag17 Ag42 2.871937 1_555
Ag17 Ag40 2.937356 1_555
Ag17 Ag37 2.937356 1_555
Ag17 Nd1 3.221116 1_655
Ag17 Nd3 3.326618 1_555
Ag17 Nd12 3.350061 1_555
Ag17 Nd13 3.350061 1_555
Ag18 Ag44 2.765189 1_555
Ag18 Ag47 2.765189 1_554
Ag18 Ag2 2.952776 1_555
Ag18 Ag9 2.952784 1_554
Ag18 Nd10 3.155460 1_555
Ag18 Nd9 3.155473 1_555
Ag18 Nd11 3.155477 1_555
Ag19 Ag46 2.764157 1_454
Ag19 Ag45 2.764157 1_455
Ag19 Ag3 2.913769 1_555
Ag19 Ag6 2.913769 1_554
Ag19 Ag4 2.913777 1_565
Ag19 Ag7 2.913777 1_564
Ag19 Ag8 2.913780 1_454
Ag19 Ag5 2.913780 1_455
Ag19 Nd6 3.347310 1_465
Ag19 Nd7 3.347319 1_455
Ag19 Nd8 3.347326 1_565
Ag20 Ag4 2.818458 1_655
Ag20 Ag37 2.963148 1_555
Ag20 Ag45 2.980869 1_545
Ag20 Ag32 3.021343 1_555
Ag20 Nd5 3.138207 1_555
Ag20 Nd1 3.175917 1_655
Ag20 Nd6 3.214031 1_555
Ag20 Ag29 3.233972 1_555
Ag20 Nd4 3.234976 1_655
Ag21 Ag5 2.818455 1_555
Ag21 Ag35 2.963136 1_555
Ag21 Ag45 2.980875 1_555
Ag21 Ag33 3.021318 1_555
Ag21 Nd3 3.138201 1_555
Ag21 Nd2 3.175910 1_555
Ag21 Nd7 3.214024 1_555
Ag21 Ag30 3.233978 1_555
Ag21 Nd5 3.234980 1_565
Ag22 Ag3 2.818452 1_545
Ag22 Ag36 2.963145 1_555
Ag22 Ag45 2.980876 1_445
Ag22 Ag34 3.021332 1_555
Ag22 Nd4 3.138200 1_555
Ag22 Nd0 3.175913 1_545
Ag22 Nd8 3.214030 1_555
Ag22 Ag31 3.233975 1_555
Ag22 Nd3 3.234976 1_445
Ag23 Ag34 2.921304 1_555
Ag23 Ag44 2.946752 1_555
Ag23 Ag4 3.056321 1_555
Ag23 Ag35 3.083769 1_555
Ag23 Nd2 3.140036 1_555
Ag23 Nd4 3.181596 1_555
Ag23 Ag26 3.187378 1_555
Ag23 Nd1 3.195545 1_555
Ag23 Nd9 3.199845 1_555
Ag24 Ag32 2.921302 1_565
Ag24 Ag44 2.946738 1_555
Ag24 Ag5 3.056313 1_555
Ag24 Ag36 3.083780 1_565
Ag24 Nd0 3.140038 1_555
Ag24 Nd5 3.181590 1_565
Ag24 Ag27 3.187378 1_555
Ag24 Nd2 3.195540 1_555
Ag24 Nd10 3.199845 1_555
Ag25 Ag33 2.921316 1_455
Ag25 Ag44 2.946754 1_555
Ag25 Ag3 3.056316 1_555
Ag25 Ag37 3.083788 1_455
Ag25 Nd1 3.140044 1_555
Ag25 Nd3 3.181593 1_455
Ag25 Ag28 3.187371 1_555
Ag25 Nd0 3.195543 1_555
Ag25 Nd11 3.199848 1_555
Ag26 Ag43 2.921304 1_555
Ag26 Ag47 2.946752 1_555
Ag26 Ag7 3.056321 1_555
Ag26 Ag38 3.083769 1_555
Ag26 Nd2 3.140036 1_555
Ag26 Nd4 3.181596 1_555
Ag26 Nd1 3.195545 1_555
Ag26 Nd9 3.199845 1_556
Ag27 Ag41 2.921302 1_565
Ag27 Ag47 2.946738 1_555
Ag27 Ag8 3.056313 1_555
Ag27 Ag39 3.083780 1_565
Ag27 Nd0 3.140038 1_555
Ag27 Nd5 3.181590 1_565
Ag27 Nd2 3.195540 1_555
Ag27 Nd10 3.199845 1_556
Ag28 Ag9 2.834321 1_555
Ag28 Ag42 2.921316 1_455
Ag28 Ag47 2.946754 1_555
Ag28 Ag6 3.056316 1_555
Ag28 Ag40 3.083788 1_455
Ag28 Nd1 3.140044 1_555
Ag28 Nd3 3.181593 1_455
Ag28 Nd0 3.195543 1_555
Ag28 Nd11 3.199848 1_556
Ag29 Ag7 2.818458 1_655
Ag29 Ag40 2.963148 1_555
Ag29 Ag46 2.980869 1_545
Ag29 Ag41 3.021343 1_555
Ag29 Nd5 3.138207 1_555
Ag29 Nd1 3.175917 1_655
Ag29 Nd6 3.214031 1_556
Ag29 Nd4 3.234976 1_655
Ag30 Ag8 2.818455 1_555
Ag30 Ag38 2.963136 1_555
Ag30 Ag46 2.980875 1_555
Ag30 Ag42 3.021318 1_555
Ag30 Nd3 3.138201 1_555
Ag30 Nd2 3.175910 1_555
Ag30 Nd7 3.214024 1_556
Ag30 Nd5 3.234980 1_565
Ag31 Ag6 2.818452 1_545
Ag31 Ag39 2.963145 1_555
Ag31 Ag46 2.980876 1_445
Ag31 Ag43 3.021332 1_555
Ag31 Ag9 3.023100 1_545
Ag31 Nd4 3.138200 1_555
Ag31 Nd0 3.175913 1_545
Ag31 Nd8 3.214030 1_556
Ag31 Nd3 3.234976 1_445
Ag32 Ag5 2.833757 1_545
Ag32 Ag48 2.870317 1_555
Ag32 Ag36 3.024848 1_555
Ag32 Ag37 3.130094 1_555
Ag32 Nd6 3.139399 1_555
Ag32 Nd12 3.165039 1_555
Ag32 Nd5 3.353906 1_555
Ag32 Nd10 3.397092 1_545
Ag33 Ag49 2.870316 1_555
Ag33 Ag37 3.024861 1_555
Ag33 Ag35 3.130084 1_555
Ag33 Nd7 3.139395 1_555
Ag33 Nd12 3.165041 1_555
Ag33 Nd3 3.353907 1_555
Ag33 Nd11 3.397103 1_655
Ag34 Ag4 2.833751 1_555
Ag34 Ag50 2.870313 1_555
Ag34 Ag35 3.024854 1_555
Ag34 Ag36 3.130089 1_555
Ag34 Nd8 3.139393 1_555
Ag34 Nd12 3.165028 1_555
Ag34 Nd4 3.353904 1_555
Ag34 Nd9 3.397097 1_555
Ag35 Ag50 2.987511 1_555
Ag35 Nd12 3.109401 1_555
Ag35 Nd9 3.232408 1_555
Ag35 Nd7 3.298390 1_555
Ag35 Nd2 3.404761 1_555
Ag36 Ag48 2.987504 1_555
Ag36 Nd12 3.109397 1_555
Ag36 Nd10 3.232415 1_545
Ag36 Nd8 3.298389 1_555
Ag36 Nd0 3.404758 1_545
Ag37 Ag49 2.987514 1_555
Ag37 Nd12 3.109407 1_555
Ag37 Nd11 3.232422 1_655
Ag37 Nd6 3.298403 1_555
Ag37 Nd1 3.404769 1_655
Ag38 Ag50 2.987511 1_556
Ag38 Ag43 3.024854 1_555
Ag38 Nd13 3.109401 1_555
Ag38 Ag42 3.130084 1_555
Ag38 Nd9 3.232408 1_556
Ag38 Nd7 3.298390 1_556
Ag38 Nd2 3.404761 1_555
Ag39 Ag9 2.804207 1_545
Ag39 Ag48 2.987504 1_556
Ag39 Ag41 3.024848 1_555
Ag39 Nd13 3.109397 1_555
Ag39 Ag43 3.130089 1_555
Ag39 Nd10 3.232415 1_546
Ag39 Nd8 3.298389 1_556
Ag39 Nd0 3.404758 1_545
Ag40 Ag49 2.987514 1_556
Ag40 Ag42 3.024861 1_555
Ag40 Nd13 3.109407 1_555
Ag40 Ag41 3.130094 1_555
Ag40 Nd11 3.232422 1_656
Ag40 Nd6 3.298403 1_556
Ag40 Nd1 3.404769 1_655
Ag41 Ag8 2.833757 1_545
Ag41 Ag48 2.870317 1_556
Ag41 Nd6 3.139399 1_556
Ag41 Nd13 3.165039 1_555
Ag41 Nd5 3.353906 1_555
Ag41 Nd10 3.397092 1_546
Ag42 Ag6 2.833759 1_655
Ag42 Ag49 2.870316 1_556
Ag42 Nd7 3.139395 1_556
Ag42 Nd13 3.165041 1_555
Ag42 Nd3 3.353907 1_555
Ag42 Nd11 3.397103 1_656
Ag43 Ag7 2.833751 1_555
Ag43 Ag50 2.870313 1_556
Ag43 Nd8 3.139393 1_556
Ag43 Nd13 3.165028 1_555
Ag43 Nd4 3.353904 1_555
Ag43 Nd9 3.397097 1_556
Ag44 Nd2 3.186315 1_555
Ag44 Nd0 3.186317 1_555
Ag44 Nd1 3.186319 1_555
Ag45 Ag5 2.861093 1_555
Ag45 Nd3 3.155472 1_555
Ag45 Nd5 3.155478 1_565
Ag45 Nd4 3.155483 1_665
Ag46 Ag6 2.861088 1_655
Ag46 Ag8 2.861093 1_555
Ag46 Ag7 2.861095 1_665
Ag46 Nd3 3.155472 1_555
Ag46 Nd5 3.155478 1_565
Ag46 Nd4 3.155483 1_665
Ag47 Ag9 2.890631 1_555
Ag47 Nd2 3.186315 1_555
Ag47 Nd0 3.186317 1_555
Ag47 Nd1 3.186319 1_555
Ag48 Ag50 2.787126 1_555
Ag48 Ag49 2.787133 1_555
Ag48 Nd10 2.995151 1_545
Ag48 Nd13 3.290165 1_554
Ag48 Nd12 3.290165 1_555
Ag48 Nd6 3.531458 1_555
Ag49 Ag50 2.787125 1_555
Ag49 Nd11 2.995165 1_655
Ag49 Nd13 3.290166 1_554
Ag49 Nd12 3.290166 1_555
Ag49 Nd7 3.531448 1_555
Ag50 Nd9 2.995147 1_555
Ag50 Nd13 3.290163 1_554
Ag50 Nd12 3.290163 1_555
Ag50 Nd8 3.531438 1_555
