# generated using pymatgen
data_Li2V3(OF)4
_symmetry_space_group_name_H-M   'P 1'
_cell_length_a   5.06015652
_cell_length_b   10.21893643
_cell_length_c   6.07103617
_cell_angle_alpha   72.36342732
_cell_angle_beta   90.46577688
_cell_angle_gamma   91.15034668
_symmetry_Int_Tables_number   1
_chemical_formula_structural   Li2V3(OF)4
_chemical_formula_sum   'Li4 V6 O8 F8'
_cell_volume   299.11326639
_cell_formula_units_Z   2
loop_
 _symmetry_equiv_pos_site_id
 _symmetry_equiv_pos_as_xyz
  1  'x, y, z'
loop_
 _atom_site_type_symbol
 _atom_site_label
 _atom_site_symmetry_multiplicity
 _atom_site_fract_x
 _atom_site_fract_y
 _atom_site_fract_z
 _atom_site_occupancy
  Li  Li0  1  0.05830600  0.54326000  0.10098500  1
  Li  Li1  1  0.06386000  0.54321800  0.60284100  1
  Li  Li2  1  0.97593700  0.14219800  0.05445600  1
  Li  Li3  1  0.97605800  0.14184200  0.55160200  1
  V  V0  1  0.02778300  0.86017500  0.44713300  1
  V  V1  1  0.52967200  0.64046200  0.79708500  1
  V  V2  1  0.52569300  0.64630000  0.30239800  1
  V  V3  1  0.02905700  0.85114000  0.94995100  1
  V  V4  1  0.46276000  0.36799500  0.19054400  1
  V  V5  1  0.46290800  0.36757200  0.69118300  1
  O  O0  1  0.28235900  0.47288300  0.88809700  1
  O  O1  1  0.28675500  0.47477500  0.38782400  1
  O  O2  1  0.29713300  0.72398100  0.00691800  1
  O  O3  1  0.31411400  0.71766500  0.53420900  1
  O  O4  1  0.68623700  0.54088600  0.09181300  1
  O  O5  1  0.69703600  0.53807000  0.61424900  1
  O  O6  1  0.82729400  0.77214800  0.74955900  1
  O  O7  1  0.84216200  0.76973900  0.23445900  1
  F  F0  1  0.17524700  0.23416900  0.25800100  1
  F  F1  1  0.17403900  0.23312600  0.75632700  1
  F  F2  1  0.21764900  0.95579100  0.65346900  1
  F  F3  1  0.22536500  0.95118100  0.14507500  1
  F  F4  1  0.66275300  0.27607300  0.98651000  1
  F  F5  1  0.66680200  0.27848100  0.48545500  1
  F  F6  1  0.82716700  0.02633800  0.35853900  1
  F  F7  1  0.83169200  0.01427300  0.86945000  1
loop_
_geom_bond_atom_site_label_1
_geom_bond_atom_site_label_2
_geom_bond_distance
_geom_bond_site_symmetry_2
Li0 O4 1.882985 1_455
Li0 O0 2.023072 1_554
Li0 O1 2.029745 1_555
Li0 O2 2.116536 1_555
Li1 O5 1.857136 1_455
Li1 O0 1.996170 1_555
Li1 O1 2.018454 1_555
Li1 O3 2.103075 1_555
O0 V1 2.038584 1_555
O0 V4 2.042823 1_556
O0 V5 2.063681 1_555
O1 V5 2.043640 1_555
O1 V2 2.043865 1_555
O1 V4 2.065579 1_555
O2 V3 1.854472 1_554
O2 V2 2.079896 1_555
O2 V1 2.111718 1_554
O3 V1 1.898014 1_555
O3 V0 2.026152 1_555
O3 V2 2.082407 1_555
O4 V1 1.941837 1_554
O4 V4 2.012112 1_555
O4 V2 2.083599 1_555
O5 V1 1.949050 1_555
O5 V5 2.022465 1_555
O5 V2 2.074214 1_555
O6 V3 1.927645 1_655
O6 V1 1.962811 1_555
O6 V0 2.049948 1_655
O7 V3 1.922001 1_654
O7 V2 1.984964 1_555
O7 V0 2.017882 1_655
F0 V4 1.935196 1_555
F0 Li3 2.013759 1_455
F0 Li2 2.018148 1_455
F1 V5 1.944259 1_555
F1 Li3 2.015778 1_455
F1 Li2 2.029085 1_456
F2 V3 2.028480 1_555
F2 V0 2.032576 1_555
F2 Li3 2.204590 1_465
F3 V3 2.027087 1_554
F3 V0 2.046063 1_555
F3 Li2 2.267784 1_465
F4 V5 2.025873 1_555
F4 V4 2.050487 1_556
F4 Li2 2.070670 1_556
F5 V4 2.030717 1_555
F5 V5 2.049631 1_555
F5 Li3 2.073050 1_555
F6 V0 1.926129 1_645
F6 Li2 2.009707 1_555
F6 Li3 2.030481 1_555
F7 V3 1.892225 1_645
F7 Li2 2.083575 1_556
F7 Li3 2.101679 1_555
