# generated using pymatgen
data_TiZnAsO5
_symmetry_space_group_name_H-M   'P 1'
_cell_length_a   6.09560800
_cell_length_b   8.11484300
_cell_length_c   8.51630600
_cell_angle_alpha   90.00000000
_cell_angle_beta   90.00000000
_cell_angle_gamma   90.00000000
_symmetry_Int_Tables_number   1
_chemical_formula_structural   TiZnAsO5
_chemical_formula_sum   'Ti4 Zn4 As4 O20'
_cell_volume   421.25824092
_cell_formula_units_Z   4
loop_
 _symmetry_equiv_pos_site_id
 _symmetry_equiv_pos_as_xyz
  1  'x, y, z'
loop_
 _atom_site_type_symbol
 _atom_site_label
 _atom_site_symmetry_multiplicity
 _atom_site_fract_x
 _atom_site_fract_y
 _atom_site_fract_z
 _atom_site_occupancy
  Ti  Ti0  1  0.25956500  0.75294900  0.00590300  1
  Ti  Ti1  1  0.24043500  0.24705100  0.50590300  1
  Ti  Ti2  1  0.74043500  0.25294900  0.49409700  1
  Ti  Ti3  1  0.75956500  0.74705100  0.99409700  1
  Zn  Zn0  1  0.05305800  0.81596800  0.68452800  1
  Zn  Zn1  1  0.44694200  0.18403200  0.18452800  1
  Zn  Zn2  1  0.94694200  0.31596800  0.81547200  1
  Zn  Zn3  1  0.55305800  0.68403200  0.31547200  1
  As  As0  1  0.48794300  0.09771700  0.82234500  1
  As  As1  1  0.01205700  0.90228300  0.32234500  1
  As  As2  1  0.51205700  0.59771700  0.67765500  1
  As  As3  1  0.98794300  0.40228300  0.17765500  1
  O  O0  1  0.51064200  0.90152600  0.91103200  1
  O  O1  1  0.98935800  0.09847400  0.41103200  1
  O  O2  1  0.48935800  0.40152600  0.58896800  1
  O  O3  1  0.01064200  0.59847400  0.08896800  1
  O  O4  1  0.44887800  0.24138600  0.97002700  1
  O  O5  1  0.05112200  0.75861400  0.47002700  1
  O  O6  1  0.55112200  0.74138600  0.52997300  1
  O  O7  1  0.94887800  0.25861400  0.02997300  1
  O  O8  1  0.72862500  0.13771200  0.71598800  1
  O  O9  1  0.77137500  0.86228800  0.21598800  1
  O  O10  1  0.27137500  0.63771200  0.78401200  1
  O  O11  1  0.22862500  0.36228800  0.28401200  1
  O  O12  1  0.26269600  0.09280000  0.69357600  1
  O  O13  1  0.23730400  0.90720000  0.19357600  1
  O  O14  1  0.73730400  0.59280000  0.80642400  1
  O  O15  1  0.76269600  0.40720000  0.30642400  1
  O  O16  1  0.99866200  0.86406400  0.89962300  1
  O  O17  1  0.50133800  0.13593600  0.39962300  1
  O  O18  1  0.00133800  0.36406400  0.60037700  1
  O  O19  1  0.49866200  0.63593600  0.10037700  1
loop_
_geom_bond_atom_site_label_1
_geom_bond_atom_site_label_2
_geom_bond_distance
_geom_bond_site_symmetry_2
As0 O4 1.731397 1_555
As0 O8 1.754464 1_555
As0 O12 1.757663 1_555
As0 O0 1.767556 1_545
As1 O5 1.731397 1_555
As1 O9 1.754464 1_455
As1 O13 1.757663 1_555
As1 O1 1.767556 1_465
As2 O6 1.731397 1_555
As2 O10 1.754464 1_555
As2 O14 1.757663 1_555
As2 O2 1.767556 1_555
As3 O7 1.731397 1_555
As3 O11 1.754464 1_655
As3 O15 1.757663 1_555
As3 O3 1.767556 1_655
O0 Ti3 2.091435 1_555
O0 Ti0 2.109212 1_556
O1 Ti2 2.091435 1_555
O1 Ti1 2.109212 1_655
O2 Ti1 2.091435 1_555
O2 Ti2 2.109212 1_555
O3 Ti0 2.091435 1_555
O3 Ti3 2.109212 1_454
O4 Zn1 1.885150 1_556
O5 Zn0 1.885150 1_555
O6 Zn3 1.885150 1_555
O7 Zn2 1.885150 1_554
O8 Ti2 2.109641 1_555
O8 Zn2 2.140371 1_555
O9 Ti3 2.109641 1_554
O9 Zn3 2.140371 1_555
O10 Ti0 2.109641 1_556
O10 Zn0 2.140371 1_555
O11 Ti1 2.109641 1_555
O11 Zn1 2.140371 1_555
O12 Ti1 2.034631 1_555
O13 Ti0 2.034631 1_555
O14 Ti3 2.034631 1_555
O15 Ti2 2.034631 1_555
O16 Zn0 1.902056 1_655
O16 Ti3 1.916533 1_555
O16 Ti0 2.039978 1_656
O17 Zn1 1.902056 1_555
O17 Ti2 1.916533 1_555
O17 Ti1 2.039978 1_555
O18 Zn2 1.902056 1_455
O18 Ti1 1.916533 1_555
O18 Ti2 2.039978 1_455
O19 Zn3 1.902056 1_555
O19 Ti0 1.916533 1_555
O19 Ti3 2.039978 1_554
