# generated using pymatgen
data_KAgF3
_symmetry_space_group_name_H-M   'P 1'
_cell_length_a   4.31330900
_cell_length_b   4.31330900
_cell_length_c   4.31330900
_cell_angle_alpha   90.00000000
_cell_angle_beta   90.00000000
_cell_angle_gamma   90.00000000
_symmetry_Int_Tables_number   1
_chemical_formula_structural   KAgF3
_chemical_formula_sum   'K1 Ag1 F3'
_cell_volume   80.24753756
_cell_formula_units_Z   1
loop_
 _symmetry_equiv_pos_site_id
 _symmetry_equiv_pos_as_xyz
  1  'x, y, z'
loop_
 _atom_site_type_symbol
 _atom_site_label
 _atom_site_symmetry_multiplicity
 _atom_site_fract_x
 _atom_site_fract_y
 _atom_site_fract_z
 _atom_site_occupancy
  K  K0  1  0.50000000  0.50000000  0.50000000  1
  Ag  Ag0  1  0.00000000  0.00000000  0.00000000  1
  F  F0  1  0.00000000  0.00000000  0.50000000  1
  F  F1  1  0.50000000  0.00000000  0.00000000  1
  F  F2  1  0.00000000  0.50000000  0.00000000  1
loop_
_geom_bond_atom_site_label_1
_geom_bond_atom_site_label_2
_geom_bond_distance
_geom_bond_site_symmetry_2
Ag0 F1 2.156655 1_455
Ag0 F1 2.156655 1_555
Ag0 F2 2.156655 1_555
Ag0 F0 2.156655 1_554
Ag0 F0 2.156655 1_555
Ag0 F2 2.156655 1_545
F0 K0 3.049970 1_455
F0 K0 3.049970 1_555
F0 K0 3.049970 1_545
F0 K0 3.049970 1_445
F1 K0 3.049970 1_555
F1 K0 3.049970 1_545
F1 K0 3.049970 1_544
F1 K0 3.049970 1_554
F2 K0 3.049970 1_455
F2 K0 3.049970 1_555
F2 K0 3.049970 1_454
F2 K0 3.049970 1_554
