# generated using pymatgen
data_Mn3VN3
_symmetry_space_group_name_H-M   'P 1'
_cell_length_a   6.87298802
_cell_length_b   6.82548822
_cell_length_c   3.90230900
_cell_angle_alpha   90.00000000
_cell_angle_beta   90.00000000
_cell_angle_gamma   119.80338613
_symmetry_Int_Tables_number   1
_chemical_formula_structural   Mn3VN3
_chemical_formula_sum   'Mn6 V2 N6'
_cell_volume   158.85051230
_cell_formula_units_Z   2
loop_
 _symmetry_equiv_pos_site_id
 _symmetry_equiv_pos_as_xyz
  1  'x, y, z'
loop_
 _atom_site_type_symbol
 _atom_site_label
 _atom_site_symmetry_multiplicity
 _atom_site_fract_x
 _atom_site_fract_y
 _atom_site_fract_z
 _atom_site_occupancy
  Mn  Mn0  1  0.84506700  0.68961800  0.25000000  1
  Mn  Mn1  1  0.84538300  0.15564800  0.25000000  1
  Mn  Mn2  1  0.30731900  0.15354300  0.25000000  1
  Mn  Mn3  1  0.15493300  0.31038200  0.75000000  1
  Mn  Mn4  1  0.15461700  0.84435200  0.75000000  1
  Mn  Mn5  1  0.69268100  0.84645700  0.75000000  1
  V  V0  1  0.66452700  0.33213800  0.75000000  1
  V  V1  1  0.33547300  0.66786200  0.25000000  1
  N  N0  1  0.82374400  0.64521200  0.75000000  1
  N  N1  1  0.82422300  0.17888700  0.75000000  1
  N  N2  1  0.35310000  0.17643900  0.75000000  1
  N  N3  1  0.17625600  0.35478800  0.25000000  1
  N  N4  1  0.17577700  0.82111300  0.25000000  1
  N  N5  1  0.64690000  0.82356100  0.25000000  1
loop_
_geom_bond_atom_site_label_1
_geom_bond_atom_site_label_2
_geom_bond_distance
_geom_bond_site_symmetry_2
Mn0 N0 1.968805 1_554
Mn0 N0 1.968805 1_555
Mn0 N5 1.982075 1_555
Mn0 N4 1.985956 1_655
Mn1 N1 1.968818 1_555
Mn1 N1 1.968818 1_554
Mn1 N5 1.981157 1_545
Mn1 N3 1.986544 1_655
Mn2 N2 1.970165 1_554
Mn2 N2 1.970165 1_555
Mn2 N4 1.981554 1_545
Mn2 N3 1.981959 1_555
Mn3 N3 1.968805 1_556
Mn3 N3 1.968805 1_555
Mn3 N2 1.982075 1_555
Mn3 N1 1.985956 1_455
Mn4 N4 1.968818 1_555
Mn4 N4 1.968818 1_556
Mn4 N2 1.981157 1_565
Mn4 N0 1.986544 1_455
Mn5 N5 1.970165 1_556
Mn5 N5 1.970165 1_555
Mn5 N1 1.981554 1_565
Mn5 N0 1.981959 1_555
N0 V0 1.854530 1_555
N1 V0 1.854752 1_555
N2 V0 1.857332 1_555
N3 V1 1.854530 1_555
N4 V1 1.854752 1_555
N5 V1 1.857332 1_555
