# generated using pymatgen
data_Ce3PBr3
_symmetry_space_group_name_H-M   'P 1'
_cell_length_a   10.32481910
_cell_length_b   10.33254388
_cell_length_c   10.35430594
_cell_angle_alpha   109.49540567
_cell_angle_beta   109.44721082
_cell_angle_gamma   109.40013616
_symmetry_Int_Tables_number   1
_chemical_formula_structural   Ce3PBr3
_chemical_formula_sum   'Ce12 P4 Br12'
_cell_volume   851.07545015
_cell_formula_units_Z   4
loop_
 _symmetry_equiv_pos_site_id
 _symmetry_equiv_pos_as_xyz
  1  'x, y, z'
loop_
 _atom_site_type_symbol
 _atom_site_label
 _atom_site_symmetry_multiplicity
 _atom_site_fract_x
 _atom_site_fract_y
 _atom_site_fract_z
 _atom_site_occupancy
  Ce  Ce0  1  0.47571984  0.48810700  0.23801656  1
  Ce  Ce1  1  0.74847695  0.23685436  0.26100455  1
  Ce  Ce2  1  0.74977711  0.01078283  0.48698415  1
  Ce  Ce3  1  0.23763045  0.47632650  0.48932582  1
  Ce  Ce4  1  0.26210694  0.74934461  0.23777843  1
  Ce  Ce5  1  0.02343771  0.26245360  0.01203685  1
  Ce  Ce6  1  0.01232835  0.02373806  0.26223041  1
  Ce  Ce7  1  0.49001748  0.75166365  0.01366950  1
  Ce  Ce8  1  0.48757282  0.23810665  0.47589853  1
  Ce  Ce9  1  0.01184376  0.48882306  0.74960760  1
  Ce  Ce10  1  0.26193494  0.01246777  0.02486959  1
  Ce  Ce11  1  0.23778871  0.26163545  0.74839775  1
  P  P0  1  0.24972780  0.25060185  0.25044092  1
  P  P1  1  0.49961017  0.99982025  0.25006452  1
  P  P2  1  -0.00084237  0.24956463  0.49956893  1
  P  P3  1  0.25022763  0.49981330  -0.00088721  1
  Br  Br0  1  0.25090127  0.75821999  0.74366601  1
  Br  Br1  1  0.51508279  0.50774053  0.75766647  1
  Br  Br2  1  0.98504109  0.74191404  0.99261141  1
  Br  Br3  1  0.74299023  0.24969156  0.75723300  1
  Br  Br4  1  0.99276594  0.98590437  0.74285047  1
  Br  Br5  1  0.25032156  0.99215074  0.50741062  1
  Br  Br6  1  0.75778158  0.51489411  0.50691676  1
  Br  Br7  1  0.50678460  0.24997284  0.99239407  1
  Br  Br8  1  0.75793027  0.74208213  0.24977938  1
  Br  Br9  1  0.74337550  0.99261789  0.98504639  1
  Br  Br10  1  0.99274978  0.50754758  0.25071175  1
  Br  Br11  1  0.50691607  0.75716063  0.51470877  1
loop_
_geom_bond_atom_site_label_1
_geom_bond_atom_site_label_2
_geom_bond_distance
_geom_bond_site_symmetry_2
Ce0 P0 2.844268 1_555
Ce0 P3 2.847104 1_555
Ce1 P1 2.837940 1_545
Ce1 P2 2.849279 1_655
Ce2 P2 2.841759 1_655
Ce2 P1 2.846617 1_545
Ce3 P2 2.840892 1_555
Ce3 P0 2.849931 1_555
Ce4 P1 2.843209 1_555
Ce4 P3 2.846909 1_555
Ce5 P0 2.849343 1_555
Ce5 P3 2.851031 1_555
Ce6 P0 2.844436 1_555
Ce6 P2 2.847495 1_555
Ce7 P1 2.838381 1_555
Ce7 P3 2.851961 1_555
Ce8 P0 2.844530 1_555
Ce8 P1 2.845934 1_545
Ce9 P2 2.849311 1_555
Ce9 P3 2.851221 1_556
Ce10 P1 2.842932 1_545
Ce10 P0 2.844553 1_555
Ce11 P2 2.842273 1_555
Ce11 P3 2.848838 1_556
Br0 Ce9 3.081444 1_555
Br0 Ce7 3.091475 1_556
Br0 Ce3 3.132513 1_555
Br0 Ce10 3.141167 1_566
Br1 Ce11 3.080580 1_555
Br1 Ce3 3.084135 1_555
Br1 Ce8 3.138727 1_555
Br1 Ce7 3.142681 1_556
Br2 Ce4 3.085756 1_656
Br2 Ce10 3.087269 1_666
Br2 Ce9 3.130289 1_655
Br2 Ce6 3.139709 1_666
Br3 Ce9 3.088110 1_655
Br3 Ce2 3.092518 1_555
Br3 Ce5 3.128841 1_656
Br3 Ce8 3.145917 1_555
Br4 Ce11 3.086422 1_665
Br4 Ce5 3.086940 1_666
Br4 Ce2 3.136282 1_565
Br4 Ce10 3.143310 1_666
Br5 Ce8 3.084710 1_565
Br5 Ce6 3.085675 1_565
Br5 Ce11 3.132594 1_565
Br5 Ce4 3.139637 1_555
Br6 Ce1 3.084996 1_555
Br6 Ce8 3.091174 1_555
Br6 Ce9 3.130511 1_655
Br6 Ce0 3.140196 1_555
Br7 Ce0 3.084776 1_556
Br7 Ce10 3.085727 1_556
Br7 Ce1 3.136219 1_556
Br7 Ce11 3.140726 1_555
Br8 Ce7 3.078744 1_555
Br8 Ce2 3.080448 1_565
Br8 Ce6 3.135454 1_665
Br8 Ce0 3.140391 1_555
Br9 Ce1 3.087764 1_566
Br9 Ce6 3.087980 1_666
Br9 Ce5 3.130313 1_666
Br9 Ce7 3.132299 1_556
Br10 Ce5 3.081918 1_655
Br10 Ce3 3.084664 1_655
Br10 Ce4 3.138408 1_655
Br10 Ce1 3.144335 1_555
Br11 Ce4 3.082398 1_555
Br11 Ce0 3.084602 1_555
Br11 Ce2 3.139013 1_565
Br11 Ce3 3.140715 1_555
