# generated using pymatgen
data_IrRhN5Cl7
_symmetry_space_group_name_H-M   'P 1'
_cell_length_a   7.81100400
_cell_length_b   10.73130100
_cell_length_c   14.86167421
_cell_angle_alpha   75.79007155
_cell_angle_beta   90.00000000
_cell_angle_gamma   90.00000000
_symmetry_Int_Tables_number   1
_chemical_formula_structural   IrRhN5Cl7
_chemical_formula_sum   'Ir4 Rh4 N20 Cl28'
_cell_volume   1207.62266523
_cell_formula_units_Z   4
loop_
 _symmetry_equiv_pos_site_id
 _symmetry_equiv_pos_as_xyz
  1  'x, y, z'
loop_
 _atom_site_type_symbol
 _atom_site_label
 _atom_site_symmetry_multiplicity
 _atom_site_fract_x
 _atom_site_fract_y
 _atom_site_fract_z
 _atom_site_occupancy
  Ir  Ir0  1  0.25000000  0.29911700  0.63825300  1
  Ir  Ir1  1  0.75000000  0.70088300  0.36174700  1
  Ir  Ir2  1  0.25000000  0.28669800  0.13806500  1
  Ir  Ir3  1  0.75000000  0.71330200  0.86193500  1
  Rh  Rh0  1  0.25000000  0.78169700  0.14026600  1
  Rh  Rh1  1  0.75000000  0.21830300  0.85973400  1
  Rh  Rh2  1  0.25000000  0.76743700  0.62109500  1
  Rh  Rh3  1  0.75000000  0.23256300  0.37890500  1
  N  N0  1  0.42321600  0.68992700  0.08432100  1
  N  N1  1  0.57678400  0.31007300  0.91567900  1
  N  N2  1  0.92321600  0.31007300  0.91567900  1
  N  N3  1  0.07678400  0.68992700  0.08432100  1
  N  N4  1  0.50043400  0.80636700  0.59816800  1
  N  N5  1  0.49956600  0.19363300  0.40183200  1
  N  N6  1  0.00043400  0.19363300  0.40183200  1
  N  N7  1  0.99956600  0.80636700  0.59816800  1
  N  N8  1  0.25000000  0.62901900  0.70783900  1
  N  N9  1  0.75000000  0.37098100  0.29216100  1
  N  N10  1  0.25000000  0.71292100  0.25622600  1
  N  N11  1  0.75000000  0.28707900  0.74377400  1
  N  N12  1  0.42259300  0.92371400  0.12603800  1
  N  N13  1  0.57740700  0.07628600  0.87396200  1
  N  N14  1  0.92259300  0.07628600  0.87396200  1
  N  N15  1  0.07740700  0.92371400  0.12603800  1
  N  N16  1  0.25000000  0.70896200  0.50476200  1
  N  N17  1  0.75000000  0.29103800  0.49523800  1
  N  N18  1  0.25000000  0.91083000  0.68825600  1
  N  N19  1  0.75000000  0.08917000  0.31174400  1
  Cl  Cl0  1  0.25000000  0.90432800  0.96521200  1
  Cl  Cl1  1  0.75000000  0.09567200  0.03478800  1
  Cl  Cl2  1  0.25000000  0.47399500  0.02070600  1
  Cl  Cl3  1  0.75000000  0.52600500  0.97929400  1
  Cl  Cl4  1  0.25000000  0.97624000  0.49184600  1
  Cl  Cl5  1  0.75000000  0.02376000  0.50815400  1
  Cl  Cl6  1  0.25000000  0.25488800  0.79865400  1
  Cl  Cl7  1  0.75000000  0.74511200  0.20134600  1
  Cl  Cl8  1  0.95702000  0.28679700  0.13967900  1
  Cl  Cl9  1  0.04298000  0.71320300  0.86032100  1
  Cl  Cl10  1  0.45702000  0.71320300  0.86032100  1
  Cl  Cl11  1  0.54298000  0.28679700  0.13967900  1
  Cl  Cl12  1  0.25000000  0.34411000  0.47961000  1
  Cl  Cl13  1  0.75000000  0.65589000  0.52039000  1
  Cl  Cl14  1  0.25000000  0.10191700  0.25457400  1
  Cl  Cl15  1  0.75000000  0.89808300  0.74542600  1
  Cl  Cl16  1  0.25000000  0.16365500  0.03163600  1
  Cl  Cl17  1  0.75000000  0.83634500  0.96836400  1
  Cl  Cl18  1  0.96044700  0.85007100  0.35627300  1
  Cl  Cl19  1  0.03955300  0.14992900  0.64372700  1
  Cl  Cl20  1  0.46044700  0.14992900  0.64372700  1
  Cl  Cl21  1  0.53955300  0.85007100  0.35627300  1
  Cl  Cl22  1  0.95488200  0.54403000  0.36448500  1
  Cl  Cl23  1  0.04511800  0.45597000  0.63551500  1
  Cl  Cl24  1  0.45488200  0.45597000  0.63551500  1
  Cl  Cl25  1  0.54511800  0.54403000  0.36448500  1
  Cl  Cl26  1  0.25000000  0.41117400  0.24433300  1
  Cl  Cl27  1  0.75000000  0.58882600  0.75566700  1
loop_
_geom_bond_atom_site_label_1
_geom_bond_atom_site_label_2
_geom_bond_distance
_geom_bond_site_symmetry_2
N0 Rh0 1.973251 1_555
N1 Rh1 1.973251 1_555
N2 Rh1 1.973251 1_555
N3 Rh0 1.973251 1_555
N4 Rh2 2.011773 1_555
N5 Rh3 2.011773 1_555
N6 Rh3 2.011773 1_455
N7 Rh2 2.011773 1_655
N8 Rh2 1.711207 1_555
N9 Rh3 1.711207 1_555
N10 Rh0 1.700070 1_555
N11 Rh1 1.700070 1_555
N12 Rh0 2.006638 1_555
N13 Rh1 2.006638 1_555
N14 Rh1 2.006638 1_555
N15 Rh0 2.006638 1_555
N16 Rh2 1.978766 1_555
N17 Rh3 1.978766 1_555
N18 Rh2 2.029333 1_555
N19 Rh3 2.029333 1_555
Cl0 Rh0 2.611374 1_556
Cl1 Rh1 2.611374 1_554
Cl2 Ir2 2.315346 1_555
Cl3 Ir3 2.315346 1_555
Cl4 Rh2 2.568549 1_555
Cl5 Rh3 2.568549 1_555
Cl6 Ir0 2.313531 1_555
Cl7 Ir1 2.313531 1_555
Cl8 Ir2 2.288597 1_655
Cl9 Ir3 2.288597 1_455
Cl10 Ir3 2.288597 1_555
Cl11 Ir2 2.288597 1_555
Cl12 Ir0 2.287574 1_555
Cl13 Ir1 2.287574 1_555
Cl14 Ir2 2.290094 1_555
Cl15 Ir3 2.290094 1_555
Cl16 Ir2 2.295792 1_555
Cl17 Ir3 2.295792 1_555
Cl18 Ir1 2.282083 1_555
Cl19 Ir0 2.282083 1_555
Cl20 Ir0 2.282083 1_555
Cl21 Ir1 2.282083 1_555
Cl22 Ir1 2.315682 1_555
Cl23 Ir0 2.315682 1_555
Cl24 Ir0 2.315682 1_555
Cl25 Ir1 2.315682 1_555
Cl26 Ir2 2.305280 1_555
Cl27 Ir3 2.305280 1_555
