# generated using pymatgen
data_SrMg14Nb
_symmetry_space_group_name_H-M   'P 1'
_cell_length_a   6.55652149
_cell_length_b   6.55652093
_cell_length_c   10.23390765
_cell_angle_alpha   90.00000000
_cell_angle_beta   90.00000000
_cell_angle_gamma   120.00000276
_symmetry_Int_Tables_number   1
_chemical_formula_structural   SrMg14Nb
_chemical_formula_sum   'Sr1 Mg14 Nb1'
_cell_volume   380.99480532
_cell_formula_units_Z   1
loop_
 _symmetry_equiv_pos_site_id
 _symmetry_equiv_pos_as_xyz
  1  'x, y, z'
loop_
 _atom_site_type_symbol
 _atom_site_label
 _atom_site_symmetry_multiplicity
 _atom_site_fract_x
 _atom_site_fract_y
 _atom_site_fract_z
 _atom_site_occupancy
  Sr  Sr0  1  0.16666700  0.33333300  0.12500000  1
  Mg  Mg0  1  0.17691431  0.83845665  0.12500000  1
  Mg  Mg1  1  0.16425711  0.83212806  0.62500000  1
  Mg  Mg2  1  0.66154335  0.32308569  0.12500000  1
  Mg  Mg3  1  0.66787194  0.33574289  0.62500000  1
  Mg  Mg4  1  0.66154335  0.83845665  0.12500000  1
  Mg  Mg5  1  0.66787194  0.83212806  0.62500000  1
  Mg  Mg6  1  0.33290786  0.16709214  0.39234958  1
  Mg  Mg7  1  0.33290786  0.16709214  0.85765042  1
  Mg  Mg8  1  0.33290786  0.66581673  0.39234958  1
  Mg  Mg9  1  0.33290786  0.66581673  0.85765042  1
  Mg  Mg10  1  0.83418327  0.16709214  0.39234958  1
  Mg  Mg11  1  0.83418327  0.16709214  0.85765042  1
  Mg  Mg12  1  0.83333300  0.66666700  0.36904388  1
  Mg  Mg13  1  0.83333300  0.66666700  0.88095612  1
  Nb  Nb0  1  0.16666700  0.33333300  0.62500000  1
loop_
_geom_bond_atom_site_label_1
_geom_bond_atom_site_label_2
_geom_bond_distance
_geom_bond_site_symmetry_2
Mg0 Mg12 3.169165 1_455
Mg0 Mg13 3.169165 1_454
Mg0 Mg2 3.177480 1_565
Mg0 Mg4 3.177481 1_555
Mg0 Sr0 3.278777 1_555
Mg0 Sr0 3.278777 1_565
Mg0 Mg8 3.312230 1_555
Mg0 Mg9 3.312230 1_554
Mg0 Mg6 3.312236 1_565
Mg0 Mg7 3.312236 1_564
Mg0 Mg2 3.379040 1_455
Mg0 Mg4 3.379041 1_455
Mg1 Mg8 3.047339 1_555
Mg1 Mg9 3.047339 1_555
Mg1 Mg7 3.047346 1_565
Mg1 Mg6 3.047346 1_565
Mg1 Mg12 3.223686 1_455
Mg1 Mg13 3.223686 1_455
Mg1 Mg3 3.254560 1_455
Mg1 Mg5 3.254560 1_455
Mg1 Nb0 3.278289 1_565
Mg1 Nb0 3.278289 1_555
Mg1 Mg3 3.301961 1_565
Mg1 Mg5 3.301961 1_555
Mg2 Mg4 3.177480 1_545
Mg2 Sr0 3.278777 1_655
Mg2 Sr0 3.278777 1_555
Mg2 Mg6 3.312237 1_555
Mg2 Mg7 3.312237 1_554
Mg2 Mg4 3.379040 1_555
Mg3 Mg6 3.047346 1_555
Mg3 Mg7 3.047346 1_555
Mg3 Mg5 3.254560 1_555
Mg3 Nb0 3.278289 1_555
Mg3 Nb0 3.278289 1_655
Mg3 Mg5 3.301961 1_545
Mg4 Sr0 3.278777 1_555
Mg4 Sr0 3.278777 1_665
Mg4 Mg8 3.312236 1_555
Mg4 Mg9 3.312236 1_554
Mg5 Mg8 3.047347 1_555
Mg5 Mg9 3.047347 1_555
Mg5 Nb0 3.278289 1_665
Mg5 Nb0 3.278289 1_555
Mg6 Nb0 3.038559 1_555
Mg6 Mg8 3.269898 1_555
Mg6 Mg8 3.286623 1_545
Mg6 Sr0 3.324141 1_555
Mg7 Nb0 3.038559 1_555
Mg7 Mg9 3.269898 1_555
Mg7 Mg9 3.286623 1_545
Mg7 Sr0 3.324141 1_556
Mg8 Nb0 3.038566 1_555
Mg8 Sr0 3.324148 1_555
Mg9 Nb0 3.038566 1_555
Mg9 Sr0 3.324148 1_556
Mg10 Nb0 3.038567 1_655
Mg10 Mg3 3.047339 1_555
Mg10 Mg5 3.047346 1_545
Mg10 Mg8 3.269898 1_655
Mg10 Mg6 3.269898 1_655
Mg10 Mg8 3.286623 1_545
Mg10 Mg6 3.286623 1_555
Mg10 Mg12 3.286929 1_555
Mg10 Mg12 3.286929 1_545
Mg10 Mg2 3.312230 1_555
Mg10 Mg4 3.312236 1_545
Mg10 Sr0 3.324148 1_655
Mg11 Nb0 3.038567 1_655
Mg11 Mg3 3.047339 1_555
Mg11 Mg5 3.047346 1_545
Mg11 Mg9 3.269898 1_655
Mg11 Mg7 3.269898 1_655
Mg11 Mg9 3.286623 1_545
Mg11 Mg7 3.286623 1_555
Mg11 Mg13 3.286929 1_555
Mg11 Mg13 3.286929 1_545
Mg11 Mg2 3.312230 1_556
Mg11 Mg4 3.312236 1_546
Mg11 Sr0 3.324148 1_656
Mg12 Mg4 3.169158 1_555
Mg12 Mg2 3.169165 1_555
Mg12 Mg5 3.223680 1_555
Mg12 Mg3 3.223686 1_555
Mg12 Mg6 3.286929 1_665
Mg12 Mg6 3.286929 1_555
Mg12 Mg8 3.286929 1_655
Mg12 Mg8 3.286929 1_555
Mg13 Mg4 3.169158 1_556
Mg13 Mg2 3.169165 1_556
Mg13 Mg5 3.223680 1_555
Mg13 Mg3 3.223686 1_555
Mg13 Mg7 3.286929 1_665
Mg13 Mg7 3.286929 1_555
Mg13 Mg9 3.286929 1_655
Mg13 Mg9 3.286929 1_555
