# generated using pymatgen
data_BaMg6Ti
_symmetry_space_group_name_H-M   'P 1'
_cell_length_a   5.26989000
_cell_length_b   7.03991100
_cell_length_c   11.41420400
_cell_angle_alpha   90.00000000
_cell_angle_beta   90.00000000
_cell_angle_gamma   90.00000000
_symmetry_Int_Tables_number   1
_chemical_formula_structural   BaMg6Ti
_chemical_formula_sum   'Ba2 Mg12 Ti2'
_cell_volume   423.46190711
_cell_formula_units_Z   2
loop_
 _symmetry_equiv_pos_site_id
 _symmetry_equiv_pos_as_xyz
  1  'x, y, z'
loop_
 _atom_site_type_symbol
 _atom_site_label
 _atom_site_symmetry_multiplicity
 _atom_site_fract_x
 _atom_site_fract_y
 _atom_site_fract_z
 _atom_site_occupancy
  Ba  Ba0  1  0.50000000  0.50000000  0.83529400  1
  Ba  Ba1  1  0.50000000  0.00000000  0.33529400  1
  Mg  Mg0  1  0.50000000  0.24995100  0.08379700  1
  Mg  Mg1  1  0.50000000  0.75004900  0.08379700  1
  Mg  Mg2  1  0.00000000  0.22012600  0.91507000  1
  Mg  Mg3  1  0.00000000  0.77987400  0.91507000  1
  Mg  Mg4  1  0.00000000  0.50000000  0.17173100  1
  Mg  Mg5  1  0.00000000  0.50000000  0.64672200  1
  Mg  Mg6  1  0.50000000  0.74995100  0.58379700  1
  Mg  Mg7  1  0.50000000  0.25004900  0.58379700  1
  Mg  Mg8  1  0.00000000  0.72012600  0.41507000  1
  Mg  Mg9  1  0.00000000  0.27987400  0.41507000  1
  Mg  Mg10  1  0.00000000  0.00000000  0.67173100  1
  Mg  Mg11  1  0.00000000  0.00000000  0.14672200  1
  Ti  Ti0  1  0.50000000  0.50000000  0.34852400  1
  Ti  Ti1  1  0.50000000  0.00000000  0.84852400  1
loop_
_geom_bond_atom_site_label_1
_geom_bond_atom_site_label_2
_geom_bond_distance
_geom_bond_site_symmetry_2
Ba0 Mg1 3.338303 1_556
Ba0 Mg0 3.338303 1_556
Ba0 Mg6 3.367027 1_555
Ba0 Mg7 3.367027 1_555
Ba0 Mg5 3.402317 1_555
Ba0 Mg5 3.402317 1_655
Ba0 Mg3 3.413814 1_655
Ba0 Mg3 3.413814 1_555
Ba0 Mg2 3.413814 1_655
Ba0 Mg2 3.413814 1_555
Ba0 Ti1 3.523193 1_555
Ba0 Ti1 3.523193 1_565
Ba1 Mg7 3.338303 1_555
Ba1 Mg6 3.338303 1_545
Ba1 Mg0 3.367027 1_555
Ba1 Mg1 3.367027 1_545
Ba1 Mg11 3.402317 1_555
Ba1 Mg11 3.402317 1_655
Ba1 Mg9 3.413814 1_555
Ba1 Mg9 3.413814 1_655
Ba1 Mg8 3.413814 1_645
Ba1 Mg8 3.413814 1_545
Ba1 Ti0 3.523193 1_545
Ba1 Ti0 3.523193 1_555
Mg0 Ti1 3.210603 1_554
Mg0 Mg11 3.248863 1_555
Mg0 Mg11 3.248863 1_655
Mg0 Mg2 3.270482 1_654
Mg0 Mg2 3.270482 1_554
Mg0 Mg4 3.324015 1_655
Mg0 Mg4 3.324015 1_555
Mg0 Ti0 3.497012 1_555
Mg1 Ti1 3.210603 1_564
Mg1 Mg11 3.248863 1_565
Mg1 Mg11 3.248863 1_665
Mg1 Mg3 3.270482 1_554
Mg1 Mg3 3.270482 1_654
Mg1 Mg4 3.324015 1_655
Mg1 Mg4 3.324015 1_555
Mg1 Ti0 3.497012 1_555
Mg2 Mg3 3.099335 1_545
Mg2 Ti1 3.149818 1_455
Mg2 Ti1 3.149818 1_555
Mg3 Ti1 3.149818 1_565
Mg3 Ti1 3.149818 1_465
Mg4 Mg8 3.180580 1_555
Mg4 Mg9 3.180580 1_555
Mg4 Ti0 3.318895 1_455
Mg4 Ti0 3.318895 1_555
Mg5 Mg8 3.064777 1_555
Mg5 Mg9 3.064777 1_555
Mg5 Mg6 3.248863 1_455
Mg5 Mg6 3.248863 1_555
Mg5 Mg7 3.248863 1_555
Mg5 Mg7 3.248863 1_455
Mg6 Ti0 3.210603 1_555
Mg6 Mg8 3.270482 1_655
Mg6 Mg8 3.270482 1_555
Mg6 Ti1 3.497012 1_565
Mg7 Ti0 3.210603 1_555
Mg7 Mg9 3.270482 1_655
Mg7 Mg9 3.270482 1_555
Mg7 Ti1 3.497012 1_555
Mg8 Mg9 3.099335 1_555
Mg8 Ti0 3.149818 1_555
Mg8 Ti0 3.149818 1_455
Mg9 Ti0 3.149818 1_555
Mg9 Ti0 3.149818 1_455
Mg10 Mg2 3.180580 1_555
Mg10 Mg3 3.180580 1_545
Mg10 Ti1 3.318895 1_455
Mg10 Ti1 3.318895 1_555
Mg10 Mg7 3.324015 1_455
Mg10 Mg7 3.324015 1_555
Mg10 Mg6 3.324015 1_545
Mg10 Mg6 3.324015 1_445
Mg11 Mg2 3.064777 1_554
Mg11 Mg3 3.064777 1_544
