# generated using pymatgen
data_Li4MnCo2O7
_symmetry_space_group_name_H-M   'P 1'
_cell_length_a   6.58702609
_cell_length_b   6.58702609
_cell_length_c   14.51064752
_cell_angle_alpha   69.49622315
_cell_angle_beta   69.49622315
_cell_angle_gamma   25.51602152
_symmetry_Int_Tables_number   1
_chemical_formula_structural   Li4MnCo2O7
_chemical_formula_sum   'Li8 Mn2 Co4 O14'
_cell_volume   253.11558248
_cell_formula_units_Z   2
loop_
 _symmetry_equiv_pos_site_id
 _symmetry_equiv_pos_as_xyz
  1  'x, y, z'
loop_
 _atom_site_type_symbol
 _atom_site_label
 _atom_site_symmetry_multiplicity
 _atom_site_fract_x
 _atom_site_fract_y
 _atom_site_fract_z
 _atom_site_occupancy
  Li  Li0  1  0.64022200  0.64022200  0.78999400  1
  Li  Li1  1  0.20612700  0.20612700  0.93601100  1
  Li  Li2  1  0.79387300  0.79387300  0.06398900  1
  Li  Li3  1  0.07164400  0.07164400  0.64548100  1
  Li  Li4  1  0.50000000  0.50000000  0.50000000  1
  Li  Li5  1  0.35977800  0.35977800  0.21000600  1
  Li  Li6  1  0.92835600  0.92835600  0.35451900  1
  Li  Li7  1  0.50000000  0.50000000  0.00000000  1
  Mn  Mn0  1  0.35668800  0.35668800  0.71645700  1
  Mn  Mn1  1  0.64331200  0.64331200  0.28354300  1
  Co  Co0  1  0.93845300  0.93845300  0.86633800  1
  Co  Co1  1  0.06154700  0.06154700  0.13366200  1
  Co  Co2  1  0.21472300  0.21472300  0.43116200  1
  Co  Co3  1  0.78527700  0.78527700  0.56883800  1
  O  O0  1  0.79507500  0.79507500  0.80687300  1
  O  O1  1  0.36020100  0.36020100  0.95427700  1
  O  O2  1  0.93331900  0.93331900  0.11240400  1
  O  O3  1  0.22666600  0.22666600  0.67400500  1
  O  O4  1  0.64615900  0.64615900  0.53255400  1
  O  O5  1  0.51556500  0.51556500  0.24592800  1
  O  O6  1  0.08043900  0.08043900  0.38026100  1
  O  O7  1  0.48443500  0.48443500  0.75407200  1
  O  O8  1  0.06668100  0.06668100  0.88759600  1
  O  O9  1  0.63979900  0.63979900  0.04572300  1
  O  O10  1  0.91956100  0.91956100  0.61973900  1
  O  O11  1  0.35384100  0.35384100  0.46744600  1
  O  O12  1  0.20492500  0.20492500  0.19312700  1
  O  O13  1  0.77333400  0.77333400  0.32599500  1
loop_
_geom_bond_atom_site_label_1
_geom_bond_atom_site_label_2
_geom_bond_distance
_geom_bond_site_symmetry_2
Li0 O8 2.013311 1_655
Li0 O8 2.013311 1_565
Li0 O0 2.090174 1_555
Li0 O3 2.199918 1_655
Li0 O3 2.199918 1_565
Li0 O7 2.242285 1_555
Li1 O1 2.089550 1_555
Li1 O9 2.098142 1_546
Li1 O9 2.098142 1_456
Li1 O8 2.146604 1_555
Li1 O0 2.322777 1_545
Li1 O0 2.322777 1_455
Li2 O9 2.089550 1_555
Li2 O1 2.098142 1_654
Li2 O1 2.098142 1_564
Li2 O2 2.146604 1_555
Li2 O12 2.322777 1_655
Li2 O12 2.322777 1_565
Li3 O10 2.117133 1_445
Li3 O7 2.141555 1_455
Li3 O7 2.141555 1_545
Li3 O4 2.142641 1_545
Li3 O4 2.142641 1_455
Li3 O3 2.175071 1_555
Li4 O4 2.094540 1_555
Li4 O11 2.094540 1_555
Li4 O10 2.216575 1_455
Li4 O10 2.216575 1_545
Li4 O6 2.216575 1_565
Li4 O6 2.216575 1_655
Li5 O2 2.013311 1_455
Li5 O2 2.013311 1_545
Li5 O12 2.090174 1_555
Li5 O13 2.199918 1_455
Li5 O13 2.199918 1_545
Li5 O5 2.242285 1_555
Li6 O6 2.117133 1_665
Li6 O5 2.141555 1_565
Li6 O5 2.141555 1_655
Li6 O11 2.142641 1_655
Li6 O11 2.142641 1_565
Li6 O13 2.175071 1_555
Li7 O2 2.122882 1_545
Li7 O2 2.122882 1_455
Li7 O8 2.122882 1_564
Li7 O8 2.122882 1_654
Li7 O9 2.126667 1_555
Li7 O1 2.126667 1_554
Mn0 O7 1.906725 1_555
Mn0 O0 1.928208 1_545
Mn0 O0 1.928208 1_455
Mn0 O3 1.977282 1_555
Mn0 O10 1.980879 1_455
Mn0 O10 1.980879 1_545
Mn1 O5 1.906725 1_555
Mn1 O12 1.928208 1_655
Mn1 O12 1.928208 1_565
Mn1 O13 1.977282 1_555
Mn1 O6 1.980879 1_565
Mn1 O6 1.980879 1_655
Co0 O8 1.781770 1_665
Co0 O1 1.957973 1_565
Co0 O1 1.957973 1_655
Co0 O7 2.104170 1_655
Co0 O7 2.104170 1_565
Co0 O0 2.297861 1_555
Co1 O2 1.781770 1_445
Co1 O9 1.957973 1_545
Co1 O9 1.957973 1_455
Co1 O5 2.104170 1_455
Co1 O5 2.104170 1_545
Co1 O12 2.297861 1_555
Co2 O4 2.031185 1_545
Co2 O4 2.031185 1_455
Co2 O11 2.036749 1_555
Co2 O13 2.046080 1_455
Co2 O13 2.046080 1_545
Co2 O6 2.106623 1_555
Co3 O11 2.031185 1_655
Co3 O11 2.031185 1_565
Co3 O4 2.036749 1_555
Co3 O3 2.046080 1_565
Co3 O3 2.046080 1_655
Co3 O10 2.106623 1_555
