# generated using pymatgen
data_MgZn
_symmetry_space_group_name_H-M   'P 1'
_cell_length_a   10.67572496
_cell_length_b   10.67572496
_cell_length_c   9.66331301
_cell_angle_alpha   71.73621894
_cell_angle_beta   71.73621894
_cell_angle_gamma   32.89989488
_symmetry_Int_Tables_number   1
_chemical_formula_structural   MgZn
_chemical_formula_sum   'Mg16 Zn16'
_cell_volume   565.37789842
_cell_formula_units_Z   16
loop_
 _symmetry_equiv_pos_site_id
 _symmetry_equiv_pos_as_xyz
  1  'x, y, z'
loop_
 _atom_site_type_symbol
 _atom_site_label
 _atom_site_symmetry_multiplicity
 _atom_site_fract_x
 _atom_site_fract_y
 _atom_site_fract_z
 _atom_site_occupancy
  Mg  Mg0_0  1  0.44612319  0.44612319  0.41103248  1
  Mg  Mg0_1  1  0.44612319  0.44612319  0.91103247  1
  Mg  Mg0_2  1  0.44612319  0.94612319  0.41103248  1
  Mg  Mg0_3  1  0.44612319  0.94612319  0.91103247  1
  Mg  Mg0_4  1  0.94612319  0.44612319  0.41103248  1
  Mg  Mg0_5  1  0.94612319  0.44612319  0.91103247  1
  Mg  Mg0_6  1  0.94612319  0.94612319  0.41103248  1
  Mg  Mg0_7  1  0.94612319  0.94612319  0.91103247  1
  Mg  Mg1_0  1  0.05387681  0.05387681  0.08896752  1
  Mg  Mg1_1  1  0.05387681  0.05387681  0.58896753  1
  Mg  Mg1_2  1  0.05387681  0.55387681  0.08896752  1
  Mg  Mg1_3  1  0.05387681  0.55387681  0.58896753  1
  Mg  Mg1_4  1  0.55387681  0.05387681  0.08896752  1
  Mg  Mg1_5  1  0.55387681  0.05387681  0.58896753  1
  Mg  Mg1_6  1  0.55387681  0.55387681  0.08896753  1
  Mg  Mg1_7  1  0.55387681  0.55387681  0.58896752  1
  Zn  Zn0_0  1  0.32327375  0.32327375  0.32912655  1
  Zn  Zn0_1  1  0.32327375  0.32327375  0.82912655  1
  Zn  Zn0_2  1  0.32327375  0.82327375  0.32912655  1
  Zn  Zn0_3  1  0.32327375  0.82327376  0.82912655  1
  Zn  Zn0_4  1  0.82327375  0.32327375  0.32912655  1
  Zn  Zn0_5  1  0.82327376  0.32327375  0.82912655  1
  Zn  Zn0_6  1  0.82327375  0.82327375  0.32912655  1
  Zn  Zn0_7  1  0.82327375  0.82327375  0.82912655  1
  Zn  Zn1_0  1  0.17672625  0.17672625  0.17087345  1
  Zn  Zn1_1  1  0.17672625  0.17672625  0.67087345  1
  Zn  Zn1_2  1  0.17672624  0.67672625  0.17087345  1
  Zn  Zn1_3  1  0.17672624  0.67672625  0.67087345  1
  Zn  Zn1_4  1  0.67672625  0.17672625  0.17087345  1
  Zn  Zn1_5  1  0.67672625  0.17672624  0.67087345  1
  Zn  Zn1_6  1  0.67672625  0.67672625  0.17087345  1
  Zn  Zn1_7  1  0.67672625  0.67672625  0.67087345  1
loop_
_geom_bond_atom_site_label_1
_geom_bond_atom_site_label_2
_geom_bond_distance
_geom_bond_site_symmetry_2
Mg0_0 Zn1_3 2.845266 1_555
Mg0_0 Zn1_5 2.845266 1_555
Mg0_0 Zn0_0 2.873356 1_555
Mg0_0 Zn0_2 2.888570 1_555
Mg0_0 Zn0_4 2.888570 1_555
Mg0_0 Zn1_2 2.903586 1_555
Mg0_0 Zn1_4 2.903586 1_555
Mg0_0 Mg0_6 3.023126 1_455
Mg0_0 Mg0_6 3.023126 1_545
Mg0_0 Mg1_6 3.172803 1_555
Mg0_0 Mg1_7 3.210098 1_555
Mg0_0 Mg1_5 3.233075 1_555
Mg0_0 Mg1_3 3.233075 1_555
Mg0_1 Zn1_4 2.845266 1_556
Mg0_1 Zn1_2 2.845266 1_556
Mg0_1 Zn0_1 2.873356 1_555
Mg0_1 Zn0_3 2.888570 1_555
Mg0_1 Zn0_5 2.888570 1_555
Mg0_1 Zn1_5 2.903586 1_555
Mg0_1 Zn1_3 2.903586 1_555
Mg0_1 Mg0_7 3.023126 1_455
Mg0_1 Mg0_7 3.023126 1_545
Mg0_1 Mg1_7 3.172803 1_555
Mg0_1 Mg1_6 3.210098 1_556
Mg0_1 Mg1_4 3.233075 1_556
Mg0_1 Mg1_2 3.233075 1_556
Mg0_2 Zn1_1 2.845266 1_565
Mg0_2 Zn1_7 2.845266 1_555
Mg0_2 Zn0_2 2.873356 1_555
Mg0_2 Zn0_6 2.888570 1_555
Mg0_2 Zn0_0 2.888570 1_565
Mg0_2 Zn1_6 2.903586 1_555
Mg0_2 Zn1_0 2.903586 1_565
Mg0_2 Mg0_4 3.023126 1_555
Mg0_2 Mg0_4 3.023126 1_465
Mg0_2 Mg1_4 3.172803 1_565
Mg0_2 Mg1_5 3.210098 1_565
Mg0_2 Mg1_7 3.233075 1_555
Mg0_2 Mg1_1 3.233075 1_565
Mg0_3 Zn1_0 2.845266 1_566
Mg0_3 Zn1_6 2.845266 1_556
Mg0_3 Zn0_3 2.873356 1_555
Mg0_3 Zn0_1 2.888570 1_565
Mg0_3 Zn0_7 2.888570 1_555
Mg0_3 Zn1_1 2.903586 1_565
Mg0_3 Zn1_7 2.903586 1_555
Mg0_3 Mg0_5 3.023126 1_465
Mg0_3 Mg0_5 3.023126 1_555
Mg0_3 Mg1_5 3.172803 1_565
Mg0_3 Mg1_4 3.210098 1_566
Mg0_3 Mg1_0 3.233075 1_566
Mg0_3 Mg1_6 3.233075 1_556
Mg0_4 Zn1_1 2.845266 1_655
Mg0_4 Zn1_7 2.845266 1_555
Mg0_4 Zn0_4 2.873356 1_555
Mg0_4 Zn0_0 2.888570 1_655
Mg0_4 Zn0_6 2.888570 1_555
Mg0_4 Zn1_0 2.903586 1_655
Mg0_4 Zn1_6 2.903586 1_555
Mg0_4 Mg1_2 3.172803 1_655
Mg0_4 Mg1_3 3.210098 1_655
Mg0_4 Mg1_1 3.233075 1_655
Mg0_4 Mg1_7 3.233075 1_555
Mg0_5 Zn1_0 2.845266 1_656
Mg0_5 Zn1_6 2.845266 1_556
Mg0_5 Zn0_5 2.873356 1_555
Mg0_5 Zn0_1 2.888570 1_655
Mg0_5 Zn0_7 2.888570 1_555
Mg0_5 Zn1_1 2.903586 1_655
Mg0_5 Zn1_7 2.903586 1_555
Mg0_5 Mg1_3 3.172803 1_655
Mg0_5 Mg1_2 3.210098 1_656
Mg0_5 Mg1_6 3.233075 1_556
Mg0_5 Mg1_0 3.233075 1_656
Mg0_6 Zn1_3 2.845266 1_655
Mg0_6 Zn1_5 2.845266 1_565
Mg0_6 Zn0_6 2.873356 1_555
Mg0_6 Zn0_2 2.888570 1_655
Mg0_6 Zn0_4 2.888570 1_565
Mg0_6 Zn1_2 2.903586 1_655
Mg0_6 Zn1_4 2.903586 1_565
Mg0_6 Mg1_0 3.172803 1_665
Mg0_6 Mg1_1 3.210098 1_665
Mg0_6 Mg1_3 3.233075 1_655
Mg0_6 Mg1_5 3.233075 1_565
Mg0_7 Zn1_2 2.845266 1_656
Mg0_7 Zn1_4 2.845266 1_566
Mg0_7 Zn0_7 2.873356 1_555
Mg0_7 Zn0_5 2.888570 1_565
Mg0_7 Zn0_3 2.888570 1_655
Mg0_7 Zn1_5 2.903586 1_565
Mg0_7 Zn1_3 2.903586 1_655
Mg0_7 Mg1_1 3.172803 1_665
Mg0_7 Mg1_0 3.210098 1_666
Mg0_7 Mg1_4 3.233075 1_566
Mg0_7 Mg1_2 3.233075 1_656
Mg1_0 Zn0_3 2.845266 1_544
Mg1_0 Zn0_5 2.845266 1_454
Mg1_0 Zn1_0 2.873356 1_555
Mg1_0 Zn1_4 2.888570 1_455
Mg1_0 Zn1_2 2.888570 1_545
Mg1_0 Zn0_2 2.903586 1_545
Mg1_0 Zn0_4 2.903586 1_455
Mg1_0 Mg1_6 3.023126 1_545
Mg1_0 Mg1_6 3.023126 1_455
Mg1_1 Zn0_4 2.845266 1_455
Mg1_1 Zn0_2 2.845266 1_545
Mg1_1 Zn1_1 2.873356 1_555
Mg1_1 Zn1_5 2.888570 1_455
Mg1_1 Zn1_3 2.888570 1_545
Mg1_1 Zn0_3 2.903586 1_545
Mg1_1 Zn0_5 2.903586 1_455
Mg1_1 Mg1_7 3.023126 1_545
Mg1_1 Mg1_7 3.023126 1_455
Mg1_2 Zn0_1 2.845266 1_554
Mg1_2 Zn0_7 2.845266 1_454
Mg1_2 Zn1_2 2.873356 1_555
Mg1_2 Zn1_6 2.888570 1_455
Mg1_2 Zn1_0 2.888570 1_555
Mg1_2 Zn0_6 2.903586 1_455
Mg1_2 Zn0_0 2.903586 1_555
Mg1_2 Mg1_4 3.023126 1_555
Mg1_2 Mg1_4 3.023126 1_465
Mg1_3 Zn0_6 2.845266 1_455
Mg1_3 Zn0_0 2.845266 1_555
Mg1_3 Zn1_3 2.873356 1_555
Mg1_3 Zn1_1 2.888570 1_555
Mg1_3 Zn1_7 2.888570 1_455
Mg1_3 Zn0_7 2.903586 1_455
Mg1_3 Zn0_1 2.903586 1_555
Mg1_3 Mg1_5 3.023126 1_465
Mg1_3 Mg1_5 3.023126 1_555
Mg1_4 Zn0_1 2.845266 1_554
Mg1_4 Zn0_7 2.845266 1_544
Mg1_4 Zn1_4 2.873356 1_555
Mg1_4 Zn1_6 2.888570 1_545
Mg1_4 Zn1_0 2.888570 1_555
Mg1_4 Zn0_6 2.903586 1_545
Mg1_4 Zn0_0 2.903586 1_555
Mg1_5 Zn0_6 2.845266 1_545
Mg1_5 Zn0_0 2.845266 1_555
Mg1_5 Zn1_5 2.873356 1_555
Mg1_5 Zn1_1 2.888570 1_555
Mg1_5 Zn1_7 2.888570 1_545
Mg1_5 Zn0_7 2.903586 1_545
Mg1_5 Zn0_1 2.903586 1_555
Mg1_6 Zn0_5 2.845266 1_554
Mg1_6 Zn0_3 2.845266 1_554
Mg1_6 Zn1_6 2.873356 1_555
Mg1_6 Zn1_4 2.888570 1_555
Mg1_6 Zn1_2 2.888570 1_555
Mg1_6 Zn0_2 2.903586 1_555
Mg1_6 Zn0_4 2.903586 1_555
Mg1_7 Zn0_4 2.845266 1_555
Mg1_7 Zn0_2 2.845266 1_555
Mg1_7 Zn1_7 2.873356 1_555
Mg1_7 Zn1_5 2.888570 1_555
Mg1_7 Zn1_3 2.888570 1_555
Mg1_7 Zn0_5 2.903586 1_555
Mg1_7 Zn0_3 2.903586 1_555
Zn0_0 Zn1_2 2.644622 1_555
Zn0_0 Zn1_4 2.644622 1_555
Zn0_0 Zn0_6 3.023126 1_545
Zn0_0 Zn0_6 3.023126 1_455
Zn0_1 Zn1_3 2.644622 1_555
Zn0_1 Zn1_5 2.644622 1_555
Zn0_1 Zn0_7 3.023126 1_455
Zn0_1 Zn0_7 3.023126 1_545
Zn0_2 Zn1_0 2.644622 1_565
Zn0_2 Zn1_6 2.644622 1_555
Zn0_2 Zn0_4 3.023126 1_465
Zn0_2 Zn0_4 3.023126 1_555
Zn0_3 Zn1_1 2.644622 1_565
Zn0_3 Zn1_7 2.644622 1_555
Zn0_3 Zn0_5 3.023126 1_465
Zn0_3 Zn0_5 3.023126 1_555
Zn0_4 Zn1_0 2.644622 1_655
Zn0_4 Zn1_6 2.644622 1_555
Zn0_5 Zn1_1 2.644622 1_655
Zn0_5 Zn1_7 2.644622 1_555
Zn0_6 Zn1_4 2.644622 1_565
Zn0_6 Zn1_2 2.644622 1_655
Zn0_7 Zn1_3 2.644622 1_655
Zn0_7 Zn1_5 2.644622 1_565
Zn1_0 Zn1_6 3.023126 1_545
Zn1_0 Zn1_6 3.023126 1_455
Zn1_1 Zn1_7 3.023126 1_545
Zn1_1 Zn1_7 3.023126 1_455
Zn1_2 Zn1_4 3.023126 1_465
Zn1_2 Zn1_4 3.023126 1_555
Zn1_3 Zn1_5 3.023126 1_465
Zn1_3 Zn1_5 3.023126 1_555
