# generated using pymatgen
data_Li9Co7O16
_symmetry_space_group_name_H-M   'P 1'
_cell_length_a   7.71955617
_cell_length_b   7.71955617
_cell_length_c   5.84879147
_cell_angle_alpha   67.97524152
_cell_angle_beta   67.97524152
_cell_angle_gamma   97.57532249
_symmetry_Int_Tables_number   1
_chemical_formula_structural   Li9Co7O16
_chemical_formula_sum   'Li9 Co7 O16'
_cell_volume   284.07103335
_cell_formula_units_Z   1
loop_
 _symmetry_equiv_pos_site_id
 _symmetry_equiv_pos_as_xyz
  1  'x, y, z'
loop_
 _atom_site_type_symbol
 _atom_site_label
 _atom_site_symmetry_multiplicity
 _atom_site_fract_x
 _atom_site_fract_y
 _atom_site_fract_z
 _atom_site_occupancy
  Li  Li0  1  0.62257600  0.86963500  0.50584300  1
  Li  Li1  1  0.13036500  0.37742400  0.49415700  1
  Li  Li2  1  0.50000000  0.50000000  0.50000000  1
  Li  Li3  1  0.00000000  0.00000000  0.50000000  1
  Li  Li4  1  0.37742400  0.13036500  0.49415700  1
  Li  Li5  1  0.86963500  0.62257600  0.50584300  1
  Li  Li6  1  0.24851800  0.75148200  0.50000000  1
  Li  Li7  1  0.75148200  0.24851800  0.50000000  1
  Li  Li8  1  0.50000000  0.50000000  0.00000000  1
  Co  Co0  1  0.74820100  0.25179900  0.00000000  1
  Co  Co1  1  0.25179900  0.74820100  0.00000000  1
  Co  Co2  1  0.62144800  0.86822700  0.00434700  1
  Co  Co3  1  0.13177300  0.37855200  0.99565300  1
  Co  Co4  1  0.00000000  0.00000000  0.00000000  1
  Co  Co5  1  0.37855200  0.13177300  0.99565300  1
  Co  Co6  1  0.86822700  0.62144800  0.00434700  1
  O  O0  1  0.87546700  0.13527800  0.22110900  1
  O  O1  1  0.36907600  0.64377400  0.22593300  1
  O  O2  1  0.75145300  0.75145300  0.24399800  1
  O  O3  1  0.24279700  0.24279700  0.23190600  1
  O  O4  1  0.64377400  0.36907600  0.22593300  1
  O  O5  1  0.13527800  0.87546700  0.22110900  1
  O  O6  1  0.52124800  0.01668800  0.21874000  1
  O  O7  1  0.01668800  0.52124800  0.21874000  1
  O  O8  1  0.35622600  0.63092400  0.77406700  1
  O  O9  1  0.86472200  0.12453300  0.77889100  1
  O  O10  1  0.24854700  0.24854700  0.75600200  1
  O  O11  1  0.75720300  0.75720300  0.76809400  1
  O  O12  1  0.12453300  0.86472200  0.77889100  1
  O  O13  1  0.63092400  0.35622600  0.77406700  1
  O  O14  1  0.98331200  0.47875200  0.78126000  1
  O  O15  1  0.47875200  0.98331200  0.78126000  1
loop_
_geom_bond_atom_site_label_1
_geom_bond_atom_site_label_2
_geom_bond_distance
_geom_bond_site_symmetry_2
Li0 O2 2.076531 1_555
Li0 O8 2.120838 1_555
Li0 O6 2.123626 1_565
Li0 O15 2.138531 1_555
Li0 O11 2.149647 1_555
Li0 O0 2.175877 1_565
Li1 O10 2.076531 1_555
Li1 O1 2.120838 1_555
Li1 O14 2.123626 1_455
Li1 O7 2.138531 1_555
Li1 O3 2.149647 1_555
Li1 O9 2.175877 1_455
Li2 O2 2.103459 1_555
Li2 O10 2.103459 1_555
Li2 O8 2.235901 1_555
Li2 O13 2.235901 1_555
Li2 O4 2.235901 1_555
Li2 O1 2.235901 1_555
Li3 O3 2.037130 1_555
Li3 O11 2.037130 1_445
Li3 O9 2.199694 1_455
Li3 O12 2.199694 1_545
Li3 O5 2.199694 1_545
Li3 O0 2.199694 1_455
Li4 O10 2.076531 1_555
Li4 O4 2.120838 1_555
Li4 O15 2.123626 1_545
Li4 O6 2.138531 1_555
Li4 O3 2.149647 1_555
Li4 O12 2.175877 1_545
Li5 O2 2.076531 1_555
Li5 O13 2.120838 1_555
Li5 O7 2.123626 1_655
Li5 O14 2.138531 1_555
Li5 O11 2.149647 1_555
Li5 O5 2.175877 1_655
Li6 O1 2.052239 1_555
Li6 O8 2.052239 1_555
Li6 O12 2.111888 1_555
Li6 O5 2.111888 1_555
Li6 O6 2.251675 1_565
Li6 O14 2.251675 1_455
Li7 O4 2.052239 1_555
Li7 O13 2.052239 1_555
Li7 O9 2.111888 1_555
Li7 O0 2.111888 1_555
Li7 O7 2.251675 1_655
Li7 O15 2.251675 1_545
Li8 O13 2.096076 1_554
Li8 O8 2.096076 1_554
Li8 O1 2.096076 1_555
Li8 O4 2.096076 1_555
Li8 O11 2.155236 1_554
Li8 O3 2.155236 1_555
Co0 O4 1.872535 1_555
Co0 O13 1.872535 1_554
Co0 O14 1.933717 1_554
Co0 O6 1.933717 1_555
Co0 O0 1.939106 1_555
Co0 O9 1.939106 1_554
Co1 O1 1.872535 1_555
Co1 O8 1.872535 1_554
Co1 O15 1.933717 1_554
Co1 O7 1.933717 1_555
Co1 O5 1.939106 1_555
Co1 O12 1.939106 1_554
Co2 O11 1.944503 1_554
Co2 O1 2.002343 1_555
Co2 O6 2.016980 1_565
Co2 O2 2.032326 1_555
Co2 O15 2.042488 1_554
Co2 O9 2.094402 1_564
Co3 O3 1.944503 1_556
Co3 O8 2.002343 1_555
Co3 O14 2.016980 1_455
Co3 O10 2.032326 1_555
Co3 O7 2.042488 1_556
Co3 O0 2.094402 1_456
Co4 O5 2.008051 1_545
Co4 O0 2.008051 1_455
Co4 O9 2.008051 1_454
Co4 O12 2.008051 1_544
Co4 O10 2.078781 1_554
Co4 O2 2.078781 1_445
Co5 O3 1.944503 1_556
Co5 O13 2.002343 1_555
Co5 O15 2.016980 1_545
Co5 O10 2.032326 1_555
Co5 O6 2.042488 1_556
Co5 O5 2.094402 1_546
Co6 O11 1.944503 1_554
Co6 O4 2.002343 1_555
Co6 O7 2.016980 1_655
Co6 O2 2.032326 1_555
Co6 O14 2.042488 1_554
Co6 O12 2.094402 1_654
