# generated using pymatgen
data_NdCo5P3
_symmetry_space_group_name_H-M   'P 1'
_cell_length_a   3.69490897
_cell_length_b   10.31571081
_cell_length_c   11.75711202
_cell_angle_alpha   90.00000000
_cell_angle_beta   90.00000000
_cell_angle_gamma   90.00000000
_symmetry_Int_Tables_number   1
_chemical_formula_structural   NdCo5P3
_chemical_formula_sum   'Nd4 Co20 P12'
_cell_volume   448.12952474
_cell_formula_units_Z   4
loop_
 _symmetry_equiv_pos_site_id
 _symmetry_equiv_pos_as_xyz
  1  'x, y, z'
loop_
 _atom_site_type_symbol
 _atom_site_label
 _atom_site_symmetry_multiplicity
 _atom_site_fract_x
 _atom_site_fract_y
 _atom_site_fract_z
 _atom_site_occupancy
  Nd  Nd0  1  0.25000000  0.58282023  0.70035580  1
  Nd  Nd1  1  0.25000000  0.91717977  0.20035580  1
  Nd  Nd2  1  0.75000000  0.41717977  0.29964420  1
  Nd  Nd3  1  0.75000000  0.08282023  0.79964420  1
  Co  Co0  1  0.25000000  0.70829908  0.98778342  1
  Co  Co1  1  0.25000000  0.79170092  0.48778342  1
  Co  Co2  1  0.75000000  0.29170092  0.01221658  1
  Co  Co3  1  0.75000000  0.20829908  0.51221658  1
  Co  Co4  1  0.25000000  0.40369331  0.48945774  1
  Co  Co5  1  0.25000000  0.09630669  0.98945774  1
  Co  Co6  1  0.75000000  0.59630669  0.51054226  1
  Co  Co7  1  0.75000000  0.90369331  0.01054226  1
  Co  Co8  1  0.25000000  0.22078784  0.17448166  1
  Co  Co9  1  0.25000000  0.27921216  0.67448166  1
  Co  Co10  1  0.75000000  0.77921216  0.82551834  1
  Co  Co11  1  0.75000000  0.72078784  0.32551834  1
  Co  Co12  1  0.25000000  0.88299988  0.69670632  1
  Co  Co13  1  0.25000000  0.61700012  0.19670632  1
  Co  Co14  1  0.75000000  0.11700012  0.30329368  1
  Co  Co15  1  0.75000000  0.38299988  0.80329368  1
  Co  Co16  1  0.25000000  0.46827245  0.93408013  1
  Co  Co17  1  0.25000000  0.03172755  0.43408013  1
  Co  Co18  1  0.75000000  0.53172755  0.06591987  1
  Co  Co19  1  0.75000000  0.96827245  0.56591987  1
  P  P0  1  0.25000000  0.41912615  0.11135943  1
  P  P1  1  0.25000000  0.08087385  0.61135943  1
  P  P2  1  0.75000000  0.58087385  0.88864057  1
  P  P3  1  0.75000000  0.91912615  0.38864057  1
  P  P4  1  0.25000000  0.27639268  0.86630243  1
  P  P5  1  0.25000000  0.22360732  0.36630243  1
  P  P6  1  0.75000000  0.72360732  0.13369757  1
  P  P7  1  0.75000000  0.77639268  0.63369757  1
  P  P8  1  0.25000000  0.60555470  0.39433971  1
  P  P9  1  0.25000000  0.89444530  0.89433971  1
  P  P10  1  0.75000000  0.39444530  0.60566029  1
  P  P11  1  0.75000000  0.10555470  0.10566029  1
loop_
_geom_bond_atom_site_label_1
_geom_bond_atom_site_label_2
_geom_bond_distance
_geom_bond_site_symmetry_2
Nd0 P7 2.831015 1_555
Nd0 P7 2.831015 1_455
Nd0 P2 2.883382 1_455
Nd0 P2 2.883382 1_555
Nd0 P10 2.903229 1_555
Nd0 P10 2.903229 1_455
Nd1 P6 2.831015 1_455
Nd1 P6 2.831015 1_555
Nd1 P3 2.883382 1_555
Nd1 P3 2.883382 1_455
Nd1 P11 2.903229 1_465
Nd1 P11 2.903229 1_565
Nd2 P5 2.831015 1_555
Nd2 P5 2.831015 1_655
Nd2 P0 2.883382 1_555
Nd2 P0 2.883382 1_655
Nd2 P8 2.903229 1_655
Nd2 P8 2.903229 1_555
Nd3 P4 2.831015 1_555
Nd3 P4 2.831015 1_655
Nd3 P1 2.883382 1_655
Nd3 P1 2.883382 1_555
Nd3 P9 2.903229 1_545
Nd3 P9 2.903229 1_645
Co0 P9 2.212300 1_555
Co0 P6 2.526077 1_456
Co0 P6 2.526077 1_556
Co0 P2 2.549442 1_555
Co0 P2 2.549442 1_455
Co0 Nd1 3.299871 1_556
Co1 P8 2.212300 1_555
Co1 P7 2.526077 1_455
Co1 P7 2.526077 1_555
Co1 P3 2.549442 1_455
Co1 P3 2.549442 1_555
Co1 Nd0 3.299871 1_555
Co2 P11 2.212300 1_555
Co2 P4 2.526077 1_654
Co2 P4 2.526077 1_554
Co2 P0 2.549442 1_555
Co2 P0 2.549442 1_655
Co2 Nd3 3.299871 1_554
Co3 P10 2.212300 1_555
Co3 P5 2.526077 1_555
Co3 P5 2.526077 1_655
Co3 P1 2.549442 1_655
Co3 P1 2.549442 1_555
Co3 Nd2 3.299871 1_555
Co4 P10 2.299719 1_555
Co4 P10 2.299719 1_455
Co4 P5 2.355348 1_555
Co4 P8 2.363637 1_555
Co4 Nd2 2.900473 1_455
Co4 Nd2 2.900473 1_555
Co4 Nd0 3.092349 1_555
Co5 P11 2.299719 1_556
Co5 P11 2.299719 1_456
Co5 P4 2.355348 1_555
Co5 P9 2.363637 1_545
Co5 Nd3 2.900473 1_455
Co5 Nd3 2.900473 1_555
Co5 Nd1 3.092349 1_546
Co6 P8 2.299719 1_655
Co6 P8 2.299719 1_555
Co6 P7 2.355348 1_555
Co6 P10 2.363637 1_555
Co6 Nd0 2.900473 1_655
Co6 Nd0 2.900473 1_555
Co6 Nd2 3.092349 1_555
Co7 P9 2.299719 1_554
Co7 P9 2.299719 1_654
Co7 P6 2.355348 1_555
Co7 P11 2.363637 1_565
Co7 Nd1 2.900473 1_655
Co7 Nd1 2.900473 1_555
Co7 Nd3 3.092349 1_564
Co8 P0 2.176438 1_555
Co8 P5 2.255446 1_555
Co8 P11 2.341118 1_555
Co8 P11 2.341118 1_455
Co8 Nd2 3.111737 1_555
Co8 Nd2 3.111737 1_455
Co8 Nd1 3.146672 1_545
Co9 P1 2.176438 1_555
Co9 P4 2.255446 1_555
Co9 P10 2.341118 1_555
Co9 P10 2.341118 1_455
Co9 Nd3 3.111737 1_455
Co9 Nd3 3.111737 1_555
Co9 Nd0 3.146672 1_555
Co10 P2 2.176438 1_555
Co10 P7 2.255446 1_555
Co10 P9 2.341118 1_555
Co10 P9 2.341118 1_655
Co10 Nd0 3.111737 1_555
Co10 Nd0 3.111737 1_655
Co10 Nd3 3.146672 1_565
Co11 P3 2.176438 1_555
Co11 P6 2.255446 1_555
Co11 P8 2.341118 1_655
Co11 P8 2.341118 1_555
Co11 Nd1 3.111737 1_655
Co11 Nd1 3.111737 1_555
Co11 Nd2 3.146672 1_555
Co12 P7 2.274044 1_555
Co12 P7 2.274044 1_455
Co12 P1 2.274515 1_565
Co12 P9 2.326596 1_555
Co12 Nd3 3.021045 1_465
Co12 Nd3 3.021045 1_565
Co12 Nd0 3.096864 1_555
Co13 P6 2.274044 1_455
Co13 P6 2.274044 1_555
Co13 P0 2.274515 1_555
Co13 P8 2.326596 1_555
Co13 Nd2 3.021045 1_455
Co13 Nd2 3.021045 1_555
Co13 Nd1 3.096864 1_555
Co14 P5 2.274044 1_555
Co14 P5 2.274044 1_655
Co14 P3 2.274515 1_545
Co14 P11 2.326596 1_555
Co14 Nd1 3.021045 1_545
Co14 Nd1 3.021045 1_645
Co14 Nd2 3.096864 1_555
Co15 P4 2.274044 1_555
Co15 P4 2.274044 1_655
Co15 P2 2.274515 1_555
Co15 P10 2.326596 1_555
Co15 Nd0 3.021045 1_655
Co15 Nd0 3.021045 1_555
Co15 Nd3 3.096864 1_555
Co16 P4 2.133760 1_555
Co16 P0 2.145065 1_556
Co16 P2 2.246715 1_555
Co16 P2 2.246715 1_455
Co16 Nd0 2.991214 1_555
Co17 P5 2.133760 1_555
Co17 P1 2.145065 1_555
Co17 P3 2.246715 1_445
Co17 P3 2.246715 1_545
Co17 Nd1 2.991214 1_545
Co18 P6 2.133760 1_555
Co18 P2 2.145065 1_554
Co18 P0 2.246715 1_655
Co18 P0 2.246715 1_555
Co18 Nd2 2.991214 1_555
Co19 P7 2.133760 1_555
Co19 P3 2.145065 1_555
Co19 P1 2.246715 1_565
Co19 P1 2.246715 1_665
Co19 Nd3 2.991214 1_565
