# generated using pymatgen
data_ZnO
_symmetry_space_group_name_H-M   'P 1'
_cell_length_a   10.64056170
_cell_length_b   10.93882119
_cell_length_c   9.47224208
_cell_angle_alpha   92.66893569
_cell_angle_beta   87.73295509
_cell_angle_gamma   80.62115146
_symmetry_Int_Tables_number   1
_chemical_formula_structural   ZnO
_chemical_formula_sum   'Zn40 O40'
_cell_volume   1085.36152207
_cell_formula_units_Z   40
loop_
 _symmetry_equiv_pos_site_id
 _symmetry_equiv_pos_as_xyz
  1  'x, y, z'
loop_
 _atom_site_type_symbol
 _atom_site_label
 _atom_site_symmetry_multiplicity
 _atom_site_fract_x
 _atom_site_fract_y
 _atom_site_fract_z
 _atom_site_occupancy
  Zn  Zn0  1  0.76890700  0.85470000  0.40753900  1
  Zn  Zn1  1  0.79409600  0.32217400  0.79862800  1
  Zn  Zn2  1  0.60870800  0.63716200  0.25786000  1
  Zn  Zn3  1  0.29360900  0.04793800  0.64468600  1
  Zn  Zn4  1  0.29918600  0.67254100  0.18885300  1
  Zn  Zn5  1  0.78737200  0.48638700  0.56665000  1
  Zn  Zn6  1  0.99133300  0.92598800  0.58044400  1
  Zn  Zn7  1  0.29034200  0.16503100  0.37518000  1
  Zn  Zn8  1  0.04404600  0.19940600  0.58634700  1
  Zn  Zn9  1  0.04406600  0.64928300  0.40578800  1
  Zn  Zn10  1  0.81757400  0.55926300  0.98170200  1
  Zn  Zn11  1  0.54519700  0.49995100  0.96999700  1
  Zn  Zn12  1  0.24941400  0.85499500  0.38513700  1
  Zn  Zn13  1  0.01650600  0.47585900  0.69436300  1
  Zn  Zn14  1  0.27574300  0.40442400  0.30536500  1
  Zn  Zn15  1  0.49489000  0.90313100  0.34617800  1
  Zn  Zn16  1  0.11116600  0.23418900  0.11018000  1
  Zn  Zn17  1  0.21989500  0.29907400  0.78586800  1
  Zn  Zn18  1  0.22600900  0.56702900  0.91041000  1
  Zn  Zn19  1  0.60302000  0.85087200  0.04332700  1
  Zn  Zn20  1  0.51940900  0.69644000  0.53613900  1
  Zn  Zn21  1  0.01136600  0.13607700  0.86743800  1
  Zn  Zn22  1  0.80630600  0.99942400  0.96007100  1
  Zn  Zn23  1  0.40468300  0.75042100  0.87027300  1
  Zn  Zn24  1  0.34125600  0.51363100  0.61599000  1
  Zn  Zn25  1  0.92678500  0.71581900  0.09038100  1
  Zn  Zn26  1  0.33253900  0.01555200  0.93107900  1
  Zn  Zn27  1  0.83080600  0.74739600  0.76565500  1
  Zn  Zn28  1  0.20615500  0.79454000  0.69547600  1
  Zn  Zn29  1  0.74868500  0.19583400  0.50302200  1
  Zn  Zn30  1  0.99890800  0.90162600  0.25115700  1
  Zn  Zn31  1  0.66292200  0.94884500  0.67013500  1
  Zn  Zn32  1  0.58118000  0.39774100  0.42629400  1
  Zn  Zn33  1  0.37261000  0.27567000  0.02479900  1
  Zn  Zn34  1  0.78429600  0.29666300  0.11981000  1
  Zn  Zn35  1  0.04622600  0.49456000  0.09791700  1
  Zn  Zn36  1  0.53897000  0.23727500  0.75955200  1
  Zn  Zn37  1  0.12858600  0.88903800  0.00264200  1
  Zn  Zn38  1  0.97966000  0.36766900  0.36095900  1
  Zn  Zn39  1  0.58051900  0.13694300  0.23597700  1
  O  O0  1  0.67331700  0.36742900  0.63946100  1
  O  O1  1  0.62815900  0.11977500  0.62908100  1
  O  O2  1  0.42259900  0.87497700  0.01626400  1
  O  O3  1  0.60409300  0.84290900  0.50984800  1
  O  O4  1  0.81434600  0.03238800  0.39389000  1
  O  O5  1  0.99128700  0.30953700  0.78025500  1
  O  O6  1  0.17961300  0.83545100  0.19734800  1
  O  O7  1  0.48169300  0.35503600  0.90468300  1
  O  O8  1  0.84523100  0.57330300  0.76711600  1
  O  O9  1  0.14625800  0.74166000  0.87550800  1
  O  O10  1  0.22809800  0.21464500  0.58589100  1
  O  O11  1  0.67608600  0.26723000  0.28955900  1
  O  O12  1  0.39940000  0.43070000  0.44142700  1
  O  O13  1  0.72340200  0.42109900  0.97670200  1
  O  O14  1  0.94596900  0.35875300  0.15746500  1
  O  O15  1  0.07126200  0.03920300  0.68990200  1
  O  O16  1  0.42367000  0.64501400  0.69182100  1
  O  O17  1  0.65095600  0.55816700  0.43094100  1
  O  O18  1  0.43028400  0.72848900  0.33109500  1
  O  O19  1  0.13554100  0.77742500  0.51101400  1
  O  O20  1  0.32969000  0.90177300  0.74497700  1
  O  O21  1  0.33441200  0.99499000  0.42840800  1
  O  O22  1  0.93533400  0.89143700  0.05310900  1
  O  O23  1  0.14105400  0.07293800  0.00477600  1
  O  O24  1  0.37983200  0.60614700  0.00355500  1
  O  O25  1  0.96775400  0.51703400  0.49664900  1
  O  O26  1  0.82829700  0.16789300  0.94588000  1
  O  O27  1  0.40582900  0.21728400  0.21500500  1
  O  O28  1  0.91106900  0.75489700  0.29995700  1
  O  O29  1  0.15561800  0.28271300  0.30307900  1
  O  O30  1  0.16952100  0.55949600  0.24623200  1
  O  O31  1  0.89645400  0.28205900  0.50125800  1
  O  O32  1  0.19064400  0.37119000  0.99841900  1
  O  O33  1  0.95710600  0.02368300  0.40293700  1
  O  O34  1  0.19752100  0.48037100  0.73100000  1
  O  O35  1  0.62144700  0.95867000  0.21861600  1
  O  O36  1  0.84442400  0.85078300  0.61213600  1
  O  O37  1  0.70678900  0.88705700  0.86937700  1
  O  O38  1  0.65662000  0.66838100  0.07179700  1
  O  O39  1  0.36243100  0.16402900  0.84099000  1
loop_
_geom_bond_atom_site_label_1
_geom_bond_atom_site_label_2
_geom_bond_distance
_geom_bond_site_symmetry_2
O0 Zn5 2.043002 1_555
O0 Zn1 2.045776 1_555
O0 Zn29 2.244585 1_555
O0 Zn32 2.293723 1_555
O0 Zn36 2.459686 1_555
O1 Zn36 1.855187 1_555
O1 Zn31 1.907295 1_545
O1 Zn29 2.020358 1_555
O2 Zn26 1.905372 1_564
O2 Zn19 1.923810 1_555
O2 Zn23 1.932637 1_554
O3 Zn20 1.982665 1_555
O3 Zn0 1.995545 1_555
O3 Zn15 2.043480 1_555
O3 Zn31 2.046367 1_555
O4 Zn29 2.029026 1_555
O4 Zn0 2.086431 1_545
O5 Zn13 2.079359 1_655
O5 Zn1 2.079970 1_555
O5 Zn21 2.087030 1_655
O5 Zn8 2.152213 1_655
O5 Zn17 2.419324 1_655
O6 Zn12 1.970347 1_555
O6 Zn30 1.978741 1_455
O6 Zn4 2.010107 1_555
O6 Zn37 2.028800 1_555
O7 Zn36 1.852991 1_555
O7 Zn11 1.908679 1_555
O7 Zn33 1.926503 1_556
O8 Zn27 1.886197 1_555
O8 Zn13 2.032622 1_655
O8 Zn10 2.058683 1_555
O8 Zn5 2.236913 1_555
O9 Zn28 1.942912 1_555
O9 Zn37 1.946032 1_556
O9 Zn18 2.007777 1_555
O10 Zn3 1.957677 1_555
O10 Zn8 1.992235 1_555
O10 Zn17 2.060680 1_555
O10 Zn7 2.096241 1_555
O11 Zn39 1.941295 1_555
O11 Zn32 1.997472 1_555
O11 Zn34 2.009313 1_555
O11 Zn29 2.317126 1_555
O12 Zn24 1.880490 1_555
O12 Zn32 1.907298 1_555
O12 Zn14 1.922980 1_555
O13 Zn10 1.944530 1_555
O13 Zn11 1.955802 1_555
O13 Zn1 2.011546 1_555
O13 Zn34 2.015949 1_556
O14 Zn38 1.975351 1_555
O14 Zn34 1.988647 1_555
O14 Zn35 2.051844 1_655
O14 Zn16 2.060901 1_655
O15 Zn6 1.904078 1_445
O15 Zn21 1.971356 1_555
O15 Zn8 2.033273 1_555
O15 Zn3 2.405693 1_555
O16 Zn20 1.916777 1_555
O16 Zn24 1.927402 1_555
O16 Zn23 1.985722 1_555
O17 Zn2 1.923606 1_555
O17 Zn32 2.013155 1_555
O17 Zn5 2.060602 1_555
O17 Zn20 2.073460 1_555
O18 Zn2 2.072864 1_555
O18 Zn4 2.118008 1_555
O18 Zn15 2.133756 1_555
O18 Zn12 2.206584 1_555
O18 Zn20 2.212526 1_555
O19 Zn28 1.942114 1_555
O19 Zn12 1.981118 1_555
O19 Zn9 2.072922 1_555
O19 Zn6 2.106162 1_455
O20 Zn3 1.891163 1_565
O20 Zn28 1.955436 1_555
O20 Zn26 2.114153 1_565
O20 Zn23 2.147956 1_555
O21 Zn12 1.937367 1_555
O21 Zn7 1.937948 1_565
O21 Zn15 1.948036 1_555
O21 Zn3 2.111409 1_565
O22 Zn22 1.929000 1_554
O22 Zn25 1.985181 1_555
O22 Zn30 2.023547 1_555
O22 Zn37 2.088323 1_655
O23 Zn16 1.958911 1_555
O23 Zn21 1.997172 1_554
O23 Zn37 2.036700 1_545
O23 Zn26 2.112487 1_554
O24 Zn11 1.949812 1_554
O24 Zn4 1.975733 1_555
O24 Zn18 1.986931 1_554
O24 Zn23 2.109410 1_554
O25 Zn9 1.984034 1_655
O25 Zn13 2.014595 1_655
O25 Zn38 2.015354 1_555
O25 Zn5 2.089436 1_555
O26 Zn22 1.905270 1_545
O26 Zn21 2.026868 1_655
O26 Zn34 2.103693 1_556
O26 Zn1 2.232779 1_555
O27 Zn39 1.944223 1_555
O27 Zn33 1.965414 1_555
O27 Zn7 2.073863 1_555
O27 Zn14 2.378805 1_555
O28 Zn0 1.937711 1_555
O28 Zn25 2.005727 1_555
O28 Zn9 2.007370 1_655
O28 Zn30 2.046281 1_555
O29 Zn7 1.933000 1_555
O29 Zn16 1.975843 1_555
O29 Zn14 1.990217 1_555
O29 Zn38 1.993474 1_455
O30 Zn14 1.995587 1_555
O30 Zn4 2.070617 1_555
O30 Zn9 2.075006 1_555
O30 Zn35 2.134478 1_555
O31 Zn8 1.907520 1_655
O31 Zn38 1.928726 1_555
O31 Zn29 1.960847 1_555
O31 Zn5 2.386469 1_555
O32 Zn35 2.040084 1_556
O32 Zn33 2.075179 1_556
O32 Zn17 2.120185 1_555
O32 Zn16 2.138168 1_556
O32 Zn18 2.414545 1_555
O33 O4 1.512557 1_555
O33 Zn30 1.903825 1_545
O33 Zn6 2.047119 1_545
O34 Zn24 1.935135 1_555
O34 Zn18 1.965417 1_555
O34 Zn13 1.978637 1_555
O34 Zn17 2.052236 1_555
O35 Zn39 1.925422 1_565
O35 Zn15 1.961834 1_555
O35 Zn19 2.025970 1_555
O36 Zn27 1.898555 1_555
O36 Zn6 1.901435 1_555
O36 Zn31 2.090047 1_555
O36 Zn0 2.126745 1_555
O37 Zn22 1.941134 1_555
O37 Zn27 2.034986 1_555
O37 Zn19 2.037154 1_556
O37 Zn31 2.078977 1_555
O38 Zn2 1.877342 1_555
O38 Zn19 2.018464 1_555
O38 Zn10 2.051683 1_554
O38 Zn11 2.523281 1_554
O39 Zn26 1.934746 1_555
O39 Zn17 2.039452 1_555
O39 Zn33 2.096305 1_556
O39 Zn36 2.280163 1_555
O39 Zn3 2.407767 1_555
