# generated using pymatgen
data_K5Pr4Si4O16F
_symmetry_space_group_name_H-M   'P 1'
_cell_length_a   9.18827929
_cell_length_b   9.18827929
_cell_length_c   9.18827929
_cell_angle_alpha   95.18328334
_cell_angle_beta   95.18328334
_cell_angle_gamma   145.01637796
_symmetry_Int_Tables_number   1
_chemical_formula_structural   K5Pr4Si4O16F
_chemical_formula_sum   'K5 Pr4 Si4 O16 F1'
_cell_volume   424.18527045
_cell_formula_units_Z   1
loop_
 _symmetry_equiv_pos_site_id
 _symmetry_equiv_pos_as_xyz
  1  'x, y, z'
loop_
 _atom_site_type_symbol
 _atom_site_label
 _atom_site_symmetry_multiplicity
 _atom_site_fract_x
 _atom_site_fract_y
 _atom_site_fract_z
 _atom_site_occupancy
  K  K0  1  0.59292947  0.10271188  0.69472912  1
  K  K1  1  0.40798276  0.89820135  0.30527088  1
  K  K2  1  0.10179865  0.40707053  0.50978141  1
  K  K3  1  0.89728812  0.59201724  0.49021859  1
  K  K4  1  0.00000000  0.00000000  -0.00000000  1
  Pr  Pr0  1  0.59980412  0.66661311  0.30154335  1
  Pr  Pr1  1  0.36507075  0.29826177  0.69845665  1
  Pr  Pr2  1  0.70173823  0.40019588  0.06680899  1
  Pr  Pr3  1  0.33338689  0.63492925  0.93319101  1
  Si  Si0  1  0.76435201  0.90533668  0.65035263  1
  Si  Si1  1  0.25498405  0.11399938  0.34964737  1
  Si  Si2  1  0.88600062  0.23564799  0.14098467  1
  Si  Si3  1  0.09466332  0.74501595  0.85901533  1
  O  O0  1  0.61917761  0.87959548  0.50705677  1
  O  O1  1  0.37253771  0.11212084  0.49294323  1
  O  O2  1  0.88787916  0.38082239  0.26041788  1
  O  O3  1  0.12040452  0.62746229  0.73958212  1
  O  O4  1  0.56406707  0.71016982  0.75171261  1
  O  O5  1  0.95845721  0.81235446  0.24828739  1
  O  O6  1  0.18764554  0.43593293  0.14610375  1
  O  O7  1  0.28983018  0.04154279  0.85389625  1
  O  O8  1  0.04069799  0.21079083  0.75924430  1
  O  O9  1  0.45154554  0.28145269  0.24075570  1
  O  O10  1  0.71854731  0.95930201  0.17009284  1
  O  O11  1  0.78920917  0.54845446  0.82990716  1
  O  O12  1  0.85680640  0.83011618  0.57334646  1
  O  O13  1  0.25676872  0.28345994  0.42665354  1
  O  O14  1  0.71654006  0.14319360  0.97330878  1
  O  O15  1  0.16988382  0.74323128  0.02669122  1
  F  F0  1  0.50000000  0.50000000  -0.00000000  1
loop_
_geom_bond_atom_site_label_1
_geom_bond_atom_site_label_2
_geom_bond_distance
_geom_bond_site_symmetry_2
K0 O14 2.567228 1_555
K0 O1 2.680148 1_555
K0 O0 2.735139 1_545
K0 O3 2.769495 1_545
K0 O3 2.809808 1_655
K0 O11 2.853400 1_555
K0 O7 2.920663 1_555
K1 O15 2.567229 1_555
K1 O0 2.680148 1_555
K1 O1 2.735139 1_565
K1 O2 2.769500 1_455
K1 O2 2.809803 1_565
K1 O10 2.853405 1_555
K1 O6 2.920673 1_555
K2 O13 2.567234 1_555
K2 O3 2.680148 1_555
K2 O2 2.735127 1_455
K2 O0 2.769499 1_555
K2 O0 2.809807 1_445
K2 O8 2.853402 1_555
K2 O4 2.920679 1_555
K3 O12 2.567234 1_555
K3 O2 2.680148 1_555
K3 O3 2.735127 1_655
K3 O1 2.769499 1_665
K3 O1 2.809807 1_555
K3 O9 2.853400 1_555
K3 O5 2.920676 1_555
K4 O4 2.848239 1_444
K4 O5 2.848239 1_445
K4 O6 2.848241 1_555
K4 O7 2.848244 1_554
K4 O10 2.919132 1_445
K4 O11 2.919132 1_444
K4 O9 2.919137 1_555
K4 O8 2.919140 1_554
O0 Si0 1.636525 1_555
O0 Pr0 2.475439 1_555
O1 Si1 1.636519 1_555
O1 Pr1 2.475432 1_555
O2 Si2 1.636525 1_555
O2 Pr2 2.475445 1_555
O3 Si3 1.636518 1_555
O3 Pr3 2.475451 1_555
O4 Si0 1.635098 1_555
O4 Pr1 2.463930 1_555
O4 Pr3 2.489315 1_555
O5 Si1 1.635098 1_665
O5 Pr0 2.463934 1_555
O5 Pr2 2.489315 1_555
O6 Si2 1.635096 1_455
O6 Pr3 2.463939 1_554
O6 Pr0 2.489315 1_555
O7 Si3 1.635101 1_545
O7 Pr2 2.463935 1_556
O7 Pr1 2.489315 1_555
O8 Si0 1.637506 1_445
O8 Pr3 2.428687 1_555
O8 Pr1 2.509497 1_555
O9 Si1 1.637501 1_555
O9 Pr2 2.428691 1_555
O9 Pr0 2.509497 1_555
O10 Si2 1.637508 1_565
O10 Pr0 2.428689 1_555
O10 Pr3 2.509497 1_554
O11 Si3 1.637508 1_655
O11 Pr1 2.428686 1_555
O11 Pr2 2.509497 1_556
O12 Si0 1.637770 1_555
O12 Pr0 2.552172 1_555
O12 Pr1 2.617845 1_665
O13 Si1 1.637778 1_555
O13 Pr1 2.552173 1_555
O13 Pr0 2.617841 1_555
O14 Si2 1.637778 1_556
O14 Pr2 2.552182 1_556
O14 Pr3 2.617847 1_545
O15 Si3 1.637774 1_554
O15 Pr3 2.552190 1_554
O15 Pr2 2.617841 1_455
F0 Pr2 2.708359 1_555
F0 Pr3 2.708359 1_554
F0 Pr1 2.708367 1_554
F0 Pr0 2.708368 1_555
F0 K4 2.761716 1_665
F0 K4 2.761716 1_555
