# generated using pymatgen
data_Na2BiAsCO7
_symmetry_space_group_name_H-M   'P 1'
_cell_length_a   7.10624248
_cell_length_b   5.32695593
_cell_length_c   9.45193056
_cell_angle_alpha   88.43722857
_cell_angle_beta   90.00000000
_cell_angle_gamma   90.00000000
_symmetry_Int_Tables_number   1
_chemical_formula_structural   Na2BiAsCO7
_chemical_formula_sum   'Na4 Bi2 As2 C2 O14'
_cell_volume   357.66634860
_cell_formula_units_Z   2
loop_
 _symmetry_equiv_pos_site_id
 _symmetry_equiv_pos_as_xyz
  1  'x, y, z'
loop_
 _atom_site_type_symbol
 _atom_site_label
 _atom_site_symmetry_multiplicity
 _atom_site_fract_x
 _atom_site_fract_y
 _atom_site_fract_z
 _atom_site_occupancy
  Na  Na0  1  0.00937776  0.24454286  0.79557889  1
  Na  Na1  1  0.49062224  0.24454286  0.79557889  1
  Na  Na2  1  0.50937776  0.75545714  0.20442111  1
  Na  Na3  1  0.99062224  0.75545714  0.20442111  1
  Bi  Bi0  1  0.75000000  0.79394797  0.62135301  1
  Bi  Bi1  1  0.25000000  0.20605203  0.37864699  1
  As  As0  1  0.25000000  0.72187058  0.60676148  1
  As  As1  1  0.75000000  0.27812942  0.39323852  1
  C  C0  1  0.75000000  0.73988027  0.91119508  1
  C  C1  1  0.25000000  0.26011973  0.08880492  1
  O  O0  1  0.25000000  0.27566743  0.95685939  1
  O  O1  1  0.75000000  0.95798992  0.84097783  1
  O  O2  1  0.75000000  0.54267705  0.83037458  1
  O  O3  1  0.05941569  0.86644999  0.67562482  1
  O  O4  1  0.44058431  0.86644999  0.67562482  1
  O  O5  1  0.75000000  0.22577500  0.57472993  1
  O  O6  1  0.25000000  0.41007062  0.63836449  1
  O  O7  1  0.75000000  0.58992938  0.36163551  1
  O  O8  1  0.25000000  0.77422500  0.42527007  1
  O  O9  1  0.55941569  0.13355001  0.32437518  1
  O  O10  1  0.94058431  0.13355001  0.32437518  1
  O  O11  1  0.25000000  0.45732295  0.16962542  1
  O  O12  1  0.25000000  0.04201008  0.15902217  1
  O  O13  1  0.75000000  0.72433257  0.04314061  1
loop_
_geom_bond_atom_site_label_1
_geom_bond_atom_site_label_2
_geom_bond_distance
_geom_bond_site_symmetry_2
Na0 O0 2.299768 1_555
Na0 O3 2.364958 1_545
Na0 O6 2.416194 1_555
Na0 O1 2.424018 1_445
Na0 O2 2.460947 1_455
Na0 O5 2.788586 1_455
Na1 O0 2.299768 1_555
Na1 O4 2.364958 1_545
Na1 O6 2.416194 1_555
Na1 O1 2.424018 1_545
Na1 O2 2.460947 1_555
Na1 O5 2.788586 1_555
Na2 O13 2.299768 1_555
Na2 O9 2.364958 1_565
Na2 O7 2.416194 1_555
Na2 O12 2.424018 1_565
Na2 O11 2.460947 1_555
Na2 O8 2.788586 1_555
Na3 O13 2.299768 1_555
Na3 O10 2.364958 1_565
Na3 O7 2.416194 1_555
Na3 O12 2.424018 1_665
Na3 O11 2.460947 1_655
Na3 O8 2.788586 1_655
Bi0 O1 2.274163 1_555
Bi0 O4 2.292980 1_555
Bi0 O3 2.292980 1_655
Bi0 O5 2.330321 1_565
Bi0 O2 2.355969 1_555
Bi0 O7 2.711614 1_555
Bi1 O12 2.274163 1_555
Bi1 O10 2.292980 1_455
Bi1 O9 2.292980 1_555
Bi1 O8 2.330321 1_545
Bi1 O11 2.355969 1_555
Bi1 O6 2.711614 1_555
As0 O6 1.679554 1_555
As0 O4 1.696583 1_555
As0 O3 1.696583 1_555
As0 O8 1.730443 1_555
As1 O7 1.679554 1_555
As1 O10 1.696583 1_555
As1 O9 1.696583 1_555
As1 O5 1.730443 1_555
C0 O13 1.247631 1_556
C0 O2 1.315623 1_555
C0 O1 1.322249 1_555
C1 O0 1.247631 1_554
C1 O11 1.315623 1_555
C1 O12 1.322249 1_555
