# generated using pymatgen
data_FeB2P2(HO4)3
_symmetry_space_group_name_H-M   'P 1'
_cell_length_a   9.08433245
_cell_length_b   9.08433245
_cell_length_c   6.88850181
_cell_angle_alpha   79.76564738
_cell_angle_beta   79.76564738
_cell_angle_gamma   42.62957153
_symmetry_Int_Tables_number   1
_chemical_formula_structural   FeB2P2(HO4)3
_chemical_formula_sum   'Fe2 B4 P4 H6 O24'
_cell_volume   377.93553142
_cell_formula_units_Z   2
loop_
 _symmetry_equiv_pos_site_id
 _symmetry_equiv_pos_as_xyz
  1  'x, y, z'
loop_
 _atom_site_type_symbol
 _atom_site_label
 _atom_site_symmetry_multiplicity
 _atom_site_fract_x
 _atom_site_fract_y
 _atom_site_fract_z
 _atom_site_occupancy
  Fe  Fe0  1  0.00000000  0.50000000  0.50000000  1
  Fe  Fe1  1  0.50000000  0.00000000  0.00000000  1
  B  B0  1  0.16555700  0.65089400  0.15523000  1
  B  B1  1  0.34910600  0.83444300  0.34477000  1
  B  B2  1  0.83444300  0.34910600  0.84477000  1
  B  B3  1  0.65089400  0.16555600  0.65523000  1
  P  P0  1  0.76982700  0.51255400  0.17862000  1
  P  P1  1  0.48744600  0.23017300  0.32138000  1
  P  P2  1  0.23017300  0.48744600  0.82138000  1
  P  P3  1  0.51255400  0.76982700  0.67862000  1
  H  H0  1  0.00000000  0.00000000  0.00000000  1
  H  H1  1  0.00000000  0.00000000  0.50000000  1
  H  H2  1  0.84822700  0.82277200  0.23642500  1
  H  H3  1  0.17722800  0.15177300  0.26357500  1
  H  H4  1  0.15177300  0.17722800  0.76357500  1
  H  H5  1  0.82277200  0.84822700  0.73642500  1
  O  O0  1  0.11354400  0.86040900  0.15136800  1
  O  O1  1  0.13959100  0.88645600  0.34863200  1
  O  O2  1  0.88645600  0.13959100  0.84863200  1
  O  O3  1  0.86040900  0.11354400  0.65136800  1
  O  O4  1  0.38160300  0.45478400  0.21605900  1
  O  O5  1  0.54521600  0.61839700  0.28394100  1
  O  O6  1  0.61839700  0.54521600  0.78394100  1
  O  O7  1  0.45478400  0.38160300  0.71605900  1
  O  O8  1  0.99875700  0.68159700  0.27605100  1
  O  O9  1  0.31840300  0.00124200  0.22394900  1
  O  O10  1  0.00124300  0.31840300  0.72394900  1
  O  O11  1  0.68159700  0.99875700  0.77605100  1
  O  O12  1  0.74443000  0.68289600  0.04670200  1
  O  O13  1  0.31710400  0.25557000  0.45329800  1
  O  O14  1  0.25557000  0.31710400  0.95329800  1
  O  O15  1  0.68289600  0.74443000  0.54670200  1
  O  O16  1  0.94447400  0.38762000  0.32590300  1
  O  O17  1  0.61238000  0.05552600  0.17409700  1
  O  O18  1  0.05552600  0.61238000  0.67409700  1
  O  O19  1  0.38762000  0.94447400  0.82590300  1
  O  O20  1  0.85083800  0.33140700  0.05662200  1
  O  O21  1  0.66859300  0.14916200  0.44337800  1
  O  O22  1  0.14916200  0.66859300  0.94337800  1
  O  O23  1  0.33140700  0.85083800  0.55662200  1
loop_
_geom_bond_atom_site_label_1
_geom_bond_atom_site_label_2
_geom_bond_distance
_geom_bond_site_symmetry_2
Fe0 O13 1.960729 1_555
Fe0 O15 1.960729 1_455
Fe0 O16 2.035361 1_455
Fe0 O18 2.035361 1_555
Fe0 O10 2.043496 1_555
Fe0 O8 2.043496 1_455
Fe1 O14 1.960729 1_554
Fe1 O12 1.960729 1_545
Fe1 O19 2.035361 1_544
Fe1 O17 2.035361 1_555
Fe1 O11 2.043496 1_544
Fe1 O9 2.043500 1_555
B0 O8 1.441860 1_455
B0 O4 1.443348 1_555
B0 O22 1.461621 1_554
B0 O0 1.584192 1_555
B1 O9 1.441852 1_565
B1 O5 1.443348 1_555
B1 O23 1.461621 1_555
B1 O1 1.584192 1_555
B2 O10 1.441860 1_655
B2 O6 1.443348 1_555
B2 O20 1.461621 1_556
B2 O2 1.584192 1_555
B3 O11 1.441852 1_545
B3 O7 1.443353 1_555
B3 O21 1.461619 1_555
B3 O3 1.584198 1_555
H0 O2 1.321673 1_454
H0 O0 1.321673 1_545
H1 O3 1.321673 1_455
H1 O1 1.321673 1_545
H2 O8 1.008384 1_555
H2 O17 1.607366 1_565
H3 O9 1.008388 1_555
H3 O16 1.607366 1_455
H4 O10 1.008384 1_555
H4 O19 1.607366 1_545
H5 O11 1.008384 1_555
H5 O18 1.607366 1_655
O4 P1 1.564981 1_555
O5 P0 1.564981 1_555
O6 P3 1.564981 1_555
O7 P2 1.564981 1_555
O12 P0 1.524152 1_555
O13 P1 1.524152 1_555
O14 P2 1.524152 1_555
O15 P3 1.524152 1_555
O16 P0 1.532236 1_555
O17 P1 1.532236 1_555
O18 P2 1.532236 1_555
O19 P3 1.532236 1_555
O20 P0 1.563790 1_555
O21 P1 1.563790 1_555
O22 P2 1.563790 1_555
O23 P3 1.563790 1_555
