# generated using pymatgen
data_Na3Fe5(SiO3)10
_symmetry_space_group_name_H-M   'P 1'
_cell_length_a   6.60563500
_cell_length_b   7.47743428
_cell_length_c   22.56701076
_cell_angle_alpha   85.65933092
_cell_angle_beta   86.22952556
_cell_angle_gamma   85.55266947
_symmetry_Int_Tables_number   1
_chemical_formula_structural   Na3Fe5(SiO3)10
_chemical_formula_sum   'Na6 Fe10 Si20 O60'
_cell_volume   1106.10041692
_cell_formula_units_Z   2
loop_
 _symmetry_equiv_pos_site_id
 _symmetry_equiv_pos_as_xyz
  1  'x, y, z'
loop_
 _atom_site_type_symbol
 _atom_site_label
 _atom_site_symmetry_multiplicity
 _atom_site_fract_x
 _atom_site_fract_y
 _atom_site_fract_z
 _atom_site_occupancy
  Na  Na0  1  0.81412300  0.92346100  0.89086400  1
  Na  Na1  1  0.01418200  0.32310200  0.69095200  1
  Na  Na2  1  0.21469900  0.72303300  0.49096300  1
  Na  Na3  1  0.41356700  0.12337700  0.29157800  1
  Na  Na4  1  0.18573500  0.07566000  0.10858900  1
  Na  Na5  1  0.61504200  0.52274900  0.09080100  1
  Fe  Fe0  1  0.13428600  0.16536800  0.96829900  1
  Fe  Fe1  1  0.07239700  0.24287600  0.83007000  1
  Fe  Fe2  1  0.33378600  0.56283300  0.77084500  1
  Fe  Fe3  1  0.27282400  0.64227000  0.63069400  1
  Fe  Fe4  1  0.53414600  0.96272900  0.57091500  1
  Fe  Fe5  1  0.47317800  0.04255500  0.43083400  1
  Fe  Fe6  1  0.73455400  0.36277900  0.37102900  1
  Fe  Fe7  1  0.67280500  0.44033800  0.23135900  1
  Fe  Fe8  1  0.92998700  0.75804900  0.17285400  1
  Fe  Fe9  1  0.87066900  0.84169400  0.02994600  1
  Si  Si0  1  0.06613500  0.92275400  0.72813800  1
  Si  Si1  1  0.33318000  0.87417800  0.87226100  1
  Si  Si2  1  0.62677800  0.22063800  0.99211000  1
  Si  Si3  1  0.86541500  0.52396400  0.92789300  1
  Si  Si4  1  0.82590100  0.62083600  0.79236300  1
  Si  Si5  1  0.02658300  0.02050300  0.59247600  1
  Si  Si6  1  0.57264700  0.18145500  0.80646800  1
  Si  Si7  1  0.26603400  0.32277000  0.52836200  1
  Si  Si8  1  0.53351800  0.27422800  0.67234800  1
  Si  Si9  1  0.22691900  0.42093800  0.39262800  1
  Si  Si10  1  0.77275700  0.58146700  0.60656700  1
  Si  Si11  1  0.46688300  0.72322400  0.32857800  1
  Si  Si12  1  0.73352300  0.67471300  0.47247900  1
  Si  Si13  1  0.42824300  0.81728500  0.19291300  1
  Si  Si14  1  0.97325800  0.98163300  0.40653000  1
  Si  Si15  1  0.17165600  0.38235900  0.20784600  1
  Si  Si16  1  0.13107700  0.47663400  0.07208200  1
  Si  Si17  1  0.37333100  0.78078600  0.00651700  1
  Si  Si18  1  0.66964000  0.12350400  0.12805900  1
  Si  Si19  1  0.93225000  0.07363700  0.27261300  1
  O  O0  1  0.04485700  0.36849200  0.90997200  1
  O  O1  1  0.42520800  0.78268100  0.93440500  1
  O  O2  1  0.26182500  0.71826300  0.83418500  1
  O  O3  1  0.02561900  0.47862000  0.77882200  1
  O  O4  1  0.51783000  0.97931300  0.83527700  1
  O  O5  1  0.24532700  0.76597600  0.71049800  1
  O  O6  1  0.14681400  0.02676200  0.88888700  1
  O  O7  1  0.42524300  0.17286800  0.96120400  1
  O  O8  1  0.68539100  0.42522300  0.96901900  1
  O  O9  1  0.22604400  0.87796100  0.57904300  1
  O  O10  1  0.36922200  0.32001000  0.81792200  1
  O  O11  1  0.13006100  0.09015000  0.76317600  1
  O  O12  1  0.93113400  0.69051900  0.96306200  1
  O  O13  1  0.78196800  0.62300600  0.86508100  1
  O  O14  1  0.34698400  0.42651900  0.68908300  1
  O  O15  1  0.62457900  0.57175100  0.76188000  1
  O  O16  1  0.02875800  0.98414000  0.33439600  1
  O  O17  1  0.82699900  0.07901300  0.97914200  1
  O  O18  1  0.08349200  0.22468400  0.56822600  1
  O  O19  1  0.88322200  0.82481500  0.76805500  1
  O  O20  1  0.56944200  0.71983000  0.61811400  1
  O  O21  1  0.32990800  0.49028300  0.56344500  1
  O  O22  1  0.77817600  0.21624800  0.83859000  1
  O  O23  1  0.18462300  0.42265800  0.46542900  1
  O  O24  1  0.62663100  0.18264000  0.73433400  1
  O  O25  1  0.54725300  0.82709600  0.48938400  1
  O  O26  1  0.82481900  0.97177500  0.56213300  1
  O  O27  1  0.02537700  0.37171200  0.36229900  1
  O  O28  1  0.46230500  0.11803700  0.63437800  1
  O  O29  1  0.28352700  0.62501400  0.36825600  1
  O  O30  1  0.71805600  0.37941000  0.63529600  1
  O  O31  1  0.52954000  0.89089200  0.36378600  1
  O  O32  1  0.17861500  0.01549300  0.43898200  1
  O  O33  1  0.97843800  0.61609700  0.63856400  1
  O  O34  1  0.44544600  0.16637200  0.51072200  1
  O  O35  1  0.38695800  0.82282900  0.26535700  1
  O  O36  1  0.82644000  0.58248700  0.53437700  1
  O  O37  1  0.22254800  0.78257400  0.16159200  1
  O  O38  1  0.66165500  0.51862000  0.43450900  1
  O  O39  1  0.42639800  0.27803000  0.37936700  1
  O  O40  1  0.11633600  0.17636300  0.23350900  1
  O  O41  1  0.91809200  0.77935700  0.43524500  1
  O  O42  1  0.17276000  0.92212000  0.01982100  1
  O  O43  1  0.98455100  0.02228300  0.66522600  1
  O  O44  1  0.37821900  0.41536000  0.23893800  1
  O  O45  1  0.64591400  0.56654100  0.31113200  1
  O  O46  1  0.22022300  0.38003600  0.13488000  1
  O  O47  1  0.85767200  0.91821500  0.23499300  1
  O  O48  1  0.06991600  0.30967600  0.03673700  1
  O  O49  1  0.62650900  0.67599100  0.17910100  1
  O  O50  1  0.76965700  0.11974500  0.41825200  1
  O  O51  1  0.31734300  0.57897900  0.03527900  1
  O  O52  1  0.57700400  0.81707500  0.03925600  1
  O  O53  1  0.85380800  0.97121900  0.11089600  1
  O  O54  1  0.74797000  0.22714800  0.28977200  1
  O  O55  1  0.48302600  0.02199200  0.16574200  1
  O  O56  1  0.96993500  0.51973000  0.21965400  1
  O  O57  1  0.73163900  0.29037900  0.16310200  1
  O  O58  1  0.57867300  0.21841100  0.06528600  1
  O  O59  1  0.94593200  0.62784600  0.08901200  1
loop_
_geom_bond_atom_site_label_1
_geom_bond_atom_site_label_2
_geom_bond_distance
_geom_bond_site_symmetry_2
Na0 O6 2.381886 1_665
Na0 O4 2.386524 1_555
Na0 O17 2.391073 1_565
Na0 O13 2.391475 1_555
Na0 O22 2.409625 1_565
Na0 O12 2.411051 1_555
Na1 O3 2.381704 1_555
Na1 O14 2.383086 1_555
Na1 O30 2.386725 1_455
Na1 O43 2.390785 1_455
Na1 O11 2.409177 1_555
Na1 O33 2.411988 1_455
Na2 O9 2.383324 1_555
Na2 O25 2.383898 1_555
Na2 O23 2.386702 1_555
Na2 O41 2.390198 1_455
Na2 O32 2.404747 1_565
Na2 O21 2.410597 1_555
Na3 O39 2.377696 1_555
Na3 O35 2.389092 1_545
Na3 O54 2.394237 1_555
Na3 O31 2.406876 1_545
Na3 O44 2.407746 1_555
Na3 O40 2.422464 1_555
Na4 O53 2.380005 1_445
Na4 O42 2.392561 1_545
Na4 O48 2.408839 1_555
Na4 O55 2.411141 1_555
Na4 O37 2.418977 1_545
Na4 O46 2.426204 1_555
Na5 O59 2.376264 1_555
Na5 O49 2.380838 1_555
Na5 O51 2.393716 1_555
Na5 O57 2.408939 1_555
Na5 O52 2.413484 1_555
Na5 O58 2.422653 1_555
Fe0 O7 1.922909 1_555
Fe0 O48 1.955811 1_556
Fe0 O0 2.012190 1_555
Fe0 O42 2.090884 1_546
Fe0 O6 2.130950 1_555
Fe0 O17 2.170493 1_455
Fe1 O11 1.961125 1_555
Fe1 O22 1.964419 1_455
Fe1 O3 2.047989 1_555
Fe1 O6 2.062220 1_555
Fe1 O10 2.081581 1_555
Fe1 O0 2.086488 1_555
Fe2 O2 1.922578 1_555
Fe2 O15 1.924017 1_555
Fe2 O10 2.038381 1_555
Fe2 O5 2.038940 1_555
Fe2 O14 2.168124 1_555
Fe2 O3 2.169375 1_555
Fe3 O21 1.963733 1_555
Fe3 O33 1.964606 1_455
Fe3 O9 2.052320 1_555
Fe3 O14 2.054115 1_555
Fe3 O5 2.077279 1_555
Fe3 O20 2.081859 1_555
Fe4 O26 1.923181 1_555
Fe4 O28 1.924020 1_565
Fe4 O34 2.039703 1_565
Fe4 O20 2.040058 1_555
Fe4 O25 2.160842 1_555
Fe4 O9 2.170449 1_555
Fe5 O31 1.958123 1_545
Fe5 O32 1.967022 1_555
Fe5 O39 2.048894 1_555
Fe5 O25 2.054600 1_545
Fe5 O34 2.079388 1_555
Fe5 O50 2.080043 1_555
Fe6 O27 1.924037 1_655
Fe6 O38 1.927937 1_555
Fe6 O45 2.036006 1_555
Fe6 O50 2.041057 1_555
Fe6 O54 2.155262 1_555
Fe6 O39 2.170747 1_555
Fe7 O44 1.964313 1_555
Fe7 O57 1.973881 1_555
Fe7 O54 2.042213 1_555
Fe7 O49 2.058766 1_555
Fe7 O45 2.086154 1_555
Fe7 O56 2.088849 1_555
Fe8 O47 1.925181 1_555
Fe8 O37 1.953532 1_655
Fe8 O56 2.009843 1_555
Fe8 O53 2.092774 1_555
Fe8 O49 2.134370 1_555
Fe8 O59 2.185313 1_555
Fe9 O12 1.955634 1_554
Fe9 O52 1.958813 1_555
Fe9 O17 2.050070 1_564
Fe9 O59 2.054761 1_555
Fe9 O42 2.121613 1_655
Fe9 O53 2.124136 1_555
O0 Si3 1.647561 1_455
O1 Si17 1.640069 1_556
O1 Si1 1.645220 1_555
O2 Si1 1.615493 1_555
O3 Si4 1.656284 1_455
O4 Si1 1.648589 1_555
O4 Si6 1.656382 1_565
O5 Si0 1.651457 1_555
O6 Si1 1.656580 1_545
O7 Si2 1.618604 1_555
O8 Si2 1.645083 1_555
O8 Si3 1.645570 1_555
O9 Si5 1.656049 1_565
O10 Si6 1.650697 1_555
O11 Si0 1.626641 1_545
O12 Si3 1.627318 1_555
O13 Si4 1.648673 1_555
O13 Si3 1.655928 1_555
O14 Si8 1.656477 1_555
O15 Si4 1.615763 1_555
O16 Si14 1.643960 1_455
O16 Si19 1.645507 1_465
O17 Si2 1.653825 1_555
O18 Si7 1.641889 1_555
O18 Si5 1.645370 1_555
O19 Si0 1.643736 1_655
O19 Si4 1.645065 1_555
O20 Si10 1.649639 1_555
O21 Si7 1.627813 1_555
O22 Si6 1.627616 1_555
O23 Si9 1.649127 1_555
O23 Si7 1.655792 1_555
O24 Si6 1.642892 1_555
O24 Si8 1.645263 1_555
O25 Si12 1.656637 1_555
O26 Si5 1.615874 1_665
O27 Si9 1.615643 1_555
O28 Si8 1.615307 1_555
O29 Si11 1.644318 1_555
O29 Si9 1.644778 1_555
O30 Si8 1.648861 1_555
O30 Si10 1.655051 1_555
O31 Si11 1.627556 1_555
O32 Si14 1.628664 1_445
O33 Si10 1.626738 1_555
O34 Si7 1.650488 1_555
O35 Si13 1.642765 1_555
O35 Si11 1.657161 1_555
O36 Si10 1.643890 1_555
O36 Si12 1.644623 1_555
O37 Si13 1.619236 1_555
O38 Si12 1.616391 1_555
O39 Si9 1.657076 1_555
O40 Si19 1.657873 1_455
O40 Si15 1.663115 1_555
O41 Si12 1.648764 1_555
O41 Si14 1.657239 1_555
O42 Si17 1.655573 1_555
O43 Si5 1.647845 1_655
O43 Si0 1.654820 1_645
O44 Si15 1.618443 1_555
O45 Si11 1.649213 1_555
O46 Si15 1.657886 1_555
O46 Si16 1.663034 1_555
O47 Si19 1.614682 1_565
O48 Si16 1.621518 1_555
O49 Si13 1.646267 1_555
O50 Si14 1.650590 1_545
O51 Si16 1.644613 1_555
O51 Si17 1.655859 1_555
O52 Si17 1.627039 1_555
O53 Si18 1.648209 1_565
O54 Si19 1.654667 1_555
O55 Si18 1.651791 1_555
O55 Si13 1.662699 1_545
O56 Si15 1.638329 1_655
O57 Si18 1.619053 1_555
O58 Si2 1.660089 1_554
O58 Si18 1.662856 1_555
O59 Si16 1.646091 1_655
