# generated using pymatgen
data_LiNd4(RhO3)4
_symmetry_space_group_name_H-M   'P 1'
_cell_length_a   5.72596356
_cell_length_b   5.96051319
_cell_length_c   7.74658000
_cell_angle_alpha   90.00000000
_cell_angle_beta   90.00000000
_cell_angle_gamma   93.50239022
_symmetry_Int_Tables_number   1
_chemical_formula_structural   LiNd4(RhO3)4
_chemical_formula_sum   'Li1 Nd4 Rh4 O12'
_cell_volume   263.89449555
_cell_formula_units_Z   1
loop_
 _symmetry_equiv_pos_site_id
 _symmetry_equiv_pos_as_xyz
  1  'x, y, z'
loop_
 _atom_site_type_symbol
 _atom_site_label
 _atom_site_symmetry_multiplicity
 _atom_site_fract_x
 _atom_site_fract_y
 _atom_site_fract_z
 _atom_site_occupancy
  Li  Li0  1  0.69305500  0.08732000  0.25000000  1
  Nd  Nd0  1  0.48326100  0.57437400  0.75000000  1
  Nd  Nd1  1  0.03475300  0.89272300  0.25000000  1
  Nd  Nd2  1  0.02389500  0.07512800  0.75000000  1
  Nd  Nd3  1  0.49540100  0.46509800  0.25000000  1
  Rh  Rh0  1  0.49612200  0.00462900  0.51015100  1
  Rh  Rh1  1  0.99239900  0.49336600  0.50412100  1
  Rh  Rh2  1  0.99239900  0.49336600  0.99587900  1
  Rh  Rh3  1  0.49612200  0.00462900  0.98984900  1
  O  O0  1  0.81961700  0.18177600  0.44957800  1
  O  O1  1  0.30563900  0.30776500  0.55511400  1
  O  O2  1  0.69086600  0.70435700  0.05202900  1
  O  O3  1  0.17875700  0.80785200  0.94694300  1
  O  O4  1  0.17875700  0.80785200  0.55305700  1
  O  O5  1  0.69086600  0.70435700  0.44797100  1
  O  O6  1  0.30563900  0.30776500  0.94488600  1
  O  O7  1  0.81961700  0.18177600  0.05042200  1
  O  O8  1  0.39096400  0.06790000  0.25000000  1
  O  O9  1  0.86662100  0.44824000  0.75000000  1
  O  O10  1  0.11221600  0.52530000  0.25000000  1
  O  O11  1  0.62053400  0.95817600  0.75000000  1
loop_
_geom_bond_atom_site_label_1
_geom_bond_atom_site_label_2
_geom_bond_distance
_geom_bond_site_symmetry_2
Li0 O8 1.726561 1_555
Li0 O0 1.783974 1_555
Li0 O7 1.783974 1_555
Li0 Nd1 2.334679 1_645
Li0 Rh3 2.346899 1_554
Li0 Rh0 2.346899 1_555
Nd0 O9 2.363338 1_555
Nd0 O11 2.373079 1_555
Nd0 O1 2.375174 1_555
Nd0 O6 2.375174 1_555
Nd0 O5 2.715694 1_555
Nd0 O2 2.715694 1_556
Nd0 O4 2.756951 1_555
Nd0 O3 2.756951 1_555
Nd1 O8 2.233878 1_565
Nd1 O10 2.260896 1_555
Nd1 O4 2.549169 1_555
Nd1 O3 2.549169 1_554
Nd1 O0 2.671227 1_465
Nd1 O7 2.671227 1_465
Nd1 O5 2.686947 1_455
Nd1 O2 2.686947 1_455
Nd2 O11 2.371417 1_445
Nd2 O3 2.413386 1_545
Nd2 O4 2.413386 1_545
Nd2 O9 2.449813 1_455
Nd2 O6 2.555627 1_555
Nd2 O1 2.555627 1_555
Nd2 O7 2.697992 1_456
Nd2 O0 2.697992 1_455
Nd3 O10 2.244782 1_555
Nd3 O2 2.333099 1_555
Nd3 O5 2.333099 1_555
Nd3 O8 2.406180 1_555
Nd3 O1 2.742651 1_555
Nd3 O6 2.742651 1_554
O0 Rh1 2.093359 1_555
O0 Rh0 2.127723 1_555
O1 Rh0 2.194634 1_555
O1 Rh1 2.199847 1_455
O2 Rh3 2.218693 1_564
O2 Rh2 2.239894 1_554
O3 Rh3 2.127915 1_565
O3 Rh2 2.133475 1_455
O4 Rh0 2.127915 1_565
O4 Rh1 2.133475 1_455
O5 Rh0 2.218693 1_565
O5 Rh1 2.239894 1_555
O6 Rh3 2.194634 1_555
O6 Rh2 2.199847 1_455
O7 Rh2 2.093359 1_554
O7 Rh3 2.127723 1_554
O8 Rh3 2.143336 1_554
O8 Rh0 2.143336 1_555
O9 Rh2 2.048251 1_555
O9 Rh1 2.048251 1_555
O10 Rh1 2.089552 1_455
O10 Rh2 2.089552 1_454
O11 Rh0 2.015055 1_565
O11 Rh3 2.015055 1_565
