# generated using pymatgen
data_Th3Mo
_symmetry_space_group_name_H-M   'P 1'
_cell_length_a   6.66909862
_cell_length_b   6.66909862
_cell_length_c   5.73065400
_cell_angle_alpha   90.00000000
_cell_angle_beta   90.00000000
_cell_angle_gamma   120.00000611
_symmetry_Int_Tables_number   1
_chemical_formula_structural   Th3Mo
_chemical_formula_sum   'Th6 Mo2'
_cell_volume   220.73391777
_cell_formula_units_Z   2
loop_
 _symmetry_equiv_pos_site_id
 _symmetry_equiv_pos_as_xyz
  1  'x, y, z'
loop_
 _atom_site_type_symbol
 _atom_site_label
 _atom_site_symmetry_multiplicity
 _atom_site_fract_x
 _atom_site_fract_y
 _atom_site_fract_z
 _atom_site_occupancy
  Th  Th0  1  0.82377800  0.17622200  0.75000000  1
  Th  Th1  1  0.35244500  0.17622200  0.75000000  1
  Th  Th2  1  0.82377800  0.64755500  0.75000000  1
  Th  Th3  1  0.17622200  0.82377800  0.25000000  1
  Th  Th4  1  0.64755500  0.82377800  0.25000000  1
  Th  Th5  1  0.17622200  0.35244500  0.25000000  1
  Mo  Mo0  1  0.66666700  0.33333300  0.25000000  1
  Mo  Mo1  1  0.33333300  0.66666700  0.75000000  1
loop_
_geom_bond_atom_site_label_1
_geom_bond_atom_site_label_2
_geom_bond_distance
_geom_bond_site_symmetry_2
Th0 Th1 3.143366 1_555
Th0 Th2 3.143366 1_555
Th0 Th5 3.514780 1_656
Th0 Th4 3.514780 1_545
Th0 Th4 3.514780 1_546
Th0 Th5 3.514780 1_655
Th0 Th1 3.525732 1_655
Th0 Th2 3.525732 1_545
Th1 Th2 3.143366 1_555
Th1 Th3 3.514780 1_545
Th1 Th3 3.514780 1_546
Th1 Th5 3.514787 1_556
Th1 Th5 3.514787 1_555
Th1 Th2 3.525732 1_445
Th2 Th3 3.514780 1_655
Th2 Th3 3.514780 1_656
Th2 Th4 3.514787 1_556
Th2 Th4 3.514787 1_555
Th3 Th4 3.143366 1_555
Th3 Th5 3.143366 1_555
Th3 Th5 3.525732 1_565
Th3 Th4 3.525732 1_455
Th4 Th5 3.143366 1_555
Th4 Th5 3.525732 1_665
Mo0 Th4 3.336369 1_545
Mo0 Th5 3.336369 1_655
Mo0 Th3 3.336375 1_545
Mo0 Th3 3.336375 1_655
Mo0 Th4 3.336382 1_555
Mo0 Th5 3.336382 1_555
Mo0 Th2 3.391708 1_555
Mo0 Th1 3.391708 1_554
Mo0 Th2 3.391708 1_554
Mo0 Th1 3.391708 1_555
Mo0 Th0 3.391708 1_554
Mo0 Th0 3.391708 1_555
Mo1 Th2 3.336369 1_455
Mo1 Th1 3.336369 1_565
Mo1 Th0 3.336375 1_455
Mo1 Th0 3.336375 1_565
Mo1 Th1 3.336382 1_555
Mo1 Th2 3.336382 1_555
Mo1 Th4 3.391708 1_556
Mo1 Th5 3.391708 1_555
Mo1 Th5 3.391708 1_556
Mo1 Th4 3.391708 1_555
Mo1 Th3 3.391708 1_556
Mo1 Th3 3.391708 1_555
