# generated using pymatgen
data_CdH4CS2(NO3)2
_symmetry_space_group_name_H-M   'P 1'
_cell_length_a   7.80212700
_cell_length_b   13.04714800
_cell_length_c   16.51096700
_cell_angle_alpha   90.00000000
_cell_angle_beta   90.00000000
_cell_angle_gamma   90.00000000
_symmetry_Int_Tables_number   1
_chemical_formula_structural   CdH4CS2(NO3)2
_chemical_formula_sum   'Cd8 H32 C8 S16 N16 O48'
_cell_volume   1680.74223509
_cell_formula_units_Z   8
loop_
 _symmetry_equiv_pos_site_id
 _symmetry_equiv_pos_as_xyz
  1  'x, y, z'
loop_
 _atom_site_type_symbol
 _atom_site_label
 _atom_site_symmetry_multiplicity
 _atom_site_fract_x
 _atom_site_fract_y
 _atom_site_fract_z
 _atom_site_occupancy
  Cd  Cd0  1  0.81936300  0.31758200  0.33215900  1
  Cd  Cd1  1  0.68063700  0.81758200  0.66784100  1
  Cd  Cd2  1  0.31936300  0.68241800  0.16784100  1
  Cd  Cd3  1  0.18063700  0.18241800  0.83215900  1
  Cd  Cd4  1  0.18063700  0.68241800  0.66784100  1
  Cd  Cd5  1  0.31936300  0.18241800  0.33215900  1
  Cd  Cd6  1  0.68063700  0.31758200  0.83215900  1
  Cd  Cd7  1  0.81936300  0.81758200  0.16784100  1
  H  H0  1  0.70736300  0.27706800  0.03936600  1
  H  H1  1  0.79263700  0.77706800  0.96063400  1
  H  H2  1  0.20736300  0.72293200  0.46063400  1
  H  H3  1  0.29263700  0.22293200  0.53936600  1
  H  H4  1  0.29263700  0.72293200  0.96063400  1
  H  H5  1  0.20736300  0.22293200  0.03936600  1
  H  H6  1  0.79263700  0.27706800  0.53936600  1
  H  H7  1  0.70736300  0.77706800  0.46063400  1
  H  H8  1  0.66848600  0.38167500  0.10374300  1
  H  H9  1  0.83151400  0.88167500  0.89625700  1
  H  H10  1  0.16848600  0.61832500  0.39625700  1
  H  H11  1  0.33151400  0.11832500  0.60374300  1
  H  H12  1  0.33151400  0.61832500  0.89625700  1
  H  H13  1  0.16848600  0.11832500  0.10374300  1
  H  H14  1  0.83151400  0.38167500  0.60374300  1
  H  H15  1  0.66848600  0.88167500  0.39625700  1
  H  H16  1  0.65715700  0.10640700  0.09017000  1
  H  H17  1  0.84284300  0.60640700  0.90983000  1
  H  H18  1  0.15715700  0.89359300  0.40983000  1
  H  H19  1  0.34284300  0.39359300  0.59017000  1
  H  H20  1  0.34284300  0.89359300  0.90983000  1
  H  H21  1  0.15715700  0.39359300  0.09017000  1
  H  H22  1  0.84284300  0.10640700  0.59017000  1
  H  H23  1  0.65715700  0.60640700  0.40983000  1
  H  H24  1  0.55231300  0.09503600  0.18670200  1
  H  H25  1  0.94768700  0.59503600  0.81329800  1
  H  H26  1  0.05231300  0.90496400  0.31329800  1
  H  H27  1  0.44768700  0.40496400  0.68670200  1
  H  H28  1  0.44768700  0.90496400  0.81329800  1
  H  H29  1  0.05231300  0.40496400  0.18670200  1
  H  H30  1  0.94768700  0.09503600  0.68670200  1
  H  H31  1  0.55231300  0.59503600  0.31329800  1
  C  C0  1  0.61005000  0.24012900  0.15072200  1
  C  C1  1  0.88995000  0.74012900  0.84927800  1
  C  C2  1  0.11005000  0.75987100  0.34927800  1
  C  C3  1  0.38995000  0.25987100  0.65072200  1
  C  C4  1  0.38995000  0.75987100  0.84927800  1
  C  C5  1  0.11005000  0.25987100  0.15072200  1
  C  C6  1  0.88995000  0.24012900  0.65072200  1
  C  C7  1  0.61005000  0.74012900  0.34927800  1
  S  S0  1  0.53441500  0.29813000  0.24077200  1
  S  S1  1  0.96558500  0.79813000  0.75922800  1
  S  S2  1  0.03441500  0.70187000  0.25922800  1
  S  S3  1  0.46558500  0.20187000  0.74077200  1
  S  S4  1  0.46558500  0.70187000  0.75922800  1
  S  S5  1  0.03441500  0.20187000  0.24077200  1
  S  S6  1  0.96558500  0.29813000  0.74077200  1
  S  S7  1  0.53441500  0.79813000  0.25922800  1
  S  S8  1  0.69099600  0.09144500  0.42660900  1
  S  S9  1  0.80900400  0.59144500  0.57339100  1
  S  S10  1  0.19099600  0.90855500  0.07339100  1
  S  S11  1  0.30900400  0.40855500  0.92660900  1
  S  S12  1  0.30900400  0.90855500  0.57339100  1
  S  S13  1  0.19099600  0.40855500  0.42660900  1
  S  S14  1  0.80900400  0.09144500  0.92660900  1
  S  S15  1  0.69099600  0.59144500  0.07339100  1
  N  N0  1  0.66892500  0.30335000  0.09460100  1
  N  N1  1  0.83107500  0.80335000  0.90539900  1
  N  N2  1  0.16892500  0.69665000  0.40539900  1
  N  N3  1  0.33107500  0.19665000  0.59460100  1
  N  N4  1  0.33107500  0.69665000  0.90539900  1
  N  N5  1  0.16892500  0.19665000  0.09460100  1
  N  N6  1  0.83107500  0.30335000  0.59460100  1
  N  N7  1  0.66892500  0.80335000  0.40539900  1
  N  N8  1  0.60733600  0.13977500  0.14177300  1
  N  N9  1  0.89266400  0.63977500  0.85822700  1
  N  N10  1  0.10733600  0.86022500  0.35822700  1
  N  N11  1  0.39266400  0.36022500  0.64177300  1
  N  N12  1  0.39266400  0.86022500  0.85822700  1
  N  N13  1  0.10733600  0.36022500  0.14177300  1
  N  N14  1  0.89266400  0.13977500  0.64177300  1
  N  N15  1  0.60733600  0.63977500  0.35822700  1
  O  O0  1  0.92424700  0.45020700  0.26544400  1
  O  O1  1  0.57575300  0.95020700  0.73455600  1
  O  O2  1  0.42424700  0.54979300  0.23455600  1
  O  O3  1  0.07575300  0.04979300  0.76544400  1
  O  O4  1  0.07575300  0.54979300  0.73455600  1
  O  O5  1  0.42424700  0.04979300  0.26544400  1
  O  O6  1  0.57575300  0.45020700  0.76544400  1
  O  O7  1  0.92424700  0.95020700  0.23455600  1
  O  O8  1  0.65353000  0.37091000  0.43962100  1
  O  O9  1  0.84647000  0.87091000  0.56037900  1
  O  O10  1  0.15353000  0.62909000  0.06037900  1
  O  O11  1  0.34647000  0.12909000  0.93962100  1
  O  O12  1  0.34647000  0.62909000  0.56037900  1
  O  O13  1  0.15353000  0.12909000  0.43962100  1
  O  O14  1  0.84647000  0.37091000  0.93962100  1
  O  O15  1  0.65353000  0.87091000  0.06037900  1
  O  O16  1  0.83253700  0.16701300  0.40537300  1
  O  O17  1  0.66746300  0.66701300  0.59462700  1
  O  O18  1  0.33253700  0.83298700  0.09462700  1
  O  O19  1  0.16746300  0.33298700  0.90537300  1
  O  O20  1  0.16746300  0.83298700  0.59462700  1
  O  O21  1  0.33253700  0.33298700  0.40537300  1
  O  O22  1  0.66746300  0.16701300  0.90537300  1
  O  O23  1  0.83253700  0.66701300  0.09462700  1
  O  O24  1  0.72907200  0.04825100  0.50738400  1
  O  O25  1  0.77092800  0.54825100  0.49261600  1
  O  O26  1  0.22907200  0.95174900  0.99261600  1
  O  O27  1  0.27092800  0.45174900  0.00738400  1
  O  O28  1  0.27092800  0.95174900  0.49261600  1
  O  O29  1  0.22907200  0.45174900  0.50738400  1
  O  O30  1  0.77092800  0.04825100  0.00738400  1
  O  O31  1  0.72907200  0.54825100  0.99261600  1
  O  O32  1  0.68065800  0.01064400  0.36368000  1
  O  O33  1  0.81934200  0.51064400  0.63632000  1
  O  O34  1  0.18065800  0.98935600  0.13632000  1
  O  O35  1  0.31934200  0.48935600  0.86368000  1
  O  O36  1  0.31934200  0.98935600  0.63632000  1
  O  O37  1  0.18065800  0.48935600  0.36368000  1
  O  O38  1  0.81934200  0.01064400  0.86368000  1
  O  O39  1  0.68065800  0.51064400  0.13632000  1
  O  O40  1  0.52871400  0.15181800  0.43022700  1
  O  O41  1  0.97128600  0.65181800  0.56977300  1
  O  O42  1  0.02871400  0.84818200  0.06977300  1
  O  O43  1  0.47128600  0.34818200  0.93022700  1
  O  O44  1  0.47128600  0.84818200  0.56977300  1
  O  O45  1  0.02871400  0.34818200  0.43022700  1
  O  O46  1  0.97128600  0.15181800  0.93022700  1
  O  O47  1  0.52871400  0.65181800  0.06977300  1
loop_
_geom_bond_atom_site_label_1
_geom_bond_atom_site_label_2
_geom_bond_distance
_geom_bond_site_symmetry_2
Cd0 O0 2.208443 1_555
Cd0 O8 2.303541 1_555
Cd0 O16 2.308915 1_555
Cd0 O45 2.334338 1_655
Cd0 S0 2.698847 1_555
Cd0 S5 2.714995 1_655
Cd1 O1 2.208443 1_555
Cd1 O9 2.303541 1_555
Cd1 O17 2.308915 1_555
Cd1 O44 2.334338 1_555
Cd1 S1 2.698847 1_555
Cd1 S4 2.714995 1_555
Cd2 O2 2.208443 1_555
Cd2 O10 2.303541 1_555
Cd2 O18 2.308915 1_555
Cd2 O47 2.334338 1_555
Cd2 S2 2.698847 1_555
Cd2 S7 2.714995 1_555
Cd3 O3 2.208443 1_555
Cd3 O11 2.303541 1_555
Cd3 O19 2.308915 1_555
Cd3 O46 2.334338 1_455
Cd3 S3 2.698847 1_555
Cd3 S6 2.714995 1_455
Cd4 O4 2.208443 1_555
Cd4 O12 2.303541 1_555
Cd4 O20 2.308915 1_555
Cd4 O41 2.334338 1_455
Cd4 S4 2.698847 1_555
Cd4 S1 2.714995 1_455
Cd5 O5 2.208443 1_555
Cd5 O13 2.303541 1_555
Cd5 O21 2.308915 1_555
Cd5 O40 2.334338 1_555
Cd5 S5 2.698847 1_555
Cd5 S0 2.714995 1_555
Cd6 O6 2.208443 1_555
Cd6 O14 2.303541 1_555
Cd6 O22 2.308915 1_555
Cd6 O43 2.334338 1_555
Cd6 S6 2.698847 1_555
Cd6 S3 2.714995 1_555
Cd7 O7 2.208443 1_555
Cd7 O15 2.303541 1_555
Cd7 O23 2.308915 1_555
Cd7 O42 2.334338 1_655
Cd7 S7 2.698847 1_555
Cd7 S2 2.714995 1_655
H0 N0 1.019429 1_555
H1 N1 1.019429 1_555
H2 N2 1.019429 1_555
H3 N3 1.019429 1_555
H4 N4 1.019429 1_555
H5 N5 1.019429 1_555
H6 N6 1.019429 1_555
H7 N7 1.019429 1_555
H8 N0 1.033011 1_555
H9 N1 1.033011 1_555
H10 N2 1.033011 1_555
H11 N3 1.033011 1_555
H12 N4 1.033011 1_555
H13 N5 1.033011 1_555
H14 N6 1.033011 1_555
H15 N7 1.033011 1_555
H16 N8 1.032745 1_555
H17 N9 1.032745 1_555
H18 N10 1.032745 1_555
H19 N11 1.032745 1_555
H20 N12 1.032745 1_555
H21 N13 1.032745 1_555
H22 N14 1.032745 1_555
H23 N15 1.032745 1_555
H24 N8 1.036976 1_555
H24 O5 1.742727 1_555
H25 N9 1.036976 1_555
H25 O4 1.742727 1_655
H26 N10 1.036976 1_555
H26 O7 1.742727 1_455
H27 N11 1.036976 1_555
H27 O6 1.742727 1_555
H28 N12 1.036976 1_555
H28 O1 1.742727 1_555
H29 N13 1.036976 1_555
H29 O0 1.742727 1_455
H30 N14 1.036976 1_555
H30 O3 1.742727 1_655
H31 N15 1.036976 1_555
H31 O2 1.742727 1_555
C0 N8 1.317814 1_555
C0 N0 1.322874 1_555
C0 S0 1.769608 1_555
C1 N9 1.317814 1_555
C1 N1 1.322874 1_555
C1 S1 1.769608 1_555
C2 N10 1.317814 1_555
C2 N2 1.322874 1_555
C2 S2 1.769608 1_555
C3 N11 1.317814 1_555
C3 N3 1.322874 1_555
C3 S3 1.769608 1_555
C4 N12 1.317814 1_555
C4 N4 1.322874 1_555
C4 S4 1.769608 1_555
C5 N13 1.317814 1_555
C5 N5 1.322874 1_555
C5 S5 1.769608 1_555
C6 N14 1.317814 1_555
C6 N6 1.322874 1_555
C6 S6 1.769608 1_555
C7 N15 1.317814 1_555
C7 N7 1.322874 1_555
C7 S7 1.769608 1_555
O16 S8 1.521366 1_555
O17 S9 1.521366 1_555
O18 S10 1.521366 1_555
O19 S11 1.521366 1_555
O20 S12 1.521366 1_555
O21 S13 1.521366 1_555
O22 S14 1.521366 1_555
O23 S15 1.521366 1_555
O24 S8 1.478017 1_555
O25 S9 1.478017 1_555
O26 S10 1.478017 1_556
O27 S11 1.478017 1_554
O28 S12 1.478017 1_555
O29 S13 1.478017 1_555
O30 S14 1.478017 1_554
O31 S15 1.478017 1_556
O32 S8 1.482380 1_555
O33 S9 1.482380 1_555
O34 S10 1.482380 1_555
O35 S11 1.482380 1_555
O36 S12 1.482380 1_555
O37 S13 1.482380 1_555
O38 S14 1.482380 1_555
O39 S15 1.482380 1_555
O40 S8 1.492366 1_555
O41 S9 1.492366 1_555
O42 S10 1.492366 1_555
O43 S11 1.492366 1_555
O44 S12 1.492366 1_555
O45 S13 1.492366 1_555
O46 S14 1.492366 1_555
O47 S15 1.492366 1_555
