# generated using pymatgen
data_YMg3
_symmetry_space_group_name_H-M   'P 1'
_cell_length_a   6.61597042
_cell_length_b   6.61597042
_cell_length_c   21.86457000
_cell_angle_alpha   90.00000000
_cell_angle_beta   90.00000000
_cell_angle_gamma   119.99998421
_symmetry_Int_Tables_number   1
_chemical_formula_structural   YMg3
_chemical_formula_sum   'Y8 Mg24'
_cell_volume   828.81719262
_cell_formula_units_Z   8
loop_
 _symmetry_equiv_pos_site_id
 _symmetry_equiv_pos_as_xyz
  1  'x, y, z'
loop_
 _atom_site_type_symbol
 _atom_site_label
 _atom_site_symmetry_multiplicity
 _atom_site_fract_x
 _atom_site_fract_y
 _atom_site_fract_z
 _atom_site_occupancy
  Y  Y0_0  1  0.33333350  0.16666650  0.25000000  1
  Y  Y0_1  1  0.33333350  0.16666650  0.75000000  1
  Y  Y0_2  1  0.33333350  0.66666650  0.25000000  1
  Y  Y0_3  1  0.33333350  0.66666650  0.75000000  1
  Y  Y0_4  1  0.83333350  0.16666650  0.25000000  1
  Y  Y0_5  1  0.83333350  0.16666650  0.75000000  1
  Y  Y0_6  1  0.83333350  0.66666650  0.25000000  1
  Y  Y0_7  1  0.83333350  0.66666650  0.75000000  1
  Mg  Mg0_0  1  0.33333350  0.16666650  0.00000000  1
  Mg  Mg0_1  1  0.33333350  0.16666650  0.50000000  1
  Mg  Mg0_2  1  0.33333350  0.66666650  0.00000000  1
  Mg  Mg0_3  1  0.33333350  0.66666650  0.50000000  1
  Mg  Mg0_4  1  0.83333350  0.16666650  0.00000000  1
  Mg  Mg0_5  1  0.83333350  0.16666650  0.50000000  1
  Mg  Mg0_6  1  0.83333350  0.66666650  0.00000000  1
  Mg  Mg0_7  1  0.83333350  0.66666650  0.50000000  1
  Mg  Mg1_0  1  0.16666650  0.33333350  0.12105900  1
  Mg  Mg1_1  1  0.16666650  0.33333350  0.62105900  1
  Mg  Mg1_2  1  0.16666650  0.83333350  0.12105900  1
  Mg  Mg1_3  1  0.16666650  0.83333350  0.62105900  1
  Mg  Mg1_4  1  0.66666650  0.33333350  0.12105900  1
  Mg  Mg1_5  1  0.66666650  0.33333350  0.62105900  1
  Mg  Mg1_6  1  0.66666650  0.83333350  0.12105900  1
  Mg  Mg1_7  1  0.66666650  0.83333350  0.62105900  1
  Mg  Mg2_0  1  0.16666650  0.33333350  0.37894100  1
  Mg  Mg2_1  1  0.16666650  0.33333350  0.87894100  1
  Mg  Mg2_2  1  0.16666650  0.83333350  0.37894100  1
  Mg  Mg2_3  1  0.16666650  0.83333350  0.87894100  1
  Mg  Mg2_4  1  0.66666650  0.33333350  0.37894100  1
  Mg  Mg2_5  1  0.66666650  0.33333350  0.87894100  1
  Mg  Mg2_6  1  0.66666650  0.83333350  0.37894100  1
  Mg  Mg2_7  1  0.66666650  0.83333350  0.87894100  1
loop_
_geom_bond_atom_site_label_1
_geom_bond_atom_site_label_2
_geom_bond_distance
_geom_bond_site_symmetry_2
Y0_0 Y0_4 3.307985 1_555
Y0_0 Y0_2 3.307985 1_555
Y0_0 Y0_2 3.307985 1_545
Y0_0 Y0_4 3.307985 1_455
Y0_0 Y0_6 3.307986 1_445
Y0_0 Y0_6 3.307986 1_555
Y0_1 Y0_3 3.307985 1_555
Y0_1 Y0_5 3.307985 1_555
Y0_1 Y0_3 3.307985 1_545
Y0_1 Y0_5 3.307985 1_455
Y0_1 Y0_7 3.307986 1_445
Y0_1 Y0_7 3.307986 1_555
Y0_2 Y0_6 3.307985 1_555
Y0_2 Y0_6 3.307985 1_455
Y0_2 Y0_4 3.307986 1_455
Y0_2 Y0_4 3.307986 1_565
Y0_3 Y0_7 3.307985 1_555
Y0_3 Y0_7 3.307985 1_455
Y0_3 Y0_5 3.307986 1_455
Y0_3 Y0_5 3.307986 1_565
Y0_4 Y0_6 3.307985 1_545
Y0_4 Y0_6 3.307985 1_555
Y0_5 Y0_7 3.307985 1_545
Y0_5 Y0_7 3.307985 1_555
Mg0_0 Mg2_5 3.263997 1_554
Mg0_0 Mg2_3 3.263997 1_544
Mg0_0 Mg1_4 3.263997 1_555
Mg0_0 Mg1_2 3.263997 1_545
Mg0_0 Mg2_1 3.264000 1_554
Mg0_0 Mg1_0 3.264000 1_555
Mg0_0 Mg0_2 3.307985 1_555
Mg0_0 Mg0_4 3.307985 1_555
Mg0_0 Mg0_4 3.307985 1_455
Mg0_0 Mg0_2 3.307985 1_545
Mg0_0 Mg0_6 3.307986 1_555
Mg0_0 Mg0_6 3.307986 1_445
Mg0_1 Mg2_4 3.263997 1_555
Mg0_1 Mg1_5 3.263997 1_555
Mg0_1 Mg1_3 3.263997 1_545
Mg0_1 Mg2_2 3.263997 1_545
Mg0_1 Mg2_0 3.264000 1_555
Mg0_1 Mg1_1 3.264000 1_555
Mg0_1 Mg0_5 3.307985 1_555
Mg0_1 Mg0_3 3.307985 1_555
Mg0_1 Mg0_3 3.307985 1_545
Mg0_1 Mg0_5 3.307985 1_455
Mg0_1 Mg0_7 3.307986 1_445
Mg0_1 Mg0_7 3.307986 1_555
Mg0_2 Mg2_1 3.263997 1_554
Mg0_2 Mg2_7 3.263997 1_554
Mg0_2 Mg1_0 3.263997 1_555
Mg0_2 Mg1_6 3.263997 1_555
Mg0_2 Mg2_3 3.264000 1_554
Mg0_2 Mg1_2 3.264000 1_555
Mg0_2 Mg0_6 3.307985 1_555
Mg0_2 Mg0_6 3.307985 1_455
Mg0_2 Mg0_4 3.307986 1_565
Mg0_2 Mg0_4 3.307986 1_455
Mg0_3 Mg1_1 3.263997 1_555
Mg0_3 Mg2_0 3.263997 1_555
Mg0_3 Mg2_6 3.263997 1_555
Mg0_3 Mg1_7 3.263997 1_555
Mg0_3 Mg1_3 3.264000 1_555
Mg0_3 Mg2_2 3.264000 1_555
Mg0_3 Mg0_7 3.307985 1_555
Mg0_3 Mg0_7 3.307985 1_455
Mg0_3 Mg0_5 3.307986 1_455
Mg0_3 Mg0_5 3.307986 1_565
Mg0_4 Mg2_7 3.263997 1_544
Mg0_4 Mg2_1 3.263997 1_654
Mg0_4 Mg1_0 3.263997 1_655
Mg0_4 Mg1_6 3.263997 1_545
Mg0_4 Mg2_5 3.264000 1_554
Mg0_4 Mg1_4 3.264000 1_555
Mg0_4 Mg0_6 3.307985 1_545
Mg0_4 Mg0_6 3.307985 1_555
Mg0_5 Mg2_6 3.263997 1_545
Mg0_5 Mg2_0 3.263997 1_655
Mg0_5 Mg1_7 3.263997 1_545
Mg0_5 Mg1_1 3.263997 1_655
Mg0_5 Mg2_4 3.264000 1_555
Mg0_5 Mg1_5 3.264000 1_555
Mg0_5 Mg0_7 3.307985 1_545
Mg0_5 Mg0_7 3.307985 1_555
Mg0_6 Mg2_5 3.263997 1_554
Mg0_6 Mg2_3 3.263997 1_654
Mg0_6 Mg1_4 3.263997 1_555
Mg0_6 Mg1_2 3.263997 1_655
Mg0_6 Mg2_7 3.264000 1_554
Mg0_6 Mg1_6 3.264000 1_555
Mg0_7 Mg2_2 3.263997 1_655
Mg0_7 Mg1_5 3.263997 1_555
Mg0_7 Mg1_3 3.263997 1_655
Mg0_7 Mg2_4 3.263997 1_555
Mg0_7 Mg1_7 3.264000 1_555
Mg0_7 Mg2_6 3.264000 1_555
Mg1_0 Mg1_4 3.307985 1_555
Mg1_0 Mg1_2 3.307985 1_555
Mg1_0 Mg1_2 3.307985 1_545
Mg1_0 Mg1_4 3.307985 1_455
Mg1_0 Mg1_6 3.307986 1_555
Mg1_0 Mg1_6 3.307986 1_445
Mg1_0 Y0_2 3.405245 1_555
Mg1_0 Y0_4 3.405245 1_455
Mg1_0 Y0_0 3.405248 1_555
Mg1_1 Mg1_3 3.307985 1_555
Mg1_1 Mg1_5 3.307985 1_555
Mg1_1 Mg1_3 3.307985 1_545
Mg1_1 Mg1_5 3.307985 1_455
Mg1_1 Mg1_7 3.307986 1_445
Mg1_1 Mg1_7 3.307986 1_555
Mg1_1 Y0_5 3.405245 1_455
Mg1_1 Y0_3 3.405245 1_555
Mg1_1 Y0_1 3.405248 1_555
Mg1_2 Mg1_6 3.307985 1_455
Mg1_2 Mg1_6 3.307985 1_555
Mg1_2 Mg1_4 3.307986 1_565
Mg1_2 Mg1_4 3.307986 1_455
Mg1_2 Y0_6 3.405245 1_455
Mg1_2 Y0_0 3.405245 1_565
Mg1_2 Y0_2 3.405248 1_555
Mg1_3 Mg1_7 3.307985 1_455
Mg1_3 Mg1_7 3.307985 1_555
Mg1_3 Mg1_5 3.307986 1_455
Mg1_3 Mg1_5 3.307986 1_565
Mg1_3 Y0_7 3.405245 1_455
Mg1_3 Y0_1 3.405245 1_565
Mg1_3 Y0_3 3.405248 1_555
Mg1_4 Mg1_6 3.307985 1_555
Mg1_4 Mg1_6 3.307985 1_545
Mg1_4 Y0_0 3.405245 1_555
Mg1_4 Y0_6 3.405245 1_555
Mg1_4 Y0_4 3.405248 1_555
Mg1_5 Mg1_7 3.307985 1_555
Mg1_5 Mg1_7 3.307985 1_545
Mg1_5 Y0_7 3.405245 1_555
Mg1_5 Y0_1 3.405245 1_555
Mg1_5 Y0_5 3.405248 1_555
Mg1_6 Y0_4 3.405245 1_565
Mg1_6 Y0_2 3.405245 1_555
Mg1_6 Y0_6 3.405248 1_555
Mg1_7 Y0_3 3.405245 1_555
Mg1_7 Y0_5 3.405245 1_565
Mg1_7 Y0_7 3.405248 1_555
Mg2_0 Mg2_2 3.307985 1_555
Mg2_0 Mg2_4 3.307985 1_555
Mg2_0 Mg2_2 3.307985 1_545
Mg2_0 Mg2_4 3.307985 1_455
Mg2_0 Mg2_6 3.307986 1_555
Mg2_0 Mg2_6 3.307986 1_445
Mg2_0 Y0_4 3.405245 1_455
Mg2_0 Y0_2 3.405245 1_555
Mg2_0 Y0_0 3.405248 1_555
Mg2_1 Mg2_5 3.307985 1_555
Mg2_1 Mg2_3 3.307985 1_555
Mg2_1 Mg2_5 3.307985 1_455
Mg2_1 Mg2_3 3.307985 1_545
Mg2_1 Mg2_7 3.307986 1_445
Mg2_1 Mg2_7 3.307986 1_555
Mg2_1 Y0_3 3.405245 1_555
Mg2_1 Y0_5 3.405245 1_455
Mg2_1 Y0_1 3.405248 1_555
Mg2_2 Mg2_6 3.307985 1_455
Mg2_2 Mg2_6 3.307985 1_555
Mg2_2 Mg2_4 3.307986 1_455
Mg2_2 Mg2_4 3.307986 1_565
Mg2_2 Y0_6 3.405245 1_455
Mg2_2 Y0_0 3.405245 1_565
Mg2_2 Y0_2 3.405248 1_555
Mg2_3 Mg2_7 3.307985 1_455
Mg2_3 Mg2_7 3.307985 1_555
Mg2_3 Mg2_5 3.307986 1_455
Mg2_3 Mg2_5 3.307986 1_565
Mg2_3 Y0_1 3.405245 1_565
Mg2_3 Y0_7 3.405245 1_455
Mg2_3 Y0_3 3.405248 1_555
Mg2_4 Mg2_6 3.307985 1_555
Mg2_4 Mg2_6 3.307985 1_545
Mg2_4 Y0_6 3.405245 1_555
Mg2_4 Y0_0 3.405245 1_555
Mg2_4 Y0_4 3.405248 1_555
Mg2_5 Mg2_7 3.307985 1_555
Mg2_5 Mg2_7 3.307985 1_545
Mg2_5 Y0_1 3.405245 1_555
Mg2_5 Y0_7 3.405245 1_555
Mg2_5 Y0_5 3.405248 1_555
Mg2_6 Y0_2 3.405245 1_555
Mg2_6 Y0_4 3.405245 1_565
Mg2_6 Y0_6 3.405248 1_555
Mg2_7 Y0_3 3.405245 1_555
Mg2_7 Y0_5 3.405245 1_565
Mg2_7 Y0_7 3.405248 1_555
