# generated using pymatgen
data_Li9Mn2Co5O16
_symmetry_space_group_name_H-M   'P 1'
_cell_length_a   2.86692900
_cell_length_b   5.23871600
_cell_length_c   19.60376705
_cell_angle_alpha   82.57097720
_cell_angle_beta   90.00000000
_cell_angle_gamma   90.00000000
_symmetry_Int_Tables_number   1
_chemical_formula_structural   Li9Mn2Co5O16
_chemical_formula_sum   'Li9 Mn2 Co5 O16'
_cell_volume   291.95800139
_cell_formula_units_Z   1
loop_
 _symmetry_equiv_pos_site_id
 _symmetry_equiv_pos_as_xyz
  1  'x, y, z'
loop_
 _atom_site_type_symbol
 _atom_site_label
 _atom_site_symmetry_multiplicity
 _atom_site_fract_x
 _atom_site_fract_y
 _atom_site_fract_z
 _atom_site_occupancy
  Li  Li0  1  0.50000000  0.50219500  0.99822800  1
  Li  Li1  1  0.00000000  0.75012200  0.87210400  1
  Li  Li2  1  0.50000000  0.00158200  0.74841200  1
  Li  Li3  1  0.00000000  0.26749900  0.62411600  1
  Li  Li4  1  0.50000000  0.49847600  0.49813000  1
  Li  Li5  1  0.00000000  0.25177400  0.12262600  1
  Li  Li6  1  0.50000000  0.00561600  0.25384800  1
  Li  Li7  1  0.00000000  0.72218300  0.38292300  1
  Li  Li8  1  0.00000000  0.00209700  0.50012700  1
  Mn  Mn0  1  0.00000000  0.99958100  0.99961500  1
  Mn  Mn1  1  0.00000000  0.49822500  0.25124700  1
  Co  Co0  1  0.50000000  0.26163800  0.87293300  1
  Co  Co1  1  0.00000000  0.49899900  0.74722600  1
  Co  Co2  1  0.50000000  0.79151700  0.61704800  1
  Co  Co3  1  0.50000000  0.20729300  0.38613300  1
  Co  Co4  1  0.50000000  0.73985400  0.12560300  1
  O  O0  1  0.50000000  0.11333300  0.05855800  1
  O  O1  1  0.00000000  0.36846400  0.92941300  1
  O  O2  1  0.50000000  0.62193500  0.80688600  1
  O  O3  1  0.00000000  0.84641200  0.68195800  1
  O  O4  1  0.50000000  0.10609300  0.56831700  1
  O  O5  1  0.00000000  0.83343700  0.18563400  1
  O  O6  1  0.50000000  0.63006900  0.30194100  1
  O  O7  1  0.00000000  0.36950200  0.43351500  1
  O  O8  1  0.50000000  0.88162000  0.94350600  1
  O  O9  1  0.00000000  0.14638700  0.81825100  1
  O  O10  1  0.50000000  0.37100200  0.69452600  1
  O  O11  1  0.00000000  0.64013100  0.57074400  1
  O  O12  1  0.50000000  0.89058300  0.43141400  1
  O  O13  1  0.00000000  0.62677900  0.06988100  1
  O  O14  1  0.50000000  0.37722000  0.19512400  1
  O  O15  1  0.00000000  0.17838100  0.31001200  1
loop_
_geom_bond_atom_site_label_1
_geom_bond_atom_site_label_2
_geom_bond_distance
_geom_bond_site_symmetry_2
Li0 O8 2.133155 1_555
Li0 O1 2.147073 1_655
Li0 O1 2.147073 1_555
Li0 O13 2.165861 1_656
Li0 O13 2.165861 1_556
Li0 O0 2.219383 1_556
Li1 O2 2.088639 1_555
Li1 O2 2.088639 1_455
Li1 O1 2.163078 1_555
Li1 O8 2.176701 1_555
Li1 O8 2.176701 1_455
Li1 O9 2.203918 1_565
Li2 O10 2.081485 1_555
Li2 O2 2.163341 1_545
Li2 O3 2.164860 1_545
Li2 O3 2.164860 1_645
Li2 O9 2.184792 1_555
Li2 O9 2.184792 1_655
Li3 O4 2.050739 1_455
Li3 O4 2.050739 1_555
Li3 O11 2.092199 1_555
Li3 O10 2.108933 1_455
Li3 O10 2.108933 1_555
Li3 O3 2.346310 1_545
Li4 O7 2.082589 1_555
Li4 O7 2.082589 1_655
Li4 O11 2.214738 1_655
Li4 O11 2.214738 1_555
Li4 O12 2.288079 1_555
Li4 O4 2.321036 1_555
Li5 O0 2.096148 1_455
Li5 O0 2.096148 1_555
Li5 O13 2.098403 1_555
Li5 O14 2.179022 1_555
Li5 O14 2.179022 1_455
Li5 O5 2.372462 1_545
Li6 O6 2.068773 1_545
Li6 O15 2.084206 1_555
Li6 O15 2.084206 1_655
Li6 O14 2.129671 1_555
Li6 O5 2.229031 1_545
Li6 O5 2.229031 1_645
Li7 O7 1.980759 1_555
Li7 O12 1.988370 1_455
Li7 O12 1.988370 1_555
Li7 O6 2.237434 1_555
Li7 O6 2.237434 1_455
Li8 O4 2.080132 1_555
Li8 O4 2.080132 1_455
Li8 O12 2.100974 1_545
Li8 O12 2.100974 1_445
Li8 O7 2.181712 1_555
Li8 O11 2.198484 1_545
Mn0 O8 1.955086 1_455
Mn0 O8 1.955086 1_555
Mn0 O0 1.980705 1_466
Mn0 O0 1.980705 1_566
Mn0 O1 2.222770 1_565
Mn0 O13 2.239641 1_556
Mn1 O15 1.906703 1_555
Mn1 O6 1.922760 1_555
Mn1 O6 1.922760 1_455
Mn1 O14 1.961507 1_555
Mn1 O14 1.961507 1_455
Mn1 O5 2.038180 1_555
Co0 O9 1.932835 1_555
Co0 O9 1.932835 1_655
Co0 O1 1.937571 1_655
Co0 O1 1.937571 1_555
Co0 O2 2.146413 1_555
Co0 O8 2.272692 1_545
Co1 O10 1.936729 1_455
Co1 O10 1.936729 1_555
Co1 O2 2.008045 1_555
Co1 O2 2.008045 1_455
Co1 O3 2.085023 1_555
Co1 O9 2.164676 1_555
Co2 O4 1.794805 1_565
Co2 O11 1.921957 1_655
Co2 O11 1.921957 1_555
Co2 O3 1.962488 1_655
Co2 O3 1.962488 1_555
Co2 O10 2.508925 1_555
Co3 O12 1.777612 1_545
Co3 O7 1.960569 1_655
Co3 O7 1.960569 1_555
Co3 O15 2.088790 1_555
Co3 O15 2.088790 1_655
Co3 O6 2.585371 1_555
Co4 O13 1.940697 1_555
Co4 O13 1.940697 1_655
Co4 O5 1.956861 1_655
Co4 O5 1.956861 1_555
Co4 O14 2.190181 1_555
Co4 O0 2.211463 1_565
