# generated using pymatgen
data_Mg6VCu
_symmetry_space_group_name_H-M   'P 1'
_cell_length_a   4.87184800
_cell_length_b   6.10858000
_cell_length_c   10.51797900
_cell_angle_alpha   90.00000000
_cell_angle_beta   90.00000000
_cell_angle_gamma   90.00000000
_symmetry_Int_Tables_number   1
_chemical_formula_structural   Mg6VCu
_chemical_formula_sum   'Mg12 V2 Cu2'
_cell_volume   313.01582554
_cell_formula_units_Z   2
loop_
 _symmetry_equiv_pos_site_id
 _symmetry_equiv_pos_as_xyz
  1  'x, y, z'
loop_
 _atom_site_type_symbol
 _atom_site_label
 _atom_site_symmetry_multiplicity
 _atom_site_fract_x
 _atom_site_fract_y
 _atom_site_fract_z
 _atom_site_occupancy
  Mg  Mg0  1  0.50000000  0.24726400  0.08314800  1
  Mg  Mg1  1  0.50000000  0.75273600  0.08314800  1
  Mg  Mg2  1  0.00000000  0.24991100  0.91178100  1
  Mg  Mg3  1  0.00000000  0.75008900  0.91178100  1
  Mg  Mg4  1  0.00000000  0.50000000  0.17207500  1
  Mg  Mg5  1  0.00000000  0.50000000  0.67176700  1
  Mg  Mg6  1  0.50000000  0.74726400  0.58314800  1
  Mg  Mg7  1  0.50000000  0.25273600  0.58314800  1
  Mg  Mg8  1  0.00000000  0.74991100  0.41178100  1
  Mg  Mg9  1  0.00000000  0.25008900  0.41178100  1
  Mg  Mg10  1  0.00000000  0.00000000  0.67207500  1
  Mg  Mg11  1  0.00000000  0.00000000  0.17176700  1
  V  V0  1  0.50000000  0.50000000  0.83277200  1
  V  V1  1  0.50000000  0.00000000  0.33277200  1
  Cu  Cu0  1  0.50000000  0.50000000  0.33353200  1
  Cu  Cu1  1  0.50000000  0.00000000  0.83353200  1
loop_
_geom_bond_atom_site_label_1
_geom_bond_atom_site_label_2
_geom_bond_distance
_geom_bond_site_symmetry_2
Mg0 Mg11 3.013955 1_655
Mg0 Mg11 3.013955 1_555
Mg0 Mg1 3.020864 1_545
Mg0 V1 3.029004 1_555
Mg0 Mg2 3.030306 1_554
Mg0 Mg2 3.030306 1_654
Mg0 Mg4 3.031843 1_555
Mg0 Mg4 3.031843 1_655
Mg0 V0 3.052631 1_554
Mg0 Mg1 3.087716 1_555
Mg1 Mg11 3.013955 1_665
Mg1 Mg11 3.013955 1_565
Mg1 V1 3.029004 1_565
Mg1 Mg3 3.030306 1_554
Mg1 Mg3 3.030306 1_654
Mg1 Mg4 3.031843 1_555
Mg1 Mg4 3.031843 1_655
Mg1 V0 3.052631 1_554
Mg2 Mg5 2.950719 1_555
Mg2 V0 2.993016 1_555
Mg2 V0 2.993016 1_455
Mg2 Mg3 3.053203 1_545
Mg2 Mg3 3.055377 1_555
Mg2 Mg4 3.135155 1_556
Mg3 Mg5 2.950719 1_555
Mg3 V0 2.993016 1_555
Mg3 V0 2.993016 1_455
Mg3 Mg4 3.135155 1_556
Mg4 Mg8 2.947385 1_555
Mg4 Mg9 2.947385 1_555
Mg5 V0 2.966730 1_455
Mg5 V0 2.966730 1_555
Mg5 Mg6 3.013955 1_555
Mg5 Mg6 3.013955 1_455
Mg5 Mg7 3.013955 1_455
Mg5 Mg7 3.013955 1_555
Mg5 Mg8 3.131797 1_555
Mg5 Mg9 3.131797 1_555
Mg6 Mg7 3.020864 1_555
Mg6 V0 3.029004 1_555
Mg6 Mg8 3.030306 1_655
Mg6 Mg8 3.030306 1_555
Mg6 V1 3.052631 1_565
Mg6 Mg7 3.087716 1_565
Mg7 V0 3.029004 1_555
Mg7 Mg9 3.030306 1_555
Mg7 Mg9 3.030306 1_655
Mg7 V1 3.052631 1_555
Mg8 V1 2.993016 1_465
Mg8 V1 2.993016 1_565
Mg8 Mg9 3.053203 1_555
Mg8 Mg9 3.055377 1_565
Mg9 V1 2.993016 1_555
Mg9 V1 2.993016 1_455
Mg10 Mg2 2.947385 1_555
Mg10 Mg3 2.947385 1_545
Mg10 Mg7 3.031843 1_455
Mg10 Mg7 3.031843 1_555
Mg10 Mg6 3.031843 1_545
Mg10 Mg6 3.031843 1_445
Mg10 Mg5 3.054292 1_545
Mg10 Mg5 3.054292 1_555
Mg10 Mg9 3.135155 1_555
Mg10 Mg8 3.135155 1_545
Mg11 Mg8 2.950719 1_545
Mg11 Mg9 2.950719 1_555
Mg11 V1 2.966730 1_455
Mg11 V1 2.966730 1_555
Mg11 Mg4 3.054292 1_555
Mg11 Mg4 3.054292 1_545
Mg11 Mg2 3.131797 1_554
Mg11 Mg3 3.131797 1_544
Cu0 Mg4 2.969447 1_655
Cu0 Mg4 2.969447 1_555
Cu0 Mg9 2.990251 1_655
Cu0 Mg8 2.990251 1_555
Cu0 Mg9 2.990251 1_555
Cu0 Mg8 2.990251 1_655
Cu0 Mg6 3.028931 1_555
Cu0 Mg7 3.028931 1_555
Cu0 Mg1 3.052703 1_555
Cu0 Mg0 3.052703 1_555
Cu0 V1 3.054300 1_565
Cu0 V1 3.054300 1_555
Cu1 Mg10 2.969447 1_555
Cu1 Mg10 2.969447 1_655
Cu1 Mg2 2.990251 1_655
Cu1 Mg3 2.990251 1_545
Cu1 Mg2 2.990251 1_555
Cu1 Mg3 2.990251 1_645
Cu1 Mg0 3.028931 1_556
Cu1 Mg1 3.028931 1_546
Cu1 Mg7 3.052703 1_555
Cu1 Mg6 3.052703 1_545
Cu1 V0 3.054300 1_545
Cu1 V0 3.054300 1_555
