# generated using pymatgen
data_Li3SbS3
_symmetry_space_group_name_H-M   'P 1'
_cell_length_a   6.35229019
_cell_length_b   6.35229019
_cell_length_c   6.35229103
_cell_angle_alpha   115.14668853
_cell_angle_beta   115.14668853
_cell_angle_gamma   115.14669175
_symmetry_Int_Tables_number   1
_chemical_formula_structural   Li3SbS3
_chemical_formula_sum   'Li3 Sb1 S3'
_cell_volume   141.51878854
_cell_formula_units_Z   1
loop_
 _symmetry_equiv_pos_site_id
 _symmetry_equiv_pos_as_xyz
  1  'x, y, z'
loop_
 _atom_site_type_symbol
 _atom_site_label
 _atom_site_symmetry_multiplicity
 _atom_site_fract_x
 _atom_site_fract_y
 _atom_site_fract_z
 _atom_site_occupancy
  Li  Li0  1  0.54949600  0.98541600  0.54949600  1
  Li  Li1  1  0.54949600  0.54949600  0.98541600  1
  Li  Li2  1  0.98541600  0.54949600  0.54949600  1
  Sb  Sb0  1  0.13373600  0.13373600  0.13373600  1
  S  S0  1  0.97760900  0.62655800  0.97760900  1
  S  S1  1  0.97760900  0.97760900  0.62655800  1
  S  S2  1  0.62655800  0.97760900  0.97760900  1
loop_
_geom_bond_atom_site_label_1
_geom_bond_atom_site_label_2
_geom_bond_distance
_geom_bond_site_symmetry_2
Li0 S0 2.503397 1_565
Li0 S0 2.509758 1_454
Li0 S1 2.577133 1_555
Li0 S2 2.577134 1_555
Li1 S1 2.503397 1_556
Li1 S1 2.509758 1_445
Li1 S0 2.577133 1_555
Li1 S2 2.577133 1_555
Li2 S2 2.503397 1_655
Li2 S2 2.509758 1_544
Li2 S1 2.577133 1_555
Li2 S0 2.577134 1_555
S0 Sb0 2.465731 1_666
S1 Sb0 2.465731 1_666
S2 Sb0 2.465731 1_666
