# generated using pymatgen
data_TiV3O8
_symmetry_space_group_name_H-M   'P 1'
_cell_length_a   3.77392548
_cell_length_b   7.79572752
_cell_length_c   10.39741222
_cell_angle_alpha   89.28478263
_cell_angle_beta   100.60471817
_cell_angle_gamma   75.82221717
_symmetry_Int_Tables_number   1
_chemical_formula_structural   TiV3O8
_chemical_formula_sum   'Ti2 V6 O16'
_cell_volume   290.98180054
_cell_formula_units_Z   2
loop_
 _symmetry_equiv_pos_site_id
 _symmetry_equiv_pos_as_xyz
  1  'x, y, z'
loop_
 _atom_site_type_symbol
 _atom_site_label
 _atom_site_symmetry_multiplicity
 _atom_site_fract_x
 _atom_site_fract_y
 _atom_site_fract_z
 _atom_site_occupancy
  Ti  Ti0  1  0.31065400  0.33388800  0.94917800  1
  Ti  Ti1  1  0.31493800  0.82627700  0.44847200  1
  V  V0  1  0.56488000  0.05240400  0.25877500  1
  V  V1  1  0.56302500  0.55340900  0.75511300  1
  V  V2  1  0.69888200  0.66685000  0.05894900  1
  V  V3  1  0.37809000  0.44644300  0.24562500  1
  V  V4  1  0.40745500  0.95314800  0.74958300  1
  V  V5  1  0.70620500  0.16575800  0.56247000  1
  O  O0  1  0.86515300  0.99641200  0.71342600  1
  O  O1  1  0.86732100  0.48556300  0.21244700  1
  O  O2  1  0.76814100  0.90625400  0.43381300  1
  O  O3  1  0.76389800  0.41230300  0.93518500  1
  O  O4  1  0.63760900  0.36635700  0.62996500  1
  O  O5  1  0.64135600  0.86117500  0.13325000  1
  O  O6  1  0.56227400  0.25443500  0.37174000  1
  O  O7  1  0.55487900  0.75997800  0.86822800  1
  O  O8  1  0.44744200  0.24110200  0.12548500  1
  O  O9  1  0.45097300  0.74101000  0.62567900  1
  O  O10  1  0.36831100  0.13894100  0.86524300  1
  O  O11  1  0.37423600  0.63165900  0.36608800  1
  O  O12  1  0.23913700  0.58951300  0.06288600  1
  O  O13  1  0.24816800  0.08484600  0.56750300  1
  O  O14  1  0.13303800  0.51667900  0.78077300  1
  O  O15  1  0.13393700  0.01559400  0.28011900  1
loop_
_geom_bond_atom_site_label_1
_geom_bond_atom_site_label_2
_geom_bond_distance
_geom_bond_site_symmetry_2
O0 V4 1.939056 1_555
O0 V5 1.944219 1_565
O0 V4 1.954276 1_655
O1 V3 1.841825 1_655
O1 V2 2.019593 1_555
O1 V3 2.031880 1_555
O2 Ti1 1.980377 1_655
O2 Ti1 1.988271 1_555
O2 V0 2.050607 1_565
O2 V5 2.426459 1_565
O3 Ti0 1.980386 1_655
O3 Ti0 1.980479 1_555
O3 V1 2.075537 1_555
O3 V2 2.365446 1_556
O4 V5 1.703224 1_555
O4 V1 1.969738 1_555
O5 V2 1.693731 1_555
O5 V0 1.996376 1_565
O6 V3 1.883871 1_555
O6 V0 1.975615 1_555
O6 V5 2.022617 1_555
O7 V4 1.841096 1_555
O7 V1 2.003434 1_555
O7 V2 2.031959 1_556
O8 Ti0 1.893612 1_554
O8 V0 1.919551 1_555
O8 V3 2.038722 1_555
O9 Ti1 1.885285 1_555
O9 V1 1.888718 1_555
O9 V4 2.102287 1_555
O10 Ti0 1.749179 1_555
O10 V4 1.889413 1_545
O11 Ti1 1.738491 1_555
O11 V3 1.922335 1_555
O12 V2 1.971981 1_455
O12 V2 1.978253 1_555
O12 V3 2.103062 1_555
O12 Ti0 2.313997 1_554
O13 V5 1.977819 1_455
O13 V5 1.988780 1_555
O13 V4 2.056640 1_545
O13 Ti1 2.363602 1_545
O14 V1 1.780873 1_555
O14 V1 2.065402 1_455
O14 Ti0 2.140941 1_555
O15 V0 1.771008 1_555
O15 V0 2.065138 1_455
O15 Ti1 2.170337 1_545
