# generated using pymatgen
data_MoH4C(NO2)2
_symmetry_space_group_name_H-M   'P 1'
_cell_length_a   7.54333400
_cell_length_b   7.81796818
_cell_length_c   13.16958033
_cell_angle_alpha   91.75608899
_cell_angle_beta   90.00000000
_cell_angle_gamma   90.00000000
_symmetry_Int_Tables_number   1
_chemical_formula_structural   MoH4C(NO2)2
_chemical_formula_sum   'Mo6 H24 C6 N12 O24'
_cell_volume   776.29207578
_cell_formula_units_Z   6
loop_
 _symmetry_equiv_pos_site_id
 _symmetry_equiv_pos_as_xyz
  1  'x, y, z'
loop_
 _atom_site_type_symbol
 _atom_site_label
 _atom_site_symmetry_multiplicity
 _atom_site_fract_x
 _atom_site_fract_y
 _atom_site_fract_z
 _atom_site_occupancy
  Mo  Mo0  1  0.51350100  0.50000000  0.25000000  1
  Mo  Mo1  1  0.48649900  0.50000000  0.75000000  1
  Mo  Mo2  1  0.25091200  0.16856300  0.33919100  1
  Mo  Mo3  1  0.25091200  0.83143700  0.16080900  1
  Mo  Mo4  1  0.74908800  0.83143700  0.66080900  1
  Mo  Mo5  1  0.74908800  0.16856300  0.83919100  1
  H  H0  1  0.94021600  0.69840200  0.33905800  1
  H  H1  1  0.94021600  0.30159800  0.16094200  1
  H  H2  1  0.05978400  0.30159800  0.66094200  1
  H  H3  1  0.05978400  0.69840200  0.83905800  1
  H  H4  1  0.95276000  0.71411100  0.47071900  1
  H  H5  1  0.95276000  0.28588900  0.02928100  1
  H  H6  1  0.04724000  0.28588900  0.52928100  1
  H  H7  1  0.04724000  0.71411100  0.97071900  1
  H  H8  1  0.41008700  0.63896700  0.48385400  1
  H  H9  1  0.41008700  0.36103300  0.01614600  1
  H  H10  1  0.58991300  0.36103300  0.51614600  1
  H  H11  1  0.58991300  0.63896700  0.98385400  1
  H  H12  1  0.21201400  0.64365500  0.55161100  1
  H  H13  1  0.21201400  0.35634500  0.94838900  1
  H  H14  1  0.78798600  0.35634500  0.44838900  1
  H  H15  1  0.78798600  0.64365500  0.05161100  1
  H  H16  1  0.66087600  0.02405200  0.40450700  1
  H  H17  1  0.66087600  0.97594800  0.09549300  1
  H  H18  1  0.33912400  0.97594800  0.59549300  1
  H  H19  1  0.33912400  0.02405200  0.90450700  1
  H  H20  1  0.85690900  0.03783400  0.33562800  1
  H  H21  1  0.85690900  0.96216600  0.16437200  1
  H  H22  1  0.14309100  0.96216600  0.66437200  1
  H  H23  1  0.14309100  0.03783400  0.83562800  1
  C  C0  1  0.18834300  0.67568700  0.39821500  1
  C  C1  1  0.18834300  0.32431300  0.10178500  1
  C  C2  1  0.81165700  0.32431300  0.60178500  1
  C  C3  1  0.81165700  0.67568700  0.89821500  1
  C  C4  1  0.63428700  0.00000000  0.25000000  1
  C  C5  1  0.36571300  0.00000000  0.75000000  1
  N  N0  1  0.01581800  0.71695900  0.40227700  1
  N  N1  1  0.01581800  0.28304100  0.09772300  1
  N  N2  1  0.98418200  0.28304100  0.59772300  1
  N  N3  1  0.98418200  0.71695900  0.90227700  1
  N  N4  1  0.27552600  0.64058600  0.48361700  1
  N  N5  1  0.27552600  0.35941400  0.01638300  1
  N  N6  1  0.72447400  0.35941400  0.51638200  1
  N  N7  1  0.72447400  0.64058600  0.98361800  1
  N  N8  1  0.72238400  0.03697400  0.33612500  1
  N  N9  1  0.72238400  0.96302600  0.16387500  1
  N  N10  1  0.27761600  0.96302600  0.66387500  1
  N  N11  1  0.27761600  0.03697400  0.83612500  1
  O  O0  1  0.27065200  0.67013900  0.31186100  1
  O  O1  1  0.27065200  0.32986100  0.18813900  1
  O  O2  1  0.72934800  0.32986100  0.68813900  1
  O  O3  1  0.72934800  0.67013900  0.81186100  1
  O  O4  1  0.46220100  0.00000000  0.25000000  1
  O  O5  1  0.53779900  0.00000000  0.75000000  1
  O  O6  1  0.43726900  0.33843100  0.35123300  1
  O  O7  1  0.43726900  0.66156900  0.14876700  1
  O  O8  1  0.56273100  0.66156900  0.64876700  1
  O  O9  1  0.56273100  0.33843100  0.85123300  1
  O  O10  1  0.13134300  0.00000000  0.25000000  1
  O  O11  1  0.86865700  0.00000000  0.75000000  1
  O  O12  1  0.30342700  0.05459700  0.44600500  1
  O  O13  1  0.30342700  0.94540300  0.05399500  1
  O  O14  1  0.69657300  0.94540300  0.55399500  1
  O  O15  1  0.69657300  0.05459700  0.94600500  1
  O  O16  1  0.06039600  0.28238900  0.37681700  1
  O  O17  1  0.06039600  0.71761100  0.12318300  1
  O  O18  1  0.93960400  0.71761100  0.62318300  1
  O  O19  1  0.93960400  0.28238900  0.87681700  1
  O  O20  1  0.65568300  0.61915100  0.32842100  1
  O  O21  1  0.65568300  0.38084900  0.17157900  1
  O  O22  1  0.34431700  0.38084900  0.67157900  1
  O  O23  1  0.34431700  0.61915100  0.82842100  1
loop_
_geom_bond_atom_site_label_1
_geom_bond_atom_site_label_2
_geom_bond_distance
_geom_bond_site_symmetry_2
Mo0 O21 1.739452 1_555
Mo0 O20 1.739452 1_555
Mo0 O7 1.951109 1_555
Mo0 O6 1.951109 1_555
Mo0 O1 2.392153 1_555
Mo0 O0 2.392153 1_555
Mo1 O22 1.739452 1_555
Mo1 O23 1.739452 1_555
Mo1 O8 1.951109 1_555
Mo1 O9 1.951109 1_555
Mo1 O2 2.392153 1_555
Mo1 O3 2.392153 1_555
Mo2 O12 1.733893 1_555
Mo2 O16 1.753780 1_555
Mo2 O6 1.937015 1_555
Mo2 O10 1.958314 1_555
Mo2 O4 2.358338 1_555
Mo2 O1 2.392358 1_555
Mo3 O13 1.733893 1_555
Mo3 O17 1.753780 1_555
Mo3 O7 1.937015 1_555
Mo3 O10 1.958314 1_565
Mo3 O4 2.358338 1_565
Mo3 O0 2.392358 1_555
Mo4 O14 1.733893 1_555
Mo4 O18 1.753780 1_555
Mo4 O8 1.937015 1_555
Mo4 O11 1.958314 1_565
Mo4 O5 2.358338 1_565
Mo4 O3 2.392358 1_555
Mo5 O15 1.733893 1_555
Mo5 O19 1.753780 1_555
Mo5 O9 1.937015 1_555
Mo5 O11 1.958314 1_555
Mo5 O5 2.358338 1_555
Mo5 O2 2.392358 1_555
H0 N0 1.015896 1_655
H1 N1 1.015896 1_655
H2 N2 1.015896 1_455
H3 N3 1.015896 1_455
H4 N0 1.020011 1_655
H5 N1 1.020011 1_655
H6 N2 1.020011 1_455
H7 N3 1.020011 1_455
H8 N4 1.015123 1_555
H9 N5 1.015123 1_555
H10 N6 1.015123 1_555
H11 N7 1.015123 1_555
H12 N4 1.015196 1_555
H13 N5 1.015196 1_556
H14 N6 1.015185 1_555
H15 N7 1.015185 1_554
H16 N8 1.020817 1_555
H17 N9 1.020817 1_555
H18 N10 1.020817 1_555
H19 N11 1.020817 1_555
H20 N8 1.014812 1_555
H21 N9 1.014812 1_555
H22 N10 1.014812 1_555
H23 N11 1.014812 1_555
C0 O0 1.295254 1_555
C0 N4 1.338542 1_555
C0 N0 1.341489 1_555
C1 O1 1.295254 1_555
C1 N5 1.338542 1_555
C1 N1 1.341489 1_555
C2 O2 1.295254 1_555
C2 N6 1.338553 1_555
C2 N2 1.341489 1_555
C3 O3 1.295254 1_555
C3 N7 1.338553 1_555
C3 N3 1.341489 1_555
C4 O4 1.298102 1_555
C4 N8 1.338492 1_555
C4 N9 1.338492 1_545
C5 O5 1.298102 1_555
C5 N11 1.338492 1_555
C5 N10 1.338492 1_545
