# generated using pymatgen
data_Sr2FeSnO6
_symmetry_space_group_name_H-M   'P 1'
_cell_length_a   4.02989400
_cell_length_b   8.97761435
_cell_length_c   8.11272024
_cell_angle_alpha   63.11098352
_cell_angle_beta   90.00048898
_cell_angle_gamma   90.00088574
_symmetry_Int_Tables_number   1
_chemical_formula_structural   Sr2FeSnO6
_chemical_formula_sum   'Sr4 Fe2 Sn2 O12'
_cell_volume   261.77583906
_cell_formula_units_Z   2
loop_
 _symmetry_equiv_pos_site_id
 _symmetry_equiv_pos_as_xyz
  1  'x, y, z'
loop_
 _atom_site_type_symbol
 _atom_site_label
 _atom_site_symmetry_multiplicity
 _atom_site_fract_x
 _atom_site_fract_y
 _atom_site_fract_z
 _atom_site_occupancy
  Sr  Sr0  1  0.00001600  0.98421900  0.00694800  1
  Sr  Sr1  1  0.00003500  0.98422700  0.50889200  1
  Sr  Sr2  1  0.00001600  0.51577700  0.24116100  1
  Sr  Sr3  1  0.00003500  0.51580100  0.74304100  1
  Fe  Fe0  1  0.50001700  0.75011500  0.87491700  1
  Fe  Fe1  1  0.49959400  0.74983400  0.37487900  1
  Sn  Sn0  1  0.50002300  0.24964600  0.12518800  1
  Sn  Sn1  1  0.50002900  0.25034300  0.62484000  1
  O  O0  1  0.50002300  0.99083200  0.75468000  1
  O  O1  1  0.50002600  0.99081900  0.25454000  1
  O  O2  1  0.50001400  0.50911200  0.99537200  1
  O  O3  1  0.50000300  0.50921500  0.49545900  1
  O  O4  1  0.50001700  0.25000900  0.37499600  1
  O  O5  1  0.50001900  0.25001100  0.87501000  1
  O  O6  1  0.00001500  0.25064000  0.12469900  1
  O  O7  1  0.00001700  0.24938200  0.62531100  1
  O  O8  1  0.50004500  0.74987100  0.11873200  1
  O  O9  1  0.49999700  0.75014200  0.63131000  1
  O  O10  1  0.00002700  0.74999800  0.87501600  1
  O  O11  1  0.00003100  0.75001000  0.37500800  1
loop_
_geom_bond_atom_site_label_1
_geom_bond_atom_site_label_2
_geom_bond_distance
_geom_bond_site_symmetry_2
Fe0 O0 1.927420 1_555
Fe0 O2 1.929710 1_555
Fe0 O9 1.976206 1_555
Fe0 O8 1.977013 1_556
Fe0 O10 2.014907 1_555
Fe0 O10 2.014988 1_655
Fe1 O3 1.926636 1_555
Fe1 O1 1.929567 1_555
Fe1 O11 2.013187 1_555
Fe1 O11 2.016709 1_655
Fe1 O8 2.077900 1_555
Fe1 O9 2.081606 1_555
O0 Sn1 2.077903 1_565
O0 Sr0 2.853409 1_656
O0 Sr0 2.853472 1_556
O0 Sr1 2.854170 1_555
O0 Sr1 2.854263 1_655
O1 Sn0 2.072426 1_565
O1 Sr0 2.864566 1_655
O1 Sr0 2.864598 1_555
O1 Sr1 2.865476 1_555
O1 Sr1 2.865504 1_655
O2 Sn0 2.077542 1_556
O2 Sr3 2.853524 1_555
O2 Sr3 2.853666 1_655
O2 Sr2 2.854397 1_656
O2 Sr2 2.854411 1_556
O3 Sn1 2.072787 1_555
O3 Sr3 2.864404 1_555
O3 Sr3 2.864560 1_655
O3 Sr2 2.865212 1_555
O3 Sr2 2.865309 1_655
O4 Sn0 2.028098 1_555
O4 Sn1 2.028272 1_555
O4 Sr2 2.930584 1_655
O4 Sr1 2.930619 1_545
O4 Sr2 2.930628 1_555
O4 Sr1 2.930757 1_645
O5 Sn0 2.028144 1_556
O5 Sn1 2.028213 1_555
O5 Sr3 2.930713 1_555
O5 Sr0 2.930740 1_546
O5 Sr0 2.930762 1_646
O5 Sr3 2.930764 1_655
O6 Sn0 2.014930 1_455
O6 Sn0 2.014995 1_555
O6 Sr3 2.930321 1_554
O6 Sr2 2.931340 1_555
O6 Sr1 2.948258 1_545
O6 Sr0 2.949595 1_545
O7 Sn1 2.014913 1_455
O7 Sn1 2.015010 1_555
O7 Sr0 2.930209 1_546
O7 Sr1 2.931255 1_545
O7 Sr2 2.947963 1_555
O7 Sr3 2.949460 1_555
O8 Sr2 2.752235 1_655
O8 Sr2 2.752371 1_555
O8 Sr0 2.753615 1_655
O8 Sr0 2.753822 1_555
O9 Sr1 2.752159 1_555
O9 Sr1 2.752348 1_655
O9 Sr3 2.753557 1_555
O9 Sr3 2.753817 1_655
O10 Sr1 2.755847 1_555
O10 Sr2 2.755952 1_556
O10 Sr0 2.757335 1_556
O10 Sr3 2.757388 1_555
O11 Sr3 2.767166 1_555
O11 Sr0 2.767327 1_555
O11 Sr2 2.768845 1_555
O11 Sr1 2.768931 1_555
