# generated using pymatgen
data_Sr3(TaN2)2
_symmetry_space_group_name_H-M   'P 1'
_cell_length_a   8.64961678
_cell_length_b   8.41257374
_cell_length_c   5.44453879
_cell_angle_alpha   89.99999539
_cell_angle_beta   91.02468507
_cell_angle_gamma   119.09751508
_symmetry_Int_Tables_number   1
_chemical_formula_structural   Sr3(TaN2)2
_chemical_formula_sum   'Sr6 Ta4 N8'
_cell_volume   346.10238455
_cell_formula_units_Z   2
loop_
 _symmetry_equiv_pos_site_id
 _symmetry_equiv_pos_as_xyz
  1  'x, y, z'
loop_
 _atom_site_type_symbol
 _atom_site_label
 _atom_site_symmetry_multiplicity
 _atom_site_fract_x
 _atom_site_fract_y
 _atom_site_fract_z
 _atom_site_occupancy
  Sr  Sr0  1  0.25896800  0.00498500  0.05286400  1
  Sr  Sr1  1  0.74103200  0.74601600  0.44713600  1
  Sr  Sr2  1  0.74103200  0.99501500  0.94713600  1
  Sr  Sr3  1  0.25896800  0.25398400  0.55286400  1
  Sr  Sr4  1  0.00000000  0.62117200  0.75000000  1
  Sr  Sr5  1  0.00000000  0.37882800  0.25000000  1
  Ta  Ta0  1  0.60622400  0.20219600  0.55164500  1
  Ta  Ta1  1  0.39377600  0.59597100  0.94835500  1
  Ta  Ta2  1  0.39377600  0.79780400  0.44835500  1
  Ta  Ta3  1  0.60622400  0.40402900  0.05164500  1
  N  N0  1  0.33529100  0.98503100  0.56144200  1
  N  N1  1  0.66470900  0.64973900  0.93855800  1
  N  N2  1  0.66470900  0.01496900  0.43855800  1
  N  N3  1  0.33529100  0.35026100  0.06144200  1
  N  N4  1  0.74538000  0.30417000  0.86968500  1
  N  N5  1  0.25462000  0.55879100  0.63031500  1
  N  N6  1  0.25462000  0.69583000  0.13031500  1
  N  N7  1  0.74538000  0.44120900  0.36968500  1
loop_
_geom_bond_atom_site_label_1
_geom_bond_atom_site_label_2
_geom_bond_distance
_geom_bond_site_symmetry_2
N0 Ta2 1.975324 1_555
N0 Ta0 2.161663 1_565
N0 Sr3 2.647441 1_565
N0 Sr0 2.791703 1_566
N0 Sr0 2.858952 1_565
N0 Sr4 3.210432 1_555
N1 Ta3 1.975308 1_556
N1 Ta1 2.161663 1_555
N1 Sr2 2.647441 1_555
N1 Sr1 2.791703 1_555
N1 Sr1 2.858952 1_556
N1 Sr4 3.210427 1_655
N2 Ta0 1.975324 1_555
N2 Ta2 2.161663 1_545
N2 Sr1 2.647441 1_545
N2 Sr2 2.791703 1_544
N2 Sr2 2.858952 1_545
N2 Sr5 3.210432 1_655
N3 Ta1 1.975308 1_554
N3 Ta3 2.161663 1_555
N3 Sr0 2.647441 1_555
N3 Sr3 2.791703 1_555
N3 Sr3 2.858952 1_554
N3 Sr5 3.210427 1_555
N4 Ta0 2.025896 1_555
N4 Ta3 2.040106 1_556
N4 Sr4 2.593431 1_655
N4 Sr2 2.617016 1_545
N4 Sr5 2.832667 1_656
N5 Ta1 2.025899 1_555
N5 Ta2 2.040094 1_555
N5 Sr4 2.593426 1_555
N5 Sr3 2.617016 1_555
N5 Sr5 2.832668 1_555
N6 Ta2 2.025896 1_555
N6 Ta1 2.040106 1_554
N6 Sr5 2.593431 1_555
N6 Sr0 2.617016 1_565
N6 Sr4 2.832667 1_554
N7 Ta3 2.025899 1_555
N7 Ta0 2.040094 1_555
N7 Sr5 2.593426 1_655
N7 Sr1 2.617016 1_555
N7 Sr4 2.832668 1_655
