# generated using pymatgen
data_Cs2NaAs7
_symmetry_space_group_name_H-M   'P 1'
_cell_length_a   11.01809919
_cell_length_b   10.31019227
_cell_length_c   11.88530038
_cell_angle_alpha   90.00855719
_cell_angle_beta   90.00000000
_cell_angle_gamma   90.00000000
_symmetry_Int_Tables_number   1
_chemical_formula_structural   Cs2NaAs7
_chemical_formula_sum   'Cs8 Na4 As28'
_cell_volume   1350.15490776
_cell_formula_units_Z   4
loop_
 _symmetry_equiv_pos_site_id
 _symmetry_equiv_pos_as_xyz
  1  'x, y, z'
loop_
 _atom_site_type_symbol
 _atom_site_label
 _atom_site_symmetry_multiplicity
 _atom_site_fract_x
 _atom_site_fract_y
 _atom_site_fract_z
 _atom_site_occupancy
  Cs  Cs0  1  0.29745596  0.46169782  0.98849899  1
  Cs  Cs1  1  0.79745596  0.03830218  0.01150101  1
  Cs  Cs2  1  0.70254404  0.53830218  0.01150101  1
  Cs  Cs3  1  0.20254404  0.96169782  0.98849899  1
  Cs  Cs4  1  0.00396724  0.35061970  0.73374404  1
  Cs  Cs5  1  0.50396724  0.14938030  0.26625596  1
  Cs  Cs6  1  -0.00396724  0.64938030  0.26625596  1
  Cs  Cs7  1  0.49603276  0.85061970  0.73374404  1
  Na  Na0  1  0.19801806  0.05547020  0.46462940  1
  Na  Na1  1  0.69801806  0.44452980  0.53537060  1
  Na  Na2  1  0.80198194  0.94452980  0.53537060  1
  Na  Na3  1  0.30198194  0.55547020  0.46462940  1
  As  As0  1  0.50046613  0.17810085  0.90268015  1
  As  As1  1  0.00046613  0.32189915  0.09731985  1
  As  As2  1  0.49953387  0.82189915  0.09731985  1
  As  As3  1  -0.00046613  0.67810085  0.90268015  1
  As  As4  1  0.65263088  0.28439448  0.78745610  1
  As  As5  1  0.15263088  0.21560552  0.21254390  1
  As  As6  1  0.34736912  0.71560552  0.21254390  1
  As  As7  1  0.84736912  0.78439448  0.78745610  1
  As  As8  1  0.33421542  0.18839150  0.77857648  1
  As  As9  1  0.83421542  0.31160850  0.22142352  1
  As  As10  1  0.66578458  0.81160850  0.22142352  1
  As  As11  1  0.16578458  0.68839150  0.77857648  1
  As  As12  1  0.95320847  0.98529947  0.74251527  1
  As  As13  1  0.45320847  0.51470053  0.25748473  1
  As  As14  1  0.04679153  0.01470053  0.25748473  1
  As  As15  1  0.54679153  0.48529947  0.74251527  1
  As  As16  1  0.36591737  0.39810961  0.67019622  1
  As  As17  1  0.86591737  0.10189039  0.32980378  1
  As  As18  1  0.63408263  0.60189039  0.32980378  1
  As  As19  1  0.13408263  0.89810961  0.67019622  1
  As  As20  1  0.42489091  0.18675226  0.58369871  1
  As  As21  1  0.92489091  0.31324774  0.41630129  1
  As  As22  1  0.57510909  0.81324774  0.41630129  1
  As  As23  1  0.07510909  0.68675226  0.58369871  1
  As  As24  1  0.13613190  0.33183849  0.38881090  1
  As  As25  1  0.63613190  0.16816151  0.61118910  1
  As  As26  1  0.86386810  0.66816151  0.61118910  1
  As  As27  1  0.36386810  0.83183849  0.38881090  1
loop_
_geom_bond_atom_site_label_1
_geom_bond_atom_site_label_2
_geom_bond_distance
_geom_bond_site_symmetry_2
As0 As8 2.354215 1_555
As0 As4 2.426477 1_555
As0 Cs1 3.802441 1_556
As0 Cs0 3.819962 1_555
As0 Cs7 3.928343 1_545
As0 Cs3 4.098066 1_545
As0 Cs5 4.331557 1_556
As1 As9 2.354215 1_455
As1 As5 2.426477 1_555
As1 Cs0 3.802441 1_554
As1 Cs1 3.819962 1_455
As1 Cs6 3.928343 1_555
As1 Cs2 4.098066 1_455
As1 Cs4 4.331557 1_554
As2 As6 2.426477 1_555
As2 Cs3 3.802441 1_554
As2 Cs2 3.819962 1_555
As2 Cs5 3.928343 1_565
As2 Cs1 4.098066 1_565
As2 Cs7 4.331557 1_554
As3 As7 2.426477 1_455
As3 Cs2 3.802441 1_456
As3 Cs3 3.819962 1_555
As3 Cs4 3.928343 1_555
As3 Cs0 4.098066 1_555
As3 Cs6 4.331557 1_556
As4 Na1 3.457475 1_555
As4 Cs2 3.774143 1_556
As4 Cs4 3.982332 1_655
As4 Cs1 4.009573 1_556
As5 Na0 3.457475 1_555
As5 Cs3 3.774143 1_544
As5 Cs5 3.982332 1_555
As5 Cs0 4.009573 1_554
As6 Na3 3.457475 1_555
As6 Cs0 3.774143 1_554
As6 Cs6 3.982332 1_555
As6 Cs3 4.009573 1_554
As7 Na2 3.457475 1_555
As7 Cs1 3.774143 1_566
As7 Cs7 3.982332 1_555
As7 Cs2 4.009573 1_556
As8 Cs3 3.714057 1_545
As8 Cs0 3.785123 1_555
As8 Cs7 3.948408 1_545
As8 Cs4 4.040048 1_555
As9 Cs2 3.714057 1_555
As9 Cs1 3.785123 1_555
As9 Cs6 3.948408 1_655
As9 Cs5 4.040048 1_555
As10 As2 2.354215 1_555
As10 As22 2.522521 1_555
As10 As18 2.541137 1_555
As10 Cs1 3.714057 1_565
As10 Cs2 3.785123 1_555
As10 Cs5 3.948408 1_565
As10 Cs6 4.040048 1_655
As11 As3 2.354215 1_555
As11 As23 2.522521 1_555
As11 As19 2.541137 1_555
As11 Cs0 3.714057 1_555
As11 Cs3 3.785123 1_555
As11 Cs4 3.948408 1_555
As11 Cs7 4.040048 1_555
As12 As19 2.349101 1_655
As12 As7 2.436412 1_555
As12 Na2 3.002337 1_555
As12 Cs1 3.669298 1_566
As12 Cs4 3.809258 1_665
As12 Cs3 4.019196 1_655
As13 As18 2.349101 1_555
As13 As6 2.436412 1_555
As13 Na3 3.002337 1_555
As13 Cs0 3.669298 1_554
As13 Cs5 3.809258 1_555
As13 Cs2 4.019196 1_555
As14 As17 2.349101 1_455
As14 As5 2.436412 1_555
As14 Na0 3.002337 1_555
As14 Cs3 3.669298 1_544
As14 Cs6 3.809258 1_545
As14 Cs1 4.019196 1_455
As15 As16 2.349101 1_555
As15 As4 2.436412 1_555
As15 Na1 3.002337 1_555
As15 Cs2 3.669298 1_556
As15 Cs7 3.809258 1_555
As15 Cs0 4.019196 1_555
As16 As20 2.495406 1_555
As16 As8 2.541137 1_555
As16 Na3 3.016457 1_555
As16 Cs0 3.912812 1_555
As16 Cs4 4.088333 1_555
As17 As21 2.495406 1_555
As17 As9 2.541137 1_555
As17 Na2 3.016457 1_545
As17 Cs1 3.912812 1_555
As17 Cs5 4.088333 1_555
As18 As22 2.495406 1_555
As18 Na1 3.016457 1_555
As18 Cs2 3.912812 1_555
As18 Cs6 4.088333 1_655
As19 As23 2.495406 1_555
As19 Na0 3.016457 1_565
As19 Cs3 3.912812 1_555
As19 Cs7 4.088333 1_555
As20 As25 2.358102 1_555
As20 As8 2.522521 1_555
As20 Na0 3.175337 1_555
As20 Cs5 3.891264 1_555
As20 Cs7 3.975785 1_545
As21 As24 2.358102 1_655
As21 As9 2.522521 1_555
As21 Na1 3.175337 1_555
As21 Cs4 3.891264 1_655
As21 Cs6 3.975785 1_655
As22 As27 2.358102 1_555
As22 Na2 3.175337 1_555
As22 Cs7 3.891264 1_555
As22 Cs5 3.975785 1_565
As23 As26 2.358102 1_455
As23 Na3 3.175337 1_555
As23 Cs6 3.891264 1_555
As23 Cs4 3.975785 1_555
As24 As5 2.420204 1_555
As24 Na0 3.065433 1_555
As24 Na3 3.076818 1_555
As24 Cs6 3.901850 1_555
As25 As4 2.420204 1_555
As25 Na1 3.065433 1_555
As25 Na2 3.076818 1_545
As25 Cs7 3.901850 1_545
As26 As7 2.420204 1_555
As26 Na2 3.065433 1_555
As26 Na1 3.076818 1_555
As26 Cs4 3.901850 1_655
As27 As6 2.420204 1_555
As27 Na3 3.065433 1_555
As27 Na0 3.076818 1_565
As27 Cs5 3.901850 1_565
