# generated using pymatgen
data_Mg(CuO2)2
_symmetry_space_group_name_H-M   'P 1'
_cell_length_a   5.90923308
_cell_length_b   5.90923308
_cell_length_c   14.50615315
_cell_angle_alpha   89.73749477
_cell_angle_beta   89.73749477
_cell_angle_gamma   60.55880521
_symmetry_Int_Tables_number   1
_chemical_formula_structural   Mg(CuO2)2
_chemical_formula_sum   'Mg6 Cu12 O24'
_cell_volume   441.12030212
_cell_formula_units_Z   6
loop_
 _symmetry_equiv_pos_site_id
 _symmetry_equiv_pos_as_xyz
  1  'x, y, z'
loop_
 _atom_site_type_symbol
 _atom_site_label
 _atom_site_symmetry_multiplicity
 _atom_site_fract_x
 _atom_site_fract_y
 _atom_site_fract_z
 _atom_site_occupancy
  Mg  Mg0  1  0.65645700  0.65645700  0.04085800  1
  Mg  Mg1  1  0.33340600  0.33340600  0.33285500  1
  Mg  Mg2  1  0.16517900  0.16517900  0.16666700  1
  Mg  Mg3  1  0.66715700  0.66715700  0.66647100  1
  Mg  Mg4  1  0.50020600  0.50020600  0.49981000  1
  Mg  Mg5  1  0.83452400  0.83452400  0.83312300  1
  Cu  Cu0  1  0.16493400  0.66769600  0.16782400  1
  Cu  Cu1  1  0.99321100  0.99321100  0.37983200  1
  Cu  Cu2  1  0.00031800  0.00031800  0.00060600  1
  Cu  Cu3  1  0.66769600  0.16493400  0.16782400  1
  Cu  Cu4  1  0.50003500  0.00027700  0.49990900  1
  Cu  Cu5  1  0.32647500  0.32647500  0.70835400  1
  Cu  Cu6  1  0.00027700  0.50003500  0.49990900  1
  Cu  Cu7  1  0.83311700  0.33497800  0.83195000  1
  Cu  Cu8  1  0.67342800  0.67342800  0.29079800  1
  Cu  Cu9  1  0.33497800  0.83311700  0.83195000  1
  Cu  Cu10  1  0.00747300  0.00747300  0.62136700  1
  Cu  Cu11  1  0.33705300  0.33705300  0.95817600  1
  O  O0  1  0.29345700  0.84239100  0.08621100  1
  O  O1  1  0.99465700  0.99465700  0.24648200  1
  O  O2  1  0.84239100  0.29345700  0.08621100  1
  O  O3  1  0.84312100  0.84312100  0.08753600  1
  O  O4  1  0.63929900  0.16851700  0.42272300  1
  O  O5  1  0.49796800  0.49796800  0.24253000  1
  O  O6  1  0.32782700  0.32782700  0.57669100  1
  O  O7  1  0.50015000  0.02359700  0.24255700  1
  O  O8  1  0.16851700  0.63929900  0.42272300  1
  O  O9  1  0.34122300  0.34122300  0.09184500  1
  O  O10  1  0.17242500  0.17242500  0.42195800  1
  O  O11  1  0.02359700  0.50015000  0.24255700  1
  O  O12  1  0.97875400  0.50118900  0.75587300  1
  O  O13  1  0.82839500  0.82839500  0.57797600  1
  O  O14  1  0.83272100  0.36008000  0.57704800  1
  O  O15  1  0.50118900  0.97875400  0.75587300  1
  O  O16  1  0.65932300  0.65932300  0.90272100  1
  O  O17  1  0.67250700  0.67250700  0.42262000  1
  O  O18  1  0.50132600  0.50132600  0.75318700  1
  O  O19  1  0.36008000  0.83272100  0.57704800  1
  O  O20  1  0.16061800  0.16061800  0.91736200  1
  O  O21  1  0.16210500  0.70319200  0.91657600  1
  O  O22  1  0.00941200  0.00941200  0.75839200  1
  O  O23  1  0.70319200  0.16210500  0.91657600  1
loop_
_geom_bond_atom_site_label_1
_geom_bond_atom_site_label_2
_geom_bond_distance
_geom_bond_site_symmetry_2
Mg0 O0 1.979411 1_555
Mg0 O2 1.979411 1_555
Mg0 O16 2.003895 1_554
Mg0 O3 2.025257 1_555
Mg1 O8 2.048118 1_555
Mg1 O4 2.048118 1_555
Mg1 O7 2.067623 1_555
Mg1 O11 2.067623 1_555
Mg1 O10 2.085083 1_555
Mg1 O5 2.124694 1_555
Mg2 O2 2.041062 1_455
Mg2 O0 2.041062 1_545
Mg2 O7 2.052684 1_555
Mg2 O11 2.052684 1_555
Mg2 O1 2.085196 1_445
Mg2 O9 2.094183 1_555
Mg3 O19 2.048731 1_555
Mg3 O14 2.048731 1_555
Mg3 O12 2.066183 1_555
Mg3 O15 2.066183 1_555
Mg3 O13 2.081728 1_555
Mg3 O18 2.103404 1_555
Mg4 O4 2.048334 1_555
Mg4 O8 2.048334 1_555
Mg4 O19 2.052823 1_555
Mg4 O14 2.052823 1_555
Mg4 O6 2.078025 1_555
Mg4 O17 2.079743 1_555
Mg5 O16 2.048789 1_555
Mg5 O15 2.055039 1_555
Mg5 O12 2.055039 1_555
Mg5 O22 2.083421 1_665
Mg5 O23 2.085896 1_565
Mg5 O21 2.085896 1_655
Cu0 O11 1.909919 1_555
Cu0 O0 1.948169 1_555
Cu0 O9 2.013726 1_555
Cu0 O3 2.029458 1_455
Cu0 O5 2.030387 1_555
Cu0 O1 2.036146 1_455
Cu1 O4 1.923069 1_565
Cu1 O8 1.923069 1_655
Cu1 O10 1.931538 1_665
Cu1 O1 1.934374 1_555
Cu2 O2 1.957933 1_455
Cu2 O0 1.957933 1_545
Cu2 O21 1.959951 1_544
Cu2 O23 1.959951 1_454
Cu2 O20 2.028266 1_554
Cu2 O3 2.035370 1_445
Cu3 O7 1.909919 1_555
Cu3 O2 1.948169 1_555
Cu3 O9 2.013726 1_555
Cu3 O3 2.029458 1_545
Cu3 O5 2.030387 1_555
Cu3 O1 2.036146 1_545
Cu4 O19 1.924272 1_545
Cu4 O4 1.924816 1_555
Cu4 O6 2.023763 1_555
Cu4 O17 2.028806 1_545
Cu4 O10 2.033421 1_555
Cu4 O13 2.037458 1_545
Cu5 O18 1.902608 1_555
Cu5 O6 1.909900 1_555
Cu5 O15 1.916039 1_545
Cu5 O12 1.916039 1_455
Cu6 O14 1.924272 1_455
Cu6 O8 1.924816 1_555
Cu6 O6 2.023763 1_555
Cu6 O17 2.028806 1_455
Cu6 O10 2.033421 1_555
Cu6 O13 2.037458 1_455
Cu7 O12 1.932751 1_555
Cu7 O16 1.963535 1_555
Cu7 O23 1.972534 1_555
Cu7 O22 1.990834 1_655
Cu7 O18 2.057027 1_555
Cu7 O20 2.095730 1_655
Cu8 O17 1.912203 1_555
Cu8 O5 1.926246 1_555
Cu8 O7 1.931398 1_565
Cu8 O11 1.931398 1_655
Cu9 O15 1.932751 1_555
Cu9 O16 1.963535 1_555
Cu9 O21 1.972534 1_555
Cu9 O22 1.990834 1_565
Cu9 O18 2.057027 1_555
Cu9 O20 2.095730 1_565
Cu10 O14 1.923491 1_455
Cu10 O19 1.923491 1_545
Cu10 O13 1.936201 1_445
Cu10 O22 1.987909 1_555
Cu11 O20 1.898537 1_555
Cu11 O9 1.939716 1_556
Cu11 O23 1.977114 1_555
Cu11 O21 1.977114 1_555
