# generated using pymatgen
data_Li9Mn2Co5O16
_symmetry_space_group_name_H-M   'P 1'
_cell_length_a   2.88226800
_cell_length_b   5.87382900
_cell_length_c   17.05430032
_cell_angle_alpha   89.77429753
_cell_angle_beta   90.00000000
_cell_angle_gamma   90.00000000
_symmetry_Int_Tables_number   1
_chemical_formula_structural   Li9Mn2Co5O16
_chemical_formula_sum   'Li9 Mn2 Co5 O16'
_cell_volume   288.72620069
_cell_formula_units_Z   1
loop_
 _symmetry_equiv_pos_site_id
 _symmetry_equiv_pos_as_xyz
  1  'x, y, z'
loop_
 _atom_site_type_symbol
 _atom_site_label
 _atom_site_symmetry_multiplicity
 _atom_site_fract_x
 _atom_site_fract_y
 _atom_site_fract_z
 _atom_site_occupancy
  Li  Li0  1  0.50000000  0.75042000  0.87108500  1
  Li  Li1  1  0.50000000  0.25605900  0.62435400  1
  Li  Li2  1  0.50000000  0.75425800  0.37827500  1
  Li  Li3  1  0.00000000  0.99532900  0.74023900  1
  Li  Li4  1  0.00000000  0.50491000  0.50368600  1
  Li  Li5  1  0.00000000  0.00099500  0.25147800  1
  Li  Li6  1  0.50000000  0.25036100  0.12863700  1
  Li  Li7  1  0.00000000  0.49760600  0.00176500  1
  Li  Li8  1  0.50000000  0.74460900  0.62422300  1
  Mn  Mn0  1  0.00000000  0.00113300  0.00081000  1
  Mn  Mn1  1  0.00000000  0.50326800  0.74206800  1
  Co  Co0  1  0.00000000  0.99342800  0.51403500  1
  Co  Co1  1  0.00000000  0.49779300  0.25234000  1
  Co  Co2  1  0.50000000  0.24172900  0.37621100  1
  Co  Co3  1  0.50000000  0.74853400  0.12923100  1
  Co  Co4  1  0.50000000  0.25093100  0.87090100  1
  O  O0  1  0.50000000  0.77085800  0.99900200  1
  O  O1  1  0.50000000  0.27504200  0.74828300  1
  O  O2  1  0.50000000  0.77522300  0.49983100  1
  O  O3  1  0.00000000  0.02870100  0.87329200  1
  O  O4  1  0.00000000  0.50226300  0.63592300  1
  O  O5  1  0.00000000  0.01865900  0.37462000  1
  O  O6  1  0.50000000  0.26794000  0.25239400  1
  O  O7  1  0.00000000  0.51175000  0.12738400  1
  O  O8  1  0.50000000  0.72345800  0.75202200  1
  O  O9  1  0.50000000  0.22461100  0.49731600  1
  O  O10  1  0.50000000  0.73208100  0.24780800  1
  O  O11  1  0.00000000  0.00188600  0.61940100  1
  O  O12  1  0.00000000  0.48292800  0.37288000  1
  O  O13  1  0.00000000  0.98823100  0.12411900  1
  O  O14  1  0.50000000  0.23060300  0.99882400  1
  O  O15  1  0.00000000  0.47440100  0.86756200  1
loop_
_geom_bond_atom_site_label_1
_geom_bond_atom_site_label_2
_geom_bond_distance
_geom_bond_site_symmetry_2
Li0 O8 2.037325 1_555
Li0 O15 2.170212 1_555
Li0 O15 2.170212 1_655
Li0 O3 2.179588 1_665
Li0 O3 2.179588 1_565
Li0 O0 2.185308 1_555
Li1 O4 2.051688 1_555
Li1 O4 2.051688 1_655
Li1 O11 2.077005 1_555
Li1 O11 2.077005 1_655
Li1 O1 2.116900 1_555
Li1 O9 2.175129 1_555
Li2 O2 2.077191 1_555
Li2 O5 2.119420 1_665
Li2 O5 2.119420 1_565
Li2 O12 2.150933 1_655
Li2 O12 2.150933 1_555
Li2 O10 2.229345 1_555
Li3 O11 2.061016 1_565
Li3 O8 2.159835 1_555
Li3 O8 2.159835 1_455
Li3 O1 2.190175 1_565
Li3 O1 2.190175 1_465
Li3 O3 2.278346 1_565
Li4 O2 2.145085 1_455
Li4 O2 2.145085 1_555
Li4 O9 2.191074 1_455
Li4 O9 2.191074 1_555
Li4 O12 2.235046 1_555
Li4 O4 2.255202 1_555
Li5 O5 2.103070 1_555
Li5 O6 2.129764 1_455
Li5 O6 2.129764 1_555
Li5 O10 2.139289 1_445
Li5 O10 2.139289 1_545
Li5 O13 2.173607 1_545
Li6 O7 2.105796 1_655
Li6 O7 2.105796 1_555
Li6 O13 2.110553 1_545
Li6 O13 2.110553 1_645
Li6 O6 2.113520 1_555
Li6 O14 2.217366 1_554
Li7 O14 2.130648 1_554
Li7 O14 2.130648 1_454
Li7 O7 2.144281 1_555
Li7 O0 2.157459 1_554
Li7 O0 2.157459 1_454
Li7 O15 2.293329 1_554
Li8 O4 2.034894 1_555
Li8 O4 2.034894 1_655
Li8 O11 2.089588 1_665
Li8 O11 2.089588 1_565
Li8 O2 2.128320 1_555
Li8 O8 2.182572 1_555
Mn0 O14 1.973424 1_554
Mn0 O14 1.973424 1_454
Mn0 O0 1.976781 1_444
Mn0 O0 1.976781 1_544
Mn0 O13 2.104015 1_545
Mn0 O3 2.180114 1_554
Mn1 O4 1.810262 1_555
Mn1 O8 1.944271 1_555
Mn1 O8 1.944271 1_455
Mn1 O1 1.970808 1_555
Mn1 O1 1.970808 1_455
Mn1 O15 2.146253 1_555
Co0 O11 1.797826 1_565
Co0 O2 1.944414 1_555
Co0 O2 1.944414 1_455
Co0 O9 1.999772 1_565
Co0 O9 1.999772 1_465
Co0 O5 2.381657 1_565
Co1 O6 1.974759 1_455
Co1 O6 1.974759 1_555
Co1 O10 1.993951 1_455
Co1 O10 1.993951 1_555
Co1 O12 2.057235 1_555
Co1 O7 2.132291 1_555
Co2 O5 1.948000 1_555
Co2 O5 1.948000 1_655
Co2 O12 2.021552 1_655
Co2 O12 2.021552 1_555
Co2 O9 2.067411 1_555
Co2 O6 2.116613 1_555
Co3 O7 2.003150 1_655
Co3 O7 2.003150 1_555
Co3 O13 2.016381 1_555
Co3 O13 2.016381 1_655
Co3 O10 2.024175 1_555
Co3 O0 2.224316 1_554
Co4 O3 1.944743 1_655
Co4 O3 1.944743 1_555
Co4 O15 1.950001 1_555
Co4 O15 1.950001 1_655
Co4 O1 2.095398 1_555
Co4 O14 2.184433 1_555
