# generated using pymatgen
data_Al13(CuSe8)3
_symmetry_space_group_name_H-M   'P 1'
_cell_length_a   7.42514994
_cell_length_b   7.42514994
_cell_length_c   18.31780253
_cell_angle_alpha   89.69556042
_cell_angle_beta   89.69556042
_cell_angle_gamma   60.50049463
_symmetry_Int_Tables_number   1
_chemical_formula_structural   Al13(CuSe8)3
_chemical_formula_sum   'Al13 Cu3 Se24'
_cell_volume   878.97092527
_cell_formula_units_Z   1
loop_
 _symmetry_equiv_pos_site_id
 _symmetry_equiv_pos_as_xyz
  1  'x, y, z'
loop_
 _atom_site_type_symbol
 _atom_site_label
 _atom_site_symmetry_multiplicity
 _atom_site_fract_x
 _atom_site_fract_y
 _atom_site_fract_z
 _atom_site_occupancy
  Al  Al0  1  0.66706600  0.66706600  0.09137500  1
  Al  Al1  1  0.34125100  0.34125100  0.41647700  1
  Al  Al2  1  0.00317900  0.00317900  0.74777500  1
  Al  Al3  1  0.16434400  0.67210600  0.20651400  1
  Al  Al4  1  0.82822900  0.34366200  0.54250500  1
  Al  Al5  1  0.49355800  0.01306100  0.87873900  1
  Al  Al6  1  0.99724600  0.99724600  0.37308200  1
  Al  Al7  1  0.66931700  0.66931700  0.70223100  1
  Al  Al8  1  0.67210600  0.16434400  0.20651400  1
  Al  Al9  1  0.34366200  0.82822900  0.54250500  1
  Al  Al10  1  0.01306100  0.49355800  0.87873900  1
  Al  Al11  1  0.16363500  0.16363500  0.20660000  1
  Al  Al12  1  0.49321500  0.49321500  0.87900800  1
  Cu  Cu0  1  0.99943200  0.99943200  0.99675600  1
  Cu  Cu1  1  0.66618700  0.66618700  0.33556200  1
  Cu  Cu2  1  0.32909000  0.32909000  0.66552800  1
  Se  Se0  1  0.48799700  0.48799700  0.12700300  1
  Se  Se1  1  0.15663900  0.15663900  0.46110400  1
  Se  Se2  1  0.82236300  0.82236300  0.79434600  1
  Se  Se3  1  0.02313400  0.48881300  0.12682700  1
  Se  Se4  1  0.68790500  0.15416400  0.46159600  1
  Se  Se5  1  0.35846600  0.82030300  0.79505700  1
  Se  Se6  1  0.33257600  0.33257600  0.28320100  1
  Se  Se7  1  0.99910600  0.99910600  0.61750600  1
  Se  Se8  1  0.66681300  0.66681300  0.95114600  1
  Se  Se9  1  0.48881300  0.02313400  0.12682700  1
  Se  Se10  1  0.15416400  0.68790500  0.46159600  1
  Se  Se11  1  0.82030300  0.35846600  0.79505700  1
  Se  Se12  1  0.84394800  0.31386300  0.28956100  1
  Se  Se13  1  0.50893700  0.98330300  0.62199900  1
  Se  Se14  1  0.17599000  0.64743600  0.95751800  1
  Se  Se15  1  0.00014200  0.00014200  0.13026500  1
  Se  Se16  1  0.66556100  0.66556100  0.46398600  1
  Se  Se17  1  0.33379700  0.33379700  0.79820000  1
  Se  Se18  1  0.31386300  0.84394800  0.28956100  1
  Se  Se19  1  0.98330300  0.50893700  0.62199900  1
  Se  Se20  1  0.64743600  0.17599000  0.95751800  1
  Se  Se21  1  0.84193000  0.84193000  0.28862600  1
  Se  Se22  1  0.50833000  0.50833000  0.62351000  1
  Se  Se23  1  0.17671200  0.17671200  0.95748700  1
loop_
_geom_bond_atom_site_label_1
_geom_bond_atom_site_label_2
_geom_bond_distance
_geom_bond_site_symmetry_2
Al0 Se0 2.384174 1_555
Al0 Se3 2.392991 1_655
Al0 Se9 2.392991 1_565
Al0 Se8 2.568709 1_554
Al1 Se10 2.393135 1_555
Al1 Se4 2.393135 1_555
Al1 Se6 2.444542 1_555
Al1 Se1 2.500597 1_555
Al2 Se7 2.387135 1_445
Al2 Se5 2.457087 1_545
Al2 Se11 2.457087 1_455
Al2 Se2 2.466510 1_445
Al3 Se15 2.535219 1_565
Al3 Se0 2.552232 1_555
Al3 Se3 2.554417 1_555
Al3 Se21 2.567577 1_455
Al3 Se18 2.570685 1_555
Al3 Se6 2.601732 1_555
Al4 Se16 2.525704 1_555
Al4 Se19 2.525993 1_555
Al4 Se22 2.541731 1_555
Al4 Se4 2.596985 1_555
Al4 Se1 2.597395 1_655
Al4 Se7 2.612847 1_545
Al5 Se20 2.499756 1_555
Al5 Se23 2.501871 1_555
Al5 Se17 2.540539 1_555
Al5 Se8 2.597796 1_545
Al5 Se5 2.618758 1_545
Al5 Se2 2.633234 1_545
Al6 Se21 2.530025 1_555
Al6 Se12 2.551091 1_565
Al6 Se18 2.551091 1_655
Al6 Se4 2.570423 1_565
Al6 Se10 2.570423 1_655
Al6 Se1 2.611740 1_665
Al7 Se13 2.502282 1_555
Al7 Se19 2.502282 1_555
Al7 Se22 2.526048 1_555
Al7 Se2 2.596621 1_555
Al7 Se5 2.627867 1_555
Al7 Se11 2.627867 1_555
Al8 Se15 2.535219 1_655
Al8 Se0 2.552232 1_555
Al8 Se9 2.554417 1_555
Al8 Se21 2.567577 1_545
Al8 Se12 2.570685 1_555
Al8 Se6 2.601732 1_555
Al9 Se16 2.525704 1_555
Al9 Se13 2.525993 1_555
Al9 Se22 2.541731 1_555
Al9 Se10 2.596985 1_555
Al9 Se1 2.597395 1_565
Al9 Se7 2.612847 1_455
Al10 Se14 2.499756 1_555
Al10 Se23 2.501871 1_555
Al10 Se17 2.540539 1_555
Al10 Se8 2.597796 1_455
Al10 Se11 2.618758 1_455
Al10 Se2 2.633234 1_455
Al11 Se15 2.527852 1_555
Al11 Se9 2.559580 1_555
Al11 Se3 2.559580 1_555
Al11 Se12 2.561296 1_455
Al11 Se18 2.561296 1_545
Al11 Se6 2.589026 1_555
Al12 Se14 2.500556 1_555
Al12 Se20 2.500556 1_555
Al12 Se17 2.531898 1_555
Al12 Se8 2.596463 1_555
Al12 Se5 2.616851 1_555
Al12 Se11 2.616851 1_555
Cu0 Se23 2.381007 1_665
Cu0 Se20 2.387847 1_565
Cu0 Se14 2.387847 1_655
Cu0 Se15 2.445664 1_666
Cu1 Se16 2.352410 1_555
Cu1 Se21 2.407894 1_555
Cu1 Se12 2.430428 1_555
Cu1 Se18 2.430428 1_555
Cu2 Se13 2.375923 1_545
Cu2 Se19 2.375923 1_455
Cu2 Se22 2.420232 1_555
Cu2 Se17 2.431381 1_555
