# generated using pymatgen
data_Ca6Mn3Al(SiO6)4
_symmetry_space_group_name_H-M   'P 1'
_cell_length_a   10.60334599
_cell_length_b   10.57571726
_cell_length_c   10.60334599
_cell_angle_alpha   69.91912476
_cell_angle_beta   70.76447601
_cell_angle_gamma   109.20526731
_symmetry_Int_Tables_number   1
_chemical_formula_structural   Ca6Mn3Al(SiO6)4
_chemical_formula_sum   'Ca12 Mn6 Al2 Si8 O48'
_cell_volume   914.04802336
_cell_formula_units_Z   2
loop_
 _symmetry_equiv_pos_site_id
 _symmetry_equiv_pos_as_xyz
  1  'x, y, z'
loop_
 _atom_site_type_symbol
 _atom_site_label
 _atom_site_symmetry_multiplicity
 _atom_site_fract_x
 _atom_site_fract_y
 _atom_site_fract_z
 _atom_site_occupancy
  Ca  Ca0  1  0.13217700  0.38053300  0.24836200  1
  Ca  Ca1  1  0.62889500  0.88053300  0.25164400  1
  Ca  Ca2  1  0.86935800  0.25000000  0.88064200  1
  Ca  Ca3  1  0.13064200  0.75000000  0.11935800  1
  Ca  Ca4  1  0.86782300  0.61946700  0.75163800  1
  Ca  Ca5  1  0.37110500  0.11946700  0.74835600  1
  Ca  Ca6  1  0.36823000  0.25000000  0.38177000  1
  Ca  Ca7  1  0.63177000  0.75000000  0.61823000  1
  Ca  Ca8  1  0.74818600  0.87420200  0.87390500  1
  Ca  Ca9  1  0.74810700  0.37420200  0.37398400  1
  Ca  Ca10  1  0.25181400  0.12579800  0.12609500  1
  Ca  Ca11  1  0.25189300  0.62579800  0.62601600  1
  Mn  Mn0  1  0.50000000  0.00000000  0.00000000  1
  Mn  Mn1  1  0.00000000  0.50000000  0.00000000  1
  Mn  Mn2  1  0.50000000  0.50000000  0.00000000  1
  Mn  Mn3  1  0.50000000  0.00000000  0.50000000  1
  Mn  Mn4  1  0.50000000  0.50000000  0.50000000  1
  Mn  Mn5  1  0.00000000  0.00000000  0.50000000  1
  Al  Al0  1  0.00000000  0.50000000  0.50000000  1
  Al  Al1  1  0.00000000  0.00000000  0.00000000  1
  Si  Si0  1  0.37919000  0.63019300  0.24907200  1
  Si  Si1  1  0.87926600  0.13019300  0.24899700  1
  Si  Si2  1  0.61961900  0.25000000  0.13038100  1
  Si  Si3  1  0.38038100  0.75000000  0.86961900  1
  Si  Si4  1  0.62081000  0.36980700  0.75092800  1
  Si  Si5  1  0.12073400  0.86980700  0.75100300  1
  Si  Si6  1  0.11594100  0.25000000  0.63405900  1
  Si  Si7  1  0.88405900  0.75000000  0.36594100  1
  O  O0  1  0.89699500  0.80147900  0.49546300  1
  O  O1  1  0.29694200  0.30147900  0.59551600  1
  O  O2  1  0.10549900  0.90640700  0.89278200  1
  O  O3  1  0.79918900  0.40640700  0.69909200  1
  O  O4  1  0.10300500  0.19852100  0.50453700  1
  O  O5  1  0.70305800  0.69852100  0.40448400  1
  O  O6  1  0.89450100  0.09359300  0.10721800  1
  O  O7  1  0.20081100  0.59359300  0.30090800  1
  O  O8  1  0.20019600  0.60703900  0.99743000  1
  O  O9  1  0.60446900  0.10703900  0.09315700  1
  O  O10  1  0.69964900  0.00196900  0.39405700  1
  O  O11  1  0.39602600  0.50196900  0.19768000  1
  O  O12  1  0.79980400  0.39296100  0.00257000  1
  O  O13  1  0.39553100  0.89296100  0.90684300  1
  O  O14  1  0.30035100  0.99803100  0.60594300  1
  O  O15  1  0.60397400  0.49803100  0.80232000  1
  O  O16  1  0.92803500  0.61169300  0.38297900  1
  O  O17  1  0.99467100  0.11169300  0.81634200  1
  O  O18  1  0.07652800  0.68696000  0.80587200  1
  O  O19  1  0.49283300  0.18696000  0.88956700  1
  O  O20  1  0.07196500  0.38830700  0.61702100  1
  O  O21  1  0.00532900  0.88830700  0.18365800  1
  O  O22  1  0.92347200  0.31304000  0.19412800  1
  O  O23  1  0.50716700  0.81304000  0.11043300  1
  O  O24  1  0.50631900  0.69436800  0.88248500  1
  O  O25  1  0.57685300  0.19436800  0.31195200  1
  O  O26  1  0.00502100  0.11723100  0.30607700  1
  O  O27  1  0.42330900  0.61723100  0.38779000  1
  O  O28  1  0.49368100  0.30563200  0.11751500  1
  O  O29  1  0.42314700  0.80563200  0.68804800  1
  O  O30  1  0.99497900  0.88276900  0.69392300  1
  O  O31  1  0.57669100  0.38276900  0.61221000  1
  O  O32  1  0.42630800  0.54724800  0.64509100  1
  O  O33  1  0.19233900  0.04724800  0.37906000  1
  O  O34  1  0.57566200  0.12096300  0.57102900  1
  O  O35  1  0.69199200  0.62096300  0.95469900  1
  O  O36  1  0.57369200  0.45275200  0.35490900  1
  O  O37  1  0.80766100  0.95275200  0.62094000  1
  O  O38  1  0.42433800  0.87903700  0.42897100  1
  O  O39  1  0.30800800  0.37903700  0.04530100  1
  O  O40  1  0.30849100  0.92841900  0.14743000  1
  O  O41  1  0.07584900  0.42841900  0.88007200  1
  O  O42  1  0.80390800  0.85396100  0.07030700  1
  O  O43  1  0.92426800  0.35396100  0.44994700  1
  O  O44  1  0.69150900  0.07158100  0.85257000  1
  O  O45  1  0.92415100  0.57158100  0.11992800  1
  O  O46  1  0.19609200  0.14603900  0.92969300  1
  O  O47  1  0.07573200  0.64603900  0.55005300  1
loop_
_geom_bond_atom_site_label_1
_geom_bond_atom_site_label_2
_geom_bond_distance
_geom_bond_site_symmetry_2
Ca0 O39 2.347328 1_555
Ca0 O43 2.362801 1_455
Ca0 O26 2.400516 1_555
Ca0 O22 2.412176 1_455
Ca0 O11 2.436545 1_555
Ca0 O7 2.442881 1_555
Ca0 O8 2.561254 1_554
Ca0 O4 2.577495 1_555
Ca1 O38 2.347328 1_555
Ca1 O42 2.362801 1_555
Ca1 O27 2.400513 1_555
Ca1 O23 2.412173 1_555
Ca1 O10 2.436545 1_565
Ca1 O6 2.442881 1_565
Ca1 O9 2.561254 1_565
Ca1 O5 2.577495 1_555
Ca2 O44 2.370599 1_555
Ca2 O41 2.370599 1_655
Ca2 O17 2.395083 1_555
Ca2 O20 2.395090 1_655
Ca2 O12 2.439027 1_556
Ca2 O9 2.439027 1_556
Ca2 O3 2.561694 1_555
Ca2 O6 2.561694 1_556
Ca3 O40 2.370599 1_555
Ca3 O45 2.370599 1_455
Ca3 O21 2.395083 1_555
Ca3 O16 2.395090 1_455
Ca3 O8 2.439027 1_554
Ca3 O13 2.439027 1_554
Ca3 O7 2.561694 1_555
Ca3 O2 2.561694 1_554
Ca4 O35 2.347328 1_555
Ca4 O47 2.362801 1_655
Ca4 O30 2.400516 1_555
Ca4 O18 2.412176 1_655
Ca4 O15 2.436545 1_555
Ca4 O3 2.442881 1_555
Ca4 O12 2.561254 1_556
Ca4 O0 2.577495 1_555
Ca5 O34 2.347328 1_555
Ca5 O46 2.362801 1_555
Ca5 O31 2.400513 1_555
Ca5 O19 2.412173 1_555
Ca5 O14 2.436545 1_545
Ca5 O2 2.442881 1_545
Ca5 O13 2.561254 1_545
Ca5 O1 2.577495 1_555
Ca6 O33 2.350226 1_555
Ca6 O36 2.350226 1_555
Ca6 O25 2.421551 1_555
Ca6 O28 2.421552 1_555
Ca6 O4 2.448201 1_555
Ca6 O1 2.448201 1_555
Ca6 O14 2.555452 1_545
Ca6 O11 2.555452 1_555
Ca7 O37 2.350226 1_555
Ca7 O32 2.350226 1_555
Ca7 O29 2.421551 1_555
Ca7 O24 2.421552 1_555
Ca7 O0 2.448201 1_555
Ca7 O5 2.448201 1_555
Ca7 O15 2.555452 1_555
Ca7 O10 2.555452 1_565
Ca8 O37 2.300667 1_555
Ca8 O35 2.302146 1_555
Ca8 O42 2.306431 1_556
Ca8 O44 2.315234 1_565
Ca8 O24 2.592499 1_555
Ca8 O23 2.610515 1_556
Ca8 O30 2.633016 1_555
Ca8 O17 2.662531 1_565
Ca9 O36 2.300667 1_555
Ca9 O34 2.302146 1_555
Ca9 O43 2.306431 1_555
Ca9 O45 2.315234 1_555
Ca9 O25 2.592491 1_555
Ca9 O22 2.610503 1_555
Ca9 O31 2.633020 1_555
Ca9 O16 2.662538 1_555
Ca10 O33 2.300667 1_555
Ca10 O39 2.302146 1_555
Ca10 O46 2.306431 1_554
Ca10 O40 2.315234 1_545
Ca10 O28 2.592499 1_555
Ca10 O19 2.610515 1_554
Ca10 O26 2.633016 1_555
Ca10 O21 2.662531 1_545
Ca11 O32 2.300667 1_555
Ca11 O38 2.302146 1_555
Ca11 O47 2.306431 1_555
Ca11 O41 2.315234 1_555
Ca11 O29 2.592491 1_555
Ca11 O18 2.610503 1_555
Ca11 O27 2.633020 1_555
Ca11 O20 2.662538 1_555
Mn0 O40 1.795745 1_545
Mn0 O44 1.795745 1_554
Mn0 O19 1.963161 1_554
Mn0 O23 1.963161 1_545
Mn0 O13 2.036669 1_544
Mn0 O9 2.036669 1_555
Mn1 O41 1.795745 1_554
Mn1 O45 1.795745 1_455
Mn1 O22 1.963164 1_455
Mn1 O18 1.963164 1_554
Mn1 O12 2.036669 1_455
Mn1 O8 2.036669 1_554
Mn2 O39 1.797752 1_555
Mn2 O35 1.797752 1_554
Mn2 O28 1.969278 1_555
Mn2 O24 1.969278 1_554
Mn2 O11 2.032690 1_555
Mn2 O15 2.032690 1_554
Mn3 O34 1.797752 1_555
Mn3 O38 1.797752 1_545
Mn3 O29 1.969273 1_545
Mn3 O25 1.969273 1_555
Mn3 O10 2.032690 1_555
Mn3 O14 2.032690 1_545
Mn4 O32 1.794365 1_555
Mn4 O36 1.794365 1_555
Mn4 O31 1.975309 1_555
Mn4 O27 1.975309 1_555
Mn4 O5 2.049017 1_555
Mn4 O1 2.049017 1_555
Mn5 O33 1.794365 1_555
Mn5 O37 1.794365 1_445
Mn5 O30 1.975317 1_445
Mn5 O26 1.975317 1_555
Mn5 O0 2.049017 1_445
Mn5 O4 2.049017 1_555
Al0 O43 1.827462 1_455
Al0 O47 1.827462 1_555
Al0 O16 1.930702 1_455
Al0 O20 1.930702 1_555
Al0 O7 2.046166 1_555
Al0 O3 2.046166 1_455
Al1 O46 1.827462 1_554
Al1 O42 1.827462 1_445
Al1 O21 1.930708 1_545
Al1 O17 1.930708 1_454
Al1 O6 2.046166 1_455
Al1 O2 2.046166 1_544
O0 Si7 1.670264 1_555
O1 Si6 1.670264 1_555
O2 Si5 1.648221 1_555
O3 Si4 1.648220 1_555
O4 Si6 1.670264 1_555
O5 Si7 1.670264 1_555
O6 Si1 1.648221 1_555
O7 Si0 1.648220 1_555
O8 Si3 1.661100 1_555
O9 Si2 1.661100 1_555
O10 Si1 1.664433 1_555
O11 Si0 1.664427 1_555
O12 Si2 1.661100 1_555
O13 Si3 1.661100 1_555
O14 Si5 1.664433 1_555
O15 Si4 1.664427 1_555
O16 Si7 1.646911 1_555
O17 Si6 1.646912 1_655
O18 Si5 1.658001 1_555
O19 Si4 1.657994 1_555
O20 Si6 1.646911 1_555
O21 Si7 1.646912 1_455
O22 Si1 1.658001 1_555
O23 Si0 1.657994 1_555
O24 Si3 1.652202 1_555
O25 Si2 1.652212 1_555
O26 Si1 1.660774 1_455
O27 Si0 1.660791 1_555
O28 Si2 1.652202 1_555
O29 Si3 1.652212 1_555
O30 Si5 1.660774 1_655
O31 Si4 1.660791 1_555
