# generated using pymatgen
data_LaCrMoO6
_symmetry_space_group_name_H-M   'P 1'
_cell_length_a   5.50069200
_cell_length_b   5.50461180
_cell_length_c   5.50970716
_cell_angle_alpha   119.84844815
_cell_angle_beta   119.74962120
_cell_angle_gamma   90.26028051
_symmetry_Int_Tables_number   1
_chemical_formula_structural   LaCrMoO6
_chemical_formula_sum   'La1 Cr1 Mo1 O6'
_cell_volume   118.41333072
_cell_formula_units_Z   1
loop_
 _symmetry_equiv_pos_site_id
 _symmetry_equiv_pos_as_xyz
  1  'x, y, z'
loop_
 _atom_site_type_symbol
 _atom_site_label
 _atom_site_symmetry_multiplicity
 _atom_site_fract_x
 _atom_site_fract_y
 _atom_site_fract_z
 _atom_site_occupancy
  La  La0  1  0.74503200  0.74103200  0.01820100  1
  Cr  Cr0  1  0.99889800  0.48978500  0.51162800  1
  Mo  Mo0  1  0.50137900  0.99084900  0.51192500  1
  O  O0  1  0.18763900  0.74810800  0.57180400  1
  O  O1  1  0.71467400  0.71301300  0.50986800  1
  O  O2  1  0.29765900  0.28080700  0.48430200  1
  O  O3  1  0.72861700  0.19692000  0.01864200  1
  O  O4  1  0.27588200  0.76891700  0.00313600  1
  O  O5  1  0.79039700  0.22915900  0.47214300  1
loop_
_geom_bond_atom_site_label_1
_geom_bond_atom_site_label_2
_geom_bond_distance
_geom_bond_site_symmetry_2
La0 O5 2.494482 1_565
La0 O3 2.510356 1_565
La0 O2 2.543260 1_554
La0 O4 2.548314 1_555
La0 O1 2.646050 1_554
La0 O0 2.782750 1_655
La0 O0 2.839716 1_554
La0 O1 2.873088 1_555
La0 O4 2.967532 1_655
La0 O3 2.997322 1_555
La0 O2 3.039587 1_665
La0 O5 3.060448 1_554
Cr0 O0 1.544498 1_655
Cr0 O5 1.687504 1_555
Cr0 O4 1.938540 1_656
Cr0 O3 1.949067 1_555
Cr0 O1 1.992130 1_555
Cr0 O2 2.033967 1_655
Mo0 O1 1.930787 1_555
Mo0 O2 1.978702 1_565
Mo0 O3 2.003763 1_566
Mo0 O4 2.003963 1_555
Mo0 O5 2.215721 1_565
Mo0 O0 2.419816 1_555
