# generated using pymatgen
data_DyErMn4
_symmetry_space_group_name_H-M   'P 1'
_cell_length_a   5.09367198
_cell_length_b   5.09367198
_cell_length_c   5.09367198
_cell_angle_alpha   60.00000000
_cell_angle_beta   60.00000000
_cell_angle_gamma   60.00000000
_symmetry_Int_Tables_number   1
_chemical_formula_structural   DyErMn4
_chemical_formula_sum   'Dy1 Er1 Mn4'
_cell_volume   93.44970288
_cell_formula_units_Z   1
loop_
 _symmetry_equiv_pos_site_id
 _symmetry_equiv_pos_as_xyz
  1  'x, y, z'
loop_
 _atom_site_type_symbol
 _atom_site_label
 _atom_site_symmetry_multiplicity
 _atom_site_fract_x
 _atom_site_fract_y
 _atom_site_fract_z
 _atom_site_occupancy
  Dy  Dy0  1  0.25000000  0.25000000  0.25000000  1
  Er  Er0  1  0.00000000  0.00000000  0.00000000  1
  Mn  Mn0  1  0.62506600  0.62506600  0.12480100  1
  Mn  Mn1  1  0.62506600  0.12480100  0.62506600  1
  Mn  Mn2  1  0.12480100  0.62506600  0.62506600  1
  Mn  Mn3  1  0.62506600  0.62506600  0.62506600  1
loop_
_geom_bond_atom_site_label_1
_geom_bond_atom_site_label_2
_geom_bond_distance
_geom_bond_site_symmetry_2
Dy0 Mn1 2.986571 1_555
Dy0 Mn2 2.986571 1_555
Dy0 Mn0 2.986571 1_555
Dy0 Mn3 2.986573 1_554
Dy0 Mn3 2.986573 1_455
Dy0 Mn3 2.986573 1_545
Dy0 Mn0 2.986576 1_545
Dy0 Mn0 2.986576 1_455
Dy0 Mn2 2.986576 1_545
Dy0 Mn1 2.986576 1_554
Dy0 Mn1 2.986576 1_455
Dy0 Mn2 2.986576 1_554
Dy0 Er0 3.119224 1_555
Dy0 Er0 3.119224 1_556
Dy0 Er0 3.119224 1_565
Dy0 Er0 3.119224 1_655
Er0 Mn0 2.986285 1_455
Er0 Mn2 2.986285 1_545
Er0 Mn1 2.986285 1_455
Er0 Mn2 2.986285 1_554
Er0 Mn0 2.986285 1_545
Er0 Mn1 2.986285 1_554
Er0 Mn3 2.986287 1_454
Er0 Mn3 2.986287 1_445
Er0 Mn3 2.986287 1_544
Er0 Mn2 2.986289 1_544
Er0 Mn0 2.986289 1_445
Er0 Mn1 2.986289 1_454
Mn0 Mn2 2.545486 1_654
Mn0 Mn1 2.545486 1_564
Mn0 Mn3 2.545486 1_554
Mn0 Mn3 2.548186 1_555
Mn0 Mn1 2.548186 1_555
Mn0 Mn2 2.548186 1_555
Mn1 Mn2 2.545486 1_645
Mn1 Mn3 2.545486 1_545
Mn1 Mn3 2.548186 1_555
Mn1 Mn2 2.548186 1_555
Mn2 Mn3 2.545486 1_455
Mn2 Mn3 2.548186 1_555
