# generated using pymatgen
data_Nd2MoO6
_symmetry_space_group_name_H-M   'P 1'
_cell_length_a   16.51126412
_cell_length_b   16.51126412
_cell_length_c   16.51126412
_cell_angle_alpha   159.98680685
_cell_angle_beta   159.98680685
_cell_angle_gamma   28.45066095
_symmetry_Int_Tables_number   1
_chemical_formula_structural   Nd2MoO6
_chemical_formula_sum   'Nd8 Mo4 O24'
_cell_volume   526.96658603
_cell_formula_units_Z   4
loop_
 _symmetry_equiv_pos_site_id
 _symmetry_equiv_pos_as_xyz
  1  'x, y, z'
loop_
 _atom_site_type_symbol
 _atom_site_label
 _atom_site_symmetry_multiplicity
 _atom_site_fract_x
 _atom_site_fract_y
 _atom_site_fract_z
 _atom_site_occupancy
  Nd  Nd0  1  0.83738900  0.83738900  0.00000000  1
  Nd  Nd1  1  0.58738900  0.08738900  0.50000000  1
  Nd  Nd2  1  0.41261100  0.91261100  0.50000000  1
  Nd  Nd3  1  0.66261100  0.66261100  0.00000000  1
  Nd  Nd4  1  0.91261100  0.41261100  0.50000000  1
  Nd  Nd5  1  0.16261100  0.16261100  0.00000000  1
  Nd  Nd6  1  0.33738900  0.33738900  0.00000000  1
  Nd  Nd7  1  0.08738900  0.58738900  0.50000000  1
  Mo  Mo0  1  0.00000000  0.00000000  0.00000000  1
  Mo  Mo1  1  0.75000000  0.25000000  0.50000000  1
  Mo  Mo2  1  0.25000000  0.75000000  0.50000000  1
  Mo  Mo3  1  0.50000000  0.50000000  0.00000000  1
  O  O0  1  0.86863900  0.37500000  0.99363900  1
  O  O1  1  0.12500000  0.63136100  0.00636100  1
  O  O2  1  0.62500000  0.11863900  0.99363900  1
  O  O3  1  0.38136100  0.87500000  0.00636100  1
  O  O4  1  0.88136100  0.87500000  0.50636100  1
  O  O5  1  0.62500000  0.61863900  0.49363900  1
  O  O6  1  0.12500000  0.13136100  0.50636100  1
  O  O7  1  0.36863900  0.37500000  0.49363900  1
  O  O8  1  0.04469300  0.53974300  0.15712100  1
  O  O9  1  0.61242800  0.11737800  0.15712100  1
  O  O10  1  0.96025700  0.45530700  0.84287900  1
  O  O11  1  0.20530700  0.86242800  0.99505100  1
  O  O12  1  0.36737800  0.36242800  0.65712100  1
  O  O13  1  0.11242800  0.95530700  0.49505100  1
  O  O14  1  0.46025700  0.61737800  0.50494900  1
  O  O15  1  0.88262200  0.03974300  0.49505100  1
  O  O16  1  0.54469300  0.38757200  0.50494900  1
  O  O17  1  0.78974300  0.79469300  0.65712100  1
  O  O18  1  0.13757200  0.13262200  0.34287900  1
  O  O19  1  0.70530700  0.71025700  0.34287900  1
  O  O20  1  0.38262200  0.88757200  0.84287900  1
  O  O21  1  0.63757200  0.29469300  0.00494900  1
  O  O22  1  0.28974300  0.63262200  0.99505100  1
  O  O23  1  0.86737800  0.21025700  0.00494900  1
loop_
_geom_bond_atom_site_label_1
_geom_bond_atom_site_label_2
_geom_bond_distance
_geom_bond_site_symmetry_2
Nd0 O2 2.337028 1_564
Nd0 O1 2.337028 1_655
Nd0 O5 2.381415 1_554
Nd0 O6 2.381415 1_665
Nd0 O14 2.666623 1_554
Nd0 O13 2.666643 1_655
Nd0 O9 2.697016 1_565
Nd0 O10 2.697016 1_554
Nd1 O0 2.337028 1_555
Nd1 O3 2.337028 1_545
Nd1 O7 2.381415 1_555
Nd1 O4 2.381415 1_545
Nd1 O12 2.666630 1_555
Nd1 O19 2.666630 1_545
Nd1 O23 2.697003 1_556
Nd1 O11 2.697022 1_544
Nd2 O2 2.337028 1_565
Nd2 O1 2.337028 1_555
Nd2 O6 2.381415 1_565
Nd2 O5 2.381415 1_555
Nd2 O18 2.666630 1_565
Nd2 O17 2.666630 1_555
Nd2 O22 2.697003 1_554
Nd2 O21 2.697022 1_566
Nd3 O3 2.337028 1_555
Nd3 O0 2.337028 1_554
Nd3 O7 2.381415 1_554
Nd3 O4 2.381415 1_555
Nd3 O15 2.666623 1_565
Nd3 O16 2.666643 1_554
Nd3 O20 2.697016 1_554
Nd3 O8 2.697016 1_655
Nd4 O6 2.337028 1_655
Nd4 O5 2.337028 1_555
Nd4 O1 2.381415 1_656
Nd4 O2 2.381415 1_554
Nd4 O22 2.666623 1_655
Nd4 O21 2.666643 1_555
Nd4 O17 2.697016 1_555
Nd4 O18 2.697016 1_655
Nd5 O7 2.337028 1_555
Nd5 O4 2.337028 1_444
Nd5 O3 2.381415 1_545
Nd5 O0 2.381415 1_454
Nd5 O20 2.666630 1_544
Nd5 O8 2.666630 1_555
Nd5 O15 2.697003 1_454
Nd5 O16 2.697022 1_555
Nd6 O5 2.337028 1_555
Nd6 O6 2.337028 1_554
Nd6 O1 2.381415 1_555
Nd6 O2 2.381415 1_554
Nd6 O9 2.666630 1_555
Nd6 O10 2.666630 1_454
Nd6 O14 2.697003 1_555
Nd6 O13 2.697022 1_544
Nd7 O7 2.337028 1_555
Nd7 O4 2.337028 1_455
Nd7 O0 2.381415 1_454
Nd7 O3 2.381415 1_556
Nd7 O23 2.666623 1_455
Nd7 O11 2.666643 1_555
Nd7 O12 2.697016 1_555
Nd7 O19 2.697016 1_455
Mo0 O11 1.813594 1_544
Mo0 O18 1.813604 1_555
Mo0 O17 1.813604 1_444
Mo0 O23 1.813615 1_455
Mo1 O16 1.813594 1_555
Mo1 O10 1.813604 1_555
Mo1 O9 1.813604 1_555
Mo1 O15 1.813615 1_555
Mo2 O13 1.813594 1_555
Mo2 O8 1.813604 1_555
Mo2 O20 1.813604 1_555
Mo2 O14 1.813615 1_555
Mo3 O21 1.813594 1_555
Mo3 O19 1.813604 1_555
Mo3 O12 1.813604 1_554
Mo3 O22 1.813615 1_554
