# generated using pymatgen
data_Li9Mn2Co5O16
_symmetry_space_group_name_H-M   'P 1'
_cell_length_a   7.73583946
_cell_length_b   7.73583946
_cell_length_c   5.87660151
_cell_angle_alpha   68.23220915
_cell_angle_beta   68.23220915
_cell_angle_gamma   97.94704066
_symmetry_Int_Tables_number   1
_chemical_formula_structural   Li9Mn2Co5O16
_chemical_formula_sum   'Li9 Mn2 Co5 O16'
_cell_volume   287.38587923
_cell_formula_units_Z   1
loop_
 _symmetry_equiv_pos_site_id
 _symmetry_equiv_pos_as_xyz
  1  'x, y, z'
loop_
 _atom_site_type_symbol
 _atom_site_label
 _atom_site_symmetry_multiplicity
 _atom_site_fract_x
 _atom_site_fract_y
 _atom_site_fract_z
 _atom_site_occupancy
  Li  Li0  1  0.62295600  0.86717900  0.50473000  1
  Li  Li1  1  0.13282100  0.37704400  0.49527000  1
  Li  Li2  1  0.50000000  0.50000000  0.50000000  1
  Li  Li3  1  0.00000000  0.00000000  0.50000000  1
  Li  Li4  1  0.37704400  0.13282100  0.49527000  1
  Li  Li5  1  0.86717900  0.62295600  0.50473000  1
  Li  Li6  1  0.24858300  0.75141700  0.50000000  1
  Li  Li7  1  0.75141700  0.24858300  0.50000000  1
  Li  Li8  1  0.50000000  0.50000000  0.00000000  1
  Mn  Mn0  1  0.74934700  0.25065300  0.00000000  1
  Mn  Mn1  1  0.25065300  0.74934700  0.00000000  1
  Co  Co0  1  0.62147700  0.86483900  0.00448300  1
  Co  Co1  1  0.13516100  0.37852300  0.99551700  1
  Co  Co2  1  0.00000000  0.00000000  0.00000000  1
  Co  Co3  1  0.37852300  0.13516100  0.99551700  1
  Co  Co4  1  0.86483900  0.62147700  0.00448300  1
  O  O0  1  0.87774800  0.13264700  0.22324400  1
  O  O1  1  0.37017100  0.64198500  0.22991700  1
  O  O2  1  0.75216100  0.75216100  0.24134800  1
  O  O3  1  0.24295600  0.24295600  0.22997500  1
  O  O4  1  0.64198500  0.37017100  0.22991700  1
  O  O5  1  0.13264700  0.87774800  0.22324400  1
  O  O6  1  0.51948200  0.01407400  0.22040300  1
  O  O7  1  0.01407400  0.51948200  0.22040300  1
  O  O8  1  0.35801500  0.62982900  0.77008300  1
  O  O9  1  0.86735300  0.12225200  0.77675600  1
  O  O10  1  0.24783900  0.24783900  0.75865200  1
  O  O11  1  0.75704400  0.75704400  0.77002500  1
  O  O12  1  0.12225200  0.86735300  0.77675600  1
  O  O13  1  0.62982900  0.35801500  0.77008300  1
  O  O14  1  0.98592600  0.48051800  0.77959700  1
  O  O15  1  0.48051800  0.98592600  0.77959700  1
loop_
_geom_bond_atom_site_label_1
_geom_bond_atom_site_label_2
_geom_bond_distance
_geom_bond_site_symmetry_2
Li0 O2 2.075156 1_555
Li0 O8 2.113983 1_555
Li0 O6 2.135209 1_565
Li0 O11 2.165884 1_555
Li0 O15 2.174267 1_555
Li0 O0 2.186675 1_565
Li1 O10 2.075156 1_555
Li1 O1 2.113983 1_555
Li1 O14 2.135209 1_455
Li1 O3 2.165884 1_555
Li1 O7 2.174267 1_555
Li1 O9 2.186675 1_455
Li2 O2 2.114291 1_555
Li2 O10 2.114291 1_555
Li2 O8 2.220036 1_555
Li2 O13 2.220036 1_555
Li2 O4 2.220036 1_555
Li2 O1 2.220036 1_555
Li3 O3 2.045002 1_555
Li3 O11 2.045002 1_445
Li3 O0 2.182616 1_455
Li3 O5 2.182616 1_545
Li3 O9 2.182616 1_455
Li3 O12 2.182616 1_545
Li4 O10 2.075156 1_555
Li4 O4 2.113983 1_555
Li4 O15 2.135209 1_545
Li4 O3 2.165884 1_555
Li4 O6 2.174267 1_555
Li4 O12 2.186675 1_545
Li5 O2 2.075156 1_555
Li5 O13 2.113983 1_555
Li5 O7 2.135209 1_655
Li5 O11 2.165884 1_555
Li5 O14 2.174267 1_555
Li5 O5 2.186675 1_655
Li6 O8 2.056679 1_555
Li6 O1 2.056679 1_555
Li6 O12 2.133054 1_555
Li6 O5 2.133054 1_555
Li6 O6 2.238850 1_565
Li6 O14 2.238850 1_455
Li7 O13 2.056679 1_555
Li7 O4 2.056679 1_555
Li7 O9 2.133054 1_555
Li7 O0 2.133054 1_555
Li7 O7 2.238850 1_655
Li7 O15 2.238850 1_545
Li8 O1 2.107116 1_555
Li8 O4 2.107116 1_555
Li8 O8 2.107116 1_554
Li8 O13 2.107116 1_554
Li8 O11 2.157470 1_554
Li8 O3 2.157470 1_555
Mn0 O4 1.917484 1_555
Mn0 O13 1.917484 1_554
Mn0 O14 1.955185 1_554
Mn0 O6 1.955185 1_555
Mn0 O9 1.967248 1_554
Mn0 O0 1.967248 1_555
Mn1 O1 1.917484 1_555
Mn1 O8 1.917484 1_554
Mn1 O15 1.955185 1_554
Mn1 O7 1.955185 1_555
Mn1 O12 1.967248 1_554
Mn1 O5 1.967248 1_555
Co0 O11 1.927650 1_554
Co0 O1 1.993893 1_555
Co0 O2 2.026533 1_555
Co0 O6 2.039893 1_565
Co0 O15 2.060614 1_554
Co0 O9 2.112410 1_564
Co1 O3 1.927650 1_556
Co1 O8 1.993893 1_555
Co1 O10 2.026533 1_555
Co1 O14 2.039893 1_455
Co1 O7 2.060614 1_556
Co1 O0 2.112410 1_456
Co2 O0 2.003760 1_455
Co2 O5 2.003760 1_545
Co2 O9 2.003760 1_454
Co2 O12 2.003760 1_544
Co2 O10 2.076810 1_554
Co2 O2 2.076810 1_445
Co3 O3 1.927650 1_556
Co3 O13 1.993893 1_555
Co3 O10 2.026533 1_555
Co3 O15 2.039893 1_545
Co3 O6 2.060614 1_556
Co3 O5 2.112410 1_546
Co4 O11 1.927650 1_554
Co4 O4 1.993893 1_555
Co4 O2 2.026533 1_555
Co4 O7 2.039893 1_655
Co4 O14 2.060614 1_554
Co4 O12 2.112410 1_654
