# generated using pymatgen
data_V17Pb3O32
_symmetry_space_group_name_H-M   'P 1'
_cell_length_a   3.42726982
_cell_length_b   12.11865051
_cell_length_c   18.09614225
_cell_angle_alpha   64.83412962
_cell_angle_beta   73.28497773
_cell_angle_gamma   73.63290736
_symmetry_Int_Tables_number   1
_chemical_formula_structural   V17Pb3O32
_chemical_formula_sum   'V17 Pb3 O32'
_cell_volume   640.39611818
_cell_formula_units_Z   1
loop_
 _symmetry_equiv_pos_site_id
 _symmetry_equiv_pos_as_xyz
  1  'x, y, z'
loop_
 _atom_site_type_symbol
 _atom_site_label
 _atom_site_symmetry_multiplicity
 _atom_site_fract_x
 _atom_site_fract_y
 _atom_site_fract_z
 _atom_site_occupancy
  V  V0  1  0.11610200  0.44004900  0.30201300  1
  V  V1  1  0.33525500  0.09809300  0.38245400  1
  V  V2  1  0.14965300  0.23090400  0.75311000  1
  V  V3  1  0.13622900  0.96156400  0.27683400  1
  V  V4  1  0.67931600  0.14232300  0.12813200  1
  V  V5  1  0.34902600  0.54230100  0.41190200  1
  V  V6  1  0.11044100  0.71232900  0.79047000  1
  V  V7  1  0.67061600  0.62016700  0.14788100  1
  V  V8  1  0.36652600  0.35743000  0.85594400  1
  V  V9  1  0.90215100  0.27763100  0.22109000  1
  V  V10  1  0.69604700  0.50823000  0.57860700  1
  V  V11  1  0.33477500  0.86726500  0.87050800  1
  V  V12  1  0.91040700  0.03140800  0.71302600  1
  V  V13  1  0.88455600  0.75911900  0.24512500  1
  V  V14  1  0.68979300  0.87624500  0.62982200  1
  V  V15  1  0.89470100  0.54959300  0.71197800  1
  V  V16  1  0.02579300  0.80498000  0.44410800  1
  Pb  Pb0  1  0.52372200  0.49016400  0.99771000  1
  Pb  Pb1  1  0.50494000  0.96068000  0.02973200  1
  Pb  Pb2  1  0.46198000  0.24463800  0.53998000  1
  O  O0  1  0.21407200  0.36177500  0.95585800  1
  O  O1  1  0.11314400  0.13225500  0.17869200  1
  O  O2  1  0.17514500  0.12713600  0.47061700  1
  O  O3  1  0.18130100  0.87470000  0.96911900  1
  O  O4  1  0.09923900  0.61449300  0.19888300  1
  O  O5  1  0.30202400  0.26428100  0.29549700  1
  O  O6  1  0.50348200  0.30626400  0.13622400  1
  O  O7  1  0.11093400  0.62825200  0.49495900  1
  O  O8  1  0.13724800  0.42573400  0.64279600  1
  O  O9  1  0.29153600  0.03902700  0.78591200  1
  O  O10  1  0.24645100  0.78165400  0.32018600  1
  O  O11  1  0.52043000  0.03862700  0.63562600  1
  O  O12  1  0.48444500  0.78596800  0.16183100  1
  O  O13  1  0.11710900  0.87292300  0.68038400  1
  O  O14  1  0.28732700  0.53575500  0.79017400  1
  O  O15  1  0.53702900  0.40001300  0.37918300  1
  O  O16  1  0.44810600  0.61102900  0.63249400  1
  O  O17  1  0.72886100  0.44785400  0.22300300  1
  O  O18  1  0.92031000  0.09275000  0.32991400  1
  O  O19  1  0.55269900  0.21153500  0.82924900  1
  O  O20  1  0.50748800  0.90752300  0.39193200  1
  O  O21  1  0.78665000  0.21333500  0.67542600  1
  O  O22  1  0.73608100  0.95935900  0.21186400  1
  O  O23  1  0.90016600  0.59407400  0.34228100  1
  O  O24  1  0.79857000  0.44655300  0.49707400  1
  O  O25  1  0.50309700  0.69645000  0.87150400  1
  O  O26  1  0.71453300  0.71454000  0.72041100  1
  O  O27  1  0.93402400  0.37343500  0.80056300  1
  O  O28  1  0.83364400  0.12517000  0.03501200  1
  O  O29  1  0.83907300  0.86713900  0.53257500  1
  O  O30  1  0.90648000  0.86875900  0.82207600  1
  O  O31  1  0.82087000  0.61387100  0.05095700  1
loop_
_geom_bond_atom_site_label_1
_geom_bond_atom_site_label_2
_geom_bond_distance
_geom_bond_site_symmetry_2
O0 V8 1.751256 1_555
O0 Pb0 2.547387 1_455
O0 Pb0 2.552606 1_555
O1 V4 1.906437 1_555
O1 V4 1.909988 1_455
O1 V3 2.074475 1_545
O1 V9 2.080344 1_455
O2 V1 1.683881 1_555
O2 Pb2 2.714994 1_455
O2 Pb2 2.754716 1_555
O3 V11 1.743350 1_555
O3 Pb1 2.410486 1_456
O3 Pb1 2.417086 1_556
O4 V7 1.916669 1_555
O4 V7 1.919249 1_455
O4 V13 2.116570 1_455
O4 V0 2.143159 1_555
O5 V1 1.955440 1_555
O5 V0 2.088680 1_555
O5 V9 2.113911 1_455
O5 V9 2.116322 1_555
O6 V4 1.963075 1_555
O6 V9 2.198280 1_555
O6 V9 2.203527 1_455
O6 Pb0 2.547668 1_554
O7 V16 1.909172 1_555
O7 V5 2.038828 1_555
O7 V10 2.117493 1_455
O7 V10 2.580316 1_555
O8 V10 1.950884 1_455
O8 V15 2.192645 1_455
O8 V10 2.197348 1_555
O8 V2 2.354824 1_555
O9 V11 1.986155 1_545
O9 V2 2.085827 1_555
O9 V12 2.148717 1_455
O9 V12 2.151965 1_555
O10 V3 1.939928 1_555
O10 V13 2.221137 1_455
O10 V13 2.229916 1_555
O10 V16 2.263582 1_555
O10 V5 2.637886 1_555
O11 V14 1.928045 1_545
O11 V12 2.157534 1_455
O11 V12 2.159296 1_555
O11 Pb2 2.347619 1_555
O12 V7 2.030830 1_555
O12 V13 2.186010 1_555
O12 V13 2.186820 1_455
O12 Pb1 2.425876 1_555
O13 V14 1.916075 1_555
O13 V14 1.920909 1_455
O13 V6 2.111459 1_555
O13 V12 2.120596 1_465
O14 V8 1.956564 1_555
O14 V6 2.055051 1_555
O14 V15 2.146513 1_455
O14 V15 2.159680 1_555
O15 V5 1.939528 1_555
O15 V0 2.110657 1_555
O15 V0 2.120508 1_655
O15 Pb2 2.694669 1_555
O16 V10 1.784628 1_555
O16 V15 2.129869 1_455
O16 V15 2.163167 1_555
O17 V7 1.937867 1_555
O17 V9 1.991935 1_555
O17 V0 2.172642 1_655
O17 V0 2.175619 1_555
O18 V1 1.952259 1_555
O18 V1 1.952596 1_655
O18 V3 2.055370 1_645
O18 V9 2.267439 1_555
O19 V8 1.918279 1_555
O19 V2 2.120994 1_555
O19 V2 2.124471 1_655
O20 V16 2.077027 1_655
O20 V16 2.103070 1_555
O20 V1 2.159741 1_565
O20 V3 2.506156 1_555
O20 V3 2.542447 1_655
O21 V12 1.966413 1_555
O21 V2 2.231420 1_655
O21 V2 2.239408 1_555
O21 Pb2 2.816006 1_555
O21 Pb2 2.819472 1_655
O22 V3 2.053031 1_555
O22 V3 2.058794 1_655
O22 V4 2.078267 1_565
O22 V13 2.178957 1_555
O23 V13 2.024232 1_555
O23 V5 2.043437 1_555
O23 V5 2.060610 1_655
O23 V0 2.151943 1_655
O24 V10 1.830497 1_555
O24 V5 2.221068 1_555
O24 V5 2.306763 1_655
O24 Pb2 2.716786 1_555
O24 Pb2 2.832691 1_655
O25 V11 1.979760 1_555
O25 V6 2.178895 1_555
O25 V6 2.179473 1_655
O25 Pb0 2.570606 1_555
O26 V14 1.946513 1_555
O26 V15 1.977350 1_555
O26 V6 2.094526 1_555
O26 V6 2.095068 1_655
O27 V8 1.936737 1_555
O27 V8 1.940714 1_655
O27 V15 2.048636 1_555
O27 V2 2.108097 1_655
O28 V4 1.698773 1_555
O28 Pb1 2.593619 1_645
O28 Pb1 2.596423 1_545
O29 V14 1.728078 1_555
O29 V16 1.924712 1_655
O30 V11 1.904296 1_555
O30 V11 1.906487 1_655
O30 V6 2.086825 1_655
O30 V12 2.114511 1_565
O31 V7 1.708645 1_555
O31 Pb0 2.614713 1_654
O31 Pb0 2.620414 1_554
