# generated using pymatgen
data_K2Na4ZnSn2
_symmetry_space_group_name_H-M   'P 1'
_cell_length_a   10.04492900
_cell_length_b   11.48417000
_cell_length_c   11.69116807
_cell_angle_alpha   60.59683458
_cell_angle_beta   90.00000000
_cell_angle_gamma   90.00000000
_symmetry_Int_Tables_number   1
_chemical_formula_structural   K2Na4ZnSn2
_chemical_formula_sum   'K8 Na16 Zn4 Sn8'
_cell_volume   1174.93981007
_cell_formula_units_Z   4
loop_
 _symmetry_equiv_pos_site_id
 _symmetry_equiv_pos_as_xyz
  1  'x, y, z'
loop_
 _atom_site_type_symbol
 _atom_site_label
 _atom_site_symmetry_multiplicity
 _atom_site_fract_x
 _atom_site_fract_y
 _atom_site_fract_z
 _atom_site_occupancy
  K  K0  1  0.60789800  0.70328800  0.17668500  1
  K  K1  1  0.39210200  0.29671200  0.82331500  1
  K  K2  1  0.10789800  0.79671200  0.82331500  1
  K  K3  1  0.89210200  0.20328800  0.17668500  1
  K  K4  1  0.96713600  0.81666800  0.14486700  1
  K  K5  1  0.03286400  0.18333200  0.85513300  1
  K  K6  1  0.46713600  0.68333200  0.85513300  1
  K  K7  1  0.53286400  0.31666800  0.14486700  1
  Na  Na0  1  0.84033800  0.57612600  0.48981600  1
  Na  Na1  1  0.15966200  0.42387400  0.51018400  1
  Na  Na2  1  0.34033800  0.92387400  0.51018400  1
  Na  Na3  1  0.65966200  0.07612600  0.48981600  1
  Na  Na4  1  0.82248900  0.57284000  0.00718600  1
  Na  Na5  1  0.17751100  0.42716000  0.99281400  1
  Na  Na6  1  0.32248900  0.92716000  0.99281400  1
  Na  Na7  1  0.67751100  0.07284000  0.00718600  1
  Na  Na8  1  0.52458000  0.62204400  0.57595200  1
  Na  Na9  1  0.47542000  0.37795600  0.42404800  1
  Na  Na10  1  0.02458000  0.87795600  0.42404800  1
  Na  Na11  1  0.97542000  0.12204400  0.57595200  1
  Na  Na12  1  0.77780300  0.76150200  0.66802300  1
  Na  Na13  1  0.22219700  0.23849800  0.33197700  1
  Na  Na14  1  0.27780300  0.73849800  0.33197700  1
  Na  Na15  1  0.72219700  0.26150200  0.66802300  1
  Zn  Zn0  1  0.46467800  0.98795300  0.24346500  1
  Zn  Zn1  1  0.53532200  0.01204700  0.75653500  1
  Zn  Zn2  1  0.96467800  0.51204700  0.75653500  1
  Zn  Zn3  1  0.03532200  0.48795300  0.24346500  1
  Sn  Sn0  1  0.27561900  0.57693200  0.16150000  1
  Sn  Sn1  1  0.72438100  0.42306800  0.83850000  1
  Sn  Sn2  1  0.77561900  0.92306800  0.83850000  1
  Sn  Sn3  1  0.22438100  0.07693200  0.16150000  1
  Sn  Sn4  1  0.69168200  0.88533300  0.35212900  1
  Sn  Sn5  1  0.30831800  0.11466700  0.64787100  1
  Sn  Sn6  1  0.19168200  0.61466700  0.64787100  1
  Sn  Sn7  1  0.80831800  0.38533300  0.35212900  1
loop_
_geom_bond_atom_site_label_1
_geom_bond_atom_site_label_2
_geom_bond_distance
_geom_bond_site_symmetry_2
K0 Sn4 3.673806 1_555
K0 Sn0 3.678384 1_555
K0 Sn7 3.773480 1_555
K0 Sn2 3.878472 1_554
K1 Sn5 3.673806 1_555
K1 Sn1 3.678384 1_555
K1 Sn6 3.773480 1_555
K1 Sn3 3.878472 1_556
K2 Sn6 3.673806 1_555
K2 Sn2 3.678384 1_455
K2 Sn5 3.773480 1_565
K2 Sn0 3.878472 1_556
K3 Sn7 3.673806 1_555
K3 Sn3 3.678384 1_655
K3 Sn4 3.773480 1_545
K3 Sn1 3.878472 1_554
K4 Zn3 3.431596 1_655
K4 Sn2 3.704828 1_554
K4 Sn4 4.003179 1_555
K4 Sn3 4.027311 1_665
K4 Sn0 4.085822 1_655
K5 Zn2 3.431596 1_455
K5 Sn3 3.704828 1_556
K5 Sn5 4.003179 1_555
K5 Sn2 4.027311 1_445
K5 Sn1 4.085822 1_455
K6 Zn1 3.431596 1_565
K6 Sn0 3.704828 1_556
K6 Sn6 4.003179 1_555
K6 Sn1 4.027311 1_555
K6 Sn2 4.085822 1_555
K7 Zn0 3.431596 1_545
K7 Sn1 3.704828 1_554
K7 Sn7 4.003179 1_555
K7 Sn0 4.027311 1_555
K7 Sn3 4.085822 1_555
Na0 Zn2 3.093841 1_555
Na0 Sn7 3.310409 1_555
Na0 Sn4 3.437704 1_555
Na0 Sn1 3.745478 1_555
Na1 Zn3 3.093841 1_555
Na1 Sn6 3.310409 1_555
Na1 Sn5 3.437704 1_555
Na1 Sn0 3.745478 1_555
Na2 Zn0 3.093841 1_555
Na2 Sn5 3.310409 1_565
Na2 Sn6 3.437704 1_555
Na2 Sn3 3.745478 1_565
Na3 Zn1 3.093841 1_555
Na3 Sn4 3.310409 1_545
Na3 Sn7 3.437704 1_555
Na3 Sn2 3.745478 1_545
Na4 Zn3 3.241523 1_655
Na4 Sn1 3.339107 1_554
Na4 Sn7 3.520468 1_555
Na4 Sn2 3.535470 1_554
Na5 Zn2 3.241523 1_455
Na5 Sn0 3.339107 1_556
Na5 Sn6 3.520468 1_555
Na5 Sn3 3.535470 1_556
Na6 Zn1 3.241523 1_565
Na6 Sn3 3.339107 1_566
Na6 Sn5 3.520468 1_565
Na6 Sn0 3.535470 1_556
Na7 Zn0 3.241523 1_545
Na7 Sn2 3.339107 1_544
Na7 Sn4 3.520468 1_545
Na7 Sn1 3.535470 1_554
Na8 Sn4 3.322403 1_555
Na8 Sn1 3.432820 1_555
Na8 Sn6 3.438913 1_555
Na9 Sn5 3.322403 1_555
Na9 Sn0 3.432820 1_555
Na9 Sn7 3.438913 1_555
Na10 Sn6 3.322403 1_555
Na10 Sn3 3.432820 1_565
Na10 Sn4 3.438913 1_455
Na11 Sn7 3.322403 1_555
Na11 Sn2 3.432820 1_545
Na11 Sn5 3.438913 1_655
Na12 Zn2 3.144938 1_555
Na12 Sn2 3.323652 1_555
Na12 Sn4 3.354582 1_555
Na12 Sn1 3.429294 1_555
Na13 Zn3 3.144938 1_555
Na13 Sn3 3.323652 1_555
Na13 Sn5 3.354582 1_555
Na13 Sn0 3.429294 1_555
Na14 Zn0 3.144938 1_555
Na14 Sn0 3.323652 1_555
Na14 Sn6 3.354582 1_555
Na14 Sn3 3.429294 1_565
Na15 Zn1 3.144938 1_555
Na15 Sn1 3.323652 1_555
Na15 Sn7 3.354582 1_555
Na15 Sn2 3.429294 1_545
Sn0 Zn3 2.612898 1_555
Sn1 Zn2 2.612898 1_555
Sn2 Zn1 2.612898 1_565
Sn3 Zn0 2.612898 1_545
Sn4 Zn0 2.594651 1_555
Sn5 Zn1 2.594651 1_555
Sn6 Zn2 2.594651 1_455
Sn7 Zn3 2.594651 1_655
