# generated using pymatgen
data_Te2MoWSeS
_symmetry_space_group_name_H-M   'P 1'
_cell_length_a   3.39474353
_cell_length_b   3.39474353
_cell_length_c   38.83412200
_cell_angle_alpha   90.00000000
_cell_angle_beta   90.00000000
_cell_angle_gamma   119.99999083
_symmetry_Int_Tables_number   1
_chemical_formula_structural   Te2MoWSeS
_chemical_formula_sum   'Te4 Mo2 W2 Se2 S2'
_cell_volume   387.57709290
_cell_formula_units_Z   2
loop_
 _symmetry_equiv_pos_site_id
 _symmetry_equiv_pos_as_xyz
  1  'x, y, z'
loop_
 _atom_site_type_symbol
 _atom_site_label
 _atom_site_symmetry_multiplicity
 _atom_site_fract_x
 _atom_site_fract_y
 _atom_site_fract_z
 _atom_site_occupancy
  Te  Te0  1  0.00000000  0.00000000  0.70614800  1
  Te  Te1  1  0.33333300  0.66666700  0.42131700  1
  Te  Te2  1  0.33333300  0.66666700  0.51785100  1
  Te  Te3  1  0.00000000  0.00000000  0.60907600  1
  Mo  Mo0  1  0.00000000  0.00000000  0.46958100  1
  Mo  Mo1  1  0.33333300  0.66666700  0.28178500  1
  W  W0  1  0.00000000  0.00000000  0.09393100  1
  W  W1  1  0.33333300  0.66666700  0.65764700  1
  Se  Se0  1  0.00000000  0.00000000  0.32432000  1
  Se  Se1  1  0.00000000  0.00000000  0.23922900  1
  S  S0  1  0.33333300  0.66666700  0.05510200  1
  S  S1  1  0.33333300  0.66666700  0.13276100  1
loop_
_geom_bond_atom_site_label_1
_geom_bond_atom_site_label_2
_geom_bond_distance
_geom_bond_site_symmetry_2
Te0 W1 2.718266 1_545
Te0 W1 2.718268 1_555
Te0 W1 2.718268 1_445
Te3 W1 2.720150 1_545
Te3 W1 2.720152 1_555
Te3 W1 2.720152 1_445
Mo0 Te1 2.711897 1_545
Mo0 Te1 2.711899 1_445
Mo0 Te1 2.711899 1_555
Mo0 Te2 2.712058 1_545
Mo0 Te2 2.712060 1_445
Mo0 Te2 2.712060 1_555
Mo1 Se0 2.563180 1_565
Mo1 Se0 2.563183 1_665
Mo1 Se0 2.563183 1_555
Mo1 Se1 2.563706 1_565
Mo1 Se1 2.563709 1_665
Mo1 Se1 2.563709 1_555
S0 W0 2.472883 1_565
S0 W0 2.472886 1_555
S0 W0 2.472886 1_665
S1 W0 2.472907 1_565
S1 W0 2.472910 1_665
S1 W0 2.472910 1_555
