# generated using pymatgen
data_CaCo(Si2O5)2
_symmetry_space_group_name_H-M   'P 1'
_cell_length_a   7.44724900
_cell_length_b   7.44724900
_cell_length_c   15.40215500
_cell_angle_alpha   90.00000000
_cell_angle_beta   90.00000000
_cell_angle_gamma   90.00000000
_symmetry_Int_Tables_number   1
_chemical_formula_structural   CaCo(Si2O5)2
_chemical_formula_sum   'Ca4 Co4 Si16 O40'
_cell_volume   854.22689166
_cell_formula_units_Z   4
loop_
 _symmetry_equiv_pos_site_id
 _symmetry_equiv_pos_as_xyz
  1  'x, y, z'
loop_
 _atom_site_type_symbol
 _atom_site_label
 _atom_site_symmetry_multiplicity
 _atom_site_fract_x
 _atom_site_fract_y
 _atom_site_fract_z
 _atom_site_occupancy
  Ca  Ca0  1  0.50000000  0.50000000  0.50000000  1
  Ca  Ca1  1  0.00000000  0.00000000  0.50000000  1
  Ca  Ca2  1  0.00000000  0.00000000  0.00000000  1
  Ca  Ca3  1  0.50000000  0.50000000  0.00000000  1
  Co  Co0  1  0.50000000  0.00000000  0.58265900  1
  Co  Co1  1  0.00000000  0.50000000  0.91734100  1
  Co  Co2  1  0.00000000  0.50000000  0.41734100  1
  Co  Co3  1  0.50000000  0.00000000  0.08265900  1
  Si  Si0  1  0.17286400  0.25227000  0.64795500  1
  Si  Si1  1  0.82713600  0.74773000  0.64795500  1
  Si  Si2  1  0.25227000  0.17286400  0.85204500  1
  Si  Si3  1  0.75227000  0.32713600  0.64795500  1
  Si  Si4  1  0.24773000  0.67286400  0.64795500  1
  Si  Si5  1  0.32713600  0.75227000  0.85204500  1
  Si  Si6  1  0.67286400  0.24773000  0.85204500  1
  Si  Si7  1  0.74773000  0.82713600  0.85204500  1
  Si  Si8  1  0.32713600  0.24773000  0.35204500  1
  Si  Si9  1  0.67286400  0.75227000  0.35204500  1
  Si  Si10  1  0.24773000  0.32713600  0.14795500  1
  Si  Si11  1  0.74773000  0.17286400  0.35204500  1
  Si  Si12  1  0.25227000  0.82713600  0.35204500  1
  Si  Si13  1  0.17286400  0.74773000  0.14795500  1
  Si  Si14  1  0.82713600  0.25227000  0.14795500  1
  Si  Si15  1  0.75227000  0.67286400  0.14795500  1
  O  O0  1  0.25145100  0.10397100  0.58241000  1
  O  O1  1  0.74854900  0.89602900  0.58241000  1
  O  O2  1  0.10397100  0.25145100  0.91759000  1
  O  O3  1  0.60397100  0.24854900  0.58241000  1
  O  O4  1  0.39602900  0.75145100  0.58241000  1
  O  O5  1  0.24854900  0.60397100  0.91759000  1
  O  O6  1  0.75145100  0.39602900  0.91759000  1
  O  O7  1  0.89602900  0.74854900  0.91759000  1
  O  O8  1  0.24854900  0.39602900  0.41759000  1
  O  O9  1  0.75145100  0.60397100  0.41759000  1
  O  O10  1  0.39602900  0.24854900  0.08241000  1
  O  O11  1  0.89602900  0.25145100  0.41759000  1
  O  O12  1  0.10397100  0.74854900  0.41759000  1
  O  O13  1  0.25145100  0.89602900  0.08241000  1
  O  O14  1  0.74854900  0.10397100  0.08241000  1
  O  O15  1  0.25001500  0.04498200  0.37247500  1
  O  O16  1  0.60397100  0.75145100  0.08241000  1
  O  O17  1  0.75001500  0.54498200  0.62752500  1
  O  O18  1  0.45501800  0.24998500  0.87247500  1
  O  O19  1  0.95501800  0.25001500  0.62752500  1
  O  O20  1  0.04498200  0.74998500  0.62752500  1
  O  O21  1  0.25001500  0.95501800  0.87247500  1
  O  O22  1  0.74998500  0.04498200  0.87247500  1
  O  O23  1  0.54498200  0.75001500  0.87247500  1
  O  O24  1  0.70938200  0.70938200  0.25000000  1
  O  O25  1  0.79061800  0.20938200  0.25000000  1
  O  O26  1  0.20938200  0.79061800  0.25000000  1
  O  O27  1  0.29061800  0.29061800  0.25000000  1
  O  O28  1  0.79061800  0.79061800  0.75000000  1
  O  O29  1  0.70938200  0.29061800  0.75000000  1
  O  O30  1  0.29061800  0.70938200  0.75000000  1
  O  O31  1  0.20938200  0.20938200  0.75000000  1
  O  O32  1  0.95501800  0.74998500  0.12752500  1
  O  O33  1  0.75001500  0.45501800  0.12752500  1
  O  O34  1  0.24998500  0.54498200  0.12752500  1
  O  O35  1  0.45501800  0.75001500  0.37247500  1
  O  O36  1  0.54498200  0.24998500  0.37247500  1
  O  O37  1  0.04498200  0.25001500  0.12752500  1
  O  O38  1  0.74998500  0.95501800  0.37247500  1
  O  O39  1  0.24998500  0.45501800  0.62752500  1
loop_
_geom_bond_atom_site_label_1
_geom_bond_atom_site_label_2
_geom_bond_distance
_geom_bond_site_symmetry_2
Ca0 O3 2.391095 1_555
Ca0 O4 2.391095 1_555
Ca0 O8 2.391095 1_555
Ca0 O9 2.391095 1_555
Ca0 O39 2.727069 1_555
Ca0 O36 2.727069 1_555
Ca0 O17 2.727069 1_555
Ca0 O35 2.727069 1_555
Ca1 O1 2.391095 1_445
Ca1 O11 2.391095 1_455
Ca1 O0 2.391095 1_555
Ca1 O12 2.391095 1_545
Ca1 O20 2.727069 1_545
Ca1 O38 2.727069 1_445
Ca1 O19 2.727069 1_455
Ca1 O15 2.727069 1_555
Ca2 O14 2.391095 1_455
Ca2 O7 2.391095 1_444
Ca2 O13 2.391095 1_545
Ca2 O2 2.391095 1_554
Ca2 O21 2.727069 1_544
Ca2 O32 2.727069 1_445
Ca2 O22 2.727069 1_454
Ca2 O37 2.727069 1_555
Ca3 O6 2.391095 1_554
Ca3 O16 2.391095 1_555
Ca3 O10 2.391095 1_555
Ca3 O5 2.391095 1_554
Ca3 O33 2.727069 1_555
Ca3 O34 2.727069 1_555
Ca3 O18 2.727069 1_554
Ca3 O23 2.727069 1_554
Co0 O4 2.006434 1_545
Co0 O3 2.006434 1_555
Co0 O0 2.006434 1_555
Co0 O1 2.006434 1_545
Co1 O6 2.006434 1_455
Co1 O5 2.006434 1_555
Co1 O2 2.006434 1_555
Co1 O7 2.006434 1_455
Co2 O8 2.006434 1_555
Co2 O11 2.006434 1_455
Co2 O12 2.006434 1_555
Co2 O9 2.006434 1_455
Co3 O10 2.006434 1_555
Co3 O16 2.006434 1_545
Co3 O13 2.006434 1_545
Co3 O14 2.006434 1_555
O0 Si0 1.606682 1_555
O1 Si1 1.606682 1_555
O2 Si2 1.606682 1_555
O3 Si3 1.606682 1_555
O4 Si4 1.606682 1_555
O5 Si5 1.606682 1_555
O6 Si6 1.606682 1_555
O7 Si7 1.606682 1_555
O8 Si8 1.606682 1_555
O9 Si9 1.606682 1_555
O10 Si10 1.606682 1_555
O11 Si11 1.606682 1_555
O12 Si12 1.606682 1_555
O13 Si13 1.606682 1_555
O14 Si14 1.606682 1_555
O15 Si8 1.645820 1_555
O15 Si12 1.652673 1_545
O16 Si15 1.606682 1_555
O17 Si1 1.645820 1_555
O17 Si3 1.652673 1_555
O18 Si2 1.645820 1_555
O18 Si6 1.652673 1_555
O19 Si3 1.645820 1_555
O19 Si0 1.652673 1_655
O20 Si4 1.645820 1_555
O20 Si1 1.652673 1_455
O21 Si5 1.645820 1_555
O21 Si2 1.652673 1_565
O22 Si6 1.645820 1_555
O22 Si7 1.652673 1_545
O23 Si7 1.645820 1_555
O23 Si5 1.652673 1_555
O24 Si9 1.626732 1_555
O24 Si15 1.626732 1_555
O25 Si11 1.626732 1_555
O25 Si14 1.626732 1_555
O26 Si13 1.626732 1_555
O26 Si12 1.626732 1_555
O27 Si8 1.626732 1_555
O27 Si10 1.626732 1_555
O28 Si7 1.626732 1_555
O28 Si1 1.626732 1_555
O29 Si6 1.626732 1_555
O29 Si3 1.626732 1_555
O30 Si4 1.626732 1_555
O30 Si5 1.626732 1_555
O31 Si2 1.626732 1_555
O31 Si0 1.626732 1_555
O32 Si15 1.645820 1_555
O32 Si13 1.652673 1_655
O33 Si14 1.645820 1_555
O33 Si15 1.652673 1_555
O34 Si13 1.645820 1_555
O34 Si10 1.652673 1_555
O35 Si12 1.645820 1_555
O35 Si9 1.652673 1_555
O36 Si11 1.645820 1_555
O36 Si8 1.652673 1_555
O37 Si10 1.645820 1_555
O37 Si14 1.652673 1_455
O38 Si9 1.645820 1_555
O38 Si11 1.652673 1_565
O39 Si0 1.645820 1_555
O39 Si4 1.652673 1_555
