# generated using pymatgen
data_Mg6NiC
_symmetry_space_group_name_H-M   'P 1'
_cell_length_a   6.10169859
_cell_length_b   8.23300180
_cell_length_c   3.77573488
_cell_angle_alpha   90.00000000
_cell_angle_beta   90.00000000
_cell_angle_gamma   132.42685412
_symmetry_Int_Tables_number   1
_chemical_formula_structural   Mg6NiC
_chemical_formula_sum   'Mg6 Ni1 C1'
_cell_volume   140.00667251
_cell_formula_units_Z   1
loop_
 _symmetry_equiv_pos_site_id
 _symmetry_equiv_pos_as_xyz
  1  'x, y, z'
loop_
 _atom_site_type_symbol
 _atom_site_label
 _atom_site_symmetry_multiplicity
 _atom_site_fract_x
 _atom_site_fract_y
 _atom_site_fract_z
 _atom_site_occupancy
  Mg  Mg0  1  0.78880425  0.39456352  0.25000000  1
  Mg  Mg1  1  0.78880425  0.89423973  0.25000000  1
  Mg  Mg2  1  0.27064051  0.06237252  0.75000000  1
  Mg  Mg3  1  0.27064051  0.70826899  0.75000000  1
  Mg  Mg4  1  0.91711590  0.20855845  0.75000000  1
  Mg  Mg5  1  0.67917971  0.58959036  0.75000000  1
  Ni  Ni0  1  0.28442460  0.39221180  0.25000000  1
  C  C0  1  0.00039026  0.75019463  0.25000000  1
loop_
_geom_bond_atom_site_label_1
_geom_bond_atom_site_label_2
_geom_bond_distance
_geom_bond_site_symmetry_2
Mg4 Ni0 2.510145 1_655
Mg4 Ni0 2.510145 1_656
Mg5 Ni0 2.593282 1_556
Mg5 Ni0 2.593282 1_555
C0 Mg0 2.266947 1_455
C0 Mg1 2.266947 1_455
C0 Mg5 2.378442 1_455
C0 Mg5 2.378442 1_454
C0 Mg3 2.677750 1_554
C0 Mg3 2.677750 1_555
C0 Mg2 2.677759 1_564
C0 Mg2 2.677759 1_565
