# generated using pymatgen
data_LuGaNi2
_symmetry_space_group_name_H-M   'P 1'
_cell_length_a   5.09193606
_cell_length_b   5.09193606
_cell_length_c   16.09711600
_cell_angle_alpha   90.00000000
_cell_angle_beta   90.00000000
_cell_angle_gamma   120.00000078
_symmetry_Int_Tables_number   1
_chemical_formula_structural   LuGaNi2
_chemical_formula_sum   'Lu6 Ga6 Ni12'
_cell_volume   361.44696722
_cell_formula_units_Z   6
loop_
 _symmetry_equiv_pos_site_id
 _symmetry_equiv_pos_as_xyz
  1  'x, y, z'
loop_
 _atom_site_type_symbol
 _atom_site_label
 _atom_site_symmetry_multiplicity
 _atom_site_fract_x
 _atom_site_fract_y
 _atom_site_fract_z
 _atom_site_occupancy
  Lu  Lu0  1  0.33333300  0.66666700  0.96630900  1
  Lu  Lu1  1  0.66666700  0.33333300  0.03369100  1
  Lu  Lu2  1  0.66666700  0.33333300  0.46065900  1
  Lu  Lu3  1  0.33333300  0.66666700  0.53934100  1
  Lu  Lu4  1  0.33333300  0.66666700  0.74265200  1
  Lu  Lu5  1  0.66666700  0.33333300  0.25734800  1
  Ga  Ga0  1  0.83261700  0.16738300  0.86965200  1
  Ga  Ga1  1  0.83261700  0.66523400  0.86965200  1
  Ga  Ga2  1  0.33476600  0.16738300  0.86965200  1
  Ga  Ga3  1  0.16738300  0.83261700  0.13034800  1
  Ga  Ga4  1  0.16738300  0.33476600  0.13034800  1
  Ga  Ga5  1  0.66523400  0.83261700  0.13034800  1
  Ni  Ni0  1  0.33333300  0.66666700  0.25432900  1
  Ni  Ni1  1  0.66666700  0.33333300  0.74567100  1
  Ni  Ni2  1  0.00000000  0.00000000  0.25288800  1
  Ni  Ni3  1  0.00000000  0.00000000  0.74711200  1
  Ni  Ni4  1  0.00000000  0.00000000  0.50000000  1
  Ni  Ni5  1  0.00000000  0.00000000  0.00000000  1
  Ni  Ni6  1  0.16765500  0.83234500  0.37605000  1
  Ni  Ni7  1  0.16765500  0.33530900  0.37605000  1
  Ni  Ni8  1  0.66469100  0.83234500  0.37605000  1
  Ni  Ni9  1  0.83234500  0.16765500  0.62395000  1
  Ni  Ni10  1  0.83234500  0.66469100  0.62395000  1
  Ni  Ni11  1  0.33530900  0.16765500  0.62395000  1
loop_
_geom_bond_atom_site_label_1
_geom_bond_atom_site_label_2
_geom_bond_distance
_geom_bond_site_symmetry_2
Lu0 Ni5 2.989432 1_566
Lu0 Ni5 2.989437 1_666
Lu0 Ni5 2.989437 1_556
Lu0 Lu1 3.133539 1_456
Lu0 Lu1 3.133539 1_566
Lu0 Lu1 3.133547 1_556
Lu0 Lu4 3.600233 1_555
Lu1 Ni5 2.989432 1_655
Lu1 Ni5 2.989437 1_555
Lu1 Ni5 2.989437 1_665
Lu1 Lu5 3.600233 1_555
Lu2 Ni6 2.887381 1_655
Lu2 Ni6 2.887381 1_545
Lu2 Ni8 2.887381 1_545
Lu2 Ni7 2.887381 1_655
Lu2 Ni7 2.887381 1_555
Lu2 Ni8 2.887381 1_555
Lu2 Ni4 3.007262 1_655
Lu2 Ni4 3.007267 1_665
Lu2 Ni4 3.007267 1_555
Lu2 Ni9 3.007354 1_555
Lu2 Ni10 3.007359 1_555
Lu2 Ni11 3.007359 1_555
Lu2 Lu3 3.201054 1_655
Lu2 Lu3 3.201054 1_545
Lu2 Lu3 3.201062 1_555
Lu2 Lu5 3.272721 1_555
Lu3 Ni9 2.887381 1_565
Lu3 Ni9 2.887381 1_455
Lu3 Ni10 2.887381 1_455
Lu3 Ni11 2.887381 1_565
Lu3 Ni11 2.887381 1_555
Lu3 Ni10 2.887381 1_555
Lu3 Ni4 3.007262 1_565
Lu3 Ni4 3.007267 1_665
Lu3 Ni4 3.007267 1_555
Lu3 Ni6 3.007354 1_555
Lu3 Ni8 3.007359 1_555
Lu3 Ni7 3.007359 1_555
Lu3 Lu4 3.272721 1_555
Lu4 Ni1 2.940229 1_455
Lu4 Ni1 2.940229 1_565
Lu4 Ni1 2.940238 1_555
Lu4 Ni3 2.940704 1_565
Lu4 Ni3 2.940709 1_665
Lu4 Ni3 2.940709 1_555
Lu4 Ni9 3.183242 1_565
Lu4 Ni9 3.183242 1_455
Lu4 Ni10 3.183242 1_455
Lu4 Ni11 3.183242 1_565
Lu4 Ni11 3.183242 1_555
Lu4 Ni10 3.183242 1_555
Lu5 Ni0 2.940229 1_545
Lu5 Ni0 2.940229 1_655
Lu5 Ni0 2.940238 1_555
Lu5 Ni2 2.940704 1_655
Lu5 Ni2 2.940709 1_555
Lu5 Ni2 2.940709 1_665
Lu5 Ni6 3.183242 1_655
Lu5 Ni6 3.183242 1_545
Lu5 Ni8 3.183242 1_545
Lu5 Ni7 3.183242 1_655
Lu5 Ni7 3.183242 1_555
Lu5 Ni8 3.183242 1_555
Ga0 Ni3 2.463774 1_655
Ga0 Ni1 2.474889 1_555
Ga0 Ga2 2.535025 1_555
Ga0 Ga1 2.535025 1_555
Ga0 Ga1 2.556911 1_545
Ga0 Ga2 2.556911 1_655
Ga0 Ni5 2.565506 1_656
Ga0 Lu0 2.983758 1_545
Ga0 Lu0 2.983758 1_655
Ga0 Lu1 3.019046 1_556
Ga0 Lu4 3.265164 1_545
Ga0 Lu4 3.265164 1_655
Ga1 Ni3 2.463774 1_665
Ga1 Ni1 2.474891 1_555
Ga1 Ga2 2.535025 1_555
Ga1 Ga2 2.556911 1_665
Ga1 Ni5 2.565506 1_666
Ga1 Lu0 2.983756 1_655
Ga1 Lu0 2.983761 1_555
Ga1 Lu1 3.019048 1_556
Ga1 Lu4 3.265162 1_655
Ga1 Lu4 3.265166 1_555
Ga2 Ni3 2.463774 1_555
Ga2 Ni1 2.474891 1_555
Ga2 Ni5 2.565506 1_556
Ga2 Lu0 2.983756 1_545
Ga2 Lu0 2.983761 1_555
Ga2 Lu1 3.019048 1_556
Ga2 Lu4 3.265162 1_545
Ga2 Lu4 3.265166 1_555
Ga3 Ni2 2.463774 1_565
Ga3 Ni0 2.474889 1_555
Ga3 Ga4 2.535025 1_555
Ga3 Ga5 2.535025 1_555
Ga3 Ga5 2.556911 1_455
Ga3 Ga4 2.556911 1_565
Ga3 Ni5 2.565506 1_565
Ga3 Lu1 2.983758 1_455
Ga3 Lu1 2.983758 1_565
Ga3 Lu0 3.019046 1_554
Ga3 Lu5 3.265164 1_455
Ga3 Lu5 3.265164 1_565
Ga4 Ni2 2.463774 1_555
Ga4 Ni0 2.474891 1_555
Ga4 Ga5 2.535025 1_555
Ga4 Ga5 2.556911 1_445
Ga4 Ni5 2.565506 1_555
Ga4 Lu1 2.983756 1_455
Ga4 Lu1 2.983761 1_555
Ga4 Lu0 3.019048 1_554
Ga4 Lu5 3.265162 1_455
Ga4 Lu5 3.265166 1_555
Ga5 Ni2 2.463774 1_665
Ga5 Ni0 2.474891 1_555
Ga5 Ni5 2.565506 1_665
Ga5 Lu1 2.983756 1_565
Ga5 Lu1 2.983761 1_555
Ga5 Lu0 3.019048 1_554
Ga5 Lu5 3.265162 1_565
Ga5 Lu5 3.265166 1_555
Ni0 Ni6 2.444212 1_555
Ni0 Ni8 2.444217 1_555
Ni0 Ni7 2.444217 1_555
Ni0 Ni2 2.939919 1_565
Ni0 Ni2 2.939924 1_665
Ni0 Ni2 2.939924 1_555
Ni1 Ni9 2.444212 1_555
Ni1 Ni10 2.444217 1_555
Ni1 Ni11 2.444217 1_555
Ni1 Ni3 2.939919 1_655
Ni1 Ni3 2.939924 1_555
Ni1 Ni3 2.939924 1_665
Ni2 Ni7 2.473228 1_555
Ni2 Ni8 2.473228 1_445
Ni2 Ni6 2.473230 1_545
Ni3 Ni9 2.473230 1_455
Ni4 Ni7 2.483407 1_555
Ni4 Ni8 2.483407 1_445
Ni4 Ni6 2.483410 1_545
Ni4 Ni9 2.483410 1_455
Ni6 Ni8 2.530876 1_555
Ni6 Ni7 2.530876 1_555
Ni6 Ni7 2.561061 1_565
Ni6 Ni8 2.561061 1_455
Ni7 Ni8 2.530876 1_555
Ni7 Ni8 2.561060 1_445
Ni10 Ni3 2.473228 1_665
Ni10 Ni4 2.483407 1_665
Ni10 Ni11 2.530876 1_555
Ni10 Ni9 2.530876 1_555
Ni10 Ni11 2.561060 1_665
Ni10 Ni9 2.561061 1_565
Ni11 Ni3 2.473228 1_555
Ni11 Ni4 2.483407 1_555
Ni11 Ni9 2.530876 1_555
Ni11 Ni9 2.561061 1_455
