# generated using pymatgen
data_ErVO2
_symmetry_space_group_name_H-M   'P 1'
_cell_length_a   7.21261524
_cell_length_b   7.21261524
_cell_length_c   7.21261524
_cell_angle_alpha   129.21523197
_cell_angle_beta   129.21523197
_cell_angle_gamma   74.66450212
_symmetry_Int_Tables_number   1
_chemical_formula_structural   ErVO2
_chemical_formula_sum   'Er4 V4 O8'
_cell_volume   219.44096529
_cell_formula_units_Z   4
loop_
 _symmetry_equiv_pos_site_id
 _symmetry_equiv_pos_as_xyz
  1  'x, y, z'
loop_
 _atom_site_type_symbol
 _atom_site_label
 _atom_site_symmetry_multiplicity
 _atom_site_fract_x
 _atom_site_fract_y
 _atom_site_fract_z
 _atom_site_occupancy
  Er  Er0  1  0.87500000  0.62500000  0.25000000  1
  Er  Er1  1  0.37500000  0.62500000  0.75000000  1
  Er  Er2  1  0.37500000  0.62500000  0.25000000  1
  Er  Er3  1  0.37500000  0.12500000  0.75000000  1
  V  V0  1  0.37500000  0.12500000  0.25000000  1
  V  V1  1  0.87500000  0.12500000  0.75000000  1
  V  V2  1  0.87500000  0.12500000  0.25000000  1
  V  V3  1  0.87500000  0.62500000  0.75000000  1
  O  O0  1  0.17294900  0.41088000  0.23793100  1
  O  O1  1  0.17294900  0.93501800  0.76206900  1
  O  O2  1  0.16088000  0.42294900  0.73793100  1
  O  O3  1  0.57705100  0.83912000  0.26206900  1
  O  O4  1  0.68501800  0.42294900  0.26206900  1
  O  O5  1  0.57705100  0.31498200  0.73793100  1
  O  O6  1  0.58912000  0.82705100  0.76206900  1
  O  O7  1  0.06498200  0.82705100  0.23793100  1
loop_
_geom_bond_atom_site_label_1
_geom_bond_atom_site_label_2
_geom_bond_distance
_geom_bond_site_symmetry_2
Er0 O1 2.306923 1_655
Er0 O5 2.306923 1_554
Er0 O3 2.306923 1_555
Er0 O0 2.306923 1_655
Er0 O4 2.318720 1_555
Er0 O7 2.318720 1_655
Er1 O1 2.306923 1_555
Er1 O3 2.306923 1_556
Er1 O5 2.306923 1_555
Er1 O0 2.306923 1_555
Er1 O6 2.318720 1_555
Er1 O2 2.318720 1_555
Er2 O2 2.306923 1_554
Er2 O7 2.306923 1_555
Er2 O6 2.306923 1_555
Er2 O4 2.306923 1_555
Er2 O0 2.318720 1_555
Er2 O3 2.318720 1_555
Er3 O2 2.306923 1_555
Er3 O4 2.306923 1_556
Er3 O6 2.306923 1_545
Er3 O7 2.306923 1_545
Er3 O5 2.318720 1_555
Er3 O1 2.318720 1_545
O0 V1 2.204561 1_454
O0 V0 2.204561 1_555
O1 V0 2.204561 1_566
O1 V1 2.204561 1_465
O2 V2 2.204561 1_455
O2 V3 2.204561 1_455
O3 V0 2.204561 1_565
O3 V1 2.204561 1_565
O4 V2 2.204561 1_555
O4 V3 2.204561 1_555
O5 V1 2.204561 1_555
O5 V0 2.204561 1_555
O6 V3 2.204561 1_555
O6 V2 2.204561 1_566
O7 V3 2.204561 1_454
O7 V2 2.204561 1_465
