# generated using pymatgen
data_Ba6MgNb2Ir(ClO6)2
_symmetry_space_group_name_H-M   'P 1'
_cell_length_a   6.01056963
_cell_length_b   6.02144339
_cell_length_c   16.06915783
_cell_angle_alpha   82.74324859
_cell_angle_beta   97.25608239
_cell_angle_gamma   120.10509318
_symmetry_Int_Tables_number   1
_chemical_formula_structural   Ba6MgNb2Ir(ClO6)2
_chemical_formula_sum   'Ba6 Mg1 Nb2 Ir1 Cl2 O12'
_cell_volume   497.75430847
_cell_formula_units_Z   1
loop_
 _symmetry_equiv_pos_site_id
 _symmetry_equiv_pos_as_xyz
  1  'x, y, z'
loop_
 _atom_site_type_symbol
 _atom_site_label
 _atom_site_symmetry_multiplicity
 _atom_site_fract_x
 _atom_site_fract_y
 _atom_site_fract_z
 _atom_site_occupancy
  Ba  Ba0  1  0.27995800  0.72136700  0.37526100  1
  Ba  Ba1  1  0.38615400  0.61832700  0.77197900  1
  Ba  Ba2  1  0.68581900  0.31472700  0.64076800  1
  Ba  Ba3  1  0.72740000  0.27102000  0.89641300  1
  Ba  Ba4  1  0.40090300  0.59874800  0.01490200  1
  Ba  Ba5  1  0.58361500  0.41671000  0.23679000  1
  Mg  Mg0  1  0.19065200  0.80991000  0.17553700  1
  Nb  Nb0  1  0.05732400  0.94464000  0.81378500  1
  Nb  Nb1  1  0.90341800  0.09671700  0.17588000  1
  Ir  Ir0  1  0.03743000  0.96171300  0.01231600  1
  Cl  Cl0  1  0.66789900  0.33275200  0.43143600  1
  Cl  Cl1  1  0.32676800  0.67496900  0.57400800  1
  O  O0  1  0.22486300  0.21424800  0.91325600  1
  O  O1  1  0.35063300  0.15819600  0.74899100  1
  O  O2  1  0.08755800  0.43073900  0.22726600  1
  O  O3  1  0.85144100  0.64736600  0.75006700  1
  O  O4  1  0.86106400  0.12445600  0.76437600  1
  O  O5  1  0.83376100  0.74913900  0.11637600  1
  O  O6  1  0.08055700  0.91956800  0.27107800  1
  O  O7  1  0.25003300  0.16627900  0.11631500  1
  O  O8  1  0.79181900  0.20605500  0.07483800  1
  O  O9  1  0.78797500  0.76943600  0.91391400  1
  O  O10  1  0.56913800  0.91211700  0.22756600  1
  O  O11  1  0.24090200  0.77413500  0.88188300  1
loop_
_geom_bond_atom_site_label_1
_geom_bond_atom_site_label_2
_geom_bond_distance
_geom_bond_site_symmetry_2
Ba0 O6 2.467144 1_555
Ba0 O10 2.885088 1_555
Ba0 O2 2.895160 1_555
Ba0 Cl1 3.159647 1_555
Ba0 Cl0 3.390229 1_455
Ba0 Cl0 3.391339 1_565
Ba1 O11 2.528073 1_555
Ba1 O1 2.739302 1_555
Ba1 O3 2.778197 1_555
Ba1 O4 2.952631 1_565
Ba1 O9 2.964991 1_555
Ba1 O0 2.967829 1_555
Ba1 O4 3.065675 1_455
Ba1 Cl1 3.150416 1_555
Ba1 O3 3.278146 1_455
Ba1 O1 3.335062 1_565
Ba2 O4 2.544531 1_555
Ba2 O3 2.556251 1_555
Ba2 O1 2.556864 1_555
Ba2 Cl0 3.341621 1_555
Ba2 Cl1 3.573154 1_545
Ba2 Cl1 3.573595 1_655
Ba2 Cl1 3.746603 1_555
Ba3 O4 2.746074 1_555
Ba3 O8 2.848087 1_556
Ba3 O9 2.882697 1_555
Ba3 O0 2.908785 1_555
Ba3 O3 2.936534 1_555
Ba3 O1 2.951244 1_555
Ba3 O11 2.963823 1_545
Ba3 O11 3.062959 1_655
Ba3 O0 3.150875 1_655
Ba3 O9 3.193167 1_545
Ba4 O11 2.557028 1_554
Ba4 O5 2.680623 1_555
Ba4 O7 2.681704 1_555
Ba4 O0 2.684971 1_554
Ba4 O9 2.690000 1_554
Ba5 O5 2.597821 1_555
Ba5 O7 2.601109 1_555
Ba5 O2 3.009077 1_555
Ba5 O2 3.010391 1_655
Ba5 O10 3.012251 1_555
Ba5 O10 3.017710 1_545
Ba5 O6 3.053921 1_655
Ba5 O6 3.054715 1_545
Ba5 Cl0 3.122902 1_555
Mg0 O6 2.044990 1_555
Mg0 O5 2.103448 1_455
Mg0 O7 2.106965 1_565
Mg0 O10 2.120857 1_555
Mg0 O2 2.125826 1_555
Nb0 O1 1.922727 1_565
Nb0 O3 1.924757 1_455
Nb0 O11 2.004159 1_555
Nb0 O4 2.005443 1_465
Nb0 O0 2.193964 1_565
Nb0 O9 2.199682 1_455
Nb1 O8 1.848651 1_555
Nb1 O2 1.976784 1_655
Nb1 O10 1.977416 1_545
Nb1 O6 2.219735 1_645
Nb1 O7 2.226880 1_655
Nb1 O5 2.235014 1_545
Ir0 O9 2.052078 1_454
Ir0 O0 2.058712 1_564
Ir0 O5 2.082679 1_455
Ir0 O7 2.084371 1_565
