# generated using pymatgen
data_Pr4In5Cu19
_symmetry_space_group_name_H-M   'P 1'
_cell_length_a   5.13551500
_cell_length_b   8.48976700
_cell_length_c   10.74809970
_cell_angle_alpha   89.56504663
_cell_angle_beta   90.00000000
_cell_angle_gamma   90.00000000
_symmetry_Int_Tables_number   1
_chemical_formula_structural   Pr4In5Cu19
_chemical_formula_sum   'Pr4 In5 Cu19'
_cell_volume   468.59639757
_cell_formula_units_Z   1
loop_
 _symmetry_equiv_pos_site_id
 _symmetry_equiv_pos_as_xyz
  1  'x, y, z'
loop_
 _atom_site_type_symbol
 _atom_site_label
 _atom_site_symmetry_multiplicity
 _atom_site_fract_x
 _atom_site_fract_y
 _atom_site_fract_z
 _atom_site_occupancy
  Pr  Pr0  1  0.00000000  0.75644600  0.93696400  1
  Pr  Pr1  1  0.00000000  0.25464200  0.56685400  1
  Pr  Pr2  1  0.50000000  0.24106000  0.04824600  1
  Pr  Pr3  1  0.50000000  0.74625100  0.44365500  1
  In  In0  1  0.00000000  0.64029800  0.63898200  1
  In  In1  1  0.00000000  0.14017100  0.86141400  1
  In  In2  1  0.50000000  0.36325500  0.36988500  1
  In  In3  1  0.50000000  0.86349100  0.13768100  1
  In  In4  1  0.00000000  0.31208400  0.24218600  1
  Cu  Cu0  1  0.00000000  0.04577700  0.10224700  1
  Cu  Cu1  1  0.00000000  0.56749300  0.39676400  1
  Cu  Cu2  1  0.50000000  0.94064800  0.89206600  1
  Cu  Cu3  1  0.50000000  0.44374700  0.60922200  1
  Cu  Cu4  1  0.25109300  0.93378000  0.68937000  1
  Cu  Cu5  1  0.74753800  0.43393300  0.81094600  1
  Cu  Cu6  1  0.74391000  0.05585000  0.31359400  1
  Cu  Cu7  1  0.25451500  0.57673000  0.18653600  1
  Cu  Cu8  1  0.25609000  0.05585000  0.31359400  1
  Cu  Cu9  1  0.74548500  0.57673000  0.18653600  1
  Cu  Cu10  1  0.74890700  0.93378000  0.68937000  1
  Cu  Cu11  1  0.25246200  0.43393300  0.81094600  1
  Cu  Cu12  1  0.00000000  0.42247500  0.00909200  1
  Cu  Cu13  1  0.00000000  0.91710000  0.48634600  1
  Cu  Cu14  1  0.50000000  0.58099600  0.98452000  1
  Cu  Cu15  1  0.50000000  0.08107300  0.51646900  1
  Cu  Cu16  1  0.00000000  0.81467400  0.25794700  1
  Cu  Cu17  1  0.50000000  0.68430100  0.75660200  1
  Cu  Cu18  1  0.50000000  0.18343500  0.74196500  1
loop_
_geom_bond_atom_site_label_1
_geom_bond_atom_site_label_2
_geom_bond_distance
_geom_bond_site_symmetry_2
In0 Pr0 3.358248 1_555
In0 Pr1 3.370379 1_555
In0 Pr3 3.432389 1_455
In0 Pr3 3.432389 1_555
In1 Pr1 3.304701 1_555
In1 Pr0 3.351426 1_545
In1 Pr2 3.374248 1_456
In1 Pr2 3.374248 1_556
In2 In4 2.945331 1_655
In2 In4 2.945331 1_555
In2 Pr3 3.352666 1_555
In2 Pr1 3.449040 1_655
In2 Pr1 3.449040 1_555
In2 Pr2 3.616845 1_555
In3 Pr2 3.339504 1_565
In3 Pr3 3.428725 1_555
In3 Pr0 3.478950 1_554
In3 Pr0 3.478950 1_654
In4 Pr2 3.364688 1_555
In4 Pr2 3.364688 1_455
In4 Pr1 3.519807 1_555
Cu0 Cu16 2.569079 1_545
Cu0 Cu6 2.626778 1_455
Cu0 Cu8 2.626778 1_555
Cu0 In1 2.703893 1_554
Cu0 In4 2.724973 1_555
Cu0 In3 3.020668 1_445
Cu0 In3 3.020668 1_545
Cu0 Pr0 3.042334 1_544
Cu0 Pr2 3.108746 1_455
Cu0 Pr2 3.108746 1_555
Cu1 Cu16 2.565604 1_555
Cu1 Cu7 2.611025 1_555
Cu1 Cu9 2.611025 1_455
Cu1 In0 2.680313 1_555
Cu1 In4 2.741680 1_555
Cu1 Pr3 3.026904 1_455
Cu1 Pr3 3.026904 1_555
Cu1 In2 3.113032 1_455
Cu1 In2 3.113032 1_555
Cu1 Pr1 3.212927 1_555
Cu2 Cu4 2.526970 1_555
Cu2 In3 2.715119 1_556
Cu2 Pr0 3.043085 1_555
Cu2 Pr0 3.043085 1_655
Cu2 Pr2 3.063904 1_566
Cu2 In1 3.092370 1_665
Cu2 In1 3.092370 1_565
Cu3 Cu5 2.514182 1_555
Cu3 In2 2.666646 1_555
Cu3 Pr1 3.064203 1_555
Cu3 Pr1 3.064203 1_655
Cu3 In0 3.080302 1_555
Cu3 In0 3.080302 1_655
Cu3 Pr3 3.113348 1_555
Cu4 In0 2.860877 1_555
Cu4 In1 2.863838 1_565
Cu4 Pr1 3.280662 1_565
Cu4 Pr0 3.309133 1_555
Cu4 Pr3 3.347720 1_555
Cu5 In0 2.849112 1_655
Cu5 In1 2.859118 1_655
Cu5 Pr2 3.277047 1_556
Cu5 Pr1 3.307777 1_655
Cu5 Pr0 3.326980 1_655
Cu6 Cu8 2.505207 1_555
Cu6 Cu8 2.630308 1_655
Cu6 In4 2.650577 1_655
Cu6 In3 2.803162 1_545
Cu6 In2 2.961432 1_555
Cu6 Pr3 3.221178 1_545
Cu6 Pr1 3.472367 1_655
Cu6 Pr2 3.479536 1_555
Cu7 Cu9 2.521384 1_555
Cu7 Cu9 2.614131 1_455
Cu7 In4 2.663421 1_555
Cu7 In3 2.787942 1_555
Cu7 In2 2.950122 1_555
Cu7 Pr0 3.342093 1_554
Cu7 Pr3 3.370188 1_555
Cu7 Pr2 3.461797 1_555
Cu8 In4 2.650577 1_555
Cu8 In3 2.803162 1_545
Cu8 In2 2.961432 1_555
Cu8 Pr3 3.221178 1_545
Cu8 Pr1 3.472367 1_555
Cu8 Pr2 3.479536 1_555
Cu9 In4 2.663421 1_655
Cu9 In3 2.787942 1_555
Cu9 In2 2.950122 1_555
Cu9 Pr0 3.342093 1_654
Cu9 Pr3 3.370188 1_555
Cu9 Pr2 3.461797 1_555
Cu10 Cu2 2.526970 1_555
Cu10 Cu13 2.539526 1_655
Cu10 Cu18 2.542449 1_565
Cu10 Cu4 2.556531 1_555
Cu10 Cu15 2.572135 1_565
Cu10 Cu17 2.572723 1_555
Cu10 Cu4 2.578984 1_655
Cu10 In0 2.860877 1_655
Cu10 In1 2.863838 1_665
Cu10 Pr1 3.280662 1_665
Cu10 Pr0 3.309133 1_655
Cu10 Pr3 3.347720 1_555
Cu11 Cu12 2.494570 1_556
Cu11 Cu3 2.514182 1_555
Cu11 Cu17 2.540942 1_555
Cu11 Cu5 2.542470 1_555
Cu11 Cu14 2.586631 1_555
Cu11 Cu18 2.590829 1_555
Cu11 Cu5 2.593045 1_455
Cu11 In0 2.849112 1_555
Cu11 In1 2.859118 1_555
Cu11 Pr2 3.277047 1_556
Cu11 Pr1 3.307777 1_555
Cu11 Pr0 3.326980 1_555
Cu12 Cu5 2.494570 1_454
Cu12 Cu7 2.664343 1_555
Cu12 Cu9 2.664343 1_455
Cu12 In4 2.668202 1_555
Cu12 In1 2.884665 1_554
Cu12 Cu14 2.910142 1_554
Cu12 Cu14 2.910142 1_454
Cu12 Pr0 2.933727 1_554
Cu12 Pr2 3.022046 1_455
Cu12 Pr2 3.022046 1_555
Cu13 Cu4 2.539526 1_555
Cu13 Cu8 2.555688 1_565
Cu13 Cu6 2.555688 1_465
Cu13 Cu16 2.610533 1_555
Cu13 In0 2.855747 1_555
Cu13 Pr3 2.986282 1_455
Cu13 Pr3 2.986282 1_555
Cu13 Pr1 2.999729 1_565
Cu14 Cu9 2.510768 1_556
Cu14 Cu7 2.510768 1_556
Cu14 Cu5 2.586631 1_555
Cu14 Cu17 2.595675 1_555
Cu14 In3 2.919213 1_556
Cu14 Pr2 2.961079 1_556
Cu14 Pr0 3.010279 1_655
Cu14 Pr0 3.010279 1_555
Cu15 Cu8 2.525199 1_555
Cu15 Cu6 2.525199 1_555
Cu15 Cu4 2.572135 1_545
Cu15 Cu18 2.580947 1_555
Cu15 In2 2.857285 1_555
Cu15 Pr3 2.954050 1_545
Cu15 Pr1 3.011668 1_655
Cu15 Pr1 3.011668 1_555
Cu16 Cu6 2.509645 1_465
Cu16 Cu8 2.509645 1_565
Cu16 Cu9 2.530183 1_455
Cu16 Cu7 2.530183 1_555
Cu16 In3 2.903085 1_555
Cu16 In3 2.903085 1_455
Cu16 Pr3 3.301100 1_455
Cu16 Pr3 3.301100 1_555
Cu16 Pr0 3.488907 1_554
Cu17 Cu5 2.540942 1_555
Cu17 Cu4 2.572723 1_555
Cu17 Cu3 2.594055 1_555
Cu17 Cu2 2.627620 1_555
Cu17 In0 2.887609 1_655
Cu17 In0 2.887609 1_555
Cu17 Pr0 3.277884 1_555
Cu17 Pr0 3.277884 1_655
Cu17 Pr3 3.400509 1_555
Cu18 Cu4 2.542449 1_545
Cu18 Cu5 2.590829 1_555
Cu18 Cu2 2.607838 1_545
Cu18 Cu3 2.621402 1_555
Cu18 In1 2.892991 1_555
Cu18 In1 2.892991 1_655
Cu18 Pr1 3.237885 1_655
Cu18 Pr1 3.237885 1_555
Cu18 Pr2 3.331764 1_556
