# generated using pymatgen
data_UGaRu
_symmetry_space_group_name_H-M   'P 1'
_cell_length_a   6.85336207
_cell_length_b   6.85297817
_cell_length_c   4.04995927
_cell_angle_alpha   90.00000000
_cell_angle_beta   90.00000000
_cell_angle_gamma   120.00131946
_symmetry_Int_Tables_number   1
_chemical_formula_structural   UGaRu
_chemical_formula_sum   'U3 Ga3 Ru3'
_cell_volume   164.72462905
_cell_formula_units_Z   3
loop_
 _symmetry_equiv_pos_site_id
 _symmetry_equiv_pos_as_xyz
  1  'x, y, z'
loop_
 _atom_site_type_symbol
 _atom_site_label
 _atom_site_symmetry_multiplicity
 _atom_site_fract_x
 _atom_site_fract_y
 _atom_site_fract_z
 _atom_site_occupancy
  U  U0  1  0.42458727  0.00000149  0.50000000  1
  U  U1  1  0.00000222  0.42459095  0.50000000  1
  U  U2  1  0.57541350  0.57541134  0.50000000  1
  Ga  Ga0  1  0.76450284  -0.00000512  -0.00000000  1
  Ga  Ga1  1  -0.00003363  0.76443916  0.00000000  1
  Ga  Ga2  1  0.23553890  0.23556762  0.00000000  1
  Ru  Ru0  1  0.33332595  0.66665828  -0.00000000  1
  Ru  Ru1  1  0.66666977  0.33333796  0.00000000  1
  Ru  Ru2  1  -0.00000682  -0.00000268  0.50000000  1
loop_
_geom_bond_atom_site_label_1
_geom_bond_atom_site_label_2
_geom_bond_distance
_geom_bond_site_symmetry_2
Ga0 Ru2 2.589438 1_655
Ga0 Ru2 2.589438 1_654
Ga0 Ru1 2.683228 1_555
Ga0 Ru0 2.683243 1_545
Ga0 Ga1 2.795527 1_645
Ga0 Ga2 2.795649 1_655
Ga0 U0 3.086668 1_555
Ga0 U0 3.086668 1_554
Ga0 U2 3.236549 1_544
Ga0 U2 3.236549 1_545
Ga0 U1 3.236609 1_655
Ga0 U1 3.236609 1_654
Ga1 Ru2 2.589620 1_564
Ga1 Ru2 2.589620 1_565
Ga1 Ru1 2.682737 1_455
Ga1 Ru0 2.683197 1_555
Ga1 Ga2 2.796041 1_565
Ga1 U1 3.086297 1_555
Ga1 U1 3.086297 1_554
Ga1 U2 3.236540 1_455
Ga1 U2 3.236540 1_454
Ga1 U0 3.236842 1_564
Ga1 U0 3.236842 1_565
Ga2 Ru2 2.589684 1_554
Ga2 Ru2 2.589684 1_555
Ga2 Ru0 2.682689 1_555
Ga2 Ru1 2.683165 1_555
Ga2 U2 3.086275 1_555
Ga2 U2 3.086275 1_554
Ga2 U1 3.236562 1_555
Ga2 U1 3.236562 1_554
Ga2 U0 3.236798 1_555
Ga2 U0 3.236798 1_554
Ru0 U1 2.877704 1_555
Ru0 U1 2.877704 1_554
Ru0 U0 2.877735 1_565
Ru0 U0 2.877735 1_564
Ru0 U2 2.877799 1_555
Ru0 U2 2.877799 1_554
Ru1 U2 2.877718 1_555
Ru1 U2 2.877718 1_554
Ru1 U0 2.877719 1_554
Ru1 U0 2.877719 1_555
Ru1 U1 2.877788 1_654
Ru1 U1 2.877788 1_655
Ru2 U2 2.909680 1_445
Ru2 U1 2.909700 1_555
Ru2 U0 2.909883 1_555
