# generated using pymatgen
data_Ce19Ga13
_symmetry_space_group_name_H-M   'P 1'
_cell_length_a   8.29186400
_cell_length_b   8.29186400
_cell_length_c   11.60307500
_cell_angle_alpha   90.00000000
_cell_angle_beta   90.00000000
_cell_angle_gamma   90.00000000
_symmetry_Int_Tables_number   1
_chemical_formula_structural   Ce19Ga13
_chemical_formula_sum   'Ce19 Ga13'
_cell_volume   797.76952135
_cell_formula_units_Z   1
loop_
 _symmetry_equiv_pos_site_id
 _symmetry_equiv_pos_as_xyz
  1  'x, y, z'
loop_
 _atom_site_type_symbol
 _atom_site_label
 _atom_site_symmetry_multiplicity
 _atom_site_fract_x
 _atom_site_fract_y
 _atom_site_fract_z
 _atom_site_occupancy
  Ce  Ce0  1  0.91609000  0.41727100  0.41357300  1
  Ce  Ce1  1  0.56565200  0.40778000  0.90985900  1
  Ce  Ce2  1  0.93434800  0.09222000  0.90985900  1
  Ce  Ce3  1  0.58391000  0.08272900  0.41357300  1
  Ce  Ce4  1  0.40778000  0.93434800  0.90985900  1
  Ce  Ce5  1  0.08272900  0.91609000  0.41357300  1
  Ce  Ce6  1  0.41727100  0.58391000  0.41357300  1
  Ce  Ce7  1  0.09222000  0.56565200  0.90985900  1
  Ce  Ce8  1  0.09161000  0.56664400  0.58873000  1
  Ce  Ce9  1  0.41743100  0.58376000  0.08571700  1
  Ce  Ce10  1  0.08256900  0.91624000  0.08571700  1
  Ce  Ce11  1  0.40839000  0.93335600  0.58873000  1
  Ce  Ce12  1  0.58376000  0.08256900  0.08571700  1
  Ce  Ce13  1  0.93335600  0.09161000  0.58873000  1
  Ce  Ce14  1  0.56664400  0.40839000  0.58873000  1
  Ce  Ce15  1  0.91624000  0.41743100  0.08571700  1
  Ce  Ce16  1  0.25000000  0.25000000  0.25253700  1
  Ce  Ce17  1  0.75000000  0.75000000  0.25142200  1
  Ce  Ce18  1  0.75000000  0.75000000  0.75166500  1
  Ga  Ga0  1  0.12260100  0.62064900  0.24990100  1
  Ga  Ga1  1  0.38331100  0.63606800  0.74939900  1
  Ga  Ga2  1  0.11668900  0.86393200  0.74939900  1
  Ga  Ga3  1  0.37739900  0.87935100  0.24990100  1
  Ga  Ga4  1  0.63606800  0.11668900  0.74939900  1
  Ga  Ga5  1  0.87935100  0.12260100  0.24990100  1
  Ga  Ga6  1  0.62064900  0.37739900  0.24990100  1
  Ga  Ga7  1  0.86393200  0.38331100  0.74939900  1
  Ga  Ga8  1  0.25000000  0.25000000  0.51130500  1
  Ga  Ga9  1  0.25000000  0.25000000  0.99175700  1
  Ga  Ga10  1  0.75000000  0.75000000  0.50136200  1
  Ga  Ga11  1  0.75000000  0.75000000  0.00153600  1
  Ga  Ga12  1  0.25000000  0.25000000  0.74969800  1
loop_
_geom_bond_atom_site_label_1
_geom_bond_atom_site_label_2
_geom_bond_distance
_geom_bond_site_symmetry_2
Ce0 Ce8 2.789753 1_655
Ce0 Ga0 3.063110 1_655
Ce0 Ga5 3.109566 1_555
Ce0 Ga6 3.117240 1_555
Ce0 Ga10 3.247465 1_555
Ce0 Ga8 3.297814 1_655
Ce0 Ce13 3.382721 1_555
Ce0 Ce14 3.540022 1_555
Ce1 Ce9 2.793456 1_556
Ce1 Ga1 3.055419 1_555
Ce1 Ga9 3.076544 1_555
Ce1 Ga7 3.102382 1_555
Ce1 Ga4 3.103741 1_555
Ce1 Ce12 3.384943 1_556
Ce1 Ga11 3.394161 1_556
Ce1 Ga12 3.466354 1_555
Ce1 Ce15 3.552581 1_556
Ce2 Ga2 3.055419 1_645
Ce2 Ga9 3.076544 1_655
Ce2 Ga4 3.102382 1_555
Ce2 Ga7 3.103741 1_555
Ce2 Ga11 3.394161 1_546
Ce2 Ga12 3.466354 1_655
Ce3 Ga3 3.063110 1_545
Ce3 Ga6 3.109566 1_555
Ce3 Ga5 3.117240 1_555
Ce3 Ga10 3.247465 1_545
Ce3 Ga8 3.297814 1_555
Ce4 Ga4 3.055419 1_565
Ce4 Ga9 3.076544 1_565
Ce4 Ga1 3.102382 1_555
Ce4 Ga2 3.103741 1_555
Ce4 Ga11 3.394161 1_556
Ce4 Ga12 3.466354 1_565
Ce4 Ce9 3.552581 1_556
Ce5 Ga5 3.063110 1_465
Ce5 Ga3 3.109566 1_555
Ce5 Ga0 3.117240 1_555
Ce5 Ga10 3.247465 1_455
Ce5 Ga8 3.297814 1_565
Ce5 Ce8 3.540022 1_555
Ce6 Ga6 3.063110 1_555
Ce6 Ga0 3.109566 1_555
Ce6 Ga3 3.117240 1_555
Ce6 Ga10 3.247465 1_555
Ce6 Ga8 3.297814 1_555
Ce6 Ce8 3.382721 1_555
Ce7 Ga7 3.055419 1_455
Ce7 Ga9 3.076544 1_555
Ce7 Ga2 3.102382 1_555
Ce7 Ga1 3.103741 1_555
Ce7 Ce9 3.384943 1_556
Ce7 Ga11 3.394161 1_456
Ce7 Ga12 3.466354 1_555
Ce8 Ga7 3.057849 1_455
Ce8 Ga8 3.070108 1_555
Ce8 Ga2 3.097623 1_555
Ce8 Ga1 3.107596 1_555
Ce8 Ga10 3.370860 1_455
Ce8 Ga12 3.479495 1_555
Ce9 Ga6 3.065373 1_555
Ce9 Ga0 3.114361 1_555
Ce9 Ga3 3.121980 1_555
Ce9 Ga11 3.233976 1_555
Ce9 Ga9 3.282533 1_554
Ce10 Ce2 2.793456 1_464
Ce10 Ga5 3.065373 1_465
Ce10 Ga3 3.114361 1_555
Ce10 Ga0 3.121980 1_555
Ce10 Ga11 3.233976 1_455
Ce10 Ga9 3.282533 1_564
Ce10 Ce4 3.384943 1_554
Ce10 Ce7 3.552581 1_554
Ce11 Ce3 2.789753 1_565
Ce11 Ga4 3.057849 1_565
Ce11 Ga8 3.070108 1_565
Ce11 Ga1 3.097623 1_555
Ce11 Ga2 3.107596 1_555
Ce11 Ga10 3.370860 1_555
Ce11 Ce5 3.382721 1_555
Ce11 Ga12 3.479495 1_565
Ce11 Ce6 3.540022 1_555
Ce12 Ce4 2.793456 1_544
Ce12 Ga3 3.065373 1_545
Ce12 Ga6 3.114361 1_555
Ce12 Ga5 3.121980 1_555
Ce12 Ga11 3.233976 1_545
Ce12 Ga9 3.282533 1_554
Ce12 Ce2 3.552581 1_554
Ce13 Ce5 2.789753 1_645
Ce13 Ga2 3.057849 1_645
Ce13 Ga8 3.070108 1_655
Ce13 Ga4 3.097623 1_555
Ce13 Ga7 3.107596 1_555
Ce13 Ga10 3.370860 1_545
Ce13 Ga12 3.479495 1_655
Ce13 Ce3 3.540022 1_555
Ce14 Ce6 2.789753 1_555
Ce14 Ga1 3.057849 1_555
Ce14 Ga8 3.070108 1_555
Ce14 Ga7 3.097623 1_555
Ce14 Ga4 3.107596 1_555
Ce14 Ga10 3.370860 1_555
Ce14 Ce3 3.382721 1_555
Ce14 Ga12 3.479495 1_555
Ce15 Ce7 2.793456 1_654
Ce15 Ga0 3.065373 1_655
Ce15 Ga5 3.114361 1_555
Ce15 Ga6 3.121980 1_555
Ce15 Ga11 3.233976 1_555
Ce15 Ga9 3.282533 1_654
Ce15 Ce2 3.384943 1_554
Ce16 Ga8 3.002505 1_555
Ce16 Ga9 3.025850 1_554
Ce16 Ga3 3.249996 1_545
Ce16 Ga6 3.249996 1_555
Ce16 Ga5 3.249996 1_455
Ce16 Ga0 3.249996 1_555
Ce17 Ga11 2.899446 1_555
Ce17 Ga10 2.900073 1_555
Ce17 Ga0 3.270483 1_655
Ce17 Ga5 3.270483 1_565
Ce17 Ga3 3.270483 1_555
Ce17 Ga6 3.270483 1_555
Ce18 Ga11 2.899272 1_556
Ce18 Ga10 2.904284 1_555
Ce18 Ga2 3.184026 1_655
Ce18 Ga4 3.184026 1_565
Ce18 Ga7 3.184026 1_555
Ce18 Ga1 3.184026 1_555
Ga0 Ga3 3.010857 1_555
Ga1 Ga2 2.908179 1_555
Ga4 Ga7 2.908179 1_555
Ga5 Ga6 3.010857 1_555
Ga12 Ga8 2.766092 1_555
Ga12 Ga9 2.808629 1_555
