# generated using pymatgen
data_NbVSi4
_symmetry_space_group_name_H-M   'P 1'
_cell_length_a   13.01680700
_cell_length_b   4.68994100
_cell_length_c   4.71008890
_cell_angle_alpha   60.32921376
_cell_angle_beta   90.00000000
_cell_angle_gamma   90.00000000
_symmetry_Int_Tables_number   1
_chemical_formula_structural   NbVSi4
_chemical_formula_sum   'Nb3 V3 Si12'
_cell_volume   249.84045462
_cell_formula_units_Z   3
loop_
 _symmetry_equiv_pos_site_id
 _symmetry_equiv_pos_as_xyz
  1  'x, y, z'
loop_
 _atom_site_type_symbol
 _atom_site_label
 _atom_site_symmetry_multiplicity
 _atom_site_fract_x
 _atom_site_fract_y
 _atom_site_fract_z
 _atom_site_occupancy
  Nb  Nb0  1  0.08198100  0.50000000  0.50000000  1
  Nb  Nb1  1  0.58536900  0.50000000  0.50000000  1
  Nb  Nb2  1  0.24944800  0.00000000  0.50000000  1
  V  V0  1  0.74958700  0.00000000  0.50000000  1
  V  V1  1  0.41807000  0.50000000  0.00000000  1
  V  V2  1  0.91558400  0.50000000  0.00000000  1
  Si  Si0  1  0.07899400  0.83446700  0.84426400  1
  Si  Si1  1  0.58436600  0.83618100  0.83707500  1
  Si  Si2  1  0.25311400  0.32370500  0.84328400  1
  Si  Si3  1  0.75315500  0.32099800  0.84590800  1
  Si  Si4  1  0.41787100  0.84206700  0.31561500  1
  Si  Si5  1  0.91248100  0.84497300  0.32268400  1
  Si  Si6  1  0.07899400  0.16553300  0.15573600  1
  Si  Si7  1  0.58436600  0.16381900  0.16292500  1
  Si  Si8  1  0.25311400  0.67629500  0.15671600  1
  Si  Si9  1  0.75315500  0.67900200  0.15409200  1
  Si  Si10  1  0.41787100  0.15793300  0.68438500  1
  Si  Si11  1  0.91248100  0.15502700  0.67731600  1
loop_
_geom_bond_atom_site_label_1
_geom_bond_atom_site_label_2
_geom_bond_distance
_geom_bond_site_symmetry_2
Nb0 Si11 2.616360 1_455
Nb0 Si5 2.616360 1_455
Nb0 Si2 2.633754 1_555
Nb0 Si8 2.633754 1_555
Nb0 Si0 2.684189 1_554
Nb0 Si6 2.684189 1_556
Nb0 Si6 2.713412 1_565
Nb0 Si0 2.713412 1_545
Nb0 Si6 2.758554 1_555
Nb0 Si0 2.758554 1_555
Nb1 Si4 2.588865 1_555
Nb1 Si10 2.588865 1_555
Nb1 Si9 2.602909 1_555
Nb1 Si3 2.602909 1_555
Nb1 Si7 2.705504 1_565
Nb1 Si1 2.705504 1_545
Nb1 Si1 2.713243 1_554
Nb1 Si7 2.713243 1_556
Nb1 Si7 2.735863 1_555
Nb1 Si1 2.735863 1_555
Nb2 Si4 2.597314 1_545
Nb2 Si10 2.597314 1_555
Nb2 Si6 2.628429 1_555
Nb2 Si0 2.628429 1_545
Nb2 Si2 2.688079 1_554
Nb2 Si8 2.688079 1_546
Nb2 Si2 2.711397 1_555
Nb2 Si8 2.711397 1_545
Nb2 Si2 2.756723 1_545
Nb2 Si8 2.756723 1_555
Si0 V2 2.526649 1_456
Si0 Si11 2.531023 1_465
Si0 Si8 2.602355 1_556
Si0 Si6 2.611178 1_566
Si0 Si6 2.727270 1_556
Si0 Si6 2.818308 1_565
Si1 Si10 2.533135 1_565
Si1 Si9 2.551562 1_556
Si1 V0 2.555110 1_565
Si1 V1 2.561756 1_556
Si1 Si7 2.655475 1_566
Si1 Si7 2.740010 1_556
Si1 Si7 2.759198 1_565
Si2 V1 2.538341 1_556
Si2 Si6 2.602355 1_556
Si2 Si8 2.638341 1_546
Si2 Si8 2.707549 1_556
Si2 Si8 2.810291 1_555
Si3 V2 2.510989 1_556
Si3 Si7 2.551562 1_556
Si3 Si9 2.616432 1_546
Si3 V0 2.677360 1_556
Si3 Si9 2.709076 1_556
Si3 V0 2.711344 1_555
Si3 V0 2.767838 1_565
Si3 Si9 2.832041 1_555
Si4 Si8 2.517939 1_555
Si4 Si7 2.533135 1_565
Si4 V1 2.672958 1_555
Si4 V1 2.681400 1_565
Si4 V1 2.800874 1_556
Si5 Si9 2.479827 1_555
Si5 V0 2.514606 1_565
Si5 Si6 2.531023 1_665
Si5 V2 2.669550 1_565
Si5 V2 2.713621 1_555
Si5 V2 2.772494 1_556
Si6 V2 2.526649 1_455
Si7 V0 2.555110 1_555
Si7 V1 2.561756 1_555
Si8 V1 2.538341 1_555
Si9 V2 2.510989 1_555
Si9 V0 2.677360 1_564
Si9 V0 2.711344 1_565
Si9 V0 2.767838 1_555
Si10 Si2 2.517939 1_555
Si10 Si4 2.583340 1_546
Si10 V1 2.672958 1_556
Si10 V1 2.681400 1_546
Si10 Si4 2.785484 1_545
Si10 Si4 2.791817 1_555
Si10 V1 2.800874 1_555
Si11 Si3 2.479827 1_555
Si11 V0 2.514606 1_555
Si11 Si5 2.641666 1_546
Si11 V2 2.669550 1_546
Si11 Si5 2.703566 1_545
Si11 V2 2.713621 1_556
Si11 V2 2.772494 1_555
Si11 Si5 2.812376 1_555
