# generated using pymatgen
data_Ce3Si2
_symmetry_space_group_name_H-M   'P 1'
_cell_length_a   4.25348797
_cell_length_b   7.80177085
_cell_length_c   7.80177085
_cell_angle_alpha   89.85160188
_cell_angle_beta   90.00000000
_cell_angle_gamma   90.00000000
_symmetry_Int_Tables_number   1
_chemical_formula_structural   Ce3Si2
_chemical_formula_sum   'Ce6 Si4'
_cell_volume   258.89885690
_cell_formula_units_Z   2
loop_
 _symmetry_equiv_pos_site_id
 _symmetry_equiv_pos_as_xyz
  1  'x, y, z'
loop_
 _atom_site_type_symbol
 _atom_site_label
 _atom_site_symmetry_multiplicity
 _atom_site_fract_x
 _atom_site_fract_y
 _atom_site_fract_z
 _atom_site_occupancy
  Ce  Ce0  1  0.00000000  0.50000000  0.50000000  1
  Ce  Ce1  1  0.00000000  -0.00000000  -0.00000000  1
  Ce  Ce2  1  0.50000000  0.17877219  0.67877219  1
  Ce  Ce3  1  0.50000000  0.82122781  0.32122781  1
  Ce  Ce4  1  0.50000000  0.32225941  0.17774059  1
  Ce  Ce5  1  0.50000000  0.67774059  0.82225941  1
  Si  Si0  1  -0.00000000  0.60955096  0.10955096  1
  Si  Si1  1  0.00000000  0.39044904  0.89044904  1
  Si  Si2  1  0.00000000  0.88924963  0.61075037  1
  Si  Si3  1  0.00000000  0.11075037  0.38924963  1
loop_
_geom_bond_atom_site_label_1
_geom_bond_atom_site_label_2
_geom_bond_distance
_geom_bond_site_symmetry_2
Ce0 Si3 3.159517 1_555
Ce0 Si2 3.159517 1_555
Ce0 Si0 3.161694 1_555
Ce0 Si1 3.161694 1_555
Ce1 Si3 3.159517 1_555
Ce1 Si2 3.159517 1_544
Ce1 Si1 3.161694 1_554
Ce1 Si0 3.161694 1_545
Ce2 Si2 3.148493 1_545
Ce2 Si3 3.148493 1_655
Ce2 Si3 3.148493 1_555
Ce2 Si2 3.148493 1_645
Ce2 Si1 3.160976 1_555
Ce2 Si1 3.160976 1_655
Ce3 Si2 3.148493 1_655
Ce3 Si2 3.148493 1_555
Ce3 Si3 3.148493 1_565
Ce3 Si3 3.148493 1_665
Ce3 Si0 3.160976 1_555
Ce3 Si0 3.160976 1_655
Ce4 Si1 3.134276 1_554
Ce4 Si1 3.134276 1_654
Ce4 Si0 3.134276 1_555
Ce4 Si0 3.134276 1_655
Ce4 Si3 3.155137 1_555
Ce4 Si3 3.155137 1_655
Ce5 Si0 3.134276 1_556
Ce5 Si0 3.134276 1_656
Ce5 Si1 3.134276 1_655
Ce5 Si1 3.134276 1_555
Ce5 Si2 3.155137 1_555
Ce5 Si2 3.155137 1_655
Si0 Si1 2.420561 1_554
Si2 Si3 2.440733 1_565
