# generated using pymatgen
data_ScAgO2
_symmetry_space_group_name_H-M   'P 1'
_cell_length_a   6.42049440
_cell_length_b   6.42049440
_cell_length_c   6.42049394
_cell_angle_alpha   28.79043395
_cell_angle_beta   28.79043395
_cell_angle_gamma   28.79043615
_symmetry_Int_Tables_number   1
_chemical_formula_structural   ScAgO2
_chemical_formula_sum   'Sc1 Ag1 O2'
_cell_volume   54.28183121
_cell_formula_units_Z   1
loop_
 _symmetry_equiv_pos_site_id
 _symmetry_equiv_pos_as_xyz
  1  'x, y, z'
loop_
 _atom_site_type_symbol
 _atom_site_label
 _atom_site_symmetry_multiplicity
 _atom_site_fract_x
 _atom_site_fract_y
 _atom_site_fract_z
 _atom_site_occupancy
  Sc  Sc0  1  0.00211900  0.00211900  0.00211900  1
  Ag  Ag0  1  0.84164500  0.84164500  0.84164500  1
  O  O0  1  0.72337600  0.72337600  0.72337600  1
  O  O1  1  0.27386000  0.27386000  0.27386000  1
loop_
_geom_bond_atom_site_label_1
_geom_bond_atom_site_label_2
_geom_bond_distance
_geom_bond_site_symmetry_2
Ag0 O0 2.182154 1_555
Ag0 O1 2.593395 1_656
Ag0 O1 2.593395 1_566
Ag0 O1 2.593395 1_665
O0 Sc0 2.100387 1_665
O0 Sc0 2.100388 1_656
O0 Sc0 2.100388 1_566
O1 Sc0 2.165311 1_556
O1 Sc0 2.165311 1_565
O1 Sc0 2.165311 1_655
