# generated using pymatgen
data_Mg16Al12Ga
_symmetry_space_group_name_H-M   'P 1'
_cell_length_a   9.11818749
_cell_length_b   9.11818749
_cell_length_c   9.11818749
_cell_angle_alpha   109.47122063
_cell_angle_beta   109.47122063
_cell_angle_gamma   109.47122063
_symmetry_Int_Tables_number   1
_chemical_formula_structural   Mg16Al12Ga
_chemical_formula_sum   'Mg16 Al12 Ga1'
_cell_volume   583.58438483
_cell_formula_units_Z   1
loop_
 _symmetry_equiv_pos_site_id
 _symmetry_equiv_pos_as_xyz
  1  'x, y, z'
loop_
 _atom_site_type_symbol
 _atom_site_label
 _atom_site_symmetry_multiplicity
 _atom_site_fract_x
 _atom_site_fract_y
 _atom_site_fract_z
 _atom_site_occupancy
  Mg  Mg0  1  0.00000000  0.33529600  0.00000000  1
  Mg  Mg1  1  0.33529600  0.00000000  0.00000000  1
  Mg  Mg2  1  0.31399700  0.59888900  0.00000000  1
  Mg  Mg3  1  0.59888900  0.31399700  0.00000000  1
  Mg  Mg4  1  0.40111100  0.40111100  0.71510800  1
  Mg  Mg5  1  0.28489200  0.68600300  0.68600300  1
  Mg  Mg6  1  0.68600300  0.28489200  0.68600300  1
  Mg  Mg7  1  0.66470400  0.66470400  0.66470400  1
  Mg  Mg8  1  0.31399700  0.00000000  0.59888900  1
  Mg  Mg9  1  0.00000000  0.31399700  0.59888900  1
  Mg  Mg10  1  0.71510800  0.40111100  0.40111100  1
  Mg  Mg11  1  0.40111100  0.71510800  0.40111100  1
  Mg  Mg12  1  0.00000000  0.00000000  0.33529600  1
  Mg  Mg13  1  0.59888900  0.00000000  0.31399700  1
  Mg  Mg14  1  0.00000000  0.59888900  0.31399700  1
  Mg  Mg15  1  0.68600300  0.68600300  0.28489200  1
  Al  Al0  1  0.63070000  0.81371000  0.00000000  1
  Al  Al1  1  0.81371000  0.63070000  0.00000000  1
  Al  Al2  1  0.18629000  0.18629000  0.81699000  1
  Al  Al3  1  0.63070000  0.00000000  0.81371000  1
  Al  Al4  1  0.00000000  0.63070000  0.81371000  1
  Al  Al5  1  0.81371000  0.00000000  0.63070000  1
  Al  Al6  1  0.00000000  0.81371000  0.63070000  1
  Al  Al7  1  0.36930000  0.18301000  0.36930000  1
  Al  Al8  1  0.18301000  0.36930000  0.36930000  1
  Al  Al9  1  0.18629000  0.81699000  0.18629000  1
  Al  Al10  1  0.81699000  0.18629000  0.18629000  1
  Al  Al11  1  0.36930000  0.36930000  0.18301000  1
  Ga  Ga0  1  0.00000000  0.00000000  0.00000000  1
loop_
_geom_bond_atom_site_label_1
_geom_bond_atom_site_label_2
_geom_bond_distance
_geom_bond_site_symmetry_2
Mg0 Mg2 3.063726 1_555
Mg0 Mg14 3.063726 1_555
Mg0 Mg6 3.063726 1_454
Mg1 Mg3 3.063726 1_555
Mg1 Mg13 3.063726 1_555
Mg1 Mg5 3.063726 1_544
Mg2 Mg4 3.136662 1_554
Mg2 Mg9 3.169977 1_554
Mg2 Mg5 3.169977 1_554
Mg3 Mg4 3.136662 1_554
Mg3 Mg8 3.169977 1_554
Mg3 Mg6 3.169977 1_554
Mg4 Mg7 3.063726 1_555
Mg4 Mg6 3.169977 1_555
Mg4 Mg5 3.169977 1_555
Mg4 Mg9 3.169977 1_555
Mg4 Mg8 3.169977 1_555
Mg5 Mg9 3.136662 1_555
Mg5 Mg8 3.169977 1_565
Mg6 Mg8 3.136662 1_555
Mg6 Mg9 3.169977 1_655
Mg10 Mg7 3.063726 1_555
Mg10 Mg9 3.136662 1_655
Mg10 Mg14 3.136662 1_655
Mg10 Mg15 3.169977 1_555
Mg10 Mg6 3.169977 1_555
Mg10 Mg13 3.169977 1_555
Mg10 Mg3 3.169977 1_555
Mg11 Mg7 3.063726 1_555
Mg11 Mg8 3.136662 1_565
Mg11 Mg13 3.136662 1_565
Mg11 Mg15 3.169977 1_555
Mg11 Mg5 3.169977 1_555
Mg11 Mg2 3.169977 1_555
Mg11 Mg14 3.169977 1_555
Mg12 Mg8 3.063726 1_555
Mg12 Mg9 3.063726 1_555
Mg12 Mg15 3.063726 1_445
Mg13 Mg6 3.136662 1_555
Mg13 Mg9 3.169977 1_655
Mg13 Mg2 3.169977 1_545
Mg13 Mg15 3.169977 1_545
Mg14 Mg5 3.136662 1_555
Mg14 Mg3 3.169977 1_455
Mg14 Mg8 3.169977 1_565
Mg14 Mg15 3.169977 1_455
Mg15 Mg2 3.136662 1_555
Mg15 Mg3 3.136662 1_555
Al0 Al1 2.725008 1_555
Al0 Al3 2.773847 1_564
Al0 Al10 2.773847 1_565
Al0 Mg2 2.899133 1_555
Al0 Mg13 2.967594 1_565
Al0 Mg5 2.967594 1_554
Al0 Mg7 3.071271 1_554
Al0 Mg12 3.071271 1_665
Al0 Mg4 3.145324 1_554
Al0 Mg15 3.145324 1_555
Al1 Al4 2.773847 1_654
Al1 Al9 2.773847 1_655
Al1 Mg3 2.899133 1_555
Al1 Mg14 2.967594 1_655
Al1 Mg6 2.967594 1_554
Al1 Mg12 3.071271 1_665
Al1 Mg7 3.071271 1_554
Al1 Mg4 3.145324 1_554
Al1 Mg15 3.145324 1_555
Al2 Al5 2.773847 1_455
Al2 Al6 2.773847 1_545
Al2 Mg4 2.899133 1_555
Al2 Mg8 2.967594 1_555
Al2 Mg9 2.967594 1_555
Al2 Mg0 3.071271 1_556
Al2 Mg1 3.071271 1_556
Al2 Mg3 3.145324 1_556
Al2 Mg2 3.145324 1_556
Al3 Al5 2.725008 1_555
Al3 Mg8 2.899133 1_555
Al3 Mg3 2.967594 1_556
Al3 Mg5 2.967594 1_545
Al3 Mg0 3.071271 1_656
Al3 Mg7 3.071271 1_545
Al3 Mg11 3.145324 1_545
Al3 Mg6 3.145324 1_555
Al4 Al6 2.725008 1_555
Al4 Al9 2.773847 1_556
Al4 Mg9 2.899133 1_555
Al4 Mg2 2.967594 1_556
Al4 Mg6 2.967594 1_455
Al4 Mg1 3.071271 1_566
Al4 Mg7 3.071271 1_455
Al4 Mg10 3.145324 1_455
Al4 Mg5 3.145324 1_555
Al5 Al6 2.773847 1_645
Al5 Mg13 2.899133 1_555
Al5 Mg9 2.967594 1_655
Al5 Mg15 2.967594 1_545
Al5 Mg0 3.071271 1_656
Al5 Mg7 3.071271 1_545
Al5 Mg11 3.145324 1_545
Al5 Mg6 3.145324 1_555
Al6 Mg14 2.899133 1_555
Al6 Mg8 2.967594 1_565
Al6 Mg15 2.967594 1_455
Al6 Mg1 3.071271 1_566
Al6 Mg7 3.071271 1_455
Al6 Mg10 3.145324 1_455
Al6 Mg5 3.145324 1_555
Al7 Al9 2.725008 1_545
Al7 Al8 2.773847 1_555
Al7 Mg6 2.899133 1_555
Al7 Mg10 2.967594 1_555
Al7 Mg4 2.967594 1_555
Al7 Mg1 3.071271 1_555
Al7 Mg12 3.071271 1_555
Al7 Mg13 3.145324 1_555
Al7 Mg8 3.145324 1_555
Al8 Mg5 2.899133 1_555
Al8 Mg11 2.967594 1_555
Al8 Mg4 2.967594 1_555
Al8 Mg12 3.071271 1_555
Al8 Mg0 3.071271 1_555
Al8 Mg14 3.145324 1_555
Al8 Mg9 3.145324 1_555
Al9 Mg11 2.899133 1_555
Al9 Mg2 2.967594 1_555
Al9 Mg14 2.967594 1_555
Al9 Mg1 3.071271 1_565
Al9 Mg12 3.071271 1_565
Al9 Mg13 3.145324 1_565
Al9 Mg8 3.145324 1_565
Al10 Al8 2.725008 1_655
Al10 Al3 2.773847 1_554
Al10 Mg10 2.899133 1_555
Al10 Mg13 2.967594 1_555
Al10 Mg3 2.967594 1_555
Al10 Mg0 3.071271 1_655
Al10 Mg12 3.071271 1_655
Al10 Mg9 3.145324 1_655
Al10 Mg14 3.145324 1_655
Al11 Al2 2.725008 1_554
Al11 Al7 2.773847 1_555
Al11 Al8 2.773847 1_555
Al11 Mg15 2.899133 1_555
Al11 Mg10 2.967594 1_555
Al11 Mg11 2.967594 1_555
Al11 Mg1 3.071271 1_555
Al11 Mg0 3.071271 1_555
Al11 Mg2 3.145324 1_555
Al11 Mg3 3.145324 1_555
Ga0 Mg12 3.057292 1_555
Ga0 Mg0 3.057292 1_555
Ga0 Mg1 3.057292 1_555
Ga0 Mg7 3.057292 1_444
