# generated using pymatgen
data_TbCoGe2
_symmetry_space_group_name_H-M   'P 1'
_cell_length_a   8.47902911
_cell_length_b   8.47902911
_cell_length_c   4.11936594
_cell_angle_alpha   90.00000000
_cell_angle_beta   90.00000000
_cell_angle_gamma   151.76334078
_symmetry_Int_Tables_number   1
_chemical_formula_structural   TbCoGe2
_chemical_formula_sum   'Tb2 Co2 Ge4'
_cell_volume   140.11638626
_cell_formula_units_Z   2
loop_
 _symmetry_equiv_pos_site_id
 _symmetry_equiv_pos_as_xyz
  1  'x, y, z'
loop_
 _atom_site_type_symbol
 _atom_site_label
 _atom_site_symmetry_multiplicity
 _atom_site_fract_x
 _atom_site_fract_y
 _atom_site_fract_z
 _atom_site_occupancy
  Tb  Tb0  1  0.89018101  0.10981899  0.25000000  1
  Tb  Tb1  1  0.10981899  0.89018101  0.75000000  1
  Co  Co0  1  0.68129355  0.31870645  0.25000000  1
  Co  Co1  1  0.31870645  0.68129355  0.75000000  1
  Ge  Ge0  1  0.54497519  0.45502481  0.25000000  1
  Ge  Ge1  1  0.45502481  0.54497519  0.75000000  1
  Ge  Ge2  1  0.25051160  0.74948840  0.25000000  1
  Ge  Ge3  1  0.74948840  0.25051160  0.75000000  1
loop_
_geom_bond_atom_site_label_1
_geom_bond_atom_site_label_2
_geom_bond_distance
_geom_bond_site_symmetry_2
Co0 Ge0 2.241868 1_555
Co0 Ge3 2.345230 1_555
Co0 Ge3 2.345230 1_554
Co0 Ge2 2.360824 1_655
Co0 Ge2 2.360824 1_545
Co0 Tb1 3.146689 1_544
Co0 Tb1 3.146689 1_545
Co0 Tb1 3.146689 1_655
Co0 Tb1 3.146689 1_654
Co1 Ge1 2.241868 1_555
Co1 Ge2 2.345230 1_555
Co1 Ge2 2.345230 1_556
Co1 Ge3 2.360824 1_455
Co1 Ge3 2.360824 1_565
Co1 Tb0 3.146689 1_455
Co1 Tb0 3.146689 1_456
Co1 Tb0 3.146689 1_565
Co1 Tb0 3.146689 1_566
Ge0 Ge1 2.535872 1_555
Ge0 Ge1 2.535872 1_554
Ge0 Tb1 3.107600 1_655
Ge0 Tb1 3.107600 1_654
Ge0 Tb1 3.107600 1_544
Ge0 Tb1 3.107600 1_545
Ge0 Tb0 3.279990 1_565
Ge0 Tb0 3.279990 1_455
Ge1 Tb0 3.107600 1_455
Ge1 Tb0 3.107600 1_565
Ge1 Tb0 3.107600 1_566
Ge1 Tb0 3.107600 1_456
Ge1 Tb1 3.279990 1_655
Ge1 Tb1 3.279990 1_545
Ge2 Tb0 3.090917 1_455
Ge2 Tb0 3.090917 1_565
Ge2 Tb1 3.097740 1_554
Ge2 Tb1 3.097740 1_555
Ge3 Tb1 3.090917 1_655
Ge3 Tb1 3.090917 1_545
Ge3 Tb0 3.097740 1_555
Ge3 Tb0 3.097740 1_556
