# generated using pymatgen
data_ZrTiCuS4
_symmetry_space_group_name_H-M   'P 1'
_cell_length_a   7.25169262
_cell_length_b   7.25169262
_cell_length_c   7.25169262
_cell_angle_alpha   120.36950325
_cell_angle_beta   119.52606621
_cell_angle_gamma   90.09201287
_symmetry_Int_Tables_number   1
_chemical_formula_structural   ZrTiCuS4
_chemical_formula_sum   'Zr2 Ti2 Cu2 S8'
_cell_volume   269.84590298
_cell_formula_units_Z   2
loop_
 _symmetry_equiv_pos_site_id
 _symmetry_equiv_pos_as_xyz
  1  'x, y, z'
loop_
 _atom_site_type_symbol
 _atom_site_label
 _atom_site_symmetry_multiplicity
 _atom_site_fract_x
 _atom_site_fract_y
 _atom_site_fract_z
 _atom_site_occupancy
  Zr  Zr0  1  0.00000000  0.00000000  0.00000000  1
  Zr  Zr1  1  0.50000000  0.00000000  0.50000000  1
  Ti  Ti0  1  0.00000000  0.00000000  0.50000000  1
  Ti  Ti1  1  0.00000000  0.50000000  0.00000000  1
  Cu  Cu0  1  0.37740500  0.62740500  0.75000000  1
  Cu  Cu1  1  0.62259500  0.37259500  0.25000000  1
  S  S0  1  0.24177900  0.74118800  0.99940900  1
  S  S1  1  0.24177900  0.24237100  0.50059100  1
  S  S2  1  0.23410200  0.74808500  0.48601700  1
  S  S3  1  0.76206800  0.74808500  0.01398300  1
  S  S4  1  0.75822100  0.25881200  0.00059100  1
  S  S5  1  0.75822100  0.75762900  0.49940900  1
  S  S6  1  0.76589800  0.25191500  0.51398300  1
  S  S7  1  0.23793200  0.25191500  0.98601700  1
loop_
_geom_bond_atom_site_label_1
_geom_bond_atom_site_label_2
_geom_bond_distance
_geom_bond_site_symmetry_2
Cu0 S1 2.272923 1_555
Cu0 S0 2.272929 1_555
Cu0 S3 2.290529 1_556
Cu0 S2 2.290529 1_555
Cu1 S5 2.272923 1_555
Cu1 S4 2.272929 1_555
Cu1 S6 2.290529 1_555
Cu1 S7 2.290529 1_554
S0 Ti1 2.477562 1_556
S0 Zr0 2.570295 1_566
S0 Zr1 2.570295 1_566
S1 Ti0 2.477568 1_555
S1 Zr0 2.570295 1_555
S1 Zr1 2.570300 1_555
S2 Ti0 2.494356 1_565
S2 Ti1 2.494356 1_555
S2 Zr1 2.583444 1_565
S3 Ti1 2.494356 1_655
S3 Ti0 2.494356 1_665
S3 Zr0 2.583444 1_665
S4 Ti1 2.477562 1_655
S4 Zr1 2.570295 1_554
S4 Zr0 2.570295 1_655
S5 Ti0 2.477568 1_665
S5 Zr0 2.570295 1_666
S5 Zr1 2.570300 1_565
S6 Ti1 2.494356 1_656
S6 Ti0 2.494356 1_655
S6 Zr1 2.583444 1_555
S7 Ti1 2.494356 1_556
S7 Ti0 2.494356 1_555
S7 Zr0 2.583444 1_556
