# generated using pymatgen
data_HfSnIr
_symmetry_space_group_name_H-M   'P 1'
_cell_length_a   7.29704515
_cell_length_b   7.29704515
_cell_length_c   3.69680579
_cell_angle_alpha   90.00000000
_cell_angle_beta   90.00000000
_cell_angle_gamma   119.99999773
_symmetry_Int_Tables_number   1
_chemical_formula_structural   HfSnIr
_chemical_formula_sum   'Hf3 Sn3 Ir3'
_cell_volume   170.47132791
_cell_formula_units_Z   3
loop_
 _symmetry_equiv_pos_site_id
 _symmetry_equiv_pos_as_xyz
  1  'x, y, z'
loop_
 _atom_site_type_symbol
 _atom_site_label
 _atom_site_symmetry_multiplicity
 _atom_site_fract_x
 _atom_site_fract_y
 _atom_site_fract_z
 _atom_site_occupancy
  Hf  Hf0  1  0.39438317  0.39438317  0.50000000  1
  Hf  Hf1  1  0.60561683  0.00000000  0.50000000  1
  Hf  Hf2  1  0.00000000  0.60561683  0.50000000  1
  Sn  Sn0  1  0.73241050  0.73241050  0.00000000  1
  Sn  Sn1  1  0.26758950  0.00000000  0.00000000  1
  Sn  Sn2  1  0.00000000  0.26758950  -0.00000000  1
  Ir  Ir0  1  0.66666700  0.33333300  0.00000000  1
  Ir  Ir1  1  0.33333300  0.66666700  0.00000000  1
  Ir  Ir2  1  0.00000000  0.00000000  0.50000000  1
loop_
_geom_bond_atom_site_label_1
_geom_bond_atom_site_label_2
_geom_bond_distance
_geom_bond_site_symmetry_2
Hf0 Ir2 2.877832 1_555
Hf0 Ir1 2.906512 1_555
Hf0 Ir0 2.906512 1_556
Hf0 Ir1 2.906512 1_556
Hf0 Ir0 2.906512 1_555
Hf0 Sn0 3.082323 1_555
Hf0 Sn0 3.082323 1_556
Hf0 Sn2 3.145141 1_555
Hf0 Sn1 3.145141 1_555
Hf0 Sn2 3.145141 1_556
Hf0 Sn1 3.145141 1_556
Hf1 Ir2 2.877832 1_655
Hf1 Ir0 2.906507 1_555
Hf1 Ir0 2.906507 1_556
Hf1 Ir1 2.906509 1_545
Hf1 Ir1 2.906509 1_546
Hf1 Sn1 3.082323 1_555
Hf1 Sn1 3.082323 1_556
Hf1 Sn0 3.145141 1_546
Hf1 Sn0 3.145141 1_545
Hf1 Sn2 3.145141 1_655
Hf1 Sn2 3.145141 1_656
Hf2 Ir2 2.877832 1_565
Hf2 Ir1 2.906507 1_556
Hf2 Ir1 2.906507 1_555
Hf2 Ir0 2.906509 1_456
Hf2 Ir0 2.906509 1_455
Hf2 Sn2 3.082323 1_555
Hf2 Sn2 3.082323 1_556
Hf2 Sn0 3.145141 1_455
Hf2 Sn0 3.145141 1_456
Hf2 Sn1 3.145141 1_565
Hf2 Sn1 3.145141 1_566
Ir0 Sn2 2.704317 1_655
Ir0 Sn1 2.704321 1_555
Ir0 Sn0 2.704324 1_555
Ir1 Sn1 2.704317 1_565
Ir1 Sn2 2.704321 1_555
Ir1 Sn0 2.704324 1_555
Ir2 Sn1 2.688734 1_555
Ir2 Sn1 2.688734 1_556
Ir2 Sn2 2.688734 1_556
Ir2 Sn2 2.688734 1_555
Ir2 Sn0 2.688734 1_446
Ir2 Sn0 2.688734 1_445
