# generated using pymatgen
data_Dy(VCo5)2
_symmetry_space_group_name_H-M   'P 1'
_cell_length_a   4.66450100
_cell_length_b   6.33500294
_cell_length_c   6.33500294
_cell_angle_alpha   97.64607011
_cell_angle_beta   111.60174973
_cell_angle_gamma   68.39825027
_symmetry_Int_Tables_number   1
_chemical_formula_structural   Dy(VCo5)2
_chemical_formula_sum   'Dy1 V2 Co10'
_cell_volume   161.82426963
_cell_formula_units_Z   1
loop_
 _symmetry_equiv_pos_site_id
 _symmetry_equiv_pos_as_xyz
  1  'x, y, z'
loop_
 _atom_site_type_symbol
 _atom_site_label
 _atom_site_symmetry_multiplicity
 _atom_site_fract_x
 _atom_site_fract_y
 _atom_site_fract_z
 _atom_site_occupancy
  Dy  Dy0  1  0.00000000  0.00000000  0.00000000  1
  V  V0  1  0.00000000  0.36115200  0.36115200  1
  V  V1  1  0.00000000  0.63884800  0.63884800  1
  Co  Co0  1  0.71752300  0.78247700  0.21752300  1
  Co  Co1  1  0.28247700  0.21752300  0.78247700  1
  Co  Co2  1  0.50000000  0.77911200  0.77911200  1
  Co  Co3  1  0.50000000  0.22088800  0.22088800  1
  Co  Co4  1  0.50000000  0.00000000  0.50000000  1
  Co  Co5  1  0.00000000  0.00000000  0.50000000  1
  Co  Co6  1  0.50000000  0.50000000  0.00000000  1
  Co  Co7  1  0.00000000  0.50000000  0.00000000  1
  Co  Co8  1  0.64076700  0.35923300  0.64076700  1
  Co  Co9  1  0.35923300  0.64076700  0.35923300  1
loop_
_geom_bond_atom_site_label_1
_geom_bond_atom_site_label_2
_geom_bond_distance
_geom_bond_site_symmetry_2
Dy0 V0 3.012645 1_555
Dy0 V1 3.012645 1_544
V0 V1 2.316475 1_555
Co0 Co4 2.404556 1_565
Co0 Co6 2.404556 1_555
Co0 Co5 2.404556 1_665
Co0 Co7 2.404556 1_655
Co0 Co3 2.582403 1_565
Co0 Co2 2.582403 1_554
Co0 Co9 2.613192 1_555
Co0 Co9 2.613193 1_655
Co0 V1 2.619566 1_655
Co0 V0 2.619566 1_655
Co0 Dy0 2.951785 1_665
Co0 Dy0 2.951785 1_565
Co1 Co6 2.404556 1_556
Co1 Co4 2.404556 1_555
Co1 Co5 2.404556 1_555
Co1 Co7 2.404556 1_556
Co1 Co3 2.582403 1_556
Co1 Co2 2.582403 1_545
Co1 Co8 2.613192 1_555
Co1 Co8 2.613193 1_455
Co1 V1 2.619566 1_555
Co1 V0 2.619566 1_555
Co1 Dy0 2.951785 1_556
Co1 Dy0 2.951785 1_656
Co2 Co6 2.396450 1_556
Co2 Co4 2.396450 1_565
Co2 Co5 2.396450 1_565
Co2 Co7 2.396450 1_656
Co2 Co8 2.606122 1_555
Co2 Co9 2.606122 1_555
Co2 V1 2.609293 1_655
Co2 V1 2.609293 1_555
Co2 Dy0 2.972298 1_666
Co2 Dy0 2.972298 1_566
Co3 Co4 2.396450 1_555
Co3 Co6 2.396450 1_555
Co3 Co5 2.396450 1_655
Co3 Co7 2.396450 1_555
Co3 Co8 2.606122 1_555
Co3 Co9 2.606122 1_555
Co3 V0 2.609293 1_655
Co3 V0 2.609293 1_555
Co3 Dy0 2.972298 1_655
Co3 Dy0 2.972298 1_555
Co4 Co5 2.332250 1_655
Co4 Co5 2.332250 1_555
Co4 Co8 2.556254 1_555
Co4 Co9 2.556254 1_545
Co4 V0 2.558067 1_555
Co4 V1 2.558067 1_645
Co4 Dy0 3.167502 1_656
Co4 Dy0 3.167502 1_555
Co5 Co8 2.556254 1_455
Co5 Co9 2.556254 1_545
Co5 V0 2.558067 1_555
Co5 V1 2.558067 1_545
Co5 Dy0 3.167501 1_555
Co5 Dy0 3.167501 1_556
Co6 Co7 2.332250 1_555
Co6 Co7 2.332250 1_655
Co6 Co9 2.556254 1_555
Co6 Co8 2.556254 1_554
Co6 V0 2.558067 1_655
Co6 V1 2.558067 1_554
Co6 Dy0 3.167502 1_655
Co6 Dy0 3.167502 1_565
Co7 Co9 2.556254 1_555
Co7 Co8 2.556254 1_454
Co7 V1 2.558067 1_554
Co7 V0 2.558067 1_555
Co7 Dy0 3.167501 1_555
Co7 Dy0 3.167501 1_565
Co8 Co9 2.341754 1_555
Co8 V0 2.855146 1_655
Co8 V1 2.855146 1_655
Co8 V0 2.855146 1_555
Co8 V1 2.855146 1_555
Co8 Dy0 2.988042 1_656
Co9 V0 2.855146 1_555
Co9 V1 2.855146 1_555
Co9 V0 2.855146 1_655
Co9 V1 2.855146 1_655
Co9 Dy0 2.988042 1_565
