# generated using pymatgen
data_Er3Al2Ni6H7
_symmetry_space_group_name_H-M   'P 1'
_cell_length_a   7.89668983
_cell_length_b   7.89668983
_cell_length_c   7.89668983
_cell_angle_alpha   109.47122063
_cell_angle_beta   109.47122063
_cell_angle_gamma   109.47122063
_symmetry_Int_Tables_number   1
_chemical_formula_structural   Er3Al2Ni6H7
_chemical_formula_sum   'Er6 Al4 Ni12 H14'
_cell_volume   379.06470540
_cell_formula_units_Z   2
loop_
 _symmetry_equiv_pos_site_id
 _symmetry_equiv_pos_as_xyz
  1  'x, y, z'
loop_
 _atom_site_type_symbol
 _atom_site_label
 _atom_site_symmetry_multiplicity
 _atom_site_fract_x
 _atom_site_fract_y
 _atom_site_fract_z
 _atom_site_occupancy
  Er  Er0  1  0.71911500  0.71911500  0.00000000  1
  Er  Er1  1  0.28088500  0.00000000  0.28088500  1
  Er  Er2  1  0.00000000  0.28088500  0.28088500  1
  Er  Er3  1  0.28088500  0.28088500  0.00000000  1
  Er  Er4  1  0.71911500  0.00000000  0.71911500  1
  Er  Er5  1  0.00000000  0.71911500  0.71911500  1
  Al  Al0  1  0.00000000  0.00000000  0.50000000  1
  Al  Al1  1  0.00000000  0.50000000  0.00000000  1
  Al  Al2  1  0.50000000  0.00000000  0.00000000  1
  Al  Al3  1  0.50000000  0.50000000  0.50000000  1
  Ni  Ni0  1  0.33198300  0.33198300  0.66396700  1
  Ni  Ni1  1  0.66801700  0.00000000  0.33198300  1
  Ni  Ni2  1  0.00000000  0.66801700  0.33198300  1
  Ni  Ni3  1  0.66801700  0.33198300  0.00000000  1
  Ni  Ni4  1  0.33198300  0.66396700  0.33198300  1
  Ni  Ni5  1  0.00000000  0.33198300  0.66801700  1
  Ni  Ni6  1  0.33198300  0.66801700  0.00000000  1
  Ni  Ni7  1  0.33198300  0.00000000  0.66801700  1
  Ni  Ni8  1  0.66396700  0.33198300  0.33198300  1
  Ni  Ni9  1  0.66801700  0.66801700  0.33603300  1
  Ni  Ni10  1  0.66801700  0.33603300  0.66801700  1
  Ni  Ni11  1  0.33603300  0.66801700  0.66801700  1
  H  H0  1  0.00000000  0.00000000  0.75350100  1
  H  H1  1  0.00000000  0.75350100  0.00000000  1
  H  H2  1  0.75350100  0.00000000  0.00000000  1
  H  H3  1  0.24649900  0.24649900  0.24649900  1
  H  H4  1  0.00000000  0.00000000  0.24649900  1
  H  H5  1  0.00000000  0.24649900  0.00000000  1
  H  H6  1  0.24649900  0.00000000  0.00000000  1
  H  H7  1  0.75350100  0.75350100  0.75350100  1
  H  H8  1  0.50000000  0.75000000  0.25000000  1
  H  H9  1  0.25000000  0.75000000  0.50000000  1
  H  H10  1  0.25000000  0.50000000  0.75000000  1
  H  H11  1  0.50000000  0.25000000  0.75000000  1
  H  H12  1  0.75000000  0.50000000  0.25000000  1
  H  H13  1  0.75000000  0.25000000  0.50000000  1
loop_
_geom_bond_atom_site_label_1
_geom_bond_atom_site_label_2
_geom_bond_distance
_geom_bond_site_symmetry_2
Er0 H7 2.142897 1_554
Er0 H4 2.142897 1_665
Er0 H1 2.142897 1_655
Er0 H2 2.142897 1_565
Er1 H6 2.142897 1_555
Er1 H3 2.142897 1_555
Er1 H1 2.142897 1_545
Er1 H4 2.142897 1_555
Er2 H5 2.142897 1_555
Er2 H4 2.142897 1_555
Er2 H3 2.142897 1_555
Er2 H2 2.142897 1_455
Er3 H5 2.142897 1_555
Er3 H3 2.142897 1_555
Er3 H0 2.142897 1_554
Er3 H6 2.142897 1_555
Er4 H5 2.142897 1_656
Er4 H0 2.142897 1_655
Er4 H2 2.142897 1_556
Er4 H7 2.142897 1_545
Er5 H7 2.142897 1_455
Er5 H6 2.142897 1_566
Er5 H1 2.142897 1_556
Er5 H0 2.142897 1_565
Al0 H0 2.001819 1_555
Al0 H4 2.001819 1_555
Al0 Ni0 2.512791 1_555
Al0 Ni9 2.512791 1_445
Al0 Ni1 2.512793 1_455
Al0 Ni7 2.512793 1_555
Al0 Ni5 2.512793 1_555
Al0 Ni2 2.512793 1_545
Al1 H1 2.001819 1_555
Al1 H5 2.001819 1_555
Al1 Ni10 2.512791 1_454
Al1 Ni4 2.512791 1_555
Al1 Ni2 2.512793 1_555
Al1 Ni6 2.512793 1_555
Al1 Ni5 2.512793 1_554
Al1 Ni3 2.512793 1_455
Al2 H2 2.001819 1_555
Al2 H6 2.001819 1_555
Al2 Ni8 2.512791 1_555
Al2 Ni11 2.512791 1_544
Al2 Ni1 2.512793 1_555
Al2 Ni3 2.512793 1_555
Al2 Ni7 2.512793 1_554
Al2 Ni6 2.512793 1_545
Al3 H7 2.001819 1_555
Al3 H3 2.001819 1_555
Al3 Ni10 2.512800 1_555
Al3 Ni11 2.512800 1_555
Al3 Ni9 2.512800 1_555
Al3 Ni8 2.512800 1_555
Al3 Ni4 2.512800 1_555
Al3 Ni0 2.512800 1_555
H8 Ni4 1.704682 1_555
H8 Ni9 1.704682 1_555
H8 Ni6 1.704684 1_555
H8 Ni1 1.704684 1_565
H9 Ni11 1.704682 1_555
H9 Ni4 1.704682 1_555
H9 Ni2 1.704684 1_555
H9 Ni7 1.704684 1_565
H10 Ni11 1.704682 1_555
H10 Ni0 1.704682 1_555
H10 Ni5 1.704684 1_555
H10 Ni6 1.704684 1_556
H11 Ni10 1.704682 1_555
H11 Ni0 1.704682 1_555
H11 Ni7 1.704684 1_555
H11 Ni3 1.704684 1_556
H12 Ni8 1.704682 1_555
H12 Ni9 1.704682 1_555
H12 Ni2 1.704684 1_655
H12 Ni3 1.704684 1_555
H13 Ni8 1.704682 1_555
H13 Ni10 1.704682 1_555
H13 Ni1 1.704684 1_555
H13 Ni5 1.704684 1_655
