# generated using pymatgen
data_Sr3CaV4O12
_symmetry_space_group_name_H-M   'P 1'
_cell_length_a   3.90625900
_cell_length_b   5.49875200
_cell_length_c   10.99415900
_cell_angle_alpha   90.00000000
_cell_angle_beta   90.00000000
_cell_angle_gamma   90.00000000
_symmetry_Int_Tables_number   1
_chemical_formula_structural   Sr3CaV4O12
_chemical_formula_sum   'Sr3 Ca1 V4 O12'
_cell_volume   236.14958233
_cell_formula_units_Z   1
loop_
 _symmetry_equiv_pos_site_id
 _symmetry_equiv_pos_as_xyz
  1  'x, y, z'
loop_
 _atom_site_type_symbol
 _atom_site_label
 _atom_site_symmetry_multiplicity
 _atom_site_fract_x
 _atom_site_fract_y
 _atom_site_fract_z
 _atom_site_occupancy
  Sr  Sr0  1  0.50000000  0.00000000  0.24921100  1
  Sr  Sr1  1  0.50000000  0.50000000  0.50000000  1
  Sr  Sr2  1  0.50000000  0.00000000  0.75078900  1
  Ca  Ca0  1  0.50000000  0.50000000  0.00000000  1
  V  V0  1  0.00000000  0.00000000  0.50000000  1
  V  V1  1  0.00000000  0.50000000  0.75215000  1
  V  V2  1  0.00000000  0.00000000  0.00000000  1
  V  V3  1  0.00000000  0.50000000  0.24785000  1
  O  O0  1  0.00000000  0.24928800  0.62511400  1
  O  O1  1  0.00000000  0.74696600  0.87584300  1
  O  O2  1  0.00000000  0.25303400  0.12415700  1
  O  O3  1  0.00000000  0.75071200  0.37488600  1
  O  O4  1  0.00000000  0.24928800  0.37488600  1
  O  O5  1  0.00000000  0.75071200  0.62511400  1
  O  O6  1  0.00000000  0.25303400  0.87584300  1
  O  O7  1  0.00000000  0.74696600  0.12415700  1
  O  O8  1  0.50000000  0.00000000  0.50000000  1
  O  O9  1  0.50000000  0.50000000  0.75194800  1
  O  O10  1  0.50000000  0.00000000  0.00000000  1
  O  O11  1  0.50000000  0.50000000  0.24805200  1
loop_
_geom_bond_atom_site_label_1
_geom_bond_atom_site_label_2
_geom_bond_distance
_geom_bond_site_symmetry_2
Ca0 O11 2.727123 1_555
Ca0 O9 2.727123 1_554
Ca0 O2 2.742649 1_555
Ca0 O2 2.742649 1_655
Ca0 O7 2.742649 1_555
Ca0 O7 2.742649 1_655
Ca0 O6 2.742649 1_654
Ca0 O1 2.742649 1_654
Ca0 O6 2.742649 1_554
Ca0 O1 2.742649 1_554
Ca0 O10 2.749376 1_565
Ca0 O10 2.749376 1_555
O0 V0 1.941927 1_555
O0 V1 1.962445 1_555
O0 Sr2 2.757318 1_455
O0 Sr2 2.757318 1_555
O0 Sr1 2.758138 1_455
O0 Sr1 2.758138 1_555
O1 V1 1.921850 1_555
O1 V2 1.949139 1_566
O1 Sr2 2.764214 1_465
O1 Sr2 2.764214 1_565
O2 V3 1.921850 1_555
O2 V2 1.949139 1_555
O2 Sr0 2.764214 1_555
O2 Sr0 2.764214 1_455
O3 V0 1.941927 1_565
O3 V3 1.962445 1_555
O3 Sr0 2.757318 1_465
O3 Sr0 2.757318 1_565
O3 Sr1 2.758138 1_555
O3 Sr1 2.758138 1_455
O4 V0 1.941927 1_555
O4 V3 1.962445 1_555
O4 Sr0 2.757318 1_555
O4 Sr0 2.757318 1_455
O4 Sr1 2.758138 1_555
O4 Sr1 2.758138 1_455
O5 V0 1.941927 1_565
O5 V1 1.962445 1_555
O5 Sr2 2.757318 1_465
O5 Sr2 2.757318 1_565
O5 Sr1 2.758138 1_555
O5 Sr1 2.758138 1_455
O6 V1 1.921850 1_555
O6 V2 1.949139 1_556
O6 Sr2 2.764214 1_455
O6 Sr2 2.764214 1_555
O7 V3 1.921850 1_555
O7 V2 1.949139 1_565
O7 Sr0 2.764214 1_465
O7 Sr0 2.764214 1_565
O8 V0 1.953129 1_555
O8 V0 1.953129 1_655
O8 Sr1 2.749376 1_555
O8 Sr1 2.749376 1_545
O8 Sr2 2.757214 1_555
O8 Sr0 2.757214 1_555
O9 V1 1.953131 1_655
O9 V1 1.953131 1_555
O9 Sr2 2.749406 1_555
O9 Sr2 2.749406 1_565
O9 Sr1 2.769956 1_555
O10 V2 1.953129 1_555
O10 V2 1.953129 1_655
O10 Sr0 2.739865 1_555
O10 Sr2 2.739865 1_554
O11 V3 1.953131 1_555
O11 V3 1.953131 1_655
O11 Sr0 2.749406 1_565
O11 Sr0 2.749406 1_555
O11 Sr1 2.769956 1_555
