# generated using pymatgen
data_Li14W7O32
_symmetry_space_group_name_H-M   'P 1'
_cell_length_a   9.65520700
_cell_length_b   9.65520700
_cell_length_c   9.65520700
_cell_angle_alpha   90.00000000
_cell_angle_beta   90.00000000
_cell_angle_gamma   90.00000000
_symmetry_Int_Tables_number   1
_chemical_formula_structural   Li14W7O32
_chemical_formula_sum   'Li14 W7 O32'
_cell_volume   900.08757663
_cell_formula_units_Z   1
loop_
 _symmetry_equiv_pos_site_id
 _symmetry_equiv_pos_as_xyz
  1  'x, y, z'
loop_
 _atom_site_type_symbol
 _atom_site_label
 _atom_site_symmetry_multiplicity
 _atom_site_fract_x
 _atom_site_fract_y
 _atom_site_fract_z
 _atom_site_occupancy
  Li  Li0  1  0.00000000  0.00000000  0.22876800  1
  Li  Li1  1  0.00000000  0.77123200  0.00000000  1
  Li  Li2  1  0.77123200  0.00000000  0.00000000  1
  Li  Li3  1  0.00000000  0.00000000  0.77123200  1
  Li  Li4  1  0.00000000  0.22876800  0.00000000  1
  Li  Li5  1  0.22876800  0.00000000  0.00000000  1
  Li  Li6  1  0.78679500  0.78679500  0.21320500  1
  Li  Li7  1  0.78679500  0.21320500  0.78679500  1
  Li  Li8  1  0.21320500  0.78679500  0.78679500  1
  Li  Li9  1  0.21320500  0.21320500  0.21320500  1
  Li  Li10  1  0.00000000  0.50000000  0.50000000  1
  Li  Li11  1  0.50000000  0.50000000  0.00000000  1
  Li  Li12  1  0.50000000  0.00000000  0.50000000  1
  Li  Li13  1  0.50000000  0.50000000  0.50000000  1
  W  W0  1  0.63254500  0.63254500  0.36745500  1
  W  W1  1  0.63254500  0.36745500  0.63254500  1
  W  W2  1  0.36745500  0.63254500  0.63254500  1
  W  W3  1  0.36745500  0.36745500  0.36745500  1
  W  W4  1  0.00000000  0.00000000  0.50000000  1
  W  W5  1  0.00000000  0.50000000  0.00000000  1
  W  W6  1  0.50000000  0.00000000  0.00000000  1
  O  O0  1  0.37943700  0.89783300  0.10216700  1
  O  O1  1  0.89783300  0.89783300  0.62056300  1
  O  O2  1  0.89783300  0.37943700  0.10216700  1
  O  O3  1  0.37943700  0.10216700  0.89783300  1
  O  O4  1  0.89783300  0.10216700  0.37943700  1
  O  O5  1  0.89783300  0.62056300  0.89783300  1
  O  O6  1  0.62056300  0.89783300  0.89783300  1
  O  O7  1  0.10216700  0.89783300  0.37943700  1
  O  O8  1  0.10216700  0.37943700  0.89783300  1
  O  O9  1  0.62056300  0.10216700  0.10216700  1
  O  O10  1  0.10216700  0.10216700  0.62056300  1
  O  O11  1  0.10216700  0.62056300  0.10216700  1
  O  O12  1  0.82051500  0.61806700  0.38193300  1
  O  O13  1  0.61806700  0.61806700  0.17948500  1
  O  O14  1  0.61806700  0.82051500  0.38193300  1
  O  O15  1  0.82051500  0.38193300  0.61806700  1
  O  O16  1  0.61806700  0.38193300  0.82051500  1
  O  O17  1  0.61806700  0.17948500  0.61806700  1
  O  O18  1  0.17948500  0.61806700  0.61806700  1
  O  O19  1  0.38193300  0.61806700  0.82051500  1
  O  O20  1  0.38193300  0.82051500  0.61806700  1
  O  O21  1  0.17948500  0.38193300  0.38193300  1
  O  O22  1  0.38193300  0.38193300  0.17948500  1
  O  O23  1  0.38193300  0.17948500  0.38193300  1
  O  O24  1  0.40212600  0.40212600  0.59787400  1
  O  O25  1  0.40212600  0.59787400  0.40212600  1
  O  O26  1  0.59787400  0.40212600  0.40212600  1
  O  O27  1  0.59787400  0.59787400  0.59787400  1
  O  O28  1  0.89902100  0.89902100  0.10097900  1
  O  O29  1  0.89902100  0.10097900  0.89902100  1
  O  O30  1  0.10097900  0.89902100  0.89902100  1
  O  O31  1  0.10097900  0.10097900  0.10097900  1
loop_
_geom_bond_atom_site_label_1
_geom_bond_atom_site_label_2
_geom_bond_distance
_geom_bond_site_symmetry_2
Li0 O31 1.850265 1_555
Li0 O28 1.850265 1_445
Li0 O4 2.015542 1_455
Li0 O7 2.015542 1_545
Li1 O28 1.850265 1_455
Li1 O30 1.850265 1_554
Li1 O11 2.015542 1_555
Li1 O5 2.015542 1_454
Li2 O29 1.850265 1_554
Li2 O28 1.850265 1_545
Li2 O6 2.015542 1_544
Li2 O9 2.015542 1_555
Li3 O30 1.850265 1_545
Li3 O29 1.850265 1_455
Li3 O1 2.015542 1_445
Li3 O10 2.015542 1_555
Li4 O31 1.850265 1_555
Li4 O29 1.850265 1_454
Li4 O8 2.015542 1_554
Li4 O2 2.015542 1_455
Li5 O31 1.850265 1_555
Li5 O30 1.850265 1_544
Li5 O3 2.015542 1_554
Li5 O0 2.015542 1_545
Li6 O28 1.876790 1_555
Li6 O13 2.326791 1_555
Li6 O12 2.326791 1_555
Li6 O14 2.326791 1_555
Li7 O29 1.876790 1_555
Li7 O17 2.326791 1_555
Li7 O15 2.326791 1_555
Li7 O16 2.326791 1_555
Li8 O30 1.876790 1_555
Li8 O18 2.326791 1_555
Li8 O20 2.326791 1_555
Li8 O19 2.326791 1_555
Li9 O31 1.876790 1_555
Li9 O23 2.326791 1_555
Li9 O21 2.326791 1_555
Li9 O22 2.326791 1_555
Li10 O21 2.366895 1_555
Li10 O15 2.366895 1_455
Li10 O18 2.366895 1_555
Li10 O12 2.366895 1_455
Li11 O22 2.366895 1_555
Li11 O16 2.366895 1_554
Li11 O19 2.366895 1_554
Li11 O13 2.366895 1_555
Li12 O23 2.366895 1_555
Li12 O20 2.366895 1_545
Li12 O14 2.366895 1_545
Li12 O17 2.366895 1_555
Li13 O26 1.636777 1_555
Li13 O25 1.636777 1_555
Li13 O27 1.636777 1_555
Li13 O24 1.636777 1_555
O0 W6 1.816915 1_565
O1 W4 1.816915 1_665
O2 W5 1.816915 1_655
O3 W6 1.816915 1_556
O4 W4 1.816915 1_655
O5 W5 1.816915 1_656
O6 W6 1.816915 1_566
O7 W4 1.816915 1_565
O8 W5 1.816915 1_556
O9 W6 1.816915 1_555
O10 W4 1.816915 1_555
O11 W5 1.816915 1_555
O12 W0 1.825624 1_555
O13 W0 1.825624 1_555
O14 W0 1.825624 1_555
O15 W1 1.825624 1_555
O16 W1 1.825624 1_555
O17 W1 1.825624 1_555
O18 W2 1.825624 1_555
O19 W2 1.825624 1_555
O20 W2 1.825624 1_555
O21 W3 1.825624 1_555
O22 W3 1.825624 1_555
O23 W3 1.825624 1_555
