# generated using pymatgen
data_Li5Mn3O8
_symmetry_space_group_name_H-M   'P 1'
_cell_length_a   4.98615157
_cell_length_b   9.80613721
_cell_length_c   5.93710085
_cell_angle_alpha   88.72515447
_cell_angle_beta   89.16245776
_cell_angle_gamma   79.63123891
_symmetry_Int_Tables_number   1
_chemical_formula_structural   Li5Mn3O8
_chemical_formula_sum   'Li10 Mn6 O16'
_cell_volume   285.46599262
_cell_formula_units_Z   2
loop_
 _symmetry_equiv_pos_site_id
 _symmetry_equiv_pos_as_xyz
  1  'x, y, z'
loop_
 _atom_site_type_symbol
 _atom_site_label
 _atom_site_symmetry_multiplicity
 _atom_site_fract_x
 _atom_site_fract_y
 _atom_site_fract_z
 _atom_site_occupancy
  Li  Li0  1  0.74987500  0.24998200  0.24988200  1
  Li  Li1  1  0.24985100  0.74992800  0.24981600  1
  Li  Li2  1  0.74995300  0.25004600  0.74995200  1
  Li  Li3  1  0.25000700  0.75002100  0.74987000  1
  Li  Li4  1  0.50179700  0.99783800  0.25126200  1
  Li  Li5  1  0.99806900  0.50222800  0.24884300  1
  Li  Li6  1  0.25814400  0.25280300  0.48946000  1
  Li  Li7  1  0.74107600  0.75047500  0.48036100  1
  Li  Li8  1  0.24170100  0.24727700  0.01056400  1
  Li  Li9  1  0.75868700  0.74962500  0.01921500  1
  Mn  Mn0  1  0.00093700  0.49810900  0.74420600  1
  Mn  Mn1  1  0.99969200  0.99882100  0.00954900  1
  Mn  Mn2  1  0.99854300  0.00061200  0.49844300  1
  Mn  Mn3  1  0.49915500  0.00182300  0.75580300  1
  Mn  Mn4  1  0.50152000  0.49943500  0.00164500  1
  Mn  Mn5  1  0.50031600  0.50114700  0.49054500  1
  O  O0  1  0.10076600  0.11360000  0.23963200  1
  O  O1  1  0.60718100  0.62235800  0.26988700  1
  O  O2  1  0.39918700  0.38646200  0.26032500  1
  O  O3  1  0.89274900  0.87771300  0.23000500  1
  O  O4  1  0.14404000  0.11522300  0.77219700  1
  O  O5  1  0.63447800  0.60840200  0.73941400  1
  O  O6  1  0.35606900  0.38467200  0.72782500  1
  O  O7  1  0.86575000  0.89154700  0.76045400  1
  O  O8  1  0.63931900  0.11036200  0.98458200  1
  O  O9  1  0.13366700  0.60717500  0.97475800  1
  O  O10  1  0.63494900  0.11188300  0.51878500  1
  O  O11  1  0.13878500  0.61192200  0.51366200  1
  O  O12  1  0.86089800  0.38966400  0.51561900  1
  O  O13  1  0.36662100  0.89288600  0.52546000  1
  O  O14  1  0.86510300  0.38799700  0.98141600  1
  O  O15  1  0.36111600  0.88796300  0.98656600  1
loop_
_geom_bond_atom_site_label_1
_geom_bond_atom_site_label_2
_geom_bond_distance
_geom_bond_site_symmetry_2
Li0 O2 2.002667 1_555
Li0 O0 2.002900 1_655
Li0 O14 2.204420 1_554
Li0 O10 2.206240 1_555
Li0 O8 2.247755 1_554
Li0 O12 2.250875 1_555
Li1 O1 1.987674 1_555
Li1 O3 1.987678 1_455
Li1 O15 2.175686 1_554
Li1 O11 2.177629 1_555
Li1 O9 2.320201 1_554
Li1 O13 2.325121 1_555
Li2 O12 2.069170 1_555
Li2 O8 2.070189 1_555
Li2 O10 2.105584 1_555
Li2 O14 2.105587 1_555
Li2 O6 2.164201 1_555
Li2 O4 2.165913 1_655
Li3 O13 2.064806 1_555
Li3 O9 2.065913 1_555
Li3 O11 2.117955 1_555
Li3 O15 2.118631 1_555
Li3 O7 2.155023 1_455
Li3 O5 2.156266 1_555
Li4 O13 2.075270 1_555
Li4 O8 2.087458 1_564
Li4 O3 2.091966 1_555
Li4 O0 2.115482 1_565
Li4 O15 2.121854 1_554
Li4 O10 2.142741 1_565
Li5 O9 2.075576 1_654
Li5 O12 2.087383 1_555
Li5 O1 2.091646 1_555
Li5 O2 2.115834 1_655
Li5 O11 2.121446 1_655
Li5 O14 2.143009 1_554
Li6 O6 2.059678 1_555
Li6 O2 2.070658 1_555
Li6 O10 2.129344 1_555
Li6 O12 2.189056 1_455
Li6 O4 2.260370 1_555
Li6 O0 2.277907 1_555
Li7 O1 1.995438 1_555
Li7 O3 2.135967 1_555
Li7 O13 2.138080 1_555
Li7 O5 2.176305 1_555
Li7 O11 2.201628 1_655
Li7 O7 2.346843 1_555
Li8 O4 2.060457 1_554
Li8 O0 2.070286 1_555
Li8 O14 2.127511 1_454
Li8 O8 2.190693 1_554
Li8 O6 2.259703 1_554
Li8 O2 2.277770 1_555
Li9 O3 1.996829 1_555
Li9 O1 2.137045 1_555
Li9 O9 2.139764 1_654
Li9 O7 2.174932 1_554
Li9 O15 2.199787 1_554
Li9 O5 2.345669 1_554
Mn0 O6 1.916537 1_555
Mn0 O11 1.942213 1_555
Mn0 O14 1.943129 1_455
Mn0 O5 1.948863 1_455
Mn0 O9 1.949851 1_555
Mn0 O12 1.954352 1_455
Mn1 O3 1.883152 1_555
Mn1 O0 1.918222 1_665
Mn1 O8 1.933959 1_564
Mn1 O15 1.934481 1_654
Mn1 O4 2.000311 1_664
Mn1 O7 2.022563 1_554
Mn2 O10 1.944041 1_555
Mn2 O13 1.952726 1_645
Mn2 O0 1.988250 1_655
Mn2 O7 2.037859 1_545
Mn2 O3 2.146995 1_545
Mn2 O4 2.200069 1_655
Mn3 O4 1.916321 1_555
Mn3 O10 1.941928 1_555
Mn3 O15 1.943819 1_545
Mn3 O13 1.947729 1_545
Mn3 O7 1.949354 1_545
Mn3 O8 1.956028 1_555
Mn4 O14 1.944601 1_554
Mn4 O9 1.951766 1_554
Mn4 O2 1.987764 1_555
Mn4 O5 2.038627 1_554
Mn4 O1 2.146022 1_555
Mn4 O6 2.201141 1_554
Mn5 O1 1.884486 1_555
Mn5 O2 1.918321 1_555
Mn5 O12 1.934646 1_555
Mn5 O11 1.934657 1_555
Mn5 O6 2.000234 1_555
Mn5 O5 2.021926 1_555
