# generated using pymatgen
data_Li7Mn2(CoO4)3
_symmetry_space_group_name_H-M   'P 1'
_cell_length_a   2.96027900
_cell_length_b   5.08959001
_cell_length_c   14.46496734
_cell_angle_alpha   89.15457651
_cell_angle_beta   88.03252380
_cell_angle_gamma   87.82876354
_symmetry_Int_Tables_number   1
_chemical_formula_structural   Li7Mn2(CoO4)3
_chemical_formula_sum   'Li7 Mn2 Co3 O12'
_cell_volume   217.63336489
_cell_formula_units_Z   1
loop_
 _symmetry_equiv_pos_site_id
 _symmetry_equiv_pos_as_xyz
  1  'x, y, z'
loop_
 _atom_site_type_symbol
 _atom_site_label
 _atom_site_symmetry_multiplicity
 _atom_site_fract_x
 _atom_site_fract_y
 _atom_site_fract_z
 _atom_site_occupancy
  Li  Li0  1  0.99997000  0.34173300  0.65804300  1
  Li  Li1  1  0.50875900  0.16591100  0.34304300  1
  Li  Li2  1  0.00000000  0.00000000  0.00000000  1
  Li  Li3  1  0.49124100  0.83408900  0.65695700  1
  Li  Li4  1  0.00003000  0.65826700  0.34195700  1
  Li  Li5  1  0.50000000  0.50000000  0.00000000  1
  Li  Li6  1  0.50000000  0.50000000  0.50000000  1
  Mn  Mn0  1  0.99831800  0.66732200  0.83134700  1
  Mn  Mn1  1  0.00168200  0.33267800  0.16865300  1
  Co  Co0  1  0.49718200  0.16723700  0.83198800  1
  Co  Co1  1  0.00000000  0.00000000  0.50000000  1
  Co  Co2  1  0.50281800  0.83276300  0.16801200  1
  O  O0  1  0.47066200  0.50466400  0.75226500  1
  O  O1  1  0.99341300  0.28902600  0.42639500  1
  O  O2  1  0.47151800  0.17145400  0.08849100  1
  O  O3  1  0.98272000  0.00138700  0.75734200  1
  O  O4  1  0.51801500  0.84867900  0.42759700  1
  O  O5  1  0.98181500  0.66279900  0.09093800  1
  O  O6  1  0.48198500  0.15132100  0.57240300  1
  O  O7  1  0.01728000  0.99861300  0.24265800  1
  O  O8  1  0.52848200  0.82854600  0.91150900  1
  O  O9  1  0.00658700  0.71097400  0.57360500  1
  O  O10  1  0.52933800  0.49533600  0.24773500  1
  O  O11  1  0.01818500  0.33720100  0.90906200  1
loop_
_geom_bond_atom_site_label_1
_geom_bond_atom_site_label_2
_geom_bond_distance
_geom_bond_site_symmetry_2
Li0 O6 2.078240 1_655
Li0 O0 2.176698 1_655
Li0 O0 2.188296 1_555
Li0 O9 2.226502 1_655
Li0 O3 2.234852 1_555
Li0 O6 2.259088 1_555
Li1 O1 1.999307 1_455
Li1 O4 2.011019 1_545
Li1 O1 2.028273 1_555
Li1 O10 2.156201 1_555
Li1 O7 2.211086 1_645
Li1 O7 2.285980 1_545
Li2 O8 2.143875 1_444
Li2 O2 2.143875 1_555
Li2 O5 2.148052 1_445
Li2 O11 2.148052 1_554
Li2 O8 2.153942 1_544
Li2 O2 2.153942 1_455
Li3 O9 1.999307 1_655
Li3 O6 2.011019 1_565
Li3 O9 2.028273 1_555
Li3 O0 2.156201 1_555
Li3 O3 2.211086 1_465
Li3 O3 2.285980 1_565
Li4 O4 2.078240 1_455
Li4 O10 2.176698 1_455
Li4 O10 2.188296 1_555
Li4 O1 2.226502 1_455
Li4 O7 2.234852 1_555
Li4 O4 2.259088 1_555
Li5 O8 2.093275 1_554
Li5 O2 2.093275 1_555
Li5 O5 2.137109 1_455
Li5 O11 2.137109 1_654
Li5 O5 2.168352 1_555
Li5 O11 2.168352 1_554
Li6 O4 2.048782 1_555
Li6 O6 2.048782 1_555
Li6 O9 2.056244 1_555
Li6 O1 2.056244 1_555
Li6 O9 2.191086 1_655
Li6 O1 2.191086 1_455
Mn0 O0 1.944086 1_655
Mn0 O8 1.945038 1_555
Mn0 O3 1.995660 1_565
Mn0 O11 2.007855 1_655
Mn0 O0 2.163885 1_555
Mn0 O8 2.175223 1_655
Mn1 O10 1.944086 1_455
Mn1 O2 1.945038 1_555
Mn1 O7 1.995660 1_545
Mn1 O5 2.007855 1_455
Mn1 O10 2.163885 1_555
Mn1 O2 2.175223 1_455
Co0 O3 1.942343 1_555
Co0 O11 1.956742 1_555
Co0 O0 2.054973 1_555
Co0 O8 2.059099 1_545
Co0 O3 2.105939 1_455
Co0 O11 2.148861 1_655
Co1 O9 1.803025 1_545
Co1 O1 1.803025 1_455
Co1 O6 1.966104 1_455
Co1 O4 1.966104 1_545
Co1 O6 1.983800 1_555
Co1 O4 1.983800 1_445
Co2 O7 1.942343 1_555
Co2 O5 1.956742 1_555
Co2 O10 2.054973 1_555
Co2 O2 2.059099 1_565
Co2 O7 2.105939 1_655
Co2 O5 2.148861 1_455
