# generated using pymatgen
data_TiGeRu
_symmetry_space_group_name_H-M   'P 1'
_cell_length_a   7.54183200
_cell_length_b   7.54183200
_cell_length_c   7.54183200
_cell_angle_alpha   127.96558803
_cell_angle_beta   122.60604433
_cell_angle_gamma   81.13842760
_symmetry_Int_Tables_number   1
_chemical_formula_structural   TiGeRu
_chemical_formula_sum   'Ti6 Ge6 Ru6'
_cell_volume   274.53534331
_cell_formula_units_Z   6
loop_
 _symmetry_equiv_pos_site_id
 _symmetry_equiv_pos_as_xyz
  1  'x, y, z'
loop_
 _atom_site_type_symbol
 _atom_site_label
 _atom_site_symmetry_multiplicity
 _atom_site_fract_x
 _atom_site_fract_y
 _atom_site_fract_z
 _atom_site_occupancy
  Ti  Ti0  1  0.55482700  0.10381400  0.04898600  1
  Ti  Ti1  1  0.44517300  0.49415900  0.54898600  1
  Ti  Ti2  1  0.97269400  0.49355800  0.02086500  1
  Ti  Ti3  1  0.02730600  0.04817100  0.52086500  1
  Ti  Ti4  1  0.75156100  0.91747000  0.66591000  1
  Ti  Ti5  1  0.24843900  0.91434900  0.16591000  1
  Ge  Ge0  1  0.78181700  0.53739700  0.25558100  1
  Ge  Ge1  1  0.21818300  0.47376400  0.75558100  1
  Ge  Ge2  1  0.33631700  0.82752700  0.49897500  1
  Ge  Ge3  1  0.66368300  0.16265800  0.49120900  1
  Ge  Ge4  1  0.82855100  0.82752700  0.99120900  1
  Ge  Ge5  1  0.17144900  0.16265800  0.99897500  1
  Ru  Ru0  1  0.50000000  0.24387700  0.74387700  1
  Ru  Ru1  1  0.00000000  0.24387700  0.24387700  1
  Ru  Ru2  1  0.16523900  0.74965600  0.66118000  1
  Ru  Ru3  1  0.83476100  0.49594100  0.58441800  1
  Ru  Ru4  1  0.58847600  0.74965600  0.08441800  1
  Ru  Ru5  1  0.41152400  0.49594100  0.16118000  1
loop_
_geom_bond_atom_site_label_1
_geom_bond_atom_site_label_2
_geom_bond_distance
_geom_bond_site_symmetry_2
Ge0 Ru2 2.479915 1_655
Ge0 Ru4 2.479916 1_555
Ge0 Ru5 2.501215 1_555
Ge0 Ru3 2.501218 1_555
Ge0 Ru1 2.531735 1_655
Ge0 Ru0 2.531740 1_554
Ge0 Ti2 2.682317 1_555
Ge0 Ti4 2.736910 1_555
Ge0 Ti0 2.938129 1_555
Ge1 Ru5 2.479914 1_556
Ge1 Ru3 2.479915 1_455
Ge1 Ru4 2.501215 1_556
Ge1 Ru2 2.501216 1_555
Ge1 Ru0 2.531741 1_555
Ge1 Ru1 2.531741 1_555
Ge1 Ti3 2.682317 1_555
Ge1 Ti5 2.736910 1_556
Ge1 Ti1 2.938142 1_555
Ge2 Ru2 2.514880 1_555
Ge2 Ru5 2.519407 1_555
Ge2 Ru0 2.529112 1_565
Ge2 Ti3 2.666352 1_565
Ge2 Ti2 2.676431 1_455
Ge2 Ti4 2.684634 1_555
Ge2 Ti5 2.696957 1_555
Ge2 Ti0 2.705625 1_566
Ge2 Ti1 2.708245 1_555
Ge3 Ru3 2.514871 1_555
Ge3 Ru4 2.519402 1_545
Ge3 Ru0 2.529119 1_555
Ge3 Ti2 2.666354 1_556
Ge3 Ti3 2.676427 1_655
Ge3 Ti5 2.684636 1_545
Ge3 Ti4 2.696970 1_545
Ge3 Ti1 2.705625 1_555
Ge3 Ti0 2.708242 1_555
Ge4 Ru4 2.514885 1_556
Ge4 Ru3 2.519402 1_555
Ge4 Ru1 2.529112 1_666
Ge4 Ti3 2.666357 1_666
Ge4 Ti2 2.676441 1_556
Ge4 Ti4 2.684625 1_555
Ge4 Ti5 2.696962 1_656
Ge4 Ti0 2.705625 1_566
Ge4 Ti1 2.708240 1_555
Ge5 Ru5 2.514875 1_556
Ge5 Ru2 2.519405 1_545
Ge5 Ru1 2.529119 1_556
Ge5 Ti2 2.666349 1_456
Ge5 Ti3 2.676427 1_555
Ge5 Ti5 2.684636 1_546
Ge5 Ti4 2.696965 1_445
Ge5 Ti1 2.705625 1_556
Ge5 Ti0 2.708237 1_556
Ru0 Ti5 2.826233 1_545
Ru0 Ti4 2.826237 1_545
Ru0 Ti0 2.900424 1_556
Ru0 Ti1 2.900430 1_555
Ru1 Ti5 2.826233 1_545
Ru1 Ti4 2.826233 1_444
Ru1 Ti0 2.900429 1_455
Ru1 Ti1 2.900430 1_555
Ru2 Ti1 2.748089 1_555
Ru2 Ti0 2.804686 1_566
Ru2 Ti5 2.876665 1_556
Ru2 Ti3 2.879920 1_565
Ru3 Ti0 2.748089 1_555
Ru3 Ti1 2.804679 1_555
Ru3 Ti4 2.876660 1_555
Ru3 Ti2 2.879917 1_556
Ru4 Ti1 2.748095 1_554
Ru4 Ti0 2.804694 1_565
Ru4 Ti5 2.876661 1_555
Ru4 Ti3 2.879919 1_665
Ru5 Ti0 2.748082 1_555
Ru5 Ti1 2.804682 1_555
Ru5 Ti4 2.876661 1_555
Ru5 Ti2 2.879919 1_455
