# generated using pymatgen
data_SrMg14SiO16
_symmetry_space_group_name_H-M   'P 1'
_cell_length_a   8.69855846
_cell_length_b   8.69855846
_cell_length_c   4.42011864
_cell_angle_alpha   90.00000000
_cell_angle_beta   90.00000000
_cell_angle_gamma   90.00000000
_symmetry_Int_Tables_number   1
_chemical_formula_structural   SrMg14SiO16
_chemical_formula_sum   'Sr1 Mg14 Si1 O16'
_cell_volume   334.44792011
_cell_formula_units_Z   1
loop_
 _symmetry_equiv_pos_site_id
 _symmetry_equiv_pos_as_xyz
  1  'x, y, z'
loop_
 _atom_site_type_symbol
 _atom_site_label
 _atom_site_symmetry_multiplicity
 _atom_site_fract_x
 _atom_site_fract_y
 _atom_site_fract_z
 _atom_site_occupancy
  Sr  Sr0  1  0.50000000  0.50000000  0.00000000  1
  Mg  Mg0  1  0.00000000  0.50000000  0.00000000  1
  Mg  Mg1  1  0.50000000  0.00000000  0.00000000  1
  Mg  Mg2  1  0.00000000  0.25188704  0.50000000  1
  Mg  Mg3  1  0.00000000  0.74811296  0.50000000  1
  Mg  Mg4  1  0.50000000  0.24072332  0.50000000  1
  Mg  Mg5  1  0.50000000  0.75927668  0.50000000  1
  Mg  Mg6  1  0.25188704  0.00000000  0.50000000  1
  Mg  Mg7  1  0.24072332  0.50000000  0.50000000  1
  Mg  Mg8  1  0.74811296  0.00000000  0.50000000  1
  Mg  Mg9  1  0.75927668  0.50000000  0.50000000  1
  Mg  Mg10  1  0.24599471  0.24599471  0.00000000  1
  Mg  Mg11  1  0.24599471  0.75400529  0.00000000  1
  Mg  Mg12  1  0.75400529  0.24599471  0.00000000  1
  Mg  Mg13  1  0.75400529  0.75400529  0.00000000  1
  Si  Si0  1  0.00000000  0.00000000  0.00000000  1
  O  O0  1  0.25679144  0.00000000  0.00000000  1
  O  O1  1  0.22978437  0.50000000  0.00000000  1
  O  O2  1  0.74320856  0.00000000  -0.00000000  1
  O  O3  1  0.77021563  0.50000000  0.00000000  1
  O  O4  1  0.24976133  0.24976133  0.50000000  1
  O  O5  1  0.24976133  0.75023867  0.50000000  1
  O  O6  1  0.75023867  0.24976133  0.50000000  1
  O  O7  1  0.75023867  0.75023867  0.50000000  1
  O  O8  1  0.00000000  0.00000000  0.50000000  1
  O  O9  1  0.00000000  0.50000000  0.50000000  1
  O  O10  1  0.50000000  0.00000000  0.50000000  1
  O  O11  1  0.50000000  0.50000000  0.50000000  1
  O  O12  1  0.00000000  0.25679144  0.00000000  1
  O  O13  1  0.00000000  0.74320856  0.00000000  1
  O  O14  1  0.50000000  0.22978437  0.00000000  1
  O  O15  1  0.50000000  0.77021563  0.00000000  1
loop_
_geom_bond_atom_site_label_1
_geom_bond_atom_site_label_2
_geom_bond_distance
_geom_bond_site_symmetry_2
Mg0 O3 1.998793 1_455
Mg0 O1 1.998793 1_555
Mg0 O12 2.115564 1_555
Mg0 O13 2.115564 1_555
Mg0 O9 2.210059 1_554
Mg0 O9 2.210059 1_555
Mg1 O15 1.998793 1_545
Mg1 O14 1.998793 1_555
Mg1 O2 2.115564 1_555
Mg1 O0 2.115564 1_555
Mg1 O10 2.210059 1_555
Mg1 O10 2.210059 1_554
Mg2 O9 2.158225 1_555
Mg2 O6 2.172642 1_455
Mg2 O4 2.172642 1_555
Mg2 O8 2.191054 1_555
Mg2 O12 2.210471 1_556
Mg2 O12 2.210471 1_555
Mg3 O9 2.158225 1_555
Mg3 O5 2.172642 1_555
Mg3 O7 2.172642 1_455
Mg3 O8 2.191054 1_565
Mg3 O13 2.210471 1_555
Mg3 O13 2.210471 1_556
Mg4 O10 2.093946 1_555
Mg4 O6 2.178135 1_555
Mg4 O4 2.178135 1_555
Mg4 O14 2.212107 1_556
Mg4 O14 2.212107 1_555
Mg4 O11 2.255333 1_555
Mg5 O10 2.093946 1_565
Mg5 O5 2.178135 1_555
Mg5 O7 2.178135 1_555
Mg5 O15 2.212107 1_556
Mg5 O15 2.212107 1_555
Mg5 O11 2.255333 1_555
Mg6 O10 2.158225 1_555
Mg6 O5 2.172642 1_545
Mg6 O4 2.172642 1_555
Mg6 O8 2.191054 1_555
Mg6 O0 2.210471 1_555
Mg6 O0 2.210471 1_556
Mg7 O9 2.093946 1_555
Mg7 O4 2.178135 1_555
Mg7 O5 2.178135 1_555
Mg7 O1 2.212107 1_556
Mg7 O1 2.212107 1_555
Mg7 O11 2.255333 1_555
Mg8 O10 2.158225 1_555
Mg8 O6 2.172642 1_555
Mg8 O7 2.172642 1_545
Mg8 O8 2.191054 1_655
Mg8 O2 2.210471 1_556
Mg8 O2 2.210471 1_555
Mg9 O9 2.093946 1_655
Mg9 O6 2.178135 1_555
Mg9 O7 2.178135 1_555
Mg9 O3 2.212107 1_556
Mg9 O3 2.212107 1_555
Mg9 O11 2.255333 1_555
Mg10 O12 2.141859 1_555
Mg10 O0 2.141859 1_555
Mg10 O4 2.210545 1_555
Mg10 O4 2.210545 1_554
Mg10 O1 2.213975 1_555
Mg10 O14 2.213975 1_555
Mg11 O0 2.141859 1_565
Mg11 O13 2.141859 1_555
Mg11 O5 2.210545 1_555
Mg11 O5 2.210545 1_554
Mg11 O15 2.213975 1_555
Mg11 O1 2.213975 1_555
Mg12 O12 2.141859 1_655
Mg12 O2 2.141859 1_555
Mg12 O6 2.210545 1_555
Mg12 O6 2.210545 1_554
Mg12 O3 2.213975 1_555
Mg12 O14 2.213975 1_555
Mg13 O13 2.141859 1_655
Mg13 O2 2.141859 1_565
Mg13 O7 2.210545 1_555
Mg13 O7 2.210545 1_554
Mg13 O3 2.213975 1_555
Mg13 O15 2.213975 1_555
O0 Si0 2.233715 1_555
O1 Sr0 2.350486 1_555
O2 Si0 2.233715 1_655
O3 Sr0 2.350486 1_555
O8 Si0 2.210059 1_555
O8 Si0 2.210059 1_556
O11 Sr0 2.210059 1_555
O11 Sr0 2.210059 1_556
O12 Si0 2.233715 1_555
O13 Si0 2.233715 1_565
O14 Sr0 2.350486 1_555
O15 Sr0 2.350486 1_555
