# generated using pymatgen
data_CsVSO6
_symmetry_space_group_name_H-M   'P 1'
_cell_length_a   6.69102600
_cell_length_b   10.87124100
_cell_length_c   17.87611400
_cell_angle_alpha   90.00000000
_cell_angle_beta   90.00000000
_cell_angle_gamma   90.00000000
_symmetry_Int_Tables_number   1
_chemical_formula_structural   CsVSO6
_chemical_formula_sum   'Cs8 V8 S8 O48'
_cell_volume   1300.30417386
_cell_formula_units_Z   8
loop_
 _symmetry_equiv_pos_site_id
 _symmetry_equiv_pos_as_xyz
  1  'x, y, z'
loop_
 _atom_site_type_symbol
 _atom_site_label
 _atom_site_symmetry_multiplicity
 _atom_site_fract_x
 _atom_site_fract_y
 _atom_site_fract_z
 _atom_site_occupancy
  Cs  Cs0  1  0.74955600  0.47879300  0.41084700  1
  Cs  Cs1  1  0.25044400  0.97879300  0.08915300  1
  Cs  Cs2  1  0.24955600  0.47879300  0.08915300  1
  Cs  Cs3  1  0.25044400  0.52120700  0.58915300  1
  Cs  Cs4  1  0.24955600  0.02120700  0.58915300  1
  Cs  Cs5  1  0.75044400  0.97879300  0.41084700  1
  Cs  Cs6  1  0.74955600  0.02120700  0.91084700  1
  Cs  Cs7  1  0.75044400  0.52120700  0.91084700  1
  V  V0  1  0.99451900  0.72420000  0.24824100  1
  V  V1  1  0.49451900  0.72420000  0.25175900  1
  V  V2  1  0.00548100  0.27580000  0.75175900  1
  V  V3  1  0.49451900  0.77580000  0.75175900  1
  V  V4  1  0.50548100  0.22420000  0.24824100  1
  V  V5  1  0.99451900  0.77580000  0.74824100  1
  V  V6  1  0.50548100  0.27580000  0.74824100  1
  V  V7  1  0.00548100  0.22420000  0.25175900  1
  S  S0  1  0.26145500  0.22068600  0.40301000  1
  S  S1  1  0.23854500  0.77931400  0.90301000  1
  S  S2  1  0.73854500  0.77931400  0.59699000  1
  S  S3  1  0.76145500  0.22068600  0.09699000  1
  S  S4  1  0.76145500  0.27931400  0.59699000  1
  S  S5  1  0.73854500  0.72068600  0.09699000  1
  S  S6  1  0.23854500  0.72068600  0.40301000  1
  S  S7  1  0.26145500  0.27931400  0.90301000  1
  O  O0  1  0.42281200  0.73968400  0.85704000  1
  O  O1  1  0.75711800  0.28148200  0.27308400  1
  O  O2  1  0.74288200  0.71851800  0.77308400  1
  O  O3  1  0.23354400  0.70633000  0.97072000  1
  O  O4  1  0.94526500  0.24460300  0.64444600  1
  O  O5  1  0.26645600  0.29367000  0.47072000  1
  O  O6  1  0.25711800  0.21851800  0.72691600  1
  O  O7  1  0.73354400  0.79367000  0.02928000  1
  O  O8  1  0.25728200  0.08769400  0.41394700  1
  O  O9  1  0.73354400  0.70633000  0.52928000  1
  O  O10  1  0.50260300  0.42480500  0.74677500  1
  O  O11  1  0.24288200  0.78148200  0.22691600  1
  O  O12  1  0.92281200  0.73968400  0.64296000  1
  O  O13  1  0.00260300  0.42480500  0.75322500  1
  O  O14  1  0.05473500  0.75539700  0.35555400  1
  O  O15  1  0.50260300  0.07519500  0.24677500  1
  O  O16  1  0.07718800  0.26031600  0.35704000  1
  O  O17  1  0.74271800  0.58769400  0.08605300  1
  O  O18  1  0.24288200  0.71851800  0.72691600  1
  O  O19  1  0.74288200  0.78148200  0.27308400  1
  O  O20  1  0.57718800  0.23968400  0.64296000  1
  O  O21  1  0.00260300  0.07519500  0.25322500  1
  O  O22  1  0.44526500  0.24460300  0.85555400  1
  O  O23  1  0.26645600  0.20633000  0.97072000  1
  O  O24  1  0.07718800  0.23968400  0.85704000  1
  O  O25  1  0.23354400  0.79367000  0.47072000  1
  O  O26  1  0.92281200  0.76031600  0.14296000  1
  O  O27  1  0.75728200  0.41230600  0.58605300  1
  O  O28  1  0.55473500  0.75539700  0.14444600  1
  O  O29  1  0.25728200  0.41230600  0.91394700  1
  O  O30  1  0.76645600  0.20633000  0.52928000  1
  O  O31  1  0.94526500  0.25539700  0.14444600  1
  O  O32  1  0.49739700  0.92480500  0.75322500  1
  O  O33  1  0.74271800  0.91230600  0.58605300  1
  O  O34  1  0.99739700  0.92480500  0.74677500  1
  O  O35  1  0.42281200  0.76031600  0.35704000  1
  O  O36  1  0.99739700  0.57519500  0.24677500  1
  O  O37  1  0.24271800  0.91230600  0.91394700  1
  O  O38  1  0.75728200  0.08769400  0.08605300  1
  O  O39  1  0.44526500  0.25539700  0.35555400  1
  O  O40  1  0.25711800  0.28148200  0.22691600  1
  O  O41  1  0.55473500  0.74460300  0.64444600  1
  O  O42  1  0.05473500  0.74460300  0.85555400  1
  O  O43  1  0.75711800  0.21851800  0.77308400  1
  O  O44  1  0.57718800  0.26031600  0.14296000  1
  O  O45  1  0.76645600  0.29367000  0.02928000  1
  O  O46  1  0.24271800  0.58769400  0.41394700  1
  O  O47  1  0.49739700  0.57519500  0.25322500  1
loop_
_geom_bond_atom_site_label_1
_geom_bond_atom_site_label_2
_geom_bond_distance
_geom_bond_site_symmetry_2
Cs0 O27 3.214739 1_555
Cs0 O9 3.257672 1_555
Cs0 O1 3.266249 1_555
Cs0 O39 3.319701 1_555
Cs0 O16 3.372250 1_655
Cs0 O47 3.447352 1_555
Cs0 O46 3.506149 1_655
Cs0 O36 3.528545 1_555
Cs0 O46 3.592402 1_555
Cs0 O30 3.642595 1_555
Cs1 O37 3.214739 1_554
Cs1 O23 3.257672 1_564
Cs1 O11 3.266249 1_555
Cs1 O28 3.319701 1_555
Cs1 O26 3.372250 1_455
Cs1 O15 3.447352 1_565
Cs1 O38 3.506149 1_465
Cs1 O21 3.528545 1_565
Cs1 O38 3.592402 1_565
Cs1 O3 3.642595 1_554
Cs2 O29 3.214739 1_554
Cs2 O3 3.257672 1_554
Cs2 O40 3.266249 1_555
Cs2 O31 3.319701 1_455
Cs2 O44 3.372250 1_555
Cs2 O36 3.447352 1_455
Cs2 O17 3.506149 1_555
Cs2 O47 3.528545 1_555
Cs2 O17 3.592402 1_455
Cs2 O23 3.642595 1_554
Cs3 O46 3.214739 1_555
Cs3 O5 3.257672 1_555
Cs3 O18 3.266249 1_555
Cs3 O41 3.319701 1_555
Cs3 O12 3.372250 1_455
Cs3 O10 3.447352 1_555
Cs3 O27 3.506149 1_455
Cs3 O13 3.528545 1_555
Cs3 O27 3.592402 1_555
Cs3 O25 3.642595 1_555
Cs4 O8 3.214739 1_555
Cs4 O25 3.257672 1_545
Cs4 O6 3.266249 1_555
Cs4 O4 3.319701 1_455
Cs4 O20 3.372250 1_555
Cs4 O34 3.447352 1_445
Cs4 O33 3.506149 1_545
Cs4 O32 3.528545 1_545
Cs4 O33 3.592402 1_445
Cs4 O5 3.642595 1_555
Cs5 O33 3.214739 1_555
Cs5 O30 3.257672 1_565
Cs5 O19 3.266249 1_555
Cs5 O14 3.319701 1_655
Cs5 O35 3.372250 1_555
Cs5 O21 3.447352 1_665
Cs5 O8 3.506149 1_565
Cs5 O15 3.528545 1_565
Cs5 O8 3.592402 1_665
Cs5 O9 3.642595 1_555
Cs6 O38 3.214739 1_556
Cs6 O7 3.257672 1_546
Cs6 O43 3.266249 1_555
Cs6 O22 3.319701 1_555
Cs6 O24 3.372250 1_655
Cs6 O32 3.447352 1_545
Cs6 O37 3.506149 1_645
Cs6 O34 3.528545 1_545
Cs6 O37 3.592402 1_545
Cs6 O45 3.642595 1_556
Cs7 O17 3.214739 1_556
Cs7 O45 3.257672 1_556
Cs7 O2 3.266249 1_555
Cs7 O42 3.319701 1_655
Cs7 O0 3.372250 1_555
Cs7 O13 3.447352 1_655
Cs7 O29 3.506149 1_555
Cs7 O10 3.528545 1_555
Cs7 O29 3.592402 1_655
Cs7 O7 3.642595 1_556
O0 S1 1.543062 1_555
O0 V3 1.981499 1_555
O1 V7 1.815130 1_655
O1 V4 1.849294 1_555
O2 V3 1.815130 1_555
O2 V5 1.849294 1_555
O3 S1 1.447651 1_555
O4 S4 1.540991 1_555
O4 V2 1.989317 1_655
O5 S0 1.447651 1_555
O6 V6 1.815130 1_555
O6 V2 1.849294 1_555
O7 S5 1.447651 1_555
O8 S0 1.459215 1_555
O9 S2 1.447651 1_555
O10 V6 1.620196 1_555
O11 V0 1.815130 1_455
O11 V1 1.849294 1_555
O12 S2 1.543062 1_555
O12 V5 1.981499 1_555
O13 V2 1.620196 1_555
O14 S6 1.540991 1_555
O14 V0 1.989317 1_455
O15 V4 1.620196 1_555
O16 S0 1.543062 1_555
O16 V7 1.981499 1_555
O17 S5 1.459215 1_555
O18 V5 1.815130 1_455
O18 V3 1.849294 1_555
O19 V1 1.815130 1_555
O19 V0 1.849294 1_555
O20 S4 1.543062 1_555
O20 V6 1.981499 1_555
O21 V7 1.620196 1_555
O22 S7 1.540991 1_555
O22 V6 1.989317 1_555
O23 S7 1.447651 1_555
O24 S7 1.543062 1_555
O24 V2 1.981499 1_555
O25 S6 1.447651 1_555
O26 S5 1.543062 1_555
O26 V0 1.981499 1_555
O27 S4 1.459215 1_555
O28 S5 1.540991 1_555
O28 V1 1.989317 1_555
O29 S7 1.459215 1_555
O30 S4 1.447651 1_555
O31 S3 1.540991 1_555
O31 V7 1.989317 1_655
O32 V3 1.620196 1_555
O33 S2 1.459215 1_555
O34 V5 1.620196 1_555
O35 S6 1.543062 1_555
O35 V1 1.981499 1_555
O36 V0 1.620196 1_555
O37 S1 1.459215 1_555
O38 S3 1.459215 1_555
O39 S0 1.540991 1_555
O39 V4 1.989317 1_555
O40 V4 1.815130 1_555
O40 V7 1.849294 1_555
O41 S2 1.540991 1_555
O41 V3 1.989317 1_555
O42 S1 1.540991 1_555
O42 V5 1.989317 1_455
O43 V2 1.815130 1_655
O43 V6 1.849294 1_555
O44 S3 1.543062 1_555
O44 V4 1.981499 1_555
O45 S3 1.447651 1_555
O46 S6 1.459215 1_555
O47 V1 1.620196 1_555
