# generated using pymatgen
data_SmNi2
_symmetry_space_group_name_H-M   'P 1'
_cell_length_a   5.07981158
_cell_length_b   5.07981417
_cell_length_c   5.07980853
_cell_angle_alpha   60.00003013
_cell_angle_beta   60.00001326
_cell_angle_gamma   60.00002567
_symmetry_Int_Tables_number   1
_chemical_formula_structural   SmNi2
_chemical_formula_sum   'Sm2 Ni4'
_cell_volume   92.68895809
_cell_formula_units_Z   2
loop_
 _symmetry_equiv_pos_site_id
 _symmetry_equiv_pos_as_xyz
  1  'x, y, z'
loop_
 _atom_site_type_symbol
 _atom_site_label
 _atom_site_symmetry_multiplicity
 _atom_site_fract_x
 _atom_site_fract_y
 _atom_site_fract_z
 _atom_site_occupancy
  Sm  Sm0  1  0.87500000  0.87499900  0.87500100  1
  Sm  Sm1  1  0.12500000  0.12500100  0.12499900  1
  Ni  Ni0  1  0.50000000  0.50000000  0.50000000  1
  Ni  Ni1  1  0.50000000  0.50000000  0.00000000  1
  Ni  Ni2  1  -0.00000000  0.50000000  0.50000000  1
  Ni  Ni3  1  0.50000000  -0.00000000  0.50000000  1
loop_
_geom_bond_atom_site_label_1
_geom_bond_atom_site_label_2
_geom_bond_distance
_geom_bond_site_symmetry_2
Ni0 Ni1 2.539904 1_556
Ni0 Ni1 2.539904 1_555
Ni0 Ni2 2.539906 1_555
Ni0 Ni2 2.539906 1_655
Ni0 Ni3 2.539907 1_555
Ni0 Ni3 2.539907 1_565
Ni0 Sm0 2.978300 1_554
Ni0 Sm1 2.978300 1_556
Ni0 Sm1 2.978304 1_655
Ni0 Sm0 2.978304 1_455
Ni0 Sm1 2.978310 1_565
Ni0 Sm0 2.978310 1_545
Ni1 Ni2 2.539906 1_555
Ni1 Ni2 2.539906 1_654
Ni1 Ni3 2.539907 1_564
Ni1 Ni3 2.539907 1_555
Ni1 Sm1 2.978302 1_655
Ni1 Sm0 2.978302 1_454
Ni1 Sm1 2.978302 1_555
Ni1 Sm0 2.978302 1_554
Ni1 Sm1 2.978307 1_565
Ni1 Sm0 2.978307 1_544
Ni2 Ni3 2.539907 1_555
Ni2 Ni3 2.539907 1_465
Ni2 Sm0 2.978299 1_454
Ni2 Sm1 2.978299 1_556
Ni2 Sm0 2.978303 1_455
Ni2 Sm1 2.978303 1_555
Ni2 Sm1 2.978310 1_565
Ni2 Sm0 2.978310 1_445
Ni3 Sm1 2.978300 1_556
Ni3 Sm0 2.978300 1_544
Ni3 Sm1 2.978305 1_555
Ni3 Sm0 2.978305 1_545
Ni3 Sm0 2.978306 1_445
Ni3 Sm1 2.978306 1_655
