# generated using pymatgen
data_Ca2ScOsO6
_symmetry_space_group_name_H-M   'P 1'
_cell_length_a   5.66734600
_cell_length_b   5.50882400
_cell_length_c   9.60251950
_cell_angle_alpha   55.18226941
_cell_angle_beta   90.00000000
_cell_angle_gamma   90.00000000
_symmetry_Int_Tables_number   1
_chemical_formula_structural   Ca2ScOsO6
_chemical_formula_sum   'Ca4 Sc2 Os2 O12'
_cell_volume   246.12314939
_cell_formula_units_Z   2
loop_
 _symmetry_equiv_pos_site_id
 _symmetry_equiv_pos_as_xyz
  1  'x, y, z'
loop_
 _atom_site_type_symbol
 _atom_site_label
 _atom_site_symmetry_multiplicity
 _atom_site_fract_x
 _atom_site_fract_y
 _atom_site_fract_z
 _atom_site_occupancy
  Ca  Ca0  1  0.94783300  0.23845700  0.74981800  1
  Ca  Ca1  1  0.55216700  0.23845700  0.24981800  1
  Ca  Ca2  1  0.05216700  0.76154300  0.25018200  1
  Ca  Ca3  1  0.44783300  0.76154300  0.75018200  1
  Sc  Sc0  1  0.00000000  0.50000000  0.00000000  1
  Sc  Sc1  1  0.50000000  0.50000000  0.50000000  1
  Os  Os0  1  0.00000000  0.00000000  0.50000000  1
  Os  Os1  1  0.50000000  0.00000000  0.00000000  1
  O  O0  1  0.53006100  0.33560200  0.75768100  1
  O  O1  1  0.96993900  0.33560200  0.25768100  1
  O  O2  1  0.46993900  0.66439800  0.24231900  1
  O  O3  1  0.03006100  0.66439800  0.74231900  1
  O  O4  1  0.69626900  0.75668300  0.95193100  1
  O  O5  1  0.80373100  0.75668300  0.45193100  1
  O  O6  1  0.30373100  0.24331700  0.04806900  1
  O  O7  1  0.19626900  0.24331700  0.54806900  1
  O  O8  1  0.78982300  0.14168600  0.05014500  1
  O  O9  1  0.71017700  0.14168600  0.55014500  1
  O  O10  1  0.21017700  0.85831400  0.94985500  1
  O  O11  1  0.28982300  0.85831400  0.44985500  1
loop_
_geom_bond_atom_site_label_1
_geom_bond_atom_site_label_2
_geom_bond_distance
_geom_bond_site_symmetry_2
Ca0 O3 2.352692 1_655
Ca0 O7 2.382646 1_655
Ca0 O10 2.385831 1_645
Ca0 O0 2.438040 1_555
Ca0 O9 2.634724 1_555
Ca0 O4 2.638387 1_545
Ca0 O8 2.765386 1_556
Ca0 O5 2.770205 1_555
Ca1 O2 2.352692 1_555
Ca1 O6 2.382646 1_555
Ca1 O11 2.385831 1_545
Ca1 O1 2.438040 1_555
Ca1 O8 2.634724 1_555
Ca1 O5 2.638387 1_545
Ca1 O9 2.765386 1_555
Ca1 O4 2.770205 1_554
Ca2 O1 2.352692 1_455
Ca2 O5 2.382646 1_455
Ca2 O8 2.385831 1_465
Ca2 O2 2.438040 1_555
Ca2 O11 2.634724 1_555
Ca2 O6 2.638387 1_565
Ca2 O10 2.765386 1_554
Ca2 O7 2.770205 1_555
Ca3 O0 2.352692 1_555
Ca3 O4 2.382646 1_555
Ca3 O9 2.385831 1_565
Ca3 O3 2.438040 1_555
Ca3 O10 2.634724 1_555
Ca3 O7 2.638387 1_565
Ca3 O11 2.765386 1_555
Ca3 O6 2.770205 1_556
O0 Os1 1.987178 1_556
O0 Sc1 2.100674 1_555
O1 Os0 1.987178 1_655
O1 Sc0 2.100674 1_655
O2 Os1 1.987178 1_565
O2 Sc1 2.100674 1_555
O3 Os0 1.987178 1_565
O3 Sc0 2.100674 1_556
O4 Os1 1.988338 1_566
O4 Sc0 2.104811 1_656
O5 Os0 1.988338 1_665
O5 Sc1 2.104811 1_555
O6 Os1 1.988338 1_555
O6 Sc0 2.104811 1_555
O7 Os0 1.988338 1_555
O7 Sc1 2.104811 1_555
O8 Os1 1.992022 1_555
O8 Sc0 2.112240 1_655
O9 Os0 1.992022 1_655
O9 Sc1 2.112240 1_555
O10 Os1 1.992022 1_566
O10 Sc0 2.112240 1_556
O11 Os0 1.992022 1_565
O11 Sc1 2.112240 1_555
