# generated using pymatgen
data_SnMo12PbS16
_symmetry_space_group_name_H-M   'P 1'
_cell_length_a   6.56395500
_cell_length_b   6.56966307
_cell_length_c   13.21246433
_cell_angle_alpha   89.27719260
_cell_angle_beta   89.16540777
_cell_angle_gamma   89.23926522
_symmetry_Int_Tables_number   1
_chemical_formula_structural   SnMo12PbS16
_chemical_formula_sum   'Sn1 Mo12 Pb1 S16'
_cell_volume   569.60611317
_cell_formula_units_Z   1
loop_
 _symmetry_equiv_pos_site_id
 _symmetry_equiv_pos_as_xyz
  1  'x, y, z'
loop_
 _atom_site_type_symbol
 _atom_site_label
 _atom_site_symmetry_multiplicity
 _atom_site_fract_x
 _atom_site_fract_y
 _atom_site_fract_z
 _atom_site_occupancy
  Sn  Sn0  1  0.00000000  0.00000000  0.50000000  1
  Mo  Mo0  1  0.22599100  0.41432000  0.78046800  1
  Mo  Mo1  1  0.22671300  0.41519100  0.28137000  1
  Mo  Mo2  1  0.56170000  0.22676400  0.70748000  1
  Mo  Mo3  1  0.56290700  0.22743200  0.20821800  1
  Mo  Mo4  1  0.41355500  0.56184500  0.61154700  1
  Mo  Mo5  1  0.41374500  0.56242900  0.11195500  1
  Mo  Mo6  1  0.77328700  0.58480900  0.71863000  1
  Mo  Mo7  1  0.77400900  0.58568000  0.21953200  1
  Mo  Mo8  1  0.43709300  0.77256800  0.79178200  1
  Mo  Mo9  1  0.43830000  0.77323600  0.29252000  1
  Mo  Mo10  1  0.58625500  0.43757100  0.88804500  1
  Mo  Mo11  1  0.58644500  0.43815500  0.38845300  1
  Pb  Pb0  1  0.00000000  0.00000000  0.00000000  1
  S  S0  1  0.74025600  0.38168000  0.56316500  1
  S  S1  1  0.73962100  0.38420800  0.06359200  1
  S  S2  1  0.12648100  0.74225700  0.69016300  1
  S  S3  1  0.12705100  0.74108500  0.19156500  1
  S  S4  1  0.38338600  0.12739300  0.87048000  1
  S  S5  1  0.38117100  0.12783600  0.37139100  1
  S  S6  1  0.26037900  0.61579200  0.93640800  1
  S  S7  1  0.25974400  0.61832000  0.43683500  1
  S  S8  1  0.87294900  0.25891500  0.80843500  1
  S  S9  1  0.87351900  0.25774300  0.30983700  1
  S  S10  1  0.61882900  0.87216400  0.62860900  1
  S  S11  1  0.61661400  0.87260700  0.12952000  1
  S  S12  1  0.24136900  0.24304800  0.62087300  1
  S  S13  1  0.24320500  0.24458500  0.12222700  1
  S  S14  1  0.75679500  0.75541500  0.87777300  1
  S  S15  1  0.75863100  0.75695200  0.37912700  1
loop_
_geom_bond_atom_site_label_1
_geom_bond_atom_site_label_2
_geom_bond_distance
_geom_bond_site_symmetry_2
Mo0 S12 2.402766 1_555
Mo0 S4 2.441833 1_555
Mo0 S6 2.477541 1_555
Mo0 S2 2.532257 1_555
Mo0 S8 2.564640 1_455
Mo1 S13 2.395579 1_555
Mo1 S5 2.436004 1_555
Mo1 S7 2.477279 1_555
Mo1 S3 2.518155 1_555
Mo1 S9 2.571889 1_455
Mo2 S12 2.408935 1_555
Mo2 S0 2.441885 1_555
Mo2 S8 2.468950 1_555
Mo2 S4 2.519057 1_555
Mo2 S10 2.584621 1_545
Mo3 S13 2.401506 1_555
Mo3 S1 2.444423 1_555
Mo3 S9 2.469106 1_555
Mo3 S5 2.531669 1_555
Mo3 S11 2.582255 1_545
Mo4 S12 2.394021 1_555
Mo4 S2 2.439099 1_555
Mo4 S10 2.473051 1_555
Mo4 S0 2.513966 1_555
Mo4 S7 2.553802 1_555
Mo5 S13 2.383754 1_555
Mo5 S3 2.437242 1_555
Mo5 S11 2.464255 1_555
Mo5 S1 2.503445 1_555
Mo5 S6 2.560100 1_554
Mo6 S14 2.395579 1_555
Mo6 S10 2.436004 1_555
Mo6 S0 2.477279 1_555
Mo6 S8 2.518155 1_555
Mo6 S2 2.571889 1_655
Mo7 S15 2.402766 1_555
Mo7 S11 2.441833 1_555
Mo7 S1 2.477541 1_555
Mo7 S9 2.532257 1_555
Mo7 S3 2.564640 1_655
Mo8 S14 2.401506 1_555
Mo8 S6 2.444423 1_555
Mo8 S2 2.469106 1_555
Mo8 S10 2.531669 1_555
Mo8 S4 2.582255 1_565
Mo9 S15 2.408935 1_555
Mo9 S7 2.441885 1_555
Mo9 S3 2.468950 1_555
Mo9 S11 2.519057 1_555
Mo9 S5 2.584621 1_565
Mo10 S14 2.383754 1_555
Mo10 S8 2.437242 1_555
Mo10 S4 2.464255 1_555
Mo10 S6 2.503445 1_555
Mo10 S1 2.560100 1_556
Mo11 S15 2.394021 1_555
Mo11 S9 2.439099 1_555
Mo11 S5 2.473051 1_555
Mo11 S7 2.513966 1_555
Mo11 S0 2.553802 1_555
Pb0 S14 2.819050 1_444
Pb0 S13 2.819050 1_555
Pb0 S4 3.139455 1_554
Pb0 S11 3.139455 1_445
Pb0 S1 3.145682 1_455
Pb0 S6 3.145682 1_544
Pb0 S8 3.148051 1_454
Pb0 S3 3.148051 1_545
S0 Sn0 3.128701 1_655
S2 Sn0 3.128152 1_565
S5 Sn0 3.122281 1_555
S7 Sn0 3.128701 1_565
S9 Sn0 3.128152 1_655
S10 Sn0 3.122281 1_665
S12 Sn0 2.795610 1_555
S15 Sn0 2.795610 1_665
