# generated using pymatgen
data_Pr2Y
_symmetry_space_group_name_H-M   'P 1'
_cell_length_a   18.37029545
_cell_length_b   18.37029545
_cell_length_c   18.37029332
_cell_angle_alpha   23.29968282
_cell_angle_beta   23.29968282
_cell_angle_gamma   23.29968417
_symmetry_Int_Tables_number   1
_chemical_formula_structural   Pr2Y
_chemical_formula_sum   'Pr16 Y8'
_cell_volume   851.53354198
_cell_formula_units_Z   8
loop_
 _symmetry_equiv_pos_site_id
 _symmetry_equiv_pos_as_xyz
  1  'x, y, z'
loop_
 _atom_site_type_symbol
 _atom_site_label
 _atom_site_symmetry_multiplicity
 _atom_site_fract_x
 _atom_site_fract_y
 _atom_site_fract_z
 _atom_site_occupancy
  Pr  Pr0_0  1  0.38823002  0.38823001  0.38823001  1
  Pr  Pr0_1  1  0.38823002  0.38823001  0.88823001  1
  Pr  Pr0_2  1  0.38823002  0.88823001  0.38823001  1
  Pr  Pr0_3  1  0.38823002  0.88823001  0.88823001  1
  Pr  Pr0_4  1  0.88823002  0.38823001  0.38823001  1
  Pr  Pr0_5  1  0.88823002  0.38823001  0.88823001  1
  Pr  Pr0_6  1  0.88823002  0.88823001  0.38823001  1
  Pr  Pr0_7  1  0.88823002  0.88823001  0.88823001  1
  Pr  Pr1_0  1  0.11176999  0.11176998  0.11176998  1
  Pr  Pr1_1  1  0.11176999  0.11176999  0.61176998  1
  Pr  Pr1_2  1  0.11176999  0.61176998  0.11176998  1
  Pr  Pr1_3  1  0.11176999  0.61176998  0.61176999  1
  Pr  Pr1_4  1  0.61176999  0.11176998  0.11176998  1
  Pr  Pr1_5  1  0.61176999  0.11176998  0.61176999  1
  Pr  Pr1_6  1  0.61176999  0.61176998  0.11176998  1
  Pr  Pr1_7  1  0.61176999  0.61176998  0.61176998  1
  Y  Y0_0  1  0.00000000  0.00000000  0.00000000  1
  Y  Y0_1  1  0.00000000  0.00000000  0.50000000  1
  Y  Y0_2  1  0.00000000  0.50000000  0.00000000  1
  Y  Y0_3  1  0.00000000  0.50000000  0.50000000  1
  Y  Y0_4  1  0.50000000  0.00000000  0.00000000  1
  Y  Y0_5  1  0.50000000  0.00000000  0.50000000  1
  Y  Y0_6  1  0.50000000  0.50000000  0.00000000  1
  Y  Y0_7  1  0.50000000  0.50000000  0.50000000  1
loop_
_geom_bond_atom_site_label_1
_geom_bond_atom_site_label_2
_geom_bond_distance
_geom_bond_site_symmetry_2
Pr0_0 Y0_6 3.638993 1_555
Pr0_0 Y0_5 3.638994 1_555
Pr0_0 Y0_3 3.638994 1_555
Pr0_0 Pr0_5 3.709513 1_455
Pr0_0 Pr0_3 3.709513 1_545
Pr0_0 Pr0_5 3.709513 1_554
Pr0_0 Pr0_3 3.709513 1_554
Pr0_0 Pr0_6 3.709513 1_455
Pr0_0 Pr0_6 3.709513 1_545
Pr0_0 Pr1_5 3.725157 1_555
Pr0_0 Pr1_3 3.725157 1_555
Pr0_0 Pr1_6 3.725157 1_555
Pr0_1 Y0_7 3.638993 1_555
Pr0_1 Y0_4 3.638994 1_556
Pr0_1 Y0_2 3.638994 1_556
Pr0_1 Pr0_2 3.709513 1_555
Pr0_1 Pr0_4 3.709513 1_555
Pr0_1 Pr0_2 3.709513 1_546
Pr0_1 Pr0_4 3.709513 1_456
Pr0_1 Pr0_7 3.709513 1_455
Pr0_1 Pr0_7 3.709513 1_545
Pr0_1 Pr1_4 3.725157 1_556
Pr0_1 Pr1_2 3.725157 1_556
Pr0_1 Pr1_7 3.725157 1_555
Pr0_2 Y0_4 3.638993 1_565
Pr0_2 Y0_1 3.638994 1_565
Pr0_2 Y0_7 3.638994 1_555
Pr0_2 Pr0_7 3.709513 1_455
Pr0_2 Pr0_7 3.709513 1_554
Pr0_2 Pr0_4 3.709513 1_555
Pr0_2 Pr0_4 3.709513 1_465
Pr0_2 Pr1_7 3.725157 1_555
Pr0_2 Pr1_1 3.725157 1_565
Pr0_2 Pr1_4 3.725157 1_565
Pr0_3 Y0_5 3.638993 1_565
Pr0_3 Y0_6 3.638994 1_556
Pr0_3 Y0_0 3.638994 1_566
Pr0_3 Pr0_6 3.709513 1_555
Pr0_3 Pr0_6 3.709513 1_456
Pr0_3 Pr0_5 3.709513 1_465
Pr0_3 Pr0_5 3.709513 1_555
Pr0_3 Pr1_6 3.725157 1_556
Pr0_3 Pr1_0 3.725157 1_566
Pr0_3 Pr1_5 3.725157 1_565
Pr0_4 Y0_2 3.638993 1_655
Pr0_4 Y0_1 3.638994 1_655
Pr0_4 Y0_7 3.638994 1_555
Pr0_4 Pr0_7 3.709513 1_554
Pr0_4 Pr0_7 3.709513 1_545
Pr0_4 Pr1_7 3.725157 1_555
Pr0_4 Pr1_1 3.725157 1_655
Pr0_4 Pr1_2 3.725157 1_655
Pr0_5 Y0_3 3.638993 1_655
Pr0_5 Y0_6 3.638994 1_556
Pr0_5 Y0_0 3.638994 1_656
Pr0_5 Pr0_6 3.709513 1_546
Pr0_5 Pr0_6 3.709513 1_555
Pr0_5 Pr1_0 3.725157 1_656
Pr0_5 Pr1_6 3.725157 1_556
Pr0_5 Pr1_3 3.725157 1_655
Pr0_6 Y0_0 3.638993 1_665
Pr0_6 Y0_3 3.638994 1_655
Pr0_6 Y0_5 3.638994 1_565
Pr0_6 Pr1_5 3.725157 1_565
Pr0_6 Pr1_3 3.725157 1_655
Pr0_6 Pr1_0 3.725157 1_665
Pr0_7 Y0_1 3.638993 1_665
Pr0_7 Y0_2 3.638994 1_656
Pr0_7 Y0_4 3.638994 1_566
Pr0_7 Pr1_2 3.725157 1_656
Pr0_7 Pr1_4 3.725157 1_566
Pr0_7 Pr1_1 3.725157 1_665
Pr1_0 Y0_1 3.638993 1_555
Pr1_0 Y0_2 3.638994 1_555
Pr1_0 Y0_4 3.638994 1_555
Pr1_0 Pr1_3 3.709513 1_554
Pr1_0 Pr1_5 3.709513 1_455
Pr1_0 Pr1_5 3.709513 1_554
Pr1_0 Pr1_3 3.709513 1_545
Pr1_0 Pr1_6 3.709513 1_455
Pr1_0 Pr1_6 3.709514 1_545
Pr1_1 Y0_0 3.638993 1_556
Pr1_1 Y0_3 3.638994 1_555
Pr1_1 Y0_5 3.638994 1_555
Pr1_1 Pr1_2 3.709513 1_555
Pr1_1 Pr1_4 3.709513 1_555
Pr1_1 Pr1_4 3.709513 1_456
Pr1_1 Pr1_2 3.709513 1_546
Pr1_1 Pr1_7 3.709513 1_455
Pr1_1 Pr1_7 3.709514 1_545
Pr1_2 Y0_3 3.638993 1_555
Pr1_2 Y0_0 3.638994 1_565
Pr1_2 Y0_6 3.638994 1_555
Pr1_2 Pr1_7 3.709513 1_455
Pr1_2 Pr1_7 3.709513 1_554
Pr1_2 Pr1_4 3.709513 1_555
Pr1_2 Pr1_4 3.709514 1_465
Pr1_3 Y0_2 3.638993 1_556
Pr1_3 Y0_7 3.638994 1_555
Pr1_3 Y0_1 3.638994 1_565
Pr1_3 Pr1_6 3.709513 1_456
Pr1_3 Pr1_6 3.709513 1_555
Pr1_3 Pr1_5 3.709513 1_465
Pr1_3 Pr1_5 3.709513 1_555
Pr1_4 Y0_5 3.638993 1_555
Pr1_4 Y0_0 3.638994 1_655
Pr1_4 Y0_6 3.638994 1_555
Pr1_4 Pr1_7 3.709513 1_545
Pr1_4 Pr1_7 3.709513 1_554
Pr1_5 Y0_4 3.638993 1_556
Pr1_5 Y0_1 3.638994 1_655
Pr1_5 Y0_7 3.638994 1_555
Pr1_5 Pr1_6 3.709513 1_546
Pr1_5 Pr1_6 3.709513 1_555
Pr1_6 Y0_7 3.638993 1_555
Pr1_6 Y0_2 3.638994 1_655
Pr1_6 Y0_4 3.638994 1_565
Pr1_7 Y0_6 3.638993 1_556
Pr1_7 Y0_3 3.638994 1_655
Pr1_7 Y0_5 3.638994 1_565
Y0_0 Y0_5 3.709513 1_554
Y0_0 Y0_3 3.709513 1_554
Y0_0 Y0_5 3.709513 1_455
Y0_0 Y0_3 3.709513 1_545
Y0_0 Y0_6 3.709513 1_455
Y0_0 Y0_6 3.709514 1_545
Y0_1 Y0_4 3.709513 1_555
Y0_1 Y0_4 3.709513 1_456
Y0_1 Y0_2 3.709513 1_555
Y0_1 Y0_2 3.709513 1_546
Y0_1 Y0_7 3.709513 1_455
Y0_1 Y0_7 3.709514 1_545
Y0_2 Y0_7 3.709513 1_455
Y0_2 Y0_7 3.709513 1_554
Y0_2 Y0_4 3.709513 1_555
Y0_2 Y0_4 3.709513 1_465
Y0_3 Y0_6 3.709513 1_456
Y0_3 Y0_6 3.709513 1_555
Y0_3 Y0_5 3.709513 1_555
Y0_3 Y0_5 3.709514 1_465
Y0_4 Y0_7 3.709513 1_554
Y0_4 Y0_7 3.709513 1_545
Y0_5 Y0_6 3.709513 1_555
Y0_5 Y0_6 3.709513 1_546
