# generated using pymatgen
data_Na2HSNO3
_symmetry_space_group_name_H-M   'P 1'
_cell_length_a   8.30599300
_cell_length_b   17.03139100
_cell_length_c   5.89813900
_cell_angle_alpha   90.00000000
_cell_angle_beta   90.00000000
_cell_angle_gamma   90.00000000
_symmetry_Int_Tables_number   1
_chemical_formula_structural   Na2HSNO3
_chemical_formula_sum   'Na16 H8 S8 N8 O24'
_cell_volume   834.36616319
_cell_formula_units_Z   8
loop_
 _symmetry_equiv_pos_site_id
 _symmetry_equiv_pos_as_xyz
  1  'x, y, z'
loop_
 _atom_site_type_symbol
 _atom_site_label
 _atom_site_symmetry_multiplicity
 _atom_site_fract_x
 _atom_site_fract_y
 _atom_site_fract_z
 _atom_site_occupancy
  Na  Na0  1  0.10921600  0.83041300  0.13326400  1
  Na  Na1  1  0.39078400  0.66958700  0.13326400  1
  Na  Na2  1  0.60921600  0.16958700  0.36673600  1
  Na  Na3  1  0.89078400  0.33041300  0.36673600  1
  Na  Na4  1  0.89078400  0.16958700  0.86673600  1
  Na  Na5  1  0.60921600  0.33041300  0.86673600  1
  Na  Na6  1  0.39078400  0.83041300  0.63326400  1
  Na  Na7  1  0.10921600  0.66958700  0.63326400  1
  Na  Na8  1  0.69071500  0.97119000  0.65883800  1
  Na  Na9  1  0.80928500  0.52881000  0.65883800  1
  Na  Na10  1  0.19071500  0.02881000  0.84116200  1
  Na  Na11  1  0.30928500  0.47119000  0.84116200  1
  Na  Na12  1  0.30928500  0.02881000  0.34116200  1
  Na  Na13  1  0.19071500  0.47119000  0.34116200  1
  Na  Na14  1  0.80928500  0.97119000  0.15883800  1
  Na  Na15  1  0.69071500  0.52881000  0.15883800  1
  H  H0  1  0.83335300  0.82906400  0.48054600  1
  H  H1  1  0.66664700  0.67093600  0.48054600  1
  H  H2  1  0.33335300  0.17093600  0.01945400  1
  H  H3  1  0.16664700  0.32906400  0.01945400  1
  H  H4  1  0.16664700  0.17093600  0.51945400  1
  H  H5  1  0.33335300  0.32906400  0.51945400  1
  H  H6  1  0.66664700  0.82906400  0.98054600  1
  H  H7  1  0.83335300  0.67093600  0.98054600  1
  S  S0  1  0.03486000  0.88281600  0.63752100  1
  S  S1  1  0.46514000  0.61718400  0.63752100  1
  S  S2  1  0.53486000  0.11718400  0.86247900  1
  S  S3  1  0.96514000  0.38281600  0.86247900  1
  S  S4  1  0.96514000  0.11718400  0.36247900  1
  S  S5  1  0.53486000  0.38281600  0.36247900  1
  S  S6  1  0.46514000  0.88281600  0.13752100  1
  S  S7  1  0.03486000  0.61718400  0.13752100  1
  N  N0  1  0.91294500  0.87231400  0.43413400  1
  N  N1  1  0.58705500  0.62768600  0.43413400  1
  N  N2  1  0.41294500  0.12768600  0.06586600  1
  N  N3  1  0.08705500  0.37231400  0.06586600  1
  N  N4  1  0.08705500  0.12768600  0.56586600  1
  N  N5  1  0.41294500  0.37231400  0.56586600  1
  N  N6  1  0.58705500  0.87231400  0.93413400  1
  N  N7  1  0.91294500  0.62768600  0.93413400  1
  O  O0  1  0.96380400  0.92751000  0.83387000  1
  O  O1  1  0.53619600  0.57249000  0.83387000  1
  O  O2  1  0.46380400  0.07249000  0.66613000  1
  O  O3  1  0.03619600  0.42751000  0.66613000  1
  O  O4  1  0.03619600  0.07249000  0.16613000  1
  O  O5  1  0.46380400  0.42751000  0.16613000  1
  O  O6  1  0.53619600  0.92751000  0.33387000  1
  O  O7  1  0.96380400  0.57249000  0.33387000  1
  O  O8  1  0.09397400  0.80525800  0.72760500  1
  O  O9  1  0.40602600  0.69474200  0.72760500  1
  O  O10  1  0.59397400  0.19474200  0.77239500  1
  O  O11  1  0.90602600  0.30525800  0.77239500  1
  O  O12  1  0.90602600  0.19474200  0.27239500  1
  O  O13  1  0.59397400  0.30525800  0.27239500  1
  O  O14  1  0.40602600  0.80525800  0.22760500  1
  O  O15  1  0.09397400  0.69474200  0.22760500  1
  O  O16  1  0.17474200  0.92788800  0.54744000  1
  O  O17  1  0.32525800  0.57211200  0.54744000  1
  O  O18  1  0.67474200  0.07211200  0.95256000  1
  O  O19  1  0.82525800  0.42788800  0.95256000  1
  O  O20  1  0.82525800  0.07211200  0.45256000  1
  O  O21  1  0.67474200  0.42788800  0.45256000  1
  O  O22  1  0.32525800  0.92788800  0.04744000  1
  O  O23  1  0.17474200  0.57211200  0.04744000  1
loop_
_geom_bond_atom_site_label_1
_geom_bond_atom_site_label_2
_geom_bond_distance
_geom_bond_site_symmetry_2
Na0 O15 2.380089 1_555
Na0 O8 2.433982 1_554
Na0 O22 2.496460 1_555
Na0 O14 2.563373 1_555
Na0 O0 2.704027 1_454
Na1 O14 2.380089 1_555
Na1 O9 2.433982 1_554
Na1 O23 2.496460 1_555
Na1 O15 2.563373 1_555
Na1 O1 2.704027 1_554
Na2 O13 2.380089 1_555
Na2 O10 2.433982 1_555
Na2 O20 2.496460 1_555
Na2 O12 2.563373 1_555
Na2 O2 2.704027 1_555
Na3 O12 2.380089 1_555
Na3 O11 2.433982 1_555
Na3 O21 2.496460 1_555
Na3 O13 2.563373 1_555
Na3 O3 2.704027 1_655
Na4 O11 2.380089 1_555
Na4 O12 2.433982 1_556
Na4 O18 2.496460 1_555
Na4 O10 2.563373 1_555
Na4 O4 2.704027 1_656
Na5 O10 2.380089 1_555
Na5 O13 2.433982 1_556
Na5 O19 2.496460 1_555
Na5 O11 2.563373 1_555
Na5 O5 2.704027 1_556
Na6 O9 2.380089 1_555
Na6 O14 2.433982 1_555
Na6 O16 2.496460 1_555
Na6 O8 2.563373 1_555
Na6 O6 2.704027 1_555
Na7 O8 2.380089 1_555
Na7 O15 2.433982 1_555
Na7 O17 2.496460 1_555
Na7 O9 2.563373 1_555
Na7 O7 2.704027 1_455
Na8 O20 2.384011 1_565
Na8 O6 2.423716 1_555
Na8 O18 2.444028 1_565
Na8 O2 2.555507 1_565
Na8 O0 2.600823 1_555
Na9 O21 2.384011 1_555
Na9 O7 2.423716 1_555
Na9 O19 2.444028 1_555
Na9 O3 2.555507 1_655
Na9 O1 2.600823 1_555
Na10 O22 2.384011 1_546
Na10 O4 2.423716 1_556
Na10 O16 2.444028 1_545
Na10 O0 2.555507 1_445
Na10 O2 2.600823 1_555
Na11 O23 2.384011 1_556
Na11 O5 2.423716 1_556
Na11 O17 2.444028 1_555
Na11 O1 2.555507 1_555
Na11 O3 2.600823 1_555
Na12 O16 2.384011 1_545
Na12 O2 2.423716 1_555
Na12 O22 2.444028 1_545
Na12 O6 2.555507 1_545
Na12 O4 2.600823 1_555
Na13 O17 2.384011 1_555
Na13 O3 2.423716 1_555
Na13 O23 2.444028 1_555
Na13 O7 2.555507 1_455
Na13 O5 2.600823 1_555
Na14 O18 2.384011 1_564
Na14 O0 2.423716 1_554
Na14 O20 2.444028 1_565
Na14 O4 2.555507 1_665
Na14 O6 2.600823 1_555
Na15 O19 2.384011 1_554
Na15 O1 2.423716 1_554
Na15 O21 2.444028 1_555
Na15 O5 2.555507 1_555
Na15 O7 2.600823 1_555
H0 N0 1.026921 1_555
H1 N1 1.026921 1_555
H2 N2 1.026921 1_555
H3 N3 1.026921 1_555
H4 N4 1.026921 1_555
H5 N5 1.026921 1_555
H6 N6 1.026921 1_555
H7 N7 1.026921 1_555
N0 S0 1.580017 1_655
N0 Na14 2.492724 1_555
N0 Na0 2.513169 1_655
N1 S1 1.580017 1_555
N1 Na15 2.492724 1_555
N1 Na1 2.513169 1_555
N2 S2 1.580017 1_554
N2 Na12 2.492724 1_555
N2 Na2 2.513169 1_555
N3 S3 1.580017 1_454
N3 Na13 2.492724 1_555
N3 Na3 2.513169 1_455
N4 S4 1.580017 1_455
N4 Na10 2.492724 1_555
N4 Na4 2.513169 1_455
N5 S5 1.580017 1_555
N5 Na11 2.492724 1_555
N5 Na5 2.513169 1_555
N6 S6 1.580017 1_556
N6 Na8 2.492724 1_555
N6 Na6 2.513169 1_555
N7 S7 1.580017 1_656
N7 Na9 2.492724 1_555
N7 Na7 2.513169 1_655
O0 S0 1.506298 1_655
O1 S1 1.506298 1_555
O2 S2 1.506298 1_555
O3 S3 1.506298 1_455
O4 S4 1.506298 1_455
O5 S5 1.506298 1_555
O6 S6 1.506298 1_555
O7 S7 1.506298 1_655
O8 S0 1.506062 1_555
O9 S1 1.506062 1_555
O10 S2 1.506062 1_555
O11 S3 1.506062 1_555
O12 S4 1.506062 1_555
O13 S5 1.506062 1_555
O14 S6 1.506062 1_555
O15 S7 1.506062 1_555
O16 S0 1.490462 1_555
O17 S1 1.490462 1_555
O18 S2 1.490462 1_555
O19 S3 1.490462 1_555
O20 S4 1.490462 1_555
O21 S5 1.490462 1_555
O22 S6 1.490462 1_555
O23 S7 1.490462 1_555
