# generated using pymatgen
data_Cs2SiB4O9
_symmetry_space_group_name_H-M   'P 1'
_cell_length_a   6.93253942
_cell_length_b   6.93253942
_cell_length_c   6.76429419
_cell_angle_alpha   61.77516679
_cell_angle_beta   61.77516679
_cell_angle_gamma   93.49791421
_symmetry_Int_Tables_number   1
_chemical_formula_structural   Cs2SiB4O9
_chemical_formula_sum   'Cs2 Si1 B4 O9'
_cell_volume   234.80024307
_cell_formula_units_Z   1
loop_
 _symmetry_equiv_pos_site_id
 _symmetry_equiv_pos_as_xyz
  1  'x, y, z'
loop_
 _atom_site_type_symbol
 _atom_site_label
 _atom_site_symmetry_multiplicity
 _atom_site_fract_x
 _atom_site_fract_y
 _atom_site_fract_z
 _atom_site_occupancy
  Cs  Cs0  1  0.50681600  0.49318400  0.00000000  1
  Cs  Cs1  1  0.24586200  0.75413800  0.50000000  1
  Si  Si0  1  0.75663300  0.24336700  0.50000000  1
  B  B0  1  0.97299200  0.13853100  0.11369600  1
  B  B1  1  0.86146900  0.02700800  0.88630400  1
  B  B2  1  0.28134900  0.16470600  0.70337400  1
  B  B3  1  0.83529400  0.71865100  0.29662600  1
  O  O0  1  0.71703400  0.03621400  0.78198900  1
  O  O1  1  0.96378600  0.28296600  0.21801100  1
  O  O2  1  0.81939700  0.49441900  0.46960200  1
  O  O3  1  0.50558100  0.18060300  0.53039800  1
  O  O4  1  0.89572400  0.88321400  0.33654400  1
  O  O5  1  0.11678600  0.10427600  0.66345600  1
  O  O6  1  0.23237300  0.21087200  0.89489200  1
  O  O7  1  0.78912800  0.76762700  0.10510800  1
  O  O8  1  0.83587500  0.16412500  0.00000000  1
loop_
_geom_bond_atom_site_label_1
_geom_bond_atom_site_label_2
_geom_bond_distance
_geom_bond_site_symmetry_2
Cs0 O6 3.177576 1_554
Cs0 O7 3.177576 1_555
Cs0 O3 3.191064 1_555
Cs0 O2 3.191064 1_554
Cs0 O0 3.243039 1_564
Cs0 O1 3.243039 1_455
Cs0 O5 3.302827 1_555
Cs0 O4 3.302827 1_554
Cs0 O8 3.323084 1_555
Cs1 O5 3.127775 1_565
Cs1 O4 3.127775 1_455
Cs1 O7 3.396088 1_555
Cs1 O6 3.396088 1_555
Cs1 O3 3.507215 1_565
Cs1 O2 3.507215 1_455
Cs1 O8 3.556906 1_565
Cs1 O8 3.556906 1_456
Cs1 O1 3.648817 1_456
Cs1 O0 3.648817 1_564
B0 O8 1.452422 1_555
B0 O1 1.462212 1_555
B0 O4 1.512939 1_545
B0 O6 1.531682 1_654
B1 O8 1.452422 1_556
B1 O0 1.462212 1_555
B1 O5 1.512939 1_655
B1 O7 1.531682 1_546
B2 O6 1.373091 1_555
B2 O5 1.374764 1_555
B2 O3 1.390821 1_555
B3 O7 1.373091 1_555
B3 O4 1.374764 1_555
B3 O2 1.390821 1_555
O0 Si0 1.625339 1_555
O1 Si0 1.625339 1_555
O2 Si0 1.656854 1_555
O3 Si0 1.656854 1_555
