# generated using pymatgen
data_Li2NiO2F
_symmetry_space_group_name_H-M   'P 1'
_cell_length_a   2.82442177
_cell_length_b   14.67079416
_cell_length_c   5.14056960
_cell_angle_alpha   77.81122572
_cell_angle_beta   90.00866203
_cell_angle_gamma   95.48572931
_symmetry_Int_Tables_number   1
_chemical_formula_structural   Li2NiO2F
_chemical_formula_sum   'Li8 Ni4 O8 F4'
_cell_volume   207.20799712
_cell_formula_units_Z   4
loop_
 _symmetry_equiv_pos_site_id
 _symmetry_equiv_pos_as_xyz
  1  'x, y, z'
loop_
 _atom_site_type_symbol
 _atom_site_label
 _atom_site_symmetry_multiplicity
 _atom_site_fract_x
 _atom_site_fract_y
 _atom_site_fract_z
 _atom_site_occupancy
  Li  Li0  1  0.83329200  0.66663400  0.83327500  1
  Li  Li1  1  0.33331500  0.66665500  0.33330300  1
  Li  Li2  1  0.58325400  0.16657700  0.08339500  1
  Li  Li3  1  0.08326700  0.16662400  0.58334000  1
  Li  Li4  1  0.16538600  0.33129900  0.16712400  1
  Li  Li5  1  0.66538100  0.33126900  0.66723300  1
  Li  Li6  1  0.50118700  0.00203000  0.49941500  1
  Li  Li7  1  0.00119100  0.00204200  0.99937200  1
  Ni  Ni0  1  0.41728800  0.83431600  0.91730500  1
  Ni  Ni1  1  0.24944100  0.49904600  0.74926000  1
  Ni  Ni2  1  0.91725500  0.83432800  0.41730900  1
  Ni  Ni3  1  0.74944000  0.49904000  0.24925800  1
  O  O0  1  0.95500100  0.90997900  0.73124900  1
  O  O1  1  0.45496900  0.90998000  0.23129400  1
  O  O2  1  0.71192200  0.42342500  0.93514700  1
  O  O3  1  0.21186900  0.42335800  0.43514300  1
  O  O4  1  0.28736200  0.57478400  0.06344100  1
  O  O5  1  0.78733900  0.57471800  0.56346600  1
  O  O6  1  0.87923500  0.75863800  0.10334000  1
  O  O7  1  0.37921700  0.75863200  0.60329900  1
  F  F0  1  0.04232900  0.08428400  0.29362000  1
  F  F1  1  0.54229400  0.08428700  0.79357500  1
  F  F2  1  0.62439300  0.24905100  0.37340900  1
  F  F3  1  0.12437700  0.24901200  0.87342500  1
loop_
_geom_bond_atom_site_label_1
_geom_bond_atom_site_label_2
_geom_bond_distance
_geom_bond_site_symmetry_2
Li0 O5 2.124897 1_555
Li0 O4 2.125370 1_656
Li0 O7 2.126215 1_555
Li0 O4 2.126812 1_556
Li0 O6 2.126922 1_556
Li0 O7 2.127362 1_655
Li1 O4 2.124605 1_555
Li1 O5 2.126011 1_555
Li1 O6 2.126069 1_455
Li1 O7 2.126339 1_555
Li1 O6 2.127225 1_555
Li1 O5 2.127462 1_455
Li4 O3 2.119279 1_555
Li4 O2 2.130509 1_454
Li4 O2 2.133703 1_554
Li5 O2 2.119949 1_555
Li5 O3 2.130535 1_555
Li5 O3 2.133618 1_655
Li6 O1 2.119588 1_545
Li6 O0 2.130219 1_545
Li6 O0 2.132244 1_445
Li7 O0 2.119743 1_445
Li7 O1 2.130437 1_546
Li7 O1 2.132576 1_446
Ni0 O6 1.917758 1_556
Ni0 O0 1.918386 1_455
Ni0 O0 1.919189 1_555
Ni0 O6 1.919942 1_456
Ni0 O1 2.140734 1_556
Ni0 O7 2.141007 1_555
Ni1 O5 1.917567 1_455
Ni1 O2 1.918131 1_555
Ni1 O2 1.918213 1_455
Ni1 O5 1.919119 1_555
Ni1 O3 2.141539 1_555
Ni1 O4 2.142317 1_556
Ni2 O7 1.917844 1_655
Ni2 O1 1.918218 1_555
Ni2 O1 1.919047 1_655
Ni2 O7 1.919929 1_555
Ni2 O0 2.140388 1_555
Ni2 O6 2.140902 1_555
Ni3 O4 1.918131 1_555
Ni3 O3 1.918501 1_655
Ni3 O3 1.918674 1_555
Ni3 O4 1.919634 1_655
Ni3 O2 2.140792 1_554
Ni3 O5 2.141845 1_555
F0 Li6 2.003630 1_555
F0 Li6 2.005041 1_455
F0 Li2 2.013607 1_455
F0 Li2 2.014080 1_555
F0 Li3 2.103247 1_555
F0 Li7 2.121565 1_554
F1 Li7 2.003639 1_655
F1 Li7 2.004913 1_555
F1 Li3 2.013887 1_555
F1 Li3 2.014464 1_655
F1 Li2 2.103147 1_556
F1 Li6 2.121345 1_555
F2 Li4 2.004889 1_555
F2 Li4 2.005719 1_655
F2 Li3 2.013668 1_655
F2 Li3 2.014674 1_555
F2 Li2 2.105913 1_555
F2 Li5 2.119498 1_555
F3 Li5 2.004748 1_455
F3 Li5 2.005604 1_555
F3 Li2 2.013821 1_556
F3 Li2 2.014798 1_456
F3 Li3 2.105309 1_555
F3 Li4 2.119686 1_556
