# generated using pymatgen
data_UMo2H2O9
_symmetry_space_group_name_H-M   'P 1'
_cell_length_a   18.51218654
_cell_length_b   18.51218654
_cell_length_c   11.57181104
_cell_angle_alpha   89.47012127
_cell_angle_beta   89.47012127
_cell_angle_gamma   21.11565853
_symmetry_Int_Tables_number   1
_chemical_formula_structural   UMo2H2O9
_chemical_formula_sum   'U6 Mo12 H12 O54'
_cell_volume   1428.57704565
_cell_formula_units_Z   6
loop_
 _symmetry_equiv_pos_site_id
 _symmetry_equiv_pos_as_xyz
  1  'x, y, z'
loop_
 _atom_site_type_symbol
 _atom_site_label
 _atom_site_symmetry_multiplicity
 _atom_site_fract_x
 _atom_site_fract_y
 _atom_site_fract_z
 _atom_site_occupancy
  U  U0  1  0.52744600  0.14063300  0.41849700  1
  U  U1  1  0.47255400  0.85936700  0.58150300  1
  U  U2  1  0.85936700  0.47255400  0.08150300  1
  U  U3  1  0.14063300  0.52744600  0.91849700  1
  U  U4  1  0.80379400  0.19620600  0.25000000  1
  U  U5  1  0.19620600  0.80379400  0.75000000  1
  Mo  Mo0  1  0.65635700  0.98593400  0.07443900  1
  Mo  Mo1  1  0.34364300  0.01406600  0.92556100  1
  Mo  Mo2  1  0.01406600  0.34364300  0.42556100  1
  Mo  Mo3  1  0.98593400  0.65635700  0.57443900  1
  Mo  Mo4  1  0.31840900  0.98879500  0.23923800  1
  Mo  Mo5  1  0.68159100  0.01120500  0.76076200  1
  Mo  Mo6  1  0.01120500  0.68159100  0.26076200  1
  Mo  Mo7  1  0.98879500  0.31840900  0.73923800  1
  Mo  Mo8  1  0.34613300  0.67908300  0.09249800  1
  Mo  Mo9  1  0.65386700  0.32091700  0.90750200  1
  Mo  Mo10  1  0.32091700  0.65386700  0.40750200  1
  Mo  Mo11  1  0.67908300  0.34613300  0.59249800  1
  H  H0  1  0.39153700  0.05679700  0.23375900  1
  H  H1  1  0.60846300  0.94320300  0.76624100  1
  H  H2  1  0.94320300  0.60846300  0.26624100  1
  H  H3  1  0.05679700  0.39153700  0.73375900  1
  H  H4  1  0.76262300  0.02154300  0.06641700  1
  H  H5  1  0.23737700  0.97845700  0.93358300  1
  H  H6  1  0.97845700  0.23737700  0.43358300  1
  H  H7  1  0.02154300  0.76262300  0.56641700  1
  H  H8  1  0.31155200  0.57002100  0.10274100  1
  H  H9  1  0.68844800  0.42997900  0.89725900  1
  H  H10  1  0.42997900  0.68844800  0.39725900  1
  H  H11  1  0.57002100  0.31155200  0.60274100  1
  O  O0  1  0.48082100  0.08883200  0.41212900  1
  O  O1  1  0.51917900  0.91116800  0.58787100  1
  O  O2  1  0.91116800  0.51917900  0.08787100  1
  O  O3  1  0.08883200  0.48082100  0.91212900  1
  O  O4  1  0.31615300  0.02261300  0.39686600  1
  O  O5  1  0.68384700  0.97738700  0.60313400  1
  O  O6  1  0.97738700  0.68384700  0.10313400  1
  O  O7  1  0.02261300  0.31615300  0.89686600  1
  O  O8  1  0.60495900  0.94361800  0.07905000  1
  O  O9  1  0.39504100  0.05638200  0.92095000  1
  O  O10  1  0.05638200  0.39504100  0.42095000  1
  O  O11  1  0.94361800  0.60495900  0.57905000  1
  O  O12  1  0.08534900  0.91538200  0.12639100  1
  O  O13  1  0.91465100  0.08461800  0.87360900  1
  O  O14  1  0.08461800  0.91465100  0.37360900  1
  O  O15  1  0.91538200  0.08534900  0.62639100  1
  O  O16  1  0.22951600  0.10232700  0.08216000  1
  O  O17  1  0.77048400  0.89767300  0.91784000  1
  O  O18  1  0.89767300  0.77048400  0.41784000  1
  O  O19  1  0.10232700  0.22951600  0.58216000  1
  O  O20  1  0.43456900  0.56543100  0.25000000  1
  O  O21  1  0.56543100  0.43456900  0.75000000  1
  O  O22  1  0.42190200  0.24704200  0.04230300  1
  O  O23  1  0.57809800  0.75295800  0.95769700  1
  O  O24  1  0.75295800  0.57809800  0.45769700  1
  O  O25  1  0.24704200  0.42190200  0.54230300  1
  O  O26  1  0.58684300  0.17964000  0.42574000  1
  O  O27  1  0.41315700  0.82036000  0.57426000  1
  O  O28  1  0.82036000  0.41315700  0.07426000  1
  O  O29  1  0.17964000  0.58684300  0.92574000  1
  O  O30  1  0.57973700  0.75133900  0.20566900  1
  O  O31  1  0.42026300  0.24866100  0.79433100  1
  O  O32  1  0.24866100  0.42026300  0.29433100  1
  O  O33  1  0.75133900  0.57973700  0.70566900  1
  O  O34  1  0.39050900  0.72832200  0.08301700  1
  O  O35  1  0.60949100  0.27167800  0.91698300  1
  O  O36  1  0.27167800  0.60949100  0.41698300  1
  O  O37  1  0.72832200  0.39050900  0.58301700  1
  O  O38  1  0.64327400  0.34920000  0.43565000  1
  O  O39  1  0.35672600  0.65080000  0.56435000  1
  O  O40  1  0.65080000  0.35672600  0.06435000  1
  O  O41  1  0.34920000  0.64327400  0.93565000  1
  O  O42  1  0.74712900  0.15455400  0.23875400  1
  O  O43  1  0.25287100  0.84544600  0.76124600  1
  O  O44  1  0.84544600  0.25287100  0.26124600  1
  O  O45  1  0.15455400  0.74712900  0.73875400  1
  O  O46  1  0.69054300  0.98085100  0.23321700  1
  O  O47  1  0.30945700  0.01914900  0.76678300  1
  O  O48  1  0.01914900  0.30945700  0.26678300  1
  O  O49  1  0.98085100  0.69054300  0.73321700  1
  O  O50  1  0.27148300  0.94205900  0.24822800  1
  O  O51  1  0.72851700  0.05794100  0.75177200  1
  O  O52  1  0.05794100  0.72851700  0.25177200  1
  O  O53  1  0.94205900  0.27148300  0.74822800  1
loop_
_geom_bond_atom_site_label_1
_geom_bond_atom_site_label_2
_geom_bond_distance
_geom_bond_site_symmetry_2
Mo0 O8 1.706092 1_555
Mo0 O22 1.787645 1_565
Mo0 O46 1.921567 1_555
Mo0 O17 1.990134 1_554
Mo0 O6 2.167598 1_555
Mo1 O9 1.706092 1_555
Mo1 O23 1.787645 1_545
Mo1 O47 1.921567 1_555
Mo1 O16 1.990134 1_556
Mo1 O7 2.167598 1_555
Mo2 O10 1.706092 1_555
Mo2 O24 1.787645 1_455
Mo2 O48 1.921567 1_555
Mo2 O19 1.990134 1_555
Mo2 O4 2.167598 1_555
Mo3 O11 1.706092 1_555
Mo3 O25 1.787645 1_655
Mo3 O49 1.921567 1_555
Mo3 O18 1.990134 1_555
Mo3 O5 2.167598 1_555
Mo4 O50 1.706729 1_555
Mo4 O30 1.788523 1_555
Mo4 O4 1.921389 1_565
Mo4 O16 1.990256 1_565
Mo4 O48 2.162676 1_565
Mo5 O51 1.706729 1_555
Mo5 O31 1.788523 1_555
Mo5 O5 1.921389 1_545
Mo5 O17 1.990256 1_545
Mo5 O49 2.162676 1_545
Mo6 O52 1.706729 1_555
Mo6 O32 1.788523 1_555
Mo6 O6 1.921389 1_455
Mo6 O18 1.990256 1_455
Mo6 O46 2.162676 1_455
Mo7 O53 1.706729 1_555
Mo7 O33 1.788523 1_555
Mo7 O7 1.921389 1_655
Mo7 O19 1.990256 1_655
Mo7 O47 2.162676 1_655
Mo8 O34 1.706258 1_555
Mo8 O12 1.786605 1_555
Mo8 O41 1.920175 1_554
Mo8 O20 1.996631 1_555
Mo8 O40 2.176035 1_555
Mo9 O35 1.706258 1_555
Mo9 O13 1.786605 1_555
Mo9 O40 1.920175 1_556
Mo9 O21 1.996631 1_555
Mo9 O41 2.176035 1_555
Mo10 O36 1.706258 1_555
Mo10 O14 1.786605 1_555
Mo10 O39 1.920175 1_555
Mo10 O20 1.996631 1_555
Mo10 O38 2.176035 1_555
Mo11 O37 1.706258 1_555
Mo11 O15 1.786605 1_555
Mo11 O38 1.920175 1_555
Mo11 O21 1.996631 1_555
Mo11 O39 2.176035 1_555
O0 U0 1.793527 1_555
O1 U1 1.793527 1_555
O2 U2 1.793527 1_555
O3 U3 1.793527 1_555
O4 U1 2.398135 1_545
O5 U0 2.398135 1_565
O6 U3 2.398135 1_654
O7 U2 2.398135 1_456
O12 U4 2.384238 1_465
O13 U5 2.384238 1_645
O14 U4 2.384238 1_465
O15 U5 2.384238 1_645
O16 U2 2.511329 1_455
O17 U3 2.511329 1_655
O18 U0 2.511329 1_565
O19 U1 2.511329 1_545
O20 U4 2.504784 1_555
O21 U5 2.504784 1_555
O22 U3 2.383871 1_554
O23 U2 2.383871 1_556
O24 U1 2.383871 1_555
O25 U0 2.383871 1_555
O26 U0 1.794914 1_555
O27 U1 1.794914 1_555
O28 U2 1.794914 1_555
O29 U3 1.794914 1_555
O30 U2 2.377385 1_555
O31 U3 2.377385 1_555
O32 U0 2.377385 1_555
O33 U1 2.377385 1_555
O38 U4 2.399857 1_555
O39 U5 2.399857 1_555
O40 U4 2.399857 1_555
O41 U5 2.399857 1_555
O42 U4 1.795919 1_555
O43 U5 1.795919 1_555
O44 U4 1.795919 1_555
O45 U5 1.795919 1_555
O46 U0 2.407797 1_565
O47 U1 2.407797 1_545
O48 U2 2.407797 1_455
O49 U3 2.407797 1_655
