# generated using pymatgen
data_BaLiGd2(MoO4)4
_symmetry_space_group_name_H-M   'P 1'
_cell_length_a   6.94767149
_cell_length_b   6.94767149
_cell_length_c   19.47886548
_cell_angle_alpha   89.49271007
_cell_angle_beta   89.49271007
_cell_angle_gamma   134.97955412
_symmetry_Int_Tables_number   1
_chemical_formula_structural   BaLiGd2(MoO4)4
_chemical_formula_sum   'Ba2 Li2 Gd4 Mo8 O32'
_cell_volume   664.91475215
_cell_formula_units_Z   2
loop_
 _symmetry_equiv_pos_site_id
 _symmetry_equiv_pos_as_xyz
  1  'x, y, z'
loop_
 _atom_site_type_symbol
 _atom_site_label
 _atom_site_symmetry_multiplicity
 _atom_site_fract_x
 _atom_site_fract_y
 _atom_site_fract_z
 _atom_site_occupancy
  Ba  Ba0  1  0.52849700  0.47150300  0.75000000  1
  Ba  Ba1  1  0.47150300  0.52849700  0.25000000  1
  Li  Li0  1  0.81821500  0.18178500  0.75000000  1
  Li  Li1  1  0.18178500  0.81821500  0.25000000  1
  Gd  Gd0  1  0.64426100  0.35556500  0.53220400  1
  Gd  Gd1  1  0.35573900  0.64443500  0.46779600  1
  Gd  Gd2  1  0.64443500  0.35573900  0.96779600  1
  Gd  Gd3  1  0.35556500  0.64426100  0.03220400  1
  Mo  Mo0  1  0.23795100  0.75960500  0.65001700  1
  Mo  Mo1  1  0.76204900  0.24039500  0.34998300  1
  Mo  Mo2  1  0.24039500  0.76204900  0.84998300  1
  Mo  Mo3  1  0.75960500  0.23795100  0.15001700  1
  Mo  Mo4  1  0.92976100  0.05083800  0.59303200  1
  Mo  Mo5  1  0.07023900  0.94916200  0.40696800  1
  Mo  Mo6  1  0.94916200  0.07023900  0.90696800  1
  Mo  Mo7  1  0.05083800  0.92976100  0.09303200  1
  O  O0  1  0.42924200  0.02997600  0.78661800  1
  O  O1  1  0.57075800  0.97002400  0.21338200  1
  O  O2  1  0.97002400  0.57075800  0.71338200  1
  O  O3  1  0.02997600  0.42924200  0.28661800  1
  O  O4  1  0.78559000  0.95553200  0.82546700  1
  O  O5  1  0.21441000  0.04446800  0.17453300  1
  O  O6  1  0.04446800  0.21441000  0.67453300  1
  O  O7  1  0.95553200  0.78559000  0.32546700  1
  O  O8  1  0.72055900  0.75700300  0.96410100  1
  O  O9  1  0.27944100  0.24299700  0.03589900  1
  O  O10  1  0.24299700  0.27944100  0.53589900  1
  O  O11  1  0.75700300  0.72055900  0.46410100  1
  O  O12  1  0.49767300  0.78833300  0.67995000  1
  O  O13  1  0.50232700  0.21166700  0.32005000  1
  O  O14  1  0.21166700  0.50232700  0.82005000  1
  O  O15  1  0.78833300  0.49767300  0.17995000  1
  O  O16  1  0.39971200  0.10691500  0.63637200  1
  O  O17  1  0.60028800  0.89308500  0.36362800  1
  O  O18  1  0.89308500  0.60028800  0.86362800  1
  O  O19  1  0.10691500  0.39971200  0.13637200  1
  O  O20  1  0.71483200  0.80361700  0.10536400  1
  O  O21  1  0.28516800  0.19638300  0.89463600  1
  O  O22  1  0.19638300  0.28516800  0.39463600  1
  O  O23  1  0.80361700  0.71483200  0.60536400  1
  O  O24  1  0.66994300  0.01126500  0.54501800  1
  O  O25  1  0.33005700  0.98873500  0.45498200  1
  O  O26  1  0.98873500  0.33005700  0.95498200  1
  O  O27  1  0.01126500  0.66994300  0.04501800  1
  O  O28  1  0.42422500  0.90368600  0.93164500  1
  O  O29  1  0.57577500  0.09631400  0.06835500  1
  O  O30  1  0.09631400  0.57577500  0.56835500  1
  O  O31  1  0.90368600  0.42422500  0.43164500  1
loop_
_geom_bond_atom_site_label_1
_geom_bond_atom_site_label_2
_geom_bond_distance
_geom_bond_site_symmetry_2
Ba0 O0 2.712267 1_555
Ba0 O2 2.712267 1_555
Ba0 O12 2.715058 1_555
Ba0 O14 2.715058 1_555
Ba0 O4 2.881421 1_555
Ba0 O6 2.881421 1_555
Ba0 O18 3.007658 1_555
Ba0 O16 3.007658 1_555
Ba0 O23 3.114656 1_555
Ba0 O21 3.114656 1_555
Ba1 O3 2.712267 1_555
Ba1 O1 2.712267 1_555
Ba1 O15 2.715058 1_555
Ba1 O13 2.715058 1_555
Ba1 O7 2.881421 1_555
Ba1 O5 2.881421 1_555
Ba1 O17 3.007658 1_555
Ba1 O19 3.007658 1_555
Ba1 O20 3.114656 1_555
Ba1 O22 3.114656 1_555
Li0 O4 2.032917 1_545
Li0 O6 2.032917 1_655
Li0 O0 2.201698 1_555
Li0 O2 2.201698 1_555
Li0 O12 2.409872 1_545
Li0 O14 2.409872 1_655
Li1 O5 2.032917 1_565
Li1 O7 2.032917 1_455
Li1 O1 2.201698 1_555
Li1 O3 2.201698 1_555
Li1 O15 2.409872 1_455
Li1 O13 2.409872 1_565
Gd0 O23 2.381403 1_555
Gd0 O16 2.390753 1_555
Gd0 O25 2.405037 1_545
Gd0 O11 2.432666 1_555
Gd0 O30 2.442517 1_655
Gd0 O10 2.443018 1_555
Gd0 O31 2.453251 1_555
Gd0 O24 2.531761 1_555
Gd1 O22 2.381403 1_555
Gd1 O17 2.390753 1_555
Gd1 O24 2.405037 1_565
Gd1 O10 2.432666 1_555
Gd1 O31 2.442517 1_455
Gd1 O11 2.443018 1_555
Gd1 O30 2.453251 1_555
Gd1 O25 2.531761 1_555
Gd2 O21 2.381403 1_555
Gd2 O18 2.390753 1_555
Gd2 O27 2.405037 1_656
Gd2 O9 2.432666 1_556
Gd2 O28 2.442517 1_545
Gd2 O8 2.443018 1_555
Gd2 O29 2.453251 1_556
Gd2 O26 2.531761 1_555
Gd3 O20 2.381403 1_555
Gd3 O19 2.390753 1_555
Gd3 O26 2.405037 1_454
Gd3 O8 2.432666 1_554
Gd3 O29 2.442517 1_565
Gd3 O9 2.443018 1_555
Gd3 O28 2.453251 1_554
Gd3 O27 2.531761 1_555
Mo0 O12 1.774096 1_555
Mo0 O2 1.785460 1_455
Mo0 O16 1.818189 1_565
Mo0 O30 1.848447 1_555
Mo1 O13 1.774096 1_555
Mo1 O3 1.785460 1_655
Mo1 O17 1.818189 1_545
Mo1 O31 1.848447 1_555
Mo2 O14 1.774096 1_555
Mo2 O0 1.785460 1_565
Mo2 O18 1.818189 1_455
Mo2 O28 1.848447 1_555
Mo3 O15 1.774096 1_555
Mo3 O1 1.785460 1_545
Mo3 O19 1.818189 1_655
Mo3 O29 1.848447 1_555
Mo4 O6 1.794690 1_655
Mo4 O23 1.835613 1_545
Mo4 O10 1.880577 1_655
Mo4 O24 1.881918 1_555
Mo5 O7 1.794690 1_455
Mo5 O22 1.835613 1_565
Mo5 O11 1.880577 1_455
Mo5 O25 1.881918 1_555
Mo6 O4 1.794690 1_545
Mo6 O21 1.835613 1_655
Mo6 O8 1.880577 1_545
Mo6 O26 1.881918 1_555
Mo7 O5 1.794690 1_565
Mo7 O20 1.835613 1_455
Mo7 O9 1.880577 1_565
Mo7 O27 1.881918 1_555
