# generated using pymatgen
data_Li3AsH16(SO2)4
_symmetry_space_group_name_H-M   'P 1'
_cell_length_a   10.25791071
_cell_length_b   10.07449711
_cell_length_c   14.47172478
_cell_angle_alpha   90.00000000
_cell_angle_beta   107.12554769
_cell_angle_gamma   90.00000000
_symmetry_Int_Tables_number   1
_chemical_formula_structural   Li3AsH16(SO2)4
_chemical_formula_sum   'Li12 As4 H64 S16 O32'
_cell_volume   1429.24544378
_cell_formula_units_Z   4
loop_
 _symmetry_equiv_pos_site_id
 _symmetry_equiv_pos_as_xyz
  1  'x, y, z'
loop_
 _atom_site_type_symbol
 _atom_site_label
 _atom_site_symmetry_multiplicity
 _atom_site_fract_x
 _atom_site_fract_y
 _atom_site_fract_z
 _atom_site_occupancy
  Li  Li0  1  0.50000000  0.50000000  -0.00000000  1
  Li  Li1  1  0.50000000  0.50000000  0.50000000  1
  Li  Li2  1  0.27906334  0.27796524  0.00690882  1
  Li  Li3  1  0.72093666  0.27796524  0.49309118  1
  Li  Li4  1  0.72093666  0.72203476  0.99309118  1
  Li  Li5  1  0.27906334  0.72203476  0.50690882  1
  Li  Li6  1  0.50000000  0.40051161  0.25000000  1
  Li  Li7  1  0.50000000  0.59948839  0.75000000  1
  Li  Li8  1  0.07631580  0.11928116  0.91557823  1
  Li  Li9  1  0.92368420  0.11928116  0.58442177  1
  Li  Li10  1  0.92368420  0.88071884  0.08442177  1
  Li  Li11  1  0.07631580  0.88071884  0.41557823  1
  As  As0  1  -0.00000000  0.59190343  0.75000000  1
  As  As1  1  -0.00000000  0.40809657  0.25000000  1
  As  As2  1  0.50000000  0.08369100  0.75000000  1
  As  As3  1  0.50000000  0.91630900  0.25000000  1
  H  H0  1  0.65641709  0.53835824  0.19335366  1
  H  H1  1  0.34358291  0.53835824  0.30664634  1
  H  H2  1  0.34358291  0.46164176  0.80664634  1
  H  H3  1  0.65641709  0.46164176  0.69335366  1
  H  H4  1  0.51438102  0.61338013  0.16337642  1
  H  H5  1  0.48561898  0.61338013  0.33662358  1
  H  H6  1  0.48561898  0.38661987  0.83662358  1
  H  H7  1  0.51438102  0.38661987  0.66337642  1
  H  H8  1  0.26919875  0.51442386  0.05879272  1
  H  H9  1  0.73080125  0.51442386  0.44120728  1
  H  H10  1  0.73080125  0.48557614  0.94120728  1
  H  H11  1  0.26919875  0.48557614  0.55879272  1
  H  H12  1  0.23433572  0.55260689  0.95076535  1
  H  H13  1  0.76566428  0.55260689  0.54923465  1
  H  H14  1  0.76566428  0.44739311  0.04923465  1
  H  H15  1  0.23433572  0.44739311  0.45076535  1
  H  H16  1  0.53280464  0.22639424  0.07465737  1
  H  H17  1  0.46719536  0.22639424  0.42534263  1
  H  H18  1  0.46719536  0.77360576  0.92534263  1
  H  H19  1  0.53280464  0.77360576  0.57465737  1
  H  H20  1  0.52135276  0.24267746  0.96530870  1
  H  H21  1  0.47864724  0.24267746  0.53469130  1
  H  H22  1  0.47864724  0.75732254  0.03469130  1
  H  H23  1  0.52135276  0.75732254  0.46530870  1
  H  H24  1  0.26164748  0.34748088  0.18208840  1
  H  H25  1  0.73835252  0.34748088  0.31791160  1
  H  H26  1  0.73835252  0.65251912  0.81791160  1
  H  H27  1  0.26164748  0.65251912  0.68208840  1
  H  H28  1  0.33955898  0.20994409  0.20608381  1
  H  H29  1  0.66044102  0.20994409  0.29391619  1
  H  H30  1  0.66044102  0.79005591  0.79391619  1
  H  H31  1  0.33955898  0.79005591  0.70608381  1
  H  H32  1  0.00702387  0.34707486  0.93754716  1
  H  H33  1  0.99297613  0.34707486  0.56245284  1
  H  H34  1  0.99297613  0.65292514  0.06245284  1
  H  H35  1  0.00702387  0.65292514  0.43754716  1
  H  H36  1  0.00737563  0.28053714  0.03604395  1
  H  H37  1  0.99262437  0.28053714  0.46395605  1
  H  H38  1  0.99262437  0.71946286  0.96395605  1
  H  H39  1  0.00737563  0.71946286  0.53604395  1
  H  H40  1  0.31119411  0.02436428  0.95544259  1
  H  H41  1  0.68880589  0.02436428  0.54455741  1
  H  H42  1  0.68880589  0.97563572  0.04455741  1
  H  H43  1  0.31119411  0.97563572  0.45544259  1
  H  H44  1  0.27379694  0.98582978  0.04858461  1
  H  H45  1  0.72620306  0.98582978  0.45141539  1
  H  H46  1  0.72620306  0.01417022  0.95141539  1
  H  H47  1  0.27379694  0.01417022  0.54858461  1
  H  H48  1  0.15886562  0.29545961  0.79725892  1
  H  H49  1  0.84113438  0.29545961  0.70274108  1
  H  H50  1  0.84113438  0.70454039  0.20274108  1
  H  H51  1  0.15886562  0.70454039  0.29725892  1
  H  H52  1  0.24175578  0.16121627  0.81882653  1
  H  H53  1  0.75824422  0.16121627  0.68117347  1
  H  H54  1  0.75824422  0.83878373  0.18117347  1
  H  H55  1  0.24175578  0.83878373  0.31882653  1
  H  H56  1  0.98757754  0.89938206  0.84809717  1
  H  H57  1  0.01242246  0.89938206  0.65190283  1
  H  H58  1  0.01242246  0.10061794  0.15190283  1
  H  H59  1  0.98757754  0.10061794  0.34809717  1
  H  H60  1  0.85508607  0.98758244  0.81273581  1
  H  H61  1  0.14491393  0.98758244  0.68726419  1
  H  H62  1  0.14491393  0.01241756  0.18726419  1
  H  H63  1  0.85508607  0.01241756  0.31273581  1
  S  S0  1  0.86501607  0.46207465  0.80416334  1
  S  S1  1  0.13498393  0.46207465  0.69583666  1
  S  S2  1  0.13498393  0.53792535  0.19583666  1
  S  S3  1  0.86501607  0.53792535  0.30416334  1
  S  S4  1  0.12295724  0.71685355  0.86587469  1
  S  S5  1  0.87704276  0.71685355  0.63412531  1
  S  S6  1  0.87704276  0.28314645  0.13412531  1
  S  S7  1  0.12295724  0.28314645  0.36587469  1
  S  S8  1  0.35963879  0.95985755  0.80362289  1
  S  S9  1  0.64036121  0.95985755  0.69637711  1
  S  S10  1  0.64036121  0.04014245  0.19637711  1
  S  S11  1  0.35963879  0.04014245  0.30362289  1
  S  S12  1  0.63114989  0.20737092  0.86354287  1
  S  S13  1  0.36885011  0.20737092  0.63645713  1
  S  S14  1  0.36885011  0.79262908  0.13645713  1
  S  S15  1  0.63114989  0.79262908  0.36354287  1
  O  O0  1  0.55759095  0.52578463  0.16005823  1
  O  O1  1  0.44240905  0.52578463  0.33994177  1
  O  O2  1  0.44240905  0.47421537  0.83994177  1
  O  O3  1  0.55759095  0.47421537  0.66005823  1
  O  O4  1  0.29058926  0.48927721  -0.00017497  1
  O  O5  1  0.70941074  0.48927721  0.50017497  1
  O  O6  1  0.70941074  0.51072279  0.00017497  1
  O  O7  1  0.29058926  0.51072279  0.49982503  1
  O  O8  1  0.48485481  0.27820993  0.01731629  1
  O  O9  1  0.51514519  0.27820993  0.48268371  1
  O  O10  1  0.51514519  0.72179007  0.98268371  1
  O  O11  1  0.48485481  0.72179007  0.51731629  1
  O  O12  1  0.33828405  0.29607388  0.17133999  1
  O  O13  1  0.66171595  0.29607388  0.32866001  1
  O  O14  1  0.66171595  0.70392612  0.82866001  1
  O  O15  1  0.33828405  0.70392612  0.67133999  1
  O  O16  1  0.05615228  0.28087396  0.98581555  1
  O  O17  1  0.94384772  0.28087396  0.51418445  1
  O  O18  1  0.94384772  0.71912604  0.01418445  1
  O  O19  1  0.05615228  0.71912604  0.48581555  1
  O  O20  1  0.25845185  0.05523261  0.99831487  1
  O  O21  1  0.74154815  0.05523261  0.50168513  1
  O  O22  1  0.74154815  0.94476739  0.00168513  1
  O  O23  1  0.25845185  0.94476739  0.49831487  1
  O  O24  1  0.18824847  0.22345555  0.84601479  1
  O  O25  1  0.81175153  0.22345555  0.65398521  1
  O  O26  1  0.81175153  0.77654445  0.15398521  1
  O  O27  1  0.18824847  0.77654445  0.34601479  1
  O  O28  1  0.94582582  0.98368433  0.86069771  1
  O  O29  1  0.05417418  0.98368433  0.63930229  1
  O  O30  1  0.05417418  0.01631567  0.13930229  1
  O  O31  1  0.94582582  0.01631567  0.36069771  1
loop_
_geom_bond_atom_site_label_1
_geom_bond_atom_site_label_2
_geom_bond_distance
_geom_bond_site_symmetry_2
Li0 O4 2.150088 1_555
Li0 O6 2.150088 1_555
Li0 O2 2.230677 1_554
Li0 O0 2.230677 1_555
Li0 O10 2.258874 1_554
Li0 O8 2.258874 1_555
Li1 O7 2.150088 1_555
Li1 O5 2.150088 1_555
Li1 O3 2.230677 1_555
Li1 O1 2.230677 1_555
Li1 O11 2.258874 1_555
Li1 O9 2.258874 1_555
Li2 O8 2.071648 1_555
Li2 O4 2.136277 1_555
Li2 O16 2.216193 1_554
Li2 O20 2.253854 1_554
Li2 O12 2.283306 1_555
Li2 O24 2.305096 1_554
Li3 O9 2.071648 1_555
Li3 O5 2.136277 1_555
Li3 O17 2.216193 1_555
Li3 O21 2.253854 1_555
Li3 O13 2.283306 1_555
Li3 O25 2.305096 1_555
Li4 O10 2.071648 1_555
Li4 O6 2.136277 1_556
Li4 O18 2.216193 1_556
Li4 O22 2.253854 1_556
Li4 O14 2.283306 1_555
Li4 O26 2.305096 1_556
Li5 O11 2.071648 1_555
Li5 O7 2.136277 1_555
Li5 O19 2.216193 1_555
Li5 O23 2.253854 1_555
Li5 O15 2.283306 1_555
Li5 O27 2.305096 1_555
Li6 O12 2.010619 1_555
Li6 O13 2.010619 1_555
Li6 O1 2.022092 1_555
Li6 O0 2.022092 1_555
Li7 O15 2.010619 1_555
Li7 O14 2.010619 1_555
Li7 O2 2.022092 1_555
Li7 O3 2.022092 1_555
Li8 O28 1.913781 1_445
Li8 O16 1.962155 1_555
Li8 O20 2.005791 1_555
Li8 O24 2.028301 1_555
Li9 O29 1.913781 1_645
Li9 O17 1.962155 1_555
Li9 O21 2.005791 1_555
Li9 O25 2.028301 1_555
Li10 O30 1.913781 1_665
Li10 O18 1.962155 1_555
Li10 O22 2.005791 1_555
Li10 O26 2.028301 1_555
Li11 O31 1.913781 1_465
Li11 O19 1.962155 1_555
Li11 O23 2.005791 1_555
Li11 O27 2.028301 1_555
As0 S5 2.177574 1_455
As0 S4 2.177574 1_555
As0 S1 2.209438 1_555
As0 S0 2.209438 1_455
As1 S7 2.177574 1_555
As1 S6 2.177574 1_455
As1 S3 2.209438 1_455
As1 S2 2.209438 1_555
As2 S13 2.181866 1_555
As2 S12 2.181866 1_555
As2 S8 2.211265 1_545
As2 S9 2.211265 1_545
As3 S15 2.181866 1_555
As3 S14 2.181866 1_555
As3 S11 2.211265 1_565
As3 S10 2.211265 1_565
H0 O0 0.994099 1_555
H1 O1 0.994099 1_555
H2 O2 0.994099 1_555
H3 O3 0.994099 1_555
H4 O0 0.995027 1_555
H5 O1 0.995027 1_555
H6 O2 0.995027 1_555
H7 O3 0.995027 1_555
H8 O4 0.975107 1_555
H9 O5 0.975107 1_555
H10 O6 0.975107 1_556
H11 O7 0.975107 1_555
H12 O4 1.001415 1_556
H13 O5 1.001415 1_555
H14 O6 1.001415 1_555
H15 O7 1.001415 1_555
H16 O8 0.981153 1_555
H17 O9 0.981153 1_555
H18 O10 0.981153 1_555
H19 O11 0.981153 1_555
H20 O8 1.000365 1_556
H21 O9 1.000365 1_555
H22 O10 1.000365 1_554
H23 O11 1.000365 1_555
H24 O12 0.991177 1_555
H25 O13 0.991177 1_555
H26 O14 0.991177 1_555
H27 O15 0.991177 1_555
H28 O12 1.001018 1_555
H29 O13 1.001018 1_555
H30 O14 1.001018 1_555
H31 O15 1.001018 1_555
H32 O16 0.989647 1_555
H33 O17 0.989647 1_555
H34 O18 0.989647 1_555
H35 O19 0.989647 1_555
H36 O16 0.996455 1_554
H37 O17 0.996455 1_555
H38 O18 0.996455 1_556
H39 O19 0.996455 1_555
H40 O20 0.985925 1_555
H41 O21 0.985925 1_555
H42 O22 0.985925 1_555
H43 O23 0.985925 1_555
H44 O20 0.987652 1_564
H45 O21 0.987652 1_565
H46 O22 0.987652 1_546
H47 O23 0.987652 1_545
H48 O24 0.994815 1_555
H49 O25 0.994815 1_555
H50 O26 0.994815 1_555
H51 O27 0.994815 1_555
H52 O24 0.988142 1_555
H53 O25 0.988142 1_555
H54 O26 0.988142 1_555
H55 O27 0.988142 1_555
H56 O28 0.991963 1_555
H57 O29 0.991963 1_555
H58 O30 0.991963 1_555
H59 O31 0.991963 1_555
H60 O28 0.984484 1_555
H61 O29 0.984484 1_555
H62 O30 0.984484 1_555
H63 O31 0.984484 1_555
