# generated using pymatgen
data_Th3P4
_symmetry_space_group_name_H-M   'P 1'
_cell_length_a   7.51062591
_cell_length_b   7.51062614
_cell_length_c   7.51062597
_cell_angle_alpha   109.47122017
_cell_angle_beta   109.47122079
_cell_angle_gamma   109.47121989
_symmetry_Int_Tables_number   1
_chemical_formula_structural   Th3P4
_chemical_formula_sum   'Th6 P8'
_cell_volume   326.14184610
_cell_formula_units_Z   2
loop_
 _symmetry_equiv_pos_site_id
 _symmetry_equiv_pos_as_xyz
  1  'x, y, z'
loop_
 _atom_site_type_symbol
 _atom_site_label
 _atom_site_symmetry_multiplicity
 _atom_site_fract_x
 _atom_site_fract_y
 _atom_site_fract_z
 _atom_site_occupancy
  Th  Th0  1  0.25000000  0.62500000  0.37500000  1
  Th  Th1  1  0.37500000  0.25000000  0.62500000  1
  Th  Th2  1  0.12500000  0.75000000  0.87500000  1
  Th  Th3  1  0.87500000  0.12500000  0.75000000  1
  Th  Th4  1  0.62500000  0.37500000  0.25000000  1
  Th  Th5  1  0.75000000  0.87500000  0.12500000  1
  P  P0  1  0.15633559  0.15633559  0.15633559  1
  P  P1  1  0.84366441  0.50000000  -0.00000000  1
  P  P2  1  0.00000000  0.84366441  0.50000000  1
  P  P3  1  0.50000000  -0.00000000  0.84366441  1
  P  P4  1  0.00000000  0.34366441  0.50000000  1
  P  P5  1  0.50000000  -0.00000000  0.34366441  1
  P  P6  1  0.34366441  0.50000000  -0.00000000  1
  P  P7  1  0.65633559  0.65633559  0.65633559  1
loop_
_geom_bond_atom_site_label_1
_geom_bond_atom_site_label_2
_geom_bond_distance
_geom_bond_site_symmetry_2
P0 Th3 2.953724 1_454
P0 Th5 2.953724 1_445
P0 Th2 2.953724 1_544
P0 Th1 3.050780 1_555
P0 Th4 3.050780 1_555
P0 Th0 3.050780 1_555
P1 Th0 2.953724 1_655
P1 Th2 2.953724 1_654
P1 Th3 2.953724 1_554
P1 Th4 3.050780 1_555
P1 Th1 3.050780 1_554
P1 Th5 3.050780 1_555
P2 Th5 2.953724 1_455
P2 Th3 2.953724 1_465
P2 Th1 2.953724 1_565
P2 Th2 3.050780 1_555
P2 Th0 3.050780 1_555
P2 Th4 3.050780 1_455
P3 Th5 2.953724 1_546
P3 Th2 2.953724 1_545
P3 Th4 2.953724 1_556
P3 Th3 3.050780 1_555
P3 Th1 3.050780 1_555
P3 Th0 3.050780 1_545
P4 Th4 2.953724 1_455
P4 Th0 2.953724 1_555
P4 Th2 2.953724 1_555
P4 Th1 3.050780 1_555
P4 Th3 3.050780 1_455
P4 Th5 3.050780 1_445
P5 Th3 2.953724 1_555
P5 Th1 2.953724 1_555
P5 Th0 2.953724 1_545
P5 Th5 3.050780 1_545
P5 Th2 3.050780 1_544
P5 Th4 3.050780 1_555
P6 Th4 2.953724 1_555
P6 Th1 2.953724 1_554
P6 Th5 2.953724 1_555
P6 Th0 3.050780 1_555
P6 Th2 3.050780 1_554
P6 Th3 3.050780 1_454
P7 Th0 2.953724 1_555
P7 Th4 2.953724 1_555
P7 Th1 2.953724 1_555
P7 Th2 3.050780 1_655
P7 Th5 3.050780 1_556
P7 Th3 3.050780 1_565
