# generated using pymatgen
data_Li9Mn2Co5O16
_symmetry_space_group_name_H-M   'P 1'
_cell_length_a   2.92362000
_cell_length_b   5.10861200
_cell_length_c   19.40131973
_cell_angle_alpha   85.29407131
_cell_angle_beta   90.00000000
_cell_angle_gamma   90.00000000
_symmetry_Int_Tables_number   1
_chemical_formula_structural   Li9Mn2Co5O16
_chemical_formula_sum   'Li9 Mn2 Co5 O16'
_cell_volume   288.79428461
_cell_formula_units_Z   1
loop_
 _symmetry_equiv_pos_site_id
 _symmetry_equiv_pos_as_xyz
  1  'x, y, z'
loop_
 _atom_site_type_symbol
 _atom_site_label
 _atom_site_symmetry_multiplicity
 _atom_site_fract_x
 _atom_site_fract_y
 _atom_site_fract_z
 _atom_site_occupancy
  Li  Li0  1  0.50000000  0.86551200  0.86597700  1
  Li  Li1  1  0.50000000  0.62681700  0.63513800  1
  Li  Li2  1  0.50000000  0.38029500  0.37188700  1
  Li  Li3  1  0.50000000  0.12733200  0.12718100  1
  Li  Li4  1  0.00000000  0.37293400  0.86605800  1
  Li  Li5  1  0.00000000  0.13326500  0.63323100  1
  Li  Li6  1  0.00000000  0.86988900  0.37115700  1
  Li  Li7  1  0.00000000  0.62137800  0.12940900  1
  Li  Li8  1  0.00000000  0.75048100  0.74962700  1
  Mn  Mn0  1  0.00000000  0.99823000  0.99867000  1
  Mn  Mn1  1  0.50000000  0.00114700  0.50156500  1
  Co  Co0  1  0.00000000  0.50173800  0.50129200  1
  Co  Co1  1  0.00000000  0.24923900  0.25038000  1
  Co  Co2  1  0.50000000  0.49884500  0.99828200  1
  Co  Co3  1  0.50000000  0.24974000  0.74989100  1
  Co  Co4  1  0.50000000  0.75031200  0.25012200  1
  O  O0  1  0.50000000  0.15447000  0.94293700  1
  O  O1  1  0.50000000  0.98131100  0.69466700  1
  O  O2  1  0.50000000  0.67185800  0.44295700  1
  O  O3  1  0.50000000  0.43287200  0.19057300  1
  O  O4  1  0.00000000  0.69739700  0.94300200  1
  O  O5  1  0.00000000  0.42479400  0.69445300  1
  O  O6  1  0.00000000  0.17292700  0.44574700  1
  O  O7  1  0.00000000  0.94098100  0.19178200  1
  O  O8  1  0.50000000  0.51938900  0.80540500  1
  O  O9  1  0.50000000  0.33431900  0.55834800  1
  O  O10  1  0.50000000  0.06822100  0.30966700  1
  O  O11  1  0.50000000  0.83935000  0.05567000  1
  O  O12  1  0.00000000  0.07667800  0.80522200  1
  O  O13  1  0.00000000  0.82881500  0.55747300  1
  O  O14  1  0.00000000  0.55822900  0.30878800  1
  O  O15  1  0.00000000  0.30123600  0.05344200  1
loop_
_geom_bond_atom_site_label_1
_geom_bond_atom_site_label_2
_geom_bond_distance
_geom_bond_site_symmetry_2
Li0 O12 2.116926 1_665
Li0 O12 2.116926 1_565
Li0 O0 2.184073 1_565
Li0 O8 2.201944 1_555
Li0 O4 2.212936 1_655
Li0 O4 2.212936 1_555
Li1 O5 2.081218 1_555
Li1 O5 2.081218 1_655
Li1 O9 2.194920 1_555
Li1 O1 2.226365 1_555
Li1 O13 2.284095 1_555
Li1 O13 2.284095 1_655
Li2 O14 2.068634 1_555
Li2 O14 2.068634 1_655
Li2 O10 2.077179 1_555
Li2 O2 2.111109 1_555
Li2 O6 2.250219 1_555
Li2 O6 2.250219 1_655
Li3 O3 2.064941 1_555
Li3 O7 2.101969 1_645
Li3 O7 2.101969 1_545
Li3 O11 2.103381 1_545
Li3 O15 2.182733 1_555
Li3 O15 2.182733 1_655
Li4 O8 1.984172 1_455
Li4 O8 1.984172 1_555
Li4 O12 1.994183 1_555
Li4 O0 2.309555 1_555
Li4 O0 2.309555 1_455
Li4 O4 2.319914 1_555
Li5 O5 1.979682 1_555
Li5 O1 2.002096 1_545
Li5 O1 2.002096 1_445
Li5 O13 2.225856 1_545
Li5 O9 2.248934 1_555
Li5 O9 2.248934 1_455
Li6 O14 2.077320 1_555
Li6 O10 2.094839 1_565
Li6 O10 2.094839 1_465
Li6 O6 2.204190 1_565
Li6 O2 2.206718 1_555
Li6 O2 2.206718 1_455
Li7 O3 2.070006 1_455
Li7 O3 2.070006 1_555
Li7 O7 2.110541 1_555
Li7 O11 2.272040 1_455
Li7 O11 2.272040 1_555
Li7 O15 2.289668 1_555
Li8 O5 2.050940 1_555
Li8 O12 2.057978 1_565
Li8 O1 2.111426 1_455
Li8 O1 2.111426 1_555
Li8 O8 2.119450 1_555
Li8 O8 2.119450 1_455
Mn0 O15 1.948139 1_566
Mn0 O4 1.949537 1_555
Mn0 O0 1.949755 1_465
Mn0 O0 1.949755 1_565
Mn0 O11 1.967576 1_556
Mn0 O11 1.967576 1_456
Mn1 O6 1.980865 1_655
Mn1 O6 1.980865 1_555
Mn1 O13 1.982880 1_545
Mn1 O13 1.982880 1_645
Mn1 O9 2.101975 1_555
Mn1 O2 2.106329 1_545
Co0 O9 1.984542 1_555
Co0 O9 1.984542 1_455
Co0 O2 2.002925 1_555
Co0 O2 2.002925 1_455
Co0 O13 2.068537 1_555
Co0 O6 2.068807 1_555
Co1 O7 2.016471 1_545
Co1 O14 2.017256 1_555
Co1 O10 2.034843 1_455
Co1 O10 2.034843 1_555
Co1 O3 2.045656 1_455
Co1 O3 2.045656 1_555
Co2 O15 2.030765 1_656
Co2 O15 2.030765 1_556
Co2 O4 2.034087 1_555
Co2 O4 2.034087 1_655
Co2 O0 2.134946 1_555
Co2 O11 2.140875 1_556
Co3 O1 1.808170 1_545
Co3 O8 1.816883 1_555
Co3 O12 1.978685 1_655
Co3 O12 1.978685 1_555
Co3 O5 1.983849 1_555
Co3 O5 1.983849 1_655
Co4 O7 2.045948 1_555
Co4 O7 2.045948 1_655
Co4 O14 2.052322 1_555
Co4 O14 2.052322 1_655
Co4 O3 2.066893 1_555
Co4 O10 2.068835 1_565
