# generated using pymatgen
data_Y2Th8O19
_symmetry_space_group_name_H-M   'P 1'
_cell_length_a   3.78198200
_cell_length_b   4.05227800
_cell_length_c   27.52147900
_cell_angle_alpha   90.00000000
_cell_angle_beta   90.00000000
_cell_angle_gamma   90.00000000
_symmetry_Int_Tables_number   1
_chemical_formula_structural   Y2Th8O19
_chemical_formula_sum   'Y2 Th8 O19'
_cell_volume   421.78434699
_cell_formula_units_Z   1
loop_
 _symmetry_equiv_pos_site_id
 _symmetry_equiv_pos_as_xyz
  1  'x, y, z'
loop_
 _atom_site_type_symbol
 _atom_site_label
 _atom_site_symmetry_multiplicity
 _atom_site_fract_x
 _atom_site_fract_y
 _atom_site_fract_z
 _atom_site_occupancy
  Y  Y0  1  0.00000000  0.50000000  0.00541000  1
  Y  Y1  1  0.50000000  0.00000000  0.89532000  1
  Th  Th0  1  0.00000000  0.50000000  0.80119400  1
  Th  Th1  1  0.50000000  0.00000000  0.70110300  1
  Th  Th2  1  0.00000000  0.50000000  0.60024300  1
  Th  Th3  1  0.50000000  0.00000000  0.49991000  1
  Th  Th4  1  0.00000000  0.50000000  0.39957900  1
  Th  Th5  1  0.50000000  0.00000000  0.29902400  1
  Th  Th6  1  0.00000000  0.50000000  0.19862900  1
  Th  Th7  1  0.50000000  0.00000000  0.09595500  1
  O  O0  1  0.00000000  0.00000000  0.75142700  1
  O  O1  1  0.50000000  0.50000000  0.64955500  1
  O  O2  1  0.00000000  0.00000000  0.54956000  1
  O  O3  1  0.50000000  0.50000000  0.44917100  1
  O  O4  1  0.00000000  0.00000000  0.34856200  1
  O  O5  1  0.50000000  0.50000000  0.24873300  1
  O  O6  1  0.00000000  0.00000000  0.14506200  1
  O  O7  1  0.50000000  0.50000000  0.04991800  1
  O  O8  1  0.50000000  0.50000000  0.15080900  1
  O  O9  1  0.00000000  0.00000000  0.04384200  1
  O  O10  1  0.50000000  0.50000000  0.95338400  1
  O  O11  1  0.50000000  0.50000000  0.84898700  1
  O  O12  1  0.00000000  0.00000000  0.85752400  1
  O  O13  1  0.50000000  0.50000000  0.75167900  1
  O  O14  1  0.00000000  0.00000000  0.65266000  1
  O  O15  1  0.50000000  0.50000000  0.55158700  1
  O  O16  1  0.00000000  0.00000000  0.45133900  1
  O  O17  1  0.50000000  0.50000000  0.35113400  1
  O  O18  1  0.00000000  0.00000000  0.25014500  1
loop_
_geom_bond_atom_site_label_1
_geom_bond_atom_site_label_2
_geom_bond_distance
_geom_bond_site_symmetry_2
O0 Th1 2.343938 1_555
O0 Th1 2.343938 1_455
O0 Th0 2.445652 1_555
O0 Th0 2.445652 1_545
O1 Th2 2.327590 1_555
O1 Th2 2.327590 1_655
O1 Th1 2.473436 1_565
O1 Th1 2.473436 1_555
O2 Th3 2.333026 1_455
O2 Th3 2.333026 1_555
O2 Th2 2.459859 1_545
O2 Th2 2.459859 1_555
O3 Th4 2.332091 1_555
O3 Th4 2.332091 1_655
O3 Th3 2.460733 1_565
O3 Th3 2.460733 1_555
O4 Th5 2.331222 1_555
O4 Th5 2.331222 1_455
O4 Th4 2.465083 1_555
O4 Th4 2.465083 1_545
O5 Th6 2.340366 1_555
O5 Th6 2.340366 1_655
O5 Th5 2.453757 1_565
O5 Th5 2.453757 1_555
O6 Th7 2.324305 1_555
O6 Th7 2.324305 1_455
O6 Th6 2.505720 1_555
O6 Th6 2.505720 1_545
O7 Y0 2.253063 1_655
O7 Y0 2.253063 1_555
O7 Th7 2.389675 1_565
O7 Th7 2.389675 1_555
O8 Th6 2.303889 1_555
O8 Th6 2.303889 1_655
O8 Th7 2.526722 1_555
O8 Th7 2.526722 1_565
O9 Y0 2.285603 1_545
O9 Y0 2.285603 1_555
O9 Th7 2.373363 1_455
O9 Th7 2.373363 1_555
O10 Y0 2.371917 1_656
O10 Y0 2.371917 1_556
O10 Y1 2.580478 1_555
O10 Y1 2.580478 1_565
O11 Th0 2.303465 1_655
O11 Th0 2.303465 1_555
O11 Y1 2.394004 1_555
O11 Y1 2.394004 1_565
O12 Y1 2.158209 1_555
O12 Y1 2.158209 1_455
O12 Th0 2.551200 1_555
O12 Th0 2.551200 1_545
O13 Th0 2.330852 1_655
O13 Th0 2.330852 1_555
O13 Th1 2.458190 1_555
O13 Th1 2.458190 1_565
O14 Th1 2.313727 1_455
O14 Th1 2.313727 1_555
O14 Th2 2.487230 1_555
O14 Th2 2.487230 1_545
O15 Th2 2.317109 1_655
O15 Th2 2.317109 1_555
O15 Th3 2.475474 1_555
O15 Th3 2.475474 1_565
O16 Th3 2.315758 1_455
O16 Th3 2.315758 1_555
O16 Th4 2.476787 1_545
O16 Th4 2.476787 1_555
O17 Th4 2.313758 1_555
O17 Th4 2.313758 1_655
O17 Th5 2.482339 1_565
O17 Th5 2.482339 1_555
O18 Th5 2.320662 1_455
O18 Th5 2.320662 1_555
O18 Th6 2.472931 1_545
O18 Th6 2.472931 1_555
