# generated using pymatgen
data_K3Nd(PO4)2
_symmetry_space_group_name_H-M   'P 1'
_cell_length_a   5.74439800
_cell_length_b   7.57874500
_cell_length_c   9.64281200
_cell_angle_alpha   88.98166235
_cell_angle_beta   90.00000000
_cell_angle_gamma   90.00000000
_symmetry_Int_Tables_number   1
_chemical_formula_structural   K3Nd(PO4)2
_chemical_formula_sum   'K6 Nd2 P4 O16'
_cell_volume   419.73667530
_cell_formula_units_Z   2
loop_
 _symmetry_equiv_pos_site_id
 _symmetry_equiv_pos_as_xyz
  1  'x, y, z'
loop_
 _atom_site_type_symbol
 _atom_site_label
 _atom_site_symmetry_multiplicity
 _atom_site_fract_x
 _atom_site_fract_y
 _atom_site_fract_z
 _atom_site_occupancy
  K  K0  1  0.75000000  0.64133100  0.09133600  1
  K  K1  1  0.25000000  0.50502600  0.30949800  1
  K  K2  1  0.75000000  0.20361200  0.41647700  1
  K  K3  1  0.25000000  0.35866900  0.90866400  1
  K  K4  1  0.25000000  0.79638800  0.58352300  1
  K  K5  1  0.75000000  0.49497400  0.69050200  1
  Nd  Nd0  1  0.75000000  0.99503700  0.79048400  1
  Nd  Nd1  1  0.25000000  0.00496300  0.20951600  1
  P  P0  1  0.75000000  0.76668200  0.41328100  1
  P  P1  1  0.25000000  0.23331800  0.58671900  1
  P  P2  1  0.75000000  0.19226300  0.07308500  1
  P  P3  1  0.25000000  0.80773700  0.92691500  1
  O  O0  1  0.97154600  0.24597300  0.15575600  1
  O  O1  1  0.47154600  0.75402700  0.84424400  1
  O  O2  1  0.02845400  0.75402700  0.84424400  1
  O  O3  1  0.52845400  0.24597300  0.15575600  1
  O  O4  1  0.97136400  0.84533300  0.34024200  1
  O  O5  1  0.47136400  0.15466700  0.65975800  1
  O  O6  1  0.02863600  0.15466700  0.65975800  1
  O  O7  1  0.52863600  0.84533300  0.34024200  1
  O  O8  1  0.75000000  0.99005900  0.04838800  1
  O  O9  1  0.25000000  0.00994100  0.95161200  1
  O  O10  1  0.75000000  0.28352300  0.92624600  1
  O  O11  1  0.25000000  0.71647700  0.07375400  1
  O  O12  1  0.25000000  0.17812900  0.43146100  1
  O  O13  1  0.75000000  0.82187100  0.56853900  1
  O  O14  1  0.25000000  0.43532400  0.60052900  1
  O  O15  1  0.75000000  0.56467600  0.39947100  1
loop_
_geom_bond_atom_site_label_1
_geom_bond_atom_site_label_2
_geom_bond_distance
_geom_bond_site_symmetry_2
K0 O8 2.667890 1_555
K0 O11 2.932436 1_655
K0 O11 2.932436 1_555
K0 O2 2.982077 1_654
K0 O1 2.982077 1_554
K0 O15 3.017399 1_555
K0 O4 3.146422 1_555
K0 O7 3.146422 1_555
K0 O10 3.168785 1_554
K0 O0 3.304129 1_555
K0 O3 3.304129 1_555
K1 O12 2.723494 1_555
K1 O11 2.757938 1_555
K1 O14 2.846401 1_555
K1 O3 2.952012 1_555
K1 O0 2.952012 1_455
K1 O15 3.036537 1_455
K1 O15 3.036537 1_555
K1 O4 3.054297 1_455
K1 O7 3.054297 1_555
K2 O15 2.738410 1_555
K2 O0 2.831012 1_555
K2 O3 2.831012 1_555
K2 O6 2.858650 1_655
K2 O5 2.858650 1_555
K2 O12 2.882137 1_555
K2 O12 2.882137 1_655
K2 O7 3.098582 1_545
K2 O4 3.098582 1_545
K2 O13 3.220154 1_545
K3 O9 2.667890 1_555
K3 O10 2.932436 1_455
K3 O10 2.932436 1_555
K3 O3 2.982077 1_556
K3 O0 2.982077 1_456
K3 O14 3.017399 1_555
K3 O5 3.146422 1_555
K3 O6 3.146422 1_555
K3 O11 3.168785 1_556
K3 O1 3.304129 1_555
K3 O2 3.304129 1_555
K4 O14 2.738410 1_555
K4 O1 2.831012 1_555
K4 O2 2.831012 1_555
K4 O4 2.858650 1_455
K4 O7 2.858650 1_555
K4 O13 2.882137 1_455
K4 O13 2.882137 1_555
K4 O5 3.098582 1_565
K4 O6 3.098582 1_565
K4 O12 3.220154 1_565
K5 O13 2.723494 1_555
K5 O10 2.757938 1_555
K5 O15 2.846401 1_555
K5 O2 2.952012 1_655
K5 O1 2.952012 1_555
K5 O14 3.036537 1_555
K5 O14 3.036537 1_655
K5 O6 3.054297 1_655
K5 O5 3.054297 1_555
Nd0 O6 2.358036 1_665
Nd0 O5 2.358036 1_565
Nd0 O2 2.475871 1_655
Nd0 O1 2.475871 1_555
Nd0 O8 2.486535 1_556
Nd0 O13 2.530321 1_555
Nd0 O10 2.568215 1_565
Nd1 O4 2.358036 1_445
Nd1 O7 2.358036 1_545
Nd1 O3 2.475871 1_555
Nd1 O0 2.475871 1_455
Nd1 O9 2.486535 1_554
Nd1 O12 2.530321 1_555
Nd1 O11 2.568215 1_545
O0 P2 1.559602 1_555
O1 P3 1.559602 1_555
O2 P3 1.559602 1_555
O3 P2 1.559602 1_555
O4 P0 1.566333 1_555
O5 P1 1.566333 1_555
O6 P1 1.566333 1_555
O7 P0 1.566333 1_555
O8 P2 1.555023 1_565
O9 P3 1.555023 1_545
O10 P2 1.564749 1_556
O11 P3 1.564749 1_554
O12 P1 1.561596 1_555
O13 P0 1.561596 1_555
O14 P1 1.539089 1_555
O15 P0 1.539089 1_555
