# generated using pymatgen
data_SrMgCu(PO4)2
_symmetry_space_group_name_H-M   'P 1'
_cell_length_a   5.65254025
_cell_length_b   6.75173698
_cell_length_c   9.22978960
_cell_angle_alpha   109.18844740
_cell_angle_beta   102.23291559
_cell_angle_gamma   99.40555887
_symmetry_Int_Tables_number   1
_chemical_formula_structural   SrMgCu(PO4)2
_chemical_formula_sum   'Sr2 Mg2 Cu2 P4 O16'
_cell_volume   314.59049043
_cell_formula_units_Z   2
loop_
 _symmetry_equiv_pos_site_id
 _symmetry_equiv_pos_as_xyz
  1  'x, y, z'
loop_
 _atom_site_type_symbol
 _atom_site_label
 _atom_site_symmetry_multiplicity
 _atom_site_fract_x
 _atom_site_fract_y
 _atom_site_fract_z
 _atom_site_occupancy
  Sr  Sr0  1  0.26034100  0.80406500  0.05967700  1
  Sr  Sr1  1  0.73965900  0.19593500  0.94032300  1
  Mg  Mg0  1  0.98955400  0.40204700  0.64801400  1
  Mg  Mg1  1  0.01044600  0.59795300  0.35198600  1
  Cu  Cu0  1  0.64336300  0.84993800  0.54682900  1
  Cu  Cu1  1  0.35663700  0.15006200  0.45317100  1
  P  P0  1  0.39637900  0.42760100  0.24242100  1
  P  P1  1  0.60362100  0.57239900  0.75757900  1
  P  P2  1  0.84176600  0.02741900  0.30112100  1
  P  P3  1  0.15823400  0.97258100  0.69887900  1
  O  O0  1  0.82712300  0.55392600  0.88020100  1
  O  O1  1  0.65117500  0.47782400  0.20870400  1
  O  O2  1  0.65733100  0.80069100  0.75036700  1
  O  O3  1  0.94786800  0.10147300  0.68053600  1
  O  O4  1  0.34882500  0.52217600  0.79129600  1
  O  O5  1  0.03706400  0.73047700  0.58834200  1
  O  O6  1  0.96293600  0.26952300  0.41165800  1
  O  O7  1  0.26017600  0.00671500  0.87458400  1
  O  O8  1  0.34266900  0.19930900  0.24963300  1
  O  O9  1  0.73982400  0.99328500  0.12541600  1
  O  O10  1  0.17287700  0.44607400  0.11979900  1
  O  O11  1  0.38160400  0.59446800  0.40422400  1
  O  O12  1  0.61839600  0.40553200  0.59577600  1
  O  O13  1  0.62308600  0.92933600  0.35565200  1
  O  O14  1  0.05213200  0.89852700  0.31946400  1
  O  O15  1  0.37691400  0.07066400  0.64434800  1
loop_
_geom_bond_atom_site_label_1
_geom_bond_atom_site_label_2
_geom_bond_distance
_geom_bond_site_symmetry_2
Mg0 O6 2.028804 1_555
Mg0 O4 2.036991 1_655
Mg0 O12 2.056573 1_555
Mg0 O3 2.130303 1_555
Mg0 O5 2.442029 1_655
Mg0 O0 2.486789 1_555
Mg1 O5 2.028804 1_555
Mg1 O1 2.036991 1_455
Mg1 O11 2.056573 1_555
Mg1 O14 2.130303 1_555
Mg1 O6 2.442029 1_455
Mg1 O10 2.486789 1_555
Cu0 O11 1.935200 1_555
Cu0 O13 1.992544 1_555
Cu0 O2 2.000578 1_555
Cu0 O3 2.033846 1_565
Cu0 O15 2.392864 1_565
Cu0 O5 2.485617 1_655
Cu1 O12 1.935200 1_555
Cu1 O15 1.992544 1_555
Cu1 O8 2.000578 1_555
Cu1 O14 2.033846 1_545
Cu1 O13 2.392864 1_545
Cu1 O6 2.485617 1_455
O0 P1 1.559136 1_555
O0 Sr0 2.585172 1_656
O0 Sr1 2.646112 1_555
O1 P0 1.544609 1_555
O1 Sr1 2.783086 1_554
O2 P1 1.547733 1_555
O2 Sr1 2.566046 1_565
O3 P3 1.596782 1_645
O3 Sr1 2.824389 1_555
O4 P1 1.544609 1_555
O4 Sr0 2.783086 1_556
O5 P3 1.556812 1_555
O6 P2 1.556812 1_555
O7 P3 1.526445 1_545
O7 Sr0 2.515329 1_546
O7 Sr1 2.647237 1_555
O8 P0 1.547733 1_555
O8 Sr0 2.566046 1_545
O9 P2 1.526445 1_565
O9 Sr1 2.515329 1_564
O9 Sr0 2.647237 1_555
O10 P0 1.559136 1_555
O10 Sr1 2.585172 1_454
O10 Sr0 2.646112 1_555
O11 P0 1.576120 1_555
O12 P1 1.576120 1_555
O13 P2 1.560450 1_565
O13 Sr0 2.814772 1_555
O14 P2 1.596782 1_465
O14 Sr0 2.824389 1_555
O15 P3 1.560450 1_545
O15 Sr1 2.814772 1_555
