# generated using pymatgen
data_Ce7Rh3
_symmetry_space_group_name_H-M   'P 1'
_cell_length_a   6.13704800
_cell_length_b   9.81497144
_cell_length_c   9.81497144
_cell_angle_alpha   120.01082142
_cell_angle_beta   90.00000000
_cell_angle_gamma   90.00000000
_symmetry_Int_Tables_number   1
_chemical_formula_structural   Ce7Rh3
_chemical_formula_sum   'Ce14 Rh6'
_cell_volume   511.94212216
_cell_formula_units_Z   2
loop_
 _symmetry_equiv_pos_site_id
 _symmetry_equiv_pos_as_xyz
  1  'x, y, z'
loop_
 _atom_site_type_symbol
 _atom_site_label
 _atom_site_symmetry_multiplicity
 _atom_site_fract_x
 _atom_site_fract_y
 _atom_site_fract_z
 _atom_site_occupancy
  Ce  Ce0  1  0.44155200  0.33324600  0.66675400  1
  Ce  Ce1  1  0.94155200  0.66675400  0.33324600  1
  Ce  Ce2  1  0.24567800  0.12844500  0.87155500  1
  Ce  Ce3  1  0.24555700  0.74315300  0.87163200  1
  Ce  Ce4  1  0.24555700  0.12836800  0.25684700  1
  Ce  Ce5  1  0.74567800  0.87155500  0.12844500  1
  Ce  Ce6  1  0.74555700  0.25684700  0.12836800  1
  Ce  Ce7  1  0.74555700  0.87163200  0.74315300  1
  Ce  Ce8  1  0.45788800  0.53859000  0.46141000  1
  Ce  Ce9  1  0.45819000  0.92298300  0.46151600  1
  Ce  Ce10  1  0.45819000  0.53848400  0.07701700  1
  Ce  Ce11  1  0.95788800  0.46141000  0.53859000  1
  Ce  Ce12  1  0.95819000  0.07701700  0.53848400  1
  Ce  Ce13  1  0.95819000  0.46151600  0.92298300  1
  Rh  Rh0  1  0.20201800  0.81408700  0.18591300  1
  Rh  Rh1  1  0.20218500  0.37189900  0.18601100  1
  Rh  Rh2  1  0.20218500  0.81398900  0.62810100  1
  Rh  Rh3  1  0.70201800  0.18591300  0.81408700  1
  Rh  Rh4  1  0.70218500  0.62810100  0.81398900  1
  Rh  Rh5  1  0.70218500  0.18601100  0.37189900  1
loop_
_geom_bond_atom_site_label_1
_geom_bond_atom_site_label_2
_geom_bond_distance
_geom_bond_site_symmetry_2
Ce0 Rh3 2.971399 1_555
Ce0 Rh5 2.972960 1_555
Ce0 Rh4 2.972960 1_555
Ce1 Rh0 2.971399 1_655
Ce1 Rh2 2.972960 1_655
Ce1 Rh1 2.972960 1_655
Ce2 Rh1 2.815911 1_556
Ce2 Rh2 2.815911 1_545
Ce2 Rh3 2.966109 1_555
Ce2 Rh3 3.476574 1_455
Ce3 Rh0 2.814773 1_556
Ce3 Rh2 2.816007 1_555
Ce3 Rh4 2.968050 1_555
Ce3 Rh4 3.475110 1_455
Ce4 Rh0 2.814773 1_545
Ce4 Rh1 2.816007 1_555
Ce4 Rh5 2.968050 1_555
Ce4 Rh5 3.475110 1_455
Ce5 Rh5 2.815911 1_565
Ce5 Rh4 2.815911 1_554
Ce5 Rh0 2.966109 1_655
Ce5 Rh0 3.476574 1_555
Ce6 Rh3 2.814773 1_554
Ce6 Rh5 2.816007 1_555
Ce6 Rh1 2.968050 1_655
Ce6 Rh1 3.475110 1_555
Ce7 Rh3 2.814773 1_565
Ce7 Rh4 2.816007 1_555
Ce7 Rh2 2.968050 1_655
Ce7 Rh2 3.475110 1_555
Ce8 Rh2 2.832295 1_555
Ce8 Rh1 2.832295 1_555
Ce8 Rh5 3.457427 1_555
Ce8 Rh4 3.457427 1_555
Ce9 Rh2 2.834750 1_555
Ce9 Rh0 2.835327 1_555
Ce9 Rh3 3.455519 1_565
Ce9 Rh5 3.457185 1_565
Ce10 Rh1 2.834750 1_555
Ce10 Rh0 2.835327 1_555
Ce10 Rh3 3.455519 1_554
Ce10 Rh4 3.457185 1_554
Ce11 Rh5 2.832295 1_555
Ce11 Rh4 2.832295 1_555
Ce11 Rh2 3.457427 1_655
Ce11 Rh1 3.457427 1_655
Ce12 Rh5 2.834750 1_555
Ce12 Rh3 2.835327 1_555
Ce12 Rh0 3.455519 1_645
Ce12 Rh2 3.457185 1_645
Ce13 Rh4 2.834750 1_555
Ce13 Rh3 2.835327 1_555
Ce13 Rh0 3.455519 1_656
Ce13 Rh1 3.457185 1_656
