# generated using pymatgen
data_Ce2Ti2Fe22H
_symmetry_space_group_name_H-M   'P 1'
_cell_length_a   4.73194200
_cell_length_b   6.49671917
_cell_length_c   11.99202863
_cell_angle_alpha   90.35023591
_cell_angle_beta   90.00000000
_cell_angle_gamma   111.35708756
_symmetry_Int_Tables_number   1
_chemical_formula_structural   Ce2Ti2Fe22H
_chemical_formula_sum   'Ce2 Ti2 Fe22 H1'
_cell_volume   343.33640724
_cell_formula_units_Z   1
loop_
 _symmetry_equiv_pos_site_id
 _symmetry_equiv_pos_as_xyz
  1  'x, y, z'
loop_
 _atom_site_type_symbol
 _atom_site_label
 _atom_site_symmetry_multiplicity
 _atom_site_fract_x
 _atom_site_fract_y
 _atom_site_fract_z
 _atom_site_occupancy
  Ce  Ce0  1  0.00378600  0.00757200  0.00384100  1
  Ce  Ce1  1  0.50377600  0.00755300  0.50347100  1
  Ti  Ti0  1  0.31574800  0.63149600  0.31551700  1
  Ti  Ti1  1  0.81615900  0.63231800  0.81606100  1
  Fe  Fe0  1  0.38777300  0.77554500  0.11063200  1
  Fe  Fe1  1  0.88765600  0.77531300  0.61097400  1
  Fe  Fe2  1  0.11154800  0.22309600  0.38770900  1
  Fe  Fe3  1  0.61077000  0.22154000  0.88759700  1
  Fe  Fe4  1  0.88654800  0.77309500  0.38698700  1
  Fe  Fe5  1  0.38700700  0.77401400  0.88716800  1
  Fe  Fe6  1  0.61452300  0.22904500  0.11452900  1
  Fe  Fe7  1  0.11554400  0.23108800  0.61519300  1
  Fe  Fe8  1  0.25047500  0.00209700  0.25026700  1
  Fe  Fe9  1  0.75109300  0.00222400  0.74952300  1
  Fe  Fe10  1  0.75162200  0.00209700  0.25026700  1
  Fe  Fe11  1  0.25113100  0.00222400  0.74952300  1
  Fe  Fe12  1  0.00004800  0.49944800  0.00118200  1
  Fe  Fe13  1  0.50019300  0.49956100  0.50114100  1
  Fe  Fe14  1  0.49940000  0.49944800  0.00118200  1
  Fe  Fe15  1  0.99936800  0.49956100  0.50114100  1
  Fe  Fe16  1  0.67873500  0.35747100  0.32100500  1
  Fe  Fe17  1  0.17866100  0.35732200  0.82169800  1
  Fe  Fe18  1  0.82158700  0.64317300  0.17858300  1
  Fe  Fe19  1  0.32171400  0.64342900  0.67904600  1
  Fe  Fe20  1  0.17716900  0.35433700  0.17731700  1
  Fe  Fe21  1  0.67729800  0.35459600  0.67784700  1
  H  H0  1  0.50066900  0.00133800  0.00059900  1
loop_
_geom_bond_atom_site_label_1
_geom_bond_atom_site_label_2
_geom_bond_distance
_geom_bond_site_symmetry_2
Ce0 H0 2.366587 1_455
Ce0 H0 2.366587 1_555
Ce0 Fe17 3.051221 1_554
Ce0 Fe18 3.051733 1_445
Ce0 Fe10 3.182502 1_455
Ce0 Fe8 3.182502 1_555
Ce0 Ti1 3.187313 1_444
Ce0 Fe14 3.202417 1_555
Ce0 Fe12 3.202417 1_555
Ce0 Fe11 3.271182 1_554
Ce0 Fe9 3.271182 1_454
Ce0 Fe14 3.294698 1_445
Ce0 Fe12 3.294698 1_545
Ce1 Fe21 2.953703 1_555
Ce1 Fe7 3.032872 1_555
Ce1 Fe7 3.032876 1_655
Ce1 Fe2 3.041310 1_555
Ce1 Fe2 3.041314 1_655
Ce1 Fe1 3.042718 1_445
Ce1 Fe1 3.042718 1_545
Ce1 Fe16 3.054722 1_555
Ce1 Fe19 3.057441 1_545
Ce1 Fe4 3.087961 1_445
Ce1 Fe4 3.087968 1_545
Ce1 Fe11 3.179298 1_555
Ce1 Fe9 3.179300 1_555
Ce1 Ti0 3.192217 1_545
Ce1 Fe13 3.202944 1_555
Ce1 Fe15 3.202945 1_555
Ce1 Fe8 3.259686 1_555
Ce1 Fe10 3.259688 1_555
Ce1 Fe15 3.294090 1_445
Ce1 Fe13 3.294092 1_545
Fe0 H0 1.905581 1_565
Fe0 Fe14 2.424974 1_555
Fe0 Fe12 2.424976 1_555
Fe0 Fe10 2.461450 1_565
Fe0 Fe8 2.461452 1_565
Fe0 Ti0 2.612383 1_555
Fe0 Fe18 2.629046 1_555
Fe0 Fe18 2.629046 1_455
Fe1 Fe13 2.425810 1_555
Fe1 Fe15 2.425812 1_555
Fe1 Fe9 2.452594 1_565
Fe1 Fe11 2.452597 1_665
Fe1 Ti1 2.612509 1_555
Fe1 Fe19 2.628595 1_555
Fe1 Fe19 2.628595 1_655
Fe1 Fe21 2.673930 1_555
Fe1 Fe4 2.686004 1_555
Fe1 Fe7 2.757836 1_665
Fe2 Fe8 2.422547 1_555
Fe2 Ti0 2.623679 1_555
Fe2 Fe20 2.650006 1_555
Fe2 Fe4 2.722725 1_445
Fe2 Fe7 2.728106 1_555
Fe3 H0 1.906624 1_556
Fe3 Fe9 2.423413 1_555
Fe3 Ti1 2.634646 1_555
Fe4 Fe8 2.455780 1_665
Fe4 Ti0 2.656458 1_655
Fe4 Ti0 2.656462 1_555
Fe5 H0 1.928111 1_566
Fe5 Fe9 2.461788 1_565
Fe5 Ti1 2.655256 1_455
Fe5 Ti1 2.655256 1_555
Fe6 H0 1.933948 1_555
Fe6 Fe8 2.443454 1_555
Fe7 Fe9 2.437514 1_455
Fe8 Ti0 2.658821 1_545
Fe9 Ti1 2.658777 1_545
Fe10 Fe8 2.360543 1_655
Fe10 Fe8 2.371399 1_555
Fe10 Fe2 2.422547 1_655
Fe10 Fe6 2.443452 1_555
Fe10 Fe4 2.455782 1_545
Fe10 Fe16 2.593258 1_555
Fe10 Fe20 2.593277 1_655
Fe10 Fe18 2.612239 1_545
Fe10 Ti0 2.658821 1_545
Fe11 Fe9 2.365791 1_555
Fe11 Fe9 2.366151 1_455
Fe11 Fe3 2.423413 1_555
Fe11 Fe7 2.437514 1_555
Fe11 Fe5 2.461788 1_545
Fe11 Fe21 2.589936 1_555
Fe11 Fe17 2.596277 1_555
Fe11 Fe19 2.608129 1_545
Fe11 Ti1 2.658777 1_445
Fe12 Fe14 2.362905 1_555
Fe12 Fe14 2.369037 1_455
Fe12 Fe6 2.440629 1_455
Fe12 Fe5 2.460672 1_554
Fe12 Fe3 2.460860 1_454
Fe12 Fe20 2.579250 1_555
Fe12 Fe18 2.580863 1_455
Fe12 Fe17 2.596876 1_554
Fe12 Ti1 2.645965 1_454
Fe13 Fe15 2.362067 1_555
Fe13 Fe15 2.369875 1_455
Fe13 Fe7 2.437749 1_555
Fe13 Fe2 2.454127 1_555
Fe13 Fe4 2.457180 1_555
Fe13 Fe21 2.584379 1_555
Fe13 Fe19 2.586314 1_555
Fe13 Fe16 2.603082 1_555
Fe13 Ti0 2.649485 1_555
Fe14 Fe6 2.440631 1_555
Fe14 Fe5 2.460672 1_554
Fe14 Fe3 2.460860 1_554
Fe14 Fe20 2.579248 1_555
Fe14 Fe18 2.580865 1_555
Fe14 Fe17 2.596876 1_554
Fe14 Ti1 2.645965 1_554
Fe15 Fe7 2.437749 1_655
Fe15 Fe2 2.454127 1_655
Fe15 Fe4 2.457178 1_555
Fe15 Fe21 2.584379 1_555
Fe15 Fe19 2.586312 1_655
Fe15 Fe16 2.603084 1_555
Fe15 Ti0 2.649485 1_655
Fe16 Fe18 2.438043 1_555
Fe16 Fe6 2.590262 1_555
Fe16 Fe8 2.593256 1_555
Fe16 Fe2 2.628166 1_555
Fe16 Fe2 2.628170 1_655
Fe16 Fe4 2.631354 1_555
Fe16 Ti0 2.890081 1_555
Fe16 Ti0 2.890085 1_655
Fe16 Fe20 2.926916 1_555
Fe16 Fe20 2.926924 1_655
Fe17 Fe19 2.441737 1_555
Fe17 Fe7 2.586730 1_555
Fe17 Fe9 2.596277 1_455
Fe17 Fe3 2.627892 1_555
Fe17 Fe3 2.627892 1_455
Fe17 Fe5 2.635720 1_555
Fe17 Ti1 2.893507 1_455
Fe17 Ti1 2.893507 1_555
Fe17 Fe21 2.928066 1_555
Fe17 Fe21 2.928066 1_455
Fe18 Fe8 2.612237 1_665
Fe18 Fe4 2.614977 1_555
Fe18 Fe6 2.615985 1_555
Fe18 Ti0 2.881123 1_655
Fe18 Ti0 2.881127 1_555
Fe18 Fe20 2.941411 1_555
Fe18 Fe20 2.941411 1_655
Fe19 Fe7 2.604957 1_555
Fe19 Fe9 2.608131 1_565
Fe19 Fe5 2.612937 1_555
Fe19 Ti1 2.881582 1_455
Fe19 Ti1 2.881586 1_555
Fe19 Fe21 2.941397 1_455
Fe19 Fe21 2.941401 1_555
Fe20 Ti0 2.349977 1_555
Fe20 Fe8 2.593275 1_555
Fe21 Ti1 2.352511 1_555
Fe21 Fe9 2.589936 1_555
Fe21 Fe7 2.591027 1_555
Fe21 Fe7 2.591027 1_655
