# generated using pymatgen
data_HgCN2Cl2O
_symmetry_space_group_name_H-M   'P 1'
_cell_length_a   7.49363200
_cell_length_b   10.36689966
_cell_length_c   11.57833902
_cell_angle_alpha   75.35032249
_cell_angle_beta   77.17049744
_cell_angle_gamma   84.24725363
_symmetry_Int_Tables_number   1
_chemical_formula_structural   HgCN2Cl2O
_chemical_formula_sum   'Hg4 C4 N8 Cl8 O4'
_cell_volume   847.57822468
_cell_formula_units_Z   4
loop_
 _symmetry_equiv_pos_site_id
 _symmetry_equiv_pos_as_xyz
  1  'x, y, z'
loop_
 _atom_site_type_symbol
 _atom_site_label
 _atom_site_symmetry_multiplicity
 _atom_site_fract_x
 _atom_site_fract_y
 _atom_site_fract_z
 _atom_site_occupancy
  Hg  Hg0  1  0.19012000  0.41957100  0.62659300  1
  Hg  Hg1  1  0.80988000  0.58042900  0.37340700  1
  Hg  Hg2  1  0.78935700  0.84342100  0.01290900  1
  Hg  Hg3  1  0.21064300  0.15657900  0.98709100  1
  C  C0  1  0.34088100  0.79271300  0.46728100  1
  C  C1  1  0.65911900  0.20728700  0.53271900  1
  C  C2  1  0.69810500  0.25918600  0.87441000  1
  C  C3  1  0.30189500  0.74081400  0.12559000  1
  N  N0  1  0.31175400  0.91128200  0.46175600  1
  N  N1  1  0.68824600  0.08871800  0.53824400  1
  N  N2  1  0.29846200  0.03234600  0.45189100  1
  N  N3  1  0.70153800  0.96765400  0.54810900  1
  N  N4  1  0.76587200  0.33939700  0.93316200  1
  N  N5  1  0.23412800  0.66060300  0.06683800  1
  N  N6  1  0.79455300  0.37219300  0.81234200  1
  N  N7  1  0.20544700  0.62780700  0.18765800  1
  Cl  Cl0  1  0.26704700  0.48404700  0.78496000  1
  Cl  Cl1  1  0.73295300  0.51595300  0.21504000  1
  Cl  Cl2  1  0.12319500  0.33480100  0.47649300  1
  Cl  Cl3  1  0.87680500  0.66519900  0.52350700  1
  Cl  Cl4  1  0.84170500  0.93939800  0.16171000  1
  Cl  Cl5  1  0.15829500  0.06060200  0.83829000  1
  Cl  Cl6  1  0.74443000  0.74148200  0.86850100  1
  Cl  Cl7  1  0.25557000  0.25851800  0.13149900  1
  O  O0  1  0.36950000  0.67704600  0.46629100  1
  O  O1  1  0.63050000  0.32295400  0.53370900  1
  O  O2  1  0.61985300  0.16350700  0.87403700  1
  O  O3  1  0.38014700  0.83649300  0.12596300  1
loop_
_geom_bond_atom_site_label_1
_geom_bond_atom_site_label_2
_geom_bond_distance
_geom_bond_site_symmetry_2
C0 O0 1.199288 1_555
C0 N0 1.214615 1_555
C1 O1 1.199288 1_555
C1 N1 1.214615 1_555
C2 O2 1.203172 1_555
C2 N6 1.387272 1_555
C2 N4 1.391497 1_555
C3 O3 1.203172 1_555
C3 N7 1.387272 1_555
C3 N5 1.391497 1_555
N0 N2 1.227037 1_565
N1 N3 1.227037 1_545
N4 N6 1.326366 1_555
N5 N7 1.326366 1_555
Cl0 Hg0 2.303885 1_555
Cl1 Hg1 2.303885 1_555
Cl2 Hg0 2.300452 1_555
Cl3 Hg1 2.300452 1_555
Cl4 Hg2 2.314654 1_555
Cl5 Hg3 2.314654 1_555
Cl6 Hg2 2.289284 1_556
Cl7 Hg3 2.289284 1_554
