# generated using pymatgen
data_NdSiNi
_symmetry_space_group_name_H-M   'P 1'
_cell_length_a   7.48978408
_cell_length_b   7.48978408
_cell_length_c   7.48978408
_cell_angle_alpha   148.16095845
_cell_angle_beta   148.16095845
_cell_angle_gamma   45.64781470
_symmetry_Int_Tables_number   1
_chemical_formula_structural   NdSiNi
_chemical_formula_sum   'Nd2 Si2 Ni2'
_cell_volume   116.53815994
_cell_formula_units_Z   2
loop_
 _symmetry_equiv_pos_site_id
 _symmetry_equiv_pos_as_xyz
  1  'x, y, z'
loop_
 _atom_site_type_symbol
 _atom_site_label
 _atom_site_symmetry_multiplicity
 _atom_site_fract_x
 _atom_site_fract_y
 _atom_site_fract_z
 _atom_site_occupancy
  Nd  Nd0  1  0.57955878  0.57955878  -0.00000000  1
  Nd  Nd1  1  0.32955878  0.82955878  0.50000000  1
  Si  Si0  1  0.99899033  0.99899033  0.00000000  1
  Si  Si1  1  0.74899033  0.24899033  0.50000000  1
  Ni  Ni0  1  0.16845189  0.16845189  0.00000000  1
  Ni  Ni1  1  0.91845189  0.41845189  0.50000000  1
loop_
_geom_bond_atom_site_label_1
_geom_bond_atom_site_label_2
_geom_bond_distance
_geom_bond_site_symmetry_2
Nd0 Ni1 3.027886 1_454
Nd0 Ni1 3.027886 1_555
Nd0 Si0 3.110965 1_444
Nd0 Si0 3.110965 1_556
Nd0 Si0 3.110965 1_455
Nd0 Si0 3.110965 1_545
Nd0 Si1 3.113298 1_554
Nd0 Si1 3.113298 1_565
Nd0 Ni0 3.153889 1_565
Nd0 Ni0 3.153889 1_554
Nd0 Ni0 3.153889 1_655
Nd0 Ni0 3.153889 1_666
Nd1 Ni0 3.027886 1_566
Nd1 Ni0 3.027886 1_555
Nd1 Si1 3.110965 1_454
Nd1 Si1 3.110965 1_566
Nd1 Si1 3.110965 1_555
Nd1 Si1 3.110965 1_465
Nd1 Si0 3.113298 1_455
Nd1 Si0 3.113298 1_556
Nd1 Ni1 3.153889 1_566
Nd1 Ni1 3.153889 1_454
Nd1 Ni1 3.153889 1_465
Nd1 Ni1 3.153889 1_555
Ni0 Si1 2.335985 1_454
Ni0 Si1 2.335985 1_555
Ni0 Si0 2.339703 1_445
Ni1 Si0 2.335985 1_545
Ni1 Si0 2.335985 1_556
Ni1 Si1 2.339703 1_555
