# generated using pymatgen
data_Ca(NiS2)2
_symmetry_space_group_name_H-M   'P 1'
_cell_length_a   7.03876300
_cell_length_b   7.08724967
_cell_length_c   7.16485426
_cell_angle_alpha   89.12715110
_cell_angle_beta   119.11696814
_cell_angle_gamma   118.40919523
_symmetry_Int_Tables_number   1
_chemical_formula_structural   Ca(NiS2)2
_chemical_formula_sum   'Ca2 Ni4 S8'
_cell_volume   263.54754051
_cell_formula_units_Z   2
loop_
 _symmetry_equiv_pos_site_id
 _symmetry_equiv_pos_as_xyz
  1  'x, y, z'
loop_
 _atom_site_type_symbol
 _atom_site_label
 _atom_site_symmetry_multiplicity
 _atom_site_fract_x
 _atom_site_fract_y
 _atom_site_fract_z
 _atom_site_occupancy
  Ca  Ca0  1  0.00000000  0.00000000  0.00000000  1
  Ca  Ca1  1  0.50000000  0.50000000  0.50000000  1
  Ni  Ni0  1  0.00000000  0.00000000  0.50000000  1
  Ni  Ni1  1  0.50000000  0.00000000  0.00000000  1
  Ni  Ni2  1  0.50000000  0.00000000  0.50000000  1
  Ni  Ni3  1  0.00000000  0.50000000  0.50000000  1
  S  S0  1  0.05803800  0.77860300  0.31942500  1
  S  S1  1  0.02370300  0.76219900  0.72664600  1
  S  S2  1  0.45451400  0.18215200  0.72579600  1
  S  S3  1  0.52619600  0.24406000  0.24398000  1
  S  S4  1  0.54548600  0.81784800  0.27420400  1
  S  S5  1  0.97629700  0.23780100  0.27335400  1
  S  S6  1  0.47380400  0.75594000  0.75602000  1
  S  S7  1  0.94196200  0.22139700  0.68057500  1
loop_
_geom_bond_atom_site_label_1
_geom_bond_atom_site_label_2
_geom_bond_distance
_geom_bond_site_symmetry_2
Ca0 S5 2.718504 1_455
Ca0 S1 2.718504 1_544
Ca0 S0 2.730831 1_545
Ca0 S7 2.730831 1_454
Ca0 S3 2.731462 1_555
Ca0 S6 2.731462 1_444
Ca1 S1 2.725225 1_655
Ca1 S5 2.725225 1_455
Ca1 S3 2.727248 1_555
Ca1 S6 2.727248 1_555
Ca1 S4 2.738805 1_555
Ca1 S2 2.738805 1_555
Ni0 S5 2.329328 1_455
Ni0 S1 2.329328 1_545
Ni0 S7 2.342860 1_455
Ni0 S0 2.342860 1_545
Ni0 S4 2.369740 1_445
Ni0 S2 2.369740 1_555
Ni1 S2 2.309269 1_554
Ni1 S4 2.309269 1_545
Ni1 S6 2.357257 1_544
Ni1 S3 2.357257 1_555
Ni1 S5 2.500001 1_555
Ni1 S1 2.500001 1_544
Ni2 S0 2.305155 1_545
Ni2 S7 2.305155 1_555
Ni2 S2 2.312429 1_555
Ni2 S4 2.312429 1_545
Ni2 S6 2.513911 1_545
Ni2 S3 2.513911 1_555
Ni3 S0 2.325630 1_555
Ni3 S7 2.325630 1_455
Ni3 S1 2.377241 1_555
Ni3 S5 2.377241 1_455
Ni3 S3 2.483742 1_455
Ni3 S6 2.483742 1_555
