# generated using pymatgen
data_YTh
_symmetry_space_group_name_H-M   'P 1'
_cell_length_a   7.05749975
_cell_length_b   7.05749975
_cell_length_c   11.89958400
_cell_angle_alpha   90.00000000
_cell_angle_beta   90.00000000
_cell_angle_gamma   119.99999767
_symmetry_Int_Tables_number   1
_chemical_formula_structural   YTh
_chemical_formula_sum   'Y8 Th8'
_cell_volume   513.29160814
_cell_formula_units_Z   8
loop_
 _symmetry_equiv_pos_site_id
 _symmetry_equiv_pos_as_xyz
  1  'x, y, z'
loop_
 _atom_site_type_symbol
 _atom_site_label
 _atom_site_symmetry_multiplicity
 _atom_site_fract_x
 _atom_site_fract_y
 _atom_site_fract_z
 _atom_site_occupancy
  Y  Y0_0  1  0.00000000  0.00000000  0.00000000  1
  Y  Y0_1  1  0.00000000  0.00000000  0.50000000  1
  Y  Y0_2  1  0.00000000  0.50000000  0.00000000  1
  Y  Y0_3  1  0.00000000  0.50000000  0.50000000  1
  Y  Y0_4  1  0.50000000  0.00000000  0.00000000  1
  Y  Y0_5  1  0.50000000  0.00000000  0.50000000  1
  Y  Y0_6  1  0.50000000  0.50000000  0.00000000  1
  Y  Y0_7  1  0.50000000  0.50000000  0.50000000  1
  Th  Th0_0  1  0.16666650  0.33333350  0.25000000  1
  Th  Th0_1  1  0.16666650  0.33333350  0.75000000  1
  Th  Th0_2  1  0.16666650  0.83333350  0.25000000  1
  Th  Th0_3  1  0.16666650  0.83333350  0.75000000  1
  Th  Th0_4  1  0.66666650  0.33333350  0.25000000  1
  Th  Th0_5  1  0.66666650  0.33333350  0.75000000  1
  Th  Th0_6  1  0.66666650  0.83333350  0.25000000  1
  Th  Th0_7  1  0.66666650  0.83333350  0.75000000  1
loop_
_geom_bond_atom_site_label_1
_geom_bond_atom_site_label_2
_geom_bond_distance
_geom_bond_site_symmetry_2
Y0_0 Y0_4 3.528750 1_455
Y0_0 Y0_4 3.528750 1_555
Y0_0 Y0_2 3.528750 1_555
Y0_0 Y0_2 3.528750 1_545
Y0_0 Y0_6 3.528750 1_445
Y0_0 Y0_6 3.528750 1_555
Y0_1 Y0_3 3.528750 1_555
Y0_1 Y0_5 3.528750 1_555
Y0_1 Y0_5 3.528750 1_455
Y0_1 Y0_3 3.528750 1_545
Y0_1 Y0_7 3.528750 1_445
Y0_1 Y0_7 3.528750 1_555
Y0_2 Y0_6 3.528750 1_455
Y0_2 Y0_6 3.528750 1_555
Y0_2 Y0_4 3.528750 1_565
Y0_2 Y0_4 3.528750 1_455
Y0_3 Y0_7 3.528750 1_455
Y0_3 Y0_7 3.528750 1_555
Y0_3 Y0_5 3.528750 1_565
Y0_3 Y0_5 3.528750 1_455
Y0_4 Y0_6 3.528750 1_555
Y0_4 Y0_6 3.528750 1_545
Y0_5 Y0_7 3.528750 1_555
Y0_5 Y0_7 3.528750 1_545
Th0_0 Th0_2 3.528750 1_555
Th0_0 Th0_4 3.528750 1_455
Th0_0 Th0_2 3.528750 1_545
Th0_0 Th0_4 3.528750 1_555
Th0_0 Th0_6 3.528750 1_445
Th0_0 Th0_6 3.528750 1_555
Th0_0 Y0_2 3.605647 1_555
Th0_0 Y0_3 3.605647 1_555
Th0_0 Y0_1 3.605649 1_555
Th0_0 Y0_0 3.605649 1_555
Th0_0 Y0_7 3.605649 1_555
Th0_0 Y0_6 3.605649 1_555
Th0_1 Th0_3 3.528750 1_555
Th0_1 Th0_5 3.528750 1_455
Th0_1 Th0_3 3.528750 1_545
Th0_1 Th0_5 3.528750 1_555
Th0_1 Th0_7 3.528750 1_445
Th0_1 Th0_7 3.528750 1_555
Th0_1 Y0_3 3.605647 1_555
Th0_1 Y0_2 3.605647 1_556
Th0_1 Y0_0 3.605649 1_556
Th0_1 Y0_1 3.605649 1_555
Th0_1 Y0_7 3.605649 1_555
Th0_1 Y0_6 3.605649 1_556
Th0_2 Th0_6 3.528750 1_555
Th0_2 Th0_6 3.528750 1_455
Th0_2 Th0_4 3.528750 1_565
Th0_2 Th0_4 3.528750 1_455
Th0_2 Y0_1 3.605647 1_565
Th0_2 Y0_0 3.605647 1_565
Th0_2 Y0_4 3.605649 1_565
Th0_2 Y0_5 3.605649 1_565
Th0_2 Y0_2 3.605649 1_555
Th0_2 Y0_3 3.605649 1_555
Th0_3 Th0_7 3.528750 1_555
Th0_3 Th0_7 3.528750 1_455
Th0_3 Th0_5 3.528750 1_565
Th0_3 Th0_5 3.528750 1_455
Th0_3 Y0_1 3.605647 1_565
Th0_3 Y0_0 3.605647 1_566
Th0_3 Y0_4 3.605649 1_566
Th0_3 Y0_5 3.605649 1_565
Th0_3 Y0_3 3.605649 1_555
Th0_3 Y0_2 3.605649 1_556
Th0_4 Th0_6 3.528750 1_555
Th0_4 Th0_6 3.528750 1_545
Th0_4 Y0_6 3.605647 1_555
Th0_4 Y0_7 3.605647 1_555
Th0_4 Y0_4 3.605649 1_555
Th0_4 Y0_5 3.605649 1_555
Th0_4 Y0_2 3.605649 1_655
Th0_4 Y0_3 3.605649 1_655
Th0_5 Th0_7 3.528750 1_555
Th0_5 Th0_7 3.528750 1_545
Th0_5 Y0_6 3.605647 1_556
Th0_5 Y0_7 3.605647 1_555
Th0_5 Y0_4 3.605649 1_556
Th0_5 Y0_5 3.605649 1_555
Th0_5 Y0_2 3.605649 1_656
Th0_5 Y0_3 3.605649 1_655
Th0_6 Y0_4 3.605647 1_565
Th0_6 Y0_5 3.605647 1_565
Th0_6 Y0_0 3.605649 1_665
Th0_6 Y0_1 3.605649 1_665
Th0_6 Y0_6 3.605649 1_555
Th0_6 Y0_7 3.605649 1_555
Th0_7 Y0_4 3.605647 1_566
Th0_7 Y0_5 3.605647 1_565
Th0_7 Y0_0 3.605649 1_666
Th0_7 Y0_1 3.605649 1_665
Th0_7 Y0_6 3.605649 1_556
Th0_7 Y0_7 3.605649 1_555
