# generated using pymatgen
data_Ba2NbCu2Pb2ClO8
_symmetry_space_group_name_H-M   'P 1'
_cell_length_a   4.01077821
_cell_length_b   4.01077821
_cell_length_c   15.94887300
_cell_angle_alpha   90.00000000
_cell_angle_beta   90.00000000
_cell_angle_gamma   90.09460916
_symmetry_Int_Tables_number   1
_chemical_formula_structural   Ba2NbCu2Pb2ClO8
_chemical_formula_sum   'Ba2 Nb1 Cu2 Pb2 Cl1 O8'
_cell_volume   256.55867279
_cell_formula_units_Z   1
loop_
 _symmetry_equiv_pos_site_id
 _symmetry_equiv_pos_as_xyz
  1  'x, y, z'
loop_
 _atom_site_type_symbol
 _atom_site_label
 _atom_site_symmetry_multiplicity
 _atom_site_fract_x
 _atom_site_fract_y
 _atom_site_fract_z
 _atom_site_occupancy
  Ba  Ba0  1  0.50081600  0.50081600  0.34905100  1
  Ba  Ba1  1  0.50081600  0.50081600  0.65094900  1
  Nb  Nb0  1  0.98752300  0.98752300  0.50000000  1
  Cu  Cu0  1  0.99994500  0.99994500  0.22214300  1
  Cu  Cu1  1  0.99994500  0.99994500  0.77785700  1
  Pb  Pb0  1  0.49989900  0.49989900  0.11903500  1
  Pb  Pb1  1  0.49989900  0.49989900  0.88096500  1
  Cl  Cl0  1  0.99977000  0.99977000  0.00000000  1
  O  O0  1  0.99934700  0.49979300  0.21104300  1
  O  O1  1  0.49979300  0.99934700  0.21104300  1
  O  O2  1  0.99934700  0.49979300  0.78895700  1
  O  O3  1  0.49979300  0.99934700  0.78895700  1
  O  O4  1  0.99344800  0.99344800  0.37472900  1
  O  O5  1  0.99344800  0.99344800  0.62527100  1
  O  O6  1  0.95463800  0.47857100  0.50000000  1
  O  O7  1  0.47857100  0.95463800  0.50000000  1
loop_
_geom_bond_atom_site_label_1
_geom_bond_atom_site_label_2
_geom_bond_distance
_geom_bond_site_symmetry_2
Ba0 O4 2.821825 1_555
Ba0 O4 2.868086 1_455
Ba0 O4 2.868086 1_545
Ba0 O4 2.904481 1_445
Ba0 O0 2.973676 1_555
Ba0 O1 2.973676 1_555
Ba0 O1 2.981603 1_545
Ba0 O0 2.981603 1_455
Ba0 O6 3.019511 1_555
Ba0 O7 3.019511 1_555
Ba0 O6 3.256061 1_455
Ba0 O7 3.256061 1_545
Ba1 O5 2.821825 1_555
Ba1 O5 2.868086 1_545
Ba1 O5 2.868086 1_455
Ba1 O5 2.904481 1_445
Ba1 O2 2.973676 1_555
Ba1 O3 2.973676 1_555
Ba1 O2 2.981603 1_455
Ba1 O3 2.981603 1_545
Ba1 O6 3.019511 1_555
Ba1 O7 3.019511 1_555
Ba1 O6 3.256061 1_455
Ba1 O7 3.256061 1_545
Nb0 O6 1.974113 1_565
Nb0 O7 1.974113 1_655
Nb0 O5 1.998213 1_555
Nb0 O4 1.998213 1_555
Nb0 O7 2.045333 1_555
Nb0 O6 2.045333 1_555
Cu0 O1 2.012586 1_655
Cu0 O0 2.012586 1_565
Cu0 O1 2.013793 1_555
Cu0 O0 2.013793 1_555
Cu0 O4 2.433853 1_555
Cu1 O3 2.012586 1_655
Cu1 O2 2.012586 1_565
Cu1 O3 2.013793 1_555
Cu1 O2 2.013793 1_555
Cu1 O5 2.433853 1_555
O0 Pb0 2.483153 1_555
O0 Pb0 2.486725 1_655
O1 Pb0 2.483153 1_555
O1 Pb0 2.486725 1_565
O2 Pb1 2.483153 1_555
O2 Pb1 2.486725 1_655
O3 Pb1 2.483153 1_555
O3 Pb1 2.486725 1_565
