# generated using pymatgen
data_Sr4GaSn3
_symmetry_space_group_name_H-M   'P 1'
_cell_length_a   4.59920300
_cell_length_b   4.98662700
_cell_length_c   12.11825700
_cell_angle_alpha   90.00000000
_cell_angle_beta   90.00000000
_cell_angle_gamma   90.00000000
_symmetry_Int_Tables_number   1
_chemical_formula_structural   Sr4GaSn3
_chemical_formula_sum   'Sr4 Ga1 Sn3'
_cell_volume   277.92628463
_cell_formula_units_Z   1
loop_
 _symmetry_equiv_pos_site_id
 _symmetry_equiv_pos_as_xyz
  1  'x, y, z'
loop_
 _atom_site_type_symbol
 _atom_site_label
 _atom_site_symmetry_multiplicity
 _atom_site_fract_x
 _atom_site_fract_y
 _atom_site_fract_z
 _atom_site_occupancy
  Sr  Sr0  1  0.25000000  0.00000000  0.36057600  1
  Sr  Sr1  1  0.25000000  0.50000000  0.86481900  1
  Sr  Sr2  1  0.75000000  0.50000000  0.13506900  1
  Sr  Sr3  1  0.75000000  0.00000000  0.63774500  1
  Ga  Ga0  1  0.25000000  0.00000000  0.07382500  1
  Sn  Sn0  1  0.25000000  0.50000000  0.57742900  1
  Sn  Sn1  1  0.75000000  0.50000000  0.42208900  1
  Sn  Sn2  1  0.75000000  0.00000000  0.92844800  1
loop_
_geom_bond_atom_site_label_1
_geom_bond_atom_site_label_2
_geom_bond_distance
_geom_bond_site_symmetry_2
Ga0 Sn2 2.896862 1_554
Ga0 Sn2 2.896862 1_454
Ga0 Sr2 3.472117 1_455
Ga0 Sr2 3.472117 1_545
Ga0 Sr2 3.472117 1_555
Ga0 Sr2 3.472117 1_445
Ga0 Sr0 3.474922 1_555
Ga0 Sr1 3.554100 1_554
Ga0 Sr1 3.554100 1_544
Sn0 Sn1 2.971832 1_455
Sn0 Sn1 2.971832 1_555
Sn0 Sr3 3.469731 1_465
Sn0 Sr3 3.469731 1_455
Sn0 Sr3 3.469731 1_565
Sn0 Sr3 3.469731 1_555
Sn0 Sr1 3.482666 1_555
Sn0 Sr0 3.622481 1_555
Sn0 Sr0 3.622481 1_565
Sn1 Sr0 3.472815 1_555
Sn1 Sr0 3.472815 1_665
Sn1 Sr0 3.472815 1_655
Sn1 Sr0 3.472815 1_565
Sn1 Sr2 3.478182 1_555
Sn1 Sr3 3.611972 1_565
Sn1 Sr3 3.611972 1_555
Sn2 Sr1 3.478409 1_645
Sn2 Sr1 3.478409 1_545
Sn2 Sr1 3.478409 1_655
Sn2 Sr1 3.478409 1_555
Sn2 Sr3 3.522814 1_555
Sn2 Sr2 3.533562 1_556
Sn2 Sr2 3.533562 1_546
