# generated using pymatgen
data_Eu4C2N4F5
_symmetry_space_group_name_H-M   'P 1'
_cell_length_a   6.53839599
_cell_length_b   16.16368749
_cell_length_c   16.16368749
_cell_angle_alpha   90.00000000
_cell_angle_beta   90.00000000
_cell_angle_gamma   90.00000000
_symmetry_Int_Tables_number   1
_chemical_formula_structural   Eu4C2N4F5
_chemical_formula_sum   'Eu32 C16 N32 F40'
_cell_volume   1708.25267667
_cell_formula_units_Z   8
loop_
 _symmetry_equiv_pos_site_id
 _symmetry_equiv_pos_as_xyz
  1  'x, y, z'
loop_
 _atom_site_type_symbol
 _atom_site_label
 _atom_site_symmetry_multiplicity
 _atom_site_fract_x
 _atom_site_fract_y
 _atom_site_fract_z
 _atom_site_occupancy
  Eu  Eu0  1  0.50815289  0.66289619  0.91213024  1
  Eu  Eu1  1  0.99184711  0.16289619  0.58786976  1
  Eu  Eu2  1  0.50815289  0.33710381  0.08786976  1
  Eu  Eu3  1  0.99184711  0.83710381  0.41213024  1
  Eu  Eu4  1  0.49184711  0.91213024  0.33710381  1
  Eu  Eu5  1  0.00815289  0.58786976  0.83710381  1
  Eu  Eu6  1  0.49184711  0.08786976  0.66289619  1
  Eu  Eu7  1  0.00815289  0.41213024  0.16289619  1
  Eu  Eu8  1  0.51121420  0.58070108  0.16871386  1
  Eu  Eu9  1  0.98878580  0.08070108  0.33128614  1
  Eu  Eu10  1  0.51121420  0.41929892  0.83128614  1
  Eu  Eu11  1  0.98878580  0.91929892  0.66871386  1
  Eu  Eu12  1  0.48878580  0.16871386  0.41929892  1
  Eu  Eu13  1  0.01121420  0.33128614  0.91929892  1
  Eu  Eu14  1  0.48878580  0.83128614  0.58070108  1
  Eu  Eu15  1  0.01121420  0.66871386  0.08070108  1
  Eu  Eu16  1  0.00760867  0.83160936  0.92025613  1
  Eu  Eu17  1  0.49239133  0.33160936  0.57974387  1
  Eu  Eu18  1  0.00760867  0.16839064  0.07974387  1
  Eu  Eu19  1  0.49239133  0.66839064  0.42025613  1
  Eu  Eu20  1  0.99239133  0.92025613  0.16839064  1
  Eu  Eu21  1  0.50760867  0.57974387  0.66839064  1
  Eu  Eu22  1  0.99239133  0.07974387  0.83160936  1
  Eu  Eu23  1  0.50760867  0.42025613  0.33160936  1
  Eu  Eu24  1  0.48680412  0.92335274  0.82404631  1
  Eu  Eu25  1  0.01319588  0.42335274  0.67595369  1
  Eu  Eu26  1  0.48680412  0.07664726  0.17595369  1
  Eu  Eu27  1  0.01319588  0.57664726  0.32404631  1
  Eu  Eu28  1  0.51319588  0.82404631  0.07664726  1
  Eu  Eu29  1  0.98680412  0.67595369  0.57664726  1
  Eu  Eu30  1  0.51319588  0.17595369  0.92335274  1
  Eu  Eu31  1  0.98680412  0.32404631  0.42335274  1
  C  C0  1  0.79201983  0.50000000  -0.00000000  1
  C  C1  1  0.70798017  -0.00000000  0.50000000  1
  C  C2  1  0.20798017  -0.00000000  0.50000000  1
  C  C3  1  0.29201983  0.50000000  0.00000000  1
  C  C4  1  0.77679185  0.74749735  0.74952718  1
  C  C5  1  0.72320815  0.24749735  0.75047282  1
  C  C6  1  0.77679185  0.25250265  0.25047282  1
  C  C7  1  0.72320815  0.75250265  0.24952718  1
  C  C8  1  0.22320815  0.74952718  0.25250265  1
  C  C9  1  0.27679185  0.75047282  0.75250265  1
  C  C10  1  0.22320815  0.25047282  0.74749735  1
  C  C11  1  0.27679185  0.24952718  0.24749735  1
  C  C12  1  0.23678921  -0.00000000  -0.00000000  1
  C  C13  1  0.26321079  0.50000000  0.50000000  1
  C  C14  1  0.76321079  -0.00000000  -0.00000000  1
  C  C15  1  0.73678921  0.50000000  0.50000000  1
  N  N0  1  0.25993100  0.82548292  0.73780482  1
  N  N1  1  0.24006900  0.32548292  0.76219518  1
  N  N2  1  0.25993100  0.17451708  0.26219518  1
  N  N3  1  0.24006900  0.67451708  0.23780482  1
  N  N4  1  0.74006900  0.73780482  0.17451708  1
  N  N5  1  0.75993100  0.76219518  0.67451708  1
  N  N6  1  0.74006900  0.26219518  0.82548292  1
  N  N7  1  0.75993100  0.23780482  0.32548292  1
  N  N8  1  0.23416775  0.98804011  0.92439966  1
  N  N9  1  0.26583225  0.48804011  0.57560034  1
  N  N10  1  0.23416775  0.01195989  0.07560034  1
  N  N11  1  0.26583225  0.51195989  0.42439966  1
  N  N12  1  0.76583225  0.92439966  0.01195989  1
  N  N13  1  0.73416775  0.57560034  0.51195989  1
  N  N14  1  0.76583225  0.07560034  0.98804011  1
  N  N15  1  0.73416775  0.42439966  0.48804011  1
  N  N16  1  0.79369928  0.57467878  0.98315396  1
  N  N17  1  0.70630072  0.07467878  0.51684604  1
  N  N18  1  0.79369928  0.42532122  0.01684604  1
  N  N19  1  0.70630072  0.92532122  0.48315396  1
  N  N20  1  0.20630072  0.98315396  0.42532122  1
  N  N21  1  0.29369928  0.51684604  0.92532122  1
  N  N22  1  0.20630072  0.01684604  0.57467878  1
  N  N23  1  0.29369928  0.48315396  0.07467878  1
  N  N24  1  0.79651248  0.73266151  0.82399054  1
  N  N25  1  0.70348752  0.23266151  0.67600946  1
  N  N26  1  0.79651248  0.26733849  0.17600946  1
  N  N27  1  0.70348752  0.76733849  0.32399054  1
  N  N28  1  0.20348752  0.82399054  0.26733849  1
  N  N29  1  0.29651248  0.67600946  0.76733849  1
  N  N30  1  0.20348752  0.17600946  0.73266151  1
  N  N31  1  0.29651248  0.32399054  0.23266151  1
  F  F0  1  0.23852752  0.00078848  0.74863154  1
  F  F1  1  0.26147248  0.50078848  0.75136846  1
  F  F2  1  0.23852752  0.99921152  0.25136846  1
  F  F3  1  0.26147248  0.49921152  0.24863154  1
  F  F4  1  0.76147248  0.74863154  0.99921152  1
  F  F5  1  0.73852752  0.75136846  0.49921152  1
  F  F6  1  0.76147248  0.25136846  0.00078848  1
  F  F7  1  0.73852752  0.24863154  0.50078848  1
  F  F8  1  0.86540631  0.92881624  0.81717683  1
  F  F9  1  0.63459369  0.42881624  0.68282317  1
  F  F10  1  0.86540631  0.07118376  0.18282317  1
  F  F11  1  0.63459369  0.57118376  0.31717683  1
  F  F12  1  0.13459369  0.81717683  0.07118376  1
  F  F13  1  0.36540631  0.68282317  0.57118376  1
  F  F14  1  0.13459369  0.18282317  0.92881624  1
  F  F15  1  0.36540631  0.31717683  0.42881624  1
  F  F16  1  0.63113203  0.56224652  0.81083575  1
  F  F17  1  0.86886797  0.06224652  0.68916425  1
  F  F18  1  0.63113203  0.43775348  0.18916425  1
  F  F19  1  0.86886797  0.93775348  0.31083575  1
  F  F20  1  0.36886797  0.81083575  0.43775348  1
  F  F21  1  0.13113203  0.68916425  0.93775348  1
  F  F22  1  0.36886797  0.18916425  0.56224652  1
  F  F23  1  0.13113203  0.31083575  0.06224652  1
  F  F24  1  0.39710212  0.67343059  0.06141331  1
  F  F25  1  0.10289788  0.17343059  0.43858669  1
  F  F26  1  0.39710212  0.32656941  0.93858669  1
  F  F27  1  0.10289788  0.82656941  0.56141331  1
  F  F28  1  0.60289788  0.06141331  0.32656941  1
  F  F29  1  0.89710212  0.43858669  0.82656941  1
  F  F30  1  0.60289788  0.93858669  0.67343059  1
  F  F31  1  0.89710212  0.56141331  0.17343059  1
  F  F32  1  0.40241014  0.81558271  0.92483812  1
  F  F33  1  0.09758986  0.31558271  0.57516188  1
  F  F34  1  0.40241014  0.18441729  0.07516188  1
  F  F35  1  0.09758986  0.68441729  0.42483812  1
  F  F36  1  0.59758986  0.92483812  0.18441729  1
  F  F37  1  0.90241014  0.57516188  0.68441729  1
  F  F38  1  0.59758986  0.07516188  0.81558271  1
  F  F39  1  0.90241014  0.42483812  0.31558271  1
loop_
_geom_bond_atom_site_label_1
_geom_bond_atom_site_label_2
_geom_bond_distance
_geom_bond_site_symmetry_2
Eu0 F16 2.444174 1_555
Eu0 F24 2.525590 1_556
Eu0 F21 2.535465 1_555
Eu0 F32 2.571210 1_555
Eu0 F4 2.577788 1_555
Eu0 N16 2.614748 1_555
Eu0 N24 2.618408 1_555
Eu0 N29 2.727109 1_555
Eu0 N21 2.754001 1_555
Eu1 F17 2.444174 1_555
Eu1 F25 2.525590 1_655
Eu1 F22 2.535465 1_655
Eu1 F33 2.571210 1_655
Eu1 F7 2.577788 1_555
Eu1 N17 2.614748 1_555
Eu1 N25 2.618408 1_555
Eu1 N30 2.727109 1_655
Eu1 N22 2.754001 1_655
Eu2 F18 2.444174 1_555
Eu2 F26 2.525590 1_554
Eu2 F23 2.535465 1_555
Eu2 F34 2.571210 1_555
Eu2 F6 2.577788 1_555
Eu2 N18 2.614748 1_555
Eu2 N26 2.618408 1_555
Eu2 N31 2.727109 1_555
Eu2 N23 2.754001 1_555
Eu3 F19 2.444174 1_555
Eu3 F27 2.525590 1_655
Eu3 F20 2.535465 1_655
Eu3 F35 2.571210 1_655
Eu3 F5 2.577788 1_555
Eu3 N19 2.614748 1_555
Eu3 N27 2.618408 1_555
Eu3 N28 2.727109 1_655
Eu3 N20 2.754001 1_655
Eu4 F20 2.444174 1_555
Eu4 F28 2.525590 1_565
Eu4 F19 2.535465 1_555
Eu4 F36 2.571210 1_555
Eu4 F2 2.577788 1_555
Eu4 N20 2.614748 1_555
Eu4 N28 2.618408 1_555
Eu4 N27 2.727109 1_555
Eu4 N19 2.754001 1_555
Eu5 F21 2.444174 1_555
Eu5 F29 2.525590 1_455
Eu5 F16 2.535465 1_455
Eu5 F37 2.571210 1_455
Eu5 F1 2.577788 1_555
Eu5 N21 2.614748 1_555
Eu5 N29 2.618408 1_555
Eu5 N24 2.727109 1_455
Eu5 N16 2.754001 1_455
Eu6 F22 2.444174 1_555
Eu6 F30 2.525590 1_545
Eu6 F17 2.535465 1_555
Eu6 F38 2.571210 1_555
Eu6 F0 2.577788 1_555
Eu6 N22 2.614748 1_555
Eu6 N30 2.618408 1_555
Eu6 N25 2.727109 1_555
Eu6 N17 2.754001 1_555
Eu7 F23 2.444174 1_555
Eu7 F31 2.525590 1_455
Eu7 F18 2.535465 1_455
Eu7 F39 2.571210 1_455
Eu7 F3 2.577788 1_555
Eu7 N23 2.614748 1_555
Eu7 N31 2.618408 1_555
Eu7 N26 2.727109 1_455
Eu7 N18 2.754001 1_455
Eu8 F24 2.410660 1_555
Eu8 F18 2.462259 1_555
Eu8 F3 2.463736 1_555
Eu8 F11 2.536344 1_555
Eu8 F31 2.543419 1_555
Eu8 N3 2.586442 1_555
Eu8 N23 2.611313 1_555
Eu8 N4 2.948944 1_555
Eu9 F25 2.410660 1_655
Eu9 F19 2.462259 1_545
Eu9 F2 2.463736 1_645
Eu9 F10 2.536344 1_555
Eu9 F28 2.543419 1_555
Eu9 N2 2.586442 1_655
Eu9 N20 2.611313 1_645
Eu9 N7 2.948944 1_555
Eu10 F26 2.410660 1_555
Eu10 F16 2.462259 1_555
Eu10 F1 2.463736 1_555
Eu10 F9 2.536344 1_555
Eu10 F29 2.543419 1_555
Eu10 N1 2.586442 1_555
Eu10 N21 2.611313 1_555
Eu10 N6 2.948944 1_555
Eu11 F27 2.410660 1_655
Eu11 F17 2.462259 1_565
Eu11 F0 2.463736 1_665
Eu11 F8 2.536344 1_555
Eu11 F30 2.543419 1_555
Eu11 N0 2.586442 1_655
Eu11 N22 2.611313 1_665
Eu11 N5 2.948944 1_555
Eu12 F28 2.410660 1_555
Eu12 F22 2.462259 1_555
Eu12 F7 2.463736 1_555
Eu12 F15 2.536344 1_555
Eu12 F25 2.543419 1_555
Eu12 N7 2.586442 1_555
Eu12 N17 2.611313 1_555
Eu12 N2 2.948944 1_555
Eu13 F29 2.410660 1_455
Eu13 F23 2.462259 1_556
Eu13 F6 2.463736 1_456
Eu13 F14 2.536344 1_555
Eu13 F26 2.543419 1_555
Eu13 N6 2.586442 1_455
Eu13 N18 2.611313 1_456
Eu13 N1 2.948944 1_555
Eu14 F30 2.410660 1_555
Eu14 F20 2.462259 1_555
Eu14 F5 2.463736 1_555
Eu14 F13 2.536344 1_555
Eu14 F27 2.543419 1_555
Eu14 N5 2.586442 1_555
Eu14 N19 2.611313 1_555
Eu14 N0 2.948944 1_555
Eu15 F31 2.410660 1_455
Eu15 F21 2.462259 1_554
Eu15 F4 2.463736 1_454
Eu15 F12 2.536344 1_555
Eu15 F24 2.543419 1_555
Eu15 N4 2.586442 1_455
Eu15 N16 2.611313 1_454
Eu15 N3 2.948944 1_555
Eu16 F4 2.453073 1_455
Eu16 F21 2.456318 1_555
Eu16 F8 2.471689 1_455
Eu16 F12 2.587503 1_556
Eu16 F32 2.595391 1_555
Eu16 N24 2.623767 1_455
Eu16 N12 2.635460 1_456
Eu16 N8 2.931234 1_555
Eu17 F7 2.453073 1_555
Eu17 F22 2.456318 1_555
Eu17 F9 2.471689 1_555
Eu17 F15 2.587503 1_555
Eu17 F33 2.595391 1_555
Eu17 N25 2.623767 1_555
Eu17 N15 2.635460 1_555
Eu17 N9 2.931234 1_555
Eu18 F6 2.453073 1_455
Eu18 F23 2.456318 1_555
Eu18 F10 2.471689 1_455
Eu18 F14 2.587503 1_554
Eu18 F34 2.595391 1_555
Eu18 N26 2.623767 1_455
Eu18 N14 2.635460 1_454
Eu18 N10 2.931234 1_555
Eu19 F5 2.453073 1_555
Eu19 F20 2.456318 1_555
Eu19 F11 2.471689 1_555
Eu19 F13 2.587503 1_555
Eu19 F35 2.595391 1_555
Eu19 N27 2.623767 1_555
Eu19 N13 2.635460 1_555
Eu19 N11 2.931234 1_555
Eu20 F2 2.453073 1_655
Eu20 F19 2.456318 1_555
Eu20 F12 2.471689 1_655
Eu20 F10 2.587503 1_565
Eu20 F36 2.595391 1_555
Eu20 N28 2.623767 1_655
Eu20 N10 2.635460 1_665
Eu20 N12 2.931234 1_555
Eu21 F1 2.453073 1_555
Eu21 F16 2.456318 1_555
Eu21 F13 2.471689 1_555
Eu21 F9 2.587503 1_555
Eu21 F37 2.595391 1_555
Eu21 N29 2.623767 1_555
Eu21 N9 2.635460 1_555
Eu21 N13 2.931234 1_555
Eu22 F0 2.453073 1_655
Eu22 F17 2.456318 1_555
Eu22 F14 2.471689 1_655
Eu22 F8 2.587503 1_545
Eu22 F38 2.595391 1_555
Eu22 N30 2.623767 1_655
Eu22 N8 2.635460 1_645
Eu22 N14 2.931234 1_555
Eu23 F3 2.453073 1_555
Eu23 F18 2.456318 1_555
Eu23 F15 2.471689 1_555
Eu23 F11 2.587503 1_555
Eu23 F39 2.595391 1_555
Eu23 N31 2.623767 1_555
Eu23 N11 2.635460 1_555
Eu23 N15 2.931234 1_555
Eu24 F0 2.384898 1_565
Eu24 F32 2.448081 1_555
Eu24 F8 2.479513 1_555
Eu24 N8 2.540268 1_555
Eu24 F30 2.561959 1_555
Eu24 F38 2.562133 1_565
Eu24 N0 2.578011 1_555
Eu25 F1 2.384898 1_555
Eu25 F33 2.448081 1_555
Eu25 F9 2.479513 1_455
Eu25 N9 2.540268 1_555
Eu25 F29 2.561959 1_455
Eu25 F37 2.562133 1_455
Eu25 N1 2.578011 1_555
Eu26 F2 2.384898 1_545
Eu26 F34 2.448081 1_555
Eu26 F10 2.479513 1_555
Eu26 N10 2.540268 1_555
Eu26 F28 2.561959 1_555
Eu26 F36 2.562133 1_545
Eu26 N2 2.578011 1_555
Eu27 F3 2.384898 1_555
Eu27 F35 2.448081 1_555
Eu27 F11 2.479513 1_455
Eu27 N11 2.540268 1_555
Eu27 F31 2.561959 1_455
Eu27 F39 2.562133 1_455
Eu27 N3 2.578011 1_555
Eu28 F4 2.384898 1_554
Eu28 F36 2.448081 1_555
Eu28 F12 2.479513 1_555
Eu28 N12 2.540268 1_555
Eu28 F24 2.561959 1_555
Eu28 F32 2.562133 1_554
Eu28 N4 2.578011 1_555
Eu29 F5 2.384898 1_555
Eu29 F37 2.448081 1_555
Eu29 F13 2.479513 1_655
Eu29 N13 2.540268 1_555
Eu29 F27 2.561959 1_655
Eu29 F35 2.562133 1_655
Eu29 N5 2.578011 1_555
Eu30 F6 2.384898 1_556
Eu30 F38 2.448081 1_555
Eu30 F14 2.479513 1_555
Eu30 N14 2.540268 1_555
Eu30 F26 2.561959 1_555
Eu30 F34 2.562133 1_556
Eu30 N6 2.578011 1_555
Eu31 F7 2.384898 1_555
Eu31 F39 2.448081 1_555
Eu31 F15 2.479513 1_655
Eu31 N15 2.540268 1_555
Eu31 F25 2.561959 1_655
Eu31 F33 2.562133 1_655
Eu31 N7 2.578011 1_555
C0 N18 1.237464 1_555
C0 N16 1.237464 1_554
C1 N19 1.237464 1_545
C1 N17 1.237464 1_555
C2 N20 1.237464 1_545
C2 N22 1.237464 1_555
C3 N21 1.237464 1_554
C3 N23 1.237464 1_555
C4 N24 1.234014 1_555
C4 N5 1.240405 1_555
C5 N25 1.234014 1_555
C5 N6 1.240405 1_555
C6 N26 1.234014 1_555
C6 N7 1.240405 1_555
C7 N27 1.234014 1_555
C7 N4 1.240405 1_555
C8 N28 1.234014 1_555
C8 N3 1.240405 1_555
C9 N29 1.234014 1_555
C9 N0 1.240405 1_555
C10 N30 1.234014 1_555
C10 N1 1.240405 1_555
C11 N31 1.234014 1_555
C11 N2 1.240405 1_555
C12 N8 1.237296 1_544
C12 N10 1.237296 1_555
C13 N11 1.237296 1_555
C13 N9 1.237296 1_555
C14 N12 1.237296 1_545
C14 N14 1.237296 1_554
C15 N15 1.237296 1_555
C15 N13 1.237296 1_555
