# generated using pymatgen
data_Nd2HfS5
_symmetry_space_group_name_H-M   'P 1'
_cell_length_a   7.36801201
_cell_length_b   7.99601231
_cell_length_c   11.57266403
_cell_angle_alpha   90.00000000
_cell_angle_beta   90.00000000
_cell_angle_gamma   90.00000000
_symmetry_Int_Tables_number   1
_chemical_formula_structural   Nd2HfS5
_chemical_formula_sum   'Nd8 Hf4 S20'
_cell_volume   681.80020002
_cell_formula_units_Z   4
loop_
 _symmetry_equiv_pos_site_id
 _symmetry_equiv_pos_as_xyz
  1  'x, y, z'
loop_
 _atom_site_type_symbol
 _atom_site_label
 _atom_site_symmetry_multiplicity
 _atom_site_fract_x
 _atom_site_fract_y
 _atom_site_fract_z
 _atom_site_occupancy
  Nd  Nd0  1  0.53960197  0.49924191  0.32481832  1
  Nd  Nd1  1  0.96039803  0.00075809  0.82481832  1
  Nd  Nd2  1  0.46039803  0.99924191  0.67518168  1
  Nd  Nd3  1  0.03960197  0.50075809  0.17518168  1
  Nd  Nd4  1  0.46039803  0.50075809  0.67518168  1
  Nd  Nd5  1  0.03960197  0.99924191  0.17518168  1
  Nd  Nd6  1  0.53960197  0.00075809  0.32481832  1
  Nd  Nd7  1  0.96039803  0.49924191  0.82481832  1
  Hf  Hf0  1  0.07238236  0.75000000  0.49277487  1
  Hf  Hf1  1  0.42761764  0.75000000  0.99277487  1
  Hf  Hf2  1  0.92761764  0.25000000  0.50722513  1
  Hf  Hf3  1  0.57238236  0.25000000  0.00722513  1
  S  S0  1  0.83297827  0.96559858  0.58261592  1
  S  S1  1  0.66702173  0.53440142  0.08261592  1
  S  S2  1  0.16702173  0.46559858  0.41738408  1
  S  S3  1  0.33297827  0.03440142  0.91738408  1
  S  S4  1  0.16702173  0.03440142  0.41738408  1
  S  S5  1  0.33297827  0.46559858  0.91738408  1
  S  S6  1  0.83297827  0.53440142  0.58261592  1
  S  S7  1  0.66702173  0.96559858  0.08261592  1
  S  S8  1  0.84735229  0.75000000  0.31555607  1
  S  S9  1  0.65264771  0.75000000  0.81555607  1
  S  S10  1  0.15264771  0.25000000  0.68444393  1
  S  S11  1  0.34735229  0.25000000  0.18444393  1
  S  S12  1  0.44157392  0.75000000  0.49511404  1
  S  S13  1  0.05842608  0.75000000  0.99511404  1
  S  S14  1  0.55842608  0.25000000  0.50488596  1
  S  S15  1  0.94157392  0.25000000  0.00488596  1
  S  S16  1  0.17332459  0.75000000  0.70552094  1
  S  S17  1  0.32667541  0.75000000  0.20552094  1
  S  S18  1  0.82667541  0.25000000  0.29447906  1
  S  S19  1  0.67332459  0.25000000  0.79447906  1
loop_
_geom_bond_atom_site_label_1
_geom_bond_atom_site_label_2
_geom_bond_distance
_geom_bond_site_symmetry_2
Nd0 S14 2.886786 1_555
Nd0 S17 2.896133 1_555
Nd0 S12 2.902743 1_555
Nd0 S18 2.927285 1_555
Nd0 S11 2.935524 1_555
Nd0 S2 2.959036 1_555
Nd0 S1 2.969316 1_555
Nd0 S8 3.028757 1_555
Nd1 S15 2.886786 1_556
Nd1 S16 2.896133 1_645
Nd1 S13 2.902743 1_645
Nd1 S19 2.927285 1_555
Nd1 S10 2.935524 1_655
Nd1 S3 2.959036 1_655
Nd1 S0 2.969316 1_545
Nd1 S9 3.028757 1_545
Nd2 S12 2.886786 1_555
Nd2 S19 2.896133 1_565
Nd2 S14 2.902743 1_565
Nd2 S16 2.927285 1_555
Nd2 S9 2.935524 1_555
Nd2 S0 2.959036 1_555
Nd2 S3 2.969316 1_565
Nd2 S10 3.028757 1_565
Nd3 S13 2.886786 1_554
Nd3 S18 2.896133 1_455
Nd3 S15 2.902743 1_455
Nd3 S17 2.927285 1_555
Nd3 S8 2.935524 1_455
Nd3 S1 2.959036 1_455
Nd3 S2 2.969316 1_555
Nd3 S11 3.028757 1_555
Nd4 S12 2.886786 1_555
Nd4 S19 2.896133 1_555
Nd4 S14 2.902743 1_555
Nd4 S16 2.927285 1_555
Nd4 S9 2.935524 1_555
Nd4 S6 2.959036 1_555
Nd4 S5 2.969316 1_555
Nd4 S10 3.028757 1_555
Nd5 S13 2.886786 1_554
Nd5 S18 2.896133 1_465
Nd5 S15 2.902743 1_465
Nd5 S17 2.927285 1_555
Nd5 S8 2.935524 1_455
Nd5 S7 2.959036 1_455
Nd5 S4 2.969316 1_565
Nd5 S11 3.028757 1_565
Nd6 S14 2.886786 1_555
Nd6 S17 2.896133 1_545
Nd6 S12 2.902743 1_545
Nd6 S18 2.927285 1_555
Nd6 S11 2.935524 1_555
Nd6 S4 2.959036 1_555
Nd6 S7 2.969316 1_545
Nd6 S8 3.028757 1_545
Nd7 S15 2.886786 1_556
Nd7 S16 2.896133 1_655
Nd7 S13 2.902743 1_655
Nd7 S19 2.927285 1_555
Nd7 S10 2.935524 1_655
Nd7 S5 2.959036 1_655
Nd7 S6 2.969316 1_555
Nd7 S9 3.028757 1_555
Hf0 S4 2.533549 1_565
Hf0 S2 2.533549 1_555
Hf0 S16 2.571923 1_555
Hf0 S8 2.637273 1_455
Hf0 S6 2.676633 1_455
Hf0 S0 2.676633 1_455
Hf0 S12 2.720343 1_555
Hf1 S3 2.533549 1_565
Hf1 S5 2.533549 1_555
Hf1 S17 2.571923 1_556
Hf1 S9 2.637273 1_555
Hf1 S1 2.676633 1_556
Hf1 S7 2.676633 1_556
Hf1 S13 2.720343 1_555
Hf2 S0 2.533549 1_545
Hf2 S6 2.533549 1_555
Hf2 S18 2.571923 1_555
Hf2 S10 2.637273 1_655
Hf2 S2 2.676633 1_655
Hf2 S4 2.676633 1_655
Hf2 S14 2.720343 1_555
Hf3 S7 2.533549 1_545
Hf3 S1 2.533549 1_555
Hf3 S19 2.571923 1_554
Hf3 S11 2.637273 1_555
Hf3 S3 2.676633 1_554
Hf3 S5 2.676633 1_554
Hf3 S15 2.720343 1_555
