# generated using pymatgen
data_Ta5N10Cl17
_symmetry_space_group_name_H-M   'P 1'
_cell_length_a   10.63197544
_cell_length_b   10.63197544
_cell_length_c   10.63197544
_cell_angle_alpha   104.81612484
_cell_angle_beta   104.81612484
_cell_angle_gamma   119.24626179
_symmetry_Int_Tables_number   1
_chemical_formula_structural   Ta5N10Cl17
_chemical_formula_sum   'Ta5 N10 Cl17'
_cell_volume   904.66963489
_cell_formula_units_Z   1
loop_
 _symmetry_equiv_pos_site_id
 _symmetry_equiv_pos_as_xyz
  1  'x, y, z'
loop_
 _atom_site_type_symbol
 _atom_site_label
 _atom_site_symmetry_multiplicity
 _atom_site_fract_x
 _atom_site_fract_y
 _atom_site_fract_z
 _atom_site_occupancy
  Ta  Ta0  1  0.98603700  0.20951600  0.22348000  1
  Ta  Ta1  1  0.98603700  0.76255700  0.77652000  1
  Ta  Ta2  1  0.20951600  0.98603700  0.22348000  1
  Ta  Ta3  1  0.76255700  0.98603700  0.77652000  1
  Ta  Ta4  1  0.12859000  0.12859000  0.00000000  1
  N  N0  1  0.11561200  0.11561200  0.18857900  1
  N  N1  1  0.92703300  0.92703300  0.81142100  1
  N  N2  1  0.11561200  0.92703300  0.00000000  1
  N  N3  1  0.92703300  0.11561200  0.00000000  1
  N  N4  1  0.49847800  0.49847800  0.49519500  1
  N  N5  1  0.00328300  0.00328300  0.50480500  1
  N  N6  1  0.49847800  0.00328300  0.00000000  1
  N  N7  1  0.00328300  0.49847800  0.00000000  1
  N  N8  1  0.74987500  0.24987500  0.50000000  1
  N  N9  1  0.24987500  0.74987500  0.50000000  1
  Cl  Cl0  1  0.21686200  0.43756800  0.22070500  1
  Cl  Cl1  1  0.21686200  0.99615700  0.77929500  1
  Cl  Cl2  1  0.43756800  0.21686200  0.22070500  1
  Cl  Cl3  1  0.99615700  0.21686200  0.77929500  1
  Cl  Cl4  1  0.77311900  0.56950100  0.79638200  1
  Cl  Cl5  1  0.77311900  0.97673600  0.20361800  1
  Cl  Cl6  1  0.56950100  0.77311900  0.79638200  1
  Cl  Cl7  1  0.97673600  0.77311900  0.20361800  1
  Cl  Cl8  1  0.13129300  0.33406100  0.47478000  1
  Cl  Cl9  1  0.85928100  0.65651200  0.52522000  1
  Cl  Cl10  1  0.13129300  0.65651200  0.79723100  1
  Cl  Cl11  1  0.85928100  0.33406100  0.20276900  1
  Cl  Cl12  1  0.33406100  0.85928100  0.20276900  1
  Cl  Cl13  1  0.65651200  0.13129300  0.79723100  1
  Cl  Cl14  1  0.33406100  0.13129300  0.47478000  1
  Cl  Cl15  1  0.65651200  0.85928100  0.52522000  1
  Cl  Cl16  1  0.34868000  0.34868000  0.00000000  1
loop_
_geom_bond_atom_site_label_1
_geom_bond_atom_site_label_2
_geom_bond_distance
_geom_bond_site_symmetry_2
N0 Ta4 2.079025 1_555
N0 Ta2 2.109094 1_545
N0 Ta0 2.109094 1_455
N1 Ta4 2.079025 1_666
N1 Ta3 2.109102 1_555
N1 Ta1 2.109102 1_555
N2 Ta4 2.079025 1_565
N2 Ta2 2.109102 1_555
N2 Ta1 2.109102 1_454
N3 Ta4 2.079025 1_655
N3 Ta0 2.109102 1_555
N3 Ta3 2.109102 1_544
Cl0 Ta0 2.482303 1_455
Cl1 Ta1 2.482293 1_455
Cl2 Ta2 2.482303 1_545
Cl3 Ta3 2.482293 1_545
Cl4 Ta1 2.303931 1_555
Cl5 Ta0 2.303931 1_565
Cl6 Ta3 2.303931 1_555
Cl7 Ta2 2.303931 1_655
Cl8 Ta0 2.314976 1_455
Cl9 Ta1 2.314975 1_555
Cl10 Ta1 2.314985 1_455
Cl11 Ta0 2.314985 1_555
Cl12 Ta2 2.314985 1_555
Cl13 Ta3 2.314985 1_545
Cl14 Ta2 2.314976 1_545
Cl15 Ta3 2.314975 1_555
Cl16 Ta4 2.366600 1_555
