# generated using pymatgen
data_RbCd6C12BrO26
_symmetry_space_group_name_H-M   'P 1'
_cell_length_a   9.81588134
_cell_length_b   9.81588134
_cell_length_c   9.81588152
_cell_angle_alpha   58.13600644
_cell_angle_beta   58.13600644
_cell_angle_gamma   58.13600766
_symmetry_Int_Tables_number   1
_chemical_formula_structural   RbCd6C12BrO26
_chemical_formula_sum   'Rb1 Cd6 C12 Br1 O26'
_cell_volume   640.19017453
_cell_formula_units_Z   1
loop_
 _symmetry_equiv_pos_site_id
 _symmetry_equiv_pos_as_xyz
  1  'x, y, z'
loop_
 _atom_site_type_symbol
 _atom_site_label
 _atom_site_symmetry_multiplicity
 _atom_site_fract_x
 _atom_site_fract_y
 _atom_site_fract_z
 _atom_site_occupancy
  Rb  Rb0  1  0.00000000  0.00000000  0.00000000  1
  Cd  Cd0  1  0.28712100  0.77691900  0.64802100  1
  Cd  Cd1  1  0.64802100  0.28712100  0.77691900  1
  Cd  Cd2  1  0.77691900  0.64802100  0.28712100  1
  Cd  Cd3  1  0.71287900  0.22308100  0.35197900  1
  Cd  Cd4  1  0.35197900  0.71287900  0.22308100  1
  Cd  Cd5  1  0.22308100  0.35197900  0.71287900  1
  C  C0  1  0.42885000  0.04339700  0.56825900  1
  C  C1  1  0.56825900  0.42885000  0.04339700  1
  C  C2  1  0.04339700  0.56825900  0.42885000  1
  C  C3  1  0.57115000  0.95660300  0.43174100  1
  C  C4  1  0.43174100  0.57115000  0.95660300  1
  C  C5  1  0.95660300  0.43174100  0.57115000  1
  C  C6  1  0.03434700  0.57584100  0.94536700  1
  C  C7  1  0.94536700  0.03434700  0.57584100  1
  C  C8  1  0.57584100  0.94536700  0.03434700  1
  C  C9  1  0.96565300  0.42415900  0.05463300  1
  C  C10  1  0.05463300  0.96565300  0.42415900  1
  C  C11  1  0.42415900  0.05463300  0.96565300  1
  Br  Br0  1  0.50000000  0.50000000  0.50000000  1
  O  O0  1  0.44120900  0.55265200  0.83154900  1
  O  O1  1  0.83154900  0.44120900  0.55265200  1
  O  O2  1  0.55265200  0.83154900  0.44120900  1
  O  O3  1  0.55879100  0.44734800  0.16845100  1
  O  O4  1  0.16845100  0.55879100  0.44734800  1
  O  O5  1  0.44734800  0.16845100  0.55879100  1
  O  O6  1  0.30852300  0.98759100  0.67592900  1
  O  O7  1  0.67592900  0.30852300  0.98759100  1
  O  O8  1  0.98759100  0.67592900  0.30852300  1
  O  O9  1  0.69147700  0.01240900  0.32407100  1
  O  O10  1  0.32407100  0.69147700  0.01240900  1
  O  O11  1  0.01240900  0.32407100  0.69147700  1
  O  O12  1  0.12973400  0.58849800  0.78973500  1
  O  O13  1  0.78973500  0.12973400  0.58849800  1
  O  O14  1  0.58849800  0.78973500  0.12973400  1
  O  O15  1  0.87026600  0.41150200  0.21026500  1
  O  O16  1  0.21026500  0.87026600  0.41150200  1
  O  O17  1  0.41150200  0.21026500  0.87026600  1
  O  O18  1  0.01452500  0.99387700  0.67544300  1
  O  O19  1  0.67544300  0.01452500  0.99387700  1
  O  O20  1  0.99387700  0.67544300  0.01452500  1
  O  O21  1  0.98547500  0.00612300  0.32455700  1
  O  O22  1  0.32455700  0.98547500  0.00612300  1
  O  O23  1  0.00612300  0.32455700  0.98547500  1
  O  O24  1  0.25724100  0.25724100  0.25724100  1
  O  O25  1  0.74275900  0.74275900  0.74275900  1
loop_
_geom_bond_atom_site_label_1
_geom_bond_atom_site_label_2
_geom_bond_distance
_geom_bond_site_symmetry_2
Cd0 O6 2.347991 1_555
Cd0 O0 2.356573 1_555
Cd0 O18 2.365564 1_555
Cd0 O16 2.381620 1_555
Cd0 O12 2.402891 1_555
Cd0 O2 2.437610 1_555
Cd1 O7 2.347991 1_555
Cd1 O1 2.356573 1_555
Cd1 O19 2.365564 1_555
Cd1 O17 2.381620 1_555
Cd1 O13 2.402891 1_555
Cd1 O0 2.437610 1_555
Cd2 O8 2.347991 1_555
Cd2 O2 2.356573 1_555
Cd2 O20 2.365564 1_555
Cd2 O15 2.381620 1_555
Cd2 O14 2.402891 1_555
Cd2 O1 2.437610 1_555
Cd3 O9 2.347991 1_555
Cd3 O3 2.356573 1_555
Cd3 O21 2.365564 1_555
Cd3 O13 2.381620 1_555
Cd3 O15 2.402891 1_555
Cd3 O5 2.437610 1_555
Cd4 O10 2.347991 1_555
Cd4 O4 2.356573 1_555
Cd4 O22 2.365564 1_555
Cd4 O14 2.381620 1_555
Cd4 O16 2.402891 1_555
Cd4 O3 2.437610 1_555
Cd5 O11 2.347991 1_555
Cd5 O5 2.356573 1_555
Cd5 O23 2.365564 1_555
Cd5 O12 2.381620 1_555
Cd5 O17 2.402891 1_555
Cd5 O4 2.437610 1_555
C0 O6 1.251393 1_545
C0 O5 1.282755 1_555
C1 O7 1.251393 1_554
C1 O3 1.282755 1_555
C2 O8 1.251393 1_455
C2 O4 1.282755 1_555
C3 O9 1.251393 1_565
C3 O2 1.282755 1_555
C4 O10 1.251393 1_556
C4 O0 1.282755 1_555
C5 O11 1.251393 1_655
C5 O1 1.282755 1_555
C6 O20 1.257162 1_456
C6 O12 1.279885 1_555
C7 O18 1.257162 1_645
C7 O13 1.279885 1_555
C8 O19 1.257162 1_564
C8 O14 1.279885 1_555
C9 O23 1.257162 1_654
C9 O15 1.279885 1_555
C10 O21 1.257162 1_465
C10 O16 1.279885 1_555
C11 O22 1.257162 1_546
C11 O17 1.279885 1_555
Br0 Cd2 2.972120 1_555
Br0 Cd5 2.972120 1_555
Br0 Cd0 2.972120 1_555
Br0 Cd3 2.972120 1_555
Br0 Cd1 2.972120 1_555
Br0 Cd4 2.972120 1_555
O6 Rb0 3.025502 1_566
O7 Rb0 3.025502 1_656
O8 Rb0 3.025502 1_665
O9 Rb0 3.025502 1_655
O10 Rb0 3.025502 1_565
O11 Rb0 3.025502 1_556
O18 Rb0 3.144343 1_566
O19 Rb0 3.144343 1_656
O20 Rb0 3.144343 1_665
O21 Rb0 3.144343 1_655
O22 Rb0 3.144343 1_565
O23 Rb0 3.144343 1_556
