# generated using pymatgen
data_YAlPd
_symmetry_space_group_name_H-M   'P 1'
_cell_length_a   4.45669144
_cell_length_b   6.95941985
_cell_length_c   7.67219740
_cell_angle_alpha   90.00000000
_cell_angle_beta   90.00000000
_cell_angle_gamma   90.00000000
_symmetry_Int_Tables_number   1
_chemical_formula_structural   YAlPd
_chemical_formula_sum   'Y4 Al4 Pd4'
_cell_volume   237.96077384
_cell_formula_units_Z   4
loop_
 _symmetry_equiv_pos_site_id
 _symmetry_equiv_pos_as_xyz
  1  'x, y, z'
loop_
 _atom_site_type_symbol
 _atom_site_label
 _atom_site_symmetry_multiplicity
 _atom_site_fract_x
 _atom_site_fract_y
 _atom_site_fract_z
 _atom_site_occupancy
  Y  Y0  1  0.75000000  0.47156773  0.18277180  1
  Y  Y1  1  0.75000000  0.97156773  0.31722820  1
  Y  Y2  1  0.25000000  0.52843227  0.81722820  1
  Y  Y3  1  0.25000000  0.02843227  0.68277180  1
  Al  Al0  1  0.75000000  0.35134000  0.56556274  1
  Al  Al1  1  0.75000000  0.85134000  0.93443726  1
  Al  Al2  1  0.25000000  0.64866000  0.43443726  1
  Al  Al3  1  0.25000000  0.14866000  0.06556274  1
  Pd  Pd0  1  0.75000000  0.22218428  0.88643461  1
  Pd  Pd1  1  0.75000000  0.72218428  0.61356539  1
  Pd  Pd2  1  0.25000000  0.77781572  0.11356539  1
  Pd  Pd3  1  0.25000000  0.27781572  0.38643461  1
loop_
_geom_bond_atom_site_label_1
_geom_bond_atom_site_label_2
_geom_bond_distance
_geom_bond_site_symmetry_2
Al0 Pd1 2.607006 1_555
Al0 Pd0 2.620754 1_555
Al0 Pd3 2.667595 1_555
Al0 Pd3 2.667595 1_655
Al0 Y0 3.053714 1_555
Al0 Y2 3.195712 1_555
Al0 Y2 3.195712 1_655
Al0 Y1 3.258141 1_545
Al0 Y3 3.290032 1_655
Al0 Y3 3.290032 1_555
Al1 Pd0 2.607006 1_565
Al1 Pd1 2.620754 1_555
Al1 Pd2 2.667595 1_556
Al1 Pd2 2.667595 1_656
Al1 Y1 3.053714 1_556
Al1 Y3 3.195712 1_665
Al1 Y3 3.195712 1_565
Al1 Y0 3.258141 1_556
Al1 Y2 3.290032 1_555
Al1 Y2 3.290032 1_655
Al2 Pd3 2.607006 1_555
Al2 Pd2 2.620754 1_555
Al2 Pd1 2.667595 1_555
Al2 Pd1 2.667595 1_455
Al2 Y2 3.053714 1_555
Al2 Y0 3.195712 1_455
Al2 Y0 3.195712 1_555
Al2 Y3 3.258141 1_565
Al2 Y1 3.290032 1_455
Al2 Y1 3.290032 1_555
Al3 Pd2 2.607006 1_545
Al3 Pd3 2.620754 1_555
Al3 Pd0 2.667595 1_454
Al3 Pd0 2.667595 1_554
Al3 Y3 3.053714 1_554
Al3 Y1 3.195712 1_545
Al3 Y1 3.195712 1_445
Al3 Y2 3.258141 1_554
Al3 Y0 3.290032 1_455
Al3 Y0 3.290032 1_555
Pd0 Y0 2.860288 1_556
Pd0 Y3 3.037309 1_555
Pd0 Y3 3.037309 1_655
Pd0 Y2 3.128885 1_655
Pd0 Y2 3.128885 1_555
Pd1 Y1 2.860288 1_555
Pd1 Y2 3.037309 1_655
Pd1 Y2 3.037309 1_555
Pd1 Y3 3.128885 1_565
Pd1 Y3 3.128885 1_665
Pd2 Y2 2.860288 1_554
Pd2 Y1 3.037309 1_555
Pd2 Y1 3.037309 1_455
Pd2 Y0 3.128885 1_455
Pd2 Y0 3.128885 1_555
Pd3 Y3 2.860288 1_555
Pd3 Y0 3.037309 1_455
Pd3 Y0 3.037309 1_555
Pd3 Y1 3.128885 1_445
Pd3 Y1 3.128885 1_545
