# generated using pymatgen
data_YbGaGe
_symmetry_space_group_name_H-M   'P 1'
_cell_length_a   4.24488950
_cell_length_b   4.24488950
_cell_length_c   16.61801700
_cell_angle_alpha   90.00000000
_cell_angle_beta   90.00000000
_cell_angle_gamma   119.99999222
_symmetry_Int_Tables_number   1
_chemical_formula_structural   YbGaGe
_chemical_formula_sum   'Yb4 Ga4 Ge4'
_cell_volume   259.32395936
_cell_formula_units_Z   4
loop_
 _symmetry_equiv_pos_site_id
 _symmetry_equiv_pos_as_xyz
  1  'x, y, z'
loop_
 _atom_site_type_symbol
 _atom_site_label
 _atom_site_symmetry_multiplicity
 _atom_site_fract_x
 _atom_site_fract_y
 _atom_site_fract_z
 _atom_site_occupancy
  Yb  Yb0  1  0.00000000  0.00000000  0.75000000  1
  Yb  Yb1  1  0.00000000  0.00000000  0.25000000  1
  Yb  Yb2  1  0.00000000  0.00000000  0.50000000  1
  Yb  Yb3  1  0.00000000  0.00000000  0.00000000  1
  Ga  Ga0  1  0.66666700  0.33333300  0.84206400  1
  Ga  Ga1  1  0.66666700  0.33333300  0.65793600  1
  Ga  Ga2  1  0.33333300  0.66666700  0.15793600  1
  Ga  Ga3  1  0.33333300  0.66666700  0.34206400  1
  Ge  Ge0  1  0.66666700  0.33333300  0.11060700  1
  Ge  Ge1  1  0.66666700  0.33333300  0.38939300  1
  Ge  Ge2  1  0.33333300  0.66666700  0.88939300  1
  Ge  Ge3  1  0.33333300  0.66666700  0.61060700  1
loop_
_geom_bond_atom_site_label_1
_geom_bond_atom_site_label_2
_geom_bond_distance
_geom_bond_site_symmetry_2
Ga0 Ge2 2.573899 1_545
Ga0 Ge2 2.573899 1_655
Ga0 Ge2 2.573906 1_555
Ga0 Yb0 2.889119 1_655
Ga0 Yb0 2.889122 1_555
Ga0 Yb0 2.889122 1_665
Ga1 Ge3 2.573899 1_545
Ga1 Ge3 2.573899 1_655
Ga1 Ge3 2.573906 1_555
Ga1 Yb0 2.889119 1_655
Ga1 Yb0 2.889122 1_555
Ga1 Yb0 2.889122 1_665
Ga2 Ge0 2.573899 1_455
Ga2 Ge0 2.573899 1_565
Ga2 Ge0 2.573906 1_555
Ga2 Yb1 2.889119 1_565
Ga2 Yb1 2.889122 1_665
Ga2 Yb1 2.889122 1_555
Ga3 Ge1 2.573899 1_455
Ga3 Ge1 2.573899 1_565
Ga3 Ge1 2.573906 1_555
Ga3 Yb1 2.889119 1_565
Ga3 Yb1 2.889122 1_555
Ga3 Yb1 2.889122 1_665
Ge0 Yb3 3.063470 1_655
Ge0 Yb3 3.063473 1_665
Ge0 Yb3 3.063473 1_555
Ge1 Yb2 3.063470 1_655
Ge1 Yb2 3.063473 1_665
Ge1 Yb2 3.063473 1_555
Ge2 Yb3 3.063470 1_566
Ge2 Yb3 3.063473 1_556
Ge2 Yb3 3.063473 1_666
Ge3 Yb2 3.063470 1_565
Ge3 Yb2 3.063473 1_665
Ge3 Yb2 3.063473 1_555
