# generated using pymatgen
data_PrY(Co3Ni2)2
_symmetry_space_group_name_H-M   'P 1'
_cell_length_a   3.95705700
_cell_length_b   5.00226700
_cell_length_c   8.55820500
_cell_angle_alpha   90.00000000
_cell_angle_beta   90.00000000
_cell_angle_gamma   90.00000000
_symmetry_Int_Tables_number   1
_chemical_formula_structural   PrY(Co3Ni2)2
_chemical_formula_sum   'Pr1 Y1 Co6 Ni4'
_cell_volume   169.40329766
_cell_formula_units_Z   1
loop_
 _symmetry_equiv_pos_site_id
 _symmetry_equiv_pos_as_xyz
  1  'x, y, z'
loop_
 _atom_site_type_symbol
 _atom_site_label
 _atom_site_symmetry_multiplicity
 _atom_site_fract_x
 _atom_site_fract_y
 _atom_site_fract_z
 _atom_site_occupancy
  Pr  Pr0  1  0.00000000  0.50000000  0.00000000  1
  Y  Y0  1  0.00000000  0.00000000  0.50000000  1
  Co  Co0  1  0.00000000  0.50000000  0.34100000  1
  Co  Co1  1  0.00000000  0.00000000  0.83435300  1
  Co  Co2  1  0.00000000  0.00000000  0.16564700  1
  Co  Co3  1  0.00000000  0.50000000  0.65900000  1
  Co  Co4  1  0.50000000  0.50000000  0.50000000  1
  Co  Co5  1  0.50000000  0.00000000  0.00000000  1
  Ni  Ni0  1  0.50000000  0.75281900  0.25375000  1
  Ni  Ni1  1  0.50000000  0.24718100  0.74625000  1
  Ni  Ni2  1  0.50000000  0.24718100  0.25375000  1
  Ni  Ni3  1  0.50000000  0.75281900  0.74625000  1
loop_
_geom_bond_atom_site_label_1
_geom_bond_atom_site_label_2
_geom_bond_distance
_geom_bond_site_symmetry_2
Co0 Co4 2.401297 1_455
Co0 Co4 2.401297 1_555
Co0 Ni0 2.464047 1_555
Co0 Ni0 2.464047 1_455
Co0 Ni2 2.464047 1_555
Co0 Ni2 2.464047 1_455
Co0 Y0 2.847336 1_565
Co0 Y0 2.847336 1_555
Co0 Pr0 2.918348 1_555
Co1 Co5 2.433985 1_456
Co1 Co5 2.433985 1_556
Co1 Ni1 2.451926 1_555
Co1 Ni1 2.451926 1_455
Co1 Ni3 2.451926 1_545
Co1 Ni3 2.451926 1_445
Co1 Y0 2.861462 1_555
Co1 Pr0 2.874956 1_556
Co1 Pr0 2.874956 1_546
Co2 Co5 2.433985 1_455
Co2 Co5 2.433985 1_555
Co2 Ni2 2.451926 1_555
Co2 Ni2 2.451926 1_455
Co2 Ni0 2.451926 1_445
Co2 Ni0 2.451926 1_545
Co2 Y0 2.861462 1_555
Co2 Pr0 2.874956 1_555
Co2 Pr0 2.874956 1_545
Co3 Co4 2.401297 1_455
Co3 Co4 2.401297 1_555
Co3 Ni3 2.464047 1_555
Co3 Ni3 2.464047 1_455
Co3 Ni1 2.464047 1_455
Co3 Ni1 2.464047 1_555
Co3 Y0 2.847336 1_565
Co3 Y0 2.847336 1_555
Co3 Pr0 2.918348 1_556
Co4 Ni0 2.457797 1_555
Co4 Ni3 2.457797 1_555
Co4 Ni2 2.457797 1_555
Co4 Ni1 2.457797 1_555
Co4 Y0 3.189082 1_565
Co4 Y0 3.189082 1_555
Co4 Y0 3.189082 1_665
Co4 Y0 3.189082 1_655
Co5 Ni1 2.498977 1_554
Co5 Ni2 2.498977 1_555
Co5 Ni3 2.498977 1_544
Co5 Ni0 2.498977 1_545
Co5 Pr0 3.189082 1_545
Co5 Pr0 3.189082 1_645
Co5 Pr0 3.189082 1_555
Co5 Pr0 3.189082 1_655
Ni0 Ni2 2.472931 1_565
Ni0 Ni2 2.529336 1_555
Ni0 Y0 3.144010 1_565
Ni0 Y0 3.144010 1_665
Ni0 Pr0 3.198437 1_555
Ni0 Pr0 3.198437 1_655
Ni1 Ni3 2.472931 1_545
Ni1 Ni3 2.529336 1_555
Ni1 Y0 3.144010 1_655
Ni1 Y0 3.144010 1_555
Ni1 Pr0 3.198437 1_656
Ni1 Pr0 3.198437 1_556
Ni2 Y0 3.144010 1_555
Ni2 Y0 3.144010 1_655
Ni2 Pr0 3.198437 1_655
Ni2 Pr0 3.198437 1_555
Ni3 Y0 3.144010 1_565
Ni3 Y0 3.144010 1_665
Ni3 Pr0 3.198437 1_656
Ni3 Pr0 3.198437 1_556
