# generated using pymatgen
data_SiH27C10N3F2
_symmetry_space_group_name_H-M   'P 1'
_cell_length_a   8.29474578
_cell_length_b   8.29478384
_cell_length_c   16.21843000
_cell_angle_alpha   90.00000000
_cell_angle_beta   90.00000000
_cell_angle_gamma   119.99963957
_symmetry_Int_Tables_number   1
_chemical_formula_structural   SiH27C10N3F2
_chemical_formula_sum   'Si2 H54 C20 N6 F4'
_cell_volume   966.38275834
_cell_formula_units_Z   2
loop_
 _symmetry_equiv_pos_site_id
 _symmetry_equiv_pos_as_xyz
  1  'x, y, z'
loop_
 _atom_site_type_symbol
 _atom_site_label
 _atom_site_symmetry_multiplicity
 _atom_site_fract_x
 _atom_site_fract_y
 _atom_site_fract_z
 _atom_site_occupancy
  Si  Si0  1  0.33335300  0.66667700  0.75060200  1
  Si  Si1  1  0.66664700  0.33332300  0.25060200  1
  H  H0  1  0.98949800  0.53719700  0.75001400  1
  H  H1  1  0.46280800  0.45228200  0.75001300  1
  H  H2  1  0.54771900  0.01052300  0.75001400  1
  H  H3  1  0.01050200  0.46280300  0.25001400  1
  H  H4  1  0.53719200  0.54771800  0.25001300  1
  H  H5  1  0.45228100  0.98947700  0.25001400  1
  H  H6  1  0.97438600  0.63715800  0.08262400  1
  H  H7  1  0.36284300  0.33722700  0.08262300  1
  H  H8  1  0.66277000  0.02561400  0.08262400  1
  H  H9  1  0.02561400  0.36284200  0.58262400  1
  H  H10  1  0.63715700  0.66277300  0.58262300  1
  H  H11  1  0.33723000  0.97438600  0.58262400  1
  H  H12  1  0.01866900  0.29511900  0.93176300  1
  H  H13  1  0.70487800  0.72355000  0.93176300  1
  H  H14  1  0.27645200  0.98133000  0.93176300  1
  H  H15  1  0.98133100  0.70488100  0.43176300  1
  H  H16  1  0.29512200  0.27645000  0.43176300  1
  H  H17  1  0.72354800  0.01867000  0.43176300  1
  H  H18  1  0.10146100  0.75083400  0.69490500  1
  H  H19  1  0.24917000  0.35062500  0.69490500  1
  H  H20  1  0.64939800  0.89856200  0.69490400  1
  H  H21  1  0.89853900  0.24916600  0.19490500  1
  H  H22  1  0.75083000  0.64937500  0.19490500  1
  H  H23  1  0.35060200  0.10143800  0.19490400  1
  H  H24  1  0.89851300  0.24905800  0.30510100  1
  H  H25  1  0.75093700  0.64945600  0.30510100  1
  H  H26  1  0.35052200  0.10146500  0.30510200  1
  H  H27  1  0.10148700  0.75094200  0.80510100  1
  H  H28  1  0.24906300  0.35054400  0.80510100  1
  H  H29  1  0.64947800  0.89853500  0.80510200  1
  H  H30  1  0.17863500  0.86268500  0.07722100  1
  H  H31  1  0.13731300  0.31595000  0.07722100  1
  H  H32  1  0.68405100  0.82136600  0.07722100  1
  H  H33  1  0.82136500  0.13731500  0.57722100  1
  H  H34  1  0.86268700  0.68405000  0.57722100  1
  H  H35  1  0.31594900  0.17863400  0.57722100  1
  H  H36  1  0.77638400  0.16161400  0.90873600  1
  H  H37  1  0.83838700  0.61477200  0.90873600  1
  H  H38  1  0.38522900  0.22361400  0.90873600  1
  H  H39  1  0.22361600  0.83838600  0.40873600  1
  H  H40  1  0.16161300  0.38522800  0.40873600  1
  H  H41  1  0.61477100  0.77638600  0.40873600  1
  H  H42  1  0.12699400  0.69818200  0.99557200  1
  H  H43  1  0.30181700  0.42880900  0.99557200  1
  H  H44  1  0.57119000  0.87300800  0.99557200  1
  H  H45  1  0.87300600  0.30181800  0.49557200  1
  H  H46  1  0.69818300  0.57119100  0.49557200  1
  H  H47  1  0.42881000  0.12699200  0.49557200  1
  H  H48  1  0.85071400  0.29105100  0.00278400  1
  H  H49  1  0.70895000  0.55966600  0.00278500  1
  H  H50  1  0.44033700  0.14928400  0.00278500  1
  H  H51  1  0.14928600  0.70894900  0.50278400  1
  H  H52  1  0.29105000  0.44033400  0.50278500  1
  H  H53  1  0.55966300  0.85071600  0.50278500  1
  C  C0  1  0.06678900  0.75151200  0.04121000  1
  C  C1  1  0.24848800  0.31527700  0.04121100  1
  C  C2  1  0.68472100  0.93321200  0.04121100  1
  C  C3  1  0.93321100  0.24848800  0.54121000  1
  C  C4  1  0.75151200  0.68472300  0.54121100  1
  C  C5  1  0.31527900  0.06678800  0.54121100  1
  C  C6  1  0.88044300  0.20884700  0.95851800  1
  C  C7  1  0.79115200  0.67159800  0.95851800  1
  C  C8  1  0.32840500  0.11955500  0.95851800  1
  C  C9  1  0.11955700  0.79115300  0.45851800  1
  C  C10  1  0.20884800  0.32840200  0.45851800  1
  C  C11  1  0.67159500  0.88044500  0.45851800  1
  C  C12  1  0.00000100  0.00000100  0.99971900  1
  C  C13  1  0.99999900  0.99999900  0.49971900  1
  C  C14  1  0.11086700  0.67916600  0.75002000  1
  C  C15  1  0.32084500  0.43169400  0.75001900  1
  C  C16  1  0.56832600  0.88915900  0.75002000  1
  C  C17  1  0.88913300  0.32083400  0.25002000  1
  C  C18  1  0.67915500  0.56830600  0.25001900  1
  C  C19  1  0.43167400  0.11084100  0.25002000  1
  N  N0  1  0.95463400  0.81908500  0.00035700  1
  N  N1  1  0.18091400  0.13554800  0.00035800  1
  N  N2  1  0.86444900  0.04536600  0.00035800  1
  N  N3  1  0.04536600  0.18091500  0.50035700  1
  N  N4  1  0.81908600  0.86445200  0.50035800  1
  N  N5  1  0.13555100  0.95463400  0.50035800  1
  F  F0  1  0.33336100  0.66668100  0.86252900  1
  F  F1  1  0.66663900  0.33331900  0.36252900  1
  F  F2  1  0.66664200  0.33332200  0.13737300  1
  F  F3  1  0.33335800  0.66667800  0.63737300  1
loop_
_geom_bond_atom_site_label_1
_geom_bond_atom_site_label_2
_geom_bond_distance
_geom_bond_site_symmetry_2
C0 H30 1.093920 1_555
C0 H6 1.100600 1_455
C0 H42 1.101742 1_554
C0 N0 1.462890 1_455
C1 H31 1.093919 1_555
C1 H7 1.100584 1_555
C1 H43 1.101742 1_554
C1 N1 1.462905 1_555
C2 H32 1.093919 1_555
C2 H8 1.100580 1_565
C2 H44 1.101734 1_554
C2 N2 1.462895 1_565
C3 H33 1.093920 1_555
C3 H9 1.100600 1_655
C3 H45 1.101742 1_555
C3 N3 1.462890 1_655
C4 H34 1.093919 1_555
C4 H10 1.100584 1_555
C4 H46 1.101742 1_555
C4 N4 1.462905 1_555
C5 H35 1.093919 1_555
C5 H11 1.100580 1_545
C5 H47 1.101734 1_555
C5 N5 1.462895 1_545
C6 H12 1.092927 1_655
C6 H48 1.099685 1_556
C6 H36 1.101009 1_555
C6 N2 1.461853 1_556
C7 H13 1.092925 1_555
C7 H49 1.099692 1_556
C7 H37 1.101017 1_555
C7 N0 1.461852 1_556
C8 H14 1.092924 1_545
C8 H50 1.099689 1_556
C8 H38 1.101011 1_555
C8 N1 1.461872 1_556
C9 H15 1.092927 1_455
C9 H51 1.099685 1_555
C9 H39 1.101009 1_555
C9 N5 1.461853 1_555
C10 H16 1.092925 1_555
C10 H52 1.099692 1_555
C10 H40 1.101017 1_555
C10 N3 1.461852 1_555
C11 H17 1.092924 1_565
C11 H53 1.099689 1_555
C11 H41 1.101011 1_555
C11 N4 1.461872 1_555
C12 N1 1.352379 1_556
C12 N0 1.352401 1_446
C12 N2 1.352404 1_456
C13 N4 1.352379 1_555
C13 N3 1.352401 1_665
C13 N5 1.352404 1_655
C14 H27 1.097666 1_555
C14 H18 1.097671 1_555
C14 H0 1.102149 1_455
C14 Si0 1.899404 1_555
C15 H19 1.097659 1_555
C15 H28 1.097675 1_555
C15 H1 1.102129 1_555
C15 Si0 1.899408 1_555
C16 H29 1.097667 1_555
C16 H20 1.097679 1_555
C16 H2 1.102138 1_565
C16 Si0 1.899395 1_555
C17 H24 1.097666 1_555
C17 H21 1.097671 1_555
C17 H3 1.102149 1_655
C17 Si1 1.899404 1_555
C18 H22 1.097659 1_555
C18 H25 1.097675 1_555
C18 H4 1.102129 1_555
C18 Si1 1.899408 1_555
C19 H26 1.097667 1_555
C19 H23 1.097679 1_555
C19 H5 1.102138 1_545
C19 Si1 1.899395 1_555
F0 Si0 1.815280 1_555
F1 Si1 1.815280 1_555
F2 Si1 1.836397 1_555
F3 Si0 1.836397 1_555
