# generated using pymatgen
data_GdGePt
_symmetry_space_group_name_H-M   'P 1'
_cell_length_a   4.38935065
_cell_length_b   7.11223704
_cell_length_c   7.60498655
_cell_angle_alpha   90.00136350
_cell_angle_beta   89.99679181
_cell_angle_gamma   90.01127271
_symmetry_Int_Tables_number   1
_chemical_formula_structural   GdGePt
_chemical_formula_sum   'Gd4 Ge4 Pt4'
_cell_volume   237.41324274
_cell_formula_units_Z   4
loop_
 _symmetry_equiv_pos_site_id
 _symmetry_equiv_pos_as_xyz
  1  'x, y, z'
loop_
 _atom_site_type_symbol
 _atom_site_label
 _atom_site_symmetry_multiplicity
 _atom_site_fract_x
 _atom_site_fract_y
 _atom_site_fract_z
 _atom_site_occupancy
  Gd  Gd0  1  0.75001314  0.00336167  0.79527488  1
  Gd  Gd1  1  0.74999148  0.50339107  0.70485466  1
  Gd  Gd2  1  0.24998592  0.99665241  0.20483368  1
  Gd  Gd3  1  0.25002012  0.49647157  0.29523918  1
  Ge  Ge0  1  0.74993910  0.68923137  0.08711014  1
  Ge  Ge1  1  0.75004142  0.18929203  0.41278846  1
  Ge  Ge2  1  0.25000063  0.31078978  0.91287219  1
  Ge  Ge3  1  0.25002410  0.81083942  0.58715837  1
  Pt  Pt0  1  0.74999882  0.29514959  0.08392964  1
  Pt  Pt1  1  0.75000566  0.79524215  0.41603871  1
  Pt  Pt2  1  0.25005138  0.70477216  0.91618904  1
  Pt  Pt3  1  0.24992822  0.20480580  0.58370906  1
loop_
_geom_bond_atom_site_label_1
_geom_bond_atom_site_label_2
_geom_bond_distance
_geom_bond_site_symmetry_2
Gd0 Pt0 3.020841 1_556
Gd0 Ge3 3.032390 1_545
Gd0 Ge3 3.032721 1_645
Gd0 Pt3 3.074876 1_655
Gd0 Pt3 3.075938 1_555
Gd0 Ge0 3.149206 1_546
Gd0 Pt2 3.188936 1_545
Gd0 Pt2 3.189813 1_645
Gd0 Ge1 3.195311 1_555
Gd0 Ge2 3.224160 1_655
Gd0 Ge2 3.224752 1_555
Gd0 Pt1 3.241717 1_545
Gd1 Pt1 3.022112 1_555
Gd1 Ge2 3.032162 1_555
Gd1 Ge2 3.032739 1_655
Gd1 Pt2 3.074191 1_555
Gd1 Pt2 3.074293 1_655
Gd1 Ge1 3.150211 1_555
Gd1 Pt3 3.189772 1_555
Gd1 Pt3 3.189894 1_655
Gd1 Ge0 3.193390 1_556
Gd1 Ge3 3.224562 1_655
Gd1 Ge3 3.225021 1_555
Gd1 Pt0 3.241085 1_556
Gd2 Pt2 3.021236 1_554
Gd2 Ge1 3.032246 1_465
Gd2 Ge1 3.032336 1_565
Gd2 Pt1 3.073533 1_455
Gd2 Pt1 3.074187 1_555
Gd2 Ge2 3.149918 1_564
Gd2 Pt0 3.188631 1_565
Gd2 Pt0 3.189199 1_465
Gd2 Ge3 3.193846 1_555
Gd2 Ge0 3.224569 1_455
Gd2 Ge0 3.224807 1_555
Gd2 Pt3 3.239386 1_565
Gd3 Pt3 3.019294 1_555
Gd3 Ge0 3.032886 1_555
Gd3 Ge0 3.033919 1_455
Gd3 Pt0 3.073877 1_455
Gd3 Pt0 3.074018 1_555
Gd3 Ge3 3.150780 1_555
Gd3 Pt1 3.189656 1_555
Gd3 Pt1 3.190248 1_455
Gd3 Ge2 3.193696 1_554
Gd3 Ge1 3.222794 1_455
Gd3 Ge1 3.223575 1_555
Gd3 Pt2 3.241109 1_554
Ge0 Pt2 2.552781 1_554
Ge0 Pt2 2.553466 1_654
Ge0 Pt1 2.612638 1_555
Ge0 Pt0 2.802907 1_555
Ge1 Pt3 2.552728 1_655
Ge1 Pt3 2.553494 1_555
Ge1 Pt0 2.611850 1_555
Ge1 Pt1 2.802686 1_545
Ge2 Pt0 2.553608 1_456
Ge2 Pt0 2.553757 1_556
Ge2 Pt3 2.614291 1_555
Ge2 Pt2 2.802209 1_555
Ge3 Pt1 2.553794 1_555
Ge3 Pt1 2.554021 1_455
Ge3 Pt2 2.613531 1_555
Ge3 Pt3 2.802106 1_565
