# generated using pymatgen
data_Zn2SbWO6
_symmetry_space_group_name_H-M   'P 1'
_cell_length_a   5.18811300
_cell_length_b   5.67299944
_cell_length_c   6.15091872
_cell_angle_alpha   81.19721606
_cell_angle_beta   79.57230290
_cell_angle_gamma   68.80409460
_symmetry_Int_Tables_number   1
_chemical_formula_structural   Zn2SbWO6
_chemical_formula_sum   'Zn2 Sb1 W1 O6'
_cell_volume   165.24093326
_cell_formula_units_Z   1
loop_
 _symmetry_equiv_pos_site_id
 _symmetry_equiv_pos_as_xyz
  1  'x, y, z'
loop_
 _atom_site_type_symbol
 _atom_site_label
 _atom_site_symmetry_multiplicity
 _atom_site_fract_x
 _atom_site_fract_y
 _atom_site_fract_z
 _atom_site_occupancy
  Zn  Zn0  1  0.56648400  0.70396000  0.96433400  1
  Zn  Zn1  1  0.27882600  0.01567500  0.44587300  1
  Sb  Sb0  1  0.47952800  0.38197800  0.55995000  1
  W  W0  1  0.99551600  0.09267100  0.94689500  1
  O  O0  1  0.23339300  0.90970700  0.17135500  1
  O  O1  1  0.87912400  0.19996700  0.63753600  1
  O  O2  1  0.72228900  0.34537500  0.08942900  1
  O  O3  1  0.84155200  0.84497900  0.98392600  1
  O  O4  1  0.27396000  0.25918600  0.83564500  1
  O  O5  1  0.40285100  0.73144600  0.69027200  1
loop_
_geom_bond_atom_site_label_1
_geom_bond_atom_site_label_2
_geom_bond_distance
_geom_bond_site_symmetry_2
O0 W0 1.938679 1_464
O0 Zn1 1.955845 1_565
O0 Zn0 2.042052 1_554
O1 W0 2.037548 1_555
O1 Sb0 2.061855 1_555
O1 Zn1 2.169709 1_655
O2 W0 1.816186 1_554
O2 Zn0 1.985108 1_554
O3 W0 1.819949 1_565
O3 Zn0 1.899582 1_555
O4 W0 1.969407 1_455
O4 Sb0 2.004831 1_555
O5 Zn0 1.982067 1_555
O5 Zn1 2.032689 1_565
O5 Sb0 2.128830 1_555
