# generated using pymatgen
data_Ni11(GeTe2)2
_symmetry_space_group_name_H-M   'P 1'
_cell_length_a   3.70428200
_cell_length_b   3.70428200
_cell_length_c   19.04807900
_cell_angle_alpha   90.00000000
_cell_angle_beta   90.00000000
_cell_angle_gamma   90.00000000
_symmetry_Int_Tables_number   1
_chemical_formula_structural   Ni11(GeTe2)2
_chemical_formula_sum   'Ni11 Ge2 Te4'
_cell_volume   261.37212344
_cell_formula_units_Z   1
loop_
 _symmetry_equiv_pos_site_id
 _symmetry_equiv_pos_as_xyz
  1  'x, y, z'
loop_
 _atom_site_type_symbol
 _atom_site_label
 _atom_site_symmetry_multiplicity
 _atom_site_fract_x
 _atom_site_fract_y
 _atom_site_fract_z
 _atom_site_occupancy
  Ni  Ni0  1  0.00000000  0.50000000  0.41267400  1
  Ni  Ni1  1  0.50000000  0.00000000  0.91136100  1
  Ni  Ni2  1  0.50000000  0.00000000  0.41267400  1
  Ni  Ni3  1  0.00000000  0.50000000  0.91136100  1
  Ni  Ni4  1  0.50000000  0.00000000  0.08921900  1
  Ni  Ni5  1  0.00000000  0.50000000  0.58893400  1
  Ni  Ni6  1  0.00000000  0.50000000  0.08921900  1
  Ni  Ni7  1  0.50000000  0.00000000  0.58893400  1
  Ni  Ni8  1  0.50000000  0.50000000  0.00007100  1
  Ni  Ni9  1  0.00000000  0.00000000  0.50099200  1
  Ni  Ni10  1  0.50000000  0.50000000  0.30910600  1
  Ge  Ge0  1  0.00000000  0.00000000  0.00008300  1
  Ge  Ge1  1  0.50000000  0.50000000  0.50032700  1
  Te  Te0  1  0.00000000  0.00000000  0.31721600  1
  Te  Te1  1  0.50000000  0.50000000  0.82197300  1
  Te  Te2  1  0.50000000  0.50000000  0.17738200  1
  Te  Te3  1  0.00000000  0.00000000  0.67807400  1
loop_
_geom_bond_atom_site_label_1
_geom_bond_atom_site_label_2
_geom_bond_distance
_geom_bond_site_symmetry_2
Ni0 Ni9 2.502103 1_565
Ni0 Ni9 2.502103 1_555
Ni0 Te0 2.595498 1_565
Ni0 Te0 2.595498 1_555
Ni0 Ni2 2.619323 1_555
Ni0 Ni2 2.619323 1_565
Ni0 Ni2 2.619323 1_465
Ni0 Ni2 2.619323 1_455
Ni0 Ni10 2.705966 1_555
Ni0 Ni10 2.705966 1_455
Ni1 Ni8 2.507130 1_546
Ni1 Ni8 2.507130 1_556
Ni1 Te1 2.515852 1_545
Ni1 Te1 2.515852 1_555
Ni1 Ni3 2.619323 1_645
Ni1 Ni3 2.619323 1_545
Ni1 Ni3 2.619323 1_555
Ni1 Ni3 2.619323 1_655
Ni2 Ni9 2.502103 1_555
Ni2 Ni9 2.502103 1_655
Ni2 Te0 2.595498 1_555
Ni2 Te0 2.595498 1_655
Ni3 Ni8 2.507130 1_456
Ni3 Ni8 2.507130 1_556
Ni3 Te1 2.515852 1_455
Ni3 Te1 2.515852 1_555
Ni4 Te2 2.500119 1_555
Ni4 Te2 2.500119 1_545
Ni4 Ni8 2.512760 1_545
Ni4 Ni8 2.512760 1_555
Ni4 Ni6 2.619323 1_645
Ni4 Ni6 2.619323 1_545
Ni4 Ni6 2.619323 1_555
Ni4 Ni6 2.619323 1_655
Ni5 Ni9 2.497293 1_555
Ni5 Ni9 2.497293 1_565
Ni5 Te3 2.512657 1_555
Ni5 Te3 2.512657 1_565
Ni5 Ni7 2.619323 1_455
Ni5 Ni7 2.619323 1_555
Ni5 Ni7 2.619323 1_565
Ni5 Ni7 2.619323 1_465
Ni6 Te2 2.500119 1_555
Ni6 Te2 2.500119 1_455
Ni6 Ni8 2.512760 1_455
Ni6 Ni8 2.512760 1_555
Ni7 Ni9 2.497293 1_555
Ni7 Ni9 2.497293 1_655
Ni7 Te3 2.512657 1_655
Ni7 Te3 2.512657 1_555
Ni10 Te2 2.509089 1_555
Ni10 Te0 2.623874 1_655
Ni10 Te0 2.623874 1_565
Ni10 Te0 2.623874 1_665
Ni10 Te0 2.623874 1_555
Ni10 Ni2 2.705966 1_555
Ni10 Ni2 2.705966 1_565
Ge0 Ni3 2.507284 1_544
Ge0 Ni1 2.507284 1_454
Ge0 Ni3 2.507284 1_554
Ge0 Ni1 2.507284 1_554
Ge0 Ni6 2.512606 1_545
Ge0 Ni6 2.512606 1_555
Ge0 Ni4 2.512606 1_455
Ge0 Ni4 2.512606 1_555
Ge0 Ni8 2.619323 1_555
Ge0 Ni8 2.619323 1_455
Ge0 Ni8 2.619323 1_545
Ge0 Ni8 2.619323 1_445
Ge1 Ni2 2.493604 1_555
Ge1 Ni2 2.493604 1_565
Ge1 Ni0 2.493604 1_555
Ge1 Ni0 2.493604 1_655
Ge1 Ni5 2.505808 1_655
Ge1 Ni7 2.505808 1_555
Ge1 Ni7 2.505808 1_565
Ge1 Ni5 2.505808 1_555
Ge1 Ni9 2.619354 1_665
Ge1 Ni9 2.619354 1_565
Ge1 Ni9 2.619354 1_555
Ge1 Ni9 2.619354 1_655
