# generated using pymatgen
data_Li9Mn2Co5O16
_symmetry_space_group_name_H-M   'P 1'
_cell_length_a   5.08252900
_cell_length_b   5.77616329
_cell_length_c   9.79921023
_cell_angle_alpha   98.11415190
_cell_angle_beta   95.79457607
_cell_angle_gamma   89.92244059
_symmetry_Int_Tables_number   1
_chemical_formula_structural   Li9Mn2Co5O16
_chemical_formula_sum   'Li9 Mn2 Co5 O16'
_cell_volume   283.32092114
_cell_formula_units_Z   1
loop_
 _symmetry_equiv_pos_site_id
 _symmetry_equiv_pos_as_xyz
  1  'x, y, z'
loop_
 _atom_site_type_symbol
 _atom_site_label
 _atom_site_symmetry_multiplicity
 _atom_site_fract_x
 _atom_site_fract_y
 _atom_site_fract_z
 _atom_site_occupancy
  Li  Li0  1  0.38473400  0.30743400  0.73755500  1
  Li  Li1  1  0.62525800  0.18720800  0.26355300  1
  Li  Li2  1  0.86217900  0.06150300  0.73669100  1
  Li  Li3  1  0.87658300  0.55806500  0.74181700  1
  Li  Li4  1  0.12341700  0.44193500  0.25818300  1
  Li  Li5  1  0.37474200  0.81279200  0.73644700  1
  Li  Li6  1  0.61526600  0.69256600  0.26244500  1
  Li  Li7  1  0.13782100  0.93849700  0.26330900  1
  Li  Li8  1  0.50000000  0.00000000  0.50000000  1
  Mn  Mn0  1  0.24984500  0.12946500  0.99892000  1
  Mn  Mn1  1  0.75015500  0.87053500  0.00108000  1
  Co  Co0  1  0.99538100  0.75665500  0.49825800  1
  Co  Co1  1  0.24988400  0.62530900  0.00017100  1
  Co  Co2  1  0.50000000  0.50000000  0.50000000  1
  Co  Co3  1  0.75011600  0.37469100  0.99982900  1
  Co  Co4  1  0.00461900  0.24334500  0.50174200  1
  O  O0  1  0.05981000  0.35459800  0.89439100  1
  O  O1  1  0.31282900  0.24264000  0.38774400  1
  O  O2  1  0.57989700  0.09853300  0.88781200  1
  O  O3  1  0.56124500  0.59756800  0.89533000  1
  O  O4  1  0.79510700  0.46569200  0.38763800  1
  O  O5  1  0.07899900  0.84729600  0.88971600  1
  O  O6  1  0.31429800  0.70172800  0.38890900  1
  O  O7  1  0.83195900  0.95979500  0.37737100  1
  O  O8  1  0.68570200  0.29827200  0.61109100  1
  O  O9  1  0.92100100  0.15270400  0.11028400  1
  O  O10  1  0.16804100  0.04020500  0.62262900  1
  O  O11  1  0.20489300  0.53430800  0.61236200  1
  O  O12  1  0.43875500  0.40243200  0.10467000  1
  O  O13  1  0.68717100  0.75736000  0.61225600  1
  O  O14  1  0.94019000  0.64540200  0.10560900  1
  O  O15  1  0.42010300  0.90146700  0.11218800  1
loop_
_geom_bond_atom_site_label_1
_geom_bond_atom_site_label_2
_geom_bond_distance
_geom_bond_site_symmetry_2
Li0 O10 2.031568 1_555
Li0 O8 2.059732 1_555
Li0 O11 2.069292 1_555
Li0 O2 2.193456 1_555
Li0 O3 2.235230 1_555
Li0 O0 2.357224 1_555
Li1 O4 2.012680 1_555
Li1 O7 2.060669 1_545
Li1 O1 2.093777 1_555
Li1 O9 2.219323 1_555
Li1 O15 2.238902 1_545
Li1 O12 2.261240 1_555
Li2 O10 1.998144 1_655
Li2 O8 2.106809 1_555
Li2 O13 2.131857 1_545
Li2 O2 2.153105 1_555
Li2 O5 2.276016 1_645
Li2 O0 2.283808 1_655
Li3 O13 2.006637 1_555
Li3 O8 2.011060 1_555
Li3 O0 2.166962 1_655
Li3 O11 2.188632 1_655
Li3 O5 2.229347 1_655
Li3 O3 2.296224 1_555
Li4 O1 2.006637 1_555
Li4 O6 2.011060 1_555
Li4 O14 2.166962 1_455
Li4 O4 2.188632 1_455
Li4 O9 2.229347 1_455
Li4 O12 2.296224 1_555
Li5 O11 2.012680 1_555
Li5 O10 2.060669 1_565
Li5 O13 2.093777 1_555
Li5 O5 2.219323 1_555
Li5 O2 2.238902 1_565
Li5 O3 2.261240 1_555
Li6 O7 2.031568 1_555
Li6 O6 2.059732 1_555
Li6 O4 2.069292 1_555
Li6 O15 2.193456 1_555
Li6 O12 2.235230 1_555
Li6 O14 2.357224 1_555
Li7 O7 1.998144 1_455
Li7 O6 2.106809 1_555
Li7 O1 2.131857 1_565
Li7 O15 2.153105 1_555
Li7 O9 2.276016 1_465
Li7 O14 2.283808 1_455
Li8 O13 2.073548 1_545
Li8 O1 2.073548 1_555
Li8 O6 2.076451 1_545
Li8 O8 2.076451 1_555
Li8 O7 2.161967 1_545
Li8 O10 2.161967 1_555
Mn0 O12 1.955420 1_556
Mn0 O0 1.961115 1_555
Mn0 O5 1.969622 1_545
Mn0 O15 1.982612 1_546
Mn0 O9 2.080549 1_456
Mn0 O2 2.084327 1_555
Mn1 O3 1.955420 1_554
Mn1 O14 1.961115 1_555
Mn1 O9 1.969622 1_565
Mn1 O2 1.982612 1_564
Mn1 O5 2.080549 1_654
Mn1 O15 2.084327 1_555
Co0 O7 1.913379 1_555
Co0 O13 2.013413 1_555
Co0 O6 2.032124 1_655
Co0 O10 2.040186 1_665
Co0 O11 2.048130 1_655
Co0 O4 2.074435 1_555
Co1 O5 1.941374 1_554
Co1 O0 1.948622 1_554
Co1 O12 1.948773 1_555
Co1 O15 1.953337 1_555
Co1 O14 1.962805 1_455
Co1 O3 1.966363 1_554
Co2 O6 1.892415 1_555
Co2 O8 1.892415 1_555
Co2 O1 1.912007 1_555
Co2 O13 1.912007 1_555
Co2 O11 1.942252 1_555
Co2 O4 1.942252 1_555
Co3 O9 1.941374 1_556
Co3 O14 1.948622 1_556
Co3 O3 1.948773 1_555
Co3 O2 1.953337 1_555
Co3 O0 1.962805 1_655
Co3 O12 1.966363 1_556
Co4 O10 1.913379 1_555
Co4 O1 2.013413 1_555
Co4 O8 2.032124 1_455
Co4 O7 2.040186 1_445
Co4 O4 2.048130 1_455
Co4 O11 2.074435 1_555
