# generated using pymatgen
data_Ba2Tl2Cu2HgO8
_symmetry_space_group_name_H-M   'P 1'
_cell_length_a   15.07845218
_cell_length_b   15.07845218
_cell_length_c   15.07845218
_cell_angle_alpha   165.09243782
_cell_angle_beta   165.09243782
_cell_angle_gamma   21.14281431
_symmetry_Int_Tables_number   1
_chemical_formula_structural   Ba2Tl2Cu2HgO8
_chemical_formula_sum   'Ba2 Tl2 Cu2 Hg1 O8'
_cell_volume   226.85707548
_cell_formula_units_Z   1
loop_
 _symmetry_equiv_pos_site_id
 _symmetry_equiv_pos_as_xyz
  1  'x, y, z'
loop_
 _atom_site_type_symbol
 _atom_site_label
 _atom_site_symmetry_multiplicity
 _atom_site_fract_x
 _atom_site_fract_y
 _atom_site_fract_z
 _atom_site_occupancy
  Ba  Ba0  1  0.37276700  0.37276700  0.00000000  1
  Ba  Ba1  1  0.62413300  0.62413300  0.00000000  1
  Tl  Tl0  1  0.21373600  0.21373600  0.00000000  1
  Tl  Tl1  1  0.49946700  0.49946700  0.00000000  1
  Cu  Cu0  1  0.94252600  0.94252600  0.00000000  1
  Cu  Cu1  1  0.05572000  0.05572000  0.00000000  1
  Hg  Hg0  1  0.78817100  0.78817100  0.00000000  1
  O  O0  1  0.45009200  0.95009200  0.50000000  1
  O  O1  1  0.95009200  0.45009200  0.50000000  1
  O  O2  1  0.55109000  0.05109000  0.50000000  1
  O  O3  1  0.05109000  0.55109000  0.50000000  1
  O  O4  1  0.28215200  0.28215200  0.00000000  1
  O  O5  1  0.71528400  0.71528400  0.00000000  1
  O  O6  1  0.86001500  0.86001500  0.00000000  1
  O  O7  1  0.14366300  0.14366300  0.00000000  1
loop_
_geom_bond_atom_site_label_1
_geom_bond_atom_site_label_2
_geom_bond_distance
_geom_bond_site_symmetry_2
Ba0 O4 2.686286 1_555
Ba0 O6 2.792016 1_556
Ba0 O6 2.792016 1_444
Ba0 O6 2.792016 1_455
Ba0 O6 2.792016 1_545
Ba0 O1 3.013449 1_454
Ba0 O0 3.013449 1_544
Ba0 O0 3.013449 1_555
Ba0 O1 3.013449 1_555
Ba1 O5 2.702176 1_555
Ba1 O7 2.826243 1_554
Ba1 O7 2.826243 1_565
Ba1 O7 2.826243 1_666
Ba1 O7 2.826243 1_655
Ba1 O3 2.918051 1_655
Ba1 O2 2.918051 1_565
Ba1 O2 2.918051 1_554
Ba1 O3 2.918051 1_554
Cu0 O0 1.968890 1_655
Cu0 O1 1.968890 1_565
Cu0 O0 1.968890 1_554
Cu0 O1 1.968890 1_554
Cu0 O6 2.446043 1_555
Cu1 O2 1.960883 1_454
Cu1 O3 1.960883 1_555
Cu1 O3 1.960883 1_544
Cu1 O2 1.960883 1_555
Cu1 O7 2.607075 1_555
Hg0 O6 2.129819 1_555
Hg0 O5 2.160739 1_555
O0 Tl1 2.443095 1_555
O0 Tl1 2.443095 1_566
O1 Tl1 2.443095 1_555
O1 Tl1 2.443095 1_656
O2 Tl1 2.483595 1_545
O2 Tl1 2.483595 1_556
O3 Tl1 2.483595 1_556
O3 Tl1 2.483595 1_455
O4 Tl0 2.028196 1_555
O5 Tl0 2.766686 1_565
O5 Tl0 2.766686 1_655
O5 Tl0 2.766686 1_666
O5 Tl0 2.766686 1_554
O7 Tl0 2.077318 1_555
