# generated using pymatgen
data_Li2V3O6
_symmetry_space_group_name_H-M   'P 1'
_cell_length_a   5.24523036
_cell_length_b   5.10045316
_cell_length_c   10.03854895
_cell_angle_alpha   93.55738021
_cell_angle_beta   96.36186143
_cell_angle_gamma   119.46020462
_symmetry_Int_Tables_number   1
_chemical_formula_structural   Li2V3O6
_chemical_formula_sum   'Li4 V6 O12'
_cell_volume   230.27872284
_cell_formula_units_Z   2
loop_
 _symmetry_equiv_pos_site_id
 _symmetry_equiv_pos_as_xyz
  1  'x, y, z'
loop_
 _atom_site_type_symbol
 _atom_site_label
 _atom_site_symmetry_multiplicity
 _atom_site_fract_x
 _atom_site_fract_y
 _atom_site_fract_z
 _atom_site_occupancy
  Li  Li0  1  0.17487900  0.82065900  0.50068700  1
  Li  Li1  1  0.67442900  0.33418100  0.99942100  1
  Li  Li2  1  0.32509200  0.66627200  0.00060000  1
  Li  Li3  1  0.82511100  0.17890000  0.49958200  1
  V  V0  1  0.25432600  0.24927200  0.74896300  1
  V  V1  1  0.74565300  0.75050600  0.25111100  1
  V  V2  1  0.08470500  0.42510400  0.25058400  1
  V  V3  1  0.58497400  0.91042700  0.75072800  1
  V  V4  1  0.41530000  0.08945300  0.24938700  1
  V  V5  1  0.91547800  0.57530400  0.74928500  1
  O  O0  1  0.38465300  0.40073500  0.14327600  1
  O  O1  1  0.89006600  0.87570100  0.64734300  1
  O  O2  1  0.11006300  0.12401700  0.35215600  1
  O  O3  1  0.61543600  0.59960200  0.85667800  1
  O  O4  1  0.04168900  0.68728900  0.13989600  1
  O  O5  1  0.55905900  0.21042700  0.63991300  1
  O  O6  1  0.70179000  0.05778000  0.14316600  1
  O  O7  1  0.19135700  0.54111500  0.63977500  1
  O  O8  1  0.80890300  0.45905500  0.36031000  1
  O  O9  1  0.29803000  0.94213300  0.85686600  1
  O  O10  1  0.44087200  0.78965500  0.36029000  1
  O  O11  1  0.95813300  0.31241200  0.85998200  1
loop_
_geom_bond_atom_site_label_1
_geom_bond_atom_site_label_2
_geom_bond_distance
_geom_bond_site_symmetry_2
Li0 O7 2.081199 1_555
Li0 O10 2.140810 1_555
Li0 O8 2.160515 1_455
Li0 O5 2.248716 1_565
Li0 O1 2.307954 1_455
Li0 O2 2.328985 1_565
Li1 O6 2.120339 1_556
Li1 O3 2.129845 1_555
Li1 O4 2.147851 1_656
Li1 O11 2.188823 1_555
Li1 O9 2.253828 1_545
Li1 O0 2.333233 1_556
Li2 O9 2.117722 1_554
Li2 O0 2.130965 1_555
Li2 O11 2.149299 1_454
Li2 O4 2.185255 1_555
Li2 O6 2.253315 1_565
Li2 O3 2.336303 1_554
Li3 O8 2.084406 1_555
Li3 O5 2.141510 1_555
Li3 O7 2.161326 1_655
Li3 O10 2.248070 1_545
Li3 O2 2.313629 1_655
Li3 O1 2.323513 1_545
O0 V1 1.980712 1_555
O0 V4 2.025879 1_555
O0 V2 2.049983 1_555
O1 V5 1.943645 1_555
O1 V0 2.016819 1_665
O1 V3 2.072056 1_555
O2 V2 1.944437 1_555
O2 V1 2.015050 1_445
O2 V4 2.068771 1_555
O3 V0 1.981642 1_555
O3 V3 2.022577 1_555
O3 V5 2.050776 1_555
O4 V2 1.870681 1_555
O4 V4 2.131862 1_565
O4 V1 2.143247 1_455
O5 V3 1.994890 1_545
O5 V5 2.008288 1_555
O5 V0 2.113021 1_555
O6 V4 1.998434 1_555
O6 V1 2.047817 1_545
O6 V2 2.067560 1_655
O7 V5 1.977327 1_455
O7 V0 2.032748 1_555
O7 V3 2.110921 1_555
O8 V2 1.977858 1_655
O8 V1 2.031803 1_555
O8 V4 2.111337 1_555
O9 V3 2.000022 1_555
O9 V0 2.046632 1_565
O9 V5 2.066256 1_455
O10 V4 1.993868 1_565
O10 V2 2.008315 1_555
O10 V1 2.114683 1_555
O11 V5 1.872894 1_555
O11 V3 2.129662 1_545
O11 V0 2.142602 1_655
