# generated using pymatgen
data_CaNi2(P2O7)2
_symmetry_space_group_name_H-M   'P 1'
_cell_length_a   6.44558500
_cell_length_b   6.60223161
_cell_length_c   6.78733247
_cell_angle_alpha   114.17319242
_cell_angle_beta   87.59499806
_cell_angle_gamma   96.91312794
_symmetry_Int_Tables_number   1
_chemical_formula_structural   CaNi2(P2O7)2
_chemical_formula_sum   'Ca1 Ni2 P4 O14'
_cell_volume   261.58471422
_cell_formula_units_Z   1
loop_
 _symmetry_equiv_pos_site_id
 _symmetry_equiv_pos_as_xyz
  1  'x, y, z'
loop_
 _atom_site_type_symbol
 _atom_site_label
 _atom_site_symmetry_multiplicity
 _atom_site_fract_x
 _atom_site_fract_y
 _atom_site_fract_z
 _atom_site_occupancy
  Ca  Ca0  1  0.86897000  0.72758300  0.17767900  1
  Ni  Ni0  1  0.35344300  0.10316100  0.21296100  1
  Ni  Ni1  1  0.64958900  0.90384900  0.78643700  1
  P  P0  1  0.86357300  0.22730700  0.24307100  1
  P  P1  1  0.13963700  0.77936800  0.75631900  1
  P  P2  1  0.37673600  0.64342600  0.34073400  1
  P  P3  1  0.61967900  0.35759400  0.65760300  1
  O  O0  1  0.22049200  0.62102300  0.52393400  1
  O  O1  1  0.79069800  0.37620700  0.48492600  1
  O  O2  1  0.03557600  0.09487500  0.26194600  1
  O  O3  1  0.96213000  0.89239300  0.72075800  1
  O  O4  1  0.41184000  0.25098500  0.53596000  1
  O  O5  1  0.59045300  0.75861100  0.44999000  1
  O  O6  1  0.61671500  0.59749200  0.82469600  1
  O  O7  1  0.39652100  0.40478800  0.18280800  1
  O  O8  1  0.06303700  0.62489500  0.86716200  1
  O  O9  1  0.92768900  0.38839500  0.14227500  1
  O  O10  1  0.33247700  0.93949400  0.87638800  1
  O  O11  1  0.67303200  0.05073700  0.13101800  1
  O  O12  1  0.68208000  0.20152400  0.75313900  1
  O  O13  1  0.28282400  0.78519000  0.24437400  1
loop_
_geom_bond_atom_site_label_1
_geom_bond_atom_site_label_2
_geom_bond_distance
_geom_bond_site_symmetry_2
Ca0 O9 2.229702 1_555
Ca0 O8 2.297584 1_654
Ca0 O2 2.376861 1_665
Ca0 O5 2.486118 1_555
Ca0 O13 2.679814 1_655
Ca0 O6 2.725205 1_554
Ca0 O11 2.735489 1_565
Ni0 O4 2.031962 1_555
Ni0 O2 2.059616 1_555
Ni0 O7 2.068964 1_555
Ni0 O10 2.091317 1_544
Ni0 O11 2.142497 1_555
Ni0 O13 2.188192 1_545
Ni1 O3 2.048509 1_555
Ni1 O12 2.053810 1_565
Ni1 O5 2.114522 1_555
Ni1 O10 2.121165 1_555
Ni1 O6 2.127387 1_555
Ni1 O11 2.137766 1_566
O0 P1 1.601260 1_555
O0 P2 1.609941 1_555
O1 P3 1.606471 1_555
O1 P0 1.614480 1_555
O2 P0 1.532002 1_455
O3 P1 1.516693 1_655
O4 P3 1.536759 1_555
O5 P2 1.548391 1_555
O6 P3 1.526279 1_555
O7 P2 1.517012 1_555
O8 P1 1.525089 1_555
O9 P0 1.495432 1_555
O10 P1 1.545908 1_555
O11 P0 1.566324 1_555
O12 P3 1.520808 1_555
O13 P2 1.530076 1_555
