# generated using pymatgen
data_SrSmEuNbO6
_symmetry_space_group_name_H-M   'P 1'
_cell_length_a   8.47780044
_cell_length_b   8.48449287
_cell_length_c   8.48173978
_cell_angle_alpha   90.00000000
_cell_angle_beta   90.00000000
_cell_angle_gamma   90.00000000
_symmetry_Int_Tables_number   1
_chemical_formula_structural   SrSmEuNbO6
_chemical_formula_sum   'Sr4 Sm4 Eu4 Nb4 O24'
_cell_volume   610.09016313
_cell_formula_units_Z   4
loop_
 _symmetry_equiv_pos_site_id
 _symmetry_equiv_pos_as_xyz
  1  'x, y, z'
loop_
 _atom_site_type_symbol
 _atom_site_label
 _atom_site_symmetry_multiplicity
 _atom_site_fract_x
 _atom_site_fract_y
 _atom_site_fract_z
 _atom_site_occupancy
  Sr  Sr0  1  0.00000000  0.50000000  0.50000000  1
  Sr  Sr1  1  0.50000000  0.50000000  0.00000000  1
  Sr  Sr2  1  0.00000000  0.50000000  0.00000000  1
  Sr  Sr3  1  0.00000000  0.00000000  0.50000000  1
  Sm  Sm0  1  0.25014969  0.24989690  0.24992207  1
  Sm  Sm1  1  0.74985031  0.75010310  0.24992207  1
  Sm  Sm2  1  0.74985031  0.24989690  0.75007793  1
  Sm  Sm3  1  0.25014969  0.75010310  0.75007793  1
  Eu  Eu0  1  0.50000000  0.00000000  0.50000000  1
  Eu  Eu1  1  0.50000000  0.00000000  0.00000000  1
  Eu  Eu2  1  0.00000000  0.00000000  -0.00000000  1
  Eu  Eu3  1  0.50000000  0.50000000  0.50000000  1
  Nb  Nb0  1  0.74944542  0.75007442  0.75041831  1
  Nb  Nb1  1  0.25055458  0.24992558  0.75041831  1
  Nb  Nb2  1  0.25055458  0.75007442  0.24958169  1
  Nb  Nb3  1  0.74944542  0.24992558  0.24958169  1
  O  O0  1  0.98275082  0.20350170  0.28703730  1
  O  O1  1  0.01724918  0.79649830  0.28703730  1
  O  O2  1  0.01724918  0.20350170  0.71296270  1
  O  O3  1  0.98275082  0.79649830  0.71296270  1
  O  O4  1  0.28927951  0.98349630  0.20211741  1
  O  O5  1  0.28927951  0.01650370  0.79788259  1
  O  O6  1  0.71072049  0.01650370  0.20211741  1
  O  O7  1  0.71072049  0.98349630  0.79788259  1
  O  O8  1  0.20385532  0.28681855  0.98298626  1
  O  O9  1  0.79614468  0.28681855  0.01701374  1
  O  O10  1  0.20385532  0.71318145  0.01701374  1
  O  O11  1  0.79614468  0.71318145  0.98298626  1
  O  O12  1  0.51663536  0.29604581  0.21259140  1
  O  O13  1  0.48336464  0.70395419  0.21259140  1
  O  O14  1  0.48336464  0.29604581  0.78740860  1
  O  O15  1  0.51663536  0.70395419  0.78740860  1
  O  O16  1  0.21350338  0.51721957  0.29634630  1
  O  O17  1  0.21350338  0.48278043  0.70365370  1
  O  O18  1  0.78649662  0.48278043  0.29634630  1
  O  O19  1  0.78649662  0.51721957  0.70365370  1
  O  O20  1  0.29810486  0.21093579  0.51692058  1
  O  O21  1  0.70189514  0.21093579  0.48307942  1
  O  O22  1  0.29810486  0.78906421  0.48307942  1
  O  O23  1  0.70189514  0.78906421  0.51692058  1
loop_
_geom_bond_atom_site_label_1
_geom_bond_atom_site_label_2
_geom_bond_distance
_geom_bond_site_symmetry_2
Eu0 O23 2.480570 1_545
Eu0 O22 2.480570 1_545
Eu0 O21 2.480570 1_555
Eu0 O20 2.480570 1_555
Eu1 O4 2.479888 1_545
Eu1 O5 2.479888 1_554
Eu1 O6 2.479888 1_555
Eu1 O7 2.479888 1_544
Eu2 O9 2.988248 1_455
Eu2 O11 2.988248 1_444
Eu2 O8 2.988248 1_554
Eu2 O10 2.988248 1_545
Eu2 O3 2.988264 1_444
Eu2 O2 2.988264 1_554
Eu2 O1 2.988264 1_545
Eu2 O0 2.988264 1_455
Eu2 O6 2.995494 1_455
Eu2 O5 2.995494 1_554
Eu2 O4 2.995494 1_545
Eu2 O7 2.995494 1_444
Eu3 O18 2.984025 1_555
Eu3 O19 2.984025 1_555
Eu3 O16 2.984025 1_555
Eu3 O17 2.984025 1_555
Eu3 O14 2.992798 1_555
Eu3 O15 2.992798 1_555
Eu3 O13 2.992798 1_555
Eu3 O12 2.992798 1_555
Eu3 O20 2.994216 1_555
Eu3 O23 2.994216 1_555
Eu3 O21 2.994216 1_555
Eu3 O22 2.994216 1_555
Nb0 O11 2.036123 1_555
Nb0 O15 2.036447 1_555
Nb0 O19 2.039414 1_555
Nb0 O3 2.041623 1_555
Nb0 O7 2.047462 1_555
Nb0 O23 2.047972 1_555
Nb1 O8 2.036123 1_555
Nb1 O14 2.036447 1_555
Nb1 O17 2.039414 1_555
Nb1 O2 2.041623 1_555
Nb1 O5 2.047462 1_555
Nb1 O20 2.047972 1_555
Nb2 O10 2.036123 1_555
Nb2 O13 2.036447 1_555
Nb2 O16 2.039414 1_555
Nb2 O1 2.041623 1_555
Nb2 O4 2.047462 1_555
Nb2 O22 2.047972 1_555
Nb3 O9 2.036123 1_555
Nb3 O12 2.036447 1_555
Nb3 O18 2.039414 1_555
Nb3 O0 2.041623 1_555
Nb3 O6 2.047462 1_555
Nb3 O21 2.047972 1_555
O0 Sm0 2.322312 1_655
O0 Sr3 2.503050 1_655
O0 Sr0 3.100406 1_655
O1 Sm1 2.322312 1_455
O1 Sr3 2.503050 1_565
O1 Sr0 3.100406 1_555
O2 Sm2 2.322312 1_455
O2 Sr3 2.503050 1_555
O2 Sr0 3.100406 1_555
O3 Sm3 2.322312 1_655
O3 Sr3 2.503050 1_665
O3 Sr0 3.100406 1_655
O4 Sm0 2.320192 1_565
O5 Sm3 2.320192 1_545
O6 Sm1 2.320192 1_545
O7 Sm2 2.320192 1_565
O8 Sm0 2.319101 1_556
O8 Sr2 2.505830 1_556
O8 Sr1 3.097700 1_556
O9 Sm2 2.319101 1_554
O9 Sr2 2.505830 1_655
O9 Sr1 3.097700 1_555
O10 Sm3 2.319101 1_554
O10 Sr2 2.505830 1_555
O10 Sr1 3.097700 1_555
O11 Sm1 2.319101 1_556
O11 Sr2 2.505830 1_656
O11 Sr1 3.097700 1_556
O12 Sm0 2.314650 1_555
O12 Sr1 2.503132 1_555
O13 Sm1 2.314650 1_555
O13 Sr1 2.503132 1_555
O14 Sm2 2.314650 1_555
O14 Sr1 2.503132 1_556
O15 Sm3 2.314650 1_555
O15 Sr1 2.503132 1_556
O16 Sm0 2.322893 1_555
O16 Sr0 2.506249 1_555
O16 Sr2 3.100876 1_555
O17 Sm3 2.322893 1_555
O17 Sr0 2.506249 1_555
O17 Sr2 3.100876 1_556
O18 Sm1 2.322893 1_555
O18 Sr0 2.506249 1_655
O18 Sr2 3.100876 1_655
O19 Sm2 2.322893 1_555
O19 Sr0 2.506249 1_655
O19 Sr2 3.100876 1_656
O20 Sm0 2.324441 1_555
O20 Sr3 3.100109 1_555
O21 Sm2 2.324441 1_555
O21 Sr3 3.100109 1_655
O22 Sm3 2.324441 1_555
O22 Sr3 3.100109 1_565
O23 Sm1 2.324441 1_555
O23 Sr3 3.100109 1_665
