# generated using pymatgen
data_YbHg2
_symmetry_space_group_name_H-M   'P 1'
_cell_length_a   3.56520000
_cell_length_b   4.96814990
_cell_length_c   4.96814990
_cell_angle_alpha   119.99999873
_cell_angle_beta   90.00000000
_cell_angle_gamma   90.00000000
_symmetry_Int_Tables_number   1
_chemical_formula_structural   YbHg2
_chemical_formula_sum   'Yb1 Hg2'
_cell_volume   76.20858850
_cell_formula_units_Z   1
loop_
 _symmetry_equiv_pos_site_id
 _symmetry_equiv_pos_as_xyz
  1  'x, y, z'
loop_
 _atom_site_type_symbol
 _atom_site_label
 _atom_site_symmetry_multiplicity
 _atom_site_fract_x
 _atom_site_fract_y
 _atom_site_fract_z
 _atom_site_occupancy
  Yb  Yb0  1  0.00000000  0.00000000  0.00000000  1
  Hg  Hg0  1  0.48526100  0.66666700  0.33333300  1
  Hg  Hg1  1  0.51473900  0.33333300  0.66666700  1
loop_
_geom_bond_atom_site_label_1
_geom_bond_atom_site_label_2
_geom_bond_distance
_geom_bond_site_symmetry_2
Hg0 Hg1 2.870285 1_554
Hg0 Hg1 2.870285 1_565
Hg0 Hg1 2.870293 1_555
Hg0 Yb0 3.349712 1_565
Hg0 Yb0 3.349716 1_555
Hg0 Yb0 3.349716 1_566
Hg0 Yb0 3.405180 1_665
Hg0 Yb0 3.405184 1_655
Hg0 Yb0 3.405184 1_666
Hg1 Yb0 3.349712 1_656
Hg1 Yb0 3.349716 1_655
Hg1 Yb0 3.349716 1_666
Hg1 Yb0 3.405180 1_556
Hg1 Yb0 3.405184 1_566
Hg1 Yb0 3.405184 1_555
