# generated using pymatgen
data_CsMg14TiO16
_symmetry_space_group_name_H-M   'P 1'
_cell_length_a   8.82953645
_cell_length_b   8.77274911
_cell_length_c   4.50231640
_cell_angle_alpha   90.00000000
_cell_angle_beta   90.00000000
_cell_angle_gamma   90.00000000
_symmetry_Int_Tables_number   1
_chemical_formula_structural   CsMg14TiO16
_chemical_formula_sum   'Cs1 Mg14 Ti1 O16'
_cell_volume   348.74631289
_cell_formula_units_Z   1
loop_
 _symmetry_equiv_pos_site_id
 _symmetry_equiv_pos_as_xyz
  1  'x, y, z'
loop_
 _atom_site_type_symbol
 _atom_site_label
 _atom_site_symmetry_multiplicity
 _atom_site_fract_x
 _atom_site_fract_y
 _atom_site_fract_z
 _atom_site_occupancy
  Cs  Cs0  1  0.00000000  0.50000000  0.00000000  1
  Mg  Mg0  1  0.50000000  0.00000000  0.00000000  1
  Mg  Mg1  1  0.50000000  0.50000000  0.00000000  1
  Mg  Mg2  1  0.00000000  0.24481318  0.50000000  1
  Mg  Mg3  1  0.00000000  0.75518682  0.50000000  1
  Mg  Mg4  1  0.50000000  0.24873861  0.50000000  1
  Mg  Mg5  1  0.50000000  0.75126139  0.50000000  1
  Mg  Mg6  1  0.25318127  0.00000000  0.50000000  1
  Mg  Mg7  1  0.26249593  0.50000000  0.50000000  1
  Mg  Mg8  1  0.74681873  0.00000000  0.50000000  1
  Mg  Mg9  1  0.73750407  0.50000000  0.50000000  1
  Mg  Mg10  1  0.26161960  0.24916097  0.00000000  1
  Mg  Mg11  1  0.26161960  0.75083903  -0.00000000  1
  Mg  Mg12  1  0.73838040  0.24916097  0.00000000  1
  Mg  Mg13  1  0.73838040  0.75083903  0.00000000  1
  Ti  Ti0  1  0.00000000  0.00000000  0.00000000  1
  O  O0  1  0.25373248  0.00000000  -0.00000000  1
  O  O1  1  0.28695005  0.50000000  0.00000000  1
  O  O2  1  0.74626752  0.00000000  0.00000000  1
  O  O3  1  0.71304995  0.50000000  0.00000000  1
  O  O4  1  0.24842514  0.24952510  0.50000000  1
  O  O5  1  0.24842514  0.75047490  0.50000000  1
  O  O6  1  0.75157486  0.24952510  0.50000000  1
  O  O7  1  0.75157486  0.75047490  0.50000000  1
  O  O8  1  0.00000000  0.00000000  0.50000000  1
  O  O9  1  0.00000000  0.50000000  0.50000000  1
  O  O10  1  0.50000000  0.00000000  0.50000000  1
  O  O11  1  0.50000000  0.50000000  0.50000000  1
  O  O12  1  0.00000000  0.21282312  0.00000000  1
  O  O13  1  0.00000000  0.78717688  0.00000000  1
  O  O14  1  0.50000000  0.23940686  0.00000000  1
  O  O15  1  0.50000000  0.76059314  -0.00000000  1
loop_
_geom_bond_atom_site_label_1
_geom_bond_atom_site_label_2
_geom_bond_distance
_geom_bond_site_symmetry_2
Cs0 O9 2.251158 1_555
Cs0 O9 2.251158 1_554
Cs0 O12 2.519331 1_555
Cs0 O13 2.519331 1_555
Cs0 O3 2.533636 1_455
Cs0 O1 2.533636 1_555
Mg0 O15 2.100256 1_545
Mg0 O14 2.100256 1_555
Mg0 O2 2.174428 1_555
Mg0 O0 2.174428 1_555
Mg0 O10 2.251158 1_555
Mg0 O10 2.251158 1_554
Mg1 O1 1.881132 1_555
Mg1 O3 1.881132 1_555
Mg1 O11 2.251158 1_554
Mg1 O11 2.251158 1_555
Mg1 O14 2.286118 1_555
Mg1 O15 2.286118 1_555
Mg2 O8 2.147685 1_555
Mg2 O6 2.193868 1_455
Mg2 O4 2.193868 1_555
Mg2 O9 2.238690 1_555
Mg2 O12 2.268584 1_556
Mg2 O12 2.268584 1_555
Mg3 O8 2.147685 1_565
Mg3 O7 2.193868 1_455
Mg3 O5 2.193868 1_555
Mg3 O9 2.238690 1_555
Mg3 O13 2.268584 1_555
Mg3 O13 2.268584 1_556
Mg4 O10 2.182121 1_555
Mg4 O11 2.204253 1_555
Mg4 O4 2.221300 1_555
Mg4 O6 2.221300 1_555
Mg4 O14 2.252646 1_556
Mg4 O14 2.252646 1_555
Mg5 O10 2.182121 1_565
Mg5 O11 2.204253 1_555
Mg5 O5 2.221300 1_555
Mg5 O7 2.221300 1_555
Mg5 O15 2.252646 1_556
Mg5 O15 2.252646 1_555
Mg6 O10 2.179295 1_555
Mg6 O4 2.189424 1_555
Mg6 O5 2.189424 1_545
Mg6 O8 2.235473 1_555
Mg6 O0 2.251163 1_555
Mg6 O0 2.251163 1_556
Mg7 O11 2.097051 1_555
Mg7 O5 2.200863 1_555
Mg7 O4 2.200863 1_555
Mg7 O1 2.261489 1_555
Mg7 O1 2.261489 1_556
Mg7 O9 2.317717 1_555
Mg8 O10 2.179295 1_555
Mg8 O6 2.189424 1_555
Mg8 O7 2.189424 1_545
Mg8 O8 2.235473 1_655
Mg8 O2 2.251163 1_555
Mg8 O2 2.251163 1_556
Mg9 O11 2.097051 1_555
Mg9 O7 2.200863 1_555
Mg9 O6 2.200863 1_555
Mg9 O3 2.261489 1_556
Mg9 O3 2.261489 1_555
Mg9 O9 2.317717 1_655
Mg10 O14 2.106527 1_555
Mg10 O0 2.186936 1_555
Mg10 O1 2.211884 1_555
Mg10 O4 2.254173 1_554
Mg10 O4 2.254173 1_555
Mg10 O12 2.331872 1_555
Mg11 O15 2.106527 1_555
Mg11 O0 2.186936 1_565
Mg11 O1 2.211884 1_555
Mg11 O5 2.254173 1_555
Mg11 O5 2.254173 1_554
Mg11 O13 2.331872 1_555
Mg12 O14 2.106527 1_555
Mg12 O2 2.186936 1_555
Mg12 O3 2.211884 1_555
Mg12 O6 2.254173 1_555
Mg12 O6 2.254173 1_554
Mg12 O12 2.331872 1_655
Mg13 O15 2.106527 1_555
Mg13 O2 2.186936 1_565
Mg13 O3 2.211884 1_555
Mg13 O7 2.254173 1_555
Mg13 O7 2.254173 1_554
Mg13 O13 2.331872 1_655
O0 Ti0 2.240340 1_555
O2 Ti0 2.240340 1_655
O8 Ti0 2.251158 1_555
O8 Ti0 2.251158 1_556
O12 Ti0 1.867044 1_555
O13 Ti0 1.867044 1_565
