# generated using pymatgen
data_MgGa2
_symmetry_space_group_name_H-M   'P 1'
_cell_length_a   11.33229985
_cell_length_b   11.33229985
_cell_length_c   14.10858607
_cell_angle_alpha   73.44690334
_cell_angle_beta   73.44690334
_cell_angle_gamma   32.66526909
_symmetry_Int_Tables_number   1
_chemical_formula_structural   MgGa2
_chemical_formula_sum   'Mg16 Ga32'
_cell_volume   933.81373179
_cell_formula_units_Z   16
loop_
 _symmetry_equiv_pos_site_id
 _symmetry_equiv_pos_as_xyz
  1  'x, y, z'
loop_
 _atom_site_type_symbol
 _atom_site_label
 _atom_site_symmetry_multiplicity
 _atom_site_fract_x
 _atom_site_fract_y
 _atom_site_fract_z
 _atom_site_occupancy
  Mg  Mg0_0  1  0.31951100  0.31951100  0.23358050  1
  Mg  Mg0_1  1  0.31951100  0.31951100  0.73358050  1
  Mg  Mg0_2  1  0.31951100  0.81951100  0.23358050  1
  Mg  Mg0_3  1  0.31951100  0.81951100  0.73358050  1
  Mg  Mg0_4  1  0.81951100  0.31951100  0.23358050  1
  Mg  Mg0_5  1  0.81951100  0.31951100  0.73358050  1
  Mg  Mg0_6  1  0.81951100  0.81951100  0.23358050  1
  Mg  Mg0_7  1  0.81951100  0.81951100  0.73358050  1
  Mg  Mg1_0  1  0.18048900  0.18048900  0.26641950  1
  Mg  Mg1_1  1  0.18048900  0.18048900  0.76641950  1
  Mg  Mg1_2  1  0.18048900  0.68048900  0.26641950  1
  Mg  Mg1_3  1  0.18048900  0.68048900  0.76641950  1
  Mg  Mg1_4  1  0.68048900  0.18048900  0.26641950  1
  Mg  Mg1_5  1  0.68048900  0.18048900  0.76641950  1
  Mg  Mg1_6  1  0.68048900  0.68048900  0.26641950  1
  Mg  Mg1_7  1  0.68048900  0.68048900  0.76641950  1
  Ga  Ga0_0  1  0.15495500  0.15495500  0.06516050  1
  Ga  Ga0_1  1  0.15495500  0.15495500  0.56516050  1
  Ga  Ga0_2  1  0.15495500  0.65495500  0.06516050  1
  Ga  Ga0_3  1  0.15495500  0.65495500  0.56516050  1
  Ga  Ga0_4  1  0.65495500  0.15495500  0.06516050  1
  Ga  Ga0_5  1  0.65495500  0.15495500  0.56516050  1
  Ga  Ga0_6  1  0.65495500  0.65495500  0.06516050  1
  Ga  Ga0_7  1  0.65495500  0.65495500  0.56516050  1
  Ga  Ga1_0  1  0.01380850  0.01380850  0.09254100  1
  Ga  Ga1_1  1  0.01380850  0.01380850  0.59254100  1
  Ga  Ga1_2  1  0.01380850  0.51380850  0.09254100  1
  Ga  Ga1_3  1  0.01380850  0.51380850  0.59254100  1
  Ga  Ga1_4  1  0.51380850  0.01380850  0.09254100  1
  Ga  Ga1_5  1  0.51380850  0.01380850  0.59254100  1
  Ga  Ga1_6  1  0.51380850  0.51380850  0.09254100  1
  Ga  Ga1_7  1  0.51380850  0.51380850  0.59254100  1
  Ga  Ga2_0  1  0.48619150  0.48619150  0.40745900  1
  Ga  Ga2_1  1  0.48619150  0.48619150  0.90745900  1
  Ga  Ga2_2  1  0.48619150  0.98619150  0.40745900  1
  Ga  Ga2_3  1  0.48619150  0.98619150  0.90745900  1
  Ga  Ga2_4  1  0.98619150  0.48619150  0.40745900  1
  Ga  Ga2_5  1  0.98619150  0.48619150  0.90745900  1
  Ga  Ga2_6  1  0.98619150  0.98619150  0.40745900  1
  Ga  Ga2_7  1  0.98619150  0.98619150  0.90745900  1
  Ga  Ga3_0  1  0.34504500  0.34504500  0.43483950  1
  Ga  Ga3_1  1  0.34504500  0.34504500  0.93483950  1
  Ga  Ga3_2  1  0.34504500  0.84504500  0.43483950  1
  Ga  Ga3_3  1  0.34504500  0.84504500  0.93483950  1
  Ga  Ga3_4  1  0.84504500  0.34504500  0.43483950  1
  Ga  Ga3_5  1  0.84504500  0.34504500  0.93483950  1
  Ga  Ga3_6  1  0.84504500  0.84504500  0.43483950  1
  Ga  Ga3_7  1  0.84504500  0.84504500  0.93483950  1
loop_
_geom_bond_atom_site_label_1
_geom_bond_atom_site_label_2
_geom_bond_distance
_geom_bond_site_symmetry_2
Mg0_0 Mg1_0 2.919888 1_555
Mg0_0 Mg1_2 3.040375 1_555
Mg0_0 Mg1_4 3.040375 1_555
Mg0_0 Mg0_6 3.186794 1_545
Mg0_0 Mg0_6 3.186794 1_455
Mg0_1 Mg1_1 2.919888 1_555
Mg0_1 Mg1_5 3.040375 1_555
Mg0_1 Mg1_3 3.040375 1_555
Mg0_1 Mg0_7 3.186794 1_455
Mg0_1 Mg0_7 3.186794 1_545
Mg0_2 Mg1_2 2.919888 1_555
Mg0_2 Mg1_6 3.040375 1_555
Mg0_2 Mg1_0 3.040375 1_565
Mg0_2 Mg0_4 3.186794 1_555
Mg0_2 Mg0_4 3.186794 1_465
Mg0_3 Mg1_3 2.919888 1_555
Mg0_3 Mg1_7 3.040375 1_555
Mg0_3 Mg1_1 3.040375 1_565
Mg0_3 Mg0_5 3.186794 1_465
Mg0_3 Mg0_5 3.186794 1_555
Mg0_4 Mg1_4 2.919888 1_555
Mg0_4 Mg1_6 3.040375 1_555
Mg0_4 Mg1_0 3.040375 1_655
Mg0_5 Mg1_5 2.919888 1_555
Mg0_5 Mg1_1 3.040375 1_655
Mg0_5 Mg1_7 3.040375 1_555
Mg0_6 Mg1_6 2.919888 1_555
Mg0_6 Mg1_4 3.040375 1_565
Mg0_6 Mg1_2 3.040375 1_655
Mg0_7 Mg1_7 2.919888 1_555
Mg0_7 Mg1_5 3.040375 1_565
Mg0_7 Mg1_3 3.040375 1_655
Mg1_0 Mg1_6 3.186794 1_545
Mg1_0 Mg1_6 3.186794 1_455
Mg1_1 Mg1_7 3.186794 1_545
Mg1_1 Mg1_7 3.186794 1_455
Mg1_2 Mg1_4 3.186794 1_555
Mg1_2 Mg1_4 3.186794 1_465
Mg1_3 Mg1_5 3.186794 1_465
Mg1_3 Mg1_5 3.186794 1_555
Ga0_0 Ga2_5 2.876970 1_454
Ga0_0 Ga2_3 2.876970 1_544
Ga0_0 Ga1_2 2.972632 1_555
Ga0_0 Ga1_4 2.972632 1_555
Ga0_0 Ga1_0 2.978180 1_555
Ga0_0 Mg0_2 3.002789 1_545
Ga0_0 Mg0_4 3.002789 1_455
Ga0_0 Ga3_5 3.006662 1_454
Ga0_0 Ga3_3 3.006662 1_544
Ga0_0 Mg1_0 3.050806 1_555
Ga0_1 Ga2_4 2.876970 1_455
Ga0_1 Ga2_2 2.876970 1_545
Ga0_1 Ga1_5 2.972632 1_555
Ga0_1 Ga1_3 2.972632 1_555
Ga0_1 Ga1_1 2.978180 1_555
Ga0_1 Mg0_5 3.002789 1_455
Ga0_1 Mg0_3 3.002789 1_545
Ga0_1 Ga3_2 3.006662 1_545
Ga0_1 Ga3_4 3.006662 1_455
Ga0_1 Mg1_1 3.050806 1_555
Ga0_2 Ga2_1 2.876970 1_554
Ga0_2 Ga2_7 2.876970 1_454
Ga0_2 Ga1_0 2.972632 1_565
Ga0_2 Ga1_6 2.972632 1_555
Ga0_2 Ga1_2 2.978180 1_555
Ga0_2 Mg0_6 3.002789 1_455
Ga0_2 Mg0_0 3.002789 1_555
Ga0_2 Ga3_7 3.006662 1_454
Ga0_2 Ga3_1 3.006662 1_554
Ga0_2 Mg1_2 3.050806 1_555
Ga0_3 Ga2_6 2.876970 1_455
Ga0_3 Ga2_0 2.876970 1_555
Ga0_3 Ga1_1 2.972632 1_565
Ga0_3 Ga1_7 2.972632 1_555
Ga0_3 Ga1_3 2.978180 1_555
Ga0_3 Mg0_7 3.002789 1_455
Ga0_3 Mg0_1 3.002789 1_555
Ga0_3 Ga3_0 3.006662 1_555
Ga0_3 Ga3_6 3.006662 1_455
Ga0_3 Mg1_3 3.050806 1_555
Ga0_4 Ga2_1 2.876970 1_554
Ga0_4 Ga2_7 2.876970 1_544
Ga0_4 Ga1_0 2.972632 1_655
Ga0_4 Ga1_6 2.972632 1_555
Ga0_4 Ga1_4 2.978180 1_555
Ga0_4 Mg0_0 3.002789 1_555
Ga0_4 Mg0_6 3.002789 1_545
Ga0_4 Ga3_7 3.006662 1_544
Ga0_4 Ga3_1 3.006662 1_554
Ga0_4 Mg1_4 3.050806 1_555
Ga0_5 Ga2_6 2.876970 1_545
Ga0_5 Ga2_0 2.876970 1_555
Ga0_5 Ga1_1 2.972632 1_655
Ga0_5 Ga1_7 2.972632 1_555
Ga0_5 Ga1_5 2.978180 1_555
Ga0_5 Mg0_1 3.002789 1_555
Ga0_5 Mg0_7 3.002789 1_545
Ga0_5 Ga3_6 3.006662 1_545
Ga0_5 Ga3_0 3.006662 1_555
Ga0_5 Mg1_5 3.050806 1_555
Ga0_6 Ga2_3 2.876970 1_554
Ga0_6 Ga2_5 2.876970 1_554
Ga0_6 Ga1_2 2.972632 1_655
Ga0_6 Ga1_4 2.972632 1_565
Ga0_6 Ga1_6 2.978180 1_555
Ga0_6 Mg0_2 3.002789 1_555
Ga0_6 Mg0_4 3.002789 1_555
Ga0_6 Ga3_3 3.006662 1_554
Ga0_6 Ga3_5 3.006662 1_554
Ga0_6 Mg1_6 3.050806 1_555
Ga0_7 Ga2_2 2.876970 1_555
Ga0_7 Ga2_4 2.876970 1_555
Ga0_7 Ga1_3 2.972632 1_655
Ga0_7 Ga1_5 2.972632 1_565
Ga0_7 Ga1_7 2.978180 1_555
Ga0_7 Mg0_5 3.002789 1_555
Ga0_7 Mg0_3 3.002789 1_555
Ga0_7 Ga3_4 3.006662 1_555
Ga0_7 Ga3_2 3.006662 1_555
Ga0_7 Mg1_7 3.050806 1_555
Ga1_0 Ga2_7 2.847934 1_444
Ga1_0 Ga3_5 2.876970 1_454
Ga1_0 Ga3_3 2.876970 1_544
Ga1_0 Mg1_4 3.033377 1_455
Ga1_0 Mg1_2 3.033377 1_545
Ga1_0 Mg0_2 3.065573 1_545
Ga1_0 Mg0_4 3.065573 1_455
Ga1_1 Ga2_6 2.847934 1_445
Ga1_1 Ga3_4 2.876970 1_455
Ga1_1 Ga3_2 2.876970 1_545
Ga1_1 Mg1_3 3.033377 1_545
Ga1_1 Mg1_5 3.033377 1_455
Ga1_1 Mg0_5 3.065573 1_455
Ga1_1 Mg0_3 3.065573 1_545
Ga1_2 Ga2_5 2.847934 1_454
Ga1_2 Ga3_1 2.876970 1_554
Ga1_2 Ga3_7 2.876970 1_454
Ga1_2 Mg1_6 3.033377 1_455
Ga1_2 Mg1_0 3.033377 1_555
Ga1_2 Mg0_6 3.065573 1_455
Ga1_2 Mg0_0 3.065573 1_555
Ga1_3 Ga2_4 2.847934 1_455
Ga1_3 Ga3_0 2.876970 1_555
Ga1_3 Ga3_6 2.876970 1_455
Ga1_3 Mg1_7 3.033377 1_455
Ga1_3 Mg1_1 3.033377 1_555
Ga1_3 Mg0_7 3.065573 1_455
Ga1_3 Mg0_1 3.065573 1_555
Ga1_4 Ga2_3 2.847934 1_544
Ga1_4 Ga3_1 2.876970 1_554
Ga1_4 Ga3_7 2.876970 1_544
Ga1_4 Mg1_6 3.033377 1_545
Ga1_4 Mg1_0 3.033377 1_555
Ga1_4 Mg0_6 3.065573 1_545
Ga1_4 Mg0_0 3.065573 1_555
Ga1_5 Ga2_2 2.847934 1_545
Ga1_5 Ga3_6 2.876970 1_545
Ga1_5 Ga3_0 2.876970 1_555
Ga1_5 Mg1_7 3.033377 1_545
Ga1_5 Mg1_1 3.033377 1_555
Ga1_5 Mg0_7 3.065573 1_545
Ga1_5 Mg0_1 3.065573 1_555
Ga1_6 Ga2_1 2.847934 1_554
Ga1_6 Ga3_3 2.876970 1_554
Ga1_6 Ga3_5 2.876970 1_554
Ga1_6 Mg1_4 3.033377 1_555
Ga1_6 Mg1_2 3.033377 1_555
Ga1_6 Mg0_4 3.065573 1_555
Ga1_6 Mg0_2 3.065573 1_555
Ga1_7 Ga2_0 2.847934 1_555
Ga1_7 Ga3_2 2.876970 1_555
Ga1_7 Ga3_4 2.876970 1_555
Ga1_7 Mg1_3 3.033377 1_555
Ga1_7 Mg1_5 3.033377 1_555
Ga1_7 Mg0_5 3.065573 1_555
Ga1_7 Mg0_3 3.065573 1_555
Ga2_0 Ga3_2 2.972632 1_555
Ga2_0 Ga3_4 2.972632 1_555
Ga2_0 Ga3_0 2.978180 1_555
Ga2_0 Mg0_2 3.033377 1_555
Ga2_0 Mg0_4 3.033377 1_555
Ga2_0 Mg1_2 3.065573 1_555
Ga2_0 Mg1_4 3.065573 1_555
Ga2_1 Ga3_5 2.972632 1_555
Ga2_1 Ga3_3 2.972632 1_555
Ga2_1 Ga3_1 2.978180 1_555
Ga2_1 Mg0_5 3.033377 1_555
Ga2_1 Mg0_3 3.033377 1_555
Ga2_1 Mg1_5 3.065573 1_555
Ga2_1 Mg1_3 3.065573 1_555
Ga2_2 Ga3_0 2.972632 1_565
Ga2_2 Ga3_6 2.972632 1_555
Ga2_2 Ga3_2 2.978180 1_555
Ga2_2 Mg0_0 3.033377 1_565
Ga2_2 Mg0_6 3.033377 1_555
Ga2_2 Mg1_0 3.065573 1_565
Ga2_2 Mg1_6 3.065573 1_555
Ga2_3 Ga3_1 2.972632 1_565
Ga2_3 Ga3_7 2.972632 1_555
Ga2_3 Ga3_3 2.978180 1_555
Ga2_3 Mg0_1 3.033377 1_565
Ga2_3 Mg0_7 3.033377 1_555
Ga2_3 Mg1_7 3.065573 1_555
Ga2_3 Mg1_1 3.065573 1_565
Ga2_4 Ga3_0 2.972632 1_655
Ga2_4 Ga3_6 2.972632 1_555
Ga2_4 Ga3_4 2.978180 1_555
Ga2_4 Mg0_6 3.033377 1_555
Ga2_4 Mg0_0 3.033377 1_655
Ga2_4 Mg1_0 3.065573 1_655
Ga2_4 Mg1_6 3.065573 1_555
Ga2_5 Ga3_1 2.972632 1_655
Ga2_5 Ga3_7 2.972632 1_555
Ga2_5 Ga3_5 2.978180 1_555
Ga2_5 Mg0_1 3.033377 1_655
Ga2_5 Mg0_7 3.033377 1_555
Ga2_5 Mg1_7 3.065573 1_555
Ga2_5 Mg1_1 3.065573 1_655
Ga2_6 Ga3_2 2.972632 1_655
Ga2_6 Ga3_4 2.972632 1_565
Ga2_6 Ga3_6 2.978180 1_555
Ga2_6 Mg0_2 3.033377 1_655
Ga2_6 Mg0_4 3.033377 1_565
Ga2_6 Mg1_2 3.065573 1_655
Ga2_6 Mg1_4 3.065573 1_565
Ga2_7 Ga3_3 2.972632 1_655
Ga2_7 Ga3_5 2.972632 1_565
Ga2_7 Ga3_7 2.978180 1_555
Ga2_7 Mg0_3 3.033377 1_655
Ga2_7 Mg0_5 3.033377 1_565
Ga2_7 Mg1_3 3.065573 1_655
Ga2_7 Mg1_5 3.065573 1_565
Ga3_0 Mg1_2 3.002789 1_555
Ga3_0 Mg1_4 3.002789 1_555
Ga3_0 Mg0_0 3.050806 1_555
Ga3_1 Mg1_3 3.002789 1_555
Ga3_1 Mg1_5 3.002789 1_555
Ga3_1 Mg0_1 3.050806 1_555
Ga3_2 Mg1_6 3.002789 1_555
Ga3_2 Mg1_0 3.002789 1_565
Ga3_2 Mg0_2 3.050806 1_555
Ga3_3 Mg1_7 3.002789 1_555
Ga3_3 Mg1_1 3.002789 1_565
Ga3_3 Mg0_3 3.050806 1_555
Ga3_4 Mg1_6 3.002789 1_555
Ga3_4 Mg1_0 3.002789 1_655
Ga3_4 Mg0_4 3.050806 1_555
Ga3_5 Mg1_1 3.002789 1_655
Ga3_5 Mg1_7 3.002789 1_555
Ga3_5 Mg0_5 3.050806 1_555
Ga3_6 Mg1_2 3.002789 1_655
Ga3_6 Mg1_4 3.002789 1_565
Ga3_6 Mg0_6 3.050806 1_555
Ga3_7 Mg1_3 3.002789 1_655
Ga3_7 Mg1_5 3.002789 1_565
Ga3_7 Mg0_7 3.050806 1_555
