# generated using pymatgen
data_Ta2(SiMo)3
_symmetry_space_group_name_H-M   'P 1'
_cell_length_a   5.04131700
_cell_length_b   7.37326317
_cell_length_c   7.37326317
_cell_angle_alpha   97.27097239
_cell_angle_beta   109.99051913
_cell_angle_gamma   70.00948087
_symmetry_Int_Tables_number   1
_chemical_formula_structural   Ta2(SiMo)3
_chemical_formula_sum   'Ta4 Si6 Mo6'
_cell_volume   242.02557543
_cell_formula_units_Z   2
loop_
 _symmetry_equiv_pos_site_id
 _symmetry_equiv_pos_as_xyz
  1  'x, y, z'
loop_
 _atom_site_type_symbol
 _atom_site_label
 _atom_site_symmetry_multiplicity
 _atom_site_fract_x
 _atom_site_fract_y
 _atom_site_fract_z
 _atom_site_occupancy
  Ta  Ta0  1  0.42111900  0.85244500  0.69468200  1
  Ta  Ta1  1  0.57888100  0.14755500  0.30531800  1
  Ta  Ta2  1  0.92111900  0.30531800  0.14755500  1
  Ta  Ta3  1  0.07888100  0.69468200  0.85244500  1
  Si  Si0  1  0.25000000  0.00000000  0.00000000  1
  Si  Si1  1  0.75000000  0.00000000  0.00000000  1
  Si  Si2  1  0.33471200  0.50153900  0.17096400  1
  Si  Si3  1  0.66528800  0.49846100  0.82903600  1
  Si  Si4  1  0.83471200  0.82903600  0.49846100  1
  Si  Si5  1  0.16528800  0.17096400  0.50153900  1
  Mo  Mo0  1  0.71894500  0.70530700  0.14319600  1
  Mo  Mo1  1  0.28105500  0.29469300  0.85680400  1
  Mo  Mo2  1  0.78105500  0.14319600  0.70530700  1
  Mo  Mo3  1  0.21894500  0.85680400  0.29469300  1
  Mo  Mo4  1  0.25000000  0.50000000  0.50000000  1
  Mo  Mo5  1  0.75000000  0.50000000  0.50000000  1
loop_
_geom_bond_atom_site_label_1
_geom_bond_atom_site_label_2
_geom_bond_distance
_geom_bond_site_symmetry_2
Ta0 Ta3 2.961392 1_655
Ta0 Ta3 2.961400 1_555
Ta1 Ta2 2.961392 1_455
Ta1 Ta2 2.961400 1_555
Si0 Si1 2.520659 1_455
Si0 Si1 2.520659 1_555
Si0 Ta1 2.657414 1_555
Si0 Ta2 2.657414 1_455
Si0 Ta0 2.657416 1_544
Si0 Ta3 2.657416 1_544
Si1 Ta3 2.657414 1_644
Si1 Ta0 2.657414 1_544
Si1 Ta2 2.657416 1_555
Si1 Ta1 2.657416 1_555
Si2 Ta3 2.593607 1_554
Si2 Ta1 2.633022 1_555
Si2 Ta2 2.867704 1_455
Si2 Ta2 2.867713 1_555
Si3 Ta2 2.593607 1_556
Si3 Ta0 2.633022 1_555
Si3 Ta3 2.867704 1_655
Si3 Ta3 2.867713 1_555
Si4 Ta1 2.593607 1_565
Si4 Ta3 2.633022 1_655
Si4 Ta0 2.867704 1_555
Si4 Ta0 2.867713 1_655
Si5 Ta0 2.593607 1_545
Si5 Ta2 2.633022 1_455
Si5 Ta1 2.867704 1_555
Si5 Ta1 2.867713 1_455
Mo0 Si3 2.593116 1_554
Mo0 Si4 2.597757 1_555
Mo0 Si1 2.605159 1_565
Mo0 Si0 2.605162 1_565
Mo0 Ta2 2.772027 1_555
Mo0 Si2 2.896579 1_655
Mo0 Si2 2.896588 1_555
Mo0 Ta3 3.227158 1_654
Mo0 Ta3 3.227166 1_554
Mo0 Ta1 3.252164 1_565
Mo0 Ta0 3.281332 1_554
Mo1 Si2 2.593116 1_556
Mo1 Si5 2.597757 1_555
Mo1 Si0 2.605159 1_556
Mo1 Si1 2.605162 1_556
Mo1 Ta3 2.772027 1_555
Mo1 Si3 2.896579 1_455
Mo1 Si3 2.896588 1_555
Mo1 Ta2 3.227158 1_456
Mo1 Ta2 3.227166 1_556
Mo1 Ta0 3.252164 1_545
Mo1 Ta1 3.281332 1_556
Mo2 Si4 2.593116 1_545
Mo2 Si3 2.597757 1_555
Mo2 Si1 2.605159 1_556
Mo2 Si0 2.605162 1_656
Mo2 Ta1 2.772027 1_555
Mo2 Si5 2.896579 1_555
Mo2 Si5 2.896588 1_655
Mo2 Ta0 3.227158 1_545
Mo2 Ta0 3.227166 1_645
Mo2 Ta2 3.252164 1_556
Mo2 Ta3 3.281332 1_645
Mo3 Si5 2.593116 1_565
Mo3 Si2 2.597757 1_555
Mo3 Si0 2.605159 1_565
Mo3 Si1 2.605162 1_465
Mo3 Ta0 2.772027 1_555
Mo3 Si4 2.896579 1_555
Mo3 Si4 2.896588 1_455
Mo3 Ta1 3.227158 1_565
Mo3 Ta1 3.227166 1_465
Mo3 Ta3 3.252164 1_554
Mo3 Ta2 3.281332 1_465
Mo4 Mo5 2.520659 1_455
Mo4 Mo5 2.520659 1_555
Mo4 Si2 2.605187 1_555
Mo4 Si5 2.605187 1_555
Mo4 Si4 2.605189 1_455
Mo4 Si3 2.605189 1_555
Mo4 Ta1 3.049533 1_555
Mo4 Ta2 3.049533 1_455
Mo4 Ta0 3.049535 1_555
Mo4 Ta3 3.049535 1_555
Mo5 Si3 2.605187 1_555
Mo5 Si4 2.605187 1_555
Mo5 Si5 2.605189 1_655
Mo5 Si2 2.605189 1_555
Mo5 Ta3 3.049533 1_655
Mo5 Ta0 3.049533 1_555
Mo5 Ta2 3.049535 1_555
Mo5 Ta1 3.049535 1_555
