# generated using pymatgen
data_KTi3FeO8
_symmetry_space_group_name_H-M   'P 1'
_cell_length_a   3.00627100
_cell_length_b   7.33627061
_cell_length_c   7.44028092
_cell_angle_alpha   92.06305145
_cell_angle_beta   101.65550472
_cell_angle_gamma   78.17688021
_symmetry_Int_Tables_number   1
_chemical_formula_structural   KTi3FeO8
_chemical_formula_sum   'K1 Ti3 Fe1 O8'
_cell_volume   157.29842350
_cell_formula_units_Z   1
loop_
 _symmetry_equiv_pos_site_id
 _symmetry_equiv_pos_as_xyz
  1  'x, y, z'
loop_
 _atom_site_type_symbol
 _atom_site_label
 _atom_site_symmetry_multiplicity
 _atom_site_fract_x
 _atom_site_fract_y
 _atom_site_fract_z
 _atom_site_occupancy
  K  K0  1  0.99843900  0.00397400  0.00085300  1
  Ti  Ti0  1  0.33033500  0.51366700  0.17433600  1
  Ti  Ti1  1  0.85433900  0.80895300  0.51763000  1
  Ti  Ti2  1  0.15073500  0.18356800  0.48503800  1
  Fe  Fe0  1  0.66556200  0.48339900  0.81452400  1
  O  O0  1  0.95911100  0.37485200  0.29307400  1
  O  O1  1  0.03655800  0.62932700  0.70244300  1
  O  O2  1  0.66543000  0.28992800  0.62078700  1
  O  O3  1  0.33349800  0.70834900  0.37534500  1
  O  O4  1  0.70434500  0.64704800  0.05573700  1
  O  O5  1  0.30259300  0.35552900  0.96071500  1
  O  O6  1  0.65482600  0.05012600  0.35977800  1
  O  O7  1  0.34423100  0.95128000  0.63974200  1
loop_
_geom_bond_atom_site_label_1
_geom_bond_atom_site_label_2
_geom_bond_distance
_geom_bond_site_symmetry_2
K0 O5 2.951131 1_554
K0 O5 2.951133 1_654
K0 O4 2.996089 1_545
K0 O4 2.996092 1_645
K0 O6 3.036364 1_555
K0 O6 3.036365 1_655
K0 O7 3.055793 1_544
K0 O7 3.055795 1_644
Fe0 O2 1.986219 1_555
Fe0 O1 2.003699 1_555
Fe0 O1 2.003701 1_655
Fe0 O5 2.055792 1_555
Fe0 O5 2.055794 1_655
Fe0 O4 2.119805 1_556
O0 Ti2 1.954910 1_655
O0 Ti0 1.997972 1_555
O0 Ti0 1.997975 1_655
O1 Ti1 1.859496 1_455
O2 Ti2 1.956958 1_655
O2 Ti2 1.956961 1_555
O3 Ti1 1.965879 1_455
O3 Ti1 1.965881 1_555
O3 Ti0 2.030443 1_555
O4 Ti0 1.978452 1_655
O4 Ti0 1.978452 1_555
O5 Ti0 1.931945 1_556
O6 Ti2 2.005123 1_555
O6 Ti2 2.005123 1_655
O6 Ti1 2.073569 1_545
O7 Ti2 2.007933 1_565
O7 Ti1 2.026300 1_455
O7 Ti1 2.026303 1_555
