# generated using pymatgen
data_VSiP2O9
_symmetry_space_group_name_H-M   'P 1'
_cell_length_a   8.95297500
_cell_length_b   8.95297500
_cell_length_c   8.33879800
_cell_angle_alpha   90.00000000
_cell_angle_beta   90.00000000
_cell_angle_gamma   90.00000000
_symmetry_Int_Tables_number   1
_chemical_formula_structural   VSiP2O9
_chemical_formula_sum   'V4 Si4 P8 O36'
_cell_volume   668.40270244
_cell_formula_units_Z   4
loop_
 _symmetry_equiv_pos_site_id
 _symmetry_equiv_pos_as_xyz
  1  'x, y, z'
loop_
 _atom_site_type_symbol
 _atom_site_label
 _atom_site_symmetry_multiplicity
 _atom_site_fract_x
 _atom_site_fract_y
 _atom_site_fract_z
 _atom_site_occupancy
  V  V0  1  0.50000000  0.00000000  0.84075200  1
  V  V1  1  0.00000000  0.50000000  0.65924800  1
  V  V2  1  0.00000000  0.50000000  0.15924800  1
  V  V3  1  0.50000000  0.00000000  0.34075200  1
  Si  Si0  1  0.50000000  0.50000000  0.50000000  1
  Si  Si1  1  0.00000000  0.00000000  0.50000000  1
  Si  Si2  1  0.00000000  0.00000000  0.00000000  1
  Si  Si3  1  0.50000000  0.50000000  0.00000000  1
  P  P0  1  0.17823000  0.17823000  0.75000000  1
  P  P1  1  0.67823000  0.32177000  0.75000000  1
  P  P2  1  0.32177000  0.67823000  0.75000000  1
  P  P3  1  0.82177000  0.82177000  0.75000000  1
  P  P4  1  0.32177000  0.32177000  0.25000000  1
  P  P5  1  0.82177000  0.17823000  0.25000000  1
  P  P6  1  0.17823000  0.82177000  0.25000000  1
  P  P7  1  0.67823000  0.67823000  0.25000000  1
  O  O0  1  0.63447800  0.43293900  0.89067200  1
  O  O1  1  0.36552200  0.56706100  0.89067200  1
  O  O2  1  0.06706100  0.13447800  0.89067200  1
  O  O3  1  0.93293900  0.86552200  0.89067200  1
  O  O4  1  0.43293900  0.63447800  0.60932800  1
  O  O5  1  0.13447800  0.06706100  0.60932800  1
  O  O6  1  0.86552200  0.93293900  0.60932800  1
  O  O7  1  0.56706100  0.36552200  0.60932800  1
  O  O8  1  0.86552200  0.06706100  0.10932800  1
  O  O9  1  0.13447800  0.93293900  0.10932800  1
  O  O10  1  0.43293900  0.36552200  0.10932800  1
  O  O11  1  0.56706100  0.63447800  0.10932800  1
  O  O12  1  0.06706100  0.86552200  0.39067200  1
  O  O13  1  0.36552200  0.43293900  0.39067200  1
  O  O14  1  0.63447800  0.56706100  0.39067200  1
  O  O15  1  0.93293900  0.13447800  0.39067200  1
  O  O16  1  0.50000000  0.00000000  0.53731600  1
  O  O17  1  0.00000000  0.50000000  0.96268400  1
  O  O18  1  0.00000000  0.50000000  0.46268400  1
  O  O19  1  0.50000000  0.00000000  0.03731600  1
  O  O20  1  0.66237500  0.15025300  0.29748000  1
  O  O21  1  0.65025300  0.83762500  0.29748000  1
  O  O22  1  0.34974700  0.16237500  0.29748000  1
  O  O23  1  0.33762500  0.84974700  0.29748000  1
  O  O24  1  0.83762500  0.65025300  0.20252000  1
  O  O25  1  0.16237500  0.34974700  0.20252000  1
  O  O26  1  0.15025300  0.66237500  0.20252000  1
  O  O27  1  0.84974700  0.33762500  0.20252000  1
  O  O28  1  0.83762500  0.34974700  0.70252000  1
  O  O29  1  0.84974700  0.66237500  0.70252000  1
  O  O30  1  0.15025300  0.33762500  0.70252000  1
  O  O31  1  0.16237500  0.65025300  0.70252000  1
  O  O32  1  0.66237500  0.84974700  0.79748000  1
  O  O33  1  0.33762500  0.15025300  0.79748000  1
  O  O34  1  0.34974700  0.83762500  0.79748000  1
  O  O35  1  0.65025300  0.16237500  0.79748000  1
loop_
_geom_bond_atom_site_label_1
_geom_bond_atom_site_label_2
_geom_bond_distance
_geom_bond_site_symmetry_2
O0 P1 1.587469 1_555
O0 Si3 1.625168 1_556
O1 P2 1.587469 1_555
O1 Si3 1.625168 1_556
O2 P0 1.587469 1_555
O2 Si2 1.625168 1_556
O3 P3 1.587469 1_555
O3 Si2 1.625168 1_666
O4 P2 1.587469 1_555
O4 Si0 1.625168 1_555
O5 P0 1.587469 1_555
O5 Si1 1.625168 1_555
O6 P3 1.587469 1_555
O6 Si1 1.625168 1_665
O7 P1 1.587469 1_555
O7 Si0 1.625168 1_555
O8 P5 1.587469 1_555
O8 Si2 1.625168 1_655
O9 P6 1.587469 1_555
O9 Si2 1.625168 1_565
O10 P4 1.587469 1_555
O10 Si3 1.625168 1_555
O11 P7 1.587469 1_555
O11 Si3 1.625168 1_555
O12 P6 1.587469 1_555
O12 Si1 1.625168 1_565
O13 P4 1.587469 1_555
O13 Si0 1.625168 1_555
O14 P7 1.587469 1_555
O14 Si0 1.625168 1_555
O15 P5 1.587469 1_555
O15 Si1 1.625168 1_655
O16 V3 1.639107 1_555
O16 V0 2.530292 1_555
O17 V2 1.639107 1_556
O17 V1 2.530292 1_555
O18 V1 1.639107 1_555
O18 V2 2.530292 1_555
O19 V0 1.639107 1_554
O19 V3 2.530292 1_555
O20 P5 1.501997 1_555
O20 V3 2.013245 1_555
O21 P7 1.501997 1_555
O21 V3 2.013245 1_565
O22 P4 1.501997 1_555
O22 V3 2.013245 1_555
O23 P6 1.501997 1_555
O23 V3 2.013245 1_565
O24 P7 1.501997 1_555
O24 V2 2.013245 1_655
O25 P4 1.501997 1_555
O25 V2 2.013245 1_555
O26 P6 1.501997 1_555
O26 V2 2.013245 1_555
O27 P5 1.501997 1_555
O27 V2 2.013245 1_655
O28 P1 1.501997 1_555
O28 V1 2.013245 1_655
O29 P3 1.501997 1_555
O29 V1 2.013245 1_655
O30 P0 1.501997 1_555
O30 V1 2.013245 1_555
O31 P2 1.501997 1_555
O31 V1 2.013245 1_555
O32 P3 1.501997 1_555
O32 V0 2.013245 1_565
O33 P0 1.501997 1_555
O33 V0 2.013245 1_555
O34 P2 1.501997 1_555
O34 V0 2.013245 1_565
O35 P1 1.501997 1_555
O35 V0 2.013245 1_555
