# generated using pymatgen
data_Nd6Mn23
_symmetry_space_group_name_H-M   'P 1'
_cell_length_a   8.59983974
_cell_length_b   8.59983974
_cell_length_c   8.59983974
_cell_angle_alpha   60.00000000
_cell_angle_beta   60.00000000
_cell_angle_gamma   60.00000000
_symmetry_Int_Tables_number   1
_chemical_formula_structural   Nd6Mn23
_chemical_formula_sum   'Nd6 Mn23'
_cell_volume   449.73436824
_cell_formula_units_Z   1
loop_
 _symmetry_equiv_pos_site_id
 _symmetry_equiv_pos_as_xyz
  1  'x, y, z'
loop_
 _atom_site_type_symbol
 _atom_site_label
 _atom_site_symmetry_multiplicity
 _atom_site_fract_x
 _atom_site_fract_y
 _atom_site_fract_z
 _atom_site_occupancy
  Nd  Nd0  1  0.70401300  0.70401300  0.29598700  1
  Nd  Nd1  1  0.29598700  0.70401300  0.29598700  1
  Nd  Nd2  1  0.70401300  0.29598700  0.29598700  1
  Nd  Nd3  1  0.29598700  0.29598700  0.70401300  1
  Nd  Nd4  1  0.70401300  0.29598700  0.70401300  1
  Nd  Nd5  1  0.29598700  0.70401300  0.70401300  1
  Mn  Mn0  1  0.00000000  0.00000000  0.00000000  1
  Mn  Mn1  1  0.00000000  0.00000000  0.50000000  1
  Mn  Mn2  1  0.50000000  0.00000000  0.50000000  1
  Mn  Mn3  1  0.00000000  0.50000000  0.50000000  1
  Mn  Mn4  1  0.50000000  0.50000000  0.00000000  1
  Mn  Mn5  1  0.00000000  0.50000000  0.00000000  1
  Mn  Mn6  1  0.50000000  0.00000000  0.00000000  1
  Mn  Mn7  1  0.87966300  0.87966300  0.36101000  1
  Mn  Mn8  1  0.87966300  0.36101000  0.87966300  1
  Mn  Mn9  1  0.36101000  0.87966300  0.87966300  1
  Mn  Mn10  1  0.87966300  0.87966300  0.87966300  1
  Mn  Mn11  1  0.12033700  0.12033700  0.63899000  1
  Mn  Mn12  1  0.12033700  0.63899000  0.12033700  1
  Mn  Mn13  1  0.63899000  0.12033700  0.12033700  1
  Mn  Mn14  1  0.12033700  0.12033700  0.12033700  1
  Mn  Mn15  1  0.68048300  0.68048300  0.95855100  1
  Mn  Mn16  1  0.68048300  0.95855100  0.68048300  1
  Mn  Mn17  1  0.95855100  0.68048300  0.68048300  1
  Mn  Mn18  1  0.68048300  0.68048300  0.68048300  1
  Mn  Mn19  1  0.31951700  0.31951700  0.04144900  1
  Mn  Mn20  1  0.31951700  0.04144900  0.31951700  1
  Mn  Mn21  1  0.04144900  0.31951700  0.31951700  1
  Mn  Mn22  1  0.31951700  0.31951700  0.31951700  1
loop_
_geom_bond_atom_site_label_1
_geom_bond_atom_site_label_2
_geom_bond_distance
_geom_bond_site_symmetry_2
Nd0 Nd2 3.508958 1_555
Nd0 Nd5 3.508958 1_555
Nd0 Nd4 3.508958 1_555
Nd0 Nd1 3.508958 1_555
Nd1 Nd5 3.508958 1_555
Nd1 Nd2 3.508958 1_555
Nd1 Nd3 3.508958 1_555
Nd2 Nd3 3.508958 1_555
Nd2 Nd4 3.508958 1_555
Nd3 Nd5 3.508958 1_555
Nd3 Nd4 3.508958 1_555
Nd4 Nd5 3.508958 1_555
Mn0 Mn11 2.534918 1_554
Mn0 Mn12 2.534918 1_545
Mn0 Mn13 2.534918 1_455
Mn0 Mn9 2.534918 1_544
Mn0 Mn7 2.534918 1_445
Mn0 Mn8 2.534918 1_454
Mn0 Mn14 2.534925 1_555
Mn0 Mn10 2.534925 1_444
Mn1 Mn21 2.499562 1_555
Mn1 Mn20 2.499562 1_555
Mn1 Mn17 2.499562 1_445
Mn1 Mn16 2.499562 1_445
Mn1 Mn10 2.667503 1_445
Mn1 Mn14 2.667503 1_555
Mn1 Mn7 2.667510 1_445
Mn1 Mn11 2.667510 1_555
Mn1 Nd2 3.091515 1_455
Mn1 Nd5 3.091515 1_545
Mn1 Nd1 3.091515 1_545
Mn1 Nd4 3.091515 1_455
Mn2 Mn20 2.499562 1_555
Mn2 Mn22 2.499562 1_555
Mn2 Mn9 2.667503 1_545
Mn2 Mn7 2.667503 1_545
Mn2 Nd2 3.091515 1_555
Mn2 Nd5 3.091515 1_545
Mn2 Nd0 3.091515 1_545
Mn2 Nd3 3.091515 1_555
Mn3 Mn8 2.667503 1_455
Mn3 Mn7 2.667503 1_455
Mn3 Nd4 3.091515 1_455
Mn3 Nd1 3.091515 1_555
Mn3 Nd0 3.091515 1_455
Mn3 Nd3 3.091515 1_555
Mn4 Mn9 2.667503 1_554
Mn4 Mn8 2.667503 1_554
Mn4 Nd5 3.091515 1_554
Mn4 Nd2 3.091515 1_555
Mn4 Nd1 3.091515 1_555
Mn4 Nd4 3.091515 1_554
Mn5 Mn8 2.667510 1_454
Mn5 Nd5 3.091515 1_554
Mn5 Nd2 3.091515 1_455
Mn5 Nd3 3.091515 1_554
Mn5 Nd0 3.091515 1_455
Mn6 Mn9 2.667510 1_544
Mn6 Nd4 3.091515 1_554
Mn6 Nd1 3.091515 1_545
Mn6 Nd3 3.091515 1_554
Mn6 Nd0 3.091515 1_545
Mn7 Nd0 2.974467 1_555
Mn7 Nd2 2.974475 1_565
Mn7 Nd1 2.974475 1_655
Mn8 Nd4 2.974467 1_555
Mn8 Nd3 2.974475 1_655
Mn8 Nd2 2.974475 1_556
Mn9 Nd5 2.974467 1_555
Mn9 Nd3 2.974475 1_565
Mn9 Nd1 2.974475 1_556
Mn10 Mn17 2.634072 1_555
Mn10 Mn15 2.634072 1_555
Mn10 Mn16 2.634072 1_555
Mn10 Mn5 2.667503 1_656
Mn10 Mn6 2.667503 1_566
Mn10 Mn12 2.927080 1_656
Mn10 Mn11 2.927080 1_665
Mn10 Mn13 2.927080 1_566
Mn10 Nd0 2.974473 1_556
Mn10 Nd4 2.974473 1_565
Mn10 Nd5 2.974473 1_655
Mn11 Mn22 2.634076 1_555
Mn11 Mn21 2.634080 1_555
Mn11 Mn20 2.634080 1_555
Mn11 Mn2 2.667503 1_555
Mn11 Mn3 2.667503 1_555
Mn11 Mn8 2.927067 1_455
Mn11 Mn9 2.927067 1_545
Mn11 Nd3 2.974467 1_555
Mn11 Nd5 2.974475 1_545
Mn11 Nd4 2.974475 1_455
Mn12 Mn22 2.634076 1_555
Mn12 Mn21 2.634080 1_555
Mn12 Mn19 2.634080 1_555
Mn12 Mn4 2.667503 1_555
Mn12 Mn3 2.667503 1_555
Mn12 Mn5 2.667510 1_555
Mn12 Mn7 2.927067 1_455
Mn12 Mn9 2.927067 1_554
Mn12 Nd1 2.974467 1_555
Mn12 Nd0 2.974475 1_455
Mn12 Nd5 2.974475 1_554
Mn13 Mn22 2.634076 1_555
Mn13 Mn19 2.634080 1_555
Mn13 Mn20 2.634080 1_555
Mn13 Mn4 2.667503 1_555
Mn13 Mn2 2.667503 1_555
Mn13 Mn6 2.667510 1_555
Mn13 Mn8 2.927067 1_554
Mn13 Mn7 2.927067 1_545
Mn13 Nd2 2.974467 1_555
Mn13 Nd4 2.974475 1_554
Mn13 Nd0 2.974475 1_545
Mn14 Mn21 2.634072 1_555
Mn14 Mn19 2.634072 1_555
Mn14 Mn20 2.634072 1_555
Mn14 Mn6 2.667503 1_555
Mn14 Mn5 2.667503 1_555
Mn14 Mn7 2.927080 1_445
Mn14 Mn8 2.927080 1_454
Mn14 Mn9 2.927080 1_544
Mn14 Nd2 2.974473 1_455
Mn14 Nd1 2.974473 1_545
Mn14 Nd3 2.974473 1_554
Mn15 Mn17 2.391340 1_555
Mn15 Mn18 2.391340 1_555
Mn15 Mn16 2.391340 1_555
Mn15 Mn4 2.499562 1_556
Mn15 Mn5 2.499562 1_656
Mn15 Mn6 2.499562 1_566
Mn15 Mn8 2.634080 1_555
Mn15 Mn9 2.634080 1_555
Mn15 Nd1 3.117413 1_556
Mn15 Nd2 3.117413 1_556
Mn15 Nd0 3.117413 1_556
Mn16 Mn17 2.391340 1_555
Mn16 Mn18 2.391340 1_555
Mn16 Mn2 2.499562 1_565
Mn16 Mn6 2.499562 1_566
Mn16 Mn7 2.634080 1_555
Mn16 Mn9 2.634080 1_555
Mn16 Nd2 3.117413 1_565
Mn16 Nd3 3.117413 1_565
Mn16 Nd4 3.117413 1_565
Mn17 Mn18 2.391340 1_555
Mn17 Mn3 2.499562 1_655
Mn17 Mn5 2.499562 1_656
Mn17 Mn7 2.634080 1_555
Mn17 Mn8 2.634080 1_555
Mn17 Nd1 3.117413 1_655
Mn17 Nd3 3.117413 1_655
Mn17 Nd5 3.117413 1_655
Mn18 Mn2 2.499562 1_565
Mn18 Mn4 2.499562 1_556
Mn18 Mn3 2.499562 1_655
Mn18 Mn7 2.634076 1_555
Mn18 Mn8 2.634076 1_555
Mn18 Mn9 2.634076 1_555
Mn18 Nd0 3.117413 1_555
Mn18 Nd4 3.117413 1_555
Mn18 Nd5 3.117413 1_555
Mn19 Mn20 2.391340 1_555
Mn19 Mn21 2.391340 1_555
Mn19 Mn22 2.391340 1_555
Mn19 Mn6 2.499562 1_555
Mn19 Mn4 2.499562 1_555
Mn19 Mn5 2.499562 1_555
Mn19 Nd3 3.117413 1_554
Mn19 Nd4 3.117413 1_554
Mn19 Nd5 3.117413 1_554
Mn20 Mn21 2.391340 1_555
Mn20 Mn22 2.391340 1_555
Mn20 Mn6 2.499562 1_555
Mn20 Nd0 3.117413 1_545
Mn20 Nd1 3.117413 1_545
Mn20 Nd5 3.117413 1_545
Mn21 Mn22 2.391340 1_555
Mn21 Mn3 2.499562 1_555
Mn21 Mn5 2.499562 1_555
Mn21 Nd2 3.117413 1_455
Mn21 Nd4 3.117413 1_455
Mn21 Nd0 3.117413 1_455
Mn22 Mn4 2.499562 1_555
Mn22 Mn3 2.499562 1_555
Mn22 Nd2 3.117413 1_555
Mn22 Nd3 3.117413 1_555
Mn22 Nd1 3.117413 1_555
