# generated using pymatgen
data_TiCrAgS4
_symmetry_space_group_name_H-M   'P 1'
_cell_length_a   7.19306600
_cell_length_b   11.78101000
_cell_length_c   12.67695100
_cell_angle_alpha   90.00000000
_cell_angle_beta   90.00000000
_cell_angle_gamma   90.00000000
_symmetry_Int_Tables_number   1
_chemical_formula_structural   TiCrAgS4
_chemical_formula_sum   'Ti8 Cr8 Ag8 S32'
_cell_volume   1074.26488872
_cell_formula_units_Z   8
loop_
 _symmetry_equiv_pos_site_id
 _symmetry_equiv_pos_as_xyz
  1  'x, y, z'
loop_
 _atom_site_type_symbol
 _atom_site_label
 _atom_site_symmetry_multiplicity
 _atom_site_fract_x
 _atom_site_fract_y
 _atom_site_fract_z
 _atom_site_occupancy
  Ti  Ti0  1  0.81863900  0.11652800  0.69416500  1
  Ti  Ti1  1  0.18136100  0.88347200  0.19416500  1
  Ti  Ti2  1  0.81863900  0.38347200  0.19416500  1
  Ti  Ti3  1  0.18136100  0.61652800  0.69416500  1
  Ti  Ti4  1  0.44093300  0.08167300  0.34415500  1
  Ti  Ti5  1  0.55906700  0.91832700  0.84415500  1
  Ti  Ti6  1  0.44093300  0.41832700  0.84415500  1
  Ti  Ti7  1  0.55906700  0.58167300  0.34415500  1
  Cr  Cr0  1  0.56444300  0.16053500  0.95318700  1
  Cr  Cr1  1  0.43555700  0.83946500  0.45318700  1
  Cr  Cr2  1  0.56444300  0.33946500  0.45318700  1
  Cr  Cr3  1  0.43555700  0.66053500  0.95318700  1
  Cr  Cr4  1  0.06353600  0.15099300  0.96339900  1
  Cr  Cr5  1  0.93646400  0.84900700  0.46339900  1
  Cr  Cr6  1  0.06353600  0.34900700  0.46339900  1
  Cr  Cr7  1  0.93646400  0.65099300  0.96339900  1
  Ag  Ag0  1  0.25252500  0.10369900  0.65581600  1
  Ag  Ag1  1  0.74747500  0.89630100  0.15581600  1
  Ag  Ag2  1  0.25252500  0.39630100  0.15581600  1
  Ag  Ag3  1  0.74747500  0.60369900  0.65581600  1
  Ag  Ag4  1  0.84100600  0.10917400  0.28031400  1
  Ag  Ag5  1  0.15899400  0.89082600  0.78031400  1
  Ag  Ag6  1  0.84100600  0.39082600  0.78031400  1
  Ag  Ag7  1  0.15899400  0.60917400  0.28031400  1
  S  S0  1  0.81072800  0.03697900  0.88757700  1
  S  S1  1  0.18927200  0.96302100  0.38757700  1
  S  S2  1  0.81072800  0.46302100  0.38757700  1
  S  S3  1  0.18927200  0.53697900  0.88757700  1
  S  S4  1  0.45309000  0.01559500  0.17176200  1
  S  S5  1  0.54691000  0.98440500  0.67176200  1
  S  S6  1  0.45309000  0.48440500  0.67176200  1
  S  S7  1  0.54691000  0.51559500  0.17176200  1
  S  S8  1  0.32783200  0.02158800  0.92345300  1
  S  S9  1  0.67216800  0.97841200  0.42345300  1
  S  S10  1  0.32783200  0.47841200  0.42345300  1
  S  S11  1  0.67216800  0.52158800  0.92345300  1
  S  S12  1  0.02213100  0.03298900  0.12012700  1
  S  S13  1  0.97786900  0.96701100  0.62012700  1
  S  S14  1  0.02213100  0.46701100  0.62012700  1
  S  S15  1  0.97786900  0.53298900  0.12012700  1
  S  S16  1  0.80927500  0.23659600  0.53610400  1
  S  S17  1  0.19072500  0.76340400  0.03610400  1
  S  S18  1  0.80927500  0.26340400  0.03610400  1
  S  S19  1  0.19072500  0.73659600  0.53610400  1
  S  S20  1  0.31635700  0.21842400  0.49203800  1
  S  S21  1  0.68364300  0.78157600  0.99203800  1
  S  S22  1  0.31635700  0.28157600  0.99203800  1
  S  S23  1  0.68364300  0.71842400  0.49203800  1
  S  S24  1  0.05883100  0.21961700  0.78720300  1
  S  S25  1  0.94116900  0.78038300  0.28720300  1
  S  S26  1  0.05883100  0.28038300  0.28720300  1
  S  S27  1  0.94116900  0.71961700  0.78720300  1
  S  S28  1  0.56356400  0.24137100  0.78770300  1
  S  S29  1  0.43643600  0.75862900  0.28770300  1
  S  S30  1  0.56356400  0.25862900  0.28770300  1
  S  S31  1  0.43643600  0.74137100  0.78770300  1
loop_
_geom_bond_atom_site_label_1
_geom_bond_atom_site_label_2
_geom_bond_distance
_geom_bond_site_symmetry_2
Cr0 S28 2.303882 1_555
Cr0 S22 2.336758 1_555
Cr0 S18 2.382233 1_556
Cr0 S8 2.391297 1_555
Cr0 S0 2.439050 1_555
Cr1 S29 2.303882 1_555
Cr1 S23 2.336758 1_555
Cr1 S19 2.382233 1_555
Cr1 S9 2.391297 1_555
Cr1 S1 2.439050 1_555
Cr2 S30 2.303882 1_555
Cr2 S20 2.336758 1_555
Cr2 S16 2.382233 1_555
Cr2 S10 2.391297 1_555
Cr2 S2 2.439050 1_555
Cr3 S31 2.303882 1_555
Cr3 S21 2.336758 1_555
Cr3 S17 2.382233 1_556
Cr3 S11 2.391297 1_555
Cr3 S3 2.439050 1_555
Cr4 S24 2.375678 1_555
Cr4 S22 2.409489 1_555
Cr4 S18 2.438900 1_456
Cr4 S12 2.443129 1_556
Cr4 S0 2.456601 1_455
Cr4 S8 2.488931 1_555
Cr5 S25 2.375678 1_555
Cr5 S23 2.409489 1_555
Cr5 S19 2.438900 1_655
Cr5 S13 2.443129 1_555
Cr5 S1 2.456601 1_655
Cr5 S9 2.488931 1_555
Cr6 S26 2.375678 1_555
Cr6 S20 2.409489 1_555
Cr6 S16 2.438900 1_455
Cr6 S14 2.443129 1_555
Cr6 S2 2.456601 1_455
Cr6 S10 2.488931 1_555
Cr7 S27 2.375678 1_555
Cr7 S21 2.409489 1_555
Cr7 S17 2.438900 1_656
Cr7 S15 2.443129 1_556
Cr7 S3 2.456601 1_655
Cr7 S11 2.488931 1_555
Ag0 S20 2.519565 1_555
Ag0 S5 2.549502 1_545
Ag0 S24 2.565206 1_555
Ag0 S13 2.588610 1_445
Ag1 S21 2.519565 1_554
Ag1 S4 2.549502 1_565
Ag1 S25 2.565206 1_555
Ag1 S12 2.588610 1_665
Ag2 S22 2.519565 1_554
Ag2 S7 2.549502 1_555
Ag2 S26 2.565206 1_555
Ag2 S15 2.588610 1_455
Ag3 S23 2.519565 1_555
Ag3 S6 2.549502 1_555
Ag3 S27 2.565206 1_555
Ag3 S14 2.588610 1_655
Ag4 S26 2.555569 1_655
Ag4 S12 2.574227 1_655
Ag4 S30 2.663006 1_555
Ag4 S9 2.672216 1_545
Ag5 S27 2.555569 1_455
Ag5 S13 2.574227 1_455
Ag5 S31 2.663006 1_555
Ag5 S8 2.672216 1_565
Ag6 S24 2.555569 1_655
Ag6 S14 2.574227 1_655
Ag6 S28 2.663006 1_555
Ag6 S11 2.672216 1_555
Ag7 S25 2.555569 1_455
Ag7 S15 2.574227 1_455
Ag7 S29 2.663006 1_555
Ag7 S10 2.672216 1_555
S0 Ti5 2.352411 1_545
S0 Ti0 2.625492 1_555
S1 Ti4 2.352411 1_565
S1 Ti1 2.625492 1_555
S2 Ti7 2.352411 1_555
S2 Ti2 2.625492 1_555
S3 Ti6 2.352411 1_555
S3 Ti3 2.625492 1_555
S4 Ti4 2.321574 1_555
S4 Ti1 2.514717 1_545
S5 Ti5 2.321574 1_555
S5 Ti0 2.514717 1_565
S6 Ti6 2.321574 1_555
S6 Ti3 2.514717 1_555
S7 Ti7 2.321574 1_555
S7 Ti2 2.514717 1_555
S8 Ti5 2.292812 1_545
S9 Ti4 2.292812 1_565
S10 Ti7 2.292812 1_555
S11 Ti6 2.292812 1_555
S12 Ti1 2.301196 1_545
S13 Ti0 2.301196 1_565
S14 Ti3 2.301196 1_555
S15 Ti2 2.301196 1_555
S16 Ti0 2.453640 1_555
S17 Ti1 2.453640 1_555
S18 Ti2 2.453640 1_555
S19 Ti3 2.453640 1_555
S20 Ti4 2.629262 1_555
S21 Ti5 2.629262 1_555
S22 Ti6 2.629262 1_555
S23 Ti7 2.629262 1_555
S24 Ti0 2.418899 1_455
S25 Ti1 2.418899 1_655
S26 Ti2 2.418899 1_455
S27 Ti3 2.418899 1_655
S28 Ti6 2.374086 1_555
S28 Ti0 2.633560 1_555
S29 Ti7 2.374086 1_555
S29 Ti1 2.633560 1_555
S30 Ti4 2.374086 1_555
S30 Ti2 2.633560 1_555
S31 Ti5 2.374086 1_555
S31 Ti3 2.633560 1_555
