# generated using pymatgen
data_Mg(CoO2)2
_symmetry_space_group_name_H-M   'P 1'
_cell_length_a   5.97812688
_cell_length_b   5.97812688
_cell_length_c   14.60671300
_cell_angle_alpha   90.00000000
_cell_angle_beta   90.00000000
_cell_angle_gamma   120.00000975
_symmetry_Int_Tables_number   1
_chemical_formula_structural   Mg(CoO2)2
_chemical_formula_sum   'Mg6 Co12 O24'
_cell_volume   452.07796759
_cell_formula_units_Z   6
loop_
 _symmetry_equiv_pos_site_id
 _symmetry_equiv_pos_as_xyz
  1  'x, y, z'
loop_
 _atom_site_type_symbol
 _atom_site_label
 _atom_site_symmetry_multiplicity
 _atom_site_fract_x
 _atom_site_fract_y
 _atom_site_fract_z
 _atom_site_occupancy
  Mg  Mg0  1  0.66666700  0.33333300  0.95589800  1
  Mg  Mg1  1  0.33333300  0.66666700  0.62429600  1
  Mg  Mg2  1  0.33333300  0.66666700  0.99892800  1
  Mg  Mg3  1  0.00000000  0.00000000  0.29101800  1
  Mg  Mg4  1  0.66666700  0.33333300  0.70991100  1
  Mg  Mg5  1  0.33333300  0.66666700  0.37520200  1
  Co  Co0  1  0.16795700  0.83204300  0.83366400  1
  Co  Co1  1  0.16795700  0.33591500  0.83366400  1
  Co  Co2  1  0.83322100  0.16677900  0.50010500  1
  Co  Co3  1  0.66408500  0.83204300  0.83366400  1
  Co  Co4  1  0.00000000  0.00000000  0.66704700  1
  Co  Co5  1  0.83322100  0.66644200  0.50010500  1
  Co  Co6  1  0.50052100  0.49947900  0.16679000  1
  Co  Co7  1  0.33355800  0.16677900  0.50010500  1
  Co  Co8  1  0.99895700  0.49947900  0.16679000  1
  Co  Co9  1  0.66666700  0.33333300  0.33316500  1
  Co  Co10  1  0.50052100  0.00104300  0.16679000  1
  Co  Co11  1  0.00000000  0.00000000  0.04458300  1
  O  O0  1  0.48902300  0.97804700  0.90647300  1
  O  O1  1  0.33333300  0.66666700  0.75878800  1
  O  O2  1  0.02195300  0.51097700  0.90647300  1
  O  O3  1  0.48902300  0.51097700  0.90647300  1
  O  O4  1  0.84883400  0.15116600  0.75323300  1
  O  O5  1  0.15437000  0.30874100  0.57746300  1
  O  O6  1  0.30233100  0.15116600  0.75323300  1
  O  O7  1  0.00000000  0.00000000  0.90932300  1
  O  O8  1  0.69125900  0.84563000  0.57746300  1
  O  O9  1  0.00000000  0.00000000  0.42609100  1
  O  O10  1  0.84883400  0.69766900  0.75323300  1
  O  O11  1  0.15437000  0.84563000  0.57746300  1
  O  O12  1  0.51262200  0.48737800  0.42144600  1
  O  O13  1  0.81887500  0.63775100  0.24868200  1
  O  O14  1  0.97475500  0.48737800  0.42144600  1
  O  O15  1  0.66666700  0.33333300  0.57444600  1
  O  O16  1  0.66666700  0.33333300  0.09199600  1
  O  O17  1  0.36224900  0.18112500  0.24868200  1
  O  O18  1  0.51262200  0.02524500  0.42144600  1
  O  O19  1  0.81887500  0.18112500  0.24868200  1
  O  O20  1  0.17587500  0.82412500  0.09110100  1
  O  O21  1  0.33333300  0.66666700  0.24055000  1
  O  O22  1  0.64824900  0.82412500  0.09110100  1
  O  O23  1  0.17587500  0.35175100  0.09110100  1
loop_
_geom_bond_atom_site_label_1
_geom_bond_atom_site_label_2
_geom_bond_distance
_geom_bond_site_symmetry_2
Mg0 O2 1.975993 1_655
Mg0 O0 1.975993 1_545
Mg0 O3 1.976003 1_555
Mg0 O16 1.987944 1_556
Mg1 O1 1.964486 1_555
Mg1 O8 1.975293 1_555
Mg1 O5 1.975293 1_555
Mg1 O11 1.975294 1_555
Mg2 O0 2.102986 1_555
Mg2 O2 2.102986 1_555
Mg2 O3 2.102987 1_555
Mg2 O22 2.114427 1_556
Mg2 O23 2.114427 1_556
Mg2 O20 2.114427 1_556
Mg3 O9 1.972973 1_555
Mg3 O17 1.974760 1_555
Mg3 O13 1.974760 1_445
Mg3 O19 1.974765 1_455
Mg4 O15 1.978698 1_555
Mg4 O4 1.989548 1_555
Mg4 O10 1.989558 1_555
Mg4 O6 1.989558 1_555
Mg5 O21 1.966823 1_555
Mg5 O18 1.975502 1_565
Mg5 O14 1.975502 1_455
Mg5 O12 1.975502 1_555
Co0 O0 1.975240 1_555
Co0 O2 1.975240 1_555
Co0 O1 2.031842 1_555
Co0 O10 2.032869 1_455
Co0 O6 2.032869 1_565
Co0 O7 2.060527 1_565
Co1 O3 1.975240 1_555
Co1 O2 1.975240 1_555
Co1 O1 2.031842 1_555
Co1 O4 2.032869 1_455
Co1 O6 2.032870 1_555
Co1 O7 2.060531 1_555
Co2 O8 2.013351 1_545
Co2 O5 2.013351 1_655
Co2 O18 2.021789 1_555
Co2 O14 2.021789 1_555
Co2 O9 2.037391 1_655
Co2 O15 2.037958 1_555
Co3 O3 1.975240 1_555
Co3 O0 1.975240 1_555
Co3 O1 2.031842 1_555
Co3 O4 2.032869 1_565
Co3 O10 2.032870 1_555
Co3 O7 2.060531 1_665
Co4 O6 2.008672 1_555
Co4 O10 2.008672 1_445
Co4 O4 2.008676 1_455
Co4 O11 2.065712 1_545
Co4 O5 2.065716 1_555
Co4 O8 2.065716 1_445
Co5 O11 2.013351 1_655
Co5 O8 2.013356 1_555
Co5 O14 2.021785 1_555
Co5 O12 2.021789 1_555
Co5 O9 2.037391 1_665
Co5 O15 2.037962 1_555
Co6 O23 2.013665 1_555
Co6 O22 2.013665 1_555
Co6 O16 2.037924 1_555
Co6 O21 2.039019 1_555
Co6 O13 2.040334 1_555
Co6 O17 2.040334 1_555
Co7 O11 2.013351 1_545
Co7 O5 2.013356 1_555
Co7 O18 2.021785 1_555
Co7 O12 2.021789 1_555
Co7 O9 2.037391 1_555
Co7 O15 2.037962 1_555
Co8 O20 2.013665 1_655
Co8 O23 2.013665 1_655
Co8 O16 2.037915 1_555
Co8 O21 2.039019 1_655
Co8 O19 2.040334 1_555
Co8 O13 2.040334 1_555
Co9 O19 2.001664 1_555
Co9 O13 2.001672 1_555
Co9 O17 2.001672 1_555
Co9 O14 2.051082 1_555
Co9 O18 2.051082 1_555
Co9 O12 2.051090 1_555
Co10 O20 2.013665 1_545
Co10 O22 2.013665 1_545
Co10 O16 2.037915 1_555
Co10 O21 2.039019 1_545
Co10 O19 2.040334 1_555
Co10 O17 2.040334 1_555
Co11 O20 1.943716 1_545
Co11 O23 1.943721 1_555
Co11 O22 1.943721 1_445
Co11 O7 1.975704 1_554
