# generated using pymatgen
data_Y2O3
_symmetry_space_group_name_H-M   'P 1'
_cell_length_a   6.02980300
_cell_length_b   3.34371200
_cell_length_c   13.03388500
_cell_angle_alpha   90.00000000
_cell_angle_beta   90.00000000
_cell_angle_gamma   90.00000000
_symmetry_Int_Tables_number   1
_chemical_formula_structural   Y2O3
_chemical_formula_sum   'Y8 O12'
_cell_volume   262.78820725
_cell_formula_units_Z   4
loop_
 _symmetry_equiv_pos_site_id
 _symmetry_equiv_pos_as_xyz
  1  'x, y, z'
loop_
 _atom_site_type_symbol
 _atom_site_label
 _atom_site_symmetry_multiplicity
 _atom_site_fract_x
 _atom_site_fract_y
 _atom_site_fract_z
 _atom_site_occupancy
  Y  Y0  1  0.68336200  0.25000000  0.30167200  1
  Y  Y1  1  0.18336200  0.25000000  0.19832800  1
  Y  Y2  1  0.31663800  0.75000000  0.69832800  1
  Y  Y3  1  0.81663800  0.75000000  0.80167200  1
  Y  Y4  1  0.25862900  0.25000000  0.94872900  1
  Y  Y5  1  0.75862900  0.25000000  0.55127100  1
  Y  Y6  1  0.74137100  0.75000000  0.05127100  1
  Y  Y7  1  0.24137100  0.75000000  0.44872900  1
  O  O0  1  0.52720700  0.25000000  0.10932000  1
  O  O1  1  0.02720700  0.25000000  0.39068000  1
  O  O2  1  0.47279300  0.75000000  0.89068000  1
  O  O3  1  0.97279300  0.75000000  0.60932000  1
  O  O4  1  0.36129400  0.25000000  0.56331000  1
  O  O5  1  0.86129400  0.25000000  0.93669000  1
  O  O6  1  0.63870600  0.75000000  0.43669000  1
  O  O7  1  0.13870600  0.75000000  0.06331000  1
  O  O8  1  0.12840200  0.25000000  0.78055500  1
  O  O9  1  0.62840200  0.25000000  0.71944500  1
  O  O10  1  0.87159800  0.75000000  0.21944500  1
  O  O11  1  0.37159800  0.75000000  0.28055500  1
loop_
_geom_bond_atom_site_label_1
_geom_bond_atom_site_label_2
_geom_bond_distance
_geom_bond_site_symmetry_2
O0 Y6 2.243921 1_545
O0 Y6 2.243921 1_555
O0 Y1 2.375821 1_555
O0 Y4 2.646481 1_554
O0 Y0 2.678078 1_555
O1 Y7 2.243921 1_555
O1 Y7 2.243921 1_545
O1 Y0 2.375821 1_455
O1 Y5 2.646481 1_455
O1 Y1 2.678078 1_555
O2 Y4 2.243921 1_555
O2 Y4 2.243921 1_565
O2 Y3 2.375821 1_555
O2 Y6 2.646481 1_556
O2 Y2 2.678078 1_555
O3 Y5 2.243921 1_555
O3 Y5 2.243921 1_565
O3 Y2 2.375821 1_655
O3 Y7 2.646481 1_655
O3 Y3 2.678078 1_555
O4 Y7 2.355492 1_545
O4 Y7 2.355492 1_555
O4 Y5 2.400985 1_555
O4 Y2 2.442240 1_545
O4 Y2 2.442240 1_555
O5 Y6 2.355492 1_546
O5 Y6 2.355492 1_556
O5 Y4 2.400985 1_655
O5 Y3 2.442240 1_555
O5 Y3 2.442240 1_545
O6 Y5 2.355492 1_565
O6 Y5 2.355492 1_555
O6 Y7 2.400985 1_555
O6 Y0 2.442240 1_555
O6 Y0 2.442240 1_565
O7 Y4 2.355492 1_564
O7 Y4 2.355492 1_554
O7 Y6 2.400985 1_455
O7 Y1 2.442240 1_555
O7 Y1 2.442240 1_565
O8 Y2 2.287358 1_555
O8 Y2 2.287358 1_545
O8 Y4 2.328368 1_555
O8 Y3 2.530769 1_445
O8 Y3 2.530769 1_455
O9 Y3 2.287358 1_555
O9 Y3 2.287358 1_545
O9 Y5 2.328368 1_555
O9 Y2 2.530769 1_545
O9 Y2 2.530769 1_555
O10 Y0 2.287358 1_555
O10 Y0 2.287358 1_565
O10 Y6 2.328368 1_555
O10 Y1 2.530769 1_655
O10 Y1 2.530769 1_665
O11 Y1 2.287358 1_565
O11 Y1 2.287358 1_555
O11 Y7 2.328368 1_555
O11 Y0 2.530769 1_555
O11 Y0 2.530769 1_565
