# generated using pymatgen
data_CoAuO3
_symmetry_space_group_name_H-M   'P 1'
_cell_length_a   3.79899600
_cell_length_b   3.79899600
_cell_length_c   3.79899600
_cell_angle_alpha   90.00000000
_cell_angle_beta   90.00000000
_cell_angle_gamma   90.00000000
_symmetry_Int_Tables_number   1
_chemical_formula_structural   CoAuO3
_chemical_formula_sum   'Co1 Au1 O3'
_cell_volume   54.82851821
_cell_formula_units_Z   1
loop_
 _symmetry_equiv_pos_site_id
 _symmetry_equiv_pos_as_xyz
  1  'x, y, z'
loop_
 _atom_site_type_symbol
 _atom_site_label
 _atom_site_symmetry_multiplicity
 _atom_site_fract_x
 _atom_site_fract_y
 _atom_site_fract_z
 _atom_site_occupancy
  Co  Co0  1  0.50000000  0.50000000  0.50000000  1
  Au  Au0  1  0.00000000  0.00000000  0.00000000  1
  O  O0  1  0.50000000  0.50000000  0.00000000  1
  O  O1  1  0.50000000  0.00000000  0.50000000  1
  O  O2  1  0.00000000  0.50000000  0.50000000  1
loop_
_geom_bond_atom_site_label_1
_geom_bond_atom_site_label_2
_geom_bond_distance
_geom_bond_site_symmetry_2
Co0 O2 1.899498 1_555
Co0 O1 1.899498 1_565
Co0 O2 1.899498 1_655
Co0 O0 1.899498 1_556
Co0 O1 1.899498 1_555
Co0 O0 1.899498 1_555
Au0 O0 2.686296 1_455
Au0 O2 2.686296 1_544
Au0 O2 2.686296 1_545
Au0 O1 2.686296 1_555
Au0 O1 2.686296 1_455
Au0 O1 2.686296 1_454
Au0 O1 2.686296 1_554
Au0 O0 2.686296 1_545
Au0 O0 2.686296 1_555
Au0 O0 2.686296 1_445
Au0 O2 2.686296 1_555
Au0 O2 2.686296 1_554
