# generated using pymatgen
data_Cs2LiPrF6
_symmetry_space_group_name_H-M   'P 1'
_cell_length_a   6.44301557
_cell_length_b   6.44301557
_cell_length_c   6.44301557
_cell_angle_alpha   60.00000000
_cell_angle_beta   60.00000000
_cell_angle_gamma   60.00000000
_symmetry_Int_Tables_number   1
_chemical_formula_structural   Cs2LiPrF6
_chemical_formula_sum   'Cs2 Li1 Pr1 F6'
_cell_volume   189.12656922
_cell_formula_units_Z   1
loop_
 _symmetry_equiv_pos_site_id
 _symmetry_equiv_pos_as_xyz
  1  'x, y, z'
loop_
 _atom_site_type_symbol
 _atom_site_label
 _atom_site_symmetry_multiplicity
 _atom_site_fract_x
 _atom_site_fract_y
 _atom_site_fract_z
 _atom_site_occupancy
  Cs  Cs0  1  0.75000000  0.75000000  0.75000000  1
  Cs  Cs1  1  0.25000000  0.25000000  0.25000000  1
  Li  Li0  1  0.50000000  0.50000000  0.50000000  1
  Pr  Pr0  1  0.00000000  0.00000000  0.00000000  1
  F  F0  1  0.74529600  0.25470400  0.25470400  1
  F  F1  1  0.25470400  0.25470400  0.74529600  1
  F  F2  1  0.25470400  0.74529600  0.74529600  1
  F  F3  1  0.25470400  0.74529600  0.25470400  1
  F  F4  1  0.74529600  0.25470400  0.74529600  1
  F  F5  1  0.74529600  0.74529600  0.25470400  1
loop_
_geom_bond_atom_site_label_1
_geom_bond_atom_site_label_2
_geom_bond_distance
_geom_bond_site_symmetry_2
Cs0 F2 3.221793 1_655
Cs0 F5 3.221793 1_556
Cs0 F4 3.221793 1_565
Cs0 F3 3.221793 1_655
Cs0 F1 3.221793 1_565
Cs0 F0 3.221793 1_565
Cs0 F1 3.221793 1_655
Cs0 F4 3.221793 1_555
Cs0 F5 3.221793 1_555
Cs0 F2 3.221793 1_555
Cs0 F0 3.221793 1_556
Cs0 F3 3.221793 1_556
Cs1 F3 3.221793 1_555
Cs1 F0 3.221793 1_555
Cs1 F1 3.221793 1_555
Cs1 F2 3.221793 1_554
Cs1 F2 3.221793 1_545
Cs1 F5 3.221793 1_545
Cs1 F5 3.221793 1_455
Cs1 F4 3.221793 1_554
Cs1 F4 3.221793 1_455
Cs1 F1 3.221793 1_554
Cs1 F0 3.221793 1_455
Cs1 F3 3.221793 1_545
F0 Li0 2.235088 1_555
F0 Pr0 2.320812 1_655
F1 Li0 2.235088 1_555
F1 Pr0 2.320812 1_556
F2 Li0 2.235088 1_555
F2 Pr0 2.320812 1_566
F3 Li0 2.235088 1_555
F3 Pr0 2.320812 1_565
F4 Li0 2.235088 1_555
F4 Pr0 2.320812 1_656
F5 Li0 2.235088 1_555
F5 Pr0 2.320812 1_665
