# generated using pymatgen
data_Ti2ZnO4
_symmetry_space_group_name_H-M   'P 1'
_cell_length_a   6.12726970
_cell_length_b   6.12726970
_cell_length_c   14.85471554
_cell_angle_alpha   89.55762370
_cell_angle_beta   89.55762370
_cell_angle_gamma   58.30873687
_symmetry_Int_Tables_number   1
_chemical_formula_structural   Ti2ZnO4
_chemical_formula_sum   'Ti12 Zn6 O24'
_cell_volume   474.52096685
_cell_formula_units_Z   6
loop_
 _symmetry_equiv_pos_site_id
 _symmetry_equiv_pos_as_xyz
  1  'x, y, z'
loop_
 _atom_site_type_symbol
 _atom_site_label
 _atom_site_symmetry_multiplicity
 _atom_site_fract_x
 _atom_site_fract_y
 _atom_site_fract_z
 _atom_site_occupancy
  Ti  Ti0  1  0.81048800  0.34452800  0.83699800  1
  Ti  Ti1  1  0.50235500  0.50235500  0.62036800  1
  Ti  Ti2  1  0.49497000  0.49497000  0.00816800  1
  Ti  Ti3  1  0.34452800  0.81048800  0.83699800  1
  Ti  Ti4  1  0.51459900  0.98705600  0.50004000  1
  Ti  Ti5  1  0.16817000  0.16817000  0.28854800  1
  Ti  Ti6  1  0.98705600  0.51459900  0.50004000  1
  Ti  Ti7  1  0.19281000  0.64832400  0.15963400  1
  Ti  Ti8  1  0.83089800  0.83089800  0.71560400  1
  Ti  Ti9  1  0.64832400  0.19281000  0.15963400  1
  Ti  Ti10  1  0.49620800  0.49620800  0.37660800  1
  Ti  Ti11  1  0.15994600  0.15994600  0.03582700  1
  Zn  Zn0  1  0.83142600  0.83142600  0.96088500  1
  Zn  Zn1  1  0.16686300  0.16686300  0.66828800  1
  Zn  Zn2  1  0.33064400  0.33064400  0.83672100  1
  Zn  Zn3  1  0.83967500  0.83967500  0.32905100  1
  Zn  Zn4  1  0.00195800  0.00195800  0.49944400  1
  Zn  Zn5  1  0.67591800  0.67591800  0.16584700  1
  O  O0  1  0.65946100  0.19207500  0.91585900  1
  O  O1  1  0.50540800  0.50540800  0.74876000  1
  O  O2  1  0.19207500  0.65946100  0.91585900  1
  O  O3  1  0.65634700  0.65634700  0.91759600  1
  O  O4  1  0.33012100  0.84881900  0.57965900  1
  O  O5  1  0.00094400  0.00094400  0.75533800  1
  O  O6  1  0.17267600  0.17267600  0.41646200  1
  O  O7  1  0.48589700  0.99857900  0.75497100  1
  O  O8  1  0.84881900  0.33012100  0.57965900  1
  O  O9  1  0.16063000  0.16063000  0.90950300  1
  O  O10  1  0.33215600  0.33215600  0.57846700  1
  O  O11  1  0.99857900  0.48589700  0.75497100  1
  O  O12  1  0.00672500  0.50905200  0.24753900  1
  O  O13  1  0.66348600  0.66348600  0.41928000  1
  O  O14  1  0.15269300  0.66904900  0.41978000  1
  O  O15  1  0.50905200  0.00672500  0.24753900  1
  O  O16  1  0.84248200  0.84248200  0.09475000  1
  O  O17  1  0.82899400  0.82899400  0.58679500  1
  O  O18  1  0.00250600  0.00250600  0.24505500  1
  O  O19  1  0.66904900  0.15269300  0.41978000  1
  O  O20  1  0.32458300  0.32458300  0.07834600  1
  O  O21  1  0.82412300  0.33869700  0.08406100  1
  O  O22  1  0.49998200  0.49998200  0.24735900  1
  O  O23  1  0.33869700  0.82412300  0.08406100  1
loop_
_geom_bond_atom_site_label_1
_geom_bond_atom_site_label_2
_geom_bond_distance
_geom_bond_site_symmetry_2
O0 Ti0 1.993947 1_555
O0 Zn0 1.995600 1_545
O0 Zn2 2.094257 1_555
O0 Ti2 2.095977 1_556
O1 Ti1 1.907795 1_555
O1 Ti0 2.065406 1_555
O1 Ti3 2.065406 1_555
O1 Zn2 2.272049 1_555
O2 Ti3 1.993947 1_555
O2 Zn0 1.995600 1_455
O2 Zn2 2.094257 1_555
O2 Ti2 2.095977 1_556
O3 Zn0 1.986343 1_555
O3 Ti0 2.024289 1_555
O3 Ti3 2.024289 1_555
O3 Ti2 2.179864 1_556
O4 Ti1 1.903199 1_555
O4 Ti4 2.088965 1_555
O4 Zn4 2.093026 1_565
O4 Zn1 2.121951 1_565
O5 Ti8 1.918117 1_445
O5 Ti0 2.168316 1_455
O5 Ti3 2.168316 1_545
O5 Zn1 2.187353 1_555
O6 Ti5 1.901164 1_555
O6 Ti4 2.176922 1_545
O6 Ti6 2.176922 1_455
O6 Zn4 2.194924 1_555
O7 Ti8 1.890616 1_555
O7 Zn1 2.107864 1_565
O7 Zn2 2.122766 1_565
O7 Ti3 2.138726 1_555
O8 Ti1 1.903199 1_555
O8 Ti6 2.088965 1_555
O8 Zn4 2.093026 1_655
O8 Zn1 2.121951 1_655
O9 Ti11 1.876457 1_556
O9 Zn2 2.108238 1_555
O9 Ti3 2.123549 1_545
O9 Ti0 2.123549 1_455
O10 Ti1 1.930084 1_555
O10 Ti6 2.147661 1_455
O10 Ti4 2.147661 1_545
O10 Zn1 2.206304 1_555
O11 Ti8 1.890616 1_555
O11 Zn1 2.107864 1_655
O11 Zn2 2.122766 1_655
O11 Ti0 2.138726 1_555
O12 Ti5 1.879095 1_555
O12 Zn3 2.111358 1_455
O12 Zn5 2.113729 1_455
O12 Ti7 2.171518 1_555
O13 Ti10 1.904397 1_555
O13 Ti4 2.078854 1_555
O13 Ti6 2.078854 1_555
O13 Zn3 2.303734 1_555
O14 Ti10 1.900171 1_555
O14 Ti6 2.078482 1_455
O14 Zn4 2.110746 1_565
O14 Zn3 2.121164 1_455
O15 Ti5 1.879095 1_555
O15 Zn3 2.111358 1_545
O15 Zn5 2.113729 1_545
O15 Ti9 2.171518 1_555
O16 Zn0 1.993088 1_554
O16 Zn5 2.063897 1_555
O16 Ti9 2.069566 1_565
O16 Ti7 2.069566 1_655
O17 Ti8 1.913710 1_555
O17 Ti6 2.090107 1_555
O17 Ti4 2.090107 1_555
O17 Zn4 2.251148 1_665
O18 Ti5 1.892348 1_555
O18 Zn3 2.134274 1_445
O18 Ti9 2.245065 1_455
O18 Ti7 2.245065 1_545
O19 Ti10 1.900171 1_555
O19 Ti4 2.078482 1_545
O19 Zn4 2.110746 1_655
O19 Zn3 2.121164 1_545
O20 Ti11 1.876983 1_555
O20 Ti2 2.092423 1_555
O20 Ti7 2.093798 1_555
O20 Ti9 2.093798 1_555
O21 Ti11 1.889032 1_655
O21 Ti9 2.048681 1_555
O21 Ti2 2.060279 1_555
O21 Zn5 2.149485 1_555
O22 Ti10 1.920025 1_555
O22 Ti7 2.070955 1_555
O22 Ti9 2.070955 1_555
O22 Zn5 2.229577 1_555
O23 Ti11 1.889032 1_565
O23 Ti7 2.048681 1_555
O23 Ti2 2.060279 1_555
O23 Zn5 2.149485 1_555
