# generated using pymatgen
data_Li7Mn2(CoO4)3
_symmetry_space_group_name_H-M   'P 1'
_cell_length_a   2.89919200
_cell_length_b   5.17705200
_cell_length_c   14.50653067
_cell_angle_alpha   89.34060648
_cell_angle_beta   90.00000000
_cell_angle_gamma   90.00000000
_symmetry_Int_Tables_number   1
_chemical_formula_structural   Li7Mn2(CoO4)3
_chemical_formula_sum   'Li7 Mn2 Co3 O12'
_cell_volume   217.71798388
_cell_formula_units_Z   1
loop_
 _symmetry_equiv_pos_site_id
 _symmetry_equiv_pos_as_xyz
  1  'x, y, z'
loop_
 _atom_site_type_symbol
 _atom_site_label
 _atom_site_symmetry_multiplicity
 _atom_site_fract_x
 _atom_site_fract_y
 _atom_site_fract_z
 _atom_site_occupancy
  Li  Li0  1  0.00000000  0.00000000  0.00000000  1
  Li  Li1  1  0.50000000  0.16691200  0.17089900  1
  Li  Li2  1  0.00000000  0.33441400  0.34418300  1
  Li  Li3  1  0.50000000  0.50000000  0.50000000  1
  Li  Li4  1  0.00000000  0.66558600  0.65581700  1
  Li  Li5  1  0.50000000  0.83308800  0.82910100  1
  Li  Li6  1  0.00000000  0.00000000  0.50000000  1
  Mn  Mn0  1  0.00000000  0.32854000  0.83222600  1
  Mn  Mn1  1  0.00000000  0.67146000  0.16777400  1
  Co  Co0  1  0.50000000  0.50000000  0.00000000  1
  Co  Co1  1  0.50000000  0.85526000  0.34606100  1
  Co  Co2  1  0.50000000  0.14474000  0.65393900  1
  O  O0  1  0.00000000  0.36918900  0.08366300  1
  O  O1  1  0.50000000  0.52145400  0.23737600  1
  O  O2  1  0.00000000  0.67030300  0.40795400  1
  O  O3  1  0.50000000  0.85117800  0.59186600  1
  O  O4  1  0.00000000  0.03844900  0.75319800  1
  O  O5  1  0.50000000  0.17641100  0.90856300  1
  O  O6  1  0.00000000  0.63081100  0.91633700  1
  O  O7  1  0.50000000  0.82358900  0.09143700  1
  O  O8  1  0.00000000  0.96155100  0.24680200  1
  O  O9  1  0.50000000  0.14882200  0.40813400  1
  O  O10  1  0.00000000  0.32969700  0.59204600  1
  O  O11  1  0.50000000  0.47854600  0.76262400  1
loop_
_geom_bond_atom_site_label_1
_geom_bond_atom_site_label_2
_geom_bond_distance
_geom_bond_site_symmetry_2
Li0 O7 2.160317 1_545
Li0 O7 2.160317 1_445
Li0 O5 2.160317 1_554
Li0 O5 2.160317 1_454
Li0 O0 2.275845 1_555
Li0 O6 2.275845 1_544
Li1 O1 2.083197 1_555
Li1 O8 2.101690 1_645
Li1 O8 2.101690 1_545
Li1 O7 2.129571 1_545
Li1 O0 2.183786 1_555
Li1 O0 2.183786 1_655
Li2 O9 1.965865 1_455
Li2 O9 1.965865 1_555
Li2 O2 1.979054 1_555
Li2 O1 2.324880 1_455
Li2 O1 2.324880 1_555
Li2 O8 2.405110 1_545
Li3 O2 2.152791 1_555
Li3 O2 2.152791 1_655
Li3 O10 2.152791 1_555
Li3 O10 2.152791 1_655
Li3 O3 2.266519 1_555
Li3 O9 2.266519 1_555
Li4 O3 1.965865 1_555
Li4 O3 1.965865 1_455
Li4 O10 1.979054 1_555
Li4 O11 2.324880 1_455
Li4 O11 2.324880 1_555
Li4 O4 2.405110 1_565
Li5 O11 2.083197 1_555
Li5 O4 2.101690 1_565
Li5 O4 2.101690 1_665
Li5 O5 2.129571 1_565
Li5 O6 2.183786 1_655
Li5 O6 2.183786 1_555
Li6 O9 2.108857 1_455
Li6 O9 2.108857 1_555
Li6 O3 2.108857 1_445
Li6 O3 2.108857 1_545
Li6 O10 2.179166 1_555
Li6 O2 2.179166 1_545
Mn0 O4 1.899833 1_555
Mn0 O11 1.925054 1_555
Mn0 O11 1.925054 1_455
Mn0 O5 1.981877 1_555
Mn0 O5 1.981877 1_455
Mn0 O6 1.995385 1_555
Mn1 O8 1.899833 1_555
Mn1 O1 1.925054 1_555
Mn1 O1 1.925054 1_455
Mn1 O7 1.981877 1_455
Mn1 O7 1.981877 1_555
Mn1 O0 1.995385 1_555
Co0 O0 2.003497 1_555
Co0 O0 2.003497 1_655
Co0 O6 2.003497 1_654
Co0 O6 2.003497 1_554
Co0 O7 2.148718 1_555
Co0 O5 2.148718 1_554
Co1 O9 1.775411 1_565
Co1 O2 1.950525 1_655
Co1 O2 1.950525 1_555
Co1 O8 2.111686 1_555
Co1 O8 2.111686 1_655
Co1 O1 2.352647 1_555
Co2 O3 1.775411 1_545
Co2 O10 1.950525 1_555
Co2 O10 1.950525 1_655
Co2 O4 2.111686 1_555
Co2 O4 2.111686 1_655
Co2 O11 2.352647 1_555
