# generated using pymatgen
data_MoW3(SeS3)2
_symmetry_space_group_name_H-M   'P 1'
_cell_length_a   3.21988457
_cell_length_b   3.21988457
_cell_length_c   36.40680400
_cell_angle_alpha   90.00000000
_cell_angle_beta   90.00000000
_cell_angle_gamma   120.00001172
_symmetry_Int_Tables_number   1
_chemical_formula_structural   MoW3(SeS3)2
_chemical_formula_sum   'Mo1 W3 Se2 S6'
_cell_volume   326.88405900
_cell_formula_units_Z   1
loop_
 _symmetry_equiv_pos_site_id
 _symmetry_equiv_pos_as_xyz
  1  'x, y, z'
loop_
 _atom_site_type_symbol
 _atom_site_label
 _atom_site_symmetry_multiplicity
 _atom_site_fract_x
 _atom_site_fract_y
 _atom_site_fract_z
 _atom_site_occupancy
  Mo  Mo0  1  0.66666700  0.33333300  0.28178700  1
  W  W0  1  0.33333300  0.66666700  0.09390500  1
  W  W1  1  0.33333300  0.66666700  0.46966800  1
  W  W2  1  0.66666700  0.33333300  0.65754200  1
  Se  Se0  1  0.33333300  0.66666700  0.32878600  1
  Se  Se1  1  0.33333300  0.66666700  0.23480600  1
  S  S0  1  0.33333300  0.66666700  0.70049100  1
  S  S1  1  0.66666700  0.33333300  0.05096500  1
  S  S2  1  0.66666700  0.33333300  0.42673600  1
  S  S3  1  0.66666700  0.33333300  0.13685900  1
  S  S4  1  0.66666700  0.33333300  0.51261000  1
  S  S5  1  0.33333300  0.66666700  0.61459400  1
loop_
_geom_bond_atom_site_label_1
_geom_bond_atom_site_label_2
_geom_bond_distance
_geom_bond_site_symmetry_2
Mo0 Se1 2.526152 1_655
Mo0 Se1 2.526152 1_545
Mo0 Se1 2.526156 1_555
Mo0 Se0 2.526595 1_545
Mo0 Se0 2.526595 1_655
Mo0 Se0 2.526600 1_555
S0 W2 2.429163 1_455
S0 W2 2.429163 1_565
S0 W2 2.429168 1_555
S1 W0 2.428952 1_545
S1 W0 2.428952 1_655
S1 W0 2.428957 1_555
S2 W1 2.428765 1_545
S2 W1 2.428765 1_655
S2 W1 2.428770 1_555
S3 W0 2.429281 1_655
S3 W0 2.429281 1_545
S3 W0 2.429285 1_555
S4 W1 2.428999 1_655
S4 W1 2.428999 1_545
S4 W1 2.429004 1_555
S5 W2 2.429140 1_455
S5 W2 2.429140 1_565
S5 W2 2.429144 1_555
