# generated using pymatgen
data_Er5Pb4
_symmetry_space_group_name_H-M   'P 1'
_cell_length_a   8.13891000
_cell_length_b   8.19540400
_cell_length_c   15.57282700
_cell_angle_alpha   90.00000000
_cell_angle_beta   90.00000000
_cell_angle_gamma   90.00000000
_symmetry_Int_Tables_number   1
_chemical_formula_structural   Er5Pb4
_chemical_formula_sum   'Er20 Pb16'
_cell_volume   1038.73334280
_cell_formula_units_Z   4
loop_
 _symmetry_equiv_pos_site_id
 _symmetry_equiv_pos_as_xyz
  1  'x, y, z'
loop_
 _atom_site_type_symbol
 _atom_site_label
 _atom_site_symmetry_multiplicity
 _atom_site_fract_x
 _atom_site_fract_y
 _atom_site_fract_z
 _atom_site_occupancy
  Er  Er0  1  0.37762400  0.84012100  0.87984400  1
  Er  Er1  1  0.87762400  0.65987900  0.62015600  1
  Er  Er2  1  0.62237600  0.15987900  0.37984400  1
  Er  Er3  1  0.12237600  0.34012100  0.12015600  1
  Er  Er4  1  0.62237600  0.15987900  0.12015600  1
  Er  Er5  1  0.12237600  0.34012100  0.37984400  1
  Er  Er6  1  0.37762400  0.84012100  0.62015600  1
  Er  Er7  1  0.87762400  0.65987900  0.87984400  1
  Er  Er8  1  0.53438900  0.32280600  0.89994700  1
  Er  Er9  1  0.03438900  0.17719400  0.60005300  1
  Er  Er10  1  0.46561100  0.67719400  0.39994700  1
  Er  Er11  1  0.96561100  0.82280600  0.10005300  1
  Er  Er12  1  0.46561100  0.67719400  0.10005300  1
  Er  Er13  1  0.96561100  0.82280600  0.39994700  1
  Er  Er14  1  0.53438900  0.32280600  0.60005300  1
  Er  Er15  1  0.03438900  0.17719400  0.89994700  1
  Er  Er16  1  0.20859200  0.50369500  0.75000000  1
  Er  Er17  1  0.70859200  0.99630500  0.75000000  1
  Er  Er18  1  0.79140800  0.49630500  0.25000000  1
  Er  Er19  1  0.29140800  0.00369500  0.25000000  1
  Pb  Pb0  1  0.28057100  0.03181400  0.04227800  1
  Pb  Pb1  1  0.78057100  0.46818600  0.45772200  1
  Pb  Pb2  1  0.71942900  0.96818600  0.54227800  1
  Pb  Pb3  1  0.21942900  0.53181400  0.95772200  1
  Pb  Pb4  1  0.71942900  0.96818600  0.95772200  1
  Pb  Pb5  1  0.21942900  0.53181400  0.54227800  1
  Pb  Pb6  1  0.28057100  0.03181400  0.45772200  1
  Pb  Pb7  1  0.78057100  0.46818600  0.04227800  1
  Pb  Pb8  1  0.57158000  0.62734000  0.75000000  1
  Pb  Pb9  1  0.07158000  0.87266000  0.75000000  1
  Pb  Pb10  1  0.42842000  0.37266000  0.25000000  1
  Pb  Pb11  1  0.92842000  0.12734000  0.25000000  1
  Pb  Pb12  1  0.34565800  0.15147200  0.75000000  1
  Pb  Pb13  1  0.84565800  0.34852800  0.75000000  1
  Pb  Pb14  1  0.65434200  0.84852800  0.25000000  1
  Pb  Pb15  1  0.15434200  0.65147200  0.25000000  1
loop_
_geom_bond_atom_site_label_1
_geom_bond_atom_site_label_2
_geom_bond_distance
_geom_bond_site_symmetry_2
Er0 Pb0 3.080690 1_566
Er0 Pb3 3.084282 1_555
Er0 Pb8 3.101857 1_555
Er0 Pb4 3.211146 1_555
Er0 Pb9 3.219341 1_555
Er0 Pb12 3.266072 1_565
Er1 Pb1 3.080690 1_555
Er1 Pb2 3.084282 1_555
Er1 Pb9 3.101857 1_655
Er1 Pb5 3.211146 1_655
Er1 Pb8 3.219341 1_555
Er1 Pb13 3.266072 1_555
Er2 Pb2 3.080690 1_545
Er2 Pb1 3.084282 1_555
Er2 Pb10 3.101857 1_555
Er2 Pb6 3.211146 1_555
Er2 Pb11 3.219341 1_555
Er2 Pb14 3.266072 1_545
Er3 Pb3 3.080690 1_554
Er3 Pb0 3.084282 1_555
Er3 Pb11 3.101857 1_455
Er3 Pb7 3.211146 1_455
Er3 Pb10 3.219341 1_555
Er3 Pb15 3.266072 1_555
Er4 Pb4 3.080690 1_544
Er4 Pb7 3.084282 1_555
Er4 Pb10 3.101857 1_555
Er4 Pb0 3.211146 1_555
Er4 Pb11 3.219341 1_555
Er4 Pb14 3.266072 1_545
Er5 Pb5 3.080690 1_555
Er5 Pb6 3.084282 1_555
Er5 Pb11 3.101857 1_455
Er5 Pb1 3.211146 1_455
Er5 Pb10 3.219341 1_555
Er5 Pb15 3.266072 1_555
Er6 Pb6 3.080690 1_565
Er6 Pb5 3.084282 1_555
Er6 Pb8 3.101857 1_555
Er6 Pb2 3.211146 1_555
Er6 Pb9 3.219341 1_555
Er6 Pb12 3.266072 1_565
Er7 Pb7 3.080690 1_556
Er7 Pb4 3.084282 1_555
Er7 Pb9 3.101857 1_655
Er7 Pb3 3.211146 1_655
Er7 Pb8 3.219341 1_555
Er7 Pb13 3.266072 1_555
Er8 Pb12 3.127910 1_555
Er8 Pb3 3.211654 1_555
Er8 Pb7 3.216680 1_556
Er8 Pb4 3.394690 1_545
Er8 Pb8 3.431213 1_555
Er8 Pb13 3.451839 1_555
Er8 Pb0 3.855859 1_556
Er9 Pb13 3.127910 1_455
Er9 Pb2 3.211654 1_445
Er9 Pb6 3.216680 1_555
Er9 Pb5 3.394690 1_555
Er9 Pb9 3.431213 1_545
Er9 Pb12 3.451839 1_555
Er9 Pb1 3.855859 1_455
Er10 Pb14 3.127910 1_555
Er10 Pb1 3.211654 1_555
Er10 Pb5 3.216680 1_555
Er10 Pb6 3.394690 1_565
Er10 Pb10 3.431213 1_555
Er10 Pb15 3.451839 1_555
Er10 Pb2 3.855859 1_555
Er11 Pb15 3.127910 1_655
Er11 Pb0 3.211654 1_665
Er11 Pb4 3.216680 1_554
Er11 Pb7 3.394690 1_555
Er11 Pb11 3.431213 1_565
Er11 Pb14 3.451839 1_555
Er11 Pb3 3.855859 1_654
Er12 Pb14 3.127910 1_555
Er12 Pb7 3.211654 1_555
Er12 Pb3 3.216680 1_554
Er12 Pb0 3.394690 1_565
Er12 Pb10 3.431213 1_555
Er12 Pb15 3.451839 1_555
Er12 Pb4 3.855859 1_554
Er13 Pb15 3.127910 1_655
Er13 Pb6 3.211654 1_665
Er13 Pb2 3.216680 1_555
Er13 Pb1 3.394690 1_555
Er13 Pb11 3.431213 1_565
Er13 Pb14 3.451839 1_555
Er13 Pb5 3.855859 1_655
Er14 Pb12 3.127910 1_555
Er14 Pb5 3.211654 1_555
Er14 Pb1 3.216680 1_555
Er14 Pb2 3.394690 1_545
Er14 Pb8 3.431213 1_555
Er14 Pb13 3.451839 1_555
Er14 Pb6 3.855859 1_555
Er15 Pb13 3.127910 1_455
Er15 Pb4 3.211654 1_445
Er15 Pb0 3.216680 1_556
Er15 Pb3 3.394690 1_555
Er15 Pb9 3.431213 1_545
Er15 Pb12 3.451839 1_555
Er15 Pb7 3.855859 1_456
Er16 Pb12 3.094674 1_555
Er16 Pb8 3.123278 1_555
Er16 Pb13 3.215985 1_455
Er16 Pb9 3.222884 1_555
Er16 Pb3 3.244216 1_555
Er16 Pb5 3.244216 1_555
Er17 Pb13 3.094674 1_565
Er17 Pb9 3.123278 1_655
Er17 Pb12 3.215985 1_565
Er17 Pb8 3.222884 1_555
Er17 Pb2 3.244216 1_555
Er17 Pb4 3.244216 1_555
Er18 Pb14 3.094674 1_555
Er18 Pb10 3.123278 1_555
Er18 Pb15 3.215985 1_655
Er18 Pb11 3.222884 1_555
Er18 Pb7 3.244216 1_555
Er18 Pb1 3.244216 1_555
Er19 Pb15 3.094674 1_545
Er19 Pb11 3.123278 1_455
Er19 Pb14 3.215985 1_545
Er19 Pb10 3.222884 1_555
Er19 Pb0 3.244216 1_555
Er19 Pb6 3.244216 1_555
