# generated using pymatgen
data_EuH6CI3N
_symmetry_space_group_name_H-M   'P 1'
_cell_length_a   8.96681805
_cell_length_b   8.96681805
_cell_length_c   13.27982646
_cell_angle_alpha   89.64326700
_cell_angle_beta   89.64326700
_cell_angle_gamma   89.96194738
_symmetry_Int_Tables_number   1
_chemical_formula_structural   EuH6CI3N
_chemical_formula_sum   'Eu4 H24 C4 I12 N4'
_cell_volume   1067.70725546
_cell_formula_units_Z   4
loop_
 _symmetry_equiv_pos_site_id
 _symmetry_equiv_pos_as_xyz
  1  'x, y, z'
loop_
 _atom_site_type_symbol
 _atom_site_label
 _atom_site_symmetry_multiplicity
 _atom_site_fract_x
 _atom_site_fract_y
 _atom_site_fract_z
 _atom_site_occupancy
  Eu  Eu0  1  0.51644000  0.50820400  0.98858300  1
  Eu  Eu1  1  0.50820400  0.51644000  0.48858300  1
  Eu  Eu2  1  0.01190600  0.02925500  0.48960900  1
  Eu  Eu3  1  0.02925500  0.01190600  0.98960900  1
  H  H0  1  0.01945200  0.64506200  0.22806800  1
  H  H1  1  0.03413300  0.51537000  0.33101200  1
  H  H2  1  0.15653100  0.50056200  0.22414300  1
  H  H3  1  0.82588600  0.45212700  0.21938100  1
  H  H4  1  0.94116900  0.43936200  0.12113700  1
  H  H5  1  0.95457900  0.31699700  0.21574600  1
  H  H6  1  0.59519100  0.93588200  0.11852000  1
  H  H7  1  0.71633400  0.95164600  0.21261000  1
  H  H8  1  0.58891900  0.81498400  0.21438100  1
  H  H9  1  0.52127500  0.14256400  0.22682900  1
  H  H10  1  0.38566700  0.99677800  0.22874700  1
  H  H11  1  0.51383600  0.01407200  0.33099700  1
  H  H12  1  0.31699700  0.95457900  0.71574600  1
  H  H13  1  0.43936200  0.94116900  0.62113700  1
  H  H14  1  0.45212700  0.82588600  0.71938100  1
  H  H15  1  0.50056200  0.15653100  0.72414300  1
  H  H16  1  0.51537000  0.03413300  0.83101200  1
  H  H17  1  0.64506200  0.01945200  0.72806800  1
  H  H18  1  0.95164600  0.71633400  0.71261000  1
  H  H19  1  0.93588200  0.59519100  0.61852000  1
  H  H20  1  0.81498400  0.58891900  0.71438100  1
  H  H21  1  0.14256400  0.52127500  0.72682900  1
  H  H22  1  0.01407200  0.51383600  0.83099700  1
  H  H23  1  0.99677800  0.38566700  0.72874700  1
  C  C0  1  0.49935000  0.02701400  0.24954200  1
  C  C1  1  0.04399700  0.52945100  0.24923800  1
  C  C2  1  0.52945100  0.04399700  0.74923800  1
  C  C3  1  0.02701400  0.49935000  0.74954200  1
  I  I0  1  0.83068400  0.70234100  0.99474400  1
  I  I1  1  0.20937500  0.32346800  0.99739600  1
  I  I2  1  0.72058600  0.20680500  0.99819600  1
  I  I3  1  0.34325400  0.82912900  0.98977200  1
  I  I4  1  0.82912900  0.34325400  0.48977200  1
  I  I5  1  0.20680500  0.72058600  0.49819600  1
  I  I6  1  0.70234100  0.83068400  0.49474400  1
  I  I7  1  0.32346800  0.20937500  0.49739600  1
  I  I8  1  0.53261400  0.52351400  0.23996400  1
  I  I9  1  0.52351400  0.53261400  0.73996400  1
  I  I10  1  0.02267900  0.00467900  0.74147400  1
  I  I11  1  0.00467900  0.02267900  0.24147400  1
  N  N0  1  0.60622200  0.92667900  0.19602500  1
  N  N1  1  0.93517300  0.42871600  0.19886700  1
  N  N2  1  0.42871600  0.93517300  0.69886700  1
  N  N3  1  0.92667900  0.60622200  0.69602500  1
loop_
_geom_bond_atom_site_label_1
_geom_bond_atom_site_label_2
_geom_bond_distance
_geom_bond_site_symmetry_2
Eu0 I1 3.215352 1_555
Eu0 I2 3.265457 1_555
Eu0 I3 3.269125 1_555
Eu0 I9 3.307721 1_555
Eu0 I0 3.314820 1_555
Eu0 I8 3.346022 1_556
Eu1 I7 3.215352 1_555
Eu1 I5 3.265457 1_555
Eu1 I4 3.269125 1_555
Eu1 I8 3.307721 1_555
Eu1 I6 3.314820 1_555
Eu1 I9 3.346022 1_555
Eu2 I7 3.230448 1_555
Eu2 I4 3.256906 1_455
Eu2 I5 3.274129 1_545
Eu2 I11 3.297125 1_555
Eu2 I6 3.298915 1_445
Eu2 I10 3.352594 1_555
Eu3 I1 3.230448 1_555
Eu3 I3 3.256906 1_545
Eu3 I2 3.274129 1_455
Eu3 I10 3.297125 1_555
Eu3 I0 3.298915 1_445
Eu3 I11 3.352594 1_556
H3 N1 1.037165 1_555
H4 N1 1.037118 1_555
H5 N1 1.039958 1_555
H6 N0 1.037379 1_555
H7 N0 1.037840 1_555
H8 N0 1.040812 1_555
H12 N2 1.039958 1_555
H13 N2 1.037118 1_555
H14 N2 1.037165 1_555
H18 N3 1.037840 1_555
H19 N3 1.037379 1_555
H20 N3 1.040812 1_555
C0 H10 1.092564 1_545
C0 H9 1.094899 1_555
C0 H11 1.095718 1_555
C0 N0 1.493721 1_545
C1 H2 1.092213 1_555
C1 H0 1.094981 1_555
C1 H1 1.095515 1_555
C1 N1 1.494112 1_455
C2 H15 1.092213 1_555
C2 H17 1.094981 1_555
C2 H16 1.095515 1_555
C2 N2 1.494112 1_545
C3 H23 1.092564 1_455
C3 H21 1.094899 1_555
C3 H22 1.095718 1_555
C3 N3 1.493721 1_455
