# generated using pymatgen
data_Y(MnAl2)4
_symmetry_space_group_name_H-M   'P 1'
_cell_length_a   5.20778256
_cell_length_b   6.75853954
_cell_length_c   6.75851071
_cell_angle_alpha   81.45159974
_cell_angle_beta   67.36051082
_cell_angle_gamma   67.36095447
_symmetry_Int_Tables_number   1
_chemical_formula_structural   Y(MnAl2)4
_chemical_formula_sum   'Y1 Mn4 Al8'
_cell_volume   202.63283124
_cell_formula_units_Z   1
loop_
 _symmetry_equiv_pos_site_id
 _symmetry_equiv_pos_as_xyz
  1  'x, y, z'
loop_
 _atom_site_type_symbol
 _atom_site_label
 _atom_site_symmetry_multiplicity
 _atom_site_fract_x
 _atom_site_fract_y
 _atom_site_fract_z
 _atom_site_occupancy
  Y  Y0  1  0.00000000  0.00000000  -0.00000000  1
  Mn  Mn0  1  0.50000000  0.00000000  0.50000000  1
  Mn  Mn1  1  0.00000000  0.50000000  -0.00000000  1
  Mn  Mn2  1  0.50000000  0.50000000  -0.00000000  1
  Mn  Mn3  1  0.00000000  0.00000000  0.50000000  1
  Al  Al0  1  0.34190580  0.65803748  0.65805107  1
  Al  Al1  1  -0.00001257  0.34194964  0.65806813  1
  Al  Al2  1  0.00001257  0.65805036  0.34193187  1
  Al  Al3  1  0.65809420  0.34196252  0.34194893  1
  Al  Al4  1  0.27390993  0.22607545  0.22606671  1
  Al  Al5  1  0.50000983  0.77404074  0.22595390  1
  Al  Al6  1  0.49999017  0.22595926  0.77404610  1
  Al  Al7  1  0.72609007  0.77392455  0.77393329  1
loop_
_geom_bond_atom_site_label_1
_geom_bond_atom_site_label_2
_geom_bond_distance
_geom_bond_site_symmetry_2
Mn0 Mn3 2.603891 1_655
Mn0 Mn3 2.603891 1_555
Mn0 Y0 3.380152 1_655
Mn0 Y0 3.380152 1_556
Mn1 Mn2 2.603891 1_455
Mn1 Mn2 2.603891 1_555
Mn1 Y0 3.379270 1_555
Mn1 Y0 3.379270 1_565
Mn2 Y0 3.380181 1_655
Mn2 Y0 3.380181 1_565
Mn3 Y0 3.379255 1_556
Mn3 Y0 3.379255 1_555
Al0 Mn2 2.685840 1_556
Al0 Mn0 2.685939 1_565
Al0 Mn1 2.685997 1_556
Al0 Mn3 2.686114 1_565
Al0 Al3 2.789161 1_555
Al0 Al6 2.790251 1_555
Al0 Al5 2.790360 1_555
Al0 Al7 2.797307 1_555
Al0 Al7 2.797651 1_455
Al0 Y0 3.017412 1_566
Al1 Mn1 2.686179 1_556
Al1 Mn3 2.686296 1_555
Al1 Mn2 2.687294 1_456
Al1 Mn0 2.687455 1_555
Al1 Al2 2.787868 1_555
Al1 Al7 2.790198 1_455
Al1 Al4 2.790354 1_555
Al1 Al6 2.797578 1_555
Al1 Al6 2.797604 1_455
Al1 Y0 3.015596 1_556
Al2 Mn1 2.686179 1_555
Al2 Mn3 2.686296 1_565
Al2 Mn2 2.687294 1_555
Al2 Mn0 2.687455 1_465
Al2 Al4 2.790198 1_555
Al2 Al7 2.790354 1_455
Al2 Al5 2.797578 1_455
Al2 Al5 2.797604 1_555
Al2 Y0 3.015596 1_565
Al3 Mn2 2.685840 1_555
Al3 Mn0 2.685939 1_555
Al3 Mn1 2.685997 1_655
Al3 Mn3 2.686114 1_655
Al3 Al5 2.790251 1_555
Al3 Al6 2.790360 1_555
Al3 Al4 2.797307 1_555
Al3 Al4 2.797651 1_655
Al3 Y0 3.017412 1_655
Al4 Mn2 2.569127 1_555
Al4 Mn1 2.569150 1_555
Al4 Mn0 2.569200 1_555
Al4 Mn3 2.569204 1_555
Al4 Al6 2.819585 1_554
Al4 Al5 2.819694 1_545
Al4 Y0 3.279272 1_555
Al4 Y0 3.281114 1_655
Al5 Mn2 2.569705 1_555
Al5 Mn0 2.569706 1_565
Al5 Mn1 2.570857 1_655
Al5 Mn3 2.570931 1_565
Al5 Al7 2.819585 1_554
Al5 Y0 3.278866 1_665
Al5 Y0 3.278939 1_565
Al6 Mn2 2.569705 1_556
Al6 Mn0 2.569706 1_555
Al6 Mn1 2.570857 1_556
Al6 Mn3 2.570931 1_655
Al6 Al7 2.819694 1_545
Al6 Y0 3.278866 1_556
Al6 Y0 3.278939 1_656
Al7 Mn2 2.569127 1_556
Al7 Mn1 2.569150 1_656
Al7 Mn0 2.569200 1_565
Al7 Mn3 2.569204 1_665
Al7 Y0 3.279272 1_666
Al7 Y0 3.281114 1_566
