# generated using pymatgen
data_NbV3O8
_symmetry_space_group_name_H-M   'P 1'
_cell_length_a   6.01735867
_cell_length_b   5.98727846
_cell_length_c   9.38494591
_cell_angle_alpha   88.15710090
_cell_angle_beta   90.91683880
_cell_angle_gamma   119.83456809
_symmetry_Int_Tables_number   1
_chemical_formula_structural   NbV3O8
_chemical_formula_sum   'Nb2 V6 O16'
_cell_volume   293.15319271
_cell_formula_units_Z   2
loop_
 _symmetry_equiv_pos_site_id
 _symmetry_equiv_pos_as_xyz
  1  'x, y, z'
loop_
 _atom_site_type_symbol
 _atom_site_label
 _atom_site_symmetry_multiplicity
 _atom_site_fract_x
 _atom_site_fract_y
 _atom_site_fract_z
 _atom_site_occupancy
  Nb  Nb0  1  0.34536000  0.67869400  0.49950100  1
  Nb  Nb1  1  0.65464600  0.33333300  0.99950000  1
  V  V0  1  0.15841800  0.81714400  0.21934900  1
  V  V1  1  0.16717100  0.33956300  0.20465100  1
  V  V2  1  0.65711400  0.82114200  0.21813800  1
  V  V3  1  0.34287800  0.16401800  0.71813900  1
  V  V4  1  0.84156700  0.65871800  0.71934600  1
  V  V5  1  0.83284300  0.17240600  0.70465200  1
  O  O0  1  0.17611200  0.82923200  0.60288800  1
  O  O1  1  0.04729500  0.53220800  0.33673400  1
  O  O2  1  0.33674400  0.68212700  0.10653200  1
  O  O3  1  0.99836700  0.99553000  0.30155000  1
  O  O4  1  0.00163400  0.99716200  0.80155000  1
  O  O5  1  0.18299000  0.34182600  0.59727200  1
  O  O6  1  0.47787100  0.95483500  0.33635300  1
  O  O7  1  0.48768600  0.53361300  0.33538400  1
  O  O8  1  0.33565600  0.15957100  0.09951100  1
  O  O9  1  0.66434700  0.82392400  0.59951400  1
  O  O10  1  0.52212300  0.47696300  0.83634800  1
  O  O11  1  0.51232000  0.04593000  0.83538000  1
  O  O12  1  0.66325700  0.34538400  0.60653400  1
  O  O13  1  0.82387800  0.65311800  0.10288900  1
  O  O14  1  0.95270500  0.48491800  0.83673700  1
  O  O15  1  0.81701500  0.15884100  0.09727300  1
loop_
_geom_bond_atom_site_label_1
_geom_bond_atom_site_label_2
_geom_bond_distance
_geom_bond_site_symmetry_2
Nb0 O9 1.911955 1_555
Nb0 O0 1.947357 1_555
Nb0 O5 1.952802 1_555
Nb0 O6 2.068385 1_555
Nb0 O7 2.174575 1_555
Nb0 O1 2.180102 1_555
Nb1 O8 1.911964 1_556
Nb1 O13 1.947363 1_556
Nb1 O15 1.952772 1_556
Nb1 O10 2.068448 1_555
Nb1 O11 2.174582 1_555
Nb1 O14 2.180058 1_555
O0 V4 2.059865 1_455
O0 V3 2.073181 1_565
O1 V0 1.827244 1_555
O1 V1 2.082236 1_555
O2 V0 1.969885 1_555
O2 V2 1.975128 1_555
O2 V1 1.980423 1_555
O3 V0 1.940009 1_655
O3 V2 1.946132 1_555
O3 V1 1.982144 1_665
O4 V4 1.940055 1_455
O4 V3 1.946089 1_565
O4 V5 1.982142 1_465
O5 V3 2.062089 1_555
O5 V5 2.087932 1_455
O6 V2 1.997334 1_555
O6 V0 1.998598 1_555
O7 V2 1.838893 1_555
O7 V1 2.088372 1_555
O8 V0 2.078494 1_545
O8 V1 2.085754 1_555
O9 V4 2.078450 1_555
O9 V5 2.085770 1_565
O10 V3 1.997342 1_555
O10 V4 1.998553 1_555
O11 V3 1.838872 1_555
O11 V5 2.088376 1_555
O12 V4 1.969818 1_555
O12 V3 1.975169 1_555
O12 V5 1.980413 1_555
O13 V0 2.059848 1_655
O13 V2 2.073177 1_555
O14 V4 1.827273 1_555
O14 V5 2.082218 1_555
O15 V2 2.062098 1_545
O15 V1 2.087959 1_655
