# generated using pymatgen
data_RbMoN2
_symmetry_space_group_name_H-M   'P 1'
_cell_length_a   6.14305000
_cell_length_b   12.27672500
_cell_length_c   16.88662400
_cell_angle_alpha   90.00000000
_cell_angle_beta   90.00000000
_cell_angle_gamma   90.00000000
_symmetry_Int_Tables_number   1
_chemical_formula_structural   RbMoN2
_chemical_formula_sum   'Rb16 Mo16 N32'
_cell_volume   1273.53067856
_cell_formula_units_Z   16
loop_
 _symmetry_equiv_pos_site_id
 _symmetry_equiv_pos_as_xyz
  1  'x, y, z'
loop_
 _atom_site_type_symbol
 _atom_site_label
 _atom_site_symmetry_multiplicity
 _atom_site_fract_x
 _atom_site_fract_y
 _atom_site_fract_z
 _atom_site_occupancy
  Rb  Rb0  1  0.23946500  0.99959300  0.43491800  1
  Rb  Rb1  1  0.73946500  0.50040700  0.56508200  1
  Rb  Rb2  1  0.76053500  0.49959300  0.06508200  1
  Rb  Rb3  1  0.26053500  0.00040700  0.93491800  1
  Rb  Rb4  1  0.76053500  0.00040700  0.56508200  1
  Rb  Rb5  1  0.26053500  0.49959300  0.43491800  1
  Rb  Rb6  1  0.23946500  0.50040700  0.93491800  1
  Rb  Rb7  1  0.73946500  0.99959300  0.06508200  1
  Rb  Rb8  1  0.34850900  0.25199700  0.31025300  1
  Rb  Rb9  1  0.84850900  0.24800300  0.68974700  1
  Rb  Rb10  1  0.65149100  0.75199700  0.18974700  1
  Rb  Rb11  1  0.15149100  0.74800300  0.81025300  1
  Rb  Rb12  1  0.65149100  0.74800300  0.68974700  1
  Rb  Rb13  1  0.15149100  0.75199700  0.31025300  1
  Rb  Rb14  1  0.34850900  0.24800300  0.81025300  1
  Rb  Rb15  1  0.84850900  0.25199700  0.18974700  1
  Mo  Mo0  1  0.73434900  0.00231600  0.31395100  1
  Mo  Mo1  1  0.23434900  0.49768400  0.68604900  1
  Mo  Mo2  1  0.26565100  0.50231600  0.18604900  1
  Mo  Mo3  1  0.76565100  0.99768400  0.81395100  1
  Mo  Mo4  1  0.26565100  0.99768400  0.68604900  1
  Mo  Mo5  1  0.76565100  0.50231600  0.31395100  1
  Mo  Mo6  1  0.73434900  0.49768400  0.81395100  1
  Mo  Mo7  1  0.23434900  0.00231600  0.18604900  1
  Mo  Mo8  1  0.81394900  0.25301300  0.44130800  1
  Mo  Mo9  1  0.31394900  0.24698700  0.55869200  1
  Mo  Mo10  1  0.18605100  0.75301300  0.05869200  1
  Mo  Mo11  1  0.68605100  0.74698700  0.94130800  1
  Mo  Mo12  1  0.18605100  0.74698700  0.55869200  1
  Mo  Mo13  1  0.68605100  0.75301300  0.44130800  1
  Mo  Mo14  1  0.81394900  0.24698700  0.94130800  1
  Mo  Mo15  1  0.31394900  0.25301300  0.05869200  1
  N  N0  1  0.11442900  0.25491100  0.47234500  1
  N  N1  1  0.61442900  0.24508900  0.52765500  1
  N  N2  1  0.88557100  0.75491100  0.02765500  1
  N  N3  1  0.38557100  0.74508900  0.97234500  1
  N  N4  1  0.88557100  0.74508900  0.52765500  1
  N  N5  1  0.38557100  0.75491100  0.47234500  1
  N  N6  1  0.11442900  0.24508900  0.97234500  1
  N  N7  1  0.61442900  0.25491100  0.02765500  1
  N  N8  1  0.74635700  0.38054300  0.38286300  1
  N  N9  1  0.24635700  0.11945700  0.61713700  1
  N  N10  1  0.25364300  0.88054300  0.11713700  1
  N  N11  1  0.75364300  0.61945700  0.88286300  1
  N  N12  1  0.25364300  0.61945700  0.61713700  1
  N  N13  1  0.75364300  0.88054300  0.38286300  1
  N  N14  1  0.74635700  0.11945700  0.88286300  1
  N  N15  1  0.24635700  0.38054300  0.11713700  1
  N  N16  1  0.76512400  0.13089800  0.37533900  1
  N  N17  1  0.26512400  0.36910200  0.62466100  1
  N  N18  1  0.23487600  0.63089800  0.12466100  1
  N  N19  1  0.73487600  0.86910200  0.87533900  1
  N  N20  1  0.23487600  0.86910200  0.62466100  1
  N  N21  1  0.73487600  0.63089800  0.37533900  1
  N  N22  1  0.76512400  0.36910200  0.87533900  1
  N  N23  1  0.26512400  0.13089800  0.12466100  1
  N  N24  1  0.54112600  0.50015000  0.23700700  1
  N  N25  1  0.04112600  0.99985000  0.76299300  1
  N  N26  1  0.45887400  0.00015000  0.26299300  1
  N  N27  1  0.95887400  0.49985000  0.73700700  1
  N  N28  1  0.45887400  0.49985000  0.76299300  1
  N  N29  1  0.95887400  0.00015000  0.23700700  1
  N  N30  1  0.54112600  0.99985000  0.73700700  1
  N  N31  1  0.04112600  0.50015000  0.26299300  1
loop_
_geom_bond_atom_site_label_1
_geom_bond_atom_site_label_2
_geom_bond_distance
_geom_bond_site_symmetry_2
Mo0 N29 1.895081 1_555
Mo0 N16 1.897953 1_555
Mo0 N13 1.898202 1_545
Mo0 N26 1.898661 1_555
Mo1 N28 1.895081 1_555
Mo1 N17 1.897953 1_555
Mo1 N12 1.898202 1_555
Mo1 N27 1.898661 1_455
Mo2 N31 1.895081 1_555
Mo2 N18 1.897953 1_555
Mo2 N15 1.898202 1_555
Mo2 N24 1.898661 1_555
Mo3 N30 1.895081 1_555
Mo3 N19 1.897953 1_555
Mo3 N14 1.898202 1_565
Mo3 N25 1.898661 1_655
Mo4 N25 1.895081 1_555
Mo4 N20 1.897953 1_555
Mo4 N9 1.898202 1_565
Mo4 N30 1.898661 1_555
Mo5 N24 1.895081 1_555
Mo5 N21 1.897953 1_555
Mo5 N8 1.898202 1_555
Mo5 N31 1.898661 1_655
Mo6 N27 1.895081 1_555
Mo6 N22 1.897953 1_555
Mo6 N11 1.898202 1_555
Mo6 N28 1.898661 1_555
Mo7 N26 1.895081 1_555
Mo7 N23 1.897953 1_555
Mo7 N10 1.898202 1_545
Mo7 N29 1.898661 1_455
Mo8 N16 1.891682 1_555
Mo8 N8 1.896765 1_555
Mo8 N1 1.907300 1_555
Mo8 N0 1.918970 1_655
Mo9 N17 1.891682 1_555
Mo9 N9 1.896765 1_555
Mo9 N0 1.907300 1_555
Mo9 N1 1.918970 1_555
Mo10 N18 1.891682 1_555
Mo10 N10 1.896765 1_555
Mo10 N3 1.907300 1_554
Mo10 N2 1.918970 1_455
Mo11 N19 1.891682 1_555
Mo11 N11 1.896765 1_555
Mo11 N2 1.907300 1_556
Mo11 N3 1.918970 1_555
Mo12 N20 1.891682 1_555
Mo12 N12 1.896765 1_555
Mo12 N5 1.907300 1_555
Mo12 N4 1.918970 1_455
Mo13 N21 1.891682 1_555
Mo13 N13 1.896765 1_555
Mo13 N4 1.907300 1_555
Mo13 N5 1.918970 1_555
Mo14 N22 1.891682 1_555
Mo14 N14 1.896765 1_555
Mo14 N7 1.907300 1_556
Mo14 N6 1.918970 1_655
Mo15 N23 1.891682 1_555
Mo15 N15 1.896765 1_555
Mo15 N6 1.907300 1_554
Mo15 N7 1.918970 1_555
N0 Rb8 3.092121 1_555
N0 Rb5 3.198186 1_555
N0 Rb0 3.288513 1_545
N1 Rb9 3.092121 1_555
N1 Rb4 3.198186 1_555
N1 Rb1 3.288513 1_555
N2 Rb10 3.092121 1_555
N2 Rb7 3.198186 1_555
N2 Rb2 3.288513 1_555
N3 Rb11 3.092121 1_555
N3 Rb6 3.198186 1_555
N3 Rb3 3.288513 1_565
N4 Rb12 3.092121 1_555
N4 Rb1 3.198186 1_555
N4 Rb4 3.288513 1_565
N5 Rb13 3.092121 1_555
N5 Rb0 3.198186 1_555
N5 Rb5 3.288513 1_555
N6 Rb14 3.092121 1_555
N6 Rb3 3.198186 1_555
N6 Rb6 3.288513 1_555
N7 Rb15 3.092121 1_555
N7 Rb2 3.198186 1_555
N7 Rb7 3.288513 1_545
N8 Rb8 3.157060 1_555
N8 Rb1 3.411090 1_555
N8 Rb5 3.437387 1_555
N9 Rb9 3.157060 1_455
N9 Rb0 3.411090 1_545
N9 Rb4 3.437387 1_455
N10 Rb10 3.157060 1_555
N10 Rb3 3.411090 1_564
N10 Rb7 3.437387 1_555
N11 Rb11 3.157060 1_655
N11 Rb2 3.411090 1_556
N11 Rb6 3.437387 1_655
N12 Rb12 3.157060 1_555
N12 Rb5 3.411090 1_555
N12 Rb1 3.437387 1_555
N13 Rb13 3.157060 1_655
N13 Rb4 3.411090 1_565
N13 Rb0 3.437387 1_655
N14 Rb14 3.157060 1_555
N14 Rb7 3.411090 1_546
N14 Rb3 3.437387 1_555
N15 Rb15 3.157060 1_455
N15 Rb6 3.411090 1_554
N15 Rb2 3.437387 1_455
N16 Rb8 3.157247 1_555
N16 Rb0 3.478729 1_645
N16 Rb15 3.506388 1_555
N17 Rb9 3.157247 1_455
N17 Rb1 3.478729 1_555
N17 Rb14 3.506388 1_555
N18 Rb10 3.157247 1_555
N18 Rb2 3.478729 1_455
N18 Rb13 3.506388 1_555
N19 Rb11 3.157247 1_655
N19 Rb3 3.478729 1_565
N19 Rb12 3.506388 1_555
N20 Rb12 3.157247 1_555
N20 Rb4 3.478729 1_465
N20 Rb11 3.506388 1_555
N21 Rb13 3.157247 1_655
N21 Rb5 3.478729 1_555
N21 Rb10 3.506388 1_555
N22 Rb14 3.157247 1_555
N22 Rb6 3.478729 1_655
N22 Rb9 3.506388 1_555
N23 Rb15 3.157247 1_455
N23 Rb7 3.478729 1_545
N23 Rb8 3.506388 1_555
N24 Rb2 3.200856 1_555
N24 Rb10 3.264373 1_555
N24 Rb8 3.494447 1_555
N25 Rb3 3.200856 1_565
N25 Rb11 3.264373 1_555
N25 Rb9 3.494447 1_465
N26 Rb0 3.200856 1_545
N26 Rb8 3.264373 1_555
N26 Rb10 3.494447 1_545
N27 Rb1 3.200856 1_555
N27 Rb9 3.264373 1_555
N27 Rb11 3.494447 1_655
N28 Rb6 3.200856 1_555
N28 Rb14 3.264373 1_555
N28 Rb12 3.494447 1_555
N29 Rb7 3.200856 1_545
N29 Rb15 3.264373 1_555
N29 Rb13 3.494447 1_645
N30 Rb4 3.200856 1_565
N30 Rb12 3.264373 1_555
N30 Rb14 3.494447 1_565
N31 Rb5 3.200856 1_555
N31 Rb13 3.264373 1_555
N31 Rb15 3.494447 1_455
