# generated using pymatgen
data_W4NO12
_symmetry_space_group_name_H-M   'P 1'
_cell_length_a   7.52911314
_cell_length_b   7.52911314
_cell_length_c   15.40339100
_cell_angle_alpha   90.00000000
_cell_angle_beta   90.00000000
_cell_angle_gamma   119.99999245
_symmetry_Int_Tables_number   1
_chemical_formula_structural   W4NO12
_chemical_formula_sum   'W12 N3 O36'
_cell_volume   756.19647958
_cell_formula_units_Z   3
loop_
 _symmetry_equiv_pos_site_id
 _symmetry_equiv_pos_as_xyz
  1  'x, y, z'
loop_
 _atom_site_type_symbol
 _atom_site_label
 _atom_site_symmetry_multiplicity
 _atom_site_fract_x
 _atom_site_fract_y
 _atom_site_fract_z
 _atom_site_occupancy
  W  W0  1  0.00000000  0.51942100  0.37500300  1
  W  W1  1  0.00000000  0.51916400  0.87501100  1
  W  W2  1  0.48057900  0.48057900  0.37500300  1
  W  W3  1  0.48083600  0.48083600  0.87501100  1
  W  W4  1  0.51942100  0.00000000  0.37500300  1
  W  W5  1  0.51916400  0.00000000  0.87501100  1
  W  W6  1  0.00000000  0.48057900  0.62499700  1
  W  W7  1  0.00000000  0.48083600  0.12498900  1
  W  W8  1  0.51942100  0.51942100  0.62499700  1
  W  W9  1  0.51916400  0.51916400  0.12498900  1
  W  W10  1  0.48057900  0.00000000  0.62499700  1
  W  W11  1  0.48083600  0.00000000  0.12498900  1
  N  N0  1  0.00000000  0.00000000  0.00000000  1
  N  N1  1  0.00000000  0.00000000  0.74977100  1
  N  N2  1  0.00000000  0.00000000  0.25022900  1
  O  O0  1  0.00000000  0.50000000  0.50000000  1
  O  O1  1  0.00000000  0.50000000  0.00000000  1
  O  O2  1  0.50000000  0.50000000  0.50000000  1
  O  O3  1  0.50000000  0.50000000  0.00000000  1
  O  O4  1  0.50000000  0.00000000  0.50000000  1
  O  O5  1  0.50000000  0.00000000  0.00000000  1
  O  O6  1  0.00000000  0.50000900  0.74996400  1
  O  O7  1  0.00000000  0.49999100  0.25003600  1
  O  O8  1  0.49999100  0.49999100  0.74996400  1
  O  O9  1  0.50000900  0.50000900  0.25003600  1
  O  O10  1  0.49999100  0.00000000  0.25003600  1
  O  O11  1  0.50000900  0.00000000  0.74996400  1
  O  O12  1  0.78313200  0.57331500  0.37508000  1
  O  O13  1  0.78308900  0.57315200  0.87499900  1
  O  O14  1  0.42668500  0.20981800  0.37508000  1
  O  O15  1  0.42684800  0.20993600  0.87499900  1
  O  O16  1  0.79018200  0.21686800  0.37508000  1
  O  O17  1  0.79006400  0.21691100  0.87499900  1
  O  O18  1  0.21686800  0.79018200  0.37508000  1
  O  O19  1  0.21691100  0.79006400  0.87499900  1
  O  O20  1  0.57331500  0.78313200  0.37508000  1
  O  O21  1  0.57315200  0.78308900  0.87499900  1
  O  O22  1  0.20981800  0.42668500  0.37508000  1
  O  O23  1  0.20993600  0.42684800  0.87499900  1
  O  O24  1  0.21686800  0.42668500  0.62492000  1
  O  O25  1  0.21691100  0.42684800  0.12500100  1
  O  O26  1  0.57331500  0.79018200  0.62492000  1
  O  O27  1  0.57315200  0.79006400  0.12500100  1
  O  O28  1  0.20981800  0.78313200  0.62492000  1
  O  O29  1  0.20993600  0.78308900  0.12500100  1
  O  O30  1  0.78313200  0.20981800  0.62492000  1
  O  O31  1  0.78308900  0.20993600  0.12500100  1
  O  O32  1  0.42668500  0.21686800  0.62492000  1
  O  O33  1  0.42684800  0.21691100  0.12500100  1
  O  O34  1  0.79018200  0.57331500  0.62492000  1
  O  O35  1  0.79006400  0.57315200  0.12500100  1
loop_
_geom_bond_atom_site_label_1
_geom_bond_atom_site_label_2
_geom_bond_distance
_geom_bond_site_symmetry_2
O0 W0 1.930922 1_555
O0 W6 1.930922 1_555
O1 W7 1.930654 1_555
O1 W1 1.930654 1_554
O2 W8 1.930922 1_555
O2 W2 1.930922 1_555
O3 W9 1.930654 1_555
O3 W3 1.930654 1_554
O4 W4 1.930922 1_555
O4 W10 1.930922 1_555
O5 W11 1.930654 1_555
O5 W5 1.930654 1_554
O6 W6 1.930466 1_555
O6 W1 1.931540 1_555
O7 W0 1.930466 1_555
O7 W7 1.931540 1_555
O8 W8 1.930466 1_555
O8 W3 1.931540 1_555
O9 W2 1.930466 1_555
O9 W9 1.931540 1_555
O10 W4 1.930466 1_555
O10 W11 1.931540 1_555
O11 W10 1.930466 1_555
O11 W5 1.931540 1_555
O12 W0 1.869044 1_655
O12 W2 2.021406 1_555
O13 W1 1.869824 1_655
O13 W3 2.019941 1_555
O14 W2 1.869036 1_555
O14 W4 2.021413 1_555
O15 W3 1.869832 1_555
O15 W5 2.019934 1_555
O16 W4 1.869039 1_555
O16 W0 2.021408 1_655
O17 W5 1.869829 1_555
O17 W1 2.019940 1_655
O18 W0 1.869039 1_555
O18 W4 2.021408 1_565
O19 W1 1.869829 1_555
O19 W5 2.019940 1_565
O20 W4 1.869044 1_565
O20 W2 2.021406 1_555
O21 W5 1.869824 1_565
O21 W3 2.019941 1_555
O22 W2 1.869036 1_555
O22 W0 2.021413 1_555
O23 W3 1.869832 1_555
O23 W1 2.019934 1_555
O24 W6 1.869044 1_555
O24 W8 2.021406 1_555
O25 W7 1.869824 1_555
O25 W9 2.019941 1_555
O26 W8 1.869036 1_555
O26 W10 2.021413 1_565
O27 W9 1.869832 1_555
O27 W11 2.019934 1_565
O28 W10 1.869039 1_565
O28 W6 2.021408 1_555
O29 W11 1.869829 1_565
O29 W7 2.019940 1_555
O30 W6 1.869039 1_655
O30 W10 2.021408 1_555
O31 W7 1.869829 1_655
O31 W11 2.019940 1_555
O32 W10 1.869044 1_555
O32 W8 2.021406 1_555
O33 W11 1.869824 1_555
O33 W9 2.019941 1_555
O34 W8 1.869036 1_555
O34 W6 2.021413 1_655
O35 W9 1.869832 1_555
O35 W7 2.019934 1_655
