# generated using pymatgen
data_FeSbPt
_symmetry_space_group_name_H-M   'P 1'
_cell_length_a   4.23948275
_cell_length_b   4.23948275
_cell_length_c   4.23948275
_cell_angle_alpha   60.00000000
_cell_angle_beta   60.00000000
_cell_angle_gamma   60.00000000
_symmetry_Int_Tables_number   1
_chemical_formula_structural   FeSbPt
_chemical_formula_sum   'Fe1 Sb1 Pt1'
_cell_volume   53.87950773
_cell_formula_units_Z   1
loop_
 _symmetry_equiv_pos_site_id
 _symmetry_equiv_pos_as_xyz
  1  'x, y, z'
loop_
 _atom_site_type_symbol
 _atom_site_label
 _atom_site_symmetry_multiplicity
 _atom_site_fract_x
 _atom_site_fract_y
 _atom_site_fract_z
 _atom_site_occupancy
  Fe  Fe0  1  0.50000000  0.50000000  0.50000000  1
  Sb  Sb0  1  0.25000000  0.25000000  0.25000000  1
  Pt  Pt0  1  0.75000000  0.75000000  0.75000000  1
loop_
_geom_bond_atom_site_label_1
_geom_bond_atom_site_label_2
_geom_bond_distance
_geom_bond_site_symmetry_2
Fe0 Sb0 2.596142 1_555
Fe0 Pt0 2.596142 1_545
Fe0 Sb0 2.596142 1_565
Fe0 Sb0 2.596142 1_655
Fe0 Pt0 2.596142 1_455
Fe0 Pt0 2.596142 1_554
Fe0 Pt0 2.596142 1_555
Fe0 Sb0 2.596142 1_556
Pt0 Sb0 2.997767 1_665
Pt0 Sb0 2.997767 1_565
Pt0 Sb0 2.997767 1_566
Pt0 Sb0 2.997767 1_656
Pt0 Sb0 2.997767 1_655
Pt0 Sb0 2.997767 1_556
