# generated using pymatgen
data_Nd2P7Rh12
_symmetry_space_group_name_H-M   'P 1'
_cell_length_a   9.56091712
_cell_length_b   9.56097865
_cell_length_c   3.89879916
_cell_angle_alpha   89.99973628
_cell_angle_beta   90.00029912
_cell_angle_gamma   120.00004190
_symmetry_Int_Tables_number   1
_chemical_formula_structural   Nd2P7Rh12
_chemical_formula_sum   'Nd2 P7 Rh12'
_cell_volume   308.64782009
_cell_formula_units_Z   1
loop_
 _symmetry_equiv_pos_site_id
 _symmetry_equiv_pos_as_xyz
  1  'x, y, z'
loop_
 _atom_site_type_symbol
 _atom_site_label
 _atom_site_symmetry_multiplicity
 _atom_site_fract_x
 _atom_site_fract_y
 _atom_site_fract_z
 _atom_site_occupancy
  Nd  Nd0  1  0.33332752  0.66665775  0.74934705  1
  Nd  Nd1  1  0.66666410  0.33332481  0.25065422  1
  P  P0  1  0.00000274  0.00001184  0.50000166  1
  P  P1  1  0.88456461  0.59742558  0.75508795  1
  P  P2  1  0.40257087  0.28714511  0.75509456  1
  P  P3  1  0.71286450  0.11542292  0.75509355  1
  P  P4  1  0.11542455  0.40257007  0.24490494  1
  P  P5  1  0.59744236  0.71286774  0.24491469  1
  P  P6  1  0.28713998  0.88456885  0.24490631  1
  Rh  Rh0  1  0.61886706  0.55389220  0.75014049  1
  Rh  Rh1  1  0.44610102  0.06496104  0.75013386  1
  Rh  Rh2  1  0.93505311  0.38116383  0.75014884  1
  Rh  Rh3  1  0.38116293  0.44610685  0.24985871  1
  Rh  Rh4  1  0.55388883  0.93504464  0.24985214  1
  Rh  Rh5  1  0.06494370  0.61885370  0.24986178  1
  Rh  Rh6  1  0.10939464  0.84992285  0.75121628  1
  Rh  Rh7  1  0.15006558  0.25945201  0.75121148  1
  Rh  Rh8  1  0.74052399  0.89060372  0.75122275  1
  Rh  Rh9  1  0.89061242  0.15009017  0.24879461  1
  Rh  Rh10  1  0.84992102  0.74052193  0.24877991  1
  Rh  Rh11  1  0.25946245  0.10939340  0.24877420  1
loop_
_geom_bond_atom_site_label_1
_geom_bond_atom_site_label_2
_geom_bond_distance
_geom_bond_site_symmetry_2
Nd0 P4 3.031214 1_556
Nd0 P6 3.031301 1_556
Nd0 P5 3.031355 1_556
Nd0 P4 3.053409 1_555
Nd0 P6 3.053473 1_555
Nd0 P5 3.053514 1_555
Nd0 Rh3 3.067988 1_555
Nd0 Rh5 3.068017 1_555
Nd0 Rh4 3.068022 1_555
Nd0 Rh3 3.070507 1_556
Nd0 Rh4 3.070525 1_556
Nd0 Rh5 3.070580 1_556
Nd0 Rh8 3.377201 1_555
Nd0 Rh6 3.377216 1_555
Nd0 Rh7 3.377295 1_555
Nd0 Rh2 3.399503 1_455
Nd0 Rh1 3.399805 1_565
Nd0 Rh0 3.399823 1_555
Nd1 P2 3.031257 1_554
Nd1 P1 3.031289 1_554
Nd1 P3 3.031298 1_554
Nd1 P1 3.053443 1_555
Nd1 P2 3.053456 1_555
Nd1 P3 3.053463 1_555
Nd1 Rh1 3.067880 1_555
Nd1 Rh0 3.067922 1_555
Nd1 Rh2 3.067988 1_555
Nd1 Rh0 3.070451 1_554
Nd1 Rh1 3.070458 1_554
Nd1 Rh2 3.070505 1_554
Nd1 Rh9 3.377105 1_555
Nd1 Rh10 3.377225 1_555
Nd1 Rh11 3.377234 1_555
Nd1 Rh3 3.399583 1_555
Nd1 Rh4 3.399588 1_545
Nd1 Rh5 3.399620 1_655
P0 Rh7 2.368914 1_555
P0 Rh11 2.369083 1_555
P0 Rh9 2.369115 1_455
P0 Rh8 2.369202 1_445
P0 Rh6 2.369222 1_545
P0 Rh10 2.369302 1_445
P1 Rh6 2.293371 1_655
P1 Rh2 2.346649 1_555
P1 Rh0 2.359971 1_555
P1 Rh10 2.477820 1_556
P1 Rh10 2.516208 1_555
P1 Rh5 2.526650 1_656
P1 Rh5 2.557910 1_655
P2 Rh7 2.293338 1_555
P2 Rh0 2.346737 1_555
P2 Rh1 2.360155 1_555
P2 Rh11 2.477844 1_556
P2 Rh11 2.516320 1_555
P2 Rh3 2.526633 1_556
P2 Rh3 2.557926 1_555
P3 Rh8 2.293231 1_545
P3 Rh1 2.346846 1_555
P3 Rh2 2.360325 1_555
P3 Rh9 2.477829 1_556
P3 Rh9 2.516186 1_555
P3 Rh4 2.526673 1_546
P3 Rh4 2.558012 1_545
P4 Rh9 2.293204 1_455
P4 Rh5 2.346809 1_555
P4 Rh3 2.360345 1_555
P4 Rh7 2.477943 1_554
P4 Rh7 2.516320 1_555
P4 Rh2 2.526605 1_454
P4 Rh2 2.557971 1_455
P5 Rh10 2.293237 1_555
P5 Rh3 2.346768 1_555
P5 Rh4 2.360227 1_555
P5 Rh8 2.477766 1_554
P5 Rh8 2.516169 1_555
P5 Rh0 2.526809 1_554
P5 Rh0 2.558040 1_555
P6 Rh11 2.293383 1_565
P6 Rh4 2.346663 1_555
P6 Rh5 2.360198 1_555
P6 Rh6 2.477823 1_554
P6 Rh6 2.516246 1_555
P6 Rh1 2.526729 1_564
P6 Rh1 2.557984 1_565
