# generated using pymatgen
data_Li5TlIn
_symmetry_space_group_name_H-M   'P 1'
_cell_length_a   7.25493401
_cell_length_b   7.25493401
_cell_length_c   7.25493474
_cell_angle_alpha   37.65301021
_cell_angle_beta   37.65301021
_cell_angle_gamma   37.65301601
_symmetry_Int_Tables_number   1
_chemical_formula_structural   Li5TlIn
_chemical_formula_sum   'Li5 Tl1 In1'
_cell_volume   127.83154768
_cell_formula_units_Z   1
loop_
 _symmetry_equiv_pos_site_id
 _symmetry_equiv_pos_as_xyz
  1  'x, y, z'
loop_
 _atom_site_type_symbol
 _atom_site_label
 _atom_site_symmetry_multiplicity
 _atom_site_fract_x
 _atom_site_fract_y
 _atom_site_fract_z
 _atom_site_occupancy
  Li  Li0  1  0.64595482  0.64595482  0.64595482  1
  Li  Li1  1  0.35199317  0.35199317  0.35199317  1
  Li  Li2  1  0.50166210  0.50166210  0.50166210  1
  Li  Li3  1  0.78724295  0.78724295  0.78724295  1
  Li  Li4  1  0.21198931  0.21198931  0.21198931  1
  Tl  Tl0  1  0.07376449  0.07376449  0.07376449  1
  In  In0  1  0.92739516  0.92739516  0.92739516  1
loop_
_geom_bond_atom_site_label_1
_geom_bond_atom_site_label_2
_geom_bond_distance
_geom_bond_site_symmetry_2
Li0 Li1 2.817906 1_556
Li0 Li1 2.817906 1_565
Li0 Li1 2.817906 1_655
Li0 Li3 2.853644 1_555
Li0 Li2 2.914329 1_555
Li1 Li4 2.827705 1_555
Li1 Tl0 2.923516 1_655
Li1 Tl0 2.923516 1_565
Li1 Tl0 2.923516 1_556
Li1 Li2 3.022914 1_555
Li2 Li4 2.843566 1_655
Li2 Li4 2.843566 1_565
Li2 Li4 2.843566 1_556
Li2 Li3 2.870271 1_455
Li2 Li3 2.870271 1_545
Li2 Li3 2.870271 1_554
Li3 Tl0 2.863943 1_566
Li3 Tl0 2.863943 1_656
Li3 Tl0 2.863943 1_665
Li4 Tl0 2.791773 1_555
In0 Li3 2.830701 1_555
In0 Li4 2.877029 1_656
In0 Li4 2.877029 1_566
In0 Li4 2.877029 1_665
In0 Li0 2.899442 1_565
In0 Li0 2.899442 1_655
In0 Li0 2.899442 1_556
In0 Tl0 2.956271 1_666
