# generated using pymatgen
data_Zr3PO2
_symmetry_space_group_name_H-M   'P 1'
_cell_length_a   3.43184479
_cell_length_b   3.43184479
_cell_length_c   8.48041000
_cell_angle_alpha   90.00000000
_cell_angle_beta   90.00000000
_cell_angle_gamma   120.00001526
_symmetry_Int_Tables_number   1
_chemical_formula_structural   Zr3PO2
_chemical_formula_sum   'Zr3 P1 O2'
_cell_volume   86.49732782
_cell_formula_units_Z   1
loop_
 _symmetry_equiv_pos_site_id
 _symmetry_equiv_pos_as_xyz
  1  'x, y, z'
loop_
 _atom_site_type_symbol
 _atom_site_label
 _atom_site_symmetry_multiplicity
 _atom_site_fract_x
 _atom_site_fract_y
 _atom_site_fract_z
 _atom_site_occupancy
  Zr  Zr0  1  0.66666700  0.33333300  0.30203300  1
  Zr  Zr1  1  0.33333300  0.66666700  0.69796700  1
  Zr  Zr2  1  0.00000000  0.00000000  0.00000000  1
  P  P0  1  0.00000000  0.00000000  0.50000000  1
  O  O0  1  0.66666700  0.33333300  0.85857600  1
  O  O1  1  0.33333300  0.66666700  0.14142400  1
loop_
_geom_bond_atom_site_label_1
_geom_bond_atom_site_label_2
_geom_bond_distance
_geom_bond_site_symmetry_2
P0 Zr0 2.596989 1_455
P0 Zr1 2.596989 1_545
P0 Zr0 2.596991 1_445
P0 Zr1 2.596991 1_445
P0 Zr0 2.596991 1_555
P0 Zr1 2.596991 1_555
O0 Zr2 2.316084 1_656
O0 Zr2 2.316086 1_556
O0 Zr2 2.316086 1_666
O0 Zr1 2.404365 1_545
O0 Zr1 2.404365 1_655
O0 Zr1 2.404370 1_555
O1 Zr2 2.316084 1_565
O1 Zr2 2.316086 1_555
O1 Zr2 2.316086 1_665
O1 Zr0 2.404365 1_455
O1 Zr0 2.404365 1_565
O1 Zr0 2.404370 1_555
