# generated using pymatgen
data_Mg14CoW
_symmetry_space_group_name_H-M   'P 1'
_cell_length_a   6.17529588
_cell_length_b   6.17529541
_cell_length_c   9.77287335
_cell_angle_alpha   90.00000000
_cell_angle_beta   90.00000000
_cell_angle_gamma   120.00000254
_symmetry_Int_Tables_number   1
_chemical_formula_structural   Mg14CoW
_chemical_formula_sum   'Mg14 Co1 W1'
_cell_volume   322.75159697
_cell_formula_units_Z   1
loop_
 _symmetry_equiv_pos_site_id
 _symmetry_equiv_pos_as_xyz
  1  'x, y, z'
loop_
 _atom_site_type_symbol
 _atom_site_label
 _atom_site_symmetry_multiplicity
 _atom_site_fract_x
 _atom_site_fract_y
 _atom_site_fract_z
 _atom_site_occupancy
  Mg  Mg0  1  0.16637091  0.83318496  0.12500000  1
  Mg  Mg1  1  0.17072476  0.83536188  0.62500000  1
  Mg  Mg2  1  0.66681504  0.33362909  0.12500000  1
  Mg  Mg3  1  0.66463812  0.32927524  0.62500000  1
  Mg  Mg4  1  0.66681504  0.83318496  0.12500000  1
  Mg  Mg5  1  0.66463812  0.83536188  0.62500000  1
  Mg  Mg6  1  0.32282490  0.17717510  0.37210002  1
  Mg  Mg7  1  0.32282490  0.17717510  0.87789998  1
  Mg  Mg8  1  0.32282490  0.64565080  0.37210002  1
  Mg  Mg9  1  0.32282490  0.64565080  0.87789998  1
  Mg  Mg10  1  0.85434920  0.17717510  0.37210002  1
  Mg  Mg11  1  0.85434920  0.17717510  0.87789998  1
  Mg  Mg12  1  0.83333300  0.66666700  0.37842829  1
  Mg  Mg13  1  0.83333300  0.66666700  0.87157171  1
  Co  Co0  1  0.16666700  0.33333300  0.12500000  1
  W  W0  1  0.16666700  0.33333300  0.62500000  1
loop_
_geom_bond_atom_site_label_1
_geom_bond_atom_site_label_2
_geom_bond_distance
_geom_bond_site_symmetry_2
Mg0 Mg8 3.037285 1_555
Mg0 Mg9 3.037285 1_554
Mg0 Mg7 3.037292 1_564
Mg0 Mg6 3.037292 1_565
Mg0 Mg12 3.050636 1_455
Mg0 Mg13 3.050636 1_454
Mg0 Mg2 3.084905 1_455
Mg0 Mg4 3.084905 1_455
Mg0 Mg2 3.090390 1_565
Mg0 Mg4 3.090391 1_555
Mg1 Mg13 3.010387 1_455
Mg1 Mg12 3.010387 1_455
Mg1 W0 3.087724 1_555
Mg1 W0 3.087724 1_565
Mg2 Mg7 3.037292 1_554
Mg2 Mg6 3.037292 1_555
Mg2 Mg4 3.084905 1_555
Mg2 Mg4 3.090390 1_545
Mg3 W0 3.087724 1_655
Mg3 W0 3.087724 1_555
Mg4 Mg8 3.037291 1_555
Mg4 Mg9 3.037291 1_554
Mg5 W0 3.087724 1_555
Mg5 W0 3.087724 1_665
Mg6 W0 2.983011 1_555
Mg7 W0 2.983011 1_555
Mg8 W0 2.983017 1_555
Mg9 W0 2.983017 1_555
Mg10 W0 2.983017 1_655
Mg10 Mg2 3.037285 1_555
Mg10 Mg4 3.037291 1_545
Mg10 Mg12 3.090312 1_545
Mg10 Mg12 3.090312 1_555
Mg11 W0 2.983017 1_655
Mg11 Mg2 3.037285 1_556
Mg11 Mg4 3.037291 1_546
Mg11 Mg13 3.090312 1_545
Mg11 Mg13 3.090312 1_555
Mg12 Mg5 3.010381 1_555
Mg12 Mg3 3.010387 1_555
Mg12 Mg4 3.050630 1_555
Mg12 Mg2 3.050636 1_555
Mg12 Mg6 3.090312 1_665
Mg12 Mg6 3.090312 1_555
Mg12 Mg8 3.090312 1_655
Mg12 Mg8 3.090312 1_555
Mg13 Mg5 3.010381 1_555
Mg13 Mg3 3.010387 1_555
Mg13 Mg4 3.050630 1_556
Mg13 Mg2 3.050636 1_556
Mg13 Mg7 3.090312 1_665
Mg13 Mg7 3.090312 1_555
Mg13 Mg9 3.090312 1_555
Mg13 Mg9 3.090312 1_655
Co0 Mg7 2.936218 1_554
Co0 Mg6 2.936218 1_555
Co0 Mg8 2.936224 1_555
Co0 Mg9 2.936224 1_554
Co0 Mg11 2.936224 1_454
Co0 Mg10 2.936224 1_455
Co0 Mg0 3.087648 1_545
Co0 Mg4 3.087648 1_445
Co0 Mg4 3.087648 1_555
Co0 Mg0 3.087648 1_555
Co0 Mg2 3.087648 1_555
Co0 Mg2 3.087648 1_455
