# generated using pymatgen
data_Li2Cr3SbO8
_symmetry_space_group_name_H-M   'P 1'
_cell_length_a   5.99245016
_cell_length_b   10.40470623
_cell_length_c   6.08347865
_cell_angle_alpha   106.52447318
_cell_angle_beta   60.49365728
_cell_angle_gamma   90.00010949
_symmetry_Int_Tables_number   1
_chemical_formula_structural   Li2Cr3SbO8
_chemical_formula_sum   'Li4 Cr6 Sb2 O16'
_cell_volume   311.98151541
_cell_formula_units_Z   2
loop_
 _symmetry_equiv_pos_site_id
 _symmetry_equiv_pos_as_xyz
  1  'x, y, z'
loop_
 _atom_site_type_symbol
 _atom_site_label
 _atom_site_symmetry_multiplicity
 _atom_site_fract_x
 _atom_site_fract_y
 _atom_site_fract_z
 _atom_site_occupancy
  Li  Li0  1  0.30418000  0.56523500  0.39151100  1
  Li  Li1  1  0.80417900  0.06522700  0.39150400  1
  Li  Li2  1  0.19568000  0.93477300  0.60849900  1
  Li  Li3  1  0.69568700  0.43476700  0.60849200  1
  Cr  Cr0  1  0.25024200  0.75062600  0.00017100  1
  Cr  Cr1  1  0.25041000  0.24937500  0.99983100  1
  Cr  Cr2  1  0.99872900  0.49999900  0.99999900  1
  Cr  Cr3  1  0.75025800  0.25059400  0.00015000  1
  Cr  Cr4  1  0.75041200  0.74940700  0.99984500  1
  Cr  Cr5  1  0.49876300  0.00000000  0.00000200  1
  Sb  Sb0  1  0.75024800  0.74999200  0.49997400  1
  Sb  Sb1  1  0.25023000  0.25000700  0.50002200  1
  O  O0  1  0.10339800  0.63241100  0.79539400  1
  O  O1  1  0.60341200  0.13238300  0.79536700  1
  O  O2  1  0.39877700  0.86761900  0.20463700  1
  O  O3  1  0.89879400  0.36759000  0.20460600  1
  O  O4  1  0.87812700  0.85808600  0.24366500  1
  O  O5  1  0.37814100  0.35806200  0.24363900  1
  O  O6  1  0.10471600  0.63191100  0.24219200  1
  O  O7  1  0.60470700  0.13189200  0.24219600  1
  O  O8  1  0.65141000  0.63192700  0.24394300  1
  O  O9  1  0.15140400  0.13191100  0.24395500  1
  O  O10  1  0.84690000  0.86810900  0.75780400  1
  O  O11  1  0.34691000  0.36808800  0.75780500  1
  O  O12  1  0.39536200  0.86808800  0.75604500  1
  O  O13  1  0.89535600  0.36807100  0.75605100  1
  O  O14  1  0.62177800  0.64193900  0.75636200  1
  O  O15  1  0.12179000  0.14191400  0.75633600  1
loop_
_geom_bond_atom_site_label_1
_geom_bond_atom_site_label_2
_geom_bond_distance
_geom_bond_site_symmetry_2
Li0 O0 2.020937 1_555
Li0 O8 2.032567 1_555
Li0 O5 2.038721 1_555
Li0 O6 2.040374 1_555
Li1 O1 2.020837 1_555
Li1 O9 2.032500 1_655
Li1 O4 2.038404 1_545
Li1 O7 2.040304 1_555
Li2 O2 2.020832 1_555
Li2 O12 2.032523 1_555
Li2 O15 2.038403 1_565
Li2 O10 2.040294 1_455
Li3 O3 2.020952 1_555
Li3 O13 2.032579 1_555
Li3 O14 2.038710 1_555
Li3 O11 2.040354 1_555
Cr0 O0 2.011787 1_554
Cr0 O2 2.012584 1_555
Cr0 O12 2.053254 1_554
Cr0 O4 2.054483 1_455
Cr0 O6 2.055167 1_555
Cr0 O14 2.056380 1_554
Cr1 O3 2.011766 1_456
Cr1 O1 2.012585 1_555
Cr1 O9 2.053262 1_556
Cr1 O15 2.054487 1_555
Cr1 O11 2.055171 1_555
Cr1 O5 2.056393 1_556
Cr2 O3 2.011758 1_556
Cr2 O0 2.011777 1_655
Cr2 O8 2.053551 1_556
Cr2 O13 2.053559 1_555
Cr2 O11 2.056555 1_655
Cr2 O6 2.056556 1_656
Cr3 O1 2.011802 1_554
Cr3 O3 2.012561 1_555
Cr3 O13 2.053258 1_554
Cr3 O5 2.054519 1_555
Cr3 O7 2.055172 1_555
Cr3 O15 2.056339 1_654
Cr4 O2 2.011830 1_556
Cr4 O0 2.012537 1_655
Cr4 O8 2.053278 1_556
Cr4 O14 2.054518 1_555
Cr4 O10 2.055153 1_555
Cr4 O4 2.056349 1_556
Cr5 O2 2.011619 1_545
Cr5 O1 2.011637 1_554
Cr5 O9 2.053629 1_555
Cr5 O12 2.053630 1_544
Cr5 O10 2.056285 1_544
Cr5 O7 2.056293 1_555
O4 Sb0 2.025830 1_555
O5 Sb1 2.025850 1_555
O6 Sb0 2.025692 1_455
O7 Sb1 2.025888 1_555
O8 Sb0 2.026359 1_555
O9 Sb1 2.026598 1_555
O10 Sb0 2.025918 1_555
O11 Sb1 2.025673 1_555
O12 Sb0 2.026572 1_555
O13 Sb1 2.026374 1_655
O14 Sb0 2.025856 1_555
O15 Sb1 2.025845 1_555
