# generated using pymatgen
data_PmSe
_symmetry_space_group_name_H-M   'P 1'
_cell_length_a   4.68356588
_cell_length_b   4.68356588
_cell_length_c   7.49643700
_cell_angle_alpha   90.00000000
_cell_angle_beta   90.00000000
_cell_angle_gamma   119.99999833
_symmetry_Int_Tables_number   1
_chemical_formula_structural   PmSe
_chemical_formula_sum   'Pm2 Se2'
_cell_volume   142.40944761
_cell_formula_units_Z   2
loop_
 _symmetry_equiv_pos_site_id
 _symmetry_equiv_pos_as_xyz
  1  'x, y, z'
loop_
 _atom_site_type_symbol
 _atom_site_label
 _atom_site_symmetry_multiplicity
 _atom_site_fract_x
 _atom_site_fract_y
 _atom_site_fract_z
 _atom_site_occupancy
  Pm  Pm0  1  0.66666700  0.33333300  0.49860700  1
  Pm  Pm1  1  0.33333300  0.66666700  0.99860700  1
  Se  Se0  1  0.66666700  0.33333300  0.87639300  1
  Se  Se1  1  0.33333300  0.66666700  0.37639300  1
loop_
_geom_bond_atom_site_label_1
_geom_bond_atom_site_label_2
_geom_bond_distance
_geom_bond_site_symmetry_2
Pm0 Se0 2.832049 1_555
Pm0 Se1 2.855045 1_545
Pm0 Se1 2.855045 1_655
Pm0 Se1 2.855053 1_555
Pm1 Se1 2.832049 1_556
Pm1 Se0 2.855045 1_455
Pm1 Se0 2.855045 1_565
Pm1 Se0 2.855053 1_555
