# generated using pymatgen
data_Mg2Al4Zn3
_symmetry_space_group_name_H-M   'P 1'
_cell_length_a   5.35945509
_cell_length_b   5.35945509
_cell_length_c   13.99730800
_cell_angle_alpha   90.00000000
_cell_angle_beta   90.00000000
_cell_angle_gamma   119.99998881
_symmetry_Int_Tables_number   1
_chemical_formula_structural   Mg2Al4Zn3
_chemical_formula_sum   'Mg4 Al8 Zn6'
_cell_volume   348.19014301
_cell_formula_units_Z   2
loop_
 _symmetry_equiv_pos_site_id
 _symmetry_equiv_pos_as_xyz
  1  'x, y, z'
loop_
 _atom_site_type_symbol
 _atom_site_label
 _atom_site_symmetry_multiplicity
 _atom_site_fract_x
 _atom_site_fract_y
 _atom_site_fract_z
 _atom_site_occupancy
  Mg  Mg0  1  0.33333300  0.66666700  0.95259500  1
  Mg  Mg1  1  0.66666700  0.33333300  0.04740500  1
  Mg  Mg2  1  0.66666700  0.33333300  0.45086800  1
  Mg  Mg3  1  0.33333300  0.66666700  0.54913200  1
  Al  Al0  1  0.00000000  0.00000000  0.50000000  1
  Al  Al1  1  0.00000000  0.00000000  0.00000000  1
  Al  Al2  1  0.83223900  0.16776100  0.84427100  1
  Al  Al3  1  0.83223900  0.66447700  0.84427100  1
  Al  Al4  1  0.33552300  0.16776100  0.84427100  1
  Al  Al5  1  0.16776100  0.83223900  0.15572900  1
  Al  Al6  1  0.16776100  0.33552300  0.15572900  1
  Al  Al7  1  0.66447700  0.83223900  0.15572900  1
  Zn  Zn0  1  0.16854600  0.83145400  0.34343700  1
  Zn  Zn1  1  0.16854600  0.33709100  0.34343700  1
  Zn  Zn2  1  0.66290900  0.83145400  0.34343700  1
  Zn  Zn3  1  0.83145400  0.16854600  0.65656300  1
  Zn  Zn4  1  0.83145400  0.66290900  0.65656300  1
  Zn  Zn5  1  0.33709100  0.16854600  0.65656300  1
loop_
_geom_bond_atom_site_label_1
_geom_bond_atom_site_label_2
_geom_bond_distance
_geom_bond_site_symmetry_2
Mg0 Mg1 3.366857 1_456
Mg0 Mg1 3.366857 1_566
Mg0 Mg1 3.366865 1_556
Mg2 Zn1 3.072864 1_555
Mg2 Zn2 3.072864 1_555
Mg2 Zn2 3.072864 1_545
Mg2 Zn1 3.072864 1_655
Mg2 Zn0 3.072864 1_545
Mg2 Zn0 3.072864 1_655
Mg2 Zn3 3.260309 1_555
Mg2 Zn5 3.260314 1_555
Mg2 Zn4 3.260314 1_555
Mg2 Mg3 3.386205 1_545
Mg2 Mg3 3.386205 1_655
Mg2 Mg3 3.386213 1_555
Mg3 Zn4 3.072864 1_555
Mg3 Zn5 3.072864 1_555
Mg3 Zn4 3.072864 1_455
Mg3 Zn5 3.072864 1_565
Mg3 Zn3 3.072864 1_455
Mg3 Zn3 3.072864 1_565
Mg3 Zn0 3.260309 1_555
Mg3 Zn2 3.260314 1_555
Mg3 Zn1 3.260314 1_555
Al0 Zn5 2.692660 1_555
Al0 Zn1 2.692660 1_555
Al0 Zn4 2.692660 1_445
Al0 Zn2 2.692660 1_445
Al0 Zn3 2.692663 1_455
Al0 Zn0 2.692663 1_545
Al0 Mg3 3.169782 1_545
Al0 Mg2 3.169782 1_455
Al0 Mg3 3.169787 1_555
Al0 Mg2 3.169787 1_445
Al0 Mg2 3.169787 1_555
Al0 Mg3 3.169787 1_445
Al1 Al2 2.678928 1_454
Al1 Al5 2.678928 1_545
Al1 Al4 2.678930 1_554
Al1 Al6 2.678930 1_555
Al1 Al7 2.678930 1_445
Al1 Al3 2.678930 1_444
Al1 Mg0 3.164626 1_544
Al1 Mg1 3.164626 1_455
Al1 Mg0 3.164631 1_554
Al1 Mg1 3.164631 1_445
Al1 Mg1 3.164631 1_555
Al1 Mg0 3.164631 1_444
Al2 Zn3 2.627417 1_555
Al2 Al4 2.662127 1_555
Al2 Al3 2.662127 1_555
Al2 Al3 2.697328 1_545
Al2 Al4 2.697328 1_655
Al2 Mg0 3.078968 1_545
Al2 Mg0 3.078968 1_655
Al2 Mg1 3.232155 1_556
Al3 Zn4 2.627417 1_555
Al3 Al4 2.662128 1_555
Al3 Al4 2.697328 1_665
Al3 Mg0 3.078963 1_655
Al3 Mg0 3.078972 1_555
Al3 Mg1 3.232155 1_556
Al4 Zn5 2.627417 1_555
Al4 Mg0 3.078963 1_545
Al4 Mg0 3.078972 1_555
Al4 Mg1 3.232155 1_556
Al5 Zn0 2.627417 1_555
Al5 Al6 2.662127 1_555
Al5 Al7 2.662127 1_555
Al5 Al7 2.697328 1_455
Al5 Al6 2.697328 1_565
Al5 Mg1 3.078968 1_455
Al5 Mg1 3.078968 1_565
Al5 Mg0 3.232155 1_554
Al6 Zn1 2.627417 1_555
Al6 Al7 2.662128 1_555
Al6 Al7 2.697328 1_445
Al6 Mg1 3.078963 1_455
Al6 Mg1 3.078972 1_555
Al6 Mg0 3.232155 1_554
Al7 Zn2 2.627417 1_555
Al7 Mg1 3.078963 1_565
Al7 Mg1 3.078972 1_555
Al7 Mg0 3.232155 1_554
Zn0 Zn2 2.649516 1_555
Zn0 Zn1 2.649516 1_555
Zn0 Zn1 2.709939 1_565
Zn0 Zn2 2.709939 1_455
Zn1 Zn2 2.649517 1_555
Zn1 Zn2 2.709939 1_445
Zn3 Zn4 2.649516 1_555
Zn3 Zn5 2.649516 1_555
Zn3 Zn5 2.709939 1_655
Zn3 Zn4 2.709939 1_545
Zn4 Zn5 2.649517 1_555
Zn4 Zn5 2.709939 1_665
