# generated using pymatgen
data_Mg16NpAl12
_symmetry_space_group_name_H-M   'P 1'
_cell_length_a   9.09268131
_cell_length_b   9.09268131
_cell_length_c   9.09268131
_cell_angle_alpha   109.47122063
_cell_angle_beta   109.47122063
_cell_angle_gamma   109.47122063
_symmetry_Int_Tables_number   1
_chemical_formula_structural   Mg16NpAl12
_chemical_formula_sum   'Mg16 Np1 Al12'
_cell_volume   578.70071370
_cell_formula_units_Z   1
loop_
 _symmetry_equiv_pos_site_id
 _symmetry_equiv_pos_as_xyz
  1  'x, y, z'
loop_
 _atom_site_type_symbol
 _atom_site_label
 _atom_site_symmetry_multiplicity
 _atom_site_fract_x
 _atom_site_fract_y
 _atom_site_fract_z
 _atom_site_occupancy
  Mg  Mg0  1  0.35635700  0.00000000  0.00000000  1
  Mg  Mg1  1  0.00000000  0.35635700  0.00000000  1
  Mg  Mg2  1  0.60510900  0.32163400  0.00000000  1
  Mg  Mg3  1  0.32163400  0.60510900  0.00000000  1
  Mg  Mg4  1  0.39489100  0.39489100  0.71652500  1
  Mg  Mg5  1  0.67836600  0.28347500  0.67836600  1
  Mg  Mg6  1  0.28347500  0.67836600  0.67836600  1
  Mg  Mg7  1  0.64364300  0.64364300  0.64364300  1
  Mg  Mg8  1  0.00000000  0.32163400  0.60510900  1
  Mg  Mg9  1  0.32163400  0.00000000  0.60510900  1
  Mg  Mg10  1  0.71652500  0.39489100  0.39489100  1
  Mg  Mg11  1  0.39489100  0.71652500  0.39489100  1
  Mg  Mg12  1  0.00000000  0.00000000  0.35635700  1
  Mg  Mg13  1  0.60510900  0.00000000  0.32163400  1
  Mg  Mg14  1  0.00000000  0.60510900  0.32163400  1
  Mg  Mg15  1  0.67836600  0.67836600  0.28347500  1
  Np  Np0  1  0.00000000  0.00000000  0.00000000  1
  Al  Al0  1  0.63709200  0.81619000  0.00000000  1
  Al  Al1  1  0.81619000  0.63709200  0.00000000  1
  Al  Al2  1  0.18381000  0.18381000  0.82090200  1
  Al  Al3  1  0.00000000  0.63709200  0.81619000  1
  Al  Al4  1  0.63709200  0.00000000  0.81619000  1
  Al  Al5  1  0.81619000  0.00000000  0.63709200  1
  Al  Al6  1  0.00000000  0.81619000  0.63709200  1
  Al  Al7  1  0.36290800  0.17909800  0.36290800  1
  Al  Al8  1  0.17909800  0.36290800  0.36290800  1
  Al  Al9  1  0.82090200  0.18381000  0.18381000  1
  Al  Al10  1  0.18381000  0.82090200  0.18381000  1
  Al  Al11  1  0.36290800  0.36290800  0.17909800  1
loop_
_geom_bond_atom_site_label_1
_geom_bond_atom_site_label_2
_geom_bond_distance
_geom_bond_site_symmetry_2
Mg0 Mg2 3.042829 1_555
Mg0 Mg6 3.042829 1_544
Mg0 Mg13 3.042829 1_555
Mg0 Np0 3.240241 1_555
Mg1 Mg14 3.042829 1_555
Mg1 Mg3 3.042829 1_555
Mg1 Mg5 3.042829 1_454
Mg1 Np0 3.240241 1_555
Mg2 Mg4 3.074073 1_554
Mg2 Mg5 3.145339 1_554
Mg2 Mg9 3.145339 1_554
Mg3 Mg4 3.074073 1_554
Mg3 Mg6 3.145339 1_554
Mg3 Mg8 3.145339 1_554
Mg4 Mg7 3.042829 1_555
Mg4 Mg8 3.145339 1_555
Mg4 Mg5 3.145339 1_555
Mg4 Mg9 3.145339 1_555
Mg4 Mg6 3.145339 1_555
Mg5 Mg9 3.074073 1_555
Mg5 Mg8 3.145339 1_655
Mg6 Mg8 3.074073 1_555
Mg6 Mg9 3.145339 1_565
Mg7 Np0 3.240241 1_666
Mg10 Mg7 3.042829 1_555
Mg10 Mg14 3.074073 1_655
Mg10 Mg8 3.074073 1_655
Mg10 Mg13 3.145339 1_555
Mg10 Mg2 3.145339 1_555
Mg10 Mg15 3.145339 1_555
Mg10 Mg5 3.145339 1_555
Mg11 Mg7 3.042829 1_555
Mg11 Mg9 3.074073 1_565
Mg11 Mg13 3.074073 1_565
Mg11 Mg14 3.145339 1_555
Mg11 Mg3 3.145339 1_555
Mg11 Mg15 3.145339 1_555
Mg11 Mg6 3.145339 1_555
Mg12 Mg15 3.042829 1_445
Mg12 Mg9 3.042829 1_555
Mg12 Mg8 3.042829 1_555
Mg12 Np0 3.240241 1_555
Mg13 Mg5 3.074073 1_555
Mg13 Mg15 3.145339 1_545
Mg13 Mg8 3.145339 1_655
Mg13 Mg3 3.145339 1_545
Mg14 Mg6 3.074073 1_555
Mg14 Mg2 3.145339 1_455
Mg14 Mg15 3.145339 1_455
Mg14 Mg9 3.145339 1_565
Mg15 Mg3 3.074073 1_555
Mg15 Mg2 3.074073 1_555
Al0 Al1 2.659298 1_555
Al0 Al9 2.729264 1_565
Al0 Al4 2.729264 1_564
Al0 Mg3 2.870718 1_555
Al0 Mg6 3.010508 1_554
Al0 Mg13 3.010508 1_565
Al0 Mg12 3.125071 1_665
Al0 Mg7 3.125071 1_554
Al0 Np0 3.163124 1_665
Al0 Mg15 3.190168 1_555
Al0 Mg4 3.190168 1_554
Al1 Al3 2.729264 1_654
Al1 Al10 2.729264 1_655
Al1 Mg2 2.870718 1_555
Al1 Mg14 3.010508 1_655
Al1 Mg5 3.010508 1_554
Al1 Mg12 3.125071 1_665
Al1 Mg7 3.125071 1_554
Al1 Np0 3.163124 1_665
Al1 Mg15 3.190168 1_555
Al1 Mg4 3.190168 1_554
Al2 Al6 2.729264 1_545
Al2 Al5 2.729264 1_455
Al2 Mg4 2.870718 1_555
Al2 Mg8 3.010508 1_555
Al2 Mg9 3.010508 1_555
Al2 Mg0 3.125071 1_556
Al2 Mg1 3.125071 1_556
Al2 Np0 3.163124 1_556
Al2 Mg3 3.190168 1_556
Al2 Mg2 3.190168 1_556
Al3 Al6 2.659298 1_555
Al3 Mg8 2.870718 1_555
Al3 Mg3 3.010508 1_556
Al3 Mg5 3.010508 1_455
Al3 Mg7 3.125071 1_455
Al3 Mg0 3.125071 1_566
Al3 Np0 3.163124 1_566
Al3 Mg6 3.190168 1_555
Al3 Mg10 3.190168 1_455
Al4 Al5 2.659298 1_555
Al4 Al9 2.729264 1_556
Al4 Mg9 2.870718 1_555
Al4 Mg2 3.010508 1_556
Al4 Mg6 3.010508 1_545
Al4 Mg1 3.125071 1_656
Al4 Mg7 3.125071 1_545
Al4 Np0 3.163124 1_656
Al4 Mg5 3.190168 1_555
Al4 Mg11 3.190168 1_545
Al5 Al6 2.729264 1_645
Al5 Mg13 2.870718 1_555
Al5 Mg8 3.010508 1_655
Al5 Mg15 3.010508 1_545
Al5 Mg1 3.125071 1_656
Al5 Mg7 3.125071 1_545
Al5 Np0 3.163124 1_656
Al5 Mg5 3.190168 1_555
Al5 Mg11 3.190168 1_545
Al6 Mg14 2.870718 1_555
Al6 Mg9 3.010508 1_565
Al6 Mg15 3.010508 1_455
Al6 Mg0 3.125071 1_566
Al6 Mg7 3.125071 1_455
Al6 Np0 3.163124 1_566
Al6 Mg6 3.190168 1_555
Al6 Mg10 3.190168 1_455
Al7 Al8 2.729264 1_555
Al7 Mg5 2.870718 1_555
Al7 Mg10 3.010508 1_555
Al7 Mg4 3.010508 1_555
Al7 Mg12 3.125071 1_555
Al7 Mg0 3.125071 1_555
Al7 Np0 3.163124 1_555
Al7 Mg13 3.190168 1_555
Al7 Mg9 3.190168 1_555
Al8 Al9 2.659298 1_455
Al8 Mg6 2.870718 1_555
Al8 Mg4 3.010508 1_555
Al8 Mg11 3.010508 1_555
Al8 Mg12 3.125071 1_555
Al8 Mg1 3.125071 1_555
Al8 Np0 3.163124 1_555
Al8 Mg8 3.190168 1_555
Al8 Mg14 3.190168 1_555
Al9 Mg10 2.870718 1_555
Al9 Mg13 3.010508 1_555
Al9 Mg2 3.010508 1_555
Al9 Mg1 3.125071 1_655
Al9 Mg12 3.125071 1_655
Al9 Np0 3.163124 1_655
Al9 Mg8 3.190168 1_655
Al9 Mg14 3.190168 1_655
Al10 Al7 2.659298 1_565
Al10 Al3 2.729264 1_554
Al10 Mg11 2.870718 1_555
Al10 Mg14 3.010508 1_555
Al10 Mg3 3.010508 1_555
Al10 Mg12 3.125071 1_565
Al10 Mg0 3.125071 1_565
Al10 Np0 3.163124 1_565
Al10 Mg9 3.190168 1_565
Al10 Mg13 3.190168 1_565
Al11 Al2 2.659298 1_554
Al11 Al7 2.729264 1_555
Al11 Al8 2.729264 1_555
Al11 Mg15 2.870718 1_555
Al11 Mg10 3.010508 1_555
Al11 Mg11 3.010508 1_555
Al11 Mg1 3.125071 1_555
Al11 Mg0 3.125071 1_555
Al11 Np0 3.163124 1_555
Al11 Mg3 3.190168 1_555
Al11 Mg2 3.190168 1_555
