# generated using pymatgen
data_HoGePt
_symmetry_space_group_name_H-M   'P 1'
_cell_length_a   4.34432001
_cell_length_b   6.97412117
_cell_length_c   7.55133344
_cell_angle_alpha   90.00000000
_cell_angle_beta   90.00000000
_cell_angle_gamma   90.00000000
_symmetry_Int_Tables_number   1
_chemical_formula_structural   HoGePt
_chemical_formula_sum   'Ho4 Ge4 Pt4'
_cell_volume   228.78889716
_cell_formula_units_Z   4
loop_
 _symmetry_equiv_pos_site_id
 _symmetry_equiv_pos_as_xyz
  1  'x, y, z'
loop_
 _atom_site_type_symbol
 _atom_site_label
 _atom_site_symmetry_multiplicity
 _atom_site_fract_x
 _atom_site_fract_y
 _atom_site_fract_z
 _atom_site_occupancy
  Ho  Ho0  1  0.25000000  0.49742021  0.70455549  1
  Ho  Ho1  1  0.25000000  0.99742021  0.79544451  1
  Ho  Ho2  1  0.75000000  0.50257979  0.29544451  1
  Ho  Ho3  1  0.75000000  0.00257979  0.20455549  1
  Ge  Ge0  1  0.25000000  0.80952228  0.41145324  1
  Ge  Ge1  1  0.25000000  0.30952228  0.08854676  1
  Ge  Ge2  1  0.75000000  0.19047772  0.58854676  1
  Ge  Ge3  1  0.75000000  0.69047772  0.91145324  1
  Pt  Pt0  1  0.25000000  0.20516492  0.41652006  1
  Pt  Pt1  1  0.25000000  0.70516492  0.08347994  1
  Pt  Pt2  1  0.75000000  0.79483508  0.58348094  1
  Pt  Pt3  1  0.75000000  0.29483508  0.91651906  1
loop_
_geom_bond_atom_site_label_1
_geom_bond_atom_site_label_2
_geom_bond_distance
_geom_bond_site_symmetry_2
Ho0 Pt0 2.980806 1_555
Ho0 Pt3 3.045715 1_555
Ho0 Pt3 3.045715 1_455
Ho0 Pt2 3.139508 1_555
Ho0 Pt2 3.139508 1_455
Ho0 Pt1 3.207281 1_556
Ho1 Pt1 2.980806 1_556
Ho1 Pt2 3.045715 1_555
Ho1 Pt2 3.045715 1_455
Ho1 Pt3 3.139508 1_565
Ho1 Pt3 3.139508 1_465
Ho1 Pt0 3.207281 1_565
Ho2 Pt2 2.980812 1_555
Ho2 Pt1 3.045719 1_555
Ho2 Pt1 3.045719 1_655
Ho2 Pt0 3.139511 1_555
Ho2 Pt0 3.139511 1_655
Ho2 Pt3 3.207288 1_554
Ho3 Pt3 2.980812 1_554
Ho3 Pt0 3.045719 1_555
Ho3 Pt0 3.045719 1_655
Ho3 Pt1 3.139511 1_645
Ho3 Pt1 3.139511 1_545
Ho3 Pt2 3.207288 1_545
Ge0 Pt2 2.533036 1_555
Ge0 Pt2 2.533036 1_455
Ge0 Pt1 2.581360 1_555
Ge0 Pt0 2.759525 1_565
Ge0 Ho3 2.995336 1_565
Ge0 Ho3 2.995336 1_465
Ge0 Ho0 3.104272 1_555
Ge0 Ho2 3.173026 1_455
Ge0 Ho2 3.173026 1_555
Ge0 Ho1 3.182005 1_555
Ge1 Pt3 2.533036 1_454
Ge1 Pt3 2.533036 1_554
Ge1 Pt0 2.581360 1_555
Ge1 Pt1 2.759525 1_555
Ge1 Ho2 2.995336 1_555
Ge1 Ho2 2.995336 1_455
Ge1 Ho1 3.104272 1_544
Ge1 Ho3 3.173026 1_555
Ge1 Ho3 3.173026 1_455
Ge1 Ho0 3.182005 1_554
Ge2 Pt0 2.533032 1_555
Ge2 Pt0 2.533032 1_655
Ge2 Pt3 2.581353 1_555
Ge2 Pt2 2.759525 1_545
Ge2 Ho1 2.995336 1_645
Ge2 Ho1 2.995336 1_545
Ge2 Ho2 3.104272 1_555
Ge2 Ho0 3.173026 1_655
Ge2 Ho0 3.173026 1_555
Ge2 Ho3 3.182005 1_555
Ge3 Pt1 2.533032 1_556
Ge3 Pt1 2.533032 1_656
Ge3 Pt2 2.581353 1_555
Ge3 Pt3 2.759525 1_555
Ge3 Ho0 2.995336 1_555
Ge3 Ho0 2.995336 1_655
Ge3 Ho3 3.104272 1_566
Ge3 Ho1 3.173026 1_655
Ge3 Ho1 3.173026 1_555
Ge3 Ho2 3.182005 1_556
