# generated using pymatgen
data_MnZn3
_symmetry_space_group_name_H-M   'P 1'
_cell_length_a   5.44995124
_cell_length_b   5.44995124
_cell_length_c   17.52423000
_cell_angle_alpha   90.00000000
_cell_angle_beta   90.00000000
_cell_angle_gamma   119.99999073
_symmetry_Int_Tables_number   1
_chemical_formula_structural   MnZn3
_chemical_formula_sum   'Mn8 Zn24'
_cell_volume   450.76983896
_cell_formula_units_Z   8
loop_
 _symmetry_equiv_pos_site_id
 _symmetry_equiv_pos_as_xyz
  1  'x, y, z'
loop_
 _atom_site_type_symbol
 _atom_site_label
 _atom_site_symmetry_multiplicity
 _atom_site_fract_x
 _atom_site_fract_y
 _atom_site_fract_z
 _atom_site_occupancy
  Mn  Mn0_0  1  0.33333350  0.16666650  0.00000000  1
  Mn  Mn0_1  1  0.33333350  0.16666650  0.50000000  1
  Mn  Mn0_2  1  0.33333350  0.66666650  0.00000000  1
  Mn  Mn0_3  1  0.33333350  0.66666650  0.50000000  1
  Mn  Mn0_4  1  0.83333350  0.16666650  0.00000000  1
  Mn  Mn0_5  1  0.83333350  0.16666650  0.50000000  1
  Mn  Mn0_6  1  0.83333350  0.66666650  0.00000000  1
  Mn  Mn0_7  1  0.83333350  0.66666650  0.50000000  1
  Zn  Zn0_0  1  0.33333350  0.16666650  0.25000000  1
  Zn  Zn0_1  1  0.33333350  0.16666650  0.75000000  1
  Zn  Zn0_2  1  0.33333350  0.66666650  0.25000000  1
  Zn  Zn0_3  1  0.33333350  0.66666650  0.75000000  1
  Zn  Zn0_4  1  0.83333350  0.16666650  0.25000000  1
  Zn  Zn0_5  1  0.83333350  0.16666650  0.75000000  1
  Zn  Zn0_6  1  0.83333350  0.66666650  0.25000000  1
  Zn  Zn0_7  1  0.83333350  0.66666650  0.75000000  1
  Zn  Zn1_0  1  0.16666650  0.33333350  0.12070950  1
  Zn  Zn1_1  1  0.16666650  0.33333350  0.62070950  1
  Zn  Zn1_2  1  0.16666650  0.83333350  0.12070950  1
  Zn  Zn1_3  1  0.16666650  0.83333350  0.62070950  1
  Zn  Zn1_4  1  0.66666650  0.33333350  0.12070950  1
  Zn  Zn1_5  1  0.66666650  0.33333350  0.62070950  1
  Zn  Zn1_6  1  0.66666650  0.83333350  0.12070950  1
  Zn  Zn1_7  1  0.66666650  0.83333350  0.62070950  1
  Zn  Zn2_0  1  0.16666650  0.33333350  0.37929050  1
  Zn  Zn2_1  1  0.16666650  0.33333350  0.87929050  1
  Zn  Zn2_2  1  0.16666650  0.83333350  0.37929050  1
  Zn  Zn2_3  1  0.16666650  0.83333350  0.87929050  1
  Zn  Zn2_4  1  0.66666650  0.33333350  0.37929050  1
  Zn  Zn2_5  1  0.66666650  0.33333350  0.87929050  1
  Zn  Zn2_6  1  0.66666650  0.83333350  0.37929050  1
  Zn  Zn2_7  1  0.66666650  0.83333350  0.87929050  1
loop_
_geom_bond_atom_site_label_1
_geom_bond_atom_site_label_2
_geom_bond_distance
_geom_bond_site_symmetry_2
Mn0_0 Zn1_4 2.636253 1_555
Mn0_0 Zn1_2 2.636253 1_545
Mn0_0 Zn2_3 2.636253 1_544
Mn0_0 Zn2_5 2.636253 1_554
Mn0_0 Zn1_0 2.636255 1_555
Mn0_0 Zn2_1 2.636255 1_554
Mn0_0 Mn0_4 2.724976 1_555
Mn0_0 Mn0_2 2.724976 1_545
Mn0_0 Mn0_4 2.724976 1_455
Mn0_0 Mn0_2 2.724976 1_555
Mn0_0 Mn0_6 2.724976 1_555
Mn0_0 Mn0_6 2.724976 1_445
Mn0_1 Zn2_4 2.636253 1_555
Mn0_1 Zn2_2 2.636253 1_545
Mn0_1 Zn1_5 2.636253 1_555
Mn0_1 Zn1_3 2.636253 1_545
Mn0_1 Zn2_0 2.636255 1_555
Mn0_1 Zn1_1 2.636255 1_555
Mn0_1 Mn0_5 2.724976 1_555
Mn0_1 Mn0_3 2.724976 1_555
Mn0_1 Mn0_3 2.724976 1_545
Mn0_1 Mn0_5 2.724976 1_455
Mn0_1 Mn0_7 2.724976 1_555
Mn0_1 Mn0_7 2.724976 1_445
Mn0_2 Zn1_6 2.636253 1_555
Mn0_2 Zn1_0 2.636253 1_555
Mn0_2 Zn2_1 2.636253 1_554
Mn0_2 Zn2_7 2.636253 1_554
Mn0_2 Zn1_2 2.636255 1_555
Mn0_2 Zn2_3 2.636255 1_554
Mn0_2 Mn0_6 2.724976 1_555
Mn0_2 Mn0_6 2.724976 1_455
Mn0_2 Mn0_4 2.724976 1_565
Mn0_2 Mn0_4 2.724976 1_455
Mn0_3 Zn2_6 2.636253 1_555
Mn0_3 Zn2_0 2.636253 1_555
Mn0_3 Zn1_1 2.636253 1_555
Mn0_3 Zn1_7 2.636253 1_555
Mn0_3 Zn2_2 2.636255 1_555
Mn0_3 Zn1_3 2.636255 1_555
Mn0_3 Mn0_7 2.724976 1_555
Mn0_3 Mn0_7 2.724976 1_455
Mn0_3 Mn0_5 2.724976 1_565
Mn0_3 Mn0_5 2.724976 1_455
Mn0_4 Zn1_6 2.636253 1_545
Mn0_4 Zn1_0 2.636253 1_655
Mn0_4 Zn2_7 2.636253 1_544
Mn0_4 Zn2_1 2.636253 1_654
Mn0_4 Zn1_4 2.636255 1_555
Mn0_4 Zn2_5 2.636255 1_554
Mn0_4 Mn0_6 2.724976 1_555
Mn0_4 Mn0_6 2.724976 1_545
Mn0_5 Zn2_6 2.636253 1_545
Mn0_5 Zn2_0 2.636253 1_655
Mn0_5 Zn1_1 2.636253 1_655
Mn0_5 Zn1_7 2.636253 1_545
Mn0_5 Zn2_4 2.636255 1_555
Mn0_5 Zn1_5 2.636255 1_555
Mn0_5 Mn0_7 2.724976 1_555
Mn0_5 Mn0_7 2.724976 1_545
Mn0_6 Zn1_2 2.636253 1_655
Mn0_6 Zn1_4 2.636253 1_555
Mn0_6 Zn2_3 2.636253 1_654
Mn0_6 Zn2_5 2.636253 1_554
Mn0_6 Zn1_6 2.636255 1_555
Mn0_6 Zn2_7 2.636255 1_554
Mn0_7 Zn2_2 2.636253 1_655
Mn0_7 Zn2_4 2.636253 1_555
Mn0_7 Zn1_3 2.636253 1_655
Mn0_7 Zn1_5 2.636253 1_555
Mn0_7 Zn2_6 2.636255 1_555
Mn0_7 Zn1_7 2.636255 1_555
Zn0_0 Zn0_4 2.724976 1_555
Zn0_0 Zn0_4 2.724976 1_455
Zn0_0 Zn0_2 2.724976 1_555
Zn0_0 Zn0_2 2.724976 1_545
Zn0_0 Zn0_6 2.724976 1_555
Zn0_0 Zn0_6 2.724976 1_445
Zn0_0 Zn2_4 2.758375 1_555
Zn0_0 Zn1_2 2.758375 1_545
Zn0_0 Zn1_4 2.758375 1_555
Zn0_0 Zn2_2 2.758375 1_545
Zn0_0 Zn1_0 2.758377 1_555
Zn0_0 Zn2_0 2.758377 1_555
Zn0_1 Zn0_5 2.724976 1_555
Zn0_1 Zn0_3 2.724976 1_555
Zn0_1 Zn0_3 2.724976 1_545
Zn0_1 Zn0_5 2.724976 1_455
Zn0_1 Zn0_7 2.724976 1_445
Zn0_1 Zn0_7 2.724976 1_555
Zn0_1 Zn1_3 2.758375 1_545
Zn0_1 Zn2_5 2.758375 1_555
Zn0_1 Zn2_3 2.758375 1_545
Zn0_1 Zn1_5 2.758375 1_555
Zn0_1 Zn1_1 2.758377 1_555
Zn0_1 Zn2_1 2.758377 1_555
Zn0_2 Zn0_6 2.724976 1_555
Zn0_2 Zn0_6 2.724976 1_455
Zn0_2 Zn0_4 2.724976 1_565
Zn0_2 Zn0_4 2.724976 1_455
Zn0_2 Zn2_0 2.758375 1_555
Zn0_2 Zn2_6 2.758375 1_555
Zn0_2 Zn1_0 2.758375 1_555
Zn0_2 Zn1_6 2.758375 1_555
Zn0_2 Zn2_2 2.758377 1_555
Zn0_2 Zn1_2 2.758377 1_555
Zn0_3 Zn0_7 2.724976 1_555
Zn0_3 Zn0_7 2.724976 1_455
Zn0_3 Zn0_5 2.724976 1_455
Zn0_3 Zn0_5 2.724976 1_565
Zn0_3 Zn2_1 2.758375 1_555
Zn0_3 Zn2_7 2.758375 1_555
Zn0_3 Zn1_7 2.758375 1_555
Zn0_3 Zn1_1 2.758375 1_555
Zn0_3 Zn2_3 2.758377 1_555
Zn0_3 Zn1_3 2.758377 1_555
Zn0_4 Zn0_6 2.724976 1_545
Zn0_4 Zn0_6 2.724976 1_555
Zn0_4 Zn1_0 2.758375 1_655
Zn0_4 Zn1_6 2.758375 1_545
Zn0_4 Zn2_0 2.758375 1_655
Zn0_4 Zn2_6 2.758375 1_545
Zn0_4 Zn2_4 2.758377 1_555
Zn0_4 Zn1_4 2.758377 1_555
Zn0_5 Zn0_7 2.724976 1_545
Zn0_5 Zn0_7 2.724976 1_555
Zn0_5 Zn1_1 2.758375 1_655
Zn0_5 Zn2_7 2.758375 1_545
Zn0_5 Zn1_7 2.758375 1_545
Zn0_5 Zn2_1 2.758375 1_655
Zn0_5 Zn1_5 2.758377 1_555
Zn0_5 Zn2_5 2.758377 1_555
Zn0_6 Zn1_4 2.758375 1_555
Zn0_6 Zn2_4 2.758375 1_555
Zn0_6 Zn1_2 2.758375 1_655
Zn0_6 Zn2_2 2.758375 1_655
Zn0_6 Zn1_6 2.758377 1_555
Zn0_6 Zn2_6 2.758377 1_555
Zn0_7 Zn2_5 2.758375 1_555
Zn0_7 Zn1_3 2.758375 1_655
Zn0_7 Zn1_5 2.758375 1_555
Zn0_7 Zn2_3 2.758375 1_655
Zn0_7 Zn2_7 2.758377 1_555
Zn0_7 Zn1_7 2.758377 1_555
Zn1_0 Zn1_2 2.724976 1_555
Zn1_0 Zn1_2 2.724976 1_545
Zn1_0 Zn1_4 2.724976 1_455
Zn1_0 Zn1_4 2.724976 1_555
Zn1_0 Zn1_6 2.724976 1_555
Zn1_0 Zn1_6 2.724976 1_445
Zn1_1 Zn1_3 2.724976 1_555
Zn1_1 Zn1_5 2.724976 1_555
Zn1_1 Zn1_5 2.724976 1_455
Zn1_1 Zn1_3 2.724976 1_545
Zn1_1 Zn1_7 2.724976 1_445
Zn1_1 Zn1_7 2.724976 1_555
Zn1_2 Zn1_6 2.724976 1_455
Zn1_2 Zn1_6 2.724976 1_555
Zn1_2 Zn1_4 2.724976 1_565
Zn1_2 Zn1_4 2.724976 1_455
Zn1_3 Zn1_7 2.724976 1_555
Zn1_3 Zn1_7 2.724976 1_455
Zn1_3 Zn1_5 2.724976 1_565
Zn1_3 Zn1_5 2.724976 1_455
Zn1_4 Zn1_6 2.724976 1_555
Zn1_4 Zn1_6 2.724976 1_545
Zn1_5 Zn1_7 2.724976 1_555
Zn1_5 Zn1_7 2.724976 1_545
Zn2_0 Zn2_2 2.724976 1_555
Zn2_0 Zn2_4 2.724976 1_455
Zn2_0 Zn2_4 2.724976 1_555
Zn2_0 Zn2_2 2.724976 1_545
Zn2_0 Zn2_6 2.724976 1_445
Zn2_0 Zn2_6 2.724976 1_555
Zn2_1 Zn2_3 2.724976 1_555
Zn2_1 Zn2_3 2.724976 1_545
Zn2_1 Zn2_5 2.724976 1_455
Zn2_1 Zn2_5 2.724976 1_555
Zn2_1 Zn2_7 2.724976 1_445
Zn2_1 Zn2_7 2.724976 1_555
Zn2_2 Zn2_6 2.724976 1_555
Zn2_2 Zn2_6 2.724976 1_455
Zn2_2 Zn2_4 2.724976 1_565
Zn2_2 Zn2_4 2.724976 1_455
Zn2_3 Zn2_7 2.724976 1_555
Zn2_3 Zn2_7 2.724976 1_455
Zn2_3 Zn2_5 2.724976 1_455
Zn2_3 Zn2_5 2.724976 1_565
Zn2_4 Zn2_6 2.724976 1_555
Zn2_4 Zn2_6 2.724976 1_545
Zn2_5 Zn2_7 2.724976 1_555
Zn2_5 Zn2_7 2.724976 1_545
