# generated using pymatgen
data_Zn2SbN3
_symmetry_space_group_name_H-M   'P 1'
_cell_length_a   9.99711718
_cell_length_b   5.75387305
_cell_length_c   5.40588697
_cell_angle_alpha   90.00000000
_cell_angle_beta   90.00000000
_cell_angle_gamma   90.00000000
_symmetry_Int_Tables_number   1
_chemical_formula_structural   Zn2SbN3
_chemical_formula_sum   'Zn8 Sb4 N12'
_cell_volume   310.95820398
_cell_formula_units_Z   4
loop_
 _symmetry_equiv_pos_site_id
 _symmetry_equiv_pos_as_xyz
  1  'x, y, z'
loop_
 _atom_site_type_symbol
 _atom_site_label
 _atom_site_symmetry_multiplicity
 _atom_site_fract_x
 _atom_site_fract_y
 _atom_site_fract_z
 _atom_site_occupancy
  Zn  Zn0  1  0.82774717  0.16259222  0.20563947  1
  Zn  Zn1  1  0.17225283  0.83740778  0.70563947  1
  Zn  Zn2  1  0.17225283  0.16259222  0.20563947  1
  Zn  Zn3  1  0.82774717  0.83740778  0.70563947  1
  Zn  Zn4  1  0.32774717  0.66259222  0.20563947  1
  Zn  Zn5  1  0.67225283  0.33740778  0.70563947  1
  Zn  Zn6  1  0.67225283  0.66259222  0.20563947  1
  Zn  Zn7  1  0.32774717  0.33740778  0.70563947  1
  Sb  Sb0  1  -0.00000000  0.32179591  0.69483427  1
  Sb  Sb1  1  -0.00000000  0.67820409  0.19483427  1
  Sb  Sb2  1  0.50000000  0.82179591  0.69483427  1
  Sb  Sb3  1  0.50000000  0.17820409  0.19483427  1
  N  N0  1  0.83531302  0.16785532  0.58052889  1
  N  N1  1  0.16468698  0.83214468  0.08052889  1
  N  N2  1  0.16468698  0.16785532  0.58052889  1
  N  N3  1  0.83531302  0.83214468  0.08052889  1
  N  N4  1  0.33531302  0.66785532  0.58052889  1
  N  N5  1  0.66468698  0.33214468  0.08052889  1
  N  N6  1  0.66468698  0.66785532  0.58052889  1
  N  N7  1  0.33531302  0.33214468  0.08052889  1
  N  N8  1  -0.00000000  0.34215467  0.07255002  1
  N  N9  1  -0.00000000  0.65784533  0.57255002  1
  N  N10  1  0.50000000  0.84215467  0.07255002  1
  N  N11  1  0.50000000  0.15784533  0.57255002  1
loop_
_geom_bond_atom_site_label_1
_geom_bond_atom_site_label_2
_geom_bond_distance
_geom_bond_site_symmetry_2
N0 Sb0 1.969011 1_655
N0 Zn5 2.016561 1_555
N0 Zn3 2.019478 1_545
N0 Zn0 2.028247 1_555
N1 Sb1 1.969011 1_555
N1 Zn4 2.016561 1_555
N1 Zn2 2.019478 1_565
N1 Zn1 2.028247 1_554
N2 Sb0 1.969011 1_555
N2 Zn7 2.016561 1_555
N2 Zn1 2.019478 1_545
N2 Zn2 2.028247 1_555
N3 Sb1 1.969011 1_655
N3 Zn6 2.016561 1_555
N3 Zn0 2.019478 1_565
N3 Zn3 2.028247 1_554
N4 Sb2 1.969011 1_555
N4 Zn1 2.016561 1_555
N4 Zn7 2.019478 1_555
N4 Zn4 2.028247 1_555
N5 Sb3 1.969011 1_555
N5 Zn0 2.016561 1_555
N5 Zn6 2.019478 1_555
N5 Zn5 2.028247 1_554
N6 Sb2 1.969011 1_555
N6 Zn3 2.016561 1_555
N6 Zn5 2.019478 1_555
N6 Zn6 2.028247 1_555
N7 Sb3 1.969011 1_555
N7 Zn2 2.016561 1_555
N7 Zn4 2.019478 1_555
N7 Zn7 2.028247 1_554
N8 Sb1 2.043464 1_555
N8 Sb0 2.045246 1_554
N8 Zn2 2.133187 1_555
N8 Zn0 2.133187 1_455
N9 Sb0 2.043464 1_555
N9 Sb1 2.045246 1_555
N9 Zn1 2.133187 1_555
N9 Zn3 2.133187 1_455
N10 Sb3 2.043464 1_565
N10 Sb2 2.045246 1_554
N10 Zn4 2.133187 1_555
N10 Zn6 2.133187 1_555
N11 Sb2 2.043464 1_545
N11 Sb3 2.045246 1_555
N11 Zn5 2.133187 1_555
N11 Zn7 2.133187 1_555
