# generated using pymatgen
data_Tl3AsO4
_symmetry_space_group_name_H-M   'P 1'
_cell_length_a   8.67649018
_cell_length_b   8.67720622
_cell_length_c   5.22018182
_cell_angle_alpha   89.99861594
_cell_angle_beta   89.99865775
_cell_angle_gamma   119.99573475
_symmetry_Int_Tables_number   1
_chemical_formula_structural   Tl3AsO4
_chemical_formula_sum   'Tl6 As2 O8'
_cell_volume   340.37599466
_cell_formula_units_Z   2
loop_
 _symmetry_equiv_pos_site_id
 _symmetry_equiv_pos_as_xyz
  1  'x, y, z'
loop_
 _atom_site_type_symbol
 _atom_site_label
 _atom_site_symmetry_multiplicity
 _atom_site_fract_x
 _atom_site_fract_y
 _atom_site_fract_z
 _atom_site_occupancy
  Tl  Tl0  1  0.72817511  0.08754779  0.00315129  1
  Tl  Tl1  1  0.91243618  0.64062405  0.00314294  1
  Tl  Tl2  1  0.64063882  0.72820100  0.50314048  1
  Tl  Tl3  1  0.27182091  0.91247060  0.50317770  1
  Tl  Tl4  1  0.08756343  0.35938072  0.50317223  1
  Tl  Tl5  1  0.35934645  0.27182410  0.00320125  1
  As  As0  1  0.33334056  0.66667631  0.98401236  1
  As  As1  1  0.66666117  0.33330671  0.48394507  1
  O  O0  1  0.60384173  0.12337580  0.58371016  1
  O  O1  1  0.48054219  0.60385307  0.08374408  1
  O  O2  1  0.12333715  0.51946852  0.08373846  1
  O  O3  1  0.87659348  0.48046943  0.58370714  1
  O  O4  1  0.33335860  0.66672431  0.65344236  1
  O  O5  1  0.39616733  0.87666606  0.08371743  1
  O  O6  1  0.66664857  0.33329329  0.15348192  1
  O  O7  1  0.51952832  0.39611922  0.58371414  1
loop_
_geom_bond_atom_site_label_1
_geom_bond_atom_site_label_2
_geom_bond_distance
_geom_bond_site_symmetry_2
As0 O5 1.701501 1_556
As0 O2 1.701597 1_556
As0 O1 1.701645 1_556
As0 O4 1.725636 1_555
As1 O7 1.701087 1_555
As1 O0 1.701111 1_555
As1 O3 1.701186 1_555
As1 O6 1.725078 1_555
O0 Tl0 2.527843 1_556
O0 Tl3 2.559982 1_545
O1 Tl2 2.527558 1_555
O1 Tl5 2.560086 1_555
O2 Tl4 2.527586 1_555
O2 Tl1 2.560115 1_455
O3 Tl1 2.527858 1_556
O3 Tl4 2.560162 1_655
O4 Tl3 2.566284 1_555
O4 Tl2 2.566353 1_555
O4 Tl4 2.566938 1_555
O5 Tl3 2.527886 1_555
O5 Tl0 2.559856 1_565
O6 Tl0 2.566347 1_555
O6 Tl5 2.566563 1_555
O6 Tl1 2.566889 1_555
O7 Tl5 2.528046 1_556
O7 Tl2 2.560616 1_555
