# generated using pymatgen
data_Sr3Ca(Fe2O5)2
_symmetry_space_group_name_H-M   'P 1'
_cell_length_a   11.15987373
_cell_length_b   11.53542128
_cell_length_c   17.47170329
_cell_angle_alpha   109.23783586
_cell_angle_beta   108.76918269
_cell_angle_gamma   89.95491697
_symmetry_Int_Tables_number   1
_chemical_formula_structural   Sr3Ca(Fe2O5)2
_chemical_formula_sum   'Sr24 Ca8 Fe32 O80'
_cell_volume   1996.69538382
_cell_formula_units_Z   8
loop_
 _symmetry_equiv_pos_site_id
 _symmetry_equiv_pos_as_xyz
  1  'x, y, z'
loop_
 _atom_site_type_symbol
 _atom_site_label
 _atom_site_symmetry_multiplicity
 _atom_site_fract_x
 _atom_site_fract_y
 _atom_site_fract_z
 _atom_site_occupancy
  Sr  Sr0  1  0.30610900  0.06365400  0.60852500  1
  Sr  Sr1  1  0.30599600  0.56391400  0.60895600  1
  Sr  Sr2  1  0.80631300  0.06428300  0.60925200  1
  Sr  Sr3  1  0.80691800  0.56410400  0.61026200  1
  Sr  Sr4  1  0.19662000  0.43543900  0.39021100  1
  Sr  Sr5  1  0.19694700  0.43665500  0.89256400  1
  Sr  Sr6  1  0.19615100  0.93539400  0.38911400  1
  Sr  Sr7  1  0.69637700  0.43564900  0.38954300  1
  Sr  Sr8  1  0.69817400  0.43720300  0.89263700  1
  Sr  Sr9  1  0.69662400  0.93537200  0.39018900  1
  Sr  Sr10  1  0.69791500  0.93595500  0.89262500  1
  Sr  Sr11  1  0.05601100  0.29350600  0.10940400  1
  Sr  Sr12  1  0.05643100  0.29479300  0.60906900  1
  Sr  Sr13  1  0.05665700  0.79590000  0.61022400  1
  Sr  Sr14  1  0.55586500  0.29484400  0.60848400  1
  Sr  Sr15  1  0.55534000  0.79434200  0.10922400  1
  Sr  Sr16  1  0.55613200  0.79514800  0.60879500  1
  Sr  Sr17  1  0.44590600  0.20352000  0.38845500  1
  Sr  Sr18  1  0.44723100  0.20562300  0.89268200  1
  Sr  Sr19  1  0.44551400  0.70369400  0.38857500  1
  Sr  Sr20  1  0.44670200  0.70599300  0.89244500  1
  Sr  Sr21  1  0.94547400  0.20365200  0.38848300  1
  Sr  Sr22  1  0.94768000  0.20559300  0.89248500  1
  Sr  Sr23  1  0.94608200  0.70365400  0.38882000  1
  Ca  Ca0  1  0.30349000  0.06635400  0.10429800  1
  Ca  Ca1  1  0.30335700  0.56689500  0.10530300  1
  Ca  Ca2  1  0.80329400  0.06658200  0.10508000  1
  Ca  Ca3  1  0.80368500  0.56719800  0.10538200  1
  Ca  Ca4  1  0.19948900  0.93424100  0.89640300  1
  Ca  Ca5  1  0.05477800  0.78812700  0.10479600  1
  Ca  Ca6  1  0.55499100  0.28839300  0.10585300  1
  Ca  Ca7  1  0.95038400  0.71232100  0.89625300  1
  Fe  Fe0  1  0.00738100  0.99977400  0.00283600  1
  Fe  Fe1  1  0.00422800  0.99968700  0.49970100  1
  Fe  Fe2  1  0.00621100  0.50283400  0.00278600  1
  Fe  Fe3  1  0.00364400  0.50023400  0.49991500  1
  Fe  Fe4  1  0.50602000  0.00216300  0.00301900  1
  Fe  Fe5  1  0.50390400  0.99997600  0.49968100  1
  Fe  Fe6  1  0.50730700  0.50128900  0.00483100  1
  Fe  Fe7  1  0.50446700  0.50013700  0.49984700  1
  Fe  Fe8  1  0.25713900  0.25084300  0.00299700  1
  Fe  Fe9  1  0.25381300  0.24953100  0.49958200  1
  Fe  Fe10  1  0.25450400  0.75167800  0.00212400  1
  Fe  Fe11  1  0.25360100  0.74987800  0.49977200  1
  Fe  Fe12  1  0.75585700  0.25206200  0.00389500  1
  Fe  Fe13  1  0.75404900  0.25017700  0.49981200  1
  Fe  Fe14  1  0.75826600  0.75149200  0.00297300  1
  Fe  Fe15  1  0.75421700  0.74949700  0.49995600  1
  Fe  Fe16  1  0.10387500  0.08555200  0.24558000  1
  Fe  Fe17  1  0.10898400  0.08898200  0.75280500  1
  Fe  Fe18  1  0.10462100  0.59074000  0.24691300  1
  Fe  Fe19  1  0.10671000  0.59463900  0.75283600  1
  Fe  Fe20  1  0.60453000  0.09063000  0.24715000  1
  Fe  Fe21  1  0.60797800  0.09016800  0.75093300  1
  Fe  Fe22  1  0.60383900  0.58567100  0.24598000  1
  Fe  Fe23  1  0.60995600  0.59118100  0.75117700  1
  Fe  Fe24  1  0.35690400  0.40922700  0.24677700  1
  Fe  Fe25  1  0.35799100  0.41064500  0.75108600  1
  Fe  Fe26  1  0.35221700  0.90825400  0.24553800  1
  Fe  Fe27  1  0.35641700  0.91021200  0.75241500  1
  Fe  Fe28  1  0.85253400  0.40835900  0.24577700  1
  Fe  Fe29  1  0.85910200  0.41366300  0.75260100  1
  Fe  Fe30  1  0.85707600  0.90936000  0.24682500  1
  Fe  Fe31  1  0.86026700  0.90785900  0.75163100  1
  O  O0  1  0.12356700  0.12176800  0.49055500  1
  O  O1  1  0.12753100  0.11676500  0.98898000  1
  O  O2  1  0.12357500  0.62174400  0.49075900  1
  O  O3  1  0.12185100  0.62510600  0.99007500  1
  O  O4  1  0.62389700  0.12191600  0.49061900  1
  O  O5  1  0.62537600  0.12428300  0.99375700  1
  O  O6  1  0.62391400  0.62172300  0.49053900  1
  O  O7  1  0.62744700  0.62157800  0.99256200  1
  O  O8  1  0.13826800  0.38262500  0.01395600  1
  O  O9  1  0.13255400  0.37784000  0.50843800  1
  O  O10  1  0.13565500  0.87906500  0.01248900  1
  O  O11  1  0.13280500  0.87793300  0.50878900  1
  O  O12  1  0.63684500  0.38045500  0.01588000  1
  O  O13  1  0.63307800  0.37816500  0.50881200  1
  O  O14  1  0.63867500  0.88252600  0.01378500  1
  O  O15  1  0.63265200  0.87776400  0.50833900  1
  O  O16  1  0.37363800  0.11879700  0.49022700  1
  O  O17  1  0.37395600  0.11808500  0.99143500  1
  O  O18  1  0.37368900  0.61915000  0.49057200  1
  O  O19  1  0.37336600  0.61808500  0.99204900  1
  O  O20  1  0.87403900  0.11910600  0.49083900  1
  O  O21  1  0.87462100  0.11748500  0.99201200  1
  O  O22  1  0.87401000  0.61909000  0.49061500  1
  O  O23  1  0.87814600  0.62243000  0.99123200  1
  O  O24  1  0.38807200  0.38320000  0.01630100  1
  O  O25  1  0.38262300  0.38035300  0.50814600  1
  O  O26  1  0.38166900  0.88658900  0.01225200  1
  O  O27  1  0.38283700  0.88044100  0.50834400  1
  O  O28  1  0.88359400  0.38688000  0.01391200  1
  O  O29  1  0.88291200  0.38065600  0.50842900  1
  O  O30  1  0.88904100  0.88111100  0.01406900  1
  O  O31  1  0.88285500  0.88039600  0.50835900  1
  O  O32  1  0.08857800  0.09837300  0.13877000  1
  O  O33  1  0.08333300  0.09441000  0.64150500  1
  O  O34  1  0.08709700  0.60509500  0.13958600  1
  O  O35  1  0.07982500  0.59624400  0.64076700  1
  O  O36  1  0.58635400  0.10482700  0.13990500  1
  O  O37  1  0.58172400  0.09614600  0.64010500  1
  O  O38  1  0.58802100  0.59973200  0.13948500  1
  O  O39  1  0.58190600  0.59641700  0.63997000  1
  O  O40  1  0.44167800  0.40540800  0.35851600  1
  O  O41  1  0.44257400  0.40315000  0.86144800  1
  O  O42  1  0.43905800  0.90570900  0.35767100  1
  O  O43  1  0.44527200  0.90340900  0.86206900  1
  O  O44  1  0.93909300  0.40576500  0.35777300  1
  O  O45  1  0.94264500  0.40136500  0.86144100  1
  O  O46  1  0.94172800  0.90546900  0.35866500  1
  O  O47  1  0.94558400  0.89511400  0.86066800  1
  O  O48  1  0.33494000  0.28299100  0.14039600  1
  O  O49  1  0.33146800  0.29400200  0.64024100  1
  O  O50  1  0.33253500  0.78259600  0.13971400  1
  O  O51  1  0.33000200  0.79470900  0.64098700  1
  O  O52  1  0.83397500  0.28230500  0.14036300  1
  O  O53  1  0.83380400  0.29696400  0.64138300  1
  O  O54  1  0.83631900  0.78353500  0.14070000  1
  O  O55  1  0.83198000  0.79335800  0.63984000  1
  O  O56  1  0.18895500  0.20179400  0.35750700  1
  O  O57  1  0.19319500  0.21006000  0.86147900  1
  O  O58  1  0.18837600  0.70512000  0.35892700  1
  O  O59  1  0.19389400  0.71607600  0.86121900  1
  O  O60  1  0.68858400  0.20525400  0.35909200  1
  O  O61  1  0.69231000  0.20757200  0.86152600  1
  O  O62  1  0.68912000  0.70183700  0.35761600  1
  O  O63  1  0.69752800  0.70745100  0.86148400  1
  O  O64  1  0.42762000  0.05654900  0.24035000  1
  O  O65  1  0.43574900  0.05866000  0.75088500  1
  O  O66  1  0.42744100  0.55861100  0.24087000  1
  O  O67  1  0.43781000  0.56001500  0.75136700  1
  O  O68  1  0.92755800  0.05876300  0.24086900  1
  O  O69  1  0.93626700  0.05868900  0.75147500  1
  O  O70  1  0.92779700  0.55669700  0.24049900  1
  O  O71  1  0.93663700  0.56878800  0.75879100  1
  O  O72  1  0.18554000  0.44226800  0.24860900  1
  O  O73  1  0.18627700  0.44456800  0.75159300  1
  O  O74  1  0.17641300  0.93144900  0.24178400  1
  O  O75  1  0.18604700  0.93972800  0.75853100  1
  O  O76  1  0.67658000  0.43152500  0.24189200  1
  O  O77  1  0.68583600  0.44030900  0.75043800  1
  O  O78  1  0.68564500  0.94221000  0.24864200  1
  O  O79  1  0.68832900  0.94141300  0.75131900  1
loop_
_geom_bond_atom_site_label_1
_geom_bond_atom_site_label_2
_geom_bond_distance
_geom_bond_site_symmetry_2
Ca0 O48 2.363529 1_555
Ca0 O64 2.374891 1_555
Ca0 O26 2.519930 1_545
Ca0 O1 2.545171 1_554
Ca0 O10 2.556962 1_545
Ca0 O17 2.576237 1_554
Ca0 O32 2.651985 1_555
Ca1 O50 2.355447 1_555
Ca1 O66 2.361179 1_555
Ca1 O8 2.517582 1_555
Ca1 O24 2.563890 1_555
Ca1 O19 2.576835 1_554
Ca1 O3 2.621348 1_554
Ca1 O34 2.670633 1_555
Ca2 O52 2.354631 1_555
Ca2 O68 2.362938 1_555
Ca2 O14 2.513133 1_545
Ca2 O5 2.556230 1_554
Ca2 O21 2.580316 1_554
Ca2 O30 2.599167 1_545
Ca2 O36 2.682456 1_555
Ca3 O54 2.362871 1_555
Ca3 O70 2.364351 1_555
Ca3 O28 2.529725 1_555
Ca3 O12 2.542695 1_555
Ca3 O7 2.542699 1_554
Ca3 O23 2.641729 1_554
Ca3 O38 2.657541 1_555
Ca3 O34 3.027459 1_655
Ca4 O59 2.381443 1_555
Ca4 O75 2.386846 1_555
Ca4 O1 2.506629 1_565
Ca4 O26 2.572127 1_556
Ca4 O17 2.578947 1_565
Ca4 O10 2.609110 1_556
Ca4 O47 2.701921 1_455
Ca4 O43 2.987740 1_555
Ca5 O74 2.368467 1_555
Ca5 O34 2.379243 1_555
Ca5 O30 2.512933 1_455
Ca5 O23 2.542782 1_454
Ca5 O10 2.563033 1_555
Ca5 O3 2.567788 1_554
Ca5 O54 2.710405 1_455
Ca5 O50 2.965302 1_555
Ca6 O76 2.357682 1_555
Ca6 O36 2.378096 1_555
Ca6 O24 2.522486 1_555
Ca6 O12 2.541468 1_555
Ca6 O5 2.565322 1_554
Ca6 O17 2.599381 1_554
Ca6 O48 2.716168 1_555
Ca6 O52 2.980174 1_555
Ca7 O71 2.382417 1_555
Ca7 O47 2.382832 1_555
Ca7 O3 2.534977 1_655
Ca7 O23 2.544605 1_555
Ca7 O30 2.600093 1_556
Ca7 O10 2.613240 1_656
Ca7 O63 2.685074 1_555
Ca7 O59 2.974838 1_655
Fe0 O30 2.000755 1_455
Fe0 O10 2.003200 1_555
Fe0 O21 2.015031 1_464
Fe0 O1 2.026030 1_564
Fe0 O32 2.142892 1_565
Fe0 O47 2.241832 1_454
Fe1 O31 2.005768 1_455
Fe1 O20 2.006278 1_465
Fe1 O11 2.013431 1_555
Fe1 O0 2.017580 1_565
Fe1 O46 2.206818 1_455
Fe1 O33 2.218474 1_565
Fe2 O23 1.995335 1_454
Fe2 O28 2.011167 1_455
Fe2 O3 2.024325 1_554
Fe2 O8 2.030482 1_555
Fe2 O34 2.162031 1_555
Fe2 O45 2.222842 1_454
Fe3 O22 1.997885 1_455
Fe3 O29 2.001825 1_455
Fe3 O2 2.017453 1_555
Fe3 O9 2.020559 1_555
Fe3 O35 2.205582 1_555
Fe3 O44 2.222750 1_455
Fe4 O17 1.996127 1_554
Fe4 O26 2.004483 1_545
Fe4 O5 2.019094 1_554
Fe4 O14 2.029836 1_545
Fe4 O36 2.163695 1_555
Fe4 O43 2.213610 1_544
Fe5 O16 2.002722 1_565
Fe5 O27 2.005430 1_555
Fe5 O15 2.017977 1_555
Fe5 O4 2.020654 1_565
Fe5 O37 2.200248 1_565
Fe5 O42 2.220390 1_555
Fe6 O24 2.005177 1_555
Fe6 O12 2.016071 1_555
Fe6 O19 2.019821 1_554
Fe6 O7 2.037849 1_554
Fe6 O38 2.124422 1_555
Fe6 O41 2.246562 1_554
Fe7 O18 2.008063 1_555
Fe7 O25 2.010249 1_555
Fe7 O13 2.015340 1_555
Fe7 O6 2.015753 1_555
Fe7 O39 2.195949 1_555
Fe7 O40 2.211814 1_555
Fe8 O17 2.011978 1_554
Fe8 O1 2.017463 1_554
Fe8 O24 2.017746 1_555
Fe8 O8 2.018874 1_555
Fe8 O48 2.174122 1_555
Fe8 O57 2.223211 1_554
Fe9 O0 2.003093 1_555
Fe9 O9 2.006627 1_555
Fe9 O16 2.015993 1_555
Fe9 O25 2.020482 1_555
Fe9 O49 2.202985 1_555
Fe9 O56 2.220937 1_555
Fe10 O10 1.981775 1_555
Fe10 O3 1.991973 1_554
Fe10 O26 2.031654 1_555
Fe10 O19 2.033143 1_554
Fe10 O50 2.180090 1_555
Fe10 O59 2.224745 1_554
Fe11 O11 2.001078 1_555
Fe11 O2 2.004515 1_555
Fe11 O18 2.017837 1_555
Fe11 O27 2.021546 1_555
Fe11 O58 2.205136 1_555
Fe11 O51 2.210874 1_555
Fe12 O12 1.993218 1_555
Fe12 O5 1.997431 1_554
Fe12 O28 2.035911 1_555
Fe12 O21 2.042343 1_554
Fe12 O52 2.163666 1_555
Fe12 O61 2.231094 1_554
Fe13 O13 2.001877 1_555
Fe13 O4 2.005294 1_555
Fe13 O29 2.017660 1_555
Fe13 O20 2.019758 1_555
Fe13 O60 2.202772 1_555
Fe13 O53 2.214936 1_555
Fe14 O23 2.005145 1_554
Fe14 O30 2.008363 1_555
Fe14 O7 2.015744 1_554
Fe14 O14 2.018051 1_555
Fe14 O54 2.179751 1_555
Fe14 O63 2.218840 1_554
Fe15 O6 2.000932 1_555
Fe15 O15 2.008260 1_555
Fe15 O22 2.013018 1_555
Fe15 O31 2.020934 1_555
Fe15 O55 2.191632 1_555
Fe15 O62 2.225267 1_555
Fe16 O32 1.873598 1_555
Fe16 O56 1.898130 1_555
Fe16 O74 1.942761 1_545
Fe16 O68 1.963158 1_455
Fe17 O57 1.882895 1_555
Fe17 O33 1.894552 1_555
Fe17 O75 1.941576 1_545
Fe17 O69 1.950588 1_455
Fe18 O34 1.884295 1_555
Fe18 O58 1.888870 1_555
Fe18 O72 1.939963 1_555
Fe18 O70 1.972494 1_455
Fe19 O59 1.887669 1_555
Fe19 O35 1.889471 1_555
Fe19 O73 1.941900 1_555
Fe19 O71 1.962280 1_455
Fe20 O36 1.880557 1_555
Fe20 O60 1.889610 1_555
Fe20 O78 1.939885 1_545
Fe20 O64 1.971296 1_555
Fe21 O61 1.887002 1_555
Fe21 O37 1.887575 1_555
Fe21 O79 1.936474 1_545
Fe21 O65 1.956082 1_555
Fe22 O38 1.872686 1_555
Fe22 O62 1.894958 1_555
Fe22 O76 1.943506 1_555
Fe22 O66 1.962196 1_555
Fe23 O63 1.885447 1_555
Fe23 O39 1.887512 1_555
Fe23 O77 1.932889 1_555
Fe23 O67 1.956008 1_555
Fe24 O48 1.886528 1_555
Fe24 O40 1.891137 1_555
Fe24 O66 1.942000 1_555
Fe24 O72 1.958003 1_555
Fe25 O41 1.885460 1_555
Fe25 O49 1.887652 1_555
Fe25 O67 1.938146 1_555
Fe25 O73 1.957779 1_555
Fe26 O50 1.881737 1_555
Fe26 O42 1.895890 1_555
Fe26 O64 1.948372 1_565
Fe26 O74 1.962924 1_555
Fe27 O43 1.880513 1_555
Fe27 O51 1.890572 1_555
Fe27 O65 1.940274 1_565
Fe27 O75 1.961648 1_555
Fe28 O52 1.881369 1_555
Fe28 O44 1.893438 1_555
Fe28 O70 1.948864 1_555
Fe28 O76 1.963975 1_555
Fe29 O45 1.882068 1_555
Fe29 O53 1.895143 1_555
Fe29 O71 1.943492 1_555
Fe29 O77 1.947951 1_555
Fe30 O54 1.883880 1_555
Fe30 O46 1.892762 1_555
Fe30 O68 1.942346 1_565
Fe30 O78 1.958253 1_555
Fe31 O55 1.887583 1_555
Fe31 O47 1.890642 1_555
Fe31 O69 1.937398 1_565
Fe31 O79 1.955800 1_555
O0 Sr6 2.613350 1_545
O0 Sr21 2.617054 1_455
O0 Sr0 2.655940 1_555
O0 Sr12 2.665542 1_555
O1 Sr22 2.622676 1_455
O1 Sr11 2.733474 1_556
O2 Sr4 2.607713 1_555
O2 Sr23 2.612325 1_455
O2 Sr1 2.656012 1_555
O2 Sr13 2.680997 1_555
O3 Sr5 2.608815 1_555
O4 Sr9 2.606466 1_545
O4 Sr17 2.615446 1_555
O4 Sr2 2.659514 1_555
O4 Sr14 2.663285 1_555
O5 Sr18 2.604060 1_555
O5 Sr10 2.623947 1_545
O6 Sr7 2.606628 1_555
O6 Sr19 2.618445 1_555
O6 Sr16 2.668856 1_555
O6 Sr3 2.674547 1_555
O7 Sr8 2.575211 1_555
O7 Sr20 2.631627 1_555
O7 Sr15 2.673939 1_556
O8 Sr11 2.607084 1_555
O8 Sr5 2.661035 1_554
O8 Sr22 2.728431 1_454
O9 Sr1 2.602490 1_555
O9 Sr12 2.608266 1_555
O9 Sr4 2.659889 1_555
O9 Sr21 2.684114 1_455
O11 Sr0 2.597009 1_565
O11 Sr13 2.614199 1_555
O11 Sr6 2.678868 1_555
O11 Sr23 2.682602 1_455
O12 Sr18 2.719049 1_554
O12 Sr8 2.722398 1_554
O13 Sr14 2.601699 1_555
O13 Sr3 2.606606 1_555
O13 Sr7 2.672015 1_555
O13 Sr17 2.689247 1_555
O14 Sr15 2.607182 1_555
O14 Sr10 2.656889 1_554
O14 Sr20 2.733192 1_554
O15 Sr16 2.604997 1_555
O15 Sr2 2.608007 1_565
O15 Sr9 2.658126 1_555
O15 Sr19 2.682840 1_555
O16 Sr6 2.609981 1_545
O16 Sr17 2.614687 1_555
O16 Sr14 2.658246 1_555
O16 Sr0 2.667205 1_555
O17 Sr18 2.592813 1_555
O18 Sr4 2.607405 1_555
O18 Sr19 2.614397 1_555
O18 Sr16 2.659036 1_555
O18 Sr1 2.670128 1_555
O19 Sr5 2.585470 1_555
O19 Sr20 2.609088 1_555
O19 Sr15 2.652803 1_556
O20 Sr9 2.610470 1_545
O20 Sr21 2.617791 1_555
O20 Sr12 2.656955 1_655
O20 Sr2 2.668452 1_555
O21 Sr10 2.587625 1_545
O21 Sr22 2.607656 1_555
O21 Sr11 2.649081 1_656
O22 Sr7 2.611004 1_555
O22 Sr23 2.612800 1_555
O22 Sr13 2.671787 1_655
O22 Sr3 2.685999 1_555
O23 Sr8 2.630882 1_555
O24 Sr18 2.701256 1_554
O24 Sr5 2.740889 1_554
O25 Sr14 2.596062 1_555
O25 Sr1 2.612636 1_555
O25 Sr4 2.658328 1_555
O25 Sr17 2.677676 1_555
O26 Sr15 2.613612 1_555
O26 Sr20 2.711067 1_554
O27 Sr16 2.595982 1_555
O27 Sr0 2.605266 1_565
O27 Sr19 2.674541 1_555
O27 Sr6 2.675283 1_555
O28 Sr11 2.600235 1_655
O28 Sr8 2.663765 1_554
O28 Sr22 2.726911 1_554
O29 Sr12 2.603110 1_655
O29 Sr3 2.617243 1_555
O29 Sr7 2.670980 1_555
O29 Sr21 2.677282 1_555
O30 Sr10 2.724328 1_554
O31 Sr13 2.607372 1_655
O31 Sr2 2.615076 1_565
O31 Sr9 2.661528 1_555
O31 Sr23 2.675193 1_555
O32 Sr11 2.470191 1_555
O33 Sr12 2.550881 1_555
O33 Sr0 2.724815 1_555
O33 Sr2 2.957586 1_455
O35 Sr13 2.525103 1_555
O35 Sr1 2.753805 1_555
O35 Sr3 2.919629 1_455
O37 Sr14 2.524460 1_555
O37 Sr2 2.728564 1_555
O37 Sr0 2.946025 1_555
O38 Sr15 2.471627 1_555
O39 Sr16 2.521051 1_555
O39 Sr3 2.724662 1_555
O39 Sr1 2.951175 1_555
O40 Sr17 2.546794 1_555
O40 Sr7 2.716658 1_555
O40 Sr4 2.958470 1_555
O41 Sr18 2.508642 1_555
O41 Sr8 2.729146 1_555
O41 Sr5 2.962732 1_555
O42 Sr19 2.555587 1_555
O42 Sr9 2.743101 1_555
O42 Sr6 2.932654 1_555
O43 Sr20 2.501768 1_555
O43 Sr10 2.697462 1_555
O44 Sr21 2.555028 1_555
O44 Sr4 2.742921 1_655
O44 Sr7 2.933234 1_555
O45 Sr22 2.486903 1_555
O45 Sr5 2.716320 1_655
O45 Sr8 2.952639 1_555
O46 Sr23 2.547791 1_555
O46 Sr6 2.715227 1_655
O46 Sr9 2.957563 1_555
O47 Sr10 2.998474 1_555
O48 Sr11 2.992581 1_555
O49 Sr0 2.525397 1_555
O49 Sr14 2.734395 1_555
O49 Sr12 2.940285 1_555
O50 Sr15 2.717569 1_555
O51 Sr1 2.528974 1_555
O51 Sr16 2.756834 1_555
O51 Sr13 2.923064 1_555
O52 Sr11 2.712618 1_655
O53 Sr2 2.551674 1_555
O53 Sr12 2.717591 1_655
O53 Sr14 2.965716 1_555
O54 Sr15 3.014198 1_555
O55 Sr3 2.519216 1_555
O55 Sr13 2.720389 1_655
O55 Sr16 2.950275 1_555
O56 Sr4 2.559677 1_555
O56 Sr17 2.740579 1_555
O56 Sr21 2.935170 1_455
O57 Sr5 2.485774 1_555
O57 Sr18 2.713057 1_555
O57 Sr22 2.962607 1_455
O58 Sr6 2.527718 1_555
O58 Sr19 2.748151 1_555
O58 Sr23 2.915339 1_455
O59 Sr20 2.705870 1_555
O60 Sr7 2.528401 1_555
O60 Sr21 2.746222 1_555
O60 Sr17 2.915336 1_555
O61 Sr8 2.518913 1_555
O61 Sr22 2.725996 1_555
O61 Sr18 2.956951 1_555
O62 Sr9 2.558810 1_555
O62 Sr23 2.740009 1_555
O62 Sr19 2.936402 1_555
O63 Sr10 2.509461 1_555
O63 Sr20 3.018082 1_555
O64 Sr17 2.526186 1_555
O65 Sr18 2.460986 1_555
O65 Sr0 2.462028 1_555
O66 Sr19 2.514131 1_555
O67 Sr20 2.455340 1_555
O67 Sr1 2.464789 1_555
O68 Sr21 2.512594 1_555
O69 Sr22 2.450475 1_555
O69 Sr2 2.463438 1_555
O70 Sr23 2.529069 1_555
O71 Sr3 2.514584 1_555
O72 Sr11 2.437374 1_555
O72 Sr4 2.464521 1_555
O73 Sr5 2.459329 1_555
O73 Sr12 2.476365 1_555
O74 Sr6 2.496910 1_555
O75 Sr13 2.512953 1_555
O76 Sr7 2.501676 1_555
O77 Sr14 2.452989 1_555
O77 Sr8 2.455869 1_555
O78 Sr15 2.438041 1_555
O78 Sr9 2.463907 1_555
O79 Sr10 2.458276 1_555
O79 Sr16 2.468850 1_555
