# generated using pymatgen
data_KLiPH3O3F
_symmetry_space_group_name_H-M   'P 1'
_cell_length_a   7.94663800
_cell_length_b   5.53939600
_cell_length_c   13.20315002
_cell_angle_alpha   66.15144311
_cell_angle_beta   90.00000000
_cell_angle_gamma   90.00000000
_symmetry_Int_Tables_number   1
_chemical_formula_structural   KLiPH3O3F
_chemical_formula_sum   'K4 Li4 P4 H12 O12 F4'
_cell_volume   531.57290136
_cell_formula_units_Z   4
loop_
 _symmetry_equiv_pos_site_id
 _symmetry_equiv_pos_as_xyz
  1  'x, y, z'
loop_
 _atom_site_type_symbol
 _atom_site_label
 _atom_site_symmetry_multiplicity
 _atom_site_fract_x
 _atom_site_fract_y
 _atom_site_fract_z
 _atom_site_occupancy
  K  K0  1  0.26499400  0.35462000  0.85404900  1
  K  K1  1  0.73500600  0.64538000  0.14595100  1
  K  K2  1  0.76499400  0.64538000  0.64595100  1
  K  K3  1  0.23500600  0.35462000  0.35404900  1
  Li  Li0  1  0.05309000  0.19969400  0.61777600  1
  Li  Li1  1  0.94691000  0.80030600  0.38222400  1
  Li  Li2  1  0.55309000  0.80030600  0.88222400  1
  Li  Li3  1  0.44691000  0.19969400  0.11777600  1
  P  P0  1  0.20799400  0.73816500  0.55339600  1
  P  P1  1  0.79200600  0.26183500  0.44660400  1
  P  P2  1  0.70799400  0.26183500  0.94660400  1
  P  P3  1  0.29200600  0.73816500  0.05339600  1
  H  H0  1  0.08732000  0.81380300  0.80147200  1
  H  H1  1  0.91268000  0.18619700  0.19852800  1
  H  H2  1  0.58732000  0.18619700  0.69852800  1
  H  H3  1  0.41268000  0.81380300  0.30147200  1
  H  H4  1  0.89624400  0.00387100  0.82136700  1
  H  H5  1  0.10375600  0.99612900  0.17863300  1
  H  H6  1  0.39624400  0.99612900  0.67863300  1
  H  H7  1  0.60375600  0.00387100  0.32136700  1
  H  H8  1  0.98242600  0.92163400  0.81120100  1
  H  H9  1  0.01757400  0.07836600  0.18879900  1
  H  H10  1  0.48242600  0.07836600  0.68879900  1
  H  H11  1  0.51757400  0.92163400  0.31120100  1
  O  O0  1  0.32514700  0.76871100  0.93479200  1
  O  O1  1  0.67485300  0.23128900  0.06520800  1
  O  O2  1  0.82514700  0.23128900  0.56520800  1
  O  O3  1  0.17485300  0.76871100  0.43479200  1
  O  O4  1  0.12340600  0.49993700  0.64288300  1
  O  O5  1  0.87659400  0.50006300  0.35711700  1
  O  O6  1  0.62340600  0.50006300  0.85711700  1
  O  O7  1  0.37659400  0.49993700  0.14288300  1
  O  O8  1  0.18971800  0.99369200  0.56930700  1
  O  O9  1  0.81028200  0.00630800  0.43069300  1
  O  O10  1  0.68971800  0.00630800  0.93069300  1
  O  O11  1  0.31028200  0.99369200  0.06930700  1
  F  F0  1  0.40855800  0.67363900  0.57164900  1
  F  F1  1  0.59144200  0.32636100  0.42835100  1
  F  F2  1  0.90855800  0.32636100  0.92835100  1
  F  F3  1  0.09144200  0.67363900  0.07164900  1
loop_
_geom_bond_atom_site_label_1
_geom_bond_atom_site_label_2
_geom_bond_distance
_geom_bond_site_symmetry_2
K0 O11 2.758506 1_546
K0 O4 2.805773 1_555
K0 O0 2.933254 1_555
K0 O6 2.964659 1_555
K0 O0 3.016769 1_545
K1 O10 2.758506 1_564
K1 O5 2.805773 1_555
K1 O1 2.933254 1_555
K1 O7 2.964659 1_555
K1 O1 3.016769 1_565
K2 O9 2.758506 1_565
K2 O6 2.805773 1_555
K2 O2 2.933254 1_555
K2 O4 2.964659 1_655
K2 O2 3.016769 1_565
K3 O8 2.758506 1_545
K3 O7 2.805773 1_555
K3 O3 2.933254 1_555
K3 O5 2.964659 1_455
K3 O3 3.016769 1_545
Li0 O8 1.865752 1_545
Li0 O4 1.906321 1_555
Li0 O2 1.922297 1_455
Li1 O9 1.865752 1_565
Li1 O5 1.906321 1_555
Li1 O3 1.922297 1_655
Li2 O10 1.865752 1_565
Li2 O6 1.906321 1_555
Li2 O0 1.922297 1_555
Li3 O11 1.865752 1_545
Li3 O7 1.906321 1_555
Li3 O1 1.922297 1_555
H0 H8 1.063084 1_455
H0 K0 2.741793 1_555
H1 H9 1.063084 1_655
H1 K1 2.741793 1_555
H2 K2 2.741793 1_555
H3 K3 2.741793 1_555
H4 H8 0.862559 1_545
H5 H9 0.862559 1_565
H10 H6 0.862559 1_545
H10 H2 1.063084 1_555
H11 H7 0.862559 1_565
H11 H3 1.063084 1_555
O0 P3 1.528369 1_556
O1 P2 1.528369 1_554
O2 P1 1.528369 1_555
O3 P0 1.528369 1_555
O4 P0 1.525925 1_555
O5 P1 1.525925 1_555
O6 P2 1.525925 1_555
O7 P3 1.525925 1_555
O8 P0 1.519611 1_555
O9 P1 1.519611 1_555
O10 P2 1.519611 1_555
O11 P3 1.519611 1_555
F0 P0 1.629850 1_555
F0 K2 2.980872 1_555
F1 P1 1.629850 1_555
F1 K3 2.980872 1_555
F2 P2 1.629850 1_555
F2 K0 2.980872 1_655
F3 P3 1.629850 1_555
F3 K1 2.980872 1_455
