# generated using pymatgen
data_K3Tm(PO4)2
_symmetry_space_group_name_H-M   'P 1'
_cell_length_a   5.65178300
_cell_length_b   7.45266800
_cell_length_c   9.38546959
_cell_angle_alpha   89.00943952
_cell_angle_beta   90.00000000
_cell_angle_gamma   90.00000000
_symmetry_Int_Tables_number   1
_chemical_formula_structural   K3Tm(PO4)2
_chemical_formula_sum   'K6 Tm2 P4 O16'
_cell_volume   395.26499399
_cell_formula_units_Z   2
loop_
 _symmetry_equiv_pos_site_id
 _symmetry_equiv_pos_as_xyz
  1  'x, y, z'
loop_
 _atom_site_type_symbol
 _atom_site_label
 _atom_site_symmetry_multiplicity
 _atom_site_fract_x
 _atom_site_fract_y
 _atom_site_fract_z
 _atom_site_occupancy
  K  K0  1  0.25000000  0.20554700  0.91933400  1
  K  K1  1  0.75000000  0.79445300  0.08066600  1
  K  K2  1  0.25000000  0.63680000  0.58732500  1
  K  K3  1  0.75000000  0.36320000  0.41267500  1
  K  K4  1  0.25000000  0.49703900  0.19261700  1
  K  K5  1  0.75000000  0.50296100  0.80738300  1
  Tm  Tm0  1  0.25000000  0.99215700  0.28703900  1
  Tm  Tm1  1  0.75000000  0.00784300  0.71296100  1
  P  P0  1  0.25000000  0.18435400  0.57182000  1
  P  P1  1  0.75000000  0.81564600  0.42818000  1
  P  P2  1  0.75000000  0.22638100  0.09106600  1
  P  P3  1  0.25000000  0.77361900  0.90893400  1
  O  O0  1  0.25000000  0.98326800  0.53405700  1
  O  O1  1  0.75000000  0.01673200  0.46594300  1
  O  O2  1  0.25000000  0.28790900  0.42574600  1
  O  O3  1  0.75000000  0.71209100  0.57425400  1
  O  O4  1  0.02513400  0.23282200  0.66042800  1
  O  O5  1  0.52513400  0.76717800  0.33957200  1
  O  O6  1  0.97486600  0.76717800  0.33957200  1
  O  O7  1  0.47486600  0.23282200  0.66042800  1
  O  O8  1  0.97530600  0.14808500  0.16700700  1
  O  O9  1  0.47530600  0.85191500  0.83299300  1
  O  O10  1  0.02469400  0.85191500  0.83299300  1
  O  O11  1  0.52469400  0.14808500  0.16700700  1
  O  O12  1  0.75000000  0.16875700  0.93169400  1
  O  O13  1  0.25000000  0.83124300  0.06830600  1
  O  O14  1  0.75000000  0.43171400  0.10284500  1
  O  O15  1  0.25000000  0.56828600  0.89715500  1
loop_
_geom_bond_atom_site_label_1
_geom_bond_atom_site_label_2
_geom_bond_distance
_geom_bond_site_symmetry_2
K0 O15 2.707785 1_555
K0 O7 2.746651 1_555
K0 O4 2.746651 1_555
K0 O8 2.821824 1_456
K0 O11 2.821824 1_556
K0 O12 2.841337 1_555
K0 O12 2.841337 1_455
K0 O9 3.049242 1_545
K0 O10 3.049242 1_545
K0 O13 3.098660 1_546
K1 O14 2.707785 1_555
K1 O5 2.746651 1_555
K1 O6 2.746651 1_555
K1 O10 2.821824 1_654
K1 O9 2.821824 1_554
K1 O13 2.841337 1_655
K1 O13 2.841337 1_555
K1 O8 3.049242 1_565
K1 O11 3.049242 1_565
K1 O12 3.098660 1_564
K2 O0 2.621566 1_555
K2 O3 2.883260 1_455
K2 O3 2.883260 1_555
K2 O15 2.943683 1_555
K2 O5 2.948041 1_555
K2 O6 2.948041 1_455
K2 O2 3.032651 1_555
K2 O9 3.104157 1_555
K2 O10 3.104157 1_555
K2 O7 3.328497 1_555
K2 O4 3.328497 1_555
K3 O1 2.621566 1_555
K3 O2 2.883260 1_555
K3 O2 2.883260 1_655
K3 O14 2.943683 1_555
K3 O4 2.948041 1_655
K3 O7 2.948041 1_555
K3 O3 3.032651 1_555
K3 O8 3.104157 1_555
K3 O11 3.104157 1_555
K3 O5 3.328497 1_555
K3 O6 3.328497 1_555
K4 O2 2.664340 1_555
K4 O13 2.732105 1_555
K4 O15 2.814398 1_554
K4 O6 2.910246 1_455
K4 O5 2.910246 1_555
K4 O14 2.991113 1_455
K4 O14 2.991113 1_555
K4 O11 3.041874 1_555
K4 O8 3.041874 1_455
K5 O3 2.664340 1_555
K5 O12 2.732105 1_555
K5 O14 2.814398 1_556
K5 O4 2.910246 1_655
K5 O7 2.910246 1_555
K5 O15 2.991113 1_555
K5 O15 2.991113 1_655
K5 O10 3.041874 1_655
K5 O9 3.041874 1_555
O0 P0 1.545919 1_565
O0 Tm0 2.318181 1_555
O1 P1 1.545919 1_545
O1 Tm1 2.318181 1_555
O2 P0 1.561602 1_555
O2 Tm0 2.579188 1_545
O3 P1 1.561602 1_555
O3 Tm1 2.579188 1_565
O4 P0 1.564493 1_555
O4 Tm1 2.333202 1_455
O5 P1 1.564493 1_555
O5 Tm0 2.333202 1_555
O6 P1 1.564493 1_555
O6 Tm0 2.333202 1_655
O7 P0 1.564493 1_555
O7 Tm1 2.333202 1_555
O8 P2 1.567038 1_555
O8 Tm0 2.232618 1_645
O9 P3 1.567038 1_555
O9 Tm1 2.232618 1_565
O10 P3 1.567038 1_555
O10 Tm1 2.232618 1_465
O11 P2 1.567038 1_555
O11 Tm0 2.232618 1_545
O12 P2 1.563330 1_556
O12 Tm1 2.395359 1_555
O13 P3 1.563330 1_554
O13 Tm0 2.395359 1_555
O14 P2 1.536172 1_555
O15 P3 1.536172 1_555
