# generated using pymatgen
data_Be3V2(SiO4)3
_symmetry_space_group_name_H-M   'P 1'
_cell_length_a   7.55190800
_cell_length_b   8.05181200
_cell_length_c   15.93215832
_cell_angle_alpha   60.07668986
_cell_angle_beta   90.00000000
_cell_angle_gamma   90.00000000
_symmetry_Int_Tables_number   1
_chemical_formula_structural   Be3V2(SiO4)3
_chemical_formula_sum   'Be12 V8 Si12 O48'
_cell_volume   839.63523725
_cell_formula_units_Z   4
loop_
 _symmetry_equiv_pos_site_id
 _symmetry_equiv_pos_as_xyz
  1  'x, y, z'
loop_
 _atom_site_type_symbol
 _atom_site_label
 _atom_site_symmetry_multiplicity
 _atom_site_fract_x
 _atom_site_fract_y
 _atom_site_fract_z
 _atom_site_occupancy
  Be  Be0  1  0.85028700  0.80803200  0.76569600  1
  Be  Be1  1  0.65368400  0.16769100  0.40244700  1
  Be  Be2  1  0.15368400  0.83230900  0.09755300  1
  Be  Be3  1  0.34631600  0.83230900  0.59755300  1
  Be  Be4  1  0.84631600  0.16769100  0.90244700  1
  Be  Be5  1  0.14940300  0.46998400  0.41546100  1
  Be  Be6  1  0.64940300  0.53001600  0.08453900  1
  Be  Be7  1  0.85059700  0.53001600  0.58453900  1
  Be  Be8  1  0.35059700  0.46998400  0.91546100  1
  Be  Be9  1  0.64971300  0.80803200  0.26569600  1
  Be  Be10  1  0.14971300  0.19196800  0.23430400  1
  Be  Be11  1  0.35028700  0.19196800  0.73430400  1
  V  V0  1  0.45602800  0.16722100  0.09176700  1
  V  V1  1  0.04397200  0.16722100  0.59176700  1
  V  V2  1  0.54397200  0.83277900  0.90823300  1
  V  V3  1  0.95602800  0.83277900  0.40823300  1
  V  V4  1  0.56013700  0.82094900  0.42976100  1
  V  V5  1  0.06013700  0.17905100  0.07023900  1
  V  V6  1  0.43986300  0.17905100  0.57023900  1
  V  V7  1  0.93986300  0.82094900  0.92976100  1
  Si  Si0  1  0.22994800  0.80771400  0.76562200  1
  Si  Si1  1  0.72994800  0.19228600  0.73437800  1
  Si  Si2  1  0.77005200  0.19228600  0.23437800  1
  Si  Si3  1  0.27005200  0.80771400  0.26562200  1
  Si  Si4  1  0.73264300  0.46644500  0.91853500  1
  Si  Si5  1  0.23264300  0.53355500  0.58146500  1
  Si  Si6  1  0.26735700  0.53355500  0.08146500  1
  Si  Si7  1  0.76735700  0.46644500  0.41853500  1
  Si  Si8  1  0.23483400  0.15717200  0.90220800  1
  Si  Si9  1  0.73483400  0.84282800  0.59779200  1
  Si  Si10  1  0.76516600  0.84282800  0.09779200  1
  Si  Si11  1  0.26516600  0.15717200  0.40220800  1
  O  O0  1  0.12297200  0.71294400  0.03713000  1
  O  O1  1  0.04117400  0.78470600  0.82308800  1
  O  O2  1  0.54117400  0.21529400  0.67691200  1
  O  O3  1  0.95882600  0.21529400  0.17691200  1
  O  O4  1  0.45882600  0.78470600  0.32308800  1
  O  O5  1  0.53954500  0.35783300  0.95762600  1
  O  O6  1  0.03954500  0.64216700  0.54237400  1
  O  O7  1  0.46045500  0.64216700  0.04237400  1
  O  O8  1  0.96045500  0.35783300  0.45762600  1
  O  O9  1  0.03712900  0.08249000  0.89015700  1
  O  O10  1  0.53712900  0.91751000  0.60984300  1
  O  O11  1  0.96287100  0.91751000  0.10984300  1
  O  O12  1  0.12474800  0.06699000  0.35412800  1
  O  O13  1  0.62474800  0.93301000  0.14587200  1
  O  O14  1  0.87525200  0.93301000  0.64587200  1
  O  O15  1  0.37525200  0.06699000  0.85412800  1
  O  O16  1  0.62297200  0.28705600  0.46287000  1
  O  O17  1  0.46287100  0.08249000  0.39015700  1
  O  O18  1  0.37702800  0.71294400  0.53713000  1
  O  O19  1  0.87702800  0.28705600  0.96287000  1
  O  O20  1  0.76133300  0.94809200  0.47514600  1
  O  O21  1  0.62088600  0.28851900  0.14484900  1
  O  O22  1  0.87911400  0.28851900  0.64484900  1
  O  O23  1  0.37911400  0.71148100  0.85515100  1
  O  O24  1  0.73678400  0.26867200  0.80868500  1
  O  O25  1  0.23678400  0.73132800  0.69131500  1
  O  O26  1  0.26321600  0.73132800  0.19131500  1
  O  O27  1  0.76321600  0.26867200  0.30868500  1
  O  O28  1  0.74519000  0.62105400  0.80690600  1
  O  O29  1  0.24519000  0.37894600  0.69309400  1
  O  O30  1  0.25481000  0.37894600  0.19309400  1
  O  O31  1  0.75481000  0.62105400  0.30690600  1
  O  O32  1  0.24000100  0.37937300  0.86803600  1
  O  O33  1  0.74000100  0.62062700  0.63196400  1
  O  O34  1  0.75999900  0.62062700  0.13196400  1
  O  O35  1  0.25999900  0.37937300  0.36803600  1
  O  O36  1  0.74894500  0.94920000  0.80550700  1
  O  O37  1  0.24894500  0.05080000  0.69449300  1
  O  O38  1  0.25105500  0.05080000  0.19449300  1
  O  O39  1  0.75105500  0.94920000  0.30550700  1
  O  O40  1  0.75177300  0.59955200  0.97404900  1
  O  O41  1  0.25177300  0.40044800  0.52595100  1
  O  O42  1  0.24822700  0.40044800  0.02595100  1
  O  O43  1  0.74822700  0.59955200  0.47404900  1
  O  O44  1  0.73866700  0.94809200  0.97514600  1
  O  O45  1  0.23866700  0.05190800  0.52485400  1
  O  O46  1  0.26133300  0.05190800  0.02485400  1
  O  O47  1  0.12088600  0.71148100  0.35515100  1
loop_
_geom_bond_atom_site_label_1
_geom_bond_atom_site_label_2
_geom_bond_distance
_geom_bond_site_symmetry_2
Be0 O28 1.530164 1_555
Be0 O14 1.666148 1_555
Be0 O1 1.666771 1_655
Be0 O36 1.731849 1_555
Be1 O27 1.537876 1_555
Be1 O17 1.649082 1_555
Be1 O16 1.681465 1_555
Be1 O20 1.756597 1_545
Be2 O26 1.537876 1_555
Be2 O11 1.649082 1_455
Be2 O0 1.681465 1_555
Be2 O46 1.756597 1_565
Be3 O25 1.537876 1_555
Be3 O10 1.649082 1_555
Be3 O18 1.681465 1_555
Be3 O45 1.756597 1_565
Be4 O24 1.537876 1_555
Be4 O9 1.649082 1_655
Be4 O19 1.681465 1_555
Be4 O44 1.756597 1_545
Be5 O35 1.533217 1_555
Be5 O8 1.642438 1_455
Be5 O47 1.699005 1_555
Be5 O41 1.739724 1_555
Be6 O34 1.533217 1_555
Be6 O7 1.642438 1_555
Be6 O21 1.699005 1_555
Be6 O40 1.739724 1_554
Be7 O33 1.533217 1_555
Be7 O6 1.642438 1_655
Be7 O22 1.699005 1_555
Be7 O43 1.739724 1_555
Be8 O32 1.533217 1_555
Be8 O5 1.642438 1_555
Be8 O23 1.699005 1_555
Be8 O42 1.739724 1_556
Be9 O31 1.530164 1_555
Be9 O13 1.666148 1_555
Be9 O4 1.666771 1_555
Be9 O39 1.731849 1_555
Be10 O30 1.530164 1_555
Be10 O12 1.666148 1_555
Be10 O3 1.666771 1_455
Be10 O38 1.731849 1_555
Be11 O29 1.530164 1_555
Be11 O15 1.666148 1_555
Be11 O2 1.666771 1_555
Be11 O37 1.731849 1_555
O0 Si6 1.660206 1_555
O0 V7 2.027441 1_454
O1 Si0 1.653993 1_555
O1 V7 2.013390 1_455
O2 Si1 1.653993 1_555
O2 V6 2.013390 1_555
O3 Si2 1.653993 1_555
O3 V5 2.013390 1_655
O4 Si3 1.653993 1_555
O4 V4 2.013390 1_555
O5 Si4 1.654025 1_555
O5 V0 2.012043 1_556
O6 Si5 1.654025 1_555
O6 V3 2.012043 1_455
O7 Si6 1.654025 1_555
O7 V2 2.012043 1_554
O8 Si7 1.654025 1_555
O8 V1 2.012043 1_655
O9 Si8 1.656152 1_555
O9 V7 2.011649 1_445
O10 Si9 1.656152 1_555
O10 V6 2.011649 1_565
O11 Si10 1.656152 1_555
O11 V5 2.011649 1_665
O12 Si11 1.671372 1_555
O12 V3 2.073895 1_445
O13 Si10 1.671372 1_555
O13 V0 2.073895 1_565
O14 Si9 1.671372 1_555
O14 V1 2.073895 1_665
O15 Si8 1.671372 1_555
O15 V2 2.073895 1_545
O16 Si7 1.660206 1_555
O16 V6 2.027441 1_555
O17 Si11 1.656152 1_555
O17 V4 2.011649 1_545
O18 Si5 1.660206 1_555
O18 V4 2.027441 1_555
O19 Si4 1.660206 1_555
O19 V5 2.027441 1_656
O20 Si9 1.710051 1_555
O20 V4 2.148957 1_555
O20 V3 2.268907 1_555
O21 Si2 1.673703 1_555
O21 V0 2.010766 1_555
O22 Si1 1.673703 1_555
O22 V1 2.010766 1_655
O23 Si0 1.673703 1_555
O23 V2 2.010766 1_555
O24 Si1 1.583964 1_555
O25 Si0 1.583964 1_555
O26 Si3 1.583964 1_555
O27 Si2 1.583964 1_555
O28 Si4 1.585201 1_555
O29 Si5 1.585201 1_555
O30 Si6 1.585201 1_555
O31 Si7 1.585201 1_555
O32 Si8 1.589681 1_555
O33 Si9 1.589681 1_555
O34 Si10 1.589681 1_555
O35 Si11 1.589681 1_555
O36 Si1 1.709632 1_565
O36 V2 2.103047 1_555
O36 V7 2.241554 1_555
O37 Si0 1.709632 1_545
O37 V1 2.103047 1_555
O37 V6 2.241554 1_555
O38 Si3 1.709632 1_545
O38 V0 2.103047 1_555
O38 V5 2.241554 1_555
O39 Si2 1.709632 1_565
O39 V3 2.103047 1_555
O39 V4 2.241554 1_555
O40 Si4 1.702208 1_555
O40 V7 2.106757 1_555
O40 V2 2.263659 1_555
O41 Si5 1.702208 1_555
O41 V6 2.106757 1_555
O41 V1 2.263659 1_555
O42 Si6 1.702208 1_555
O42 V5 2.106757 1_555
O42 V0 2.263659 1_555
O43 Si7 1.702208 1_555
O43 V4 2.106757 1_555
O43 V3 2.263659 1_555
O44 Si10 1.710051 1_556
O44 V7 2.148957 1_555
O44 V2 2.268907 1_555
O45 Si11 1.710051 1_555
O45 V6 2.148957 1_555
O45 V1 2.268907 1_555
O46 Si8 1.710051 1_554
O46 V5 2.148957 1_555
O46 V0 2.268907 1_555
O47 Si3 1.673703 1_555
O47 V3 2.010766 1_455
