# generated using pymatgen
data_Li3RhN2
_symmetry_space_group_name_H-M   'P 1'
_cell_length_a   6.58302947
_cell_length_b   7.52734100
_cell_length_c   8.09997597
_cell_angle_alpha   90.00000000
_cell_angle_beta   120.29053249
_cell_angle_gamma   90.00000000
_symmetry_Int_Tables_number   1
_chemical_formula_structural   Li3RhN2
_chemical_formula_sum   'Li12 Rh4 N8'
_cell_volume   346.57948575
_cell_formula_units_Z   4
loop_
 _symmetry_equiv_pos_site_id
 _symmetry_equiv_pos_as_xyz
  1  'x, y, z'
loop_
 _atom_site_type_symbol
 _atom_site_label
 _atom_site_symmetry_multiplicity
 _atom_site_fract_x
 _atom_site_fract_y
 _atom_site_fract_z
 _atom_site_occupancy
  Li  Li0  1  0.20413900  0.02655300  0.03817500  1
  Li  Li1  1  0.79586100  0.52655300  0.46182500  1
  Li  Li2  1  0.79586100  0.97344700  0.96182500  1
  Li  Li3  1  0.20413900  0.47344700  0.53817500  1
  Li  Li4  1  0.99098000  0.34143000  0.81321200  1
  Li  Li5  1  0.00902000  0.84143000  0.68678800  1
  Li  Li6  1  0.00902000  0.65857000  0.18678800  1
  Li  Li7  1  0.99098000  0.15857000  0.31321200  1
  Li  Li8  1  0.65053400  0.32882200  0.91583900  1
  Li  Li9  1  0.34946600  0.82882200  0.58416100  1
  Li  Li10  1  0.34946600  0.67117800  0.08416100  1
  Li  Li11  1  0.65053400  0.17117800  0.41583900  1
  Rh  Rh0  1  0.22116500  0.15220900  0.70098000  1
  Rh  Rh1  1  0.77883500  0.65220900  0.79902000  1
  Rh  Rh2  1  0.77883500  0.84779100  0.29902000  1
  Rh  Rh3  1  0.22116500  0.34779100  0.20098000  1
  N  N0  1  0.03366200  0.79166600  0.96407100  1
  N  N1  1  0.96633800  0.29166600  0.53592900  1
  N  N2  1  0.96633800  0.20833400  0.03592900  1
  N  N3  1  0.03366200  0.70833400  0.46407100  1
  N  N4  1  0.55306900  0.52944500  0.58069800  1
  N  N5  1  0.44693100  0.02944500  0.91930200  1
  N  N6  1  0.44693100  0.47055500  0.41930200  1
  N  N7  1  0.55306900  0.97055500  0.08069800  1
loop_
_geom_bond_atom_site_label_1
_geom_bond_atom_site_label_2
_geom_bond_distance
_geom_bond_site_symmetry_2
Li0 N0 2.016507 1_544
Li0 N2 2.072332 1_455
Li0 N7 2.185059 1_545
Li0 N5 2.243798 1_554
Li1 N1 2.016507 1_555
Li1 N3 2.072332 1_655
Li1 N6 2.185059 1_555
Li1 N4 2.243798 1_555
Li2 N2 2.016507 1_566
Li2 N0 2.072332 1_655
Li2 N5 2.185059 1_565
Li2 N7 2.243798 1_556
Li3 N3 2.016507 1_555
Li3 N1 2.072332 1_455
Li3 N4 2.185059 1_555
Li3 N6 2.243798 1_555
Li4 N2 2.140017 1_556
Li4 N1 2.200806 1_555
Li5 N3 2.140017 1_555
Li5 N0 2.200806 1_555
Li6 N0 2.140017 1_554
Li6 N3 2.200806 1_555
Li7 N1 2.140017 1_555
Li7 N2 2.200806 1_555
Li8 N2 2.012660 1_556
Li8 N5 2.629354 1_555
Li9 N3 2.012660 1_555
Li9 N4 2.629354 1_555
Li10 N0 2.012660 1_554
Li10 N7 2.629354 1_555
Li11 N1 2.012660 1_555
Li11 N6 2.629354 1_555
N0 Rh1 1.854999 1_455
N1 Rh0 1.854999 1_655
N2 Rh3 1.854999 1_655
N3 Rh2 1.854999 1_455
N4 N6 1.213385 1_555
N4 Rh1 1.881158 1_555
N5 N7 1.213385 1_546
N5 Rh0 1.881158 1_555
N6 Rh3 1.881158 1_555
N7 Rh2 1.881158 1_555
