# generated using pymatgen
data_Sc4Mn4Si7
_symmetry_space_group_name_H-M   'P 1'
_cell_length_a   5.17605923
_cell_length_b   9.68084455
_cell_length_c   9.68039745
_cell_angle_alpha   85.90377405
_cell_angle_beta   74.49553953
_cell_angle_gamma   74.49632961
_symmetry_Int_Tables_number   1
_chemical_formula_structural   Sc4Mn4Si7
_chemical_formula_sum   'Sc8 Mn8 Si14'
_cell_volume   450.41164553
_cell_formula_units_Z   2
loop_
 _symmetry_equiv_pos_site_id
 _symmetry_equiv_pos_as_xyz
  1  'x, y, z'
loop_
 _atom_site_type_symbol
 _atom_site_label
 _atom_site_symmetry_multiplicity
 _atom_site_fract_x
 _atom_site_fract_y
 _atom_site_fract_z
 _atom_site_occupancy
  Sc  Sc0  1  0.19535862  0.80465924  0.80464396  1
  Sc  Sc1  1  0.80462832  0.19535149  0.19536701  1
  Sc  Sc2  1  0.00000602  0.19536204  0.80462463  1
  Sc  Sc3  1  0.99999285  0.80464292  0.19537003  1
  Sc  Sc4  1  0.36266490  -0.00001641  0.27469986  1
  Sc  Sc5  1  0.63733641  0.00001148  0.72529620  1
  Sc  Sc6  1  0.63732177  0.72532703  0.00001367  1
  Sc  Sc7  1  0.36268278  0.27466340  -0.00001510  1
  Mn  Mn0  1  0.39874363  0.49990753  0.20252543  1
  Mn  Mn1  1  0.60126129  0.50008645  0.79748148  1
  Mn  Mn2  1  0.10127320  0.50000626  0.79757048  1
  Mn  Mn3  1  0.60124442  0.79750732  0.50008922  1
  Mn  Mn4  1  0.89872986  0.49998621  0.20242478  1
  Mn  Mn5  1  0.39874920  0.20250557  0.49990629  1
  Mn  Mn6  1  0.89873441  0.20241832  0.49998722  1
  Mn  Mn7  1  0.10126673  0.79757883  0.50000945  1
  Si  Si0  1  0.41034477  0.58941210  0.58935404  1
  Si  Si1  1  0.58968280  0.41060121  0.41066904  1
  Si  Si2  1  0.00002850  0.41057781  0.58934552  1
  Si  Si3  1  0.99994296  0.58942331  0.41063578  1
  Si  Si4  1  0.24807714  -0.00001886  -0.00002066  1
  Si  Si5  1  0.75191889  0.00003073  0.00002806  1
  Si  Si6  1  0.20616661  0.29348756  0.29350818  1
  Si  Si7  1  0.79382169  0.70650994  0.70649148  1
  Si  Si8  1  0.49999987  0.70645780  0.29355835  1
  Si  Si9  1  0.50002135  0.29353419  0.70643913  1
  Si  Si10  1  0.20598354  0.00002605  0.58811211  1
  Si  Si11  1  0.79400955  -0.00002087  0.41188205  1
  Si  Si12  1  0.79401654  0.41185827  -0.00002198  1
  Si  Si13  1  0.20598838  0.58812409  0.00002427  1
loop_
_geom_bond_atom_site_label_1
_geom_bond_atom_site_label_2
_geom_bond_distance
_geom_bond_site_symmetry_2
Sc0 Si10 2.720552 1_565
Sc0 Si13 2.720673 1_556
Sc0 Si0 2.839853 1_555
Sc0 Si4 2.878888 1_566
Sc0 Si5 2.879619 1_466
Sc0 Si7 2.892362 1_455
Sc0 Si7 2.895369 1_555
Sc1 Si11 2.720470 1_555
Sc1 Si12 2.720530 1_555
Sc1 Si1 2.839950 1_555
Sc1 Si5 2.878884 1_555
Sc1 Si4 2.879651 1_655
Sc1 Si6 2.892239 1_655
Sc1 Si6 2.895347 1_555
Sc2 Si10 2.720163 1_555
Sc2 Si12 2.720173 1_456
Sc2 Si2 2.839639 1_555
Sc2 Si5 2.879464 1_456
Sc2 Si4 2.879487 1_556
Sc2 Si9 2.894004 1_455
Sc2 Si9 2.894083 1_555
Sc3 Si11 2.720161 1_565
Sc3 Si13 2.720282 1_655
Sc3 Si3 2.839576 1_555
Sc3 Si5 2.879436 1_565
Sc3 Si4 2.879446 1_665
Sc3 Si8 2.894049 1_555
Sc3 Si8 2.894131 1_655
Sc4 Si6 2.743591 1_555
Sc4 Si8 2.743831 1_545
Sc4 Si5 2.874987 1_555
Sc4 Si4 2.875328 1_555
Sc4 Si11 2.886762 1_555
Sc4 Si11 2.887460 1_455
Sc4 Si10 2.923548 1_555
Sc5 Si7 2.743566 1_545
Sc5 Si9 2.743801 1_555
Sc5 Si4 2.875061 1_556
Sc5 Si5 2.875443 1_556
Sc5 Si10 2.886789 1_555
Sc5 Si10 2.887448 1_655
Sc5 Si11 2.923566 1_555
Sc6 Si7 2.743629 1_554
Sc6 Si8 2.743877 1_555
Sc6 Si4 2.874939 1_565
Sc6 Si5 2.875317 1_565
Sc6 Si13 2.886856 1_555
Sc6 Si13 2.887593 1_655
Sc6 Si12 2.924222 1_555
Sc7 Si6 2.743644 1_555
Sc7 Si9 2.743888 1_554
Sc7 Si5 2.874776 1_555
Sc7 Si4 2.875123 1_555
Sc7 Si12 2.886815 1_555
Sc7 Si12 2.887568 1_455
Sc7 Si13 2.924147 1_555
Mn0 Si13 2.432788 1_555
Mn0 Si12 2.432849 1_555
Mn0 Si6 2.471166 1_555
Mn0 Si8 2.471540 1_555
Mn0 Si3 2.477978 1_455
Mn0 Si1 2.478523 1_555
Mn1 Si12 2.432769 1_556
Mn1 Si13 2.432802 1_556
Mn1 Si7 2.471165 1_555
Mn1 Si9 2.471556 1_555
Mn1 Si2 2.478027 1_655
Mn1 Si0 2.478356 1_555
Mn2 Si13 2.432357 1_556
Mn2 Si12 2.432564 1_456
Mn2 Si7 2.470616 1_455
Mn2 Si9 2.471117 1_555
Mn2 Si0 2.477538 1_555
Mn2 Si2 2.478664 1_555
Mn3 Si11 2.432603 1_565
Mn3 Si10 2.432661 1_565
Mn3 Si7 2.470982 1_555
Mn3 Si8 2.471357 1_555
Mn3 Si3 2.477496 1_555
Mn3 Si0 2.477983 1_555
Mn4 Si12 2.432337 1_555
Mn4 Si13 2.432482 1_655
Mn4 Si6 2.470567 1_655
Mn4 Si8 2.471069 1_555
Mn4 Si1 2.477544 1_555
Mn4 Si3 2.478497 1_555
Mn5 Si10 2.432669 1_555
Mn5 Si11 2.432707 1_555
Mn5 Si6 2.470932 1_555
Mn5 Si9 2.471354 1_555
Mn5 Si2 2.477460 1_555
Mn5 Si1 2.478030 1_555
Mn6 Si11 2.432260 1_555
Mn6 Si10 2.432410 1_655
Mn6 Si6 2.470312 1_655
Mn6 Si9 2.470813 1_555
Mn6 Si1 2.476954 1_555
Mn6 Si2 2.477977 1_655
Mn7 Si10 2.432295 1_565
Mn7 Si11 2.432491 1_465
Mn7 Si7 2.470363 1_455
Mn7 Si8 2.470872 1_555
Mn7 Si0 2.477048 1_555
Mn7 Si3 2.478092 1_455
Si0 Si1 2.358070 1_555
Si2 Si3 2.358513 1_455
Si4 Si5 2.567890 1_455
Si4 Si5 2.608169 1_555
