# generated using pymatgen
data_SmGa6
_symmetry_space_group_name_H-M   'P 1'
_cell_length_a   5.96033424
_cell_length_b   5.96033424
_cell_length_c   7.58028409
_cell_angle_alpha   90.00000000
_cell_angle_beta   90.00000000
_cell_angle_gamma   90.00000000
_symmetry_Int_Tables_number   1
_chemical_formula_structural   SmGa6
_chemical_formula_sum   'Sm2 Ga12'
_cell_volume   269.29402110
_cell_formula_units_Z   2
loop_
 _symmetry_equiv_pos_site_id
 _symmetry_equiv_pos_as_xyz
  1  'x, y, z'
loop_
 _atom_site_type_symbol
 _atom_site_label
 _atom_site_symmetry_multiplicity
 _atom_site_fract_x
 _atom_site_fract_y
 _atom_site_fract_z
 _atom_site_occupancy
  Sm  Sm0  1  0.75000000  0.25000000  0.00000000  1
  Sm  Sm1  1  0.25000000  0.75000000  0.00000000  1
  Ga  Ga0  1  0.75000000  0.75000000  0.16000380  1
  Ga  Ga1  1  0.25000000  0.25000000  0.16000380  1
  Ga  Ga2  1  0.25000000  0.25000000  0.83999620  1
  Ga  Ga3  1  0.75000000  0.75000000  0.83999620  1
  Ga  Ga4  1  0.05129232  0.94870768  0.34647344  1
  Ga  Ga5  1  0.55129232  0.05129232  0.34647344  1
  Ga  Ga6  1  0.94870768  0.44870768  0.34647344  1
  Ga  Ga7  1  0.44870768  0.55129232  0.34647344  1
  Ga  Ga8  1  0.94870768  0.05129232  0.65352656  1
  Ga  Ga9  1  0.44870768  0.94870768  0.65352656  1
  Ga  Ga10  1  0.05129232  0.55129232  0.65352656  1
  Ga  Ga11  1  0.55129232  0.44870768  0.65352656  1
loop_
_geom_bond_atom_site_label_1
_geom_bond_atom_site_label_2
_geom_bond_distance
_geom_bond_site_symmetry_2
Ga0 Ga3 2.425749 1_554
Ga0 Ga5 2.574022 1_565
Ga0 Ga4 2.574022 1_655
Ga0 Ga6 2.574022 1_555
Ga0 Ga7 2.574022 1_555
Ga0 Sm0 3.217524 1_565
Ga0 Sm0 3.217524 1_555
Ga0 Sm1 3.217524 1_655
Ga0 Sm1 3.217524 1_555
Ga1 Ga2 2.425749 1_554
Ga1 Ga5 2.574022 1_555
Ga1 Ga6 2.574022 1_455
Ga1 Ga4 2.574022 1_545
Ga1 Ga7 2.574022 1_555
Ga1 Sm0 3.217524 1_455
Ga1 Sm1 3.217524 1_555
Ga1 Sm1 3.217524 1_545
Ga1 Sm0 3.217524 1_555
Ga2 Ga8 2.574022 1_455
Ga2 Ga9 2.574022 1_545
Ga2 Sm1 3.217524 1_556
Ga2 Sm0 3.217524 1_456
Ga2 Sm1 3.217524 1_546
Ga2 Sm0 3.217524 1_556
Ga3 Ga9 2.574022 1_555
Ga3 Ga8 2.574022 1_565
Ga3 Sm1 3.217524 1_556
Ga3 Sm0 3.217524 1_566
Ga3 Sm1 3.217524 1_656
Ga3 Sm0 3.217524 1_556
Ga4 Ga8 2.482983 1_465
Ga4 Sm1 3.115003 1_555
Ga5 Ga9 2.482983 1_545
Ga5 Sm0 3.115003 1_555
Ga6 Sm0 3.115003 1_555
Ga7 Sm1 3.115003 1_555
Ga8 Sm0 3.115003 1_556
Ga9 Sm1 3.115003 1_556
Ga10 Ga6 2.482983 1_455
Ga10 Ga2 2.574022 1_555
Ga10 Ga3 2.574022 1_455
Ga10 Sm1 3.115003 1_556
Ga11 Ga7 2.482983 1_555
Ga11 Ga2 2.574022 1_555
Ga11 Ga3 2.574022 1_555
Ga11 Sm0 3.115003 1_556
