# generated using pymatgen
data_CuH4C10(N2F7)2
_symmetry_space_group_name_H-M   'P 1'
_cell_length_a   8.19402425
_cell_length_b   9.86695144
_cell_length_c   10.48170500
_cell_angle_alpha   90.00000000
_cell_angle_beta   90.00000000
_cell_angle_gamma   91.56562218
_symmetry_Int_Tables_number   1
_chemical_formula_structural   CuH4C10(N2F7)2
_chemical_formula_sum   'Cu2 H8 C20 N8 F28'
_cell_volume   847.12989997
_cell_formula_units_Z   2
loop_
 _symmetry_equiv_pos_site_id
 _symmetry_equiv_pos_as_xyz
  1  'x, y, z'
loop_
 _atom_site_type_symbol
 _atom_site_label
 _atom_site_symmetry_multiplicity
 _atom_site_fract_x
 _atom_site_fract_y
 _atom_site_fract_z
 _atom_site_occupancy
  Cu  Cu0  1  0.50000000  0.00000000  0.50000000  1
  Cu  Cu1  1  0.00000000  0.50000000  0.00000000  1
  H  H0  1  0.63134100  0.79738300  0.62903900  1
  H  H1  1  0.13134100  0.29738300  0.87096100  1
  H  H2  1  0.36865900  0.20261700  0.37096100  1
  H  H3  1  0.86865900  0.70261700  0.12903900  1
  H  H4  1  0.63577800  0.23089600  0.43940700  1
  H  H5  1  0.13577800  0.73089600  0.06059300  1
  H  H6  1  0.36422200  0.76910400  0.56059300  1
  H  H7  1  0.86422200  0.26910400  0.93940700  1
  C  C0  1  0.78072800  0.94660900  0.67290800  1
  C  C1  1  0.28072800  0.44660900  0.82709200  1
  C  C2  1  0.21927200  0.05339100  0.32709200  1
  C  C3  1  0.71927200  0.55339100  0.17290800  1
  C  C4  1  0.84055700  0.08035700  0.66139800  1
  C  C5  1  0.34055700  0.58035700  0.83860200  1
  C  C6  1  0.15944300  0.91964300  0.33860200  1
  C  C7  1  0.65944300  0.41964300  0.16139800  1
  C  C8  1  0.78234100  0.17450600  0.57433200  1
  C  C9  1  0.28234100  0.67450600  0.92566800  1
  C  C10  1  0.21765900  0.82549400  0.42566800  1
  C  C11  1  0.71765900  0.32549400  0.07433200  1
  C  C12  1  0.87755300  0.85182100  0.75850100  1
  C  C13  1  0.37755300  0.35182100  0.74149900  1
  C  C14  1  0.12244700  0.14817900  0.24149900  1
  C  C15  1  0.62244700  0.64817900  0.25850100  1
  C  C16  1  0.87746200  0.30939100  0.56095300  1
  C  C17  1  0.37746200  0.80939100  0.93904700  1
  C  C18  1  0.12253800  0.69060900  0.43904700  1
  C  C19  1  0.62253800  0.19060900  0.06095300  1
  N  N0  1  0.65028000  0.89882900  0.61258500  1
  N  N1  1  0.15028000  0.39882900  0.88741500  1
  N  N2  1  0.34972000  0.10117100  0.38741500  1
  N  N3  1  0.84972000  0.60117100  0.11258500  1
  N  N4  1  0.65256100  0.15308200  0.50143800  1
  N  N5  1  0.15256100  0.65308200  0.99856200  1
  N  N6  1  0.34743900  0.84691800  0.49856200  1
  N  N7  1  0.84743900  0.34691800  0.00143800  1
  F  F0  1  0.87844000  0.89424100  0.88213600  1
  F  F1  1  0.37844000  0.39424100  0.61786400  1
  F  F2  1  0.12156000  0.10575900  0.11786400  1
  F  F3  1  0.62156000  0.60575900  0.38213600  1
  F  F4  1  0.03586000  0.84552300  0.71904800  1
  F  F5  1  0.53586000  0.34552300  0.78095200  1
  F  F6  1  0.96414000  0.15447700  0.28095200  1
  F  F7  1  0.46414000  0.65447700  0.21904800  1
  F  F8  1  0.81367500  0.72305700  0.75734500  1
  F  F9  1  0.31367500  0.22305700  0.74265500  1
  F  F10  1  0.18632500  0.27694300  0.24265500  1
  F  F11  1  0.68632500  0.77694300  0.25734500  1
  F  F12  1  0.97166800  0.12004600  0.73643400  1
  F  F13  1  0.47166800  0.62004600  0.76356600  1
  F  F14  1  0.02833200  0.87995400  0.26356600  1
  F  F15  1  0.52833200  0.37995400  0.23643400  1
  F  F16  1  0.03854200  0.29100300  0.53643400  1
  F  F17  1  0.53854200  0.79100300  0.96356600  1
  F  F18  1  0.96145800  0.70899700  0.46356600  1
  F  F19  1  0.46145800  0.20899700  0.03643400  1
  F  F20  1  0.86691500  0.38629300  0.66840000  1
  F  F21  1  0.36691500  0.88629300  0.83160000  1
  F  F22  1  0.13308500  0.61370700  0.33160000  1
  F  F23  1  0.63308500  0.11370700  0.16840000  1
  F  F24  1  0.81802400  0.38397600  0.46293900  1
  F  F25  1  0.31802400  0.88397600  0.03706100  1
  F  F26  1  0.18197600  0.61602400  0.53706100  1
  F  F27  1  0.68197600  0.11602400  0.96293900  1
loop_
_geom_bond_atom_site_label_1
_geom_bond_atom_site_label_2
_geom_bond_distance
_geom_bond_site_symmetry_2
Cu0 N4 1.934228 1_555
Cu0 N6 1.934228 1_545
Cu0 N0 1.993140 1_545
Cu0 N2 1.993140 1_555
Cu1 N5 1.934228 1_554
Cu1 N7 1.934228 1_455
Cu1 N3 1.993140 1_455
Cu1 N1 1.993140 1_554
H0 N0 1.023360 1_555
H1 N1 1.023360 1_555
H2 N2 1.023360 1_555
H3 N3 1.023360 1_555
H4 N4 1.018296 1_555
H5 N5 1.018296 1_554
H6 N6 1.018296 1_555
H7 N7 1.018296 1_556
C0 N0 1.317970 1_555
C0 C4 1.400395 1_565
C0 C12 1.532851 1_555
C1 N1 1.317970 1_555
C1 C5 1.400395 1_555
C1 C13 1.532851 1_555
C2 N2 1.317970 1_555
C2 C6 1.400395 1_545
C3 N3 1.317970 1_555
C3 C7 1.400395 1_555
C4 F12 1.379542 1_555
C4 C8 1.395557 1_555
C5 F13 1.379542 1_555
C5 C9 1.395557 1_555
C6 F14 1.379542 1_555
C7 F15 1.379542 1_555
C8 N4 1.321757 1_555
C9 N5 1.321757 1_555
C10 N6 1.321757 1_555
C10 C6 1.395557 1_555
C10 C18 1.530290 1_555
C11 N7 1.321757 1_555
C11 C7 1.395557 1_555
C11 C19 1.530290 1_555
C12 F8 1.360869 1_555
C12 F0 1.361781 1_555
C12 F4 1.364526 1_655
C13 F9 1.360869 1_555
C13 F1 1.361781 1_555
C13 F5 1.364526 1_555
C14 F10 1.360869 1_555
C14 F2 1.361781 1_555
C14 F6 1.364526 1_455
C14 C2 1.532851 1_555
C15 F11 1.360869 1_555
C15 F3 1.361781 1_555
C15 F7 1.364526 1_555
C15 C3 1.532851 1_555
C16 F24 1.361556 1_555
C16 F16 1.361680 1_655
C16 F20 1.362058 1_555
C16 C8 1.530290 1_555
C17 F25 1.361556 1_556
C17 F17 1.361680 1_555
C17 F21 1.362058 1_555
C17 C9 1.530290 1_555
C18 F26 1.361556 1_555
C18 F18 1.361680 1_455
C18 F22 1.362058 1_555
C19 F27 1.361556 1_554
C19 F19 1.361680 1_555
C19 F23 1.362058 1_555
