# generated using pymatgen
data_YTc2
_symmetry_space_group_name_H-M   'P 1'
_cell_length_a   5.35184663
_cell_length_b   5.35185134
_cell_length_c   8.86967356
_cell_angle_alpha   90.00006886
_cell_angle_beta   90.00003944
_cell_angle_gamma   119.99807542
_symmetry_Int_Tables_number   1
_chemical_formula_structural   YTc2
_chemical_formula_sum   'Y4 Tc8'
_cell_volume   220.01606383
_cell_formula_units_Z   4
loop_
 _symmetry_equiv_pos_site_id
 _symmetry_equiv_pos_as_xyz
  1  'x, y, z'
loop_
 _atom_site_type_symbol
 _atom_site_label
 _atom_site_symmetry_multiplicity
 _atom_site_fract_x
 _atom_site_fract_y
 _atom_site_fract_z
 _atom_site_occupancy
  Y  Y0  1  0.66667189  0.33332811  0.56298115  1
  Y  Y1  1  0.33332866  0.66667134  0.43701567  1
  Y  Y2  1  0.33332869  0.66667131  0.06298058  1
  Y  Y3  1  0.66667187  0.33332813  0.93702252  1
  Tc  Tc0  1  -0.00000022  0.99999922  0.50001436  1
  Tc  Tc1  1  -0.00000023  0.99999923  0.99998560  1
  Tc  Tc2  1  0.17122860  0.34244119  0.75000120  1
  Tc  Tc3  1  0.17121787  0.82878313  0.75000115  1
  Tc  Tc4  1  0.65755881  0.82877140  0.75000120  1
  Tc  Tc5  1  0.82877742  0.65757057  0.24999879  1
  Tc  Tc6  1  0.82878822  0.17121278  0.24999899  1
  Tc  Tc7  1  0.34243043  0.17122158  0.24999879  1
loop_
_geom_bond_atom_site_label_1
_geom_bond_atom_site_label_2
_geom_bond_distance
_geom_bond_site_symmetry_2
Tc0 Tc3 2.726784 1_555
Tc0 Tc2 2.726830 1_565
Tc0 Tc4 2.726830 1_455
Tc0 Tc6 2.726965 1_465
Tc0 Tc5 2.727001 1_455
Tc0 Tc7 2.727010 1_565
Tc0 Y0 3.139885 1_465
Tc0 Y1 3.139935 1_555
Tc0 Y0 3.140041 1_455
Tc0 Y0 3.140041 1_565
Tc0 Y1 3.140087 1_455
Tc0 Y1 3.140096 1_565
Tc1 Tc3 2.726766 1_555
Tc1 Tc4 2.726809 1_455
Tc1 Tc2 2.726817 1_565
Tc1 Tc6 2.726950 1_466
Tc1 Tc5 2.726988 1_456
Tc1 Tc7 2.726989 1_566
Tc1 Y3 3.139879 1_465
Tc1 Y2 3.139930 1_556
Tc1 Y3 3.140033 1_455
Tc1 Y3 3.140037 1_565
Tc1 Y2 3.140083 1_456
Tc1 Y2 3.140088 1_566
Tc2 Tc4 2.602842 1_555
Tc2 Tc3 2.602858 1_555
Tc2 Tc3 2.748993 1_545
Tc2 Tc4 2.749163 1_445
Tc2 Y0 3.148648 1_555
Tc2 Y0 3.148650 1_455
Tc2 Y3 3.148652 1_555
Tc2 Y3 3.148658 1_455
Tc2 Y2 3.156685 1_556
Tc2 Y1 3.156737 1_555
Tc3 Tc4 2.602854 1_555
Tc3 Tc4 2.748993 1_455
Tc3 Y0 3.148714 1_455
Tc3 Y0 3.148715 1_565
Tc3 Y3 3.148716 1_565
Tc3 Y3 3.148726 1_455
Tc3 Y2 3.156650 1_556
Tc3 Y1 3.156696 1_555
Tc4 Y0 3.148647 1_555
Tc4 Y0 3.148655 1_565
Tc4 Y3 3.148656 1_555
Tc4 Y3 3.148657 1_565
Tc4 Y2 3.156688 1_556
Tc4 Y1 3.156732 1_555
Tc5 Tc7 2.602937 1_555
Tc5 Tc6 2.602943 1_555
Tc5 Tc6 2.748908 1_565
Tc5 Tc7 2.749068 1_665
Tc5 Y1 3.148629 1_555
Tc5 Y2 3.148633 1_555
Tc5 Y1 3.148637 1_655
Tc5 Y2 3.148646 1_655
Tc5 Y3 3.156688 1_554
Tc5 Y0 3.156740 1_555
Tc6 Tc7 2.602936 1_555
Tc6 Tc7 2.748911 1_655
Tc6 Y1 3.148693 1_655
Tc6 Y1 3.148703 1_545
Tc6 Y2 3.148706 1_545
Tc6 Y2 3.148707 1_655
Tc6 Y3 3.156647 1_554
Tc6 Y0 3.156691 1_555
Tc7 Y1 3.148635 1_545
Tc7 Y1 3.148635 1_555
Tc7 Y2 3.148638 1_545
Tc7 Y2 3.148645 1_555
Tc7 Y3 3.156689 1_554
Tc7 Y0 3.156733 1_555
