# generated using pymatgen
data_Er2PbS4
_symmetry_space_group_name_H-M   'P 1'
_cell_length_a   3.93825438
_cell_length_b   11.98412271
_cell_length_c   14.29661969
_cell_angle_alpha   90.00000000
_cell_angle_beta   90.00000000
_cell_angle_gamma   90.00000000
_symmetry_Int_Tables_number   1
_chemical_formula_structural   Er2PbS4
_chemical_formula_sum   'Er8 Pb4 S16'
_cell_volume   674.75075079
_cell_formula_units_Z   4
loop_
 _symmetry_equiv_pos_site_id
 _symmetry_equiv_pos_as_xyz
  1  'x, y, z'
loop_
 _atom_site_type_symbol
 _atom_site_label
 _atom_site_symmetry_multiplicity
 _atom_site_fract_x
 _atom_site_fract_y
 _atom_site_fract_z
 _atom_site_occupancy
  Er  Er0  1  0.25000000  0.44153453  0.39051421  1
  Er  Er1  1  0.25000000  0.94153453  0.10948579  1
  Er  Er2  1  0.75000000  0.55846547  0.60948579  1
  Er  Er3  1  0.75000000  0.05846547  0.89051421  1
  Er  Er4  1  0.25000000  0.41509134  0.89978431  1
  Er  Er5  1  0.25000000  0.91509134  0.60021569  1
  Er  Er6  1  0.75000000  0.58490866  0.10021569  1
  Er  Er7  1  0.75000000  0.08490866  0.39978431  1
  Pb  Pb0  1  0.25000000  0.77635681  0.33597322  1
  Pb  Pb1  1  0.25000000  0.27635681  0.16402678  1
  Pb  Pb2  1  0.75000000  0.22364319  0.66402678  1
  Pb  Pb3  1  0.75000000  0.72364319  0.83597322  1
  S  S0  1  0.25000000  0.20418401  0.83103162  1
  S  S1  1  0.25000000  0.70418401  0.66896838  1
  S  S2  1  0.75000000  0.79581599  0.16896838  1
  S  S3  1  0.75000000  0.29581599  0.33103162  1
  S  S4  1  0.25000000  0.12570515  0.52789091  1
  S  S5  1  0.25000000  0.62570515  0.97210909  1
  S  S6  1  0.75000000  0.87429485  0.47210909  1
  S  S7  1  0.75000000  0.37429485  0.02789091  1
  S  S8  1  0.25000000  0.01973121  0.28757067  1
  S  S9  1  0.25000000  0.51973121  0.21242933  1
  S  S10  1  0.75000000  0.98026879  0.71242933  1
  S  S11  1  0.75000000  0.48026879  0.78757067  1
  S  S12  1  0.25000000  0.41098745  0.57581198  1
  S  S13  1  0.25000000  0.91098745  0.92418802  1
  S  S14  1  0.75000000  0.58901255  0.42418802  1
  S  S15  1  0.75000000  0.08901255  0.07581198  1
loop_
_geom_bond_atom_site_label_1
_geom_bond_atom_site_label_2
_geom_bond_distance
_geom_bond_site_symmetry_2
Er0 S12 2.674306 1_555
Er0 S14 2.689407 1_455
Er0 S14 2.689407 1_555
Er0 S9 2.713000 1_555
Er0 S3 2.765906 1_455
Er0 S3 2.765906 1_555
Er1 S13 2.674306 1_554
Er1 S15 2.689407 1_465
Er1 S15 2.689407 1_565
Er1 S8 2.713000 1_565
Er1 S2 2.765906 1_455
Er1 S2 2.765906 1_555
Er2 S14 2.674306 1_555
Er2 S12 2.689407 1_655
Er2 S12 2.689407 1_555
Er2 S11 2.713000 1_555
Er2 S1 2.765906 1_655
Er2 S1 2.765906 1_555
Er3 S15 2.674306 1_556
Er3 S13 2.689407 1_645
Er3 S13 2.689407 1_545
Er3 S10 2.713000 1_545
Er3 S0 2.765906 1_555
Er3 S0 2.765906 1_655
Er4 S11 2.657305 1_455
Er4 S11 2.657305 1_555
Er4 S0 2.711938 1_555
Er4 S5 2.727607 1_555
Er4 S7 2.733287 1_456
Er4 S7 2.733287 1_556
Er5 S10 2.657305 1_555
Er5 S10 2.657305 1_455
Er5 S1 2.711938 1_555
Er5 S4 2.727607 1_565
Er5 S6 2.733287 1_555
Er5 S6 2.733287 1_455
Er6 S9 2.657305 1_555
Er6 S9 2.657305 1_655
Er6 S2 2.711938 1_555
Er6 S7 2.727607 1_555
Er6 S5 2.733287 1_654
Er6 S5 2.733287 1_554
Er7 S8 2.657305 1_655
Er7 S8 2.657305 1_555
Er7 S3 2.711938 1_555
Er7 S6 2.727607 1_545
Er7 S4 2.733287 1_555
Er7 S4 2.733287 1_655
Pb0 S8 2.997595 1_565
Pb0 S6 3.007167 1_455
Pb0 S6 3.007167 1_555
Pb0 S2 3.103627 1_455
Pb0 S2 3.103627 1_555
Pb0 S14 3.241720 1_455
Pb0 S14 3.241720 1_555
Pb1 S9 2.997595 1_555
Pb1 S7 3.007167 1_455
Pb1 S7 3.007167 1_555
Pb1 S3 3.103627 1_455
Pb1 S3 3.103627 1_555
Pb1 S15 3.241720 1_455
Pb1 S15 3.241720 1_555
Pb2 S10 2.997595 1_545
Pb2 S4 3.007167 1_555
Pb2 S4 3.007167 1_655
Pb2 S0 3.103627 1_555
Pb2 S0 3.103627 1_655
Pb2 S12 3.241720 1_655
Pb2 S12 3.241720 1_555
Pb3 S11 2.997595 1_555
Pb3 S5 3.007167 1_555
Pb3 S5 3.007167 1_655
Pb3 S1 3.103627 1_555
Pb3 S1 3.103627 1_655
Pb3 S13 3.241720 1_555
Pb3 S13 3.241720 1_655
