# generated using pymatgen
data_Li2MgCo3O8
_symmetry_space_group_name_H-M   'P 1'
_cell_length_a   5.73466714
_cell_length_b   8.26488564
_cell_length_c   5.85543187
_cell_angle_alpha   92.25281165
_cell_angle_beta   90.86380454
_cell_angle_gamma   89.45515696
_symmetry_Int_Tables_number   1
_chemical_formula_structural   Li2MgCo3O8
_chemical_formula_sum   'Li4 Mg2 Co6 O16'
_cell_volume   277.26914938
_cell_formula_units_Z   2
loop_
 _symmetry_equiv_pos_site_id
 _symmetry_equiv_pos_as_xyz
  1  'x, y, z'
loop_
 _atom_site_type_symbol
 _atom_site_label
 _atom_site_symmetry_multiplicity
 _atom_site_fract_x
 _atom_site_fract_y
 _atom_site_fract_z
 _atom_site_occupancy
  Li  Li0  1  0.75013400  0.74952600  0.24982000  1
  Li  Li1  1  0.24976200  0.25046100  0.75013900  1
  Li  Li2  1  0.49995000  0.99995700  0.50002100  1
  Li  Li3  1  0.00006900  0.50003900  0.99999300  1
  Mg  Mg0  1  0.00002200  0.00000700  0.99997600  1
  Mg  Mg1  1  0.49999100  0.50000400  0.50002500  1
  Co  Co0  1  0.25008000  0.25014200  0.24993900  1
  Co  Co1  1  0.74992600  0.74986300  0.75007000  1
  Co  Co2  1  0.50000500  0.00000700  0.00000700  1
  Co  Co3  1  0.75009800  0.25010100  0.24990000  1
  Co  Co4  1  0.24991100  0.74989400  0.75011400  1
  Co  Co5  1  0.00001100  0.50001000  0.50000300  1
  O  O0  1  0.00563900  0.26683400  0.47192500  1
  O  O1  1  0.50572000  0.76680500  0.97207200  1
  O  O2  1  0.49427300  0.23318100  0.02791500  1
  O  O3  1  0.99436400  0.73317100  0.52808900  1
  O  O4  1  0.77237700  0.52391500  0.72349200  1
  O  O5  1  0.27176900  0.02415200  0.22406300  1
  O  O6  1  0.72824500  0.97583200  0.77595000  1
  O  O7  1  0.22763200  0.47609700  0.27651900  1
  O  O8  1  0.23372100  0.51984400  0.72650600  1
  O  O9  1  0.73314100  0.01986700  0.22583100  1
  O  O10  1  0.99944000  0.75365200  0.95992900  1
  O  O11  1  0.49969700  0.25368200  0.45965600  1
  O  O12  1  0.50029900  0.74631800  0.54032900  1
  O  O13  1  0.00057100  0.24635500  0.04007500  1
  O  O14  1  0.26688100  0.98012400  0.77414200  1
  O  O15  1  0.76627200  0.48015700  0.27350300  1
loop_
_geom_bond_atom_site_label_1
_geom_bond_atom_site_label_2
_geom_bond_distance
_geom_bond_site_symmetry_2
Li0 O1 2.139078 1_554
Li0 O3 2.140022 1_555
Li0 O15 2.237005 1_555
Li0 O10 2.237210 1_554
Li0 O12 2.241592 1_555
Li0 O9 2.245353 1_565
Li1 O0 2.139398 1_555
Li1 O2 2.139560 1_556
Li1 O13 2.236975 1_556
Li1 O8 2.237074 1_555
Li1 O11 2.241853 1_555
Li1 O14 2.245353 1_545
Li2 O5 2.078443 1_565
Li2 O6 2.078646 1_555
Li2 O14 2.116405 1_555
Li2 O9 2.117239 1_565
Li2 O12 2.118720 1_555
Li2 O11 2.119483 1_565
Li3 O7 2.078577 1_556
Li3 O4 2.078854 1_455
Li3 O8 2.115674 1_555
Li3 O15 2.116387 1_456
Li3 O10 2.118277 1_455
Li3 O13 2.118883 1_556
Mg0 O6 2.028155 1_445
Mg0 O5 2.028230 1_556
Mg0 O14 2.038809 1_545
Mg0 O9 2.038976 1_456
Mg0 O13 2.040369 1_556
Mg0 O10 2.040405 1_445
Mg1 O4 2.028573 1_555
Mg1 O7 2.028596 1_555
Mg1 O8 2.038720 1_555
Mg1 O15 2.038929 1_555
Mg1 O12 2.040169 1_555
Mg1 O11 2.040263 1_555
Co0 O5 1.871079 1_555
Co0 O7 1.871231 1_555
Co0 O11 1.871598 1_555
Co0 O13 1.871680 1_555
Co0 O2 1.925520 1_555
Co0 O0 1.926330 1_555
Co1 O6 1.870905 1_555
Co1 O4 1.871174 1_555
Co1 O10 1.871683 1_555
Co1 O12 1.871732 1_555
Co1 O1 1.925480 1_555
Co1 O3 1.926297 1_555
Co2 O9 1.869939 1_555
Co2 O14 1.870070 1_544
Co2 O5 1.870923 1_555
Co2 O6 1.870962 1_544
Co2 O2 1.927671 1_555
Co2 O1 1.927908 1_544
Co3 O11 1.902864 1_555
Co3 O13 1.903422 1_655
Co3 O15 1.904018 1_555
Co3 O9 1.905835 1_555
Co3 O0 1.946551 1_655
Co3 O2 1.947690 1_555
Co4 O12 1.902919 1_555
Co4 O10 1.903373 1_455
Co4 O8 1.903974 1_555
Co4 O14 1.905799 1_555
Co4 O3 1.946572 1_455
Co4 O1 1.947514 1_555
Co5 O7 1.865914 1_555
Co5 O4 1.865983 1_455
Co5 O8 1.875001 1_555
Co5 O15 1.875117 1_455
Co5 O3 1.927608 1_455
Co5 O0 1.927728 1_555
