# generated using pymatgen
data_TiRe(PO4)3
_symmetry_space_group_name_H-M   'P 1'
_cell_length_a   8.81873440
_cell_length_b   8.81873420
_cell_length_c   8.81873457
_cell_angle_alpha   59.00998105
_cell_angle_beta   59.00998498
_cell_angle_gamma   59.00998571
_symmetry_Int_Tables_number   1
_chemical_formula_structural   TiRe(PO4)3
_chemical_formula_sum   'Ti2 Re2 P6 O24'
_cell_volume   474.00659229
_cell_formula_units_Z   2
loop_
 _symmetry_equiv_pos_site_id
 _symmetry_equiv_pos_as_xyz
  1  'x, y, z'
loop_
 _atom_site_type_symbol
 _atom_site_label
 _atom_site_symmetry_multiplicity
 _atom_site_fract_x
 _atom_site_fract_y
 _atom_site_fract_z
 _atom_site_occupancy
  Ti  Ti0  1  0.13867000  0.13867000  0.13867000  1
  Ti  Ti1  1  0.63867000  0.63867000  0.63867000  1
  Re  Re0  1  0.35869900  0.35869900  0.35869900  1
  Re  Re1  1  0.85869900  0.85869900  0.85869900  1
  P  P0  1  0.03330500  0.46781900  0.74632400  1
  P  P1  1  0.46781900  0.74632400  0.03330500  1
  P  P2  1  0.74632400  0.03330500  0.46781900  1
  P  P3  1  0.24632500  0.96781900  0.53330500  1
  P  P4  1  0.53330500  0.24632500  0.96781900  1
  P  P5  1  0.96781900  0.53330500  0.24632500  1
  O  O0  1  0.13903700  0.50835100  0.27712300  1
  O  O1  1  0.27712300  0.13903700  0.50835100  1
  O  O2  1  0.06371300  0.28970400  0.91651500  1
  O  O3  1  0.50835100  0.27712300  0.13903700  1
  O  O4  1  0.00835100  0.63903700  0.77712300  1
  O  O5  1  0.21632100  0.44556700  0.57350400  1
  O  O6  1  0.28970400  0.91651500  0.06371300  1
  O  O7  1  0.44556700  0.57350400  0.21632100  1
  O  O8  1  0.20667400  0.00374600  0.36667200  1
  O  O9  1  0.57350400  0.21632100  0.44556700  1
  O  O10  1  0.07350400  0.94556700  0.71632100  1
  O  O11  1  0.36667200  0.20667400  0.00374600  1
  O  O12  1  0.63903700  0.77712300  0.00835100  1
  O  O13  1  0.91651500  0.06371300  0.28970400  1
  O  O14  1  0.41651500  0.78970400  0.56371300  1
  O  O15  1  0.77712300  0.00835100  0.63903700  1
  O  O16  1  0.56371300  0.41651500  0.78970400  1
  O  O17  1  0.71632100  0.07350400  0.94556700  1
  O  O18  1  0.78970400  0.56371300  0.41651500  1
  O  O19  1  0.00374600  0.36667200  0.20667400  1
  O  O20  1  0.50374600  0.70667400  0.86667200  1
  O  O21  1  0.94556700  0.71632100  0.07350400  1
  O  O22  1  0.70667400  0.86667200  0.50374600  1
  O  O23  1  0.86667200  0.50374600  0.70667400  1
loop_
_geom_bond_atom_site_label_1
_geom_bond_atom_site_label_2
_geom_bond_distance
_geom_bond_site_symmetry_2
O0 P5 1.555846 1_455
O0 Re0 1.958697 1_555
O1 P3 1.555846 1_545
O1 Re0 1.958697 1_555
O2 P0 1.531269 1_555
O2 Ti0 1.946532 1_556
O3 P4 1.555846 1_554
O3 Re0 1.958697 1_555
O4 P0 1.555851 1_555
O4 Re1 1.958697 1_455
O5 P0 1.554012 1_555
O5 Re0 1.950984 1_555
O6 P1 1.531269 1_555
O6 Ti0 1.946532 1_565
O7 P1 1.554012 1_555
O7 Re0 1.950983 1_555
O8 P3 1.522390 1_545
O8 Ti0 1.965077 1_555
O9 P2 1.554012 1_555
O9 Re0 1.950984 1_555
O10 P3 1.554017 1_555
O10 Re1 1.950984 1_455
O11 P4 1.522390 1_554
O11 Ti0 1.965077 1_555
O12 P1 1.555851 1_555
O12 Re1 1.958697 1_554
O13 P2 1.531269 1_555
O13 Ti0 1.946532 1_655
O14 P3 1.531264 1_555
O14 Ti1 1.946532 1_555
O15 P2 1.555851 1_555
O15 Re1 1.958697 1_545
O16 P4 1.531264 1_555
O16 Ti1 1.946531 1_555
O17 P4 1.554017 1_555
O17 Re1 1.950984 1_545
O18 P5 1.531264 1_555
O18 Ti1 1.946532 1_555
O19 P5 1.522390 1_455
O19 Ti0 1.965077 1_555
O20 P1 1.522384 1_556
O20 Ti1 1.965077 1_555
O21 P5 1.554016 1_555
O21 Re1 1.950984 1_554
O22 P2 1.522384 1_565
O22 Ti1 1.965077 1_555
O23 P0 1.522384 1_655
O23 Ti1 1.965077 1_555
