# generated using pymatgen
data_Yb3Ni19B10
_symmetry_space_group_name_H-M   'P 1'
_cell_length_a   7.85192560
_cell_length_b   7.85192560
_cell_length_c   5.71273341
_cell_angle_alpha   88.67659598
_cell_angle_beta   88.67659598
_cell_angle_gamma   67.42708394
_symmetry_Int_Tables_number   1
_chemical_formula_structural   Yb3Ni19B10
_chemical_formula_sum   'Yb3 Ni19 B10'
_cell_volume   325.09841037
_cell_formula_units_Z   1
loop_
 _symmetry_equiv_pos_site_id
 _symmetry_equiv_pos_as_xyz
  1  'x, y, z'
loop_
 _atom_site_type_symbol
 _atom_site_label
 _atom_site_symmetry_multiplicity
 _atom_site_fract_x
 _atom_site_fract_y
 _atom_site_fract_z
 _atom_site_occupancy
  Yb  Yb0  1  0.62472500  0.62472500  0.60892900  1
  Yb  Yb1  1  0.37527500  0.37527500  0.39107100  1
  Yb  Yb2  1  0.00000000  0.00000000  0.00000000  1
  Ni  Ni0  1  0.62212500  0.62212500  0.12402600  1
  Ni  Ni1  1  0.37787500  0.37787500  0.87597400  1
  Ni  Ni2  1  0.83564900  0.83564900  0.70487600  1
  Ni  Ni3  1  0.16435100  0.16435100  0.29512400  1
  Ni  Ni4  1  0.81894300  0.81894300  0.26906000  1
  Ni  Ni5  1  0.18105700  0.18105700  0.73094000  1
  Ni  Ni6  1  0.00000000  0.00000000  0.50000000  1
  Ni  Ni7  1  0.62181000  0.12320100  0.07663000  1
  Ni  Ni8  1  0.37819000  0.87679900  0.92337000  1
  Ni  Ni9  1  0.87679900  0.37819000  0.92337000  1
  Ni  Ni10  1  0.12320100  0.62181000  0.07663000  1
  Ni  Ni11  1  0.28648100  0.77289300  0.29999800  1
  Ni  Ni12  1  0.71351900  0.22710700  0.70000200  1
  Ni  Ni13  1  0.22710700  0.71351900  0.70000200  1
  Ni  Ni14  1  0.77289300  0.28648100  0.29999800  1
  Ni  Ni15  1  0.48292200  0.95455400  0.30197100  1
  Ni  Ni16  1  0.51707800  0.04544600  0.69802900  1
  Ni  Ni17  1  0.04544600  0.51707800  0.69802900  1
  Ni  Ni18  1  0.95455400  0.48292200  0.30197100  1
  B  B0  1  0.70081900  0.06449500  0.43062300  1
  B  B1  1  0.29918100  0.93550500  0.56937700  1
  B  B2  1  0.93550500  0.29918100  0.56937700  1
  B  B3  1  0.06449500  0.70081900  0.43062300  1
  B  B4  1  0.35005100  0.14084400  0.02572200  1
  B  B5  1  0.64994900  0.85915600  0.97427800  1
  B  B6  1  0.85915600  0.64994900  0.97427800  1
  B  B7  1  0.14084400  0.35005100  0.02572200  1
  B  B8  1  0.61553800  0.38446200  0.00000000  1
  B  B9  1  0.38446200  0.61553800  0.00000000  1
loop_
_geom_bond_atom_site_label_1
_geom_bond_atom_site_label_2
_geom_bond_distance
_geom_bond_site_symmetry_2
Ni0 Ni15 2.631006 1_555
Ni0 Ni18 2.631006 1_555
Ni0 Yb0 2.771273 1_555
Ni0 Yb0 2.941865 1_554
Ni1 Ni17 2.631006 1_555
Ni1 Ni16 2.631006 1_555
Ni1 Yb1 2.771273 1_555
Ni1 Yb1 2.941865 1_556
Ni2 Yb2 2.766334 1_666
Ni2 Yb0 2.824141 1_555
Ni3 Yb2 2.766334 1_555
Ni3 Yb1 2.824141 1_555
Ni4 Yb2 2.784686 1_665
Ni4 Yb0 3.151627 1_555
Ni5 Yb2 2.784686 1_556
Ni5 Yb1 3.151627 1_555
Ni6 Yb2 2.856367 1_556
Ni6 Yb2 2.856367 1_555
Ni7 Yb2 2.774823 1_655
Ni7 Yb1 2.820220 1_555
Ni8 Yb2 2.774823 1_566
Ni8 Yb0 2.820220 1_555
Ni9 Yb2 2.774823 1_656
Ni9 Yb0 2.820220 1_555
Ni10 Ni18 2.359032 1_455
Ni10 Ni17 2.501100 1_554
Ni10 Yb2 2.774823 1_565
Ni10 Yb1 2.820220 1_555
Ni11 Ni15 2.470718 1_555
Ni11 Yb2 2.852082 1_565
Ni11 Yb1 2.962212 1_555
Ni11 Yb0 3.044887 1_555
Ni12 Ni16 2.470718 1_555
Ni12 Yb2 2.852082 1_656
Ni12 Yb0 2.962212 1_555
Ni12 Yb1 3.044887 1_555
Ni13 Ni17 2.470718 1_555
Ni13 Yb2 2.852082 1_566
Ni13 Yb0 2.962212 1_555
Ni13 Yb1 3.044887 1_555
Ni14 Ni18 2.470718 1_555
Ni14 Yb2 2.852082 1_655
Ni14 Yb1 2.962212 1_555
Ni14 Yb0 3.044887 1_555
Ni15 Ni7 2.359032 1_565
Ni15 Ni3 2.410445 1_565
Ni15 Ni16 2.439274 1_565
Ni15 Ni4 2.441288 1_555
Ni15 Ni8 2.501100 1_554
Ni15 Yb0 2.947612 1_555
Ni15 Yb1 3.130589 1_565
Ni16 Ni8 2.359032 1_545
Ni16 Ni2 2.410445 1_545
Ni16 Ni5 2.441288 1_555
Ni16 Ni7 2.501100 1_556
Ni16 Yb1 2.947612 1_555
Ni16 Yb0 3.130589 1_545
Ni17 Ni9 2.359032 1_455
Ni17 Ni2 2.410445 1_455
Ni17 Ni18 2.439274 1_455
Ni17 Ni5 2.441288 1_555
Ni17 Yb1 2.947612 1_555
Ni17 Yb0 3.130589 1_455
Ni18 Ni3 2.410445 1_655
Ni18 Ni4 2.441288 1_555
Ni18 Ni9 2.501100 1_554
Ni18 Yb0 2.947612 1_555
Ni18 Yb1 3.130589 1_655
B0 Ni4 2.024671 1_545
B0 Ni12 2.050363 1_555
B0 Ni7 2.117135 1_555
B0 Ni16 2.119137 1_555
B0 Ni14 2.143111 1_555
B0 Ni6 2.247767 1_655
B0 Ni2 2.300080 1_545
B0 Ni15 2.331059 1_545
B0 Yb1 2.784267 1_555
B1 Ni5 2.024671 1_565
B1 Ni11 2.050363 1_555
B1 Ni8 2.117135 1_555
B1 Ni15 2.119137 1_555
B1 Ni13 2.143111 1_555
B1 Ni6 2.247767 1_565
B1 Ni3 2.300080 1_565
B1 Ni16 2.331059 1_565
B1 Yb0 2.784267 1_555
B2 Ni5 2.024671 1_655
B2 Ni14 2.050363 1_555
B2 Ni9 2.117135 1_555
B2 Ni18 2.119137 1_555
B2 Ni12 2.143111 1_555
B2 Ni6 2.247767 1_655
B2 Ni3 2.300080 1_655
B2 Ni17 2.331059 1_655
B2 Yb0 2.784267 1_555
B3 Ni4 2.024671 1_455
B3 Ni13 2.050363 1_555
B3 Ni10 2.117135 1_555
B3 Ni17 2.119137 1_555
B3 Ni11 2.143111 1_555
B3 Ni6 2.247767 1_565
B3 Ni2 2.300080 1_455
B3 Ni18 2.331059 1_455
B3 Yb1 2.784267 1_555
B4 B7 1.823507 1_555
B4 Ni3 2.057078 1_555
B4 Ni8 2.094629 1_544
B4 Ni5 2.110291 1_554
B4 Ni7 2.111130 1_555
B4 Ni1 2.115047 1_554
B4 Ni15 2.125185 1_545
B4 Ni16 2.232202 1_554
B4 Yb1 2.874045 1_555
B5 B6 1.823507 1_555
B5 Ni2 2.057078 1_555
B5 Ni7 2.094629 1_566
B5 Ni4 2.110291 1_556
B5 Ni8 2.111130 1_555
B5 Ni0 2.115047 1_556
B5 Ni16 2.125185 1_565
B5 Ni15 2.232202 1_556
B5 Yb0 2.874045 1_555
B6 Ni2 2.057078 1_555
B6 Ni10 2.094629 1_656
B6 Ni4 2.110291 1_556
B6 Ni9 2.111130 1_555
B6 Ni0 2.115047 1_556
B6 Ni17 2.125185 1_655
B6 Ni18 2.232202 1_556
B6 Yb0 2.874045 1_555
B7 Ni3 2.057078 1_555
B7 Ni9 2.094629 1_454
B7 Ni5 2.110291 1_554
B7 Ni10 2.111130 1_555
B7 Ni1 2.115047 1_554
B7 Ni18 2.125185 1_455
B7 Ni17 2.232202 1_554
B7 Yb1 2.874045 1_555
B8 B9 2.014124 1_555
B8 Ni1 2.030745 1_554
B8 Ni0 2.030745 1_555
B8 Ni9 2.069848 1_554
B8 Ni7 2.069848 1_555
B8 Ni12 2.088716 1_554
B8 Ni14 2.088716 1_555
B8 Yb0 2.908208 1_554
B8 Yb1 2.908208 1_555
B9 Ni1 2.030745 1_554
B9 Ni0 2.030745 1_555
B9 Ni8 2.069848 1_554
B9 Ni10 2.069848 1_555
B9 Ni11 2.088716 1_555
B9 Ni13 2.088716 1_554
B9 Yb0 2.908208 1_554
B9 Yb1 2.908208 1_555
