# generated using pymatgen
data_Tb2Ga3(Fe7C)2
_symmetry_space_group_name_H-M   'P 1'
_cell_length_a   6.52055654
_cell_length_b   6.52055654
_cell_length_c   6.52629616
_cell_angle_alpha   83.39924574
_cell_angle_beta   83.39924574
_cell_angle_gamma   82.99194039
_symmetry_Int_Tables_number   1
_chemical_formula_structural   Tb2Ga3(Fe7C)2
_chemical_formula_sum   'Tb2 Ga3 Fe14 C2'
_cell_volume   272.14700869
_cell_formula_units_Z   1
loop_
 _symmetry_equiv_pos_site_id
 _symmetry_equiv_pos_as_xyz
  1  'x, y, z'
loop_
 _atom_site_type_symbol
 _atom_site_label
 _atom_site_symmetry_multiplicity
 _atom_site_fract_x
 _atom_site_fract_y
 _atom_site_fract_z
 _atom_site_occupancy
  Tb  Tb0  1  0.34674300  0.34674300  0.33974900  1
  Tb  Tb1  1  0.65325700  0.65325700  0.66025100  1
  Ga  Ga0  1  0.00000000  0.00000000  0.50000000  1
  Ga  Ga1  1  0.00000000  0.50000000  0.00000000  1
  Ga  Ga2  1  0.50000000  0.00000000  0.00000000  1
  Fe  Fe0  1  0.09119400  0.09119400  0.09308300  1
  Fe  Fe1  1  0.90880600  0.90880600  0.90691700  1
  Fe  Fe2  1  0.65137100  0.65137100  0.15318800  1
  Fe  Fe3  1  0.65028600  0.15250800  0.65110700  1
  Fe  Fe4  1  0.15250800  0.65028600  0.65110700  1
  Fe  Fe5  1  0.34862900  0.34862900  0.84681200  1
  Fe  Fe6  1  0.34971400  0.84749200  0.34889300  1
  Fe  Fe7  1  0.84749200  0.34971400  0.34889300  1
  Fe  Fe8  1  0.70913300  0.29086700  0.00000000  1
  Fe  Fe9  1  0.28612300  0.00016400  0.71477200  1
  Fe  Fe10  1  0.99983600  0.71387700  0.28522800  1
  Fe  Fe11  1  0.71387700  0.99983600  0.28522800  1
  Fe  Fe12  1  0.00016400  0.28612300  0.71477200  1
  Fe  Fe13  1  0.29086700  0.70913300  0.00000000  1
  C  C0  1  0.50000000  0.00000000  0.50000000  1
  C  C1  1  0.00000000  0.50000000  0.50000000  1
loop_
_geom_bond_atom_site_label_1
_geom_bond_atom_site_label_2
_geom_bond_distance
_geom_bond_site_symmetry_2
Ga0 Tb0 3.387890 1_555
Ga0 Tb1 3.387890 1_445
Ga1 Tb0 3.334485 1_555
Ga1 Tb1 3.334485 1_454
Ga2 Tb0 3.334485 1_555
Ga2 Tb1 3.334485 1_544
Fe0 Fe1 2.305300 1_444
Fe0 Ga0 2.668315 1_555
Fe0 Ga2 2.674370 1_555
Fe0 Ga1 2.674370 1_555
Fe0 Fe10 2.730775 1_445
Fe0 Fe11 2.730775 1_445
Fe0 Fe9 2.737707 1_554
Fe0 Fe12 2.737707 1_554
Fe0 Fe7 2.745425 1_455
Fe0 Fe6 2.745425 1_545
Fe0 Fe8 2.764983 1_455
Fe0 Fe13 2.764983 1_545
Fe0 Fe5 2.768720 1_554
Fe0 Tb0 3.171074 1_555
Fe1 Ga0 2.668315 1_665
Fe1 Ga2 2.674370 1_566
Fe1 Ga1 2.674370 1_656
Fe1 Fe9 2.730775 1_665
Fe1 Fe12 2.730775 1_665
Fe1 Fe10 2.737707 1_556
Fe1 Fe11 2.737707 1_556
Fe1 Fe3 2.745425 1_565
Fe1 Fe4 2.745425 1_655
Fe1 Fe13 2.764983 1_656
Fe1 Fe8 2.764983 1_566
Fe1 Fe2 2.768720 1_556
Fe1 Tb1 3.171074 1_555
Fe2 Ga1 2.509633 1_655
Fe2 Ga2 2.509633 1_565
Fe2 Fe7 2.513921 1_555
Fe2 Fe6 2.513921 1_555
Fe2 Fe8 2.627692 1_555
Fe2 Tb0 3.037158 1_555
Fe2 Tb1 3.214277 1_554
Fe2 Tb1 3.312121 1_555
Fe3 Ga0 2.513256 1_655
Fe3 Fe5 2.513921 1_555
Fe3 Ga2 2.517555 1_556
Fe3 Fe8 2.627433 1_556
Fe4 Ga0 2.513256 1_565
Fe4 Fe5 2.513921 1_555
Fe4 Ga1 2.517555 1_556
Fe5 Ga1 2.509633 1_556
Fe5 Ga2 2.509633 1_556
Fe5 Fe9 2.613121 1_555
Fe5 Fe8 2.627692 1_556
Fe5 Tb1 3.037158 1_555
Fe5 Tb0 3.214277 1_556
Fe5 Tb0 3.312121 1_555
Fe6 Ga0 2.513256 1_565
Fe6 Ga2 2.517555 1_565
Fe7 Ga0 2.513256 1_655
Fe7 Ga1 2.517555 1_655
Fe7 Fe8 2.627433 1_555
Fe8 Ga1 2.467355 1_655
Fe8 Ga2 2.467355 1_555
Fe8 Tb0 3.066588 1_555
Fe8 Tb1 3.066588 1_554
Fe9 Ga2 2.450719 1_556
Fe9 Ga0 2.459160 1_555
Fe10 Ga1 2.450719 1_655
Fe10 Ga0 2.459160 1_665
Fe10 Fe13 2.500813 1_655
Fe10 Fe2 2.613121 1_555
Fe11 Ga2 2.450719 1_565
Fe11 Ga0 2.459160 1_665
Fe11 Fe8 2.500813 1_565
Fe11 Fe2 2.613121 1_555
Fe12 Ga1 2.450719 1_556
Fe12 Ga0 2.459160 1_555
Fe12 Fe8 2.500813 1_456
Fe12 Fe5 2.613121 1_555
Fe13 Ga2 2.467355 1_565
Fe13 Ga1 2.467355 1_555
Fe13 Fe9 2.500813 1_564
Fe13 Fe6 2.627433 1_555
Fe13 Fe4 2.627433 1_554
Fe13 Fe2 2.627692 1_555
Fe13 Fe5 2.627692 1_554
Fe13 Tb0 3.066588 1_555
Fe13 Tb1 3.066588 1_554
C0 Fe11 1.860148 1_545
C0 Fe9 1.860148 1_555
C0 Fe3 1.899253 1_555
C0 Fe6 1.899253 1_545
C0 Tb1 2.519856 1_545
C0 Tb0 2.519856 1_555
C1 Fe10 1.860148 1_455
C1 Fe12 1.860148 1_555
C1 Fe4 1.899253 1_555
C1 Fe7 1.899253 1_455
C1 Tb1 2.519856 1_455
C1 Tb0 2.519856 1_555
