# generated using pymatgen
data_Li4TiCo5O12
_symmetry_space_group_name_H-M   'P 1'
_cell_length_a   4.97557646
_cell_length_b   20.04366408
_cell_length_c   4.94926597
_cell_angle_alpha   94.37537800
_cell_angle_beta   119.69149226
_cell_angle_gamma   93.75498092
_symmetry_Int_Tables_number   1
_chemical_formula_structural   Li4TiCo5O12
_chemical_formula_sum   'Li8 Ti2 Co10 O24'
_cell_volume   424.47953164
_cell_formula_units_Z   2
loop_
 _symmetry_equiv_pos_site_id
 _symmetry_equiv_pos_as_xyz
  1  'x, y, z'
loop_
 _atom_site_type_symbol
 _atom_site_label
 _atom_site_symmetry_multiplicity
 _atom_site_fract_x
 _atom_site_fract_y
 _atom_site_fract_z
 _atom_site_occupancy
  Li  Li0  1  0.58199700  0.37303300  0.23858100  1
  Li  Li1  1  0.57229000  0.87417800  0.22903700  1
  Li  Li2  1  0.76316900  0.12726800  0.41630300  1
  Li  Li3  1  0.77251400  0.62605300  0.43472100  1
  Li  Li4  1  0.22285100  0.36975300  0.57957100  1
  Li  Li5  1  0.22446600  0.87092800  0.57632600  1
  Li  Li6  1  0.41817500  0.12979000  0.76670300  1
  Li  Li7  1  0.41775000  0.62868200  0.77478100  1
  Ti  Ti0  1  0.99461700  0.00047400  0.00372800  1
  Ti  Ti1  1  0.99207600  0.49963200  0.00613800  1
  Co  Co0  1  0.83407900  0.74992200  0.16863500  1
  Co  Co1  1  0.15822700  0.24982600  0.83730900  1
  Co  Co2  1  0.16199100  0.75005300  0.83441500  1
  Co  Co3  1  0.67858000  0.00055300  0.32654900  1
  Co  Co4  1  0.67610000  0.49972900  0.32776900  1
  Co  Co5  1  0.49119100  0.24987000  0.50282600  1
  Co  Co6  1  0.49435100  0.75012800  0.50346300  1
  Co  Co7  1  0.82354800  0.24985200  0.16926000  1
  Co  Co8  1  0.34475400  0.00036500  0.66040700  1
  Co  Co9  1  0.34289500  0.49964700  0.66234900  1
  O  O0  1  0.20286500  0.29962300  0.21853800  1
  O  O1  1  0.20026100  0.79958000  0.20471800  1
  O  O2  1  0.77856500  0.20002900  0.78846500  1
  O  O3  1  0.79452600  0.70081000  0.79826800  1
  O  O4  1  0.38492500  0.05262400  0.36912400  1
  O  O5  1  0.38409700  0.55189000  0.37115800  1
  O  O6  1  0.63577900  0.44707800  0.61864300  1
  O  O7  1  0.63802900  0.94766900  0.61682600  1
  O  O8  1  0.72562300  0.05845200  0.05151200  1
  O  O9  1  0.72489800  0.55810300  0.05442600  1
  O  O10  1  0.95189700  0.44196900  0.27900400  1
  O  O11  1  0.95450700  0.94280300  0.27863500  1
  O  O12  1  0.04016100  0.05137400  0.68329100  1
  O  O13  1  0.03817200  0.55015100  0.68552900  1
  O  O14  1  0.31965400  0.44897600  0.96321000  1
  O  O15  1  0.32185300  0.94983400  0.96231100  1
  O  O16  1  0.47516200  0.19801200  0.12969700  1
  O  O17  1  0.46982200  0.70024000  0.13154800  1
  O  O18  1  0.11981300  0.19829200  0.48512200  1
  O  O19  1  0.13526000  0.69388700  0.50627100  1
  O  O20  1  0.86242200  0.30144100  0.52173000  1
  O  O21  1  0.87632900  0.80155300  0.52941900  1
  O  O22  1  0.50547600  0.30178200  0.87605500  1
  O  O23  1  0.49428700  0.80408800  0.85763200  1
loop_
_geom_bond_atom_site_label_1
_geom_bond_atom_site_label_2
_geom_bond_distance
_geom_bond_site_symmetry_2
Li0 O22 2.065154 1_554
Li0 O10 2.143941 1_555
Li0 O20 2.145184 1_555
Li0 O14 2.166268 1_554
Li0 O6 2.199066 1_555
Li0 O0 2.272042 1_555
Li1 O23 2.081102 1_554
Li1 O15 2.125618 1_554
Li1 O11 2.170781 1_555
Li1 O7 2.200913 1_555
Li1 O21 2.237920 1_555
Li1 O1 2.250753 1_555
Li2 O18 2.070715 1_655
Li2 O8 2.109318 1_555
Li2 O16 2.153038 1_555
Li2 O12 2.176398 1_655
Li2 O2 2.227376 1_555
Li2 O4 2.231001 1_555
Li3 O19 2.050251 1_655
Li3 O13 2.128058 1_655
Li3 O9 2.139751 1_555
Li3 O3 2.206031 1_555
Li3 O5 2.234648 1_555
Li3 O17 2.264032 1_555
Li4 O20 2.069489 1_455
Li4 O22 2.120976 1_555
Li4 O0 2.145000 1_555
Li4 O10 2.173243 1_455
Li4 O14 2.211891 1_555
Li4 O6 2.409212 1_555
Li5 O23 2.050387 1_555
Li5 O21 2.055433 1_455
Li5 O11 2.160368 1_455
Li5 O1 2.190644 1_555
Li5 O15 2.215210 1_555
Li5 O7 2.402107 1_555
Li6 O16 2.060964 1_556
Li6 O18 2.130868 1_555
Li6 O2 2.159605 1_555
Li6 O8 2.197600 1_556
Li6 O12 2.218770 1_555
Li6 O4 2.339054 1_555
Li7 O19 2.026060 1_555
Li7 O17 2.086580 1_556
Li7 O9 2.176895 1_556
Li7 O13 2.217590 1_555
Li7 O3 2.240869 1_555
Li7 O5 2.356573 1_555
Co0 O21 1.902964 1_555
Co0 O3 1.926066 1_554
Co0 O17 1.927754 1_555
Co0 O1 1.937821 1_655
Co0 O23 2.079345 1_554
Co0 O19 2.079802 1_655
Co1 O18 1.873803 1_555
Co1 O22 1.874050 1_555
Co1 O16 1.960242 1_556
Co1 O20 1.960780 1_455
Co1 O0 1.968263 1_556
Co1 O2 1.971539 1_455
Co2 O19 1.846644 1_555
Co2 O23 1.864964 1_555
Co2 O21 1.915407 1_455
Co2 O17 1.923117 1_556
Co2 O1 1.931976 1_556
Co2 O3 1.939513 1_455
Co3 O7 1.928672 1_545
Co3 O12 1.931431 1_655
Co3 O4 1.933830 1_555
Co3 O15 1.935932 1_544
Co3 O11 1.941578 1_545
Co3 O8 1.943094 1_555
Co4 O6 1.927856 1_555
Co4 O5 1.929724 1_555
Co4 O13 1.931446 1_655
Co4 O14 1.936308 1_554
Co4 O10 1.942985 1_555
Co4 O9 1.946233 1_555
Co5 O0 1.853119 1_555
Co5 O2 1.855021 1_555
Co5 O16 2.011833 1_555
Co5 O20 2.013189 1_555
Co5 O18 2.016545 1_555
Co5 O22 2.016648 1_555
Co6 O1 1.892101 1_555
Co6 O3 1.895081 1_555
Co6 O17 1.970684 1_555
Co6 O23 1.988384 1_555
Co6 O21 2.042647 1_555
Co6 O19 2.055814 1_555
Co7 O20 1.874596 1_555
Co7 O16 1.876044 1_555
Co7 O18 1.961623 1_655
Co7 O22 1.965944 1_554
Co7 O2 1.965953 1_554
Co7 O0 1.968991 1_655
Co8 O15 1.912043 1_545
Co8 O4 1.924547 1_555
Co8 O12 1.926211 1_555
Co8 O7 1.941737 1_545
Co8 O11 2.100219 1_445
Co8 O8 2.103996 1_556
Co9 O14 1.909993 1_555
Co9 O13 1.921532 1_555
Co9 O5 1.926232 1_555
Co9 O6 1.938884 1_555
Co9 O10 2.105967 1_455
Co9 O9 2.111520 1_556
O4 Ti0 2.025080 1_455
O5 Ti1 2.029343 1_455
O6 Ti1 2.002356 1_556
O7 Ti0 2.003492 1_566
O8 Ti0 1.916522 1_555
O9 Ti1 1.916745 1_555
O10 Ti1 1.917017 1_555
O11 Ti0 1.925091 1_565
O12 Ti0 2.044503 1_456
O13 Ti1 2.042322 1_456
O14 Ti1 2.063849 1_456
O15 Ti0 2.058789 1_466
