# generated using pymatgen
data_TbGaNi4
_symmetry_space_group_name_H-M   'P 1'
_cell_length_a   3.98249716
_cell_length_b   8.51475505
_cell_length_c   8.51469624
_cell_angle_alpha   119.99883966
_cell_angle_beta   90.00000173
_cell_angle_gamma   89.99999979
_symmetry_Int_Tables_number   1
_chemical_formula_structural   TbGaNi4
_chemical_formula_sum   'Tb3 Ga3 Ni12'
_cell_volume   250.05324928
_cell_formula_units_Z   3
loop_
 _symmetry_equiv_pos_site_id
 _symmetry_equiv_pos_as_xyz
  1  'x, y, z'
loop_
 _atom_site_type_symbol
 _atom_site_label
 _atom_site_symmetry_multiplicity
 _atom_site_fract_x
 _atom_site_fract_y
 _atom_site_fract_z
 _atom_site_occupancy
  Tb  Tb0  1  -0.00000001  -0.00000255  -0.00000198  1
  Tb  Tb1  1  0.49999997  0.66661559  0.33330349  1
  Tb  Tb2  1  0.50000000  0.33338551  0.66669741  1
  Ga  Ga0  1  0.00000004  0.49995337  0.49993295  1
  Ga  Ga1  1  0.00000003  0.00000123  0.49998560  1
  Ga  Ga2  1  -0.00000005  0.49997252  0.00002824  1
  Ni  Ni0  1  0.00000003  0.81971521  0.18005118  1
  Ni  Ni1  1  -0.00000001  0.18031371  0.82000103  1
  Ni  Ni2  1  -0.00000002  0.36037203  0.18015930  1
  Ni  Ni3  1  0.00000013  0.63962407  0.81984950  1
  Ni  Ni4  1  -0.00000002  0.81974653  0.63967302  1
  Ni  Ni5  1  -0.00000006  0.18026720  0.36029437  1
  Ni  Ni6  1  0.49999995  0.69390287  0.69398973  1
  Ni  Ni7  1  0.49999999  0.30609378  0.30596812  1
  Ni  Ni8  1  0.50000005  0.99998459  0.30592521  1
  Ni  Ni9  1  0.50000002  0.00004056  0.69408154  1
  Ni  Ni10  1  0.50000001  0.30611968  0.00010892  1
  Ni  Ni11  1  0.49999994  0.69389411  -0.00004763  1
loop_
_geom_bond_atom_site_label_1
_geom_bond_atom_site_label_2
_geom_bond_distance
_geom_bond_site_symmetry_2
Ga0 Ni5 2.363658 1_555
Ga0 Ni2 2.364346 1_555
Ga0 Ni4 2.364415 1_555
Ga0 Ni3 2.365386 1_555
Ga0 Ni7 2.586760 1_555
Ga0 Ni7 2.586760 1_455
Ga0 Ni6 2.587254 1_555
Ga0 Ni6 2.587255 1_455
Ga0 Tb1 3.163100 1_555
Ga0 Tb1 3.163100 1_455
Ga0 Tb2 3.163333 1_555
Ga0 Tb2 3.163333 1_455
Ga1 Ni4 2.365544 1_545
Ga1 Ni0 2.365545 1_545
Ga1 Ni5 2.365657 1_555
Ga1 Ni1 2.366132 1_555
Ga1 Ni8 2.587498 1_445
Ga1 Ni8 2.587498 1_545
Ga1 Ni9 2.587630 1_555
Ga1 Ni9 2.587630 1_455
Ga1 Tb2 3.163671 1_555
Ga1 Tb2 3.163671 1_455
Ga1 Tb1 3.163679 1_545
Ga1 Tb1 3.163679 1_445
Ga2 Ni1 2.363458 1_554
Ga2 Ni2 2.363981 1_555
Ga2 Ni0 2.364046 1_555
Ga2 Ni3 2.364707 1_554
Ga2 Ni10 2.586642 1_455
Ga2 Ni10 2.586642 1_555
Ga2 Ni11 2.587003 1_555
Ga2 Ni11 2.587003 1_455
Ga2 Tb1 3.163033 1_555
Ga2 Tb1 3.163033 1_455
Ga2 Tb2 3.163351 1_454
Ga2 Tb2 3.163352 1_554
Ni0 Ni11 2.412797 1_555
Ni0 Ni11 2.412798 1_455
Ni0 Ni8 2.413459 1_455
Ni0 Ni8 2.413459 1_555
Ni0 Ni3 2.656138 1_554
Ni0 Tb0 2.657087 1_565
Ni0 Ni5 2.658739 1_565
Ni0 Tb1 3.011349 1_555
Ni0 Tb1 3.011350 1_455
Ni1 Ni10 2.412813 1_456
Ni1 Ni10 2.412813 1_556
Ni1 Ni9 2.413521 1_455
Ni1 Ni9 2.413521 1_555
Ni1 Ni2 2.655818 1_556
Ni1 Tb0 2.656923 1_556
Ni1 Ni4 2.658851 1_545
Ni1 Tb2 3.011480 1_455
Ni1 Tb2 3.011480 1_555
Ni2 Ni7 2.412728 1_455
Ni2 Ni7 2.412728 1_555
Ni2 Ni5 2.656382 1_555
Ni2 Tb0 2.657431 1_555
Ni2 Tb1 3.010786 1_555
Ni2 Tb1 3.010786 1_455
Ni3 Ni6 2.412963 1_555
Ni3 Ni6 2.412964 1_455
Ni3 Ni4 2.656818 1_555
Ni3 Tb0 2.657422 1_566
Ni3 Tb2 3.010758 1_555
Ni3 Tb2 3.010758 1_455
Ni4 Ni6 2.413026 1_555
Ni4 Ni6 2.413026 1_455
Ni4 Ni9 2.413552 1_465
Ni4 Ni9 2.413553 1_565
Ni4 Tb0 2.657047 1_566
Ni4 Tb1 3.011471 1_455
Ni4 Tb1 3.011471 1_555
Ni5 Ni7 2.412981 1_455
Ni5 Ni7 2.412981 1_555
Ni5 Ni8 2.413542 1_445
Ni5 Ni8 2.413542 1_545
Ni5 Tb0 2.656836 1_555
Ni5 Tb2 3.011656 1_455
Ni5 Tb2 3.011656 1_555
Ni6 Ni9 2.606297 1_565
Ni6 Tb2 2.960377 1_555
Ni6 Tb1 2.961809 1_555
Ni7 Ni8 2.606262 1_545
Ni7 Tb1 2.960254 1_555
Ni7 Tb2 2.962158 1_555
Ni8 Tb1 2.961998 1_555
Ni8 Tb2 2.962281 1_565
Ni9 Tb2 2.961822 1_555
Ni9 Tb1 2.962399 1_545
Ni10 Ni2 2.412594 1_655
Ni10 Ni2 2.412594 1_555
Ni10 Ni7 2.604408 1_555
Ni10 Ni9 2.606005 1_554
Ni10 Tb1 2.960199 1_555
Ni10 Tb2 2.961807 1_554
Ni11 Ni3 2.412815 1_554
Ni11 Ni3 2.412817 1_654
Ni11 Ni6 2.605216 1_554
Ni11 Ni8 2.605821 1_555
Ni11 Tb2 2.960486 1_554
Ni11 Tb1 2.961354 1_555
