# generated using pymatgen
data_Mn20(WC2)3
_symmetry_space_group_name_H-M   'P 1'
_cell_length_a   7.44630110
_cell_length_b   7.44630110
_cell_length_c   7.44630110
_cell_angle_alpha   60.00000000
_cell_angle_beta   60.00000000
_cell_angle_gamma   60.00000000
_symmetry_Int_Tables_number   1
_chemical_formula_structural   Mn20(WC2)3
_chemical_formula_sum   'Mn20 W3 C6'
_cell_volume   291.94885874
_cell_formula_units_Z   1
loop_
 _symmetry_equiv_pos_site_id
 _symmetry_equiv_pos_as_xyz
  1  'x, y, z'
loop_
 _atom_site_type_symbol
 _atom_site_label
 _atom_site_symmetry_multiplicity
 _atom_site_fract_x
 _atom_site_fract_y
 _atom_site_fract_z
 _atom_site_occupancy
  Mn  Mn0  1  0.84691600  0.38436100  0.38436100  1
  Mn  Mn1  1  0.38436100  0.84691600  0.38436100  1
  Mn  Mn2  1  0.38436100  0.38436100  0.84691600  1
  Mn  Mn3  1  0.38436100  0.38436100  0.38436100  1
  Mn  Mn4  1  0.15308400  0.61563900  0.61563900  1
  Mn  Mn5  1  0.61563900  0.15308400  0.61563900  1
  Mn  Mn6  1  0.61563900  0.61563900  0.15308400  1
  Mn  Mn7  1  0.61563900  0.61563900  0.61563900  1
  Mn  Mn8  1  0.65877500  0.00000000  0.00000000  1
  Mn  Mn9  1  0.65877500  0.00000000  0.34122500  1
  Mn  Mn10  1  0.65877500  0.34122500  0.00000000  1
  Mn  Mn11  1  0.00000000  0.65877500  0.34122500  1
  Mn  Mn12  1  0.00000000  0.65877500  0.00000000  1
  Mn  Mn13  1  0.34122500  0.65877500  0.00000000  1
  Mn  Mn14  1  0.00000000  0.34122500  0.65877500  1
  Mn  Mn15  1  0.34122500  0.00000000  0.65877500  1
  Mn  Mn16  1  0.00000000  0.00000000  0.65877500  1
  Mn  Mn17  1  0.34122500  0.00000000  0.00000000  1
  Mn  Mn18  1  0.00000000  0.34122500  0.00000000  1
  Mn  Mn19  1  0.00000000  0.00000000  0.34122500  1
  W  W0  1  0.00000000  0.00000000  0.00000000  1
  W  W1  1  0.25000000  0.25000000  0.25000000  1
  W  W2  1  0.75000000  0.75000000  0.75000000  1
  C  C0  1  0.72598800  0.27401200  0.27401200  1
  C  C1  1  0.72598800  0.27401200  0.72598800  1
  C  C2  1  0.72598800  0.72598800  0.27401200  1
  C  C3  1  0.27401200  0.72598800  0.72598800  1
  C  C4  1  0.27401200  0.72598800  0.27401200  1
  C  C5  1  0.27401200  0.27401200  0.72598800  1
loop_
_geom_bond_atom_site_label_1
_geom_bond_atom_site_label_2
_geom_bond_distance
_geom_bond_site_symmetry_2
Mn0 W1 2.450702 1_655
Mn1 W1 2.450702 1_565
Mn2 W1 2.450702 1_556
Mn3 W1 2.450696 1_555
Mn4 W2 2.450702 1_455
Mn5 W2 2.450702 1_545
Mn6 W2 2.450702 1_554
Mn7 W2 2.450696 1_555
Mn8 W0 2.540864 1_655
Mn9 W0 2.540864 1_655
Mn10 W0 2.540864 1_655
Mn11 W0 2.540864 1_565
Mn12 W0 2.540864 1_565
Mn13 W0 2.540864 1_565
Mn14 W0 2.540864 1_556
Mn15 W0 2.540864 1_556
Mn16 W0 2.540864 1_556
Mn17 W0 2.540864 1_555
Mn18 W0 2.540864 1_555
Mn19 W0 2.540864 1_555
C0 Mn0 2.077543 1_555
C0 Mn5 2.077549 1_555
C0 Mn6 2.077549 1_555
C0 Mn3 2.077549 1_555
C0 Mn9 2.100862 1_555
C0 Mn18 2.100862 1_655
C0 Mn10 2.100862 1_555
C0 Mn19 2.100862 1_655
C1 Mn5 2.077543 1_555
C1 Mn2 2.077549 1_555
C1 Mn0 2.077549 1_555
C1 Mn7 2.077549 1_555
C1 Mn16 2.100862 1_655
C1 Mn8 2.100862 1_556
C1 Mn14 2.100862 1_655
C1 Mn10 2.100862 1_556
C2 Mn6 2.077543 1_555
C2 Mn1 2.077549 1_555
C2 Mn0 2.077549 1_555
C2 Mn7 2.077549 1_555
C2 Mn12 2.100862 1_655
C2 Mn8 2.100862 1_565
C2 Mn9 2.100862 1_565
C2 Mn11 2.100862 1_655
C3 Mn4 2.077543 1_555
C3 Mn2 2.077549 1_555
C3 Mn1 2.077549 1_555
C3 Mn7 2.077549 1_555
C3 Mn12 2.100862 1_556
C3 Mn16 2.100862 1_565
C3 Mn15 2.100862 1_565
C3 Mn13 2.100862 1_556
C4 Mn1 2.077543 1_555
C4 Mn6 2.077549 1_555
C4 Mn4 2.077549 1_555
C4 Mn3 2.077549 1_555
C4 Mn11 2.100862 1_555
C4 Mn13 2.100862 1_555
C4 Mn19 2.100862 1_565
C4 Mn17 2.100862 1_565
C5 Mn2 2.077543 1_555
C5 Mn5 2.077549 1_555
C5 Mn4 2.077549 1_555
C5 Mn3 2.077549 1_555
C5 Mn15 2.100862 1_555
C5 Mn17 2.100862 1_556
C5 Mn18 2.100862 1_556
C5 Mn14 2.100862 1_555
