# generated using pymatgen
data_CaB3O8
_symmetry_space_group_name_H-M   'P 1'
_cell_length_a   11.73171400
_cell_length_b   6.31602100
_cell_length_c   8.72499836
_cell_angle_alpha   66.47779956
_cell_angle_beta   90.00000000
_cell_angle_gamma   90.00000000
_symmetry_Int_Tables_number   1
_chemical_formula_structural   CaB3O8
_chemical_formula_sum   'Ca4 B12 O32'
_cell_volume   592.78194182
_cell_formula_units_Z   4
loop_
 _symmetry_equiv_pos_site_id
 _symmetry_equiv_pos_as_xyz
  1  'x, y, z'
loop_
 _atom_site_type_symbol
 _atom_site_label
 _atom_site_symmetry_multiplicity
 _atom_site_fract_x
 _atom_site_fract_y
 _atom_site_fract_z
 _atom_site_occupancy
  Ca  Ca0  1  0.27124800  0.33793200  0.10732800  1
  Ca  Ca1  1  0.77124800  0.66206800  0.39267200  1
  Ca  Ca2  1  0.72875200  0.66206800  0.89267200  1
  Ca  Ca3  1  0.22875200  0.33793200  0.60732800  1
  B  B0  1  0.30268800  0.78244400  0.83194600  1
  B  B1  1  0.80268800  0.21755600  0.66805400  1
  B  B2  1  0.69731200  0.21755600  0.16805400  1
  B  B3  1  0.19731200  0.78244400  0.33194600  1
  B  B4  1  0.31176800  0.93447900  0.52002200  1
  B  B5  1  0.81176800  0.06552100  0.97997800  1
  B  B6  1  0.68823200  0.06552100  0.47997800  1
  B  B7  1  0.18823200  0.93447900  0.02002200  1
  B  B8  1  0.44802300  0.62151000  0.69780800  1
  B  B9  1  0.94802300  0.37849000  0.80219200  1
  B  B10  1  0.55197700  0.37849000  0.30219200  1
  B  B11  1  0.05197700  0.62151000  0.19780800  1
  O  O0  1  0.23562300  0.77041500  0.48311600  1
  O  O1  1  0.73562300  0.22958500  0.01688400  1
  O  O2  1  0.76437700  0.22958500  0.51688400  1
  O  O3  1  0.26437700  0.77041500  0.98311600  1
  O  O4  1  0.27119100  0.94618200  0.68064500  1
  O  O5  1  0.77119100  0.05381800  0.81935500  1
  O  O6  1  0.72880900  0.05381800  0.31935500  1
  O  O7  1  0.22880900  0.94618200  0.18064500  1
  O  O8  1  0.29798900  0.16776200  0.39585900  1
  O  O9  1  0.79798900  0.83223800  0.10414100  1
  O  O10  1  0.70201100  0.83223800  0.60414100  1
  O  O11  1  0.20201100  0.16776200  0.89585900  1
  O  O12  1  0.37415200  0.60141000  0.84242600  1
  O  O13  1  0.87415200  0.39859000  0.65757400  1
  O  O14  1  0.62584800  0.39859000  0.15757400  1
  O  O15  1  0.12584800  0.60141000  0.34242600  1
  O  O16  1  0.42625600  0.82950700  0.54554100  1
  O  O17  1  0.92625600  0.17049300  0.95445900  1
  O  O18  1  0.57374400  0.17049300  0.45445900  1
  O  O19  1  0.07374400  0.82950700  0.04554100  1
  O  O20  1  0.56555700  0.59517700  0.75281700  1
  O  O21  1  0.06555700  0.40482300  0.74718300  1
  O  O22  1  0.43444300  0.40482300  0.24718300  1
  O  O23  1  0.93444300  0.59517700  0.25281700  1
  O  O24  1  0.42291300  0.43786900  0.64640100  1
  O  O25  1  0.92291300  0.56213100  0.85359900  1
  O  O26  1  0.57708700  0.56213100  0.35359900  1
  O  O27  1  0.07708700  0.43786900  0.14640100  1
  O  O28  1  0.49030600  0.03445200  0.05534100  1
  O  O29  1  0.99030600  0.96554800  0.44465900  1
  O  O30  1  0.50969400  0.96554800  0.94465900  1
  O  O31  1  0.00969400  0.03445200  0.55534100  1
loop_
_geom_bond_atom_site_label_1
_geom_bond_atom_site_label_2
_geom_bond_distance
_geom_bond_site_symmetry_2
Ca0 O8 2.330523 1_555
Ca0 O7 2.348587 1_545
Ca0 O22 2.396768 1_555
Ca0 O27 2.423832 1_555
Ca0 O3 2.505898 1_554
Ca0 O12 2.549238 1_554
Ca0 O11 2.608093 1_554
Ca1 O9 2.330523 1_555
Ca1 O6 2.348587 1_565
Ca1 O23 2.396768 1_555
Ca1 O26 2.423832 1_555
Ca1 O2 2.505898 1_555
Ca1 O13 2.549238 1_555
Ca1 O10 2.608093 1_555
Ca2 O10 2.330523 1_555
Ca2 O5 2.348587 1_565
Ca2 O20 2.396768 1_555
Ca2 O25 2.423832 1_555
Ca2 O1 2.505898 1_556
Ca2 O14 2.549238 1_556
Ca2 O9 2.608093 1_556
Ca3 O11 2.330523 1_555
Ca3 O4 2.348587 1_545
Ca3 O21 2.396768 1_555
Ca3 O24 2.423832 1_555
Ca3 O0 2.505898 1_555
Ca3 O15 2.549238 1_555
Ca3 O8 2.608093 1_555
B0 O4 1.363450 1_555
B0 O3 1.366545 1_555
B0 O12 1.391118 1_555
B1 O5 1.363450 1_555
B1 O2 1.366545 1_555
B1 O13 1.391118 1_555
B2 O6 1.363450 1_555
B2 O1 1.366545 1_555
B2 O14 1.391118 1_555
B3 O7 1.363450 1_555
B3 O0 1.366545 1_555
B3 O15 1.391118 1_555
B4 O8 1.447962 1_565
B4 O16 1.474905 1_555
B4 O0 1.497267 1_555
B4 O4 1.509564 1_555
B5 O9 1.447962 1_546
B5 O17 1.474905 1_555
B5 O1 1.497267 1_556
B5 O5 1.509564 1_555
B6 O10 1.447962 1_545
B6 O18 1.474905 1_555
B6 O2 1.497267 1_555
B6 O6 1.509564 1_555
B7 O11 1.447962 1_564
B7 O19 1.474905 1_555
B7 O3 1.497267 1_554
B7 O7 1.509564 1_555
B8 O24 1.431270 1_555
B8 O20 1.447618 1_555
B8 O16 1.470689 1_555
B8 O12 1.493796 1_555
B9 O25 1.431270 1_555
B9 O21 1.447618 1_655
B9 O17 1.470689 1_555
B9 O13 1.493796 1_555
B10 O26 1.431270 1_555
B10 O22 1.447618 1_555
B10 O18 1.470689 1_555
B10 O14 1.493796 1_555
B11 O27 1.431270 1_555
B11 O23 1.447618 1_455
B11 O19 1.470689 1_555
B11 O15 1.493796 1_555
O28 O30 1.228485 1_544
O29 O31 1.228485 1_665
