# generated using pymatgen
data_Al10V
_symmetry_space_group_name_H-M   'P 1'
_cell_length_a   10.12942102
_cell_length_b   10.12942105
_cell_length_c   10.12942046
_cell_angle_alpha   59.99990605
_cell_angle_beta   59.99990776
_cell_angle_gamma   59.99991276
_symmetry_Int_Tables_number   1
_chemical_formula_structural   Al10V
_chemical_formula_sum   'Al40 V4'
_cell_volume   734.91641832
_cell_formula_units_Z   4
loop_
 _symmetry_equiv_pos_site_id
 _symmetry_equiv_pos_as_xyz
  1  'x, y, z'
loop_
 _atom_site_type_symbol
 _atom_site_label
 _atom_site_symmetry_multiplicity
 _atom_site_fract_x
 _atom_site_fract_y
 _atom_site_fract_z
 _atom_site_occupancy
  Al  Al0  1  0.50000000  0.50000000  0.50000000  1
  Al  Al1  1  0.50000000  0.50000000  -0.00000000  1
  Al  Al2  1  0.00000000  0.50000000  0.50000000  1
  Al  Al3  1  0.50000000  -0.00000000  0.50000000  1
  Al  Al4  1  0.73518890  0.01480756  0.01480756  1
  Al  Al5  1  0.98519244  0.98519244  0.26481110  1
  Al  Al6  1  0.26480858  0.26480858  0.98519232  1
  Al  Al7  1  0.98519232  0.26480858  0.26480858  1
  Al  Al8  1  0.98519244  0.26481110  0.98519244  1
  Al  Al9  1  0.26480858  0.98519232  0.26480858  1
  Al  Al10  1  0.01480756  0.73518890  0.01480756  1
  Al  Al11  1  0.01480756  0.01480756  0.73518890  1
  Al  Al12  1  0.73519142  0.73519142  0.01480768  1
  Al  Al13  1  0.73519142  0.01480768  0.73519142  1
  Al  Al14  1  0.26481110  0.98519244  0.98519244  1
  Al  Al15  1  0.01480768  0.73519142  0.73519142  1
  Al  Al16  1  0.17681843  0.17681943  0.70343662  1
  Al  Al17  1  0.82318273  0.29656012  0.55707307  1
  Al  Al18  1  0.55707591  0.82318298  0.82318298  1
  Al  Al19  1  0.82318398  0.55707591  0.82318298  1
  Al  Al20  1  0.29656012  0.82318273  0.55707307  1
  Al  Al21  1  0.29656012  0.55707307  0.82318273  1
  Al  Al22  1  0.55707407  0.29656012  0.82318273  1
  Al  Al23  1  0.70343662  0.17681843  0.17681843  1
  Al  Al24  1  0.17681843  0.70343662  0.17681943  1
  Al  Al25  1  0.44292593  0.17681727  0.70343988  1
  Al  Al26  1  0.17681727  0.44292693  0.70343988  1
  Al  Al27  1  0.44292409  0.17681702  0.17681702  1
  Al  Al28  1  0.70343988  0.17681727  0.44292693  1
  Al  Al29  1  0.17681727  0.70343988  0.44292693  1
  Al  Al30  1  0.17681602  0.44292409  0.17681702  1
  Al  Al31  1  0.55707407  0.82318273  0.29656012  1
  Al  Al32  1  0.82318273  0.55707307  0.29656012  1
  Al  Al33  1  0.82318398  0.82318298  0.55707591  1
  Al  Al34  1  0.82318157  0.82318057  0.29656338  1
  Al  Al35  1  0.29656338  0.82318157  0.82318157  1
  Al  Al36  1  0.82318157  0.29656338  0.82318057  1
  Al  Al37  1  0.70343988  0.44292693  0.17681727  1
  Al  Al38  1  0.44292593  0.70343988  0.17681727  1
  Al  Al39  1  0.17681602  0.17681702  0.44292409  1
  V  V0  1  0.00000000  -0.00000000  -0.00000000  1
  V  V1  1  0.00000000  -0.00000000  0.50000000  1
  V  V2  1  0.50000000  -0.00000000  -0.00000000  1
  V  V3  1  0.00000000  0.50000000  -0.00000000  1
loop_
_geom_bond_atom_site_label_1
_geom_bond_atom_site_label_2
_geom_bond_distance
_geom_bond_site_symmetry_2
Al0 Al37 3.041828 1_555
Al0 Al21 3.041828 1_555
Al0 Al32 3.041828 1_555
Al0 Al26 3.041828 1_555
Al0 Al17 3.041828 1_555
Al0 Al29 3.041828 1_555
Al0 Al28 3.041828 1_555
Al0 Al20 3.041828 1_555
Al0 Al22 3.041831 1_555
Al0 Al38 3.041831 1_555
Al0 Al25 3.041832 1_555
Al0 Al31 3.041832 1_555
Al1 Al23 3.041817 1_555
Al1 Al35 3.041817 1_554
Al1 Al24 3.041821 1_555
Al1 Al36 3.041821 1_554
Al1 Al38 3.041838 1_555
Al1 Al22 3.041838 1_554
Al1 Al27 3.041842 1_555
Al1 Al18 3.041842 1_554
Al1 Al37 3.041842 1_555
Al1 Al21 3.041842 1_554
Al1 Al19 3.041851 1_554
Al1 Al30 3.041851 1_555
Al2 Al24 3.041812 1_555
Al2 Al36 3.041812 1_455
Al2 Al34 3.041812 1_455
Al2 Al26 3.041842 1_555
Al2 Al32 3.041842 1_455
Al2 Al29 3.041842 1_555
Al2 Al30 3.041843 1_555
Al2 Al33 3.041843 1_455
Al2 Al39 3.041843 1_555
Al3 Al35 3.041817 1_545
Al3 Al34 3.041821 1_545
Al3 Al31 3.041838 1_545
Al3 Al33 3.041851 1_545
Al3 Al39 3.041851 1_555
Al4 V2 2.541188 1_555
Al4 V0 2.541259 1_655
Al5 V1 2.541188 1_665
Al5 V0 2.541259 1_665
Al5 Al9 2.832336 1_655
Al5 Al7 2.832336 1_565
Al5 Al8 2.832371 1_564
Al6 V2 2.541222 1_556
Al6 V3 2.541222 1_556
Al6 Al8 2.832336 1_455
Al6 Al9 2.832347 1_546
Al6 Al7 2.832347 1_456
Al7 V3 2.541221 1_655
Al7 V1 2.541221 1_655
Al7 Al8 2.832336 1_554
Al7 Al9 2.832347 1_645
Al8 V3 2.541188 1_656
Al8 V0 2.541259 1_656
Al9 V2 2.541221 1_565
Al9 V1 2.541221 1_565
Al10 V3 2.541188 1_555
Al10 V0 2.541259 1_565
Al10 Al30 2.669640 1_555
Al10 Al24 2.669690 1_555
Al10 Al32 2.825104 1_455
Al10 Al21 2.825104 1_554
Al10 Al34 2.825150 1_455
Al10 Al35 2.825155 1_554
Al10 Al15 2.832336 1_554
Al10 Al12 2.832336 1_455
Al10 Al11 2.832371 1_564
Al10 Al4 2.832371 1_465
Al11 V1 2.541188 1_555
Al11 V0 2.541259 1_556
Al11 Al39 2.669639 1_555
Al11 Al16 2.669690 1_555
Al11 Al17 2.825104 1_455
Al11 Al20 2.825104 1_545
Al11 Al36 2.825150 1_455
Al11 Al35 2.825155 1_545
Al11 Al13 2.832336 1_455
Al11 Al15 2.832336 1_545
Al11 Al4 2.832371 1_456
Al12 V2 2.541222 1_565
Al12 V3 2.541222 1_655
Al12 Al37 2.669632 1_555
Al12 Al38 2.669641 1_555
Al12 Al19 2.825088 1_554
Al12 Al18 2.825092 1_554
Al12 Al32 2.825120 1_555
Al12 Al31 2.825120 1_555
Al12 Al4 2.832336 1_565
Al12 Al13 2.832347 1_564
Al12 Al15 2.832347 1_654
Al13 V2 2.541221 1_556
Al13 V1 2.541221 1_655
Al13 Al28 2.669632 1_555
Al13 Al25 2.669641 1_555
Al13 Al33 2.825088 1_545
Al13 Al18 2.825091 1_545
Al13 Al17 2.825120 1_555
Al13 Al22 2.825120 1_555
Al13 Al4 2.832336 1_556
Al13 Al15 2.832347 1_645
Al14 V2 2.541188 1_566
Al14 V0 2.541259 1_566
Al14 Al18 2.669644 1_555
Al14 Al35 2.669682 1_555
Al14 Al25 2.825099 1_565
Al14 Al38 2.825099 1_556
Al14 Al16 2.825155 1_565
Al14 Al24 2.825155 1_556
Al14 Al9 2.832336 1_556
Al14 Al6 2.832336 1_565
Al14 Al5 2.832371 1_456
Al14 Al8 2.832371 1_465
Al15 V3 2.541221 1_556
Al15 V1 2.541221 1_565
Al15 Al29 2.669632 1_555
Al15 Al26 2.669633 1_555
Al15 Al19 2.825083 1_455
Al15 Al33 2.825083 1_455
Al15 Al20 2.825120 1_555
Al15 Al21 2.825120 1_555
Al16 Al39 2.638865 1_555
Al16 Al25 2.695520 1_555
Al16 Al26 2.695526 1_555
Al16 V0 2.808397 1_556
Al16 Al8 2.825150 1_455
Al16 Al36 2.924982 1_455
Al16 Al35 2.924990 1_545
Al16 Al2 3.041812 1_555
Al16 Al3 3.041821 1_555
Al17 Al32 2.638842 1_555
Al17 Al7 2.669632 1_555
Al17 Al36 2.695525 1_555
Al17 Al22 2.695528 1_555
Al17 V1 2.808365 1_655
Al17 Al28 2.924946 1_555
Al17 Al39 2.924952 1_655
Al17 Al2 3.041842 1_655
Al18 Al35 2.638855 1_555
Al18 Al33 2.695512 1_555
Al18 Al19 2.695512 1_555
Al18 V2 2.808362 1_566
Al18 Al38 2.924960 1_556
Al18 Al25 2.924961 1_565
Al18 Al3 3.041842 1_565
Al19 Al36 2.638866 1_555
Al19 Al8 2.669640 1_555
Al19 Al33 2.695507 1_555
Al19 V3 2.808354 1_656
Al19 Al26 2.924952 1_655
Al19 Al37 2.924960 1_556
Al19 Al2 3.041843 1_655
Al20 Al31 2.638847 1_555
Al20 Al9 2.669632 1_555
Al20 Al21 2.695533 1_555
Al20 Al35 2.695536 1_555
Al20 V1 2.808365 1_565
Al20 Al29 2.924946 1_555
Al20 Al39 2.924961 1_565
Al20 Al3 3.041842 1_565
Al21 Al22 2.638847 1_555
Al21 Al6 2.669632 1_555
Al21 Al35 2.695536 1_555
Al21 V3 2.808364 1_556
Al21 Al26 2.924946 1_555
Al21 Al30 2.924960 1_556
Al22 Al6 2.669641 1_555
Al22 Al36 2.695520 1_555
Al22 V2 2.808369 1_556
Al22 Al4 2.825099 1_556
Al22 Al27 2.924960 1_556
Al22 Al25 2.924962 1_555
Al23 Al27 2.638855 1_555
Al23 Al4 2.669682 1_555
Al23 Al28 2.695536 1_555
Al23 Al37 2.695536 1_555
Al23 V0 2.808393 1_655
Al23 Al8 2.825155 1_554
Al23 Al5 2.825155 1_545
Al23 Al36 2.924990 1_554
Al23 Al34 2.924990 1_545
Al23 Al3 3.041817 1_555
Al24 Al30 2.638866 1_555
Al24 Al38 2.695520 1_555
Al24 Al29 2.695525 1_555
Al24 V0 2.808397 1_565
Al24 Al5 2.825150 1_455
Al24 Al34 2.924982 1_455
Al24 Al35 2.924990 1_554
Al25 Al28 2.638847 1_555
Al25 Al26 2.695528 1_555
Al25 V2 2.808369 1_556
Al25 Al6 2.825120 1_555
Al25 Al3 3.041838 1_555
Al26 Al29 2.638842 1_555
Al26 V3 2.808364 1_556
Al26 Al8 2.825104 1_455
Al26 Al6 2.825120 1_555
Al27 Al4 2.669644 1_555
Al27 Al39 2.695512 1_555
Al27 Al30 2.695512 1_555
Al27 V2 2.808362 1_555
Al27 Al9 2.825091 1_545
Al27 Al6 2.825092 1_554
Al27 Al31 2.924961 1_545
Al27 Al3 3.041842 1_555
Al28 Al37 2.695533 1_555
Al28 V1 2.808365 1_655
Al28 Al5 2.825104 1_545
Al28 Al7 2.825120 1_555
Al28 Al33 2.924961 1_545
Al28 Al3 3.041842 1_555
Al29 Al38 2.695528 1_555
Al29 V1 2.808365 1_565
Al29 Al5 2.825104 1_455
Al29 Al9 2.825120 1_555
Al29 Al33 2.924952 1_455
Al30 Al39 2.695507 1_555
Al30 V3 2.808354 1_555
Al30 Al7 2.825083 1_455
Al30 Al6 2.825088 1_554
Al30 Al32 2.924952 1_455
Al31 Al9 2.669641 1_555
Al31 Al34 2.695520 1_555
Al31 Al32 2.695528 1_555
Al31 V2 2.808369 1_565
Al31 Al4 2.825099 1_565
Al31 Al38 2.924962 1_555
Al32 Al7 2.669633 1_555
Al32 Al34 2.695526 1_555
Al32 V3 2.808364 1_655
Al32 Al37 2.924946 1_555
Al33 Al34 2.638865 1_555
Al33 Al5 2.669639 1_555
Al33 V1 2.808354 1_665
Al34 Al5 2.669690 1_555
Al34 V0 2.808397 1_665
Al34 Al4 2.825155 1_565
Al35 V0 2.808393 1_566
Al36 Al8 2.669690 1_555
Al36 V0 2.808397 1_656
Al36 Al4 2.825155 1_556
Al37 Al38 2.638847 1_555
Al37 V3 2.808364 1_655
Al37 Al8 2.825104 1_554
Al37 Al7 2.825120 1_555
Al38 V2 2.808369 1_565
Al38 Al9 2.825120 1_555
Al39 V1 2.808354 1_555
Al39 Al7 2.825083 1_455
Al39 Al9 2.825088 1_545
