# generated using pymatgen
data_Cs3B12AsF18
_symmetry_space_group_name_H-M   'P 1'
_cell_length_a   14.30553590
_cell_length_b   14.30553590
_cell_length_c   14.30553590
_cell_angle_alpha   109.47122063
_cell_angle_beta   109.47122063
_cell_angle_gamma   109.47122063
_symmetry_Int_Tables_number   1
_chemical_formula_structural   Cs3B12AsF18
_chemical_formula_sum   'Cs12 B48 As4 F72'
_cell_volume   2253.67093369
_cell_formula_units_Z   4
loop_
 _symmetry_equiv_pos_site_id
 _symmetry_equiv_pos_as_xyz
  1  'x, y, z'
loop_
 _atom_site_type_symbol
 _atom_site_label
 _atom_site_symmetry_multiplicity
 _atom_site_fract_x
 _atom_site_fract_y
 _atom_site_fract_z
 _atom_site_occupancy
  Cs  Cs0  1  0.96800200  0.21800200  0.75000000  1
  Cs  Cs1  1  0.53199800  0.28199800  0.25000000  1
  Cs  Cs2  1  0.21800200  0.75000000  0.96800200  1
  Cs  Cs3  1  0.28199800  0.25000000  0.53199800  1
  Cs  Cs4  1  0.75000000  0.96800200  0.21800200  1
  Cs  Cs5  1  0.25000000  0.53199800  0.28199800  1
  Cs  Cs6  1  0.03199800  0.78199800  0.25000000  1
  Cs  Cs7  1  0.46800200  0.71800200  0.75000000  1
  Cs  Cs8  1  0.78199800  0.25000000  0.03199800  1
  Cs  Cs9  1  0.71800200  0.75000000  0.46800200  1
  Cs  Cs10  1  0.25000000  0.03199800  0.78199800  1
  Cs  Cs11  1  0.75000000  0.46800200  0.71800200  1
  B  B0  1  0.93974600  0.05884900  0.06823500  1
  B  B1  1  0.00938600  0.44115100  0.38089700  1
  B  B2  1  0.56025400  0.62848900  0.11910300  1
  B  B3  1  0.49061400  0.87151100  0.43176500  1
  B  B4  1  0.05884900  0.06823500  0.93974600  1
  B  B5  1  0.44115100  0.38089700  0.00938600  1
  B  B6  1  0.62848900  0.11910300  0.56025400  1
  B  B7  1  0.87151100  0.43176500  0.49061400  1
  B  B8  1  0.06823500  0.93974600  0.05884900  1
  B  B9  1  0.38089700  0.00938600  0.44115100  1
  B  B10  1  0.11910300  0.56025400  0.62848900  1
  B  B11  1  0.43176500  0.49061400  0.87151100  1
  B  B12  1  0.06025400  0.94115100  0.93176500  1
  B  B13  1  0.99061400  0.55884900  0.61910300  1
  B  B14  1  0.43974600  0.37151100  0.88089700  1
  B  B15  1  0.50938600  0.12848900  0.56823500  1
  B  B16  1  0.94115100  0.93176500  0.06025400  1
  B  B17  1  0.55884900  0.61910300  0.99061400  1
  B  B18  1  0.37151100  0.88089700  0.43974600  1
  B  B19  1  0.12848900  0.56823500  0.50938600  1
  B  B20  1  0.93176500  0.06025400  0.94115100  1
  B  B21  1  0.61910300  0.99061400  0.55884900  1
  B  B22  1  0.88089700  0.43974600  0.37151100  1
  B  B23  1  0.56823500  0.50938600  0.12848900  1
  B  B24  1  0.56704400  0.49419700  0.92035500  1
  B  B25  1  0.42615800  0.00580300  0.57284600  1
  B  B26  1  0.93295600  0.85331200  0.92715400  1
  B  B27  1  0.07384200  0.64668800  0.57964500  1
  B  B28  1  0.49419700  0.92035500  0.56704400  1
  B  B29  1  0.00580300  0.57284600  0.42615800  1
  B  B30  1  0.85331200  0.92715400  0.93295600  1
  B  B31  1  0.64668800  0.57964500  0.07384200  1
  B  B32  1  0.92035500  0.56704400  0.49419700  1
  B  B33  1  0.57284600  0.42615800  0.00580300  1
  B  B34  1  0.92715400  0.93295600  0.85331200  1
  B  B35  1  0.57964500  0.07384200  0.64668800  1
  B  B36  1  0.43295600  0.50580300  0.07964500  1
  B  B37  1  0.57384200  0.99419700  0.42715400  1
  B  B38  1  0.06704400  0.14668800  0.07284600  1
  B  B39  1  0.92615800  0.35331200  0.42035500  1
  B  B40  1  0.50580300  0.07964500  0.43295600  1
  B  B41  1  0.99419700  0.42715400  0.57384200  1
  B  B42  1  0.14668800  0.07284600  0.06704400  1
  B  B43  1  0.35331200  0.42035500  0.92615800  1
  B  B44  1  0.07964500  0.43295600  0.50580300  1
  B  B45  1  0.42715400  0.57384200  0.99419700  1
  B  B46  1  0.07284600  0.06704400  0.14668800  1
  B  B47  1  0.42035500  0.92615800  0.35331200  1
  As  As0  1  0.50000000  0.00000000  0.00000000  1
  As  As1  1  0.00000000  0.50000000  0.00000000  1
  As  As2  1  0.00000000  0.00000000  0.50000000  1
  As  As3  1  0.50000000  0.50000000  0.50000000  1
  F  F0  1  0.88810700  0.10546100  0.12253400  1
  F  F1  1  0.01707300  0.39453900  0.28264500  1
  F  F2  1  0.61189300  0.73442800  0.21735500  1
  F  F3  1  0.48292700  0.76557200  0.37746600  1
  F  F4  1  0.10546100  0.12253400  0.88810700  1
  F  F5  1  0.39453900  0.28264500  0.01707300  1
  F  F6  1  0.73442800  0.21735500  0.61189300  1
  F  F7  1  0.76557200  0.37746600  0.48292700  1
  F  F8  1  0.12253400  0.88810700  0.10546100  1
  F  F9  1  0.28264500  0.01707300  0.39453900  1
  F  F10  1  0.21735500  0.61189300  0.73442800  1
  F  F11  1  0.37746600  0.48292700  0.76557200  1
  F  F12  1  0.11189300  0.89453900  0.87746600  1
  F  F13  1  0.98292700  0.60546100  0.71735500  1
  F  F14  1  0.38810700  0.26557200  0.78264500  1
  F  F15  1  0.51707300  0.23442800  0.62253400  1
  F  F16  1  0.89453900  0.87746600  0.11189300  1
  F  F17  1  0.60546100  0.71735500  0.98292700  1
  F  F18  1  0.26557200  0.78264500  0.38810700  1
  F  F19  1  0.23442800  0.62253400  0.51707300  1
  F  F20  1  0.87746600  0.11189300  0.89453900  1
  F  F21  1  0.71735500  0.98292700  0.60546100  1
  F  F22  1  0.78264500  0.38810700  0.26557200  1
  F  F23  1  0.62253400  0.51707300  0.23442800  1
  F  F24  1  0.62036700  0.48935100  0.85479000  1
  F  F25  1  0.36543900  0.01064900  0.63101600  1
  F  F26  1  0.87963300  0.73442300  0.86898400  1
  F  F27  1  0.13456100  0.76557700  0.64521000  1
  F  F28  1  0.48935100  0.85479000  0.62036700  1
  F  F29  1  0.01064900  0.63101600  0.36543900  1
  F  F30  1  0.73442300  0.86898400  0.87963300  1
  F  F31  1  0.76557700  0.64521000  0.13456100  1
  F  F32  1  0.85479000  0.62036700  0.48935100  1
  F  F33  1  0.63101600  0.36543900  0.01064900  1
  F  F34  1  0.86898400  0.87963300  0.73442300  1
  F  F35  1  0.64521000  0.13456100  0.76557700  1
  F  F36  1  0.37963300  0.51064900  0.14521000  1
  F  F37  1  0.63456100  0.98935100  0.36898400  1
  F  F38  1  0.12036700  0.26557700  0.13101600  1
  F  F39  1  0.86543900  0.23442300  0.35479000  1
  F  F40  1  0.51064900  0.14521000  0.37963300  1
  F  F41  1  0.98935100  0.36898400  0.63456100  1
  F  F42  1  0.26557700  0.13101600  0.12036700  1
  F  F43  1  0.23442300  0.35479000  0.86543900  1
  F  F44  1  0.14521000  0.37963300  0.51064900  1
  F  F45  1  0.36898400  0.63456100  0.98935100  1
  F  F46  1  0.13101600  0.12036700  0.26557700  1
  F  F47  1  0.35479000  0.86543900  0.23442300  1
  F  F48  1  0.02876300  0.48794900  0.88610400  1
  F  F49  1  0.39815500  0.01205100  0.04081400  1
  F  F50  1  0.47123700  0.35734100  0.45918600  1
  F  F51  1  0.10184500  0.14265900  0.61389600  1
  F  F52  1  0.48794900  0.88610400  0.02876300  1
  F  F53  1  0.01205100  0.04081400  0.39815500  1
  F  F54  1  0.35734100  0.45918600  0.47123700  1
  F  F55  1  0.14265900  0.61389600  0.10184500  1
  F  F56  1  0.88610400  0.02876300  0.48794900  1
  F  F57  1  0.04081400  0.39815500  0.01205100  1
  F  F58  1  0.45918600  0.47123700  0.35734100  1
  F  F59  1  0.61389600  0.10184500  0.14265900  1
  F  F60  1  0.97123700  0.51205100  0.11389600  1
  F  F61  1  0.60184500  0.98794900  0.95918600  1
  F  F62  1  0.52876300  0.64265900  0.54081400  1
  F  F63  1  0.89815500  0.85734100  0.38610400  1
  F  F64  1  0.51205100  0.11389600  0.97123700  1
  F  F65  1  0.98794900  0.95918600  0.60184500  1
  F  F66  1  0.64265900  0.54081400  0.52876300  1
  F  F67  1  0.85734100  0.38610400  0.89815500  1
  F  F68  1  0.11389600  0.97123700  0.51205100  1
  F  F69  1  0.95918600  0.60184500  0.98794900  1
  F  F70  1  0.54081400  0.52876300  0.64265900  1
  F  F71  1  0.38610400  0.89815500  0.85734100  1
loop_
_geom_bond_atom_site_label_1
_geom_bond_atom_site_label_2
_geom_bond_distance
_geom_bond_site_symmetry_2
Cs0 F41 3.124085 1_555
Cs0 F43 3.124085 1_655
Cs0 F6 3.261066 1_555
Cs0 F4 3.261070 1_655
Cs0 F21 3.290002 1_545
Cs0 F20 3.290010 1_555
Cs0 F56 3.308552 1_555
Cs0 F57 3.308552 1_656
Cs0 F51 3.328786 1_655
Cs0 F48 3.328786 1_655
Cs1 F42 3.124085 1_555
Cs1 F40 3.124085 1_555
Cs1 F7 3.261062 1_555
Cs1 F5 3.261062 1_555
Cs1 F23 3.290002 1_555
Cs1 F22 3.290003 1_555
Cs1 F58 3.308552 1_555
Cs1 F59 3.308552 1_555
Cs1 F50 3.328786 1_555
Cs1 F49 3.328786 1_555
Cs2 F45 3.124085 1_555
Cs2 F47 3.124085 1_556
Cs2 F10 3.261066 1_555
Cs2 F8 3.261070 1_556
Cs2 F13 3.290002 1_455
Cs2 F12 3.290010 1_555
Cs2 F48 3.308552 1_555
Cs2 F49 3.308552 1_566
Cs2 F55 3.328786 1_556
Cs2 F52 3.328786 1_556
Cs3 F46 3.124085 1_555
Cs3 F44 3.124085 1_555
Cs3 F9 3.261062 1_555
Cs3 F11 3.261062 1_555
Cs3 F15 3.290002 1_555
Cs3 F14 3.290003 1_555
Cs3 F50 3.308552 1_555
Cs3 F51 3.308552 1_555
Cs3 F54 3.328786 1_555
Cs3 F53 3.328786 1_555
Cs4 F37 3.124085 1_555
Cs4 F39 3.124085 1_565
Cs4 F2 3.261066 1_555
Cs4 F0 3.261070 1_565
Cs4 F17 3.290002 1_554
Cs4 F16 3.290010 1_555
Cs4 F52 3.308552 1_555
Cs4 F53 3.308552 1_665
Cs4 F59 3.328786 1_565
Cs4 F56 3.328786 1_565
Cs5 F38 3.124085 1_555
Cs5 F36 3.124085 1_555
Cs5 F1 3.261062 1_555
Cs5 F3 3.261062 1_555
Cs5 F19 3.290002 1_555
Cs5 F18 3.290003 1_555
Cs5 F54 3.308552 1_555
Cs5 F55 3.308552 1_555
Cs5 F58 3.328786 1_555
Cs5 F57 3.328786 1_555
Cs6 F29 3.124085 1_555
Cs6 F31 3.124085 1_455
Cs6 F18 3.261066 1_555
Cs6 F16 3.261070 1_455
Cs6 F9 3.290002 1_565
Cs6 F8 3.290010 1_555
Cs6 F68 3.308552 1_555
Cs6 F69 3.308552 1_454
Cs6 F60 3.328786 1_455
Cs6 F63 3.328786 1_455
Cs7 F28 3.124085 1_555
Cs7 F30 3.124085 1_555
Cs7 F19 3.261062 1_555
Cs7 F17 3.261062 1_555
Cs7 F11 3.290002 1_555
Cs7 F10 3.290003 1_555
Cs7 F71 3.308552 1_555
Cs7 F70 3.308552 1_555
Cs7 F61 3.328786 1_555
Cs7 F62 3.328786 1_555
Cs8 F33 3.124085 1_555
Cs8 F35 3.124085 1_554
Cs8 F22 3.261066 1_555
Cs8 F20 3.261070 1_554
Cs8 F1 3.290002 1_655
Cs8 F0 3.290010 1_555
Cs8 F61 3.308552 1_544
Cs8 F60 3.308552 1_555
Cs8 F64 3.328786 1_554
Cs8 F67 3.328786 1_554
Cs9 F32 3.124085 1_555
Cs9 F34 3.124085 1_555
Cs9 F23 3.261062 1_555
Cs9 F21 3.261062 1_555
Cs9 F3 3.290002 1_555
Cs9 F2 3.290003 1_555
Cs9 F63 3.308552 1_555
Cs9 F62 3.308552 1_555
Cs9 F65 3.328786 1_555
Cs9 F66 3.328786 1_555
Cs10 F25 3.124085 1_555
Cs10 F27 3.124085 1_545
Cs10 F14 3.261066 1_555
Cs10 F12 3.261070 1_545
Cs10 F5 3.290002 1_556
Cs10 F4 3.290010 1_555
Cs10 F64 3.308552 1_555
Cs10 F65 3.308552 1_445
Cs10 F68 3.328786 1_545
Cs10 F71 3.328786 1_545
Cs11 F24 3.124085 1_555
Cs11 F26 3.124085 1_555
Cs11 F15 3.261062 1_555
Cs11 F13 3.261062 1_555
Cs11 F7 3.290002 1_555
Cs11 F6 3.290003 1_555
Cs11 F67 3.308552 1_555
Cs11 F66 3.308552 1_555
Cs11 F69 3.328786 1_555
Cs11 F70 3.328786 1_555
B0 F0 1.399772 1_555
B1 F1 1.399784 1_555
B2 F2 1.399787 1_555
B3 F3 1.399784 1_555
B4 F4 1.399772 1_555
B5 F5 1.399784 1_555
B6 F6 1.399787 1_555
B7 F7 1.399784 1_555
B8 F8 1.399772 1_555
B9 F9 1.399784 1_555
B10 F10 1.399787 1_555
B11 F11 1.399784 1_555
B12 F12 1.399772 1_555
B13 F13 1.399784 1_555
B14 F14 1.399787 1_555
B15 F15 1.399784 1_555
B16 F16 1.399772 1_555
B17 F17 1.399784 1_555
B18 F18 1.399787 1_555
B19 F19 1.399784 1_555
B20 F20 1.399772 1_555
B21 F21 1.399784 1_555
B22 F22 1.399787 1_555
B23 F23 1.399784 1_555
B24 F24 1.391157 1_555
B25 F25 1.391168 1_555
B26 F26 1.391169 1_555
B27 F27 1.391168 1_555
B28 F28 1.391157 1_555
B29 F29 1.391168 1_555
B30 F30 1.391169 1_555
B31 F31 1.391168 1_555
B32 F32 1.391157 1_555
B33 F33 1.391168 1_555
B34 F34 1.391169 1_555
B35 F35 1.391168 1_555
B36 F36 1.391157 1_555
B37 F37 1.391168 1_555
B38 F38 1.391169 1_555
B39 F39 1.391168 1_555
B40 F40 1.391157 1_555
B41 F41 1.391168 1_555
B42 F42 1.391169 1_555
B43 F43 1.391168 1_555
B44 F44 1.391157 1_555
B45 F45 1.391168 1_555
B46 F46 1.391169 1_555
B47 F47 1.391168 1_555
As0 F52 1.777855 1_545
As0 F71 1.777855 1_544
As0 F64 1.777855 1_554
As0 F61 1.777855 1_544
As0 F59 1.777855 1_555
As0 F49 1.777855 1_555
As1 F67 1.777855 1_454
As1 F60 1.777855 1_455
As1 F48 1.777855 1_554
As1 F69 1.777855 1_454
As1 F57 1.777855 1_555
As1 F55 1.777855 1_555
As2 F68 1.777855 1_545
As2 F63 1.777855 1_445
As2 F65 1.777855 1_445
As2 F56 1.777855 1_455
As2 F51 1.777855 1_555
As2 F53 1.777855 1_555
As3 F50 1.777855 1_555
As3 F62 1.777855 1_555
As3 F54 1.777855 1_555
As3 F66 1.777855 1_555
As3 F70 1.777855 1_555
As3 F58 1.777855 1_555
