# generated using pymatgen
data_Nd2CoSb4
_symmetry_space_group_name_H-M   'P 1'
_cell_length_a   4.39080300
_cell_length_b   4.39080300
_cell_length_c   9.65023800
_cell_angle_alpha   90.00000000
_cell_angle_beta   90.00000000
_cell_angle_gamma   90.00000000
_symmetry_Int_Tables_number   1
_chemical_formula_structural   Nd2CoSb4
_chemical_formula_sum   'Nd2 Co1 Sb4'
_cell_volume   186.04839544
_cell_formula_units_Z   1
loop_
 _symmetry_equiv_pos_site_id
 _symmetry_equiv_pos_as_xyz
  1  'x, y, z'
loop_
 _atom_site_type_symbol
 _atom_site_label
 _atom_site_symmetry_multiplicity
 _atom_site_fract_x
 _atom_site_fract_y
 _atom_site_fract_z
 _atom_site_occupancy
  Nd  Nd0  1  0.50000000  0.00000000  0.23793800  1
  Nd  Nd1  1  0.00000000  0.50000000  0.76206200  1
  Co  Co0  1  0.50000000  0.50000000  0.00000000  1
  Sb  Sb0  1  0.50000000  0.00000000  0.88041200  1
  Sb  Sb1  1  0.00000000  0.50000000  0.11958800  1
  Sb  Sb2  1  0.50000000  0.50000000  0.50000000  1
  Sb  Sb3  1  0.00000000  0.00000000  0.50000000  1
loop_
_geom_bond_atom_site_label_1
_geom_bond_atom_site_label_2
_geom_bond_distance
_geom_bond_site_symmetry_2
Nd0 Sb1 3.308169 1_655
Nd0 Sb1 3.308169 1_545
Nd0 Sb1 3.308169 1_645
Nd0 Sb1 3.308169 1_555
Nd0 Sb3 3.348945 1_655
Nd0 Sb2 3.348945 1_555
Nd0 Sb3 3.348945 1_555
Nd0 Sb2 3.348945 1_545
Nd0 Sb0 3.450211 1_554
Nd1 Sb0 3.308169 1_565
Nd1 Sb0 3.308169 1_455
Nd1 Sb0 3.308169 1_465
Nd1 Sb0 3.308169 1_555
Nd1 Sb3 3.348945 1_555
Nd1 Sb2 3.348945 1_555
Nd1 Sb3 3.348945 1_565
Nd1 Sb2 3.348945 1_455
Nd1 Sb1 3.450211 1_556
Co0 Sb1 2.480247 1_655
Co0 Sb1 2.480247 1_555
Co0 Sb0 2.480247 1_554
Co0 Sb0 2.480247 1_564
Co0 Nd0 3.176811 1_565
Co0 Nd0 3.176811 1_555
Co0 Nd1 3.176811 1_554
Co0 Nd1 3.176811 1_654
Sb2 Sb3 3.104767 1_565
Sb2 Sb3 3.104767 1_655
Sb2 Sb3 3.104767 1_665
Sb2 Sb3 3.104767 1_555
