# generated using pymatgen
data_Cd2AsHO5
_symmetry_space_group_name_H-M   'P 1'
_cell_length_a   14.39857100
_cell_length_b   10.85766900
_cell_length_c   13.32627715
_cell_angle_alpha   71.54965905
_cell_angle_beta   90.00000000
_cell_angle_gamma   90.00000000
_symmetry_Int_Tables_number   1
_chemical_formula_structural   Cd2AsHO5
_chemical_formula_sum   'Cd32 As16 H16 O80'
_cell_volume   1976.27409744
_cell_formula_units_Z   16
loop_
 _symmetry_equiv_pos_site_id
 _symmetry_equiv_pos_as_xyz
  1  'x, y, z'
loop_
 _atom_site_type_symbol
 _atom_site_label
 _atom_site_symmetry_multiplicity
 _atom_site_fract_x
 _atom_site_fract_y
 _atom_site_fract_z
 _atom_site_occupancy
  Cd  Cd0  1  0.01910300  0.81118000  0.69056000  1
  Cd  Cd1  1  0.51910300  0.18882000  0.80944000  1
  Cd  Cd2  1  0.98089700  0.18882000  0.30944000  1
  Cd  Cd3  1  0.48089700  0.81118000  0.19056000  1
  Cd  Cd4  1  0.50475900  0.78978700  0.69858100  1
  Cd  Cd5  1  0.00475900  0.21021300  0.80141900  1
  Cd  Cd6  1  0.49524100  0.21021300  0.30141900  1
  Cd  Cd7  1  0.99524100  0.78978700  0.19858100  1
  Cd  Cd8  1  0.74817500  0.70499500  0.80113500  1
  Cd  Cd9  1  0.24817500  0.29500500  0.69886500  1
  Cd  Cd10  1  0.25182500  0.29500500  0.19886500  1
  Cd  Cd11  1  0.75182500  0.70499500  0.30113500  1
  Cd  Cd12  1  0.23333900  0.69370000  0.81479800  1
  Cd  Cd13  1  0.73333900  0.30630000  0.68520200  1
  Cd  Cd14  1  0.76666100  0.30630000  0.18520200  1
  Cd  Cd15  1  0.26666100  0.69370000  0.31479800  1
  Cd  Cd16  1  0.42818300  0.53360700  0.59865000  1
  Cd  Cd17  1  0.92818300  0.46639300  0.90135000  1
  Cd  Cd18  1  0.57181700  0.46639300  0.40135000  1
  Cd  Cd19  1  0.07181700  0.53360700  0.09865000  1
  Cd  Cd20  1  0.92308900  0.55601900  0.58292400  1
  Cd  Cd21  1  0.42308900  0.44398100  0.91707600  1
  Cd  Cd22  1  0.07691100  0.44398100  0.41707600  1
  Cd  Cd23  1  0.57691100  0.55601900  0.08292400  1
  Cd  Cd24  1  0.82471200  0.96528300  0.89007400  1
  Cd  Cd25  1  0.32471200  0.03471700  0.60992600  1
  Cd  Cd26  1  0.17528800  0.03471700  0.10992600  1
  Cd  Cd27  1  0.67528800  0.96528300  0.39007400  1
  Cd  Cd28  1  0.32428900  0.95151500  0.92593700  1
  Cd  Cd29  1  0.82428900  0.04848500  0.57406300  1
  Cd  Cd30  1  0.67571100  0.04848500  0.07406300  1
  Cd  Cd31  1  0.17571100  0.95151500  0.42593700  1
  As  As0  1  0.67505200  0.62153900  0.57597000  1
  As  As1  1  0.17505200  0.37846100  0.92403000  1
  As  As2  1  0.32494800  0.37846100  0.42403000  1
  As  As3  1  0.82494800  0.62153900  0.07597000  1
  As  As4  1  0.17335300  0.61712000  0.57588800  1
  As  As5  1  0.67335300  0.38288000  0.92411200  1
  As  As6  1  0.82664700  0.38288000  0.42411200  1
  As  As7  1  0.32664700  0.61712000  0.07588800  1
  As  As8  1  0.07844000  0.88516000  0.92575300  1
  As  As9  1  0.57844000  0.11484000  0.57424700  1
  As  As10  1  0.92156000  0.11484000  0.07424700  1
  As  As11  1  0.42156000  0.88516000  0.42575300  1
  As  As12  1  0.57427300  0.87906000  0.92420900  1
  As  As13  1  0.07427300  0.12094000  0.57579100  1
  As  As14  1  0.42572700  0.12094000  0.07579100  1
  As  As15  1  0.92572700  0.87906000  0.42420900  1
  H  H0  1  0.53324700  0.54091800  0.76064200  1
  H  H1  1  0.03324700  0.45908200  0.73935800  1
  H  H2  1  0.46675300  0.45908200  0.23935800  1
  H  H3  1  0.96675300  0.54091800  0.26064200  1
  H  H4  1  0.33637400  0.78315500  0.64324500  1
  H  H5  1  0.83637400  0.21684500  0.85675500  1
  H  H6  1  0.66362600  0.21684500  0.35675500  1
  H  H7  1  0.16362600  0.78315500  0.14324500  1
  H  H8  1  0.71530000  0.95505600  0.72894600  1
  H  H9  1  0.21530000  0.04494400  0.77105400  1
  H  H10  1  0.28470000  0.04494400  0.27105400  1
  H  H11  1  0.78470000  0.95505600  0.22894600  1
  H  H12  1  0.91625600  0.72021400  0.86227000  1
  H  H13  1  0.41625600  0.27978600  0.63773000  1
  H  H14  1  0.08374400  0.27978600  0.13773000  1
  H  H15  1  0.58374400  0.72021400  0.36227000  1
  O  O0  1  0.08138300  0.53055700  0.55007300  1
  O  O1  1  0.58138300  0.46944300  0.94992700  1
  O  O2  1  0.91861700  0.46944300  0.44992700  1
  O  O3  1  0.41861700  0.53055700  0.05007300  1
  O  O4  1  0.58827100  0.51952000  0.55904000  1
  O  O5  1  0.08827100  0.48048000  0.94096000  1
  O  O6  1  0.41172900  0.48048000  0.44096000  1
  O  O7  1  0.91172900  0.51952000  0.05904000  1
  O  O8  1  0.66169700  0.98743200  0.92699700  1
  O  O9  1  0.16169700  0.01256800  0.57300300  1
  O  O10  1  0.33830300  0.01256800  0.07300300  1
  O  O11  1  0.83830300  0.98743200  0.42699700  1
  O  O12  1  0.16664100  0.97413100  0.95745600  1
  O  O13  1  0.66664100  0.02586900  0.54254400  1
  O  O14  1  0.83335900  0.02586900  0.04254400  1
  O  O15  1  0.33335900  0.97413100  0.45745600  1
  O  O16  1  0.45475500  0.75746800  0.53414700  1
  O  O17  1  0.95475500  0.24253200  0.96585300  1
  O  O18  1  0.54524500  0.24253200  0.46585300  1
  O  O19  1  0.04524500  0.75746800  0.03414700  1
  O  O20  1  0.94431000  0.77057000  0.54946800  1
  O  O21  1  0.44431000  0.22943000  0.95053200  1
  O  O22  1  0.05569000  0.22943000  0.45053200  1
  O  O23  1  0.55569000  0.77057000  0.04946800  1
  O  O24  1  0.79801100  0.74223400  0.96017600  1
  O  O25  1  0.29801100  0.25776600  0.53982400  1
  O  O26  1  0.20198900  0.25776600  0.03982400  1
  O  O27  1  0.70198900  0.74223400  0.46017600  1
  O  O28  1  0.29500800  0.73846300  0.96144700  1
  O  O29  1  0.79500800  0.26153700  0.53855300  1
  O  O30  1  0.70499200  0.26153700  0.03855300  1
  O  O31  1  0.20499200  0.73846300  0.46144700  1
  O  O32  1  0.64739600  0.68926000  0.67313400  1
  O  O33  1  0.14739600  0.31074000  0.82686600  1
  O  O34  1  0.35260400  0.31074000  0.32686600  1
  O  O35  1  0.85260400  0.68926000  0.17313400  1
  O  O36  1  0.14043500  0.68139600  0.67381900  1
  O  O37  1  0.64043500  0.31860400  0.82618100  1
  O  O38  1  0.85956500  0.31860400  0.32618100  1
  O  O39  1  0.35956500  0.68139600  0.17381900  1
  O  O40  1  0.11629400  0.83188600  0.82257400  1
  O  O41  1  0.61629400  0.16811400  0.67742600  1
  O  O42  1  0.88370600  0.16811400  0.17742600  1
  O  O43  1  0.38370600  0.83188600  0.32257400  1
  O  O44  1  0.59873300  0.79516300  0.83768100  1
  O  O45  1  0.09873300  0.20483700  0.66231900  1
  O  O46  1  0.40126700  0.20483700  0.16231900  1
  O  O47  1  0.90126700  0.79516300  0.33768100  1
  O  O48  1  0.77044000  0.52031200  0.61985300  1
  O  O49  1  0.27044000  0.47968800  0.88014700  1
  O  O50  1  0.22956000  0.47968800  0.38014700  1
  O  O51  1  0.72956000  0.52031200  0.11985300  1
  O  O52  1  0.26664200  0.51532700  0.61957500  1
  O  O53  1  0.76664200  0.48467300  0.88042500  1
  O  O54  1  0.73335800  0.48467300  0.38042500  1
  O  O55  1  0.23335800  0.51532700  0.11957500  1
  O  O56  1  0.47692700  0.97584400  0.88248500  1
  O  O57  1  0.97692700  0.02415600  0.61751500  1
  O  O58  1  0.52307300  0.02415600  0.11751500  1
  O  O59  1  0.02307300  0.97584400  0.38248500  1
  O  O60  1  0.98584300  0.98750800  0.87698300  1
  O  O61  1  0.48584300  0.01249200  0.62301700  1
  O  O62  1  0.01415700  0.01249200  0.12301700  1
  O  O63  1  0.51415700  0.98750800  0.37698300  1
  O  O64  1  0.46821300  0.56788600  0.75525900  1
  O  O65  1  0.96821300  0.43211400  0.74474100  1
  O  O66  1  0.53178700  0.43211400  0.24474100  1
  O  O67  1  0.03178700  0.56788600  0.25525900  1
  O  O68  1  0.34167600  0.81372900  0.70455300  1
  O  O69  1  0.84167600  0.18627100  0.79544700  1
  O  O70  1  0.65832400  0.18627100  0.29544700  1
  O  O71  1  0.15832400  0.81372900  0.20455300  1
  O  O72  1  0.77979500  0.92545500  0.73671100  1
  O  O73  1  0.27979500  0.07454500  0.76328900  1
  O  O74  1  0.22020500  0.07454500  0.26328900  1
  O  O75  1  0.72020500  0.92545500  0.23671100  1
  O  O76  1  0.91398300  0.68660300  0.80230700  1
  O  O77  1  0.41398300  0.31339700  0.69769300  1
  O  O78  1  0.08601700  0.31339700  0.19769300  1
  O  O79  1  0.58601700  0.68660300  0.30230700  1
loop_
_geom_bond_atom_site_label_1
_geom_bond_atom_site_label_2
_geom_bond_distance
_geom_bond_site_symmetry_2
Cd0 O76 2.250145 1_455
Cd0 O57 2.288853 1_465
Cd0 O36 2.299240 1_555
Cd0 O40 2.313919 1_555
Cd0 O20 2.326841 1_455
Cd1 O77 2.250145 1_555
Cd1 O56 2.288853 1_545
Cd1 O37 2.299240 1_555
Cd1 O41 2.313919 1_555
Cd1 O21 2.326841 1_555
Cd2 O78 2.250145 1_655
Cd2 O59 2.288853 1_645
Cd2 O38 2.299240 1_555
Cd2 O42 2.313919 1_555
Cd2 O22 2.326841 1_655
Cd3 O79 2.250145 1_555
Cd3 O58 2.288853 1_565
Cd3 O39 2.299240 1_555
Cd3 O43 2.313919 1_555
Cd3 O23 2.326841 1_555
Cd4 O44 2.310606 1_555
Cd4 O61 2.322491 1_565
Cd4 O64 2.345290 1_555
Cd4 O68 2.366616 1_555
Cd4 O32 2.399708 1_555
Cd4 O16 2.435159 1_555
Cd5 O45 2.310606 1_555
Cd5 O60 2.322491 1_445
Cd5 O65 2.345290 1_455
Cd5 O69 2.366616 1_455
Cd5 O33 2.399708 1_555
Cd5 O17 2.435159 1_455
Cd6 O46 2.310606 1_555
Cd6 O63 2.322491 1_545
Cd6 O66 2.345290 1_555
Cd6 O70 2.366616 1_555
Cd6 O34 2.399708 1_555
Cd6 O18 2.435159 1_555
Cd7 O47 2.310606 1_555
Cd7 O62 2.322491 1_665
Cd7 O67 2.345290 1_655
Cd7 O71 2.366616 1_655
Cd7 O35 2.399708 1_555
Cd7 O19 2.435159 1_655
Cd8 O32 2.286687 1_555
Cd8 O53 2.304300 1_555
Cd8 O72 2.318037 1_555
Cd8 O24 2.390138 1_555
Cd8 O76 2.395374 1_555
Cd8 O44 2.475377 1_555
Cd9 O33 2.286687 1_555
Cd9 O52 2.304300 1_555
Cd9 O73 2.318037 1_555
Cd9 O25 2.390138 1_555
Cd9 O77 2.395374 1_555
Cd9 O45 2.475377 1_555
Cd10 O34 2.286687 1_555
Cd10 O55 2.304300 1_555
Cd10 O74 2.318037 1_555
Cd10 O26 2.390138 1_555
Cd10 O78 2.395374 1_555
Cd10 O46 2.475377 1_555
Cd11 O35 2.286687 1_555
Cd11 O54 2.304300 1_555
Cd11 O75 2.318037 1_555
Cd11 O27 2.390138 1_555
Cd11 O79 2.395374 1_555
Cd11 O47 2.475377 1_555
Cd12 O68 2.253489 1_555
Cd12 O49 2.272081 1_555
Cd12 O40 2.280450 1_555
Cd12 O28 2.333474 1_555
Cd12 O36 2.344295 1_555
Cd13 O69 2.253489 1_555
Cd13 O48 2.272081 1_555
Cd13 O41 2.280450 1_555
Cd13 O29 2.333474 1_555
Cd13 O37 2.344295 1_555
Cd14 O70 2.253489 1_555
Cd14 O51 2.272081 1_555
Cd14 O42 2.280450 1_555
Cd14 O30 2.333474 1_555
Cd14 O38 2.344295 1_555
Cd15 O71 2.253489 1_555
Cd15 O50 2.272081 1_555
Cd15 O43 2.280450 1_555
Cd15 O31 2.333474 1_555
Cd15 O39 2.344295 1_555
Cd16 O64 2.306086 1_555
Cd16 O16 2.338945 1_555
Cd16 O52 2.343546 1_555
Cd16 O77 2.345869 1_555
Cd16 O6 2.360530 1_555
Cd16 O4 2.380405 1_555
Cd17 O65 2.306086 1_555
Cd17 O17 2.338945 1_555
Cd17 O53 2.343546 1_555
Cd17 O76 2.345869 1_555
Cd17 O7 2.360530 1_556
Cd17 O5 2.380405 1_655
Cd18 O66 2.306086 1_555
Cd18 O18 2.338945 1_555
Cd18 O54 2.343546 1_555
Cd18 O79 2.345869 1_555
Cd18 O4 2.360530 1_555
Cd18 O6 2.380405 1_555
Cd19 O67 2.306086 1_555
Cd19 O19 2.338945 1_555
Cd19 O55 2.343546 1_555
Cd19 O78 2.345869 1_555
Cd19 O5 2.360530 1_554
Cd19 O7 2.380405 1_455
Cd20 O65 2.246305 1_555
Cd20 O20 2.249760 1_555
Cd20 O2 2.254675 1_555
Cd20 O48 2.258897 1_555
Cd20 O0 2.353609 1_655
Cd21 O64 2.246305 1_555
Cd21 O21 2.249760 1_555
Cd21 O3 2.254675 1_556
Cd21 O49 2.258897 1_555
Cd21 O1 2.353609 1_555
Cd22 O67 2.246305 1_555
Cd22 O22 2.249760 1_555
Cd22 O0 2.254675 1_555
Cd22 O50 2.258897 1_555
Cd22 O2 2.353609 1_455
Cd23 O66 2.246305 1_555
Cd23 O23 2.249760 1_555
Cd23 O1 2.254675 1_554
Cd23 O51 2.258897 1_555
Cd23 O3 2.353609 1_555
Cd24 O72 2.311199 1_555
Cd24 O14 2.328669 1_566
Cd24 O60 2.333384 1_555
Cd24 O24 2.335288 1_555
Cd24 O69 2.343472 1_565
Cd24 O8 2.425719 1_555
Cd25 O73 2.311199 1_555
Cd25 O15 2.328669 1_545
Cd25 O61 2.333384 1_555
Cd25 O25 2.335288 1_555
Cd25 O68 2.343472 1_545
Cd25 O9 2.425719 1_555
Cd26 O74 2.311199 1_555
Cd26 O12 2.328669 1_544
Cd26 O62 2.333384 1_555
Cd26 O26 2.335288 1_555
Cd26 O71 2.343472 1_545
Cd26 O10 2.425719 1_555
Cd27 O75 2.311199 1_555
Cd27 O13 2.328669 1_565
Cd27 O63 2.333384 1_555
Cd27 O27 2.335288 1_555
Cd27 O70 2.343472 1_565
Cd27 O11 2.425719 1_555
Cd28 O28 2.249425 1_555
Cd28 O73 2.249488 1_565
Cd28 O56 2.266815 1_555
Cd28 O10 2.267918 1_566
Cd28 O12 2.335483 1_555
Cd29 O29 2.249425 1_555
Cd29 O72 2.249488 1_545
Cd29 O57 2.266815 1_555
Cd29 O11 2.267918 1_545
Cd29 O13 2.335483 1_555
Cd30 O30 2.249425 1_555
Cd30 O75 2.249488 1_545
Cd30 O58 2.266815 1_555
Cd30 O8 2.267918 1_544
Cd30 O14 2.335483 1_555
Cd31 O31 2.249425 1_555
Cd31 O74 2.249488 1_565
Cd31 O59 2.266815 1_555
Cd31 O9 2.267918 1_565
Cd31 O15 2.335483 1_555
As0 O27 1.723063 1_555
As0 O32 1.725820 1_555
As0 O4 1.731290 1_555
As0 O48 1.740551 1_555
As1 O26 1.723063 1_556
As1 O33 1.725820 1_555
As1 O5 1.731290 1_555
As1 O49 1.740551 1_555
As2 O25 1.723063 1_555
As2 O34 1.725820 1_555
As2 O6 1.731290 1_555
As2 O50 1.740551 1_555
As3 O24 1.723063 1_554
As3 O35 1.725820 1_555
As3 O7 1.731290 1_555
As3 O51 1.740551 1_555
As4 O52 1.719728 1_555
As4 O0 1.720456 1_555
As4 O36 1.729555 1_555
As4 O31 1.731295 1_555
As5 O53 1.719728 1_555
As5 O1 1.720456 1_555
As5 O37 1.729555 1_555
As5 O30 1.731295 1_556
As6 O54 1.719728 1_555
As6 O2 1.720456 1_555
As6 O38 1.729555 1_555
As6 O29 1.731295 1_555
As7 O55 1.719728 1_555
As7 O3 1.720456 1_555
As7 O39 1.729555 1_555
As7 O28 1.731295 1_554
As8 O19 1.723243 1_556
As8 O60 1.725614 1_455
As8 O12 1.727087 1_555
As8 O40 1.739448 1_555
As9 O18 1.723243 1_555
As9 O61 1.725614 1_555
As9 O13 1.727087 1_555
As9 O41 1.739448 1_555
As10 O17 1.723243 1_554
As10 O62 1.725614 1_655
As10 O14 1.727087 1_555
As10 O42 1.739448 1_555
As11 O16 1.723243 1_555
As11 O63 1.725614 1_555
As11 O15 1.727087 1_555
As11 O43 1.739448 1_555
As12 O44 1.717065 1_555
As12 O8 1.731510 1_555
As12 O23 1.732317 1_556
As12 O56 1.734419 1_555
As13 O45 1.717065 1_555
As13 O9 1.731510 1_555
As13 O22 1.732317 1_555
As13 O57 1.734419 1_455
As14 O46 1.717065 1_555
As14 O10 1.731510 1_555
As14 O21 1.732317 1_554
As14 O58 1.734419 1_555
As15 O47 1.717065 1_555
As15 O11 1.731510 1_555
As15 O20 1.732317 1_555
As15 O59 1.734419 1_655
H0 O64 0.976948 1_555
H1 O65 0.976948 1_455
H2 O66 0.976948 1_555
H3 O67 0.976948 1_655
H4 O68 0.977342 1_555
H5 O69 0.977342 1_555
H6 O70 0.977342 1_555
H7 O71 0.977342 1_555
H8 O72 0.977404 1_555
H9 O73 0.977404 1_555
H10 O74 0.977404 1_555
H11 O75 0.977404 1_555
H12 O76 0.978451 1_555
H13 O77 0.978451 1_555
H14 O78 0.978451 1_555
H15 O79 0.978451 1_555
