# generated using pymatgen
data_SrH18Cl2O17
_symmetry_space_group_name_H-M   'P 1'
_cell_length_a   10.22768672
_cell_length_b   10.22768672
_cell_length_c   11.31271200
_cell_angle_alpha   90.00000000
_cell_angle_beta   90.00000000
_cell_angle_gamma   140.66320610
_symmetry_Int_Tables_number   1
_chemical_formula_structural   SrH18Cl2O17
_chemical_formula_sum   'Sr2 H36 Cl4 O34'
_cell_volume   750.11357704
_cell_formula_units_Z   2
loop_
 _symmetry_equiv_pos_site_id
 _symmetry_equiv_pos_as_xyz
  1  'x, y, z'
loop_
 _atom_site_type_symbol
 _atom_site_label
 _atom_site_symmetry_multiplicity
 _atom_site_fract_x
 _atom_site_fract_y
 _atom_site_fract_z
 _atom_site_occupancy
  Sr  Sr0  1  0.55876500  0.55876500  0.75000000  1
  Sr  Sr1  1  0.44123500  0.44123500  0.25000000  1
  H  H0  1  0.31173600  0.78268700  0.43771300  1
  H  H1  1  0.21731300  0.68826400  0.56228700  1
  H  H2  1  0.31173600  0.78268700  0.06228700  1
  H  H3  1  0.21731300  0.68826400  0.93771300  1
  H  H4  1  0.68826400  0.21731300  0.56228700  1
  H  H5  1  0.78268700  0.31173600  0.43771300  1
  H  H6  1  0.68826400  0.21731300  0.93771300  1
  H  H7  1  0.78268700  0.31173600  0.06228700  1
  H  H8  1  0.31139900  0.23095000  0.53856800  1
  H  H9  1  0.76905000  0.68860100  0.46143200  1
  H  H10  1  0.31139900  0.23095000  0.96143200  1
  H  H11  1  0.76905000  0.68860100  0.03856800  1
  H  H12  1  0.68860100  0.76905000  0.46143200  1
  H  H13  1  0.23095000  0.31139900  0.53856800  1
  H  H14  1  0.68860100  0.76905000  0.03856800  1
  H  H15  1  0.23095000  0.31139900  0.96143200  1
  H  H16  1  0.50159100  0.77090200  0.56826600  1
  H  H17  1  0.22909800  0.49840900  0.43173400  1
  H  H18  1  0.50159100  0.77090200  0.93173400  1
  H  H19  1  0.22909800  0.49840900  0.06826600  1
  H  H20  1  0.49840900  0.22909800  0.43173400  1
  H  H21  1  0.77090200  0.50159100  0.56826600  1
  H  H22  1  0.49840900  0.22909800  0.06826600  1
  H  H23  1  0.77090200  0.50159100  0.93173400  1
  H  H24  1  0.72435200  0.94066100  0.62095000  1
  H  H25  1  0.05933900  0.27564800  0.37905000  1
  H  H26  1  0.72435200  0.94066100  0.87905000  1
  H  H27  1  0.05933900  0.27564800  0.12095000  1
  H  H28  1  0.27564800  0.05933900  0.37905000  1
  H  H29  1  0.94066100  0.72435200  0.62095000  1
  H  H30  1  0.27564800  0.05933900  0.12095000  1
  H  H31  1  0.94066100  0.72435200  0.87905000  1
  H  H32  1  0.03965200  0.03965200  0.68261900  1
  H  H33  1  0.96034800  0.96034800  0.31738100  1
  H  H34  1  0.03965200  0.03965200  0.81738100  1
  H  H35  1  0.96034800  0.96034800  0.18261900  1
  Cl  Cl0  1  0.01387700  0.35248000  0.75000000  1
  Cl  Cl1  1  0.64752000  0.98612300  0.25000000  1
  Cl  Cl2  1  0.98612300  0.64752000  0.25000000  1
  Cl  Cl3  1  0.35248000  0.01387700  0.75000000  1
  O  O0  1  0.91083200  0.22287400  0.64356300  1
  O  O1  1  0.77712600  0.08916800  0.35643700  1
  O  O2  1  0.91083200  0.22287400  0.85643700  1
  O  O3  1  0.77712600  0.08916800  0.14356300  1
  O  O4  1  0.08916800  0.77712600  0.35643700  1
  O  O5  1  0.22287400  0.91083200  0.64356300  1
  O  O6  1  0.08916800  0.77712600  0.14356300  1
  O  O7  1  0.22287400  0.91083200  0.85643700  1
  O  O8  1  0.29549000  0.70451000  0.50000000  1
  O  O9  1  0.29549000  0.70451000  0.00000000  1
  O  O10  1  0.70451000  0.29549000  0.50000000  1
  O  O11  1  0.70451000  0.29549000  0.00000000  1
  O  O12  1  0.27326700  0.27326700  0.59360100  1
  O  O13  1  0.72673300  0.72673300  0.40639900  1
  O  O14  1  0.27326700  0.27326700  0.90639900  1
  O  O15  1  0.72673300  0.72673300  0.09360100  1
  O  O16  1  0.61210400  0.79588700  0.59461200  1
  O  O17  1  0.20411300  0.38789600  0.40538800  1
  O  O18  1  0.61210400  0.79588700  0.90538800  1
  O  O19  1  0.20411300  0.38789600  0.09461200  1
  O  O20  1  0.38789600  0.20411300  0.40538800  1
  O  O21  1  0.79588700  0.61210400  0.59461200  1
  O  O22  1  0.38789600  0.20411300  0.09461200  1
  O  O23  1  0.79588700  0.61210400  0.90538800  1
  O  O24  1  0.22875100  0.47576300  0.75000000  1
  O  O25  1  0.52423700  0.77124900  0.25000000  1
  O  O26  1  0.77124900  0.52423700  0.25000000  1
  O  O27  1  0.47576300  0.22875100  0.75000000  1
  O  O28  1  0.00733700  0.48934500  0.75000000  1
  O  O29  1  0.51065500  0.99266300  0.25000000  1
  O  O30  1  0.99266300  0.51065500  0.25000000  1
  O  O31  1  0.48934500  0.00733700  0.75000000  1
  O  O32  1  0.94808400  0.94808400  0.75000000  1
  O  O33  1  0.05191600  0.05191600  0.25000000  1
loop_
_geom_bond_atom_site_label_1
_geom_bond_atom_site_label_2
_geom_bond_distance
_geom_bond_site_symmetry_2
H0 O8 0.978734 1_555
H1 O8 0.978734 1_555
H2 O9 0.978734 1_555
H3 O9 0.978734 1_556
H4 O10 0.978734 1_555
H5 O10 0.978734 1_555
H6 O11 0.978734 1_556
H7 O11 0.978734 1_555
H8 O12 0.994043 1_555
H9 O13 0.994043 1_555
H10 O14 0.994043 1_555
H11 O15 0.994043 1_555
H12 O13 0.994043 1_555
H13 O12 0.994043 1_555
H14 O15 0.994043 1_555
H15 O14 0.994043 1_555
H16 O16 0.992424 1_555
H17 O17 0.992424 1_555
H18 O18 0.992424 1_555
H19 O19 0.992424 1_555
H20 O20 0.992424 1_555
H21 O21 0.992424 1_555
H22 O22 0.992424 1_555
H23 O23 0.992424 1_555
H24 O16 0.984747 1_555
H25 O17 0.984747 1_555
H26 O18 0.984747 1_555
H27 O19 0.984747 1_555
H28 O20 0.984747 1_555
H29 O21 0.984747 1_555
H30 O22 0.984747 1_555
H31 O23 0.984747 1_555
H32 O32 0.989182 1_445
H33 O33 0.989182 1_665
H34 O32 0.989182 1_445
H35 O33 0.989182 1_665
Cl0 O28 1.452166 1_555
Cl0 O24 1.460539 1_555
Cl0 O0 1.468563 1_455
Cl0 O2 1.468563 1_455
Cl1 O29 1.452166 1_555
Cl1 O25 1.460539 1_555
Cl1 O1 1.468563 1_565
Cl1 O3 1.468563 1_565
Cl2 O30 1.452166 1_555
Cl2 O26 1.460539 1_555
Cl2 O6 1.468563 1_655
Cl2 O4 1.468563 1_655
Cl3 O31 1.452166 1_555
Cl3 O27 1.460539 1_555
Cl3 O7 1.468563 1_545
Cl3 O5 1.468563 1_545
O12 Sr0 2.644611 1_555
O13 Sr1 2.644611 1_555
O14 Sr0 2.644611 1_555
O15 Sr1 2.644611 1_555
O16 Sr0 2.687519 1_555
O17 Sr1 2.687519 1_555
O18 Sr0 2.687519 1_555
O19 Sr1 2.687519 1_555
O20 Sr1 2.687519 1_555
O21 Sr0 2.687519 1_555
O22 Sr1 2.687519 1_555
O23 Sr0 2.687519 1_555
O24 Sr0 2.771440 1_555
O25 Sr1 2.771440 1_555
O26 Sr1 2.771440 1_555
O27 Sr0 2.771440 1_555
O32 Sr0 2.680378 1_555
O33 Sr1 2.680378 1_555
