# generated using pymatgen
data_ZrP2O9
_symmetry_space_group_name_H-M   'P 1'
_cell_length_a   5.40577600
_cell_length_b   9.15241300
_cell_length_c   15.82024101
_cell_angle_alpha   69.93491803
_cell_angle_beta   90.00000000
_cell_angle_gamma   90.00000000
_symmetry_Int_Tables_number   1
_chemical_formula_structural   ZrP2O9
_chemical_formula_sum   'Zr4 P8 O36'
_cell_volume   735.21218863
_cell_formula_units_Z   4
loop_
 _symmetry_equiv_pos_site_id
 _symmetry_equiv_pos_as_xyz
  1  'x, y, z'
loop_
 _atom_site_type_symbol
 _atom_site_label
 _atom_site_symmetry_multiplicity
 _atom_site_fract_x
 _atom_site_fract_y
 _atom_site_fract_z
 _atom_site_occupancy
  Zr  Zr0  1  0.76650000  0.23528900  0.02725700  1
  Zr  Zr1  1  0.26650000  0.76471100  0.47274300  1
  Zr  Zr2  1  0.23350000  0.76471100  0.97274300  1
  Zr  Zr3  1  0.73350000  0.23528900  0.52725700  1
  P  P0  1  0.26246700  0.98971300  0.11988700  1
  P  P1  1  0.76246700  0.01028700  0.38011300  1
  P  P2  1  0.73753300  0.01028700  0.88011300  1
  P  P3  1  0.23753300  0.98971300  0.61988700  1
  P  P4  1  0.76950800  0.54847200  0.60414400  1
  P  P5  1  0.26950800  0.45152800  0.89585600  1
  P  P6  1  0.23049200  0.45152800  0.39585600  1
  P  P7  1  0.73049200  0.54847200  0.10414400  1
  O  O0  1  0.28677700  0.90024400  0.05404800  1
  O  O1  1  0.78677700  0.09975600  0.44595200  1
  O  O2  1  0.71322300  0.09975600  0.94595200  1
  O  O3  1  0.21322300  0.90024400  0.55404800  1
  O  O4  1  0.00528600  0.06612500  0.11064500  1
  O  O5  1  0.50528600  0.93387500  0.38935500  1
  O  O6  1  0.99471400  0.93387500  0.88935500  1
  O  O7  1  0.49471400  0.06612500  0.61064500  1
  O  O8  1  0.46287800  0.11636600  0.10072700  1
  O  O9  1  0.96287800  0.88363400  0.39927300  1
  O  O10  1  0.53712200  0.88363400  0.89927300  1
  O  O11  1  0.03712200  0.11636600  0.60072700  1
  O  O12  1  0.29473800  0.87000100  0.21706000  1
  O  O13  1  0.79473800  0.12999900  0.28294000  1
  O  O14  1  0.70526200  0.12999900  0.78294000  1
  O  O15  1  0.20526200  0.87000100  0.71706000  1
  O  O16  1  0.56695100  0.66505000  0.55604500  1
  O  O17  1  0.06695100  0.33495000  0.94395500  1
  O  O18  1  0.43304900  0.33495000  0.44395500  1
  O  O19  1  0.93304900  0.66505000  0.05604500  1
  O  O20  1  0.02301800  0.60303100  0.56096000  1
  O  O21  1  0.52301800  0.39696900  0.93904000  1
  O  O22  1  0.97698200  0.39696900  0.43904000  1
  O  O23  1  0.47698200  0.60303100  0.06096000  1
  O  O24  1  0.78559800  0.53273200  0.70604200  1
  O  O25  1  0.28559800  0.46726800  0.79395800  1
  O  O26  1  0.21440200  0.46726800  0.29395800  1
  O  O27  1  0.71440200  0.53273200  0.20604200  1
  O  O28  1  0.29472600  0.61274800  0.40085500  1
  O  O29  1  0.79472600  0.38725200  0.09914500  1
  O  O30  1  0.70527400  0.38725200  0.59914500  1
  O  O31  1  0.20527400  0.61274800  0.90085500  1
  O  O32  1  0.86194600  0.73560600  0.74102000  1
  O  O33  1  0.36194600  0.26439400  0.75898000  1
  O  O34  1  0.13805400  0.26439400  0.25898000  1
  O  O35  1  0.63805400  0.73560600  0.24102000  1
loop_
_geom_bond_atom_site_label_1
_geom_bond_atom_site_label_2
_geom_bond_distance
_geom_bond_site_symmetry_2
O0 P0 1.535562 1_555
O0 Zr2 2.090688 1_554
O1 P1 1.535562 1_555
O1 Zr3 2.090688 1_555
O2 P2 1.535562 1_555
O2 Zr0 2.090688 1_556
O3 P3 1.535562 1_555
O3 Zr1 2.090688 1_555
O4 P0 1.540500 1_545
O4 Zr0 2.098133 1_455
O5 P1 1.540500 1_565
O5 Zr1 2.098133 1_555
O6 P2 1.540500 1_565
O6 Zr2 2.098133 1_655
O7 P3 1.540500 1_545
O7 Zr3 2.098133 1_555
O8 P0 1.538891 1_545
O8 Zr0 2.088417 1_555
O9 P1 1.538891 1_565
O9 Zr1 2.088417 1_655
O10 P2 1.538891 1_565
O10 Zr2 2.088417 1_555
O11 P3 1.538891 1_545
O11 Zr3 2.088417 1_455
O12 P0 1.561546 1_555
O13 P1 1.561546 1_555
O14 P2 1.561546 1_555
O15 P3 1.561546 1_555
O16 P4 1.536009 1_555
O16 Zr1 2.093286 1_555
O17 P5 1.536009 1_555
O17 Zr0 2.093286 1_456
O18 P6 1.536009 1_555
O18 Zr3 2.093286 1_555
O19 P7 1.536009 1_555
O19 Zr2 2.093286 1_654
O20 P4 1.536244 1_455
O20 Zr1 2.110159 1_555
O21 P5 1.536244 1_555
O21 Zr0 2.110159 1_556
O22 P6 1.536244 1_655
O22 Zr3 2.110159 1_555
O23 P7 1.536244 1_555
O23 Zr2 2.110159 1_554
O24 P4 1.570884 1_555
O25 P5 1.570884 1_555
O26 P6 1.570884 1_555
O27 P7 1.570884 1_555
O28 P6 1.544070 1_555
O28 Zr1 2.082420 1_555
O29 P7 1.544070 1_555
O29 Zr0 2.082420 1_555
O30 P4 1.544070 1_555
O30 Zr3 2.082420 1_555
O31 P5 1.544070 1_555
O31 Zr2 2.082420 1_555
