# generated using pymatgen
data_Mg30VNiO32
_symmetry_space_group_name_H-M   'P 1'
_cell_length_a   8.51781600
_cell_length_b   8.51781600
_cell_length_c   8.52043600
_cell_angle_alpha   90.00000000
_cell_angle_beta   90.00000000
_cell_angle_gamma   90.00000000
_symmetry_Int_Tables_number   1
_chemical_formula_structural   Mg30VNiO32
_chemical_formula_sum   'Mg30 V1 Ni1 O32'
_cell_volume   618.18480696
_cell_formula_units_Z   1
loop_
 _symmetry_equiv_pos_site_id
 _symmetry_equiv_pos_as_xyz
  1  'x, y, z'
loop_
 _atom_site_type_symbol
 _atom_site_label
 _atom_site_symmetry_multiplicity
 _atom_site_fract_x
 _atom_site_fract_y
 _atom_site_fract_z
 _atom_site_occupancy
  Mg  Mg0  1  0.00000000  0.50000000  0.00000000  1
  Mg  Mg1  1  0.00000000  0.50000000  0.50000000  1
  Mg  Mg2  1  0.50000000  0.00000000  0.00000000  1
  Mg  Mg3  1  0.50000000  0.00000000  0.50000000  1
  Mg  Mg4  1  0.50000000  0.50000000  0.00000000  1
  Mg  Mg5  1  0.50000000  0.50000000  0.50000000  1
  Mg  Mg6  1  0.00000000  0.25015300  0.24915600  1
  Mg  Mg7  1  0.00000000  0.25015300  0.75084400  1
  Mg  Mg8  1  0.00000000  0.74984700  0.24915600  1
  Mg  Mg9  1  0.00000000  0.74984700  0.75084400  1
  Mg  Mg10  1  0.50000000  0.24988900  0.25002200  1
  Mg  Mg11  1  0.50000000  0.24988900  0.74997800  1
  Mg  Mg12  1  0.50000000  0.75011100  0.25002200  1
  Mg  Mg13  1  0.50000000  0.75011100  0.74997800  1
  Mg  Mg14  1  0.25015300  0.00000000  0.24915600  1
  Mg  Mg15  1  0.25015300  0.00000000  0.75084400  1
  Mg  Mg16  1  0.24988900  0.50000000  0.25002200  1
  Mg  Mg17  1  0.24988900  0.50000000  0.74997800  1
  Mg  Mg18  1  0.74984700  0.00000000  0.24915600  1
  Mg  Mg19  1  0.74984700  0.00000000  0.75084400  1
  Mg  Mg20  1  0.75011100  0.50000000  0.25002200  1
  Mg  Mg21  1  0.75011100  0.50000000  0.74997800  1
  Mg  Mg22  1  0.24956100  0.24956100  0.00000000  1
  Mg  Mg23  1  0.25043500  0.25043500  0.50000000  1
  Mg  Mg24  1  0.24956100  0.75043900  0.00000000  1
  Mg  Mg25  1  0.25043500  0.74956500  0.50000000  1
  Mg  Mg26  1  0.75043900  0.24956100  0.00000000  1
  Mg  Mg27  1  0.74956500  0.25043500  0.50000000  1
  Mg  Mg28  1  0.75043900  0.75043900  0.00000000  1
  Mg  Mg29  1  0.74956500  0.74956500  0.50000000  1
  V  V0  1  0.00000000  0.00000000  0.50000000  1
  Ni  Ni0  1  0.00000000  0.00000000  0.00000000  1
  O  O0  1  0.25178600  0.00000000  0.00000000  1
  O  O1  1  0.25478300  0.00000000  0.50000000  1
  O  O2  1  0.25005200  0.50000000  0.00000000  1
  O  O3  1  0.25036300  0.50000000  0.50000000  1
  O  O4  1  0.74821400  0.00000000  0.00000000  1
  O  O5  1  0.74521700  0.00000000  0.50000000  1
  O  O6  1  0.74994800  0.50000000  0.00000000  1
  O  O7  1  0.74963700  0.50000000  0.50000000  1
  O  O8  1  0.24965100  0.24965100  0.25012900  1
  O  O9  1  0.24965100  0.24965100  0.74987100  1
  O  O10  1  0.24965100  0.75034900  0.25012900  1
  O  O11  1  0.24965100  0.75034900  0.74987100  1
  O  O12  1  0.75034900  0.24965100  0.25012900  1
  O  O13  1  0.75034900  0.24965100  0.74987100  1
  O  O14  1  0.75034900  0.75034900  0.25012900  1
  O  O15  1  0.75034900  0.75034900  0.74987100  1
  O  O16  1  0.00000000  0.00000000  0.24624500  1
  O  O17  1  0.00000000  0.00000000  0.75375500  1
  O  O18  1  0.00000000  0.50000000  0.24966900  1
  O  O19  1  0.00000000  0.50000000  0.75033100  1
  O  O20  1  0.50000000  0.00000000  0.24966900  1
  O  O21  1  0.50000000  0.00000000  0.75033100  1
  O  O22  1  0.50000000  0.50000000  0.24997600  1
  O  O23  1  0.50000000  0.50000000  0.75002400  1
  O  O24  1  0.00000000  0.25178600  0.00000000  1
  O  O25  1  0.00000000  0.25478300  0.50000000  1
  O  O26  1  0.00000000  0.74821400  0.00000000  1
  O  O27  1  0.00000000  0.74521700  0.50000000  1
  O  O28  1  0.50000000  0.25005200  0.00000000  1
  O  O29  1  0.50000000  0.25036300  0.50000000  1
  O  O30  1  0.50000000  0.74994800  0.00000000  1
  O  O31  1  0.50000000  0.74963700  0.50000000  1
loop_
_geom_bond_atom_site_label_1
_geom_bond_atom_site_label_2
_geom_bond_distance
_geom_bond_site_symmetry_2
Mg0 O24 2.114241 1_555
Mg0 O26 2.114241 1_555
Mg0 O18 2.127289 1_555
Mg0 O19 2.127289 1_554
Mg0 O2 2.129897 1_555
Mg0 O6 2.129897 1_455
Mg1 O25 2.088713 1_555
Mg1 O27 2.088713 1_555
Mg1 O3 2.132546 1_555
Mg1 O7 2.132546 1_455
Mg1 O18 2.132929 1_555
Mg1 O19 2.132929 1_555
Mg2 O0 2.114241 1_555
Mg2 O4 2.114241 1_555
Mg2 O20 2.127289 1_555
Mg2 O21 2.127289 1_554
Mg2 O28 2.129897 1_555
Mg2 O30 2.129897 1_545
Mg3 O1 2.088713 1_555
Mg3 O5 2.088713 1_555
Mg3 O31 2.132546 1_545
Mg3 O29 2.132546 1_555
Mg3 O20 2.132929 1_555
Mg3 O21 2.132929 1_555
Mg4 O6 2.129011 1_555
Mg4 O30 2.129011 1_555
Mg4 O2 2.129011 1_555
Mg4 O28 2.129011 1_555
Mg4 O22 2.129905 1_555
Mg4 O23 2.129905 1_554
Mg5 O29 2.126362 1_555
Mg5 O7 2.126362 1_555
Mg5 O31 2.126362 1_555
Mg5 O3 2.126362 1_555
Mg5 O22 2.130313 1_555
Mg5 O23 2.130313 1_555
Mg6 O24 2.122963 1_555
Mg6 O12 2.126502 1_455
Mg6 O8 2.126502 1_555
Mg6 O18 2.128155 1_555
Mg6 O16 2.130902 1_555
Mg6 O25 2.137664 1_555
Mg7 O24 2.122963 1_556
Mg7 O13 2.126502 1_455
Mg7 O9 2.126502 1_555
Mg7 O19 2.128155 1_555
Mg7 O17 2.130902 1_555
Mg7 O25 2.137664 1_555
Mg8 O26 2.122963 1_555
Mg8 O14 2.126502 1_455
Mg8 O10 2.126502 1_555
Mg8 O18 2.128155 1_555
Mg8 O16 2.130902 1_565
Mg8 O27 2.137664 1_555
Mg9 O26 2.122963 1_556
Mg9 O15 2.126502 1_455
Mg9 O11 2.126502 1_555
Mg9 O19 2.128155 1_555
Mg9 O17 2.130902 1_565
Mg9 O27 2.137664 1_555
Mg10 O20 2.128511 1_555
Mg10 O29 2.129925 1_555
Mg10 O28 2.130297 1_555
Mg10 O22 2.130400 1_555
Mg10 O8 2.132428 1_555
Mg10 O12 2.132428 1_555
Mg11 O21 2.128511 1_555
Mg11 O29 2.129925 1_555
Mg11 O28 2.130297 1_556
Mg11 O23 2.130400 1_555
Mg11 O9 2.132428 1_555
Mg11 O13 2.132428 1_555
Mg12 O20 2.128511 1_565
Mg12 O31 2.129925 1_555
Mg12 O30 2.130297 1_555
Mg12 O22 2.130400 1_555
Mg12 O10 2.132428 1_555
Mg12 O14 2.132428 1_555
Mg13 O21 2.128511 1_565
Mg13 O31 2.129925 1_555
Mg13 O30 2.130297 1_556
Mg13 O23 2.130400 1_555
Mg13 O11 2.132428 1_555
Mg13 O15 2.132428 1_555
Mg14 O0 2.122963 1_555
Mg14 O10 2.126502 1_545
Mg14 O8 2.126502 1_555
Mg14 O20 2.128155 1_555
Mg14 O16 2.130902 1_555
Mg14 O1 2.137664 1_555
Mg15 O0 2.122963 1_556
Mg15 O11 2.126502 1_545
Mg15 O9 2.126502 1_555
Mg15 O21 2.128155 1_555
Mg15 O17 2.130902 1_555
Mg15 O1 2.137664 1_555
Mg16 O18 2.128511 1_555
Mg16 O3 2.129925 1_555
Mg16 O2 2.130297 1_555
Mg16 O22 2.130400 1_555
Mg16 O8 2.132428 1_555
Mg16 O10 2.132428 1_555
Mg17 O19 2.128511 1_555
Mg17 O3 2.129925 1_555
Mg17 O2 2.130297 1_556
Mg17 O23 2.130400 1_555
Mg17 O9 2.132428 1_555
Mg17 O11 2.132428 1_555
Mg18 O4 2.122963 1_555
Mg18 O14 2.126502 1_545
Mg18 O12 2.126502 1_555
Mg18 O20 2.128155 1_555
Mg18 O16 2.130902 1_655
Mg18 O5 2.137664 1_555
Mg19 O4 2.122963 1_556
Mg19 O15 2.126502 1_545
Mg19 O13 2.126502 1_555
Mg19 O21 2.128155 1_555
Mg19 O17 2.130902 1_655
Mg19 O5 2.137664 1_555
Mg20 O18 2.128511 1_655
Mg20 O7 2.129925 1_555
Mg20 O6 2.130297 1_555
Mg20 O22 2.130400 1_555
Mg20 O12 2.132428 1_555
Mg20 O14 2.132428 1_555
Mg21 O19 2.128511 1_655
Mg21 O7 2.129925 1_555
Mg21 O6 2.130297 1_556
Mg21 O23 2.130400 1_555
Mg21 O13 2.132428 1_555
Mg21 O15 2.132428 1_555
Mg22 O0 2.125799 1_555
Mg22 O24 2.125799 1_555
Mg22 O8 2.131208 1_555
Mg22 O9 2.131208 1_554
Mg22 O2 2.133197 1_555
Mg22 O28 2.133197 1_555
Mg23 O29 2.125749 1_555
Mg23 O3 2.125749 1_555
Mg23 O9 2.129031 1_555
Mg23 O8 2.129031 1_555
Mg23 O1 2.133481 1_555
Mg23 O25 2.133481 1_555
Mg24 O0 2.125799 1_565
Mg24 O26 2.125799 1_555
Mg24 O10 2.131208 1_555
Mg24 O11 2.131208 1_554
Mg24 O30 2.133197 1_555
Mg24 O2 2.133197 1_555
Mg25 O31 2.125749 1_555
Mg25 O3 2.125749 1_555
Mg25 O11 2.129031 1_555
Mg25 O10 2.129031 1_555
Mg25 O1 2.133481 1_565
Mg25 O27 2.133481 1_555
Mg26 O4 2.125799 1_555
Mg26 O24 2.125799 1_655
Mg26 O12 2.131208 1_555
Mg26 O13 2.131208 1_554
Mg26 O6 2.133197 1_555
Mg26 O28 2.133197 1_555
Mg27 O7 2.125749 1_555
Mg27 O29 2.125749 1_555
Mg27 O13 2.129031 1_555
Mg27 O12 2.129031 1_555
Mg27 O25 2.133481 1_655
Mg27 O5 2.133481 1_555
Mg28 O26 2.125799 1_655
Mg28 O4 2.125799 1_565
Mg28 O14 2.131208 1_555
Mg28 O15 2.131208 1_554
Mg28 O6 2.133197 1_555
Mg28 O30 2.133197 1_555
Mg29 O7 2.125749 1_555
Mg29 O31 2.125749 1_555
Mg29 O15 2.129031 1_555
Mg29 O14 2.129031 1_555
Mg29 O5 2.133481 1_565
Mg29 O27 2.133481 1_655
Ni0 O16 2.098115 1_555
Ni0 O17 2.098115 1_554
Ni0 O26 2.144667 1_545
Ni0 O4 2.144667 1_455
Ni0 O0 2.144667 1_555
Ni0 O24 2.144667 1_555
O1 V0 2.170195 1_555
O5 V0 2.170195 1_655
O16 V0 2.162103 1_555
O17 V0 2.162103 1_555
O25 V0 2.170195 1_555
O27 V0 2.170195 1_565
