# generated using pymatgen
data_HfMg14WO16
_symmetry_space_group_name_H-M   'P 1'
_cell_length_a   8.70824152
_cell_length_b   8.70824152
_cell_length_c   4.30262582
_cell_angle_alpha   90.00000000
_cell_angle_beta   90.00000000
_cell_angle_gamma   90.00000000
_symmetry_Int_Tables_number   1
_chemical_formula_structural   HfMg14WO16
_chemical_formula_sum   'Hf1 Mg14 W1 O16'
_cell_volume   326.28304764
_cell_formula_units_Z   1
loop_
 _symmetry_equiv_pos_site_id
 _symmetry_equiv_pos_as_xyz
  1  'x, y, z'
loop_
 _atom_site_type_symbol
 _atom_site_label
 _atom_site_symmetry_multiplicity
 _atom_site_fract_x
 _atom_site_fract_y
 _atom_site_fract_z
 _atom_site_occupancy
  Hf  Hf0  1  0.50000000  0.50000000  0.00000000  1
  Mg  Mg0  1  0.00000000  0.50000000  0.00000000  1
  Mg  Mg1  1  0.50000000  0.00000000  0.00000000  1
  Mg  Mg2  1  0.00000000  0.24864727  0.50000000  1
  Mg  Mg3  1  0.00000000  0.75135273  0.50000000  1
  Mg  Mg4  1  0.50000000  0.23980475  0.50000000  1
  Mg  Mg5  1  0.50000000  0.76019525  0.50000000  1
  Mg  Mg6  1  0.24864727  0.00000000  0.50000000  1
  Mg  Mg7  1  0.23980475  0.50000000  0.50000000  1
  Mg  Mg8  1  0.75135273  0.00000000  0.50000000  1
  Mg  Mg9  1  0.76019525  0.50000000  0.50000000  1
  Mg  Mg10  1  0.24028425  0.24028425  0.00000000  1
  Mg  Mg11  1  0.24028425  0.75971575  0.00000000  1
  Mg  Mg12  1  0.75971575  0.24028425  0.00000000  1
  Mg  Mg13  1  0.75971575  0.75971575  0.00000000  1
  W  W0  1  0.00000000  0.00000000  0.00000000  1
  O  O0  1  0.27035124  0.00000000  0.00000000  1
  O  O1  1  0.25296937  0.50000000  0.00000000  1
  O  O2  1  0.72964876  0.00000000  0.00000000  1
  O  O3  1  0.74703063  0.50000000  0.00000000  1
  O  O4  1  0.25171401  0.25171401  0.50000000  1
  O  O5  1  0.25171401  0.74828599  0.50000000  1
  O  O6  1  0.74828599  0.25171401  0.50000000  1
  O  O7  1  0.74828599  0.74828599  0.50000000  1
  O  O8  1  0.00000000  0.00000000  0.50000000  1
  O  O9  1  0.00000000  0.50000000  0.50000000  1
  O  O10  1  0.50000000  0.00000000  0.50000000  1
  O  O11  1  0.50000000  0.50000000  0.50000000  1
  O  O12  1  0.00000000  0.27035124  0.00000000  1
  O  O13  1  0.00000000  0.72964876  0.00000000  1
  O  O14  1  0.50000000  0.25296937  0.00000000  1
  O  O15  1  0.50000000  0.74703063  0.00000000  1
loop_
_geom_bond_atom_site_label_1
_geom_bond_atom_site_label_2
_geom_bond_distance
_geom_bond_site_symmetry_2
Hf0 O1 2.151202 1_555
Hf0 O14 2.151202 1_555
Hf0 O3 2.151202 1_555
Hf0 O15 2.151202 1_555
Hf0 O11 2.151313 1_554
Hf0 O11 2.151313 1_555
Mg0 O13 1.999837 1_555
Mg0 O12 1.999837 1_555
Mg0 O9 2.151313 1_555
Mg0 O9 2.151313 1_554
Mg0 O3 2.202918 1_455
Mg0 O1 2.202918 1_555
Mg1 O2 1.999837 1_555
Mg1 O0 1.999837 1_555
Mg1 O10 2.151313 1_555
Mg1 O10 2.151313 1_554
Mg1 O15 2.202918 1_545
Mg1 O14 2.202918 1_555
Mg2 O12 2.159599 1_556
Mg2 O12 2.159599 1_555
Mg2 O8 2.165280 1_555
Mg2 O9 2.188840 1_555
Mg2 O4 2.192149 1_555
Mg2 O6 2.192149 1_455
Mg3 O13 2.159599 1_555
Mg3 O13 2.159599 1_556
Mg3 O8 2.165280 1_565
Mg3 O9 2.188840 1_555
Mg3 O5 2.192149 1_555
Mg3 O7 2.192149 1_455
Mg4 O10 2.088278 1_555
Mg4 O14 2.154365 1_555
Mg4 O14 2.154365 1_556
Mg4 O6 2.164620 1_555
Mg4 O4 2.164620 1_555
Mg4 O11 2.265843 1_555
Mg5 O10 2.088278 1_565
Mg5 O15 2.154365 1_556
Mg5 O15 2.154365 1_555
Mg5 O7 2.164620 1_555
Mg5 O5 2.164620 1_555
Mg5 O11 2.265843 1_555
Mg6 O0 2.159599 1_555
Mg6 O0 2.159599 1_556
Mg6 O8 2.165280 1_555
Mg6 O10 2.188840 1_555
Mg6 O4 2.192149 1_555
Mg6 O5 2.192149 1_545
Mg7 O9 2.088278 1_555
Mg7 O1 2.154365 1_556
Mg7 O1 2.154365 1_555
Mg7 O5 2.164620 1_555
Mg7 O4 2.164620 1_555
Mg7 O11 2.265843 1_555
Mg8 O2 2.159599 1_555
Mg8 O2 2.159599 1_556
Mg8 O8 2.165280 1_655
Mg8 O10 2.188840 1_555
Mg8 O6 2.192149 1_555
Mg8 O7 2.192149 1_545
Mg9 O9 2.088278 1_655
Mg9 O3 2.154365 1_556
Mg9 O3 2.154365 1_555
Mg9 O7 2.164620 1_555
Mg9 O6 2.164620 1_555
Mg9 O11 2.265843 1_555
Mg10 O0 2.108771 1_555
Mg10 O12 2.108771 1_555
Mg10 O4 2.155913 1_554
Mg10 O4 2.155913 1_555
Mg10 O1 2.264364 1_555
Mg10 O14 2.264364 1_555
Mg11 O13 2.108771 1_555
Mg11 O0 2.108771 1_565
Mg11 O5 2.155913 1_554
Mg11 O5 2.155913 1_555
Mg11 O1 2.264364 1_555
Mg11 O15 2.264364 1_555
Mg12 O12 2.108771 1_655
Mg12 O2 2.108771 1_555
Mg12 O6 2.155913 1_554
Mg12 O6 2.155913 1_555
Mg12 O14 2.264364 1_555
Mg12 O3 2.264364 1_555
Mg13 O13 2.108771 1_655
Mg13 O2 2.108771 1_565
Mg13 O7 2.155913 1_554
Mg13 O7 2.155913 1_555
Mg13 O15 2.264364 1_555
Mg13 O3 2.264364 1_555
O0 W0 2.354284 1_555
O2 W0 2.354284 1_655
O8 W0 2.151313 1_555
O8 W0 2.151313 1_556
O12 W0 2.354284 1_555
O13 W0 2.354284 1_565
