# generated using pymatgen
data_Ba2FeMoO6
_symmetry_space_group_name_H-M   'P 1'
_cell_length_a   5.80771513
_cell_length_b   5.79914388
_cell_length_c   5.72858470
_cell_angle_alpha   119.84881250
_cell_angle_beta   90.13950357
_cell_angle_gamma   59.87784115
_symmetry_Int_Tables_number   1
_chemical_formula_structural   Ba2FeMoO6
_chemical_formula_sum   'Ba2 Fe1 Mo1 O6'
_cell_volume   136.65139582
_cell_formula_units_Z   1
loop_
 _symmetry_equiv_pos_site_id
 _symmetry_equiv_pos_as_xyz
  1  'x, y, z'
loop_
 _atom_site_type_symbol
 _atom_site_label
 _atom_site_symmetry_multiplicity
 _atom_site_fract_x
 _atom_site_fract_y
 _atom_site_fract_z
 _atom_site_occupancy
  Ba  Ba0  1  0.74981900  0.50036000  0.75025600  1
  Ba  Ba1  1  0.25018100  0.49964000  0.24974400  1
  Fe  Fe0  1  0.99999900  0.00000200  0.00000100  1
  Mo  Mo0  1  0.50000000  0.00000100  0.50000000  1
  O  O0  1  0.25081100  0.49835000  0.74886400  1
  O  O1  1  0.74919000  0.50164900  0.25113600  1
  O  O2  1  0.74626600  0.99965300  0.74291900  1
  O  O3  1  0.74662600  0.00031300  0.25636800  1
  O  O4  1  0.25373400  0.00034600  0.25708100  1
  O  O5  1  0.25337400  0.99968700  0.74363200  1
loop_
_geom_bond_atom_site_label_1
_geom_bond_atom_site_label_2
_geom_bond_distance
_geom_bond_site_symmetry_2
Ba0 O1 2.862968 1_555
Ba0 O1 2.865627 1_556
Ba0 O3 2.881152 1_555
Ba0 O4 2.884942 1_655
Ba0 O5 2.890093 1_645
Ba0 O2 2.893467 1_545
Ba0 O3 2.896730 1_566
Ba0 O4 2.900663 1_566
Ba0 O5 2.903180 1_555
Ba0 O0 2.903801 1_655
Ba0 O0 2.903939 1_555
Ba0 O2 2.906393 1_555
Ba1 O0 2.862971 1_555
Ba1 O0 2.865624 1_554
Ba1 O5 2.881152 1_555
Ba1 O2 2.884942 1_455
Ba1 O3 2.890093 1_465
Ba1 O4 2.893461 1_565
Ba1 O5 2.896730 1_544
Ba1 O2 2.900663 1_544
Ba1 O3 2.903180 1_555
Ba1 O1 2.903798 1_455
Ba1 O1 2.903942 1_555
Ba1 O4 2.906399 1_555
Fe0 O1 2.060452 1_555
Fe0 O0 2.060473 1_644
Fe0 O5 2.080249 1_644
Fe0 O3 2.080249 1_555
Fe0 O2 2.080836 1_544
Fe0 O4 2.080836 1_655
Mo0 O2 1.993064 1_545
Mo0 O4 1.993065 1_555
Mo0 O3 2.003576 1_555
Mo0 O5 2.003584 1_545
Mo0 O0 2.046919 1_555
Mo0 O1 2.046932 1_545
