# generated using pymatgen
data_Ca8TiMn7O21
_symmetry_space_group_name_H-M   'P 1'
_cell_length_a   7.81258288
_cell_length_b   7.77499900
_cell_length_c   7.74828783
_cell_angle_alpha   90.00000000
_cell_angle_beta   90.29822859
_cell_angle_gamma   90.00000000
_symmetry_Int_Tables_number   1
_chemical_formula_structural   Ca8TiMn7O21
_chemical_formula_sum   'Ca8 Ti1 Mn7 O21'
_cell_volume   470.64650865
_cell_formula_units_Z   1
loop_
 _symmetry_equiv_pos_site_id
 _symmetry_equiv_pos_as_xyz
  1  'x, y, z'
loop_
 _atom_site_type_symbol
 _atom_site_label
 _atom_site_symmetry_multiplicity
 _atom_site_fract_x
 _atom_site_fract_y
 _atom_site_fract_z
 _atom_site_occupancy
  Ca  Ca0  1  0.23311700  0.26416400  0.24047000  1
  Ca  Ca1  1  0.27135600  0.26459800  0.69452800  1
  Ca  Ca2  1  0.23311700  0.73583600  0.24047000  1
  Ca  Ca3  1  0.27135600  0.73540200  0.69452800  1
  Ca  Ca4  1  0.73202200  0.25927600  0.25773800  1
  Ca  Ca5  1  0.75850500  0.24632000  0.71380100  1
  Ca  Ca6  1  0.73202200  0.74072400  0.25773800  1
  Ca  Ca7  1  0.75850500  0.75368000  0.71380100  1
  Ti  Ti0  1  0.01458000  0.00000000  0.99092800  1
  Mn  Mn0  1  0.00766700  0.00000000  0.50090500  1
  Mn  Mn1  1  0.98938600  0.50000000  0.01102100  1
  Mn  Mn2  1  0.00269700  0.50000000  0.49848000  1
  Mn  Mn3  1  0.49713600  0.00000000  0.99832800  1
  Mn  Mn4  1  0.51130800  0.00000000  0.47947200  1
  Mn  Mn5  1  0.49779700  0.50000000  0.99028300  1
  Mn  Mn6  1  0.50568000  0.50000000  0.49922000  1
  O  O0  1  0.96167900  0.00000000  0.76433200  1
  O  O1  1  0.01607700  0.50000000  0.25666900  1
  O  O2  1  0.99850200  0.50000000  0.75947900  1
  O  O3  1  0.56656500  0.00000000  0.23112500  1
  O  O4  1  0.52800300  0.00000000  0.74838400  1
  O  O5  1  0.49205200  0.50000000  0.74750400  1
  O  O6  1  0.23978000  0.00000000  0.04054800  1
  O  O7  1  0.25652900  0.00000000  0.47648900  1
  O  O8  1  0.25150100  0.50000000  0.03334900  1
  O  O9  1  0.26018700  0.50000000  0.48904900  1
  O  O10  1  0.76216200  0.00000000  0.48481100  1
  O  O11  1  0.73613700  0.50000000  0.04151400  1
  O  O12  1  0.74927900  0.50000000  0.48601100  1
  O  O13  1  0.94738300  0.20546100  0.07552500  1
  O  O14  1  0.01264600  0.24903800  0.50496300  1
  O  O15  1  0.94738300  0.79453900  0.07552500  1
  O  O16  1  0.01264600  0.75096200  0.50496300  1
  O  O17  1  0.49694500  0.25509800  0.02388500  1
  O  O18  1  0.50067400  0.25523300  0.47514100  1
  O  O19  1  0.49694500  0.74490200  0.02388500  1
  O  O20  1  0.50067400  0.74476700  0.47514100  1
loop_
_geom_bond_atom_site_label_1
_geom_bond_atom_site_label_2
_geom_bond_distance
_geom_bond_site_symmetry_2
Ca0 O8 2.441454 1_555
Ca0 O1 2.501071 1_555
Ca0 O6 2.573231 1_555
Ca0 O13 2.606772 1_455
Ca0 O17 2.665645 1_555
Ca0 O9 2.666904 1_555
Ca0 O14 2.686506 1_555
Ca0 O7 2.755481 1_555
Ca0 O18 2.764212 1_555
Ca1 O9 2.427097 1_555
Ca1 O18 2.477152 1_555
Ca1 O14 2.495263 1_555
Ca1 O5 2.546335 1_555
Ca1 O7 2.664174 1_555
Ca1 O2 2.856287 1_455
Ca1 O4 2.901383 1_555
Ca2 O8 2.441454 1_555
Ca2 O1 2.501071 1_555
Ca2 O6 2.573231 1_565
Ca2 O15 2.606772 1_455
Ca2 O19 2.665645 1_555
Ca2 O9 2.666904 1_555
Ca2 O16 2.686506 1_555
Ca2 O7 2.755481 1_565
Ca2 O20 2.764212 1_555
Ca3 O9 2.427097 1_555
Ca3 O20 2.477152 1_555
Ca3 O16 2.495263 1_555
Ca3 O5 2.546335 1_555
Ca3 O7 2.664174 1_565
Ca3 O2 2.856287 1_455
Ca3 O4 2.901383 1_565
Ca4 O13 2.241423 1_555
Ca4 O3 2.403001 1_555
Ca4 O18 2.477300 1_555
Ca4 O11 2.512258 1_555
Ca4 O17 2.573434 1_555
Ca4 O12 2.578193 1_555
Ca4 O10 2.685228 1_555
Ca4 O1 2.903122 1_655
Ca4 O14 2.904933 1_655
Ca5 O0 2.516772 1_555
Ca5 O14 2.567968 1_655
Ca5 O10 2.610971 1_555
Ca5 O4 2.643391 1_555
Ca5 O12 2.647498 1_555
Ca5 O18 2.728204 1_555
Ca5 O2 2.743024 1_555
Ca5 O5 2.880535 1_555
Ca6 O15 2.241423 1_555
Ca6 O3 2.403001 1_565
Ca6 O20 2.477300 1_555
Ca6 O11 2.512258 1_555
Ca6 O19 2.573434 1_555
Ca6 O12 2.578193 1_555
Ca6 O10 2.685228 1_565
Ca6 O1 2.903122 1_655
Ca6 O16 2.904933 1_655
Ca7 O0 2.516772 1_565
Ca7 O16 2.567968 1_655
Ca7 O10 2.610971 1_565
Ca7 O4 2.643391 1_565
Ca7 O12 2.647498 1_555
Ca7 O20 2.728204 1_555
Ca7 O2 2.743024 1_555
Ca7 O5 2.880535 1_555
Mn0 O10 1.921430 1_455
Mn0 O14 1.936913 1_555
Mn0 O16 1.936913 1_545
Mn0 O7 1.954417 1_555
Mn0 O0 2.074329 1_455
Mn1 O1 1.913661 1_655
Mn1 O2 1.950691 1_554
Mn1 O11 1.993807 1_555
Mn1 O8 2.054193 1_655
Mn1 O15 2.367165 1_555
Mn1 O13 2.367165 1_555
Mn2 O1 1.877078 1_555
Mn2 O16 1.953412 1_555
Mn2 O14 1.953412 1_555
Mn2 O12 1.981703 1_455
Mn2 O9 2.013369 1_555
Mn2 O2 2.022731 1_455
Mn3 O3 1.880864 1_556
Mn3 O4 1.952840 1_555
Mn3 O17 1.993249 1_556
Mn3 O19 1.993249 1_546
Mn3 O6 2.038734 1_556
Mn4 O10 1.960039 1_555
Mn4 O3 1.974286 1_555
Mn4 O18 1.986451 1_555
Mn4 O20 1.986451 1_545
Mn4 O7 1.990496 1_555
Mn4 O4 2.087008 1_555
Mn5 O5 1.881423 1_555
Mn5 O11 1.901870 1_556
Mn5 O19 1.921847 1_556
Mn5 O17 1.921847 1_556
Mn5 O8 1.954638 1_556
Mn6 O12 1.906419 1_555
Mn6 O20 1.912567 1_555
Mn6 O18 1.912567 1_555
Mn6 O9 1.919143 1_555
Mn6 O5 1.927273 1_555
O0 Ti0 1.801624 1_655
O6 Ti0 1.798956 1_554
O13 Ti0 1.805747 1_654
O15 Ti0 1.805747 1_664
