# generated using pymatgen
data_RbBaMg14
_symmetry_space_group_name_H-M   'P 1'
_cell_length_a   6.78519843
_cell_length_b   6.64806891
_cell_length_c   11.00944395
_cell_angle_alpha   90.00000000
_cell_angle_beta   90.00000000
_cell_angle_gamma   119.33368324
_symmetry_Int_Tables_number   1
_chemical_formula_structural   RbBaMg14
_chemical_formula_sum   'Rb1 Ba1 Mg14'
_cell_volume   432.94333660
_cell_formula_units_Z   1
loop_
 _symmetry_equiv_pos_site_id
 _symmetry_equiv_pos_as_xyz
  1  'x, y, z'
loop_
 _atom_site_type_symbol
 _atom_site_label
 _atom_site_symmetry_multiplicity
 _atom_site_fract_x
 _atom_site_fract_y
 _atom_site_fract_z
 _atom_site_occupancy
  Rb  Rb0  1  0.16975103  0.33487502  0.12500000  1
  Ba  Ba0  1  0.17094842  0.83547371  0.12500000  1
  Mg  Mg0  1  0.16246824  0.33123362  0.62500000  1
  Mg  Mg1  1  0.16261601  0.83130751  0.62500000  1
  Mg  Mg2  1  0.66718107  0.33712015  0.12500000  1
  Mg  Mg3  1  0.66896680  0.33350730  0.62500000  1
  Mg  Mg4  1  0.66718107  0.83005992  0.12500000  1
  Mg  Mg5  1  0.66896680  0.83545850  0.62500000  1
  Mg  Mg6  1  0.34531217  0.17230841  0.40182260  1
  Mg  Mg7  1  0.34531217  0.17230841  0.84817740  1
  Mg  Mg8  1  0.34531217  0.67300476  0.40182260  1
  Mg  Mg9  1  0.34531217  0.67300476  0.84817740  1
  Mg  Mg10  1  0.81959905  0.15980002  0.38619185  1
  Mg  Mg11  1  0.81959905  0.15980002  0.86380815  1
  Mg  Mg12  1  0.82073689  0.66036894  0.38578952  1
  Mg  Mg13  1  0.82073689  0.66036894  0.86421048  1
loop_
_geom_bond_atom_site_label_1
_geom_bond_atom_site_label_2
_geom_bond_distance
_geom_bond_site_symmetry_2
Ba0 Rb0 3.324042 1_555
Ba0 Rb0 3.324042 1_565
Ba0 Mg2 3.384814 1_565
Ba0 Mg4 3.384814 1_555
Ba0 Mg2 3.400674 1_455
Ba0 Mg4 3.400674 1_455
Ba0 Mg13 3.540468 1_454
Ba0 Mg12 3.540468 1_455
Ba0 Mg8 3.620307 1_555
Ba0 Mg9 3.620307 1_554
Ba0 Mg6 3.620313 1_565
Ba0 Mg7 3.620313 1_564
Mg0 Mg7 3.158622 1_555
Mg0 Mg6 3.158622 1_555
Mg0 Mg9 3.158629 1_555
Mg0 Mg8 3.158629 1_555
Mg0 Mg10 3.320507 1_455
Mg0 Mg11 3.320507 1_455
Mg0 Mg1 3.324035 1_545
Mg0 Mg1 3.324035 1_555
Mg0 Mg5 3.355936 1_445
Mg0 Mg3 3.355936 1_455
Mg0 Mg5 3.429313 1_555
Mg0 Mg3 3.429314 1_555
Mg1 Mg9 3.155885 1_555
Mg1 Mg8 3.155885 1_555
Mg1 Mg7 3.155892 1_565
Mg1 Mg6 3.155892 1_565
Mg1 Mg13 3.320445 1_455
Mg1 Mg12 3.320445 1_455
Mg1 Mg3 3.363113 1_455
Mg1 Mg5 3.363113 1_455
Mg1 Mg3 3.422256 1_565
Mg1 Mg5 3.422256 1_555
Mg2 Rb0 3.367875 1_555
Mg2 Rb0 3.417374 1_655
Mg3 Mg7 3.114869 1_555
Mg3 Mg6 3.114869 1_555
Mg3 Mg5 3.311063 1_545
Mg3 Mg5 3.337006 1_555
Mg4 Rb0 3.367874 1_555
Mg4 Rb0 3.417373 1_665
Mg5 Mg9 3.114869 1_555
Mg5 Mg8 3.114869 1_555
Mg6 Mg8 3.319405 1_545
Mg6 Mg8 3.328664 1_555
Mg6 Rb0 3.624455 1_555
Mg7 Mg9 3.319405 1_545
Mg7 Mg9 3.328664 1_555
Mg7 Rb0 3.624455 1_556
Mg8 Rb0 3.624461 1_555
Mg9 Rb0 3.624461 1_556
Mg10 Mg3 3.232195 1_555
Mg10 Mg5 3.232202 1_545
Mg10 Mg8 3.264214 1_545
Mg10 Mg6 3.264214 1_555
Mg10 Mg12 3.324044 1_555
Mg10 Mg12 3.324044 1_545
Mg10 Mg2 3.452917 1_555
Mg10 Mg4 3.452924 1_545
Mg10 Mg8 3.531270 1_655
Mg10 Mg6 3.531270 1_655
Mg10 Rb0 3.543855 1_655
Mg11 Mg3 3.232195 1_555
Mg11 Mg5 3.232202 1_545
Mg11 Mg9 3.264214 1_545
Mg11 Mg7 3.264214 1_555
Mg11 Mg13 3.324044 1_555
Mg11 Mg13 3.324044 1_545
Mg11 Mg2 3.452917 1_556
Mg11 Mg4 3.452924 1_546
Mg11 Mg9 3.531270 1_655
Mg11 Mg7 3.531270 1_655
Mg11 Rb0 3.543855 1_656
Mg12 Mg5 3.244311 1_555
Mg12 Mg3 3.244318 1_555
Mg12 Mg6 3.272588 1_555
Mg12 Mg8 3.272589 1_555
Mg12 Mg4 3.428315 1_555
Mg12 Mg2 3.428321 1_555
Mg12 Mg6 3.523380 1_665
Mg12 Mg8 3.523381 1_655
Mg13 Mg5 3.244311 1_555
Mg13 Mg3 3.244318 1_555
Mg13 Mg7 3.272588 1_555
Mg13 Mg9 3.272589 1_555
Mg13 Mg4 3.428315 1_556
Mg13 Mg2 3.428321 1_556
Mg13 Mg7 3.523380 1_665
Mg13 Mg9 3.523381 1_655
