# generated using pymatgen
data_Ce6Ni6P17
_symmetry_space_group_name_H-M   'P 1'
_cell_length_a   8.66354320
_cell_length_b   8.66354320
_cell_length_c   8.66354320
_cell_angle_alpha   109.47122063
_cell_angle_beta   109.47122063
_cell_angle_gamma   109.47122063
_symmetry_Int_Tables_number   1
_chemical_formula_structural   Ce6Ni6P17
_chemical_formula_sum   'Ce6 Ni6 P17'
_cell_volume   500.56991640
_cell_formula_units_Z   1
loop_
 _symmetry_equiv_pos_site_id
 _symmetry_equiv_pos_as_xyz
  1  'x, y, z'
loop_
 _atom_site_type_symbol
 _atom_site_label
 _atom_site_symmetry_multiplicity
 _atom_site_fract_x
 _atom_site_fract_y
 _atom_site_fract_z
 _atom_site_occupancy
  Ce  Ce0  1  0.00000000  0.70973900  0.70973900  1
  Ce  Ce1  1  0.29026100  0.00000000  0.29026100  1
  Ce  Ce2  1  0.29026100  0.29026100  0.00000000  1
  Ce  Ce3  1  0.00000000  0.29026100  0.29026100  1
  Ce  Ce4  1  0.70973900  0.00000000  0.70973900  1
  Ce  Ce5  1  0.70973900  0.70973900  0.00000000  1
  Ni  Ni0  1  0.50000000  0.75000000  0.25000000  1
  Ni  Ni1  1  0.75000000  0.50000000  0.25000000  1
  Ni  Ni2  1  0.25000000  0.75000000  0.50000000  1
  Ni  Ni3  1  0.25000000  0.50000000  0.75000000  1
  Ni  Ni4  1  0.50000000  0.25000000  0.75000000  1
  Ni  Ni5  1  0.75000000  0.25000000  0.50000000  1
  P  P0  1  0.63438700  0.23109600  0.00000000  1
  P  P1  1  0.40329200  0.76890400  0.76890400  1
  P  P2  1  0.63438700  0.00000000  0.23109600  1
  P  P3  1  0.23109600  0.63438700  0.00000000  1
  P  P4  1  0.00000000  0.63438700  0.23109600  1
  P  P5  1  0.76890400  0.40329200  0.76890400  1
  P  P6  1  0.76890400  0.76890400  0.40329200  1
  P  P7  1  0.00000000  0.23109600  0.63438700  1
  P  P8  1  0.23109600  0.00000000  0.63438700  1
  P  P9  1  0.36561300  0.36561300  0.59670800  1
  P  P10  1  0.59670800  0.36561300  0.36561300  1
  P  P11  1  0.36561300  0.59670800  0.36561300  1
  P  P12  1  0.42068000  0.00000000  0.00000000  1
  P  P13  1  0.00000000  0.42068000  0.00000000  1
  P  P14  1  0.00000000  0.00000000  0.42068000  1
  P  P15  1  0.57932000  0.57932000  0.57932000  1
  P  P16  1  0.00000000  0.00000000  0.00000000  1
loop_
_geom_bond_atom_site_label_1
_geom_bond_atom_site_label_2
_geom_bond_distance
_geom_bond_site_symmetry_2
Ce0 P16 2.903712 1_566
Ce0 P6 3.060643 1_455
Ce0 P5 3.060643 1_455
Ce0 P8 3.060649 1_565
Ce0 P3 3.060649 1_556
Ce0 P12 3.081319 1_566
Ce0 P15 3.081319 1_455
Ce0 P10 3.189043 1_455
Ce0 P1 3.189048 1_555
Ce0 Ni5 3.264527 1_455
Ce0 Ni2 3.264527 1_555
Ce0 Ni3 3.264527 1_555
Ce0 Ni1 3.264527 1_455
Ce1 P16 2.903712 1_555
Ce1 P9 3.060645 1_555
Ce1 P10 3.060645 1_555
Ce1 P4 3.060649 1_545
Ce1 P3 3.060649 1_545
Ce1 P14 3.081319 1_555
Ce1 P12 3.081319 1_555
Ce1 P2 3.189039 1_555
Ce1 P8 3.189039 1_555
Ce1 Ni5 3.264527 1_555
Ce1 Ni4 3.264527 1_555
Ce1 Ni2 3.264527 1_545
Ce1 Ni0 3.264527 1_545
Ce2 P16 2.903712 1_555
Ce2 P10 3.060645 1_555
Ce2 P11 3.060645 1_555
Ce2 P7 3.060649 1_554
Ce2 P8 3.060649 1_554
Ce2 P13 3.081319 1_555
Ce2 P12 3.081319 1_555
Ce2 P3 3.189039 1_555
Ce2 P0 3.189039 1_555
Ce2 Ni1 3.264527 1_555
Ce2 Ni3 3.264527 1_554
Ce2 Ni4 3.264527 1_554
Ce2 Ni0 3.264527 1_555
Ce3 P16 2.903712 1_555
Ce3 P9 3.060645 1_555
Ce3 P11 3.060645 1_555
Ce3 P0 3.060649 1_455
Ce3 P2 3.060649 1_455
Ce3 P14 3.081319 1_555
Ce3 P13 3.081319 1_555
Ce3 P7 3.189039 1_555
Ce3 P4 3.189039 1_555
Ce3 Ni5 3.264527 1_455
Ce3 Ni2 3.264527 1_555
Ce3 Ni3 3.264527 1_555
Ce3 Ni1 3.264527 1_455
Ce4 P16 2.903712 1_656
Ce4 P1 3.060643 1_545
Ce4 P6 3.060643 1_545
Ce4 P7 3.060649 1_655
Ce4 P0 3.060649 1_556
Ce4 P13 3.081319 1_656
Ce4 P15 3.081319 1_545
Ce4 P11 3.189043 1_545
Ce4 P5 3.189048 1_555
Ce4 Ni4 3.264527 1_555
Ce4 Ni5 3.264527 1_555
Ce4 Ni2 3.264527 1_545
Ce4 Ni0 3.264527 1_545
Ce5 P16 2.903712 1_665
Ce5 P1 3.060643 1_554
Ce5 P5 3.060643 1_554
Ce5 P4 3.060649 1_655
Ce5 P2 3.060649 1_565
Ce5 P14 3.081319 1_665
Ce5 P15 3.081319 1_554
Ce5 P9 3.189043 1_554
Ce5 P6 3.189048 1_555
Ce5 Ni0 3.264527 1_555
Ce5 Ni1 3.264527 1_555
Ce5 Ni3 3.264527 1_554
Ce5 Ni4 3.264527 1_554
Ni0 P2 2.180800 1_565
Ni0 P3 2.180800 1_555
Ni0 P6 2.180802 1_555
Ni0 P11 2.180805 1_555
Ni1 P0 2.180800 1_555
Ni1 P4 2.180800 1_655
Ni1 P6 2.180802 1_555
Ni1 P10 2.180805 1_555
Ni2 P8 2.180800 1_565
Ni2 P4 2.180800 1_555
Ni2 P1 2.180802 1_555
Ni2 P11 2.180805 1_555
Ni3 P7 2.180800 1_555
Ni3 P3 2.180800 1_556
Ni3 P1 2.180802 1_555
Ni3 P9 2.180805 1_555
Ni4 P8 2.180800 1_555
Ni4 P0 2.180800 1_556
Ni4 P5 2.180802 1_555
Ni4 P9 2.180805 1_555
Ni5 P7 2.180800 1_655
Ni5 P2 2.180800 1_555
Ni5 P5 2.180802 1_555
Ni5 P10 2.180805 1_555
P0 P12 2.228257 1_555
P1 P12 2.228262 1_566
P10 P15 2.228252 1_555
P11 P15 2.228252 1_555
P12 P2 2.228257 1_555
P13 P3 2.228257 1_555
P13 P4 2.228257 1_555
P13 P5 2.228262 1_454
P14 P7 2.228257 1_555
P14 P8 2.228257 1_555
P14 P6 2.228262 1_445
P15 P9 2.228252 1_555
