# generated using pymatgen
data_SrHfS3
_symmetry_space_group_name_H-M   'P 1'
_cell_length_a   6.72976646
_cell_length_b   7.08201880
_cell_length_c   9.74143735
_cell_angle_alpha   90.00000000
_cell_angle_beta   90.00000000
_cell_angle_gamma   90.00000000
_symmetry_Int_Tables_number   1
_chemical_formula_structural   SrHfS3
_chemical_formula_sum   'Sr4 Hf4 S12'
_cell_volume   464.28014400
_cell_formula_units_Z   4
loop_
 _symmetry_equiv_pos_site_id
 _symmetry_equiv_pos_as_xyz
  1  'x, y, z'
loop_
 _atom_site_type_symbol
 _atom_site_label
 _atom_site_symmetry_multiplicity
 _atom_site_fract_x
 _atom_site_fract_y
 _atom_site_fract_z
 _atom_site_occupancy
  Sr  Sr0  1  0.02341001  0.42285347  0.25000000  1
  Sr  Sr1  1  0.97658999  0.57714653  0.75000000  1
  Sr  Sr2  1  0.52341001  0.07714653  0.75000000  1
  Sr  Sr3  1  0.47658999  0.92285347  0.25000000  1
  Hf  Hf0  1  0.00000000  -0.00000000  0.00000000  1
  Hf  Hf1  1  0.50000000  0.50000000  0.00000000  1
  Hf  Hf2  1  0.00000000  -0.00000000  0.50000000  1
  Hf  Hf3  1  0.50000000  0.50000000  0.50000000  1
  S  S0  1  0.30583525  0.19838587  0.04732977  1
  S  S1  1  0.69416475  0.80161413  0.95266923  1
  S  S2  1  0.80583525  0.30161413  0.95266923  1
  S  S3  1  0.69416475  0.80161413  0.54733077  1
  S  S4  1  0.19416475  0.69838587  0.04732977  1
  S  S5  1  0.30583525  0.19838587  0.45266923  1
  S  S6  1  0.19416475  0.69838587  0.45266923  1
  S  S7  1  0.80583525  0.30161413  0.54733077  1
  S  S8  1  0.59283541  0.51668766  0.25000000  1
  S  S9  1  0.40716459  0.48331234  0.75000000  1
  S  S10  1  0.09283541  0.98331234  0.75000000  1
  S  S11  1  0.90716459  0.01668766  0.25000000  1
loop_
_geom_bond_atom_site_label_1
_geom_bond_atom_site_label_2
_geom_bond_distance
_geom_bond_site_symmetry_2
Hf0 S10 2.516996 1_544
Hf0 S11 2.516996 1_455
Hf0 S0 2.534307 1_555
Hf0 S1 2.534308 1_444
Hf0 S4 2.546105 1_545
Hf0 S2 2.546107 1_454
Hf1 S8 2.516996 1_555
Hf1 S9 2.516996 1_554
Hf1 S4 2.534307 1_555
Hf1 S2 2.534308 1_554
Hf1 S0 2.546105 1_555
Hf1 S1 2.546107 1_554
Hf2 S10 2.516996 1_545
Hf2 S11 2.516996 1_455
Hf2 S3 2.534308 1_445
Hf2 S5 2.534308 1_555
Hf2 S7 2.546107 1_455
Hf2 S6 2.546107 1_545
Hf3 S8 2.516996 1_555
Hf3 S9 2.516996 1_555
Hf3 S6 2.534308 1_555
Hf3 S7 2.534308 1_555
Hf3 S3 2.546107 1_555
Hf3 S5 2.546107 1_555
S0 Sr3 3.004339 1_545
S0 Sr0 3.168193 1_555
S0 Sr2 3.357147 1_554
S1 Sr2 3.004332 1_565
S1 Sr1 3.168187 1_555
S1 Sr3 3.357155 1_556
S2 Sr1 3.004332 1_555
S2 Sr2 3.168187 1_555
S2 Sr0 3.357155 1_656
S3 Sr2 3.004332 1_565
S3 Sr1 3.168187 1_555
S3 Sr3 3.357155 1_555
S4 Sr0 3.004339 1_555
S4 Sr3 3.168193 1_555
S4 Sr1 3.357147 1_454
S5 Sr3 3.004332 1_545
S5 Sr0 3.168187 1_555
S5 Sr2 3.357155 1_555
S6 Sr0 3.004332 1_555
S6 Sr3 3.168187 1_555
S6 Sr1 3.357155 1_455
S7 Sr1 3.004332 1_555
S7 Sr2 3.168187 1_555
S7 Sr0 3.357155 1_655
S8 Sr0 2.972891 1_655
S8 Sr3 2.980957 1_555
S9 Sr1 2.972891 1_455
S9 Sr2 2.980957 1_555
S10 Sr2 2.972891 1_565
S10 Sr1 2.980957 1_455
S11 Sr3 2.972891 1_545
S11 Sr0 2.980957 1_655
