# generated using pymatgen
data_Li7Mn4CoO12
_symmetry_space_group_name_H-M   'P 1'
_cell_length_a   5.16615416
_cell_length_b   10.66903358
_cell_length_c   8.60998022
_cell_angle_alpha   66.20012970
_cell_angle_beta   89.99716401
_cell_angle_gamma   96.53237660
_symmetry_Int_Tables_number   1
_chemical_formula_structural   Li7Mn4CoO12
_chemical_formula_sum   'Li14 Mn8 Co2 O24'
_cell_volume   430.83647405
_cell_formula_units_Z   2
loop_
 _symmetry_equiv_pos_site_id
 _symmetry_equiv_pos_as_xyz
  1  'x, y, z'
loop_
 _atom_site_type_symbol
 _atom_site_label
 _atom_site_symmetry_multiplicity
 _atom_site_fract_x
 _atom_site_fract_y
 _atom_site_fract_z
 _atom_site_occupancy
  Li  Li0  1  0.00017100  0.99998000  0.33331800  1
  Li  Li1  1  0.49983600  0.00001700  0.83330500  1
  Li  Li2  1  0.38422300  0.24451000  0.21106100  1
  Li  Li3  1  0.87558900  0.24540500  0.71062600  1
  Li  Li4  1  0.11576800  0.75549400  0.95563900  1
  Li  Li5  1  0.62441500  0.75459900  0.45603800  1
  Li  Li6  1  0.37749900  0.24861200  0.54730300  1
  Li  Li7  1  0.87010400  0.24838200  0.04719300  1
  Li  Li8  1  0.12249300  0.75137800  0.29590300  1
  Li  Li9  1  0.62986400  0.75163000  0.79560300  1
  Li  Li10  1  0.87013000  0.24836800  0.37107500  1
  Li  Li11  1  0.37750200  0.24861200  0.87077300  1
  Li  Li12  1  0.62989400  0.75162700  0.11948200  1
  Li  Li13  1  0.12250100  0.75138800  0.61940200  1
  Mn  Mn0  1  0.00004300  0.00019100  0.00115900  1
  Mn  Mn1  1  0.49996800  0.99980900  0.50135000  1
  Mn  Mn2  1  0.49996500  0.99981000  0.16549600  1
  Mn  Mn3  1  0.00004200  0.00018900  0.66529600  1
  Mn  Mn4  1  0.24996100  0.49992000  0.25243900  1
  Mn  Mn5  1  0.74996300  0.49998800  0.75175100  1
  Mn  Mn6  1  0.25003100  0.50007200  0.91423700  1
  Mn  Mn7  1  0.75003900  0.50001200  0.41492100  1
  Co  Co0  1  0.24999300  0.50000100  0.58333400  1
  Co  Co1  1  0.74998900  0.49999900  0.08334400  1
  O  O0  1  0.16392400  0.11141700  0.77760300  1
  O  O1  1  0.66433700  0.11129300  0.27767100  1
  O  O2  1  0.33606100  0.88858100  0.38905500  1
  O  O3  1  0.83565100  0.88870400  0.88899400  1
  O  O4  1  0.44321700  0.60791900  0.02941200  1
  O  O5  1  0.91436700  0.61800500  0.52433900  1
  O  O6  1  0.05677900  0.39207700  0.13728100  1
  O  O7  1  0.58562900  0.38199300  0.64233300  1
  O  O8  1  0.20733600  0.11048000  0.09982700  1
  O  O9  1  0.70727900  0.10997400  0.59995500  1
  O  O10  1  0.20734900  0.11048400  0.45632000  1
  O  O11  1  0.70726800  0.10997800  0.95669500  1
  O  O12  1  0.29267400  0.88952100  0.71031800  1
  O  O13  1  0.79274800  0.89003200  0.20994700  1
  O  O14  1  0.29268500  0.88953000  0.06680700  1
  O  O15  1  0.79275800  0.89002900  0.56667400  1
  O  O16  1  0.40738200  0.61628300  0.36120200  1
  O  O17  1  0.91133600  0.61729700  0.85978900  1
  O  O18  1  0.91138200  0.61728600  0.18955300  1
  O  O19  1  0.40738200  0.61631000  0.68919000  1
  O  O20  1  0.09260800  0.38368400  0.47748500  1
  O  O21  1  0.58861600  0.38271700  0.97713200  1
  O  O22  1  0.58864100  0.38269800  0.30689900  1
  O  O23  1  0.09260700  0.38371500  0.80546700  1
loop_
_geom_bond_atom_site_label_1
_geom_bond_atom_site_label_2
_geom_bond_distance
_geom_bond_site_symmetry_2
Li0 O13 2.091023 1_455
Li0 O15 2.091091 1_455
Li0 O8 2.092051 1_565
Li0 O10 2.092327 1_565
Li0 O1 2.158642 1_465
Li0 O2 2.159400 1_555
Li1 O9 2.091130 1_555
Li1 O11 2.091262 1_555
Li1 O14 2.092072 1_546
Li1 O12 2.092135 1_545
Li1 O3 2.158557 1_545
Li1 O0 2.159504 1_555
Li2 O1 2.062356 1_555
Li2 O21 2.143477 1_554
Li2 O22 2.144179 1_555
Li2 O10 2.145764 1_555
Li2 O8 2.145975 1_555
Li2 O6 2.354306 1_555
Li3 O0 2.100998 1_655
Li3 O7 2.125676 1_555
Li3 O11 2.139112 1_555
Li3 O9 2.139452 1_555
Li3 O20 2.167076 1_655
Li3 O23 2.167361 1_655
Li4 O3 2.062319 1_455
Li4 O18 2.143379 1_456
Li4 O17 2.144353 1_455
Li4 O14 2.145673 1_556
Li4 O12 2.146206 1_555
Li4 O4 2.354381 1_556
Li5 O2 2.101034 1_555
Li5 O5 2.125685 1_555
Li5 O15 2.139283 1_555
Li5 O13 2.139283 1_555
Li5 O19 2.167196 1_555
Li5 O16 2.167416 1_555
Li6 O10 2.048208 1_555
Li6 O20 2.094700 1_555
Li6 O7 2.107680 1_555
Li6 O0 2.140458 1_555
Li6 O22 2.185314 1_555
Li6 O9 2.308286 1_555
Li7 O11 2.035020 1_554
Li7 O21 2.075879 1_554
Li7 O6 2.122608 1_655
Li7 O1 2.123831 1_555
Li7 O23 2.221371 1_654
Li7 O8 2.334618 1_655
Li8 O14 2.048131 1_555
Li8 O16 2.094850 1_555
Li8 O5 2.107648 1_455
Li8 O2 2.140918 1_555
Li8 O18 2.185635 1_455
Li8 O13 2.308228 1_455
Li9 O15 2.035125 1_555
Li9 O17 2.075810 1_555
Li9 O4 2.122608 1_556
Li9 O3 2.123907 1_555
Li9 O19 2.221489 1_555
Li9 O12 2.334383 1_555
Li10 O9 2.034751 1_555
Li10 O22 2.075858 1_555
Li10 O6 2.122521 1_655
Li10 O1 2.124001 1_555
Li10 O20 2.221430 1_655
Li10 O10 2.334441 1_655
Li11 O8 2.047781 1_556
Li11 O23 2.094930 1_555
Li11 O7 2.107693 1_555
Li11 O0 2.140976 1_555
Li11 O21 2.185801 1_555
Li11 O11 2.308171 1_555
Li12 O13 2.034868 1_555
Li12 O18 2.075922 1_555
Li12 O4 2.122624 1_555
Li12 O3 2.123834 1_554
Li12 O16 2.221382 1_555
Li12 O14 2.334506 1_555
Li13 O12 2.047905 1_555
Li13 O19 2.094699 1_555
Li13 O5 2.107894 1_455
Li13 O2 2.140682 1_555
Li13 O17 2.185276 1_455
Li13 O15 2.308111 1_455
Mn0 O0 1.938465 1_554
Mn0 O3 1.940637 1_444
Mn0 O13 1.941133 1_445
Mn0 O8 1.942491 1_555
Mn0 O11 1.961509 1_454
Mn0 O14 1.966383 1_545
Mn1 O2 1.938439 1_555
Mn1 O1 1.940628 1_565
Mn1 O9 1.941214 1_565
Mn1 O12 1.942420 1_555
Mn1 O15 1.961535 1_555
Mn1 O10 1.966366 1_565
Mn2 O2 1.938533 1_555
Mn2 O1 1.940630 1_565
Mn2 O11 1.941246 1_564
Mn2 O14 1.942513 1_555
Mn2 O13 1.961491 1_555
Mn2 O8 1.966390 1_565
Mn3 O0 1.938469 1_555
Mn3 O3 1.940793 1_445
Mn3 O15 1.941208 1_445
Mn3 O10 1.942512 1_555
Mn3 O9 1.961455 1_455
Mn3 O12 1.966379 1_545
Mn4 O20 1.945327 1_555
Mn4 O16 1.946344 1_555
Mn4 O6 1.990604 1_555
Mn4 O4 1.991015 1_555
Mn4 O22 2.206809 1_555
Mn4 O18 2.207238 1_455
Mn5 O21 1.956748 1_555
Mn5 O17 1.956792 1_555
Mn5 O7 1.976662 1_555
Mn5 O5 1.976694 1_555
Mn5 O23 2.218759 1_655
Mn5 O19 2.218769 1_555
Mn6 O19 1.945333 1_555
Mn6 O23 1.946344 1_555
Mn6 O4 1.990751 1_556
Mn6 O6 1.991107 1_556
Mn6 O17 2.206895 1_455
Mn6 O21 2.207200 1_555
Mn7 O18 1.956664 1_555
Mn7 O22 1.956778 1_555
Mn7 O5 1.976634 1_555
Mn7 O7 1.976709 1_555
Mn7 O20 2.218752 1_655
Mn7 O16 2.218804 1_555
Co0 O16 1.927026 1_555
Co0 O23 1.927035 1_555
Co0 O19 1.927422 1_555
Co0 O20 1.927438 1_555
Co0 O5 2.197749 1_455
Co0 O7 2.197817 1_555
Co1 O21 1.945063 1_554
Co1 O18 1.945123 1_555
Co1 O17 1.945299 1_554
Co1 O22 1.945307 1_555
Co1 O4 2.009176 1_555
Co1 O6 2.009268 1_655
