# generated using pymatgen
data_Sr3Ca5Mn8O24
_symmetry_space_group_name_H-M   'P 1'
_cell_length_a   10.89234929
_cell_length_b   15.30637749
_cell_length_c   10.79081341
_cell_angle_alpha   90.00999108
_cell_angle_beta   90.04261710
_cell_angle_gamma   89.99175949
_symmetry_Int_Tables_number   1
_chemical_formula_structural   Sr3Ca5Mn8O24
_chemical_formula_sum   'Sr12 Ca20 Mn32 O96'
_cell_volume   1799.06987500
_cell_formula_units_Z   4
loop_
 _symmetry_equiv_pos_site_id
 _symmetry_equiv_pos_as_xyz
  1  'x, y, z'
loop_
 _atom_site_type_symbol
 _atom_site_label
 _atom_site_symmetry_multiplicity
 _atom_site_fract_x
 _atom_site_fract_y
 _atom_site_fract_z
 _atom_site_occupancy
  Sr  Sr0  1  0.01523482  0.12470358  0.49694016  1
  Sr  Sr1  1  0.01521613  0.12480449  0.99683661  1
  Sr  Sr2  1  0.01599067  0.62530967  0.49750871  1
  Sr  Sr3  1  0.48476418  0.37529642  0.00305984  1
  Sr  Sr4  1  0.48478287  0.37519551  0.50316439  1
  Sr  Sr5  1  0.48400833  0.87469033  0.00249129  1
  Sr  Sr6  1  0.23206265  0.37546628  0.24569074  1
  Sr  Sr7  1  0.23212369  0.37551823  0.74580823  1
  Sr  Sr8  1  0.23226699  0.87450279  0.24680803  1
  Sr  Sr9  1  0.26793735  0.12453372  0.25430826  1
  Sr  Sr10  1  0.26787631  0.12448177  0.75419077  1
  Sr  Sr11  1  0.26773201  0.62549721  0.25319097  1
  Ca  Ca0  1  0.02187166  0.62505738  0.99465485  1
  Ca  Ca1  1  0.52291397  0.12474334  0.49557552  1
  Ca  Ca2  1  0.52277054  0.12482862  0.99590467  1
  Ca  Ca3  1  0.52230233  0.62528969  0.49615544  1
  Ca  Ca4  1  0.52329137  0.62518240  0.99559968  1
  Ca  Ca5  1  0.47812734  0.87494262  0.50534515  1
  Ca  Ca6  1  0.97708603  0.37525666  0.00442348  1
  Ca  Ca7  1  0.97722946  0.37517138  0.50409533  1
  Ca  Ca8  1  0.97769767  0.87471031  0.00384456  1
  Ca  Ca9  1  0.97670863  0.87481760  0.50440032  1
  Ca  Ca10  1  0.22634344  0.87467084  0.74446564  1
  Ca  Ca11  1  0.72998666  0.37496325  0.24649471  1
  Ca  Ca12  1  0.72979422  0.37499847  0.74619111  1
  Ca  Ca13  1  0.72962743  0.87502170  0.24694355  1
  Ca  Ca14  1  0.72826415  0.87503252  0.74515566  1
  Ca  Ca15  1  0.27365556  0.62532916  0.75553536  1
  Ca  Ca16  1  0.77001334  0.12503675  0.25350529  1
  Ca  Ca17  1  0.77020578  0.12500153  0.75380789  1
  Ca  Ca18  1  0.77037257  0.62497830  0.25305645  1
  Ca  Ca19  1  0.77173585  0.62496748  0.75484534  1
  Mn  Mn0  1  0.99715670  0.99822700  0.25094693  1
  Mn  Mn1  1  0.99799655  0.99768347  0.75105240  1
  Mn  Mn2  1  0.99699650  0.49937228  0.24894074  1
  Mn  Mn3  1  0.99886771  0.50032132  0.75153674  1
  Mn  Mn4  1  0.50300350  0.00062772  0.25105926  1
  Mn  Mn5  1  0.50113229  0.99967868  0.74846326  1
  Mn  Mn6  1  0.50284330  0.50177300  0.24905307  1
  Mn  Mn7  1  0.50200345  0.50231653  0.74894760  1
  Mn  Mn8  1  0.25028053  0.99918761  0.99839131  1
  Mn  Mn9  1  0.25061386  0.99858941  0.50122190  1
  Mn  Mn10  1  0.24938614  0.50141059  0.99877810  1
  Mn  Mn11  1  0.24971947  0.50081239  0.50160869  1
  Mn  Mn12  1  0.74983899  0.99956664  0.99967422  1
  Mn  Mn13  1  0.74838955  0.99899503  0.49956263  1
  Mn  Mn14  1  0.75161045  0.50100497  0.00043737  1
  Mn  Mn15  1  0.75016101  0.50043336  0.50032578  1
  Mn  Mn16  1  0.24990101  0.25004075  0.99986579  1
  Mn  Mn17  1  0.25009899  0.24995925  0.50013421  1
  Mn  Mn18  1  0.24970412  0.74940868  0.99694181  1
  Mn  Mn19  1  0.25029588  0.75059132  0.50305819  1
  Mn  Mn20  1  0.75012783  0.25016744  0.99992638  1
  Mn  Mn21  1  0.74987217  0.24983256  0.50007362  1
  Mn  Mn22  1  0.75142178  0.74935475  0.00019055  1
  Mn  Mn23  1  0.74857822  0.75064525  0.49980945  1
  Mn  Mn24  1  0.99717204  0.25155976  0.25084980  1
  Mn  Mn25  1  0.99735222  0.25176857  0.75099713  1
  Mn  Mn26  1  0.99708700  0.75076575  0.24900910  1
  Mn  Mn27  1  0.99955257  0.75019113  0.75154484  1
  Mn  Mn28  1  0.50282796  0.24844024  0.24915020  1
  Mn  Mn29  1  0.50264778  0.24823143  0.74900287  1
  Mn  Mn30  1  0.50291300  0.74923425  0.25099090  1
  Mn  Mn31  1  0.50044743  0.74980887  0.74845516  1
  O  O0  1  0.10304497  0.26857152  0.10538154  1
  O  O1  1  0.10301486  0.26846395  0.60554519  1
  O  O2  1  0.10215463  0.76734310  0.10195707  1
  O  O3  1  0.10495721  0.77155121  0.60644582  1
  O  O4  1  0.61082725  0.26556154  0.10752350  1
  O  O5  1  0.61079841  0.26550538  0.60762571  1
  O  O6  1  0.61041788  0.76628803  0.10817738  1
  O  O7  1  0.60451924  0.76959169  0.60249971  1
  O  O8  1  0.39695503  0.23142748  0.39461946  1
  O  O9  1  0.39698514  0.23153505  0.89445581  1
  O  O10  1  0.39784437  0.73265590  0.39804293  1
  O  O11  1  0.39504179  0.72844779  0.89355518  1
  O  O12  1  0.88917275  0.23443746  0.39247550  1
  O  O13  1  0.88920159  0.23449362  0.89237529  1
  O  O14  1  0.88958212  0.73371097  0.39182362  1
  O  O15  1  0.89548076  0.73040731  0.89750129  1
  O  O16  1  0.14092455  0.23568188  0.35764016  1
  O  O17  1  0.14093480  0.23564377  0.85742950  1
  O  O18  1  0.14099971  0.73527154  0.35855911  1
  O  O19  1  0.14573559  0.73035227  0.85184949  1
  O  O20  1  0.64489759  0.23012847  0.35550947  1
  O  O21  1  0.64478856  0.23015076  0.85546206  1
  O  O22  1  0.64582217  0.72937265  0.35467346  1
  O  O23  1  0.64511711  0.73016149  0.85394981  1
  O  O24  1  0.35907545  0.26431712  0.14235984  1
  O  O25  1  0.35906520  0.26435523  0.64257150  1
  O  O26  1  0.35899929  0.76472746  0.14144089  1
  O  O27  1  0.35426341  0.76964673  0.64815151  1
  O  O28  1  0.85510241  0.26987053  0.14449053  1
  O  O29  1  0.85521144  0.26984824  0.64453794  1
  O  O30  1  0.85417783  0.77062635  0.14532654  1
  O  O31  1  0.85488289  0.76983751  0.64605119  1
  O  O32  1  0.35890670  0.48632003  0.14162660  1
  O  O33  1  0.35732578  0.48717156  0.64441049  1
  O  O34  1  0.35919079  0.98462126  0.14223055  1
  O  O35  1  0.35602617  0.97895340  0.64625438  1
  O  O36  1  0.85422362  0.47943605  0.14526263  1
  O  O37  1  0.85519974  0.48049796  0.64562597  1
  O  O38  1  0.85507368  0.98006991  0.14456175  1
  O  O39  1  0.85487439  0.97980606  0.64492792  1
  O  O40  1  0.14109330  0.01367897  0.35837340  1
  O  O41  1  0.14267422  0.01282744  0.85559051  1
  O  O42  1  0.14080821  0.51537774  0.35776945  1
  O  O43  1  0.14397283  0.52104560  0.85374662  1
  O  O44  1  0.64577638  0.02056295  0.35473737  1
  O  O45  1  0.64480026  0.01950104  0.85437303  1
  O  O46  1  0.64492532  0.51992909  0.35543825  1
  O  O47  1  0.64512461  0.52019294  0.85507308  1
  O  O48  1  0.39842323  0.01690468  0.39743355  1
  O  O49  1  0.39754623  0.01900182  0.89494163  1
  O  O50  1  0.39635902  0.51904235  0.39524338  1
  O  O51  1  0.39445999  0.52096495  0.89315497  1
  O  O52  1  0.88916063  0.01541639  0.39261111  1
  O  O53  1  0.88981249  0.01492125  0.89215300  1
  O  O54  1  0.88953490  0.51642604  0.39171610  1
  O  O55  1  0.89491657  0.52009156  0.89772438  1
  O  O56  1  0.10157677  0.48309432  0.10256745  1
  O  O57  1  0.10245377  0.48099718  0.60505937  1
  O  O58  1  0.10363998  0.98095665  0.10475762  1
  O  O59  1  0.10553901  0.97903405  0.60684603  1
  O  O60  1  0.61083837  0.48458261  0.10738889  1
  O  O61  1  0.61018651  0.48507775  0.60784700  1
  O  O62  1  0.61046510  0.98357296  0.10828490  1
  O  O63  1  0.60508343  0.97990744  0.60227662  1
  O  O64  1  0.00148059  0.37531867  0.28800873  1
  O  O65  1  0.00158020  0.37622341  0.78947658  1
  O  O66  1  0.00173727  0.87468091  0.28824445  1
  O  O67  1  0.00912482  0.87371776  0.78908953  1
  O  O68  1  0.51087892  0.37504418  0.27719355  1
  O  O69  1  0.51048731  0.37533117  0.77697516  1
  O  O70  1  0.51060466  0.87496531  0.28702378  1
  O  O71  1  0.51173585  0.87471960  0.77939480  1
  O  O72  1  0.49851841  0.12468133  0.21199227  1
  O  O73  1  0.49841880  0.12377659  0.71052342  1
  O  O74  1  0.49826273  0.62531909  0.21175655  1
  O  O75  1  0.49087518  0.62628224  0.71091147  1
  O  O76  1  0.98912008  0.12495582  0.22280745  1
  O  O77  1  0.98951169  0.12466883  0.72302484  1
  O  O78  1  0.98939434  0.62503469  0.21297722  1
  O  O79  1  0.98826315  0.62528040  0.72060620  1
  O  O80  1  0.24533226  0.12479430  0.02783569  1
  O  O81  1  0.24636610  0.12417609  0.52851258  1
  O  O82  1  0.23787710  0.62522010  0.02922738  1
  O  O83  1  0.24629493  0.62593536  0.53829852  1
  O  O84  1  0.74275080  0.12487310  0.03722211  1
  O  O85  1  0.74199772  0.12431916  0.53782009  1
  O  O86  1  0.74113946  0.62515233  0.03799031  1
  O  O87  1  0.74167919  0.62567191  0.53833502  1
  O  O88  1  0.25466674  0.37520570  0.47216431  1
  O  O89  1  0.25363290  0.37582391  0.97148742  1
  O  O90  1  0.26212290  0.87477990  0.47077362  1
  O  O91  1  0.25370507  0.87406464  0.96170248  1
  O  O92  1  0.75724820  0.37512690  0.46277789  1
  O  O93  1  0.75800128  0.37568084  0.96217991  1
  O  O94  1  0.75886054  0.87484767  0.46200969  1
  O  O95  1  0.75832081  0.87432809  0.96166598  1
loop_
_geom_bond_atom_site_label_1
_geom_bond_atom_site_label_2
_geom_bond_distance
_geom_bond_site_symmetry_2
Ca0 O55 2.363364 1_455
Ca0 O15 2.364826 1_455
Ca0 O82 2.381928 1_556
Ca0 O78 2.382548 1_456
Ca0 O43 2.572341 1_555
Ca0 O19 2.607106 1_555
Ca0 O56 2.613468 1_556
Ca0 O2 2.616620 1_556
Ca1 O73 2.335005 1_555
Ca1 O48 2.383845 1_555
Ca1 O8 2.394454 1_555
Ca1 O85 2.429162 1_555
Ca1 O44 2.577790 1_555
Ca1 O20 2.579972 1_555
Ca1 O5 2.649225 1_555
Ca1 O63 2.653347 1_545
Ca2 O72 2.346873 1_556
Ca2 O49 2.380978 1_555
Ca2 O9 2.396029 1_555
Ca2 O84 2.436903 1_556
Ca2 O21 2.581947 1_555
Ca2 O45 2.588415 1_555
Ca2 O4 2.647422 1_556
Ca2 O62 2.656372 1_546
Ca3 O75 2.342837 1_555
Ca3 O10 2.378484 1_555
Ca3 O50 2.389596 1_555
Ca3 O87 2.432166 1_555
Ca3 O22 2.585262 1_555
Ca3 O46 2.586885 1_555
Ca3 O61 2.640732 1_555
Ca3 O7 2.644906 1_555
Ca4 O74 2.348588 1_556
Ca4 O11 2.379075 1_555
Ca4 O51 2.394491 1_555
Ca4 O86 2.416231 1_556
Ca4 O47 2.577698 1_555
Ca4 O23 2.585278 1_555
Ca4 O60 2.644714 1_556
Ca4 O6 2.653138 1_556
Ca5 O63 2.363364 1_555
Ca5 O7 2.364847 1_555
Ca5 O90 2.381915 1_555
Ca5 O70 2.382537 1_555
Ca5 O35 2.572338 1_555
Ca5 O27 2.607122 1_555
Ca5 O48 2.613446 1_565
Ca5 O10 2.616632 1_555
Ca6 O65 2.334993 1_654
Ca6 O56 2.383844 1_655
Ca6 O0 2.394475 1_655
Ca6 O93 2.429170 1_554
Ca6 O36 2.577786 1_555
Ca6 O28 2.579988 1_555
Ca6 O13 2.649228 1_554
Ca6 O55 2.653325 1_554
Ca7 O64 2.346861 1_655
Ca7 O57 2.380972 1_655
Ca7 O1 2.396044 1_655
Ca7 O92 2.436914 1_555
Ca7 O29 2.581957 1_555
Ca7 O37 2.588400 1_555
Ca7 O12 2.647439 1_555
Ca7 O54 2.656355 1_555
Ca8 O67 2.342826 1_654
Ca8 O2 2.378489 1_655
Ca8 O58 2.389584 1_655
Ca8 O95 2.432164 1_554
Ca8 O30 2.585272 1_555
Ca8 O38 2.586882 1_555
Ca8 O53 2.640723 1_564
Ca8 O15 2.644914 1_554
Ca9 O66 2.348577 1_655
Ca9 O3 2.379083 1_655
Ca9 O59 2.394480 1_655
Ca9 O94 2.416231 1_555
Ca9 O39 2.577700 1_555
Ca9 O31 2.585294 1_555
Ca9 O52 2.644706 1_565
Ca9 O14 2.653145 1_555
Ca10 O91 2.362832 1_555
Ca10 O27 2.367845 1_555
Ca10 O35 2.381115 1_555
Ca10 O67 2.414921 1_555
Ca10 O3 2.540566 1_555
Ca10 O59 2.546729 1_555
Ca10 O41 2.596251 1_565
Ca10 O19 2.645041 1_555
Ca11 O92 2.352468 1_555
Ca11 O36 2.363277 1_555
Ca11 O28 2.378515 1_555
Ca11 O68 2.409723 1_555
Ca11 O4 2.595072 1_555
Ca11 O60 2.598098 1_555
Ca11 O20 2.675923 1_555
Ca11 O46 2.676582 1_555
Ca12 O93 2.350653 1_555
Ca12 O37 2.377928 1_555
Ca12 O29 2.379244 1_555
Ca12 O69 2.412003 1_555
Ca12 O5 2.592559 1_555
Ca12 O61 2.600421 1_555
Ca12 O21 2.676989 1_555
Ca12 O47 2.677718 1_555
Ca13 O94 2.342248 1_555
Ca13 O30 2.365836 1_555
Ca13 O38 2.382534 1_555
Ca13 O70 2.424876 1_555
Ca13 O62 2.584851 1_555
Ca13 O6 2.587480 1_555
Ca13 O44 2.673940 1_565
Ca13 O22 2.675401 1_555
Ca14 O95 2.358934 1_555
Ca14 O31 2.374728 1_555
Ca14 O39 2.376325 1_555
Ca14 O71 2.387543 1_555
Ca14 O63 2.598332 1_555
Ca14 O7 2.605347 1_555
Ca14 O45 2.665590 1_565
Ca14 O23 2.668072 1_555
Ca15 O83 2.362830 1_555
Ca15 O19 2.367835 1_555
Ca15 O43 2.381126 1_555
Ca15 O75 2.414932 1_555
Ca15 O11 2.540556 1_555
Ca15 O51 2.546738 1_555
Ca15 O33 2.596267 1_555
Ca15 O27 2.645028 1_555
Ca16 O84 2.352469 1_555
Ca16 O44 2.363287 1_555
Ca16 O20 2.378505 1_555
Ca16 O76 2.409710 1_555
Ca16 O12 2.595056 1_555
Ca16 O52 2.598102 1_555
Ca16 O28 2.675910 1_555
Ca16 O38 2.676591 1_545
Ca17 O85 2.350644 1_555
Ca17 O45 2.377938 1_555
Ca17 O21 2.379239 1_555
Ca17 O77 2.411991 1_555
Ca17 O13 2.592562 1_555
Ca17 O53 2.600432 1_555
Ca17 O29 2.676972 1_555
Ca17 O39 2.677718 1_545
Ca18 O86 2.342248 1_555
Ca18 O22 2.365825 1_555
Ca18 O46 2.382551 1_555
Ca18 O78 2.424864 1_555
Ca18 O54 2.584867 1_555
Ca18 O14 2.587476 1_555
Ca18 O36 2.673953 1_555
Ca18 O30 2.675388 1_555
Ca19 O87 2.358934 1_555
Ca19 O23 2.374717 1_555
Ca19 O47 2.376342 1_555
Ca19 O79 2.387532 1_555
Ca19 O55 2.598342 1_555
Ca19 O15 2.605338 1_555
Ca19 O37 2.665612 1_555
Ca19 O31 2.668060 1_555
Mn0 O66 1.934095 1_655
Mn0 O38 1.946174 1_555
Mn0 O52 1.947373 1_565
Mn0 O40 1.963430 1_665
Mn0 O76 1.965362 1_565
Mn0 O58 1.976395 1_655
Mn1 O53 1.943942 1_565
Mn1 O67 1.945166 1_655
Mn1 O41 1.951153 1_665
Mn1 O39 1.952929 1_555
Mn1 O59 1.969152 1_655
Mn1 O77 1.969273 1_565
Mn2 O36 1.939235 1_555
Mn2 O64 1.945718 1_655
Mn2 O54 1.953029 1_555
Mn2 O56 1.963904 1_655
Mn2 O78 1.963984 1_555
Mn2 O42 1.972346 1_655
Mn3 O65 1.943394 1_655
Mn3 O79 1.945033 1_555
Mn3 O43 1.952587 1_655
Mn3 O37 1.960717 1_555
Mn3 O57 1.965009 1_655
Mn3 O55 1.965823 1_555
Mn4 O44 1.939232 1_555
Mn4 O72 1.945716 1_555
Mn4 O62 1.953023 1_545
Mn4 O48 1.963911 1_555
Mn4 O70 1.963986 1_545
Mn4 O34 1.972356 1_545
Mn5 O73 1.943394 1_565
Mn5 O71 1.945034 1_555
Mn5 O35 1.952592 1_555
Mn5 O45 1.960709 1_565
Mn5 O49 1.965015 1_565
Mn5 O63 1.965817 1_555
Mn6 O74 1.934093 1_555
Mn6 O46 1.946163 1_555
Mn6 O60 1.947369 1_555
Mn6 O32 1.963431 1_555
Mn6 O68 1.965363 1_555
Mn6 O50 1.976408 1_555
Mn7 O61 1.943938 1_555
Mn7 O75 1.945164 1_555
Mn7 O33 1.951148 1_555
Mn7 O47 1.952925 1_555
Mn7 O51 1.969165 1_555
Mn7 O69 1.969273 1_555
Mn8 O41 1.946590 1_565
Mn8 O80 1.949350 1_566
Mn8 O91 1.955960 1_555
Mn8 O34 1.965564 1_556
Mn8 O49 1.978404 1_565
Mn8 O58 1.987328 1_556
Mn9 O90 1.927370 1_555
Mn9 O81 1.945202 1_565
Mn9 O40 1.962097 1_565
Mn9 O35 1.963503 1_555
Mn9 O59 1.971967 1_555
Mn9 O48 1.981892 1_565
Mn10 O82 1.927371 1_556
Mn10 O89 1.945202 1_555
Mn10 O32 1.962099 1_556
Mn10 O43 1.963498 1_555
Mn10 O51 1.971950 1_555
Mn10 O56 1.981900 1_556
Mn11 O33 1.946600 1_555
Mn11 O88 1.949350 1_555
Mn11 O83 1.955962 1_555
Mn11 O42 1.965569 1_555
Mn11 O57 1.978412 1_555
Mn11 O50 1.987311 1_555
Mn12 O53 1.930998 1_565
Mn12 O62 1.934171 1_556
Mn12 O38 1.960801 1_556
Mn12 O84 1.961769 1_566
Mn12 O95 1.962441 1_555
Mn12 O45 1.964147 1_565
Mn13 O52 1.936246 1_565
Mn13 O63 1.937315 1_555
Mn13 O94 1.946251 1_555
Mn13 O44 1.948845 1_565
Mn13 O85 1.963344 1_565
Mn13 O39 1.972171 1_555
Mn14 O60 1.936257 1_555
Mn14 O55 1.937307 1_554
Mn14 O86 1.946251 1_555
Mn14 O36 1.948848 1_555
Mn14 O93 1.963343 1_554
Mn14 O47 1.972167 1_554
Mn15 O61 1.931009 1_555
Mn15 O54 1.934162 1_555
Mn15 O46 1.960805 1_555
Mn15 O92 1.961768 1_555
Mn15 O87 1.962443 1_555
Mn15 O37 1.964140 1_555
Mn16 O80 1.941385 1_556
Mn16 O89 1.949973 1_555
Mn16 O17 1.953692 1_555
Mn16 O24 1.955352 1_556
Mn16 O0 1.984458 1_556
Mn16 O9 1.985753 1_555
Mn17 O88 1.941385 1_555
Mn17 O81 1.949973 1_555
Mn17 O25 1.953698 1_555
Mn17 O16 1.955353 1_555
Mn17 O8 1.984454 1_555
Mn17 O1 1.985757 1_555
Mn18 O82 1.936923 1_556
Mn18 O91 1.946120 1_555
Mn18 O19 1.953497 1_555
Mn18 O11 1.963675 1_555
Mn18 O26 1.975023 1_556
Mn18 O2 1.986187 1_556
Mn19 O90 1.936921 1_555
Mn19 O83 1.946122 1_555
Mn19 O27 1.953497 1_555
Mn19 O3 1.963687 1_555
Mn19 O18 1.975031 1_555
Mn19 O10 1.986180 1_555
Mn20 O13 1.923959 1_555
Mn20 O4 1.925678 1_556
Mn20 O28 1.956817 1_556
Mn20 O21 1.959026 1_555
Mn20 O84 1.961314 1_556
Mn20 O93 1.965826 1_555
Mn21 O5 1.923964 1_555
Mn21 O12 1.925686 1_555
Mn21 O20 1.956819 1_555
Mn21 O29 1.959024 1_555
Mn21 O92 1.961313 1_555
Mn21 O85 1.965826 1_555
Mn22 O15 1.943333 1_554
Mn22 O6 1.945853 1_555
Mn22 O86 1.947680 1_555
Mn22 O30 1.951625 1_555
Mn22 O95 1.959075 1_554
Mn22 O23 1.978519 1_554
Mn23 O7 1.943337 1_555
Mn23 O14 1.945848 1_555
Mn23 O94 1.947680 1_555
Mn23 O22 1.951628 1_555
Mn23 O87 1.959077 1_555
Mn23 O31 1.978525 1_555
Mn24 O64 1.936773 1_655
Mn24 O28 1.946224 1_555
Mn24 O12 1.947047 1_555
Mn24 O16 1.958578 1_655
Mn24 O76 1.963242 1_555
Mn24 O0 1.965866 1_655
Mn25 O13 1.946265 1_555
Mn25 O29 1.946970 1_555
Mn25 O65 1.950153 1_655
Mn25 O17 1.955303 1_655
Mn25 O1 1.963744 1_655
Mn25 O77 1.970515 1_555
Mn26 O30 1.940262 1_555
Mn26 O66 1.943958 1_655
Mn26 O14 1.953765 1_555
Mn26 O78 1.965091 1_555
Mn26 O2 1.973577 1_655
Mn26 O18 1.976898 1_655
Mn27 O67 1.936402 1_655
Mn27 O79 1.944696 1_555
Mn27 O19 1.948458 1_655
Mn27 O15 1.964746 1_555
Mn27 O31 1.966402 1_555
Mn27 O3 1.969652 1_655
Mn28 O72 1.936771 1_555
Mn28 O20 1.946227 1_555
Mn28 O4 1.947054 1_555
Mn28 O24 1.958576 1_555
Mn28 O68 1.963243 1_555
Mn28 O8 1.965877 1_555
Mn29 O5 1.946255 1_555
Mn29 O21 1.946972 1_555
Mn29 O73 1.950154 1_555
Mn29 O25 1.955295 1_555
Mn29 O9 1.963754 1_555
Mn29 O69 1.970515 1_555
Mn30 O22 1.940264 1_555
Mn30 O74 1.943956 1_555
Mn30 O6 1.953754 1_555
Mn30 O70 1.965093 1_555
Mn30 O10 1.973585 1_555
Mn30 O26 1.976904 1_555
Mn31 O75 1.936400 1_555
Mn31 O71 1.944697 1_555
Mn31 O27 1.948458 1_555
Mn31 O7 1.964735 1_555
Mn31 O23 1.966410 1_555
Mn31 O11 1.969669 1_555
O0 Sr6 2.634563 1_555
O0 Sr1 2.669755 1_554
O1 Sr7 2.636323 1_555
O1 Sr0 2.669765 1_555
O2 Sr8 2.671800 1_555
O3 Sr2 2.707302 1_555
O4 Sr3 2.444392 1_555
O5 Sr4 2.443619 1_555
O6 Sr5 2.438691 1_555
O8 Sr9 2.634566 1_555
O8 Sr4 2.669763 1_555
O9 Sr10 2.636326 1_555
O9 Sr3 2.669769 1_556
O10 Sr11 2.671797 1_555
O11 Sr5 2.707310 1_556
O12 Sr0 2.444380 1_655
O13 Sr1 2.443602 1_655
O14 Sr2 2.438669 1_655
O16 Sr9 2.460200 1_555
O16 Sr0 2.650269 1_555
O16 Sr6 2.650650 1_555
O17 Sr10 2.459453 1_555
O17 Sr1 2.649725 1_555
O17 Sr7 2.650358 1_555
O18 Sr11 2.454090 1_555
O18 Sr2 2.634325 1_555
O18 Sr8 2.643371 1_555
O24 Sr6 2.460205 1_555
O24 Sr3 2.650273 1_555
O24 Sr9 2.650633 1_555
O25 Sr7 2.459454 1_555
O25 Sr4 2.649729 1_555
O25 Sr10 2.650336 1_555
O26 Sr8 2.454096 1_555
O26 Sr5 2.634335 1_555
O26 Sr11 2.643354 1_555
O32 Sr6 2.460195 1_555
O32 Sr11 2.640835 1_555
O32 Sr3 2.646590 1_555
O33 Sr7 2.445659 1_555
O33 Sr4 2.681349 1_555
O34 Sr8 2.455479 1_555
O34 Sr5 2.637225 1_555
O34 Sr9 2.652764 1_565
O35 Sr10 2.690806 1_565
O40 Sr9 2.460211 1_555
O40 Sr8 2.640824 1_545
O40 Sr0 2.646605 1_555
O41 Sr10 2.445679 1_555
O41 Sr1 2.681364 1_555
O42 Sr11 2.455494 1_555
O42 Sr2 2.637235 1_555
O42 Sr6 2.652761 1_555
O43 Sr7 2.690806 1_555
O48 Sr9 2.667637 1_555
O49 Sr10 2.627808 1_555
O49 Sr5 2.666770 1_546
O50 Sr11 2.639071 1_555
O50 Sr4 2.670255 1_555
O51 Sr3 2.709973 1_556
O52 Sr0 2.439088 1_655
O53 Sr1 2.443026 1_655
O54 Sr2 2.444528 1_655
O56 Sr6 2.667615 1_555
O57 Sr7 2.627786 1_555
O57 Sr2 2.666791 1_555
O58 Sr8 2.639049 1_555
O58 Sr1 2.670267 1_564
O59 Sr0 2.709990 1_565
O60 Sr3 2.439077 1_555
O61 Sr4 2.443010 1_555
O62 Sr5 2.444528 1_555
O64 Sr6 2.553091 1_555
O65 Sr7 2.555355 1_555
O66 Sr8 2.550838 1_555
O68 Sr4 2.455131 1_555
O69 Sr3 2.455881 1_556
O71 Sr5 2.426486 1_556
O72 Sr9 2.553077 1_555
O73 Sr10 2.555342 1_555
O74 Sr11 2.550845 1_555
O76 Sr1 2.455131 1_654
O77 Sr0 2.455881 1_655
O79 Sr2 2.426497 1_655
O80 Sr9 2.456017 1_555
O80 Sr1 2.528481 1_554
O81 Sr10 2.446326 1_555
O81 Sr0 2.540271 1_555
O82 Sr11 2.438293 1_555
O83 Sr2 2.546574 1_555
O88 Sr6 2.456027 1_555
O88 Sr4 2.528482 1_555
O89 Sr7 2.446336 1_555
O89 Sr3 2.540271 1_556
O90 Sr8 2.438316 1_555
O91 Sr5 2.546561 1_556
