# generated using pymatgen
data_Th2FeS5
_symmetry_space_group_name_H-M   'P 1'
_cell_length_a   8.15753072
_cell_length_b   8.15753072
_cell_length_c   7.26317508
_cell_angle_alpha   83.48581648
_cell_angle_beta   83.48581648
_cell_angle_gamma   45.90541411
_symmetry_Int_Tables_number   1
_chemical_formula_structural   Th2FeS5
_chemical_formula_sum   'Th4 Fe2 S10'
_cell_volume   344.47933140
_cell_formula_units_Z   2
loop_
 _symmetry_equiv_pos_site_id
 _symmetry_equiv_pos_as_xyz
  1  'x, y, z'
loop_
 _atom_site_type_symbol
 _atom_site_label
 _atom_site_symmetry_multiplicity
 _atom_site_fract_x
 _atom_site_fract_y
 _atom_site_fract_z
 _atom_site_occupancy
  Th  Th0  1  0.11104600  0.67557000  0.57891900  1
  Th  Th1  1  0.32443000  0.88895400  0.92108100  1
  Th  Th2  1  0.88895400  0.32443000  0.42108100  1
  Th  Th3  1  0.67557000  0.11104600  0.07891900  1
  Fe  Fe0  1  0.00000000  0.50000000  0.00000000  1
  Fe  Fe1  1  0.50000000  0.00000000  0.50000000  1
  S  S0  1  0.91939500  0.08060500  0.75000000  1
  S  S1  1  0.08060500  0.91939500  0.25000000  1
  S  S2  1  0.28023500  0.53738500  0.93245600  1
  S  S3  1  0.46261500  0.71976500  0.56754400  1
  S  S4  1  0.71976500  0.46261500  0.06754400  1
  S  S5  1  0.53738500  0.28023500  0.43245600  1
  S  S6  1  0.14360100  0.29928700  0.68831300  1
  S  S7  1  0.70071300  0.85639900  0.81168700  1
  S  S8  1  0.85639900  0.70071300  0.31168700  1
  S  S9  1  0.29928700  0.14360100  0.18831300  1
loop_
_geom_bond_atom_site_label_1
_geom_bond_atom_site_label_2
_geom_bond_distance
_geom_bond_site_symmetry_2
Fe0 S4 2.498284 1_455
Fe0 S2 2.498284 1_554
Fe0 S7 2.502210 1_454
Fe0 S9 2.502210 1_555
Fe0 S8 2.597705 1_455
Fe0 S6 2.597705 1_554
Fe1 S3 2.498284 1_545
Fe1 S5 2.498284 1_555
Fe1 S8 2.502210 1_545
Fe1 S6 2.502210 1_555
Fe1 S9 2.597705 1_555
Fe1 S7 2.597705 1_545
S0 Th3 2.845029 1_556
S0 Th2 2.845029 1_555
S0 Th0 2.864801 1_645
S0 Th1 2.864801 1_645
S1 Th0 2.845029 1_555
S1 Th1 2.845029 1_554
S1 Th3 2.864801 1_465
S1 Th2 2.864801 1_465
S2 Th0 2.784121 1_555
S2 Th3 2.820880 1_556
S2 Th1 3.120941 1_555
S3 Th1 2.784121 1_555
S3 Th2 2.820880 1_555
S3 Th0 3.120941 1_555
S4 Th2 2.784121 1_555
S4 Th1 2.820880 1_554
S4 Th3 3.120941 1_555
S5 Th3 2.784121 1_555
S5 Th0 2.820880 1_555
S5 Th2 3.120941 1_555
S6 Th2 2.890686 1_455
S6 Th0 2.912720 1_555
S6 Th1 2.940882 1_545
S7 Th3 2.890686 1_566
S7 Th1 2.912720 1_555
S7 Th0 2.940882 1_655
S8 Th0 2.890686 1_655
S8 Th2 2.912720 1_555
S8 Th3 2.940882 1_565
S9 Th1 2.890686 1_544
S9 Th3 2.912720 1_555
S9 Th2 2.940882 1_455
