# generated using pymatgen
data_LiAg2C2(NO)2
_symmetry_space_group_name_H-M   'P 1'
_cell_length_a   3.25556264
_cell_length_b   5.54670869
_cell_length_c   8.74611600
_cell_angle_alpha   90.00000000
_cell_angle_beta   90.00000000
_cell_angle_gamma   78.74616051
_symmetry_Int_Tables_number   1
_chemical_formula_structural   LiAg2C2(NO)2
_chemical_formula_sum   'Li1 Ag2 C2 N2 O2'
_cell_volume   154.89763829
_cell_formula_units_Z   1
loop_
 _symmetry_equiv_pos_site_id
 _symmetry_equiv_pos_as_xyz
  1  'x, y, z'
loop_
 _atom_site_type_symbol
 _atom_site_label
 _atom_site_symmetry_multiplicity
 _atom_site_fract_x
 _atom_site_fract_y
 _atom_site_fract_z
 _atom_site_occupancy
  Li  Li0  1  0.54717800  0.07523300  0.25000000  1
  Ag  Ag0  1  0.04604100  0.93418800  0.54978300  1
  Ag  Ag1  1  0.04604100  0.93418800  0.95021700  1
  C  C0  1  0.24668100  0.64051000  0.25000000  1
  C  C1  1  0.71190400  0.40441400  0.75000000  1
  N  N0  1  0.85559900  0.18690200  0.75000000  1
  N  N1  1  0.11226100  0.86095200  0.25000000  1
  O  O0  1  0.56831000  0.62374300  0.75000000  1
  O  O1  1  0.38384300  0.42320200  0.25000000  1
loop_
_geom_bond_atom_site_label_1
_geom_bond_atom_site_label_2
_geom_bond_distance
_geom_bond_site_symmetry_2
Li0 O1 1.899313 1_555
Li0 N1 1.985847 1_645
Li0 N1 2.018484 1_545
Ag0 N0 2.253101 1_465
Ag1 N0 2.253101 1_465
C0 O1 1.200905 1_555
C0 N1 1.215615 1_555
C1 N0 1.205876 1_555
C1 O0 1.215140 1_555
