# generated using pymatgen
data_NaP4(RuO7)2
_symmetry_space_group_name_H-M   'P 1'
_cell_length_a   4.85765100
_cell_length_b   7.08310302
_cell_length_c   8.04118815
_cell_angle_alpha   91.12335767
_cell_angle_beta   92.64089687
_cell_angle_gamma   106.99081491
_symmetry_Int_Tables_number   1
_chemical_formula_structural   NaP4(RuO7)2
_chemical_formula_sum   'Na1 P4 Ru2 O14'
_cell_volume   264.15926425
_cell_formula_units_Z   1
loop_
 _symmetry_equiv_pos_site_id
 _symmetry_equiv_pos_as_xyz
  1  'x, y, z'
loop_
 _atom_site_type_symbol
 _atom_site_label
 _atom_site_symmetry_multiplicity
 _atom_site_fract_x
 _atom_site_fract_y
 _atom_site_fract_z
 _atom_site_occupancy
  Na  Na0  1  0.43781700  0.98828200  0.01940900  1
  P  P0  1  0.46636500  0.36896400  0.23973200  1
  P  P1  1  0.53324700  0.63346400  0.76062200  1
  P  P2  1  0.88019800  0.76137200  0.30514800  1
  P  P3  1  0.11972400  0.23994300  0.69663700  1
  Ru  Ru0  1  0.99905800  0.49957300  0.00003300  1
  Ru  Ru1  1  0.50019700  0.00092300  0.50087300  1
  O  O0  1  0.61313400  0.33326100  0.07989900  1
  O  O1  1  0.38428100  0.66850700  0.91983700  1
  O  O2  1  0.31156300  0.45854100  0.65046600  1
  O  O3  1  0.68879900  0.54239000  0.35034100  1
  O  O4  1  0.68664800  0.89982800  0.30560000  1
  O  O5  1  0.31116100  0.10000300  0.69489400  1
  O  O6  1  0.61941400  0.81456100  0.65717900  1
  O  O7  1  0.38102500  0.18453800  0.33981400  1
  O  O8  1  0.19483900  0.43310000  0.20235100  1
  O  O9  1  0.80449700  0.56907600  0.79922800  1
  O  O10  1  0.02087900  0.24788200  0.87619000  1
  O  O11  1  0.98361900  0.75402100  0.12623100  1
  O  O12  1  0.87790800  0.20073600  0.56018500  1
  O  O13  1  0.12162900  0.80103300  0.44133400  1
loop_
_geom_bond_atom_site_label_1
_geom_bond_atom_site_label_2
_geom_bond_distance
_geom_bond_site_symmetry_2
Na0 O1 2.324734 1_554
Na0 O0 2.373119 1_565
Na0 O11 2.539674 1_455
Na0 O4 2.718902 1_555
Na0 O5 2.834029 1_564
O0 P0 1.549575 1_555
O0 Ru0 2.040717 1_555
O1 P1 1.549916 1_555
O1 Ru0 2.045035 1_456
O2 P1 1.602703 1_555
O2 P3 1.617033 1_555
O3 P0 1.600129 1_555
O3 P2 1.616397 1_555
O4 P2 1.544283 1_555
O4 Ru1 2.065112 1_565
O5 P3 1.544939 1_555
O5 Ru1 2.058047 1_555
O6 P1 1.507522 1_555
O6 Ru1 2.025423 1_565
O7 P0 1.510442 1_555
O7 Ru1 2.034910 1_555
O8 P0 1.534743 1_555
O8 Ru0 1.980414 1_455
O9 P1 1.536099 1_555
O9 Ru0 1.976193 1_556
O10 P3 1.547516 1_555
O10 Ru0 2.057112 1_456
O11 P2 1.550461 1_555
O11 Ru0 2.073143 1_555
O12 P3 1.529542 1_655
O12 Ru1 1.993045 1_555
O13 P2 1.526637 1_455
O13 Ru1 1.996541 1_565
