# generated using pymatgen
data_NaTlO2
_symmetry_space_group_name_H-M   'P 1'
_cell_length_a   3.45480800
_cell_length_b   3.45480800
_cell_length_c   4.51927300
_cell_angle_alpha   90.00000000
_cell_angle_beta   90.00000000
_cell_angle_gamma   90.00000000
_symmetry_Int_Tables_number   1
_chemical_formula_structural   NaTlO2
_chemical_formula_sum   'Na1 Tl1 O2'
_cell_volume   53.94067914
_cell_formula_units_Z   1
loop_
 _symmetry_equiv_pos_site_id
 _symmetry_equiv_pos_as_xyz
  1  'x, y, z'
loop_
 _atom_site_type_symbol
 _atom_site_label
 _atom_site_symmetry_multiplicity
 _atom_site_fract_x
 _atom_site_fract_y
 _atom_site_fract_z
 _atom_site_occupancy
  Na  Na0  1  0.00000000  0.00000000  0.00000000  1
  Tl  Tl0  1  0.50000000  0.50000000  0.50000000  1
  O  O0  1  0.00000000  0.00000000  0.50000000  1
  O  O1  1  0.50000000  0.50000000  0.00000000  1
loop_
_geom_bond_atom_site_label_1
_geom_bond_atom_site_label_2
_geom_bond_distance
_geom_bond_site_symmetry_2
Na0 O0 2.259637 1_555
Na0 O0 2.259637 1_554
Na0 O1 2.442918 1_545
Na0 O1 2.442918 1_445
Na0 O1 2.442918 1_455
Na0 O1 2.442918 1_555
O0 Tl0 2.442918 1_445
O0 Tl0 2.442918 1_545
O0 Tl0 2.442918 1_455
O0 Tl0 2.442918 1_555
O1 Tl0 2.259637 1_555
O1 Tl0 2.259637 1_554
