# generated using pymatgen
data_KCu2GeS4
_symmetry_space_group_name_H-M   'P 1'
_cell_length_a   6.17930339
_cell_length_b   6.17930339
_cell_length_c   6.17930339
_cell_angle_alpha   119.16719091
_cell_angle_beta   119.16719091
_cell_angle_gamma   91.44862363
_symmetry_Int_Tables_number   1
_chemical_formula_structural   KCu2GeS4
_chemical_formula_sum   'K1 Cu2 Ge1 S4'
_cell_volume   168.88306211
_cell_formula_units_Z   1
loop_
 _symmetry_equiv_pos_site_id
 _symmetry_equiv_pos_as_xyz
  1  'x, y, z'
loop_
 _atom_site_type_symbol
 _atom_site_label
 _atom_site_symmetry_multiplicity
 _atom_site_fract_x
 _atom_site_fract_y
 _atom_site_fract_z
 _atom_site_occupancy
  K  K0  1  0.50000000  0.50000000  0.00000000  1
  Cu  Cu0  1  0.75000000  0.25000000  0.50000000  1
  Cu  Cu1  1  0.25000000  0.75000000  0.50000000  1
  Ge  Ge0  1  0.00000000  0.00000000  0.00000000  1
  S  S0  1  0.35975000  0.95849100  0.00000000  1
  S  S1  1  0.95849100  0.35975000  0.00000000  1
  S  S2  1  0.64025000  0.64025000  0.59874100  1
  S  S3  1  0.04150900  0.04150900  0.40125900  1
loop_
_geom_bond_atom_site_label_1
_geom_bond_atom_site_label_2
_geom_bond_distance
_geom_bond_site_symmetry_2
K0 S2 2.983620 1_555
K0 S3 2.983620 1_554
K0 S1 2.983620 1_555
K0 S0 2.983620 1_555
K0 S1 3.435282 1_455
K0 S0 3.435282 1_545
K0 S3 3.435282 1_665
K0 S2 3.435282 1_554
Cu0 S0 2.387314 1_545
Cu0 S1 2.387314 1_556
Cu0 S3 2.387314 1_655
Cu0 S2 2.387314 1_555
Cu1 S0 2.387314 1_556
Cu1 S1 2.387314 1_455
Cu1 S3 2.387314 1_565
Cu1 S2 2.387314 1_555
Ge0 S2 2.244186 1_444
Ge0 S3 2.244186 1_555
Ge0 S0 2.244186 1_545
Ge0 S1 2.244186 1_455
