# generated using pymatgen
data_NbBOs
_symmetry_space_group_name_H-M   'P 1'
_cell_length_a   3.11639200
_cell_length_b   9.10968200
_cell_length_c   15.84685600
_cell_angle_alpha   90.00000000
_cell_angle_beta   90.00000000
_cell_angle_gamma   90.00000000
_symmetry_Int_Tables_number   1
_chemical_formula_structural   NbBOs
_chemical_formula_sum   'Nb12 B12 Os12'
_cell_volume   449.88178462
_cell_formula_units_Z   12
loop_
 _symmetry_equiv_pos_site_id
 _symmetry_equiv_pos_as_xyz
  1  'x, y, z'
loop_
 _atom_site_type_symbol
 _atom_site_label
 _atom_site_symmetry_multiplicity
 _atom_site_fract_x
 _atom_site_fract_y
 _atom_site_fract_z
 _atom_site_occupancy
  Nb  Nb0  1  0.00000000  0.80087600  0.49581300  1
  Nb  Nb1  1  0.00000000  0.19912400  0.50418700  1
  Nb  Nb2  1  0.00000000  0.30087600  0.00418700  1
  Nb  Nb3  1  0.00000000  0.69912400  0.99581300  1
  Nb  Nb4  1  0.00000000  0.51646200  0.59342300  1
  Nb  Nb5  1  0.00000000  0.48353800  0.40657700  1
  Nb  Nb6  1  0.00000000  0.01646200  0.90657700  1
  Nb  Nb7  1  0.00000000  0.98353800  0.09342300  1
  Nb  Nb8  1  0.00000000  0.68680400  0.20264600  1
  Nb  Nb9  1  0.00000000  0.31319600  0.79735400  1
  Nb  Nb10  1  0.00000000  0.18680400  0.29735400  1
  Nb  Nb11  1  0.00000000  0.81319600  0.70264600  1
  B  B0  1  0.50000000  0.60714500  0.49679300  1
  B  B1  1  0.50000000  0.39285500  0.50320700  1
  B  B2  1  0.50000000  0.10714500  0.00320700  1
  B  B3  1  0.50000000  0.89285500  0.99679300  1
  B  B4  1  0.00000000  0.61076600  0.83243100  1
  B  B5  1  0.00000000  0.38923400  0.16756900  1
  B  B6  1  0.00000000  0.11076600  0.66756900  1
  B  B7  1  0.00000000  0.88923400  0.33243100  1
  B  B8  1  0.50000000  0.71559700  0.59816800  1
  B  B9  1  0.50000000  0.28440300  0.40183200  1
  B  B10  1  0.50000000  0.21559700  0.90183200  1
  B  B11  1  0.50000000  0.78440300  0.09816800  1
  Os  Os0  1  0.50000000  0.71863200  0.35545600  1
  Os  Os1  1  0.50000000  0.28136800  0.64454400  1
  Os  Os2  1  0.50000000  0.21863200  0.14454400  1
  Os  Os3  1  0.50000000  0.78136800  0.85545600  1
  Os  Os4  1  0.50000000  0.51519700  0.09425000  1
  Os  Os5  1  0.50000000  0.48480300  0.90575000  1
  Os  Os6  1  0.50000000  0.01519700  0.40575000  1
  Os  Os7  1  0.50000000  0.98480300  0.59425000  1
  Os  Os8  1  0.50000000  0.56162400  0.73476300  1
  Os  Os9  1  0.50000000  0.43837600  0.26523700  1
  Os  Os10  1  0.50000000  0.06162400  0.76523700  1
  Os  Os11  1  0.50000000  0.93837600  0.23476300  1
loop_
_geom_bond_atom_site_label_1
_geom_bond_atom_site_label_2
_geom_bond_distance
_geom_bond_site_symmetry_2
Nb0 Os7 2.769237 1_555
Nb0 Os7 2.769237 1_455
Nb0 Os0 2.817169 1_455
Nb0 Os0 2.817169 1_555
Nb0 Os6 2.876937 1_465
Nb0 Os6 2.876937 1_565
Nb1 Os6 2.769237 1_555
Nb1 Os6 2.769237 1_455
Nb1 Os1 2.817169 1_455
Nb1 Os1 2.817169 1_555
Nb1 Os7 2.876937 1_445
Nb1 Os7 2.876937 1_545
Nb2 Os5 2.769237 1_554
Nb2 Os5 2.769237 1_454
Nb2 Os2 2.817169 1_555
Nb2 Os2 2.817169 1_455
Nb2 Os4 2.876937 1_555
Nb2 Os4 2.876937 1_455
Nb3 Os4 2.769237 1_456
Nb3 Os4 2.769237 1_556
Nb3 Os3 2.817169 1_455
Nb3 Os3 2.817169 1_555
Nb3 Os5 2.876937 1_555
Nb3 Os5 2.876937 1_455
Nb4 Os8 2.759332 1_555
Nb4 Os8 2.759332 1_455
Nb4 Os1 2.769627 1_455
Nb4 Os1 2.769627 1_555
Nb5 Os9 2.759332 1_455
Nb5 Os9 2.759332 1_555
Nb5 Os0 2.769627 1_555
Nb5 Os0 2.769627 1_455
Nb6 Os10 2.759332 1_455
Nb6 Os10 2.759332 1_555
Nb6 Os3 2.769627 1_545
Nb6 Os3 2.769627 1_445
Nb7 Os11 2.759332 1_555
Nb7 Os11 2.759332 1_455
Nb7 Os2 2.769627 1_565
Nb7 Os2 2.769627 1_465
Nb8 Os4 2.796865 1_455
Nb8 Os4 2.796865 1_555
Nb8 Os11 2.817638 1_455
Nb8 Os11 2.817638 1_555
Nb8 Os0 2.894129 1_555
Nb8 Os0 2.894129 1_455
Nb8 Os9 2.921199 1_455
Nb8 Os9 2.921199 1_555
Nb9 Os5 2.796865 1_555
Nb9 Os5 2.796865 1_455
Nb9 Os10 2.817638 1_455
Nb9 Os10 2.817638 1_555
Nb9 Os1 2.894129 1_455
Nb9 Os1 2.894129 1_555
Nb9 Os8 2.921199 1_555
Nb9 Os8 2.921199 1_455
Nb10 Os6 2.796865 1_555
Nb10 Os6 2.796865 1_455
Nb10 Os9 2.817638 1_555
Nb10 Os9 2.817638 1_455
Nb10 Os2 2.894129 1_555
Nb10 Os2 2.894129 1_455
Nb10 Os11 2.921199 1_445
Nb10 Os11 2.921199 1_545
Nb11 Os7 2.796865 1_555
Nb11 Os7 2.796865 1_455
Nb11 Os8 2.817638 1_555
Nb11 Os8 2.817638 1_455
Nb11 Os3 2.894129 1_455
Nb11 Os3 2.894129 1_555
Nb11 Os10 2.921199 1_465
Nb11 Os10 2.921199 1_565
B0 B8 1.885957 1_555
B0 B1 1.954758 1_555
B0 Nb4 2.335643 1_555
B0 Nb4 2.335643 1_655
B0 Nb0 2.354322 1_555
B0 Nb0 2.354322 1_655
B0 Nb5 2.395781 1_555
B0 Nb5 2.395781 1_655
B0 Os0 2.459255 1_555
B1 B9 1.885957 1_555
B1 Nb5 2.335643 1_555
B1 Nb5 2.335643 1_655
B1 Nb1 2.354322 1_555
B1 Nb1 2.354322 1_655
B1 Nb4 2.395781 1_655
B1 Nb4 2.395781 1_555
B1 Os1 2.459255 1_555
B2 B3 1.954758 1_544
B2 Nb6 2.335643 1_654
B2 Nb6 2.335643 1_554
B2 Nb2 2.354322 1_555
B2 Nb2 2.354322 1_655
B2 Nb7 2.395781 1_645
B2 Nb7 2.395781 1_545
B2 Os2 2.459255 1_555
B3 Nb7 2.335643 1_656
B3 Nb7 2.335643 1_556
B3 Nb3 2.354322 1_555
B3 Nb3 2.354322 1_655
B3 Nb6 2.395781 1_665
B3 Nb6 2.395781 1_565
B3 Os3 2.459255 1_555
B4 Os3 2.230791 1_455
B4 Os3 2.230791 1_555
B4 Os8 2.241395 1_555
B4 Os8 2.241395 1_455
B4 Os5 2.257132 1_555
B4 Os5 2.257132 1_455
B4 Nb3 2.711324 1_555
B4 Nb11 2.762346 1_555
B4 Nb9 2.767173 1_555
B5 Os2 2.230791 1_555
B5 Os2 2.230791 1_455
B5 Os9 2.241395 1_455
B5 Os9 2.241395 1_555
B5 Os4 2.257132 1_555
B5 Os4 2.257132 1_455
B5 Nb2 2.711324 1_555
B5 Nb10 2.762346 1_555
B5 Nb8 2.767173 1_555
B6 Os1 2.230791 1_455
B6 Os1 2.230791 1_555
B6 Os10 2.241395 1_555
B6 Os10 2.241395 1_455
B6 Os7 2.257132 1_545
B6 Os7 2.257132 1_445
B6 Nb1 2.711324 1_555
B6 Nb9 2.762346 1_555
B6 Nb11 2.767173 1_545
B7 Os0 2.230791 1_555
B7 Os0 2.230791 1_455
B7 Os11 2.241395 1_455
B7 Os11 2.241395 1_555
B7 Os6 2.257132 1_465
B7 Os6 2.257132 1_565
B7 Nb0 2.711324 1_555
B7 Nb8 2.762346 1_555
B7 Nb10 2.767173 1_565
B8 Nb0 2.379578 1_555
B8 Nb0 2.379578 1_655
B8 Nb4 2.392578 1_655
B8 Nb4 2.392578 1_555
B8 Nb11 2.441237 1_655
B8 Nb11 2.441237 1_555
B8 Os7 2.453167 1_555
B8 Os8 2.579324 1_555
B9 Nb1 2.379578 1_555
B9 Nb1 2.379578 1_655
B9 Nb5 2.392578 1_555
B9 Nb5 2.392578 1_655
B9 Nb10 2.441237 1_555
B9 Nb10 2.441237 1_655
B9 Os6 2.453167 1_555
B9 Os9 2.579324 1_555
B10 B2 1.885957 1_556
B10 Nb2 2.379578 1_656
B10 Nb2 2.379578 1_556
B10 Nb6 2.392578 1_555
B10 Nb6 2.392578 1_655
B10 Nb9 2.441237 1_655
B10 Nb9 2.441237 1_555
B10 Os5 2.453167 1_555
B10 Os10 2.579324 1_555
B11 B3 1.885957 1_554
B11 Nb3 2.379578 1_554
B11 Nb3 2.379578 1_654
B11 Nb7 2.392578 1_555
B11 Nb7 2.392578 1_655
B11 Nb8 2.441237 1_655
B11 Nb8 2.441237 1_555
B11 Os4 2.453167 1_555
B11 Os11 2.579324 1_555
