# generated using pymatgen
data_Mg6ZrMn
_symmetry_space_group_name_H-M   'P 1'
_cell_length_a   4.92949200
_cell_length_b   6.23185100
_cell_length_c   11.18636700
_cell_angle_alpha   90.00000000
_cell_angle_beta   90.00000000
_cell_angle_gamma   90.00000000
_symmetry_Int_Tables_number   1
_chemical_formula_structural   Mg6ZrMn
_chemical_formula_sum   'Mg12 Zr2 Mn2'
_cell_volume   343.64362423
_cell_formula_units_Z   2
loop_
 _symmetry_equiv_pos_site_id
 _symmetry_equiv_pos_as_xyz
  1  'x, y, z'
loop_
 _atom_site_type_symbol
 _atom_site_label
 _atom_site_symmetry_multiplicity
 _atom_site_fract_x
 _atom_site_fract_y
 _atom_site_fract_z
 _atom_site_occupancy
  Mg  Mg0  1  0.00000000  0.74414300  0.08005400  1
  Mg  Mg1  1  0.00000000  0.25585700  0.08005400  1
  Mg  Mg2  1  0.00000000  0.00000000  0.32901700  1
  Mg  Mg3  1  0.50000000  0.25780900  0.42290400  1
  Mg  Mg4  1  0.50000000  0.74219100  0.42290400  1
  Mg  Mg5  1  0.50000000  0.00000000  0.16559000  1
  Mg  Mg6  1  0.00000000  0.24414300  0.58005400  1
  Mg  Mg7  1  0.00000000  0.75585700  0.58005400  1
  Mg  Mg8  1  0.00000000  0.50000000  0.82901700  1
  Mg  Mg9  1  0.50000000  0.75780900  0.92290400  1
  Mg  Mg10  1  0.50000000  0.24219100  0.92290400  1
  Mg  Mg11  1  0.50000000  0.50000000  0.66559000  1
  Zr  Zr0  1  0.50000000  0.50000000  0.18641000  1
  Zr  Zr1  1  0.50000000  0.00000000  0.68641000  1
  Mn  Mn0  1  0.00000000  0.50000000  0.31306600  1
  Mn  Mn1  1  0.00000000  0.00000000  0.81306600  1
loop_
_geom_bond_atom_site_label_1
_geom_bond_atom_site_label_2
_geom_bond_distance
_geom_bond_site_symmetry_2
Mg0 Mn0 3.018111 1_555
Mg0 Mg9 3.028625 1_554
Mg0 Mg9 3.028625 1_454
Mg0 Mg1 3.042926 1_555
Mg0 Mg5 3.087527 1_465
Mg0 Mg5 3.087527 1_565
Mg0 Zr0 3.131341 1_455
Mg0 Zr0 3.131341 1_555
Mg0 Mg1 3.188925 1_565
Mg0 Mg8 3.193868 1_554
Mg0 Mg2 3.209126 1_565
Mg0 Mn1 3.385594 1_564
Mg1 Mn0 3.018111 1_555
Mg1 Mg10 3.028625 1_554
Mg1 Mg10 3.028625 1_454
Mg1 Mg5 3.087527 1_555
Mg1 Mg5 3.087527 1_455
Mg1 Zr0 3.131341 1_455
Mg1 Zr0 3.131341 1_555
Mg1 Mg8 3.193868 1_554
Mg1 Mg2 3.209126 1_555
Mg1 Mn1 3.385594 1_554
Mg2 Mg5 3.068733 1_455
Mg2 Mg5 3.068733 1_555
Mg2 Mn0 3.121030 1_545
Mg2 Mn0 3.121030 1_555
Mg2 Mg3 3.123981 1_455
Mg2 Mg3 3.123981 1_555
Mg2 Mg4 3.123981 1_445
Mg2 Mg4 3.123981 1_545
Mg2 Mg6 3.193868 1_555
Mg2 Mg7 3.193868 1_545
Mg3 Mg4 3.018596 1_555
Mg3 Mg6 3.028625 1_555
Mg3 Mg6 3.028625 1_655
Mg3 Zr0 3.045767 1_555
Mg3 Mn0 3.140482 1_555
Mg3 Mn0 3.140482 1_655
Mg3 Mg4 3.213255 1_545
Mg3 Mg5 3.296436 1_555
Mg3 Zr1 3.357088 1_555
Mg4 Mg7 3.028625 1_655
Mg4 Mg7 3.028625 1_555
Mg4 Zr0 3.045767 1_555
Mg4 Mn0 3.140482 1_555
Mg4 Mn0 3.140482 1_655
Mg4 Mg5 3.296436 1_565
Mg4 Zr1 3.357088 1_565
Mg5 Mg9 3.106120 1_544
Mg5 Zr0 3.124617 1_545
Mg5 Zr0 3.124617 1_555
Mg6 Mn1 3.018111 1_555
Mg6 Mg7 3.042926 1_545
Mg6 Zr1 3.131341 1_455
Mg6 Zr1 3.131341 1_555
Mg6 Mg7 3.188925 1_555
Mg6 Mg8 3.209126 1_555
Mg6 Mn0 3.385594 1_555
Mg7 Mn1 3.018111 1_565
Mg7 Zr1 3.131341 1_565
Mg7 Zr1 3.131341 1_465
Mg7 Mg8 3.209126 1_555
Mg7 Mn0 3.385594 1_555
Mg8 Mn1 3.121030 1_565
Mg8 Mn1 3.121030 1_555
Mg8 Mg9 3.123981 1_455
Mg8 Mg9 3.123981 1_555
Mg9 Zr1 3.045767 1_565
Mg9 Mn1 3.140482 1_665
Mg9 Mn1 3.140482 1_565
Mg9 Zr0 3.357088 1_556
Mg10 Mg9 3.018596 1_545
Mg10 Zr1 3.045767 1_555
Mg10 Mg5 3.106120 1_556
Mg10 Mg8 3.123981 1_555
Mg10 Mg8 3.123981 1_655
Mg10 Mn1 3.140482 1_555
Mg10 Mn1 3.140482 1_655
Mg10 Mg9 3.213255 1_555
Mg10 Mg11 3.296436 1_555
Mg10 Zr0 3.357088 1_556
Mg11 Mg8 3.068733 1_555
Mg11 Mg8 3.068733 1_655
Mg11 Mg7 3.087527 1_555
Mg11 Mg7 3.087527 1_655
Mg11 Mg6 3.087527 1_555
Mg11 Mg6 3.087527 1_655
Mg11 Mg4 3.106120 1_555
Mg11 Mg3 3.106120 1_555
Mg11 Zr1 3.124617 1_555
Mg11 Zr1 3.124617 1_565
Mg11 Mg9 3.296436 1_555
Mn0 Zr0 2.842948 1_455
Mn0 Zr0 2.842948 1_555
Mn1 Zr1 2.842948 1_555
Mn1 Zr1 2.842948 1_455
