# generated using pymatgen
data_RbFe(SO4)2
_symmetry_space_group_name_H-M   'P 1'
_cell_length_a   4.91594503
_cell_length_b   4.91594503
_cell_length_c   8.59031800
_cell_angle_alpha   90.00000000
_cell_angle_beta   90.00000000
_cell_angle_gamma   119.99998695
_symmetry_Int_Tables_number   1
_chemical_formula_structural   RbFe(SO4)2
_chemical_formula_sum   'Rb1 Fe1 S2 O8'
_cell_volume   179.78521171
_cell_formula_units_Z   1
loop_
 _symmetry_equiv_pos_site_id
 _symmetry_equiv_pos_as_xyz
  1  'x, y, z'
loop_
 _atom_site_type_symbol
 _atom_site_label
 _atom_site_symmetry_multiplicity
 _atom_site_fract_x
 _atom_site_fract_y
 _atom_site_fract_z
 _atom_site_occupancy
  Rb  Rb0  1  0.00000000  0.00000000  0.50000000  1
  Fe  Fe0  1  0.00000000  0.00000000  0.00000000  1
  S  S0  1  0.33333300  0.66666700  0.20426400  1
  S  S1  1  0.66666700  0.33333300  0.79573600  1
  O  O0  1  0.08981900  0.34997200  0.14741200  1
  O  O1  1  0.65002800  0.73984800  0.14741200  1
  O  O2  1  0.34997200  0.08981900  0.85258800  1
  O  O3  1  0.26015200  0.91018100  0.14741200  1
  O  O4  1  0.73984800  0.65002800  0.85258800  1
  O  O5  1  0.91018100  0.26015200  0.85258800  1
  O  O6  1  0.33333300  0.66666700  0.37511100  1
  O  O7  1  0.66666700  0.33333300  0.62488900  1
loop_
_geom_bond_atom_site_label_1
_geom_bond_atom_site_label_2
_geom_bond_distance
_geom_bond_site_symmetry_2
Fe0 O5 1.999694 1_454
Fe0 O3 1.999694 1_545
Fe0 O4 1.999696 1_444
Fe0 O1 1.999696 1_445
Fe0 O2 1.999697 1_554
Fe0 O0 1.999697 1_555
O0 S0 1.493870 1_555
O0 Rb0 3.401341 1_555
O1 S0 1.493870 1_555
O1 Rb0 3.401341 1_665
O2 S1 1.493870 1_555
O2 Rb0 3.401341 1_555
O3 S0 1.493870 1_555
O3 Rb0 3.401339 1_565
O4 S1 1.493870 1_555
O4 Rb0 3.401341 1_665
O5 S1 1.493870 1_555
O5 Rb0 3.401339 1_655
O6 S0 1.467630 1_555
O6 Rb0 3.034216 1_565
O6 Rb0 3.034220 1_665
O6 Rb0 3.034220 1_555
O7 S1 1.467630 1_555
O7 Rb0 3.034216 1_655
O7 Rb0 3.034220 1_665
O7 Rb0 3.034220 1_555
