# generated using pymatgen
data_Li9Mn7O16
_symmetry_space_group_name_H-M   'P 1'
_cell_length_a   3.01792600
_cell_length_b   5.10426570
_cell_length_c   19.97573243
_cell_angle_alpha   91.82984565
_cell_angle_beta   91.46540077
_cell_angle_gamma   102.77390103
_symmetry_Int_Tables_number   1
_chemical_formula_structural   Li9Mn7O16
_chemical_formula_sum   'Li9 Mn7 O16'
_cell_volume   299.77510782
_cell_formula_units_Z   1
loop_
 _symmetry_equiv_pos_site_id
 _symmetry_equiv_pos_as_xyz
  1  'x, y, z'
loop_
 _atom_site_type_symbol
 _atom_site_label
 _atom_site_symmetry_multiplicity
 _atom_site_fract_x
 _atom_site_fract_y
 _atom_site_fract_z
 _atom_site_occupancy
  Li  Li0  1  0.95757300  0.20248900  0.68770000  1
  Li  Li1  1  0.56093200  0.31119500  0.81217100  1
  Li  Li2  1  0.18751600  0.43765600  0.93733700  1
  Li  Li3  1  0.81248400  0.56234400  0.06266300  1
  Li  Li4  1  0.43906800  0.68880500  0.18782900  1
  Li  Li5  1  0.04242700  0.79751100  0.31230000  1
  Li  Li6  1  0.72725000  0.94927800  0.44594800  1
  Li  Li7  1  0.27275000  0.05072200  0.55405200  1
  Li  Li8  1  0.00000000  0.50000000  0.50000000  1
  Mn  Mn0  1  0.61772200  0.62522200  0.61994400  1
  Mn  Mn1  1  0.38227800  0.37477800  0.38005600  1
  Mn  Mn2  1  0.23384400  0.74254400  0.74873000  1
  Mn  Mn3  1  0.87240900  0.87425100  0.87430000  1
  Mn  Mn4  1  0.50000000  0.00000000  0.00000000  1
  Mn  Mn5  1  0.12759100  0.12574900  0.12570000  1
  Mn  Mn6  1  0.76615600  0.25745600  0.25127000  1
  O  O0  1  0.22771900  0.86715700  0.65576300  1
  O  O1  1  0.92416800  0.01545800  0.78303000  1
  O  O2  1  0.55760100  0.14335800  0.90932500  1
  O  O3  1  0.18336100  0.26848000  0.03493300  1
  O  O4  1  0.80861800  0.39410200  0.15997300  1
  O  O5  1  0.43621400  0.51777700  0.28534300  1
  O  O6  1  0.97594300  0.61097900  0.40199300  1
  O  O7  1  0.66642500  0.78367000  0.53922900  1
  O  O8  1  0.56378600  0.48222300  0.71465700  1
  O  O9  1  0.19138200  0.60589800  0.84002700  1
  O  O10  1  0.81663900  0.73152000  0.96506700  1
  O  O11  1  0.44239900  0.85664200  0.09067500  1
  O  O12  1  0.07583200  0.98454200  0.21697000  1
  O  O13  1  0.77228100  0.13284300  0.34423700  1
  O  O14  1  0.33357500  0.21633000  0.46077100  1
  O  O15  1  0.02405700  0.38902100  0.59800700  1
loop_
_geom_bond_atom_site_label_1
_geom_bond_atom_site_label_2
_geom_bond_distance
_geom_bond_site_symmetry_2
Li0 O15 2.049329 1_655
Li0 O8 2.102649 1_655
Li0 O8 2.115426 1_555
Li0 O0 2.138992 1_645
Li0 O1 2.152022 1_555
Li0 O0 2.525772 1_545
Li1 O1 2.127787 1_555
Li1 O9 2.129875 1_555
Li1 O2 2.145642 1_555
Li1 O8 2.159318 1_555
Li1 O9 2.195275 1_655
Li1 O1 2.216833 1_455
Li2 O10 2.128512 1_455
Li2 O2 2.130090 1_555
Li2 O9 2.149287 1_555
Li2 O3 2.156513 1_556
Li2 O10 2.189831 1_555
Li2 O2 2.193782 1_455
Li3 O3 2.128512 1_655
Li3 O11 2.130090 1_555
Li3 O4 2.149287 1_555
Li3 O10 2.156513 1_554
Li3 O3 2.189831 1_555
Li3 O11 2.193782 1_655
Li4 O12 2.127787 1_555
Li4 O4 2.129875 1_555
Li4 O11 2.145642 1_555
Li4 O5 2.159318 1_555
Li4 O4 2.195275 1_455
Li4 O12 2.216833 1_655
Li5 O6 2.049329 1_455
Li5 O5 2.102649 1_455
Li5 O5 2.115426 1_555
Li5 O13 2.138992 1_465
Li5 O12 2.152022 1_555
Li5 O13 2.525772 1_565
Li6 O14 2.016341 1_565
Li6 O14 2.034105 1_665
Li6 O7 2.066351 1_555
Li6 O6 2.196807 1_555
Li6 O13 2.259154 1_565
Li7 O7 2.016341 1_545
Li7 O7 2.034105 1_445
Li7 O14 2.066351 1_555
Li7 O15 2.196807 1_555
Li7 O0 2.259154 1_545
Li8 O15 2.059302 1_555
Li8 O6 2.059302 1_455
Li8 O7 2.082423 1_455
Li8 O14 2.082423 1_555
Li8 O7 2.305374 1_555
Li8 O14 2.305374 1_455
Mn0 O7 1.821585 1_555
Mn0 O15 1.948561 1_655
Mn0 O15 1.956131 1_555
Mn0 O0 2.012871 1_555
Mn0 O8 2.046993 1_555
Mn0 O0 2.072883 1_655
Mn1 O14 1.821585 1_555
Mn1 O6 1.948561 1_455
Mn1 O6 1.956131 1_555
Mn1 O13 2.012871 1_555
Mn1 O5 2.046993 1_555
Mn1 O13 2.072883 1_455
Mn2 O8 1.944818 1_555
Mn2 O1 1.957273 1_465
Mn2 O9 1.970414 1_555
Mn2 O0 1.983066 1_555
Mn2 O8 2.236450 1_455
Mn2 O1 2.309326 1_565
Mn3 O9 1.956652 1_655
Mn3 O2 1.956682 1_565
Mn3 O10 1.972892 1_555
Mn3 O1 1.979039 1_565
Mn3 O9 2.278675 1_555
Mn3 O2 2.293663 1_665
Mn4 O3 1.957090 1_555
Mn4 O10 1.957090 1_544
Mn4 O2 1.972552 1_554
Mn4 O11 1.972552 1_545
Mn4 O10 2.287725 1_444
Mn4 O3 2.287725 1_655
Mn5 O4 1.956652 1_455
Mn5 O11 1.956682 1_545
Mn5 O3 1.972892 1_555
Mn5 O12 1.979039 1_545
Mn5 O4 2.278675 1_555
Mn5 O11 2.293663 1_445
Mn6 O5 1.944818 1_555
Mn6 O12 1.957273 1_645
Mn6 O4 1.970414 1_555
Mn6 O13 1.983066 1_555
Mn6 O5 2.236450 1_655
Mn6 O12 2.309326 1_545
