# generated using pymatgen
data_Er3(In2Co)2
_symmetry_space_group_name_H-M   'P 1'
_cell_length_a   16.08101121
_cell_length_b   16.08101121
_cell_length_c   7.00721000
_cell_angle_alpha   90.00000000
_cell_angle_beta   90.00000000
_cell_angle_gamma   119.99999676
_symmetry_Int_Tables_number   1
_chemical_formula_structural   Er3(In2Co)2
_chemical_formula_sum   'Er24 In32 Co16'
_cell_volume   1569.28740250
_cell_formula_units_Z   8
loop_
 _symmetry_equiv_pos_site_id
 _symmetry_equiv_pos_as_xyz
  1  'x, y, z'
loop_
 _atom_site_type_symbol
 _atom_site_label
 _atom_site_symmetry_multiplicity
 _atom_site_fract_x
 _atom_site_fract_y
 _atom_site_fract_z
 _atom_site_occupancy
  Er  Er0_0  1  0.12909750  0.00195000  0.25000000  1
  Er  Er0_1  1  0.12909750  0.00195000  0.75000000  1
  Er  Er0_2  1  0.12909750  0.50195000  0.25000000  1
  Er  Er0_3  1  0.12909750  0.50195000  0.75000000  1
  Er  Er0_4  1  0.62909750  0.00195000  0.25000000  1
  Er  Er0_5  1  0.62909750  0.00195000  0.75000000  1
  Er  Er0_6  1  0.62909750  0.50195000  0.25000000  1
  Er  Er0_7  1  0.62909750  0.50195000  0.75000000  1
  Er  Er1_0  1  0.49805000  0.12714750  0.25000000  1
  Er  Er1_1  1  0.49805000  0.12714750  0.75000000  1
  Er  Er1_2  1  0.49805000  0.62714750  0.25000000  1
  Er  Er1_3  1  0.49805000  0.62714750  0.75000000  1
  Er  Er1_4  1  0.99805000  0.12714750  0.25000000  1
  Er  Er1_5  1  0.99805000  0.12714750  0.75000000  1
  Er  Er1_6  1  0.99805000  0.62714750  0.25000000  1
  Er  Er1_7  1  0.99805000  0.62714750  0.75000000  1
  Er  Er2_0  1  0.37285250  0.37090250  0.25000000  1
  Er  Er2_1  1  0.37285250  0.37090250  0.75000000  1
  Er  Er2_2  1  0.37285250  0.87090250  0.25000000  1
  Er  Er2_3  1  0.37285250  0.87090250  0.75000000  1
  Er  Er2_4  1  0.87285250  0.37090250  0.25000000  1
  Er  Er2_5  1  0.87285250  0.37090250  0.75000000  1
  Er  Er2_6  1  0.87285250  0.87090250  0.25000000  1
  Er  Er2_7  1  0.87285250  0.87090250  0.75000000  1
  In  In0_0  1  0.33333350  0.16666650  0.25000000  1
  In  In0_1  1  0.33333350  0.16666650  0.75000000  1
  In  In0_2  1  0.33333350  0.66666650  0.25000000  1
  In  In0_3  1  0.33333350  0.66666650  0.75000000  1
  In  In0_4  1  0.83333350  0.16666650  0.25000000  1
  In  In0_5  1  0.83333350  0.16666650  0.75000000  1
  In  In0_6  1  0.83333350  0.66666650  0.25000000  1
  In  In0_7  1  0.83333350  0.66666650  0.75000000  1
  In  In1_0  1  0.02248350  0.31469300  0.00000000  1
  In  In1_1  1  0.02248350  0.31469300  0.50000000  1
  In  In1_2  1  0.02248350  0.81469300  0.00000000  1
  In  In1_3  1  0.02248350  0.81469300  0.50000000  1
  In  In1_4  1  0.52248350  0.31469300  0.00000000  1
  In  In1_5  1  0.52248350  0.31469300  0.50000000  1
  In  In1_6  1  0.52248350  0.81469300  0.00000000  1
  In  In1_7  1  0.52248350  0.81469300  0.50000000  1
  In  In2_0  1  0.18530700  0.20779050  0.00000000  1
  In  In2_1  1  0.18530700  0.20779050  0.50000000  1
  In  In2_2  1  0.18530700  0.70779050  0.00000000  1
  In  In2_3  1  0.18530700  0.70779050  0.50000000  1
  In  In2_4  1  0.68530700  0.20779050  0.00000000  1
  In  In2_5  1  0.68530700  0.20779050  0.50000000  1
  In  In2_6  1  0.68530700  0.70779050  0.00000000  1
  In  In2_7  1  0.68530700  0.70779050  0.50000000  1
  In  In3_0  1  0.29220950  0.47751650  0.00000000  1
  In  In3_1  1  0.29220950  0.47751650  0.50000000  1
  In  In3_2  1  0.29220950  0.97751650  0.00000000  1
  In  In3_3  1  0.29220950  0.97751650  0.50000000  1
  In  In3_4  1  0.79220950  0.47751650  0.00000000  1
  In  In3_5  1  0.79220950  0.47751650  0.50000000  1
  In  In3_6  1  0.79220950  0.97751650  0.00000000  1
  In  In3_7  1  0.79220950  0.97751650  0.50000000  1
  Co  Co0_0  1  0.00000000  0.00000000  0.00000000  1
  Co  Co0_1  1  0.00000000  0.00000000  0.50000000  1
  Co  Co0_2  1  0.00000000  0.50000000  0.00000000  1
  Co  Co0_3  1  0.00000000  0.50000000  0.50000000  1
  Co  Co0_4  1  0.50000000  0.00000000  0.00000000  1
  Co  Co0_5  1  0.50000000  0.00000000  0.50000000  1
  Co  Co0_6  1  0.50000000  0.50000000  0.00000000  1
  Co  Co0_7  1  0.50000000  0.50000000  0.50000000  1
  Co  Co1_0  1  0.16666650  0.33333350  0.25000000  1
  Co  Co1_1  1  0.16666650  0.33333350  0.75000000  1
  Co  Co1_2  1  0.16666650  0.83333350  0.25000000  1
  Co  Co1_3  1  0.16666650  0.83333350  0.75000000  1
  Co  Co1_4  1  0.66666650  0.33333350  0.25000000  1
  Co  Co1_5  1  0.66666650  0.33333350  0.75000000  1
  Co  Co1_6  1  0.66666650  0.83333350  0.25000000  1
  Co  Co1_7  1  0.66666650  0.83333350  0.75000000  1
loop_
_geom_bond_atom_site_label_1
_geom_bond_atom_site_label_2
_geom_bond_distance
_geom_bond_site_symmetry_2
Er0_0 In0_0 3.017187 1_555
Er0_0 In1_2 3.148537 1_545
Er0_0 In1_3 3.148537 1_545
Er0_0 In3_2 3.336761 1_545
Er0_0 In3_3 3.336761 1_545
Er0_0 In2_0 3.442490 1_555
Er0_0 In2_1 3.442490 1_555
Er0_0 Er0_1 3.503605 1_554
Er0_0 Er0_1 3.503605 1_555
Er0_1 In0_1 3.017187 1_555
Er0_1 In1_2 3.148537 1_546
Er0_1 In1_3 3.148537 1_545
Er0_1 In3_3 3.336761 1_545
Er0_1 In3_2 3.336761 1_546
Er0_1 In2_0 3.442490 1_556
Er0_1 In2_1 3.442490 1_555
Er0_2 In0_2 3.017187 1_555
Er0_2 In1_1 3.148537 1_555
Er0_2 In1_0 3.148537 1_555
Er0_2 In3_0 3.336761 1_555
Er0_2 In3_1 3.336761 1_555
Er0_2 In2_3 3.442490 1_555
Er0_2 In2_2 3.442490 1_555
Er0_2 Er0_3 3.503605 1_555
Er0_2 Er0_3 3.503605 1_554
Er0_3 In0_3 3.017187 1_555
Er0_3 In1_1 3.148537 1_555
Er0_3 In1_0 3.148537 1_556
Er0_3 In3_0 3.336761 1_556
Er0_3 In3_1 3.336761 1_555
Er0_3 In2_2 3.442490 1_556
Er0_3 In2_3 3.442490 1_555
Er0_4 In0_4 3.017187 1_555
Er0_4 In1_6 3.148537 1_545
Er0_4 In1_7 3.148537 1_545
Er0_4 In3_6 3.336761 1_545
Er0_4 In3_7 3.336761 1_545
Er0_4 In2_4 3.442490 1_555
Er0_4 In2_5 3.442490 1_555
Er0_4 Er0_5 3.503605 1_554
Er0_4 Er0_5 3.503605 1_555
Er0_5 In0_5 3.017187 1_555
Er0_5 In1_7 3.148537 1_545
Er0_5 In1_6 3.148537 1_546
Er0_5 In3_6 3.336761 1_546
Er0_5 In3_7 3.336761 1_545
Er0_5 In2_5 3.442490 1_555
Er0_5 In2_4 3.442490 1_556
Er0_6 In0_6 3.017187 1_555
Er0_6 In1_4 3.148537 1_555
Er0_6 In1_5 3.148537 1_555
Er0_6 In3_4 3.336761 1_555
Er0_6 In3_5 3.336761 1_555
Er0_6 In2_6 3.442490 1_555
Er0_6 In2_7 3.442490 1_555
Er0_6 Er0_7 3.503605 1_554
Er0_6 Er0_7 3.503605 1_555
Er0_7 In0_7 3.017187 1_555
Er0_7 In1_4 3.148537 1_556
Er0_7 In1_5 3.148537 1_555
Er0_7 In3_4 3.336761 1_556
Er0_7 In3_5 3.336761 1_555
Er0_7 In2_6 3.442490 1_556
Er0_7 In2_7 3.442490 1_555
Er1_0 In0_0 3.017181 1_555
Er1_0 In2_4 3.148537 1_555
Er1_0 In2_5 3.148537 1_555
Er1_0 In1_4 3.336761 1_555
Er1_0 In1_5 3.336761 1_555
Er1_0 In3_3 3.442490 1_545
Er1_0 In3_2 3.442490 1_545
Er1_0 Er1_1 3.503605 1_554
Er1_0 Er1_1 3.503605 1_555
Er1_1 In0_1 3.017181 1_555
Er1_1 In2_5 3.148537 1_555
Er1_1 In2_4 3.148537 1_556
Er1_1 In1_4 3.336761 1_556
Er1_1 In1_5 3.336761 1_555
Er1_1 In3_3 3.442490 1_545
Er1_1 In3_2 3.442490 1_546
Er1_2 In0_2 3.017181 1_555
Er1_2 In2_6 3.148537 1_555
Er1_2 In2_7 3.148537 1_555
Er1_2 In1_6 3.336761 1_555
Er1_2 In1_7 3.336761 1_555
Er1_2 In3_0 3.442490 1_555
Er1_2 In3_1 3.442490 1_555
Er1_2 Er1_3 3.503605 1_555
Er1_2 Er1_3 3.503605 1_554
Er1_3 In0_3 3.017181 1_555
Er1_3 In2_6 3.148537 1_556
Er1_3 In2_7 3.148537 1_555
Er1_3 In1_6 3.336761 1_556
Er1_3 In1_7 3.336761 1_555
Er1_3 In3_1 3.442490 1_555
Er1_3 In3_0 3.442490 1_556
Er1_4 In0_4 3.017181 1_555
Er1_4 In2_0 3.148537 1_655
Er1_4 In2_1 3.148537 1_655
Er1_4 In1_0 3.336761 1_655
Er1_4 In1_1 3.336761 1_655
Er1_4 In3_6 3.442490 1_545
Er1_4 In3_7 3.442490 1_545
Er1_4 Er1_5 3.503605 1_554
Er1_4 Er1_5 3.503605 1_555
Er1_5 In0_5 3.017181 1_555
Er1_5 In2_1 3.148537 1_655
Er1_5 In2_0 3.148537 1_656
Er1_5 In1_1 3.336761 1_655
Er1_5 In1_0 3.336761 1_656
Er1_5 In3_7 3.442490 1_545
Er1_5 In3_6 3.442490 1_546
Er1_6 In0_6 3.017181 1_555
Er1_6 In2_3 3.148537 1_655
Er1_6 In2_2 3.148537 1_655
Er1_6 In1_2 3.336761 1_655
Er1_6 In1_3 3.336761 1_655
Er1_6 In3_5 3.442490 1_555
Er1_6 In3_4 3.442490 1_555
Er1_6 Er1_7 3.503605 1_555
Er1_6 Er1_7 3.503605 1_554
Er1_7 In0_7 3.017181 1_555
Er1_7 In2_3 3.148537 1_655
Er1_7 In2_2 3.148537 1_656
Er1_7 In1_2 3.336761 1_656
Er1_7 In1_3 3.336761 1_655
Er1_7 In3_4 3.442490 1_556
Er1_7 In3_5 3.442490 1_555
Er2_0 In0_0 3.017189 1_555
Er2_0 In3_0 3.148536 1_555
Er2_0 In3_1 3.148536 1_555
Er2_0 In2_1 3.336761 1_555
Er2_0 In2_0 3.336761 1_555
Er2_0 In1_4 3.442490 1_555
Er2_0 In1_5 3.442490 1_555
Er2_0 Er2_1 3.503605 1_554
Er2_0 Er2_1 3.503605 1_555
Er2_1 In0_1 3.017189 1_555
Er2_1 In3_0 3.148536 1_556
Er2_1 In3_1 3.148536 1_555
Er2_1 In2_1 3.336761 1_555
Er2_1 In2_0 3.336761 1_556
Er2_1 In1_4 3.442490 1_556
Er2_1 In1_5 3.442490 1_555
Er2_2 In0_2 3.017189 1_555
Er2_2 In3_3 3.148536 1_555
Er2_2 In3_2 3.148536 1_555
Er2_2 In2_2 3.336761 1_555
Er2_2 In2_3 3.336761 1_555
Er2_2 In1_6 3.442490 1_555
Er2_2 In1_7 3.442490 1_555
Er2_2 Er2_3 3.503605 1_555
Er2_2 Er2_3 3.503605 1_554
Er2_3 In0_3 3.017189 1_555
Er2_3 In3_3 3.148536 1_555
Er2_3 In3_2 3.148536 1_556
Er2_3 In2_2 3.336761 1_556
Er2_3 In2_3 3.336761 1_555
Er2_3 In1_6 3.442490 1_556
Er2_3 In1_7 3.442490 1_555
Er2_4 In0_4 3.017189 1_555
Er2_4 In3_4 3.148536 1_555
Er2_4 In3_5 3.148536 1_555
Er2_4 In2_4 3.336761 1_555
Er2_4 In2_5 3.336761 1_555
Er2_4 In1_1 3.442490 1_655
Er2_4 In1_0 3.442490 1_655
Er2_4 Er2_5 3.503605 1_555
Er2_4 Er2_5 3.503605 1_554
Er2_5 In0_5 3.017189 1_555
Er2_5 In3_4 3.148536 1_556
Er2_5 In3_5 3.148536 1_555
Er2_5 In2_5 3.336761 1_555
Er2_5 In2_4 3.336761 1_556
Er2_5 In1_1 3.442490 1_655
Er2_5 In1_0 3.442490 1_656
Er2_6 In0_6 3.017189 1_555
Er2_6 In3_7 3.148536 1_555
Er2_6 In3_6 3.148536 1_555
Er2_6 In2_6 3.336761 1_555
Er2_6 In2_7 3.336761 1_555
Er2_6 In1_2 3.442490 1_655
Er2_6 In1_3 3.442490 1_655
Er2_6 Er2_7 3.503605 1_555
Er2_6 Er2_7 3.503605 1_554
Er2_7 In0_7 3.017189 1_555
Er2_7 In3_6 3.148536 1_556
Er2_7 In3_7 3.148536 1_555
Er2_7 In2_7 3.336761 1_555
Er2_7 In2_6 3.336761 1_556
Er2_7 In1_3 3.442490 1_655
Er2_7 In1_2 3.442490 1_656
In0_0 In3_3 3.278215 1_545
In0_0 In3_2 3.278215 1_545
In0_0 In1_5 3.278217 1_555
In0_0 In1_4 3.278217 1_555
In0_0 In2_0 3.278221 1_555
In0_0 In2_1 3.278221 1_555
In0_0 In0_1 3.503605 1_554
In0_0 In0_1 3.503605 1_555
In0_1 In3_3 3.278215 1_545
In0_1 In3_2 3.278215 1_546
In0_1 In1_5 3.278217 1_555
In0_1 In1_4 3.278217 1_556
In0_1 In2_0 3.278221 1_556
In0_1 In2_1 3.278221 1_555
In0_2 In3_0 3.278215 1_555
In0_2 In3_1 3.278215 1_555
In0_2 In1_7 3.278217 1_555
In0_2 In1_6 3.278217 1_555
In0_2 In2_3 3.278221 1_555
In0_2 In2_2 3.278221 1_555
In0_2 In0_3 3.503605 1_554
In0_2 In0_3 3.503605 1_555
In0_3 In3_0 3.278215 1_556
In0_3 In3_1 3.278215 1_555
In0_3 In1_6 3.278217 1_556
In0_3 In1_7 3.278217 1_555
In0_3 In2_3 3.278221 1_555
In0_3 In2_2 3.278221 1_556
In0_4 In3_7 3.278215 1_545
In0_4 In3_6 3.278215 1_545
In0_4 In1_1 3.278217 1_655
In0_4 In1_0 3.278217 1_655
In0_4 In2_5 3.278221 1_555
In0_4 In2_4 3.278221 1_555
In0_4 In0_5 3.503605 1_555
In0_4 In0_5 3.503605 1_554
In0_5 In3_7 3.278215 1_545
In0_5 In3_6 3.278215 1_546
In0_5 In1_0 3.278217 1_656
In0_5 In1_1 3.278217 1_655
In0_5 In2_5 3.278221 1_555
In0_5 In2_4 3.278221 1_556
In0_6 In3_5 3.278215 1_555
In0_6 In3_4 3.278215 1_555
In0_6 In1_3 3.278217 1_655
In0_6 In1_2 3.278217 1_655
In0_6 In2_6 3.278221 1_555
In0_6 In2_7 3.278221 1_555
In0_6 In0_7 3.503605 1_554
In0_6 In0_7 3.503605 1_555
In0_7 In3_4 3.278215 1_556
In0_7 In3_5 3.278215 1_555
In0_7 In1_2 3.278217 1_656
In0_7 In1_3 3.278217 1_655
In0_7 In2_7 3.278221 1_555
In0_7 In2_6 3.278221 1_556
Co0_0 Er1_4 2.704542 1_455
Co0_0 Er1_5 2.704542 1_454
Co0_0 Er0_0 2.704542 1_555
Co0_0 Er0_1 2.704542 1_554
Co0_0 Er2_7 2.704542 1_444
Co0_0 Er2_6 2.704542 1_445
Co0_0 In1_2 3.176174 1_545
Co0_0 In3_6 3.176174 1_445
Co0_0 In2_0 3.176175 1_555
Co0_1 Er1_4 2.704542 1_455
Co0_1 Er1_5 2.704542 1_455
Co0_1 Er0_1 2.704542 1_555
Co0_1 Er0_0 2.704542 1_555
Co0_1 Er2_7 2.704542 1_445
Co0_1 Er2_6 2.704542 1_445
Co0_1 In1_3 3.176174 1_545
Co0_1 In3_7 3.176174 1_445
Co0_1 In2_1 3.176175 1_555
Co0_2 Er1_6 2.704542 1_455
Co0_2 Er1_7 2.704542 1_454
Co0_2 Er0_3 2.704542 1_554
Co0_2 Er0_2 2.704542 1_555
Co0_2 Er2_5 2.704542 1_454
Co0_2 Er2_4 2.704542 1_455
Co0_2 In1_0 3.176174 1_555
Co0_2 In3_4 3.176174 1_455
Co0_2 In2_2 3.176175 1_555
Co0_3 Er1_7 2.704542 1_455
Co0_3 Er1_6 2.704542 1_455
Co0_3 Er0_2 2.704542 1_555
Co0_3 Er0_3 2.704542 1_555
Co0_3 Er2_5 2.704542 1_455
Co0_3 Er2_4 2.704542 1_455
Co0_3 In1_1 3.176174 1_555
Co0_3 In3_5 3.176174 1_455
Co0_3 In2_3 3.176175 1_555
Co0_4 Er1_0 2.704542 1_555
Co0_4 Er1_1 2.704542 1_554
Co0_4 Er0_4 2.704542 1_555
Co0_4 Er0_5 2.704542 1_554
Co0_4 Er2_2 2.704542 1_545
Co0_4 Er2_3 2.704542 1_544
Co0_4 In1_6 3.176174 1_545
Co0_4 In3_2 3.176174 1_545
Co0_4 In2_4 3.176175 1_555
Co0_5 Er1_0 2.704542 1_555
Co0_5 Er1_1 2.704542 1_555
Co0_5 Er0_5 2.704542 1_555
Co0_5 Er0_4 2.704542 1_555
Co0_5 Er2_2 2.704542 1_545
Co0_5 Er2_3 2.704542 1_545
Co0_5 In1_7 3.176174 1_545
Co0_5 In3_3 3.176174 1_545
Co0_5 In2_5 3.176175 1_555
Co0_6 Er1_2 2.704542 1_555
Co0_6 Er1_3 2.704542 1_554
Co0_6 Er0_7 2.704542 1_554
Co0_6 Er0_6 2.704542 1_555
Co0_6 Er2_1 2.704542 1_554
Co0_6 Er2_0 2.704542 1_555
Co0_6 In1_4 3.176174 1_555
Co0_6 In3_0 3.176174 1_555
Co0_6 In2_6 3.176175 1_555
Co0_7 Er1_2 2.704542 1_555
Co0_7 Er1_3 2.704542 1_555
Co0_7 Er0_7 2.704542 1_555
Co0_7 Er0_6 2.704542 1_555
Co0_7 Er2_1 2.704542 1_555
Co0_7 Er2_0 2.704542 1_555
Co0_7 In1_5 3.176174 1_555
Co0_7 In3_1 3.176174 1_555
Co0_7 In2_7 3.176175 1_555
Co1_0 In1_0 2.799927 1_555
Co1_0 In1_1 2.799927 1_555
Co1_0 In3_1 2.799929 1_555
Co1_0 In3_0 2.799929 1_555
Co1_0 In2_1 2.799933 1_555
Co1_0 In2_0 2.799933 1_555
Co1_0 Er0_2 3.058679 1_555
Co1_0 Er1_4 3.058684 1_455
Co1_0 Er2_0 3.058687 1_555
Co1_1 In1_0 2.799927 1_556
Co1_1 In1_1 2.799927 1_555
Co1_1 In3_1 2.799929 1_555
Co1_1 In3_0 2.799929 1_556
Co1_1 In2_1 2.799933 1_555
Co1_1 In2_0 2.799933 1_556
Co1_1 Er0_3 3.058679 1_555
Co1_1 Er1_5 3.058684 1_455
Co1_1 Er2_1 3.058687 1_555
Co1_2 In1_2 2.799927 1_555
Co1_2 In1_3 2.799927 1_555
Co1_2 In3_3 2.799929 1_555
Co1_2 In3_2 2.799929 1_555
Co1_2 In2_2 2.799933 1_555
Co1_2 In2_3 2.799933 1_555
Co1_2 Er0_0 3.058679 1_565
Co1_2 Er1_6 3.058684 1_455
Co1_2 Er2_2 3.058687 1_555
Co1_3 In1_2 2.799927 1_556
Co1_3 In1_3 2.799927 1_555
Co1_3 In3_3 2.799929 1_555
Co1_3 In3_2 2.799929 1_556
Co1_3 In2_2 2.799933 1_556
Co1_3 In2_3 2.799933 1_555
Co1_3 Er0_1 3.058679 1_565
Co1_3 Er1_7 3.058684 1_455
Co1_3 Er2_3 3.058687 1_555
Co1_4 In1_4 2.799927 1_555
Co1_4 In1_5 2.799927 1_555
Co1_4 In3_4 2.799929 1_555
Co1_4 In3_5 2.799929 1_555
Co1_4 In2_4 2.799933 1_555
Co1_4 In2_5 2.799933 1_555
Co1_4 Er0_6 3.058679 1_555
Co1_4 Er1_0 3.058684 1_555
Co1_4 Er2_4 3.058687 1_555
Co1_5 In1_4 2.799927 1_556
Co1_5 In1_5 2.799927 1_555
Co1_5 In3_4 2.799929 1_556
Co1_5 In3_5 2.799929 1_555
Co1_5 In2_5 2.799933 1_555
Co1_5 In2_4 2.799933 1_556
Co1_5 Er0_7 3.058679 1_555
Co1_5 Er1_1 3.058684 1_555
Co1_5 Er2_5 3.058687 1_555
Co1_6 In1_7 2.799927 1_555
Co1_6 In1_6 2.799927 1_555
Co1_6 In3_7 2.799929 1_555
Co1_6 In3_6 2.799929 1_555
Co1_6 In2_7 2.799933 1_555
Co1_6 In2_6 2.799933 1_555
Co1_6 Er0_4 3.058679 1_565
Co1_6 Er1_2 3.058684 1_555
Co1_6 Er2_6 3.058687 1_555
Co1_7 In1_6 2.799927 1_556
Co1_7 In1_7 2.799927 1_555
Co1_7 In3_7 2.799929 1_555
Co1_7 In3_6 2.799929 1_556
Co1_7 In2_7 2.799933 1_555
Co1_7 In2_6 2.799933 1_556
Co1_7 Er0_5 3.058679 1_565
Co1_7 Er1_3 3.058684 1_555
Co1_7 Er2_7 3.058687 1_555
