# generated using pymatgen
data_Ba5Yb8Zn4O21
_symmetry_space_group_name_H-M   'P 1'
_cell_length_a   10.19307697
_cell_length_b   10.19307697
_cell_length_c   10.19307697
_cell_angle_alpha   94.44610268
_cell_angle_beta   94.44610268
_cell_angle_gamma   147.66737724
_symmetry_Int_Tables_number   1
_chemical_formula_structural   Ba5Yb8Zn4O21
_chemical_formula_sum   'Ba5 Yb8 Zn4 O21'
_cell_volume   544.01731102
_cell_formula_units_Z   1
loop_
 _symmetry_equiv_pos_site_id
 _symmetry_equiv_pos_as_xyz
  1  'x, y, z'
loop_
 _atom_site_type_symbol
 _atom_site_label
 _atom_site_symmetry_multiplicity
 _atom_site_fract_x
 _atom_site_fract_y
 _atom_site_fract_z
 _atom_site_occupancy
  Ba  Ba0  1  0.46691800  0.85589500  0.32281300  1
  Ba  Ba1  1  0.14410500  0.46691800  0.61102300  1
  Ba  Ba2  1  0.85589500  0.53308200  0.38897700  1
  Ba  Ba3  1  0.53308200  0.14410500  0.67718700  1
  Ba  Ba4  1  0.00000000  0.00000000  0.00000000  1
  Yb  Yb0  1  0.59150000  0.63992200  0.23142200  1
  Yb  Yb1  1  0.36007800  0.59150000  0.95157800  1
  Yb  Yb2  1  0.63992200  0.40850000  0.04842200  1
  Yb  Yb3  1  0.40850000  0.36007800  0.76857800  1
  Yb  Yb4  1  0.75021600  0.83306800  0.58328400  1
  Yb  Yb5  1  0.16693200  0.75021600  0.91714800  1
  Yb  Yb6  1  0.83306800  0.24978400  0.08285200  1
  Yb  Yb7  1  0.24978400  0.16693200  0.41671600  1
  Zn  Zn0  1  0.95777000  0.75429600  0.71206600  1
  Zn  Zn1  1  0.24570400  0.95777000  0.20347400  1
  Zn  Zn2  1  0.75429600  0.04223000  0.79652600  1
  Zn  Zn3  1  0.04223000  0.24570400  0.28793400  1
  O  O0  1  0.09466500  0.97720900  0.59280000  1
  O  O1  1  0.50186500  0.09466500  0.11745600  1
  O  O2  1  0.97720900  0.38440900  0.88254400  1
  O  O3  1  0.38440900  0.50186500  0.40720000  1
  O  O4  1  0.90533500  0.02279100  0.40720000  1
  O  O5  1  0.49813500  0.90533500  0.88254400  1
  O  O6  1  0.02279100  0.61559100  0.11745600  1
  O  O7  1  0.61559100  0.49813500  0.59280000  1
  O  O8  1  0.93731800  0.79934000  0.22148700  1
  O  O9  1  0.71583100  0.93731800  0.13797800  1
  O  O10  1  0.79934000  0.57785300  0.86202200  1
  O  O11  1  0.57785300  0.71583100  0.77851300  1
  O  O12  1  0.06268200  0.20066000  0.77851300  1
  O  O13  1  0.28416900  0.06268200  0.86202200  1
  O  O14  1  0.20066000  0.42214700  0.13797800  1
  O  O15  1  0.42214700  0.28416900  0.22148700  1
  O  O16  1  0.37260500  0.03113800  0.40374300  1
  O  O17  1  0.50000000  0.50000000  0.00000000  1
  O  O18  1  0.62739500  0.96886200  0.59625700  1
  O  O19  1  0.03113800  0.62739500  0.65853300  1
  O  O20  1  0.96886200  0.37260500  0.34146700  1
loop_
_geom_bond_atom_site_label_1
_geom_bond_atom_site_label_2
_geom_bond_distance
_geom_bond_site_symmetry_2
Ba0 O18 2.717128 1_555
Ba0 O16 2.755331 1_565
Ba0 O14 2.846187 1_555
Ba0 O9 2.846187 1_555
Ba0 O20 2.847563 1_455
Ba0 O20 2.847563 1_565
Ba0 O1 3.142009 1_565
Ba0 O6 3.142009 1_555
Ba0 O3 3.151855 1_555
Ba0 O4 3.151855 1_565
Ba1 O19 2.717128 1_555
Ba1 O20 2.755331 1_455
Ba1 O11 2.846187 1_555
Ba1 O12 2.846187 1_555
Ba1 O18 2.847563 1_555
Ba1 O18 2.847563 1_445
Ba1 O4 3.142009 1_455
Ba1 O3 3.142009 1_555
Ba1 O5 3.151855 1_555
Ba1 O2 3.151855 1_455
Ba2 O20 2.717128 1_555
Ba2 O19 2.755331 1_655
Ba2 O15 2.846187 1_555
Ba2 O8 2.846187 1_555
Ba2 O16 2.847563 1_555
Ba2 O16 2.847563 1_665
Ba2 O7 3.142009 1_555
Ba2 O0 3.142009 1_655
Ba2 O1 3.151855 1_555
Ba2 O6 3.151855 1_655
Ba3 O16 2.717128 1_555
Ba3 O18 2.755331 1_545
Ba3 O10 2.846187 1_555
Ba3 O13 2.846187 1_555
Ba3 O19 2.847563 1_655
Ba3 O19 2.847563 1_545
Ba3 O2 3.142009 1_555
Ba3 O5 3.142009 1_545
Ba3 O7 3.151855 1_555
Ba3 O0 3.151855 1_545
Ba4 O17 2.838022 1_445
Ba4 O17 2.838022 1_555
Ba4 O8 2.901676 1_445
Ba4 O9 2.901676 1_445
Ba4 O14 2.901676 1_555
Ba4 O15 2.901676 1_555
Ba4 O12 2.901676 1_554
Ba4 O11 2.901676 1_444
Ba4 O13 2.901676 1_554
Ba4 O10 2.901676 1_444
O0 Zn0 1.980168 1_455
O0 Yb7 2.296115 1_565
O0 Yb3 2.367240 1_565
O0 Yb4 2.388064 1_455
O1 Zn1 1.980168 1_545
O1 Yb6 2.296115 1_555
O1 Yb2 2.367240 1_555
O1 Yb5 2.388064 1_544
O2 Zn2 1.980168 1_555
O2 Yb5 2.296115 1_655
O2 Yb1 2.367240 1_655
O2 Yb6 2.388064 1_556
O3 Zn3 1.980168 1_555
O3 Yb4 2.296115 1_555
O3 Yb0 2.367240 1_555
O3 Yb7 2.388064 1_555
O4 Zn3 1.980168 1_655
O4 Yb4 2.296115 1_545
O4 Yb0 2.367240 1_545
O4 Yb7 2.388064 1_655
O5 Zn2 1.980168 1_565
O5 Yb5 2.296115 1_555
O5 Yb1 2.367240 1_555
O5 Yb6 2.388064 1_566
O6 Zn1 1.980168 1_555
O6 Yb6 2.296115 1_455
O6 Yb2 2.367240 1_455
O6 Yb5 2.388064 1_554
O7 Zn0 1.980168 1_555
O7 Yb7 2.296115 1_555
O7 Yb3 2.367240 1_555
O7 Yb4 2.388064 1_555
O8 Zn1 2.019799 1_655
O8 Yb0 2.340344 1_555
O8 Yb7 2.416105 1_665
O8 Yb2 2.417688 1_555
O9 Zn3 2.019799 1_665
O9 Yb1 2.340344 1_554
O9 Yb6 2.416105 1_565
O9 Yb0 2.417688 1_555
O10 Zn0 2.019799 1_555
O10 Yb2 2.340344 1_556
O10 Yb5 2.416105 1_655
O10 Yb3 2.417688 1_555
O11 Zn2 2.019799 1_565
O11 Yb3 2.340344 1_555
O11 Yb4 2.416105 1_555
O11 Yb1 2.417688 1_555
O12 Zn2 2.019799 1_455
O12 Yb3 2.340344 1_555
O12 Yb4 2.416105 1_445
O12 Yb1 2.417688 1_555
O13 Zn0 2.019799 1_445
O13 Yb2 2.340344 1_556
O13 Yb5 2.416105 1_545
O13 Yb3 2.417688 1_555
O14 Zn3 2.019799 1_555
O14 Yb1 2.340344 1_554
O14 Yb6 2.416105 1_455
O14 Yb0 2.417688 1_555
O15 Zn1 2.019799 1_545
O15 Yb0 2.340344 1_555
O15 Yb7 2.416105 1_555
O15 Yb2 2.417688 1_555
O16 Zn1 2.029475 1_545
O16 Yb7 2.535029 1_555
O17 Yb0 2.314689 1_555
O17 Yb2 2.314689 1_555
O17 Yb1 2.314689 1_554
O17 Yb3 2.314689 1_554
O18 Zn2 2.029475 1_565
O18 Yb4 2.535029 1_555
O19 Zn0 2.029475 1_455
O19 Yb5 2.535029 1_555
O20 Zn3 2.029475 1_655
O20 Yb6 2.535029 1_555
