# generated using pymatgen
data_BeCo2Ge
_symmetry_space_group_name_H-M   'P 1'
_cell_length_a   2.80014800
_cell_length_b   2.80014800
_cell_length_c   5.33665200
_cell_angle_alpha   90.00000000
_cell_angle_beta   90.00000000
_cell_angle_gamma   90.00000000
_symmetry_Int_Tables_number   1
_chemical_formula_structural   BeCo2Ge
_chemical_formula_sum   'Be1 Co2 Ge1'
_cell_volume   41.84377481
_cell_formula_units_Z   1
loop_
 _symmetry_equiv_pos_site_id
 _symmetry_equiv_pos_as_xyz
  1  'x, y, z'
loop_
 _atom_site_type_symbol
 _atom_site_label
 _atom_site_symmetry_multiplicity
 _atom_site_fract_x
 _atom_site_fract_y
 _atom_site_fract_z
 _atom_site_occupancy
  Be  Be0  1  0.00000000  0.00000000  0.00000000  1
  Co  Co0  1  0.50000000  0.50000000  0.23699300  1
  Co  Co1  1  0.50000000  0.50000000  0.76300700  1
  Ge  Ge0  1  0.00000000  0.00000000  0.50000000  1
loop_
_geom_bond_atom_site_label_1
_geom_bond_atom_site_label_2
_geom_bond_distance
_geom_bond_site_symmetry_2
Be0 Co0 2.349469 1_555
Be0 Co0 2.349469 1_445
Be0 Co0 2.349469 1_455
Be0 Co0 2.349469 1_545
Be0 Co1 2.349469 1_454
Be0 Co1 2.349469 1_544
Be0 Co1 2.349469 1_444
Be0 Co1 2.349469 1_554
Be0 Ge0 2.668326 1_555
Be0 Ge0 2.668326 1_554
Co0 Ge0 2.427023 1_565
Co0 Ge0 2.427023 1_555
Co0 Ge0 2.427023 1_665
Co0 Ge0 2.427023 1_655
Co1 Ge0 2.427023 1_565
Co1 Ge0 2.427023 1_555
Co1 Ge0 2.427023 1_665
Co1 Ge0 2.427023 1_655
