# generated using pymatgen
data_Mn7Al4V5
_symmetry_space_group_name_H-M   'P 1'
_cell_length_a   13.70636612
_cell_length_b   13.70636612
_cell_length_c   13.70636639
_cell_angle_alpha   17.35290947
_cell_angle_beta   17.35290947
_cell_angle_gamma   17.35290703
_symmetry_Int_Tables_number   1
_chemical_formula_structural   Mn7Al4V5
_chemical_formula_sum   'Mn7 Al4 V5'
_cell_volume   199.88663880
_cell_formula_units_Z   1
loop_
 _symmetry_equiv_pos_site_id
 _symmetry_equiv_pos_as_xyz
  1  'x, y, z'
loop_
 _atom_site_type_symbol
 _atom_site_label
 _atom_site_symmetry_multiplicity
 _atom_site_fract_x
 _atom_site_fract_y
 _atom_site_fract_z
 _atom_site_occupancy
  Mn  Mn0  1  0.87450500  0.87450500  0.87450500  1
  Mn  Mn1  1  0.62548200  0.62548200  0.62548200  1
  Mn  Mn2  1  0.37510400  0.37510400  0.37510400  1
  Mn  Mn3  1  0.12492800  0.12492800  0.12492800  1
  Mn  Mn4  1  0.00022000  0.00022000  0.00022000  1
  Mn  Mn5  1  0.74991600  0.74991600  0.74991600  1
  Mn  Mn6  1  0.49968200  0.49968200  0.49968200  1
  Al  Al0  1  0.68764600  0.68764600  0.68764600  1
  Al  Al1  1  0.43739200  0.43739200  0.43739200  1
  Al  Al2  1  0.18709600  0.18709600  0.18709600  1
  Al  Al3  1  0.93786000  0.93786000  0.93786000  1
  V  V0  1  0.56227600  0.56227600  0.56227600  1
  V  V1  1  0.31269500  0.31269500  0.31269500  1
  V  V2  1  0.06259800  0.06259800  0.06259800  1
  V  V3  1  0.81240100  0.81240100  0.81240100  1
  V  V4  1  0.25019900  0.25019900  0.25019900  1
loop_
_geom_bond_atom_site_label_1
_geom_bond_atom_site_label_2
_geom_bond_distance
_geom_bond_site_symmetry_2
Mn0 V3 2.514619 1_555
Mn0 V0 2.535852 1_655
Mn0 V0 2.535852 1_565
Mn0 V0 2.535853 1_556
Mn0 V4 2.939771 1_566
Mn0 V4 2.939771 1_656
Mn0 V4 2.939772 1_665
Mn1 V1 2.528328 1_565
Mn1 V1 2.528328 1_655
Mn1 V1 2.528329 1_556
Mn1 V0 2.559240 1_555
Mn1 V4 2.930093 1_565
Mn1 V4 2.930093 1_655
Mn1 V4 2.930093 1_556
Mn2 V1 2.526969 1_555
Mn2 V2 2.532095 1_655
Mn2 V2 2.532095 1_565
Mn2 V2 2.532095 1_556
Mn3 V2 2.523770 1_555
Mn3 V3 2.531812 1_544
Mn3 V3 2.531812 1_454
Mn3 V3 2.531812 1_445
Mn4 V2 2.525714 1_555
Mn4 V1 2.532513 1_545
Mn4 V1 2.532513 1_455
Mn4 V1 2.532513 1_554
Mn5 V2 2.529730 1_656
Mn5 V2 2.529730 1_566
Mn5 V2 2.529731 1_665
Mn5 V3 2.530046 1_555
Mn6 V3 2.529235 1_455
Mn6 V3 2.529235 1_545
Mn6 V3 2.529236 1_554
Mn6 V0 2.534460 1_555
Al0 Mn1 2.517049 1_555
Al0 Mn5 2.521341 1_555
Al0 Mn4 2.531179 1_656
Al0 Mn4 2.531179 1_566
Al0 Mn4 2.531180 1_665
Al0 Mn2 2.531610 1_655
Al0 Mn2 2.531610 1_565
Al0 Mn2 2.531610 1_556
Al1 Mn2 2.522070 1_555
Al1 Mn6 2.522151 1_555
Al1 Mn5 2.531852 1_455
Al1 Mn5 2.531852 1_545
Al1 Mn5 2.531853 1_554
Al1 Mn3 2.532662 1_655
Al1 Mn3 2.532662 1_565
Al1 Mn3 2.532662 1_556
Al2 Mn3 2.517211 1_555
Al2 Mn0 2.530951 1_454
Al2 Mn0 2.530951 1_544
Al2 Mn0 2.530951 1_445
Al2 Mn6 2.531018 1_455
Al2 Mn6 2.531018 1_545
Al2 Mn6 2.531018 1_554
Al2 V4 2.555069 1_555
Al3 Mn4 2.524985 1_666
Al3 Mn1 2.533826 1_655
Al3 Mn1 2.533826 1_565
Al3 Mn1 2.533826 1_556
Al3 V4 2.534355 1_656
Al3 V4 2.534355 1_566
Al3 V4 2.534355 1_665
Al3 Mn0 2.565273 1_555
V0 V4 2.537933 1_655
V0 V4 2.537933 1_565
V0 V4 2.537933 1_556
V1 V4 2.530492 1_555
