# generated using pymatgen
data_HfTl2Se3
_symmetry_space_group_name_H-M   'P 1'
_cell_length_a   3.91011883
_cell_length_b   8.21820332
_cell_length_c   10.75886288
_cell_angle_alpha   97.48027782
_cell_angle_beta   90.00000000
_cell_angle_gamma   90.00000000
_symmetry_Int_Tables_number   1
_chemical_formula_structural   HfTl2Se3
_chemical_formula_sum   'Hf2 Tl4 Se6'
_cell_volume   342.78470167
_cell_formula_units_Z   2
loop_
 _symmetry_equiv_pos_site_id
 _symmetry_equiv_pos_as_xyz
  1  'x, y, z'
loop_
 _atom_site_type_symbol
 _atom_site_label
 _atom_site_symmetry_multiplicity
 _atom_site_fract_x
 _atom_site_fract_y
 _atom_site_fract_z
 _atom_site_occupancy
  Hf  Hf0  1  0.75000000  0.58948129  0.66447590  1
  Hf  Hf1  1  0.25000000  0.41051871  0.33552410  1
  Tl  Tl0  1  0.75000000  0.93726512  0.34144581  1
  Tl  Tl1  1  0.25000000  0.06273488  0.65855419  1
  Tl  Tl2  1  0.75000000  0.25164039  0.00154547  1
  Tl  Tl3  1  0.25000000  0.74835961  0.99845453  1
  Se  Se0  1  0.75000000  0.86675248  0.80698604  1
  Se  Se1  1  0.25000000  0.13324752  0.19301396  1
  Se  Se2  1  0.75000000  0.54603761  0.21447748  1
  Se  Se3  1  0.25000000  0.45396239  0.78552252  1
  Se  Se4  1  0.75000000  0.31141892  0.48490671  1
  Se  Se5  1  0.25000000  0.68858108  0.51509329  1
loop_
_geom_bond_atom_site_label_1
_geom_bond_atom_site_label_2
_geom_bond_distance
_geom_bond_site_symmetry_2
Hf0 Se0 2.575561 1_555
Hf0 Se3 2.671391 1_655
Hf0 Se3 2.671391 1_555
Hf0 Se5 2.722021 1_655
Hf0 Se5 2.722021 1_555
Hf0 Se4 2.793741 1_555
Hf1 Se1 2.575561 1_555
Hf1 Se2 2.671391 1_455
Hf1 Se2 2.671391 1_555
Hf1 Se4 2.722021 1_555
Hf1 Se4 2.722021 1_455
Hf1 Se5 2.793741 1_555
Se0 Tl3 3.087772 1_655
Se0 Tl3 3.087772 1_555
Se0 Tl1 3.104245 1_565
Se0 Tl1 3.104245 1_665
Se1 Tl2 3.087772 1_555
Se1 Tl2 3.087772 1_455
Se1 Tl0 3.104245 1_545
Se1 Tl0 3.104245 1_445
Se2 Tl2 3.107843 1_555
Se2 Tl0 3.325646 1_555
Se3 Tl3 3.107843 1_555
Se3 Tl1 3.325646 1_555
Se4 Tl0 3.255986 1_545
Se5 Tl1 3.255986 1_565
