# generated using pymatgen
data_ErCoSi
_symmetry_space_group_name_H-M   'P 1'
_cell_length_a   4.13198669
_cell_length_b   6.79038922
_cell_length_c   6.83539871
_cell_angle_alpha   90.00000000
_cell_angle_beta   90.00000000
_cell_angle_gamma   90.00000000
_symmetry_Int_Tables_number   1
_chemical_formula_structural   ErCoSi
_chemical_formula_sum   'Er4 Co4 Si4'
_cell_volume   191.78623541
_cell_formula_units_Z   4
loop_
 _symmetry_equiv_pos_site_id
 _symmetry_equiv_pos_as_xyz
  1  'x, y, z'
loop_
 _atom_site_type_symbol
 _atom_site_label
 _atom_site_symmetry_multiplicity
 _atom_site_fract_x
 _atom_site_fract_y
 _atom_site_fract_z
 _atom_site_occupancy
  Er  Er0  1  0.75000000  0.51798165  0.81007093  1
  Er  Er1  1  0.75000000  0.01798165  0.68992907  1
  Er  Er2  1  0.25000000  0.48201835  0.18992907  1
  Er  Er3  1  0.25000000  0.98201835  0.31007093  1
  Co  Co0  1  0.75000000  0.35450746  0.43695332  1
  Co  Co1  1  0.75000000  0.85450746  0.06304668  1
  Co  Co2  1  0.25000000  0.64549254  0.56304668  1
  Co  Co3  1  0.25000000  0.14549254  0.93695332  1
  Si  Si0  1  0.75000000  0.19594391  0.10662923  1
  Si  Si1  1  0.75000000  0.69594391  0.39337077  1
  Si  Si2  1  0.25000000  0.80405609  0.89337077  1
  Si  Si3  1  0.25000000  0.30405609  0.60662923  1
loop_
_geom_bond_atom_site_label_1
_geom_bond_atom_site_label_2
_geom_bond_distance
_geom_bond_site_symmetry_2
Er0 Si3 2.883100 1_555
Er0 Si3 2.883100 1_655
Er0 Si2 2.892414 1_555
Er0 Si2 2.892414 1_655
Er0 Si0 2.981784 1_556
Er0 Si1 3.094057 1_555
Er1 Si2 2.883100 1_545
Er1 Si2 2.883100 1_645
Er1 Si3 2.892414 1_555
Er1 Si3 2.892414 1_655
Er1 Si1 2.981784 1_545
Er1 Si0 3.094057 1_556
Er2 Si1 2.883100 1_555
Er2 Si1 2.883100 1_455
Er2 Si0 2.892414 1_555
Er2 Si0 2.892414 1_455
Er2 Si2 2.981784 1_554
Er2 Si3 3.094057 1_555
Er3 Si0 2.883100 1_465
Er3 Si0 2.883100 1_565
Er3 Si1 2.892414 1_555
Er3 Si1 2.892414 1_455
Er3 Si3 2.981784 1_565
Er3 Si2 3.094057 1_554
Co0 Si1 2.337547 1_555
Co0 Si3 2.393916 1_655
Co0 Si3 2.393916 1_555
Co0 Si0 2.501479 1_555
Co0 Er0 2.781510 1_555
Co0 Er2 2.805189 1_555
Co0 Er2 2.805189 1_655
Co0 Er1 2.865653 1_555
Co1 Si0 2.337547 1_565
Co1 Si2 2.393916 1_654
Co1 Si2 2.393916 1_554
Co1 Si1 2.501479 1_555
Co1 Er1 2.781510 1_564
Co1 Er3 2.805189 1_555
Co1 Er3 2.805189 1_655
Co1 Er0 2.865653 1_554
Co2 Si3 2.337547 1_555
Co2 Si1 2.393916 1_555
Co2 Si1 2.393916 1_455
Co2 Si2 2.501479 1_555
Co2 Er2 2.781510 1_555
Co2 Er0 2.805189 1_455
Co2 Er0 2.805189 1_555
Co2 Er3 2.865653 1_555
Co3 Si2 2.337547 1_545
Co3 Si0 2.393916 1_556
Co3 Si0 2.393916 1_456
Co3 Si3 2.501479 1_555
Co3 Er3 2.781510 1_546
Co3 Er1 2.805189 1_555
Co3 Er1 2.805189 1_455
Co3 Er2 2.865653 1_556
