# generated using pymatgen
data_V11FeB8
_symmetry_space_group_name_H-M   'P 1'
_cell_length_a   3.02939900
_cell_length_b   5.69744900
_cell_length_c   11.37343523
_cell_angle_alpha   89.95059542
_cell_angle_beta   90.00000000
_cell_angle_gamma   90.00000000
_symmetry_Int_Tables_number   1
_chemical_formula_structural   V11FeB8
_chemical_formula_sum   'V11 Fe1 B8'
_cell_volume   196.30367100
_cell_formula_units_Z   1
loop_
 _symmetry_equiv_pos_site_id
 _symmetry_equiv_pos_as_xyz
  1  'x, y, z'
loop_
 _atom_site_type_symbol
 _atom_site_label
 _atom_site_symmetry_multiplicity
 _atom_site_fract_x
 _atom_site_fract_y
 _atom_site_fract_z
 _atom_site_occupancy
  V  V0  1  0.50000000  0.82311300  0.41185200  1
  V  V1  1  0.50000000  0.82178000  0.91046700  1
  V  V2  1  0.50000000  0.17688700  0.58814800  1
  V  V3  1  0.50000000  0.17822000  0.08953300  1
  V  V4  1  0.50000000  0.67755700  0.65925500  1
  V  V5  1  0.50000000  0.67782600  0.16227900  1
  V  V6  1  0.50000000  0.32244300  0.34074500  1
  V  V7  1  0.50000000  0.32217400  0.83772100  1
  V  V8  1  0.00000000  0.50000000  0.00000000  1
  V  V9  1  0.00000000  0.00013800  0.74854600  1
  V  V10  1  0.00000000  0.99986200  0.25145400  1
  Fe  Fe0  1  0.00000000  0.50000000  0.50000000  1
  B  B0  1  0.00000000  0.39017100  0.69089600  1
  B  B1  1  0.00000000  0.38869700  0.19644900  1
  B  B2  1  0.00000000  0.60982900  0.30910400  1
  B  B3  1  0.00000000  0.61130300  0.80355100  1
  B  B4  1  0.00000000  0.11376700  0.44512400  1
  B  B5  1  0.00000000  0.11104000  0.94438200  1
  B  B6  1  0.00000000  0.88623300  0.55487600  1
  B  B7  1  0.00000000  0.88896000  0.05561800  1
loop_
_geom_bond_atom_site_label_1
_geom_bond_atom_site_label_2
_geom_bond_distance
_geom_bond_site_symmetry_2
Fe0 V4 2.569353 1_455
Fe0 V4 2.569353 1_555
Fe0 V6 2.569353 1_555
Fe0 V6 2.569353 1_455
Fe0 V2 2.585578 1_555
Fe0 V2 2.585578 1_455
Fe0 V0 2.585578 1_555
Fe0 V0 2.585578 1_455
B0 B3 1.797711 1_555
B0 Fe0 2.258999 1_555
B0 V4 2.259153 1_455
B0 V4 2.259153 1_555
B0 V2 2.266944 1_455
B0 V2 2.266944 1_555
B0 V7 2.287327 1_455
B0 V7 2.287327 1_555
B0 V9 2.316364 1_555
B1 B2 1.797711 1_555
B1 V6 2.264747 1_455
B1 V6 2.264747 1_555
B1 V5 2.271086 1_455
B1 V5 2.271086 1_555
B1 V3 2.283315 1_455
B1 V3 2.283315 1_555
B1 V10 2.301485 1_545
B1 V8 2.322023 1_555
B2 Fe0 2.258999 1_555
B2 V6 2.259153 1_555
B2 V6 2.259153 1_455
B2 V0 2.266944 1_555
B2 V0 2.266944 1_455
B2 V5 2.287327 1_455
B2 V5 2.287327 1_555
B2 V10 2.316364 1_555
B3 V4 2.264747 1_555
B3 V4 2.264747 1_455
B3 V7 2.271086 1_555
B3 V7 2.271086 1_455
B3 V1 2.283315 1_555
B3 V1 2.283315 1_455
B3 V9 2.301485 1_565
B3 V8 2.322023 1_556
B4 B6 1.798865 1_545
B4 V2 2.251826 1_455
B4 V2 2.251826 1_555
B4 V6 2.261578 1_455
B4 V6 2.261578 1_555
B4 V0 2.276156 1_545
B4 V0 2.276156 1_445
B4 Fe0 2.287858 1_555
B4 V10 2.296842 1_545
B5 B7 1.788509 1_546
B5 V1 2.271618 1_445
B5 V1 2.271618 1_545
B5 V3 2.273161 1_556
B5 V3 2.273161 1_456
B5 V7 2.282640 1_455
B5 V7 2.282640 1_555
B5 V8 2.305118 1_556
B5 V9 2.315742 1_555
B6 V0 2.251826 1_555
B6 V0 2.251826 1_455
B6 V4 2.261578 1_455
B6 V4 2.261578 1_555
B6 V2 2.276156 1_565
B6 V2 2.276156 1_465
B6 Fe0 2.287858 1_555
B6 V9 2.296842 1_565
B7 V3 2.271618 1_565
B7 V3 2.271618 1_465
B7 V1 2.273161 1_554
B7 V1 2.273161 1_454
B7 V5 2.282640 1_555
B7 V5 2.282640 1_455
B7 V8 2.305118 1_555
B7 V10 2.315742 1_555
