# generated using pymatgen
data_CaMoO2
_symmetry_space_group_name_H-M   'P 1'
_cell_length_a   7.26994792
_cell_length_b   7.26994792
_cell_length_c   7.26994792
_cell_angle_alpha   130.09312354
_cell_angle_beta   130.09312354
_cell_angle_gamma   73.25793538
_symmetry_Int_Tables_number   1
_chemical_formula_structural   CaMoO2
_chemical_formula_sum   'Ca4 Mo4 O8'
_cell_volume   219.52739982
_cell_formula_units_Z   4
loop_
 _symmetry_equiv_pos_site_id
 _symmetry_equiv_pos_as_xyz
  1  'x, y, z'
loop_
 _atom_site_type_symbol
 _atom_site_label
 _atom_site_symmetry_multiplicity
 _atom_site_fract_x
 _atom_site_fract_y
 _atom_site_fract_z
 _atom_site_occupancy
  Ca  Ca0  1  0.87500000  0.62500000  0.25000000  1
  Ca  Ca1  1  0.37500000  0.62500000  0.75000000  1
  Ca  Ca2  1  0.37500000  0.62500000  0.25000000  1
  Ca  Ca3  1  0.37500000  0.12500000  0.75000000  1
  Mo  Mo0  1  0.37500000  0.12500000  0.25000000  1
  Mo  Mo1  1  0.87500000  0.12500000  0.75000000  1
  Mo  Mo2  1  0.87500000  0.12500000  0.25000000  1
  Mo  Mo3  1  0.87500000  0.62500000  0.75000000  1
  O  O0  1  0.17359074  0.39525538  0.22166464  1
  O  O1  1  0.17359074  0.95192710  0.77833536  1
  O  O2  1  0.14525538  0.42359074  0.72166464  1
  O  O3  1  0.57640926  0.85474462  0.27833536  1
  O  O4  1  0.70192710  0.42359074  0.27833536  1
  O  O5  1  0.57640926  0.29807290  0.72166464  1
  O  O6  1  0.60474462  0.82640926  0.77833536  1
  O  O7  1  0.04807290  0.82640926  0.22166464  1
loop_
_geom_bond_atom_site_label_1
_geom_bond_atom_site_label_2
_geom_bond_distance
_geom_bond_site_symmetry_2
Ca0 O4 2.356557 1_555
Ca0 O7 2.356557 1_655
Ca0 O3 2.363935 1_555
Ca0 O0 2.363935 1_655
Ca0 O1 2.363937 1_655
Ca0 O5 2.363937 1_554
Ca1 O2 2.356562 1_555
Ca1 O6 2.356562 1_555
Ca1 O3 2.363935 1_556
Ca1 O0 2.363935 1_555
Ca1 O1 2.363941 1_555
Ca1 O5 2.363941 1_555
Ca2 O0 2.356562 1_555
Ca2 O3 2.356562 1_555
Ca2 O6 2.363935 1_555
Ca2 O2 2.363935 1_554
Ca2 O7 2.363941 1_555
Ca2 O4 2.363941 1_555
Ca3 O5 2.356557 1_555
Ca3 O1 2.356557 1_545
Ca3 O6 2.363935 1_545
Ca3 O2 2.363935 1_555
Ca3 O7 2.363937 1_545
Ca3 O4 2.363937 1_556
Mo0 O0 2.126501 1_555
Mo0 O3 2.126501 1_545
Mo0 O1 2.126503 1_544
Mo0 O5 2.126503 1_555
Mo1 O5 2.126498 1_555
Mo1 O1 2.126498 1_645
Mo1 O0 2.126501 1_656
Mo1 O3 2.126501 1_545
Mo2 O7 2.126498 1_645
Mo2 O4 2.126498 1_555
Mo2 O6 2.126501 1_544
Mo2 O2 2.126501 1_655
Mo3 O6 2.126501 1_555
Mo3 O2 2.126501 1_655
Mo3 O7 2.126503 1_656
Mo3 O4 2.126503 1_555
