# generated using pymatgen
data_RbU3TiTe9
_symmetry_space_group_name_H-M   'P 1'
_cell_length_a   6.22083053
_cell_length_b   8.44192181
_cell_length_c   17.89535783
_cell_angle_alpha   83.22213958
_cell_angle_beta   90.00000000
_cell_angle_gamma   90.00000000
_symmetry_Int_Tables_number   1
_chemical_formula_structural   RbU3TiTe9
_chemical_formula_sum   'Rb2 U6 Ti2 Te18'
_cell_volume   933.22039926
_cell_formula_units_Z   2
loop_
 _symmetry_equiv_pos_site_id
 _symmetry_equiv_pos_as_xyz
  1  'x, y, z'
loop_
 _atom_site_type_symbol
 _atom_site_label
 _atom_site_symmetry_multiplicity
 _atom_site_fract_x
 _atom_site_fract_y
 _atom_site_fract_z
 _atom_site_occupancy
  Rb  Rb0  1  0.25000000  0.53323228  0.86932234  1
  Rb  Rb1  1  0.75000000  0.46676772  0.13067766  1
  U  U0  1  0.25000000  0.95277959  0.18979229  1
  U  U1  1  0.75000000  0.04722041  0.81020771  1
  U  U2  1  0.25000000  0.89674043  0.41103933  1
  U  U3  1  0.75000000  0.10325957  0.58896067  1
  U  U4  1  0.25000000  0.40076011  0.40077506  1
  U  U5  1  0.75000000  0.59923989  0.59922494  1
  Ti  Ti0  1  0.00000000  0.00000000  0.00000000  1
  Ti  Ti1  1  0.50000000  0.00000000  0.00000000  1
  Te  Te0  1  0.99852516  0.83430276  0.69775693  1
  Te  Te1  1  0.49852516  0.16569724  0.30224307  1
  Te  Te2  1  0.00147484  0.16569724  0.30224307  1
  Te  Te3  1  0.50147484  0.83430276  0.69775693  1
  Te  Te4  1  0.00088514  0.68472925  0.30212485  1
  Te  Te5  1  0.50088514  0.31527075  0.69787515  1
  Te  Te6  1  0.99911486  0.31527075  0.69787515  1
  Te  Te7  1  0.49911486  0.68472925  0.30212485  1
  Te  Te8  1  0.25000000  0.73994963  0.06152649  1
  Te  Te9  1  0.75000000  0.26005037  0.93847351  1
  Te  Te10  1  0.25000000  0.61242901  0.53470125  1
  Te  Te11  1  0.75000000  0.38757099  0.46529875  1
  Te  Te12  1  0.25000000  0.22927981  0.06138257  1
  Te  Te13  1  0.75000000  0.77072019  0.93861743  1
  Te  Te14  1  0.25000000  0.12144919  0.53315901  1
  Te  Te15  1  0.75000000  0.87855081  0.46684099  1
  Te  Te16  1  0.25000000  0.03315786  0.86843346  1
  Te  Te17  1  0.75000000  0.96684214  0.13156654  1
loop_
_geom_bond_atom_site_label_1
_geom_bond_atom_site_label_2
_geom_bond_distance
_geom_bond_site_symmetry_2
Rb0 Te13 3.977273 1_555
Rb0 Te13 3.977273 1_455
Rb0 Te9 3.981318 1_555
Rb0 Te9 3.981318 1_455
Rb0 Te8 4.036425 1_556
Rb0 Te12 4.039217 1_556
Rb0 Te0 4.060969 1_455
Rb0 Te3 4.060969 1_555
Rb0 Te6 4.070296 1_455
Rb0 Te5 4.070296 1_555
Rb0 Te16 4.218485 1_565
Rb0 Te16 4.223496 1_555
Rb1 Te12 3.977273 1_555
Rb1 Te12 3.977273 1_655
Rb1 Te8 3.981318 1_655
Rb1 Te8 3.981318 1_555
Rb1 Te9 4.036425 1_554
Rb1 Te13 4.039217 1_554
Rb1 Te2 4.060969 1_655
Rb1 Te1 4.060969 1_555
Rb1 Te4 4.070296 1_655
Rb1 Te7 4.070296 1_555
Rb1 Te17 4.218485 1_545
Rb1 Te17 4.223496 1_555
Te0 Te3 3.092066 1_555
Te0 Te3 3.128765 1_655
Te0 U5 3.203592 1_555
Te0 U3 3.208211 1_565
Te0 U1 3.244118 1_565
Te1 Te2 3.092066 1_555
Te1 Te2 3.128765 1_655
Te1 U4 3.203592 1_555
Te1 U2 3.208211 1_545
Te1 U0 3.244118 1_545
Te2 U4 3.203592 1_555
Te2 U2 3.208211 1_545
Te2 U0 3.244118 1_545
Te3 U5 3.203592 1_555
Te3 U3 3.208211 1_565
Te3 U1 3.244118 1_565
Te4 Te7 3.099403 1_555
Te4 Te7 3.121428 1_455
Te4 U2 3.197991 1_555
Te4 U4 3.204059 1_555
Te4 U0 3.238738 1_555
Te5 Te6 3.099403 1_555
Te5 Te6 3.121428 1_455
Te5 U3 3.197991 1_555
Te5 U5 3.204059 1_555
Te5 U1 3.238738 1_555
Te6 U3 3.197991 1_555
Te6 U5 3.204059 1_555
Te6 U1 3.238738 1_555
Te7 U2 3.197991 1_555
Te7 U4 3.204059 1_555
Te7 U0 3.238738 1_555
Te8 Ti1 2.807110 1_565
Te8 Ti0 2.807110 1_565
Te8 U0 3.077376 1_555
Te9 Ti0 2.807110 1_656
Te9 Ti1 2.807110 1_556
Te9 U1 3.077376 1_555
Te10 U2 3.066625 1_555
Te10 U4 3.154015 1_555
Te10 U5 3.315118 1_455
Te10 U5 3.315118 1_555
Te11 U3 3.066625 1_555
Te11 U5 3.154015 1_555
Te11 U4 3.315118 1_655
Te11 U4 3.315118 1_555
Te12 Ti0 2.805985 1_555
Te12 Ti1 2.805985 1_555
Te12 U0 3.076182 1_545
Te13 Ti0 2.805985 1_666
Te13 Ti1 2.805985 1_566
Te13 U1 3.076182 1_565
Te14 U2 3.058252 1_545
Te14 U4 3.139059 1_555
Te14 U3 3.264851 1_555
Te14 U3 3.264851 1_455
Te15 U3 3.058252 1_565
Te15 U5 3.139059 1_555
Te15 U2 3.264851 1_555
Te15 U2 3.264851 1_655
Te16 Ti0 2.807990 1_556
Te16 Ti1 2.807990 1_556
Te16 U1 3.278000 1_455
Te16 U1 3.278000 1_555
Te17 Ti0 2.807990 1_665
Te17 Ti1 2.807990 1_565
Te17 U0 3.278000 1_555
Te17 U0 3.278000 1_655
