# generated using pymatgen
data_LiReN2
_symmetry_space_group_name_H-M   'P 1'
_cell_length_a   5.77213400
_cell_length_b   10.51074100
_cell_length_c   13.41244800
_cell_angle_alpha   90.00000000
_cell_angle_beta   90.00000000
_cell_angle_gamma   90.00000000
_symmetry_Int_Tables_number   1
_chemical_formula_structural   LiReN2
_chemical_formula_sum   'Li16 Re16 N32'
_cell_volume   813.72524634
_cell_formula_units_Z   16
loop_
 _symmetry_equiv_pos_site_id
 _symmetry_equiv_pos_as_xyz
  1  'x, y, z'
loop_
 _atom_site_type_symbol
 _atom_site_label
 _atom_site_symmetry_multiplicity
 _atom_site_fract_x
 _atom_site_fract_y
 _atom_site_fract_z
 _atom_site_occupancy
  Li  Li0  1  0.10417700  0.02830100  0.42429800  1
  Li  Li1  1  0.60417700  0.47169900  0.57570200  1
  Li  Li2  1  0.89582300  0.52830100  0.07570200  1
  Li  Li3  1  0.39582300  0.97169900  0.92429800  1
  Li  Li4  1  0.89582300  0.97169900  0.57570200  1
  Li  Li5  1  0.39582300  0.52830100  0.42429800  1
  Li  Li6  1  0.10417700  0.47169900  0.92429800  1
  Li  Li7  1  0.60417700  0.02830100  0.07570200  1
  Li  Li8  1  0.28205600  0.25690700  0.30969300  1
  Li  Li9  1  0.78205600  0.24309300  0.69030700  1
  Li  Li10  1  0.71794400  0.75690700  0.19030700  1
  Li  Li11  1  0.21794400  0.74309300  0.80969300  1
  Li  Li12  1  0.71794400  0.74309300  0.69030700  1
  Li  Li13  1  0.21794400  0.75690700  0.30969300  1
  Li  Li14  1  0.28205600  0.24309300  0.80969300  1
  Li  Li15  1  0.78205600  0.25690700  0.19030700  1
  Re  Re0  1  0.60636700  0.99398900  0.31776000  1
  Re  Re1  1  0.10636700  0.50601100  0.68224000  1
  Re  Re2  1  0.39363300  0.49398900  0.18224000  1
  Re  Re3  1  0.89363300  0.00601100  0.81776000  1
  Re  Re4  1  0.39363300  0.00601100  0.68224000  1
  Re  Re5  1  0.89363300  0.49398900  0.31776000  1
  Re  Re6  1  0.60636700  0.50601100  0.81776000  1
  Re  Re7  1  0.10636700  0.99398900  0.18224000  1
  Re  Re8  1  0.80460200  0.28516800  0.42217500  1
  Re  Re9  1  0.30460200  0.21483200  0.57782500  1
  Re  Re10  1  0.19539800  0.78516800  0.07782500  1
  Re  Re11  1  0.69539800  0.71483200  0.92217500  1
  Re  Re12  1  0.19539800  0.71483200  0.57782500  1
  Re  Re13  1  0.69539800  0.78516800  0.42217500  1
  Re  Re14  1  0.80460200  0.21483200  0.92217500  1
  Re  Re15  1  0.30460200  0.28516800  0.07782500  1
  N  N0  1  0.08446800  0.22096800  0.45764100  1
  N  N1  1  0.58446800  0.27903200  0.54235900  1
  N  N2  1  0.91553200  0.72096800  0.04235900  1
  N  N3  1  0.41553200  0.77903200  0.95764100  1
  N  N4  1  0.91553200  0.77903200  0.54235900  1
  N  N5  1  0.41553200  0.72096800  0.45764100  1
  N  N6  1  0.08446800  0.27903200  0.95764100  1
  N  N7  1  0.58446800  0.22096800  0.04235900  1
  N  N8  1  0.73638400  0.47043400  0.43969700  1
  N  N9  1  0.23638400  0.02956600  0.56030300  1
  N  N10  1  0.26361600  0.97043400  0.06030300  1
  N  N11  1  0.76361600  0.52956600  0.93969700  1
  N  N12  1  0.26361600  0.52956600  0.56030300  1
  N  N13  1  0.76361600  0.97043400  0.43969700  1
  N  N14  1  0.73638400  0.02956600  0.93969700  1
  N  N15  1  0.23638400  0.47043400  0.06030300  1
  N  N16  1  0.63841700  0.18518300  0.33530800  1
  N  N17  1  0.13841700  0.31481700  0.66469200  1
  N  N18  1  0.36158300  0.68518300  0.16469200  1
  N  N19  1  0.86158300  0.81481700  0.83530800  1
  N  N20  1  0.36158300  0.81481700  0.66469200  1
  N  N21  1  0.86158300  0.68518300  0.33530800  1
  N  N22  1  0.63841700  0.31481700  0.83530800  1
  N  N23  1  0.13841700  0.18518300  0.16469200  1
  N  N24  1  0.71224900  0.47583400  0.20042800  1
  N  N25  1  0.21224900  0.02416600  0.79957200  1
  N  N26  1  0.28775100  0.97583400  0.29957200  1
  N  N27  1  0.78775100  0.52416600  0.70042800  1
  N  N28  1  0.28775100  0.52416600  0.79957200  1
  N  N29  1  0.78775100  0.97583400  0.20042800  1
  N  N30  1  0.71224900  0.02416600  0.70042800  1
  N  N31  1  0.21224900  0.47583400  0.29957200  1
loop_
_geom_bond_atom_site_label_1
_geom_bond_atom_site_label_2
_geom_bond_distance
_geom_bond_site_symmetry_2
Li0 N9 1.977393 1_555
Li0 N26 2.055585 1_545
Li0 N13 2.068048 1_445
Li0 N0 2.076983 1_555
Li1 N8 1.977393 1_555
Li1 N27 2.055585 1_555
Li1 N12 2.068048 1_555
Li1 N1 2.076983 1_555
Li2 N11 1.977393 1_554
Li2 N24 2.055585 1_555
Li2 N15 2.068048 1_655
Li2 N2 2.076983 1_555
Li3 N10 1.977393 1_556
Li3 N25 2.055585 1_565
Li3 N14 2.068048 1_565
Li3 N3 2.076983 1_555
Li4 N13 1.977393 1_555
Li4 N30 2.055585 1_565
Li4 N9 2.068048 1_665
Li4 N4 2.076983 1_555
Li5 N12 1.977393 1_555
Li5 N31 2.055585 1_555
Li5 N8 2.068048 1_555
Li5 N5 2.076983 1_555
Li6 N15 1.977393 1_556
Li6 N28 2.055585 1_555
Li6 N11 2.068048 1_455
Li6 N6 2.076983 1_555
Li7 N14 1.977393 1_554
Li7 N29 2.055585 1_545
Li7 N10 2.068048 1_545
Li7 N7 2.076983 1_555
Li8 N16 2.217534 1_555
Li8 N23 2.244561 1_555
Li8 N0 2.319713 1_555
Li8 N31 2.340038 1_555
Li9 N17 2.217534 1_655
Li9 N22 2.244561 1_555
Li9 N1 2.319713 1_555
Li9 N30 2.340038 1_555
Li10 N18 2.217534 1_555
Li10 N21 2.244561 1_555
Li10 N2 2.319713 1_555
Li10 N29 2.340038 1_555
Li11 N19 2.217534 1_455
Li11 N20 2.244561 1_555
Li11 N3 2.319713 1_555
Li11 N28 2.340038 1_555
Li12 N20 2.217534 1_555
Li12 N19 2.244561 1_555
Li12 N4 2.319713 1_555
Li12 N27 2.340038 1_555
Li13 N21 2.217534 1_455
Li13 N18 2.244561 1_555
Li13 N5 2.319713 1_555
Li13 N26 2.340038 1_555
Li14 N22 2.217534 1_555
Li14 N17 2.244561 1_555
Li14 N6 2.319713 1_555
Li14 N25 2.340038 1_555
Li15 N23 2.217534 1_655
Li15 N16 2.244561 1_555
Li15 N7 2.319713 1_555
Li15 N24 2.340038 1_555
N0 Re8 1.814170 1_455
N0 Re9 2.053561 1_555
N1 Re9 1.814170 1_555
N1 Re8 2.053561 1_555
N2 Re10 1.814170 1_655
N2 Re11 2.053561 1_554
N3 Re11 1.814170 1_555
N3 Re10 2.053561 1_556
N4 Re12 1.814170 1_655
N4 Re13 2.053561 1_555
N5 Re13 1.814170 1_555
N5 Re12 2.053561 1_555
N6 Re14 1.814170 1_455
N6 Re15 2.053561 1_556
N7 Re15 1.814170 1_555
N7 Re14 2.053561 1_554
N8 Re5 1.886775 1_555
N8 Re8 2.000548 1_555
N9 Re4 1.886775 1_555
N9 Re9 2.000548 1_555
N10 Re7 1.886775 1_555
N10 Re10 2.000548 1_555
N11 Re6 1.886775 1_555
N11 Re11 2.000548 1_555
N12 Re1 1.886775 1_555
N12 Re12 2.000548 1_555
N13 Re0 1.886775 1_555
N13 Re13 2.000548 1_555
N14 Re3 1.886775 1_555
N14 Re14 2.000548 1_555
N15 Re2 1.886775 1_555
N15 Re15 2.000548 1_555
N16 Re8 1.839029 1_555
N16 Re0 2.031766 1_545
N17 Re9 1.839029 1_555
N17 Re1 2.031766 1_555
N18 Re10 1.839029 1_555
N18 Re2 2.031766 1_555
N19 Re11 1.839029 1_555
N19 Re3 2.031766 1_565
N20 Re12 1.839029 1_555
N20 Re4 2.031766 1_565
N21 Re13 1.839029 1_555
N21 Re5 2.031766 1_555
N22 Re14 1.839029 1_555
N22 Re6 2.031766 1_555
N23 Re15 1.839029 1_555
N23 Re7 2.031766 1_545
N24 Re2 1.864991 1_555
N24 Re5 1.899770 1_555
N25 Re3 1.864991 1_455
N25 Re4 1.899770 1_555
N26 Re0 1.864991 1_555
N26 Re7 1.899770 1_555
N27 Re1 1.864991 1_655
N27 Re6 1.899770 1_555
N28 Re6 1.864991 1_555
N28 Re1 1.899770 1_555
N29 Re7 1.864991 1_655
N29 Re0 1.899770 1_555
N30 Re4 1.864991 1_555
N30 Re3 1.899770 1_555
N31 Re5 1.864991 1_455
N31 Re2 1.899770 1_555
