# generated using pymatgen
data_U3Sn13Rh4
_symmetry_space_group_name_H-M   'P 1'
_cell_length_a   9.73658100
_cell_length_b   9.73658100
_cell_length_c   9.73658100
_cell_angle_alpha   90.00000000
_cell_angle_beta   90.00000000
_cell_angle_gamma   90.00000000
_symmetry_Int_Tables_number   1
_chemical_formula_structural   U3Sn13Rh4
_chemical_formula_sum   'U6 Sn26 Rh8'
_cell_volume   923.03770856
_cell_formula_units_Z   2
loop_
 _symmetry_equiv_pos_site_id
 _symmetry_equiv_pos_as_xyz
  1  'x, y, z'
loop_
 _atom_site_type_symbol
 _atom_site_label
 _atom_site_symmetry_multiplicity
 _atom_site_fract_x
 _atom_site_fract_y
 _atom_site_fract_z
 _atom_site_occupancy
  U  U0  1  0.00000000  0.25000000  0.50000000  1
  U  U1  1  0.00000000  0.75000000  0.50000000  1
  U  U2  1  0.50000000  0.00000000  0.75000000  1
  U  U3  1  0.50000000  0.00000000  0.25000000  1
  U  U4  1  0.75000000  0.50000000  0.00000000  1
  U  U5  1  0.25000000  0.50000000  0.00000000  1
  Sn  Sn0  1  0.50000000  0.34827100  0.18900100  1
  Sn  Sn1  1  0.81099900  0.50000000  0.34827100  1
  Sn  Sn2  1  0.18900100  0.50000000  0.34827100  1
  Sn  Sn3  1  0.65172900  0.18900100  0.50000000  1
  Sn  Sn4  1  0.34827100  0.18900100  0.50000000  1
  Sn  Sn5  1  0.50000000  0.65172900  0.81099900  1
  Sn  Sn6  1  0.00000000  0.00000000  0.00000000  1
  Sn  Sn7  1  0.50000000  0.50000000  0.50000000  1
  Sn  Sn8  1  0.00000000  0.31099900  0.15172900  1
  Sn  Sn9  1  0.50000000  0.34827100  0.81099900  1
  Sn  Sn10  1  0.50000000  0.65172900  0.18900100  1
  Sn  Sn11  1  0.65172900  0.81099900  0.50000000  1
  Sn  Sn12  1  0.34827100  0.81099900  0.50000000  1
  Sn  Sn13  1  0.18900100  0.50000000  0.65172900  1
  Sn  Sn14  1  0.81099900  0.50000000  0.65172900  1
  Sn  Sn15  1  0.15172900  0.00000000  0.31099900  1
  Sn  Sn16  1  0.31099900  0.15172900  0.00000000  1
  Sn  Sn17  1  0.68900100  0.84827100  0.00000000  1
  Sn  Sn18  1  0.15172900  0.00000000  0.68900100  1
  Sn  Sn19  1  0.68900100  0.15172900  0.00000000  1
  Sn  Sn20  1  0.84827100  0.00000000  0.31099900  1
  Sn  Sn21  1  0.84827100  0.00000000  0.68900100  1
  Sn  Sn22  1  0.31099900  0.84827100  0.00000000  1
  Sn  Sn23  1  0.00000000  0.68900100  0.84827100  1
  Sn  Sn24  1  0.00000000  0.31099900  0.84827100  1
  Sn  Sn25  1  0.00000000  0.68900100  0.15172900  1
  Rh  Rh0  1  0.25000000  0.25000000  0.25000000  1
  Rh  Rh1  1  0.75000000  0.25000000  0.25000000  1
  Rh  Rh2  1  0.25000000  0.25000000  0.75000000  1
  Rh  Rh3  1  0.25000000  0.75000000  0.25000000  1
  Rh  Rh4  1  0.75000000  0.75000000  0.75000000  1
  Rh  Rh5  1  0.25000000  0.75000000  0.75000000  1
  Rh  Rh6  1  0.75000000  0.75000000  0.25000000  1
  Rh  Rh7  1  0.75000000  0.25000000  0.75000000  1
loop_
_geom_bond_atom_site_label_1
_geom_bond_atom_site_label_2
_geom_bond_distance
_geom_bond_site_symmetry_2
Sn0 Sn10 2.954643 1_555
Sn0 Sn19 3.230308 1_555
Sn0 Sn16 3.230308 1_555
Sn0 Sn7 3.369224 1_555
Sn0 U4 3.390275 1_555
Sn0 U5 3.390275 1_555
Sn0 U3 3.442588 1_555
Sn1 Sn14 2.954643 1_555
Sn1 Sn25 3.230308 1_655
Sn1 Sn8 3.230308 1_655
Sn1 Sn7 3.369224 1_555
Sn1 U0 3.390275 1_655
Sn1 U1 3.390275 1_655
Sn1 U4 3.442588 1_555
Sn2 Sn25 3.230308 1_555
Sn2 Sn8 3.230308 1_555
Sn2 Sn7 3.369224 1_555
Sn2 U1 3.390275 1_555
Sn2 U0 3.390275 1_555
Sn2 U5 3.442588 1_555
Sn3 Sn4 2.954643 1_555
Sn3 Sn7 3.369224 1_555
Sn3 U2 3.390275 1_555
Sn3 U3 3.390275 1_555
Sn3 U0 3.442588 1_655
Sn4 Sn7 3.369224 1_555
Sn4 U2 3.390275 1_555
Sn4 U3 3.390275 1_555
Sn4 U0 3.442588 1_555
Sn5 Sn9 2.954643 1_555
Sn5 Sn7 3.369224 1_555
Sn5 U4 3.390275 1_556
Sn5 U5 3.390275 1_556
Sn5 U2 3.442588 1_565
Sn6 Sn8 3.369224 1_555
Sn7 Sn9 3.369224 1_555
Sn8 U5 3.390275 1_555
Sn8 U4 3.390275 1_455
Sn8 U0 3.442588 1_555
Sn9 U4 3.390275 1_556
Sn9 U5 3.390275 1_556
Sn9 U2 3.442588 1_555
Sn10 Sn17 3.230308 1_555
Sn10 Sn22 3.230308 1_555
Sn10 Sn7 3.369224 1_555
Sn10 U4 3.390275 1_555
Sn10 U5 3.390275 1_555
Sn10 U3 3.442588 1_565
Sn11 Sn12 2.954643 1_555
Sn11 Sn21 3.230308 1_565
Sn11 Sn20 3.230308 1_565
Sn11 Sn7 3.369224 1_555
Sn11 U2 3.390275 1_565
Sn11 U3 3.390275 1_565
Sn11 U1 3.442588 1_655
Sn12 Sn18 3.230308 1_565
Sn12 Sn15 3.230308 1_565
Sn12 Sn7 3.369224 1_555
Sn12 U2 3.390275 1_565
Sn12 U3 3.390275 1_565
Sn12 U1 3.442588 1_555
Sn13 Sn2 2.954643 1_555
Sn13 Sn23 3.230308 1_555
Sn13 Sn24 3.230308 1_555
Sn13 Sn7 3.369224 1_555
Sn13 U1 3.390275 1_555
Sn13 U0 3.390275 1_555
Sn13 U5 3.442588 1_556
Sn14 Sn23 3.230308 1_655
Sn14 Sn24 3.230308 1_655
Sn14 Sn7 3.369224 1_555
Sn14 U0 3.390275 1_655
Sn14 U1 3.390275 1_655
Sn14 U4 3.442588 1_556
Sn15 Sn20 2.954643 1_455
Sn15 Sn4 3.230308 1_555
Sn15 Sn6 3.369224 1_555
Sn15 U0 3.390275 1_555
Sn15 U1 3.390275 1_545
Sn15 U3 3.442588 1_555
Sn16 Sn22 2.954643 1_545
Sn16 Sn9 3.230308 1_554
Sn16 Sn6 3.369224 1_555
Sn16 U3 3.390275 1_555
Sn16 U2 3.390275 1_554
Sn16 U5 3.442588 1_555
Sn17 Sn19 2.954643 1_565
Sn17 Sn5 3.230308 1_554
Sn17 Sn6 3.369224 1_665
Sn17 U2 3.390275 1_564
Sn17 U3 3.390275 1_565
Sn17 U4 3.442588 1_555
Sn18 Sn21 2.954643 1_455
Sn18 Sn4 3.230308 1_555
Sn18 Sn6 3.369224 1_556
Sn18 U1 3.390275 1_545
Sn18 U0 3.390275 1_555
Sn18 U2 3.442588 1_555
Sn19 Sn9 3.230308 1_554
Sn19 Sn6 3.369224 1_655
Sn19 U3 3.390275 1_555
Sn19 U2 3.390275 1_554
Sn19 U4 3.442588 1_555
Sn20 Sn3 3.230308 1_555
Sn20 Sn6 3.369224 1_655
Sn20 U0 3.390275 1_655
Sn20 U1 3.390275 1_645
Sn20 U3 3.442588 1_555
Sn21 Sn3 3.230308 1_555
Sn21 Sn6 3.369224 1_656
Sn21 U1 3.390275 1_645
Sn21 U0 3.390275 1_655
Sn21 U2 3.442588 1_555
Sn22 Sn5 3.230308 1_554
Sn22 Sn6 3.369224 1_565
Sn22 U2 3.390275 1_564
Sn22 U3 3.390275 1_565
Sn22 U5 3.442588 1_555
Sn23 Sn25 2.954643 1_556
Sn23 Sn6 3.369224 1_566
Sn23 U4 3.390275 1_456
Sn23 U5 3.390275 1_556
Sn23 U1 3.442588 1_555
Sn24 Sn8 2.954643 1_556
Sn24 Sn6 3.369224 1_556
Sn24 U5 3.390275 1_556
Sn24 U4 3.390275 1_456
Sn24 U0 3.442588 1_555
Sn25 Sn6 3.369224 1_565
Sn25 U4 3.390275 1_455
Sn25 U5 3.390275 1_555
Sn25 U1 3.442588 1_555
Rh0 Sn15 2.682036 1_555
Rh0 Sn8 2.682036 1_555
Rh0 Sn16 2.682036 1_555
Rh0 Sn2 2.682036 1_555
Rh0 Sn0 2.682036 1_555
Rh0 Sn4 2.682036 1_555
Rh0 U0 3.442401 1_555
Rh0 U5 3.442401 1_555
Rh0 U3 3.442401 1_555
Rh1 Sn20 2.682036 1_555
Rh1 Sn8 2.682036 1_655
Rh1 Sn1 2.682036 1_555
Rh1 Sn19 2.682036 1_555
Rh1 Sn0 2.682036 1_555
Rh1 Sn3 2.682036 1_555
Rh1 U4 3.442401 1_555
Rh1 U3 3.442401 1_555
Rh1 U0 3.442401 1_655
Rh2 Sn16 2.682036 1_556
Rh2 Sn24 2.682036 1_555
Rh2 Sn9 2.682036 1_555
Rh2 Sn18 2.682036 1_555
Rh2 Sn13 2.682036 1_555
Rh2 Sn4 2.682036 1_555
Rh2 U0 3.442401 1_555
Rh2 U5 3.442401 1_556
Rh2 U2 3.442401 1_555
Rh3 Sn15 2.682036 1_565
Rh3 Sn12 2.682036 1_555
Rh3 Sn22 2.682036 1_555
Rh3 Sn2 2.682036 1_555
Rh3 Sn25 2.682036 1_555
Rh3 Sn10 2.682036 1_555
Rh3 U1 3.442401 1_555
Rh3 U3 3.442401 1_565
Rh3 U5 3.442401 1_555
Rh4 Sn5 2.682036 1_555
Rh4 Sn14 2.682036 1_555
Rh4 Sn11 2.682036 1_555
Rh4 Sn23 2.682036 1_655
Rh4 Sn21 2.682036 1_565
Rh4 Sn17 2.682036 1_556
Rh4 U4 3.442401 1_556
Rh4 U1 3.442401 1_655
Rh4 U2 3.442401 1_565
Rh5 Sn12 2.682036 1_555
Rh5 Sn5 2.682036 1_555
Rh5 Sn22 2.682036 1_556
Rh5 Sn18 2.682036 1_565
Rh5 Sn13 2.682036 1_555
Rh5 Sn23 2.682036 1_555
Rh5 U1 3.442401 1_555
Rh5 U5 3.442401 1_556
Rh5 U2 3.442401 1_565
Rh6 Sn20 2.682036 1_565
Rh6 Sn11 2.682036 1_555
Rh6 Sn1 2.682036 1_555
Rh6 Sn25 2.682036 1_655
Rh6 Sn17 2.682036 1_555
Rh6 Sn10 2.682036 1_555
Rh6 U3 3.442401 1_565
Rh6 U4 3.442401 1_555
Rh6 U1 3.442401 1_655
Rh7 Sn24 2.682036 1_655
Rh7 Sn9 2.682036 1_555
Rh7 Sn14 2.682036 1_555
Rh7 Sn21 2.682036 1_555
Rh7 Sn3 2.682036 1_555
Rh7 Sn19 2.682036 1_556
Rh7 U4 3.442401 1_556
Rh7 U2 3.442401 1_555
Rh7 U0 3.442401 1_655
