# generated using pymatgen
data_K3YbN6
_symmetry_space_group_name_H-M   'P 1'
_cell_length_a   7.85118634
_cell_length_b   7.85118634
_cell_length_c   7.85118620
_cell_angle_alpha   85.78560874
_cell_angle_beta   85.78560874
_cell_angle_gamma   85.78560773
_symmetry_Int_Tables_number   1
_chemical_formula_structural   K3YbN6
_chemical_formula_sum   'K6 Yb2 N12'
_cell_volume   480.21309429
_cell_formula_units_Z   2
loop_
 _symmetry_equiv_pos_site_id
 _symmetry_equiv_pos_as_xyz
  1  'x, y, z'
loop_
 _atom_site_type_symbol
 _atom_site_label
 _atom_site_symmetry_multiplicity
 _atom_site_fract_x
 _atom_site_fract_y
 _atom_site_fract_z
 _atom_site_occupancy
  K  K0  1  0.75000000  0.40803900  0.09196100  1
  K  K1  1  0.40803900  0.09196100  0.75000000  1
  K  K2  1  0.09196100  0.75000000  0.40803900  1
  K  K3  1  0.25000000  0.59196100  0.90803900  1
  K  K4  1  0.59196100  0.90803900  0.25000000  1
  K  K5  1  0.90803900  0.25000000  0.59196100  1
  Yb  Yb0  1  0.50000000  0.50000000  0.50000000  1
  Yb  Yb1  1  0.00000000  0.00000000  0.00000000  1
  N  N0  1  0.22104300  0.41510200  0.60519700  1
  N  N1  1  0.41510200  0.60519700  0.22104300  1
  N  N2  1  0.60519700  0.22104300  0.41510200  1
  N  N3  1  0.27895700  0.89480300  0.08489800  1
  N  N4  1  0.08489800  0.27895700  0.89480300  1
  N  N5  1  0.89480300  0.08489800  0.27895700  1
  N  N6  1  0.58489800  0.39480300  0.77895700  1
  N  N7  1  0.39480300  0.77895700  0.58489800  1
  N  N8  1  0.77895700  0.58489800  0.39480300  1
  N  N9  1  0.91510200  0.72104300  0.10519700  1
  N  N10  1  0.10519700  0.91510200  0.72104300  1
  N  N11  1  0.72104300  0.10519700  0.91510200  1
loop_
_geom_bond_atom_site_label_1
_geom_bond_atom_site_label_2
_geom_bond_distance
_geom_bond_site_symmetry_2
K0 N8 2.871267 1_555
K0 N11 2.871267 1_554
K0 N6 2.873265 1_554
K0 N9 2.873265 1_555
K0 N5 3.026291 1_555
K0 N2 3.026291 1_555
K0 N1 3.094725 1_555
K0 N4 3.094725 1_654
K1 N10 2.871267 1_545
K1 N6 2.871267 1_555
K1 N11 2.873265 1_555
K1 N7 2.873265 1_545
K1 N0 3.026291 1_555
K1 N4 3.026291 1_555
K1 N3 3.094725 1_546
K1 N2 3.094725 1_555
K2 N9 2.871267 1_455
K2 N7 2.871267 1_555
K2 N10 2.873265 1_555
K2 N8 2.873265 1_455
K2 N1 3.026291 1_555
K2 N3 3.026291 1_555
K2 N5 3.094725 1_465
K2 N0 3.094725 1_555
K3 N0 2.871267 1_555
K3 N3 2.871267 1_556
K3 N1 2.873265 1_556
K3 N4 2.873265 1_555
K3 N10 3.026291 1_555
K3 N7 3.026291 1_555
K3 N6 3.094725 1_555
K3 N9 3.094725 1_456
K4 N5 2.871267 1_565
K4 N1 2.871267 1_555
K4 N2 2.873265 1_565
K4 N3 2.873265 1_555
K4 N9 3.026291 1_555
K4 N8 3.026291 1_555
K4 N11 3.094725 1_564
K4 N7 3.094725 1_555
K5 N4 2.871267 1_655
K5 N2 2.871267 1_555
K5 N5 2.873265 1_555
K5 N0 2.873265 1_655
K5 N6 3.026291 1_555
K5 N11 3.026291 1_555
K5 N10 3.094725 1_645
K5 N8 3.094725 1_555
N0 Yb0 2.406439 1_555
N1 Yb0 2.406439 1_555
N2 Yb0 2.406439 1_555
N3 Yb1 2.406439 1_565
N4 Yb1 2.406439 1_556
N5 Yb1 2.406439 1_655
N6 Yb0 2.406439 1_555
N7 Yb0 2.406439 1_555
N8 Yb0 2.406439 1_555
N9 Yb1 2.406439 1_665
N10 Yb1 2.406439 1_566
N11 Yb1 2.406439 1_656
