# generated using pymatgen
data_ZnFe3P3O13
_symmetry_space_group_name_H-M   'P 1'
_cell_length_a   6.35440800
_cell_length_b   7.67329100
_cell_length_c   10.09070952
_cell_angle_alpha   79.43508908
_cell_angle_beta   90.00000000
_cell_angle_gamma   90.00000000
_symmetry_Int_Tables_number   1
_chemical_formula_structural   ZnFe3P3O13
_chemical_formula_sum   'Zn2 Fe6 P6 O26'
_cell_volume   483.67441370
_cell_formula_units_Z   2
loop_
 _symmetry_equiv_pos_site_id
 _symmetry_equiv_pos_as_xyz
  1  'x, y, z'
loop_
 _atom_site_type_symbol
 _atom_site_label
 _atom_site_symmetry_multiplicity
 _atom_site_fract_x
 _atom_site_fract_y
 _atom_site_fract_z
 _atom_site_occupancy
  Zn  Zn0  1  0.75000000  0.37482300  0.17884200  1
  Zn  Zn1  1  0.25000000  0.62517700  0.82115800  1
  Fe  Fe0  1  0.25000000  0.64558100  0.20605600  1
  Fe  Fe1  1  0.75000000  0.35441900  0.79394400  1
  Fe  Fe2  1  0.25000000  0.21499300  0.43286700  1
  Fe  Fe3  1  0.50000000  0.00000000  0.00000000  1
  Fe  Fe4  1  0.75000000  0.78500700  0.56713300  1
  Fe  Fe5  1  0.00000000  0.00000000  0.00000000  1
  P  P0  1  0.25000000  0.78151000  0.49878700  1
  P  P1  1  0.75000000  0.21849000  0.50121300  1
  P  P2  1  0.25000000  0.27177500  0.76055300  1
  P  P3  1  0.75000000  0.72822500  0.23944700  1
  P  P4  1  0.75000000  0.67906700  0.88969100  1
  P  P5  1  0.25000000  0.32093300  0.11030900  1
  O  O0  1  0.75000000  0.62911500  0.74715500  1
  O  O1  1  0.56003300  0.25392500  0.40263600  1
  O  O2  1  0.25000000  0.22184400  0.62219000  1
  O  O3  1  0.54395000  0.78405500  0.90267400  1
  O  O4  1  0.75000000  0.34623400  0.60181500  1
  O  O5  1  0.75000000  0.12080200  0.90271000  1
  O  O6  1  0.25000000  0.65376600  0.39818500  1
  O  O7  1  0.04395000  0.21594500  0.09732600  1
  O  O8  1  0.25000000  0.97303900  0.41730400  1
  O  O9  1  0.75000000  0.02696100  0.58269600  1
  O  O10  1  0.06281900  0.39001300  0.78745900  1
  O  O11  1  0.25000000  0.87919800  0.09729000  1
  O  O12  1  0.56281900  0.60998700  0.21254100  1
  O  O13  1  0.75000000  0.48928300  0.97697400  1
  O  O14  1  0.75000000  0.77815600  0.37781000  1
  O  O15  1  0.45605000  0.21594500  0.09732600  1
  O  O16  1  0.93996700  0.25392500  0.40263600  1
  O  O17  1  0.43996700  0.74607500  0.59736400  1
  O  O18  1  0.43718100  0.39001300  0.78745900  1
  O  O19  1  0.25000000  0.37088500  0.25284500  1
  O  O20  1  0.75000000  0.90401900  0.13074400  1
  O  O21  1  0.25000000  0.09598100  0.86925600  1
  O  O22  1  0.93718100  0.60998700  0.21254100  1
  O  O23  1  0.95605000  0.78405500  0.90267400  1
  O  O24  1  0.06003300  0.74607500  0.59736400  1
  O  O25  1  0.25000000  0.51071700  0.02302600  1
loop_
_geom_bond_atom_site_label_1
_geom_bond_atom_site_label_2
_geom_bond_distance
_geom_bond_site_symmetry_2
Fe0 O11 1.922644 1_555
Fe0 O6 1.951210 1_555
Fe0 O12 2.005889 1_555
Fe0 O22 2.005889 1_455
Fe0 O19 2.073860 1_555
Fe0 O25 2.276582 1_555
Fe1 O5 1.922644 1_555
Fe1 O4 1.951210 1_555
Fe1 O10 2.005889 1_655
Fe1 O18 2.005889 1_555
Fe1 O0 2.073860 1_555
Fe1 O13 2.276582 1_555
Fe2 O8 1.891687 1_545
Fe2 O2 1.920737 1_555
Fe2 O19 1.983415 1_555
Fe2 O1 2.007507 1_555
Fe2 O16 2.007507 1_455
Fe3 O5 2.003241 1_554
Fe3 O11 2.003241 1_545
Fe3 O15 2.094018 1_555
Fe3 O3 2.094018 1_544
Fe3 O20 2.109579 1_545
Fe3 O21 2.109579 1_554
Fe4 O9 1.891687 1_565
Fe4 O14 1.920737 1_555
Fe4 O0 1.983415 1_555
Fe4 O24 2.007507 1_655
Fe4 O17 2.007507 1_555
Fe5 O5 2.003241 1_454
Fe5 O11 2.003241 1_545
Fe5 O7 2.094018 1_555
Fe5 O23 2.094018 1_444
Fe5 O20 2.109579 1_445
Fe5 O21 2.109579 1_554
O0 P4 1.554912 1_555
O1 P1 1.556072 1_555
O1 Zn0 2.578604 1_555
O2 P2 1.514024 1_555
O3 P4 1.555376 1_555
O3 Zn1 2.453474 1_555
O4 P1 1.535003 1_555
O6 P0 1.535003 1_555
O7 P5 1.555376 1_555
O7 Zn0 2.453474 1_455
O8 P0 1.546877 1_555
O9 P1 1.546877 1_555
O10 P2 1.549812 1_555
O10 Zn1 2.238644 1_555
O12 P3 1.549812 1_555
O12 Zn0 2.238644 1_555
O13 P4 1.557595 1_555
O13 Zn0 2.065108 1_556
O14 P3 1.514024 1_555
O15 P5 1.555376 1_555
O15 Zn0 2.453474 1_555
O16 P1 1.556072 1_555
O16 Zn0 2.578604 1_555
O17 P0 1.556072 1_555
O17 Zn1 2.578604 1_555
O18 P2 1.549812 1_555
O18 Zn1 2.238644 1_555
O19 P5 1.554912 1_555
O20 P3 1.574858 1_555
O21 P2 1.574858 1_555
O22 P3 1.549812 1_555
O22 Zn0 2.238644 1_555
O23 P4 1.555376 1_555
O23 Zn1 2.453474 1_655
O24 P0 1.556072 1_555
O24 Zn1 2.578604 1_555
O25 P5 1.557595 1_555
O25 Zn1 2.065108 1_554
