# generated using pymatgen
data_SrAs2F12
_symmetry_space_group_name_H-M   'P 1'
_cell_length_a   9.94162800
_cell_length_b   9.94162800
_cell_length_c   9.94162800
_cell_angle_alpha   90.00000000
_cell_angle_beta   90.00000000
_cell_angle_gamma   90.00000000
_symmetry_Int_Tables_number   1
_chemical_formula_structural   SrAs2F12
_chemical_formula_sum   'Sr4 As8 F48'
_cell_volume   982.59041982
_cell_formula_units_Z   4
loop_
 _symmetry_equiv_pos_site_id
 _symmetry_equiv_pos_as_xyz
  1  'x, y, z'
loop_
 _atom_site_type_symbol
 _atom_site_label
 _atom_site_symmetry_multiplicity
 _atom_site_fract_x
 _atom_site_fract_y
 _atom_site_fract_z
 _atom_site_occupancy
  Sr  Sr0  1  0.50000000  0.00000000  0.00000000  1
  Sr  Sr1  1  0.00000000  0.50000000  0.00000000  1
  Sr  Sr2  1  0.00000000  0.00000000  0.50000000  1
  Sr  Sr3  1  0.00000000  0.00000000  0.00000000  1
  As  As0  1  0.25389800  0.25389800  0.25389800  1
  As  As1  1  0.74610200  0.74610200  0.25389800  1
  As  As2  1  0.74610200  0.25389800  0.74610200  1
  As  As3  1  0.25389800  0.74610200  0.74610200  1
  As  As4  1  0.74610200  0.74610200  0.74610200  1
  As  As5  1  0.25389800  0.25389800  0.74610200  1
  As  As6  1  0.25389800  0.74610200  0.25389800  1
  As  As7  1  0.74610200  0.25389800  0.25389800  1
  F  F0  1  0.12898400  0.12898400  0.30583800  1
  F  F1  1  0.87101600  0.87101600  0.30583800  1
  F  F2  1  0.87101600  0.12898400  0.69416200  1
  F  F3  1  0.30583800  0.12898400  0.12898400  1
  F  F4  1  0.12898400  0.87101600  0.69416200  1
  F  F5  1  0.30583800  0.87101600  0.87101600  1
  F  F6  1  0.69416200  0.87101600  0.12898400  1
  F  F7  1  0.69416200  0.12898400  0.87101600  1
  F  F8  1  0.12898400  0.30583800  0.12898400  1
  F  F9  1  0.12898400  0.69416200  0.87101600  1
  F  F10  1  0.87101600  0.69416200  0.12898400  1
  F  F11  1  0.87101600  0.30583800  0.87101600  1
  F  F12  1  0.37014800  0.37014800  0.81207800  1
  F  F13  1  0.62985200  0.62985200  0.81207800  1
  F  F14  1  0.62985200  0.37014800  0.18792200  1
  F  F15  1  0.81207800  0.37014800  0.37014800  1
  F  F16  1  0.37014800  0.62985200  0.18792200  1
  F  F17  1  0.81207800  0.62985200  0.62985200  1
  F  F18  1  0.18792200  0.62985200  0.37014800  1
  F  F19  1  0.18792200  0.37014800  0.62985200  1
  F  F20  1  0.37014800  0.81207800  0.37014800  1
  F  F21  1  0.37014800  0.18792200  0.62985200  1
  F  F22  1  0.62985200  0.18792200  0.37014800  1
  F  F23  1  0.62985200  0.81207800  0.62985200  1
  F  F24  1  0.12898400  0.12898400  0.69416200  1
  F  F25  1  0.87101600  0.87101600  0.69416200  1
  F  F26  1  0.87101600  0.12898400  0.30583800  1
  F  F27  1  0.69416200  0.12898400  0.12898400  1
  F  F28  1  0.12898400  0.87101600  0.30583800  1
  F  F29  1  0.69416200  0.87101600  0.87101600  1
  F  F30  1  0.30583800  0.87101600  0.12898400  1
  F  F31  1  0.30583800  0.12898400  0.87101600  1
  F  F32  1  0.12898400  0.69416200  0.12898400  1
  F  F33  1  0.12898400  0.30583800  0.87101600  1
  F  F34  1  0.87101600  0.30583800  0.12898400  1
  F  F35  1  0.87101600  0.69416200  0.87101600  1
  F  F36  1  0.37014800  0.37014800  0.18792200  1
  F  F37  1  0.62985200  0.62985200  0.18792200  1
  F  F38  1  0.62985200  0.37014800  0.81207800  1
  F  F39  1  0.18792200  0.37014800  0.37014800  1
  F  F40  1  0.37014800  0.62985200  0.81207800  1
  F  F41  1  0.18792200  0.62985200  0.62985200  1
  F  F42  1  0.81207800  0.62985200  0.37014800  1
  F  F43  1  0.81207800  0.37014800  0.62985200  1
  F  F44  1  0.37014800  0.18792200  0.37014800  1
  F  F45  1  0.37014800  0.81207800  0.62985200  1
  F  F46  1  0.62985200  0.81207800  0.37014800  1
  F  F47  1  0.62985200  0.18792200  0.62985200  1
loop_
_geom_bond_atom_site_label_1
_geom_bond_atom_site_label_2
_geom_bond_distance
_geom_bond_site_symmetry_2
As0 F44 1.761127 1_555
As0 F39 1.761127 1_555
As0 F36 1.761127 1_555
As0 F8 1.830577 1_555
As0 F3 1.830577 1_555
As0 F0 1.830577 1_555
As1 F42 1.761127 1_555
As1 F46 1.761127 1_555
As1 F37 1.761127 1_555
As1 F1 1.830577 1_555
As1 F6 1.830577 1_555
As1 F10 1.830577 1_555
As2 F38 1.761127 1_555
As2 F43 1.761127 1_555
As2 F47 1.761127 1_555
As2 F11 1.830577 1_555
As2 F7 1.830577 1_555
As2 F2 1.830577 1_555
As3 F45 1.761127 1_555
As3 F40 1.761127 1_555
As3 F41 1.761127 1_555
As3 F5 1.830577 1_555
As3 F9 1.830577 1_555
As3 F4 1.830577 1_555
As4 F13 1.761127 1_555
As4 F23 1.761127 1_555
As4 F17 1.761127 1_555
As4 F35 1.830577 1_555
As4 F29 1.830577 1_555
As4 F25 1.830577 1_555
As5 F12 1.761127 1_555
As5 F21 1.761127 1_555
As5 F19 1.761127 1_555
As5 F33 1.830577 1_555
As5 F31 1.830577 1_555
As5 F24 1.830577 1_555
As6 F20 1.761127 1_555
As6 F18 1.761127 1_555
As6 F16 1.761127 1_555
As6 F30 1.830577 1_555
As6 F28 1.830577 1_555
As6 F32 1.830577 1_555
As7 F15 1.761127 1_555
As7 F14 1.761127 1_555
As7 F22 1.761127 1_555
As7 F26 1.830577 1_555
As7 F34 1.830577 1_555
As7 F27 1.830577 1_555
F0 Sr2 2.648518 1_555
F1 Sr2 2.648518 1_665
F2 Sr2 2.648518 1_655
F3 Sr0 2.648518 1_555
F4 Sr2 2.648518 1_565
F5 Sr0 2.648518 1_566
F6 Sr0 2.648518 1_565
F7 Sr0 2.648518 1_556
F8 Sr1 2.648518 1_555
F9 Sr1 2.648518 1_556
F10 Sr1 2.648518 1_655
F11 Sr1 2.648518 1_656
F24 Sr2 2.648518 1_555
F25 Sr2 2.648518 1_665
F26 Sr2 2.648518 1_655
F27 Sr0 2.648518 1_555
F28 Sr2 2.648518 1_565
F29 Sr0 2.648518 1_566
F30 Sr0 2.648518 1_565
F31 Sr0 2.648518 1_556
F32 Sr1 2.648518 1_555
F33 Sr1 2.648518 1_556
F34 Sr1 2.648518 1_655
F35 Sr1 2.648518 1_656
