# generated using pymatgen
data_LuInCo4
_symmetry_space_group_name_H-M   'P 1'
_cell_length_a   4.95942917
_cell_length_b   4.95942917
_cell_length_c   4.95942917
_cell_angle_alpha   60.00000000
_cell_angle_beta   60.00000000
_cell_angle_gamma   60.00000000
_symmetry_Int_Tables_number   1
_chemical_formula_structural   LuInCo4
_chemical_formula_sum   'Lu1 In1 Co4'
_cell_volume   86.25416586
_cell_formula_units_Z   1
loop_
 _symmetry_equiv_pos_site_id
 _symmetry_equiv_pos_as_xyz
  1  'x, y, z'
loop_
 _atom_site_type_symbol
 _atom_site_label
 _atom_site_symmetry_multiplicity
 _atom_site_fract_x
 _atom_site_fract_y
 _atom_site_fract_z
 _atom_site_occupancy
  Lu  Lu0  1  0.25000000  0.25000000  0.25000000  1
  In  In0  1  0.00000000  0.00000000  0.00000000  1
  Co  Co0  1  0.62523800  0.62523800  0.62523800  1
  Co  Co1  1  0.62523800  0.62523800  0.12428500  1
  Co  Co2  1  0.62523800  0.12428500  0.62523800  1
  Co  Co3  1  0.12428500  0.62523800  0.62523800  1
loop_
_geom_bond_atom_site_label_1
_geom_bond_atom_site_label_2
_geom_bond_distance
_geom_bond_site_symmetry_2
In0 Lu0 3.037018 1_554
In0 Lu0 3.037018 1_555
In0 Lu0 3.037018 1_545
In0 Lu0 3.037018 1_455
Co0 Co2 2.474988 1_565
Co0 Co1 2.474988 1_556
Co0 Co3 2.474988 1_655
Co0 Co3 2.484441 1_555
Co0 Co2 2.484441 1_555
Co0 Co1 2.484441 1_555
Co0 In0 2.907221 1_566
Co0 In0 2.907221 1_665
Co0 In0 2.907221 1_656
Co0 Lu0 2.908228 1_655
Co0 Lu0 2.908228 1_565
Co0 Lu0 2.908228 1_556
Co1 Co2 2.474988 1_564
Co1 Co3 2.474988 1_654
Co1 Co3 2.484441 1_555
Co1 Co2 2.484441 1_555
Co1 In0 2.907219 1_565
Co1 In0 2.907219 1_655
Co1 In0 2.907223 1_665
Co1 Lu0 2.908226 1_555
Co1 Lu0 2.908230 1_565
Co1 Lu0 2.908230 1_655
Co2 Co3 2.474988 1_645
Co2 Co3 2.484441 1_555
Co2 In0 2.907219 1_655
Co2 In0 2.907219 1_556
Co2 In0 2.907223 1_656
Co2 Lu0 2.908226 1_555
Co2 Lu0 2.908230 1_556
Co2 Lu0 2.908230 1_655
Co3 In0 2.907219 1_565
Co3 In0 2.907219 1_556
Co3 In0 2.907223 1_566
Co3 Lu0 2.908226 1_555
Co3 Lu0 2.908230 1_556
Co3 Lu0 2.908230 1_565
