# generated using pymatgen
data_Yb2S3
_symmetry_space_group_name_H-M   'P 1'
_cell_length_a   7.37793722
_cell_length_b   7.37793722
_cell_length_c   15.00402300
_cell_angle_alpha   90.00000000
_cell_angle_beta   90.00000000
_cell_angle_gamma   123.09278912
_symmetry_Int_Tables_number   1
_chemical_formula_structural   Yb2S3
_chemical_formula_sum   'Yb12 S18'
_cell_volume   684.24475477
_cell_formula_units_Z   6
loop_
 _symmetry_equiv_pos_site_id
 _symmetry_equiv_pos_as_xyz
  1  'x, y, z'
loop_
 _atom_site_type_symbol
 _atom_site_label
 _atom_site_symmetry_multiplicity
 _atom_site_fract_x
 _atom_site_fract_y
 _atom_site_fract_z
 _atom_site_occupancy
  Yb  Yb0  1  0.02409200  0.02409200  0.01029600  1
  Yb  Yb1  1  0.97590800  0.97590800  0.51029600  1
  Yb  Yb2  1  0.97631600  0.97631600  0.23181800  1
  Yb  Yb3  1  0.02368400  0.02368400  0.73181800  1
  Yb  Yb4  1  0.66765800  0.31998800  0.00205600  1
  Yb  Yb5  1  0.31998800  0.66765800  0.00205600  1
  Yb  Yb6  1  0.33234200  0.68001200  0.50205600  1
  Yb  Yb7  1  0.68001200  0.33234200  0.50205600  1
  Yb  Yb8  1  0.67573100  0.34174700  0.23384600  1
  Yb  Yb9  1  0.34174700  0.67573100  0.23384600  1
  Yb  Yb10  1  0.32426900  0.65825300  0.73384600  1
  Yb  Yb11  1  0.65825300  0.32426900  0.73384600  1
  S  S0  1  0.34092200  0.34092200  0.11707000  1
  S  S1  1  0.01732600  0.68089700  0.12254000  1
  S  S2  1  0.68089700  0.01732600  0.12254000  1
  S  S3  1  0.65907800  0.65907800  0.61707000  1
  S  S4  1  0.98267400  0.31910300  0.62254000  1
  S  S5  1  0.31910300  0.98267400  0.62254000  1
  S  S6  1  0.33131700  0.33131700  0.44854800  1
  S  S7  1  0.88494800  0.66749900  0.37220700  1
  S  S8  1  0.66749900  0.88494800  0.37220700  1
  S  S9  1  0.66868300  0.66868300  0.94854800  1
  S  S10  1  0.11505200  0.33250100  0.87220700  1
  S  S11  1  0.33250100  0.11505200  0.87220700  1
  S  S12  1  0.32293400  0.32293400  0.30847200  1
  S  S13  1  0.01808900  0.47748600  0.36489900  1
  S  S14  1  0.47748600  0.01808900  0.36489900  1
  S  S15  1  0.67706600  0.67706600  0.80847200  1
  S  S16  1  0.98191100  0.52251400  0.86489900  1
  S  S17  1  0.52251400  0.98191100  0.86489900  1
loop_
_geom_bond_atom_site_label_1
_geom_bond_atom_site_label_2
_geom_bond_distance
_geom_bond_site_symmetry_2
S0 Yb0 2.743723 1_555
S0 Yb8 3.025788 1_555
S0 Yb9 3.025788 1_555
S0 Yb4 3.036371 1_555
S0 Yb5 3.036371 1_555
S0 Yb2 3.087849 1_445
S1 Yb2 2.872384 1_455
S1 Yb5 2.915826 1_555
S1 Yb8 2.918133 1_455
S1 Yb9 2.935851 1_555
S1 Yb0 3.018622 1_565
S1 Yb4 3.084210 1_455
S2 Yb2 2.872384 1_545
S2 Yb4 2.915826 1_555
S2 Yb9 2.918133 1_545
S2 Yb8 2.935851 1_555
S2 Yb0 3.018622 1_655
S2 Yb5 3.084210 1_545
S3 Yb1 2.743723 1_555
S3 Yb10 3.025788 1_555
S3 Yb11 3.025788 1_555
S3 Yb7 3.036371 1_555
S3 Yb6 3.036371 1_555
S3 Yb3 3.087849 1_665
S4 Yb3 2.872384 1_655
S4 Yb7 2.915826 1_555
S4 Yb10 2.918133 1_655
S4 Yb11 2.935851 1_555
S4 Yb1 3.018622 1_545
S4 Yb6 3.084210 1_655
S5 Yb3 2.872384 1_565
S5 Yb6 2.915826 1_555
S5 Yb11 2.918133 1_565
S5 Yb10 2.935851 1_555
S5 Yb1 3.018622 1_455
S5 Yb7 3.084210 1_565
S6 Yb1 2.664896 1_445
S6 Yb7 2.691075 1_555
S6 Yb6 2.691075 1_555
S7 Yb7 2.848449 1_555
S7 Yb1 2.872828 1_555
S7 Yb2 2.899206 1_555
S7 Yb8 2.901283 1_555
S8 Yb6 2.848449 1_555
S8 Yb1 2.872828 1_555
S8 Yb2 2.899206 1_555
S8 Yb9 2.901283 1_555
S9 Yb0 2.664896 1_666
S9 Yb5 2.691075 1_556
S9 Yb4 2.691075 1_556
S10 S16 2.108569 1_455
S10 Yb5 2.848449 1_556
S10 Yb0 2.872828 1_556
S10 Yb3 2.899206 1_555
S10 Yb10 2.901283 1_555
S11 S17 2.108569 1_545
S11 Yb4 2.848449 1_556
S11 Yb0 2.872828 1_556
S11 Yb3 2.899206 1_555
S11 Yb11 2.901283 1_555
S12 S6 2.102530 1_555
S12 Yb2 2.694636 1_445
S12 Yb9 2.766516 1_555
S12 Yb8 2.766516 1_555
S13 S7 2.108569 1_455
S13 Yb9 2.809619 1_555
S13 Yb6 2.839047 1_555
S13 Yb8 2.913279 1_455
S13 Yb7 2.947292 1_455
S14 S8 2.108569 1_545
S14 Yb8 2.809619 1_555
S14 Yb7 2.839047 1_555
S14 Yb9 2.913279 1_545
S14 Yb6 2.947292 1_545
S15 S9 2.102530 1_555
S15 Yb3 2.694636 1_665
S15 Yb10 2.766516 1_555
S15 Yb11 2.766516 1_555
S16 Yb11 2.809619 1_555
S16 Yb4 2.839047 1_556
S16 Yb10 2.913279 1_655
S16 Yb5 2.947292 1_656
S17 Yb10 2.809619 1_555
S17 Yb5 2.839047 1_556
S17 Yb11 2.913279 1_565
S17 Yb4 2.947292 1_566
