# generated using pymatgen
data_Ca2Sn3S8
_symmetry_space_group_name_H-M   'P 1'
_cell_length_a   7.93814588
_cell_length_b   7.93814588
_cell_length_c   6.53273268
_cell_angle_alpha   73.07089233
_cell_angle_beta   73.07089233
_cell_angle_gamma   57.18172086
_symmetry_Int_Tables_number   1
_chemical_formula_structural   Ca2Sn3S8
_chemical_formula_sum   'Ca2 Sn3 S8'
_cell_volume   326.37477133
_cell_formula_units_Z   1
loop_
 _symmetry_equiv_pos_site_id
 _symmetry_equiv_pos_as_xyz
  1  'x, y, z'
loop_
 _atom_site_type_symbol
 _atom_site_label
 _atom_site_symmetry_multiplicity
 _atom_site_fract_x
 _atom_site_fract_y
 _atom_site_fract_z
 _atom_site_occupancy
  Ca  Ca0  1  0.27067300  0.27067300  0.65870000  1
  Ca  Ca1  1  0.72932700  0.72932700  0.34130000  1
  Sn  Sn0  1  0.00000000  0.00000000  0.50000000  1
  Sn  Sn1  1  0.26061000  0.73939000  0.00000000  1
  Sn  Sn2  1  0.73939000  0.26061000  0.00000000  1
  S  S0  1  0.11486500  0.65889700  0.40181400  1
  S  S1  1  0.65889700  0.11486500  0.40181400  1
  S  S2  1  0.88513500  0.34110300  0.59818600  1
  S  S3  1  0.34110300  0.88513500  0.59818600  1
  S  S4  1  0.89131700  0.89131700  0.91383900  1
  S  S5  1  0.10868300  0.10868300  0.08616100  1
  S  S6  1  0.38071400  0.38071400  0.95763000  1
  S  S7  1  0.61928600  0.61928600  0.04237000  1
loop_
_geom_bond_atom_site_label_1
_geom_bond_atom_site_label_2
_geom_bond_distance
_geom_bond_site_symmetry_2
Ca0 S0 2.812224 1_555
Ca0 S1 2.812224 1_555
Ca0 S6 2.855452 1_555
Ca0 S3 2.925138 1_545
Ca0 S2 2.925138 1_455
Ca0 S5 2.952112 1_556
Ca1 S2 2.812224 1_555
Ca1 S3 2.812224 1_555
Ca1 S7 2.855452 1_555
Ca1 S0 2.925138 1_655
Ca1 S1 2.925138 1_565
Ca1 S4 2.952112 1_554
S0 Sn0 2.563055 1_565
S0 Sn1 2.587087 1_555
S1 Sn0 2.563055 1_655
S1 Sn2 2.587087 1_555
S2 Sn0 2.563055 1_655
S2 Sn2 2.587087 1_556
S3 Sn0 2.563055 1_565
S3 Sn1 2.587087 1_556
S4 Sn0 2.624437 1_665
S4 Sn1 2.664275 1_656
S4 Sn2 2.664275 1_566
S5 Sn0 2.624437 1_555
S5 Sn1 2.664275 1_545
S5 Sn2 2.664275 1_455
S6 Sn2 2.540689 1_556
S6 Sn1 2.540689 1_556
S7 Sn1 2.540689 1_555
S7 Sn2 2.540689 1_555
