# generated using pymatgen
data_Zr4Zn
_symmetry_space_group_name_H-M   'P 1'
_cell_length_a   7.11076054
_cell_length_b   7.11076054
_cell_length_c   7.11076054
_cell_angle_alpha   60.00000000
_cell_angle_beta   60.00000000
_cell_angle_gamma   60.00000000
_symmetry_Int_Tables_number   1
_chemical_formula_structural   Zr4Zn
_chemical_formula_sum   'Zr8 Zn2'
_cell_volume   254.23372691
_cell_formula_units_Z   2
loop_
 _symmetry_equiv_pos_site_id
 _symmetry_equiv_pos_as_xyz
  1  'x, y, z'
loop_
 _atom_site_type_symbol
 _atom_site_label
 _atom_site_symmetry_multiplicity
 _atom_site_fract_x
 _atom_site_fract_y
 _atom_site_fract_z
 _atom_site_occupancy
  Zr  Zr0  1  0.39488900  0.39488900  0.39488900  1
  Zr  Zr1  1  0.39488900  0.39488900  0.81533200  1
  Zr  Zr2  1  0.39488900  0.81533200  0.39488900  1
  Zr  Zr3  1  0.85511100  0.85511100  0.43466800  1
  Zr  Zr4  1  0.85511100  0.85511100  0.85511100  1
  Zr  Zr5  1  0.81533200  0.39488900  0.39488900  1
  Zr  Zr6  1  0.85511100  0.43466800  0.85511100  1
  Zr  Zr7  1  0.43466800  0.85511100  0.85511100  1
  Zn  Zn0  1  0.00000000  0.00000000  0.00000000  1
  Zn  Zn1  1  0.25000000  0.25000000  0.25000000  1
loop_
_geom_bond_atom_site_label_1
_geom_bond_atom_site_label_2
_geom_bond_distance
_geom_bond_site_symmetry_2
Zr0 Zr5 2.989669 1_555
Zr0 Zr2 2.989669 1_555
Zr0 Zr1 2.989669 1_555
Zr0 Zr3 3.577812 1_545
Zr0 Zr6 3.577812 1_455
Zr0 Zr7 3.577812 1_545
Zr0 Zr3 3.577812 1_455
Zr0 Zr6 3.577812 1_554
Zr0 Zr7 3.577812 1_554
Zr1 Zr5 2.989669 1_555
Zr1 Zr2 2.989669 1_555
Zr1 Zr7 3.577806 1_545
Zr1 Zr6 3.577806 1_455
Zr1 Zr4 3.577812 1_545
Zr1 Zr4 3.577812 1_455
Zr1 Zr6 3.577820 1_555
Zr1 Zr7 3.577820 1_555
Zr2 Zr5 2.989669 1_555
Zr2 Zr7 3.577806 1_554
Zr2 Zr3 3.577806 1_455
Zr2 Zr4 3.577812 1_554
Zr2 Zr4 3.577812 1_455
Zr2 Zr3 3.577820 1_555
Zr2 Zr7 3.577820 1_555
Zr3 Zr6 2.989669 1_555
Zr3 Zr7 2.989669 1_555
Zr3 Zr4 2.989669 1_555
Zr3 Zr5 3.577806 1_565
Zr3 Zr5 3.577820 1_555
Zr4 Zr6 2.989669 1_555
Zr4 Zr7 2.989669 1_555
Zr4 Zr5 3.577812 1_556
Zr4 Zr5 3.577812 1_565
Zr5 Zr6 3.577806 1_554
Zr5 Zr6 3.577820 1_555
Zr6 Zr7 2.989669 1_555
Zn0 Zr4 2.523638 1_444
Zn0 Zr7 2.523644 1_544
Zn0 Zr3 2.523644 1_445
Zn0 Zr6 2.523644 1_454
Zn1 Zr0 2.523638 1_555
Zn1 Zr1 2.523644 1_554
Zn1 Zr2 2.523644 1_545
Zn1 Zr5 2.523644 1_455
