# generated using pymatgen
data_CaMg2
_symmetry_space_group_name_H-M   'P 1'
_cell_length_a   6.32002686
_cell_length_b   6.32002686
_cell_length_c   6.32002643
_cell_angle_alpha   58.04557824
_cell_angle_beta   58.04557824
_cell_angle_gamma   58.04557484
_symmetry_Int_Tables_number   1
_chemical_formula_structural   CaMg2
_chemical_formula_sum   'Ca2 Mg4'
_cell_volume   170.50079988
_cell_formula_units_Z   2
loop_
 _symmetry_equiv_pos_site_id
 _symmetry_equiv_pos_as_xyz
  1  'x, y, z'
loop_
 _atom_site_type_symbol
 _atom_site_label
 _atom_site_symmetry_multiplicity
 _atom_site_fract_x
 _atom_site_fract_y
 _atom_site_fract_z
 _atom_site_occupancy
  Ca  Ca0  1  0.87552800  0.87552800  0.87552800  1
  Ca  Ca1  1  0.12447200  0.12447200  0.12447200  1
  Mg  Mg0  1  0.50000000  0.00000000  0.50000000  1
  Mg  Mg1  1  0.00000000  0.50000000  0.50000000  1
  Mg  Mg2  1  0.50000000  0.50000000  0.50000000  1
  Mg  Mg3  1  0.50000000  0.50000000  0.00000000  1
loop_
_geom_bond_atom_site_label_1
_geom_bond_atom_site_label_2
_geom_bond_distance
_geom_bond_site_symmetry_2
Ca0 Mg2 3.602037 1_565
Ca0 Mg2 3.602037 1_655
Ca0 Mg2 3.602037 1_556
Ca0 Mg1 3.636383 1_656
Ca0 Mg0 3.636383 1_566
Ca0 Mg3 3.636383 1_656
Ca0 Mg3 3.636383 1_566
Ca0 Mg1 3.636383 1_665
Ca0 Mg0 3.636383 1_665
Ca0 Mg1 3.727487 1_655
Ca0 Mg0 3.727487 1_565
Ca0 Mg3 3.727487 1_556
Ca0 Ca1 3.780496 1_665
Ca0 Ca1 3.780496 1_656
Ca0 Ca1 3.780496 1_566
Ca0 Ca1 3.909808 1_666
Ca1 Mg2 3.602037 1_455
Ca1 Mg2 3.602037 1_545
Ca1 Mg2 3.602037 1_554
Ca1 Mg0 3.636383 1_554
Ca1 Mg1 3.636383 1_554
Ca1 Mg3 3.636383 1_455
Ca1 Mg3 3.636383 1_545
Ca1 Mg1 3.636383 1_545
Ca1 Mg0 3.636383 1_455
Ca1 Mg0 3.727487 1_555
Ca1 Mg1 3.727487 1_555
Ca1 Mg3 3.727487 1_555
Mg0 Mg1 3.066208 1_645
Mg0 Mg1 3.066208 1_555
Mg0 Mg3 3.066208 1_546
Mg0 Mg3 3.066208 1_555
Mg0 Mg2 3.160013 1_555
Mg0 Mg2 3.160013 1_545
Mg1 Mg3 3.066208 1_555
Mg1 Mg3 3.066208 1_456
Mg1 Mg2 3.160013 1_455
Mg1 Mg2 3.160013 1_555
Mg2 Mg3 3.160013 1_556
Mg2 Mg3 3.160013 1_555
