# generated using pymatgen
data_CaCoNi2O7
_symmetry_space_group_name_H-M   'P 1'
_cell_length_a   14.21547400
_cell_length_b   6.74010300
_cell_length_c   10.91671915
_cell_angle_alpha   76.70268236
_cell_angle_beta   90.00000000
_cell_angle_gamma   90.00000000
_symmetry_Int_Tables_number   1
_chemical_formula_structural   CaCoNi2O7
_chemical_formula_sum   'Ca8 Co8 Ni16 O56'
_cell_volume   1017.92901605
_cell_formula_units_Z   8
loop_
 _symmetry_equiv_pos_site_id
 _symmetry_equiv_pos_as_xyz
  1  'x, y, z'
loop_
 _atom_site_type_symbol
 _atom_site_label
 _atom_site_symmetry_multiplicity
 _atom_site_fract_x
 _atom_site_fract_y
 _atom_site_fract_z
 _atom_site_occupancy
  Ca  Ca0  1  0.50643400  0.90774800  0.73260500  1
  Ca  Ca1  1  0.87404600  0.66485300  0.98231300  1
  Ca  Ca2  1  0.37404600  0.33514700  0.51768700  1
  Ca  Ca3  1  0.12595400  0.33514700  0.01768700  1
  Ca  Ca4  1  0.62595400  0.66485300  0.48231300  1
  Ca  Ca5  1  0.99356600  0.90774800  0.23260500  1
  Ca  Ca6  1  0.49356600  0.09225200  0.26739500  1
  Ca  Ca7  1  0.00643400  0.09225200  0.76739500  1
  Co  Co0  1  0.67815100  0.37647800  0.08332200  1
  Co  Co1  1  0.17815100  0.62352200  0.41667800  1
  Co  Co2  1  0.32184900  0.62352200  0.91667800  1
  Co  Co3  1  0.82184900  0.37647800  0.58332200  1
  Co  Co4  1  0.75522200  0.00983900  0.24234100  1
  Co  Co5  1  0.25522200  0.99016100  0.25765900  1
  Co  Co6  1  0.24477800  0.99016100  0.75765900  1
  Co  Co7  1  0.74477800  0.00983900  0.74234100  1
  Ni  Ni0  1  0.86181600  0.16779400  0.97356700  1
  Ni  Ni1  1  0.01519800  0.60654800  0.67755600  1
  Ni  Ni2  1  0.48480200  0.60654800  0.17755600  1
  Ni  Ni3  1  0.98480200  0.39345200  0.32244400  1
  Ni  Ni4  1  0.70211600  0.49592100  0.80419200  1
  Ni  Ni5  1  0.20211600  0.50407900  0.69580800  1
  Ni  Ni6  1  0.29788400  0.50407900  0.19580800  1
  Ni  Ni7  1  0.79788400  0.49592100  0.30419200  1
  Ni  Ni8  1  0.51519800  0.39345200  0.82244400  1
  Ni  Ni9  1  0.14614900  0.11737100  0.47602500  1
  Ni  Ni10  1  0.64614900  0.88262900  0.02397500  1
  Ni  Ni11  1  0.85385100  0.88262900  0.52397500  1
  Ni  Ni12  1  0.36181600  0.83220600  0.52643300  1
  Ni  Ni13  1  0.63818400  0.16779400  0.47356700  1
  Ni  Ni14  1  0.13818400  0.83220600  0.02643300  1
  Ni  Ni15  1  0.35385100  0.11737100  0.97602500  1
  O  O0  1  0.98266800  0.23557700  0.95282800  1
  O  O1  1  0.48266800  0.76442300  0.54717200  1
  O  O2  1  0.01733200  0.76442300  0.04717200  1
  O  O3  1  0.51733200  0.23557700  0.45282800  1
  O  O4  1  0.83965300  0.99944300  0.86700000  1
  O  O5  1  0.33965300  0.00055700  0.63300000  1
  O  O6  1  0.16034700  0.00055700  0.13300000  1
  O  O7  1  0.66034700  0.99944300  0.36700000  1
  O  O8  1  0.84612400  0.98656500  0.12656500  1
  O  O9  1  0.34612400  0.01343500  0.37343500  1
  O  O10  1  0.15387600  0.01343500  0.87343500  1
  O  O11  1  0.65387600  0.98656500  0.62656500  1
  O  O12  1  0.28391100  0.35608700  0.92747500  1
  O  O13  1  0.78391100  0.64391300  0.57252500  1
  O  O14  1  0.71608900  0.64391300  0.07252500  1
  O  O15  1  0.21608900  0.35608700  0.42747500  1
  O  O16  1  0.35439400  0.02622400  0.14445100  1
  O  O17  1  0.85439400  0.97377600  0.35554900  1
  O  O18  1  0.64560600  0.97377600  0.85554900  1
  O  O19  1  0.14560600  0.02622400  0.64445100  1
  O  O20  1  0.33748500  0.91940200  0.88245800  1
  O  O21  1  0.42668200  0.61390500  0.83270000  1
  O  O22  1  0.83748500  0.08059800  0.61754200  1
  O  O23  1  0.16251500  0.91940200  0.38245800  1
  O  O24  1  0.47058100  0.27271300  0.70341300  1
  O  O25  1  0.97058100  0.72728700  0.79658700  1
  O  O26  1  0.52941900  0.72728700  0.29658700  1
  O  O27  1  0.02941900  0.27271300  0.20341300  1
  O  O28  1  0.47615900  0.19461500  0.95064600  1
  O  O29  1  0.97615900  0.80538500  0.54935400  1
  O  O30  1  0.52384100  0.80538500  0.04935400  1
  O  O31  1  0.02384100  0.19461500  0.45064600  1
  O  O32  1  0.91192400  0.57203600  0.20354200  1
  O  O33  1  0.41192400  0.42796400  0.29645800  1
  O  O34  1  0.08807600  0.42796400  0.79645800  1
  O  O35  1  0.58807600  0.57203600  0.70354200  1
  O  O36  1  0.76118900  0.29622200  0.21400900  1
  O  O37  1  0.26118900  0.70377800  0.28599100  1
  O  O38  1  0.23881100  0.70377800  0.78599100  1
  O  O39  1  0.73881100  0.29622200  0.71400900  1
  O  O40  1  0.71942100  0.38171000  0.46085800  1
  O  O41  1  0.21942100  0.61829000  0.03914200  1
  O  O42  1  0.28057900  0.61829000  0.53914200  1
  O  O43  1  0.78057900  0.38171000  0.96085800  1
  O  O44  1  0.72647700  0.73594400  0.27188900  1
  O  O45  1  0.22647700  0.26405600  0.22811100  1
  O  O46  1  0.27352300  0.26405600  0.72811100  1
  O  O47  1  0.77352300  0.73594400  0.77188900  1
  O  O48  1  0.88664600  0.45411600  0.42776000  1
  O  O49  1  0.38664600  0.54588400  0.07224000  1
  O  O50  1  0.11335400  0.54588400  0.57224000  1
  O  O51  1  0.61335400  0.45411600  0.92776000  1
  O  O52  1  0.07331800  0.61390500  0.33270000  1
  O  O53  1  0.57331800  0.38609500  0.16730000  1
  O  O54  1  0.92668200  0.38609500  0.66730000  1
  O  O55  1  0.66251500  0.08059800  0.11754200  1
loop_
_geom_bond_atom_site_label_1
_geom_bond_atom_site_label_2
_geom_bond_distance
_geom_bond_site_symmetry_2
Ca0 O21 2.325145 1_555
Ca0 O11 2.394247 1_555
Ca0 O1 2.458614 1_555
Ca0 O24 2.460045 1_565
Ca0 O18 2.487614 1_555
Ca0 O5 2.623317 1_565
Ca0 O35 2.626368 1_555
Ca0 O20 2.917118 1_555
Ca1 O2 2.306335 1_656
Ca1 O4 2.367191 1_555
Ca1 O43 2.380735 1_555
Ca1 O25 2.403875 1_555
Ca1 O32 2.412254 1_556
Ca1 O14 2.442913 1_556
Ca1 O47 2.653696 1_555
Ca1 O8 2.984966 1_556
Ca2 O3 2.306335 1_555
Ca2 O5 2.367191 1_555
Ca2 O42 2.380735 1_555
Ca2 O24 2.403875 1_555
Ca2 O33 2.412254 1_555
Ca2 O15 2.442913 1_555
Ca2 O46 2.653696 1_555
Ca2 O9 2.984966 1_555
Ca3 O0 2.306335 1_454
Ca3 O6 2.367191 1_555
Ca3 O41 2.380735 1_555
Ca3 O27 2.403875 1_555
Ca3 O34 2.412254 1_554
Ca3 O12 2.442913 1_554
Ca3 O45 2.653696 1_555
Ca3 O10 2.984966 1_554
Ca4 O1 2.306335 1_555
Ca4 O7 2.367191 1_555
Ca4 O40 2.380735 1_555
Ca4 O26 2.403875 1_555
Ca4 O35 2.412254 1_555
Ca4 O13 2.442913 1_555
Ca4 O44 2.653696 1_555
Ca4 O11 2.984966 1_555
Ca5 O52 2.325145 1_655
Ca5 O8 2.394247 1_555
Ca5 O2 2.458614 1_655
Ca5 O27 2.460045 1_665
Ca5 O17 2.487614 1_555
Ca5 O6 2.623317 1_665
Ca5 O32 2.626368 1_555
Ca5 O23 2.917118 1_655
Ca6 O53 2.325145 1_555
Ca6 O9 2.394247 1_555
Ca6 O3 2.458614 1_555
Ca6 O26 2.460045 1_545
Ca6 O16 2.487614 1_555
Ca6 O7 2.623317 1_545
Ca6 O33 2.626368 1_555
Ca6 O55 2.917118 1_555
Ca7 O54 2.325145 1_455
Ca7 O10 2.394247 1_555
Ca7 O0 2.458614 1_455
Ca7 O25 2.460045 1_445
Ca7 O19 2.487614 1_555
Ca7 O4 2.623317 1_445
Ca7 O34 2.626368 1_555
Ca7 O22 2.917118 1_455
Co0 O53 1.758648 1_555
Co0 O36 1.834776 1_555
Co0 O14 1.859075 1_555
Co0 O51 1.896701 1_554
Co0 O55 1.955335 1_555
Co0 O43 1.971545 1_554
Co1 O52 1.758648 1_555
Co1 O37 1.834776 1_555
Co1 O15 1.859075 1_555
Co1 O50 1.896701 1_555
Co1 O23 1.955335 1_555
Co1 O42 1.971545 1_555
Co2 O21 1.758648 1_555
Co2 O38 1.834776 1_555
Co2 O12 1.859075 1_555
Co2 O49 1.896701 1_556
Co2 O20 1.955335 1_555
Co2 O41 1.971545 1_556
Co3 O54 1.758648 1_555
Co3 O39 1.834776 1_555
Co3 O13 1.859075 1_555
Co3 O48 1.896701 1_555
Co3 O22 1.955335 1_555
Co3 O40 1.971545 1_555
Co4 O8 1.839310 1_545
Co4 O44 1.845294 1_545
Co4 O17 1.853569 1_545
Co4 O55 1.876559 1_555
Co4 O36 1.885231 1_555
Co4 O7 1.905775 1_545
Co5 O9 1.839310 1_565
Co5 O45 1.845294 1_565
Co5 O16 1.853569 1_565
Co5 O23 1.876559 1_555
Co5 O37 1.885231 1_555
Co5 O6 1.905775 1_565
Co6 O10 1.839310 1_565
Co6 O46 1.845294 1_565
Co6 O19 1.853569 1_565
Co6 O20 1.876559 1_555
Co6 O38 1.885231 1_555
Co6 O5 1.905775 1_565
Co7 O11 1.839310 1_545
Co7 O47 1.845294 1_545
Co7 O18 1.853569 1_545
Co7 O22 1.876559 1_555
Co7 O39 1.885231 1_555
Co7 O4 1.905775 1_545
Ni0 O0 1.778712 1_555
Ni0 O43 1.827478 1_555
Ni0 O4 1.829608 1_545
Ni0 O8 1.842012 1_546
Ni1 O29 1.788849 1_455
Ni1 O25 1.799859 1_455
Ni1 O34 1.867688 1_555
Ni1 O50 1.911076 1_555
Ni1 O54 1.969823 1_455
Ni2 O30 1.788849 1_555
Ni2 O26 1.799859 1_555
Ni2 O33 1.867688 1_555
Ni2 O49 1.911076 1_555
Ni2 O53 1.969823 1_555
Ni3 O31 1.788849 1_655
Ni3 O27 1.799859 1_655
Ni3 O32 1.867688 1_555
Ni3 O48 1.911076 1_555
Ni3 O52 1.969823 1_655
Ni4 O51 1.821087 1_555
Ni4 O47 1.873374 1_555
Ni4 O39 1.913796 1_555
Ni4 O35 1.959401 1_555
Ni4 O43 2.038651 1_555
Ni5 O50 1.821087 1_555
Ni5 O46 1.873374 1_555
Ni5 O38 1.913796 1_555
Ni5 O34 1.959401 1_555
Ni5 O42 2.038651 1_555
Ni6 O49 1.821087 1_555
Ni6 O45 1.873374 1_555
Ni6 O37 1.913796 1_555
Ni6 O33 1.959401 1_555
Ni6 O41 2.038651 1_555
Ni7 O48 1.821087 1_555
Ni7 O44 1.873374 1_555
Ni7 O36 1.913796 1_555
Ni7 O32 1.959401 1_555
Ni7 O40 2.038651 1_555
Ni8 O28 1.788849 1_555
Ni8 O24 1.799859 1_555
Ni8 O35 1.867688 1_555
Ni8 O51 1.911076 1_555
Ni8 O21 1.969823 1_555
Ni9 O19 1.799593 1_555
Ni9 O31 1.817808 1_555
Ni9 O15 1.861695 1_555
Ni9 O23 1.872133 1_545
Ni10 O18 1.799593 1_554
Ni10 O30 1.817808 1_555
Ni10 O14 1.861695 1_555
Ni10 O55 1.872133 1_565
Ni11 O17 1.799593 1_555
Ni11 O29 1.817808 1_555
Ni11 O13 1.861695 1_555
Ni11 O22 1.872133 1_565
Ni12 O1 1.778712 1_555
Ni12 O42 1.827478 1_555
Ni12 O5 1.829608 1_565
Ni12 O9 1.842012 1_565
Ni13 O3 1.778712 1_555
Ni13 O40 1.827478 1_555
Ni13 O7 1.829608 1_545
Ni13 O11 1.842012 1_545
Ni14 O2 1.778712 1_555
Ni14 O41 1.827478 1_555
Ni14 O6 1.829608 1_565
Ni14 O10 1.842012 1_564
Ni15 O16 1.799593 1_556
Ni15 O28 1.817808 1_555
Ni15 O12 1.861695 1_555
Ni15 O20 1.872133 1_545
