# generated using pymatgen
data_Li4CrFe3Cu2(PO4)6
_symmetry_space_group_name_H-M   'P 1'
_cell_length_a   8.58742400
_cell_length_b   8.65575937
_cell_length_c   8.66300790
_cell_angle_alpha   61.26686503
_cell_angle_beta   61.34677604
_cell_angle_gamma   61.37858266
_symmetry_Int_Tables_number   1
_chemical_formula_structural   Li4CrFe3Cu2(PO4)6
_chemical_formula_sum   'Li4 Cr1 Fe3 Cu2 P6 O24'
_cell_volume   468.94180451
_cell_formula_units_Z   1
loop_
 _symmetry_equiv_pos_site_id
 _symmetry_equiv_pos_as_xyz
  1  'x, y, z'
loop_
 _atom_site_type_symbol
 _atom_site_label
 _atom_site_symmetry_multiplicity
 _atom_site_fract_x
 _atom_site_fract_y
 _atom_site_fract_z
 _atom_site_occupancy
  Li  Li0  1  0.74983900  0.15121700  0.34932100  1
  Li  Li1  1  0.25054400  0.84436000  0.65211500  1
  Li  Li2  1  0.65199800  0.25040400  0.84546700  1
  Li  Li3  1  0.84418200  0.65102700  0.25100500  1
  Cr  Cr0  1  0.85509100  0.85180200  0.85627300  1
  Fe  Fe0  1  0.14642600  0.14243300  0.13821100  1
  Fe  Fe1  1  0.35282400  0.36127000  0.35654000  1
  Fe  Fe2  1  0.64766500  0.64582900  0.65133000  1
  Cu  Cu0  1  0.02097200  0.00182300  0.99154800  1
  Cu  Cu1  1  0.48018600  0.50997700  0.49900400  1
  P  P0  1  0.04756500  0.74914100  0.45622500  1
  P  P1  1  0.45429300  0.04582400  0.74957100  1
  P  P2  1  0.74954400  0.45404700  0.04792300  1
  P  P3  1  0.24942000  0.53943500  0.95967300  1
  P  P4  1  0.54477500  0.96005600  0.25109000  1
  P  P5  1  0.95433300  0.24746100  0.53914400  1
  O  O0  1  0.12364100  0.29364200  0.49710900  1
  O  O1  1  0.30402700  0.50664300  0.11848000  1
  O  O2  1  0.04511600  0.92104300  0.27615600  1
  O  O3  1  0.52944600  0.11649500  0.29959200  1
  O  O4  1  0.01870100  0.80049700  0.61859500  1
  O  O5  1  0.23827400  0.59146300  0.43063400  1
  O  O6  1  0.26383100  0.06855200  0.90797500  1
  O  O7  1  0.45355600  0.22603500  0.57779400  1
  O  O8  1  0.19330700  0.38136800  0.99339200  1
  O  O9  1  0.59229000  0.42806100  0.24030700  1
  O  O10  1  0.08795600  0.73374900  0.93521000  1
  O  O11  1  0.37599900  0.00284900  0.20412200  1
  O  O12  1  0.61502500  0.01293700  0.80787100  1
  O  O13  1  0.90687900  0.26146200  0.07169000  1
  O  O14  1  0.41097100  0.56425100  0.76656400  1
  O  O15  1  0.80468900  0.61362400  0.01860700  1
  O  O16  1  0.56592400  0.76718700  0.41248200  1
  O  O17  1  0.73610100  0.93033600  0.08766100  1
  O  O18  1  0.76390600  0.41003900  0.57037100  1
  O  O19  1  0.97027500  0.19839900  0.38311400  1
  O  O20  1  0.48605700  0.88310800  0.69686100  1
  O  O21  1  0.93451200  0.08519400  0.73254200  1
  O  O22  1  0.69263100  0.48570300  0.88889500  1
  O  O23  1  0.88722700  0.68825400  0.49253400  1
loop_
_geom_bond_atom_site_label_1
_geom_bond_atom_site_label_2
_geom_bond_distance
_geom_bond_site_symmetry_2
Li0 O9 2.099537 1_555
Li0 O13 2.104647 1_555
Li0 O19 2.285367 1_555
Li0 O3 2.304179 1_555
Li0 O2 2.373530 1_645
Li0 O7 2.373760 1_555
Li1 O14 2.134962 1_555
Li1 O10 2.149400 1_555
Li1 O4 2.361547 1_555
Li1 O20 2.424819 1_555
Li1 O16 2.509753 1_555
Li1 O21 2.521768 1_465
Li2 O18 2.102852 1_555
Li2 O21 2.152434 1_555
Li2 O12 2.408286 1_555
Li2 O22 2.440258 1_555
Li2 O14 2.513115 1_555
Li2 O17 2.558639 1_546
Li3 O16 2.126620 1_555
Li3 O17 2.128218 1_555
Li3 O15 2.379021 1_555
Li3 O23 2.474380 1_555
Li3 O10 2.537645 1_654
Li3 O18 2.545719 1_555
Cr0 O12 1.970567 1_565
Cr0 O15 1.974560 1_556
Cr0 O4 1.979337 1_655
Cr0 O10 2.047575 1_655
Cr0 O17 2.050519 1_556
Cr0 O21 2.057230 1_565
Fe0 O11 1.951065 1_555
Fe0 O8 1.957541 1_554
Fe0 O6 2.020835 1_554
Fe0 O13 2.039793 1_455
Fe0 O19 2.057279 1_455
Fe0 O2 2.062901 1_545
Fe1 O0 1.954202 1_555
Fe1 O1 1.959765 1_555
Fe1 O5 2.023871 1_555
Fe1 O9 2.042156 1_555
Fe1 O3 2.059488 1_555
Fe1 O7 2.062797 1_555
Fe2 O23 1.945110 1_555
Fe2 O22 1.952555 1_555
Fe2 O20 1.955249 1_555
Fe2 O14 2.092357 1_555
Fe2 O18 2.099238 1_555
Fe2 O16 2.115239 1_555
Cu0 O6 2.123954 1_555
Cu0 O13 2.287125 1_456
Cu0 O2 2.303198 1_546
Cu0 O10 2.343957 1_545
Cu0 O21 2.373621 1_455
Cu0 O17 2.462120 1_446
Cu1 O5 2.130367 1_555
Cu1 O9 2.292776 1_555
Cu1 O7 2.309655 1_555
Cu1 O14 2.324804 1_555
Cu1 O16 2.344625 1_555
Cu1 O18 2.444977 1_555
O0 P5 1.521633 1_455
O1 P3 1.519498 1_554
O2 P0 1.554883 1_555
O3 P4 1.533190 1_545
O4 P0 1.548823 1_555
O5 P0 1.547673 1_555
O6 P1 1.547822 1_555
O7 P1 1.554176 1_555
O8 P3 1.517182 1_555
O9 P2 1.556928 1_555
O10 P3 1.581522 1_555
O11 P4 1.519768 1_545
O12 P1 1.547628 1_555
O13 P2 1.557468 1_555
O14 P3 1.575962 1_555
O15 P2 1.539700 1_555
O16 P4 1.575967 1_555
O17 P4 1.576237 1_555
O18 P5 1.569947 1_555
O19 P5 1.531302 1_555
O20 P1 1.548361 1_565
O21 P5 1.581697 1_555
O22 P2 1.538301 1_556
O23 P0 1.546931 1_655
