# generated using pymatgen
data_Cd3InAu12
_symmetry_space_group_name_H-M   'P 1'
_cell_length_a   5.83773565
_cell_length_b   5.83773565
_cell_length_c   9.84588199
_cell_angle_alpha   90.00000000
_cell_angle_beta   90.00000000
_cell_angle_gamma   120.00000560
_symmetry_Int_Tables_number   1
_chemical_formula_structural   Cd3InAu12
_chemical_formula_sum   'Cd3 In1 Au12'
_cell_volume   290.58559658
_cell_formula_units_Z   1
loop_
 _symmetry_equiv_pos_site_id
 _symmetry_equiv_pos_as_xyz
  1  'x, y, z'
loop_
 _atom_site_type_symbol
 _atom_site_label
 _atom_site_symmetry_multiplicity
 _atom_site_fract_x
 _atom_site_fract_y
 _atom_site_fract_z
 _atom_site_occupancy
  Cd  Cd0  1  0.33333300  0.66666700  -0.00000000  1
  Cd  Cd1  1  0.00000000  -0.00000000  0.75201766  1
  Cd  Cd2  1  0.00000000  -0.00000000  0.24798234  1
  In  In0  1  0.66666700  0.33333300  0.50000000  1
  Au  Au0  1  0.16712521  0.83287479  0.50000000  1
  Au  Au1  1  0.16712521  0.33425042  0.50000000  1
  Au  Au2  1  0.66574958  0.83287479  0.50000000  1
  Au  Au3  1  0.83264257  0.16735743  -0.00000000  1
  Au  Au4  1  0.83264257  0.66528613  -0.00000000  1
  Au  Au5  1  0.33471387  0.16735743  -0.00000000  1
  Au  Au6  1  0.00013889  0.50006894  0.75146522  1
  Au  Au7  1  0.49993106  0.50006894  0.75146522  1
  Au  Au8  1  0.49993106  0.99986111  0.75146522  1
  Au  Au9  1  0.00013889  0.50006894  0.24853478  1
  Au  Au10  1  0.49993106  0.50006894  0.24853478  1
  Au  Au11  1  0.49993106  0.99986111  0.24853478  1
loop_
_geom_bond_atom_site_label_1
_geom_bond_atom_site_label_2
_geom_bond_distance
_geom_bond_site_symmetry_2
Au0 In0 2.918871 1_455
Au0 In0 2.918871 1_565
Au0 Cd1 3.002100 1_565
Au0 Cd2 3.002100 1_565
Au1 In0 2.918869 1_455
Au1 In0 2.918874 1_555
Au1 Cd2 3.002100 1_555
Au1 Cd1 3.002100 1_555
Au2 In0 2.918869 1_565
Au2 In0 2.918874 1_555
Au2 Cd2 3.002100 1_665
Au2 Cd1 3.002100 1_665
Au3 Cd0 2.918876 1_545
Au3 Cd0 2.918876 1_655
Au3 Cd1 2.970682 1_654
Au3 Cd2 2.970682 1_655
Au4 Cd0 2.918876 1_655
Au4 Cd0 2.918876 1_555
Au4 Cd1 2.970679 1_664
Au4 Cd2 2.970679 1_665
Au5 Cd0 2.918876 1_545
Au5 Cd0 2.918876 1_555
Au5 Cd1 2.970679 1_554
Au5 Cd2 2.970679 1_555
Au6 Cd1 2.918870 1_555
Au6 Cd1 2.918876 1_565
Au6 Cd0 2.970788 1_556
Au6 In0 2.995389 1_455
Au7 Cd1 2.918873 1_555
Au7 Cd1 2.918873 1_665
Au7 Cd0 2.970794 1_556
Au7 In0 2.995389 1_555
Au8 Cd1 2.918870 1_665
Au8 Cd1 2.918876 1_565
Au8 Cd0 2.970788 1_556
Au8 In0 2.995389 1_565
Au9 Cd2 2.918870 1_555
Au9 Cd2 2.918876 1_565
Au9 Cd0 2.970788 1_555
Au9 In0 2.995389 1_455
Au10 Cd2 2.918873 1_665
Au10 Cd2 2.918873 1_555
Au10 Cd0 2.970794 1_555
Au10 In0 2.995389 1_555
Au11 Cd2 2.918870 1_665
Au11 Cd2 2.918876 1_565
Au11 Cd0 2.970788 1_555
Au11 In0 2.995389 1_565
