# generated using pymatgen
data_Pr3Al11
_symmetry_space_group_name_H-M   'P 1'
_cell_length_a   4.38151958
_cell_length_b   8.49886426
_cell_length_c   8.49886426
_cell_angle_alpha   72.22565823
_cell_angle_beta   75.06216801
_cell_angle_gamma   75.06216801
_symmetry_Int_Tables_number   1
_chemical_formula_structural   Pr3Al11
_chemical_formula_sum   'Pr3 Al11'
_cell_volume   285.61999997
_cell_formula_units_Z   1
loop_
 _symmetry_equiv_pos_site_id
 _symmetry_equiv_pos_as_xyz
  1  'x, y, z'
loop_
 _atom_site_type_symbol
 _atom_site_label
 _atom_site_symmetry_multiplicity
 _atom_site_fract_x
 _atom_site_fract_y
 _atom_site_fract_z
 _atom_site_occupancy
  Pr  Pr0  1  -0.00000000  -0.00000000  0.00000000  1
  Pr  Pr1  1  0.31735934  0.68264066  0.68264066  1
  Pr  Pr2  1  0.68264066  0.31735934  0.31735934  1
  Al  Al0  1  -0.00000000  0.50000000  0.50000000  1
  Al  Al1  1  0.50000000  0.28367289  0.71632711  1
  Al  Al2  1  0.50000000  0.71632711  0.28367289  1
  Al  Al3  1  0.33383648  0.29840778  0.03392125  1
  Al  Al4  1  0.66616352  0.70159222  0.96607875  1
  Al  Al5  1  0.33383648  0.03392125  0.29840778  1
  Al  Al6  1  0.66616352  0.96607875  0.70159222  1
  Al  Al7  1  0.13597071  0.58989132  0.13816727  1
  Al  Al8  1  0.86402929  0.41010868  0.86183273  1
  Al  Al9  1  0.13597071  0.13816727  0.58989132  1
  Al  Al10  1  0.86402929  0.86183273  0.41010868  1
loop_
_geom_bond_atom_site_label_1
_geom_bond_atom_site_label_2
_geom_bond_distance
_geom_bond_site_symmetry_2
Al0 Al9 2.872458 1_555
Al0 Al7 2.872458 1_555
Al0 Al10 2.872458 1_455
Al0 Al8 2.872458 1_455
Al0 Al2 3.081575 1_455
Al0 Al2 3.081575 1_555
Al0 Al1 3.081575 1_455
Al0 Al1 3.081575 1_555
Al0 Pr1 3.232488 1_555
Al0 Pr2 3.232488 1_455
Al0 Pr1 3.232489 1_455
Al0 Pr2 3.232489 1_555
Al1 Al3 2.641518 1_556
Al1 Al6 2.641518 1_545
Al1 Al8 2.817755 1_555
Al1 Al9 2.817755 1_555
Al1 Al8 2.817756 1_455
Al1 Al9 2.817756 1_655
Al1 Pr1 3.216555 1_555
Al1 Pr2 3.216555 1_555
Al2 Al5 2.641518 1_565
Al2 Al4 2.641518 1_554
Al2 Al7 2.817755 1_555
Al2 Al7 2.817756 1_655
Al2 Pr1 3.216555 1_555
Al2 Pr2 3.216555 1_555
Al3 Al8 2.640929 1_554
Al3 Al8 2.640937 1_454
Al3 Al5 2.649646 1_555
Al3 Al7 2.740487 1_555
Al3 Pr2 3.228961 1_555
Al3 Pr2 3.228967 1_455
Al3 Pr0 3.351238 1_655
Al3 Pr0 3.351243 1_555
Al4 Al7 2.640929 1_556
Al4 Al7 2.640937 1_656
Al4 Al6 2.649646 1_555
Al4 Al8 2.740487 1_555
Al4 Pr1 3.228961 1_555
Al4 Pr1 3.228967 1_655
Al4 Pr0 3.351238 1_566
Al4 Pr0 3.351243 1_666
Al5 Al9 2.740487 1_555
Al5 Pr2 3.228961 1_555
Al5 Pr2 3.228967 1_455
Al5 Pr0 3.351238 1_655
Al5 Pr0 3.351243 1_555
Al6 Al9 2.640929 1_565
Al6 Al9 2.640937 1_665
Al6 Pr1 3.228961 1_555
Al6 Pr1 3.228967 1_655
Al6 Pr0 3.351238 1_566
Al6 Pr0 3.351243 1_666
Al7 Pr2 3.207513 1_455
Al7 Pr2 3.207513 1_555
Al7 Pr0 3.267040 1_565
Al8 Pr1 3.207513 1_655
Al8 Pr1 3.207513 1_555
Al8 Pr0 3.267040 1_656
Al9 Pr2 3.207513 1_455
Al9 Pr2 3.207513 1_555
Al9 Pr0 3.267040 1_556
Al10 Al5 2.640929 1_565
Al10 Al5 2.640937 1_665
Al10 Al6 2.740487 1_555
Al10 Al2 2.817755 1_555
Al10 Al2 2.817756 1_655
Al10 Pr1 3.207513 1_655
Al10 Pr1 3.207513 1_555
Al10 Pr0 3.267040 1_665
