# generated using pymatgen
data_Ca3Ho
_symmetry_space_group_name_H-M   'P 1'
_cell_length_a   5.34614700
_cell_length_b   5.34614700
_cell_length_c   5.34614700
_cell_angle_alpha   90.00000000
_cell_angle_beta   90.00000000
_cell_angle_gamma   90.00000000
_symmetry_Int_Tables_number   1
_chemical_formula_structural   Ca3Ho
_chemical_formula_sum   'Ca3 Ho1'
_cell_volume   152.79976574
_cell_formula_units_Z   1
loop_
 _symmetry_equiv_pos_site_id
 _symmetry_equiv_pos_as_xyz
  1  'x, y, z'
loop_
 _atom_site_type_symbol
 _atom_site_label
 _atom_site_symmetry_multiplicity
 _atom_site_fract_x
 _atom_site_fract_y
 _atom_site_fract_z
 _atom_site_occupancy
  Ca  Ca0  1  0.50000000  0.00000000  0.50000000  1
  Ca  Ca1  1  0.50000000  0.50000000  0.00000000  1
  Ca  Ca2  1  0.00000000  0.50000000  0.50000000  1
  Ho  Ho0  1  0.00000000  0.00000000  0.00000000  1
loop_
_geom_bond_atom_site_label_1
_geom_bond_atom_site_label_2
_geom_bond_distance
_geom_bond_site_symmetry_2
Ca0 Ca2 3.780297 1_555
Ca0 Ho0 3.780297 1_555
Ca0 Ca1 3.780297 1_546
Ca0 Ho0 3.780297 1_556
Ca0 Ca2 3.780297 1_545
Ca0 Ca2 3.780297 1_655
Ca0 Ca1 3.780297 1_556
Ca0 Ho0 3.780297 1_656
Ca0 Ho0 3.780297 1_655
Ca0 Ca1 3.780297 1_545
Ca0 Ca1 3.780297 1_555
Ca0 Ca2 3.780297 1_645
Ca1 Ho0 3.780297 1_665
Ca1 Ca2 3.780297 1_555
Ca1 Ho0 3.780297 1_555
Ca1 Ca2 3.780297 1_655
Ca1 Ca2 3.780297 1_554
Ca1 Ho0 3.780297 1_655
Ca1 Ca2 3.780297 1_654
Ca1 Ho0 3.780297 1_565
Ca2 Ho0 3.780297 1_555
Ca2 Ho0 3.780297 1_566
Ca2 Ho0 3.780297 1_556
Ca2 Ho0 3.780297 1_565
