# generated using pymatgen
data_KCaMg6
_symmetry_space_group_name_H-M   'P 1'
_cell_length_a   5.43604500
_cell_length_b   6.91664100
_cell_length_c   12.29456600
_cell_angle_alpha   90.00000000
_cell_angle_beta   90.00000000
_cell_angle_gamma   90.00000000
_symmetry_Int_Tables_number   1
_chemical_formula_structural   KCaMg6
_chemical_formula_sum   'K2 Ca2 Mg12'
_cell_volume   462.26549832
_cell_formula_units_Z   2
loop_
 _symmetry_equiv_pos_site_id
 _symmetry_equiv_pos_as_xyz
  1  'x, y, z'
loop_
 _atom_site_type_symbol
 _atom_site_label
 _atom_site_symmetry_multiplicity
 _atom_site_fract_x
 _atom_site_fract_y
 _atom_site_fract_z
 _atom_site_occupancy
  K  K0  1  0.50000000  0.50000000  0.17067900  1
  K  K1  1  0.50000000  0.00000000  0.67067900  1
  Ca  Ca0  1  0.50000000  0.00000000  0.16740200  1
  Ca  Ca1  1  0.50000000  0.50000000  0.66740200  1
  Mg  Mg0  1  0.50000000  0.24810300  0.42102100  1
  Mg  Mg1  1  0.50000000  0.75189700  0.42102100  1
  Mg  Mg2  1  0.00000000  0.76131400  0.06559600  1
  Mg  Mg3  1  0.00000000  0.23868600  0.06559600  1
  Mg  Mg4  1  0.00000000  0.00000000  0.34001600  1
  Mg  Mg5  1  0.00000000  0.50000000  0.34866400  1
  Mg  Mg6  1  0.50000000  0.74810300  0.92102100  1
  Mg  Mg7  1  0.50000000  0.25189700  0.92102100  1
  Mg  Mg8  1  0.00000000  0.26131400  0.56559600  1
  Mg  Mg9  1  0.00000000  0.73868600  0.56559600  1
  Mg  Mg10  1  0.00000000  0.50000000  0.84001600  1
  Mg  Mg11  1  0.00000000  0.00000000  0.84866400  1
loop_
_geom_bond_atom_site_label_1
_geom_bond_atom_site_label_2
_geom_bond_distance
_geom_bond_site_symmetry_2
K0 Mg5 3.489424 1_655
K0 Mg5 3.489424 1_555
K0 Mg3 3.510489 1_555
K0 Mg2 3.510489 1_655
K0 Mg3 3.510489 1_655
K0 Mg2 3.510489 1_555
K0 Mg6 3.516566 1_554
K0 Mg7 3.516566 1_554
K0 Mg0 3.536761 1_555
K0 Mg1 3.536761 1_555
K1 Mg11 3.489424 1_555
K1 Mg11 3.489424 1_655
K1 Mg8 3.510489 1_555
K1 Mg8 3.510489 1_655
K1 Mg9 3.510489 1_645
K1 Mg9 3.510489 1_545
K1 Mg1 3.516566 1_545
K1 Mg0 3.516566 1_555
K1 Mg7 3.536761 1_555
K1 Mg6 3.536761 1_545
Ca0 Mg2 3.417571 1_645
Ca0 Mg2 3.417571 1_545
Ca0 Mg3 3.417571 1_655
Ca0 Mg3 3.417571 1_555
Ca0 Mg4 3.448397 1_655
Ca0 Mg4 3.448397 1_555
Ca0 K0 3.458555 1_555
Ca0 K0 3.458555 1_545
Ca0 Mg7 3.494464 1_554
Ca0 Mg6 3.494464 1_544
Ca0 Mg1 3.559152 1_545
Ca0 Mg0 3.559152 1_555
Ca1 Mg8 3.417571 1_655
Ca1 Mg9 3.417571 1_555
Ca1 Mg8 3.417571 1_555
Ca1 Mg9 3.417571 1_655
Ca1 Mg10 3.448397 1_555
Ca1 Mg10 3.448397 1_655
Ca1 K1 3.458555 1_555
Ca1 K1 3.458555 1_565
Ca1 Mg0 3.494464 1_555
Ca1 Mg1 3.494464 1_555
Ca1 Mg6 3.559152 1_555
Ca1 Mg7 3.559152 1_555
Mg0 Mg8 3.248916 1_555
Mg0 Mg8 3.248916 1_655
Mg0 Mg5 3.348817 1_555
Mg0 Mg5 3.348817 1_655
Mg0 Mg4 3.365159 1_555
Mg0 Mg4 3.365159 1_655
Mg0 Mg1 3.432079 1_545
Mg0 Mg1 3.484562 1_555
Mg1 Mg9 3.248916 1_655
Mg1 Mg9 3.248916 1_555
Mg1 Mg5 3.348817 1_555
Mg1 Mg5 3.348817 1_655
Mg1 Mg4 3.365159 1_665
Mg1 Mg4 3.365159 1_565
Mg2 Mg6 3.248916 1_554
Mg2 Mg6 3.248916 1_454
Mg2 Mg3 3.301811 1_565
Mg3 Mg7 3.248916 1_454
Mg3 Mg7 3.248916 1_554
Mg4 Mg9 3.310369 1_545
Mg4 Mg8 3.310369 1_555
Mg4 Mg5 3.459955 1_555
Mg4 Mg5 3.459955 1_545
Mg5 Mg9 3.136691 1_555
Mg5 Mg8 3.136691 1_555
Mg6 Mg7 3.432079 1_555
Mg6 Mg7 3.484562 1_565
Mg8 Mg9 3.301811 1_555
Mg10 Mg2 3.310369 1_556
Mg10 Mg3 3.310369 1_556
Mg10 Mg6 3.365159 1_455
Mg10 Mg6 3.365159 1_555
Mg10 Mg7 3.365159 1_455
Mg10 Mg7 3.365159 1_555
Mg10 Mg11 3.459955 1_565
Mg10 Mg11 3.459955 1_555
Mg11 Mg2 3.136691 1_546
Mg11 Mg3 3.136691 1_556
Mg11 Mg7 3.348817 1_455
Mg11 Mg7 3.348817 1_555
Mg11 Mg6 3.348817 1_445
Mg11 Mg6 3.348817 1_545
