# generated using pymatgen
data_Cu2SiP4
_symmetry_space_group_name_H-M   'P 1'
_cell_length_a   4.94244600
_cell_length_b   9.82954009
_cell_length_c   9.82954009
_cell_angle_alpha   86.37615427
_cell_angle_beta   75.43916612
_cell_angle_gamma   75.43916612
_symmetry_Int_Tables_number   1
_chemical_formula_structural   Cu2SiP4
_chemical_formula_sum   'Cu8 Si4 P16'
_cell_volume   447.35519621
_cell_formula_units_Z   4
loop_
 _symmetry_equiv_pos_site_id
 _symmetry_equiv_pos_as_xyz
  1  'x, y, z'
loop_
 _atom_site_type_symbol
 _atom_site_label
 _atom_site_symmetry_multiplicity
 _atom_site_fract_x
 _atom_site_fract_y
 _atom_site_fract_z
 _atom_site_occupancy
  Cu  Cu0  1  0.74085500  0.13340300  0.60008300  1
  Cu  Cu1  1  0.47434200  0.86659700  0.39991700  1
  Cu  Cu2  1  0.59093900  0.89991700  0.63340300  1
  Cu  Cu3  1  0.50914500  0.36659700  0.89991700  1
  Cu  Cu4  1  0.12425800  0.10008300  0.36659700  1
  Cu  Cu5  1  0.77565800  0.63340300  0.10008300  1
  Cu  Cu6  1  0.65906100  0.60008300  0.86659700  1
  Cu  Cu7  1  0.12574200  0.39991700  0.13340300  1
  Si  Si0  1  0.12500000  0.25000000  0.75000000  1
  Si  Si1  1  0.12500000  0.75000000  0.25000000  1
  Si  Si2  1  0.12500000  0.75000000  0.75000000  1
  Si  Si3  1  0.62500000  0.25000000  0.25000000  1
  P  P0  1  0.51055900  0.68622200  0.56260500  1
  P  P1  1  0.75938700  0.31377800  0.43739500  1
  P  P2  1  0.32316400  0.93739500  0.18622200  1
  P  P3  1  0.73944100  0.81377800  0.93739500  1
  P  P4  1  0.44678200  0.06260500  0.81377800  1
  P  P5  1  0.49061300  0.18622200  0.06260500  1
  P  P6  1  0.92683600  0.56260500  0.31377800  1
  P  P7  1  0.80321800  0.43739500  0.68622200  1
  P  P8  1  0.29295300  0.87233700  0.88438600  1
  P  P9  1  0.04967600  0.12766300  0.11561400  1
  P  P10  1  0.42733900  0.61561400  0.37233700  1
  P  P11  1  0.95704700  0.62766300  0.61561400  1
  P  P12  1  0.41529000  0.38438600  0.62766300  1
  P  P13  1  0.20032400  0.37233700  0.38438600  1
  P  P14  1  0.82266100  0.88438600  0.12766300  1
  P  P15  1  0.83471000  0.11561400  0.87233700  1
loop_
_geom_bond_atom_site_label_1
_geom_bond_atom_site_label_2
_geom_bond_distance
_geom_bond_site_symmetry_2
Cu0 P1 2.314908 1_555
Cu0 P4 2.407839 1_555
Cu0 Cu2 2.561560 1_545
Cu0 Cu4 2.561562 1_655
Cu0 P12 2.572579 1_555
Cu0 P15 2.816325 1_555
Cu1 P0 2.314907 1_555
Cu1 P2 2.407843 1_555
Cu1 Cu2 2.561562 1_555
Cu1 Cu4 2.561565 1_565
Cu1 P10 2.572581 1_555
Cu1 P14 2.816323 1_555
Cu2 P4 2.314907 1_565
Cu2 P0 2.407843 1_555
Cu2 P8 2.572581 1_555
Cu2 P11 2.816323 1_555
Cu3 P5 2.314908 1_556
Cu3 P7 2.407839 1_555
Cu3 Cu6 2.561560 1_555
Cu3 Cu7 2.561562 1_556
Cu3 P15 2.572579 1_555
Cu3 P12 2.816325 1_555
Cu4 P2 2.314907 1_545
Cu4 P1 2.407839 1_455
Cu4 P9 2.572579 1_555
Cu4 P13 2.816325 1_555
Cu5 P3 2.314907 1_554
Cu5 P6 2.407843 1_555
Cu5 Cu6 2.561562 1_554
Cu5 Cu7 2.561565 1_655
Cu5 P14 2.572581 1_555
Cu5 P10 2.816323 1_555
Cu6 P7 2.314907 1_555
Cu6 P3 2.407843 1_555
Cu6 P11 2.572581 1_555
Cu6 P8 2.816323 1_555
Cu7 P6 2.314907 1_455
Cu7 P5 2.407839 1_555
Cu7 P13 2.572579 1_555
Cu7 P9 2.816325 1_555
P0 P10 2.200707 1_555
P0 Si2 2.279841 1_555
P0 P11 2.318208 1_555
P1 P12 2.200710 1_555
P1 Si3 2.279843 1_555
P1 P13 2.318204 1_655
P2 P9 2.200707 1_565
P2 Si1 2.279841 1_555
P3 Si2 2.279841 1_655
P3 P8 2.318208 1_555
P4 P8 2.200710 1_545
P4 Si0 2.279843 1_555
P5 Si3 2.279843 1_555
P5 P9 2.318204 1_555
P6 Si1 2.279841 1_655
P7 Si0 2.279843 1_655
P8 Si2 2.265853 1_555
P9 Si3 2.265853 1_455
P10 Si1 2.265853 1_555
P10 P6 2.318208 1_555
P11 P7 2.200710 1_555
P11 Si2 2.265853 1_655
P12 Si0 2.265853 1_555
P12 P7 2.318204 1_555
P13 P6 2.200707 1_455
P13 Si3 2.265853 1_555
P14 P3 2.200707 1_554
P14 Si1 2.265853 1_655
P14 P2 2.318208 1_555
P15 P5 2.200710 1_556
P15 Si0 2.265853 1_655
P15 P4 2.318204 1_555
