# generated using pymatgen
data_Dy(SiOs)2
_symmetry_space_group_name_H-M   'P 1'
_cell_length_a   4.16970182
_cell_length_b   4.16970108
_cell_length_c   5.62436468
_cell_angle_alpha   111.75768052
_cell_angle_beta   111.75766983
_cell_angle_gamma   90.00000481
_symmetry_Int_Tables_number   1
_chemical_formula_structural   Dy(SiOs)2
_chemical_formula_sum   'Dy1 Si2 Os2'
_cell_volume   83.27396965
_cell_formula_units_Z   1
loop_
 _symmetry_equiv_pos_site_id
 _symmetry_equiv_pos_as_xyz
  1  'x, y, z'
loop_
 _atom_site_type_symbol
 _atom_site_label
 _atom_site_symmetry_multiplicity
 _atom_site_fract_x
 _atom_site_fract_y
 _atom_site_fract_z
 _atom_site_occupancy
  Dy  Dy0  1  0.00000000  0.00000000  0.00000000  1
  Si  Si0  1  0.62958175  0.62958175  0.25916149  1
  Si  Si1  1  0.37041825  0.37041825  0.74083851  1
  Os  Os0  1  0.25000000  0.75000000  0.50000000  1
  Os  Os1  1  0.75000000  0.25000000  0.50000000  1
loop_
_geom_bond_atom_site_label_1
_geom_bond_atom_site_label_2
_geom_bond_distance
_geom_bond_site_symmetry_2
Dy0 Os0 3.175165 1_544
Dy0 Os1 3.175165 1_455
Dy0 Os0 3.175165 1_555
Dy0 Os1 3.175165 1_444
Dy0 Os0 3.175165 1_545
Dy0 Os1 3.175165 1_454
Dy0 Os0 3.175165 1_444
Dy0 Os1 3.175165 1_555
Dy0 Si0 3.199054 1_445
Dy0 Si1 3.199054 1_554
Dy0 Si0 3.199059 1_455
Dy0 Si1 3.199059 1_544
Dy0 Si0 3.199060 1_545
Dy0 Si1 3.199060 1_454
Dy0 Si0 3.199065 1_555
Dy0 Si1 3.199065 1_444
Os0 Si1 2.382686 1_565
Os0 Si0 2.382687 1_455
Os0 Si1 2.382694 1_555
Os0 Si0 2.382694 1_555
Os1 Si0 2.382686 1_545
Os1 Si1 2.382687 1_655
Os1 Si0 2.382694 1_555
Os1 Si1 2.382694 1_555
