# generated using pymatgen
data_AlPt3
_symmetry_space_group_name_H-M   'P 1'
_cell_length_a   3.94175300
_cell_length_b   5.53443900
_cell_length_c   5.53443900
_cell_angle_alpha   90.00000000
_cell_angle_beta   90.00000000
_cell_angle_gamma   90.00000000
_symmetry_Int_Tables_number   1
_chemical_formula_structural   AlPt3
_chemical_formula_sum   'Al2 Pt6'
_cell_volume   120.73595369
_cell_formula_units_Z   2
loop_
 _symmetry_equiv_pos_site_id
 _symmetry_equiv_pos_as_xyz
  1  'x, y, z'
loop_
 _atom_site_type_symbol
 _atom_site_label
 _atom_site_symmetry_multiplicity
 _atom_site_fract_x
 _atom_site_fract_y
 _atom_site_fract_z
 _atom_site_occupancy
  Al  Al0  1  0.50000000  0.00000000  0.50000000  1
  Al  Al1  1  0.50000000  0.50000000  0.00000000  1
  Pt  Pt0  1  0.00000000  0.76308600  0.26308600  1
  Pt  Pt1  1  0.00000000  0.23691400  0.73691400  1
  Pt  Pt2  1  0.00000000  0.26308600  0.23691400  1
  Pt  Pt3  1  0.00000000  0.73691400  0.76308600  1
  Pt  Pt4  1  0.50000000  0.50000000  0.50000000  1
  Pt  Pt5  1  0.50000000  0.00000000  0.00000000  1
loop_
_geom_bond_atom_site_label_1
_geom_bond_atom_site_label_2
_geom_bond_distance
_geom_bond_site_symmetry_2
Al0 Pt1 2.706062 1_555
Al0 Pt1 2.706062 1_655
Al0 Pt0 2.706062 1_545
Al0 Pt0 2.706062 1_645
Al0 Pt4 2.767219 1_555
Al0 Pt5 2.767219 1_555
Al0 Pt5 2.767219 1_556
Al0 Pt4 2.767219 1_545
Al0 Pt3 2.850337 1_545
Al0 Pt3 2.850337 1_645
Al0 Pt2 2.850337 1_655
Al0 Pt2 2.850337 1_555
Al1 Pt2 2.706062 1_655
Al1 Pt2 2.706062 1_555
Al1 Pt3 2.706062 1_654
Al1 Pt3 2.706062 1_554
Al1 Pt4 2.767219 1_554
Al1 Pt4 2.767219 1_555
Al1 Pt5 2.767219 1_555
Al1 Pt5 2.767219 1_565
Al1 Pt0 2.850337 1_555
Al1 Pt0 2.850337 1_655
Al1 Pt1 2.850337 1_554
Al1 Pt1 2.850337 1_654
Pt0 Pt3 2.771008 1_555
Pt0 Pt2 2.771008 1_555
Pt0 Pt3 2.771008 1_554
Pt0 Pt2 2.771008 1_565
Pt0 Pt4 2.779136 1_555
Pt0 Pt4 2.779136 1_455
Pt0 Pt5 2.779136 1_465
Pt0 Pt5 2.779136 1_565
Pt1 Pt3 2.771008 1_545
Pt1 Pt2 2.771008 1_556
Pt1 Pt3 2.771008 1_555
Pt1 Pt2 2.771008 1_555
Pt1 Pt5 2.779136 1_556
Pt1 Pt5 2.779136 1_456
Pt1 Pt4 2.779136 1_555
Pt1 Pt4 2.779136 1_455
Pt2 Pt5 2.779136 1_555
Pt2 Pt5 2.779136 1_455
Pt2 Pt4 2.779136 1_555
Pt2 Pt4 2.779136 1_455
Pt3 Pt4 2.779136 1_455
Pt3 Pt4 2.779136 1_555
Pt3 Pt5 2.779136 1_466
Pt3 Pt5 2.779136 1_566
