# generated using pymatgen
data_K4Hg3Ge20
_symmetry_space_group_name_H-M   'P 1'
_cell_length_a   11.11321110
_cell_length_b   11.11321110
_cell_length_c   11.11321110
_cell_angle_alpha   90.00000000
_cell_angle_beta   90.00000000
_cell_angle_gamma   90.00000000
_symmetry_Int_Tables_number   1
_chemical_formula_structural   K4Hg3Ge20
_chemical_formula_sum   'K8 Hg6 Ge40'
_cell_volume   1372.52003315
_cell_formula_units_Z   2
loop_
 _symmetry_equiv_pos_site_id
 _symmetry_equiv_pos_as_xyz
  1  'x, y, z'
loop_
 _atom_site_type_symbol
 _atom_site_label
 _atom_site_symmetry_multiplicity
 _atom_site_fract_x
 _atom_site_fract_y
 _atom_site_fract_z
 _atom_site_occupancy
  K  K0  1  0.25000000  0.00000000  0.50000000  1
  K  K1  1  0.75000000  0.00000000  0.50000000  1
  K  K2  1  0.50000000  0.25000000  0.00000000  1
  K  K3  1  0.50000000  0.75000000  0.00000000  1
  K  K4  1  -0.00000000  0.50000000  0.25000000  1
  K  K5  1  -0.00000000  0.50000000  0.75000000  1
  K  K6  1  -0.00000000  0.00000000  0.00000000  1
  K  K7  1  0.50000000  0.50000000  0.50000000  1
  Hg  Hg0  1  0.25000000  0.50000000  0.00000000  1
  Hg  Hg1  1  0.75000000  0.50000000  0.00000000  1
  Hg  Hg2  1  -0.00000000  0.25000000  0.50000000  1
  Hg  Hg3  1  -0.00000000  0.75000000  0.50000000  1
  Hg  Hg4  1  0.50000000  0.00000000  0.25000000  1
  Hg  Hg5  1  0.50000000  0.00000000  0.75000000  1
  Ge  Ge0  1  0.18299684  0.18299684  0.18299684  1
  Ge  Ge1  1  0.81700316  0.81700316  0.81700316  1
  Ge  Ge2  1  0.81700316  0.81700316  0.18299684  1
  Ge  Ge3  1  0.81700316  0.18299684  0.81700316  1
  Ge  Ge4  1  0.68299684  0.68299684  0.31700316  1
  Ge  Ge5  1  0.18299684  0.18299684  0.81700316  1
  Ge  Ge6  1  0.18299684  0.81700316  0.18299684  1
  Ge  Ge7  1  0.31700316  0.31700316  0.68299684  1
  Ge  Ge8  1  0.18299684  0.81700316  0.81700316  1
  Ge  Ge9  1  0.31700316  0.31700316  0.31700316  1
  Ge  Ge10  1  0.81700316  0.18299684  0.18299684  1
  Ge  Ge11  1  0.68299684  0.68299684  0.68299684  1
  Ge  Ge12  1  0.68299684  0.31700316  0.68299684  1
  Ge  Ge13  1  0.31700316  0.68299684  0.31700316  1
  Ge  Ge14  1  0.31700316  0.68299684  0.68299684  1
  Ge  Ge15  1  0.68299684  0.31700316  0.31700316  1
  Ge  Ge16  1  -0.00000000  0.11337323  0.30147132  1
  Ge  Ge17  1  -0.00000000  0.88662677  0.69852868  1
  Ge  Ge18  1  -0.00000000  0.88662677  0.30147132  1
  Ge  Ge19  1  -0.00000000  0.11337323  0.69852868  1
  Ge  Ge20  1  0.30147132  0.00000000  0.11337323  1
  Ge  Ge21  1  0.61337323  0.50000000  0.19852868  1
  Ge  Ge22  1  0.69852868  0.00000000  0.88662677  1
  Ge  Ge23  1  0.38662677  0.50000000  0.80147132  1
  Ge  Ge24  1  0.30147132  0.00000000  0.88662677  1
  Ge  Ge25  1  0.38662677  0.50000000  0.19852868  1
  Ge  Ge26  1  0.69852868  0.00000000  0.11337323  1
  Ge  Ge27  1  0.61337323  0.50000000  0.80147132  1
  Ge  Ge28  1  0.11337323  0.30147132  0.00000000  1
  Ge  Ge29  1  0.50000000  0.80147132  0.38662677  1
  Ge  Ge30  1  0.88662677  0.69852868  0.00000000  1
  Ge  Ge31  1  0.50000000  0.19852868  0.61337323  1
  Ge  Ge32  1  0.11337323  0.69852868  0.00000000  1
  Ge  Ge33  1  0.50000000  0.19852868  0.38662677  1
  Ge  Ge34  1  0.88662677  0.30147132  0.00000000  1
  Ge  Ge35  1  0.50000000  0.80147132  0.61337323  1
  Ge  Ge36  1  0.19852868  0.61337323  0.50000000  1
  Ge  Ge37  1  0.80147132  0.38662677  0.50000000  1
  Ge  Ge38  1  0.19852868  0.38662677  0.50000000  1
  Ge  Ge39  1  0.80147132  0.61337323  0.50000000  1
loop_
_geom_bond_atom_site_label_1
_geom_bond_atom_site_label_2
_geom_bond_distance
_geom_bond_site_symmetry_2
Hg0 K3 3.929113 1_555
Hg0 K4 3.929113 1_555
Hg0 K5 3.929113 1_554
Hg0 K2 3.929113 1_555
Hg1 K4 3.929113 1_655
Hg1 K3 3.929113 1_555
Hg1 K5 3.929113 1_654
Hg1 K2 3.929113 1_555
Hg2 K5 3.929113 1_555
Hg2 K1 3.929113 1_455
Hg2 K0 3.929113 1_555
Hg2 K4 3.929113 1_555
Hg3 K5 3.929113 1_555
Hg3 K4 3.929113 1_555
Hg3 K0 3.929113 1_565
Hg3 K1 3.929113 1_465
Hg4 K1 3.929113 1_555
Hg4 K0 3.929113 1_555
Hg4 K3 3.929113 1_545
Hg4 K2 3.929113 1_555
Hg5 K1 3.929113 1_555
Hg5 K0 3.929113 1_555
Hg5 K3 3.929113 1_546
Hg5 K2 3.929113 1_556
Ge0 Ge16 2.543238 1_555
Ge0 Ge20 2.543238 1_555
Ge0 Ge28 2.543238 1_555
Ge0 Ge9 2.579440 1_555
Ge0 K6 3.522441 1_555
Ge1 Ge30 2.543238 1_556
Ge1 Ge17 2.543238 1_655
Ge1 Ge22 2.543238 1_565
Ge1 Ge11 2.579440 1_555
Ge1 K6 3.522441 1_666
Ge2 Ge26 2.543238 1_565
Ge2 Ge30 2.543238 1_555
Ge2 Ge4 2.579440 1_555
Ge2 K6 3.522441 1_665
Ge3 Ge34 2.543238 1_556
Ge3 K6 3.522441 1_656
Ge4 K7 3.522441 1_555
Ge5 Ge7 2.579440 1_555
Ge5 K6 3.522441 1_556
Ge6 K6 3.522441 1_565
Ge7 K7 3.522441 1_555
Ge8 K6 3.522441 1_566
Ge9 K7 3.522441 1_555
Ge10 Ge16 2.543238 1_655
Ge10 Ge34 2.543238 1_555
Ge10 Ge26 2.543238 1_555
Ge10 Ge15 2.579440 1_555
Ge10 K6 3.522441 1_655
Ge11 Ge27 2.543238 1_555
Ge11 Ge39 2.543238 1_555
Ge11 Ge35 2.543238 1_555
Ge11 K7 3.522441 1_555
Ge12 Ge27 2.543238 1_555
Ge12 Ge37 2.543238 1_555
Ge12 Ge31 2.543238 1_555
Ge12 Ge3 2.579440 1_555
Ge12 K7 3.522441 1_555
Ge13 Ge29 2.543238 1_555
Ge13 Ge25 2.543238 1_555
Ge13 Ge36 2.543238 1_555
Ge13 Ge6 2.579440 1_555
Ge13 K7 3.522441 1_555
Ge14 Ge35 2.543238 1_555
Ge14 Ge23 2.543238 1_555
Ge14 Ge36 2.543238 1_555
Ge14 Ge8 2.579440 1_555
Ge14 K7 3.522441 1_555
Ge15 Ge37 2.543238 1_555
Ge15 Ge33 2.543238 1_555
Ge15 Ge21 2.543238 1_555
Ge15 K7 3.522441 1_555
Ge16 Ge18 2.519881 1_545
Ge16 Hg2 2.678273 1_555
Ge16 K6 3.579393 1_555
Ge16 K0 3.764856 1_555
Ge16 K1 3.764856 1_455
Ge17 Ge19 2.519881 1_565
Ge17 Ge8 2.543238 1_555
Ge17 Hg3 2.678273 1_555
Ge17 K6 3.579393 1_566
Ge17 K0 3.764856 1_565
Ge17 K1 3.764856 1_465
Ge18 Ge2 2.543238 1_455
Ge18 Ge6 2.543238 1_555
Ge18 Hg3 2.678273 1_555
Ge18 K6 3.579393 1_565
Ge18 K0 3.764856 1_565
Ge18 K1 3.764856 1_465
Ge19 Ge3 2.543238 1_455
Ge19 Ge5 2.543238 1_555
Ge19 Hg2 2.678273 1_555
Ge19 K6 3.579393 1_556
Ge19 K0 3.764856 1_555
Ge19 K1 3.764856 1_455
Ge20 Ge24 2.519881 1_554
Ge20 Ge6 2.543238 1_545
Ge20 Hg4 2.678273 1_555
Ge20 K6 3.579393 1_555
Ge20 K3 3.764856 1_545
Ge20 K2 3.764856 1_555
Ge21 Ge25 2.519881 1_555
Ge21 Ge4 2.543238 1_555
Ge21 Hg1 2.678273 1_555
Ge21 K7 3.579393 1_555
Ge21 K3 3.764856 1_555
Ge21 K2 3.764856 1_555
Ge22 Ge26 2.519881 1_556
Ge22 Ge3 2.543238 1_555
Ge22 Hg5 2.678273 1_555
Ge22 K6 3.579393 1_656
Ge22 K3 3.764856 1_546
Ge22 K2 3.764856 1_556
Ge23 Ge27 2.519881 1_555
Ge23 Ge7 2.543238 1_555
Ge23 Hg0 2.678273 1_556
Ge23 K7 3.579393 1_555
Ge23 K2 3.764856 1_556
Ge23 K3 3.764856 1_556
Ge24 Ge8 2.543238 1_545
Ge24 Ge5 2.543238 1_555
Ge24 Hg5 2.678273 1_555
Ge24 K6 3.579393 1_556
Ge24 K3 3.764856 1_546
Ge24 K2 3.764856 1_556
Ge25 Ge9 2.543238 1_555
Ge25 Hg0 2.678273 1_555
Ge25 K7 3.579393 1_555
Ge25 K3 3.764856 1_555
Ge25 K2 3.764856 1_555
Ge26 Hg4 2.678273 1_555
Ge26 K6 3.579393 1_655
Ge26 K3 3.764856 1_545
Ge26 K2 3.764856 1_555
Ge27 Hg1 2.678273 1_556
Ge27 K7 3.579393 1_555
Ge27 K2 3.764856 1_556
Ge27 K3 3.764856 1_556
Ge28 Ge34 2.519881 1_455
Ge28 Ge5 2.543238 1_554
Ge28 Hg0 2.678273 1_555
Ge28 K6 3.579393 1_555
Ge28 K4 3.764856 1_555
Ge28 K5 3.764856 1_554
Ge29 Ge35 2.519881 1_555
Ge29 Ge4 2.543238 1_555
Ge29 Hg4 2.678273 1_565
Ge29 K7 3.579393 1_555
Ge29 K0 3.764856 1_565
Ge29 K1 3.764856 1_565
Ge30 Ge32 2.519881 1_655
Ge30 Hg1 2.678273 1_555
Ge30 K6 3.579393 1_665
Ge30 K5 3.764856 1_654
Ge30 K4 3.764856 1_655
Ge31 Ge33 2.519881 1_555
Ge31 Ge7 2.543238 1_555
Ge31 Hg5 2.678273 1_555
Ge31 K7 3.579393 1_555
Ge31 K0 3.764856 1_555
Ge31 K1 3.764856 1_555
Ge32 Ge8 2.543238 1_554
Ge32 Ge6 2.543238 1_555
Ge32 Hg0 2.678273 1_555
Ge32 K6 3.579393 1_565
Ge32 K4 3.764856 1_555
Ge32 K5 3.764856 1_554
Ge33 Ge9 2.543238 1_555
Ge33 Hg4 2.678273 1_555
Ge33 K7 3.579393 1_555
Ge33 K0 3.764856 1_555
Ge33 K1 3.764856 1_555
Ge34 Hg1 2.678273 1_555
Ge34 K6 3.579393 1_655
Ge34 K5 3.764856 1_654
Ge34 K4 3.764856 1_655
Ge35 Hg5 2.678273 1_565
Ge35 K7 3.579393 1_555
Ge35 K0 3.764856 1_565
Ge35 K1 3.764856 1_565
Ge36 Ge38 2.519881 1_555
Ge36 Hg3 2.678273 1_555
Ge36 K7 3.579393 1_555
Ge36 K4 3.764856 1_555
Ge36 K5 3.764856 1_555
Ge37 Ge39 2.519881 1_555
Ge37 Hg2 2.678273 1_655
Ge37 K7 3.579393 1_555
Ge37 K4 3.764856 1_655
Ge37 K5 3.764856 1_655
Ge38 Ge7 2.543238 1_555
Ge38 Ge9 2.543238 1_555
Ge38 Hg2 2.678273 1_555
Ge38 K7 3.579393 1_555
Ge38 K4 3.764856 1_555
Ge38 K5 3.764856 1_555
Ge39 Ge4 2.543238 1_555
Ge39 Hg3 2.678273 1_655
Ge39 K7 3.579393 1_555
Ge39 K4 3.764856 1_655
Ge39 K5 3.764856 1_655
