# generated using pymatgen
data_NdAu6
_symmetry_space_group_name_H-M   'P 1'
_cell_length_a   5.53095207
_cell_length_b   5.53095207
_cell_length_c   9.18146450
_cell_angle_alpha   82.82474755
_cell_angle_beta   82.82474755
_cell_angle_gamma   90.00534667
_symmetry_Int_Tables_number   1
_chemical_formula_structural   NdAu6
_chemical_formula_sum   'Nd2 Au12'
_cell_volume   276.45702401
_cell_formula_units_Z   2
loop_
 _symmetry_equiv_pos_site_id
 _symmetry_equiv_pos_as_xyz
  1  'x, y, z'
loop_
 _atom_site_type_symbol
 _atom_site_label
 _atom_site_symmetry_multiplicity
 _atom_site_fract_x
 _atom_site_fract_y
 _atom_site_fract_z
 _atom_site_occupancy
  Nd  Nd0  1  0.31554301  0.68445699  0.75000000  1
  Nd  Nd1  1  0.68445699  0.31554301  0.25000000  1
  Au  Au0  1  0.04210418  0.15685027  0.86239946  1
  Au  Au1  1  0.84314973  0.95789582  0.63760054  1
  Au  Au2  1  0.95789582  0.84314973  0.13760054  1
  Au  Au3  1  0.15685027  0.04210418  0.36239946  1
  Au  Au4  1  0.78051679  0.61175054  0.92096702  1
  Au  Au5  1  0.38824946  0.21948321  0.57903298  1
  Au  Au6  1  0.21948321  0.38824946  0.07903298  1
  Au  Au7  1  0.61175054  0.78051679  0.42096702  1
  Au  Au8  1  0.83472635  0.46060312  0.62770681  1
  Au  Au9  1  0.53939688  0.16527365  0.87229319  1
  Au  Au10  1  0.16527365  0.53939688  0.37229319  1
  Au  Au11  1  0.46060312  0.83472635  0.12770681  1
loop_
_geom_bond_atom_site_label_1
_geom_bond_atom_site_label_2
_geom_bond_distance
_geom_bond_site_symmetry_2
Au0 Au9 2.763898 1_555
Au0 Au9 2.771157 1_455
Au0 Au6 2.771260 1_556
Au0 Au1 2.795772 1_445
Au0 Au2 2.867492 1_446
Au0 Au8 2.914589 1_455
Au0 Au4 2.976103 1_455
Au0 Au5 3.014088 1_555
Au0 Nd0 3.234711 1_545
Au0 Nd0 3.274900 1_555
Au1 Au8 2.763898 1_555
Au1 Au8 2.771157 1_565
Au1 Au7 2.771260 1_555
Au1 Au3 2.867492 1_665
Au1 Au9 2.914589 1_565
Au1 Au5 2.976103 1_565
Au1 Au4 3.014088 1_555
Au1 Nd0 3.234711 1_655
Au1 Nd0 3.274900 1_555
Au2 Au4 2.771260 1_554
Au2 Au3 2.795772 1_665
Au2 Au6 2.976103 1_655
Au2 Au7 3.014088 1_555
Au2 Nd1 3.234711 1_565
Au2 Nd1 3.274900 1_555
Au3 Au5 2.771260 1_555
Au3 Au7 2.976103 1_545
Au3 Au6 3.014088 1_555
Au3 Nd1 3.234711 1_455
Au3 Nd1 3.274900 1_555
Au4 Au8 2.898159 1_555
Au4 Au9 2.915539 1_555
Au4 Nd0 3.172434 1_655
Au4 Nd0 3.176573 1_555
Au4 Nd1 3.233465 1_556
Au4 Au9 3.340505 1_565
Au5 Au9 2.898159 1_555
Au5 Au8 2.915539 1_555
Au5 Nd0 3.172434 1_545
Au5 Nd0 3.176573 1_555
Au5 Nd1 3.233465 1_555
Au5 Au8 3.340505 1_455
Au6 Au9 2.828614 1_554
Au6 Nd1 3.172434 1_455
Au6 Nd1 3.176573 1_555
Au6 Nd0 3.233465 1_554
Au7 Au8 2.828614 1_555
Au7 Nd1 3.172434 1_565
Au7 Nd1 3.176573 1_555
Au7 Nd0 3.233465 1_555
Au8 Au9 2.923378 1_555
Au8 Nd0 3.253022 1_555
Au8 Nd0 3.310375 1_655
Au8 Nd1 3.843930 1_555
Au9 Nd0 3.253022 1_555
Au9 Nd0 3.310375 1_545
Au9 Nd1 3.843930 1_556
Au10 Au3 2.763898 1_555
Au10 Au3 2.771157 1_565
Au10 Au8 2.775838 1_455
Au10 Au5 2.828614 1_555
Au10 Au6 2.898159 1_555
Au10 Au2 2.914589 1_455
Au10 Au7 2.915539 1_555
Au10 Au11 2.923378 1_555
Au10 Nd1 3.253022 1_555
Au10 Nd1 3.310375 1_455
Au10 Au7 3.340505 1_455
Au10 Nd0 3.843930 1_555
Au11 Au2 2.763898 1_555
Au11 Au2 2.771157 1_455
Au11 Au9 2.775838 1_564
Au11 Au4 2.828614 1_554
Au11 Au7 2.898159 1_555
Au11 Au3 2.914589 1_565
Au11 Au6 2.915539 1_555
Au11 Nd1 3.253022 1_555
Au11 Nd1 3.310375 1_565
Au11 Au6 3.340505 1_565
Au11 Nd0 3.843930 1_554
