# generated using pymatgen
data_Ca5Bi6(Cl3O2)4
_symmetry_space_group_name_H-M   'P 1'
_cell_length_a   12.74200466
_cell_length_b   12.74200466
_cell_length_c   12.74200466
_cell_angle_alpha   154.74938055
_cell_angle_beta   127.81000371
_cell_angle_gamma   58.83559348
_symmetry_Int_Tables_number   1
_chemical_formula_structural   Ca5Bi6(Cl3O2)4
_chemical_formula_sum   'Ca5 Bi6 Cl12 O8'
_cell_volume   693.00497194
_cell_formula_units_Z   1
loop_
 _symmetry_equiv_pos_site_id
 _symmetry_equiv_pos_as_xyz
  1  'x, y, z'
loop_
 _atom_site_type_symbol
 _atom_site_label
 _atom_site_symmetry_multiplicity
 _atom_site_fract_x
 _atom_site_fract_y
 _atom_site_fract_z
 _atom_site_occupancy
  Ca  Ca0  1  0.80806500  0.30806500  0.50000000  1
  Ca  Ca1  1  0.19193500  0.69193500  0.50000000  1
  Ca  Ca2  1  0.73077400  0.50000000  0.23077400  1
  Ca  Ca3  1  0.00000000  0.00000000  0.00000000  1
  Ca  Ca4  1  0.26922600  0.50000000  0.76922600  1
  Bi  Bi0  1  0.05946400  0.80359100  0.25587300  1
  Bi  Bi1  1  0.30204000  0.30204000  0.00000000  1
  Bi  Bi2  1  0.54771900  0.80359100  0.74412700  1
  Bi  Bi3  1  0.45228100  0.19640900  0.25587300  1
  Bi  Bi4  1  0.69796000  0.69796000  0.00000000  1
  Bi  Bi5  1  0.94053600  0.19640900  0.74412700  1
  Cl  Cl0  1  0.63130000  0.13130000  0.50000000  1
  Cl  Cl1  1  0.88762400  0.62230500  0.26531900  1
  Cl  Cl2  1  0.12452100  0.12452100  0.00000000  1
  Cl  Cl3  1  0.35698600  0.62230500  0.73468100  1
  Cl  Cl4  1  0.64301400  0.37769500  0.26531900  1
  Cl  Cl5  1  0.87547900  0.87547900  0.00000000  1
  Cl  Cl6  1  0.11237600  0.37769500  0.73468100  1
  Cl  Cl7  1  0.36870000  0.86870000  0.50000000  1
  Cl  Cl8  1  0.23862700  0.00000000  0.23862700  1
  Cl  Cl9  1  0.50000000  0.50000000  0.00000000  1
  Cl  Cl10  1  0.76137300  0.00000000  0.76137300  1
  Cl  Cl11  1  0.00000000  0.50000000  0.50000000  1
  O  O0  1  0.62312000  0.99475800  0.11614400  1
  O  O1  1  0.87861300  0.50697500  0.88385600  1
  O  O2  1  0.12138700  0.00524200  0.62836200  1
  O  O3  1  0.37688000  0.49302500  0.37163800  1
  O  O4  1  0.62312000  0.50697500  0.62836200  1
  O  O5  1  0.87861300  0.99475800  0.37163800  1
  O  O6  1  0.12138700  0.49302500  0.11614400  1
  O  O7  1  0.37688000  0.00524200  0.88385600  1
loop_
_geom_bond_atom_site_label_1
_geom_bond_atom_site_label_2
_geom_bond_distance
_geom_bond_site_symmetry_2
Ca0 O0 2.386993 1_545
Ca0 O5 2.386994 1_545
Ca0 O4 2.386994 1_555
Ca0 O1 2.387005 1_555
Ca0 Cl6 3.051115 1_655
Ca0 Cl4 3.051115 1_555
Ca0 Cl5 3.161653 1_545
Ca0 Cl5 3.161653 1_556
Ca1 O7 2.386993 1_565
Ca1 O3 2.386994 1_555
Ca1 O2 2.386994 1_565
Ca1 O6 2.387005 1_555
Ca1 Cl3 3.051115 1_555
Ca1 Cl1 3.051115 1_455
Ca1 Cl2 3.161653 1_566
Ca1 Cl2 3.161653 1_555
Ca2 Cl9 2.586842 1_555
Ca2 Cl1 2.742419 1_555
Ca2 Cl4 2.742419 1_555
Ca2 Cl10 2.806116 1_554
Ca2 Cl10 2.806116 1_565
Ca2 Cl11 3.017866 1_655
Ca3 Cl8 2.674869 1_555
Ca3 Cl10 2.674869 1_454
Ca3 Cl5 2.764134 1_445
Ca3 Cl2 2.764134 1_555
Ca3 Cl11 2.785075 1_555
Ca3 Cl11 2.785075 1_544
Ca4 Cl9 2.586842 1_556
Ca4 Cl3 2.742419 1_555
Ca4 Cl6 2.742419 1_555
Ca4 Cl8 2.806116 1_555
Ca4 Cl8 2.806116 1_566
Ca4 Cl11 3.017866 1_555
Bi0 O6 2.279967 1_555
Bi0 O2 2.279974 1_565
Bi0 O5 2.297410 1_455
Bi0 O1 2.297411 1_454
Bi0 Cl7 3.094743 1_555
Bi1 O6 2.296809 1_555
Bi1 O3 2.296813 1_555
Bi1 O2 2.296813 1_554
Bi1 O7 2.296821 1_554
Bi1 Cl7 3.153765 1_544
Bi1 Cl7 3.153765 1_555
Bi2 O3 2.279981 1_555
Bi2 O7 2.279989 1_565
Bi2 O0 2.297403 1_556
Bi2 O4 2.297411 1_555
Bi2 Cl7 3.094743 1_555
Bi3 O4 2.279981 1_555
Bi3 O0 2.279989 1_545
Bi3 O7 2.297403 1_554
Bi3 O3 2.297411 1_555
Bi3 Cl0 3.094743 1_555
Bi4 O1 2.296809 1_554
Bi4 O4 2.296813 1_554
Bi4 O5 2.296813 1_555
Bi4 O0 2.296821 1_555
Bi4 Cl0 3.153765 1_565
Bi4 Cl0 3.153765 1_554
Bi5 O1 2.279967 1_555
Bi5 O5 2.279974 1_545
Bi5 O2 2.297410 1_655
Bi5 O6 2.297411 1_656
Bi5 Cl0 3.094743 1_555
