# generated using pymatgen
data_Li7Mn2(CoO4)3
_symmetry_space_group_name_H-M   'P 1'
_cell_length_a   5.86433700
_cell_length_b   6.49688821
_cell_length_c   6.56094130
_cell_angle_alpha   71.70420031
_cell_angle_beta   64.16404432
_cell_angle_gamma   77.09579338
_symmetry_Int_Tables_number   1
_chemical_formula_structural   Li7Mn2(CoO4)3
_chemical_formula_sum   'Li7 Mn2 Co3 O12'
_cell_volume   212.51477361
_cell_formula_units_Z   1
loop_
 _symmetry_equiv_pos_site_id
 _symmetry_equiv_pos_as_xyz
  1  'x, y, z'
loop_
 _atom_site_type_symbol
 _atom_site_label
 _atom_site_symmetry_multiplicity
 _atom_site_fract_x
 _atom_site_fract_y
 _atom_site_fract_z
 _atom_site_occupancy
  Li  Li0  1  0.58325900  0.32993100  0.16845900  1
  Li  Li1  1  0.74354400  0.01061800  0.50382600  1
  Li  Li2  1  0.92812300  0.65892600  0.83046200  1
  Li  Li3  1  0.08588900  0.33517700  0.16094300  1
  Li  Li4  1  0.24891800  0.00858000  0.49960800  1
  Li  Li5  1  0.41273600  0.65905000  0.83101500  1
  Li  Li6  1  0.33209200  0.33466600  0.66902100  1
  Mn  Mn0  1  0.00578700  0.00140700  0.99597400  1
  Mn  Mn1  1  0.16233700  0.66701000  0.33802000  1
  Co  Co0  1  0.50132000  0.00266000  0.99536500  1
  Co  Co1  1  0.65786900  0.65074900  0.34527400  1
  Co  Co2  1  0.83457100  0.33138600  0.67278100  1
  O  O0  1  0.89199200  0.00192700  0.76020100  1
  O  O1  1  0.04088000  0.68199700  0.09467000  1
  O  O2  1  0.19149800  0.35641100  0.41697700  1
  O  O3  1  0.35951300  0.99888000  0.78152600  1
  O  O4  1  0.51138200  0.68440100  0.10192500  1
  O  O5  1  0.71241500  0.34985900  0.41502800  1
  O  O6  1  0.28963900  0.67456600  0.55908100  1
  O  O7  1  0.48222100  0.31282200  0.90882900  1
  O  O8  1  0.64596800  0.98574400  0.22077700  1
  O  O9  1  0.81015200  0.66456600  0.56832200  1
  O  O10  1  0.95709000  0.31238900  0.91846200  1
  O  O11  1  0.11080500  0.98627800  0.24345400  1
loop_
_geom_bond_atom_site_label_1
_geom_bond_atom_site_label_2
_geom_bond_distance
_geom_bond_site_symmetry_2
Li0 O7 2.071972 1_554
Li0 O10 2.093096 1_554
Li0 O5 2.109674 1_555
Li0 O8 2.124670 1_545
Li0 O2 2.168162 1_555
Li0 O4 2.183449 1_555
Li1 O5 2.082598 1_555
Li1 O11 2.095846 1_645
Li1 O9 2.130923 1_545
Li1 O0 2.187482 1_555
Li1 O3 2.193267 1_545
Li1 O8 2.226695 1_545
Li2 O6 2.089912 1_655
Li2 O9 2.103365 1_555
Li2 O0 2.110122 1_565
Li2 O10 2.128286 1_555
Li2 O1 2.161255 1_656
Li2 O4 2.320096 1_556
Li3 O2 2.077218 1_555
Li3 O10 2.090113 1_454
Li3 O5 2.099819 1_455
Li3 O1 2.134277 1_555
Li3 O11 2.145501 1_545
Li3 O7 2.192805 1_554
Li4 O0 2.044777 1_455
Li4 O6 2.058285 1_545
Li4 O2 2.136382 1_555
Li4 O3 2.190877 1_545
Li4 O11 2.212050 1_545
Li4 O8 2.256936 1_545
Li5 O3 2.099488 1_555
Li5 O1 2.121039 1_556
Li5 O7 2.130123 1_555
Li5 O4 2.154895 1_556
Li5 O6 2.166006 1_555
Li5 O9 2.213801 1_555
Li6 O3 2.065352 1_545
Li6 O7 2.069317 1_555
Li6 O6 2.090386 1_555
Li6 O10 2.095725 1_455
Li6 O2 2.103314 1_555
Li6 O5 2.125268 1_555
Mn0 O10 1.909458 1_455
Mn0 O0 1.932271 1_455
Mn0 O3 1.933478 1_545
Mn0 O11 1.941568 1_546
Mn0 O1 1.962072 1_546
Mn0 O8 1.981753 1_446
Mn1 O2 1.906933 1_555
Mn1 O6 1.915228 1_555
Mn1 O9 1.956670 1_455
Mn1 O4 1.957530 1_555
Mn1 O11 1.963217 1_555
Mn1 O1 1.982057 1_555
Co0 O7 1.905724 1_555
Co0 O3 1.925669 1_545
Co0 O4 1.959969 1_546
Co0 O8 1.966865 1_546
Co0 O0 2.132650 1_555
Co0 O11 2.157888 1_546
Co1 O5 1.849272 1_555
Co1 O6 2.000415 1_555
Co1 O9 2.050482 1_555
Co1 O4 2.056035 1_555
Co1 O8 2.067507 1_555
Co1 O1 2.136553 1_655
Co2 O7 1.971670 1_555
Co2 O10 1.993638 1_555
Co2 O0 2.024732 1_555
Co2 O2 2.035493 1_655
Co2 O9 2.047318 1_555
Co2 O5 2.068203 1_555
