# generated using pymatgen
data_BiPbO2F
_symmetry_space_group_name_H-M   'P 1'
_cell_length_a   4.00055877
_cell_length_b   4.00055877
_cell_length_c   6.51162136
_cell_angle_alpha   89.15370553
_cell_angle_beta   89.15370553
_cell_angle_gamma   60.13223260
_symmetry_Int_Tables_number   1
_chemical_formula_structural   BiPbO2F
_chemical_formula_sum   'Bi1 Pb1 O2 F1'
_cell_volume   90.35973841
_cell_formula_units_Z   1
loop_
 _symmetry_equiv_pos_site_id
 _symmetry_equiv_pos_as_xyz
  1  'x, y, z'
loop_
 _atom_site_type_symbol
 _atom_site_label
 _atom_site_symmetry_multiplicity
 _atom_site_fract_x
 _atom_site_fract_y
 _atom_site_fract_z
 _atom_site_occupancy
  Bi  Bi0  1  0.70178800  0.70178800  0.70804300  1
  Pb  Pb0  1  0.37805900  0.37805900  0.25500900  1
  O  O0  1  0.37059300  0.37059300  0.61852900  1
  O  O1  1  0.70793900  0.70793900  0.36764000  1
  F  F0  1  0.03334400  0.03334400  0.90147900  1
loop_
_geom_bond_atom_site_label_1
_geom_bond_atom_site_label_2
_geom_bond_distance
_geom_bond_site_symmetry_2
Bi0 O1 2.216258 1_555
Bi0 O0 2.375911 1_555
Bi0 O0 2.387455 1_565
Bi0 O0 2.387455 1_655
Bi0 F0 2.629450 1_655
Bi0 F0 2.629450 1_565
Bi0 F0 2.637480 1_665
O0 Pb0 2.366787 1_555
O1 Pb0 2.411009 1_555
O1 Pb0 2.431711 1_655
O1 Pb0 2.431711 1_565
