# generated using pymatgen
data_Ta9VO25
_symmetry_space_group_name_H-M   'P 1'
_cell_length_a   3.83336614
_cell_length_b   11.30392373
_cell_length_c   11.30372997
_cell_angle_alpha   88.34805577
_cell_angle_beta   80.23900937
_cell_angle_gamma   80.22757381
_symmetry_Int_Tables_number   1
_chemical_formula_structural   Ta9VO25
_chemical_formula_sum   'Ta9 V1 O25'
_cell_volume   475.71888561
_cell_formula_units_Z   1
loop_
 _symmetry_equiv_pos_site_id
 _symmetry_equiv_pos_as_xyz
  1  'x, y, z'
loop_
 _atom_site_type_symbol
 _atom_site_label
 _atom_site_symmetry_multiplicity
 _atom_site_fract_x
 _atom_site_fract_y
 _atom_site_fract_z
 _atom_site_occupancy
  Ta  Ta0  1  0.78157013  0.11697499  0.32332787  1
  Ta  Ta1  1  0.87815585  0.79491886  0.44224904  1
  Ta  Ta2  1  0.11581972  0.20508738  0.55775840  1
  Ta  Ta3  1  0.67938976  0.44218402  0.20502420  1
  Ta  Ta4  1  0.32621792  0.55780899  0.79493319  1
  Ta  Ta5  1  0.89554126  0.32333856  0.88294200  1
  Ta  Ta6  1  0.10136842  0.67664523  0.11701773  1
  Ta  Ta7  1  0.22125510  0.88303488  0.67667744  1
  Ta  Ta8  1  0.00008402  -0.00001506  -0.00000464  1
  V  V0  1  0.25031390  0.50003722  0.50000468  1
  O  O0  1  0.93734234  0.62912474  0.51683647  1
  O  O1  1  0.54636679  0.51678371  0.37087688  1
  O  O2  1  0.43401965  0.48317358  0.62911379  1
  O  O3  1  0.08328361  0.37094206  0.48321443  1
  O  O4  1  0.50008524  0.99999509  0.00001647  1
  O  O5  1  0.24998143  0.13966393  0.36530122  1
  O  O6  1  0.38494862  0.36530352  0.86031736  1
  O  O7  1  0.61036977  0.63467620  0.13966402  1
  O  O8  1  0.75442854  0.86035204  0.63474337  1
  O  O9  1  0.82936074  0.96009908  0.39362828  1
  O  O10  1  0.98437209  0.73258444  0.29011340  1
  O  O11  1  0.72554528  0.29006790  0.26735592  1
  O  O12  1  0.28237963  0.70992865  0.73255592  1
  O  O13  1  0.00720976  0.26738196  0.70989875  1
  O  O14  1  0.94822594  0.16770055  0.93664781  1
  O  O15  1  0.11534679  0.93663313  0.83232684  1
  O  O16  1  0.88452943  0.06334187  0.16770785  1
  O  O17  1  0.77725294  0.39358493  0.03983392  1
  O  O18  1  0.35405873  0.80607858  0.48921627  1
  O  O19  1  0.15660183  0.48918245  0.19397974  1
  O  O20  1  0.83941192  0.51083513  0.80604053  1
  O  O21  1  0.64971611  0.19395887  0.51077826  1
  O  O22  1  0.18282652  0.03991855  0.60640870  1
  O  O23  1  0.21053132  0.60640116  0.96009986  1
  O  O24  1  0.05209486  0.83227182  0.06339104  1
loop_
_geom_bond_atom_site_label_1
_geom_bond_atom_site_label_2
_geom_bond_distance
_geom_bond_site_symmetry_2
O0 V0 1.717303 1_655
O0 Ta1 2.025852 1_555
O1 V0 1.717443 1_555
O1 Ta3 2.026537 1_555
O2 V0 1.717269 1_555
O2 Ta4 2.026333 1_555
O3 V0 1.717514 1_555
O3 Ta2 2.026241 1_555
O4 Ta8 1.916618 1_665
O4 Ta8 1.916748 1_565
O5 Ta0 1.986247 1_555
O5 Ta0 1.991797 1_455
O5 Ta2 2.264602 1_555
O6 Ta5 1.985580 1_455
O6 Ta5 1.992223 1_555
O6 Ta4 2.264858 1_555
O7 Ta6 1.986418 1_555
O7 Ta6 1.991467 1_655
O7 Ta3 2.264646 1_555
O8 Ta7 1.985748 1_655
O8 Ta7 1.992073 1_555
O8 Ta1 2.265031 1_555
O9 Ta0 1.915075 1_565
O9 Ta1 1.918476 1_555
O10 Ta1 1.831582 1_555
O10 Ta6 2.026546 1_655
O11 Ta3 1.831281 1_555
O11 Ta0 2.026541 1_555
O12 Ta4 1.831509 1_555
O12 Ta7 2.026358 1_555
O13 Ta2 1.831466 1_555
O13 Ta5 2.026057 1_455
O14 Ta5 1.834097 1_555
O14 Ta8 1.997135 1_656
O15 Ta7 1.833907 1_555
O15 Ta8 1.996756 1_566
O16 Ta0 1.833729 1_555
O16 Ta8 1.997234 1_655
O17 Ta5 1.915099 1_554
O17 Ta3 1.918560 1_555
O18 Ta1 1.972369 1_555
O18 Ta1 2.009048 1_455
O18 Ta7 2.257493 1_555
O19 Ta3 1.973051 1_455
O19 Ta3 2.008377 1_555
O19 Ta6 2.257421 1_555
O20 Ta4 1.973101 1_555
O20 Ta4 2.008270 1_655
O20 Ta5 2.257515 1_555
O21 Ta2 1.972863 1_655
O21 Ta2 2.008586 1_555
O21 Ta0 2.257498 1_555
O22 Ta7 1.915030 1_545
O22 Ta2 1.918384 1_555
O23 Ta6 1.915344 1_556
O23 Ta4 1.918269 1_555
O24 Ta6 1.833692 1_555
O24 Ta8 1.997298 1_565
