# generated using pymatgen
data_Na3Er(PO4)2
_symmetry_space_group_name_H-M   'P 1'
_cell_length_a   5.29359550
_cell_length_b   13.88629110
_cell_length_c   18.49351109
_cell_angle_alpha   90.00000000
_cell_angle_beta   90.00000000
_cell_angle_gamma   90.00000000
_symmetry_Int_Tables_number   1
_chemical_formula_structural   Na3Er(PO4)2
_chemical_formula_sum   'Na24 Er8 P16 O64'
_cell_volume   1359.42856001
_cell_formula_units_Z   8
loop_
 _symmetry_equiv_pos_site_id
 _symmetry_equiv_pos_as_xyz
  1  'x, y, z'
loop_
 _atom_site_type_symbol
 _atom_site_label
 _atom_site_symmetry_multiplicity
 _atom_site_fract_x
 _atom_site_fract_y
 _atom_site_fract_z
 _atom_site_occupancy
  Na  Na0  1  0.99182384  0.21742759  0.99208725  1
  Na  Na1  1  0.00817616  0.78257241  0.49208725  1
  Na  Na2  1  0.00817616  0.71742759  0.99208725  1
  Na  Na3  1  0.99182384  0.28257241  0.49208725  1
  Na  Na4  1  0.99327992  0.95194167  0.64948505  1
  Na  Na5  1  0.00672008  0.04805833  0.14948505  1
  Na  Na6  1  0.00672008  0.45194167  0.64948505  1
  Na  Na7  1  0.99327992  0.54805833  0.14948505  1
  Na  Na8  1  0.99729692  0.86074327  0.82779841  1
  Na  Na9  1  0.00270308  0.13925673  0.32779841  1
  Na  Na10  1  0.00270308  0.36074327  0.82779841  1
  Na  Na11  1  0.99729692  0.63925673  0.32779841  1
  Na  Na12  1  0.48092126  0.79760956  0.72894845  1
  Na  Na13  1  0.51907874  0.20239044  0.22894845  1
  Na  Na14  1  0.51907874  0.29760956  0.72894845  1
  Na  Na15  1  0.48092126  0.70239044  0.22894845  1
  Na  Na16  1  0.53857245  0.96870006  0.88806588  1
  Na  Na17  1  0.46142755  0.03129994  0.38806588  1
  Na  Na18  1  0.46142755  0.46870006  0.88806588  1
  Na  Na19  1  0.53857245  0.53129994  0.38806588  1
  Na  Na20  1  0.50087243  0.88798485  0.54957396  1
  Na  Na21  1  0.49912757  0.11201515  0.04957396  1
  Na  Na22  1  0.49912757  0.38798485  0.54957396  1
  Na  Na23  1  0.50087243  0.61201515  0.04957396  1
  Er  Er0  1  0.92809777  0.61043125  0.80484605  1
  Er  Er1  1  0.07190223  0.38956875  0.30484605  1
  Er  Er2  1  0.07190223  0.11043125  0.80484605  1
  Er  Er3  1  0.92809777  0.88956875  0.30484605  1
  Er  Er4  1  0.55688541  0.63887843  0.57260276  1
  Er  Er5  1  0.44311459  0.36112157  0.07260276  1
  Er  Er6  1  0.44311459  0.13887843  0.57260276  1
  Er  Er7  1  0.55688541  0.86112157  0.07260276  1
  P  P0  1  0.96930434  0.47543009  0.98104978  1
  P  P1  1  0.03069566  0.52456991  0.48104978  1
  P  P2  1  0.03069566  0.97543009  0.98104978  1
  P  P3  1  0.96930434  0.02456991  0.48104978  1
  P  P4  1  0.99331123  0.22178513  0.65259419  1
  P  P5  1  0.00668877  0.77821487  0.15259419  1
  P  P6  1  0.00668877  0.72178513  0.65259419  1
  P  P7  1  0.99331123  0.27821487  0.15259419  1
  P  P8  1  0.48076927  0.52749284  0.72484762  1
  P  P9  1  0.51923073  0.47250716  0.22484762  1
  P  P10  1  0.51923073  0.02749284  0.72484762  1
  P  P11  1  0.48076927  0.97250716  0.22484762  1
  P  P12  1  0.46130295  0.72664767  0.89620382  1
  P  P13  1  0.53869705  0.27335233  0.39620382  1
  P  P14  1  0.53869705  0.22664767  0.89620382  1
  P  P15  1  0.46130295  0.77335233  0.39620382  1
  O  O0  1  0.57176329  0.80906291  0.85041500  1
  O  O1  1  0.42823671  0.19093709  0.35041500  1
  O  O2  1  0.42823671  0.30906291  0.85041500  1
  O  O3  1  0.57176329  0.69093709  0.35041500  1
  O  O4  1  0.69945126  0.47240391  0.76356943  1
  O  O5  1  0.30054874  0.52759609  0.26356943  1
  O  O6  1  0.30054874  0.97240391  0.76356943  1
  O  O7  1  0.69945126  0.02759609  0.26356943  1
  O  O8  1  0.87517900  0.88147318  0.99421623  1
  O  O9  1  0.12482100  0.11852682  0.49421623  1
  O  O10  1  0.12482100  0.38147318  0.99421623  1
  O  O11  1  0.87517900  0.61852682  0.49421623  1
  O  O12  1  0.79132872  0.77646159  0.61166220  1
  O  O13  1  0.20867128  0.22353841  0.11166220  1
  O  O14  1  0.20867128  0.27646159  0.61166220  1
  O  O15  1  0.79132872  0.72353841  0.11166220  1
  O  O16  1  0.68475127  0.45775215  0.00053906  1
  O  O17  1  0.31524873  0.54224785  0.50053906  1
  O  O18  1  0.31524873  0.95775215  0.00053906  1
  O  O19  1  0.68475127  0.04224785  0.50053906  1
  O  O20  1  0.92147930  0.44178855  0.52695841  1
  O  O21  1  0.07852070  0.55821145  0.02695841  1
  O  O22  1  0.07852070  0.94178855  0.52695841  1
  O  O23  1  0.92147930  0.05821145  0.02695841  1
  O  O24  1  0.77406977  0.00086202  0.76156393  1
  O  O25  1  0.22593023  -0.00086202  0.26156393  1
  O  O26  1  0.22593023  0.50086202  0.76156393  1
  O  O27  1  0.77406977  0.49913798  0.26156393  1
  O  O28  1  0.61765890  0.63265371  0.88510338  1
  O  O29  1  0.38234110  0.36734629  0.38510338  1
  O  O30  1  0.38234110  0.13265371  0.88510338  1
  O  O31  1  0.61765890  0.86734629  0.38510338  1
  O  O32  1  0.53815829  0.63580361  0.73177040  1
  O  O33  1  0.46184171  0.36419639  0.23177040  1
  O  O34  1  0.46184171  0.13580361  0.73177040  1
  O  O35  1  0.53815829  0.86419639  0.23177040  1
  O  O36  1  0.94853831  0.61346346  0.64626250  1
  O  O37  1  0.05146169  0.38653654  0.14626250  1
  O  O38  1  0.05146169  0.11346346  0.64626250  1
  O  O39  1  0.94853831  0.88653654  0.14626250  1
  O  O40  1  0.82129231  0.20753648  0.87444172  1
  O  O41  1  0.17870769  0.79246352  0.37444172  1
  O  O42  1  0.17870769  0.70753648  0.87444172  1
  O  O43  1  0.82129231  0.29246352  0.37444172  1
  O  O44  1  0.99159826  0.25152487  0.73373742  1
  O  O45  1  0.00840174  0.74847513  0.23373742  1
  O  O46  1  0.00840174  0.75152487  0.73373742  1
  O  O47  1  0.99159826  0.24847513  0.23373742  1
  O  O48  1  0.52722746  0.99892088  0.64328245  1
  O  O49  1  0.47277254  0.00107912  0.14328245  1
  O  O50  1  0.47277254  0.49892088  0.64328245  1
  O  O51  1  0.52722746  0.50107912  0.14328245  1
  O  O52  1  0.00682800  0.99778409  0.89862105  1
  O  O53  1  0.99317200  0.00221591  0.39862105  1
  O  O54  1  0.99317200  0.49778409  0.89862105  1
  O  O55  1  0.00682800  0.50221591  0.39862105  1
  O  O56  1  0.26431584  0.74822483  0.61764097  1
  O  O57  1  0.73568416  0.25177517  0.11764097  1
  O  O58  1  0.73568416  0.24822483  0.61764097  1
  O  O59  1  0.26431584  0.75177517  0.11764097  1
  O  O60  1  0.46736923  0.75013584  0.97871265  1
  O  O61  1  0.53263077  0.24986416  0.47871265  1
  O  O62  1  0.53263077  0.25013584  0.97871265  1
  O  O63  1  0.46736923  0.74986416  0.47871265  1
loop_
_geom_bond_atom_site_label_1
_geom_bond_atom_site_label_2
_geom_bond_distance
_geom_bond_site_symmetry_2
Na0 O23 2.332964 1_556
Na0 O40 2.359525 1_555
Na0 O10 2.384623 1_655
Na0 O62 2.485191 1_555
Na0 O13 2.492990 1_656
Na0 O57 2.730808 1_556
Na0 O62 2.909153 1_655
Na1 O22 2.332964 1_555
Na1 O41 2.359525 1_555
Na1 O11 2.384623 1_455
Na1 O63 2.485191 1_555
Na1 O12 2.492990 1_455
Na1 O56 2.730808 1_555
Na1 O63 2.909153 1_455
Na2 O21 2.332964 1_556
Na2 O42 2.359525 1_555
Na2 O8 2.384623 1_455
Na2 O60 2.485191 1_555
Na2 O15 2.492990 1_456
Na2 O59 2.730808 1_556
Na2 O60 2.909153 1_455
Na3 O20 2.332964 1_555
Na3 O43 2.359525 1_555
Na3 O9 2.384623 1_655
Na3 O61 2.485191 1_555
Na3 O14 2.492990 1_655
Na3 O58 2.730808 1_555
Na3 O61 2.909153 1_655
Na4 O38 2.264770 1_665
Na4 O22 2.314737 1_655
Na4 O24 2.470678 1_565
Na4 O48 2.554465 1_555
Na4 O6 2.679136 1_655
Na4 O12 2.751357 1_555
Na4 O48 2.903077 1_655
Na5 O39 2.264770 1_445
Na5 O23 2.314737 1_455
Na5 O25 2.470678 1_555
Na5 O49 2.554465 1_555
Na5 O7 2.679136 1_455
Na5 O13 2.751357 1_555
Na5 O49 2.903077 1_455
Na6 O36 2.264770 1_455
Na6 O20 2.314737 1_455
Na6 O26 2.470678 1_555
Na6 O50 2.554465 1_555
Na6 O4 2.679136 1_455
Na6 O14 2.751357 1_555
Na6 O50 2.903077 1_455
Na7 O37 2.264770 1_655
Na7 O21 2.314737 1_655
Na7 O27 2.470678 1_555
Na7 O51 2.554465 1_555
Na7 O5 2.679136 1_655
Na7 O15 2.751357 1_555
Na7 O51 2.903077 1_655
Na8 O46 2.308586 1_655
Na8 O52 2.310710 1_655
Na8 O0 2.400871 1_555
Na8 O42 2.488459 1_655
Na8 O6 2.528258 1_655
Na8 O24 2.585076 1_565
Na9 O47 2.308586 1_455
Na9 O53 2.310710 1_455
Na9 O1 2.400871 1_555
Na9 O43 2.488459 1_455
Na9 O7 2.528258 1_455
Na9 O25 2.585076 1_555
Na10 O44 2.308586 1_455
Na10 O54 2.310710 1_455
Na10 O2 2.400871 1_555
Na10 O40 2.488459 1_455
Na10 O4 2.528258 1_455
Na10 O26 2.585076 1_555
Na11 O45 2.308586 1_655
Na11 O55 2.310710 1_655
Na11 O3 2.400871 1_555
Na11 O41 2.488459 1_655
Na11 O5 2.528258 1_655
Na11 O27 2.585076 1_555
Na12 O32 2.267822 1_555
Na12 O0 2.302737 1_555
Na12 O56 2.454039 1_555
Na12 O46 2.583411 1_555
Na12 O6 2.685728 1_555
Na12 O12 2.736963 1_555
Na12 O46 2.866031 1_655
Na13 O33 2.267822 1_555
Na13 O1 2.302737 1_555
Na13 O57 2.454039 1_555
Na13 O47 2.583411 1_555
Na13 O7 2.685728 1_555
Na13 O13 2.736963 1_555
Na13 O47 2.866031 1_455
Na14 O34 2.267822 1_555
Na14 O2 2.302737 1_555
Na14 O58 2.454039 1_555
Na14 O44 2.583411 1_555
Na14 O4 2.685728 1_555
Na14 O14 2.736963 1_555
Na14 O44 2.866031 1_455
Na15 O35 2.267822 1_555
Na15 O3 2.302737 1_555
Na15 O59 2.454039 1_555
Na15 O45 2.583411 1_555
Na15 O5 2.685728 1_555
Na15 O15 2.736963 1_555
Na15 O45 2.866031 1_655
Na16 O0 2.330184 1_555
Na16 O18 2.397326 1_556
Na16 O30 2.422885 1_565
Na16 O52 2.519016 1_655
Na16 O6 2.625107 1_555
Na16 O24 2.688241 1_565
Na16 O52 2.850358 1_555
Na16 O8 2.914773 1_555
Na17 O1 2.330184 1_555
Na17 O19 2.397326 1_555
Na17 O31 2.422885 1_545
Na17 O53 2.519016 1_455
Na17 O7 2.625107 1_555
Na17 O25 2.688241 1_555
Na17 O53 2.850358 1_555
Na17 O9 2.914773 1_555
Na18 O2 2.330184 1_555
Na18 O16 2.397326 1_556
Na18 O28 2.422885 1_555
Na18 O54 2.519016 1_455
Na18 O4 2.625107 1_555
Na18 O26 2.688241 1_555
Na18 O54 2.850358 1_555
Na18 O10 2.914773 1_555
Na19 O3 2.330184 1_555
Na19 O17 2.397326 1_555
Na19 O29 2.422885 1_555
Na19 O55 2.519016 1_655
Na19 O5 2.625107 1_555
Na19 O27 2.688241 1_555
Na19 O55 2.850358 1_555
Na19 O11 2.914773 1_555
Na20 O48 2.322899 1_555
Na20 O63 2.329691 1_555
Na20 O22 2.394108 1_555
Na20 O12 2.465931 1_555
Na20 O19 2.521621 1_565
Na20 O56 2.630431 1_555
Na21 O49 2.322899 1_555
Na21 O62 2.329691 1_554
Na21 O23 2.394108 1_555
Na21 O13 2.465931 1_555
Na21 O18 2.521621 1_545
Na21 O57 2.630431 1_555
Na22 O50 2.322899 1_555
Na22 O61 2.329691 1_555
Na22 O20 2.394108 1_555
Na22 O14 2.465931 1_555
Na22 O17 2.521621 1_555
Na22 O58 2.630431 1_555
Na23 O51 2.322899 1_555
Na23 O60 2.329691 1_554
Na23 O21 2.394108 1_555
Na23 O15 2.465931 1_555
Na23 O16 2.521621 1_555
Na23 O59 2.630431 1_555
Er0 O28 2.235789 1_555
Er0 O42 2.287958 1_655
Er0 O26 2.332676 1_655
Er0 O54 2.360741 1_555
Er0 O4 2.391939 1_555
Er0 O46 2.397663 1_655
Er0 O32 2.492254 1_555
Er1 O29 2.235789 1_555
Er1 O43 2.287958 1_455
Er1 O27 2.332676 1_455
Er1 O55 2.360741 1_555
Er1 O5 2.391939 1_555
Er1 O47 2.397663 1_455
Er1 O33 2.492254 1_555
Er2 O30 2.235789 1_555
Er2 O40 2.287958 1_455
Er2 O24 2.332676 1_455
Er2 O52 2.360741 1_545
Er2 O6 2.391939 1_545
Er2 O44 2.397663 1_455
Er2 O34 2.492254 1_555
Er3 O31 2.235789 1_555
Er3 O41 2.287958 1_655
Er3 O25 2.332676 1_665
Er3 O53 2.360741 1_565
Er3 O7 2.391939 1_565
Er3 O45 2.397663 1_655
Er3 O35 2.492254 1_555
Er4 O11 2.240597 1_555
Er4 O17 2.283160 1_555
Er4 O56 2.323348 1_555
Er4 O63 2.369540 1_555
Er4 O50 2.384107 1_555
Er4 O12 2.389994 1_555
Er4 O36 2.505711 1_555
Er5 O10 2.240597 1_554
Er5 O16 2.283160 1_555
Er5 O57 2.323348 1_555
Er5 O62 2.369540 1_554
Er5 O51 2.384107 1_555
Er5 O13 2.389994 1_555
Er5 O37 2.505711 1_555
Er6 O9 2.240597 1_555
Er6 O19 2.283160 1_555
Er6 O58 2.323348 1_555
Er6 O61 2.369540 1_555
Er6 O48 2.384107 1_545
Er6 O14 2.389994 1_555
Er6 O38 2.505711 1_555
Er7 O8 2.240597 1_554
Er7 O18 2.283160 1_555
Er7 O59 2.323348 1_555
Er7 O60 2.369540 1_554
Er7 O49 2.384107 1_565
Er7 O15 2.389994 1_555
Er7 O39 2.505711 1_555
O0 P12 1.539066 1_555
O1 P13 1.539066 1_555
O2 P14 1.539066 1_555
O3 P15 1.539066 1_555
O4 P8 1.561432 1_555
O5 P9 1.561432 1_555
O6 P10 1.561432 1_565
O7 P11 1.561432 1_545
O8 P2 1.561824 1_655
O9 P3 1.561824 1_455
O10 P0 1.561824 1_455
O11 P1 1.561824 1_655
O12 P6 1.564974 1_655
O13 P7 1.564974 1_455
O14 P4 1.564974 1_455
O15 P5 1.564974 1_655
O16 P0 1.568162 1_554
O17 P1 1.568162 1_555
O18 P2 1.568162 1_554
O19 P3 1.568162 1_555
O20 P1 1.541585 1_655
O21 P0 1.541585 1_454
O22 P3 1.541585 1_465
O23 P2 1.541585 1_644
O24 P10 1.554881 1_555
O25 P11 1.554881 1_545
O26 P8 1.554881 1_555
O27 P9 1.554881 1_555
O28 P12 1.559110 1_555
O29 P13 1.559110 1_555
O30 P14 1.559110 1_555
O31 P15 1.559110 1_555
O32 P8 1.539741 1_555
O33 P9 1.539741 1_555
O34 P10 1.539741 1_555
O35 P11 1.539741 1_555
O36 P6 1.539819 1_655
O37 P7 1.539819 1_455
O38 P4 1.539819 1_455
O39 P5 1.539819 1_655
O40 P14 1.571704 1_555
O41 P15 1.571704 1_555
O42 P12 1.571704 1_555
O43 P13 1.571704 1_555
O44 P4 1.556438 1_555
O45 P5 1.556438 1_555
O46 P6 1.556438 1_555
O47 P7 1.556438 1_555
O48 P10 1.560307 1_565
O49 P11 1.560307 1_545
O50 P8 1.560307 1_555
O51 P9 1.560307 1_555
O52 P2 1.560803 1_555
O53 P3 1.560803 1_555
O54 P0 1.560803 1_555
O55 P1 1.560803 1_555
O56 P6 1.553229 1_555
O57 P7 1.553229 1_555
O58 P4 1.553229 1_555
O59 P5 1.553229 1_555
O60 P12 1.560679 1_555
O61 P13 1.560679 1_555
O62 P14 1.560679 1_555
O63 P15 1.560679 1_555
