# generated using pymatgen
data_Si
_symmetry_space_group_name_H-M   'P 1'
_cell_length_a   5.38632364
_cell_length_b   4.99306507
_cell_length_c   6.88934799
_cell_angle_alpha   69.43330295
_cell_angle_beta   109.94676695
_cell_angle_gamma   96.59353651
_symmetry_Int_Tables_number   1
_chemical_formula_structural   Si
_chemical_formula_sum   Si8
_cell_volume   163.06526777
_cell_formula_units_Z   8
loop_
 _symmetry_equiv_pos_site_id
 _symmetry_equiv_pos_as_xyz
  1  'x, y, z'
loop_
 _atom_site_type_symbol
 _atom_site_label
 _atom_site_symmetry_multiplicity
 _atom_site_fract_x
 _atom_site_fract_y
 _atom_site_fract_z
 _atom_site_occupancy
  Si  Si0  1  0.97728030  0.23597232  0.11732634  1
  Si  Si1  1  0.79847627  0.55648959  0.73945655  1
  Si  Si2  1  0.42168071  0.24498104  0.30961421  1
  Si  Si3  1  0.78991518  0.92624781  0.89679295  1
  Si  Si4  1  0.76915083  0.55025868  0.24134155  1
  Si  Si5  1  0.44468611  0.24907867  0.65381084  1
  Si  Si6  1  0.77958068  0.94964987  0.39480353  1
  Si  Si7  1  0.00408392  0.25475503  0.62456503  1
loop_
_geom_bond_atom_site_label_1
_geom_bond_atom_site_label_2
_geom_bond_distance
_geom_bond_site_symmetry_2
Si0 Si2 2.310901 1_655
Si0 Si6 2.439530 1_545
Si0 Si3 2.442270 1_544
Si0 Si1 2.445799 1_554
Si0 Si4 2.539448 1_555
Si1 Si5 2.352229 1_555
Si1 Si7 2.437601 1_655
Si1 Si3 2.458721 1_555
Si1 Si6 2.471442 1_555
Si2 Si5 2.339191 1_555
Si2 Si4 2.342911 1_555
Si2 Si6 2.346916 1_545
Si3 Si5 2.350952 1_565
Si3 Si4 2.484633 1_556
Si3 Si7 2.533544 1_665
Si4 Si7 2.482156 1_655
Si4 Si6 2.552017 1_555
Si5 Si7 2.314905 1_555
Si6 Si7 2.500769 1_665
