# generated using pymatgen
data_Ba3Nd
_symmetry_space_group_name_H-M   'P 1'
_cell_length_a   8.52696585
_cell_length_b   8.52696585
_cell_length_c   6.76857700
_cell_angle_alpha   90.00000000
_cell_angle_beta   90.00000000
_cell_angle_gamma   119.99999884
_symmetry_Int_Tables_number   1
_chemical_formula_structural   Ba3Nd
_chemical_formula_sum   'Ba6 Nd2'
_cell_volume   426.20354527
_cell_formula_units_Z   2
loop_
 _symmetry_equiv_pos_site_id
 _symmetry_equiv_pos_as_xyz
  1  'x, y, z'
loop_
 _atom_site_type_symbol
 _atom_site_label
 _atom_site_symmetry_multiplicity
 _atom_site_fract_x
 _atom_site_fract_y
 _atom_site_fract_z
 _atom_site_occupancy
  Ba  Ba0  1  0.82743800  0.17256200  0.75000000  1
  Ba  Ba1  1  0.34512400  0.17256200  0.75000000  1
  Ba  Ba2  1  0.82743800  0.65487600  0.75000000  1
  Ba  Ba3  1  0.17256200  0.82743800  0.25000000  1
  Ba  Ba4  1  0.65487600  0.82743800  0.25000000  1
  Ba  Ba5  1  0.17256200  0.34512400  0.25000000  1
  Nd  Nd0  1  0.66666700  0.33333300  0.25000000  1
  Nd  Nd1  1  0.33333300  0.66666700  0.75000000  1
loop_
_geom_bond_atom_site_label_1
_geom_bond_atom_site_label_2
_geom_bond_distance
_geom_bond_site_symmetry_2
Ba0 Ba1 4.112675 1_555
Ba0 Ba2 4.112675 1_555
Ba0 Nd0 4.134177 1_555
Ba0 Nd0 4.134177 1_556
Ba0 Ba4 4.236594 1_546
Ba0 Ba4 4.236594 1_545
Ba0 Ba5 4.236594 1_655
Ba0 Ba5 4.236594 1_656
Ba0 Nd1 4.264372 1_545
Ba0 Nd1 4.264372 1_655
Ba0 Ba2 4.414291 1_545
Ba0 Ba1 4.414291 1_655
Ba1 Ba2 4.112675 1_555
Ba1 Nd0 4.134181 1_555
Ba1 Nd0 4.134181 1_556
Ba1 Ba5 4.236594 1_556
Ba1 Ba5 4.236594 1_555
Ba1 Ba3 4.236594 1_546
Ba1 Ba3 4.236594 1_545
Ba1 Nd1 4.264368 1_545
Ba1 Nd1 4.264376 1_555
Ba1 Ba2 4.414291 1_445
Ba2 Nd0 4.134181 1_555
Ba2 Nd0 4.134181 1_556
Ba2 Ba4 4.236594 1_555
Ba2 Ba4 4.236594 1_556
Ba2 Ba3 4.236594 1_656
Ba2 Ba3 4.236594 1_655
Ba2 Nd1 4.264368 1_655
Ba2 Nd1 4.264376 1_555
Ba3 Ba4 4.112675 1_555
Ba3 Ba5 4.112675 1_555
Ba3 Nd1 4.134177 1_554
Ba3 Nd1 4.134177 1_555
Ba3 Nd0 4.264372 1_565
Ba3 Nd0 4.264372 1_455
Ba3 Ba4 4.414291 1_455
Ba3 Ba5 4.414291 1_565
Ba4 Ba5 4.112675 1_555
Ba4 Nd1 4.134181 1_555
Ba4 Nd1 4.134181 1_554
Ba4 Nd0 4.264368 1_565
Ba4 Nd0 4.264376 1_555
Ba4 Ba5 4.414291 1_665
Ba5 Nd1 4.134181 1_555
Ba5 Nd1 4.134181 1_554
Ba5 Nd0 4.264368 1_455
Ba5 Nd0 4.264376 1_555
