# generated using pymatgen
data_KEu(SnO3)2
_symmetry_space_group_name_H-M   'P 1'
_cell_length_a   5.68495168
_cell_length_b   5.87422685
_cell_length_c   8.13702843
_cell_angle_alpha   90.00000000
_cell_angle_beta   90.00000000
_cell_angle_gamma   90.00000000
_symmetry_Int_Tables_number   1
_chemical_formula_structural   KEu(SnO3)2
_chemical_formula_sum   'K2 Eu2 Sn4 O12'
_cell_volume   271.73358913
_cell_formula_units_Z   2
loop_
 _symmetry_equiv_pos_site_id
 _symmetry_equiv_pos_as_xyz
  1  'x, y, z'
loop_
 _atom_site_type_symbol
 _atom_site_label
 _atom_site_symmetry_multiplicity
 _atom_site_fract_x
 _atom_site_fract_y
 _atom_site_fract_z
 _atom_site_occupancy
  K  K0  1  0.49508422  0.77521771  -0.00000000  1
  K  K1  1  0.99508422  0.22478229  0.50000000  1
  Eu  Eu0  1  0.51581530  0.68601093  0.50000000  1
  Eu  Eu1  1  0.01581530  0.31398907  -0.00000000  1
  Sn  Sn0  1  0.00143722  0.76059460  0.25160987  1
  Sn  Sn1  1  0.50143722  0.23940540  0.24839013  1
  Sn  Sn2  1  0.00143722  0.76059460  0.74839013  1
  Sn  Sn3  1  0.50143722  0.23940540  0.75160987  1
  O  O0  1  0.45000771  0.28490550  0.50000000  1
  O  O1  1  0.95000771  0.71509450  -0.00000000  1
  O  O2  1  0.60293304  0.23612928  -0.00000000  1
  O  O3  1  0.10293304  0.76387072  0.50000000  1
  O  O4  1  0.19166282  0.05590224  0.20064980  1
  O  O5  1  0.69166282  0.94409776  0.29935020  1
  O  O6  1  0.77497982  0.47664190  0.71668134  1
  O  O7  1  0.27497982  0.52335810  0.78331866  1
  O  O8  1  0.77497982  0.47664190  0.28331866  1
  O  O9  1  0.27497982  0.52335810  0.21668134  1
  O  O10  1  0.19166282  0.05590224  0.79935020  1
  O  O11  1  0.69166282  0.94409776  0.70064980  1
loop_
_geom_bond_atom_site_label_1
_geom_bond_atom_site_label_2
_geom_bond_distance
_geom_bond_site_symmetry_2
K0 O1 2.610222 1_555
K0 O7 2.619779 1_554
K0 O9 2.619779 1_555
K0 O2 2.776051 1_565
K0 O11 2.857667 1_554
K0 O5 2.857667 1_555
K0 O10 2.891306 1_564
K0 O4 2.891306 1_565
K1 O0 2.610222 1_655
K1 O6 2.619779 1_555
K1 O8 2.619779 1_555
K1 O3 2.776051 1_645
K1 O4 2.857667 1_655
K1 O10 2.857667 1_655
K1 O5 2.891306 1_545
K1 O11 2.891306 1_545
Eu0 O0 2.385700 1_555
Eu0 O3 2.391361 1_555
Eu0 O11 2.442027 1_555
Eu0 O5 2.442027 1_555
Eu0 O6 2.606147 1_555
Eu0 O8 2.606147 1_555
Eu0 O7 2.846433 1_555
Eu0 O9 2.846433 1_555
Eu1 O1 2.385700 1_455
Eu1 O2 2.391361 1_455
Eu1 O10 2.442027 1_554
Eu1 O4 2.442027 1_555
Eu1 O7 2.606147 1_554
Eu1 O9 2.606147 1_555
Eu1 O8 2.846433 1_455
Eu1 O6 2.846433 1_454
O0 Sn3 2.085327 1_555
O0 Sn1 2.085327 1_555
O1 Sn2 2.085327 1_654
O1 Sn0 2.085327 1_655
O2 Sn3 2.101993 1_554
O2 Sn1 2.101993 1_555
O3 Sn0 2.101993 1_555
O3 Sn2 2.101993 1_555
O4 Sn0 2.085814 1_545
O4 Sn1 2.100991 1_555
O5 Sn1 2.085814 1_565
O5 Sn0 2.100991 1_655
O6 Sn3 2.107394 1_555
O6 Sn2 2.122782 1_655
O7 Sn2 2.107394 1_555
O7 Sn3 2.122782 1_555
O8 Sn1 2.107394 1_555
O8 Sn0 2.122782 1_655
O9 Sn0 2.107394 1_555
O9 Sn1 2.122782 1_555
O10 Sn2 2.085814 1_545
O10 Sn3 2.100991 1_555
O11 Sn3 2.085814 1_565
O11 Sn2 2.100991 1_655
