# generated using pymatgen
data_BaPr(SnS3)2
_symmetry_space_group_name_H-M   'P 1'
_cell_length_a   4.06082400
_cell_length_b   12.09677800
_cell_length_c   20.27762100
_cell_angle_alpha   90.00000000
_cell_angle_beta   90.00000000
_cell_angle_gamma   90.00000000
_symmetry_Int_Tables_number   1
_chemical_formula_structural   BaPr(SnS3)2
_chemical_formula_sum   'Ba4 Pr4 Sn8 S24'
_cell_volume   996.09527335
_cell_formula_units_Z   4
loop_
 _symmetry_equiv_pos_site_id
 _symmetry_equiv_pos_as_xyz
  1  'x, y, z'
loop_
 _atom_site_type_symbol
 _atom_site_label
 _atom_site_symmetry_multiplicity
 _atom_site_fract_x
 _atom_site_fract_y
 _atom_site_fract_z
 _atom_site_occupancy
  Ba  Ba0  1  0.50000000  0.68219300  0.92106900  1
  Ba  Ba1  1  0.50000000  0.18219300  0.07893100  1
  Ba  Ba2  1  0.50000000  0.24683900  0.63812800  1
  Ba  Ba3  1  0.50000000  0.74683900  0.36187200  1
  Pr  Pr0  1  0.50000000  0.31573000  0.87949900  1
  Pr  Pr1  1  0.50000000  0.81573000  0.12050100  1
  Pr  Pr2  1  0.50000000  0.12750000  0.41847300  1
  Pr  Pr3  1  0.50000000  0.62750000  0.58152700  1
  Sn  Sn0  1  0.50000000  0.89607800  0.74464400  1
  Sn  Sn1  1  0.50000000  0.39607800  0.25535600  1
  Sn  Sn2  1  0.00000000  0.00612100  0.90663400  1
  Sn  Sn3  1  0.00000000  0.50612100  0.09336600  1
  Sn  Sn4  1  0.00000000  0.49876000  0.75140200  1
  Sn  Sn5  1  0.00000000  0.99876000  0.24859800  1
  Sn  Sn6  1  0.00000000  0.45354700  0.42435700  1
  Sn  Sn7  1  0.00000000  0.95354700  0.57564300  1
  S  S0  1  0.50000000  0.94021000  0.98312700  1
  S  S1  1  0.50000000  0.44021000  0.01687300  1
  S  S2  1  0.50000000  0.07826400  0.83256700  1
  S  S3  1  0.50000000  0.57826400  0.16743300  1
  S  S4  1  0.50000000  0.40277300  0.49190800  1
  S  S5  1  0.50000000  0.90277300  0.50809200  1
  S  S6  1  0.50000000  0.12074200  0.25847000  1
  S  S7  1  0.50000000  0.62074200  0.74153000  1
  S  S8  1  0.00000000  0.20215900  0.95708200  1
  S  S9  1  0.00000000  0.70215900  0.04291800  1
  S  S10  1  0.00000000  0.49428600  0.87832600  1
  S  S11  1  0.00000000  0.99428600  0.12167400  1
  S  S12  1  0.00000000  0.83112000  0.83776400  1
  S  S13  1  0.00000000  0.33112000  0.16223600  1
  S  S14  1  0.00000000  0.29588500  0.76851600  1
  S  S15  1  0.00000000  0.79588500  0.23148400  1
  S  S16  1  0.00000000  0.04856100  0.68234200  1
  S  S17  1  0.00000000  0.54856100  0.31765800  1
  S  S18  1  0.00000000  0.46449300  0.62770300  1
  S  S19  1  0.00000000  0.96449300  0.37229700  1
  S  S20  1  0.00000000  0.14845700  0.52305600  1
  S  S21  1  0.00000000  0.64845700  0.47694400  1
  S  S22  1  0.00000000  0.27148200  0.36173800  1
  S  S23  1  0.00000000  0.77148200  0.63826200  1
loop_
_geom_bond_atom_site_label_1
_geom_bond_atom_site_label_2
_geom_bond_distance
_geom_bond_site_symmetry_2
Ba0 S10 3.168696 1_555
Ba0 S10 3.168696 1_655
Ba0 S12 3.197123 1_655
Ba0 S12 3.197123 1_555
Ba0 S9 3.207148 1_656
Ba0 S9 3.207148 1_556
Ba0 S0 3.365304 1_555
Ba0 S1 3.513201 1_556
Ba0 S7 3.715740 1_555
Ba1 S11 3.168696 1_645
Ba1 S11 3.168696 1_545
Ba1 S13 3.197123 1_555
Ba1 S13 3.197123 1_655
Ba1 S8 3.207148 1_654
Ba1 S8 3.207148 1_554
Ba1 S1 3.365304 1_555
Ba1 S0 3.513201 1_544
Ba1 S6 3.715740 1_555
Ba2 S16 3.267921 1_655
Ba2 S16 3.267921 1_555
Ba2 S20 3.314154 1_555
Ba2 S20 3.314154 1_655
Ba2 S18 3.331589 1_555
Ba2 S18 3.331589 1_655
Ba2 S14 3.386014 1_555
Ba2 S14 3.386014 1_655
Ba2 S4 3.514159 1_555
Ba3 S17 3.267921 1_655
Ba3 S17 3.267921 1_555
Ba3 S21 3.314154 1_655
Ba3 S21 3.314154 1_555
Ba3 S19 3.331589 1_555
Ba3 S19 3.331589 1_655
Ba3 S15 3.386014 1_655
Ba3 S15 3.386014 1_555
Ba3 S5 3.514159 1_555
Pr0 S8 2.912898 1_655
Pr0 S8 2.912898 1_555
Pr0 S10 2.964546 1_555
Pr0 S10 2.964546 1_655
Pr0 S2 3.026112 1_555
Pr0 S14 3.040530 1_555
Pr0 S14 3.040530 1_655
Pr0 S1 3.166563 1_556
Pr1 S9 2.912898 1_555
Pr1 S9 2.912898 1_655
Pr1 S11 2.964546 1_555
Pr1 S11 2.964546 1_655
Pr1 S3 3.026112 1_555
Pr1 S15 3.040530 1_555
Pr1 S15 3.040530 1_655
Pr1 S0 3.166563 1_554
Pr2 S22 2.911991 1_555
Pr2 S22 2.911991 1_655
Pr2 S20 2.946894 1_655
Pr2 S20 2.946894 1_555
Pr2 S19 2.981197 1_545
Pr2 S19 2.981197 1_645
Pr2 S6 3.245510 1_555
Pr2 S5 3.269943 1_545
Pr2 S4 3.647701 1_555
Pr3 S23 2.911991 1_655
Pr3 S23 2.911991 1_555
Pr3 S21 2.946894 1_555
Pr3 S21 2.946894 1_655
Pr3 S18 2.981197 1_555
Pr3 S18 2.981197 1_655
Pr3 S7 3.245510 1_555
Pr3 S4 3.269943 1_555
Pr3 S5 3.647701 1_555
S0 Sn2 2.676598 1_565
S0 Sn2 2.676598 1_665
S1 Sn3 2.676598 1_555
S1 Sn3 2.676598 1_655
S2 Sn2 2.672056 1_655
S2 Sn2 2.672056 1_555
S2 Sn0 2.834720 1_545
S3 Sn3 2.672056 1_555
S3 Sn3 2.672056 1_655
S3 Sn1 2.834720 1_555
S4 Sn6 2.525093 1_555
S4 Sn6 2.525093 1_655
S5 Sn7 2.525093 1_555
S5 Sn7 2.525093 1_655
S6 Sn5 2.517937 1_545
S6 Sn5 2.517937 1_645
S7 Sn4 2.517937 1_655
S7 Sn4 2.517937 1_555
S8 Sn2 2.582659 1_555
S9 Sn3 2.582659 1_555
S10 Sn4 2.574286 1_555
S11 Sn5 2.574286 1_555
S12 Sn2 2.536087 1_565
S12 Sn0 2.881930 1_555
S12 Sn0 2.881930 1_455
S13 Sn3 2.536087 1_555
S13 Sn1 2.881930 1_455
S13 Sn1 2.881930 1_555
S14 Sn4 2.478549 1_555
S15 Sn5 2.478549 1_555
S16 Sn7 2.449941 1_545
S16 Sn0 3.020094 1_445
S16 Sn0 3.020094 1_545
S17 Sn6 2.449941 1_555
S17 Sn1 3.020094 1_555
S17 Sn1 3.020094 1_455
S18 Sn4 2.542342 1_555
S19 Sn5 2.542342 1_555
S20 Sn7 2.587706 1_545
S21 Sn6 2.587706 1_555
S22 Sn6 2.542217 1_555
S23 Sn7 2.542217 1_555
