# generated using pymatgen
data_PrEuMnSbO6
_symmetry_space_group_name_H-M   'P 1'
_cell_length_a   5.75134237
_cell_length_b   5.75134237
_cell_length_c   5.75134237
_cell_angle_alpha   60.00000000
_cell_angle_beta   60.00000000
_cell_angle_gamma   60.00000000
_symmetry_Int_Tables_number   1
_chemical_formula_structural   PrEuMnSbO6
_chemical_formula_sum   'Pr1 Eu1 Mn1 Sb1 O6'
_cell_volume   134.52179881
_cell_formula_units_Z   1
loop_
 _symmetry_equiv_pos_site_id
 _symmetry_equiv_pos_as_xyz
  1  'x, y, z'
loop_
 _atom_site_type_symbol
 _atom_site_label
 _atom_site_symmetry_multiplicity
 _atom_site_fract_x
 _atom_site_fract_y
 _atom_site_fract_z
 _atom_site_occupancy
  Pr  Pr0  1  0.75000000  0.75000000  0.75000000  1
  Eu  Eu0  1  0.25000000  0.25000000  0.25000000  1
  Mn  Mn0  1  -0.00000000  0.00000000  0.00000000  1
  Sb  Sb0  1  0.50000000  0.50000000  0.50000000  1
  O  O0  1  0.74324596  0.25675404  0.25675404  1
  O  O1  1  0.25675404  0.74324596  0.74324596  1
  O  O2  1  0.74324596  0.25675404  0.74324596  1
  O  O3  1  0.25675404  0.74324596  0.25675404  1
  O  O4  1  0.74324596  0.74324596  0.25675404  1
  O  O5  1  0.25675404  0.25675404  0.74324596  1
loop_
_geom_bond_atom_site_label_1
_geom_bond_atom_site_label_2
_geom_bond_distance
_geom_bond_site_symmetry_2
Eu0 O4 2.876196 1_455
Eu0 O1 2.876196 1_554
Eu0 O3 2.876196 1_545
Eu0 O2 2.876196 1_455
Eu0 O0 2.876196 1_455
Eu0 O5 2.876196 1_555
Eu0 O5 2.876196 1_554
Eu0 O1 2.876196 1_545
Eu0 O2 2.876196 1_554
Eu0 O4 2.876196 1_545
Eu0 O3 2.876196 1_555
Eu0 O0 2.876196 1_555
Mn0 O1 2.088341 1_544
Mn0 O0 2.088341 1_455
Mn0 O4 2.088341 1_445
Mn0 O3 2.088341 1_545
Mn0 O5 2.088341 1_554
Mn0 O2 2.088341 1_454
O0 Sb0 1.978472 1_555
O0 Pr0 2.876196 1_554
O0 Pr0 2.876196 1_545
O1 Sb0 1.978472 1_555
O1 Pr0 2.876196 1_555
O1 Pr0 2.876196 1_455
O2 Sb0 1.978472 1_555
O2 Pr0 2.876196 1_555
O2 Pr0 2.876196 1_545
O3 Sb0 1.978472 1_555
O3 Pr0 2.876196 1_554
O3 Pr0 2.876196 1_455
O4 Sb0 1.978472 1_555
O4 Pr0 2.876196 1_555
O4 Pr0 2.876196 1_554
O5 Sb0 1.978472 1_555
O5 Pr0 2.876196 1_545
O5 Pr0 2.876196 1_455
