# generated using pymatgen
data_NaCa3Fe4(SiO3)8
_symmetry_space_group_name_H-M   'P 1'
_cell_length_a   7.70031409
_cell_length_b   7.70031409
_cell_length_c   9.98506993
_cell_angle_alpha   62.79150036
_cell_angle_beta   62.79150036
_cell_angle_gamma   72.03905514
_symmetry_Int_Tables_number   1
_chemical_formula_structural   NaCa3Fe4(SiO3)8
_chemical_formula_sum   'Na1 Ca3 Fe4 Si8 O24'
_cell_volume   464.58095635
_cell_formula_units_Z   1
loop_
 _symmetry_equiv_pos_site_id
 _symmetry_equiv_pos_as_xyz
  1  'x, y, z'
loop_
 _atom_site_type_symbol
 _atom_site_label
 _atom_site_symmetry_multiplicity
 _atom_site_fract_x
 _atom_site_fract_y
 _atom_site_fract_z
 _atom_site_occupancy
  Na  Na0  1  0.67251900  0.32748100  0.50000000  1
  Ca  Ca0  1  0.17279600  0.82720400  0.00000000  1
  Ca  Ca1  1  0.32576900  0.18016500  0.24742400  1
  Ca  Ca2  1  0.81983500  0.67423100  0.75257600  1
  Fe  Fe0  1  0.78289800  0.21710200  0.00000000  1
  Fe  Fe1  1  0.72069400  0.77492400  0.25435700  1
  Fe  Fe2  1  0.28262800  0.71737200  0.50000000  1
  Fe  Fe3  1  0.22507600  0.27930600  0.74564300  1
  Si  Si0  1  0.52389200  0.96245100  0.54480400  1
  Si  Si1  1  0.45982800  0.52730500  0.79104100  1
  Si  Si2  1  0.02773400  0.45782300  0.04252700  1
  Si  Si3  1  0.03754900  0.47610800  0.45519600  1
  Si  Si4  1  0.95984100  0.02442700  0.29663500  1
  Si  Si5  1  0.97557300  0.04015900  0.70336500  1
  Si  Si6  1  0.54217700  0.97226600  0.95747300  1
  Si  Si7  1  0.47269500  0.54017200  0.20895900  1
  O  O0  1  0.92090200  0.98456400  0.16750800  1
  O  O1  1  0.47362100  0.91147300  0.42437000  1
  O  O2  1  0.48598300  0.76800500  0.72279200  1
  O  O3  1  0.65889600  0.41302600  0.82361000  1
  O  O4  1  0.40466000  0.50133900  0.66317900  1
  O  O5  1  0.58697400  0.34110400  0.17639000  1
  O  O6  1  0.26978300  0.48379100  0.97099300  1
  O  O7  1  0.23199500  0.51401700  0.27720800  1
  O  O8  1  0.91579900  0.65737000  0.07346400  1
  O  O9  1  0.98857000  0.41581200  0.91381100  1
  O  O10  1  0.84122000  0.59273300  0.42304600  1
  O  O11  1  0.99519700  0.26287400  0.21857900  1
  O  O12  1  0.02070400  0.23389300  0.52751700  1
  O  O13  1  0.15868400  0.91064200  0.33519400  1
  O  O14  1  0.01543600  0.07909800  0.83249200  1
  O  O15  1  0.08935800  0.84131600  0.66480600  1
  O  O16  1  0.76610700  0.97929600  0.47248300  1
  O  O17  1  0.73712600  0.00480300  0.78142100  1
  O  O18  1  0.40726700  0.15878000  0.57695400  1
  O  O19  1  0.58418800  0.01143000  0.08618900  1
  O  O20  1  0.34263000  0.08420100  0.92653600  1
  O  O21  1  0.51620900  0.73021700  0.02900700  1
  O  O22  1  0.49866100  0.59534000  0.33682100  1
  O  O23  1  0.08852700  0.52637900  0.57563000  1
loop_
_geom_bond_atom_site_label_1
_geom_bond_atom_site_label_2
_geom_bond_distance
_geom_bond_site_symmetry_2
Na0 O10 2.395470 1_555
Na0 O18 2.395470 1_555
Na0 O4 2.433079 1_555
Na0 O22 2.433079 1_555
Na0 O16 2.661626 1_545
Na0 O12 2.661626 1_655
Na0 O17 2.906658 1_555
Na0 O11 2.906658 1_555
Ca0 O0 2.337767 1_455
Ca0 O14 2.337767 1_564
Ca0 O20 2.357126 1_564
Ca0 O8 2.357126 1_455
Ca0 O21 2.630403 1_555
Ca0 O6 2.630403 1_554
Ca0 O2 2.838460 1_554
Ca0 O7 2.838460 1_555
Ca1 O5 2.348059 1_555
Ca1 O19 2.372460 1_555
Ca1 O13 2.383944 1_545
Ca1 O1 2.396347 1_545
Ca1 O11 2.543823 1_455
Ca1 O7 2.564486 1_555
Ca1 O6 2.799281 1_554
Ca1 O12 2.821717 1_555
Ca2 O3 2.348059 1_555
Ca2 O9 2.372460 1_555
Ca2 O15 2.383944 1_655
Ca2 O23 2.396347 1_655
Ca2 O17 2.543823 1_565
Ca2 O2 2.564486 1_555
Ca2 O21 2.799281 1_556
Ca2 O16 2.821717 1_555
Fe0 O3 2.123551 1_554
Fe0 O5 2.123551 1_555
Fe0 O19 2.152706 1_555
Fe0 O9 2.152706 1_554
Fe0 O14 2.201399 1_654
Fe0 O0 2.201399 1_545
Fe1 O10 2.032794 1_555
Fe1 O8 2.124590 1_555
Fe1 O22 2.154753 1_555
Fe1 O0 2.183313 1_555
Fe1 O19 2.208650 1_565
Fe1 O1 2.247692 1_555
Fe2 O15 2.038238 1_555
Fe2 O13 2.038238 1_555
Fe2 O4 2.064589 1_555
Fe2 O22 2.064589 1_555
Fe2 O23 2.067634 1_555
Fe2 O1 2.067634 1_555
Fe3 O18 2.032794 1_555
Fe3 O20 2.124590 1_555
Fe3 O4 2.154753 1_555
Fe3 O14 2.183313 1_555
Fe3 O9 2.208650 1_455
Fe3 O23 2.247692 1_555
O0 Si4 1.618253 1_565
O1 Si0 1.643510 1_555
O2 Si0 1.687416 1_555
O2 Si1 1.699993 1_555
O3 Si1 1.610002 1_555
O4 Si1 1.622413 1_555
O5 Si7 1.610002 1_555
O6 Si1 1.682177 1_555
O6 Si2 1.704684 1_556
O7 Si3 1.687416 1_555
O7 Si7 1.699993 1_555
O8 Si2 1.604110 1_655
O9 Si2 1.625500 1_656
O10 Si3 1.593084 1_655
O11 Si2 1.680032 1_655
O11 Si4 1.690714 1_555
O12 Si5 1.672034 1_455
O12 Si3 1.687871 1_555
O13 Si4 1.632044 1_465
O14 Si5 1.618253 1_455
O15 Si5 1.632044 1_465
O16 Si4 1.672034 1_565
O16 Si0 1.687871 1_555
O17 Si6 1.680032 1_545
O17 Si5 1.690714 1_555
O18 Si0 1.593084 1_545
O19 Si6 1.625500 1_544
O20 Si6 1.604110 1_545
O21 Si7 1.682177 1_555
O21 Si6 1.704684 1_554
O22 Si7 1.622413 1_555
O23 Si3 1.643510 1_555
