# generated using pymatgen
data_Th2NiC2
_symmetry_space_group_name_H-M   'P 1'
_cell_length_a   6.68143672
_cell_length_b   6.68143672
_cell_length_c   6.68143672
_cell_angle_alpha   147.18191223
_cell_angle_beta   147.18191223
_cell_angle_gamma   47.09450677
_symmetry_Int_Tables_number   1
_chemical_formula_structural   Th2NiC2
_chemical_formula_sum   'Th2 Ni1 C2'
_cell_volume   87.28235275
_cell_formula_units_Z   1
loop_
 _symmetry_equiv_pos_site_id
 _symmetry_equiv_pos_as_xyz
  1  'x, y, z'
loop_
 _atom_site_type_symbol
 _atom_site_label
 _atom_site_symmetry_multiplicity
 _atom_site_fract_x
 _atom_site_fract_y
 _atom_site_fract_z
 _atom_site_occupancy
  Th  Th0  1  0.35455024  0.35455024  0.00000000  1
  Th  Th1  1  0.64544976  0.64544976  -0.00000000  1
  Ni  Ni0  1  0.00000000  0.00000000  -0.00000000  1
  C  C0  1  0.15579544  0.15579544  0.00000000  1
  C  C1  1  0.84420456  0.84420456  -0.00000000  1
loop_
_geom_bond_atom_site_label_1
_geom_bond_atom_site_label_2
_geom_bond_distance
_geom_bond_site_symmetry_2
C0 Ni0 1.908519 1_555
C0 Th0 2.434778 1_555
C0 Th1 2.672276 1_455
C0 Th1 2.672276 1_556
C0 Th1 2.672276 1_444
C0 Th1 2.672276 1_545
C1 Ni0 1.908519 1_665
C1 Th1 2.434778 1_555
C1 Th0 2.672276 1_666
C1 Th0 2.672276 1_655
C1 Th0 2.672276 1_554
C1 Th0 2.672276 1_565
