# generated using pymatgen
data_CaTiGeO5
_symmetry_space_group_name_H-M   'P 1'
_cell_length_a   5.60933400
_cell_length_b   5.60933400
_cell_length_c   7.21346435
_cell_angle_alpha   75.96751871
_cell_angle_beta   75.96751871
_cell_angle_gamma   106.25842741
_symmetry_Int_Tables_number   1
_chemical_formula_structural   CaTiGeO5
_chemical_formula_sum   'Ca2 Ti2 Ge2 O10'
_cell_volume   199.30810016
_cell_formula_units_Z   2
loop_
 _symmetry_equiv_pos_site_id
 _symmetry_equiv_pos_as_xyz
  1  'x, y, z'
loop_
 _atom_site_type_symbol
 _atom_site_label
 _atom_site_symmetry_multiplicity
 _atom_site_fract_x
 _atom_site_fract_y
 _atom_site_fract_z
 _atom_site_occupancy
  Ca  Ca0  1  0.82739200  0.17260800  0.75000000  1
  Ca  Ca1  1  0.17260800  0.82739200  0.25000000  1
  Ti  Ti0  1  0.50000000  0.50000000  0.00000000  1
  Ti  Ti1  1  0.50000000  0.50000000  0.50000000  1
  Ge  Ge0  1  0.81669600  0.18330400  0.25000000  1
  Ge  Ge1  1  0.18330400  0.81669600  0.75000000  1
  O  O0  1  0.43253600  0.56746400  0.25000000  1
  O  O1  1  0.56746400  0.43253600  0.75000000  1
  O  O2  1  0.75065700  0.86918300  0.42108200  1
  O  O3  1  0.13081700  0.24934300  0.07891800  1
  O  O4  1  0.24934300  0.13081700  0.57891800  1
  O  O5  1  0.86918300  0.75065700  0.92108200  1
  O  O6  1  0.40038500  0.81466900  0.89197000  1
  O  O7  1  0.18533100  0.59961500  0.60803000  1
  O  O8  1  0.59961500  0.18533100  0.10803000  1
  O  O9  1  0.81466900  0.40038500  0.39197000  1
loop_
_geom_bond_atom_site_label_1
_geom_bond_atom_site_label_2
_geom_bond_distance
_geom_bond_site_symmetry_2
Ca0 O1 2.332810 1_555
Ca0 O7 2.436727 1_655
Ca0 O6 2.436727 1_545
Ca0 O5 2.492883 1_545
Ca0 O4 2.492883 1_655
Ca0 O8 2.616830 1_556
Ca0 O9 2.616830 1_555
Ca1 O0 2.332810 1_555
Ca1 O8 2.436727 1_565
Ca1 O9 2.436727 1_455
Ca1 O2 2.492883 1_455
Ca1 O3 2.492883 1_565
Ca1 O7 2.616830 1_555
Ca1 O6 2.616830 1_554
Ge0 O3 1.767261 1_655
Ge0 O2 1.767261 1_545
Ge0 O9 1.771577 1_555
Ge0 O8 1.771577 1_555
Ge1 O4 1.767261 1_565
Ge1 O5 1.767261 1_455
Ge1 O6 1.771577 1_555
Ge1 O7 1.771577 1_555
O0 Ti0 1.902297 1_555
O0 Ti1 1.902297 1_555
O1 Ti1 1.902297 1_555
O1 Ti0 1.902297 1_556
O2 Ti1 1.999812 1_555
O3 Ti0 1.999812 1_555
O4 Ti1 1.999812 1_555
O5 Ti0 1.999812 1_556
O6 Ti0 2.032585 1_556
O7 Ti1 2.032585 1_555
O8 Ti0 2.032585 1_555
O9 Ti1 2.032585 1_555
