# generated using pymatgen
data_AgPd3Se
_symmetry_space_group_name_H-M   'P 1'
_cell_length_a   8.77557700
_cell_length_b   8.77557700
_cell_length_c   8.77557700
_cell_angle_alpha   90.00000000
_cell_angle_beta   90.00000000
_cell_angle_gamma   90.00000000
_symmetry_Int_Tables_number   1
_chemical_formula_structural   AgPd3Se
_chemical_formula_sum   'Ag8 Pd24 Se8'
_cell_volume   675.81378122
_cell_formula_units_Z   8
loop_
 _symmetry_equiv_pos_site_id
 _symmetry_equiv_pos_as_xyz
  1  'x, y, z'
loop_
 _atom_site_type_symbol
 _atom_site_label
 _atom_site_symmetry_multiplicity
 _atom_site_fract_x
 _atom_site_fract_y
 _atom_site_fract_z
 _atom_site_occupancy
  Ag  Ag0  1  0.09366500  0.90633500  0.40633500  1
  Ag  Ag1  1  0.90633500  0.40633500  0.09366500  1
  Ag  Ag2  1  0.40633500  0.09366500  0.90633500  1
  Ag  Ag3  1  0.59366500  0.59366500  0.59366500  1
  Ag  Ag4  1  0.90633500  0.09366500  0.59366500  1
  Ag  Ag5  1  0.09366500  0.59366500  0.90633500  1
  Ag  Ag6  1  0.59366500  0.90633500  0.09366500  1
  Ag  Ag7  1  0.40633500  0.40633500  0.40633500  1
  Pd  Pd0  1  0.86245400  0.08665100  0.22251400  1
  Pd  Pd1  1  0.13754600  0.58665100  0.27748600  1
  Pd  Pd2  1  0.63754600  0.91334900  0.72251400  1
  Pd  Pd3  1  0.36245400  0.41334900  0.77748600  1
  Pd  Pd4  1  0.22251400  0.86245400  0.08665100  1
  Pd  Pd5  1  0.27748600  0.13754600  0.58665100  1
  Pd  Pd6  1  0.72251400  0.63754600  0.91334900  1
  Pd  Pd7  1  0.77748600  0.36245400  0.41334900  1
  Pd  Pd8  1  0.08665100  0.22251400  0.86245400  1
  Pd  Pd9  1  0.58665100  0.27748600  0.13754600  1
  Pd  Pd10  1  0.91334900  0.72251400  0.63754600  1
  Pd  Pd11  1  0.41334900  0.77748600  0.36245400  1
  Pd  Pd12  1  0.13754600  0.91334900  0.77748600  1
  Pd  Pd13  1  0.86245400  0.41334900  0.72251400  1
  Pd  Pd14  1  0.36245400  0.08665100  0.27748600  1
  Pd  Pd15  1  0.63754600  0.58665100  0.22251400  1
  Pd  Pd16  1  0.77748600  0.13754600  0.91334900  1
  Pd  Pd17  1  0.72251400  0.86245400  0.41334900  1
  Pd  Pd18  1  0.27748600  0.36245400  0.08665100  1
  Pd  Pd19  1  0.22251400  0.63754600  0.58665100  1
  Pd  Pd20  1  0.91334900  0.77748600  0.13754600  1
  Pd  Pd21  1  0.41334900  0.72251400  0.86245400  1
  Pd  Pd22  1  0.08665100  0.27748600  0.36245400  1
  Pd  Pd23  1  0.58665100  0.22251400  0.63754600  1
  Se  Se0  1  0.37682500  0.62317500  0.12317500  1
  Se  Se1  1  0.62317500  0.12317500  0.37682500  1
  Se  Se2  1  0.12317500  0.37682500  0.62317500  1
  Se  Se3  1  0.87682500  0.87682500  0.87682500  1
  Se  Se4  1  0.62317500  0.37682500  0.87682500  1
  Se  Se5  1  0.37682500  0.87682500  0.62317500  1
  Se  Se6  1  0.87682500  0.62317500  0.37682500  1
  Se  Se7  1  0.12317500  0.12317500  0.12317500  1
loop_
_geom_bond_atom_site_label_1
_geom_bond_atom_site_label_2
_geom_bond_distance
_geom_bond_site_symmetry_2
Ag0 Ag4 2.847368 1_465
Ag0 Pd0 3.036940 1_465
Ag0 Pd10 3.036940 1_455
Ag0 Pd5 3.036940 1_565
Ag0 Pd4 3.049124 1_555
Ag0 Pd1 3.049124 1_555
Ag0 Pd11 3.049124 1_555
Ag0 Pd20 3.057170 1_455
Ag0 Pd14 3.057170 1_565
Ag0 Pd19 3.057170 1_555
Ag0 Se6 3.140504 1_455
Ag0 Se7 3.140504 1_565
Ag0 Se5 3.140504 1_555
Ag0 Pd12 3.280327 1_555
Ag0 Pd17 3.280327 1_455
Ag0 Pd22 3.280327 1_565
Ag1 Ag5 2.847368 1_654
Ag1 Pd8 3.036940 1_654
Ag1 Pd1 3.036940 1_655
Ag1 Pd6 3.036940 1_554
Ag1 Pd0 3.049124 1_555
Ag1 Pd9 3.049124 1_555
Ag1 Pd7 3.049124 1_555
Ag1 Pd16 3.057170 1_554
Ag1 Pd22 3.057170 1_655
Ag1 Pd15 3.057170 1_555
Ag1 Se7 3.140504 1_655
Ag1 Se4 3.140504 1_554
Ag1 Se6 3.140504 1_555
Ag1 Pd13 3.280327 1_554
Ag1 Pd20 3.280327 1_555
Ag1 Pd18 3.280327 1_655
Ag2 Ag6 2.847368 1_546
Ag2 Pd4 3.036940 1_546
Ag2 Pd9 3.036940 1_556
Ag2 Pd2 3.036940 1_545
Ag2 Pd8 3.049124 1_555
Ag2 Pd5 3.049124 1_555
Ag2 Pd3 3.049124 1_555
Ag2 Pd18 3.057170 1_556
Ag2 Pd12 3.057170 1_545
Ag2 Pd23 3.057170 1_555
Ag2 Se7 3.140504 1_556
Ag2 Se4 3.140504 1_555
Ag2 Se5 3.140504 1_545
Ag2 Pd21 3.280327 1_545
Ag2 Pd16 3.280327 1_555
Ag2 Pd14 3.280327 1_556
Ag3 Ag7 2.847368 1_555
Ag3 Pd7 3.036940 1_555
Ag3 Pd11 3.036940 1_555
Ag3 Pd3 3.036940 1_555
Ag3 Pd10 3.049124 1_555
Ag3 Pd2 3.049124 1_555
Ag3 Pd6 3.049124 1_555
Ag3 Pd21 3.057170 1_555
Ag3 Pd13 3.057170 1_555
Ag3 Pd17 3.057170 1_555
Ag3 Se5 3.140504 1_555
Ag3 Se4 3.140504 1_555
Ag3 Se6 3.140504 1_555
Ag3 Pd15 3.280327 1_555
Ag3 Pd19 3.280327 1_555
Ag3 Pd23 3.280327 1_555
Ag4 Pd17 3.036940 1_545
Ag4 Pd12 3.036940 1_645
Ag4 Pd22 3.036940 1_655
Ag4 Pd23 3.049124 1_555
Ag4 Pd16 3.049124 1_555
Ag4 Pd13 3.049124 1_555
Ag4 Pd7 3.057170 1_555
Ag4 Pd2 3.057170 1_545
Ag4 Pd8 3.057170 1_655
Ag4 Se1 3.140504 1_555
Ag4 Se3 3.140504 1_545
Ag4 Se2 3.140504 1_655
Ag4 Pd10 3.280327 1_545
Ag4 Pd0 3.280327 1_555
Ag4 Pd5 3.280327 1_655
Ag5 Pd13 3.036940 1_455
Ag5 Pd18 3.036940 1_556
Ag5 Pd20 3.036940 1_456
Ag5 Pd19 3.049124 1_555
Ag5 Pd12 3.049124 1_555
Ag5 Pd21 3.049124 1_555
Ag5 Pd3 3.057170 1_555
Ag5 Pd4 3.057170 1_556
Ag5 Pd10 3.057170 1_455
Ag5 Se3 3.140504 1_455
Ag5 Se2 3.140504 1_555
Ag5 Se0 3.140504 1_556
Ag5 Pd6 3.280327 1_455
Ag5 Pd8 3.280327 1_555
Ag5 Pd1 3.280327 1_556
Ag6 Pd21 3.036940 1_554
Ag6 Pd16 3.036940 1_564
Ag6 Pd14 3.036940 1_565
Ag6 Pd20 3.049124 1_555
Ag6 Pd15 3.049124 1_555
Ag6 Pd17 3.049124 1_555
Ag6 Pd11 3.057170 1_555
Ag6 Pd0 3.057170 1_565
Ag6 Pd6 3.057170 1_554
Ag6 Se0 3.140504 1_555
Ag6 Se1 3.140504 1_565
Ag6 Se3 3.140504 1_554
Ag6 Pd4 3.280327 1_555
Ag6 Pd2 3.280327 1_554
Ag6 Pd9 3.280327 1_565
Ag7 Pd19 3.036940 1_555
Ag7 Pd15 3.036940 1_555
Ag7 Pd23 3.036940 1_555
Ag7 Pd22 3.049124 1_555
Ag7 Pd14 3.049124 1_555
Ag7 Pd18 3.049124 1_555
Ag7 Pd5 3.057170 1_555
Ag7 Pd9 3.057170 1_555
Ag7 Pd1 3.057170 1_555
Ag7 Se1 3.140504 1_555
Ag7 Se0 3.140504 1_555
Ag7 Se2 3.140504 1_555
Ag7 Pd7 3.280327 1_555
Ag7 Pd11 3.280327 1_555
Ag7 Pd3 3.280327 1_555
Pd0 Se7 2.469318 1_655
Pd0 Se1 2.519069 1_555
Pd1 Se6 2.469318 1_455
Pd1 Se0 2.519069 1_555
Pd2 Se5 2.469318 1_555
Pd2 Se3 2.519069 1_555
Pd3 Se4 2.469318 1_555
Pd3 Se2 2.519069 1_555
Pd4 Se7 2.469318 1_565
Pd4 Se0 2.519069 1_555
Pd5 Se5 2.469318 1_545
Pd5 Se2 2.519069 1_555
Pd6 Se4 2.469318 1_555
Pd6 Se3 2.519069 1_555
Pd7 Se6 2.469318 1_555
Pd7 Se1 2.519069 1_555
Pd8 Se7 2.469318 1_556
Pd8 Se2 2.519069 1_555
Pd9 Se4 2.469318 1_554
Pd9 Se1 2.519069 1_555
Pd10 Se6 2.469318 1_555
Pd10 Se3 2.519069 1_555
Pd11 Se5 2.469318 1_555
Pd11 Se0 2.519069 1_555
Pd12 Se3 2.469318 1_455
Pd12 Se5 2.519069 1_555
Pd13 Se2 2.469318 1_655
Pd13 Se4 2.519069 1_555
Pd14 Se1 2.469318 1_555
Pd14 Se7 2.519069 1_555
Pd15 Se0 2.469318 1_555
Pd15 Se6 2.519069 1_555
Pd16 Se3 2.469318 1_545
Pd16 Se4 2.519069 1_555
Pd17 Se1 2.469318 1_565
Pd17 Se6 2.519069 1_555
Pd18 Se0 2.469318 1_555
Pd18 Se7 2.519069 1_555
Pd19 Se2 2.469318 1_555
Pd19 Se5 2.519069 1_555
Pd20 Se3 2.469318 1_554
Pd20 Se6 2.519069 1_555
Pd21 Se0 2.469318 1_556
Pd21 Se5 2.519069 1_555
Pd22 Se2 2.469318 1_555
Pd22 Se7 2.519069 1_555
Pd23 Se1 2.469318 1_555
Pd23 Se4 2.519069 1_555
