# generated using pymatgen
data_NaV2O4
_symmetry_space_group_name_H-M   'P 1'
_cell_length_a   3.00396623
_cell_length_b   9.24573100
_cell_length_c   10.75055488
_cell_angle_alpha   89.91805938
_cell_angle_beta   90.01929825
_cell_angle_gamma   89.95870831
_symmetry_Int_Tables_number   1
_chemical_formula_structural   NaV2O4
_chemical_formula_sum   'Na4 V8 O16'
_cell_volume   298.58404619
_cell_formula_units_Z   4
loop_
 _symmetry_equiv_pos_site_id
 _symmetry_equiv_pos_as_xyz
  1  'x, y, z'
loop_
 _atom_site_type_symbol
 _atom_site_label
 _atom_site_symmetry_multiplicity
 _atom_site_fract_x
 _atom_site_fract_y
 _atom_site_fract_z
 _atom_site_occupancy
  Na  Na0  1  0.74996700  0.25501500  0.84644200  1
  Na  Na1  1  0.75022400  0.75634300  0.65123700  1
  Na  Na2  1  0.25004300  0.24588500  0.34617900  1
  Na  Na3  1  0.24983200  0.74406300  0.15121000  1
  V  V0  1  0.24931500  0.06471000  0.10823300  1
  V  V1  1  0.75262800  0.43483800  0.61237500  1
  V  V2  1  0.74992100  0.92026200  0.39509100  1
  V  V3  1  0.24994900  0.58222900  0.89550300  1
  V  V4  1  0.25022900  0.56650500  0.38725900  1
  V  V5  1  0.75016300  0.93025700  0.88853000  1
  V  V6  1  0.24965300  0.07671700  0.60501800  1
  V  V7  1  0.75020400  0.42244400  0.10431300  1
  O  O0  1  0.25016800  0.48198400  0.21956800  1
  O  O1  1  0.24978200  0.97739200  0.28248700  1
  O  O2  1  0.74978700  0.01853500  0.72076000  1
  O  O3  1  0.74957600  0.52406400  0.78484900  1
  O  O4  1  0.75009200  0.42556000  0.43015300  1
  O  O5  1  0.25185400  0.57499400  0.57497900  1
  O  O6  1  0.25011800  0.07907200  0.93665000  1
  O  O7  1  0.74974100  0.92539200  0.07724800  1
  O  O8  1  0.74969700  0.10647400  0.47390700  1
  O  O9  1  0.25006700  0.88227300  0.51415900  1
  O  O10  1  0.25018500  0.39299800  0.97565700  1
  O  O11  1  0.74993500  0.61816900  0.01525400  1
  O  O12  1  0.75007000  0.71621200  0.35083200  1
  O  O13  1  0.24682100  0.29550100  0.65074500  1
  O  O14  1  0.25014400  0.78269500  0.85050100  1
  O  O15  1  0.74983300  0.19941500  0.15086300  1
loop_
_geom_bond_atom_site_label_1
_geom_bond_atom_site_label_2
_geom_bond_distance
_geom_bond_site_symmetry_2
Na0 O10 2.411418 1_555
Na0 O10 2.412796 1_655
Na0 O6 2.415576 1_655
Na0 O6 2.416876 1_555
Na0 O2 2.571875 1_555
Na0 O3 2.573260 1_555
Na0 O13 2.606651 1_655
Na0 O13 2.616396 1_555
Na1 O5 2.394040 1_555
Na1 O5 2.399009 1_655
Na1 O9 2.403282 1_555
Na1 O9 2.404362 1_655
Na1 O2 2.537782 1_565
Na1 O3 2.581972 1_555
Na1 O14 2.627444 1_655
Na1 O14 2.628343 1_555
Na2 O8 2.406353 1_555
Na2 O8 2.409385 1_455
Na2 O4 2.414908 1_455
Na2 O4 2.416202 1_555
Na2 O0 2.570854 1_555
Na2 O1 2.576061 1_545
Na2 O15 2.617519 1_555
Na2 O15 2.617786 1_455
Na3 O7 2.385682 1_455
Na3 O7 2.387196 1_555
Na3 O11 2.398300 1_555
Na3 O11 2.398347 1_455
Na3 O0 2.531093 1_555
Na3 O1 2.579614 1_555
Na3 O12 2.631657 1_555
Na3 O12 2.631878 1_455
O0 V4 1.965882 1_555
O0 V7 2.023812 1_455
O0 V7 2.024003 1_555
O1 V2 1.999365 1_555
O1 V2 1.999922 1_455
O1 V0 2.038821 1_565
O2 V5 1.978638 1_545
O2 V6 2.022488 1_555
O2 V6 2.023088 1_655
O3 V3 1.989671 1_555
O3 V3 1.991342 1_655
O3 V1 2.030528 1_555
O4 V1 1.961000 1_555
O4 V4 2.039738 1_555
O4 V4 2.041954 1_655
O5 V4 2.019736 1_555
O5 V1 2.022753 1_455
O5 V1 2.024617 1_555
O6 V0 1.849199 1_556
O6 V5 2.101587 1_545
O6 V5 2.102562 1_445
O7 V0 2.006475 1_665
O7 V0 2.007169 1_565
O7 V5 2.029258 1_554
O8 V2 1.919961 1_545
O8 V6 2.077223 1_655
O8 V6 2.078387 1_555
O9 V2 2.003950 1_455
O9 V2 2.004318 1_555
O9 V6 2.047225 1_565
O10 V3 1.949164 1_555
O10 V7 2.059986 1_556
O10 V7 2.060296 1_456
O11 V3 2.006055 1_554
O11 V3 2.006409 1_654
O11 V7 2.046081 1_555
O12 V2 1.946327 1_555
O12 V4 2.078864 1_655
O12 V4 2.079806 1_555
O13 V1 2.007229 1_455
O13 V1 2.034744 1_555
O13 V6 2.082390 1_555
O14 V3 1.914887 1_555
O14 V5 2.069625 1_455
O14 V5 2.070934 1_555
O15 V0 2.002962 1_655
O15 V0 2.006407 1_555
O15 V7 2.121228 1_555
