# generated using pymatgen
data_Na6Li3Fe6(PO4)8
_symmetry_space_group_name_H-M   'P 1'
_cell_length_a   6.54129100
_cell_length_b   10.61775893
_cell_length_c   10.64349473
_cell_angle_alpha   91.40444052
_cell_angle_beta   107.71739201
_cell_angle_gamma   90.04927291
_symmetry_Int_Tables_number   1
_chemical_formula_structural   Na6Li3Fe6(PO4)8
_chemical_formula_sum   'Na6 Li3 Fe6 P8 O32'
_cell_volume   703.93090972
_cell_formula_units_Z   1
loop_
 _symmetry_equiv_pos_site_id
 _symmetry_equiv_pos_as_xyz
  1  'x, y, z'
loop_
 _atom_site_type_symbol
 _atom_site_label
 _atom_site_symmetry_multiplicity
 _atom_site_fract_x
 _atom_site_fract_y
 _atom_site_fract_z
 _atom_site_occupancy
  Na  Na0  1  0.06482000  0.01347600  0.84602100  1
  Na  Na1  1  0.20327800  0.53185100  0.16108000  1
  Na  Na2  1  0.79267000  0.54558200  0.85719900  1
  Na  Na3  1  0.40759900  0.75086600  0.00090000  1
  Na  Na4  1  0.64454400  0.25295300  0.99038200  1
  Na  Na5  1  0.92842400  0.95683200  0.13927100  1
  Li  Li0  1  0.03586600  0.96542500  0.49855700  1
  Li  Li1  1  0.31068500  0.26758300  0.13093100  1
  Li  Li2  1  0.54495100  0.53395400  0.51125400  1
  Fe  Fe0  1  0.31031200  0.25154500  0.69041000  1
  Fe  Fe1  1  0.37702900  0.75512900  0.69192200  1
  Fe  Fe2  1  0.50819600  0.99776900  0.49759100  1
  Fe  Fe3  1  0.64931900  0.24436500  0.32004700  1
  Fe  Fe4  1  0.67880200  0.74892700  0.30707500  1
  Fe  Fe5  1  0.00138800  0.49914700  0.49911500  1
  P  P0  1  0.25879000  0.50866000  0.82587700  1
  P  P1  1  0.17712900  0.23394600  0.40363600  1
  P  P2  1  0.22315600  0.74036700  0.39881900  1
  P  P3  1  0.57215700  0.00966400  0.82358500  1
  P  P4  1  0.42568900  0.99079600  0.16958400  1
  P  P5  1  0.76997800  0.26028500  0.60362200  1
  P  P6  1  0.82534200  0.75864100  0.59595900  1
  P  P7  1  0.72776000  0.48478700  0.17112700  1
  O  O0  1  0.99939600  0.22949900  0.68804500  1
  O  O1  1  0.07265500  0.50974900  0.69301900  1
  O  O2  1  0.05406100  0.79600300  0.67683900  1
  O  O3  1  0.16872200  0.53879800  0.93998200  1
  O  O4  1  0.19406000  0.34589500  0.50984400  1
  O  O5  1  0.36220500  0.37361200  0.83727400  1
  O  O6  1  0.24371400  0.62461500  0.49450200  1
  O  O7  1  0.38271000  0.10794600  0.80489300  1
  O  O8  1  0.43466300  0.60511000  0.82216100  1
  O  O9  1  0.26168600  0.12375100  0.50638700  1
  O  O10  1  0.48351100  0.88181200  0.84988200  1
  O  O11  1  0.30171900  0.85500000  0.50152200  1
  O  O12  1  0.31809000  0.27057900  0.31879100  1
  O  O13  1  0.37728500  0.99447400  0.30548000  1
  O  O14  1  0.36745400  0.70783500  0.31313000  1
  O  O15  1  0.22267000  0.94617400  0.06109400  1
  O  O16  1  0.76886000  0.05628500  0.93508900  1
  O  O17  1  0.62064200  0.28485800  0.68852700  1
  O  O18  1  0.63094200  0.00013700  0.69243700  1
  O  O19  1  0.68364900  0.72025600  0.67952000  1
  O  O20  1  0.69365300  0.14797100  0.49919600  1
  O  O21  1  0.49335400  0.12693600  0.14489300  1
  O  O22  1  0.74398200  0.87141500  0.49663100  1
  O  O23  1  0.55533400  0.38263000  0.17429200  1
  O  O24  1  0.61413800  0.89909000  0.17772300  1
  O  O25  1  0.75131800  0.37695600  0.50987800  1
  O  O26  1  0.61700000  0.61425000  0.15405300  1
  O  O27  1  0.80043300  0.64358000  0.49288600  1
  O  O28  1  0.83019900  0.45084700  0.06242600  1
  O  O29  1  0.95138200  0.19742400  0.31786700  1
  O  O30  1  0.91306000  0.48353000  0.30614800  1
  O  O31  1  0.99700000  0.77417700  0.31526700  1
loop_
_geom_bond_atom_site_label_1
_geom_bond_atom_site_label_2
_geom_bond_distance
_geom_bond_site_symmetry_2
Na0 O15 2.336611 1_546
Na0 O16 2.439398 1_455
Na0 O7 2.468533 1_555
Na0 O18 2.812714 1_455
Na0 O0 2.832676 1_455
Na0 O2 2.880630 1_545
Na1 O3 2.297635 1_554
Na1 O14 2.460559 1_555
Na1 O28 2.488052 1_455
Na1 O23 2.766500 1_555
Na1 O30 2.841196 1_455
Na1 O26 2.866582 1_555
Na2 O8 2.346333 1_555
Na2 O3 2.348768 1_655
Na2 O28 2.371731 1_556
Na2 O19 2.622594 1_555
Na2 O1 2.910171 1_655
Na3 O10 2.314609 1_554
Na3 O26 2.323326 1_555
Na3 O8 2.471174 1_554
Na3 O24 2.479457 1_555
Na3 O15 2.566133 1_555
Na3 O3 2.690323 1_554
Na4 O16 2.366864 1_555
Na4 O28 2.414054 1_556
Na4 O5 2.445894 1_555
Na4 O21 2.562882 1_556
Na4 O23 2.575348 1_556
Na4 O7 2.643871 1_555
Na5 O24 2.300450 1_555
Na5 O15 2.319556 1_655
Na5 O16 2.379314 1_564
Na5 O31 2.671987 1_555
Li0 O11 2.090882 1_555
Li0 O22 2.148044 1_455
Li0 O9 2.220102 1_565
Li1 O21 1.893630 1_555
Li1 O23 1.945677 1_555
Li1 O12 1.984751 1_555
Li2 O27 2.095850 1_555
Li2 O25 2.148476 1_555
Li2 O6 2.153844 1_555
Li2 O19 2.603421 1_555
Fe0 O7 1.942889 1_555
Fe0 O5 1.953318 1_555
Fe0 O0 2.039478 1_455
Fe0 O17 2.066427 1_555
Fe0 O4 2.116966 1_555
Fe0 O9 2.295301 1_555
Fe1 O10 2.072631 1_555
Fe1 O19 2.082629 1_555
Fe1 O8 2.095731 1_555
Fe1 O2 2.115628 1_555
Fe1 O11 2.229921 1_555
Fe1 O6 2.415769 1_555
Fe2 O13 1.961168 1_555
Fe2 O18 1.982441 1_565
Fe2 O20 1.999527 1_565
Fe2 O11 2.039077 1_555
Fe2 O22 2.047264 1_555
Fe2 O9 2.118408 1_565
Fe3 O29 2.045016 1_555
Fe3 O23 2.114838 1_555
Fe3 O20 2.127680 1_555
Fe3 O12 2.180752 1_555
Fe3 O21 2.190234 1_555
Fe3 O25 2.355389 1_555
Fe4 O31 2.073463 1_555
Fe4 O26 2.084457 1_555
Fe4 O24 2.090644 1_555
Fe4 O14 2.102870 1_555
Fe4 O27 2.224332 1_555
Fe4 O22 2.300117 1_555
Fe5 O30 1.959714 1_455
Fe5 O1 1.972884 1_555
Fe5 O27 2.009855 1_455
Fe5 O4 2.043098 1_555
Fe5 O6 2.082475 1_555
Fe5 O25 2.118920 1_455
O0 P5 1.536501 1_555
O1 P0 1.560482 1_555
O2 P6 1.528118 1_455
O3 P0 1.530109 1_555
O4 P1 1.600224 1_555
O5 P0 1.577550 1_555
O6 P2 1.594998 1_555
O7 P3 1.589520 1_555
O8 P0 1.549667 1_555
O9 P1 1.602056 1_555
O10 P3 1.540597 1_565
O11 P2 1.591302 1_555
O12 P1 1.529834 1_555
O13 P4 1.571581 1_555
O14 P2 1.533339 1_555
O15 P4 1.536294 1_555
O16 P3 1.532896 1_555
O17 P5 1.537898 1_555
O18 P3 1.557689 1_555
O19 P6 1.528073 1_555
O20 P5 1.582079 1_555
O21 P4 1.562935 1_545
O22 P6 1.598558 1_555
O23 P7 1.572453 1_555
O24 P4 1.554469 1_555
O25 P5 1.591145 1_555
O26 P7 1.543149 1_555
O27 P6 1.596174 1_555
O28 P7 1.539241 1_555
O29 P1 1.524957 1_655
O30 P7 1.573333 1_555
O31 P2 1.524478 1_655
