# generated using pymatgen
data_Zr2Al3Zn
_symmetry_space_group_name_H-M   'P 1'
_cell_length_a   5.23708381
_cell_length_b   5.23708381
_cell_length_c   5.23708349
_cell_angle_alpha   60.87830130
_cell_angle_beta   60.87830130
_cell_angle_gamma   60.87830326
_symmetry_Int_Tables_number   1
_chemical_formula_structural   Zr2Al3Zn
_chemical_formula_sum   'Zr2 Al3 Zn1'
_cell_volume   103.57823379
_cell_formula_units_Z   1
loop_
 _symmetry_equiv_pos_site_id
 _symmetry_equiv_pos_as_xyz
  1  'x, y, z'
loop_
 _atom_site_type_symbol
 _atom_site_label
 _atom_site_symmetry_multiplicity
 _atom_site_fract_x
 _atom_site_fract_y
 _atom_site_fract_z
 _atom_site_occupancy
  Zr  Zr0  1  0.62451039  0.62451039  0.62451039  1
  Zr  Zr1  1  0.37548961  0.37548961  0.37548961  1
  Al  Al0  1  -0.00000000  0.50000000  0.00000000  1
  Al  Al1  1  0.50000000  -0.00000000  0.00000000  1
  Al  Al2  1  -0.00000000  -0.00000000  0.50000000  1
  Zn  Zn0  1  -0.00000000  -0.00000000  0.00000000  1
loop_
_geom_bond_atom_site_label_1
_geom_bond_atom_site_label_2
_geom_bond_distance
_geom_bond_site_symmetry_2
Zr0 Zr1 3.173115 1_555
Zr0 Zr1 3.246592 1_556
Zr0 Zr1 3.246593 1_565
Zr0 Zr1 3.246593 1_655
Al0 Zn0 2.618542 1_555
Al0 Zn0 2.618542 1_565
Al0 Al2 2.653227 1_555
Al0 Al2 2.653227 1_564
Al0 Al1 2.653227 1_465
Al0 Al1 2.653227 1_555
Al0 Zr1 3.070330 1_555
Al0 Zr0 3.070330 1_454
Al0 Zr0 3.091404 1_455
Al0 Zr1 3.091404 1_554
Al0 Zr0 3.091404 1_554
Al0 Zr1 3.091404 1_455
Al1 Zn0 2.618542 1_555
Al1 Zn0 2.618542 1_655
Al1 Al2 2.653227 1_654
Al1 Al2 2.653227 1_555
Al1 Zr1 3.070330 1_555
Al1 Zr0 3.070330 1_544
Al1 Zr0 3.091404 1_545
Al1 Zr1 3.091404 1_554
Al1 Zr0 3.091404 1_554
Al1 Zr1 3.091404 1_545
Al2 Zn0 2.618542 1_555
Al2 Zn0 2.618542 1_556
Al2 Zr1 3.070330 1_555
Al2 Zr0 3.070330 1_445
Al2 Zr0 3.091404 1_545
Al2 Zr0 3.091404 1_455
Al2 Zr1 3.091404 1_455
Al2 Zr1 3.091404 1_545
Zn0 Zr1 3.110419 1_554
Zn0 Zr0 3.110419 1_445
Zn0 Zr1 3.110419 1_455
Zn0 Zr1 3.110419 1_545
Zn0 Zr0 3.110419 1_454
Zn0 Zr0 3.110419 1_544
