# generated using pymatgen
data_C
_symmetry_space_group_name_H-M   'P 1'
_cell_length_a   6.75278276
_cell_length_b   8.88715341
_cell_length_c   8.88715341
_cell_angle_alpha   81.70106295
_cell_angle_beta   67.67138375
_cell_angle_gamma   67.67138375
_symmetry_Int_Tables_number   1
_chemical_formula_structural   C
_chemical_formula_sum   C20
_cell_volume   456.36303220
_cell_formula_units_Z   20
loop_
 _symmetry_equiv_pos_site_id
 _symmetry_equiv_pos_as_xyz
  1  'x, y, z'
loop_
 _atom_site_type_symbol
 _atom_site_label
 _atom_site_symmetry_multiplicity
 _atom_site_fract_x
 _atom_site_fract_y
 _atom_site_fract_z
 _atom_site_occupancy
  C  C0  1  0.17718554  0.00000000  0.64562791  1
  C  C1  1  0.82281446  -0.00000000  0.35437209  1
  C  C2  1  0.82281446  0.35437209  -0.00000000  1
  C  C3  1  0.17718554  0.64562791  0.00000000  1
  C  C4  1  0.05151272  0.14290838  0.75406717  1
  C  C5  1  0.94848728  0.85709162  0.24593283  1
  C  C6  1  0.94848728  0.24593283  0.85709162  1
  C  C7  1  0.05151272  0.75406717  0.14290838  1
  C  C8  1  0.80557989  0.24593283  0.14290838  1
  C  C9  1  0.19442011  0.75406717  0.85709162  1
  C  C10  1  0.19442011  0.85709162  0.75406717  1
  C  C11  1  0.80557989  0.14290838  0.24593283  1
  C  C12  1  0.05074697  -0.00000000  0.54247270  1
  C  C13  1  0.59321867  0.00000000  0.45752730  1
  C  C14  1  0.59321867  0.45752730  0.00000000  1
  C  C15  1  0.05074697  0.54247270  0.00000000  1
  C  C16  1  0.94925303  0.00000000  0.45752730  1
  C  C17  1  0.40678133  -0.00000000  0.54247270  1
  C  C18  1  0.40678133  0.54247270  0.00000000  1
  C  C19  1  0.94925303  0.45752730  -0.00000000  1
loop_
_geom_bond_atom_site_label_1
_geom_bond_atom_site_label_2
_geom_bond_distance
_geom_bond_site_symmetry_2
C0 C12 1.471119 1_555
C0 C17 1.471130 1_555
C0 C10 1.474754 1_545
C0 C4 1.474754 1_555
C1 C16 1.471119 1_555
C1 C13 1.471130 1_555
C1 C11 1.474754 1_555
C1 C5 1.474754 1_545
C2 C8 1.474754 1_555
C2 C6 1.474754 1_554
C3 C9 1.474754 1_554
C3 C7 1.474754 1_555
C12 C16 1.196985 1_455
C13 C17 1.196974 1_555
C14 C18 1.196974 1_555
C14 C2 1.471130 1_555
C15 C19 1.196985 1_455
C15 C3 1.471119 1_555
C18 C3 1.471130 1_555
C19 C2 1.471119 1_555
