# generated using pymatgen
data_CoH20C22(N5O3)2
_symmetry_space_group_name_H-M   'P 1'
_cell_length_a   7.74264200
_cell_length_b   11.58738100
_cell_length_c   16.25991999
_cell_angle_alpha   90.00000000
_cell_angle_beta   107.14534792
_cell_angle_gamma   90.00000000
_symmetry_Int_Tables_number   1
_chemical_formula_structural   CoH20C22(N5O3)2
_chemical_formula_sum   'Co2 H40 C44 N20 O12'
_cell_volume   1393.96165717
_cell_formula_units_Z   2
loop_
 _symmetry_equiv_pos_site_id
 _symmetry_equiv_pos_as_xyz
  1  'x, y, z'
loop_
 _atom_site_type_symbol
 _atom_site_label
 _atom_site_symmetry_multiplicity
 _atom_site_fract_x
 _atom_site_fract_y
 _atom_site_fract_z
 _atom_site_occupancy
  Co  Co0  1  0.50000000  0.66079000  0.75000000  1
  Co  Co1  1  0.50000000  0.33921000  0.25000000  1
  H  H0  1  0.55894200  0.68163500  0.92881800  1
  H  H1  1  0.44105800  0.68163500  0.57118200  1
  H  H2  1  0.44105800  0.31836500  0.07118200  1
  H  H3  1  0.55894200  0.31836500  0.42881800  1
  H  H4  1  0.34470300  0.67691600  0.88130300  1
  H  H5  1  0.65529700  0.67691600  0.61869700  1
  H  H6  1  0.65529700  0.32308400  0.11869700  1
  H  H7  1  0.34470300  0.32308400  0.38130300  1
  H  H8  1  0.66725400  0.45768300  0.87545800  1
  H  H9  1  0.33274600  0.45768300  0.62454200  1
  H  H10  1  0.33274600  0.54231700  0.12454200  1
  H  H11  1  0.66725400  0.54231700  0.37545800  1
  H  H12  1  0.67318800  0.24422400  0.88136300  1
  H  H13  1  0.32681200  0.24422400  0.61863700  1
  H  H14  1  0.32681200  0.75577600  0.11863700  1
  H  H15  1  0.67318800  0.75577600  0.38136300  1
  H  H16  1  0.58136100  0.07484200  0.88946100  1
  H  H17  1  0.41863900  0.07484200  0.61053900  1
  H  H18  1  0.41863900  0.92515800  0.11053900  1
  H  H19  1  0.58136100  0.92515800  0.38946100  1
  H  H20  1  0.58081600  0.86281600  0.88319600  1
  H  H21  1  0.41918400  0.86281600  0.61680400  1
  H  H22  1  0.41918400  0.13718400  0.11680400  1
  H  H23  1  0.58081600  0.13718400  0.38319600  1
  H  H24  1  0.21581500  0.11601500  0.96930000  1
  H  H25  1  0.78418500  0.11601500  0.53070000  1
  H  H26  1  0.78418500  0.88398500  0.03070000  1
  H  H27  1  0.21581500  0.88398500  0.46930000  1
  H  H28  1  0.02627700  0.10843400  0.81936300  1
  H  H29  1  0.97372300  0.10843400  0.68063700  1
  H  H30  1  0.97372300  0.89156600  0.18063700  1
  H  H31  1  0.02627700  0.89156600  0.31936300  1
  H  H32  1  0.11293800  0.47553100  0.80287600  1
  H  H33  1  0.88706200  0.47553100  0.69712400  1
  H  H34  1  0.88706200  0.52446900  0.19712400  1
  H  H35  1  0.11293800  0.52446900  0.30287600  1
  H  H36  1  0.29666500  0.46949100  0.95469400  1
  H  H37  1  0.70333500  0.46949100  0.54530600  1
  H  H38  1  0.70333500  0.53050900  0.04530600  1
  H  H39  1  0.29666500  0.53050900  0.45469400  1
  C  C0  1  0.59257800  0.40732600  0.81970700  1
  C  C1  1  0.40742200  0.40732600  0.68029300  1
  C  C2  1  0.40742200  0.59267400  0.18029300  1
  C  C3  1  0.59257800  0.59267400  0.31970700  1
  C  C4  1  0.59561300  0.28735000  0.82259100  1
  C  C5  1  0.40438700  0.28735000  0.67740900  1
  C  C6  1  0.40438700  0.71265000  0.17740900  1
  C  C7  1  0.59561300  0.71265000  0.32259100  1
  C  C8  1  0.50000000  0.22368500  0.75000000  1
  C  C9  1  0.50000000  0.77631500  0.25000000  1
  C  C10  1  0.50000000  0.09595100  0.75000000  1
  C  C11  1  0.50000000  0.90404900  0.25000000  1
  C  C12  1  0.54545500  0.03261900  0.82692100  1
  C  C13  1  0.45454500  0.03261900  0.67307900  1
  C  C14  1  0.45454500  0.96738100  0.17307900  1
  C  C15  1  0.54545500  0.96738100  0.32692100  1
  C  C16  1  0.54481200  0.91279000  0.82394800  1
  C  C17  1  0.45518800  0.91279000  0.67605200  1
  C  C18  1  0.45518800  0.08721000  0.17605200  1
  C  C19  1  0.54481200  0.08721000  0.32394800  1
  C  C20  1  0.19208800  0.19515000  0.93113600  1
  C  C21  1  0.80791200  0.19515000  0.56886400  1
  C  C22  1  0.80791200  0.80485000  0.06886400  1
  C  C23  1  0.19208800  0.80485000  0.43113600  1
  C  C24  1  0.08517700  0.19075700  0.84562800  1
  C  C25  1  0.91482300  0.19075700  0.65437200  1
  C  C26  1  0.91482300  0.80924300  0.15437200  1
  C  C27  1  0.08517700  0.80924300  0.34562800  1
  C  C28  1  0.05413700  0.29173200  0.79582800  1
  C  C29  1  0.94586300  0.29173200  0.70417200  1
  C  C30  1  0.94586300  0.70826800  0.20417200  1
  C  C31  1  0.05413700  0.70826800  0.29582800  1
  C  C32  1  0.13062900  0.39375700  0.83720400  1
  C  C33  1  0.86937100  0.39375700  0.66279600  1
  C  C34  1  0.86937100  0.60624300  0.16279600  1
  C  C35  1  0.13062900  0.60624300  0.33720400  1
  C  C36  1  0.23522800  0.39026600  0.92283800  1
  C  C37  1  0.76477200  0.39026600  0.57716200  1
  C  C38  1  0.76477200  0.60973400  0.07716200  1
  C  C39  1  0.23522800  0.60973400  0.42283800  1
  C  C40  1  0.92293500  0.70075300  0.84929300  1
  C  C41  1  0.07706500  0.70075300  0.65070700  1
  C  C42  1  0.07706500  0.29924700  0.15070700  1
  C  C43  1  0.92293500  0.29924700  0.34929300  1
  N  N0  1  0.11444800  0.83954900  0.91667900  1
  N  N1  1  0.88555200  0.83954900  0.58332100  1
  N  N2  1  0.88555200  0.16045100  0.08332100  1
  N  N3  1  0.11444800  0.16045100  0.41667900  1
  N  N4  1  0.77838800  0.66802800  0.80936200  1
  N  N5  1  0.22161200  0.66802800  0.69063800  1
  N  N6  1  0.22161200  0.33197200  0.19063800  1
  N  N7  1  0.77838800  0.33197200  0.30936200  1
  N  N8  1  0.08941200  0.72421300  0.89461800  1
  N  N9  1  0.91058800  0.72421300  0.60538200  1
  N  N10  1  0.91058800  0.27578700  0.10538200  1
  N  N11  1  0.08941200  0.27578700  0.39461800  1
  N  N12  1  0.50000000  0.46802000  0.75000000  1
  N  N13  1  0.50000000  0.53198000  0.25000000  1
  N  N14  1  0.50000000  0.85227500  0.75000000  1
  N  N15  1  0.50000000  0.14772500  0.25000000  1
  N  N16  1  0.26890500  0.29294900  0.97003700  1
  N  N17  1  0.73109500  0.29294900  0.52996300  1
  N  N18  1  0.73109500  0.70705100  0.02996300  1
  N  N19  1  0.26890500  0.70705100  0.47003700  1
  O  O0  1  0.98911400  0.91061400  0.88922500  1
  O  O1  1  0.01088600  0.91061400  0.61077500  1
  O  O2  1  0.01088600  0.08938600  0.11077500  1
  O  O3  1  0.98911400  0.08938600  0.38922500  1
  O  O4  1  0.26803400  0.86535900  0.96423100  1
  O  O5  1  0.73196600  0.86535900  0.53576900  1
  O  O6  1  0.73196600  0.13464100  0.03576900  1
  O  O7  1  0.26803400  0.13464100  0.46423100  1
  O  O8  1  0.46330200  0.65502800  0.87545600  1
  O  O9  1  0.53669800  0.65502800  0.62454400  1
  O  O10  1  0.53669800  0.34497200  0.12454400  1
  O  O11  1  0.46330200  0.34497200  0.37545600  1
loop_
_geom_bond_atom_site_label_1
_geom_bond_atom_site_label_2
_geom_bond_distance
_geom_bond_site_symmetry_2
Co0 N4 2.087592 1_555
Co0 N5 2.087592 1_555
Co0 O9 2.141995 1_555
Co0 O8 2.141995 1_555
Co0 N14 2.218810 1_555
Co0 N12 2.233699 1_555
Co1 N7 2.087592 1_555
Co1 N6 2.087592 1_555
Co1 O11 2.141995 1_555
Co1 O10 2.141995 1_555
Co1 N15 2.218810 1_555
Co1 N13 2.233699 1_555
H0 O8 1.008672 1_555
H1 O9 1.008672 1_555
H2 O10 1.008672 1_555
H3 O11 1.008672 1_555
H4 O8 0.983898 1_555
H5 O9 0.983898 1_555
H6 O10 0.983898 1_555
H7 O11 0.983898 1_555
C0 H8 1.089730 1_555
C0 N12 1.346872 1_555
C1 H9 1.089730 1_555
C1 N12 1.346872 1_555
C2 H10 1.089730 1_555
C2 N13 1.346872 1_555
C3 H11 1.089730 1_555
C3 N13 1.346872 1_555
C4 H12 1.088709 1_555
C4 C8 1.403652 1_555
C5 H13 1.088709 1_555
C5 C8 1.403652 1_555
C6 H14 1.088709 1_555
C6 C9 1.403652 1_555
C7 H15 1.088709 1_555
C7 C9 1.403652 1_555
C10 C12 1.402568 1_555
C10 C13 1.402568 1_555
C10 C8 1.480103 1_555
C11 C15 1.402568 1_555
C11 C14 1.402568 1_555
C11 C9 1.480103 1_555
C12 H16 1.088142 1_555
C12 C16 1.389303 1_545
C13 H17 1.088142 1_555
C13 C17 1.389303 1_545
C14 H18 1.088142 1_555
C14 C18 1.389303 1_565
C15 H19 1.088142 1_555
C15 C19 1.389303 1_565
C16 H20 1.087552 1_555
C16 N14 1.346049 1_555
C17 H21 1.087552 1_555
C17 N14 1.346049 1_555
C18 H22 1.087552 1_555
C18 N15 1.346049 1_555
C19 H23 1.087552 1_555
C19 N15 1.346049 1_555
C20 H24 1.091989 1_555
C20 N16 1.347683 1_555
C20 C24 1.393672 1_555
C21 H25 1.091989 1_555
C21 N17 1.347683 1_555
C21 C25 1.393672 1_555
C22 H26 1.091989 1_555
C22 N18 1.347683 1_555
C22 C26 1.393672 1_555
C23 H27 1.091989 1_555
C23 N19 1.347683 1_555
C23 C27 1.393672 1_555
C24 H28 1.088793 1_555
C24 C28 1.402744 1_555
C25 H29 1.088793 1_555
C25 C29 1.402744 1_555
C26 H30 1.088793 1_555
C26 C30 1.402744 1_555
C27 H31 1.088793 1_555
C27 C31 1.402744 1_555
C28 C32 1.402163 1_555
C28 C29 1.478925 1_455
C29 C33 1.402163 1_555
C30 C34 1.402163 1_555
C30 C31 1.478925 1_655
C31 C35 1.402163 1_555
C32 H32 1.087696 1_555
C32 C36 1.389765 1_555
C33 H33 1.087696 1_555
C33 C37 1.389765 1_555
C34 H34 1.087696 1_555
C34 C38 1.389765 1_555
C35 H35 1.087696 1_555
C35 C39 1.389765 1_555
C36 H36 1.091809 1_555
C36 N16 1.345578 1_555
C37 H37 1.091809 1_555
C37 N17 1.345578 1_555
C38 H38 1.091809 1_555
C38 N18 1.345578 1_555
C39 H39 1.091809 1_555
C39 N19 1.345578 1_555
C40 N4 1.178759 1_555
C40 N8 1.310879 1_655
C41 N5 1.178759 1_555
C41 N9 1.310879 1_455
C42 N6 1.178759 1_555
C42 N10 1.310879 1_455
C43 N7 1.178759 1_555
C43 N11 1.310879 1_655
N0 O4 1.248708 1_555
N0 O0 1.250462 1_455
N0 N8 1.382508 1_555
N1 O5 1.248708 1_555
N1 O1 1.250462 1_655
N1 N9 1.382508 1_555
N2 O6 1.248708 1_555
N2 O2 1.250462 1_655
N3 O7 1.248708 1_555
N3 O3 1.250462 1_455
N10 N2 1.382508 1_555
N11 N3 1.382508 1_555
