# generated using pymatgen
data_Co7(SbO6)2
_symmetry_space_group_name_H-M   'P 1'
_cell_length_a   6.10550940
_cell_length_b   6.10550940
_cell_length_c   15.34576770
_cell_angle_alpha   89.79643894
_cell_angle_beta   89.79643894
_cell_angle_gamma   59.66489217
_symmetry_Int_Tables_number   1
_chemical_formula_structural   Co7(SbO6)2
_chemical_formula_sum   'Co14 Sb4 O24'
_cell_volume   493.72256806
_cell_formula_units_Z   2
loop_
 _symmetry_equiv_pos_site_id
 _symmetry_equiv_pos_as_xyz
  1  'x, y, z'
loop_
 _atom_site_type_symbol
 _atom_site_label
 _atom_site_symmetry_multiplicity
 _atom_site_fract_x
 _atom_site_fract_y
 _atom_site_fract_z
 _atom_site_occupancy
  Co  Co0  1  0.33191300  0.33191300  0.46882600  1
  Co  Co1  1  0.99291100  0.99291100  0.14146500  1
  Co  Co2  1  0.66115900  0.66115900  0.79082000  1
  Co  Co3  1  0.33884100  0.33884100  0.20918000  1
  Co  Co4  1  0.00708900  0.00708900  0.85853500  1
  Co  Co5  1  0.66808700  0.66808700  0.53117400  1
  Co  Co6  1  0.16563300  0.16563300  0.66166500  1
  Co  Co7  1  0.83436700  0.83436700  0.33833500  1
  Co  Co8  1  0.50000000  0.00000000  0.00000000  1
  Co  Co9  1  0.16632600  0.66613200  0.66224400  1
  Co  Co10  1  0.83367400  0.33386800  0.33775600  1
  Co  Co11  1  0.00000000  0.50000000  0.00000000  1
  Co  Co12  1  0.66613200  0.16632600  0.66224400  1
  Co  Co13  1  0.33386800  0.83367400  0.33775600  1
  Sb  Sb0  1  0.67217200  0.67217200  0.17235700  1
  Sb  Sb1  1  0.32782800  0.32782800  0.82764300  1
  Sb  Sb2  1  0.00000000  0.00000000  0.50000000  1
  Sb  Sb3  1  0.50000000  0.50000000  0.00000000  1
  O  O0  1  0.99795000  0.99795000  0.26366700  1
  O  O1  1  0.65909200  0.65909200  0.93037100  1
  O  O2  1  0.33123900  0.33123900  0.59776500  1
  O  O3  1  0.15218800  0.15218800  0.41977200  1
  O  O4  1  0.81494000  0.81494000  0.08340300  1
  O  O5  1  0.48255500  0.48255500  0.75532200  1
  O  O6  1  0.15425100  0.69397600  0.42054600  1
  O  O7  1  0.80843900  0.35907300  0.08174300  1
  O  O8  1  0.49120400  0.02014700  0.75601700  1
  O  O9  1  0.69397600  0.15425100  0.42054600  1
  O  O10  1  0.35907300  0.80843900  0.08174300  1
  O  O11  1  0.02014700  0.49120400  0.75601700  1
  O  O12  1  0.66876100  0.66876100  0.40223500  1
  O  O13  1  0.34090800  0.34090800  0.06962900  1
  O  O14  1  0.00205000  0.00205000  0.73633300  1
  O  O15  1  0.51744500  0.51744500  0.24467800  1
  O  O16  1  0.18506000  0.18506000  0.91659700  1
  O  O17  1  0.84781200  0.84781200  0.58022800  1
  O  O18  1  0.50879600  0.97985300  0.24398300  1
  O  O19  1  0.19156100  0.64092700  0.91825700  1
  O  O20  1  0.84574900  0.30602400  0.57945400  1
  O  O21  1  0.97985300  0.50879600  0.24398300  1
  O  O22  1  0.64092700  0.19156100  0.91825700  1
  O  O23  1  0.30602400  0.84574900  0.57945400  1
loop_
_geom_bond_atom_site_label_1
_geom_bond_atom_site_label_2
_geom_bond_distance
_geom_bond_site_symmetry_2
Co0 O2 1.978652 1_555
Co0 O9 2.045523 1_555
Co0 O6 2.045523 1_555
Co0 O3 2.050089 1_555
Co1 O0 1.876262 1_555
Co1 O4 2.088472 1_555
Co1 O7 2.134425 1_565
Co1 O10 2.134425 1_655
Co2 O11 1.965771 1_655
Co2 O8 1.965771 1_565
Co2 O5 1.970933 1_555
Co2 O1 2.141539 1_555
Co3 O18 1.965771 1_545
Co3 O21 1.965771 1_455
Co3 O15 1.970933 1_555
Co3 O13 2.141539 1_555
Co4 O14 1.876262 1_555
Co4 O16 2.088472 1_555
Co4 O19 2.134425 1_545
Co4 O22 2.134425 1_455
Co5 O12 1.978652 1_555
Co5 O20 2.045523 1_555
Co5 O23 2.045523 1_555
Co5 O17 2.050089 1_555
Co6 O2 2.006200 1_555
Co6 O14 2.073480 1_555
Co6 O23 2.111770 1_545
Co6 O20 2.111770 1_455
Co6 O11 2.250440 1_555
Co6 O8 2.250440 1_555
Co7 O12 2.006200 1_555
Co7 O0 2.073480 1_555
Co7 O9 2.111770 1_565
Co7 O6 2.111770 1_655
Co7 O18 2.250440 1_555
Co7 O21 2.250440 1_555
Co8 O13 2.093736 1_555
Co8 O1 2.093736 1_544
Co8 O4 2.103517 1_545
Co8 O16 2.103517 1_554
Co8 O22 2.163381 1_554
Co8 O10 2.163381 1_545
Co9 O2 2.025182 1_555
Co9 O17 2.103529 1_455
Co9 O14 2.106093 1_565
Co9 O23 2.114585 1_555
Co9 O5 2.201479 1_555
Co9 O11 2.225040 1_555
Co10 O12 2.025182 1_555
Co10 O3 2.103529 1_655
Co10 O0 2.106093 1_545
Co10 O9 2.114585 1_555
Co10 O15 2.201479 1_555
Co10 O21 2.225040 1_555
Co11 O13 2.093736 1_555
Co11 O1 2.093736 1_454
Co11 O4 2.103517 1_455
Co11 O16 2.103517 1_554
Co11 O7 2.163381 1_455
Co11 O19 2.163381 1_554
Co12 O2 2.025182 1_555
Co12 O17 2.103529 1_545
Co12 O14 2.106093 1_655
Co12 O20 2.114585 1_555
Co12 O5 2.201479 1_555
Co12 O8 2.225040 1_555
Co13 O12 2.025182 1_555
Co13 O3 2.103529 1_565
Co13 O0 2.106093 1_455
Co13 O6 2.114585 1_555
Co13 O15 2.201479 1_555
Co13 O18 2.225040 1_555
O1 Sb3 1.991732 1_556
O3 Sb2 2.024447 1_555
O4 Sb0 2.033130 1_555
O5 Sb1 1.975634 1_555
O6 Sb2 2.023665 1_565
O7 Sb3 2.057335 1_555
O7 Sb0 2.164317 1_555
O8 Sb1 1.961167 1_555
O9 Sb2 2.023665 1_655
O10 Sb3 2.057335 1_555
O10 Sb0 2.164317 1_555
O11 Sb1 1.961167 1_555
O13 Sb3 1.991732 1_555
O15 Sb0 1.975634 1_555
O16 Sb1 2.033130 1_555
O17 Sb2 2.024447 1_665
O18 Sb0 1.961167 1_555
O19 Sb3 2.057335 1_556
O19 Sb1 2.164317 1_555
O20 Sb2 2.023665 1_655
O21 Sb0 1.961167 1_555
O22 Sb3 2.057335 1_556
O22 Sb1 2.164317 1_555
O23 Sb2 2.023665 1_565
