# generated using pymatgen
data_Ba4CaZr5O15
_symmetry_space_group_name_H-M   'P 1'
_cell_length_a   21.66135820
_cell_length_b   21.66135820
_cell_length_c   21.66135820
_cell_angle_alpha   164.18004935
_cell_angle_beta   164.18004935
_cell_angle_gamma   22.44503070
_symmetry_Int_Tables_number   1
_chemical_formula_structural   Ba4CaZr5O15
_chemical_formula_sum   'Ba8 Ca2 Zr10 O30'
_cell_volume   755.22525491
_cell_formula_units_Z   2
loop_
 _symmetry_equiv_pos_site_id
 _symmetry_equiv_pos_as_xyz
  1  'x, y, z'
loop_
 _atom_site_type_symbol
 _atom_site_label
 _atom_site_symmetry_multiplicity
 _atom_site_fract_x
 _atom_site_fract_y
 _atom_site_fract_z
 _atom_site_occupancy
  Ba  Ba0  1  0.10144900  0.10144900  0.00000000  1
  Ba  Ba1  1  0.50000000  0.50000000  0.00000000  1
  Ba  Ba2  1  0.89855100  0.89855100  0.00000000  1
  Ba  Ba3  1  0.29853100  0.29853100  0.00000000  1
  Ba  Ba4  1  0.70146900  0.70146900  0.00000000  1
  Ba  Ba5  1  0.60006000  0.60006000  0.00000000  1
  Ba  Ba6  1  0.00000000  0.00000000  0.00000000  1
  Ba  Ba7  1  0.39994000  0.39994000  0.00000000  1
  Ca  Ca0  1  0.80081900  0.80081900  0.00000000  1
  Ca  Ca1  1  0.19918100  0.19918100  0.00000000  1
  Zr  Zr0  1  0.05040700  0.55040700  0.50000000  1
  Zr  Zr1  1  0.44959300  0.94959300  0.50000000  1
  Zr  Zr2  1  0.84852200  0.34852200  0.50000000  1
  Zr  Zr3  1  0.25000000  0.75000000  0.50000000  1
  Zr  Zr4  1  0.65147800  0.15147800  0.50000000  1
  Zr  Zr5  1  0.15147800  0.65147800  0.50000000  1
  Zr  Zr6  1  0.55040700  0.05040700  0.50000000  1
  Zr  Zr7  1  0.94959300  0.44959300  0.50000000  1
  Zr  Zr8  1  0.34852200  0.84852200  0.50000000  1
  Zr  Zr9  1  0.75000000  0.25000000  0.50000000  1
  O  O0  1  0.32282400  0.77809800  0.00000000  1
  O  O1  1  0.72162100  0.17783400  0.00000000  1
  O  O2  1  0.13219400  0.56732600  0.00000000  1
  O  O3  1  0.55359500  0.95481800  0.00000000  1
  O  O4  1  0.94353700  0.36509100  0.00000000  1
  O  O5  1  0.77809800  0.32282400  0.00000000  1
  O  O6  1  0.17783400  0.72162100  0.00000000  1
  O  O7  1  0.56732600  0.13219400  0.00000000  1
  O  O8  1  0.95481800  0.55359500  0.00000000  1
  O  O9  1  0.36509100  0.94353700  0.00000000  1
  O  O10  1  0.86780600  0.86780600  0.43513300  1
  O  O11  1  0.27837900  0.27837900  0.45621400  1
  O  O12  1  0.67717600  0.67717600  0.45527400  1
  O  O13  1  0.05646300  0.05646300  0.42155400  1
  O  O14  1  0.44640500  0.44640500  0.40122300  1
  O  O15  1  0.43267400  0.43267400  0.56486700  1
  O  O16  1  0.82216600  0.82216600  0.54378600  1
  O  O17  1  0.22190200  0.22190200  0.54472600  1
  O  O18  1  0.63490900  0.63490900  0.57844600  1
  O  O19  1  0.04518200  0.04518200  0.59877700  1
  O  O20  1  0.60095900  0.10095900  0.50000000  1
  O  O21  1  0.00000000  0.50000000  0.50000000  1
  O  O22  1  0.39904100  0.89904100  0.50000000  1
  O  O23  1  0.79921800  0.29921800  0.50000000  1
  O  O24  1  0.20078200  0.70078200  0.50000000  1
  O  O25  1  0.10095900  0.60095900  0.50000000  1
  O  O26  1  0.50000000  0.00000000  0.50000000  1
  O  O27  1  0.89904100  0.39904100  0.50000000  1
  O  O28  1  0.29921800  0.79921800  0.50000000  1
  O  O29  1  0.70078200  0.20078200  0.50000000  1
loop_
_geom_bond_atom_site_label_1
_geom_bond_atom_site_label_2
_geom_bond_distance
_geom_bond_site_symmetry_2
Ba0 O9 2.864417 1_545
Ba0 O4 2.864417 1_455
Ba0 O16 2.903147 1_444
Ba0 O11 2.903179 1_555
Ba0 O25 2.981044 1_555
Ba0 O20 2.981044 1_454
Ba0 O25 2.981044 1_544
Ba0 O20 2.981044 1_555
Ba0 O5 3.157234 1_455
Ba0 O0 3.157234 1_545
Ba0 O10 3.157431 1_444
Ba0 O15 3.157459 1_555
Ba1 O5 2.877813 1_555
Ba1 O0 2.877813 1_555
Ba1 O12 2.877813 1_555
Ba1 O17 2.877813 1_554
Ba1 O26 2.980971 1_554
Ba1 O26 2.980971 1_565
Ba1 O21 2.980971 1_554
Ba1 O21 2.980971 1_655
Ba1 O11 3.133532 1_554
Ba1 O1 3.133549 1_555
Ba1 O6 3.133549 1_555
Ba1 O16 3.133561 1_555
Ba2 O13 2.864417 1_665
Ba2 O18 2.864417 1_554
Ba2 O6 2.903160 1_655
Ba2 O1 2.903160 1_565
Ba2 O22 2.981044 1_554
Ba2 O27 2.981044 1_565
Ba2 O22 2.981044 1_655
Ba2 O27 2.981044 1_554
Ba2 O12 3.157234 1_554
Ba2 O17 3.157234 1_665
Ba2 O2 3.157448 1_655
Ba2 O7 3.157448 1_565
Ba3 O19 2.807717 1_554
Ba3 O14 2.807717 1_555
Ba3 O7 2.846769 1_555
Ba3 O2 2.846769 1_555
Ba3 O28 2.981114 1_544
Ba3 O23 2.981114 1_555
Ba3 O23 2.981114 1_454
Ba3 O28 2.981114 1_555
Ba3 O8 3.149559 1_455
Ba3 O3 3.149559 1_545
Ba3 O18 3.156252 1_555
Ba3 O13 3.156252 1_554
Ba4 O8 2.807717 1_555
Ba4 O3 2.807717 1_555
Ba4 O15 2.846756 1_554
Ba4 O10 2.846788 1_555
Ba4 O24 2.981114 1_655
Ba4 O29 2.981114 1_554
Ba4 O29 2.981114 1_565
Ba4 O24 2.981114 1_554
Ba4 O14 3.149559 1_554
Ba4 O19 3.149559 1_665
Ba4 O9 3.156252 1_555
Ba4 O4 3.156252 1_555
Ba5 O10 2.812815 1_555
Ba5 O15 2.812847 1_554
Ba5 O5 2.850624 1_555
Ba5 O0 2.850624 1_555
Ba5 O25 2.981216 1_655
Ba5 O20 2.981216 1_554
Ba5 O20 2.981216 1_565
Ba5 O25 2.981216 1_554
Ba5 O16 3.119517 1_555
Ba5 O11 3.119546 1_554
Ba5 O4 3.355876 1_555
Ba5 O9 3.355876 1_555
Ba6 O11 2.874484 1_555
Ba6 O6 2.874497 1_545
Ba6 O1 2.874497 1_455
Ba6 O16 2.874515 1_444
Ba6 O26 2.980971 1_555
Ba6 O21 2.980971 1_555
Ba6 O26 2.980971 1_454
Ba6 O21 2.980971 1_544
Ba6 O5 3.141908 1_455
Ba6 O12 3.141908 1_444
Ba6 O0 3.141908 1_545
Ba6 O17 3.141908 1_555
Ba7 O2 2.812828 1_555
Ba7 O7 2.812828 1_555
Ba7 O17 2.850624 1_554
Ba7 O12 2.850624 1_555
Ba7 O22 2.981216 1_544
Ba7 O27 2.981216 1_454
Ba7 O27 2.981216 1_555
Ba7 O22 2.981216 1_555
Ba7 O6 3.119535 1_555
Ba7 O1 3.119535 1_555
Ba7 O13 3.355876 1_554
Ba7 O18 3.355876 1_555
Ca0 O3 2.604694 1_555
Ca0 O8 2.604694 1_555
Ca0 O13 2.606413 1_665
Ca0 O18 2.606413 1_554
Ca0 O28 2.981747 1_554
Ca0 O23 2.981747 1_554
Ca0 O28 2.981747 1_655
Ca0 O23 2.981747 1_565
Ca1 O14 2.604694 1_555
Ca1 O19 2.604694 1_554
Ca1 O9 2.606413 1_545
Ca1 O4 2.606413 1_455
Ca1 O24 2.981747 1_544
Ca1 O24 2.981747 1_555
Ca1 O29 2.981747 1_555
Ca1 O29 2.981747 1_454
O0 Zr0 2.116282 1_554
O0 Zr6 2.116282 1_565
O1 Zr7 2.115940 1_555
O1 Zr1 2.115940 1_544
O2 Zr2 2.126181 1_454
O2 Zr8 2.126181 1_555
O3 Zr3 2.156026 1_554
O3 Zr9 2.156026 1_565
O4 Zr5 2.137051 1_655
O4 Zr4 2.137051 1_554
O5 Zr6 2.116282 1_554
O5 Zr0 2.116282 1_655
O6 Zr1 2.115940 1_555
O6 Zr7 2.115940 1_454
O7 Zr2 2.126181 1_555
O7 Zr8 2.126181 1_544
O8 Zr3 2.156026 1_655
O8 Zr9 2.156026 1_554
O9 Zr5 2.137051 1_554
O9 Zr4 2.137051 1_565
O10 Zr4 2.126181 1_565
O10 Zr5 2.126181 1_655
O11 Zr6 2.115940 1_555
O11 Zr0 2.115940 1_555
O12 Zr1 2.116282 1_555
O12 Zr7 2.116282 1_555
O13 Zr8 2.137051 1_545
O13 Zr2 2.137051 1_455
O14 Zr3 2.156026 1_555
O14 Zr9 2.156026 1_555
O15 Zr4 2.126180 1_555
O15 Zr5 2.126180 1_555
O16 Zr0 2.115939 1_655
O16 Zr6 2.115939 1_565
O17 Zr1 2.116282 1_545
O17 Zr7 2.116282 1_455
O18 Zr8 2.137051 1_555
O18 Zr2 2.137051 1_555
O19 Zr3 2.156026 1_545
O19 Zr9 2.156026 1_455
O20 Zr4 2.146771 1_555
O20 Zr6 2.148173 1_555
O21 Zr7 2.142012 1_455
O21 Zr0 2.142012 1_555
O22 Zr8 2.146771 1_555
O22 Zr1 2.148173 1_555
O23 Zr9 2.091486 1_555
O23 Zr2 2.095141 1_555
O24 Zr3 2.091486 1_555
O24 Zr5 2.095141 1_555
O25 Zr5 2.146771 1_555
O25 Zr0 2.148173 1_555
O26 Zr1 2.142012 1_545
O26 Zr6 2.142012 1_555
O27 Zr2 2.146771 1_555
O27 Zr7 2.148173 1_555
O28 Zr3 2.091486 1_555
O28 Zr8 2.095141 1_555
O29 Zr9 2.091486 1_555
O29 Zr4 2.095141 1_555
