# generated using pymatgen
data_Yb3Se4
_symmetry_space_group_name_H-M   'P 1'
_cell_length_a   7.18668233
_cell_length_b   7.18668233
_cell_length_c   4.17961100
_cell_angle_alpha   90.00000000
_cell_angle_beta   90.00000000
_cell_angle_gamma   110.32860650
_symmetry_Int_Tables_number   1
_chemical_formula_structural   Yb3Se4
_chemical_formula_sum   'Yb3 Se4'
_cell_volume   202.42488490
_cell_formula_units_Z   1
loop_
 _symmetry_equiv_pos_site_id
 _symmetry_equiv_pos_as_xyz
  1  'x, y, z'
loop_
 _atom_site_type_symbol
 _atom_site_label
 _atom_site_symmetry_multiplicity
 _atom_site_fract_x
 _atom_site_fract_y
 _atom_site_fract_z
 _atom_site_occupancy
  Yb  Yb0  1  0.00000000  0.50000000  0.00000000  1
  Yb  Yb1  1  0.00000000  0.00000000  0.50000000  1
  Yb  Yb2  1  0.50000000  0.00000000  0.00000000  1
  Se  Se0  1  0.75317000  0.24683000  0.50000000  1
  Se  Se1  1  0.75995300  0.75995300  0.00000000  1
  Se  Se2  1  0.24683000  0.75317000  0.50000000  1
  Se  Se3  1  0.24004700  0.24004700  0.00000000  1
loop_
_geom_bond_atom_site_label_1
_geom_bond_atom_site_label_2
_geom_bond_distance
_geom_bond_site_symmetry_2
Se0 Yb1 2.911993 1_655
Se0 Yb0 2.929484 1_655
Se0 Yb0 2.929484 1_656
Se0 Yb2 2.929484 1_556
Se0 Yb2 2.929484 1_555
Se1 Yb1 2.872575 1_665
Se1 Yb1 2.872575 1_664
Se1 Yb2 2.950523 1_565
Se1 Yb0 2.950523 1_655
Se2 Yb1 2.911993 1_565
Se2 Yb2 2.929484 1_566
Se2 Yb0 2.929484 1_555
Se2 Yb2 2.929484 1_565
Se2 Yb0 2.929484 1_556
Se3 Yb1 2.872575 1_554
Se3 Yb1 2.872575 1_555
Se3 Yb0 2.950523 1_555
Se3 Yb2 2.950523 1_555
