# generated using pymatgen
data_Tl2CoI4
_symmetry_space_group_name_H-M   'P 1'
_cell_length_a   8.01333447
_cell_length_b   7.75770419
_cell_length_c   9.58047811
_cell_angle_alpha   71.60462203
_cell_angle_beta   90.00000000
_cell_angle_gamma   90.00000000
_symmetry_Int_Tables_number   1
_chemical_formula_structural   Tl2CoI4
_chemical_formula_sum   'Tl4 Co2 I8'
_cell_volume   565.13836228
_cell_formula_units_Z   2
loop_
 _symmetry_equiv_pos_site_id
 _symmetry_equiv_pos_as_xyz
  1  'x, y, z'
loop_
 _atom_site_type_symbol
 _atom_site_label
 _atom_site_symmetry_multiplicity
 _atom_site_fract_x
 _atom_site_fract_y
 _atom_site_fract_z
 _atom_site_occupancy
  Tl  Tl0  1  0.75000000  0.77643081  0.55245761  1
  Tl  Tl1  1  0.25000000  0.22356919  0.44754239  1
  Tl  Tl2  1  0.75000000  0.74146425  0.06936037  1
  Tl  Tl3  1  0.25000000  0.25853575  0.93063963  1
  Co  Co0  1  0.75000000  0.21685508  0.70473708  1
  Co  Co1  1  0.25000000  0.78314492  0.29526292  1
  I  I0  1  0.75000000  0.39797090  0.42757650  1
  I  I1  1  0.25000000  0.60202910  0.57242350  1
  I  I2  1  -0.00190322  0.00198170  0.23303788  1
  I  I3  1  0.00190322  -0.00198170  0.76696212  1
  I  I4  1  0.49809678  -0.00198170  0.76696212  1
  I  I5  1  0.50190322  0.00198170  0.23303788  1
  I  I6  1  0.75000000  0.41775705  0.87409322  1
  I  I7  1  0.25000000  0.58224295  0.12590678  1
loop_
_geom_bond_atom_site_label_1
_geom_bond_atom_site_label_2
_geom_bond_distance
_geom_bond_site_symmetry_2
Co0 I6 2.580232 1_555
Co0 I0 2.582677 1_555
Co0 I3 2.583293 1_655
Co0 I4 2.583293 1_555
Co1 I7 2.580232 1_555
Co1 I1 2.582677 1_555
Co1 I2 2.583293 1_565
Co1 I5 2.583293 1_565
I0 Tl0 3.502628 1_555
I0 Tl2 3.620321 1_555
I1 Tl1 3.502628 1_555
I1 Tl3 3.620321 1_555
I2 Tl2 3.534990 1_445
I2 Tl3 3.576304 1_554
I3 Tl3 3.534990 1_555
I3 Tl2 3.576304 1_446
I4 Tl3 3.534990 1_555
I4 Tl2 3.576304 1_546
I5 Tl2 3.534990 1_545
I5 Tl3 3.576304 1_554
I6 Tl0 3.438887 1_555
I6 Tl2 3.573655 1_556
I7 Tl1 3.438887 1_555
I7 Tl3 3.573655 1_554
