# generated using pymatgen
data_Cs15W7N19
_symmetry_space_group_name_H-M   'P 1'
_cell_length_a   7.75218700
_cell_length_b   13.26308413
_cell_length_c   20.28084360
_cell_angle_alpha   89.25132278
_cell_angle_beta   85.57998867
_cell_angle_gamma   81.36479608
_symmetry_Int_Tables_number   1
_chemical_formula_structural   Cs15W7N19
_chemical_formula_sum   'Cs30 W14 N38'
_cell_volume   2055.46259967
_cell_formula_units_Z   2
loop_
 _symmetry_equiv_pos_site_id
 _symmetry_equiv_pos_as_xyz
  1  'x, y, z'
loop_
 _atom_site_type_symbol
 _atom_site_label
 _atom_site_symmetry_multiplicity
 _atom_site_fract_x
 _atom_site_fract_y
 _atom_site_fract_z
 _atom_site_occupancy
  Cs  Cs0  1  0.50362300  0.37623600  0.56775800  1
  Cs  Cs1  1  0.49637700  0.62376400  0.43224200  1
  Cs  Cs2  1  0.63823900  0.87524300  0.34028200  1
  Cs  Cs3  1  0.36176100  0.12475700  0.65971800  1
  Cs  Cs4  1  0.66967600  0.99264400  0.81229300  1
  Cs  Cs5  1  0.33032400  0.00735600  0.18770700  1
  Cs  Cs6  1  0.93858700  0.96207200  0.63381700  1
  Cs  Cs7  1  0.06141300  0.03792800  0.36618300  1
  Cs  Cs8  1  0.71083500  0.26739900  0.72997100  1
  Cs  Cs9  1  0.28916500  0.73260100  0.27002900  1
  Cs  Cs10  1  0.88273300  0.82249800  0.17090500  1
  Cs  Cs11  1  0.11726700  0.17750200  0.82909500  1
  Cs  Cs12  1  0.87894800  0.10656200  0.10394400  1
  Cs  Cs13  1  0.12105200  0.89343800  0.89605600  1
  Cs  Cs14  1  0.71079900  0.91660300  0.00108100  1
  Cs  Cs15  1  0.28920100  0.08339700  0.99891900  1
  Cs  Cs16  1  0.65922800  0.08996500  0.47663100  1
  Cs  Cs17  1  0.34077200  0.91003500  0.52336900  1
  Cs  Cs18  1  0.54408200  0.56724900  0.71954500  1
  Cs  Cs19  1  0.45591800  0.43275100  0.28045500  1
  Cs  Cs20  1  0.98034600  0.65793700  0.98593800  1
  Cs  Cs21  1  0.01965400  0.34206300  0.01406200  1
  Cs  Cs22  1  0.99083700  0.31657100  0.21955100  1
  Cs  Cs23  1  0.00916300  0.68342900  0.78044900  1
  Cs  Cs24  1  0.72401800  0.74077700  0.59079800  1
  Cs  Cs25  1  0.27598200  0.25922300  0.40920200  1
  Cs  Cs26  1  0.65091300  0.59577400  0.15437800  1
  Cs  Cs27  1  0.34908700  0.40422600  0.84562200  1
  Cs  Cs28  1  0.00000000  0.50000000  0.50000000  1
  Cs  Cs29  1  0.50000000  0.50000000  0.00000000  1
  W  W0  1  0.55559800  0.72404600  0.88107300  1
  W  W1  1  0.44440200  0.27595400  0.11892700  1
  W  W2  1  0.91623500  0.57650000  0.31559200  1
  W  W3  1  0.08376500  0.42350000  0.68440800  1
  W  W4  1  0.76804800  0.33839200  0.39703400  1
  W  W5  1  0.23195200  0.66160800  0.60296600  1
  W  W6  1  0.96144300  0.23193600  0.55940400  1
  W  W7  1  0.03855700  0.76806400  0.44059600  1
  W  W8  1  0.83098500  0.46123900  0.85521800  1
  W  W9  1  0.16901500  0.53876100  0.14478200  1
  W  W10  1  0.64645900  0.14828200  0.27292100  1
  W  W11  1  0.35354100  0.85171800  0.72707900  1
  W  W12  1  0.66868400  0.22516300  0.94143100  1
  W  W13  1  0.33131600  0.77483700  0.05856900  1
  N  N0  1  0.73476400  0.79499000  0.88350600  1
  N  N1  1  0.26523600  0.20501000  0.11649400  1
  N  N2  1  0.99744300  0.66166500  0.37793000  1
  N  N3  1  0.00255700  0.33833500  0.62207000  1
  N  N4  1  0.53859800  0.90074600  0.68439600  1
  N  N5  1  0.46140200  0.09925400  0.31560400  1
  N  N6  1  0.57839100  0.22378800  0.19119200  1
  N  N7  1  0.42160900  0.77621200  0.80880800  1
  N  N8  1  0.65145700  0.58168900  0.86447800  1
  N  N9  1  0.34854300  0.41831100  0.13552200  1
  N  N10  1  0.45016800  0.60469900  0.57571000  1
  N  N11  1  0.54983200  0.39530100  0.42429000  1
  N  N12  1  0.84584000  0.86493800  0.45706400  1
  N  N13  1  0.15416000  0.13506200  0.54293600  1
  N  N14  1  0.88291000  0.28544400  0.47319400  1
  N  N15  1  0.11709000  0.71455600  0.52680600  1
  N  N16  1  0.85693000  0.12414400  0.93930700  1
  N  N17  1  0.14307000  0.87585600  0.06069300  1
  N  N18  1  0.78602800  0.17136100  0.59972200  1
  N  N19  1  0.21397200  0.82863900  0.40027800  1
  N  N20  1  0.74788000  0.23518200  0.33492500  1
  N  N21  1  0.25212000  0.76481800  0.66507500  1
  N  N22  1  0.99178300  0.51636900  0.09821900  1
  N  N23  1  0.00821700  0.48363100  0.90178100  1
  N  N24  1  0.58243000  0.25551000  0.03519400  1
  N  N25  1  0.41757000  0.74449000  0.96480600  1
  N  N26  1  0.73996900  0.34636100  0.89372100  1
  N  N27  1  0.26003100  0.65363900  0.10627900  1
  N  N28  1  0.81192900  0.03897500  0.24891400  1
  N  N29  1  0.18807100  0.96102500  0.75108600  1
  N  N30  1  0.91937100  0.43993200  0.76395000  1
  N  N31  1  0.08062900  0.56006800  0.23605000  1
  N  N32  1  0.88790900  0.44587000  0.35462200  1
  N  N33  1  0.11209100  0.55413000  0.64537800  1
  N  N34  1  0.70867000  0.63808200  0.29112600  1
  N  N35  1  0.29133000  0.36191800  0.70887400  1
  N  N36  1  0.49755200  0.18258500  0.89595000  1
  N  N37  1  0.50244800  0.81741500  0.10405000  1
loop_
_geom_bond_atom_site_label_1
_geom_bond_atom_site_label_2
_geom_bond_distance
_geom_bond_site_symmetry_2
Cs0 N11 2.916446 1_555
Cs0 N10 3.000799 1_555
Cs0 N35 3.207638 1_555
Cs0 N18 3.314066 1_555
Cs0 N14 3.449857 1_555
Cs1 N10 2.916446 1_555
Cs1 N11 3.000799 1_555
Cs1 N34 3.207638 1_555
Cs1 N19 3.314066 1_555
Cs1 N15 3.449857 1_555
Cs2 N12 2.954864 1_555
Cs2 N5 3.130642 1_565
Cs2 N28 3.217265 1_565
Cs2 N34 3.266250 1_555
Cs2 N19 3.557256 1_555
Cs3 N13 2.954864 1_555
Cs3 N4 3.130642 1_545
Cs3 N29 3.217265 1_545
Cs3 N35 3.266250 1_555
Cs3 N18 3.557256 1_555
Cs4 N0 2.971352 1_555
Cs4 N36 3.123902 1_565
Cs4 N4 3.179156 1_555
Cs5 N1 2.971352 1_555
Cs5 N37 3.123902 1_545
Cs5 N5 3.179156 1_555
Cs6 N18 2.944842 1_565
Cs6 N29 3.177603 1_655
Cs6 N21 3.382115 1_655
Cs6 N4 3.402056 1_555
Cs6 N13 3.467023 1_665
Cs7 N19 2.944842 1_545
Cs7 N28 3.177603 1_455
Cs7 N20 3.382115 1_455
Cs7 N5 3.402056 1_555
Cs7 N12 3.467023 1_445
Cs8 N18 2.927067 1_555
Cs8 N30 3.106204 1_555
Cs8 N3 3.257383 1_655
Cs8 N35 3.362571 1_555
Cs8 N26 3.529064 1_555
Cs9 N19 2.927067 1_555
Cs9 N31 3.106204 1_555
Cs9 N2 3.257383 1_455
Cs9 N34 3.362571 1_555
Cs9 N27 3.529064 1_555
Cs10 N17 3.043388 1_655
Cs10 N28 3.249527 1_565
Cs10 N37 3.348441 1_555
Cs11 N16 3.043388 1_455
Cs11 N29 3.249527 1_545
Cs11 N36 3.348441 1_555
Cs12 N6 3.053806 1_555
Cs12 N28 3.090838 1_555
Cs12 N24 3.192022 1_555
Cs12 N16 3.359736 1_554
Cs12 N1 3.469510 1_655
Cs12 N17 3.498081 1_645
Cs13 N7 3.053806 1_555
Cs13 N29 3.090838 1_555
Cs13 N25 3.192022 1_555
Cs13 N17 3.359736 1_556
Cs13 N0 3.469510 1_455
Cs13 N16 3.498081 1_465
Cs14 N0 2.874778 1_554
Cs14 N37 2.957498 1_555
Cs14 N16 3.325265 1_564
Cs15 N1 2.874778 1_556
Cs15 N36 2.957498 1_555
Cs15 N17 3.325265 1_546
Cs16 N18 3.021750 1_555
Cs16 N12 3.131099 1_545
Cs16 N14 3.325689 1_555
Cs16 N20 3.519897 1_555
Cs16 N5 3.706342 1_555
Cs17 N19 3.021750 1_555
Cs17 N13 3.131099 1_565
Cs17 N15 3.325689 1_555
Cs17 N21 3.519897 1_555
Cs17 N4 3.706342 1_555
Cs18 N10 3.076863 1_555
Cs18 N8 3.131951 1_555
Cs18 N7 3.306952 1_555
Cs18 N30 3.318949 1_555
Cs18 N21 3.426112 1_555
Cs18 N35 3.603552 1_555
Cs19 N11 3.076863 1_555
Cs19 N9 3.131951 1_555
Cs19 N6 3.306952 1_555
Cs19 N31 3.318949 1_555
Cs19 N20 3.426112 1_555
Cs19 N34 3.603552 1_555
Cs20 N23 2.863674 1_655
Cs20 N22 2.930558 1_556
Cs20 N0 3.273531 1_555
Cs20 N27 3.381672 1_656
Cs20 N17 3.707787 1_656
Cs20 N25 3.731145 1_655
Cs21 N22 2.863674 1_455
Cs21 N23 2.930558 1_554
Cs21 N1 3.273531 1_555
Cs21 N26 3.381672 1_454
Cs21 N16 3.707787 1_454
Cs21 N24 3.731145 1_455
Cs22 N1 3.087576 1_655
Cs22 N20 3.170633 1_555
Cs22 N32 3.233665 1_555
Cs22 N31 3.430087 1_655
Cs22 N9 3.570680 1_655
Cs22 N22 3.593048 1_555
Cs22 N6 3.681263 1_555
Cs23 N0 3.087576 1_455
Cs23 N21 3.170633 1_555
Cs23 N33 3.233665 1_555
Cs23 N30 3.430087 1_455
Cs23 N8 3.570680 1_455
Cs23 N23 3.593048 1_555
Cs23 N7 3.681263 1_555
Cs24 N4 2.989970 1_555
Cs24 N10 3.020423 1_555
Cs24 N15 3.189752 1_655
Cs24 N12 3.303845 1_555
Cs25 N5 2.989970 1_555
Cs25 N11 3.020423 1_555
Cs25 N14 3.189752 1_455
Cs25 N13 3.303845 1_555
Cs26 N22 2.849713 1_555
Cs26 N34 2.917946 1_555
Cs26 N37 3.177208 1_555
Cs26 N27 3.234246 1_555
Cs26 N9 3.605421 1_555
Cs27 N23 2.849713 1_555
Cs27 N35 2.917946 1_555
Cs27 N36 3.177208 1_555
Cs27 N26 3.234246 1_555
Cs27 N8 3.605421 1_555
Cs28 N15 3.179541 1_555
Cs28 N14 3.179541 1_455
Cs28 N2 3.253148 1_455
Cs28 N3 3.253148 1_555
Cs28 N33 3.255923 1_555
Cs28 N32 3.255923 1_455
Cs29 N9 3.148563 1_555
Cs29 N8 3.148563 1_554
Cs29 N27 3.258419 1_555
Cs29 N26 3.258419 1_554
Cs29 N24 3.289442 1_555
Cs29 N25 3.289442 1_554
N0 W0 1.794752 1_555
N1 W1 1.794752 1_555
N2 W2 1.908954 1_555
N2 W7 1.988118 1_655
N3 W3 1.908954 1_555
N3 W6 1.988118 1_455
N4 W11 1.817761 1_555
N5 W10 1.817761 1_555
N6 W1 1.922998 1_555
N6 W10 1.990351 1_555
N7 W0 1.922998 1_555
N7 W11 1.990351 1_555
N8 W0 1.946054 1_555
N8 W8 1.955566 1_555
N9 W1 1.946054 1_555
N9 W9 1.955566 1_555
N10 W5 1.794521 1_555
N11 W4 1.794521 1_555
N12 W7 1.830915 1_655
N13 W6 1.830915 1_455
N14 W4 1.915112 1_555
N14 W6 1.983212 1_555
N15 W5 1.915112 1_555
N15 W7 1.983212 1_555
N16 W12 1.825181 1_555
N17 W13 1.825181 1_555
N18 W6 1.817355 1_555
N19 W7 1.817355 1_555
N20 W4 1.903843 1_555
N20 W10 1.997557 1_555
N21 W5 1.903843 1_555
N21 W11 1.997557 1_555
N22 W9 1.788159 1_655
N23 W8 1.788159 1_455
N24 W1 1.935742 1_555
N24 W12 1.992074 1_554
N25 W0 1.935742 1_555
N25 W13 1.992074 1_556
N26 W8 1.906795 1_555
N26 W12 1.992295 1_555
N27 W9 1.906795 1_555
N27 W13 1.992295 1_555
N28 W10 1.829763 1_555
N29 W11 1.829763 1_555
N30 W8 1.932757 1_555
N30 W3 1.970502 1_655
N31 W9 1.932757 1_555
N31 W2 1.970502 1_455
N32 W2 1.930843 1_555
N32 W4 1.969206 1_555
N33 W3 1.930843 1_555
N33 W5 1.969206 1_555
N34 W2 1.794515 1_555
N35 W3 1.794515 1_555
N36 W12 1.832184 1_555
N37 W13 1.832184 1_555
