# generated using pymatgen
data_BaMg14Cd
_symmetry_space_group_name_H-M   'P 1'
_cell_length_a   6.63624533
_cell_length_b   6.65345406
_cell_length_c   10.55949926
_cell_angle_alpha   90.00000000
_cell_angle_beta   90.00000000
_cell_angle_gamma   120.08582340
_symmetry_Int_Tables_number   1
_chemical_formula_structural   BaMg14Cd
_chemical_formula_sum   'Ba1 Mg14 Cd1'
_cell_volume   403.42918933
_cell_formula_units_Z   1
loop_
 _symmetry_equiv_pos_site_id
 _symmetry_equiv_pos_as_xyz
  1  'x, y, z'
loop_
 _atom_site_type_symbol
 _atom_site_label
 _atom_site_symmetry_multiplicity
 _atom_site_fract_x
 _atom_site_fract_y
 _atom_site_fract_z
 _atom_site_occupancy
  Ba  Ba0  1  0.16665120  0.33332510  0.12500000  1
  Mg  Mg0  1  0.16666278  0.33333089  0.62500000  1
  Mg  Mg1  1  0.16327010  0.83163455  0.62500000  1
  Mg  Mg2  1  0.65911332  0.31626942  0.12500000  1
  Mg  Mg3  1  0.66810882  0.33664155  0.62500000  1
  Mg  Mg4  1  0.65911332  0.84284290  0.12500000  1
  Mg  Mg5  1  0.66810882  0.83146628  0.62500000  1
  Mg  Mg6  1  0.33853236  0.15971234  0.38945532  1
  Mg  Mg7  1  0.33853236  0.15971234  0.86054468  1
  Mg  Mg8  1  0.33853236  0.67882102  0.38945532  1
  Mg  Mg9  1  0.33853236  0.67882102  0.86054468  1
  Mg  Mg10  1  0.82060448  0.16030274  0.39002416  1
  Mg  Mg11  1  0.82060448  0.16030274  0.85997584  1
  Mg  Mg12  1  0.83380524  0.66690312  0.36876543  1
  Mg  Mg13  1  0.83380524  0.66690312  0.88123457  1
  Cd  Cd0  1  0.18602275  0.84301088  0.12500000  1
loop_
_geom_bond_atom_site_label_1
_geom_bond_atom_site_label_2
_geom_bond_distance
_geom_bond_site_symmetry_2
Ba0 Mg4 3.312714 1_445
Ba0 Mg2 3.312715 1_455
Ba0 Mg4 3.326435 1_555
Ba0 Mg2 3.326436 1_555
Ba0 Cd0 3.328586 1_545
Ba0 Cd0 3.328586 1_555
Ba0 Mg7 3.428489 1_554
Ba0 Mg6 3.428489 1_555
Ba0 Mg9 3.428495 1_554
Ba0 Mg8 3.428495 1_555
Ba0 Mg11 3.432222 1_454
Ba0 Mg10 3.432222 1_455
Mg0 Mg10 3.178863 1_455
Mg0 Mg11 3.178863 1_455
Mg0 Mg6 3.184743 1_555
Mg0 Mg7 3.184743 1_555
Mg0 Mg8 3.184751 1_555
Mg0 Mg9 3.184751 1_555
Mg0 Mg5 3.316731 1_555
Mg0 Mg3 3.316731 1_555
Mg0 Mg5 3.319623 1_445
Mg0 Mg3 3.319623 1_455
Mg0 Mg1 3.326784 1_545
Mg0 Mg1 3.326784 1_555
Mg1 Mg8 3.123855 1_555
Mg1 Mg9 3.123855 1_555
Mg1 Mg6 3.123861 1_565
Mg1 Mg7 3.123861 1_565
Mg1 Mg3 3.285450 1_455
Mg1 Mg5 3.285451 1_455
Mg1 Mg12 3.301506 1_455
Mg1 Mg13 3.301506 1_455
Mg1 Mg3 3.350795 1_565
Mg1 Mg5 3.350795 1_555
Mg2 Mg4 3.149922 1_545
Mg2 Mg7 3.344762 1_554
Mg2 Mg6 3.344762 1_555
Mg2 Mg4 3.503532 1_555
Mg3 Mg6 3.126398 1_555
Mg3 Mg7 3.126398 1_555
Mg3 Mg5 3.292294 1_555
Mg3 Mg5 3.361160 1_545
Mg4 Mg9 3.344761 1_554
Mg4 Mg8 3.344761 1_555
Mg5 Mg8 3.126399 1_555
Mg5 Mg9 3.126399 1_555
Mg6 Mg8 3.199588 1_545
Mg6 Mg8 3.453866 1_555
Mg7 Mg9 3.199588 1_545
Mg7 Mg9 3.453866 1_555
Mg10 Mg3 3.122113 1_555
Mg10 Mg5 3.122121 1_545
Mg10 Mg8 3.197187 1_545
Mg10 Mg6 3.197187 1_555
Mg10 Mg12 3.335154 1_555
Mg10 Mg12 3.335154 1_545
Mg10 Mg2 3.342471 1_555
Mg10 Mg4 3.342478 1_545
Mg10 Mg8 3.439072 1_655
Mg10 Mg6 3.439073 1_655
Mg11 Mg3 3.122113 1_555
Mg11 Mg5 3.122121 1_545
Mg11 Mg9 3.197187 1_545
Mg11 Mg7 3.197187 1_555
Mg11 Mg13 3.335154 1_555
Mg11 Mg13 3.335154 1_545
Mg11 Mg2 3.342471 1_556
Mg11 Mg4 3.342478 1_546
Mg11 Mg9 3.439072 1_655
Mg11 Mg7 3.439073 1_655
Mg12 Mg4 3.271175 1_555
Mg12 Mg2 3.271182 1_555
Mg12 Mg5 3.306949 1_555
Mg12 Mg3 3.306955 1_555
Mg12 Mg6 3.317655 1_665
Mg12 Mg8 3.317655 1_655
Mg12 Mg6 3.334375 1_555
Mg12 Mg8 3.334375 1_555
Mg13 Mg4 3.271175 1_556
Mg13 Mg2 3.271182 1_556
Mg13 Mg5 3.306949 1_555
Mg13 Mg3 3.306955 1_555
Mg13 Mg7 3.317655 1_665
Mg13 Mg9 3.317655 1_655
Mg13 Mg7 3.334375 1_555
Mg13 Mg9 3.334375 1_555
Cd0 Mg2 3.140105 1_565
Cd0 Mg4 3.140106 1_555
Cd0 Mg13 3.273557 1_454
Cd0 Mg12 3.273557 1_455
Cd0 Mg9 3.335323 1_554
Cd0 Mg8 3.335323 1_555
Cd0 Mg7 3.335330 1_564
Cd0 Mg6 3.335330 1_565
Cd0 Mg2 3.496140 1_455
Cd0 Mg4 3.496140 1_455
