# generated using pymatgen
data_Mg6AlCd
_symmetry_space_group_name_H-M   'P 1'
_cell_length_a   5.07313100
_cell_length_b   6.26764800
_cell_length_c   10.93823200
_cell_angle_alpha   90.00000000
_cell_angle_beta   90.00000000
_cell_angle_gamma   90.00000000
_symmetry_Int_Tables_number   1
_chemical_formula_structural   Mg6AlCd
_chemical_formula_sum   'Mg12 Al2 Cd2'
_cell_volume   347.79858068
_cell_formula_units_Z   2
loop_
 _symmetry_equiv_pos_site_id
 _symmetry_equiv_pos_as_xyz
  1  'x, y, z'
loop_
 _atom_site_type_symbol
 _atom_site_label
 _atom_site_symmetry_multiplicity
 _atom_site_fract_x
 _atom_site_fract_y
 _atom_site_fract_z
 _atom_site_occupancy
  Mg  Mg0  1  0.00000000  0.25032000  0.08379000  1
  Mg  Mg1  1  0.00000000  0.74968000  0.08379000  1
  Mg  Mg2  1  0.00000000  0.00000000  0.33302900  1
  Mg  Mg3  1  0.50000000  0.74736200  0.41510500  1
  Mg  Mg4  1  0.50000000  0.25263800  0.41510500  1
  Mg  Mg5  1  0.50000000  0.00000000  0.16694100  1
  Mg  Mg6  1  0.00000000  0.75032000  0.58379000  1
  Mg  Mg7  1  0.00000000  0.24968000  0.58379000  1
  Mg  Mg8  1  0.00000000  0.50000000  0.83302900  1
  Mg  Mg9  1  0.50000000  0.24736200  0.91510500  1
  Mg  Mg10  1  0.50000000  0.75263800  0.91510500  1
  Mg  Mg11  1  0.50000000  0.50000000  0.66694100  1
  Al  Al0  1  0.00000000  0.50000000  0.33603900  1
  Al  Al1  1  0.00000000  0.00000000  0.83603900  1
  Cd  Cd0  1  0.50000000  0.50000000  0.16620200  1
  Cd  Cd1  1  0.50000000  0.00000000  0.66620200  1
loop_
_geom_bond_atom_site_label_1
_geom_bond_atom_site_label_2
_geom_bond_distance
_geom_bond_site_symmetry_2
Mg0 Mg5 3.118157 1_455
Mg0 Mg5 3.118157 1_555
Mg0 Mg1 3.129813 1_555
Mg0 Mg9 3.136712 1_454
Mg0 Mg9 3.136712 1_554
Mg0 Mg1 3.137835 1_545
Mg0 Mg2 3.145450 1_555
Mg0 Mg8 3.157900 1_554
Mg1 Mg5 3.118157 1_465
Mg1 Mg5 3.118157 1_565
Mg1 Mg10 3.136712 1_554
Mg1 Mg10 3.136712 1_454
Mg1 Mg2 3.145450 1_565
Mg1 Mg8 3.157900 1_554
Mg2 Mg5 3.120031 1_455
Mg2 Mg5 3.120031 1_555
Mg2 Mg3 3.122091 1_445
Mg2 Mg4 3.122091 1_555
Mg2 Mg3 3.122091 1_545
Mg2 Mg4 3.122091 1_455
Mg2 Mg6 3.157900 1_545
Mg2 Mg7 3.157900 1_555
Mg3 Mg4 3.100756 1_555
Mg3 Mg6 3.136712 1_555
Mg3 Mg6 3.136712 1_655
Mg3 Mg5 3.142559 1_565
Mg3 Mg4 3.166892 1_565
Mg4 Mg7 3.136712 1_655
Mg4 Mg7 3.136712 1_555
Mg4 Mg5 3.142559 1_555
Mg5 Mg9 3.160968 1_554
Mg6 Mg7 3.129813 1_565
Mg6 Mg7 3.137835 1_555
Mg6 Mg8 3.145450 1_555
Mg7 Mg8 3.145450 1_555
Mg8 Mg9 3.122091 1_555
Mg8 Mg9 3.122091 1_455
Mg10 Mg9 3.100756 1_565
Mg10 Mg8 3.122091 1_555
Mg10 Mg8 3.122091 1_655
Mg10 Mg11 3.142559 1_555
Mg10 Mg5 3.160968 1_566
Mg10 Mg9 3.166892 1_555
Mg11 Mg7 3.118157 1_655
Mg11 Mg7 3.118157 1_555
Mg11 Mg6 3.118157 1_655
Mg11 Mg6 3.118157 1_555
Mg11 Mg8 3.120031 1_555
Mg11 Mg8 3.120031 1_655
Mg11 Mg9 3.142559 1_555
Mg11 Mg3 3.160968 1_555
Mg11 Mg4 3.160968 1_555
Al0 Mg3 3.096092 1_455
Al0 Mg4 3.096092 1_455
Al0 Mg3 3.096092 1_555
Al0 Mg4 3.096092 1_555
Al0 Mg7 3.131353 1_555
Al0 Mg6 3.131353 1_555
Al0 Mg2 3.133997 1_555
Al0 Mg2 3.133997 1_565
Al0 Cd0 3.144086 1_555
Al0 Cd0 3.144086 1_455
Al0 Mg0 3.172047 1_555
Al0 Mg1 3.172047 1_555
Al1 Mg9 3.096092 1_455
Al1 Mg9 3.096092 1_555
Al1 Mg10 3.096092 1_545
Al1 Mg10 3.096092 1_445
Al1 Mg1 3.131353 1_546
Al1 Mg0 3.131353 1_556
Al1 Mg8 3.133997 1_545
Al1 Mg8 3.133997 1_555
Al1 Cd1 3.144086 1_555
Al1 Cd1 3.144086 1_455
Al1 Mg6 3.172047 1_545
Al1 Mg7 3.172047 1_555
Cd0 Mg0 3.113791 1_555
Cd0 Mg0 3.113791 1_655
Cd0 Mg1 3.113791 1_655
Cd0 Mg1 3.113791 1_555
Cd0 Mg3 3.133049 1_555
Cd0 Mg4 3.133049 1_555
Cd0 Mg5 3.133834 1_555
Cd0 Mg5 3.133834 1_565
Cd0 Mg10 3.170312 1_554
Cd0 Mg9 3.170312 1_554
Cd1 Mg6 3.113791 1_545
Cd1 Mg6 3.113791 1_645
Cd1 Mg7 3.113791 1_655
Cd1 Mg7 3.113791 1_555
Cd1 Mg9 3.133049 1_555
Cd1 Mg10 3.133049 1_545
Cd1 Mg11 3.133834 1_555
Cd1 Mg11 3.133834 1_545
Cd1 Mg3 3.170312 1_545
Cd1 Mg4 3.170312 1_555
