# generated using pymatgen
data_ZnNiBiP2O9
_symmetry_space_group_name_H-M   'P 1'
_cell_length_a   6.69563600
_cell_length_b   8.02697100
_cell_length_c   13.84410200
_cell_angle_alpha   90.00000000
_cell_angle_beta   90.00000000
_cell_angle_gamma   90.00000000
_symmetry_Int_Tables_number   1
_chemical_formula_structural   ZnNiBiP2O9
_chemical_formula_sum   'Zn4 Ni4 Bi4 P8 O36'
_cell_volume   744.06062058
_cell_formula_units_Z   4
loop_
 _symmetry_equiv_pos_site_id
 _symmetry_equiv_pos_as_xyz
  1  'x, y, z'
loop_
 _atom_site_type_symbol
 _atom_site_label
 _atom_site_symmetry_multiplicity
 _atom_site_fract_x
 _atom_site_fract_y
 _atom_site_fract_z
 _atom_site_occupancy
  Zn  Zn0  1  0.75000000  0.96555800  0.79123700  1
  Zn  Zn1  1  0.75000000  0.53444200  0.29123700  1
  Zn  Zn2  1  0.25000000  0.03444200  0.20876300  1
  Zn  Zn3  1  0.25000000  0.46555800  0.70876300  1
  Ni  Ni0  1  0.50000000  0.00000000  0.00000000  1
  Ni  Ni1  1  0.50000000  0.50000000  0.50000000  1
  Ni  Ni2  1  0.00000000  0.50000000  0.50000000  1
  Ni  Ni3  1  0.00000000  0.00000000  0.00000000  1
  Bi  Bi0  1  0.75000000  0.35938100  0.88403100  1
  Bi  Bi1  1  0.25000000  0.64061900  0.11596900  1
  Bi  Bi2  1  0.25000000  0.85938100  0.61596900  1
  Bi  Bi3  1  0.75000000  0.14061900  0.38403100  1
  P  P0  1  0.25000000  0.33544700  0.90274000  1
  P  P1  1  0.75000000  0.66455300  0.09726000  1
  P  P2  1  0.75000000  0.83544700  0.59726000  1
  P  P3  1  0.25000000  0.16455300  0.40274000  1
  P  P4  1  0.75000000  0.36151200  0.67305500  1
  P  P5  1  0.25000000  0.63848800  0.32694500  1
  P  P6  1  0.25000000  0.86151200  0.82694500  1
  P  P7  1  0.75000000  0.13848800  0.17305500  1
  O  O0  1  0.05453200  0.63924400  0.38715100  1
  O  O1  1  0.55453200  0.36075600  0.61284900  1
  O  O2  1  0.94546800  0.13924400  0.11284900  1
  O  O3  1  0.44546800  0.86075600  0.88715100  1
  O  O4  1  0.94546800  0.36075600  0.61284900  1
  O  O5  1  0.44546800  0.63924400  0.38715100  1
  O  O6  1  0.05453200  0.86075600  0.88715100  1
  O  O7  1  0.55453200  0.13924400  0.11284900  1
  O  O8  1  0.25000000  0.33814200  0.44892300  1
  O  O9  1  0.75000000  0.66185800  0.55107700  1
  O  O10  1  0.75000000  0.83814200  0.05107700  1
  O  O11  1  0.25000000  0.16185800  0.94892300  1
  O  O12  1  0.75000000  0.07908200  0.92206900  1
  O  O13  1  0.25000000  0.92091800  0.07793100  1
  O  O14  1  0.25000000  0.57908200  0.57793100  1
  O  O15  1  0.75000000  0.42091800  0.42206900  1
  O  O16  1  0.75000000  0.20259300  0.73808400  1
  O  O17  1  0.25000000  0.79740700  0.26191600  1
  O  O18  1  0.25000000  0.70259300  0.76191600  1
  O  O19  1  0.75000000  0.29740700  0.23808400  1
  O  O20  1  0.42586300  0.14020100  0.32916800  1
  O  O21  1  0.92586300  0.85979900  0.67083200  1
  O  O22  1  0.57413700  0.64020100  0.17083200  1
  O  O23  1  0.07413700  0.35979900  0.82916800  1
  O  O24  1  0.57413700  0.85979900  0.67083200  1
  O  O25  1  0.07413700  0.14020100  0.32916800  1
  O  O26  1  0.42586300  0.35979900  0.82916800  1
  O  O27  1  0.92586300  0.64020100  0.17083200  1
  O  O28  1  0.75000000  0.99071900  0.24615100  1
  O  O29  1  0.25000000  0.00928100  0.75384900  1
  O  O30  1  0.25000000  0.49071900  0.25384900  1
  O  O31  1  0.75000000  0.50928100  0.74615100  1
  O  O32  1  0.75000000  0.97519700  0.52241400  1
  O  O33  1  0.25000000  0.02480300  0.47758600  1
  O  O34  1  0.25000000  0.47519700  0.97758600  1
  O  O35  1  0.75000000  0.52480300  0.02241400  1
loop_
_geom_bond_atom_site_label_1
_geom_bond_atom_site_label_2
_geom_bond_distance
_geom_bond_site_symmetry_2
Ni0 O7 1.955338 1_555
Ni0 O3 1.955338 1_544
Ni0 O13 2.090196 1_545
Ni0 O12 2.090196 1_554
Ni0 O10 2.233826 1_545
Ni0 O11 2.233826 1_554
Ni1 O1 1.955338 1_555
Ni1 O5 1.955338 1_555
Ni1 O14 2.090196 1_555
Ni1 O15 2.090196 1_555
Ni1 O9 2.233826 1_555
Ni1 O8 2.233826 1_555
Ni2 O4 1.955338 1_455
Ni2 O0 1.955338 1_555
Ni2 O14 2.090196 1_555
Ni2 O15 2.090196 1_455
Ni2 O9 2.233826 1_455
Ni2 O8 2.233826 1_555
Ni3 O2 1.955338 1_455
Ni3 O6 1.955338 1_544
Ni3 O13 2.090196 1_545
Ni3 O12 2.090196 1_454
Ni3 O10 2.233826 1_445
Ni3 O11 2.233826 1_554
Bi0 O31 2.256414 1_555
Bi0 O23 2.299372 1_655
Bi0 O26 2.299372 1_555
Bi0 O12 2.310756 1_555
Bi0 O35 2.330965 1_556
Bi0 O16 2.380409 1_555
Bi1 O30 2.256414 1_555
Bi1 O27 2.299372 1_455
Bi1 O22 2.299372 1_555
Bi1 O13 2.310756 1_555
Bi1 O34 2.330965 1_554
Bi1 O17 2.380409 1_555
Bi2 O29 2.256414 1_565
Bi2 O24 2.299372 1_555
Bi2 O21 2.299372 1_455
Bi2 O14 2.310756 1_555
Bi2 O33 2.330965 1_565
Bi2 O18 2.380409 1_555
Bi3 O28 2.256414 1_545
Bi3 O25 2.299372 1_655
Bi3 O20 2.299372 1_555
Bi3 O15 2.310756 1_555
Bi3 O32 2.330965 1_545
Bi3 O19 2.380409 1_555
O0 P5 1.551666 1_555
O1 P4 1.551666 1_555
O2 P7 1.551666 1_555
O3 P6 1.551666 1_555
O4 P4 1.551666 1_555
O5 P5 1.551666 1_555
O6 P6 1.551666 1_555
O7 P7 1.551666 1_555
O8 P3 1.533079 1_555
O9 P2 1.533079 1_555
O10 P1 1.533079 1_555
O11 P0 1.533079 1_555
O12 Zn0 2.027564 1_545
O13 Zn2 2.027564 1_565
O14 Zn3 2.027564 1_555
O15 Zn1 2.027564 1_555
O16 P4 1.561325 1_555
O16 Zn0 2.040012 1_545
O17 P5 1.561325 1_555
O17 Zn2 2.040012 1_565
O18 P6 1.561325 1_555
O18 Zn3 2.040012 1_555
O19 P7 1.561325 1_555
O19 Zn1 2.040012 1_555
O20 P3 1.569131 1_555
O20 Zn2 2.210377 1_555
O21 P2 1.569131 1_555
O21 Zn0 2.210377 1_555
O22 P1 1.569131 1_555
O22 Zn1 2.210377 1_555
O23 P0 1.569131 1_555
O23 Zn3 2.210377 1_555
O24 P2 1.569131 1_555
O24 Zn0 2.210377 1_555
O25 P3 1.569131 1_555
O25 Zn2 2.210377 1_555
O26 P0 1.569131 1_555
O26 Zn3 2.210377 1_555
O27 P1 1.569131 1_555
O27 Zn1 2.210377 1_555
O28 P7 1.559154 1_565
O29 P6 1.559154 1_545
O30 P5 1.559154 1_555
O31 P4 1.559154 1_555
O32 P2 1.527097 1_555
O33 P3 1.527097 1_555
O34 P0 1.527097 1_555
O35 P1 1.527097 1_555
