# generated using pymatgen
data_LaZnCrMoO6
_symmetry_space_group_name_H-M   'P 1'
_cell_length_a   5.57280300
_cell_length_b   5.42862500
_cell_length_c   9.64161972
_cell_angle_alpha   55.93626916
_cell_angle_beta   90.00000000
_cell_angle_gamma   90.00000000
_symmetry_Int_Tables_number   1
_chemical_formula_structural   LaZnCrMoO6
_chemical_formula_sum   'La2 Zn2 Cr2 Mo2 O12'
_cell_volume   241.63593339
_cell_formula_units_Z   2
loop_
 _symmetry_equiv_pos_site_id
 _symmetry_equiv_pos_as_xyz
  1  'x, y, z'
loop_
 _atom_site_type_symbol
 _atom_site_label
 _atom_site_symmetry_multiplicity
 _atom_site_fract_x
 _atom_site_fract_y
 _atom_site_fract_z
 _atom_site_occupancy
  La  La0  1  0.28987900  0.75611100  0.25028400  1
  La  La1  1  0.71012100  0.75611100  0.75028400  1
  Zn  Zn0  1  0.75015900  0.24920200  0.24728800  1
  Zn  Zn1  1  0.24984100  0.24920200  0.74728800  1
  Cr  Cr0  1  0.24530300  0.00017700  0.49902700  1
  Cr  Cr1  1  0.75469700  0.00017700  0.99902700  1
  Mo  Mo0  1  0.23704300  0.49677800  0.00096500  1
  Mo  Mo1  1  0.76295700  0.49677800  0.50096500  1
  O  O0  1  0.80181500  0.33418200  0.75629100  1
  O  O1  1  0.03283200  0.14830500  0.06061800  1
  O  O2  1  0.04617300  0.75990100  0.44711100  1
  O  O3  1  0.55560500  0.25608300  0.05748200  1
  O  O4  1  0.55798400  0.87671400  0.43555000  1
  O  O5  1  0.28159500  0.62254500  0.74538500  1
  O  O6  1  0.19818500  0.33418200  0.25629100  1
  O  O7  1  0.96716800  0.14830500  0.56061800  1
  O  O8  1  0.95382700  0.75990100  0.94711100  1
  O  O9  1  0.44439500  0.25608300  0.55748200  1
  O  O10  1  0.44201600  0.87671400  0.93555000  1
  O  O11  1  0.71840500  0.62254500  0.24538500  1
loop_
_geom_bond_atom_site_label_1
_geom_bond_atom_site_label_2
_geom_bond_distance
_geom_bond_site_symmetry_2
La0 O6 2.315648 1_555
La0 O2 2.343086 1_555
La0 O1 2.359559 1_565
La0 O11 2.503860 1_555
La0 O4 2.676153 1_555
La0 O3 2.713507 1_565
La0 O9 2.806419 1_555
La0 O10 2.851371 1_554
La1 O0 2.315648 1_555
La1 O8 2.343086 1_555
La1 O7 2.359559 1_565
La1 O5 2.503860 1_555
La1 O10 2.676153 1_555
La1 O9 2.713507 1_565
La1 O3 2.806419 1_556
La1 O4 2.851371 1_555
Cr0 O2 1.978585 1_545
Cr0 O7 1.984107 1_455
Cr0 O6 2.019950 1_555
Cr0 O4 2.078374 1_545
Cr0 O9 2.087022 1_555
Cr0 O5 2.104913 1_545
Cr1 O8 1.978585 1_545
Cr1 O1 1.984107 1_656
Cr1 O0 2.019950 1_555
Cr1 O10 2.078374 1_545
Cr1 O3 2.087022 1_556
Cr1 O11 2.104913 1_546
Mo0 O8 1.992518 1_454
Mo0 O1 1.996422 1_555
Mo0 O3 2.087646 1_555
Mo0 O6 2.109994 1_555
Mo0 O10 2.121169 1_554
Mo0 O5 2.171496 1_554
Mo1 O2 1.992518 1_655
Mo1 O7 1.996422 1_555
Mo1 O9 2.087646 1_555
Mo1 O0 2.109994 1_555
Mo1 O4 2.121169 1_555
Mo1 O11 2.171496 1_555
O3 Zn0 2.109352 1_555
O4 Zn0 2.102115 1_565
O5 Zn1 2.024269 1_555
O9 Zn1 2.109352 1_555
O10 Zn1 2.102115 1_565
O11 Zn0 2.024269 1_555
