# generated using pymatgen
data_GePbO3
_symmetry_space_group_name_H-M   'P 1'
_cell_length_a   3.88843700
_cell_length_b   3.88843700
_cell_length_c   3.88843700
_cell_angle_alpha   90.00000000
_cell_angle_beta   90.00000000
_cell_angle_gamma   90.00000000
_symmetry_Int_Tables_number   1
_chemical_formula_structural   GePbO3
_chemical_formula_sum   'Ge1 Pb1 O3'
_cell_volume   58.79294309
_cell_formula_units_Z   1
loop_
 _symmetry_equiv_pos_site_id
 _symmetry_equiv_pos_as_xyz
  1  'x, y, z'
loop_
 _atom_site_type_symbol
 _atom_site_label
 _atom_site_symmetry_multiplicity
 _atom_site_fract_x
 _atom_site_fract_y
 _atom_site_fract_z
 _atom_site_occupancy
  Ge  Ge0  1  0.50000000  0.50000000  0.50000000  1
  Pb  Pb0  1  0.00000000  0.00000000  0.00000000  1
  O  O0  1  0.00000000  0.50000000  0.50000000  1
  O  O1  1  0.50000000  0.50000000  0.00000000  1
  O  O2  1  0.50000000  0.00000000  0.50000000  1
loop_
_geom_bond_atom_site_label_1
_geom_bond_atom_site_label_2
_geom_bond_distance
_geom_bond_site_symmetry_2
Ge0 O2 1.944219 1_565
Ge0 O1 1.944219 1_555
Ge0 O0 1.944219 1_555
Ge0 O1 1.944219 1_556
Ge0 O0 1.944219 1_655
Ge0 O2 1.944219 1_555
O0 Pb0 2.749540 1_556
O0 Pb0 2.749540 1_565
O0 Pb0 2.749540 1_555
O0 Pb0 2.749540 1_566
O1 Pb0 2.749540 1_655
O1 Pb0 2.749540 1_565
O1 Pb0 2.749540 1_555
O1 Pb0 2.749540 1_665
O2 Pb0 2.749540 1_556
O2 Pb0 2.749540 1_655
O2 Pb0 2.749540 1_656
O2 Pb0 2.749540 1_555
