# generated using pymatgen
data_Li2CoCl4
_symmetry_space_group_name_H-M   'P 1'
_cell_length_a   7.16131174
_cell_length_b   7.16131174
_cell_length_c   7.16131174
_cell_angle_alpha   118.64460186
_cell_angle_beta   117.74129717
_cell_angle_gamma   93.16116385
_symmetry_Int_Tables_number   1
_chemical_formula_structural   Li2CoCl4
_chemical_formula_sum   'Li4 Co2 Cl8'
_cell_volume   266.32979789
_cell_formula_units_Z   2
loop_
 _symmetry_equiv_pos_site_id
 _symmetry_equiv_pos_as_xyz
  1  'x, y, z'
loop_
 _atom_site_type_symbol
 _atom_site_label
 _atom_site_symmetry_multiplicity
 _atom_site_fract_x
 _atom_site_fract_y
 _atom_site_fract_z
 _atom_site_occupancy
  Li  Li0  1  0.50000000  0.50000000  0.00000000  1
  Li  Li1  1  0.00000000  0.50000000  0.50000000  1
  Li  Li2  1  0.50000000  0.00000000  0.00000000  1
  Li  Li3  1  0.50000000  0.50000000  0.50000000  1
  Co  Co0  1  0.00000000  0.00000000  0.00000000  1
  Co  Co1  1  0.50000000  0.00000000  0.50000000  1
  Cl  Cl0  1  0.27020300  0.75925300  0.51094900  1
  Cl  Cl1  1  0.74830400  0.75925300  0.98905100  1
  Cl  Cl2  1  0.75222700  0.76694000  0.51471200  1
  Cl  Cl3  1  0.75222700  0.23751500  0.98528800  1
  Cl  Cl4  1  0.72979700  0.24074700  0.48905100  1
  Cl  Cl5  1  0.25169600  0.24074700  0.01094900  1
  Cl  Cl6  1  0.24777300  0.23306000  0.48528800  1
  Cl  Cl7  1  0.24777300  0.76248500  0.01471200  1
loop_
_geom_bond_atom_site_label_1
_geom_bond_atom_site_label_2
_geom_bond_distance
_geom_bond_site_symmetry_2
Cl0 Co1 2.371396 1_565
Cl0 Li3 2.545341 1_555
Cl0 Li2 2.545346 1_566
Cl0 Li1 2.553488 1_555
Cl1 Co0 2.371401 1_666
Cl1 Li3 2.545346 1_555
Cl1 Li2 2.545346 1_566
Cl1 Li0 2.553483 1_556
Cl2 Li3 2.485360 1_555
Cl2 Co1 2.526511 1_565
Cl2 Co0 2.526517 1_666
Cl2 Li0 2.677481 1_555
Cl2 Li1 2.677486 1_655
Cl3 Li2 2.485355 1_556
Cl3 Co1 2.526516 1_555
Cl3 Co0 2.526516 1_656
Cl3 Li1 2.677481 1_656
Cl3 Li0 2.677481 1_556
Cl4 Co1 2.371396 1_555
Cl4 Li3 2.545341 1_555
Cl4 Li2 2.545346 1_555
Cl4 Li1 2.553488 1_655
Cl5 Co0 2.371401 1_555
Cl5 Li2 2.545346 1_555
Cl5 Li3 2.545346 1_555
Cl5 Li0 2.553483 1_555
Cl6 Li3 2.485360 1_555
Cl6 Co1 2.526511 1_555
Cl6 Co0 2.526517 1_555
Cl6 Li0 2.677481 1_556
Cl6 Li1 2.677486 1_555
Cl7 Li2 2.485355 1_565
Cl7 Co1 2.526516 1_565
Cl7 Co0 2.526516 1_565
Cl7 Li0 2.677481 1_555
Cl7 Li1 2.677481 1_554
