# generated using pymatgen
data_Na2CoP2O7
_symmetry_space_group_name_H-M   'P 1'
_cell_length_a   8.68771665
_cell_length_b   10.44959901
_cell_length_c   8.68418476
_cell_angle_alpha   82.48989774
_cell_angle_beta   73.87872410
_cell_angle_gamma   97.62534061
_symmetry_Int_Tables_number   1
_chemical_formula_structural   Na2CoP2O7
_chemical_formula_sum   'Na8 Co4 P8 O28'
_cell_volume   738.96540034
_cell_formula_units_Z   4
loop_
 _symmetry_equiv_pos_site_id
 _symmetry_equiv_pos_as_xyz
  1  'x, y, z'
loop_
 _atom_site_type_symbol
 _atom_site_label
 _atom_site_symmetry_multiplicity
 _atom_site_fract_x
 _atom_site_fract_y
 _atom_site_fract_z
 _atom_site_occupancy
  Na  Na0  1  0.49190000  0.74993600  0.99156300  1
  Na  Na1  1  0.99232800  0.25061500  0.49214900  1
  Na  Na2  1  0.24295300  0.99985300  0.24291500  1
  Na  Na3  1  0.74199200  0.49980200  0.74302300  1
  Na  Na4  1  0.00824400  0.74939500  0.50849500  1
  Na  Na5  1  0.50750000  0.24999400  0.00781200  1
  Na  Na6  1  0.25798100  0.50015100  0.25695400  1
  Na  Na7  1  0.75702900  0.00015000  0.75713400  1
  Co  Co0  1  0.75003500  0.25084300  0.24966100  1
  Co  Co1  1  0.50009300  0.50015500  0.49994100  1
  Co  Co2  1  0.25002200  0.74932000  0.75026300  1
  Co  Co3  1  0.99993800  0.99989300  0.00003500  1
  P  P0  1  0.07301900  0.71853900  0.13355600  1
  P  P1  1  0.57276700  0.21991200  0.63328100  1
  P  P2  1  0.13314100  0.28105500  0.07298200  1
  P  P3  1  0.63365500  0.78070800  0.57274300  1
  P  P4  1  0.42754500  0.78032700  0.36654400  1
  P  P5  1  0.92668800  0.28122200  0.86658600  1
  P  P6  1  0.36667700  0.21951500  0.42684600  1
  P  P7  1  0.86655300  0.71873900  0.92741800  1
  O  O0  1  0.90942900  0.65982800  0.09068300  1
  O  O1  1  0.40985900  0.16030000  0.58993400  1
  O  O2  1  0.08994900  0.34003000  0.90993800  1
  O  O3  1  0.59076800  0.83982900  0.40944200  1
  O  O4  1  0.43134100  0.86080400  0.20757000  1
  O  O5  1  0.93157400  0.36187200  0.70727200  1
  O  O6  1  0.20721500  0.13905900  0.43142200  1
  O  O7  1  0.70718900  0.63830600  0.93181800  1
  O  O8  1  0.06848200  0.63801200  0.29279900  1
  O  O9  1  0.56863400  0.13933000  0.79235700  1
  O  O10  1  0.29265900  0.36146800  0.06822800  1
  O  O11  1  0.79295300  0.86117000  0.56849400  1
  O  O12  1  0.22015900  0.70607300  0.98964400  1
  O  O13  1  0.72021400  0.20818300  0.48947100  1
  O  O14  1  0.98972400  0.29363200  0.22029600  1
  O  O15  1  0.48982400  0.79256500  0.72013500  1
  O  O16  1  0.64441300  0.63434600  0.56551800  1
  O  O17  1  0.14356100  0.13456900  0.06578700  1
  O  O18  1  0.06728100  0.86502600  0.14339500  1
  O  O19  1  0.56446900  0.36598100  0.64500800  1
  O  O20  1  0.28007000  0.79155300  0.51071600  1
  O  O21  1  0.77959900  0.29412700  0.01020700  1
  O  O22  1  0.51013300  0.20692800  0.27958700  1
  O  O23  1  0.01029300  0.70684500  0.77997700  1
  O  O24  1  0.85610900  0.86525500  0.93442100  1
  O  O25  1  0.35583100  0.36581800  0.43433300  1
  O  O26  1  0.43534300  0.63413800  0.35516100  1
  O  O27  1  0.93286500  0.13482900  0.85648500  1
loop_
_geom_bond_atom_site_label_1
_geom_bond_atom_site_label_2
_geom_bond_distance
_geom_bond_site_symmetry_2
Na0 O4 2.306414 1_556
Na0 O7 2.307917 1_555
Na0 O15 2.346506 1_555
Na0 O12 2.349565 1_555
Na1 O5 2.302880 1_555
Na1 O6 2.305155 1_655
Na1 O14 2.351809 1_555
Na1 O13 2.353915 1_555
Na2 O6 2.313512 1_565
Na2 O4 2.313616 1_555
Na2 O18 2.353995 1_555
Na2 O17 2.363809 1_565
Na3 O7 2.309830 1_555
Na3 O5 2.312899 1_555
Na3 O19 2.350822 1_555
Na3 O16 2.355203 1_555
Na4 O8 2.307463 1_555
Na4 O11 2.309051 1_455
Na4 O23 2.346845 1_555
Na4 O20 2.350057 1_555
Na5 O9 2.301495 1_554
Na5 O10 2.304092 1_555
Na5 O22 2.351255 1_555
Na5 O21 2.354085 1_555
Na6 O10 2.310737 1_555
Na6 O8 2.311837 1_555
Na6 O26 2.351876 1_555
Na6 O25 2.354694 1_555
Na7 O11 2.312671 1_545
Na7 O9 2.314655 1_555
Na7 O27 2.353167 1_555
Na7 O24 2.364093 1_545
Co0 O21 2.005346 1_555
Co0 O14 2.007320 1_555
Co0 O13 2.007465 1_555
Co0 O22 2.009033 1_555
Co1 O26 1.999768 1_555
Co1 O16 2.000328 1_555
Co1 O19 2.000829 1_555
Co1 O25 2.001168 1_555
Co2 O12 2.004211 1_555
Co2 O20 2.004569 1_555
Co2 O23 2.006862 1_555
Co2 O15 2.007355 1_555
Co3 O17 2.000791 1_665
Co3 O24 2.000962 1_554
Co3 O18 2.010734 1_655
Co3 O27 2.010910 1_564
O0 P7 1.629089 1_554
O0 P0 1.630047 1_655
O1 P1 1.629722 1_555
O1 P6 1.630054 1_555
O2 P2 1.629020 1_556
O2 P5 1.629979 1_455
O3 P4 1.629764 1_555
O3 P3 1.630062 1_555
O4 P4 1.509339 1_555
O5 P5 1.509721 1_555
O6 P6 1.509710 1_555
O7 P7 1.509355 1_555
O8 P0 1.509561 1_555
O9 P1 1.509663 1_555
O10 P2 1.509458 1_555
O11 P3 1.509404 1_555
O12 P0 1.553218 1_556
O13 P1 1.552051 1_555
O14 P2 1.551943 1_655
O15 P3 1.552233 1_555
O16 P3 1.552924 1_555
O17 P2 1.553653 1_555
O18 P0 1.550805 1_555
O19 P1 1.552775 1_555
O20 P4 1.552508 1_555
O21 P5 1.552840 1_554
O22 P6 1.551880 1_555
O23 P7 1.552143 1_455
O24 P7 1.553749 1_555
O25 P6 1.552795 1_555
O26 P4 1.552802 1_555
O27 P5 1.550791 1_555
