# generated using pymatgen
data_CsTbCdTe3
_symmetry_space_group_name_H-M   'P 1'
_cell_length_a   4.56043200
_cell_length_b   8.98476200
_cell_length_c   11.91725800
_cell_angle_alpha   90.00000000
_cell_angle_beta   90.00000000
_cell_angle_gamma   104.70172246
_symmetry_Int_Tables_number   1
_chemical_formula_structural   CsTbCdTe3
_chemical_formula_sum   'Cs2 Tb2 Cd2 Te6'
_cell_volume   472.31548815
_cell_formula_units_Z   2
loop_
 _symmetry_equiv_pos_site_id
 _symmetry_equiv_pos_as_xyz
  1  'x, y, z'
loop_
 _atom_site_type_symbol
 _atom_site_label
 _atom_site_symmetry_multiplicity
 _atom_site_fract_x
 _atom_site_fract_y
 _atom_site_fract_z
 _atom_site_occupancy
  Cs  Cs0  1  0.75077900  0.50155800  0.25000000  1
  Cs  Cs1  1  0.24922100  0.49844200  0.75000000  1
  Tb  Tb0  1  0.00000000  0.00000000  0.50000000  1
  Tb  Tb1  1  0.00000000  0.00000000  0.00000000  1
  Cd  Cd0  1  0.46325100  0.92650200  0.25000000  1
  Cd  Cd1  1  0.53674900  0.07349800  0.75000000  1
  Te  Te0  1  0.37979100  0.75958200  0.04719000  1
  Te  Te1  1  0.62020900  0.24041800  0.95281000  1
  Te  Te2  1  0.93463500  0.86927000  0.75000000  1
  Te  Te3  1  0.06536500  0.13073000  0.25000000  1
  Te  Te4  1  0.37979100  0.75958200  0.45281000  1
  Te  Te5  1  0.62020900  0.24041800  0.54719000  1
loop_
_geom_bond_atom_site_label_1
_geom_bond_atom_site_label_2
_geom_bond_distance
_geom_bond_site_symmetry_2
Cs0 Te3 3.947822 1_655
Cs0 Te3 3.947822 1_555
Cs0 Te0 4.008649 1_655
Cs0 Te0 4.008649 1_555
Cs0 Te4 4.008649 1_555
Cs0 Te4 4.008649 1_655
Cs0 Te1 4.206428 1_554
Cs0 Te5 4.206428 1_555
Cs1 Te2 3.947822 1_555
Cs1 Te2 3.947822 1_455
Cs1 Te5 4.008649 1_455
Cs1 Te5 4.008649 1_555
Cs1 Te1 4.008649 1_555
Cs1 Te1 4.008649 1_455
Cs1 Te4 4.206428 1_555
Cs1 Te0 4.206428 1_556
Tb0 Te5 3.143429 1_455
Tb0 Te5 3.143429 1_555
Tb0 Te4 3.143429 1_445
Tb0 Te4 3.143429 1_545
Tb0 Te2 3.188587 1_445
Tb0 Te3 3.188587 1_555
Tb1 Te0 3.143429 1_445
Tb1 Te1 3.143429 1_554
Tb1 Te0 3.143429 1_545
Tb1 Te1 3.143429 1_454
Tb1 Te2 3.188587 1_444
Tb1 Te3 3.188587 1_555
Cd0 Te0 2.818854 1_555
Cd0 Te4 2.818854 1_555
Cd0 Te3 2.889555 1_665
Cd0 Te3 2.889555 1_565
Cd1 Te5 2.818854 1_555
Cd1 Te1 2.818854 1_555
Cd1 Te2 2.889555 1_445
Cd1 Te2 2.889555 1_545
