# generated using pymatgen
data_Yb11(Gd2Se11)2
_symmetry_space_group_name_H-M   'P 1'
_cell_length_a   4.19918431
_cell_length_b   11.73527013
_cell_length_c   21.59744135
_cell_angle_alpha   94.34483583
_cell_angle_beta   95.57881190
_cell_angle_gamma   90.00000000
_symmetry_Int_Tables_number   1
_chemical_formula_structural   Yb11(Gd2Se11)2
_chemical_formula_sum   'Yb11 Gd4 Se22'
_cell_volume   1056.17655074
_cell_formula_units_Z   1
loop_
 _symmetry_equiv_pos_site_id
 _symmetry_equiv_pos_as_xyz
  1  'x, y, z'
loop_
 _atom_site_type_symbol
 _atom_site_label
 _atom_site_symmetry_multiplicity
 _atom_site_fract_x
 _atom_site_fract_y
 _atom_site_fract_z
 _atom_site_occupancy
  Yb  Yb0  1  0.80146263  0.51758554  0.60292526  1
  Yb  Yb1  1  0.19853737  0.48241446  0.39707474  1
  Yb  Yb2  1  0.45896204  0.79961400  0.91792408  1
  Yb  Yb3  1  0.54103796  0.20038600  0.08207592  1
  Yb  Yb4  1  0.66278974  0.82997797  0.32557948  1
  Yb  Yb5  1  0.33721026  0.17002203  0.67442052  1
  Yb  Yb6  1  0.26743781  0.86130351  0.53487563  1
  Yb  Yb7  1  0.73256219  0.13869649  0.46512437  1
  Yb  Yb8  1  0.06152238  0.82942763  0.12304477  1
  Yb  Yb9  1  0.93847762  0.17057237  0.87695523  1
  Yb  Yb10  1  0.00000000  0.50000000  0.00000000  1
  Gd  Gd0  1  0.89167232  0.50229251  0.78334464  1
  Gd  Gd1  1  0.10832768  0.49770749  0.21665536  1
  Gd  Gd2  1  0.37278905  0.83196149  0.74557810  1
  Gd  Gd3  1  0.62721095  0.16803851  0.25442190  1
  Se  Se0  1  0.91095250  0.74624898  0.82190500  1
  Se  Se1  1  0.08904750  0.25375102  0.17809500  1
  Se  Se2  1  0.81940211  0.83397278  0.63880422  1
  Se  Se3  1  0.18059789  0.16602722  0.36119578  1
  Se  Se4  1  0.72518087  0.89424080  0.45036175  1
  Se  Se5  1  0.27481913  0.10575920  0.54963825  1
  Se  Se6  1  0.42840143  0.01083147  0.85680286  1
  Se  Se7  1  0.57159857  0.98916853  0.14319714  1
  Se  Se8  1  0.14262304  0.00081873  0.28524607  1
  Se  Se9  1  0.85737696  0.99918127  0.71475393  1
  Se  Se10  1  0.58592521  0.66089176  0.17185042  1
  Se  Se11  1  0.41407479  0.33910824  0.82814958  1
  Se  Se12  1  0.44934052  0.51146462  0.89868103  1
  Se  Se13  1  0.55065948  0.48853538  0.10131897  1
  Se  Se14  1  0.35226957  0.58633283  0.70453914  1
  Se  Se15  1  0.64773043  0.41366717  0.29546086  1
  Se  Se16  1  0.15960457  0.67201137  0.31920913  1
  Se  Se17  1  0.84039543  0.32798863  0.68079087  1
  Se  Se18  1  0.99968478  0.74138107  0.99936957  1
  Se  Se19  1  0.00031522  0.25861893  0.00063043  1
  Se  Se20  1  0.26229418  0.60923255  0.52458836  1
  Se  Se21  1  0.73770582  0.39076745  0.47541164  1
loop_
_geom_bond_atom_site_label_1
_geom_bond_atom_site_label_2
_geom_bond_distance
_geom_bond_site_symmetry_2
Gd0 Se17 2.890853 1_555
Gd0 Se14 2.916282 1_655
Gd0 Se14 2.916282 1_555
Gd0 Se0 2.919233 1_555
Gd0 Se11 3.046945 1_555
Gd0 Se11 3.046945 1_655
Gd0 Se12 3.244309 1_555
Gd0 Se12 3.244309 1_655
Gd1 Se16 2.890853 1_555
Gd1 Se15 2.916282 1_455
Gd1 Se15 2.916282 1_555
Gd1 Se1 2.919233 1_555
Gd1 Se10 3.046945 1_555
Gd1 Se10 3.046945 1_455
Gd1 Se13 3.244309 1_555
Gd1 Se13 3.244309 1_455
Gd2 Se0 2.891891 1_455
Gd2 Se0 2.891891 1_555
Gd2 Se14 2.949571 1_555
Gd2 Se9 2.982637 1_555
Gd2 Se9 2.982637 1_455
Gd2 Se6 3.059092 1_565
Gd2 Se2 3.112020 1_555
Gd2 Se2 3.112020 1_455
Gd3 Se1 2.891891 1_655
Gd3 Se1 2.891891 1_555
Gd3 Se15 2.949571 1_555
Gd3 Se8 2.982637 1_555
Gd3 Se8 2.982637 1_655
Gd3 Se7 3.059092 1_545
Gd3 Se3 3.112020 1_555
Gd3 Se3 3.112020 1_655
Se0 Yb2 2.977174 1_555
Se0 Yb2 2.977174 1_655
Se1 Yb3 2.977174 1_555
Se1 Yb3 2.977174 1_455
Se2 Se9 2.437658 1_555
Se2 Yb6 3.100131 1_655
Se2 Yb6 3.100131 1_555
Se2 Yb0 3.734221 1_555
Se3 Se8 2.437658 1_555
Se3 Yb7 3.100131 1_455
Se3 Yb7 3.100131 1_555
Se3 Yb1 3.734221 1_555
Se4 Yb4 2.730394 1_555
Se4 Yb6 2.822191 1_555
Se4 Yb6 2.822191 1_655
Se4 Yb7 2.862142 1_565
Se5 Yb5 2.730394 1_555
Se5 Yb7 2.822191 1_555
Se5 Yb7 2.822191 1_455
Se5 Yb6 2.862142 1_545
Se6 Yb9 2.826029 1_455
Se6 Yb9 2.826029 1_555
Se6 Yb2 2.892368 1_545
Se7 Yb8 2.826029 1_655
Se7 Yb8 2.826029 1_555
Se7 Yb3 2.892368 1_565
Se8 Yb4 3.073112 1_545
Se8 Yb4 3.073112 1_445
Se9 Yb5 3.073112 1_565
Se9 Yb5 3.073112 1_665
Se10 Se13 2.433675 1_555
Se10 Yb8 3.120335 1_655
Se10 Yb8 3.120336 1_555
Se10 Yb4 3.722683 1_555
Se11 Se12 2.433675 1_555
Se11 Yb9 3.120335 1_455
Se11 Yb9 3.120336 1_555
Se11 Yb5 3.722683 1_555
Se12 Yb10 3.035473 1_656
Se12 Yb10 3.035473 1_556
Se12 Yb2 3.375318 1_555
Se13 Yb10 3.035473 1_555
Se13 Yb10 3.035473 1_655
Se13 Yb3 3.375318 1_555
Se14 Yb0 3.092191 1_555
Se14 Yb0 3.092191 1_455
Se15 Yb1 3.092191 1_555
Se15 Yb1 3.092191 1_655
Se16 Yb4 2.797302 1_555
Se16 Yb4 2.797302 1_455
Se16 Yb1 2.884236 1_555
Se17 Yb5 2.797302 1_555
Se17 Yb5 2.797302 1_655
Se17 Yb0 2.884236 1_555
Se18 Yb8 2.777879 1_656
Se18 Yb10 2.833736 1_656
Se18 Yb2 2.849968 1_555
Se18 Yb2 2.849968 1_655
Se19 Yb9 2.777879 1_454
Se19 Yb10 2.833736 1_555
Se19 Yb3 2.849968 1_555
Se19 Yb3 2.849968 1_455
Se20 Yb0 2.945521 1_455
Se20 Yb0 2.945521 1_555
Se20 Yb6 2.949541 1_555
Se20 Yb1 3.017702 1_555
Se21 Yb1 2.945521 1_655
Se21 Yb1 2.945521 1_555
Se21 Yb7 2.949541 1_555
Se21 Yb0 3.017702 1_555
