# generated using pymatgen
data_Eu8Ni18P11
_symmetry_space_group_name_H-M   'P 1'
_cell_length_a   3.93471350
_cell_length_b   18.31918617
_cell_length_c   18.31918617
_cell_angle_alpha   120.00000039
_cell_angle_beta   90.00000000
_cell_angle_gamma   90.00000000
_symmetry_Int_Tables_number   1
_chemical_formula_structural   Eu8Ni18P11
_chemical_formula_sum   'Eu16 Ni36 P22'
_cell_volume   1143.55247384
_cell_formula_units_Z   2
loop_
 _symmetry_equiv_pos_site_id
 _symmetry_equiv_pos_as_xyz
  1  'x, y, z'
loop_
 _atom_site_type_symbol
 _atom_site_label
 _atom_site_symmetry_multiplicity
 _atom_site_fract_x
 _atom_site_fract_y
 _atom_site_fract_z
 _atom_site_occupancy
  Eu  Eu0  1  0.50000000  0.52379935  0.04759870  1
  Eu  Eu1  1  0.50000000  0.52379935  0.47620065  1
  Eu  Eu2  1  0.50000000  0.95240130  0.47620065  1
  Eu  Eu3  1  0.50000000  0.73869650  0.47739301  1
  Eu  Eu4  1  0.50000000  0.73869650  0.26130350  1
  Eu  Eu5  1  0.50000000  0.52260699  0.26130350  1
  Eu  Eu6  1  0.00000000  0.21991667  0.43983335  1
  Eu  Eu7  1  -0.00000000  0.21991667  0.78008333  1
  Eu  Eu8  1  -0.00000000  0.56016665  0.78008333  1
  Eu  Eu9  1  -0.00000000  0.00012272  0.21540315  1
  Eu  Eu10  1  -0.00000000  0.21528043  0.99987728  1
  Eu  Eu11  1  -0.00000000  0.21528043  0.21540315  1
  Eu  Eu12  1  0.00000000  0.78459685  0.78471957  1
  Eu  Eu13  1  -0.00000000  0.78459685  0.99987728  1
  Eu  Eu14  1  0.00000000  0.00012272  0.78471957  1
  Eu  Eu15  1  -0.00000000  -0.00000000  0.00000000  1
  Ni  Ni0  1  0.50000000  0.29018453  0.58036905  1
  Ni  Ni1  1  0.50000000  0.29018453  0.70981547  1
  Ni  Ni2  1  0.50000000  0.41963095  0.70981547  1
  Ni  Ni3  1  0.50000000  0.92409561  0.29426318  1
  Ni  Ni4  1  0.50000000  0.37016757  0.07590439  1
  Ni  Ni5  1  0.50000000  0.37016757  0.29426318  1
  Ni  Ni6  1  0.50000000  0.70573682  0.62983243  1
  Ni  Ni7  1  0.50000000  0.70573682  0.07590439  1
  Ni  Ni8  1  0.50000000  0.92409561  0.62983243  1
  Ni  Ni9  1  0.00000000  0.60040866  0.63157464  1
  Ni  Ni10  1  -0.00000000  0.03116598  0.39959134  1
  Ni  Ni11  1  0.00000000  0.03116598  0.63157464  1
  Ni  Ni12  1  -0.00000000  0.36842536  0.96883402  1
  Ni  Ni13  1  -0.00000000  0.36842536  0.39959134  1
  Ni  Ni14  1  -0.00000000  0.60040866  0.96883402  1
  Ni  Ni15  1  0.00000000  0.81593163  0.63186326  1
  Ni  Ni16  1  -0.00000000  0.81593163  0.18406837  1
  Ni  Ni17  1  -0.00000000  0.36813674  0.18406837  1
  Ni  Ni18  1  -0.00000000  0.59337703  0.18675406  1
  Ni  Ni19  1  0.00000000  0.59337703  0.40662297  1
  Ni  Ni20  1  0.00000000  0.81324594  0.40662297  1
  Ni  Ni21  1  0.50000000  0.92672165  0.85344329  1
  Ni  Ni22  1  0.50000000  0.92672165  0.07327835  1
  Ni  Ni23  1  0.50000000  0.14655671  0.07327835  1
  Ni  Ni24  1  0.50000000  0.50077196  0.63043072  1
  Ni  Ni25  1  0.50000000  0.12965876  0.49922804  1
  Ni  Ni26  1  0.50000000  0.12965876  0.63043072  1
  Ni  Ni27  1  0.50000000  0.36956928  0.87034124  1
  Ni  Ni28  1  0.50000000  0.36956928  0.49922804  1
  Ni  Ni29  1  0.50000000  0.50077196  0.87034124  1
  Ni  Ni30  1  -0.00000000  0.38406285  0.76812569  1
  Ni  Ni31  1  0.00000000  0.38406285  0.61593715  1
  Ni  Ni32  1  0.00000000  0.23187431  0.61593715  1
  Ni  Ni33  1  0.50000000  0.14541276  0.29082552  1
  Ni  Ni34  1  0.50000000  0.14541276  0.85458724  1
  Ni  Ni35  1  0.50000000  0.70917448  0.85458724  1
  P  P0  1  -0.00000000  0.66666700  0.33333300  1
  P  P1  1  0.50000000  0.85435542  0.70871084  1
  P  P2  1  0.50000000  0.85435542  0.14564458  1
  P  P3  1  0.50000000  0.29128916  0.14564458  1
  P  P4  1  0.00000000  0.88367193  0.33107439  1
  P  P5  1  -0.00000000  0.44740246  0.11632807  1
  P  P6  1  -0.00000000  0.44740246  0.33107439  1
  P  P7  1  0.00000000  0.66892561  0.55259754  1
  P  P8  1  -0.00000000  0.66892561  0.11632807  1
  P  P9  1  0.00000000  0.88367193  0.55259754  1
  P  P10  1  0.00000000  0.45198378  0.90396757  1
  P  P11  1  -0.00000000  0.45198378  0.54801622  1
  P  P12  1  -0.00000000  0.09603243  0.54801622  1
  P  P13  1  0.50000000  0.64057472  0.71143217  1
  P  P14  1  0.50000000  0.07085744  0.35942528  1
  P  P15  1  0.50000000  0.07085744  0.71143217  1
  P  P16  1  0.50000000  0.28856783  0.92914256  1
  P  P17  1  0.50000000  0.28856783  0.35942528  1
  P  P18  1  0.50000000  0.64057472  0.92914256  1
  P  P19  1  0.50000000  0.07245873  0.14491747  1
  P  P20  1  0.50000000  0.07245873  0.92754127  1
  P  P21  1  0.50000000  0.85508253  0.92754127  1
loop_
_geom_bond_atom_site_label_1
_geom_bond_atom_site_label_2
_geom_bond_distance
_geom_bond_site_symmetry_2
Eu0 Ni18 2.957086 1_555
Eu0 Ni18 2.957086 1_655
Eu0 P10 3.010469 1_554
Eu0 P10 3.010469 1_654
Eu0 P8 3.029277 1_655
Eu0 P8 3.029277 1_555
Eu0 P5 3.029277 1_555
Eu0 P5 3.029277 1_655
Eu0 Ni27 3.058190 1_554
Eu0 Ni29 3.058190 1_554
Eu0 Ni7 3.106309 1_555
Eu0 Ni4 3.106309 1_555
Eu0 Ni12 3.153896 1_654
Eu0 Ni12 3.153896 1_554
Eu0 Ni14 3.153896 1_654
Eu0 Ni14 3.153896 1_554
Eu1 Ni19 2.957086 1_655
Eu1 Ni19 2.957086 1_555
Eu1 P11 3.010469 1_555
Eu1 P11 3.010469 1_655
Eu1 P6 3.029277 1_655
Eu1 P6 3.029277 1_555
Eu1 P7 3.029277 1_555
Eu1 P7 3.029277 1_655
Eu1 Ni24 3.058190 1_555
Eu1 Ni28 3.058190 1_555
Eu1 Ni5 3.106309 1_555
Eu1 Ni6 3.106309 1_555
Eu1 Ni9 3.153896 1_655
Eu1 Ni13 3.153896 1_655
Eu1 Ni13 3.153896 1_555
Eu1 Ni9 3.153896 1_555
Eu2 Ni20 2.957086 1_655
Eu2 Ni20 2.957086 1_555
Eu2 P12 3.010469 1_565
Eu2 P12 3.010469 1_665
Eu2 P4 3.029277 1_655
Eu2 P4 3.029277 1_555
Eu2 P9 3.029277 1_655
Eu2 P9 3.029277 1_555
Eu2 Ni26 3.058190 1_565
Eu2 Ni25 3.058190 1_565
Eu2 Ni3 3.106309 1_555
Eu2 Ni8 3.106309 1_555
Eu2 Ni11 3.153896 1_565
Eu2 Ni11 3.153896 1_665
Eu2 Ni10 3.153896 1_665
Eu2 Ni10 3.153896 1_565
Eu3 P0 3.015623 1_655
Eu3 P0 3.015623 1_555
Eu3 P7 3.027053 1_555
Eu3 P7 3.027053 1_655
Eu3 P9 3.027053 1_555
Eu3 P9 3.027053 1_655
Eu3 Ni19 3.030992 1_555
Eu3 Ni19 3.030992 1_655
Eu3 Ni20 3.030992 1_655
Eu3 Ni20 3.030992 1_555
Eu3 Ni6 3.138332 1_555
Eu3 Ni8 3.138332 1_555
Eu3 Ni15 3.142640 1_555
Eu3 Ni15 3.142640 1_655
Eu4 P0 3.015610 1_555
Eu4 P0 3.015610 1_655
Eu4 P8 3.027053 1_555
Eu4 P8 3.027053 1_655
Eu4 P4 3.027053 1_555
Eu4 P4 3.027053 1_655
Eu4 Ni18 3.030992 1_655
Eu4 Ni18 3.030992 1_555
Eu4 Ni20 3.030992 1_555
Eu4 Ni20 3.030992 1_655
Eu4 Ni7 3.138332 1_555
Eu4 Ni3 3.138332 1_555
Eu4 Ni16 3.142640 1_655
Eu4 Ni16 3.142640 1_555
Eu5 P0 3.015623 1_655
Eu5 P0 3.015623 1_555
Eu5 P6 3.027053 1_655
Eu5 P6 3.027053 1_555
Eu5 P5 3.027053 1_655
Eu5 P5 3.027053 1_555
Eu5 Ni19 3.030992 1_555
Eu5 Ni19 3.030992 1_655
Eu5 Ni18 3.030992 1_655
Eu5 Ni18 3.030992 1_555
Eu5 Ni5 3.138332 1_555
Eu5 Ni4 3.138332 1_555
Eu5 Ni17 3.142640 1_555
Eu5 Ni17 3.142640 1_655
Eu6 Ni0 2.973471 1_455
Eu6 Ni0 2.973471 1_555
Eu6 Ni33 3.075540 1_455
Eu6 Ni33 3.075540 1_555
Eu6 P14 3.078051 1_455
Eu6 P14 3.078051 1_555
Eu6 P17 3.078051 1_455
Eu6 P17 3.078051 1_555
Eu6 Ni25 3.096342 1_455
Eu6 Ni25 3.096342 1_555
Eu6 Ni28 3.096342 1_455
Eu6 Ni28 3.096342 1_555
Eu6 Ni32 3.122320 1_555
Eu6 Ni31 3.122320 1_555
Eu6 Ni10 3.154441 1_555
Eu6 Ni13 3.154441 1_555
Eu7 Ni1 2.973471 1_555
Eu7 Ni1 2.973471 1_455
Eu7 Ni34 3.075540 1_455
Eu7 Ni34 3.075540 1_555
Eu7 P15 3.078051 1_555
Eu7 P15 3.078051 1_455
Eu7 P16 3.078051 1_555
Eu7 P16 3.078051 1_455
Eu7 Ni26 3.096342 1_455
Eu7 Ni26 3.096342 1_555
Eu7 Ni27 3.096342 1_555
Eu7 Ni27 3.096342 1_455
Eu7 Ni32 3.122320 1_555
Eu7 Ni30 3.122320 1_555
Eu7 Ni11 3.154441 1_555
Eu7 Ni12 3.154441 1_555
Eu8 Ni2 2.973471 1_455
Eu8 Ni2 2.973471 1_555
Eu8 Ni35 3.075540 1_555
Eu8 Ni35 3.075540 1_455
Eu8 P18 3.078051 1_555
Eu8 P18 3.078051 1_455
Eu8 P13 3.078051 1_455
Eu8 P13 3.078051 1_555
Eu8 Ni29 3.096342 1_455
Eu8 Ni29 3.096342 1_555
Eu8 Ni24 3.096342 1_555
Eu8 Ni24 3.096342 1_455
Eu8 Ni30 3.122320 1_555
Eu8 Ni31 3.122320 1_555
Eu8 Ni14 3.154441 1_555
Eu8 Ni9 3.154441 1_555
Eu9 Ni22 2.992728 1_445
Eu9 Ni22 2.992728 1_545
Eu9 P19 3.000809 1_455
Eu9 P19 3.000809 1_555
Eu9 P14 3.015258 1_455
Eu9 P14 3.015258 1_555
Eu9 Ni33 3.030866 1_555
Eu9 Ni33 3.030866 1_455
Eu9 P2 3.036742 1_545
Eu9 P2 3.036742 1_445
Eu9 Ni16 3.126986 1_545
Eu9 Ni10 3.128838 1_555
Eu9 Ni3 3.147908 1_545
Eu9 Ni3 3.147908 1_445
Eu10 Ni23 2.992728 1_456
Eu10 Ni23 2.992728 1_556
Eu10 P20 3.000809 1_455
Eu10 P20 3.000809 1_555
Eu10 P16 3.015258 1_455
Eu10 P16 3.015258 1_555
Eu10 Ni34 3.030866 1_555
Eu10 Ni34 3.030866 1_455
Eu10 P3 3.036742 1_456
Eu10 P3 3.036742 1_556
Eu10 Ni17 3.126986 1_556
Eu10 Ni12 3.128838 1_555
Eu10 Ni4 3.147908 1_456
Eu10 Ni4 3.147908 1_556
Eu11 Ni23 2.992728 1_555
Eu11 Ni23 2.992728 1_455
Eu11 P19 3.000809 1_555
Eu11 P19 3.000809 1_455
Eu11 P17 3.015258 1_455
Eu11 P17 3.015258 1_555
Eu11 Ni33 3.030866 1_455
Eu11 Ni33 3.030866 1_555
Eu11 P3 3.036742 1_555
Eu11 P3 3.036742 1_455
Eu11 Ni17 3.126986 1_555
Eu11 Ni13 3.128838 1_555
Eu11 Ni5 3.147908 1_455
Eu11 Ni5 3.147908 1_555
Eu12 Ni21 2.992728 1_555
Eu12 Ni21 2.992728 1_455
Eu12 P21 3.000809 1_455
Eu12 P21 3.000809 1_555
Eu12 P13 3.015258 1_555
Eu12 P13 3.015258 1_455
Eu12 Ni35 3.030866 1_555
Eu12 Ni35 3.030866 1_455
Eu12 P1 3.036742 1_555
Eu12 P1 3.036742 1_455
Eu12 Ni15 3.126986 1_555
Eu12 Ni9 3.128838 1_555
Eu12 Ni6 3.147908 1_455
Eu12 Ni6 3.147908 1_555
Eu13 Ni22 2.992728 1_556
Eu13 Ni22 2.992728 1_456
Eu13 P21 3.000809 1_455
Eu13 P21 3.000809 1_555
Eu13 P18 3.015258 1_455
Eu13 P18 3.015258 1_555
Eu13 Ni35 3.030866 1_555
Eu13 Ni35 3.030866 1_455
Eu13 P2 3.036742 1_556
Eu13 P2 3.036742 1_456
Eu13 Ni16 3.126986 1_556
Eu13 Ni14 3.128838 1_555
Eu13 Ni7 3.147908 1_556
Eu13 Ni7 3.147908 1_456
Eu14 Ni21 2.992728 1_445
Eu14 Ni21 2.992728 1_545
Eu14 P20 3.000809 1_555
Eu14 P20 3.000809 1_455
Eu14 P15 3.015258 1_455
Eu14 P15 3.015258 1_555
Eu14 Ni34 3.030866 1_555
Eu14 Ni34 3.030866 1_455
Eu14 P1 3.036742 1_545
Eu14 P1 3.036742 1_445
Eu14 Ni15 3.126986 1_545
Eu14 Ni11 3.128838 1_555
Eu14 Ni8 3.147908 1_445
Eu14 Ni8 3.147908 1_545
Eu15 P20 3.025945 1_454
Eu15 P20 3.025945 1_554
Eu15 P19 3.025945 1_455
Eu15 P21 3.025945 1_444
Eu15 P19 3.025945 1_555
Eu15 P21 3.025945 1_544
Eu15 Ni22 3.045752 1_545
Eu15 Ni22 3.045752 1_445
Eu15 Ni23 3.045752 1_555
Eu15 Ni23 3.045752 1_455
Eu15 Ni21 3.045752 1_544
Eu15 Ni21 3.045752 1_444
Ni0 Ni2 2.371353 1_555
Ni0 Ni1 2.371353 1_555
Ni0 Ni31 2.476308 1_655
Ni0 Ni31 2.476308 1_555
Ni0 Ni32 2.476308 1_655
Ni0 Ni32 2.476308 1_555
Ni0 Ni28 2.546773 1_555
Ni0 Ni25 2.546773 1_555
Ni1 Ni2 2.371353 1_555
Ni1 Ni32 2.476308 1_555
Ni1 Ni32 2.476308 1_655
Ni1 Ni30 2.476308 1_555
Ni1 Ni30 2.476308 1_655
Ni1 Ni27 2.546773 1_555
Ni1 Ni26 2.546773 1_555
Ni2 Ni31 2.476308 1_655
Ni2 Ni31 2.476308 1_555
Ni2 Ni30 2.476308 1_555
Ni2 Ni30 2.476308 1_655
Ni2 Ni24 2.546773 1_555
Ni2 Ni29 2.546773 1_555
Ni3 P4 2.317974 1_555
Ni3 P4 2.317974 1_655
Ni3 P14 2.333222 1_565
Ni3 P2 2.359302 1_555
Ni4 P5 2.317974 1_555
Ni4 P5 2.317974 1_655
Ni4 P16 2.333222 1_554
Ni4 P3 2.359302 1_555
Ni5 P6 2.317974 1_555
Ni5 P6 2.317974 1_655
Ni5 P17 2.333222 1_555
Ni5 P3 2.359302 1_555
Ni6 P7 2.317974 1_655
Ni6 P7 2.317974 1_555
Ni6 P13 2.333222 1_555
Ni6 P1 2.359302 1_555
Ni7 P8 2.317974 1_555
Ni7 P8 2.317974 1_655
Ni7 P18 2.333222 1_554
Ni7 P2 2.359302 1_555
Ni8 P9 2.317974 1_555
Ni8 P9 2.317974 1_655
Ni8 P15 2.333222 1_565
Ni8 P1 2.359302 1_555
Ni9 P13 2.340005 1_555
Ni9 P13 2.340005 1_455
Ni9 P7 2.341936 1_555
Ni9 P11 2.360959 1_555
Ni10 P14 2.340005 1_455
Ni10 P14 2.340005 1_555
Ni10 P4 2.341936 1_545
Ni10 P12 2.360959 1_555
Ni11 P15 2.340005 1_455
Ni11 P15 2.340005 1_555
Ni11 P9 2.341936 1_545
Ni11 P12 2.360959 1_555
Ni12 P16 2.340005 1_555
Ni12 P16 2.340005 1_455
Ni12 P5 2.341936 1_556
Ni12 P10 2.360959 1_555
Ni13 P17 2.340005 1_455
Ni13 P17 2.340005 1_555
Ni13 P6 2.341936 1_555
Ni13 P11 2.360959 1_555
Ni14 P18 2.340005 1_455
Ni14 P18 2.340005 1_555
Ni14 P8 2.341936 1_556
Ni14 P10 2.360959 1_555
Ni15 P1 2.314495 1_555
Ni15 P1 2.314495 1_455
Ni15 P7 2.334621 1_555
Ni15 P9 2.334621 1_555
Ni16 P2 2.314495 1_555
Ni16 P2 2.314495 1_455
Ni16 P4 2.334621 1_555
Ni16 P8 2.334621 1_555
Ni17 P3 2.314495 1_455
Ni17 P3 2.314495 1_555
Ni17 P6 2.334621 1_555
Ni17 P5 2.334621 1_555
Ni18 P5 2.316344 1_555
Ni18 P8 2.316344 1_555
Ni18 P0 2.325457 1_555
Ni19 P6 2.316344 1_555
Ni19 P7 2.316344 1_555
Ni19 P0 2.325473 1_555
Ni20 P9 2.316344 1_555
Ni20 P4 2.316344 1_555
Ni20 P0 2.325457 1_555
Ni21 P1 2.296163 1_555
Ni21 P20 2.312211 1_565
Ni21 P21 2.312211 1_555
Ni22 P2 2.296163 1_555
Ni22 P19 2.312211 1_565
Ni22 P21 2.312211 1_554
Ni23 P3 2.296163 1_555
Ni23 P20 2.312211 1_554
Ni23 P19 2.312211 1_555
Ni24 P13 2.227256 1_555
Ni24 P11 2.366289 1_555
Ni24 P11 2.366289 1_655
Ni25 P14 2.227256 1_555
Ni25 P12 2.366289 1_655
Ni25 P12 2.366289 1_555
Ni26 P15 2.227256 1_555
Ni26 P12 2.366289 1_555
Ni26 P12 2.366289 1_655
Ni27 P16 2.227256 1_555
Ni27 P10 2.366289 1_655
Ni27 P10 2.366289 1_555
Ni28 P17 2.227256 1_555
Ni28 P11 2.366289 1_555
Ni28 P11 2.366289 1_655
Ni29 P18 2.227256 1_555
Ni29 P10 2.366289 1_555
Ni29 P10 2.366289 1_655
Ni30 P10 2.155115 1_555
Ni31 P11 2.155115 1_555
Ni32 P12 2.155115 1_555
Ni33 P17 2.271793 1_555
Ni33 P14 2.271793 1_555
Ni33 P19 2.314814 1_555
Ni34 P15 2.271793 1_555
Ni34 P16 2.271793 1_555
Ni34 P20 2.314814 1_555
Ni35 P13 2.271793 1_555
Ni35 P18 2.271793 1_555
Ni35 P21 2.314814 1_555
