# generated using pymatgen
data_La2(GeIr)3
_symmetry_space_group_name_H-M   'P 1'
_cell_length_a   5.72267600
_cell_length_b   5.72267600
_cell_length_c   42.28387200
_cell_angle_alpha   90.00000000
_cell_angle_beta   90.00000000
_cell_angle_gamma   90.00000000
_symmetry_Int_Tables_number   1
_chemical_formula_structural   La2(GeIr)3
_chemical_formula_sum   'La16 Ge24 Ir24'
_cell_volume   1384.75539522
_cell_formula_units_Z   8
loop_
 _symmetry_equiv_pos_site_id
 _symmetry_equiv_pos_as_xyz
  1  'x, y, z'
loop_
 _atom_site_type_symbol
 _atom_site_label
 _atom_site_symmetry_multiplicity
 _atom_site_fract_x
 _atom_site_fract_y
 _atom_site_fract_z
 _atom_site_occupancy
  La  La0_0  1  0.25000000  0.25000000  0.38176950  1
  La  La0_1  1  0.25000000  0.25000000  0.88176950  1
  La  La0_2  1  0.25000000  0.75000000  0.38176950  1
  La  La0_3  1  0.25000000  0.75000000  0.88176950  1
  La  La0_4  1  0.75000000  0.25000000  0.38176950  1
  La  La0_5  1  0.75000000  0.25000000  0.88176950  1
  La  La0_6  1  0.75000000  0.75000000  0.38176950  1
  La  La0_7  1  0.75000000  0.75000000  0.88176950  1
  La  La1_0  1  0.25000000  0.25000000  0.11823050  1
  La  La1_1  1  0.25000000  0.25000000  0.61823050  1
  La  La1_2  1  0.25000000  0.75000000  0.11823050  1
  La  La1_3  1  0.25000000  0.75000000  0.61823050  1
  La  La1_4  1  0.75000000  0.25000000  0.11823050  1
  La  La1_5  1  0.75000000  0.25000000  0.61823050  1
  La  La1_6  1  0.75000000  0.75000000  0.11823050  1
  La  La1_7  1  0.75000000  0.75000000  0.61823050  1
  Ge  Ge0_0  1  0.25000000  0.25000000  0.19358850  1
  Ge  Ge0_1  1  0.25000000  0.25000000  0.69358850  1
  Ge  Ge0_2  1  0.25000000  0.75000000  0.19358850  1
  Ge  Ge0_3  1  0.25000000  0.75000000  0.69358850  1
  Ge  Ge0_4  1  0.75000000  0.25000000  0.19358850  1
  Ge  Ge0_5  1  0.75000000  0.25000000  0.69358850  1
  Ge  Ge0_6  1  0.75000000  0.75000000  0.19358850  1
  Ge  Ge0_7  1  0.75000000  0.75000000  0.69358850  1
  Ge  Ge1_0  1  0.25000000  0.25000000  0.30641150  1
  Ge  Ge1_1  1  0.25000000  0.25000000  0.80641150  1
  Ge  Ge1_2  1  0.25000000  0.75000000  0.30641150  1
  Ge  Ge1_3  1  0.25000000  0.75000000  0.80641150  1
  Ge  Ge1_4  1  0.75000000  0.25000000  0.30641150  1
  Ge  Ge1_5  1  0.75000000  0.25000000  0.80641150  1
  Ge  Ge1_6  1  0.75000000  0.75000000  0.30641150  1
  Ge  Ge1_7  1  0.75000000  0.75000000  0.80641150  1
  Ge  Ge2_0  1  0.25000000  0.25000000  0.00000000  1
  Ge  Ge2_1  1  0.25000000  0.25000000  0.50000000  1
  Ge  Ge2_2  1  0.25000000  0.75000000  0.00000000  1
  Ge  Ge2_3  1  0.25000000  0.75000000  0.50000000  1
  Ge  Ge2_4  1  0.75000000  0.25000000  0.00000000  1
  Ge  Ge2_5  1  0.75000000  0.25000000  0.50000000  1
  Ge  Ge2_6  1  0.75000000  0.75000000  0.00000000  1
  Ge  Ge2_7  1  0.75000000  0.75000000  0.50000000  1
  Ir  Ir0_0  1  0.25000000  0.25000000  0.05805900  1
  Ir  Ir0_1  1  0.25000000  0.25000000  0.55805900  1
  Ir  Ir0_2  1  0.25000000  0.75000000  0.05805900  1
  Ir  Ir0_3  1  0.25000000  0.75000000  0.55805900  1
  Ir  Ir0_4  1  0.75000000  0.25000000  0.05805900  1
  Ir  Ir0_5  1  0.75000000  0.25000000  0.55805900  1
  Ir  Ir0_6  1  0.75000000  0.75000000  0.05805900  1
  Ir  Ir0_7  1  0.75000000  0.75000000  0.55805900  1
  Ir  Ir1_0  1  0.25000000  0.25000000  0.44194100  1
  Ir  Ir1_1  1  0.25000000  0.25000000  0.94194100  1
  Ir  Ir1_2  1  0.25000000  0.75000000  0.44194100  1
  Ir  Ir1_3  1  0.25000000  0.75000000  0.94194100  1
  Ir  Ir1_4  1  0.75000000  0.25000000  0.44194100  1
  Ir  Ir1_5  1  0.75000000  0.25000000  0.94194100  1
  Ir  Ir1_6  1  0.75000000  0.75000000  0.44194100  1
  Ir  Ir1_7  1  0.75000000  0.75000000  0.94194100  1
  Ir  Ir2_0  1  0.25000000  0.25000000  0.25000000  1
  Ir  Ir2_1  1  0.25000000  0.25000000  0.75000000  1
  Ir  Ir2_2  1  0.25000000  0.75000000  0.25000000  1
  Ir  Ir2_3  1  0.25000000  0.75000000  0.75000000  1
  Ir  Ir2_4  1  0.75000000  0.25000000  0.25000000  1
  Ir  Ir2_5  1  0.75000000  0.25000000  0.75000000  1
  Ir  Ir2_6  1  0.75000000  0.75000000  0.25000000  1
  Ir  Ir2_7  1  0.75000000  0.75000000  0.75000000  1
loop_
_geom_bond_atom_site_label_1
_geom_bond_atom_site_label_2
_geom_bond_distance
_geom_bond_site_symmetry_2
La0_0 La0_4 2.861338 1_455
La0_0 La0_4 2.861338 1_555
La0_0 La0_2 2.861338 1_555
La0_0 La0_2 2.861338 1_545
La0_1 La0_3 2.861338 1_555
La0_1 La0_3 2.861338 1_545
La0_1 La0_5 2.861338 1_455
La0_1 La0_5 2.861338 1_555
La0_2 La0_6 2.861338 1_555
La0_2 La0_6 2.861338 1_455
La0_3 La0_7 2.861338 1_455
La0_3 La0_7 2.861338 1_555
La0_4 La0_6 2.861338 1_555
La0_4 La0_6 2.861338 1_545
La0_5 La0_7 2.861338 1_555
La0_5 La0_7 2.861338 1_545
La1_0 La1_4 2.861338 1_555
La1_0 La1_2 2.861338 1_555
La1_0 La1_2 2.861338 1_545
La1_0 La1_4 2.861338 1_455
La1_1 La1_5 2.861338 1_455
La1_1 La1_3 2.861338 1_545
La1_1 La1_5 2.861338 1_555
La1_1 La1_3 2.861338 1_555
La1_2 La1_6 2.861338 1_455
La1_2 La1_6 2.861338 1_555
La1_3 La1_7 2.861338 1_455
La1_3 La1_7 2.861338 1_555
La1_4 La1_6 2.861338 1_555
La1_4 La1_6 2.861338 1_545
La1_5 La1_7 2.861338 1_555
La1_5 La1_7 2.861338 1_545
Ge0_0 Ir2_0 2.385297 1_555
Ge0_0 Ge0_2 2.861338 1_555
Ge0_0 Ge0_4 2.861338 1_555
Ge0_0 Ge0_4 2.861338 1_455
Ge0_0 Ge0_2 2.861338 1_545
Ge0_0 La1_0 3.186428 1_555
Ge0_1 Ir2_1 2.385297 1_555
Ge0_1 Ge0_5 2.861338 1_555
Ge0_1 Ge0_3 2.861338 1_545
Ge0_1 Ge0_5 2.861338 1_455
Ge0_1 Ge0_3 2.861338 1_555
Ge0_1 La1_1 3.186428 1_555
Ge0_2 Ir2_2 2.385297 1_555
Ge0_2 Ge0_6 2.861338 1_455
Ge0_2 Ge0_6 2.861338 1_555
Ge0_2 La1_2 3.186428 1_555
Ge0_3 Ir2_3 2.385297 1_555
Ge0_3 Ge0_7 2.861338 1_555
Ge0_3 Ge0_7 2.861338 1_455
Ge0_3 La1_3 3.186428 1_555
Ge0_4 Ir2_4 2.385297 1_555
Ge0_4 Ge0_6 2.861338 1_545
Ge0_4 Ge0_6 2.861338 1_555
Ge0_4 La1_4 3.186428 1_555
Ge0_5 Ir2_5 2.385297 1_555
Ge0_5 Ge0_7 2.861338 1_555
Ge0_5 Ge0_7 2.861338 1_545
Ge0_5 La1_5 3.186428 1_555
Ge0_6 Ir2_6 2.385297 1_555
Ge0_6 La1_6 3.186428 1_555
Ge0_7 Ir2_7 2.385297 1_555
Ge0_7 La1_7 3.186428 1_555
Ge1_0 Ir2_0 2.385297 1_555
Ge1_0 Ge1_4 2.861338 1_455
Ge1_0 Ge1_4 2.861338 1_555
Ge1_0 Ge1_2 2.861338 1_545
Ge1_0 Ge1_2 2.861338 1_555
Ge1_0 La0_0 3.186428 1_555
Ge1_1 Ir2_1 2.385297 1_555
Ge1_1 Ge1_3 2.861338 1_555
Ge1_1 Ge1_5 2.861338 1_455
Ge1_1 Ge1_3 2.861338 1_545
Ge1_1 Ge1_5 2.861338 1_555
Ge1_1 La0_1 3.186428 1_555
Ge1_2 Ir2_2 2.385297 1_555
Ge1_2 Ge1_6 2.861338 1_555
Ge1_2 Ge1_6 2.861338 1_455
Ge1_2 La0_2 3.186428 1_555
Ge1_3 Ir2_3 2.385297 1_555
Ge1_3 Ge1_7 2.861338 1_455
Ge1_3 Ge1_7 2.861338 1_555
Ge1_3 La0_3 3.186428 1_555
Ge1_4 Ir2_4 2.385297 1_555
Ge1_4 Ge1_6 2.861338 1_555
Ge1_4 Ge1_6 2.861338 1_545
Ge1_4 La0_4 3.186428 1_555
Ge1_5 Ir2_5 2.385297 1_555
Ge1_5 Ge1_7 2.861338 1_555
Ge1_5 Ge1_7 2.861338 1_545
Ge1_5 La0_5 3.186428 1_555
Ge1_6 Ir2_6 2.385297 1_555
Ge1_6 La0_6 3.186428 1_555
Ge1_7 Ir2_7 2.385297 1_555
Ge1_7 La0_7 3.186428 1_555
Ge2_0 Ir1_1 2.454959 1_554
Ge2_0 Ir0_0 2.454959 1_555
Ge2_0 Ge2_4 2.861338 1_455
Ge2_0 Ge2_4 2.861338 1_555
Ge2_0 Ge2_2 2.861338 1_545
Ge2_0 Ge2_2 2.861338 1_555
Ge2_1 Ir0_1 2.454959 1_555
Ge2_1 Ir1_0 2.454959 1_555
Ge2_1 Ge2_3 2.861338 1_545
Ge2_1 Ge2_5 2.861338 1_455
Ge2_1 Ge2_5 2.861338 1_555
Ge2_1 Ge2_3 2.861338 1_555
Ge2_2 Ir1_3 2.454959 1_554
Ge2_2 Ir0_2 2.454959 1_555
Ge2_2 Ge2_6 2.861338 1_455
Ge2_2 Ge2_6 2.861338 1_555
Ge2_3 Ir0_3 2.454959 1_555
Ge2_3 Ir1_2 2.454959 1_555
Ge2_3 Ge2_7 2.861338 1_555
Ge2_3 Ge2_7 2.861338 1_455
Ge2_4 Ir1_5 2.454959 1_554
Ge2_4 Ir0_4 2.454959 1_555
Ge2_4 Ge2_6 2.861338 1_555
Ge2_4 Ge2_6 2.861338 1_545
Ge2_5 Ir0_5 2.454959 1_555
Ge2_5 Ir1_4 2.454959 1_555
Ge2_5 Ge2_7 2.861338 1_555
Ge2_5 Ge2_7 2.861338 1_545
Ge2_6 Ir1_7 2.454959 1_554
Ge2_6 Ir0_6 2.454959 1_555
Ge2_7 Ir0_7 2.454959 1_555
Ge2_7 Ir1_6 2.454959 1_555
Ir0_0 La1_0 2.544284 1_555
Ir0_1 La1_1 2.544284 1_555
Ir0_2 La1_2 2.544284 1_555
Ir0_3 La1_3 2.544284 1_555
Ir0_4 La1_4 2.544284 1_555
Ir0_5 La1_5 2.544284 1_555
Ir0_6 La1_6 2.544284 1_555
Ir0_7 La1_7 2.544284 1_555
Ir1_0 La0_0 2.544284 1_555
Ir1_1 La0_1 2.544284 1_555
Ir1_2 La0_2 2.544284 1_555
Ir1_3 La0_3 2.544284 1_555
Ir1_4 La0_4 2.544284 1_555
Ir1_5 La0_5 2.544284 1_555
Ir1_6 La0_6 2.544284 1_555
Ir1_7 La0_7 2.544284 1_555
