# generated using pymatgen
data_NaAl3
_symmetry_space_group_name_H-M   'P 1'
_cell_length_a   4.77830931
_cell_length_b   4.77830931
_cell_length_c   4.77830931
_cell_angle_alpha   119.53586173
_cell_angle_beta   119.53586173
_cell_angle_gamma   90.80580876
_symmetry_Int_Tables_number   1
_chemical_formula_structural   NaAl3
_chemical_formula_sum   'Na1 Al3'
_cell_volume   77.67788883
_cell_formula_units_Z   1
loop_
 _symmetry_equiv_pos_site_id
 _symmetry_equiv_pos_as_xyz
  1  'x, y, z'
loop_
 _atom_site_type_symbol
 _atom_site_label
 _atom_site_symmetry_multiplicity
 _atom_site_fract_x
 _atom_site_fract_y
 _atom_site_fract_z
 _atom_site_occupancy
  Na  Na0  1  0.00000000  0.00000000  0.00000000  1
  Al  Al0  1  0.75000100  0.25000100  0.50000000  1
  Al  Al1  1  0.25000100  0.75000100  0.50000000  1
  Al  Al2  1  0.50000000  0.50000000  0.00000000  1
loop_
_geom_bond_atom_site_label_1
_geom_bond_atom_site_label_2
_geom_bond_distance
_geom_bond_site_symmetry_2
Al0 Na0 2.932952 1_666
Al0 Al2 2.932952 1_555
Al0 Al2 2.932952 1_656
Al0 Na0 2.932952 1_655
Al0 Na0 2.932959 1_555
Al0 Al2 2.932959 1_556
Al0 Al2 2.932959 1_545
Al0 Na0 2.932959 1_656
Al1 Na0 2.932952 1_666
Al1 Al2 2.932952 1_555
Al1 Al2 2.932952 1_566
Al1 Na0 2.932952 1_565
Al1 Na0 2.932959 1_555
Al1 Al2 2.932959 1_556
Al1 Al2 2.932959 1_455
Al1 Na0 2.932959 1_566
Al2 Na0 3.354932 1_555
Al2 Na0 3.354932 1_665
Al2 Na0 3.402451 1_554
Al2 Na0 3.402451 1_565
Al2 Na0 3.402451 1_666
Al2 Na0 3.402451 1_655
