# generated using pymatgen
data_CsYC4O9
_symmetry_space_group_name_H-M   'P 1'
_cell_length_a   6.24016300
_cell_length_b   8.54661900
_cell_length_c   12.33485550
_cell_angle_alpha   46.19735510
_cell_angle_beta   90.00000000
_cell_angle_gamma   90.00000000
_symmetry_Int_Tables_number   1
_chemical_formula_structural   CsYC4O9
_chemical_formula_sum   'Cs2 Y2 C8 O18'
_cell_volume   474.78617553
_cell_formula_units_Z   2
loop_
 _symmetry_equiv_pos_site_id
 _symmetry_equiv_pos_as_xyz
  1  'x, y, z'
loop_
 _atom_site_type_symbol
 _atom_site_label
 _atom_site_symmetry_multiplicity
 _atom_site_fract_x
 _atom_site_fract_y
 _atom_site_fract_z
 _atom_site_occupancy
  Cs  Cs0  1  0.50165200  0.00000000  0.25000000  1
  Cs  Cs1  1  0.49834800  0.00000000  0.75000000  1
  Y  Y0  1  0.07644900  0.50000000  0.25000000  1
  Y  Y1  1  0.92355100  0.50000000  0.75000000  1
  C  C0  1  0.10347600  0.98800000  0.54069800  1
  C  C1  1  0.89652400  0.01200000  0.45930200  1
  C  C2  1  0.10347600  0.01200000  0.95930200  1
  C  C3  1  0.89652400  0.98800000  0.04069800  1
  C  C4  1  0.10841300  0.43765200  0.02168000  1
  C  C5  1  0.89158700  0.56234800  0.97832000  1
  C  C6  1  0.10841300  0.56234800  0.47832000  1
  C  C7  1  0.89158700  0.43765200  0.52168000  1
  O  O0  1  0.22316100  0.15392500  0.46788700  1
  O  O1  1  0.77683900  0.84607500  0.53211300  1
  O  O2  1  0.22316100  0.84607500  0.03211300  1
  O  O3  1  0.77683900  0.15392500  0.96788700  1
  O  O4  1  0.14889400  0.62907800  0.54067400  1
  O  O5  1  0.85110600  0.37092200  0.45932600  1
  O  O6  1  0.14889400  0.37092200  0.95932600  1
  O  O7  1  0.85110600  0.62907800  0.04067400  1
  O  O8  1  0.47528500  0.50000000  0.25000000  1
  O  O9  1  0.52471500  0.50000000  0.75000000  1
  O  O10  1  0.13445000  0.80675500  0.67210700  1
  O  O11  1  0.86555000  0.19324500  0.32789300  1
  O  O12  1  0.13445000  0.19324500  0.82789300  1
  O  O13  1  0.86555000  0.80675500  0.17210700  1
  O  O14  1  0.22385900  0.58707400  0.38274600  1
  O  O15  1  0.77614100  0.41292600  0.61725400  1
  O  O16  1  0.22385900  0.41292600  0.11725400  1
  O  O17  1  0.77614100  0.58707400  0.88274600  1
loop_
_geom_bond_atom_site_label_1
_geom_bond_atom_site_label_2
_geom_bond_distance
_geom_bond_site_symmetry_2
Cs0 O16 3.184510 1_555
Cs0 O14 3.184510 1_545
Cs0 O1 3.232844 1_545
Cs0 O3 3.232844 1_554
Cs0 O11 3.317243 1_555
Cs0 O13 3.317243 1_545
Cs0 O4 3.466359 1_545
Cs0 O6 3.466359 1_554
Cs1 O15 3.184510 1_555
Cs1 O17 3.184510 1_545
Cs1 O0 3.232844 1_555
Cs1 O2 3.232844 1_546
Cs1 O10 3.317243 1_545
Cs1 O12 3.317243 1_555
Cs1 O5 3.466359 1_555
Cs1 O7 3.466359 1_546
C0 O10 1.260285 1_555
C0 O0 1.269752 1_565
C1 O11 1.260285 1_555
C1 O1 1.269752 1_545
C2 O12 1.260285 1_555
C2 O2 1.269752 1_546
C3 O13 1.260285 1_555
C3 O3 1.269752 1_564
C4 O6 1.260107 1_554
C4 O16 1.268283 1_555
C5 O7 1.260107 1_556
C5 O17 1.268283 1_555
C6 O4 1.260107 1_555
C6 O14 1.268283 1_555
C7 O5 1.260107 1_555
C7 O15 1.268283 1_555
O0 Y0 2.409381 1_555
O1 Y1 2.409381 1_555
O2 Y0 2.409381 1_555
O3 Y1 2.409381 1_555
O4 Y1 2.432669 1_455
O5 Y0 2.432669 1_655
O6 Y1 2.432669 1_455
O7 Y0 2.432669 1_655
O8 Y0 2.488802 1_555
O9 Y1 2.488802 1_555
O10 Y1 2.457927 1_455
O11 Y0 2.457927 1_655
O12 Y1 2.457927 1_455
O13 Y0 2.457927 1_655
O14 Y0 2.401652 1_555
O15 Y1 2.401652 1_555
O16 Y0 2.401652 1_555
O17 Y1 2.401652 1_555
