# generated using pymatgen
data_SiO2
_symmetry_space_group_name_H-M   'P 1'
_cell_length_a   12.31532715
_cell_length_b   11.88267315
_cell_length_c   11.56440717
_cell_angle_alpha   86.80189822
_cell_angle_beta   86.78198931
_cell_angle_gamma   88.80508687
_symmetry_Int_Tables_number   1
_chemical_formula_structural   SiO2
_chemical_formula_sum   'Si34 O68'
_cell_volume   1686.75729714
_cell_formula_units_Z   34
loop_
 _symmetry_equiv_pos_site_id
 _symmetry_equiv_pos_as_xyz
  1  'x, y, z'
loop_
 _atom_site_type_symbol
 _atom_site_label
 _atom_site_symmetry_multiplicity
 _atom_site_fract_x
 _atom_site_fract_y
 _atom_site_fract_z
 _atom_site_occupancy
  Si  Si0  1  0.71090053  0.26737441  0.46290054  1
  Si  Si1  1  0.48706320  0.19189676  0.21789919  1
  Si  Si2  1  0.95018489  0.73126152  0.73598853  1
  Si  Si3  1  0.18687143  0.66744292  0.67845008  1
  Si  Si4  1  0.42479741  0.53705723  0.04540022  1
  Si  Si5  1  0.92057128  0.72161177  0.29576616  1
  Si  Si6  1  0.99162525  0.10335353  0.97948656  1
  Si  Si7  1  0.36135686  0.49389808  0.70738386  1
  Si  Si8  1  0.69247753  0.35852343  0.22097905  1
  Si  Si9  1  0.06762316  0.09712126  0.16972656  1
  Si  Si10  1  0.72537262  0.61625523  0.71364733  1
  Si  Si11  1  0.09237754  0.88534455  0.32695661  1
  Si  Si12  1  0.63642549  0.68310411  0.95777445  1
  Si  Si13  1  0.92344416  0.22953871  0.55785935  1
  Si  Si14  1  0.66841476  0.94629497  0.01798133  1
  Si  Si15  1  0.56405947  0.82465285  0.21716866  1
  Si  Si16  1  0.13954772  0.31899423  0.44991240  1
  Si  Si17  1  0.47320367  0.96799133  0.39877893  1
  Si  Si18  1  0.45725419  0.85960468  0.99932325  1
  Si  Si19  1  0.73316451  0.62789254  0.18890901  1
  Si  Si20  1  0.56405071  0.11100933  0.57773904  1
  Si  Si21  1  0.43480824  0.55998852  0.44831320  1
  Si  Si22  1  0.31916567  0.34781782  0.36254235  1
  Si  Si23  1  0.91089062  0.87146798  0.49998262  1
  Si  Si24  1  0.44437578  0.24148272  0.77966461  1
  Si  Si25  1  0.29545977  0.79013114  0.45341263  1
  Si  Si26  1  0.79187267  0.03024473  0.64557300  1
  Si  Si27  1  0.33816063  0.67383863  0.87201411  1
  Si  Si28  1  0.05697281  0.56664961  0.45488713  1
  Si  Si29  1  0.69121082  0.58577734  0.46420639  1
  Si  Si30  1  0.48452859  0.12443554  0.95587624  1
  Si  Si31  1  0.77649327  0.40673522  0.62706034  1
  Si  Si32  1  0.91206499  0.22753547  0.12716245  1
  Si  Si33  1  0.87548171  0.92119845  0.87123377  1
  O  O0  1  0.66698227  0.07392200  0.65599890  1
  O  O1  1  0.01927709  0.93144541  0.43734424  1
  O  O2  1  0.48762688  0.06917202  0.29681417  1
  O  O3  1  0.80263292  0.95082002  0.76262908  1
  O  O4  1  0.42361295  0.51455159  0.58217342  1
  O  O5  1  0.05022356  0.22573655  0.50252322  1
  O  O6  1  0.54611982  0.23417454  0.86754337  1
  O  O7  1  0.06963016  0.43530754  0.47469110  1
  O  O8  1  0.89125814  0.12130865  0.64567939  1
  O  O9  1  0.19198596  0.34117897  0.31343050  1
  O  O10  1  0.23818818  0.71762594  0.80012819  1
  O  O11  1  0.61942168  0.06232207  0.96752106  1
  O  O12  1  0.39901012  0.25993731  0.30045790  1
  O  O13  1  0.93120254  0.07506641  0.12416285  1
  O  O14  1  0.78533304  0.49365626  0.51267913  1
  O  O15  1  0.26392903  0.30711950  0.49780364  1
  O  O16  1  0.72616825  0.47699780  0.73496193  1
  O  O17  1  0.45281951  0.82449358  0.13948535  1
  O  O18  1  0.65495390  0.67362347  0.81886227  1
  O  O19  1  0.25311881  0.76416521  0.58850444  1
  O  O20  1  0.47930124  0.18963649  0.65097712  1
  O  O21  1  0.37530403  0.47023191  0.36969238  1
  O  O22  1  0.85228800  0.64519117  0.72463822  1
  O  O23  1  0.42808796  0.42791209  0.12092396  1
  O  O24  1  0.02328284  0.22502829  0.20479541  1
  O  O25  1  0.11370736  0.09518333  0.03215918  1
  O  O26  1  0.11077674  0.64396979  0.53685921  1
  O  O27  1  0.50812778  0.00298550  0.52620034  1
  O  O28  1  0.01687535  0.81285576  0.24745555  1
  O  O29  1  0.89572988  0.34167117  0.63416216  1
  O  O30  1  0.93870040  0.23280492  0.98320041  1
  O  O31  1  0.70393073  0.48859483  0.17371752  1
  O  O32  1  0.80810041  0.29250541  0.17218620  1
  O  O33  1  0.64753885  0.92041183  0.15622588  1
  O  O34  1  0.37324739  0.15459487  0.86729673  1
  O  O35  1  0.68862079  0.31449422  0.59323963  1
  O  O36  1  0.94938149  0.81883807  0.62302974  1
  O  O37  1  0.06310396  0.66484687  0.74123359  1
  O  O38  1  0.93362455  0.80046493  0.85527752  1
  O  O39  1  0.86726131  0.78219989  0.41200813  1
  O  O40  1  0.40122062  0.78450883  0.90937132  1
  O  O41  1  0.79699452  0.92463257  0.98798893  1
  O  O42  1  0.43521926  0.98849796  0.97361335  1
  O  O43  1  0.45338031  0.16802149  0.08900289  1
  O  O44  1  0.61589569  0.70059345  0.20799244  1
  O  O45  1  0.75202267  0.62074063  0.34087385  1
  O  O46  1  0.37549369  0.68277970  0.41704499  1
  O  O47  1  0.31578697  0.60028354  0.99884826  1
  O  O48  1  0.73652884  0.65479307  0.03505915  1
  O  O49  1  0.67880674  0.65815129  0.58632738  1
  O  O50  1  0.96797524  0.01971521  0.88267644  1
  O  O51  1  0.85717968  0.69315130  0.18233407  1
  O  O52  1  0.98975472  0.60757762  0.34748764  1
  O  O53  1  0.41167970  0.58149058  0.79711693  1
  O  O54  1  0.19610798  0.80814350  0.36209411  1
  O  O55  1  0.54453908  0.86010541  0.35010679  1
  O  O56  1  0.52847273  0.61314943  0.00313663  1
  O  O57  1  0.12473570  0.00713807  0.25356896  1
  O  O58  1  0.56693711  0.56144833  0.42807876  1
  O  O59  1  0.38349122  0.36481671  0.75453646  1
  O  O60  1  0.23512380  0.53449080  0.68837223  1
  O  O61  1  0.84011535  0.22586494  0.45109485  1
  O  O62  1  0.60064658  0.26595007  0.19983581  1
  O  O63  1  0.81250893  0.96136070  0.52752747  1
  O  O64  1  0.35323957  0.91292039  0.42979309  1
  O  O65  1  0.59854560  0.82938640  0.96496448  1
  O  O66  1  0.62051963  0.17183116  0.45752635  1
  O  O67  1  0.69495023  0.36227713  0.36075042  1
loop_
_geom_bond_atom_site_label_1
_geom_bond_atom_site_label_2
_geom_bond_distance
_geom_bond_site_symmetry_2
O0 Si26 1.613201 1_555
O0 Si20 1.637435 1_555
O1 Si11 1.633586 1_555
O1 Si23 1.639482 1_455
O2 Si17 1.641555 1_545
O2 Si1 1.676701 1_555
O3 Si33 1.603184 1_555
O3 Si26 1.616513 1_565
O4 Si7 1.608814 1_555
O4 Si21 1.610202 1_555
O5 Si16 1.645832 1_555
O5 Si13 1.654512 1_455
O6 Si24 1.654978 1_555
O6 Si30 1.767732 1_555
O7 Si28 1.570509 1_555
O7 Si16 1.643357 1_555
O8 Si13 1.634878 1_555
O8 Si26 1.650621 1_555
O9 Si16 1.680451 1_555
O9 Si22 1.700583 1_555
O10 Si27 1.586689 1_555
O10 Si3 1.715866 1_555
O11 Si14 1.587604 1_546
O11 Si30 1.812605 1_555
O12 Si22 1.591985 1_555
O12 Si1 1.635379 1_555
O13 Si6 1.809381 1_554
O13 Si9 1.817168 1_655
O13 Si32 1.824127 1_555
O14 Si31 1.632297 1_555
O14 Si29 1.675606 1_555
O15 Si16 1.658480 1_555
O15 Si22 1.718502 1_555
O16 Si31 1.626674 1_555
O16 Si10 1.659258 1_555
O17 Si18 1.649211 1_554
O17 Si15 1.679973 1_555
O18 Si12 1.619680 1_555
O18 Si10 1.626863 1_555
O19 Si25 1.633774 1_555
O19 Si3 1.696748 1_555
O20 Si20 1.621102 1_555
O20 Si24 1.672917 1_555
O21 Si22 1.631711 1_555
O21 Si21 1.648269 1_555
O22 Si2 1.612749 1_555
O22 Si10 1.620789 1_555
O23 Si4 1.523774 1_555
O24 Si9 1.667928 1_555
O24 Si32 1.678184 1_455
O25 Si6 1.652589 1_454
O25 Si9 1.660037 1_555
O26 Si28 1.541074 1_555
O26 Si3 1.967556 1_555
O27 Si20 1.626509 1_555
O27 Si17 1.635921 1_545
O28 Si11 1.633873 1_555
O28 Si5 1.675098 1_455
O29 Si31 1.649211 1_555
O29 Si13 1.657981 1_555
O30 Si6 1.659889 1_555
O30 Si32 1.676637 1_556
O31 Si8 1.616683 1_555
O31 Si19 1.721820 1_555
O32 Si32 1.560514 1_555
O32 Si8 1.695277 1_555
O33 Si14 1.618294 1_555
O33 Si15 1.651168 1_555
O34 Si24 1.637564 1_555
O34 Si30 1.775417 1_555
O35 Si31 1.634097 1_555
O35 Si0 1.643790 1_555
O36 Si23 1.613913 1_555
O36 Si2 1.624440 1_555
O37 Si2 1.587045 1_455
O37 Si3 1.651248 1_555
O38 Si33 1.605246 1_555
O38 Si2 1.645854 1_555
O39 Si23 1.629257 1_555
O39 Si5 1.656986 1_555
O40 Si18 1.601379 1_555
O40 Si27 1.631802 1_555
O41 Si33 1.617715 1_555
O41 Si14 1.620289 1_556
O42 Si18 1.564846 1_555
O42 Si30 1.734934 1_565
O43 Si1 1.611207 1_555
O43 Si30 1.673296 1_554
O44 Si15 1.600790 1_555
O44 Si19 1.677550 1_555
O45 Si29 1.610795 1_555
O45 Si19 1.782664 1_555
O46 Si21 1.649128 1_555
O46 Si25 1.654227 1_555
O47 Si4 1.628040 1_556
O47 Si27 1.677162 1_555
O48 Si12 1.582603 1_554
O48 Si19 1.788352 1_555
O49 Si10 1.657022 1_555
O49 Si29 1.692103 1_555
O50 Si6 1.580755 1_555
O50 Si33 1.665911 1_545
O51 Si5 1.618667 1_555
O51 Si19 1.723220 1_555
O52 Si28 1.579757 1_655
O52 Si5 1.684764 1_555
O53 Si27 1.658522 1_555
O53 Si7 1.662490 1_555
O54 Si11 1.614437 1_555
O54 Si25 1.663442 1_555
O55 Si15 1.620263 1_555
O55 Si17 1.646235 1_555
O56 Si4 1.617222 1_555
O56 Si12 1.628743 1_554
O57 Si9 1.583545 1_555
O57 Si11 1.680057 1_545
O58 Si21 1.631210 1_555
O58 Si29 1.644442 1_555
O59 Si7 1.621795 1_555
O59 Si24 1.650932 1_555
O60 Si7 1.641052 1_555
O60 Si3 1.676430 1_555
O61 Si13 1.652143 1_555
O61 Si0 1.656690 1_555
O62 Si8 1.631492 1_555
O62 Si1 1.665131 1_555
O63 Si23 1.628215 1_555
O63 Si26 1.635602 1_565
O64 Si25 1.639156 1_555
O64 Si17 1.641405 1_555
O65 Si12 1.795526 1_555
O65 Si18 1.796336 1_555
O65 Si14 1.802845 1_556
O66 Si0 1.612470 1_555
O66 Si20 1.654963 1_555
O67 Si0 1.604353 1_555
O67 Si8 1.621483 1_555
