# generated using pymatgen
data_Ca3(NiN2)2
_symmetry_space_group_name_H-M   'P 1'
_cell_length_a   5.63512600
_cell_length_b   9.61829200
_cell_length_c   8.82370100
_cell_angle_alpha   90.00000000
_cell_angle_beta   90.00000000
_cell_angle_gamma   90.00000000
_symmetry_Int_Tables_number   1
_chemical_formula_structural   Ca3(NiN2)2
_chemical_formula_sum   'Ca12 Ni8 N16'
_cell_volume   478.24712947
_cell_formula_units_Z   4
loop_
 _symmetry_equiv_pos_site_id
 _symmetry_equiv_pos_as_xyz
  1  'x, y, z'
loop_
 _atom_site_type_symbol
 _atom_site_label
 _atom_site_symmetry_multiplicity
 _atom_site_fract_x
 _atom_site_fract_y
 _atom_site_fract_z
 _atom_site_occupancy
  Ca  Ca0  1  0.60655000  0.15473800  0.41369800  1
  Ca  Ca1  1  0.89345000  0.84526200  0.41369800  1
  Ca  Ca2  1  0.60655000  0.34526200  0.08630200  1
  Ca  Ca3  1  0.89345000  0.65473800  0.08630200  1
  Ca  Ca4  1  0.39345000  0.84526200  0.58630200  1
  Ca  Ca5  1  0.10655000  0.15473800  0.58630200  1
  Ca  Ca6  1  0.39345000  0.65473800  0.91369800  1
  Ca  Ca7  1  0.10655000  0.34526200  0.91369800  1
  Ca  Ca8  1  0.75000000  0.50000000  0.40092000  1
  Ca  Ca9  1  0.75000000  0.00000000  0.09908000  1
  Ca  Ca10  1  0.25000000  0.50000000  0.59908000  1
  Ca  Ca11  1  0.25000000  0.00000000  0.90092000  1
  Ni  Ni0  1  0.75000000  0.50000000  0.73179400  1
  Ni  Ni1  1  0.75000000  0.00000000  0.76820600  1
  Ni  Ni2  1  0.25000000  0.50000000  0.26820600  1
  Ni  Ni3  1  0.25000000  0.00000000  0.23179400  1
  Ni  Ni4  1  0.64552800  0.25000000  0.75000000  1
  Ni  Ni5  1  0.85447200  0.75000000  0.75000000  1
  Ni  Ni6  1  0.35447200  0.75000000  0.25000000  1
  Ni  Ni7  1  0.14552800  0.25000000  0.25000000  1
  N  N0  1  0.87959600  0.35353800  0.62290100  1
  N  N1  1  0.62040400  0.64646200  0.62290100  1
  N  N2  1  0.87959600  0.14646200  0.87709900  1
  N  N3  1  0.62040400  0.85353800  0.87709900  1
  N  N4  1  0.12040400  0.64646200  0.37709900  1
  N  N5  1  0.37959600  0.35353800  0.37709900  1
  N  N6  1  0.12040400  0.85353800  0.12290100  1
  N  N7  1  0.37959600  0.14646200  0.12290100  1
  N  N8  1  0.49090000  0.40961800  0.83031300  1
  N  N9  1  0.00910000  0.59038200  0.83031300  1
  N  N10  1  0.49090000  0.09038200  0.66968700  1
  N  N11  1  0.00910000  0.90961800  0.66968700  1
  N  N12  1  0.50910000  0.59038200  0.16968700  1
  N  N13  1  0.99090000  0.40961800  0.16968700  1
  N  N14  1  0.50910000  0.90961800  0.33031300  1
  N  N15  1  0.99090000  0.09038200  0.33031300  1
loop_
_geom_bond_atom_site_label_1
_geom_bond_atom_site_label_2
_geom_bond_distance
_geom_bond_site_symmetry_2
Ca0 N5 2.322951 1_555
Ca0 N15 2.369695 1_555
Ca0 N10 2.431032 1_555
Ca0 N14 2.530090 1_545
Ca1 N4 2.322951 1_655
Ca1 N14 2.369695 1_555
Ca1 N11 2.431032 1_655
Ca1 N15 2.530090 1_565
Ca2 N7 2.322951 1_555
Ca2 N13 2.369695 1_555
Ca2 N8 2.431032 1_554
Ca2 N12 2.530090 1_555
Ca3 N6 2.322951 1_655
Ca3 N12 2.369695 1_555
Ca3 N9 2.431032 1_654
Ca3 N13 2.530090 1_555
Ca4 N1 2.322951 1_555
Ca4 N11 2.369695 1_555
Ca4 N14 2.431032 1_555
Ca4 N10 2.530090 1_565
Ca5 N0 2.322951 1_455
Ca5 N10 2.369695 1_555
Ca5 N15 2.431032 1_455
Ca5 N11 2.530090 1_545
Ca6 N3 2.322951 1_555
Ca6 N9 2.369695 1_555
Ca6 N12 2.431032 1_556
Ca6 N8 2.530090 1_555
Ca7 N2 2.322951 1_455
Ca7 N8 2.369695 1_555
Ca7 N13 2.431032 1_456
Ca7 N9 2.530090 1_555
Ca8 N1 2.520770 1_555
Ca8 N0 2.520770 1_555
Ca8 N5 2.526928 1_555
Ca8 N4 2.526928 1_655
Ca8 N12 2.600284 1_555
Ca8 N13 2.600284 1_555
Ca9 N3 2.520770 1_544
Ca9 N2 2.520770 1_554
Ca9 N7 2.526928 1_555
Ca9 N6 2.526928 1_645
Ca9 N15 2.600284 1_555
Ca9 N14 2.600284 1_545
Ca10 N4 2.520770 1_555
Ca10 N5 2.520770 1_555
Ca10 N0 2.526928 1_455
Ca10 N1 2.526928 1_555
Ca10 N8 2.600284 1_555
Ca10 N9 2.600284 1_555
Ca11 N7 2.520770 1_556
Ca11 N6 2.520770 1_546
Ca11 N3 2.526928 1_545
Ca11 N2 2.526928 1_455
Ca11 N10 2.600284 1_555
Ca11 N11 2.600284 1_545
N0 Ni0 1.854996 1_555
N0 Ni4 1.997305 1_555
N1 Ni0 1.854996 1_555
N1 Ni5 1.997305 1_555
N2 Ni1 1.854996 1_555
N2 Ni4 1.997305 1_555
N3 Ni1 1.854996 1_565
N3 Ni5 1.997305 1_555
N4 Ni2 1.854996 1_555
N4 Ni6 1.997305 1_555
N5 Ni2 1.854996 1_555
N5 Ni7 1.997305 1_555
N6 Ni3 1.854996 1_565
N6 Ni6 1.997305 1_555
N7 Ni3 1.854996 1_555
N7 Ni7 1.997305 1_555
N8 Ni4 1.902221 1_555
N8 Ni0 1.908712 1_555
N9 Ni5 1.902221 1_455
N9 Ni0 1.908712 1_455
N10 Ni4 1.902221 1_555
N10 Ni1 1.908712 1_555
N11 Ni5 1.902221 1_455
N11 Ni1 1.908712 1_465
N12 Ni6 1.902221 1_555
N12 Ni2 1.908712 1_555
N13 Ni7 1.902221 1_655
N13 Ni2 1.908712 1_655
N14 Ni6 1.902221 1_555
N14 Ni3 1.908712 1_565
N15 Ni7 1.902221 1_655
N15 Ni3 1.908712 1_655
