# generated using pymatgen
data_H3CBrClF
_symmetry_space_group_name_H-M   'P 1'
_cell_length_a   7.03722900
_cell_length_b   7.33465400
_cell_length_c   10.06755300
_cell_angle_alpha   90.00000000
_cell_angle_beta   90.00000000
_cell_angle_gamma   90.00000000
_symmetry_Int_Tables_number   1
_chemical_formula_structural   H3CBrClF
_chemical_formula_sum   'H12 C4 Br4 Cl4 F4'
_cell_volume   519.64318966
_cell_formula_units_Z   4
loop_
 _symmetry_equiv_pos_site_id
 _symmetry_equiv_pos_as_xyz
  1  'x, y, z'
loop_
 _atom_site_type_symbol
 _atom_site_label
 _atom_site_symmetry_multiplicity
 _atom_site_fract_x
 _atom_site_fract_y
 _atom_site_fract_z
 _atom_site_occupancy
  H  H0  1  0.00736100  0.75000000  0.26101500  1
  H  H1  1  0.49263900  0.75000000  0.76101500  1
  H  H2  1  0.99263900  0.25000000  0.73898500  1
  H  H3  1  0.50736100  0.25000000  0.23898500  1
  H  H4  1  0.12194900  0.62667800  0.12744500  1
  H  H5  1  0.37805100  0.87332200  0.62744500  1
  H  H6  1  0.87805100  0.12667800  0.87255500  1
  H  H7  1  0.62194900  0.37332200  0.37255500  1
  H  H8  1  0.87805100  0.37332200  0.87255500  1
  H  H9  1  0.62194900  0.12667800  0.37255500  1
  H  H10  1  0.12194900  0.87332200  0.12744500  1
  H  H11  1  0.37805100  0.62667800  0.62744500  1
  C  C0  1  0.12284600  0.75000000  0.18856700  1
  C  C1  1  0.37715400  0.75000000  0.68856700  1
  C  C2  1  0.87715400  0.25000000  0.81143300  1
  C  C3  1  0.62284600  0.25000000  0.31143300  1
  Br  Br0  1  0.58405300  0.75000000  0.09641600  1
  Br  Br1  1  0.91594700  0.75000000  0.59641600  1
  Br  Br2  1  0.41594700  0.25000000  0.90358400  1
  Br  Br3  1  0.08405300  0.25000000  0.40358400  1
  Cl  Cl0  1  0.34034400  0.75000000  0.28194100  1
  Cl  Cl1  1  0.15965600  0.75000000  0.78194100  1
  Cl  Cl2  1  0.65965600  0.25000000  0.71805900  1
  Cl  Cl3  1  0.84034400  0.25000000  0.21805900  1
  F  F0  1  0.76331700  0.75000000  0.95592000  1
  F  F1  1  0.73668300  0.75000000  0.45592000  1
  F  F2  1  0.23668300  0.25000000  0.04408000  1
  F  F3  1  0.26331700  0.25000000  0.54408000  1
loop_
_geom_bond_atom_site_label_1
_geom_bond_atom_site_label_2
_geom_bond_distance
_geom_bond_site_symmetry_2
C0 H0 1.091998 1_555
C0 H10 1.094010 1_555
C0 H4 1.094010 1_555
C0 Cl0 1.796211 1_555
C1 H1 1.091998 1_555
C1 H5 1.094010 1_555
C1 H11 1.094010 1_555
C1 Cl1 1.796211 1_555
C2 H2 1.091998 1_555
C2 H8 1.094010 1_555
C2 H6 1.094010 1_555
C2 Cl2 1.796211 1_555
C3 H3 1.091998 1_555
C3 H7 1.094010 1_555
C3 H9 1.094010 1_555
C3 Cl3 1.796211 1_555
Br0 F0 1.895286 1_554
Br0 Cl0 2.535737 1_555
Br1 F1 1.895286 1_555
Br1 Cl1 2.535737 1_655
Br2 F2 1.895286 1_556
Br2 Cl2 2.535737 1_555
Br3 F3 1.895286 1_555
Br3 Cl3 2.535737 1_455
