# generated using pymatgen
data_Li3MnCoO5
_symmetry_space_group_name_H-M   'P 1'
_cell_length_a   2.95326100
_cell_length_b   7.78142102
_cell_length_c   8.20188219
_cell_angle_alpha   104.97485465
_cell_angle_beta   90.42612383
_cell_angle_gamma   98.01515762
_symmetry_Int_Tables_number   1
_chemical_formula_structural   Li3MnCoO5
_chemical_formula_sum   'Li6 Mn2 Co2 O10'
_cell_volume   180.11790656
_cell_formula_units_Z   2
loop_
 _symmetry_equiv_pos_site_id
 _symmetry_equiv_pos_as_xyz
  1  'x, y, z'
loop_
 _atom_site_type_symbol
 _atom_site_label
 _atom_site_symmetry_multiplicity
 _atom_site_fract_x
 _atom_site_fract_y
 _atom_site_fract_z
 _atom_site_occupancy
  Li  Li0  1  0.79418100  0.60157200  0.91376300  1
  Li  Li1  1  0.99092900  0.99384600  0.48439800  1
  Li  Li2  1  0.22005700  0.40692800  0.10896400  1
  Li  Li3  1  0.40705300  0.79971200  0.69549900  1
  Li  Li4  1  0.58518700  0.18749100  0.29811400  1
  Li  Li5  1  0.42140100  0.81132900  0.20787500  1
  Mn  Mn0  1  0.99522700  0.99461100  0.00858100  1
  Mn  Mn1  1  0.19536400  0.40253600  0.59675400  1
  Co  Co0  1  0.58824400  0.19613200  0.79569500  1
  Co  Co1  1  0.81617400  0.60854300  0.38966900  1
  O  O0  1  0.42816600  0.82215400  0.95503100  1
  O  O1  1  0.55667300  0.20613200  0.55654300  1
  O  O2  1  0.79837600  0.59324400  0.17243300  1
  O  O3  1  0.99447700  0.01410400  0.76618300  1
  O  O4  1  0.18342400  0.41421100  0.36089400  1
  O  O5  1  0.19564800  0.39228000  0.84032700  1
  O  O6  1  0.43167600  0.78404400  0.44646400  1
  O  O7  1  0.56478400  0.17398400  0.03910800  1
  O  O8  1  0.82953200  0.59578500  0.63050000  1
  O  O9  1  0.00342700  0.00136400  0.23320600  1
loop_
_geom_bond_atom_site_label_1
_geom_bond_atom_site_label_2
_geom_bond_distance
_geom_bond_site_symmetry_2
Li0 O0 2.109922 1_555
Li0 O5 2.112578 1_655
Li0 O2 2.139239 1_556
Li0 O5 2.194087 1_555
Li0 O0 2.315264 1_655
Li0 O8 2.315482 1_555
Li1 O9 2.076588 1_665
Li1 O6 2.113722 1_555
Li1 O1 2.140301 1_665
Li1 O6 2.189165 1_655
Li1 O1 2.195571 1_565
Li1 O3 2.275380 1_565
Li2 O2 2.011687 1_455
Li2 O2 2.048451 1_555
Li2 O4 2.056461 1_555
Li2 O7 2.153363 1_555
Li2 O5 2.176788 1_554
Li2 O7 2.414014 1_455
Li3 O6 2.016971 1_555
Li3 O0 2.090077 1_555
Li3 O8 2.117510 1_555
Li3 O8 2.122683 1_455
Li3 O3 2.163652 1_465
Li3 O3 2.192476 1_565
Li4 O9 2.004227 1_655
Li4 O9 2.055945 1_555
Li4 O1 2.089982 1_555
Li4 O7 2.099625 1_555
Li4 O4 2.215566 1_555
Li4 O4 2.268646 1_655
Li5 O6 2.022622 1_555
Li5 O9 2.026729 1_565
Li5 O9 2.076407 1_665
Li5 O0 2.097272 1_554
Li5 O2 2.116729 1_555
Li5 O2 2.283887 1_455
Mn0 O9 1.829356 1_665
Mn0 O0 1.952121 1_654
Mn0 O0 1.963684 1_554
Mn0 O7 1.986403 1_565
Mn0 O7 1.999646 1_665
Mn0 O3 2.032611 1_564
Mn1 O8 1.935861 1_455
Mn1 O1 1.944884 1_555
Mn1 O4 1.960223 1_555
Mn1 O5 2.019849 1_555
Mn1 O8 2.199387 1_555
Mn1 O1 2.220061 1_455
Co0 O3 1.950696 1_555
Co0 O1 1.985044 1_555
Co0 O5 2.004744 1_555
Co0 O7 2.048618 1_556
Co0 O3 2.064864 1_455
Co0 O5 2.149276 1_655
Co1 O2 1.754648 1_555
Co1 O6 1.866269 1_555
Co1 O4 1.948192 1_655
Co1 O8 2.003588 1_555
Co1 O6 2.086274 1_655
Co1 O4 2.203478 1_555
