# generated using pymatgen
data_Al2O3
_symmetry_space_group_name_H-M   'P 1'
_cell_length_a   10.26337433
_cell_length_b   10.84910447
_cell_length_c   10.12835022
_cell_angle_alpha   86.46946461
_cell_angle_beta   91.11685014
_cell_angle_gamma   89.04250114
_symmetry_Int_Tables_number   1
_chemical_formula_structural   Al2O3
_chemical_formula_sum   'Al40 O60'
_cell_volume   1125.24027961
_cell_formula_units_Z   20
loop_
 _symmetry_equiv_pos_site_id
 _symmetry_equiv_pos_as_xyz
  1  'x, y, z'
loop_
 _atom_site_type_symbol
 _atom_site_label
 _atom_site_symmetry_multiplicity
 _atom_site_fract_x
 _atom_site_fract_y
 _atom_site_fract_z
 _atom_site_occupancy
  Al  Al0  1  0.94421800  0.28136200  0.60058300  1
  Al  Al1  1  0.67675100  0.40620500  0.61318700  1
  Al  Al2  1  0.02734200  0.73726800  0.69777600  1
  Al  Al3  1  0.88806900  0.48668300  0.80528800  1
  Al  Al4  1  0.68411000  0.64409900  0.44048100  1
  Al  Al5  1  0.15150900  0.53938200  0.84630000  1
  Al  Al6  1  0.35110200  0.39612200  0.31042700  1
  Al  Al7  1  0.05934300  0.22590700  0.88548100  1
  Al  Al8  1  0.32860900  0.36576000  0.98739300  1
  Al  Al9  1  0.75987300  0.77798700  0.71980200  1
  Al  Al10  1  0.34460300  0.70358800  0.25121100  1
  Al  Al11  1  0.43260700  0.14160000  0.81601600  1
  Al  Al12  1  0.60417000  0.15050000  0.30300700  1
  Al  Al13  1  0.63746300  0.09159200  0.64146100  1
  Al  Al14  1  0.43001400  0.63452900  0.79356800  1
  Al  Al15  1  0.95619100  0.68313900  0.96306500  1
  Al  Al16  1  0.21561900  0.09003700  0.64488900  1
  Al  Al17  1  0.11384200  0.88357600  0.16983800  1
  Al  Al18  1  0.21814500  0.97691300  0.89186400  1
  Al  Al19  1  0.57306100  0.85715800  0.51410400  1
  Al  Al20  1  0.45786800  0.25286300  0.51266100  1
  Al  Al21  1  0.13716800  0.72193600  0.40111900  1
  Al  Al22  1  0.07905700  0.51204700  0.51490400  1
  Al  Al23  1  0.04074400  0.05260400  0.42965000  1
  Al  Al24  1  0.33354100  0.97407200  0.37357400  1
  Al  Al25  1  0.92272100  0.02219300  0.68298200  1
  Al  Al26  1  0.83451100  0.95099700  0.34518100  1
  Al  Al27  1  0.64774200  0.30515300  0.08057400  1
  Al  Al28  1  0.77946900  0.14497600  0.86125200  1
  Al  Al29  1  0.41015100  0.56191500  0.50928100  1
  Al  Al30  1  0.70366000  0.41047200  0.35477900  1
  Al  Al31  1  0.51339600  0.85262300  0.97778600  1
  Al  Al32  1  0.58502000  0.87545400  0.21396100  1
  Al  Al33  1  0.55152300  0.39720000  0.82416200  1
  Al  Al34  1  0.18645400  0.18535000  0.21243500  1
  Al  Al35  1  0.88537900  0.21431900  0.18031000  1
  Al  Al36  1  0.40346800  0.08609400  0.11603100  1
  Al  Al37  1  0.08133700  0.41105600  0.08292500  1
  Al  Al38  1  0.92016900  0.59430300  0.24811800  1
  Al  Al39  1  0.28449000  0.83652000  0.59183400  1
  O  O0  1  0.31387400  0.22713500  0.33011400  1
  O  O1  1  0.35045300  0.69403100  0.65032200  1
  O  O2  1  0.83252300  0.65808200  0.83577100  1
  O  O3  1  0.52522500  0.71270000  0.45386800  1
  O  O4  1  0.95316200  0.32655100  0.77243400  1
  O  O5  1  0.80406900  0.35400300  0.50870900  1
  O  O6  1  0.06925000  0.35740500  0.52112600  1
  O  O7  1  0.04240500  0.12929000  0.60663200  1
  O  O8  1  0.54618000  0.18064900  0.13090000  1
  O  O9  1  0.99455700  0.45580100  0.21503400  1
  O  O10  1  0.42173600  0.29206500  0.86216100  1
  O  O11  1  0.20518600  0.02493900  0.47835700  1
  O  O12  1  0.57942100  0.11191500  0.47619000  1
  O  O13  1  0.03174700  0.55902000  0.68812100  1
  O  O14  1  0.11253000  0.79369600  0.55907000  1
  O  O15  1  0.55483000  0.31173200  0.34428300  1
  O  O16  1  0.42239800  0.93044400  0.53076800  1
  O  O17  1  0.29005000  0.20306000  0.06574000  1
  O  O18  1  0.72827500  0.42662700  0.77910100  1
  O  O19  1  0.22525700  0.58552100  0.47344800  1
  O  O20  1  0.48167100  0.00155400  0.26871700  1
  O  O21  1  0.11548500  0.91263000  0.00339300  1
  O  O22  1  0.23910300  0.01277900  0.21365100  1
  O  O23  1  0.79756200  0.14350800  0.67467000  1
  O  O24  1  0.60606900  0.09604100  0.82040000  1
  O  O25  1  0.69107400  0.85762000  0.35792800  1
  O  O26  1  0.61048300  0.49805700  0.48064700  1
  O  O27  1  0.76471900  0.69346900  0.57961200  1
  O  O28  1  0.29265900  0.80986900  0.38616600  1
  O  O29  1  0.39560400  0.99815500  0.95200900  1
  O  O30  1  0.64763700  0.91051600  0.05992500  1
  O  O31  1  0.55586300  0.42205000  0.99803900  1
  O  O32  1  0.76220800  0.33214000  0.21417900  1
  O  O33  1  0.91379300  0.86066200  0.73219800  1
  O  O34  1  0.99186100  0.62928200  0.40534500  1
  O  O35  1  0.03015800  0.24654400  0.06889500  1
  O  O36  1  0.00003800  0.91912400  0.29599600  1
  O  O37  1  0.40366200  0.55644100  0.30320200  1
  O  O38  1  0.16480800  0.37288500  0.90791000  1
  O  O39  1  0.75584800  0.57110600  0.30453000  1
  O  O40  1  0.32023700  0.54321500  0.89484700  1
  O  O41  1  0.99243200  0.51412600  0.95350000  1
  O  O42  1  0.50443100  0.51581100  0.70517800  1
  O  O43  1  0.77266700  0.09259700  0.26464100  1
  O  O44  1  0.37618000  0.15012400  0.64428900  1
  O  O45  1  0.17154400  0.72750800  0.21391400  1
  O  O46  1  0.45256400  0.78715300  0.14393500  1
  O  O47  1  0.89380300  0.99259300  0.50000900  1
  O  O48  1  0.25429400  0.41454200  0.14615500  1
  O  O49  1  0.94448900  0.08637600  0.85887800  1
  O  O50  1  0.10024200  0.70422500  0.85883300  1
  O  O51  1  0.23751900  0.93220900  0.72777600  1
  O  O52  1  0.77738200  0.22484200  0.00541900  1
  O  O53  1  0.66224200  0.91276600  0.65114600  1
  O  O54  1  0.19727900  0.13465900  0.82484900  1
  O  O55  1  0.92043700  0.71421600  0.12162000  1
  O  O56  1  0.52747500  0.75013000  0.85650500  1
  O  O57  1  0.57607200  0.28012200  0.64803700  1
  O  O58  1  0.37088500  0.39607500  0.49277200  1
  O  O59  1  0.02749000  0.17001800  0.29838300  1
loop_
_geom_bond_atom_site_label_1
_geom_bond_atom_site_label_2
_geom_bond_distance
_geom_bond_site_symmetry_2
Al0 O6 1.723043 1_655
Al0 O5 1.837278 1_555
Al0 O4 1.838132 1_555
Al0 O7 1.915943 1_655
Al0 O23 2.246441 1_555
Al1 O26 1.742035 1_555
Al1 O57 1.750834 1_555
Al1 O18 1.779809 1_555
Al1 O5 1.803050 1_555
Al1 O42 2.353808 1_555
Al2 O14 1.752911 1_555
Al2 O50 1.794631 1_555
Al2 O33 1.814671 1_455
Al2 O13 1.942125 1_555
Al3 O18 1.795715 1_555
Al3 O41 1.868793 1_555
Al3 O4 1.901656 1_555
Al3 O2 1.979975 1_555
Al3 O13 2.047163 1_655
Al4 O27 1.737649 1_555
Al4 O3 1.792195 1_555
Al4 O26 1.794307 1_555
Al4 O39 1.794316 1_555
Al4 O25 2.416558 1_555
Al5 O40 1.792786 1_555
Al5 O50 1.868276 1_555
Al5 O38 1.876302 1_555
Al5 O41 1.991725 1_455
Al5 O13 1.998843 1_555
Al6 O37 1.827238 1_555
Al6 O58 1.854011 1_555
Al6 O0 1.878379 1_555
Al6 O48 1.919205 1_555
Al6 O15 2.279747 1_555
Al7 O54 1.850200 1_555
Al7 O4 1.856998 1_455
Al7 O35 1.913506 1_556
Al7 O49 1.962444 1_455
Al7 O38 1.964345 1_555
Al8 O10 1.818854 1_555
Al8 O38 1.848122 1_555
Al8 O48 1.893840 1_556
Al8 O17 1.940394 1_556
Al8 O40 2.088436 1_555
Al8 O31 2.422921 1_555
Al9 O27 1.738085 1_555
Al9 O33 1.835579 1_555
Al9 O2 1.836598 1_555
Al9 O53 1.850501 1_555
Al10 O37 1.744969 1_555
Al10 O46 1.785897 1_555
Al10 O45 1.819667 1_555
Al10 O28 1.919391 1_555
Al11 O10 1.727877 1_555
Al11 O44 1.818868 1_555
Al11 O24 1.838633 1_555
Al11 O29 2.058998 1_545
Al11 O54 2.420914 1_555
Al12 O12 1.801934 1_555
Al12 O8 1.839199 1_555
Al12 O43 1.885795 1_555
Al12 O15 1.886717 1_555
Al12 O20 2.105358 1_555
Al13 O12 1.765440 1_555
Al13 O23 1.778498 1_555
Al13 O24 1.850352 1_555
Al13 O53 1.948690 1_545
Al13 O57 2.135501 1_555
Al14 O1 1.734735 1_555
Al14 O56 1.759366 1_555
Al14 O42 1.783115 1_555
Al14 O40 1.805628 1_555
Al15 O55 1.706684 1_556
Al15 O2 1.827031 1_555
Al15 O50 1.842566 1_655
Al15 O41 1.873622 1_555
Al16 O44 1.782237 1_555
Al16 O7 1.849175 1_555
Al16 O51 1.868149 1_545
Al16 O11 1.870134 1_555
Al16 O54 1.926402 1_555
Al17 O21 1.696304 1_555
Al17 O36 1.802640 1_555
Al17 O45 1.811081 1_555
Al17 O22 1.982208 1_565
Al18 O21 1.687150 1_556
Al18 O51 1.773624 1_555
Al18 O54 1.809554 1_565
Al18 O29 1.931192 1_555
Al19 O16 1.742796 1_555
Al19 O53 1.788958 1_555
Al19 O3 1.789216 1_555
Al19 O25 2.010741 1_555
Al20 O58 1.777554 1_555
Al20 O57 1.853738 1_555
Al20 O44 1.901168 1_555
Al20 O12 2.013683 1_555
Al20 O15 2.063943 1_555
Al20 O0 2.377237 1_555
Al21 O34 1.812091 1_455
Al21 O19 1.827654 1_555
Al21 O14 1.841723 1_555
Al21 O28 1.876787 1_555
Al21 O45 1.932852 1_555
Al22 O6 1.679804 1_555
Al22 O19 1.756856 1_555
Al22 O34 1.843734 1_455
Al22 O13 1.925735 1_555
Al23 O11 1.764727 1_555
Al23 O59 1.785317 1_555
Al23 O47 1.795461 1_445
Al23 O7 2.022032 1_555
Al23 O36 2.084165 1_545
Al24 O11 1.807934 1_565
Al24 O28 1.834390 1_555
Al24 O16 1.851141 1_555
Al24 O20 1.888716 1_565
Al24 O22 1.892308 1_565
Al25 O33 1.796545 1_545
Al25 O23 1.820734 1_555
Al25 O7 1.852285 1_655
Al25 O47 1.918505 1_545
Al25 O49 1.962429 1_555
Al26 O47 1.758467 1_555
Al26 O43 1.794772 1_565
Al26 O25 1.803140 1_555
Al26 O36 1.813410 1_655
Al27 O31 1.730653 1_554
Al27 O8 1.775912 1_555
Al27 O52 1.786436 1_555
Al27 O32 1.815312 1_555
Al28 O52 1.743493 1_556
Al28 O49 1.800206 1_555
Al28 O23 1.903483 1_555
Al28 O24 1.910551 1_555
Al29 O58 1.867138 1_555
Al29 O19 1.934888 1_555
Al29 O3 2.088854 1_555
Al29 O37 2.091534 1_555
Al29 O1 2.174273 1_555
Al29 O26 2.189050 1_555
Al29 O42 2.215842 1_555
Al30 O32 1.810122 1_555
Al30 O39 1.875000 1_555
Al30 O15 1.885336 1_555
Al30 O26 1.899737 1_555
Al30 O5 1.914842 1_555
Al31 O56 1.713480 1_555
Al31 O30 1.741677 1_556
Al31 O46 1.906502 1_556
Al31 O29 1.973762 1_555
Al32 O30 1.722174 1_555
Al32 O25 1.801318 1_555
Al32 O46 1.832617 1_555
Al32 O20 1.836347 1_565
Al33 O42 1.762760 1_555
Al33 O31 1.797753 1_555
Al33 O10 1.800056 1_555
Al33 O18 1.906505 1_555
Al33 O57 2.268237 1_555
Al34 O0 1.833562 1_555
Al34 O17 1.846130 1_555
Al34 O59 1.869191 1_555
Al34 O22 1.939204 1_555
Al34 O35 2.209570 1_555
Al35 O32 1.834825 1_555
Al35 O59 1.904275 1_655
Al35 O35 1.907283 1_655
Al35 O43 1.939669 1_555
Al35 O52 2.067280 1_555
Al36 O17 1.752906 1_555
Al36 O8 1.811362 1_555
Al36 O20 1.905068 1_555
Al36 O29 1.967008 1_544
Al36 O22 2.114006 1_555
Al37 O9 1.712103 1_455
Al37 O48 1.877107 1_555
Al37 O41 1.881515 1_454
Al37 O35 1.881834 1_555
Al37 O38 2.045808 1_554
Al38 O9 1.728205 1_555
Al38 O55 1.768887 1_555
Al38 O34 1.805380 1_555
Al38 O39 1.807780 1_555
Al39 O1 1.742296 1_555
Al39 O51 1.841493 1_555
Al39 O16 1.851743 1_555
Al39 O14 1.861283 1_555
Al39 O28 2.123681 1_555
Al39 O11 2.404303 1_565
