# generated using pymatgen
data_Pr3(Si3Pd10)2
_symmetry_space_group_name_H-M   'P 1'
_cell_length_a   8.72600808
_cell_length_b   8.72600943
_cell_length_c   8.72601473
_cell_angle_alpha   59.99971905
_cell_angle_beta   59.99996874
_cell_angle_gamma   59.99978113
_symmetry_Int_Tables_number   1
_chemical_formula_structural   Pr3(Si3Pd10)2
_chemical_formula_sum   'Pr3 Si6 Pd20'
_cell_volume   469.81890600
_cell_formula_units_Z   1
loop_
 _symmetry_equiv_pos_site_id
 _symmetry_equiv_pos_as_xyz
  1  'x, y, z'
loop_
 _atom_site_type_symbol
 _atom_site_label
 _atom_site_symmetry_multiplicity
 _atom_site_fract_x
 _atom_site_fract_y
 _atom_site_fract_z
 _atom_site_occupancy
  Pr  Pr0  1  0.25000019  0.25000016  0.25000019  1
  Pr  Pr1  1  0.74999982  0.74999960  0.74999966  1
  Pr  Pr2  1  -0.00000122  0.00000035  0.00000099  1
  Si  Si0  1  0.73293879  0.26706039  0.26706181  1
  Si  Si1  1  0.26706083  0.73293911  0.73293988  1
  Si  Si2  1  0.26705996  0.73293835  0.26706275  1
  Si  Si3  1  0.73293712  0.26706144  0.73294070  1
  Si  Si4  1  0.26705823  0.26705975  0.73294166  1
  Si  Si5  1  0.73294004  0.73294055  0.26705999  1
  Pd  Pd0  1  0.38590084  0.38590177  0.38590144  1
  Pd  Pd1  1  0.61409808  0.61409892  0.61410042  1
  Pd  Pd2  1  0.38590089  0.38590148  0.84229727  1
  Pd  Pd3  1  0.38590150  0.84229640  0.38590119  1
  Pd  Pd4  1  0.61409897  0.61409897  0.15770194  1
  Pd  Pd5  1  0.61409825  0.15770194  0.61410032  1
  Pd  Pd6  1  0.84229652  0.38590218  0.38590031  1
  Pd  Pd7  1  0.15770134  0.61409841  0.61410047  1
  Pd  Pd8  1  0.34749428  -0.00000135  0.00000126  1
  Pd  Pd9  1  0.65250573  0.99999940  0.99999966  1
  Pd  Pd10  1  0.00000854  0.34749824  0.65250147  1
  Pd  Pd11  1  -0.00000008  0.65250570  0.34749398  1
  Pd  Pd12  1  -0.00000074  0.34749414  0.00000085  1
  Pd  Pd13  1  0.65250471  0.00000108  0.34749413  1
  Pd  Pd14  1  0.00000021  0.65250628  0.99999852  1
  Pd  Pd15  1  0.34749397  -0.00000053  0.65250717  1
  Pd  Pd16  1  0.00000069  0.99999924  0.34749457  1
  Pd  Pd17  1  -0.00000087  0.00000061  0.65250651  1
  Pd  Pd18  1  0.65250399  0.34749600  0.00000029  1
  Pd  Pd19  1  0.34749942  0.65250045  -0.00000940  1
loop_
_geom_bond_atom_site_label_1
_geom_bond_atom_site_label_2
_geom_bond_distance
_geom_bond_site_symmetry_2
Pd0 Si2 2.473003 1_555
Pd0 Si0 2.473019 1_555
Pd0 Si4 2.473036 1_555
Pd0 Pr0 2.904793 1_555
Pd1 Si3 2.473010 1_555
Pd1 Si1 2.473014 1_555
Pd1 Si5 2.473037 1_555
Pd1 Pr1 2.904780 1_555
Pd2 Si3 2.473007 1_555
Pd2 Si1 2.473011 1_555
Pd2 Si4 2.473041 1_555
Pd2 Pr0 2.904781 1_556
Pd3 Si5 2.473024 1_555
Pd3 Si1 2.473025 1_555
Pd3 Si2 2.473027 1_555
Pd3 Pr0 2.904779 1_565
Pd4 Si0 2.473018 1_555
Pd4 Si2 2.473026 1_555
Pd4 Si5 2.473046 1_555
Pd4 Pr1 2.904776 1_554
Pd5 Si0 2.473024 1_555
Pd5 Si3 2.473032 1_555
Pd5 Si4 2.473034 1_555
Pd5 Pr1 2.904769 1_545
Pd6 Si5 2.473017 1_555
Pd6 Si0 2.473027 1_555
Pd6 Si3 2.473037 1_555
Pd6 Pr0 2.904786 1_655
Pd7 Si2 2.473018 1_555
Pd7 Si4 2.473019 1_555
Pd7 Si1 2.473038 1_555
Pd7 Pr1 2.904770 1_455
Pd8 Si4 2.433765 1_554
Pd8 Si2 2.433769 1_545
Pd8 Pr2 3.032242 1_555
Pd8 Pr1 3.359887 1_544
Pd8 Pr0 3.359897 1_555
Pd9 Si5 2.433758 1_556
Pd9 Si3 2.433764 1_565
Pd9 Pr2 3.032237 1_666
Pd9 Pr0 3.359890 1_566
Pd9 Pr1 3.359892 1_555
Pd10 Si4 2.433701 1_555
Pd10 Si3 2.433865 1_455
Pd10 Pr2 3.032265 1_556
Pd10 Pr1 3.359867 1_455
Pd10 Pr0 3.359872 1_555
Pd11 Si5 2.433763 1_455
Pd11 Si2 2.433771 1_555
Pd11 Pr2 3.032222 1_565
Pd11 Pr0 3.359880 1_555
Pd11 Pr1 3.359888 1_455
Pd12 Si4 2.433763 1_554
Pd12 Si0 2.433773 1_455
Pd12 Pr2 3.032236 1_555
Pd12 Pr1 3.359873 1_454
Pd12 Pr0 3.359888 1_555
Pd13 Si0 2.433768 1_555
Pd13 Si5 2.433772 1_545
Pd13 Pr2 3.032232 1_655
Pd13 Pr0 3.359868 1_555
Pd13 Pr1 3.359880 1_545
Pd14 Si1 2.433764 1_555
Pd14 Si5 2.433779 1_456
Pd14 Pr2 3.032241 1_566
Pd14 Pr0 3.359879 1_556
Pd14 Pr1 3.359883 1_455
Pd15 Si4 2.433770 1_555
Pd15 Si1 2.433771 1_545
Pd15 Pr2 3.032240 1_556
Pd15 Pr1 3.359872 1_545
Pd15 Pr0 3.359886 1_555
Pd16 Si2 2.433762 1_555
Pd16 Si0 2.433770 1_465
Pd16 Pr2 3.032238 1_565
Pd16 Pr1 3.359882 1_455
Pd16 Pr0 3.359892 1_565
Pd17 Si1 2.433771 1_545
Pd17 Si3 2.433775 1_455
Pd17 Pr2 3.032239 1_556
Pd17 Pr0 3.359887 1_555
Pd17 Pr1 3.359895 1_445
Pd18 Si3 2.433775 1_554
Pd18 Si0 2.433780 1_555
Pd18 Pr2 3.032236 1_655
Pd18 Pr1 3.359871 1_554
Pd18 Pr0 3.359879 1_555
Pd19 Si1 2.433701 1_554
Pd19 Si2 2.433880 1_555
Pd19 Pr2 3.032280 1_565
Pd19 Pr0 3.359860 1_555
Pd19 Pr1 3.359866 1_554
