# generated using pymatgen
data_As2O9
_symmetry_space_group_name_H-M   'P 1'
_cell_length_a   13.95789600
_cell_length_b   7.39482500
_cell_length_c   8.68567119
_cell_angle_alpha   67.06311368
_cell_angle_beta   90.00000000
_cell_angle_gamma   90.00000000
_symmetry_Int_Tables_number   1
_chemical_formula_structural   As2O9
_chemical_formula_sum   'As8 O36'
_cell_volume   825.61976427
_cell_formula_units_Z   4
loop_
 _symmetry_equiv_pos_site_id
 _symmetry_equiv_pos_as_xyz
  1  'x, y, z'
loop_
 _atom_site_type_symbol
 _atom_site_label
 _atom_site_symmetry_multiplicity
 _atom_site_fract_x
 _atom_site_fract_y
 _atom_site_fract_z
 _atom_site_occupancy
  As  As0  1  0.62125300  0.25833800  0.94697600  1
  As  As1  1  0.12125300  0.74166200  0.55302400  1
  As  As2  1  0.37874700  0.74166200  0.05302400  1
  As  As3  1  0.87874700  0.25833800  0.44697600  1
  As  As4  1  0.62730900  0.92801000  0.55737000  1
  As  As5  1  0.12730900  0.07199000  0.94263000  1
  As  As6  1  0.37269100  0.07199000  0.44263000  1
  As  As7  1  0.87269100  0.92801000  0.05737000  1
  O  O0  1  0.49513300  0.74805400  0.02039200  1
  O  O1  1  0.99513300  0.25194600  0.47960800  1
  O  O2  1  0.50486700  0.25194600  0.97960800  1
  O  O3  1  0.00486700  0.74805400  0.52039200  1
  O  O4  1  0.70066100  0.43649900  0.89955400  1
  O  O5  1  0.20066100  0.56350100  0.60044600  1
  O  O6  1  0.29933900  0.56350100  0.10044600  1
  O  O7  1  0.79933900  0.43649900  0.39955400  1
  O  O8  1  0.66903300  0.00773900  0.11457700  1
  O  O9  1  0.16903300  0.99226100  0.38542300  1
  O  O10  1  0.33096700  0.99226100  0.88542300  1
  O  O11  1  0.83096700  0.00773900  0.61457700  1
  O  O12  1  0.63701900  0.17847300  0.74305200  1
  O  O13  1  0.13701900  0.82152700  0.75694800  1
  O  O14  1  0.36298100  0.82152700  0.25694800  1
  O  O15  1  0.86298100  0.17847300  0.24305200  1
  O  O16  1  0.62777100  0.98868800  0.77638900  1
  O  O17  1  0.12777100  0.01131200  0.72361100  1
  O  O18  1  0.37222900  0.01131200  0.22361100  1
  O  O19  1  0.87222900  0.98868800  0.27638900  1
  O  O20  1  0.59641900  0.13847800  0.40721600  1
  O  O21  1  0.09641900  0.86152200  0.09278400  1
  O  O22  1  0.40358100  0.86152200  0.59278400  1
  O  O23  1  0.90358100  0.13847800  0.90721600  1
  O  O24  1  0.60339800  0.57862400  0.51147000  1
  O  O25  1  0.10339800  0.42137600  0.98853000  1
  O  O26  1  0.39660200  0.42137600  0.48853000  1
  O  O27  1  0.89660200  0.57862400  0.01147000  1
  O  O28  1  0.72724800  0.89376600  0.06282700  1
  O  O29  1  0.22724800  0.10623400  0.43717300  1
  O  O30  1  0.27275200  0.10623400  0.93717300  1
  O  O31  1  0.77275200  0.89376600  0.56282700  1
  O  O32  1  0.60762000  0.57629700  0.37138700  1
  O  O33  1  0.10762000  0.42370300  0.12861300  1
  O  O34  1  0.39238000  0.42370300  0.62861300  1
  O  O35  1  0.89238000  0.57629700  0.87138700  1
loop_
_geom_bond_atom_site_label_1
_geom_bond_atom_site_label_2
_geom_bond_distance
_geom_bond_site_symmetry_2
As0 O4 1.646480 1_555
As0 O2 1.646553 1_555
As0 O8 1.973670 1_556
As0 O12 2.085609 1_555
As1 O5 1.646480 1_555
As1 O3 1.646553 1_555
As1 O9 1.973670 1_555
As1 O13 2.085609 1_555
As2 O6 1.646480 1_555
As2 O0 1.646553 1_555
As2 O10 1.973670 1_554
As2 O14 2.085609 1_555
As3 O7 1.646480 1_555
As3 O1 1.646553 1_555
As3 O11 1.973670 1_555
As3 O15 2.085609 1_555
As4 O20 1.651365 1_565
As4 O31 2.044073 1_555
As4 O16 2.117908 1_555
As5 O21 1.651365 1_546
As5 O30 2.044073 1_555
As5 O17 2.117908 1_555
As6 O22 1.651365 1_545
As6 O29 2.044073 1_555
As6 O18 2.117908 1_555
As7 O23 1.651365 1_564
As7 O28 2.044073 1_555
As7 O19 2.117908 1_555
O10 O30 1.366707 1_565
O11 O31 1.366707 1_545
O12 O16 1.324150 1_545
O13 O17 1.324150 1_565
O14 O18 1.324150 1_565
O15 O19 1.324150 1_545
O24 O32 1.224942 1_555
O25 O33 1.224942 1_556
O26 O34 1.224942 1_555
O27 O35 1.224942 1_554
O28 O8 1.366707 1_565
O29 O9 1.366707 1_545
