# generated using pymatgen
data_Ce3Co29(Si2B5)2
_symmetry_space_group_name_H-M   'P 1'
_cell_length_a   11.12365000
_cell_length_b   11.12365000
_cell_length_c   7.80995300
_cell_angle_alpha   90.00000000
_cell_angle_beta   90.00000000
_cell_angle_gamma   90.00000000
_symmetry_Int_Tables_number   1
_chemical_formula_structural   Ce3Co29(Si2B5)2
_chemical_formula_sum   'Ce6 Co58 Si8 B20'
_cell_volume   966.36913704
_cell_formula_units_Z   2
loop_
 _symmetry_equiv_pos_site_id
 _symmetry_equiv_pos_as_xyz
  1  'x, y, z'
loop_
 _atom_site_type_symbol
 _atom_site_label
 _atom_site_symmetry_multiplicity
 _atom_site_fract_x
 _atom_site_fract_y
 _atom_site_fract_z
 _atom_site_occupancy
  Ce  Ce0  1  0.25000000  0.75000000  0.00000000  1
  Ce  Ce1  1  0.25000000  0.25000000  0.00000000  1
  Ce  Ce2  1  0.75000000  0.75000000  0.00000000  1
  Ce  Ce3  1  0.75000000  0.25000000  0.00000000  1
  Ce  Ce4  1  0.00000000  0.00000000  0.50000000  1
  Ce  Ce5  1  0.50000000  0.50000000  0.50000000  1
  Co  Co0  1  0.33822400  0.67437700  0.33638400  1
  Co  Co1  1  0.27339200  0.00000000  0.52479300  1
  Co  Co2  1  0.50000000  0.77339200  0.52479300  1
  Co  Co3  1  0.50000000  0.22660800  0.52479300  1
  Co  Co4  1  0.83588600  0.50000000  0.97348800  1
  Co  Co5  1  0.00000000  0.66411400  0.97348800  1
  Co  Co6  1  0.00000000  0.33588600  0.97348800  1
  Co  Co7  1  0.16411400  0.50000000  0.97348800  1
  Co  Co8  1  0.66411400  0.00000000  0.02651200  1
  Co  Co9  1  0.33588600  0.00000000  0.02651200  1
  Co  Co10  1  0.50000000  0.83588600  0.02651200  1
  Co  Co11  1  0.50000000  0.16411400  0.02651200  1
  Co  Co12  1  0.88457800  0.38457800  0.25072800  1
  Co  Co13  1  0.88457800  0.61542200  0.25072800  1
  Co  Co14  1  0.11542200  0.38457800  0.25072800  1
  Co  Co15  1  0.11542200  0.61542200  0.25072800  1
  Co  Co16  1  0.61542200  0.88457800  0.74927200  1
  Co  Co17  1  0.38457800  0.11542200  0.74927200  1
  Co  Co18  1  0.38457800  0.88457800  0.74927200  1
  Co  Co19  1  0.61542200  0.11542200  0.74927200  1
  Co  Co20  1  0.89018100  0.39018100  0.69929400  1
  Co  Co21  1  0.89018100  0.60981900  0.69929400  1
  Co  Co22  1  0.10981900  0.39018100  0.69929400  1
  Co  Co23  1  0.10981900  0.60981900  0.69929400  1
  Co  Co24  1  0.60981900  0.89018100  0.30070600  1
  Co  Co25  1  0.39018100  0.10981900  0.30070600  1
  Co  Co26  1  0.39018100  0.89018100  0.30070600  1
  Co  Co27  1  0.60981900  0.10981900  0.30070600  1
  Co  Co28  1  0.33822400  0.32562300  0.33638400  1
  Co  Co29  1  0.82562300  0.16177600  0.33638400  1
  Co  Co30  1  0.17437700  0.83822400  0.33638400  1
  Co  Co31  1  0.66177600  0.67437700  0.33638400  1
  Co  Co32  1  0.16177600  0.82562300  0.66361600  1
  Co  Co33  1  0.83822400  0.17437700  0.66361600  1
  Co  Co34  1  0.32562300  0.33822400  0.66361600  1
  Co  Co35  1  0.60969100  0.50000000  0.88925000  1
  Co  Co36  1  0.16177600  0.17437700  0.66361600  1
  Co  Co37  1  0.67437700  0.33822400  0.66361600  1
  Co  Co38  1  0.32562300  0.66177600  0.66361600  1
  Co  Co39  1  0.83822400  0.82562300  0.66361600  1
  Co  Co40  1  0.72660800  0.00000000  0.52479300  1
  Co  Co41  1  0.00000000  0.89030900  0.88925000  1
  Co  Co42  1  0.17437700  0.16177600  0.33638400  1
  Co  Co43  1  0.82562300  0.83822400  0.33638400  1
  Co  Co44  1  0.00000000  0.10969100  0.88925000  1
  Co  Co45  1  0.39030900  0.50000000  0.88925000  1
  Co  Co46  1  0.50000000  0.00000000  0.53103600  1
  Co  Co47  1  0.00000000  0.50000000  0.46896400  1
  Co  Co48  1  0.10969100  0.00000000  0.11075000  1
  Co  Co49  1  0.22660800  0.50000000  0.47520700  1
  Co  Co50  1  0.00000000  0.27339200  0.47520700  1
  Co  Co51  1  0.00000000  0.72660800  0.47520700  1
  Co  Co52  1  0.77339200  0.50000000  0.47520700  1
  Co  Co53  1  0.50000000  0.60969100  0.11075000  1
  Co  Co54  1  0.50000000  0.39030900  0.11075000  1
  Co  Co55  1  0.89030900  0.00000000  0.11075000  1
  Co  Co56  1  0.67437700  0.66177600  0.66361600  1
  Co  Co57  1  0.66177600  0.32562300  0.33638400  1
  Si  Si0  1  0.50000000  0.68086400  0.82440400  1
  Si  Si1  1  0.31913600  0.50000000  0.17559600  1
  Si  Si2  1  0.00000000  0.18086400  0.17559600  1
  Si  Si3  1  0.00000000  0.81913600  0.17559600  1
  Si  Si4  1  0.68086400  0.50000000  0.17559600  1
  Si  Si5  1  0.18086400  0.00000000  0.82440400  1
  Si  Si6  1  0.81913600  0.00000000  0.82440400  1
  Si  Si7  1  0.50000000  0.31913600  0.82440400  1
  B  B0  1  0.68612700  0.18612700  0.51722800  1
  B  B1  1  0.31387300  0.81387300  0.51722800  1
  B  B2  1  0.31387300  0.18612700  0.51722800  1
  B  B3  1  0.68612700  0.81387300  0.51722800  1
  B  B4  1  0.18612700  0.68612700  0.48277200  1
  B  B5  1  0.18612700  0.31387300  0.48277200  1
  B  B6  1  0.50000000  0.25607300  0.26069800  1
  B  B7  1  0.50000000  0.74392700  0.26069800  1
  B  B8  1  0.24392700  0.00000000  0.26069800  1
  B  B9  1  0.75607300  0.00000000  0.26069800  1
  B  B10  1  0.25607300  0.50000000  0.73930200  1
  B  B11  1  0.00000000  0.24392700  0.73930200  1
  B  B12  1  0.00000000  0.75607300  0.73930200  1
  B  B13  1  0.74392700  0.50000000  0.73930200  1
  B  B14  1  0.50000000  0.00000000  0.14768600  1
  B  B15  1  0.00000000  0.50000000  0.85231400  1
  B  B16  1  0.50000000  0.00000000  0.89012700  1
  B  B17  1  0.00000000  0.50000000  0.10987300  1
  B  B18  1  0.81387300  0.68612700  0.48277200  1
  B  B19  1  0.81387300  0.31387300  0.48277200  1
loop_
_geom_bond_atom_site_label_1
_geom_bond_atom_site_label_2
_geom_bond_distance
_geom_bond_site_symmetry_2
Ce0 Co15 2.883826 1_555
Ce0 Co18 2.883826 1_554
Ce0 Co0 2.927900 1_555
Ce0 Co30 2.927900 1_555
Ce0 Co32 2.927900 1_554
Ce0 Co38 2.927900 1_554
Ce0 Co9 2.947723 1_565
Ce0 Co10 2.947723 1_555
Ce0 Co5 2.947723 1_554
Ce0 Co7 2.947723 1_554
Ce0 Si3 3.194626 1_555
Ce0 Si1 3.194626 1_555
Ce0 Si5 3.194626 1_564
Ce0 Si0 3.194626 1_554
Ce1 Co14 2.883826 1_555
Ce1 Co17 2.883826 1_554
Ce1 Co28 2.927900 1_555
Ce1 Co42 2.927900 1_555
Ce1 Co34 2.927900 1_554
Ce1 Co36 2.927900 1_554
Ce1 Co9 2.947723 1_555
Ce1 Co6 2.947723 1_554
Ce1 Co11 2.947723 1_555
Ce1 Co7 2.947723 1_554
Ce1 Si2 3.194626 1_555
Ce1 Si1 3.194626 1_555
Ce1 Si7 3.194626 1_554
Ce1 Si5 3.194626 1_554
Ce2 Co13 2.883826 1_555
Ce2 Co16 2.883826 1_554
Ce2 Co43 2.927900 1_555
Ce2 Co31 2.927900 1_555
Ce2 Co39 2.927900 1_554
Ce2 Co56 2.927900 1_554
Ce2 Co10 2.947723 1_555
Ce2 Co4 2.947723 1_554
Ce2 Co8 2.947723 1_565
Ce2 Co5 2.947723 1_654
Ce2 Si3 3.194626 1_655
Ce2 Si4 3.194626 1_555
Ce2 Si6 3.194626 1_564
Ce2 Si0 3.194626 1_554
Ce3 Co12 2.883826 1_555
Ce3 Co19 2.883826 1_554
Ce3 Co29 2.927900 1_555
Ce3 Co57 2.927900 1_555
Ce3 Co37 2.927900 1_554
Ce3 Co33 2.927900 1_554
Ce3 Co4 2.947723 1_554
Ce3 Co6 2.947723 1_654
Ce3 Co8 2.947723 1_555
Ce3 Co11 2.947723 1_555
Ce3 Si2 3.194626 1_655
Ce3 Si4 3.194626 1_555
Ce3 Si6 3.194626 1_554
Ce3 Si7 3.194626 1_554
Ce4 Co36 2.938311 1_555
Ce4 Co32 2.938311 1_545
Ce4 Co33 2.938311 1_455
Ce4 Co39 2.938311 1_445
Ce4 Co29 2.938311 1_455
Ce4 Co42 2.938311 1_555
Ce4 Co30 2.938311 1_545
Ce4 Co43 2.938311 1_445
Ce4 Co1 3.047275 1_555
Ce4 Co50 3.047275 1_555
Ce4 Co40 3.047275 1_455
Ce4 Co51 3.047275 1_545
Ce4 Si5 3.235219 1_555
Ce4 Si6 3.235219 1_455
Ce4 Si2 3.235219 1_555
Ce4 Si3 3.235219 1_545
Ce5 Co56 2.938311 1_555
Ce5 Co38 2.938311 1_555
Ce5 Co31 2.938311 1_555
Ce5 Co57 2.938311 1_555
Ce5 Co34 2.938311 1_555
Ce5 Co37 2.938311 1_555
Ce5 Co28 2.938311 1_555
Ce5 Co0 2.938311 1_555
Ce5 Co2 3.047275 1_555
Ce5 Co52 3.047275 1_555
Ce5 Co3 3.047275 1_555
Ce5 Co49 3.047275 1_555
Ce5 Si0 3.235219 1_555
Ce5 Si4 3.235219 1_555
Ce5 Si7 3.235219 1_555
Ce5 Si1 3.235219 1_555
Co0 Si1 2.320442 1_555
Co1 Co46 2.521180 1_555
Co1 Si5 2.556308 1_555
Co2 Co46 2.521180 1_565
Co2 Si0 2.556308 1_555
Co3 Co46 2.521180 1_555
Co3 Si7 2.556308 1_555
Co4 Si4 2.337757 1_556
Co5 Si3 2.337757 1_556
Co6 Si2 2.337757 1_556
Co7 Si1 2.337757 1_556
Co8 Si6 2.337757 1_554
Co9 Si5 2.337757 1_554
Co10 Si0 2.337757 1_554
Co11 Si7 2.337757 1_554
Co12 Co47 2.490360 1_655
Co12 Si2 2.669774 1_655
Co12 Si4 2.669774 1_555
Co13 Co47 2.490360 1_655
Co13 Si3 2.669774 1_655
Co13 Si4 2.669774 1_555
Co14 Co47 2.490360 1_555
Co14 Si1 2.669774 1_555
Co14 Si2 2.669774 1_555
Co15 Co47 2.490360 1_555
Co15 Si3 2.669774 1_555
Co15 Si1 2.669774 1_555
Co16 Co46 2.490360 1_565
Co16 Si6 2.669774 1_565
Co16 Si0 2.669774 1_555
Co17 Co46 2.490360 1_555
Co17 Si7 2.669774 1_555
Co17 Si5 2.669774 1_555
Co18 Co46 2.490360 1_565
Co18 Si5 2.669774 1_565
Co18 Si0 2.669774 1_555
Co19 Co46 2.490360 1_555
Co19 Si6 2.669774 1_555
Co19 Si7 2.669774 1_555
Co20 Co47 2.494088 1_655
Co21 Co47 2.494088 1_655
Co22 Co47 2.494088 1_555
Co23 Co47 2.494088 1_555
Co24 Co46 2.494088 1_565
Co25 Co46 2.494088 1_555
Co26 Co46 2.494088 1_565
Co27 Co46 2.494088 1_555
Co28 Si1 2.320442 1_555
Co29 Si2 2.320442 1_655
Co30 Si3 2.320442 1_555
Co31 Si4 2.320442 1_555
Co32 Si5 2.320442 1_565
Co33 Si6 2.320442 1_555
Co34 Si7 2.320442 1_555
Co35 Si4 2.372351 1_556
Co35 Si0 2.406844 1_555
Co35 Si7 2.406844 1_555
Co36 Si5 2.320442 1_555
Co37 Si7 2.320442 1_555
Co38 Si0 2.320442 1_555
Co39 Si6 2.320442 1_565
Co40 Co46 2.521180 1_555
Co40 Si6 2.556308 1_555
Co41 Si3 2.372351 1_556
Co41 Si5 2.406844 1_565
Co41 Si6 2.406844 1_465
Co42 Si2 2.320442 1_555
Co43 Si3 2.320442 1_655
Co44 Si2 2.372351 1_556
Co44 Si5 2.406844 1_555
Co44 Si6 2.406844 1_455
Co45 Si1 2.372351 1_556
Co45 Si0 2.406844 1_555
Co45 Si7 2.406844 1_555
Co47 Co49 2.521180 1_555
Co47 Co51 2.521180 1_555
Co47 Co52 2.521180 1_455
Co47 Co50 2.521180 1_555
Co48 Si5 2.372351 1_554
Co48 Si3 2.406844 1_545
Co48 Si2 2.406844 1_555
Co49 Si1 2.556308 1_555
Co50 Si2 2.556308 1_555
Co51 Si3 2.556308 1_555
Co52 Si4 2.556308 1_555
Co53 Si0 2.372351 1_554
Co53 Si4 2.406844 1_555
Co53 Si1 2.406844 1_555
Co54 Si7 2.372351 1_554
Co54 Si4 2.406844 1_555
Co54 Si1 2.406844 1_555
Co55 Si6 2.372351 1_554
Co55 Si2 2.406844 1_655
Co55 Si3 2.406844 1_645
Co56 Si0 2.320442 1_555
Co57 Si4 2.320442 1_555
B0 B19 2.027537 1_555
B0 Co37 2.046122 1_555
B0 Co33 2.046122 1_555
B0 Co27 2.073782 1_555
B0 Co57 2.115652 1_555
B0 Co29 2.115652 1_555
B0 Co3 2.119637 1_555
B0 Co40 2.119637 1_555
B0 Co19 2.126362 1_555
B1 B4 2.027537 1_555
B1 Co32 2.046122 1_555
B1 Co38 2.046122 1_555
B1 Co26 2.073782 1_555
B1 Co0 2.115652 1_555
B1 Co30 2.115652 1_555
B1 Co2 2.119637 1_555
B1 Co1 2.119637 1_565
B1 Co18 2.126362 1_555
B2 B5 2.027537 1_555
B2 Co34 2.046122 1_555
B2 Co36 2.046122 1_555
B2 Co25 2.073782 1_555
B2 Co28 2.115652 1_555
B2 Co42 2.115652 1_555
B2 Co3 2.119637 1_555
B2 Co1 2.119637 1_555
B2 Co17 2.126362 1_555
B3 Co56 2.046122 1_555
B3 Co39 2.046122 1_555
B3 Co24 2.073782 1_555
B3 Co31 2.115652 1_555
B3 Co43 2.115652 1_555
B3 Co2 2.119637 1_555
B3 Co40 2.119637 1_565
B3 Co16 2.126362 1_555
B4 Co0 2.046122 1_555
B4 Co30 2.046122 1_555
B4 Co23 2.073782 1_555
B4 Co38 2.115652 1_555
B4 Co32 2.115652 1_555
B4 Co49 2.119637 1_555
B4 Co51 2.119637 1_555
B4 Co15 2.126362 1_555
B5 Co28 2.046122 1_555
B5 Co42 2.046122 1_555
B5 Co22 2.073782 1_555
B5 Co34 2.115652 1_555
B5 Co36 2.115652 1_555
B5 Co49 2.119637 1_555
B5 Co50 2.119637 1_555
B5 Co14 2.126362 1_555
B6 Co54 1.897649 1_555
B6 Co57 2.046040 1_555
B6 Co28 2.046040 1_555
B6 Co27 2.058311 1_555
B6 Co25 2.058311 1_555
B6 Co3 2.088449 1_555
B6 Co11 2.095600 1_555
B7 Co53 1.897649 1_555
B7 Co31 2.046040 1_555
B7 Co0 2.046040 1_555
B7 Co26 2.058311 1_555
B7 Co24 2.058311 1_555
B7 Co2 2.088449 1_555
B7 Co10 2.095600 1_555
B8 Co48 1.897649 1_555
B8 Co42 2.046040 1_555
B8 Co30 2.046040 1_545
B8 Co26 2.058311 1_545
B8 Co25 2.058311 1_555
B8 Co1 2.088449 1_555
B8 Co9 2.095600 1_555
B9 Co55 1.897649 1_555
B9 Co29 2.046040 1_555
B9 Co43 2.046040 1_545
B9 Co27 2.058311 1_555
B9 Co24 2.058311 1_545
B9 Co40 2.088449 1_555
B9 Co8 2.095600 1_555
B10 Co45 1.897649 1_555
B10 Co38 2.046040 1_555
B10 Co34 2.046040 1_555
B10 Co22 2.058311 1_555
B10 Co23 2.058311 1_555
B10 Co49 2.088449 1_555
B10 Co7 2.095600 1_555
B11 Co44 1.897649 1_555
B11 Co36 2.046040 1_555
B11 Co33 2.046040 1_455
B11 Co20 2.058311 1_455
B11 Co22 2.058311 1_555
B11 Co50 2.088449 1_555
B11 Co6 2.095600 1_555
B12 Co41 1.897649 1_555
B12 Co32 2.046040 1_555
B12 Co39 2.046040 1_455
B12 Co23 2.058311 1_555
B12 Co21 2.058311 1_455
B12 Co51 2.088449 1_555
B12 Co5 2.095600 1_555
B13 Co35 1.897649 1_555
B13 Co56 2.046040 1_555
B13 Co37 2.046040 1_555
B13 Co20 2.058311 1_555
B13 Co21 2.058311 1_555
B13 Co52 2.088449 1_555
B13 Co4 2.095600 1_555
B14 B16 2.011524 1_554
B14 Co11 2.056265 1_555
B14 Co8 2.056265 1_555
B14 Co9 2.056265 1_555
B14 Co10 2.056265 1_545
B14 Co27 2.100659 1_555
B14 Co26 2.100659 1_545
B14 Co24 2.100659 1_545
B14 Co25 2.100659 1_555
B15 B17 2.011524 1_556
B15 Co7 2.056265 1_555
B15 Co5 2.056265 1_555
B15 Co6 2.056265 1_555
B15 Co4 2.056265 1_455
B15 Co22 2.100659 1_555
B15 Co23 2.100659 1_555
B15 Co21 2.100659 1_455
B15 Co20 2.100659 1_455
B16 Co11 2.113572 1_556
B16 Co8 2.113572 1_556
B16 Co10 2.113572 1_546
B16 Co9 2.113572 1_556
B16 Co16 2.122976 1_545
B16 Co17 2.122976 1_555
B16 Co18 2.122976 1_545
B16 Co19 2.122976 1_555
B17 Co7 2.113572 1_554
B17 Co5 2.113572 1_554
B17 Co6 2.113572 1_554
B17 Co4 2.113572 1_454
B17 Co14 2.122976 1_555
B17 Co12 2.122976 1_455
B17 Co13 2.122976 1_455
B17 Co15 2.122976 1_555
B18 B3 2.027537 1_555
B18 Co31 2.046122 1_555
B18 Co43 2.046122 1_555
B18 Co21 2.073782 1_555
B18 Co56 2.115652 1_555
B18 Co39 2.115652 1_555
B18 Co52 2.119637 1_555
B18 Co51 2.119637 1_655
B18 Co13 2.126362 1_555
B19 Co29 2.046122 1_555
B19 Co57 2.046122 1_555
B19 Co20 2.073782 1_555
B19 Co37 2.115652 1_555
B19 Co33 2.115652 1_555
B19 Co52 2.119637 1_555
B19 Co50 2.119637 1_655
B19 Co12 2.126362 1_555
