# generated using pymatgen
data_Li9Mn7O16
_symmetry_space_group_name_H-M   'P 1'
_cell_length_a   7.84351246
_cell_length_b   7.84351246
_cell_length_c   5.27435390
_cell_angle_alpha   74.57981153
_cell_angle_beta   74.57981153
_cell_angle_gamma   94.54265071
_symmetry_Int_Tables_number   1
_chemical_formula_structural   Li9Mn7O16
_chemical_formula_sum   'Li9 Mn7 O16'
_cell_volume   297.59196658
_cell_formula_units_Z   1
loop_
 _symmetry_equiv_pos_site_id
 _symmetry_equiv_pos_as_xyz
  1  'x, y, z'
loop_
 _atom_site_type_symbol
 _atom_site_label
 _atom_site_symmetry_multiplicity
 _atom_site_fract_x
 _atom_site_fract_y
 _atom_site_fract_z
 _atom_site_occupancy
  Li  Li0  1  0.62034200  0.37965800  0.50000000  1
  Li  Li1  1  0.25837900  0.25837900  0.49152200  1
  Li  Li2  1  0.87384700  0.12615300  0.50000000  1
  Li  Li3  1  0.50000000  0.00000000  0.50000000  1
  Li  Li4  1  0.12615300  0.87384700  0.50000000  1
  Li  Li5  1  0.74162100  0.74162100  0.50847800  1
  Li  Li6  1  0.37965800  0.62034200  0.50000000  1
  Li  Li7  1  0.00000000  0.50000000  0.50000000  1
  Li  Li8  1  0.50000000  0.50000000  0.00000000  1
  Mn  Mn0  1  0.74662200  0.25337800  0.00000000  1
  Mn  Mn1  1  0.25337800  0.74662200  0.00000000  1
  Mn  Mn2  1  0.37903500  0.13002800  0.00486600  1
  Mn  Mn3  1  0.00000000  0.00000000  0.00000000  1
  Mn  Mn4  1  0.62096500  0.86997200  0.99513400  1
  Mn  Mn5  1  0.86997200  0.62096500  0.99513400  1
  Mn  Mn6  1  0.13002800  0.37903500  0.00486600  1
  O  O0  1  0.75669500  0.49254100  0.77338100  1
  O  O1  1  0.36082000  0.36082000  0.76765500  1
  O  O2  1  0.99355400  0.24153600  0.78072600  1
  O  O3  1  0.61377500  0.11260200  0.76830600  1
  O  O4  1  0.24153600  0.99355400  0.78072600  1
  O  O5  1  0.86141600  0.86141600  0.76428700  1
  O  O6  1  0.49254100  0.75669500  0.77338100  1
  O  O7  1  0.11260200  0.61377500  0.76830600  1
  O  O8  1  0.50745900  0.24330500  0.22661900  1
  O  O9  1  0.13858400  0.13858400  0.23571300  1
  O  O10  1  0.75846400  0.00644600  0.21927400  1
  O  O11  1  0.38622500  0.88739800  0.23169400  1
  O  O12  1  0.00644600  0.75846400  0.21927400  1
  O  O13  1  0.63918000  0.63918000  0.23234500  1
  O  O14  1  0.24330500  0.50745900  0.22661900  1
  O  O15  1  0.88739800  0.38622500  0.23169400  1
loop_
_geom_bond_atom_site_label_1
_geom_bond_atom_site_label_2
_geom_bond_distance
_geom_bond_site_symmetry_2
Li0 O13 2.114600 1_555
Li0 O1 2.114600 1_555
Li0 O3 2.181893 1_555
Li0 O15 2.181893 1_555
Li0 O8 2.314267 1_555
Li0 O0 2.314267 1_555
Li1 O14 2.110867 1_555
Li1 O8 2.110867 1_555
Li1 O1 2.134188 1_555
Li1 O9 2.189674 1_555
Li1 O4 2.196179 1_545
Li1 O2 2.196179 1_455
Li2 O15 2.127337 1_555
Li2 O3 2.127337 1_555
Li2 O5 2.149581 1_545
Li2 O9 2.149581 1_655
Li2 O10 2.282595 1_555
Li2 O2 2.282595 1_555
Li3 O6 2.049027 1_545
Li3 O8 2.049027 1_555
Li3 O10 2.156936 1_555
Li3 O4 2.156936 1_545
Li3 O11 2.188703 1_545
Li3 O3 2.188703 1_555
Li4 O11 2.127337 1_555
Li4 O7 2.127337 1_555
Li4 O5 2.149581 1_455
Li4 O9 2.149581 1_565
Li4 O12 2.282595 1_555
Li4 O4 2.282595 1_555
Li5 O6 2.110867 1_555
Li5 O0 2.110867 1_555
Li5 O13 2.134188 1_555
Li5 O5 2.189674 1_555
Li5 O10 2.196179 1_565
Li5 O12 2.196179 1_655
Li6 O13 2.114600 1_555
Li6 O1 2.114600 1_555
Li6 O7 2.181893 1_555
Li6 O11 2.181893 1_555
Li6 O14 2.314267 1_555
Li6 O6 2.314267 1_555
Li7 O14 2.049027 1_555
Li7 O0 2.049027 1_455
Li7 O12 2.156936 1_555
Li7 O2 2.156936 1_455
Li7 O15 2.188703 1_455
Li7 O7 2.188703 1_555
Li8 O14 2.064437 1_555
Li8 O8 2.064437 1_555
Li8 O6 2.064437 1_554
Li8 O0 2.064437 1_554
Li8 O13 2.262588 1_555
Li8 O1 2.262588 1_554
Mn0 O0 1.920354 1_554
Mn0 O8 1.920354 1_555
Mn0 O10 1.997962 1_555
Mn0 O2 1.997962 1_554
Mn0 O3 2.238481 1_554
Mn0 O15 2.238481 1_555
Mn1 O14 1.920354 1_555
Mn1 O6 1.920354 1_554
Mn1 O12 1.997962 1_555
Mn1 O4 1.997962 1_554
Mn1 O11 2.238481 1_555
Mn1 O7 2.238481 1_554
Mn2 O1 1.947884 1_554
Mn2 O3 1.968324 1_554
Mn2 O9 1.971355 1_555
Mn2 O11 1.974404 1_545
Mn2 O8 2.051686 1_555
Mn2 O4 2.207858 1_544
Mn3 O4 1.952000 1_544
Mn3 O10 1.952000 1_455
Mn3 O2 1.952000 1_454
Mn3 O12 1.952000 1_545
Mn3 O9 2.271310 1_555
Mn3 O5 2.271310 1_444
Mn4 O13 1.947884 1_556
Mn4 O11 1.968324 1_556
Mn4 O5 1.971355 1_555
Mn4 O3 1.974404 1_565
Mn4 O6 2.051686 1_555
Mn4 O10 2.207858 1_566
Mn5 O13 1.947884 1_556
Mn5 O15 1.968324 1_556
Mn5 O5 1.971355 1_555
Mn5 O7 1.974404 1_655
Mn5 O0 2.051686 1_555
Mn5 O12 2.207858 1_656
Mn6 O1 1.947884 1_554
Mn6 O7 1.968324 1_554
Mn6 O9 1.971355 1_555
Mn6 O15 1.974404 1_455
Mn6 O14 2.051686 1_555
Mn6 O2 2.207858 1_454
