# generated using pymatgen
data_Li3V3P8O29
_symmetry_space_group_name_H-M   'P 1'
_cell_length_a   9.73366800
_cell_length_b   9.74013341
_cell_length_c   14.12770235
_cell_angle_alpha   90.19271388
_cell_angle_beta   89.91654866
_cell_angle_gamma   119.81633371
_symmetry_Int_Tables_number   1
_chemical_formula_structural   Li3V3P8O29
_chemical_formula_sum   'Li6 V6 P16 O58'
_cell_volume   1162.09579237
_cell_formula_units_Z   2
loop_
 _symmetry_equiv_pos_site_id
 _symmetry_equiv_pos_as_xyz
  1  'x, y, z'
loop_
 _atom_site_type_symbol
 _atom_site_label
 _atom_site_symmetry_multiplicity
 _atom_site_fract_x
 _atom_site_fract_y
 _atom_site_fract_z
 _atom_site_occupancy
  Li  Li0  1  0.76645000  0.09316500  0.44756900  1
  Li  Li1  1  0.76560300  0.66622700  0.93753500  1
  Li  Li2  1  0.90659600  0.67123500  0.44357200  1
  Li  Li3  1  0.67600300  0.91042900  0.05455000  1
  Li  Li4  1  0.05621500  0.03952800  0.99487000  1
  Li  Li5  1  0.03944800  0.02443300  0.50900700  1
  V  V0  1  0.99925800  0.43228600  0.75281800  1
  V  V1  1  0.00178900  0.56351600  0.24396000  1
  V  V2  1  0.43113500  0.43099300  0.25324800  1
  V  V3  1  0.55906800  0.56212600  0.74418100  1
  V  V4  1  0.43206400  0.00073300  0.75154900  1
  V  V5  1  0.55907000  0.00062000  0.25073100  1
  P  P0  1  0.30478600  0.08502600  0.15756400  1
  P  P1  1  0.30458400  0.21932100  0.65722700  1
  P  P2  1  0.77551100  0.08761500  0.66010500  1
  P  P3  1  0.66661800  0.33506300  0.86985600  1
  P  P4  1  0.66943300  0.33610200  0.36878000  1
  P  P5  1  0.91370600  0.22006000  0.15498800  1
  P  P6  1  0.08252700  0.30822000  0.34101100  1
  P  P7  1  0.76907000  0.68324500  0.15774600  1
  P  P8  1  0.22449900  0.30888500  0.84249500  1
  P  P9  1  0.91262800  0.68587100  0.65707500  1
  P  P10  1  0.08502200  0.77845000  0.84010300  1
  P  P11  1  0.32911800  0.66764000  0.63096700  1
  P  P12  1  0.33721900  0.66592900  0.13133500  1
  P  P13  1  0.21853700  0.91270800  0.34294300  1
  P  P14  1  0.68955000  0.77607900  0.34097400  1
  P  P15  1  0.68579600  0.90947600  0.84132300  1
  O  O0  1  0.20861100  0.99181600  0.42957000  1
  O  O1  1  0.34447800  0.08425400  0.66776000  1
  O  O2  1  0.21390900  0.21938500  0.92847400  1
  O  O3  1  0.34325400  0.25911700  0.16992800  1
  O  O4  1  0.46515500  0.08484300  0.17453600  1
  O  O5  1  0.52117200  0.18540300  0.82501500  1
  O  O6  1  0.61807700  0.08765200  0.67455700  1
  O  O7  1  0.76901600  0.98497500  0.93150300  1
  O  O8  1  0.73825500  0.08144500  0.16387900  1
  O  O9  1  0.52003900  0.33330300  0.32515300  1
  O  O10  1  0.46390700  0.37945600  0.67041000  1
  O  O11  1  0.67058800  0.18472500  0.32633100  1
  O  O12  1  0.67227600  0.33951600  0.97480500  1
  O  O13  1  0.67565000  0.33552700  0.47367100  1
  O  O14  1  0.81541400  0.33610500  0.82362500  1
  O  O15  1  0.61557400  0.52523700  0.17524900  1
  O  O16  1  0.66730700  0.48492100  0.82798700  1
  O  O17  1  0.91635000  0.25917100  0.66927400  1
  O  O18  1  0.99894800  0.20271200  0.24811700  1
  O  O19  1  0.99517600  0.21531700  0.42548000  1
  O  O20  1  0.99159900  0.20733200  0.06867400  1
  O  O21  1  0.91324100  0.37998900  0.17122400  1
  O  O22  1  0.81672000  0.48582300  0.32550400  1
  O  O23  1  0.08751500  0.34736500  0.83356200  1
  O  O24  1  0.91241300  0.52937300  0.67239800  1
  O  O25  1  0.73926400  0.65306300  0.66891700  1
  O  O26  1  0.20155500  0.20214800  0.74993600  1
  O  O27  1  0.21340300  0.20639900  0.57122100  1
  O  O28  1  0.78860500  0.78250000  0.42252400  1
  O  O29  1  0.25627200  0.34328200  0.33526300  1
  O  O30  1  0.08347500  0.46686100  0.32492800  1
  O  O31  1  0.91295700  0.65610300  0.16581200  1
  O  O32  1  0.18357000  0.52256500  0.67727000  1
  O  O33  1  0.08317800  0.61954300  0.82934100  1
  O  O34  1  0.99491300  0.78988500  0.92241800  1
  O  O35  1  0.98162800  0.76781400  0.56583000  1
  O  O36  1  0.00732600  0.80088500  0.74364200  1
  O  O37  1  0.08122600  0.73763000  0.33503900  1
  O  O38  1  0.33560600  0.52039500  0.17855800  1
  O  O39  1  0.38298300  0.46546500  0.82642700  1
  O  O40  1  0.18743500  0.66668800  0.17525000  1
  O  O41  1  0.34605900  0.67292200  0.02687000  1
  O  O42  1  0.33447300  0.66949400  0.52644700  1
  O  O43  1  0.33558400  0.81742700  0.67746000  1
  O  O44  1  0.53165800  0.61856100  0.32789900  1
  O  O45  1  0.47816000  0.66443400  0.67653000  1
  O  O46  1  0.25830800  0.91662300  0.83591700  1
  O  O47  1  0.20016700  0.99643600  0.24953000  1
  O  O48  1  0.21786300  0.00747500  0.07046300  1
  O  O49  1  0.37941500  0.91371700  0.32606400  1
  O  O50  1  0.48758600  0.81722400  0.17508800  1
  O  O51  1  0.52887000  0.91006700  0.82651000  1
  O  O52  1  0.65606000  0.73695700  0.83593500  1
  O  O53  1  0.76756300  0.76256600  0.06727900  1
  O  O54  1  0.78900100  0.79968300  0.24377000  1
  O  O55  1  0.65788000  0.91812500  0.33940400  1
  O  O56  1  0.78510700  0.01346400  0.56963300  1
  O  O57  1  0.79482200  0.99644900  0.75027100  1
loop_
_geom_bond_atom_site_label_1
_geom_bond_atom_site_label_2
_geom_bond_distance
_geom_bond_site_symmetry_2
Li0 O56 1.938962 1_555
Li0 O19 1.958546 1_555
Li0 O55 2.134045 1_545
Li0 O11 2.332841 1_555
Li1 O34 1.950685 1_555
Li1 O53 2.052178 1_556
Li1 O52 2.100810 1_555
Li1 O16 2.175992 1_555
Li2 O35 1.926432 1_555
Li2 O28 1.955205 1_555
Li2 O37 2.136473 1_655
Li2 O22 2.285156 1_555
Li3 O7 1.928471 1_554
Li3 O53 2.044359 1_555
Li3 O8 2.123481 1_565
Li3 O50 2.330928 1_555
Li4 O2 1.907273 1_555
Li4 O48 2.051659 1_556
Li4 O20 2.272229 1_456
Li4 O34 2.420420 1_445
Li5 O27 1.946883 1_555
Li5 O0 2.141036 1_545
Li5 O35 2.412880 1_445
Li5 O19 2.418253 1_455
Li5 O56 2.570092 1_455
O0 P13 1.472470 1_555
O1 P1 1.553435 1_555
O1 V4 1.867877 1_555
O2 P8 1.470857 1_555
O3 P0 1.553324 1_555
O3 V2 1.866957 1_555
O4 P0 1.580509 1_555
O4 V5 1.849844 1_555
O5 P3 1.573107 1_555
O5 V4 1.871771 1_555
O6 P2 1.545835 1_555
O6 V4 1.911604 1_555
O7 P15 1.491454 1_555
O8 P5 1.569315 1_555
O8 V5 1.949910 1_555
O9 P4 1.567884 1_555
O9 V2 1.874587 1_555
O10 P1 1.570328 1_555
O10 V3 1.860456 1_555
O11 P4 1.595068 1_555
O11 V5 1.894576 1_555
O12 P3 1.483479 1_555
O13 P4 1.483335 1_555
O14 P3 1.583359 1_555
O14 V0 1.847844 1_555
O15 P7 1.541702 1_555
O15 V2 1.908439 1_555
O16 P3 1.573701 1_555
O16 V3 1.968448 1_555
O17 P2 1.552205 1_555
O17 V0 1.877148 1_555
O18 P5 1.610013 1_555
O18 P6 1.613353 1_655
O19 P6 1.484937 1_655
O20 P5 1.472058 1_555
O21 P5 1.575995 1_555
O21 V1 1.858043 1_655
O22 P4 1.574851 1_555
O22 V1 1.946554 1_655
O23 P8 1.559492 1_555
O23 V0 1.854517 1_455
O24 P9 1.539298 1_555
O24 V0 1.924731 1_555
O25 P9 1.562353 1_555
O25 V3 1.856755 1_555
O26 P1 1.606240 1_555
O26 P8 1.612906 1_555
O27 P1 1.473417 1_555
O28 P14 1.484481 1_555
O29 P6 1.552013 1_555
O29 V2 1.877313 1_555
O30 P6 1.558039 1_555
O30 V1 1.892418 1_555
O31 P7 1.553473 1_555
O31 V1 1.888051 1_655
O32 P11 1.563479 1_555
O32 V0 1.887564 1_455
O33 P10 1.545913 1_555
O33 V0 1.915823 1_455
O34 P10 1.492443 1_655
O35 P9 1.490357 1_555
O36 P9 1.602348 1_455
O36 P10 1.626710 1_555
O37 P13 1.561870 1_555
O37 V1 1.952902 1_555
O38 P12 1.561699 1_555
O38 V2 1.884295 1_555
O39 P8 1.555282 1_555
O39 V3 1.889713 1_555
O40 P12 1.587022 1_555
O40 V1 1.847456 1_555
O41 P12 1.478058 1_555
O42 P11 1.477326 1_555
O43 P11 1.570440 1_555
O43 V4 1.867663 1_565
O44 P14 1.550512 1_555
O44 V2 1.902566 1_555
O45 P11 1.602447 1_555
O45 V3 1.820900 1_555
O46 P10 1.550023 1_555
O46 V4 1.890796 1_565
O47 P13 1.609852 1_555
O47 P0 1.612304 1_565
O48 P0 1.470332 1_555
O49 P13 1.578838 1_555
O49 V5 1.853594 1_565
O50 P12 1.596096 1_555
O50 V5 1.889543 1_565
O51 P15 1.544883 1_555
O51 V4 1.904202 1_565
O52 P15 1.558434 1_555
O52 V3 1.965045 1_555
O53 P7 1.499535 1_555
O54 P7 1.604210 1_555
O54 P14 1.628720 1_555
O55 P14 1.560153 1_555
O55 V5 1.979602 1_565
O56 P2 1.491503 1_555
O57 P15 1.614896 1_555
O57 P2 1.618880 1_565
