# generated using pymatgen
data_Lu(CuSn)2
_symmetry_space_group_name_H-M   'P 1'
_cell_length_a   4.30526500
_cell_length_b   4.30526500
_cell_length_c   10.95814100
_cell_angle_alpha   90.00000000
_cell_angle_beta   90.00000000
_cell_angle_gamma   90.00000000
_symmetry_Int_Tables_number   1
_chemical_formula_structural   Lu(CuSn)2
_chemical_formula_sum   'Lu2 Cu4 Sn4'
_cell_volume   203.11250452
_cell_formula_units_Z   2
loop_
 _symmetry_equiv_pos_site_id
 _symmetry_equiv_pos_as_xyz
  1  'x, y, z'
loop_
 _atom_site_type_symbol
 _atom_site_label
 _atom_site_symmetry_multiplicity
 _atom_site_fract_x
 _atom_site_fract_y
 _atom_site_fract_z
 _atom_site_occupancy
  Lu  Lu0  1  0.00000000  0.50000000  0.23269700  1
  Lu  Lu1  1  0.50000000  0.00000000  0.76730300  1
  Cu  Cu0  1  0.00000000  0.00000000  0.00000000  1
  Cu  Cu1  1  0.50000000  0.50000000  0.00000000  1
  Cu  Cu2  1  0.00000000  0.50000000  0.64189600  1
  Cu  Cu3  1  0.50000000  0.00000000  0.35810400  1
  Sn  Sn0  1  0.00000000  0.00000000  0.50000000  1
  Sn  Sn1  1  0.50000000  0.50000000  0.50000000  1
  Sn  Sn2  1  0.00000000  0.50000000  0.86753600  1
  Sn  Sn3  1  0.50000000  0.00000000  0.13246400  1
loop_
_geom_bond_atom_site_label_1
_geom_bond_atom_site_label_2
_geom_bond_distance
_geom_bond_site_symmetry_2
Lu0 Sn3 3.236366 1_455
Lu0 Sn3 3.236366 1_565
Lu0 Sn3 3.236366 1_465
Lu0 Sn3 3.236366 1_555
Lu0 Sn1 3.635067 1_555
Lu0 Sn0 3.635067 1_565
Lu0 Sn1 3.635067 1_455
Lu0 Sn0 3.635067 1_555
Lu1 Sn2 3.236366 1_655
Lu1 Sn2 3.236366 1_555
Lu1 Sn2 3.236366 1_645
Lu1 Sn2 3.236366 1_545
Lu1 Sn0 3.635067 1_555
Lu1 Sn0 3.635067 1_655
Lu1 Sn1 3.635067 1_555
Lu1 Sn1 3.635067 1_545
Cu0 Sn3 2.596315 1_455
Cu0 Sn3 2.596315 1_555
Cu0 Sn2 2.596315 1_554
Cu0 Sn2 2.596315 1_544
Cu0 Lu0 3.337057 1_555
Cu0 Lu0 3.337057 1_545
Cu0 Lu1 3.337057 1_454
Cu0 Lu1 3.337057 1_554
Cu1 Sn3 2.596315 1_565
Cu1 Sn3 2.596315 1_555
Cu1 Sn2 2.596315 1_654
Cu1 Sn2 2.596315 1_554
Cu1 Lu0 3.337057 1_555
Cu1 Lu0 3.337057 1_655
Cu1 Lu1 3.337057 1_564
Cu1 Lu1 3.337057 1_554
Cu2 Sn2 2.472595 1_555
Cu2 Sn1 2.655483 1_455
Cu2 Sn0 2.655483 1_555
Cu2 Sn1 2.655483 1_555
Cu2 Sn0 2.655483 1_565
Cu2 Lu1 3.340083 1_565
Cu2 Lu1 3.340083 1_455
Cu2 Lu1 3.340083 1_555
Cu2 Lu1 3.340083 1_465
Cu3 Sn3 2.472595 1_555
Cu3 Sn0 2.655483 1_555
Cu3 Sn0 2.655483 1_655
Cu3 Sn1 2.655483 1_555
Cu3 Sn1 2.655483 1_545
Cu3 Lu0 3.340083 1_645
Cu3 Lu0 3.340083 1_555
Cu3 Lu0 3.340083 1_655
Cu3 Lu0 3.340083 1_545
