# generated using pymatgen
data_Na3Mg4CrSi8(O11F)2
_symmetry_space_group_name_H-M   'P 1'
_cell_length_a   10.72090200
_cell_length_b   9.85086647
_cell_length_c   10.26503516
_cell_angle_alpha   61.37555196
_cell_angle_beta   83.74101898
_cell_angle_gamma   76.83593883
_symmetry_Int_Tables_number   1
_chemical_formula_structural   Na3Mg4CrSi8(O11F)2
_chemical_formula_sum   'Na6 Mg8 Cr2 Si16 O44 F4'
_cell_volume   926.58691611
_cell_formula_units_Z   2
loop_
 _symmetry_equiv_pos_site_id
 _symmetry_equiv_pos_as_xyz
  1  'x, y, z'
loop_
 _atom_site_type_symbol
 _atom_site_label
 _atom_site_symmetry_multiplicity
 _atom_site_fract_x
 _atom_site_fract_y
 _atom_site_fract_z
 _atom_site_occupancy
  Na  Na0  1  0.00006700  0.49981100  0.99948700  1
  Na  Na1  1  0.25224300  0.27613800  0.45080800  1
  Na  Na2  1  0.24775700  0.72386200  0.54919200  1
  Na  Na3  1  0.49993300  0.50018900  0.00051300  1
  Na  Na4  1  0.74784600  0.27340600  0.45054700  1
  Na  Na5  1  0.75215400  0.72659400  0.54945300  1
  Mg  Mg0  1  0.99997100  0.99940600  0.00112400  1
  Mg  Mg1  1  0.25198700  0.08925200  0.82074000  1
  Mg  Mg2  1  0.24801300  0.91074800  0.17926000  1
  Mg  Mg3  1  0.50002900  0.00059400  0.99887600  1
  Mg  Mg4  1  0.49993400  0.18072300  0.63899500  1
  Mg  Mg5  1  0.74782600  0.09047400  0.82063800  1
  Mg  Mg6  1  0.75217400  0.90952600  0.17936200  1
  Mg  Mg7  1  0.00006600  0.81927700  0.36100500  1
  Cr  Cr0  1  0.99994900  0.17838700  0.64363900  1
  Cr  Cr1  1  0.50005100  0.82161300  0.35636100  1
  Si  Si0  1  0.10156200  0.11793800  0.34177400  1
  Si  Si1  1  0.10217400  0.45952500  0.65717600  1
  Si  Si2  1  0.14383100  0.63400400  0.16934500  1
  Si  Si3  1  0.14354100  0.80268200  0.82812500  1
  Si  Si4  1  0.35645900  0.19731800  0.17187500  1
  Si  Si5  1  0.35616900  0.36599600  0.83065500  1
  Si  Si6  1  0.39782600  0.54047500  0.34282400  1
  Si  Si7  1  0.39843800  0.88206200  0.65822600  1
  Si  Si8  1  0.60240900  0.11587800  0.34377700  1
  Si  Si9  1  0.60121000  0.45996400  0.65862000  1
  Si  Si10  1  0.64386600  0.63102000  0.17106100  1
  Si  Si11  1  0.64375700  0.80412700  0.82981700  1
  Si  Si12  1  0.85624300  0.19587300  0.17018300  1
  Si  Si13  1  0.85613400  0.36898000  0.82893900  1
  Si  Si14  1  0.89879000  0.54003600  0.34138000  1
  Si  Si15  1  0.89759100  0.88412200  0.65622300  1
  O  O0  1  0.03571900  0.52421700  0.24910500  1
  O  O1  1  0.09801600  0.11646100  0.50021500  1
  O  O2  1  0.03461300  0.77511300  0.74849800  1
  O  O3  1  0.10121500  0.60863100  0.49901000  1
  O  O4  1  0.13199100  0.28375400  0.66595200  1
  O  O5  1  0.10682300  0.80403200  0.16656100  1
  O  O6  1  0.14851200  0.65591700  0.99863000  1
  O  O7  1  0.21499500  0.22193600  0.24409700  1
  O  O8  1  0.13674800  0.95246800  0.33551600  1
  O  O9  1  0.10411900  0.97472000  0.82583400  1
  O  O10  1  0.21394000  0.46043500  0.75957800  1
  O  O11  1  0.28606000  0.53956500  0.24042200  1
  O  O12  1  0.35148800  0.34408300  0.00137000  1
  O  O13  1  0.39588100  0.02528000  0.17416600  1
  O  O14  1  0.36325200  0.04753200  0.66448400  1
  O  O15  1  0.28500500  0.77806400  0.75590300  1
  O  O16  1  0.39317700  0.19596800  0.83343900  1
  O  O17  1  0.36800900  0.71624600  0.33404800  1
  O  O18  1  0.39878500  0.39136900  0.50099000  1
  O  O19  1  0.46538700  0.22488700  0.25150200  1
  O  O20  1  0.40198400  0.88353900  0.49978500  1
  O  O21  1  0.46428100  0.47578300  0.75089500  1
  O  O22  1  0.53458400  0.52432200  0.25003700  1
  O  O23  1  0.60179700  0.10717700  0.50187000  1
  O  O24  1  0.53554200  0.77411500  0.75003800  1
  O  O25  1  0.59742200  0.61655100  0.50024500  1
  O  O26  1  0.63664800  0.28838700  0.66463100  1
  O  O27  1  0.60446600  0.80042100  0.17390900  1
  O  O28  1  0.64903500  0.65507900  0.00037800  1
  O  O29  1  0.71405700  0.21912100  0.24135900  1
  O  O30  1  0.63207800  0.94900300  0.33466300  1
  O  O31  1  0.60670400  0.97107300  0.83328000  1
  O  O32  1  0.71498400  0.46631100  0.75600300  1
  O  O33  1  0.78501600  0.53368900  0.24399700  1
  O  O34  1  0.85096500  0.34492100  0.99962200  1
  O  O35  1  0.89329600  0.02892700  0.16672000  1
  O  O36  1  0.86792200  0.05099700  0.66533700  1
  O  O37  1  0.78594300  0.78087900  0.75864100  1
  O  O38  1  0.89553400  0.19957900  0.82609100  1
  O  O39  1  0.86335200  0.71161300  0.33536900  1
  O  O40  1  0.90257800  0.38344900  0.49975500  1
  O  O41  1  0.96445800  0.22588500  0.24996200  1
  O  O42  1  0.89820300  0.89282300  0.49813000  1
  O  O43  1  0.96541600  0.47567800  0.74996300  1
  F  F0  1  0.14715300  0.10255700  0.99919100  1
  F  F1  1  0.35284700  0.89744300  0.00080900  1
  F  F2  1  0.64713000  0.10151900  0.00149300  1
  F  F3  1  0.85287000  0.89848100  0.99850700  1
loop_
_geom_bond_atom_site_label_1
_geom_bond_atom_site_label_2
_geom_bond_distance
_geom_bond_site_symmetry_2
Na0 O34 2.447796 1_455
Na0 O6 2.448733 1_555
Na0 O43 2.754319 1_455
Na0 O0 2.759551 1_556
Na0 O41 2.765063 1_456
Na0 O2 2.772118 1_555
Na1 O18 2.360314 1_555
Na1 O1 2.388040 1_555
Na1 O14 2.431975 1_555
Na1 O4 2.457412 1_555
Na1 O7 2.512846 1_555
Na1 O11 2.533296 1_555
Na2 O3 2.360314 1_555
Na2 O20 2.388040 1_555
Na2 O8 2.431975 1_555
Na2 O17 2.457412 1_555
Na2 O15 2.512846 1_555
Na2 O10 2.533296 1_555
Na3 O28 2.447796 1_555
Na3 O12 2.448733 1_555
Na3 O22 2.754319 1_555
Na3 O21 2.759551 1_554
Na3 O24 2.765063 1_554
Na3 O19 2.772118 1_555
Na4 O23 2.360511 1_555
Na4 O40 2.389245 1_555
Na4 O26 2.435508 1_555
Na4 O36 2.454481 1_555
Na4 O33 2.510144 1_555
Na4 O29 2.527100 1_555
Na5 O42 2.360511 1_555
Na5 O25 2.389245 1_555
Na5 O39 2.435508 1_555
Na5 O30 2.454481 1_555
Na5 O32 2.510144 1_555
Na5 O37 2.527100 1_555
Mg0 O35 2.044567 1_565
Mg0 O5 2.046641 1_655
Mg0 O9 2.097863 1_654
Mg0 O38 2.099662 1_564
Mg1 O14 2.038545 1_555
Mg1 O4 2.063203 1_555
Mg1 O16 2.076645 1_555
Mg1 O9 2.128104 1_545
Mg2 O8 2.038545 1_555
Mg2 O17 2.063203 1_555
Mg2 O5 2.076645 1_555
Mg2 O13 2.128104 1_565
Mg3 O31 2.044567 1_545
Mg3 O16 2.046641 1_555
Mg3 O13 2.097863 1_556
Mg3 O27 2.099662 1_546
Mg4 O23 1.995083 1_555
Mg4 O18 1.995529 1_555
Mg4 O14 2.097709 1_555
Mg4 O26 2.098073 1_555
Mg4 O16 2.242145 1_555
Mg4 O31 2.242215 1_545
Mg5 O26 2.037781 1_555
Mg5 O36 2.066093 1_555
Mg5 O31 2.076251 1_545
Mg5 O38 2.125592 1_555
Mg6 O39 2.037781 1_555
Mg6 O30 2.066093 1_555
Mg6 O35 2.076251 1_565
Mg6 O27 2.125592 1_555
Mg7 O42 1.995083 1_455
Mg7 O3 1.995529 1_555
Mg7 O8 2.097709 1_555
Mg7 O39 2.098073 1_455
Mg7 O5 2.242145 1_555
Mg7 O35 2.242215 1_465
Cr0 O40 1.966931 1_555
Cr0 O1 1.968732 1_655
Cr0 O36 2.024940 1_555
Cr0 O4 2.025217 1_655
Cr0 O9 2.147082 1_645
Cr0 O38 2.148344 1_555
Cr1 O25 1.966931 1_555
Cr1 O20 1.968732 1_555
Cr1 O30 2.024940 1_555
Cr1 O17 2.025217 1_555
Cr1 O13 2.147082 1_565
Cr1 O27 2.148344 1_555
O0 Si2 1.642872 1_555
O0 Si14 1.676469 1_455
O1 Si0 1.615840 1_555
O2 Si3 1.634290 1_555
O2 Si15 1.678873 1_455
O3 Si1 1.582849 1_555
O4 Si1 1.647149 1_555
O5 Si2 1.617877 1_555
O6 Si3 1.648382 1_555
O6 Si2 1.656299 1_556
O7 Si4 1.633445 1_555
O7 Si0 1.688543 1_555
O8 Si0 1.618139 1_565
O9 Si3 1.639818 1_555
O10 Si5 1.633707 1_555
O10 Si1 1.682063 1_555
O11 Si2 1.633707 1_555
O11 Si6 1.682063 1_555
O12 Si4 1.648382 1_555
O12 Si5 1.656299 1_554
O13 Si4 1.639818 1_555
O14 Si7 1.618139 1_545
O15 Si3 1.633445 1_555
O15 Si7 1.688543 1_555
O16 Si5 1.617877 1_555
O17 Si6 1.647149 1_555
O18 Si6 1.582849 1_555
O19 Si4 1.634290 1_555
O19 Si8 1.678873 1_555
O20 Si7 1.615840 1_555
O21 Si5 1.642872 1_555
O21 Si9 1.676469 1_555
O22 Si10 1.634622 1_555
O22 Si6 1.678276 1_555
O23 Si8 1.582918 1_555
O24 Si11 1.642986 1_555
O24 Si7 1.676135 1_555
O25 Si9 1.614663 1_555
O26 Si9 1.617891 1_555
O27 Si10 1.639202 1_555
O28 Si10 1.648009 1_555
O28 Si11 1.656824 1_554
O29 Si12 1.633525 1_555
O29 Si8 1.681665 1_555
O30 Si8 1.647701 1_565
O31 Si11 1.618340 1_555
O32 Si13 1.633450 1_555
O32 Si9 1.688636 1_555
O33 Si10 1.633450 1_555
O33 Si14 1.688636 1_555
O34 Si13 1.648009 1_555
O34 Si12 1.656824 1_556
O35 Si12 1.618340 1_555
O36 Si15 1.647701 1_545
O37 Si11 1.633525 1_555
O37 Si15 1.681665 1_555
O38 Si13 1.639202 1_555
O39 Si14 1.617891 1_555
O40 Si14 1.614663 1_555
O41 Si12 1.642986 1_555
O41 Si0 1.676135 1_655
O42 Si15 1.582918 1_555
O43 Si13 1.634622 1_555
O43 Si1 1.678276 1_655
F0 Mg0 2.055945 1_446
F0 Mg2 2.077234 1_546
F0 Mg1 2.085643 1_555
F1 Mg3 2.055945 1_564
F1 Mg1 2.077234 1_564
F1 Mg2 2.085643 1_555
F2 Mg3 2.055537 1_554
F2 Mg5 2.080104 1_554
F2 Mg6 2.085308 1_545
F3 Mg0 2.055537 1_556
F3 Mg6 2.080104 1_556
F3 Mg5 2.085308 1_565
