# generated using pymatgen
data_Sr3Ca5Mn4(FeO6)4
_symmetry_space_group_name_H-M   'P 1'
_cell_length_a   7.72762790
_cell_length_b   7.72762790
_cell_length_c   7.72257776
_cell_angle_alpha   89.98204423
_cell_angle_beta   89.98204423
_cell_angle_gamma   89.97925957
_symmetry_Int_Tables_number   1
_chemical_formula_structural   Sr3Ca5Mn4(FeO6)4
_chemical_formula_sum   'Sr3 Ca5 Mn4 Fe4 O24'
_cell_volume   461.16317679
_cell_formula_units_Z   1
loop_
 _symmetry_equiv_pos_site_id
 _symmetry_equiv_pos_as_xyz
  1  'x, y, z'
loop_
 _atom_site_type_symbol
 _atom_site_label
 _atom_site_symmetry_multiplicity
 _atom_site_fract_x
 _atom_site_fract_y
 _atom_site_fract_z
 _atom_site_occupancy
  Sr  Sr0  1  0.25055700  0.74951400  0.74932400  1
  Sr  Sr1  1  0.25047100  0.25047100  0.74936200  1
  Sr  Sr2  1  0.74951400  0.25055700  0.74932400  1
  Ca  Ca0  1  0.25086300  0.74912400  0.25087900  1
  Ca  Ca1  1  0.25092500  0.25092500  0.25086800  1
  Ca  Ca2  1  0.74916200  0.74916200  0.74905800  1
  Ca  Ca3  1  0.74910300  0.74910300  0.25094000  1
  Ca  Ca4  1  0.74912400  0.25086300  0.25087900  1
  Mn  Mn0  1  0.99913500  0.50072000  0.49801000  1
  Mn  Mn1  1  0.50074500  0.50074500  0.00258000  1
  Mn  Mn2  1  0.50072000  0.99913500  0.49801000  1
  Mn  Mn3  1  0.50067400  0.50067400  0.49790800  1
  Fe  Fe0  1  0.99921600  0.99921600  0.00237000  1
  Fe  Fe1  1  0.99923300  0.50077700  0.00233800  1
  Fe  Fe2  1  0.99918100  0.99918100  0.49771700  1
  Fe  Fe3  1  0.50077700  0.99923300  0.00233800  1
  O  O0  1  0.24614900  0.99926900  0.00641800  1
  O  O1  1  0.25323300  0.50038300  0.00669500  1
  O  O2  1  0.25254500  0.99944300  0.49299500  1
  O  O3  1  0.25092100  0.50041900  0.49284300  1
  O  O4  1  0.75374400  0.99722200  0.00424000  1
  O  O5  1  0.74678500  0.50322800  0.00420400  1
  O  O6  1  0.74748600  0.99701400  0.49590100  1
  O  O7  1  0.74912900  0.50329400  0.49576000  1
  O  O8  1  0.99709000  0.99709000  0.75388900  1
  O  O9  1  0.99688400  0.50335800  0.74648200  1
  O  O10  1  0.99922300  0.99922300  0.24644000  1
  O  O11  1  0.99936900  0.50049400  0.25344400  1
  O  O12  1  0.50335800  0.99688400  0.74648200  1
  O  O13  1  0.50343700  0.50343700  0.74891000  1
  O  O14  1  0.50049400  0.99936900  0.25344400  1
  O  O15  1  0.50047900  0.50047900  0.25089200  1
  O  O16  1  0.99722200  0.75374400  0.00424000  1
  O  O17  1  0.99926900  0.24614900  0.00641800  1
  O  O18  1  0.99701400  0.74748600  0.49590100  1
  O  O19  1  0.99944300  0.25254500  0.49299500  1
  O  O20  1  0.50322800  0.74678500  0.00420400  1
  O  O21  1  0.50038300  0.25323300  0.00669500  1
  O  O22  1  0.50329400  0.74912900  0.49576000  1
  O  O23  1  0.50041900  0.25092100  0.49284300  1
loop_
_geom_bond_atom_site_label_1
_geom_bond_atom_site_label_2
_geom_bond_distance
_geom_bond_site_symmetry_2
Ca0 O3 2.680123 1_555
Ca0 O2 2.690774 1_555
Ca0 O1 2.693196 1_555
Ca0 O0 2.701791 1_555
Ca0 O22 2.717319 1_555
Ca0 O15 2.722139 1_555
Ca0 O18 2.725130 1_455
Ca0 O20 2.725822 1_555
Ca0 O14 2.732028 1_555
Ca0 O11 2.733409 1_455
Ca0 O16 2.733703 1_455
Ca0 O10 2.741362 1_455
Ca1 O23 2.685398 1_555
Ca1 O3 2.685398 1_555
Ca1 O1 2.696257 1_555
Ca1 O21 2.696257 1_555
Ca1 O19 2.696450 1_455
Ca1 O2 2.696450 1_545
Ca1 O0 2.710971 1_545
Ca1 O17 2.710971 1_455
Ca1 O15 2.727749 1_555
Ca1 O11 2.737874 1_455
Ca1 O14 2.737874 1_545
Ca1 O10 2.751455 1_445
Ca2 O13 2.685896 1_555
Ca2 O12 2.696359 1_555
Ca2 O9 2.696359 1_555
Ca2 O8 2.710249 1_555
Ca2 O7 2.727383 1_555
Ca2 O22 2.727383 1_555
Ca2 O6 2.736484 1_555
Ca2 O18 2.736484 1_555
Ca2 O5 2.737199 1_556
Ca2 O20 2.737199 1_556
Ca2 O4 2.749871 1_556
Ca2 O16 2.749871 1_556
Ca3 O22 2.679637 1_555
Ca3 O7 2.679637 1_555
Ca3 O20 2.691365 1_555
Ca3 O5 2.691365 1_555
Ca3 O18 2.692804 1_555
Ca3 O6 2.692804 1_555
Ca3 O16 2.702767 1_555
Ca3 O4 2.702767 1_555
Ca3 O15 2.717583 1_555
Ca3 O14 2.725572 1_555
Ca3 O11 2.725572 1_555
Ca3 O10 2.734141 1_555
Ca4 O23 2.680123 1_555
Ca4 O19 2.690774 1_555
Ca4 O21 2.693196 1_555
Ca4 O17 2.701791 1_555
Ca4 O7 2.717319 1_555
Ca4 O15 2.722139 1_555
Ca4 O6 2.725130 1_545
Ca4 O5 2.725822 1_555
Ca4 O11 2.732028 1_555
Ca4 O14 2.733409 1_545
Ca4 O4 2.733703 1_545
Ca4 O10 2.741362 1_545
Mn0 O11 1.888682 1_555
Mn0 O18 1.907045 1_555
Mn0 O19 1.918208 1_555
Mn0 O9 1.919032 1_555
Mn0 O7 1.932132 1_555
Mn0 O3 1.946106 1_655
Mn1 O20 1.901455 1_555
Mn1 O5 1.901455 1_555
Mn1 O1 1.912938 1_555
Mn1 O21 1.912938 1_555
Mn1 O15 1.917610 1_555
Mn1 O13 1.959194 1_554
Mn2 O14 1.888682 1_555
Mn2 O6 1.907045 1_555
Mn2 O2 1.918208 1_555
Mn2 O12 1.919032 1_555
Mn2 O22 1.932132 1_555
Mn2 O23 1.946106 1_565
Mn3 O15 1.907602 1_555
Mn3 O7 1.920148 1_555
Mn3 O22 1.920148 1_555
Mn3 O3 1.930409 1_555
Mn3 O23 1.930409 1_555
Mn3 O13 1.938631 1_555
Fe0 O10 1.884850 1_555
Fe0 O16 1.897035 1_555
Fe0 O4 1.897035 1_555
Fe0 O17 1.908472 1_565
Fe0 O0 1.908472 1_655
Fe0 O8 1.919065 1_554
Fe1 O11 1.939187 1_555
Fe1 O5 1.950958 1_555
Fe1 O16 1.954951 1_555
Fe1 O1 1.963118 1_655
Fe1 O17 1.967913 1_555
Fe1 O9 1.976051 1_554
Fe2 O10 1.940506 1_555
Fe2 O6 1.945138 1_555
Fe2 O18 1.945138 1_555
Fe2 O2 1.958233 1_655
Fe2 O19 1.958233 1_565
Fe2 O8 1.978430 1_555
Fe3 O14 1.939187 1_555
Fe3 O20 1.950958 1_555
Fe3 O4 1.954951 1_555
Fe3 O21 1.963118 1_565
Fe3 O0 1.967913 1_555
Fe3 O12 1.976051 1_554
O0 Sr0 2.769540 1_554
O0 Sr1 2.776276 1_564
O1 Sr0 2.766733 1_554
O1 Sr1 2.771608 1_554
O2 Sr0 2.765229 1_555
O2 Sr1 2.772239 1_565
O3 Sr0 2.762396 1_555
O3 Sr1 2.766340 1_555
O4 Sr2 2.776071 1_564
O5 Sr2 2.773006 1_554
O6 Sr2 2.769774 1_565
O7 Sr2 2.765224 1_555
O8 Sr0 2.737749 1_655
O8 Sr2 2.737749 1_565
O8 Sr1 2.769785 1_665
O9 Sr0 2.732096 1_655
O9 Sr2 2.733797 1_555
O9 Sr1 2.767096 1_655
O12 Sr2 2.732096 1_565
O12 Sr0 2.733797 1_555
O12 Sr1 2.767096 1_565
O13 Sr2 2.726192 1_555
O13 Sr0 2.726192 1_555
O13 Sr1 2.765044 1_555
O16 Sr0 2.776071 1_654
O17 Sr2 2.769540 1_554
O17 Sr1 2.776276 1_654
O18 Sr0 2.769774 1_655
O19 Sr2 2.765229 1_555
O19 Sr1 2.772239 1_655
O20 Sr0 2.773006 1_554
O21 Sr2 2.766733 1_554
O21 Sr1 2.771608 1_554
O22 Sr0 2.765224 1_555
O23 Sr2 2.762396 1_555
O23 Sr1 2.766340 1_555
