# generated using pymatgen
data_CeAlNi4
_symmetry_space_group_name_H-M   'P 1'
_cell_length_a   5.11461790
_cell_length_b   5.11461790
_cell_length_c   3.89971200
_cell_angle_alpha   90.00000000
_cell_angle_beta   90.00000000
_cell_angle_gamma   119.99999867
_symmetry_Int_Tables_number   1
_chemical_formula_structural   CeAlNi4
_chemical_formula_sum   'Ce1 Al1 Ni4'
_cell_volume   88.34654303
_cell_formula_units_Z   1
loop_
 _symmetry_equiv_pos_site_id
 _symmetry_equiv_pos_as_xyz
  1  'x, y, z'
loop_
 _atom_site_type_symbol
 _atom_site_label
 _atom_site_symmetry_multiplicity
 _atom_site_fract_x
 _atom_site_fract_y
 _atom_site_fract_z
 _atom_site_occupancy
  Ce  Ce0  1  0.66666700  0.33333300  0.00000000  1
  Al  Al0  1  0.00000000  0.00000000  0.00000000  1
  Ni  Ni0  1  0.33333300  0.66666700  0.00000000  1
  Ni  Ni1  1  0.66239100  0.83119600  0.50000000  1
  Ni  Ni2  1  0.16880400  0.83119600  0.50000000  1
  Ni  Ni3  1  0.16880400  0.33760900  0.50000000  1
loop_
_geom_bond_atom_site_label_1
_geom_bond_atom_site_label_2
_geom_bond_distance
_geom_bond_site_symmetry_2
Ce0 Ni0 2.952923 1_545
Ce0 Ni0 2.952923 1_655
Ce0 Ni0 2.952932 1_555
Ce0 Ni1 3.215914 1_545
Ce0 Ni1 3.215914 1_544
Ce0 Ni3 3.215914 1_655
Ce0 Ni3 3.215914 1_654
Ce0 Ni2 3.215918 1_654
Ce0 Ni2 3.215918 1_655
Ce0 Ni2 3.215918 1_545
Ce0 Ni2 3.215918 1_544
Ce0 Ni3 3.215922 1_554
Ce0 Ni3 3.215922 1_555
Ce0 Ni1 3.215922 1_554
Ce0 Ni1 3.215922 1_555
Al0 Ni2 2.457265 1_545
Al0 Ni2 2.457265 1_544
Al0 Ni3 2.457268 1_555
Al0 Ni3 2.457268 1_554
Al0 Ni1 2.457268 1_444
Al0 Ni1 2.457268 1_445
Al0 Ce0 2.952923 1_455
Al0 Ni0 2.952923 1_545
Al0 Ni0 2.952928 1_555
Al0 Ce0 2.952928 1_445
Al0 Ni0 2.952928 1_445
Al0 Ce0 2.952928 1_555
Ni0 Ni2 2.434403 1_555
Ni0 Ni2 2.434403 1_554
Ni0 Ni3 2.434403 1_555
Ni0 Ni1 2.434403 1_555
Ni0 Ni3 2.434403 1_554
Ni0 Ni1 2.434403 1_554
Ni1 Ni2 2.524509 1_555
Ni1 Ni3 2.524509 1_555
Ni1 Ni2 2.590109 1_655
Ni1 Ni3 2.590109 1_665
Ni2 Ni3 2.524509 1_555
Ni2 Ni3 2.590109 1_565
