# generated using pymatgen
data_KNa2Si12(BO10)3
_symmetry_space_group_name_H-M   'P 1'
_cell_length_a   10.37433691
_cell_length_b   10.37433691
_cell_length_c   13.68720000
_cell_angle_alpha   90.00000000
_cell_angle_beta   90.00000000
_cell_angle_gamma   119.99999307
_symmetry_Int_Tables_number   1
_chemical_formula_structural   KNa2Si12(BO10)3
_chemical_formula_sum   'K2 Na4 Si24 B6 O60'
_cell_volume   1275.75115752
_cell_formula_units_Z   2
loop_
 _symmetry_equiv_pos_site_id
 _symmetry_equiv_pos_as_xyz
  1  'x, y, z'
loop_
 _atom_site_type_symbol
 _atom_site_label
 _atom_site_symmetry_multiplicity
 _atom_site_fract_x
 _atom_site_fract_y
 _atom_site_fract_z
 _atom_site_occupancy
  K  K0  1  0.00000000  0.00000000  0.75000000  1
  K  K1  1  0.00000000  0.00000000  0.25000000  1
  Na  Na0  1  0.66666700  0.33333300  0.25000000  1
  Na  Na1  1  0.66666700  0.33333300  0.75000000  1
  Na  Na2  1  0.33333300  0.66666700  0.75000000  1
  Na  Na3  1  0.33333300  0.66666700  0.25000000  1
  Si  Si0  1  0.26920900  0.33781200  0.38703900  1
  Si  Si1  1  0.06860300  0.73079100  0.61296100  1
  Si  Si2  1  0.26920900  0.33781200  0.61296100  1
  Si  Si3  1  0.73079100  0.06860300  0.88703900  1
  Si  Si4  1  0.33781200  0.26920900  0.88703900  1
  Si  Si5  1  0.66218800  0.73079100  0.88703900  1
  Si  Si6  1  0.26920900  0.93139700  0.88703900  1
  Si  Si7  1  0.93139700  0.66218800  0.88703900  1
  Si  Si8  1  0.06860300  0.73079100  0.38703900  1
  Si  Si9  1  0.06860300  0.33781200  0.88703900  1
  Si  Si10  1  0.66218800  0.93139700  0.38703900  1
  Si  Si11  1  0.66218800  0.93139700  0.61296100  1
  Si  Si12  1  0.93139700  0.66218800  0.11296100  1
  Si  Si13  1  0.93139700  0.26920900  0.38703900  1
  Si  Si14  1  0.73079100  0.66218800  0.38703900  1
  Si  Si15  1  0.26920900  0.93139700  0.11296100  1
  Si  Si16  1  0.66218800  0.73079100  0.11296100  1
  Si  Si17  1  0.33781200  0.26920900  0.11296100  1
  Si  Si18  1  0.73079100  0.06860300  0.11296100  1
  Si  Si19  1  0.06860300  0.33781200  0.11296100  1
  Si  Si20  1  0.33781200  0.06860300  0.61296100  1
  Si  Si21  1  0.73079100  0.66218800  0.61296100  1
  Si  Si22  1  0.93139700  0.26920900  0.61296100  1
  Si  Si23  1  0.33781200  0.06860300  0.38703900  1
  B  B0  1  0.00000000  0.50000000  0.25000000  1
  B  B1  1  0.50000000  0.50000000  0.75000000  1
  B  B2  1  0.50000000  0.00000000  0.75000000  1
  B  B3  1  0.00000000  0.50000000  0.75000000  1
  B  B4  1  0.50000000  0.50000000  0.25000000  1
  B  B5  1  0.50000000  0.00000000  0.25000000  1
  O  O0  1  0.18903200  0.28222500  0.13207200  1
  O  O1  1  0.09977300  0.62896300  0.68781700  1
  O  O2  1  0.09977300  0.47081100  0.81218300  1
  O  O3  1  0.52918900  0.90022700  0.68781700  1
  O  O4  1  0.47081100  0.09977300  0.68781700  1
  O  O5  1  0.62896300  0.52918900  0.68781700  1
  O  O6  1  0.37103700  0.47081100  0.68781700  1
  O  O7  1  0.62896300  0.09977300  0.81218300  1
  O  O8  1  0.47081100  0.37103700  0.81218300  1
  O  O9  1  0.52918900  0.62896300  0.81218300  1
  O  O10  1  0.37103700  0.90022700  0.81218300  1
  O  O11  1  0.90022700  0.52918900  0.81218300  1
  O  O12  1  0.09977300  0.62896300  0.31218300  1
  O  O13  1  0.37103700  0.47081100  0.31218300  1
  O  O14  1  0.52918900  0.90022700  0.31218300  1
  O  O15  1  0.47081100  0.09977300  0.31218300  1
  O  O16  1  0.90022700  0.52918900  0.18781700  1
  O  O17  1  0.90022700  0.37103700  0.31218300  1
  O  O18  1  0.62896300  0.52918900  0.31218300  1
  O  O19  1  0.37103700  0.90022700  0.18781700  1
  O  O20  1  0.52918900  0.62896300  0.18781700  1
  O  O21  1  0.47081100  0.37103700  0.18781700  1
  O  O22  1  0.62896300  0.09977300  0.18781700  1
  O  O23  1  0.09319300  0.28222500  0.63207200  1
  O  O24  1  0.81096800  0.09319300  0.63207200  1
  O  O25  1  0.90680700  0.71777500  0.63207200  1
  O  O26  1  0.28222500  0.18903200  0.63207200  1
  O  O27  1  0.71777500  0.81096800  0.63207200  1
  O  O28  1  0.18903200  0.28222500  0.86792800  1
  O  O29  1  0.18903200  0.90680700  0.63207200  1
  O  O30  1  0.08226300  0.39419800  0.00000000  1
  O  O31  1  0.68806500  0.08226300  0.00000000  1
  O  O32  1  0.39419800  0.31193500  0.00000000  1
  O  O33  1  0.60580200  0.68806500  0.00000000  1
  O  O34  1  0.31193500  0.91773700  0.00000000  1
  O  O35  1  0.68806500  0.60580200  0.50000000  1
  O  O36  1  0.91773700  0.31193500  0.50000000  1
  O  O37  1  0.91773700  0.60580200  0.00000000  1
  O  O38  1  0.39419800  0.08226300  0.50000000  1
  O  O39  1  0.60580200  0.91773700  0.50000000  1
  O  O40  1  0.31193500  0.39419800  0.50000000  1
  O  O41  1  0.08226300  0.68806500  0.50000000  1
  O  O42  1  0.90022700  0.37103700  0.68781700  1
  O  O43  1  0.90680700  0.18903200  0.13207200  1
  O  O44  1  0.28222500  0.09319300  0.13207200  1
  O  O45  1  0.71777500  0.90680700  0.13207200  1
  O  O46  1  0.09319300  0.81096800  0.13207200  1
  O  O47  1  0.90680700  0.71777500  0.36792800  1
  O  O48  1  0.81096800  0.09319300  0.36792800  1
  O  O49  1  0.81096800  0.71777500  0.13207200  1
  O  O50  1  0.28222500  0.18903200  0.36792800  1
  O  O51  1  0.71777500  0.81096800  0.36792800  1
  O  O52  1  0.09319300  0.28222500  0.36792800  1
  O  O53  1  0.18903200  0.90680700  0.36792800  1
  O  O54  1  0.81096800  0.71777500  0.86792800  1
  O  O55  1  0.09319300  0.81096800  0.86792800  1
  O  O56  1  0.71777500  0.90680700  0.86792800  1
  O  O57  1  0.28222500  0.09319300  0.86792800  1
  O  O58  1  0.90680700  0.18903200  0.86792800  1
  O  O59  1  0.09977300  0.47081100  0.18781700  1
loop_
_geom_bond_atom_site_label_1
_geom_bond_atom_site_label_2
_geom_bond_distance
_geom_bond_site_symmetry_2
K0 O29 3.046623 1_545
K0 O58 3.046623 1_455
K0 O24 3.046623 1_455
K0 O55 3.046623 1_545
K0 O25 3.046623 1_445
K0 O56 3.046623 1_445
K0 O23 3.046623 1_555
K0 O57 3.046623 1_555
K0 O27 3.046623 1_445
K0 O54 3.046623 1_445
K0 O26 3.046623 1_555
K0 O28 3.046623 1_555
K1 O53 3.046623 1_545
K1 O48 3.046623 1_455
K1 O46 3.046623 1_545
K1 O43 3.046623 1_455
K1 O47 3.046623 1_445
K1 O52 3.046623 1_555
K1 O45 3.046623 1_445
K1 O44 3.046623 1_555
K1 O49 3.046623 1_445
K1 O50 3.046623 1_555
K1 O51 3.046623 1_445
K1 O0 3.046623 1_555
Na0 O18 2.408462 1_555
Na0 O21 2.408462 1_555
Na0 O22 2.408462 1_555
Na0 O17 2.408462 1_555
Na0 O15 2.408462 1_555
Na0 O16 2.408462 1_555
Na1 O5 2.408462 1_555
Na1 O8 2.408462 1_555
Na1 O7 2.408462 1_555
Na1 O42 2.408462 1_555
Na1 O4 2.408462 1_555
Na1 O11 2.408462 1_555
Na2 O9 2.408462 1_555
Na2 O6 2.408462 1_555
Na2 O1 2.408462 1_555
Na2 O10 2.408462 1_555
Na2 O3 2.408462 1_555
Na2 O2 2.408462 1_555
Na3 O20 2.408462 1_555
Na3 O13 2.408462 1_555
Na3 O12 2.408462 1_555
Na3 O19 2.408462 1_555
Na3 O14 2.408462 1_555
Na3 O59 2.408462 1_555
B0 O59 1.483548 1_555
B0 O16 1.483548 1_455
B0 O17 1.483554 1_455
B0 O12 1.483554 1_555
B1 O8 1.483556 1_555
B1 O6 1.483556 1_555
B1 O9 1.483556 1_555
B1 O5 1.483556 1_555
B2 O4 1.483548 1_555
B2 O3 1.483548 1_545
B2 O10 1.483554 1_545
B2 O7 1.483554 1_555
B3 O2 1.483548 1_555
B3 O11 1.483548 1_455
B3 O42 1.483554 1_455
B3 O1 1.483554 1_555
B4 O21 1.483556 1_555
B4 O13 1.483556 1_555
B4 O20 1.483556 1_555
B4 O18 1.483556 1_555
B5 O15 1.483548 1_555
B5 O14 1.483548 1_545
B5 O19 1.483554 1_545
B5 O22 1.483554 1_555
O0 Si17 1.636292 1_555
O0 Si19 1.637801 1_555
O1 Si1 1.616134 1_555
O2 Si9 1.616142 1_555
O3 Si11 1.616142 1_555
O4 Si20 1.616142 1_555
O5 Si21 1.616140 1_555
O6 Si2 1.616140 1_555
O7 Si3 1.616134 1_555
O8 Si4 1.616140 1_555
O9 Si5 1.616140 1_555
O10 Si6 1.616134 1_555
O11 Si7 1.616142 1_555
O12 Si8 1.616134 1_555
O13 Si0 1.616140 1_555
O14 Si10 1.616142 1_555
O15 Si23 1.616142 1_555
O16 Si12 1.616142 1_555
O17 Si13 1.616134 1_555
O18 Si14 1.616140 1_555
O19 Si15 1.616134 1_555
O20 Si16 1.616140 1_555
O21 Si17 1.616140 1_555
O22 Si18 1.616134 1_555
O23 Si22 1.636292 1_455
O23 Si2 1.637801 1_555
O24 Si11 1.636292 1_545
O24 Si22 1.637801 1_555
O25 Si1 1.636292 1_655
O25 Si21 1.637801 1_555
O26 Si2 1.636292 1_555
O26 Si20 1.637801 1_555
O27 Si21 1.636292 1_555
O27 Si11 1.637801 1_555
O28 Si4 1.636292 1_555
O28 Si9 1.637801 1_555
O29 Si20 1.636292 1_565
O29 Si1 1.637801 1_555
O30 Si9 1.633970 1_554
O30 Si19 1.633970 1_555
O31 Si3 1.633970 1_554
O31 Si18 1.633970 1_555
O32 Si4 1.633970 1_554
O32 Si17 1.633970 1_555
O33 Si5 1.633970 1_554
O33 Si16 1.633970 1_555
O34 Si6 1.633970 1_554
O34 Si15 1.633970 1_555
O35 Si14 1.633970 1_555
O35 Si21 1.633970 1_555
O36 Si13 1.633970 1_555
O36 Si22 1.633970 1_555
O37 Si7 1.633970 1_554
O37 Si12 1.633970 1_555
O38 Si23 1.633970 1_555
O38 Si20 1.633970 1_555
O39 Si11 1.633970 1_555
O39 Si10 1.633970 1_555
O40 Si0 1.633970 1_555
O40 Si2 1.633970 1_555
O41 Si8 1.633970 1_555
O41 Si1 1.633970 1_555
O42 Si22 1.616134 1_555
O43 Si19 1.636292 1_655
O43 Si18 1.637801 1_555
O44 Si15 1.636292 1_545
O44 Si17 1.637801 1_555
O45 Si18 1.636292 1_565
O45 Si16 1.637801 1_555
O46 Si12 1.636292 1_455
O46 Si15 1.637801 1_555
O47 Si8 1.636292 1_655
O47 Si14 1.637801 1_555
O48 Si10 1.636292 1_545
O48 Si13 1.637801 1_555
O49 Si16 1.636292 1_555
O49 Si12 1.637801 1_555
O50 Si0 1.636292 1_555
O50 Si23 1.637801 1_555
O51 Si14 1.636292 1_555
O51 Si10 1.637801 1_555
O52 Si13 1.636292 1_455
O52 Si0 1.637801 1_555
O53 Si23 1.636292 1_565
O53 Si8 1.637801 1_555
O54 Si5 1.636292 1_555
O54 Si7 1.637801 1_555
O55 Si7 1.636292 1_455
O55 Si6 1.637801 1_555
O56 Si3 1.636292 1_565
O56 Si5 1.637801 1_555
O57 Si6 1.636292 1_545
O57 Si4 1.637801 1_555
O58 Si9 1.636292 1_655
O58 Si3 1.637801 1_555
O59 Si19 1.616142 1_555
