# generated using pymatgen
data_MnNi3O4
_symmetry_space_group_name_H-M   'P 1'
_cell_length_a   3.03972100
_cell_length_b   4.30159200
_cell_length_c   6.06053600
_cell_angle_alpha   90.00000000
_cell_angle_beta   90.00000000
_cell_angle_gamma   90.00000000
_symmetry_Int_Tables_number   1
_chemical_formula_structural   MnNi3O4
_chemical_formula_sum   'Mn1 Ni3 O4'
_cell_volume   79.24538413
_cell_formula_units_Z   1
loop_
 _symmetry_equiv_pos_site_id
 _symmetry_equiv_pos_as_xyz
  1  'x, y, z'
loop_
 _atom_site_type_symbol
 _atom_site_label
 _atom_site_symmetry_multiplicity
 _atom_site_fract_x
 _atom_site_fract_y
 _atom_site_fract_z
 _atom_site_occupancy
  Mn  Mn0  1  0.00000000  0.00000000  0.00000000  1
  Ni  Ni0  1  0.50000000  0.50000000  0.25397400  1
  Ni  Ni1  1  0.00000000  0.00000000  0.50000000  1
  Ni  Ni2  1  0.50000000  0.50000000  0.74602600  1
  O  O0  1  0.00000000  0.50000000  0.50000000  1
  O  O1  1  0.50000000  0.00000000  0.73711400  1
  O  O2  1  0.00000000  0.50000000  0.00000000  1
  O  O3  1  0.50000000  0.00000000  0.26288600  1
loop_
_geom_bond_atom_site_label_1
_geom_bond_atom_site_label_2
_geom_bond_distance
_geom_bond_site_symmetry_2
Mn0 O2 2.150796 1_555
Mn0 O2 2.150796 1_545
Mn0 O1 2.201899 1_554
Mn0 O1 2.201899 1_454
Mn0 O3 2.201899 1_555
Mn0 O3 2.201899 1_455
Ni0 O0 2.129132 1_555
Ni0 O0 2.129132 1_655
Ni0 O3 2.151474 1_555
Ni0 O3 2.151474 1_565
Ni0 O2 2.163139 1_655
Ni0 O2 2.163139 1_555
Ni1 O3 2.091663 1_555
Ni1 O3 2.091663 1_455
Ni1 O1 2.091663 1_455
Ni1 O1 2.091663 1_555
Ni1 O0 2.150796 1_545
Ni1 O0 2.150796 1_555
Ni2 O0 2.129132 1_655
Ni2 O0 2.129132 1_555
Ni2 O1 2.151474 1_555
Ni2 O1 2.151474 1_565
Ni2 O2 2.163139 1_556
Ni2 O2 2.163139 1_656
