# generated using pymatgen
data_Nd(SmSb)3
_symmetry_space_group_name_H-M   'P 1'
_cell_length_a   8.15961344
_cell_length_b   8.15961344
_cell_length_c   8.14588419
_cell_angle_alpha   70.53255518
_cell_angle_beta   70.53255518
_cell_angle_gamma   109.54460155
_symmetry_Int_Tables_number   1
_chemical_formula_structural   Nd(SmSb)3
_chemical_formula_sum   'Nd2 Sm6 Sb6'
_cell_volume   417.15934862
_cell_formula_units_Z   2
loop_
 _symmetry_equiv_pos_site_id
 _symmetry_equiv_pos_as_xyz
  1  'x, y, z'
loop_
 _atom_site_type_symbol
 _atom_site_label
 _atom_site_symmetry_multiplicity
 _atom_site_fract_x
 _atom_site_fract_y
 _atom_site_fract_z
 _atom_site_occupancy
  Nd  Nd0  1  0.50060232  0.64108387  0.99967190  1
  Nd  Nd1  1  0.64108387  0.50060232  0.49967190  1
  Sm  Sm0  1  0.14200946  0.50017324  0.49930377  1
  Sm  Sm1  1  0.99945746  0.99899441  0.85950901  1
  Sm  Sm2  1  0.35980291  0.85887902  0.64166996  1
  Sm  Sm3  1  0.50017324  0.14200946  0.99930377  1
  Sm  Sm4  1  0.99899441  0.99945746  0.35950801  1
  Sm  Sm5  1  0.85887902  0.35980191  0.14166996  1
  Sb  Sb0  1  0.62529992  0.87879128  0.24882324  1
  Sb  Sb1  1  0.87879128  0.62529992  0.74882324  1
  Sb  Sb2  1  0.37221723  0.24537448  0.37675449  1
  Sb  Sb3  1  0.12573973  0.75157467  0.12426964  1
  Sb  Sb4  1  0.75157467  0.12573973  0.62426964  1
  Sb  Sb5  1  0.24537448  0.37221723  0.87675449  1
loop_
_geom_bond_atom_site_label_1
_geom_bond_atom_site_label_2
_geom_bond_distance
_geom_bond_site_symmetry_2
Nd0 Sb2 3.152667 1_556
Nd0 Sb5 3.154313 1_555
Nd0 Sb1 3.154837 1_555
Nd0 Sb4 3.395687 1_565
Nd0 Sb3 3.403607 1_556
Nd0 Sb0 3.405333 1_556
Nd1 Sb5 3.152667 1_555
Nd1 Sb2 3.154313 1_555
Nd1 Sb0 3.154837 1_555
Nd1 Sb3 3.395687 1_655
Nd1 Sb4 3.403607 1_555
Nd1 Sb1 3.405333 1_555
Sb0 Sm3 3.118848 1_564
Sb0 Sm2 3.123643 1_555
Sb0 Sm1 3.132046 1_554
Sb0 Sm5 3.376621 1_565
Sb0 Sm4 3.390494 1_555
Sb0 Sm0 3.397400 1_555
Sb1 Sm0 3.118848 1_655
Sb1 Sm5 3.123645 1_556
Sb1 Sm4 3.132050 1_555
Sb1 Sm2 3.376628 1_655
Sb1 Sm1 3.390500 1_555
Sb1 Sm3 3.397400 1_555
Sb2 Sm4 3.115250 1_445
Sb2 Sm2 3.117216 1_545
Sb2 Sm1 3.379924 1_445
Sb2 Sm3 3.381272 1_554
Sb2 Sm5 3.400947 1_555
Sb2 Sm0 3.404987 1_555
Sb3 Sm1 3.124075 1_454
Sb3 Sm3 3.126175 1_564
Sb3 Sm5 3.132959 1_455
Sb3 Sm0 3.135918 1_555
Sb3 Sm2 3.383933 1_554
Sb3 Sm4 3.390360 1_455
Sb4 Sm4 3.124080 1_545
Sb4 Sm0 3.126175 1_655
Sb4 Sm2 3.132952 1_545
Sb4 Sm3 3.135918 1_555
Sb4 Sm5 3.383933 1_555
Sb4 Sm1 3.390366 1_545
Sb5 Sm1 3.115245 1_445
Sb5 Sm5 3.117212 1_456
Sb5 Sm4 3.379918 1_446
Sb5 Sm0 3.381272 1_555
Sb5 Sm2 3.400945 1_555
Sb5 Sm3 3.404987 1_555
