# generated using pymatgen
data_CaCr4(CuO4)3
_symmetry_space_group_name_H-M   'P 1'
_cell_length_a   6.39525051
_cell_length_b   6.39507814
_cell_length_c   6.38625863
_cell_angle_alpha   70.55605213
_cell_angle_beta   109.44656689
_cell_angle_gamma   70.50654871
_symmetry_Int_Tables_number   1
_chemical_formula_structural   CaCr4(CuO4)3
_chemical_formula_sum   'Ca1 Cr4 Cu3 O12'
_cell_volume   201.13470475
_cell_formula_units_Z   1
loop_
 _symmetry_equiv_pos_site_id
 _symmetry_equiv_pos_as_xyz
  1  'x, y, z'
loop_
 _atom_site_type_symbol
 _atom_site_label
 _atom_site_symmetry_multiplicity
 _atom_site_fract_x
 _atom_site_fract_y
 _atom_site_fract_z
 _atom_site_occupancy
  Ca  Ca0  1  0.99998700  0.00001300  0.00000900  1
  Cr  Cr0  1  0.50003000  0.50002300  0.49995600  1
  Cr  Cr1  1  0.49999700  0.99996200  0.00001900  1
  Cr  Cr2  1  0.00001500  0.49998200  0.99999200  1
  Cr  Cr3  1  0.00000600  0.00000800  0.50000600  1
  Cu  Cu0  1  0.49999600  0.00000800  0.50000100  1
  Cu  Cu1  1  0.99999800  0.49999900  0.50000000  1
  Cu  Cu2  1  0.49999600  0.49999500  0.00000300  1
  O  O0  1  0.17108700  0.14112000  0.68977400  1
  O  O1  1  0.82891000  0.85887600  0.31023200  1
  O  O2  1  0.17017100  0.51833400  0.31119700  1
  O  O3  1  0.31131600  0.17032200  0.14100000  1
  O  O4  1  0.85890200  0.31230000  0.16905100  1
  O  O5  1  0.51842600  0.31128800  0.82977300  1
  O  O6  1  0.68782800  0.17103900  0.51875400  1
  O  O7  1  0.14109600  0.68769800  0.83094900  1
  O  O8  1  0.82982200  0.48166800  0.68880400  1
  O  O9  1  0.68868200  0.82968400  0.85900200  1
  O  O10  1  0.48157200  0.68870800  0.17023200  1
  O  O11  1  0.31216000  0.82897700  0.48124400  1
loop_
_geom_bond_atom_site_label_1
_geom_bond_atom_site_label_2
_geom_bond_distance
_geom_bond_site_symmetry_2
Ca0 O11 2.616564 1_645
Ca0 O6 2.616658 1_554
Ca0 O1 2.616965 1_545
Ca0 O0 2.617096 1_654
Ca0 O4 2.617110 1_555
Ca0 O7 2.617375 1_644
Ca0 O5 2.620569 1_554
Ca0 O3 2.620610 1_655
Ca0 O9 2.620613 1_544
Ca0 O10 2.620752 1_645
Ca0 O8 2.620879 1_554
Ca0 O2 2.620947 1_645
Cr0 O6 1.983084 1_555
Cr0 O11 1.983301 1_555
Cr0 O10 1.987898 1_555
Cr0 O5 1.988667 1_555
Cr0 O8 1.990836 1_555
Cr0 O2 1.991202 1_555
Cr1 O0 1.982917 1_564
Cr1 O1 1.982933 1_555
Cr1 O9 1.988074 1_554
Cr1 O3 1.988126 1_565
Cr1 O10 1.989688 1_555
Cr1 O5 1.990138 1_564
Cr2 O7 1.982222 1_555
Cr2 O4 1.982319 1_456
Cr2 O8 1.986860 1_455
Cr2 O2 1.987035 1_556
Cr2 O3 1.989999 1_556
Cr2 O9 1.990282 1_455
Cr3 O0 1.996079 1_555
Cr3 O1 1.996256 1_445
Cr3 O11 1.996287 1_545
Cr3 O6 1.996364 1_455
Cr3 O4 1.996747 1_455
Cr3 O7 1.996781 1_545
Cu0 O9 1.875356 1_545
Cu0 O3 1.875357 1_555
Cu0 O6 1.876670 1_555
Cu0 O11 1.876692 1_545
Cu1 O2 1.875299 1_655
Cu1 O8 1.875319 1_555
Cu1 O1 1.876836 1_555
Cu1 O0 1.876848 1_655
Cu2 O5 1.875087 1_554
Cu2 O10 1.875111 1_555
Cu2 O7 1.876989 1_554
Cu2 O4 1.877020 1_555
