# generated using pymatgen
data_Y2(MoO4)3
_symmetry_space_group_name_H-M   'P 1'
_cell_length_a   7.46026800
_cell_length_b   7.46026800
_cell_length_c   10.75411500
_cell_angle_alpha   90.00000000
_cell_angle_beta   90.00000000
_cell_angle_gamma   90.00000000
_symmetry_Int_Tables_number   1
_chemical_formula_structural   Y2(MoO4)3
_chemical_formula_sum   'Y4 Mo6 O24'
_cell_volume   598.52670808
_cell_formula_units_Z   2
loop_
 _symmetry_equiv_pos_site_id
 _symmetry_equiv_pos_as_xyz
  1  'x, y, z'
loop_
 _atom_site_type_symbol
 _atom_site_label
 _atom_site_symmetry_multiplicity
 _atom_site_fract_x
 _atom_site_fract_y
 _atom_site_fract_z
 _atom_site_occupancy
  Y  Y0  1  0.68660800  0.18660800  0.26176000  1
  Y  Y1  1  0.81339200  0.68660800  0.73824000  1
  Y  Y2  1  0.31339200  0.81339200  0.26176000  1
  Y  Y3  1  0.18660800  0.31339200  0.73824000  1
  Mo  Mo0  1  0.50000000  0.50000000  0.00000000  1
  Mo  Mo1  1  0.00000000  0.00000000  0.00000000  1
  Mo  Mo2  1  0.70597100  0.20597100  0.64293600  1
  Mo  Mo3  1  0.79402900  0.70597100  0.35706400  1
  Mo  Mo4  1  0.29402900  0.79402900  0.64293600  1
  Mo  Mo5  1  0.20597100  0.29402900  0.35706400  1
  O  O0  1  0.30995600  0.45616800  0.90274800  1
  O  O1  1  0.19004400  0.95616800  0.09725200  1
  O  O2  1  0.69004400  0.54383200  0.90274800  1
  O  O3  1  0.80995600  0.04383200  0.09725200  1
  O  O4  1  0.54383200  0.30995600  0.09725200  1
  O  O5  1  0.95616800  0.80995600  0.90274800  1
  O  O6  1  0.45616800  0.69004400  0.09725200  1
  O  O7  1  0.04383200  0.19004400  0.90274800  1
  O  O8  1  0.99277600  0.22598100  0.29884700  1
  O  O9  1  0.50722400  0.72598100  0.70115300  1
  O  O10  1  0.00722400  0.77401900  0.29884700  1
  O  O11  1  0.49277600  0.27401900  0.70115300  1
  O  O12  1  0.77401900  0.99277600  0.70115300  1
  O  O13  1  0.72598100  0.49277600  0.29884700  1
  O  O14  1  0.22598100  0.00722400  0.70115300  1
  O  O15  1  0.27401900  0.50722400  0.29884700  1
  O  O16  1  0.69387000  0.19387000  0.47790100  1
  O  O17  1  0.80613000  0.69387000  0.52209900  1
  O  O18  1  0.30613000  0.80613000  0.47790100  1
  O  O19  1  0.19387000  0.30613000  0.52209900  1
  O  O20  1  0.87302000  0.37302000  0.69141600  1
  O  O21  1  0.62698000  0.87302000  0.30858400  1
  O  O22  1  0.12698000  0.62698000  0.69141600  1
  O  O23  1  0.37302000  0.12698000  0.30858400  1
loop_
_geom_bond_atom_site_label_1
_geom_bond_atom_site_label_2
_geom_bond_distance
_geom_bond_site_symmetry_2
Mo0 O4 1.791884 1_555
Mo0 O6 1.791884 1_555
Mo0 O2 1.791884 1_554
Mo0 O0 1.791884 1_554
Mo1 O3 1.791884 1_455
Mo1 O1 1.791884 1_545
Mo1 O7 1.791884 1_554
Mo1 O5 1.791884 1_444
Mo2 O16 1.779391 1_555
Mo2 O12 1.783072 1_545
Mo2 O11 1.783072 1_555
Mo2 O20 1.837932 1_555
Mo3 O17 1.779391 1_555
Mo3 O10 1.783072 1_655
Mo3 O13 1.783072 1_555
Mo3 O21 1.837932 1_555
Mo4 O18 1.779391 1_555
Mo4 O14 1.783072 1_565
Mo4 O9 1.783072 1_555
Mo4 O22 1.837932 1_555
Mo5 O19 1.779391 1_555
Mo5 O8 1.783072 1_455
Mo5 O15 1.783072 1_555
Mo5 O23 1.837932 1_555
O0 Y3 2.260790 1_555
O1 Y2 2.260790 1_555
O2 Y1 2.260790 1_555
O3 Y0 2.260790 1_555
O4 Y0 2.260790 1_555
O5 Y1 2.260790 1_555
O6 Y2 2.260790 1_555
O7 Y3 2.260790 1_555
O8 Y0 2.337187 1_555
O9 Y1 2.337187 1_555
O10 Y2 2.337187 1_555
O11 Y3 2.337187 1_555
O12 Y1 2.337187 1_555
O13 Y0 2.337187 1_555
O14 Y3 2.337187 1_555
O15 Y2 2.337187 1_555
O16 Y0 2.325668 1_555
O17 Y1 2.325668 1_555
O18 Y2 2.325668 1_555
O19 Y3 2.325668 1_555
O20 Y1 2.434025 1_555
O20 Y3 2.434025 1_655
O21 Y2 2.434025 1_555
O21 Y0 2.434025 1_565
O22 Y1 2.434025 1_455
O22 Y3 2.434025 1_555
O23 Y2 2.434025 1_545
O23 Y0 2.434025 1_555
