# generated using pymatgen
data_Na7(CoO3)2
_symmetry_space_group_name_H-M   'P 1'
_cell_length_a   7.78839247
_cell_length_b   7.78839247
_cell_length_c   10.46926616
_cell_angle_alpha   75.79787003
_cell_angle_beta   75.79787003
_cell_angle_gamma   42.95891786
_symmetry_Int_Tables_number   1
_chemical_formula_structural   Na7(CoO3)2
_chemical_formula_sum   'Na14 Co4 O12'
_cell_volume   417.46113107
_cell_formula_units_Z   2
loop_
 _symmetry_equiv_pos_site_id
 _symmetry_equiv_pos_as_xyz
  1  'x, y, z'
loop_
 _atom_site_type_symbol
 _atom_site_label
 _atom_site_symmetry_multiplicity
 _atom_site_fract_x
 _atom_site_fract_y
 _atom_site_fract_z
 _atom_site_occupancy
  Na  Na0  1  0.42429847  0.23947301  0.90548748  1
  Na  Na1  1  0.19109773  0.25896949  0.19361249  1
  Na  Na2  1  0.69841319  0.42123401  0.34879845  1
  Na  Na3  1  0.57570153  0.76052699  0.09451252  1
  Na  Na4  1  0.42123401  0.69841319  0.84879845  1
  Na  Na5  1  0.07204437  0.92795563  0.25000000  1
  Na  Na6  1  0.80890227  0.74103051  0.80638751  1
  Na  Na7  1  0.74103051  0.80890227  0.30638751  1
  Na  Na8  1  0.92795563  0.07204437  0.75000000  1
  Na  Na9  1  0.76052699  0.57570153  0.59451252  1
  Na  Na10  1  0.25896949  0.19109773  0.69361249  1
  Na  Na11  1  0.57876599  0.30158681  0.15120155  1
  Na  Na12  1  0.30158681  0.57876599  0.65120155  1
  Na  Na13  1  0.23947301  0.42429847  0.40548748  1
  Co  Co0  1  0.24010093  0.00936363  0.46124605  1
  Co  Co1  1  0.00936363  0.24010093  0.96124605  1
  Co  Co2  1  0.99063637  0.75989907  0.03875395  1
  Co  Co3  1  0.75989907  0.99063637  0.53875395  1
  O  O0  1  0.15071138  0.60697601  0.18867776  1
  O  O1  1  0.13464643  0.67387827  0.87424983  1
  O  O2  1  0.84928862  0.39302399  0.81132224  1
  O  O3  1  0.99926141  0.65130429  0.58328872  1
  O  O4  1  0.60697601  0.15071138  0.68867776  1
  O  O5  1  0.32612173  0.86535357  0.62575017  1
  O  O6  1  0.67387827  0.13464643  0.37424983  1
  O  O7  1  0.86535357  0.32612173  0.12575017  1
  O  O8  1  0.39302399  0.84928862  0.31132224  1
  O  O9  1  0.00073859  0.34869571  0.41671128  1
  O  O10  1  0.65130429  0.99926141  0.08328872  1
  O  O11  1  0.34869571  0.00073859  0.91671128  1
loop_
_geom_bond_atom_site_label_1
_geom_bond_atom_site_label_2
_geom_bond_distance
_geom_bond_site_symmetry_2
Na0 O10 2.270594 1_546
Na0 O11 2.297622 1_555
Na0 O1 2.300105 1_555
Na0 O4 2.323794 1_555
Na1 O9 2.393134 1_555
Na1 O8 2.418601 1_545
Na1 O7 2.444335 1_455
Na1 O0 2.477770 1_555
Na1 O10 2.603028 1_545
Na2 O9 2.246388 1_655
Na2 O8 2.266158 1_555
Na2 O6 2.323157 1_555
Na2 O7 2.375171 1_555
Na3 O11 2.270594 1_564
Na3 O10 2.297622 1_555
Na3 O7 2.300105 1_555
Na3 O8 2.323794 1_555
Na4 O11 2.246388 1_565
Na4 O2 2.266158 1_555
Na4 O1 2.323157 1_555
Na4 O5 2.375171 1_555
Na5 O0 2.321585 1_555
Na5 O8 2.321585 1_555
Na5 O6 2.375180 1_465
Na5 O7 2.375180 1_465
Na6 O3 2.393134 1_555
Na6 O4 2.418601 1_565
Na6 O1 2.444335 1_655
Na6 O2 2.477770 1_555
Na6 O11 2.603028 1_565
Na7 O10 2.393134 1_555
Na7 O0 2.418601 1_655
Na7 O6 2.444335 1_565
Na7 O8 2.477770 1_555
Na7 O9 2.603028 1_655
Na8 O2 2.321585 1_555
Na8 O4 2.321585 1_555
Na8 O1 2.375180 1_645
Na8 O5 2.375180 1_645
Na9 O9 2.270594 1_655
Na9 O3 2.297622 1_555
Na9 O5 2.300105 1_555
Na9 O2 2.323794 1_555
Na10 O11 2.393134 1_555
Na10 O2 2.418601 1_455
Na10 O5 2.444335 1_545
Na10 O4 2.477770 1_555
Na10 O3 2.603028 1_455
Na11 O10 2.246388 1_545
Na11 O0 2.266158 1_555
Na11 O7 2.323157 1_555
Na11 O6 2.375171 1_555
Na12 O3 2.246388 1_455
Na12 O4 2.266158 1_555
Na12 O5 2.323157 1_555
Na12 O1 2.375171 1_555
Na13 O3 2.270594 1_455
Na13 O9 2.297622 1_555
Na13 O6 2.300105 1_555
Na13 O0 2.323794 1_555
Co0 O5 1.786453 1_545
Co0 O9 1.813247 1_555
Co0 O8 1.818238 1_545
Co1 O7 1.786453 1_456
Co1 O11 1.813247 1_555
Co1 O2 1.818238 1_455
Co2 O1 1.786453 1_654
Co2 O10 1.813247 1_555
Co2 O0 1.818238 1_655
Co3 O6 1.786453 1_565
Co3 O3 1.813247 1_555
Co3 O4 1.818238 1_565
