# generated using pymatgen
data_Ho3InS6
_symmetry_space_group_name_H-M   'P 1'
_cell_length_a   3.85801500
_cell_length_b   13.39573000
_cell_length_c   16.54785800
_cell_angle_alpha   90.00000000
_cell_angle_beta   90.00000000
_cell_angle_gamma   90.00000000
_symmetry_Int_Tables_number   1
_chemical_formula_structural   Ho3InS6
_chemical_formula_sum   'Ho12 In4 S24'
_cell_volume   855.20864587
_cell_formula_units_Z   4
loop_
 _symmetry_equiv_pos_site_id
 _symmetry_equiv_pos_as_xyz
  1  'x, y, z'
loop_
 _atom_site_type_symbol
 _atom_site_label
 _atom_site_symmetry_multiplicity
 _atom_site_fract_x
 _atom_site_fract_y
 _atom_site_fract_z
 _atom_site_occupancy
  Ho  Ho0  1  0.25412200  0.03633400  0.77679200  1
  Ho  Ho1  1  0.25412200  0.96366600  0.22320800  1
  Ho  Ho2  1  0.74587800  0.46366600  0.27679200  1
  Ho  Ho3  1  0.74587800  0.53633400  0.72320800  1
  Ho  Ho4  1  0.26342900  0.24664200  0.61075500  1
  Ho  Ho5  1  0.26342900  0.75335800  0.38924500  1
  Ho  Ho6  1  0.73657100  0.25335800  0.11075500  1
  Ho  Ho7  1  0.73657100  0.74664200  0.88924500  1
  Ho  Ho8  1  0.74713900  0.30964600  0.85613200  1
  Ho  Ho9  1  0.74713900  0.69035400  0.14386800  1
  Ho  Ho10  1  0.25286100  0.19035400  0.35613200  1
  Ho  Ho11  1  0.25286100  0.80964600  0.64386800  1
  In  In0  1  0.75158200  0.00000000  0.50000000  1
  In  In1  1  0.24841800  0.50000000  0.00000000  1
  In  In2  1  0.39723000  0.50000000  0.50000000  1
  In  In3  1  0.60277000  0.00000000  0.00000000  1
  S  S0  1  0.76985800  0.39641300  0.59380300  1
  S  S1  1  0.76985800  0.60358700  0.40619700  1
  S  S2  1  0.23014200  0.10358700  0.09380300  1
  S  S3  1  0.23014200  0.89641300  0.90619700  1
  S  S4  1  0.24641600  0.30703900  0.98057900  1
  S  S5  1  0.24641600  0.69296100  0.01942100  1
  S  S6  1  0.75358400  0.19296100  0.48057900  1
  S  S7  1  0.75358400  0.80703900  0.51942100  1
  S  S8  1  0.75237000  0.10814800  0.88462400  1
  S  S9  1  0.75237000  0.89185200  0.11537600  1
  S  S10  1  0.24763000  0.39185200  0.38462400  1
  S  S11  1  0.24763000  0.60814800  0.61537600  1
  S  S12  1  0.75897500  0.17905800  0.71710300  1
  S  S13  1  0.75897500  0.82094200  0.28289700  1
  S  S14  1  0.24102500  0.32094200  0.21710300  1
  S  S15  1  0.24102500  0.67905800  0.78289700  1
  S  S16  1  0.24876200  0.38478900  0.75612800  1
  S  S17  1  0.24876200  0.61521100  0.24387200  1
  S  S18  1  0.75123800  0.11521100  0.25612800  1
  S  S19  1  0.75123800  0.88478900  0.74387200  1
  S  S20  1  0.25289100  0.02064700  0.60629900  1
  S  S21  1  0.25289100  0.97935300  0.39370100  1
  S  S22  1  0.74710900  0.47935300  0.10629900  1
  S  S23  1  0.74710900  0.52064700  0.89370100  1
loop_
_geom_bond_atom_site_label_1
_geom_bond_atom_site_label_2
_geom_bond_distance
_geom_bond_site_symmetry_2
Ho0 S8 2.793658 1_555
Ho0 S8 2.802977 1_455
Ho0 S20 2.829113 1_555
Ho0 S19 2.845374 1_545
Ho0 S3 2.847317 1_545
Ho0 S19 2.860421 1_445
Ho0 S12 2.877520 1_455
Ho0 S12 2.902514 1_555
Ho1 S9 2.793658 1_555
Ho1 S9 2.802977 1_455
Ho1 S21 2.829113 1_555
Ho1 S18 2.845374 1_565
Ho1 S2 2.847317 1_565
Ho1 S18 2.860421 1_465
Ho1 S13 2.877520 1_455
Ho1 S13 2.902514 1_555
Ho2 S10 2.793658 1_555
Ho2 S10 2.802977 1_655
Ho2 S22 2.829113 1_555
Ho2 S17 2.845374 1_555
Ho2 S1 2.847317 1_555
Ho2 S17 2.860421 1_655
Ho2 S14 2.877520 1_655
Ho2 S14 2.902514 1_555
Ho3 S11 2.793658 1_555
Ho3 S11 2.802977 1_655
Ho3 S23 2.829113 1_555
Ho3 S16 2.845374 1_555
Ho3 S0 2.847317 1_555
Ho3 S16 2.860421 1_655
Ho3 S15 2.877520 1_655
Ho3 S15 2.902514 1_555
Ho4 S12 2.751675 1_555
Ho4 S12 2.775662 1_455
Ho4 S0 2.780268 1_455
Ho4 S0 2.814476 1_555
Ho4 S6 2.955227 1_555
Ho4 S6 3.004404 1_455
Ho4 S20 3.028539 1_555
Ho4 S16 3.035592 1_555
Ho5 S13 2.751675 1_555
Ho5 S13 2.775662 1_455
Ho5 S1 2.780268 1_455
Ho5 S1 2.814476 1_555
Ho5 S7 2.955227 1_555
Ho5 S7 3.004404 1_455
Ho5 S21 3.028539 1_555
Ho5 S17 3.035592 1_555
Ho6 S14 2.751675 1_555
Ho6 S14 2.775662 1_655
Ho6 S2 2.780268 1_655
Ho6 S2 2.814476 1_555
Ho6 S4 2.955227 1_554
Ho6 S4 3.004404 1_654
Ho6 S22 3.028539 1_555
Ho6 S18 3.035592 1_555
Ho7 S15 2.751675 1_555
Ho7 S15 2.775662 1_655
Ho7 S3 2.780268 1_655
Ho7 S3 2.814476 1_555
Ho7 S5 2.955227 1_556
Ho7 S5 3.004404 1_656
Ho7 S23 3.028539 1_555
Ho7 S19 3.035592 1_555
Ho8 S16 2.729235 1_555
Ho8 S16 2.738072 1_655
Ho8 S8 2.740155 1_555
Ho8 S4 2.819997 1_655
Ho8 S4 2.823810 1_555
Ho8 S12 2.890522 1_555
Ho8 S23 2.894074 1_555
Ho9 S17 2.729235 1_555
Ho9 S17 2.738072 1_655
Ho9 S9 2.740155 1_555
Ho9 S5 2.819997 1_655
Ho9 S5 2.823810 1_555
Ho9 S13 2.890522 1_555
Ho9 S22 2.894074 1_555
Ho10 S18 2.729235 1_555
Ho10 S18 2.738072 1_455
Ho10 S10 2.740155 1_555
Ho10 S6 2.819997 1_455
Ho10 S6 2.823810 1_555
Ho10 S14 2.890522 1_555
Ho10 S21 2.894074 1_545
Ho11 S19 2.729235 1_555
Ho11 S19 2.738072 1_455
Ho11 S11 2.740155 1_555
Ho11 S7 2.819997 1_455
Ho11 S7 2.823810 1_555
Ho11 S15 2.890522 1_555
Ho11 S20 2.894074 1_565
In0 S6 2.604767 1_555
In0 S7 2.604767 1_545
In0 S20 2.621500 1_555
In0 S21 2.621500 1_545
In0 S20 2.628922 1_655
In0 S21 2.628922 1_645
In1 S5 2.604767 1_555
In1 S4 2.604767 1_554
In1 S22 2.621500 1_555
In1 S23 2.621500 1_554
In1 S22 2.628922 1_455
In1 S23 2.628922 1_454
In2 S11 2.465167 1_555
In2 S10 2.465167 1_555
In2 S1 2.530148 1_555
In2 S0 2.530148 1_555
In3 S9 2.465167 1_545
In3 S8 2.465167 1_554
In3 S2 2.530148 1_555
In3 S3 2.530148 1_544
