# generated using pymatgen
data_LiLa2IrO6
_symmetry_space_group_name_H-M   'P 1'
_cell_length_a   5.79223400
_cell_length_b   5.55837100
_cell_length_c   9.63147506
_cell_angle_alpha   55.13742367
_cell_angle_beta   90.00000000
_cell_angle_gamma   90.00000000
_symmetry_Int_Tables_number   1
_chemical_formula_structural   LiLa2IrO6
_chemical_formula_sum   'Li2 La4 Ir2 O12'
_cell_volume   254.43594613
_cell_formula_units_Z   2
loop_
 _symmetry_equiv_pos_site_id
 _symmetry_equiv_pos_as_xyz
  1  'x, y, z'
loop_
 _atom_site_type_symbol
 _atom_site_label
 _atom_site_symmetry_multiplicity
 _atom_site_fract_x
 _atom_site_fract_y
 _atom_site_fract_z
 _atom_site_occupancy
  Li  Li0  1  0.00000000  0.00000000  0.00000000  1
  Li  Li1  1  0.50000000  0.00000000  0.50000000  1
  La  La0  1  0.06120800  0.76450000  0.74820900  1
  La  La1  1  0.56120800  0.23550000  0.75179100  1
  La  La2  1  0.43879200  0.76450000  0.24820900  1
  La  La3  1  0.93879200  0.23550000  0.25179100  1
  Ir  Ir0  1  0.50000000  0.50000000  0.00000000  1
  Ir  Ir1  1  0.00000000  0.50000000  0.50000000  1
  O  O0  1  0.28533900  0.26493600  0.54822100  1
  O  O1  1  0.78533900  0.73506400  0.95177900  1
  O  O2  1  0.71466100  0.73506400  0.45177900  1
  O  O3  1  0.21466100  0.26493600  0.04822100  1
  O  O4  1  0.02376700  0.65705600  0.25526600  1
  O  O5  1  0.52376700  0.34294400  0.24473400  1
  O  O6  1  0.30806000  0.83779000  0.95514600  1
  O  O7  1  0.80806000  0.16221000  0.54485400  1
  O  O8  1  0.69194000  0.16221000  0.04485400  1
  O  O9  1  0.19194000  0.83779000  0.45514600  1
  O  O10  1  0.47623300  0.65705600  0.75526600  1
  O  O11  1  0.97623300  0.34294400  0.74473400  1
loop_
_geom_bond_atom_site_label_1
_geom_bond_atom_site_label_2
_geom_bond_distance
_geom_bond_site_symmetry_2
Li0 O11 2.083133 1_454
Li0 O4 2.083133 1_545
Li0 O6 2.151460 1_544
Li0 O8 2.151460 1_455
Li0 O1 2.170748 1_444
Li0 O3 2.170748 1_555
Li1 O5 2.083133 1_555
Li1 O10 2.083133 1_545
Li1 O7 2.151460 1_555
Li1 O9 2.151460 1_545
Li1 O0 2.170748 1_555
Li1 O2 2.170748 1_545
La0 O11 2.413183 1_455
La0 O7 2.433754 1_465
La0 O1 2.461213 1_455
La0 O10 2.468546 1_555
La0 O0 2.647198 1_565
La0 O6 2.666657 1_555
La0 O9 2.718830 1_555
La0 O3 2.770780 1_556
La1 O10 2.413183 1_555
La1 O6 2.433754 1_545
La1 O0 2.461213 1_555
La1 O11 2.468546 1_555
La1 O1 2.647198 1_545
La1 O7 2.666657 1_555
La1 O8 2.718830 1_556
La1 O2 2.770780 1_555
La2 O5 2.413183 1_555
La2 O8 2.433754 1_565
La2 O2 2.461213 1_555
La2 O4 2.468546 1_555
La2 O3 2.647198 1_565
La2 O9 2.666657 1_555
La2 O6 2.718830 1_554
La2 O0 2.770780 1_555
La3 O4 2.413183 1_655
La3 O9 2.433754 1_645
La3 O3 2.461213 1_655
La3 O5 2.468546 1_555
La3 O2 2.647198 1_545
La3 O8 2.666657 1_555
La3 O7 2.718830 1_555
La3 O1 2.770780 1_554
Ir0 O3 1.990147 1_555
Ir0 O1 1.990147 1_554
Ir0 O10 1.996183 1_554
Ir0 O5 1.996183 1_555
Ir0 O8 2.005141 1_555
Ir0 O6 2.005141 1_554
Ir1 O0 1.990147 1_555
Ir1 O2 1.990147 1_455
Ir1 O4 1.996183 1_555
Ir1 O11 1.996183 1_455
Ir1 O7 2.005141 1_455
Ir1 O9 2.005141 1_555
