# generated using pymatgen
data_OsRh3
_symmetry_space_group_name_H-M   'P 1'
_cell_length_a   5.49196817
_cell_length_b   5.49196817
_cell_length_c   4.38430800
_cell_angle_alpha   90.00000000
_cell_angle_beta   90.00000000
_cell_angle_gamma   120.00000204
_symmetry_Int_Tables_number   1
_chemical_formula_structural   OsRh3
_chemical_formula_sum   'Os2 Rh6'
_cell_volume   114.52167770
_cell_formula_units_Z   2
loop_
 _symmetry_equiv_pos_site_id
 _symmetry_equiv_pos_as_xyz
  1  'x, y, z'
loop_
 _atom_site_type_symbol
 _atom_site_label
 _atom_site_symmetry_multiplicity
 _atom_site_fract_x
 _atom_site_fract_y
 _atom_site_fract_z
 _atom_site_occupancy
  Os  Os0  1  0.33333300  0.66666700  0.75000000  1
  Os  Os1  1  0.66666700  0.33333300  0.25000000  1
  Rh  Rh0  1  0.83166900  0.16833100  0.75000000  1
  Rh  Rh1  1  0.33666300  0.16833100  0.75000000  1
  Rh  Rh2  1  0.83166900  0.66333700  0.75000000  1
  Rh  Rh3  1  0.16833100  0.83166900  0.25000000  1
  Rh  Rh4  1  0.66333700  0.83166900  0.25000000  1
  Rh  Rh5  1  0.16833100  0.33666300  0.25000000  1
loop_
_geom_bond_atom_site_label_1
_geom_bond_atom_site_label_2
_geom_bond_distance
_geom_bond_site_symmetry_2
Os0 Rh4 2.696119 1_556
Os0 Rh4 2.696119 1_555
Os0 Rh5 2.696119 1_555
Os0 Rh5 2.696119 1_556
Os0 Rh3 2.696119 1_556
Os0 Rh3 2.696119 1_555
Os0 Rh1 2.746024 1_565
Os0 Rh2 2.746024 1_455
Os0 Rh0 2.746030 1_565
Os0 Rh0 2.746030 1_455
Os0 Rh2 2.746035 1_555
Os0 Rh1 2.746035 1_555
Os1 Rh2 2.696119 1_555
Os1 Rh1 2.696119 1_554
Os1 Rh1 2.696119 1_555
Os1 Rh2 2.696119 1_554
Os1 Rh0 2.696119 1_555
Os1 Rh0 2.696119 1_554
Os1 Rh5 2.746024 1_655
Os1 Rh4 2.746024 1_545
Os1 Rh3 2.746030 1_655
Os1 Rh3 2.746030 1_545
Os1 Rh4 2.746035 1_555
Os1 Rh5 2.746035 1_555
Rh0 Rh5 2.714676 1_656
Rh0 Rh5 2.714676 1_655
Rh0 Rh4 2.714676 1_545
Rh0 Rh4 2.714676 1_546
Rh0 Rh1 2.718557 1_555
Rh0 Rh2 2.718557 1_555
Rh0 Rh2 2.773411 1_545
Rh0 Rh1 2.773411 1_655
Rh1 Rh3 2.714676 1_545
Rh1 Rh3 2.714676 1_546
Rh1 Rh5 2.714682 1_555
Rh1 Rh5 2.714682 1_556
Rh1 Rh2 2.718557 1_555
Rh1 Rh2 2.773411 1_445
Rh2 Rh3 2.714676 1_656
Rh2 Rh3 2.714676 1_655
Rh2 Rh4 2.714682 1_556
Rh2 Rh4 2.714682 1_555
Rh3 Rh5 2.718557 1_555
Rh3 Rh4 2.718557 1_555
Rh3 Rh4 2.773411 1_455
Rh3 Rh5 2.773411 1_565
Rh4 Rh5 2.718557 1_555
Rh4 Rh5 2.773411 1_665
