# generated using pymatgen
data_PrAl5Ni2
_symmetry_space_group_name_H-M   'P 1'
_cell_length_a   7.95697579
_cell_length_b   12.52914741
_cell_length_c   12.52914762
_cell_angle_alpha   67.89610798
_cell_angle_beta   71.48584842
_cell_angle_gamma   71.48585889
_symmetry_Int_Tables_number   1
_chemical_formula_structural   PrAl5Ni2
_chemical_formula_sum   'Pr8 Al40 Ni16'
_cell_volume   1069.13638733
_cell_formula_units_Z   8
loop_
 _symmetry_equiv_pos_site_id
 _symmetry_equiv_pos_as_xyz
  1  'x, y, z'
loop_
 _atom_site_type_symbol
 _atom_site_label
 _atom_site_symmetry_multiplicity
 _atom_site_fract_x
 _atom_site_fract_y
 _atom_site_fract_z
 _atom_site_occupancy
  Pr  Pr0_0  1  0.00000000  0.00000000  0.00000000  1
  Pr  Pr0_1  1  0.00000000  0.00000000  0.50000000  1
  Pr  Pr0_2  1  0.00000000  0.50000000  0.00000000  1
  Pr  Pr0_3  1  0.00000000  0.50000000  0.50000000  1
  Pr  Pr0_4  1  0.50000000  0.00000000  0.00000000  1
  Pr  Pr0_5  1  0.50000000  0.00000000  0.50000000  1
  Pr  Pr0_6  1  0.50000000  0.50000000  0.00000000  1
  Pr  Pr0_7  1  0.50000000  0.50000000  0.50000000  1
  Al  Al0_0  1  0.00000000  0.25000000  0.25000000  1
  Al  Al0_1  1  0.00000000  0.25000000  0.75000000  1
  Al  Al0_2  1  0.00000000  0.75000000  0.25000000  1
  Al  Al0_3  1  0.00000000  0.75000000  0.75000000  1
  Al  Al0_4  1  0.50000000  0.25000000  0.25000000  1
  Al  Al0_5  1  0.50000000  0.25000000  0.75000000  1
  Al  Al0_6  1  0.50000000  0.75000000  0.25000000  1
  Al  Al0_7  1  0.50000000  0.75000000  0.75000000  1
  Al  Al1_0  1  0.33007565  0.07530997  0.26453824  1
  Al  Al1_1  1  0.33007565  0.07530997  0.76453823  1
  Al  Al1_2  1  0.33007565  0.57530997  0.26453824  1
  Al  Al1_3  1  0.33007565  0.57530997  0.76453823  1
  Al  Al1_4  1  0.83007565  0.07530997  0.26453823  1
  Al  Al1_5  1  0.83007565  0.07530997  0.76453823  1
  Al  Al1_6  1  0.83007565  0.57530997  0.26453824  1
  Al  Al1_7  1  0.83007565  0.57530997  0.76453824  1
  Al  Al2_0  1  0.16992435  0.42469003  0.23546176  1
  Al  Al2_1  1  0.16992435  0.42469003  0.73546176  1
  Al  Al2_2  1  0.16992435  0.92469003  0.23546176  1
  Al  Al2_3  1  0.16992435  0.92469003  0.73546176  1
  Al  Al2_4  1  0.66992435  0.42469003  0.23546176  1
  Al  Al2_5  1  0.66992435  0.42469003  0.73546177  1
  Al  Al2_6  1  0.66992435  0.92469003  0.23546176  1
  Al  Al2_7  1  0.66992435  0.92469003  0.73546176  1
  Al  Al3_0  1  0.16992435  0.23546176  0.42469003  1
  Al  Al3_1  1  0.16992435  0.23546176  0.92469003  1
  Al  Al3_2  1  0.16992435  0.73546177  0.42469003  1
  Al  Al3_3  1  0.16992435  0.73546176  0.92469003  1
  Al  Al3_4  1  0.66992435  0.23546176  0.42469003  1
  Al  Al3_5  1  0.66992435  0.23546177  0.92469003  1
  Al  Al3_6  1  0.66992435  0.73546176  0.42469003  1
  Al  Al3_7  1  0.66992435  0.73546176  0.92469003  1
  Al  Al4_0  1  0.33007565  0.26453823  0.07530997  1
  Al  Al4_1  1  0.33007565  0.26453823  0.57530997  1
  Al  Al4_2  1  0.33007565  0.76453823  0.07530997  1
  Al  Al4_3  1  0.33007565  0.76453823  0.57530997  1
  Al  Al4_4  1  0.83007565  0.26453824  0.07530997  1
  Al  Al4_5  1  0.83007565  0.26453823  0.57530997  1
  Al  Al4_6  1  0.83007565  0.76453823  0.07530997  1
  Al  Al4_7  1  0.83007565  0.76453823  0.57530997  1
  Ni  Ni0_0  1  0.38172345  0.36827655  0.36827655  1
  Ni  Ni0_1  1  0.38172345  0.36827654  0.86827655  1
  Ni  Ni0_2  1  0.38172345  0.86827654  0.36827655  1
  Ni  Ni0_3  1  0.38172345  0.86827654  0.86827654  1
  Ni  Ni0_4  1  0.88172346  0.36827655  0.36827654  1
  Ni  Ni0_5  1  0.88172345  0.36827655  0.86827655  1
  Ni  Ni0_6  1  0.88172345  0.86827654  0.36827655  1
  Ni  Ni0_7  1  0.88172345  0.86827654  0.86827655  1
  Ni  Ni1_0  1  0.11827654  0.13172345  0.13172345  1
  Ni  Ni1_1  1  0.11827654  0.13172345  0.63172345  1
  Ni  Ni1_2  1  0.11827654  0.63172345  0.13172345  1
  Ni  Ni1_3  1  0.11827654  0.63172345  0.63172345  1
  Ni  Ni1_4  1  0.61827654  0.13172345  0.13172345  1
  Ni  Ni1_5  1  0.61827654  0.13172345  0.63172345  1
  Ni  Ni1_6  1  0.61827654  0.63172345  0.13172345  1
  Ni  Ni1_7  1  0.61827654  0.63172345  0.63172346  1
loop_
_geom_bond_atom_site_label_1
_geom_bond_atom_site_label_2
_geom_bond_distance
_geom_bond_site_symmetry_2
Pr0_0 Pr0_4 3.978488 1_555
Pr0_0 Pr0_4 3.978488 1_455
Pr0_1 Pr0_5 3.978488 1_555
Pr0_1 Pr0_5 3.978488 1_455
Pr0_2 Pr0_6 3.978488 1_555
Pr0_2 Pr0_6 3.978488 1_455
Pr0_3 Pr0_7 3.978488 1_555
Pr0_3 Pr0_7 3.978488 1_455
Al0_0 Ni1_0 2.271354 1_555
Al0_0 Ni0_4 2.271354 1_455
Al0_0 Al4_0 2.841607 1_555
Al0_0 Al3_4 2.841607 1_455
Al0_0 Al1_0 2.841608 1_555
Al0_0 Al2_4 2.841608 1_455
Al0_0 Al2_0 2.841611 1_555
Al0_0 Al1_4 2.841611 1_455
Al0_0 Al3_0 2.841611 1_555
Al0_0 Al4_4 2.841611 1_455
Al0_0 Pr0_1 3.498395 1_555
Al0_0 Pr0_2 3.498395 1_555
Al0_1 Ni0_5 2.271354 1_455
Al0_1 Ni1_1 2.271354 1_555
Al0_1 Al3_5 2.841607 1_455
Al0_1 Al4_1 2.841607 1_555
Al0_1 Al1_1 2.841608 1_555
Al0_1 Al2_5 2.841608 1_455
Al0_1 Al2_1 2.841611 1_555
Al0_1 Al1_5 2.841611 1_455
Al0_1 Al3_1 2.841611 1_555
Al0_1 Al4_5 2.841611 1_455
Al0_1 Pr0_3 3.498395 1_555
Al0_1 Pr0_0 3.498395 1_556
Al0_2 Ni0_6 2.271354 1_455
Al0_2 Ni1_2 2.271354 1_555
Al0_2 Al4_2 2.841607 1_555
Al0_2 Al3_6 2.841607 1_455
Al0_2 Al1_2 2.841608 1_555
Al0_2 Al2_6 2.841608 1_455
Al0_2 Al1_6 2.841611 1_455
Al0_2 Al2_2 2.841611 1_555
Al0_2 Al3_2 2.841611 1_555
Al0_2 Al4_6 2.841611 1_455
Al0_2 Pr0_3 3.498395 1_555
Al0_2 Pr0_0 3.498395 1_565
Al0_3 Ni1_3 2.271354 1_555
Al0_3 Ni0_7 2.271354 1_455
Al0_3 Al4_3 2.841607 1_555
Al0_3 Al3_7 2.841607 1_455
Al0_3 Al1_3 2.841608 1_555
Al0_3 Al2_7 2.841608 1_455
Al0_3 Al1_7 2.841611 1_455
Al0_3 Al2_3 2.841611 1_555
Al0_3 Al3_3 2.841611 1_555
Al0_3 Al4_7 2.841611 1_455
Al0_3 Pr0_2 3.498395 1_556
Al0_3 Pr0_1 3.498395 1_565
Al0_4 Ni1_4 2.271354 1_555
Al0_4 Ni0_0 2.271354 1_555
Al0_4 Al4_4 2.841607 1_555
Al0_4 Al3_0 2.841607 1_555
Al0_4 Al1_4 2.841608 1_555
Al0_4 Al2_0 2.841608 1_555
Al0_4 Al1_0 2.841611 1_555
Al0_4 Al2_4 2.841611 1_555
Al0_4 Al4_0 2.841611 1_555
Al0_4 Al3_4 2.841611 1_555
Al0_4 Pr0_6 3.498395 1_555
Al0_4 Pr0_5 3.498395 1_555
Al0_5 Ni0_1 2.271354 1_555
Al0_5 Ni1_5 2.271354 1_555
Al0_5 Al4_5 2.841607 1_555
Al0_5 Al3_1 2.841607 1_555
Al0_5 Al2_1 2.841608 1_555
Al0_5 Al1_5 2.841608 1_555
Al0_5 Al2_5 2.841611 1_555
Al0_5 Al1_1 2.841611 1_555
Al0_5 Al3_5 2.841611 1_555
Al0_5 Al4_1 2.841611 1_555
Al0_5 Pr0_7 3.498395 1_555
Al0_5 Pr0_4 3.498395 1_556
Al0_6 Ni1_6 2.271354 1_555
Al0_6 Ni0_2 2.271354 1_555
Al0_6 Al4_6 2.841607 1_555
Al0_6 Al3_2 2.841607 1_555
Al0_6 Al2_2 2.841608 1_555
Al0_6 Al1_6 2.841608 1_555
Al0_6 Al1_2 2.841611 1_555
Al0_6 Al2_6 2.841611 1_555
Al0_6 Al4_2 2.841611 1_555
Al0_6 Al3_6 2.841611 1_555
Al0_6 Pr0_4 3.498395 1_565
Al0_6 Pr0_7 3.498395 1_555
Al0_7 Ni1_7 2.271354 1_555
Al0_7 Ni0_3 2.271354 1_555
Al0_7 Al3_3 2.841607 1_555
Al0_7 Al4_7 2.841607 1_555
Al0_7 Al1_7 2.841608 1_555
Al0_7 Al2_3 2.841608 1_555
Al0_7 Al1_3 2.841611 1_555
Al0_7 Al2_7 2.841611 1_555
Al0_7 Al3_7 2.841611 1_555
Al0_7 Al4_3 2.841611 1_555
Al0_7 Pr0_6 3.498395 1_556
Al0_7 Pr0_5 3.498395 1_565
Al1_0 Ni0_2 2.389928 1_545
Al1_0 Ni1_0 2.499640 1_555
Al1_0 Ni1_4 2.499642 1_555
Al1_0 Al4_0 2.647981 1_555
Al1_0 Al2_2 2.767195 1_545
Al1_0 Al2_6 2.767200 1_545
Al1_0 Al3_0 3.075516 1_555
Al1_0 Pr0_1 3.324126 1_555
Al1_0 Pr0_5 3.324130 1_555
Al1_0 Pr0_4 3.521548 1_555
Al1_1 Ni0_3 2.389928 1_545
Al1_1 Ni1_1 2.499640 1_555
Al1_1 Ni1_5 2.499642 1_555
Al1_1 Al4_1 2.647981 1_555
Al1_1 Al2_3 2.767195 1_545
Al1_1 Al2_7 2.767200 1_545
Al1_1 Al3_1 3.075516 1_555
Al1_1 Pr0_0 3.324126 1_556
Al1_1 Pr0_4 3.324130 1_556
Al1_1 Pr0_5 3.521548 1_555
Al1_2 Ni0_0 2.389928 1_555
Al1_2 Ni1_2 2.499640 1_555
Al1_2 Ni1_6 2.499642 1_555
Al1_2 Al4_2 2.647981 1_555
Al1_2 Al2_0 2.767195 1_555
Al1_2 Al2_4 2.767200 1_555
Al1_2 Al3_2 3.075516 1_555
Al1_2 Pr0_3 3.324126 1_555
Al1_2 Pr0_7 3.324130 1_555
Al1_2 Pr0_6 3.521548 1_555
Al1_3 Ni0_1 2.389928 1_555
Al1_3 Ni1_3 2.499640 1_555
Al1_3 Ni1_7 2.499642 1_555
Al1_3 Al4_3 2.647981 1_555
Al1_3 Al2_1 2.767195 1_555
Al1_3 Al2_5 2.767200 1_555
Al1_3 Al3_3 3.075516 1_555
Al1_3 Pr0_2 3.324126 1_556
Al1_3 Pr0_6 3.324130 1_556
Al1_3 Pr0_7 3.521548 1_555
Al1_4 Ni0_6 2.389928 1_545
Al1_4 Ni1_4 2.499640 1_555
Al1_4 Ni1_0 2.499642 1_655
Al1_4 Al4_4 2.647981 1_555
Al1_4 Al2_6 2.767195 1_545
Al1_4 Al2_2 2.767200 1_645
Al1_4 Al3_4 3.075516 1_555
Al1_4 Pr0_5 3.324126 1_555
Al1_4 Pr0_1 3.324130 1_655
Al1_4 Pr0_0 3.521548 1_655
Al1_5 Ni0_7 2.389928 1_545
Al1_5 Ni1_5 2.499640 1_555
Al1_5 Ni1_1 2.499642 1_655
Al1_5 Al4_5 2.647981 1_555
Al1_5 Al2_7 2.767195 1_545
Al1_5 Al2_3 2.767200 1_645
Al1_5 Al3_5 3.075516 1_555
Al1_5 Pr0_4 3.324126 1_556
Al1_5 Pr0_0 3.324130 1_656
Al1_5 Pr0_1 3.521548 1_655
Al1_6 Ni0_4 2.389928 1_555
Al1_6 Ni1_6 2.499640 1_555
Al1_6 Ni1_2 2.499642 1_655
Al1_6 Al4_6 2.647981 1_555
Al1_6 Al2_4 2.767195 1_555
Al1_6 Al2_0 2.767200 1_655
Al1_6 Al3_6 3.075516 1_555
Al1_6 Pr0_7 3.324126 1_555
Al1_6 Pr0_3 3.324130 1_655
Al1_6 Pr0_2 3.521548 1_655
Al1_7 Ni0_5 2.389928 1_555
Al1_7 Ni1_7 2.499640 1_555
Al1_7 Ni1_3 2.499642 1_655
Al1_7 Al4_7 2.647981 1_555
Al1_7 Al2_5 2.767195 1_555
Al1_7 Al2_1 2.767200 1_655
Al1_7 Al3_7 3.075516 1_555
Al1_7 Pr0_6 3.324126 1_556
Al1_7 Pr0_2 3.324130 1_656
Al1_7 Pr0_3 3.521548 1_655
Al2_0 Ni1_2 2.389928 1_555
Al2_0 Ni0_0 2.499640 1_555
Al2_0 Ni0_4 2.499642 1_455
Al2_0 Al3_0 2.647981 1_555
Al2_0 Al4_0 3.075516 1_555
Al2_0 Pr0_6 3.324126 1_555
Al2_0 Pr0_2 3.324130 1_555
Al2_0 Pr0_3 3.521548 1_555
Al2_1 Ni1_3 2.389928 1_555
Al2_1 Ni0_1 2.499640 1_555
Al2_1 Ni0_5 2.499642 1_455
Al2_1 Al3_1 2.647981 1_555
Al2_1 Al4_1 3.075516 1_555
Al2_1 Pr0_7 3.324126 1_555
Al2_1 Pr0_3 3.324130 1_555
Al2_1 Pr0_2 3.521548 1_556
Al2_2 Ni1_0 2.389928 1_565
Al2_2 Ni0_2 2.499640 1_555
Al2_2 Ni0_6 2.499642 1_455
Al2_2 Al3_2 2.647981 1_555
Al2_2 Al4_2 3.075516 1_555
Al2_2 Pr0_4 3.324126 1_565
Al2_2 Pr0_0 3.324130 1_565
Al2_2 Pr0_1 3.521548 1_565
Al2_3 Ni1_1 2.389928 1_565
Al2_3 Ni0_3 2.499640 1_555
Al2_3 Ni0_7 2.499642 1_455
Al2_3 Al3_3 2.647981 1_555
Al2_3 Al4_3 3.075516 1_555
Al2_3 Pr0_5 3.324126 1_565
Al2_3 Pr0_1 3.324130 1_565
Al2_3 Pr0_0 3.521548 1_566
Al2_4 Ni1_6 2.389928 1_555
Al2_4 Ni0_4 2.499640 1_555
Al2_4 Ni0_0 2.499642 1_555
Al2_4 Al3_4 2.647981 1_555
Al2_4 Al4_4 3.075516 1_555
Al2_4 Pr0_2 3.324126 1_655
Al2_4 Pr0_6 3.324130 1_555
Al2_4 Pr0_7 3.521548 1_555
Al2_5 Ni1_7 2.389928 1_555
Al2_5 Ni0_5 2.499640 1_555
Al2_5 Ni0_1 2.499642 1_555
Al2_5 Al3_5 2.647981 1_555
Al2_5 Al4_5 3.075516 1_555
Al2_5 Pr0_3 3.324126 1_655
Al2_5 Pr0_7 3.324130 1_555
Al2_5 Pr0_6 3.521548 1_556
Al2_6 Ni1_4 2.389928 1_565
Al2_6 Ni0_6 2.499640 1_555
Al2_6 Ni0_2 2.499642 1_555
Al2_6 Al3_6 2.647981 1_555
Al2_6 Al4_6 3.075516 1_555
Al2_6 Pr0_0 3.324126 1_665
Al2_6 Pr0_4 3.324130 1_565
Al2_6 Pr0_5 3.521548 1_565
Al2_7 Ni1_5 2.389928 1_565
Al2_7 Ni0_7 2.499640 1_555
Al2_7 Ni0_3 2.499642 1_555
Al2_7 Al3_7 2.647981 1_555
Al2_7 Al4_7 3.075516 1_555
Al2_7 Pr0_1 3.324126 1_665
Al2_7 Pr0_5 3.324130 1_565
Al2_7 Pr0_4 3.521548 1_566
Al3_0 Ni1_1 2.389928 1_555
Al3_0 Ni0_0 2.499639 1_555
Al3_0 Ni0_4 2.499643 1_455
Al3_0 Al4_1 2.767195 1_555
Al3_0 Al4_5 2.767200 1_455
Al3_0 Pr0_5 3.324127 1_555
Al3_0 Pr0_1 3.324129 1_555
Al3_0 Pr0_3 3.521548 1_555
Al3_1 Ni1_0 2.389928 1_556
Al3_1 Ni0_1 2.499639 1_555
Al3_1 Ni0_5 2.499643 1_455
Al3_1 Al4_0 2.767195 1_556
Al3_1 Al4_4 2.767200 1_456
Al3_1 Pr0_4 3.324127 1_556
Al3_1 Pr0_0 3.324129 1_556
Al3_1 Pr0_2 3.521548 1_556
Al3_2 Ni1_3 2.389928 1_555
Al3_2 Ni0_2 2.499639 1_555
Al3_2 Ni0_6 2.499643 1_455
Al3_2 Al4_3 2.767195 1_555
Al3_2 Al4_7 2.767200 1_455
Al3_2 Pr0_7 3.324127 1_555
Al3_2 Pr0_3 3.324129 1_555
Al3_2 Pr0_1 3.521548 1_565
Al3_3 Ni1_2 2.389928 1_556
Al3_3 Ni0_3 2.499639 1_555
Al3_3 Ni0_7 2.499643 1_455
Al3_3 Al4_2 2.767195 1_556
Al3_3 Al4_6 2.767200 1_456
Al3_3 Pr0_6 3.324127 1_556
Al3_3 Pr0_2 3.324129 1_556
Al3_3 Pr0_0 3.521548 1_566
Al3_4 Ni1_5 2.389928 1_555
Al3_4 Ni0_4 2.499639 1_555
Al3_4 Ni0_0 2.499643 1_555
Al3_4 Al4_5 2.767195 1_555
Al3_4 Al4_1 2.767200 1_555
Al3_4 Pr0_1 3.324127 1_655
Al3_4 Pr0_5 3.324129 1_555
Al3_4 Pr0_7 3.521548 1_555
Al3_5 Ni1_4 2.389928 1_556
Al3_5 Ni0_5 2.499639 1_555
Al3_5 Ni0_1 2.499643 1_555
Al3_5 Al4_4 2.767195 1_556
Al3_5 Al4_0 2.767200 1_556
Al3_5 Pr0_0 3.324127 1_656
Al3_5 Pr0_4 3.324129 1_556
Al3_5 Pr0_6 3.521548 1_556
Al3_6 Ni1_7 2.389928 1_555
Al3_6 Ni0_6 2.499639 1_555
Al3_6 Ni0_2 2.499643 1_555
Al3_6 Al4_7 2.767195 1_555
Al3_6 Al4_3 2.767200 1_555
Al3_6 Pr0_3 3.324127 1_655
Al3_6 Pr0_7 3.324129 1_555
Al3_6 Pr0_5 3.521548 1_565
Al3_7 Ni1_6 2.389928 1_556
Al3_7 Ni0_7 2.499639 1_555
Al3_7 Ni0_3 2.499643 1_555
Al3_7 Al4_6 2.767195 1_556
Al3_7 Al4_2 2.767200 1_556
Al3_7 Pr0_2 3.324127 1_656
Al3_7 Pr0_6 3.324129 1_556
Al3_7 Pr0_4 3.521548 1_566
Al4_0 Ni0_1 2.389928 1_554
Al4_0 Ni1_0 2.499639 1_555
Al4_0 Ni1_4 2.499643 1_555
Al4_0 Pr0_2 3.324127 1_555
Al4_0 Pr0_6 3.324129 1_555
Al4_0 Pr0_4 3.521548 1_555
Al4_1 Ni0_0 2.389928 1_555
Al4_1 Ni1_1 2.499639 1_555
Al4_1 Ni1_5 2.499643 1_555
Al4_1 Pr0_3 3.324127 1_555
Al4_1 Pr0_7 3.324129 1_555
Al4_1 Pr0_5 3.521548 1_555
Al4_2 Ni0_3 2.389928 1_554
Al4_2 Ni1_2 2.499639 1_555
Al4_2 Ni1_6 2.499643 1_555
Al4_2 Pr0_0 3.324127 1_565
Al4_2 Pr0_4 3.324129 1_565
Al4_2 Pr0_6 3.521548 1_555
Al4_3 Ni0_2 2.389928 1_555
Al4_3 Ni1_3 2.499639 1_555
Al4_3 Ni1_7 2.499643 1_555
Al4_3 Pr0_1 3.324127 1_565
Al4_3 Pr0_5 3.324129 1_565
Al4_3 Pr0_7 3.521548 1_555
Al4_4 Ni0_5 2.389928 1_554
Al4_4 Ni1_4 2.499639 1_555
Al4_4 Ni1_0 2.499643 1_655
Al4_4 Pr0_6 3.324127 1_555
Al4_4 Pr0_2 3.324129 1_655
Al4_4 Pr0_0 3.521548 1_655
Al4_5 Ni0_4 2.389928 1_555
Al4_5 Ni1_5 2.499639 1_555
Al4_5 Ni1_1 2.499643 1_655
Al4_5 Pr0_7 3.324127 1_555
Al4_5 Pr0_3 3.324129 1_655
Al4_5 Pr0_1 3.521548 1_655
Al4_6 Ni0_7 2.389928 1_554
Al4_6 Ni1_6 2.499639 1_555
Al4_6 Ni1_2 2.499643 1_655
Al4_6 Pr0_4 3.324127 1_565
Al4_6 Pr0_0 3.324129 1_665
Al4_6 Pr0_2 3.521548 1_655
Al4_7 Ni0_6 2.389928 1_555
Al4_7 Ni1_7 2.499639 1_555
Al4_7 Ni1_3 2.499643 1_655
Al4_7 Pr0_5 3.324127 1_565
Al4_7 Pr0_1 3.324129 1_665
Al4_7 Pr0_3 3.521548 1_655
Ni0_0 Pr0_3 3.218057 1_555
Ni0_0 Pr0_7 3.218058 1_555
Ni0_1 Pr0_2 3.218057 1_556
Ni0_1 Pr0_6 3.218058 1_556
Ni0_2 Pr0_1 3.218057 1_565
Ni0_2 Pr0_5 3.218058 1_565
Ni0_3 Pr0_0 3.218057 1_566
Ni0_3 Pr0_4 3.218058 1_566
Ni0_4 Pr0_7 3.218057 1_555
Ni0_4 Pr0_3 3.218058 1_655
Ni0_5 Pr0_6 3.218057 1_556
Ni0_5 Pr0_2 3.218058 1_656
Ni0_6 Pr0_5 3.218057 1_565
Ni0_6 Pr0_1 3.218058 1_665
Ni0_7 Pr0_4 3.218057 1_566
Ni0_7 Pr0_0 3.218058 1_666
Ni1_0 Pr0_4 3.218057 1_555
Ni1_0 Pr0_0 3.218058 1_555
Ni1_1 Pr0_5 3.218057 1_555
Ni1_1 Pr0_1 3.218058 1_555
Ni1_2 Pr0_6 3.218057 1_555
Ni1_2 Pr0_2 3.218058 1_555
Ni1_3 Pr0_7 3.218057 1_555
Ni1_3 Pr0_3 3.218058 1_555
Ni1_4 Pr0_0 3.218057 1_655
Ni1_4 Pr0_4 3.218058 1_555
Ni1_5 Pr0_1 3.218057 1_655
Ni1_5 Pr0_5 3.218058 1_555
Ni1_6 Pr0_2 3.218057 1_655
Ni1_6 Pr0_6 3.218058 1_555
Ni1_7 Pr0_3 3.218057 1_655
Ni1_7 Pr0_7 3.218058 1_555
