# generated using pymatgen
data_SmYFe6
_symmetry_space_group_name_H-M   'P 1'
_cell_length_a   5.15430469
_cell_length_b   5.15430500
_cell_length_c   16.68987293
_cell_angle_alpha   81.11718142
_cell_angle_beta   89.99999743
_cell_angle_gamma   119.99999557
_symmetry_Int_Tables_number   1
_chemical_formula_structural   SmYFe6
_chemical_formula_sum   'Sm3 Y3 Fe18'
_cell_volume   377.84031838
_cell_formula_units_Z   3
loop_
 _symmetry_equiv_pos_site_id
 _symmetry_equiv_pos_as_xyz
  1  'x, y, z'
loop_
 _atom_site_type_symbol
 _atom_site_label
 _atom_site_symmetry_multiplicity
 _atom_site_fract_x
 _atom_site_fract_y
 _atom_site_fract_z
 _atom_site_occupancy
  Sm  Sm0  1  0.57096000  0.14192100  0.28711900  1
  Sm  Sm1  1  0.07105200  0.14210400  0.78684400  1
  Sm  Sm2  1  0.92897700  0.85795300  0.21307000  1
  Y  Y0  1  0.42906500  0.85813000  0.71280400  1
  Y  Y1  1  0.00007400  0.00014800  0.99977700  1
  Y  Y2  1  0.49975400  0.99950900  0.50073700  1
  Fe  Fe0  1  0.04063700  0.57912500  0.38023900  1
  Fe  Fe1  1  0.54084400  0.58006900  0.87908600  1
  Fe  Fe2  1  0.53848800  0.57912500  0.38023900  1
  Fe  Fe3  1  0.03922500  0.58006900  0.87908600  1
  Fe  Fe4  1  0.04063700  0.08127300  0.38023900  1
  Fe  Fe5  1  0.54084400  0.08168900  0.87908600  1
  Fe  Fe6  1  0.45931700  0.42090200  0.11978100  1
  Fe  Fe7  1  0.95965200  0.41948800  0.62086000  1
  Fe  Fe8  1  0.96158400  0.42090200  0.11978100  1
  Fe  Fe9  1  0.45983600  0.41948800  0.62086000  1
  Fe  Fe10  1  0.45931700  0.91863500  0.11978100  1
  Fe  Fe11  1  0.95965200  0.91930400  0.62086000  1
  Fe  Fe12  1  0.66639800  0.33279700  0.00080500  1
  Fe  Fe13  1  0.16613500  0.33227100  0.50159400  1
  Fe  Fe14  1  0.83354900  0.66709900  0.49935200  1
  Fe  Fe15  1  0.33387000  0.66774000  0.99839000  1
  Fe  Fe16  1  0.24997000  0.49993900  0.25009100  1
  Fe  Fe17  1  0.75016000  0.50032000  0.74952000  1
loop_
_geom_bond_atom_site_label_1
_geom_bond_atom_site_label_2
_geom_bond_distance
_geom_bond_site_symmetry_2
Sm1 Y1 3.496878 1_555
Sm2 Y1 3.502790 1_664
Fe0 Fe14 2.461586 1_455
Fe0 Fe13 2.483292 1_555
Fe0 Fe2 2.566076 1_555
Fe0 Fe4 2.566081 1_555
Fe0 Fe4 2.588224 1_565
Fe0 Fe2 2.588229 1_455
Fe0 Fe16 2.600611 1_555
Fe0 Sm0 2.996726 1_565
Fe0 Sm0 2.996731 1_455
Fe0 Sm2 3.125660 1_455
Fe0 Y2 3.249257 1_555
Fe0 Y2 3.249261 1_445
Fe1 Fe15 2.463123 1_555
Fe1 Fe12 2.489029 1_556
Fe1 Fe5 2.568803 1_555
Fe1 Fe3 2.568808 1_655
Fe1 Fe3 2.585497 1_555
Fe1 Fe5 2.585502 1_565
Fe1 Fe17 2.593660 1_555
Fe1 Sm1 2.989391 1_555
Fe1 Sm1 2.989396 1_665
Fe1 Y0 3.112119 1_555
Fe1 Y1 3.251187 1_665
Fe1 Y1 3.251187 1_555
Fe2 Fe4 2.566079 1_555
Fe2 Fe4 2.588227 1_665
Fe2 Sm0 2.996729 1_555
Fe2 Sm0 2.996729 1_565
Fe2 Sm2 3.125662 1_555
Fe2 Y2 3.249259 1_555
Fe2 Y2 3.249259 1_545
Fe3 Fe5 2.568805 1_455
Fe3 Fe5 2.585500 1_565
Fe3 Sm1 2.989391 1_555
Fe3 Sm1 2.989396 1_565
Fe3 Y0 3.112119 1_555
Fe3 Y1 3.251187 1_565
Fe3 Y1 3.251187 1_555
Fe4 Sm0 2.996724 1_555
Fe4 Sm0 2.996733 1_455
Fe4 Sm2 3.125662 1_445
Fe4 Y2 3.249255 1_545
Fe4 Y2 3.249263 1_445
Fe5 Sm1 2.989391 1_555
Fe5 Sm1 2.989395 1_655
Fe5 Y0 3.112121 1_545
Fe5 Y1 3.251185 1_555
Fe5 Y1 3.251189 1_655
Fe6 Fe8 2.565468 1_455
Fe6 Fe8 2.588837 1_555
Fe6 Sm2 2.998147 1_555
Fe6 Sm2 2.998147 1_445
Fe6 Sm0 3.128268 1_555
Fe6 Y1 3.244323 1_664
Fe6 Y1 3.244327 1_554
Fe7 Fe9 2.576204 1_555
Fe7 Fe9 2.578101 1_655
Fe7 Y0 2.986910 1_655
Fe7 Y0 2.986915 1_545
Fe7 Sm1 3.105777 1_655
Fe7 Y2 3.245506 1_545
Fe7 Y2 3.245506 1_655
Fe8 Sm2 2.998142 1_555
Fe8 Sm2 2.998151 1_545
Fe8 Sm0 3.128268 1_555
Fe8 Y1 3.244321 1_664
Fe8 Y1 3.244329 1_654
Fe9 Y0 2.986910 1_555
Fe9 Y0 2.986915 1_545
Fe9 Sm1 3.105777 1_555
Fe9 Y2 3.245504 1_545
Fe9 Y2 3.245508 1_555
Fe10 Fe12 2.460011 1_565
Fe10 Fe15 2.483558 1_554
Fe10 Fe6 2.565468 1_555
Fe10 Fe8 2.565468 1_455
Fe10 Fe6 2.588837 1_565
Fe10 Fe8 2.588837 1_565
Fe10 Fe16 2.602598 1_555
Fe10 Sm2 2.998142 1_455
Fe10 Sm2 2.998151 1_555
Fe10 Sm0 3.128268 1_565
Fe10 Y1 3.244323 1_564
Fe10 Y1 3.244327 1_664
Fe11 Fe13 2.460041 1_665
Fe11 Fe14 2.488799 1_555
Fe11 Fe7 2.576204 1_555
Fe11 Fe9 2.576204 1_555
Fe11 Fe7 2.578101 1_565
Fe11 Fe9 2.578101 1_665
Fe11 Fe17 2.583924 1_555
Fe11 Y0 2.986912 1_555
Fe11 Y0 2.986912 1_655
Fe11 Sm1 3.105777 1_665
Fe11 Y2 3.245503 1_655
Fe11 Y2 3.245508 1_555
Fe12 Fe6 2.460011 1_555
Fe12 Fe8 2.460011 1_555
Fe12 Fe3 2.489032 1_654
Fe12 Fe5 2.489032 1_554
Fe12 Y1 2.975883 1_664
Fe12 Y1 2.975887 1_554
Fe12 Y1 2.975892 1_654
Fe13 Fe7 2.460038 1_455
Fe13 Fe9 2.460041 1_555
Fe13 Fe2 2.483294 1_555
Fe13 Fe4 2.483294 1_555
Fe13 Y2 2.975873 1_545
Fe13 Y2 2.975873 1_445
Fe13 Y2 2.975873 1_555
Fe14 Fe2 2.461583 1_555
Fe14 Fe4 2.461583 1_665
Fe14 Fe9 2.488799 1_555
Fe14 Fe7 2.488801 1_555
Fe14 Y2 2.975926 1_555
Fe14 Y2 2.975926 1_655
Fe14 Y2 2.975926 1_545
Fe15 Fe3 2.463123 1_555
Fe15 Fe5 2.463123 1_565
Fe15 Fe6 2.483556 1_556
Fe15 Fe8 2.483558 1_456
Fe15 Y1 2.975925 1_565
Fe15 Y1 2.975925 1_665
Fe15 Y1 2.975930 1_555
Fe16 Fe2 2.600609 1_555
Fe16 Fe4 2.600609 1_555
Fe16 Fe6 2.602592 1_555
Fe16 Fe8 2.602597 1_455
Fe16 Sm2 3.037310 1_455
Fe16 Sm2 3.037310 1_555
Fe16 Sm2 3.037310 1_445
Fe16 Sm0 3.037327 1_555
Fe16 Sm0 3.037336 1_455
Fe16 Sm0 3.037336 1_565
Fe17 Fe7 2.583924 1_555
Fe17 Fe9 2.583924 1_555
Fe17 Fe3 2.593660 1_655
Fe17 Fe5 2.593660 1_555
Fe17 Y0 3.036310 1_555
Fe17 Y0 3.036310 1_655
Fe17 Y0 3.036315 1_545
Fe17 Sm1 3.038310 1_655
Fe17 Sm1 3.038310 1_555
Fe17 Sm1 3.038310 1_665
