# generated using pymatgen
data_BiO2
_symmetry_space_group_name_H-M   'P 1'
_cell_length_a   7.01909394
_cell_length_b   7.01909394
_cell_length_c   7.01909394
_cell_angle_alpha   123.50547108
_cell_angle_beta   116.97456138
_cell_angle_gamma   89.67848486
_symmetry_Int_Tables_number   1
_chemical_formula_structural   BiO2
_chemical_formula_sum   'Bi4 O8'
_cell_volume   242.63956358
_cell_formula_units_Z   4
loop_
 _symmetry_equiv_pos_site_id
 _symmetry_equiv_pos_as_xyz
  1  'x, y, z'
loop_
 _atom_site_type_symbol
 _atom_site_label
 _atom_site_symmetry_multiplicity
 _atom_site_fract_x
 _atom_site_fract_y
 _atom_site_fract_z
 _atom_site_occupancy
  Bi  Bi0  1  0.00000000  0.00000000  0.50000000  1
  Bi  Bi1  1  0.50000000  0.00000000  0.50000000  1
  Bi  Bi2  1  0.00000000  0.50000000  0.00000000  1
  Bi  Bi3  1  0.00000000  0.00000000  0.00000000  1
  O  O0  1  0.20503000  0.75760900  0.44742000  1
  O  O1  1  0.21239900  0.19154200  0.47914300  1
  O  O2  1  0.21239900  0.73325500  0.02085700  1
  O  O3  1  0.81018900  0.75760900  0.05258000  1
  O  O4  1  0.18981100  0.24239100  0.94742000  1
  O  O5  1  0.78760100  0.26674500  0.97914300  1
  O  O6  1  0.78760100  0.80845800  0.52085700  1
  O  O7  1  0.79497000  0.24239100  0.55258000  1
loop_
_geom_bond_atom_site_label_1
_geom_bond_atom_site_label_2
_geom_bond_distance
_geom_bond_site_symmetry_2
Bi0 O1 2.118822 1_555
Bi0 O6 2.118822 1_445
Bi0 O3 2.205228 1_445
Bi0 O4 2.205228 1_555
Bi0 O0 2.205233 1_545
Bi0 O7 2.205233 1_455
Bi1 O6 2.413061 1_545
Bi1 O1 2.413061 1_555
Bi1 O2 2.413061 1_545
Bi1 O5 2.413061 1_555
Bi1 O7 2.443480 1_555
Bi1 O0 2.443480 1_545
Bi2 O5 2.118817 1_454
Bi2 O2 2.118817 1_555
Bi2 O3 2.205228 1_455
Bi2 O4 2.205228 1_554
Bi2 O0 2.205228 1_555
Bi2 O7 2.205228 1_454
Bi3 O6 2.413061 1_444
Bi3 O1 2.413061 1_555
Bi3 O2 2.413066 1_545
Bi3 O5 2.413066 1_454
Bi3 O3 2.443486 1_445
Bi3 O4 2.443486 1_554
