# generated using pymatgen
data_Mn2Zn(PO4)2
_symmetry_space_group_name_H-M   'P 1'
_cell_length_a   8.64910266
_cell_length_b   8.64910266
_cell_length_c   17.44914105
_cell_angle_alpha   63.78635333
_cell_angle_beta   63.78635333
_cell_angle_gamma   33.52587268
_symmetry_Int_Tables_number   1
_chemical_formula_structural   Mn2Zn(PO4)2
_chemical_formula_sum   'Mn8 Zn4 P8 O32'
_cell_volume   639.64521881
_cell_formula_units_Z   4
loop_
 _symmetry_equiv_pos_site_id
 _symmetry_equiv_pos_as_xyz
  1  'x, y, z'
loop_
 _atom_site_type_symbol
 _atom_site_label
 _atom_site_symmetry_multiplicity
 _atom_site_fract_x
 _atom_site_fract_y
 _atom_site_fract_z
 _atom_site_occupancy
  Mn  Mn0  1  0.57555100  0.68563700  0.03215000  1
  Mn  Mn1  1  0.31436300  0.42444900  0.46785000  1
  Mn  Mn2  1  0.42444900  0.31436300  0.96785000  1
  Mn  Mn3  1  0.00000000  0.00000000  0.00000000  1
  Mn  Mn4  1  0.68563700  0.57555100  0.53215000  1
  Mn  Mn5  1  0.66848300  0.33151700  0.75000000  1
  Mn  Mn6  1  0.33151700  0.66848300  0.25000000  1
  Mn  Mn7  1  0.00000000  0.00000000  0.50000000  1
  Zn  Zn0  1  0.70881800  0.80872700  0.15792500  1
  Zn  Zn1  1  0.19127300  0.29118200  0.34207500  1
  Zn  Zn2  1  0.80872700  0.70881800  0.65792500  1
  Zn  Zn3  1  0.29118200  0.19127300  0.84207500  1
  P  P0  1  0.36430000  0.43155700  0.13627700  1
  P  P1  1  0.80204900  0.88393500  0.38199400  1
  P  P2  1  0.63570000  0.56844300  0.86372300  1
  P  P3  1  0.88393500  0.80204900  0.88199400  1
  P  P4  1  0.43155700  0.36430000  0.63627700  1
  P  P5  1  0.56844300  0.63570000  0.36372300  1
  P  P6  1  0.19795100  0.11606500  0.61800600  1
  P  P7  1  0.11606500  0.19795100  0.11800600  1
  O  O0  1  0.94020700  0.30290000  0.88982300  1
  O  O1  1  0.37449000  0.12040600  0.08467100  1
  O  O2  1  0.30290000  0.94020700  0.38982300  1
  O  O3  1  0.89864900  0.87388700  0.44345700  1
  O  O4  1  0.42456800  0.73559500  0.94230800  1
  O  O5  1  0.94568100  0.85840300  0.28927600  1
  O  O6  1  0.12611300  0.10135100  0.05654300  1
  O  O7  1  0.16864700  0.47134200  0.88995400  1
  O  O8  1  0.10135100  0.12611300  0.55654300  1
  O  O9  1  0.87959400  0.62551000  0.41532900  1
  O  O10  1  0.55009900  0.47468700  0.85561000  1
  O  O11  1  0.24417000  0.38598100  0.71784700  1
  O  O12  1  0.62551000  0.87959400  0.91532900  1
  O  O13  1  0.47134200  0.16864700  0.38995400  1
  O  O14  1  0.05979300  0.69710000  0.11017700  1
  O  O15  1  0.44990100  0.52531300  0.14439000  1
  O  O16  1  0.38598100  0.24417000  0.21784700  1
  O  O17  1  0.87388700  0.89864900  0.94345700  1
  O  O18  1  0.47468700  0.55009900  0.35561000  1
  O  O19  1  0.75583000  0.61401900  0.28215300  1
  O  O20  1  0.52865800  0.83135300  0.61004600  1
  O  O21  1  0.73559500  0.42456800  0.44230800  1
  O  O22  1  0.83135300  0.52865800  0.11004600  1
  O  O23  1  0.85840300  0.94568100  0.78927600  1
  O  O24  1  0.12040600  0.37449000  0.58467100  1
  O  O25  1  0.69710000  0.05979300  0.61017700  1
  O  O26  1  0.61401900  0.75583000  0.78215300  1
  O  O27  1  0.26440500  0.57543200  0.55769200  1
  O  O28  1  0.57543200  0.26440500  0.05769200  1
  O  O29  1  0.14159700  0.05431900  0.21072400  1
  O  O30  1  0.05431900  0.14159700  0.71072400  1
  O  O31  1  0.52531300  0.44990100  0.64439000  1
loop_
_geom_bond_atom_site_label_1
_geom_bond_atom_site_label_2
_geom_bond_distance
_geom_bond_site_symmetry_2
Mn0 O12 2.136708 1_554
Mn0 O22 2.145663 1_555
Mn0 O4 2.149169 1_554
Mn0 O6 2.192490 1_565
Mn0 O15 2.274324 1_555
Mn1 O24 2.136708 1_555
Mn1 O13 2.145663 1_555
Mn1 O27 2.149169 1_555
Mn1 O3 2.192490 1_455
Mn1 O18 2.274324 1_555
Mn2 O1 2.136708 1_556
Mn2 O7 2.145663 1_555
Mn2 O28 2.149169 1_556
Mn2 O17 2.192490 1_545
Mn2 O10 2.274324 1_555
Mn3 O28 2.120029 1_455
Mn3 O4 2.120029 1_544
Mn3 O0 2.235348 1_454
Mn3 O14 2.235348 1_545
Mn3 O17 2.498118 1_444
Mn3 O6 2.498118 1_555
Mn4 O9 2.136708 1_555
Mn4 O20 2.145663 1_555
Mn4 O21 2.149169 1_555
Mn4 O8 2.192490 1_655
Mn4 O31 2.274324 1_555
Mn5 O30 2.034449 1_655
Mn5 O23 2.034449 1_545
Mn5 O31 2.052500 1_555
Mn5 O10 2.052500 1_555
Mn6 O29 2.034449 1_565
Mn6 O5 2.034449 1_455
Mn6 O18 2.052500 1_555
Mn6 O15 2.052500 1_555
Mn7 O27 2.120029 1_545
Mn7 O21 2.120029 1_455
Mn7 O25 2.235348 1_455
Mn7 O2 2.235348 1_545
Mn7 O3 2.498118 1_445
Mn7 O8 2.498118 1_555
O0 P2 1.571367 1_555
O0 Zn3 2.105016 1_655
O1 P7 1.575027 1_555
O1 Zn0 2.118271 1_545
O2 P5 1.571367 1_555
O2 Zn1 2.105016 1_565
O3 P1 1.563341 1_555
O4 P2 1.562881 1_555
O5 P1 1.513985 1_555
O6 P7 1.563341 1_555
O7 P3 1.572359 1_455
O7 Zn3 2.101019 1_555
O8 P6 1.563341 1_555
O9 P1 1.575027 1_555
O9 Zn1 2.118271 1_655
O10 P2 1.555876 1_555
O11 P4 1.542374 1_555
O11 Zn3 2.027852 1_555
O11 Zn2 2.537807 1_455
O12 P3 1.575027 1_555
O12 Zn3 2.118271 1_565
O13 P1 1.572359 1_545
O13 Zn1 2.101019 1_555
O14 P0 1.571367 1_555
O14 Zn0 2.105016 1_455
O15 P0 1.555876 1_555
O16 P0 1.542374 1_555
O16 Zn1 2.027852 1_555
O16 Zn0 2.537807 1_545
O17 P3 1.563341 1_555
O18 P5 1.555876 1_555
O19 P5 1.542374 1_555
O19 Zn0 2.027852 1_555
O19 Zn1 2.537807 1_655
O20 P6 1.572359 1_565
O20 Zn2 2.101019 1_555
O21 P5 1.562881 1_555
O22 P7 1.572359 1_655
O22 Zn0 2.101019 1_555
O23 P3 1.513985 1_555
O24 P6 1.575027 1_555
O24 Zn2 2.118271 1_455
O25 P4 1.571367 1_555
O25 Zn2 2.105016 1_545
O26 P2 1.542374 1_555
O26 Zn2 2.027852 1_555
O26 Zn3 2.537807 1_565
O27 P4 1.562881 1_555
O28 P0 1.562881 1_555
O29 P7 1.513985 1_555
O30 P6 1.513985 1_555
O31 P4 1.555876 1_555
