# generated using pymatgen
data_Zn3P2Pb3WO14
_symmetry_space_group_name_H-M   'P 1'
_cell_length_a   8.54089385
_cell_length_b   8.54089385
_cell_length_c   5.23524800
_cell_angle_alpha   90.00000000
_cell_angle_beta   90.00000000
_cell_angle_gamma   119.99999883
_symmetry_Int_Tables_number   1
_chemical_formula_structural   Zn3P2Pb3WO14
_chemical_formula_sum   'Zn3 P2 Pb3 W1 O14'
_cell_volume   330.73072647
_cell_formula_units_Z   1
loop_
 _symmetry_equiv_pos_site_id
 _symmetry_equiv_pos_as_xyz
  1  'x, y, z'
loop_
 _atom_site_type_symbol
 _atom_site_label
 _atom_site_symmetry_multiplicity
 _atom_site_fract_x
 _atom_site_fract_y
 _atom_site_fract_z
 _atom_site_occupancy
  Zn  Zn0  1  0.74900300  0.74900300  0.50000000  1
  Zn  Zn1  1  0.00000000  0.25099700  0.50000000  1
  Zn  Zn2  1  0.25099700  0.00000000  0.50000000  1
  P  P0  1  0.33333300  0.66666700  0.45511300  1
  P  P1  1  0.66666700  0.33333300  0.54488700  1
  Pb  Pb0  1  0.00000000  0.59398800  0.00000000  1
  Pb  Pb1  1  0.59398800  0.00000000  0.00000000  1
  Pb  Pb2  1  0.40601200  0.40601200  0.00000000  1
  W  W0  1  0.00000000  0.00000000  0.00000000  1
  O  O0  1  0.91071700  0.78457000  0.21449200  1
  O  O1  1  0.87385400  0.08928300  0.21449200  1
  O  O2  1  0.21543000  0.12614600  0.21449200  1
  O  O3  1  0.12614600  0.21543000  0.78550800  1
  O  O4  1  0.08928300  0.87385400  0.78550800  1
  O  O5  1  0.78457000  0.91071700  0.78550800  1
  O  O6  1  0.33333300  0.66666700  0.74859300  1
  O  O7  1  0.66666700  0.33333300  0.25140700  1
  O  O8  1  0.52254200  0.71859800  0.33825300  1
  O  O9  1  0.19605700  0.47745800  0.33825300  1
  O  O10  1  0.28140200  0.80394300  0.33825300  1
  O  O11  1  0.80394300  0.28140200  0.66174700  1
  O  O12  1  0.47745800  0.19605700  0.66174700  1
  O  O13  1  0.71859800  0.52254200  0.66174700  1
loop_
_geom_bond_atom_site_label_1
_geom_bond_atom_site_label_2
_geom_bond_distance
_geom_bond_site_symmetry_2
O0 Zn0 1.953079 1_555
O0 W0 1.955718 1_665
O0 Pb0 2.394415 1_655
O1 Zn1 1.953078 1_655
O1 W0 1.955711 1_655
O1 Pb1 2.394422 1_555
O2 Zn2 1.953074 1_555
O2 W0 1.955717 1_555
O2 Pb2 2.394421 1_555
O3 Zn1 1.953074 1_555
O3 W0 1.955717 1_556
O3 Pb2 2.394421 1_556
O4 Zn2 1.953078 1_565
O4 W0 1.955711 1_566
O4 Pb0 2.394422 1_556
O5 Zn0 1.953079 1_555
O5 W0 1.955718 1_666
O5 Pb1 2.394415 1_566
O6 P0 1.536441 1_555
O7 P1 1.536441 1_555
O8 P0 1.570271 1_555
O8 Zn0 2.005805 1_555
O9 P0 1.570268 1_555
O9 Zn1 2.005808 1_555
O10 P0 1.570256 1_555
O10 Zn2 2.005813 1_565
O11 P1 1.570256 1_555
O11 Zn1 2.005813 1_655
O12 P1 1.570268 1_555
O12 Zn2 2.005808 1_555
O13 P1 1.570271 1_555
O13 Zn0 2.005805 1_555
