# generated using pymatgen
data_Sr3Ca(CuO3)2
_symmetry_space_group_name_H-M   'P 1'
_cell_length_a   6.80543418
_cell_length_b   6.80543418
_cell_length_c   6.96655439
_cell_angle_alpha   75.18252700
_cell_angle_beta   75.18252700
_cell_angle_gamma   33.62898999
_symmetry_Int_Tables_number   1
_chemical_formula_structural   Sr3Ca(CuO3)2
_chemical_formula_sum   'Sr3 Ca1 Cu2 O6'
_cell_volume   172.19191211
_cell_formula_units_Z   1
loop_
 _symmetry_equiv_pos_site_id
 _symmetry_equiv_pos_as_xyz
  1  'x, y, z'
loop_
 _atom_site_type_symbol
 _atom_site_label
 _atom_site_symmetry_multiplicity
 _atom_site_fract_x
 _atom_site_fract_y
 _atom_site_fract_z
 _atom_site_occupancy
  Sr  Sr0  1  0.14742100  0.14742100  0.67634100  1
  Sr  Sr1  1  0.85238400  0.85238400  0.82658000  1
  Sr  Sr2  1  0.85173400  0.85173400  0.32165800  1
  Ca  Ca0  1  0.14586600  0.14586600  0.17701700  1
  Cu  Cu0  1  0.49939500  0.49939500  0.00615100  1
  Cu  Cu1  1  0.50098800  0.50098800  0.49363800  1
  O  O0  1  0.34538400  0.34538400  0.57793200  1
  O  O1  1  0.33996500  0.33996500  0.07951900  1
  O  O2  1  0.65497700  0.65497700  0.41163000  1
  O  O3  1  0.65496800  0.65496800  0.93326800  1
  O  O4  1  0.00373600  0.00373600  0.49052700  1
  O  O5  1  0.00318100  0.00318100  0.00573800  1
loop_
_geom_bond_atom_site_label_1
_geom_bond_atom_site_label_2
_geom_bond_distance
_geom_bond_site_symmetry_2
Ca0 O1 2.436987 1_555
Ca0 O4 2.457301 1_555
Ca0 O5 2.462736 1_555
Ca0 O2 2.581607 1_545
Ca0 O2 2.581607 1_455
Ca0 O3 2.581763 1_454
Ca0 O3 2.581763 1_544
Cu0 O3 1.953569 1_554
Cu0 O5 1.969236 1_565
Cu0 O5 1.969236 1_655
Cu0 O1 2.002182 1_555
Cu1 O2 1.933711 1_555
Cu1 O0 1.954198 1_555
Cu1 O4 1.968975 1_565
Cu1 O4 1.968975 1_655
O0 Sr0 2.485501 1_555
O0 Sr1 2.639856 1_545
O0 Sr1 2.639856 1_455
O0 Sr2 2.644032 1_455
O0 Sr2 2.644032 1_545
O1 Sr1 2.618091 1_544
O1 Sr1 2.618091 1_454
O1 Sr2 2.623507 1_455
O1 Sr2 2.623507 1_545
O2 Sr2 2.471040 1_555
O2 Sr0 2.681231 1_565
O2 Sr0 2.681231 1_655
O3 Sr1 2.479265 1_555
O3 Sr0 2.680105 1_565
O3 Sr0 2.680105 1_655
O4 Sr0 2.544637 1_555
O4 Sr2 2.559489 1_445
O4 Sr1 2.627307 1_445
O5 Sr2 2.533161 1_445
O5 Sr0 2.548213 1_554
O5 Sr1 2.593881 1_444
