# generated using pymatgen
data_Yb5Mg
_symmetry_space_group_name_H-M   'P 1'
_cell_length_a   6.00697175
_cell_length_b   6.00697175
_cell_length_c   5.56506258
_cell_angle_alpha   90.00000000
_cell_angle_beta   90.00000000
_cell_angle_gamma   119.99999469
_symmetry_Int_Tables_number   1
_chemical_formula_structural   Yb5Mg
_chemical_formula_sum   'Yb5 Mg1'
_cell_volume   173.90492721
_cell_formula_units_Z   1
loop_
 _symmetry_equiv_pos_site_id
 _symmetry_equiv_pos_as_xyz
  1  'x, y, z'
loop_
 _atom_site_type_symbol
 _atom_site_label
 _atom_site_symmetry_multiplicity
 _atom_site_fract_x
 _atom_site_fract_y
 _atom_site_fract_z
 _atom_site_occupancy
  Yb  Yb0  1  0.66666700  0.33333300  0.50000000  1
  Yb  Yb1  1  0.32483762  0.00000000  0.00000000  1
  Yb  Yb2  1  0.67516238  0.67516238  0.00000000  1
  Yb  Yb3  1  0.00000000  0.32483762  0.00000000  1
  Yb  Yb4  1  0.33333300  0.66666700  0.50000000  1
  Mg  Mg0  1  0.00000000  0.00000000  0.50000000  1
loop_
_geom_bond_atom_site_label_1
_geom_bond_atom_site_label_2
_geom_bond_distance
_geom_bond_site_symmetry_2
Yb0 Yb3 3.443335 1_656
Yb0 Yb3 3.443335 1_655
Yb0 Yb1 3.443337 1_555
Yb0 Yb1 3.443337 1_556
Yb0 Yb2 3.443339 1_556
Yb0 Yb2 3.443339 1_555
Yb0 Yb4 3.468123 1_655
Yb0 Yb4 3.468123 1_545
Yb0 Yb4 3.468134 1_555
Yb1 Yb3 3.379734 1_555
Yb1 Yb2 3.379734 1_445
Yb1 Yb4 3.443335 1_545
Yb1 Yb4 3.443335 1_544
Yb1 Yb2 3.513157 1_545
Yb1 Yb3 3.513157 1_655
Yb1 Yb3 3.513157 1_545
Yb1 Yb2 3.513157 1_555
Yb2 Yb3 3.379734 1_665
Yb2 Yb4 3.443339 1_554
Yb2 Yb4 3.443339 1_555
Yb2 Yb3 3.513157 1_655
Yb2 Yb3 3.513157 1_555
Yb3 Yb4 3.443337 1_554
Yb3 Yb4 3.443337 1_555
Mg0 Yb1 3.398531 1_556
Mg0 Yb1 3.398531 1_555
Mg0 Yb3 3.398531 1_556
Mg0 Yb3 3.398531 1_555
Mg0 Yb2 3.398531 1_445
Mg0 Yb2 3.398531 1_446
Mg0 Yb0 3.468123 1_455
Mg0 Yb4 3.468123 1_545
Mg0 Yb0 3.468129 1_555
Mg0 Yb4 3.468129 1_555
Mg0 Yb4 3.468129 1_445
Mg0 Yb0 3.468129 1_445
