# generated using pymatgen
data_Er5Ni2Bi
_symmetry_space_group_name_H-M   'P 1'
_cell_length_a   8.55751179
_cell_length_b   8.55752759
_cell_length_c   8.55663158
_cell_angle_alpha   127.51082018
_cell_angle_beta   127.51441396
_cell_angle_gamma   77.42382264
_symmetry_Int_Tables_number   1
_chemical_formula_structural   Er5Ni2Bi
_chemical_formula_sum   'Er10 Ni4 Bi2'
_cell_volume   382.41786552
_cell_formula_units_Z   2
loop_
 _symmetry_equiv_pos_site_id
 _symmetry_equiv_pos_as_xyz
  1  'x, y, z'
loop_
 _atom_site_type_symbol
 _atom_site_label
 _atom_site_symmetry_multiplicity
 _atom_site_fract_x
 _atom_site_fract_y
 _atom_site_fract_z
 _atom_site_occupancy
  Er  Er0  1  -0.00000484  -0.00004817  -0.00005443  1
  Er  Er1  1  0.50002790  0.49994699  -0.00002482  1
  Er  Er2  1  0.78862871  0.28860592  0.81102181  1
  Er  Er3  1  0.21149851  0.71144750  0.18907129  1
  Er  Er4  1  0.47760676  0.97755829  0.18901221  1
  Er  Er5  1  0.28843761  0.47767059  0.49994906  1
  Er  Er6  1  0.02228690  0.21150386  0.49997453  1
  Er  Er7  1  0.52243282  0.02240667  0.81104493  1
  Er  Er8  1  0.71143711  0.52231171  0.50000040  1
  Er  Er9  1  0.97768348  0.78853841  0.49997468  1
  Ni  Ni0  1  0.13198647  0.63208530  0.76406747  1
  Ni  Ni1  1  0.86777109  0.36794235  0.23577905  1
  Ni  Ni2  1  0.63216604  0.86801302  0.50014388  1
  Ni  Ni3  1  0.36802978  0.13204289  0.50005442  1
  Bi  Bi0  1  0.24995356  0.25004482  -0.00000225  1
  Bi  Bi1  1  0.75005809  0.74992986  -0.00001322  1
loop_
_geom_bond_atom_site_label_1
_geom_bond_atom_site_label_2
_geom_bond_distance
_geom_bond_site_symmetry_2
Er0 Ni2 2.957110 1_444
Er0 Ni0 2.958020 1_544
Er0 Ni3 2.958718 1_555
Er0 Ni1 2.959646 1_455
Er0 Er8 3.367555 1_444
Er0 Er9 3.367693 1_444
Er0 Er5 3.367780 1_555
Er0 Er7 3.367810 1_454
Er0 Er4 3.367830 1_545
Er0 Er3 3.367864 1_545
Er0 Er2 3.367892 1_454
Er0 Er6 3.367981 1_555
Er1 Ni1 2.957171 1_555
Er1 Ni3 2.957869 1_554
Er1 Ni2 2.959119 1_555
Er1 Ni0 2.959499 1_554
Er1 Er9 3.367632 1_555
Er1 Er7 3.367655 1_554
Er1 Er2 3.367710 1_554
Er1 Er8 3.367749 1_555
Er1 Er6 3.367787 1_554
Er1 Er5 3.367863 1_554
Er1 Er3 3.368003 1_555
Er1 Er4 3.368014 1_555
Er2 Ni3 2.815004 1_555
Er2 Ni2 2.815014 1_545
Er2 Ni1 2.885557 1_556
Er3 Ni3 2.815025 1_565
Er3 Ni2 2.815370 1_555
Er3 Ni0 2.885983 1_554
Er4 Ni3 2.815182 1_565
Er4 Ni2 2.815405 1_555
Er4 Ni0 2.885788 1_554
Er5 Ni0 2.814937 1_555
Er5 Ni1 2.815476 1_455
Er5 Ni3 2.887427 1_555
Er6 Ni0 2.815048 1_555
Er6 Ni1 2.815165 1_455
Er6 Ni3 2.887605 1_555
Er7 Ni3 2.815230 1_555
Er7 Ni2 2.815358 1_545
Er7 Ni1 2.884865 1_556
Er8 Ni0 2.814817 1_655
Er8 Ni1 2.814830 1_555
Er8 Ni2 2.886983 1_555
Er9 Ni0 2.814788 1_655
Er9 Ni1 2.815223 1_555
Er9 Ni2 2.886753 1_555
Ni0 Ni1 2.826574 1_455
Ni2 Ni3 2.826700 1_565
Bi0 Er2 3.258291 1_454
Bi0 Er8 3.258551 1_555
Bi0 Er5 3.258630 1_555
Bi0 Er3 3.258718 1_555
Bi0 Er6 3.258731 1_554
Bi0 Er9 3.258801 1_444
Bi0 Er7 3.259405 1_554
Bi0 Er4 3.259676 1_545
Bi0 Er1 3.338712 1_555
Bi0 Er0 3.338713 1_555
Bi1 Er9 3.258198 1_555
Bi1 Er8 3.258242 1_554
Bi1 Er2 3.258425 1_554
Bi1 Er3 3.258908 1_655
Bi1 Er6 3.259024 1_665
Bi1 Er7 3.259216 1_564
Bi1 Er5 3.259247 1_554
Bi1 Er4 3.259534 1_555
Bi1 Er0 3.338720 1_665
Bi1 Er1 3.338728 1_555
