# generated using pymatgen
data_Mg6CoSiO8
_symmetry_space_group_name_H-M   'P 1'
_cell_length_a   8.63535809
_cell_length_b   4.26738663
_cell_length_c   4.26738663
_cell_angle_alpha   90.00000000
_cell_angle_beta   90.00000000
_cell_angle_gamma   90.00000000
_symmetry_Int_Tables_number   1
_chemical_formula_structural   Mg6CoSiO8
_chemical_formula_sum   'Mg6 Co1 Si1 O8'
_cell_volume   157.25495402
_cell_formula_units_Z   1
loop_
 _symmetry_equiv_pos_site_id
 _symmetry_equiv_pos_as_xyz
  1  'x, y, z'
loop_
 _atom_site_type_symbol
 _atom_site_label
 _atom_site_symmetry_multiplicity
 _atom_site_fract_x
 _atom_site_fract_y
 _atom_site_fract_z
 _atom_site_occupancy
  Mg  Mg0  1  0.50000000  0.00000000  0.00000000  1
  Mg  Mg1  1  0.50000000  0.50000000  0.50000000  1
  Mg  Mg2  1  0.25050716  0.00000000  0.50000000  1
  Mg  Mg3  1  0.74949284  0.00000000  0.50000000  1
  Mg  Mg4  1  0.25050716  0.50000000  0.00000000  1
  Mg  Mg5  1  0.74949284  0.50000000  0.00000000  1
  Co  Co0  1  0.00000000  0.00000000  0.00000000  1
  Si  Si0  1  0.00000000  0.50000000  0.50000000  1
  O  O0  1  0.25998861  0.00000000  0.00000000  1
  O  O1  1  0.74001139  0.00000000  0.00000000  1
  O  O2  1  0.24848448  0.50000000  0.50000000  1
  O  O3  1  0.75151552  0.50000000  0.50000000  1
  O  O4  1  0.00000000  0.00000000  0.50000000  1
  O  O5  1  0.50000000  0.00000000  0.50000000  1
  O  O6  1  0.00000000  0.50000000  0.00000000  1
  O  O7  1  0.50000000  0.50000000  0.00000000  1
loop_
_geom_bond_atom_site_label_1
_geom_bond_atom_site_label_2
_geom_bond_distance
_geom_bond_site_symmetry_2
Mg0 O0 2.072584 1_555
Mg0 O1 2.072584 1_555
Mg0 O5 2.133693 1_554
Mg0 O5 2.133693 1_555
Mg0 O7 2.133693 1_545
Mg0 O7 2.133693 1_555
Mg1 O5 2.133693 1_555
Mg1 O5 2.133693 1_565
Mg1 O7 2.133693 1_555
Mg1 O7 2.133693 1_556
Mg1 O2 2.171927 1_555
Mg1 O3 2.171927 1_555
Mg2 O2 2.133765 1_555
Mg2 O2 2.133765 1_545
Mg2 O0 2.135264 1_555
Mg2 O0 2.135264 1_556
Mg2 O5 2.154460 1_555
Mg2 O4 2.163219 1_555
Mg3 O3 2.133765 1_555
Mg3 O3 2.133765 1_545
Mg3 O1 2.135264 1_555
Mg3 O1 2.135264 1_556
Mg3 O5 2.154460 1_555
Mg3 O4 2.163219 1_655
Mg4 O2 2.133765 1_555
Mg4 O2 2.133765 1_554
Mg4 O0 2.135264 1_555
Mg4 O0 2.135264 1_565
Mg4 O7 2.154460 1_555
Mg4 O6 2.163219 1_555
Mg5 O3 2.133765 1_555
Mg5 O3 2.133765 1_554
Mg5 O1 2.135264 1_555
Mg5 O1 2.135264 1_565
Mg5 O7 2.154460 1_555
Mg5 O6 2.163219 1_655
Co0 O6 2.133693 1_545
Co0 O6 2.133693 1_555
Co0 O4 2.133693 1_554
Co0 O4 2.133693 1_555
Co0 O1 2.245095 1_455
Co0 O0 2.245095 1_555
O2 Si0 2.145752 1_555
O3 Si0 2.145752 1_655
O4 Si0 2.133693 1_555
O4 Si0 2.133693 1_545
O6 Si0 2.133693 1_555
O6 Si0 2.133693 1_554
