# generated using pymatgen
data_YH18(BrO6)3
_symmetry_space_group_name_H-M   'P 1'
_cell_length_a   11.94991032
_cell_length_b   11.94991032
_cell_length_c   6.78959200
_cell_angle_alpha   90.00000000
_cell_angle_beta   90.00000000
_cell_angle_gamma   120.00000176
_symmetry_Int_Tables_number   1
_chemical_formula_structural   YH18(BrO6)3
_chemical_formula_sum   'Y2 H36 Br6 O36'
_cell_volume   839.66024903
_cell_formula_units_Z   2
loop_
 _symmetry_equiv_pos_site_id
 _symmetry_equiv_pos_as_xyz
  1  'x, y, z'
loop_
 _atom_site_type_symbol
 _atom_site_label
 _atom_site_symmetry_multiplicity
 _atom_site_fract_x
 _atom_site_fract_y
 _atom_site_fract_z
 _atom_site_occupancy
  Y  Y0  1  0.33333300  0.66666700  0.24921400  1
  Y  Y1  1  0.66666700  0.33333300  0.74921400  1
  H  H0  1  0.50065600  0.63155900  0.55942100  1
  H  H1  1  0.36844100  0.86909700  0.55942100  1
  H  H2  1  0.13090300  0.49934400  0.55942100  1
  H  H3  1  0.36844100  0.49934400  0.55942100  1
  H  H4  1  0.13090300  0.63155900  0.55942100  1
  H  H5  1  0.50065600  0.86909700  0.55942100  1
  H  H6  1  0.49923800  0.36847000  0.44081200  1
  H  H7  1  0.63153000  0.13076800  0.44081200  1
  H  H8  1  0.86923200  0.50076200  0.44081200  1
  H  H9  1  0.63153000  0.50076200  0.44081200  1
  H  H10  1  0.86923200  0.36847000  0.44081200  1
  H  H11  1  0.49923800  0.13076800  0.44081200  1
  H  H12  1  0.49934400  0.36844100  0.05942100  1
  H  H13  1  0.63155900  0.13090300  0.05942100  1
  H  H14  1  0.86909700  0.50065600  0.05942100  1
  H  H15  1  0.63155900  0.50065600  0.05942100  1
  H  H16  1  0.86909700  0.36844100  0.05942100  1
  H  H17  1  0.49934400  0.13090300  0.05942100  1
  H  H18  1  0.50076200  0.63153000  0.94081200  1
  H  H19  1  0.36847000  0.86923200  0.94081200  1
  H  H20  1  0.13076800  0.49923800  0.94081200  1
  H  H21  1  0.36847000  0.49923800  0.94081200  1
  H  H22  1  0.13076800  0.63153000  0.94081200  1
  H  H23  1  0.50076200  0.86923200  0.94081200  1
  H  H24  1  0.12024800  0.74413100  0.25445200  1
  H  H25  1  0.25586900  0.37611700  0.25445200  1
  H  H26  1  0.62388300  0.87975200  0.25445200  1
  H  H27  1  0.25586900  0.87975200  0.25445200  1
  H  H28  1  0.62388300  0.74413100  0.25445200  1
  H  H29  1  0.12024800  0.37611700  0.25445200  1
  H  H30  1  0.87975200  0.25586900  0.75445200  1
  H  H31  1  0.74413100  0.62388300  0.75445200  1
  H  H32  1  0.37611700  0.12024800  0.75445200  1
  H  H33  1  0.74413100  0.12024800  0.75445200  1
  H  H34  1  0.37611700  0.25586900  0.75445200  1
  H  H35  1  0.87975200  0.62388300  0.75445200  1
  Br  Br0  1  0.13167700  0.86832300  0.75602400  1
  Br  Br1  1  0.13167700  0.26335300  0.75602400  1
  Br  Br2  1  0.73664700  0.86832300  0.75602400  1
  Br  Br3  1  0.86832300  0.13167700  0.25602400  1
  Br  Br4  1  0.86832300  0.73664700  0.25602400  1
  Br  Br5  1  0.26335300  0.13167700  0.25602400  1
  O  O0  1  0.29509400  0.93041400  0.75008800  1
  O  O1  1  0.06958600  0.36468000  0.75008800  1
  O  O2  1  0.63532000  0.70490600  0.75008800  1
  O  O3  1  0.06958600  0.70490600  0.75008800  1
  O  O4  1  0.63532000  0.93041400  0.75008800  1
  O  O5  1  0.29509400  0.36468000  0.75008800  1
  O  O6  1  0.70490600  0.06958600  0.25008800  1
  O  O7  1  0.93041400  0.63532000  0.25008800  1
  O  O8  1  0.36468000  0.29509400  0.25008800  1
  O  O9  1  0.93041400  0.29509400  0.25008800  1
  O  O10  1  0.36468000  0.06958600  0.25008800  1
  O  O11  1  0.70490600  0.63532000  0.25008800  1
  O  O12  1  0.41977600  0.58022400  0.48561200  1
  O  O13  1  0.41977600  0.83955300  0.48561200  1
  O  O14  1  0.16044700  0.58022400  0.48561200  1
  O  O15  1  0.58024600  0.41975400  0.51394400  1
  O  O16  1  0.58024600  0.16049200  0.51394400  1
  O  O17  1  0.83950800  0.41975400  0.51394400  1
  O  O18  1  0.58022400  0.41977600  0.98561200  1
  O  O19  1  0.58022400  0.16044700  0.98561200  1
  O  O20  1  0.83955300  0.41977600  0.98561200  1
  O  O21  1  0.41975400  0.58024600  0.01394400  1
  O  O22  1  0.41975400  0.83950800  0.01394400  1
  O  O23  1  0.16049200  0.58024600  0.01394400  1
  O  O24  1  0.21487400  0.78512600  0.24284200  1
  O  O25  1  0.21487400  0.42974800  0.24284200  1
  O  O26  1  0.57025200  0.78512600  0.24284200  1
  O  O27  1  0.78512600  0.21487400  0.74284200  1
  O  O28  1  0.78512600  0.57025200  0.74284200  1
  O  O29  1  0.42974800  0.21487400  0.74284200  1
  O  O30  1  0.09477800  0.90522200  0.53829300  1
  O  O31  1  0.09477800  0.18955700  0.53829300  1
  O  O32  1  0.81044300  0.90522200  0.53829300  1
  O  O33  1  0.90522200  0.09477800  0.03829300  1
  O  O34  1  0.90522200  0.81044300  0.03829300  1
  O  O35  1  0.18955700  0.09477800  0.03829300  1
loop_
_geom_bond_atom_site_label_1
_geom_bond_atom_site_label_2
_geom_bond_distance
_geom_bond_site_symmetry_2
H0 O12 0.984220 1_555
H1 O13 0.984212 1_555
H2 O14 0.984222 1_555
H3 O12 0.984220 1_555
H4 O14 0.984212 1_555
H5 O13 0.984222 1_555
H6 O15 0.982836 1_555
H7 O16 0.982836 1_555
H8 O17 0.982836 1_555
H9 O15 0.982836 1_555
H10 O17 0.982836 1_555
H11 O16 0.982836 1_555
H12 O18 0.984220 1_554
H13 O19 0.984212 1_554
H14 O20 0.984222 1_554
H15 O18 0.984220 1_554
H16 O20 0.984212 1_554
H17 O19 0.984222 1_554
H18 O21 0.982836 1_556
H19 O22 0.982836 1_556
H20 O23 0.982836 1_556
H21 O21 0.982836 1_556
H22 O23 0.982836 1_556
H23 O22 0.982836 1_556
H24 O24 0.985342 1_555
H25 O25 0.985342 1_555
H26 O26 0.985342 1_555
H27 O24 0.985342 1_555
H28 O26 0.985342 1_555
H29 O25 0.985342 1_555
H30 O27 0.985342 1_555
H31 O28 0.985342 1_555
H32 O29 0.985342 1_555
H33 O27 0.985342 1_555
H34 O29 0.985342 1_555
H35 O28 0.985342 1_555
Br0 O30 1.663932 1_555
Br0 O0 1.707836 1_555
Br0 O3 1.707836 1_555
Br1 O31 1.663922 1_555
Br1 O5 1.707838 1_555
Br1 O1 1.707848 1_555
Br2 O32 1.663922 1_555
Br2 O2 1.707838 1_555
Br2 O4 1.707848 1_555
Br3 O33 1.663932 1_555
Br3 O9 1.707836 1_555
Br3 O6 1.707836 1_555
Br4 O34 1.663922 1_555
Br4 O11 1.707838 1_555
Br4 O7 1.707848 1_555
Br5 O35 1.663922 1_555
Br5 O8 1.707838 1_555
Br5 O10 1.707848 1_555
O12 Y0 2.403613 1_555
O13 Y0 2.403613 1_555
O14 Y0 2.403613 1_555
O15 Y1 2.398166 1_555
O16 Y1 2.398158 1_555
O17 Y1 2.398158 1_555
O18 Y1 2.403613 1_555
O19 Y1 2.403613 1_555
O20 Y1 2.403613 1_555
O21 Y0 2.398166 1_555
O22 Y0 2.398158 1_555
O23 Y0 2.398158 1_555
O24 Y0 2.452229 1_555
O25 Y0 2.452239 1_555
O26 Y0 2.452239 1_555
O27 Y1 2.452229 1_555
O28 Y1 2.452239 1_555
O29 Y1 2.452239 1_555
