# generated using pymatgen
data_KLiMoO4
_symmetry_space_group_name_H-M   'P 1'
_cell_length_a   9.11467026
_cell_length_b   19.32826348
_cell_length_c   19.32833532
_cell_angle_alpha   119.99988547
_cell_angle_beta   90.00000000
_cell_angle_gamma   90.00000000
_symmetry_Int_Tables_number   1
_chemical_formula_structural   KLiMoO4
_chemical_formula_sum   'K24 Li24 Mo24 O96'
_cell_volume   2948.89550497
_cell_formula_units_Z   24
loop_
 _symmetry_equiv_pos_site_id
 _symmetry_equiv_pos_as_xyz
  1  'x, y, z'
loop_
 _atom_site_type_symbol
 _atom_site_label
 _atom_site_symmetry_multiplicity
 _atom_site_fract_x
 _atom_site_fract_y
 _atom_site_fract_z
 _atom_site_occupancy
  K  K0  1  0.23069553  0.99999993  0.99999986  1
  K  K1  1  0.73069553  0.00000007  0.00000014  1
  K  K2  1  0.23983040  0.33338612  0.66669333  1
  K  K3  1  0.73983040  0.66661388  0.33330667  1
  K  K4  1  0.16810425  0.66663743  0.33331880  1
  K  K5  1  0.66810425  0.33336257  0.66668120  1
  K  K6  1  0.17541956  0.15438713  0.32537150  1
  K  K7  1  0.17541711  0.67463143  0.82901861  1
  K  K8  1  0.17541684  0.17098244  0.84561038  1
  K  K9  1  0.67541956  0.84561287  0.67462850  1
  K  K10  1  0.67541711  0.32536857  0.17098139  1
  K  K11  1  0.67541684  0.82901756  0.15438962  1
  K  K12  1  0.19940519  0.00082684  0.49693387  1
  K  K13  1  0.19940497  0.50306575  0.50389177  1
  K  K14  1  0.19940483  0.49610669  0.99917275  1
  K  K15  1  0.69940519  0.99917316  0.50306613  1
  K  K16  1  0.69940497  0.49693425  0.49610823  1
  K  K17  1  0.69940483  0.50389331  0.00082725  1
  K  K18  1  0.24282650  0.83785457  0.17644566  1
  K  K19  1  0.24282473  0.82355704  0.66141001  1
  K  K20  1  0.24282672  0.33858755  0.16214468  1
  K  K21  1  0.74282650  0.16214543  0.82355434  1
  K  K22  1  0.74282473  0.17644296  0.33858999  1
  K  K23  1  0.74282672  0.66141245  0.83785532  1
  Li  Li0  1  0.37836018  0.17168268  0.16110453  1
  Li  Li1  1  0.37836022  0.83889553  0.01057845  1
  Li  Li2  1  0.37835941  0.98942130  0.82831545  1
  Li  Li3  1  0.87836018  0.82831732  0.83889547  1
  Li  Li4  1  0.87836022  0.16110447  0.98942155  1
  Li  Li5  1  0.87835941  0.01057870  0.17168455  1
  Li  Li6  1  0.54083034  0.98929920  0.32764141  1
  Li  Li7  1  0.54083068  0.67236172  0.66165932  1
  Li  Li8  1  0.54083156  0.33833847  0.01069821  1
  Li  Li9  1  0.04083034  0.01070080  0.67235859  1
  Li  Li10  1  0.04083068  0.32763828  0.33834068  1
  Li  Li11  1  0.04083156  0.66166153  0.98930179  1
  Li  Li12  1  0.54347576  0.17152655  0.66171829  1
  Li  Li13  1  0.54347248  0.33827648  0.50980191  1
  Li  Li14  1  0.54347038  0.49019971  0.82848082  1
  Li  Li15  1  0.04347576  0.82847345  0.33828171  1
  Li  Li16  1  0.04347248  0.66172352  0.49019809  1
  Li  Li17  1  0.04347038  0.50980029  0.17151918  1
  Li  Li18  1  0.53884649  0.49096582  0.32930827  1
  Li  Li19  1  0.53884993  0.67069501  0.16166107  1
  Li  Li20  1  0.53885381  0.83834011  0.50903004  1
  Li  Li21  1  0.03884649  0.50903418  0.67069173  1
  Li  Li22  1  0.03884993  0.32930499  0.83833893  1
  Li  Li23  1  0.03885381  0.16165989  0.49096996  1
  Mo  Mo0  1  0.49538842  0.01322786  0.16696546  1
  Mo  Mo1  1  0.49538654  0.83303400  0.84626239  1
  Mo  Mo2  1  0.49538728  0.15373530  0.98676972  1
  Mo  Mo3  1  0.99538842  0.98677214  0.83303454  1
  Mo  Mo4  1  0.99538654  0.16696600  0.15373761  1
  Mo  Mo5  1  0.99538728  0.84626470  0.01323028  1
  Mo  Mo6  1  0.42575662  0.33341717  0.34516918  1
  Mo  Mo7  1  0.42575608  0.65483124  0.98824841  1
  Mo  Mo8  1  0.42576065  0.01175181  0.66658228  1
  Mo  Mo9  1  0.92575662  0.66658283  0.65483082  1
  Mo  Mo10  1  0.92575608  0.34516876  0.01175159  1
  Mo  Mo11  1  0.92576065  0.98824819  0.33341772  1
  Mo  Mo12  1  0.43577638  0.83246703  0.34347797  1
  Mo  Mo13  1  0.43577565  0.65652119  0.48899314  1
  Mo  Mo14  1  0.43577743  0.51100446  0.16752508  1
  Mo  Mo15  1  0.93577638  0.16753297  0.65652203  1
  Mo  Mo16  1  0.93577565  0.34347881  0.51100686  1
  Mo  Mo17  1  0.93577743  0.48899554  0.83247492  1
  Mo  Mo18  1  0.43214552  0.15510190  0.48673692  1
  Mo  Mo19  1  0.43214180  0.51326648  0.66836572  1
  Mo  Mo20  1  0.43214785  0.33162856  0.84489415  1
  Mo  Mo21  1  0.93214552  0.84489810  0.51326308  1
  Mo  Mo22  1  0.93214180  0.48673352  0.33163428  1
  Mo  Mo23  1  0.93214785  0.66837144  0.15510585  1
  O  O0  1  0.67841670  0.05324442  0.18642305  1
  O  O1  1  0.67842140  0.81357643  0.86682185  1
  O  O2  1  0.67842024  0.13317844  0.94675466  1
  O  O3  1  0.17841670  0.94675558  0.81357695  1
  O  O4  1  0.17842140  0.18642357  0.13317815  1
  O  O5  1  0.17842024  0.86682156  0.05324534  1
  O  O6  1  0.46587990  0.95872578  0.21924043  1
  O  O7  1  0.46588164  0.78076024  0.73948770  1
  O  O8  1  0.46588218  0.26051377  0.04127364  1
  O  O9  1  0.96587990  0.04127422  0.78075957  1
  O  O10  1  0.96588164  0.21923976  0.26051230  1
  O  O11  1  0.96588218  0.73948623  0.95872636  1
  O  O12  1  0.36698491  0.09458695  0.20002883  1
  O  O13  1  0.36698751  0.79997210  0.89455809  1
  O  O14  1  0.36698641  0.10544209  0.90541391  1
  O  O15  1  0.86698491  0.90541305  0.79997117  1
  O  O16  1  0.86698751  0.20002790  0.10544191  1
  O  O17  1  0.86698641  0.89455791  0.09458609  1
  O  O18  1  0.47675026  0.94531364  0.06166713  1
  O  O19  1  0.47675212  0.93833453  0.88364763  1
  O  O20  1  0.47675193  0.11635267  0.05468584  1
  O  O21  1  0.97675026  0.05468636  0.93833287  1
  O  O22  1  0.97675212  0.06166547  0.11635237  1
  O  O23  1  0.97675193  0.88364733  0.94531416  1
  O  O24  1  0.44191108  0.43921721  0.38215218  1
  O  O25  1  0.44191131  0.61784752  0.05706519  1
  O  O26  1  0.44191307  0.94293593  0.56078738  1
  O  O27  1  0.94191108  0.56078279  0.61784782  1
  O  O28  1  0.94191131  0.38215248  0.94293481  1
  O  O29  1  0.94191307  0.05706407  0.43921262  1
  O  O30  1  0.55659028  0.30351716  0.39520627  1
  O  O31  1  0.55659081  0.60479427  0.90831061  1
  O  O32  1  0.55659188  0.09169071  0.69648563  1
  O  O33  1  0.05659028  0.69648284  0.60479373  1
  O  O34  1  0.05659081  0.39520573  0.09168939  1
  O  O35  1  0.05659188  0.90830929  0.30351437  1
  O  O36  1  0.24477906  0.31161028  0.36505896  1
  O  O37  1  0.24477927  0.63493985  0.94655019  1
  O  O38  1  0.24478347  0.05344824  0.68839175  1
  O  O39  1  0.74477906  0.68838972  0.63494104  1
  O  O40  1  0.74477927  0.36506015  0.05344981  1
  O  O41  1  0.74478347  0.94655176  0.31160825  1
  O  O42  1  0.45661391  0.27889843  0.23851254  1
  O  O43  1  0.45661326  0.76148619  0.04038483  1
  O  O44  1  0.45661618  0.95961242  0.72110469  1
  O  O45  1  0.95661391  0.72110157  0.76148746  1
  O  O46  1  0.95661326  0.23851381  0.95961517  1
  O  O47  1  0.95661618  0.04038758  0.27889531  1
  O  O48  1  0.55966773  0.80030330  0.39463117  1
  O  O49  1  0.55966573  0.60536321  0.40567411  1
  O  O50  1  0.55966521  0.59432279  0.19968788  1
  O  O51  1  0.05966773  0.19969670  0.60536883  1
  O  O52  1  0.05966573  0.39463679  0.59432589  1
  O  O53  1  0.05966521  0.40567721  0.80031212  1
  O  O54  1  0.47285702  0.78065304  0.23749933  1
  O  O55  1  0.47285836  0.76249907  0.54315421  1
  O  O56  1  0.47285977  0.45684673  0.21934608  1
  O  O57  1  0.97285702  0.21934696  0.76250067  1
  O  O58  1  0.97285836  0.23750093  0.45684579  1
  O  O59  1  0.97285977  0.54315327  0.78065392  1
  O  O60  1  0.44996378  0.93841359  0.38295579  1
  O  O61  1  0.44996676  0.61704316  0.55546169  1
  O  O62  1  0.44996793  0.44453659  0.06157937  1
  O  O63  1  0.94996378  0.06158641  0.61704421  1
  O  O64  1  0.94996676  0.38295684  0.44453831  1
  O  O65  1  0.94996793  0.55546341  0.93842063  1
  O  O66  1  0.25126870  0.81094837  0.35920654  1
  O  O67  1  0.25127069  0.64078933  0.45174957  1
  O  O68  1  0.25126836  0.54824553  0.18903611  1
  O  O69  1  0.75126870  0.18905163  0.64079346  1
  O  O70  1  0.75127069  0.35921067  0.54825043  1
  O  O71  1  0.75126836  0.45175447  0.81096389  1
  O  O72  1  0.55328810  0.10591319  0.40206608  1
  O  O73  1  0.55328862  0.59793577  0.70384655  1
  O  O74  1  0.55328848  0.29615278  0.89408745  1
  O  O75  1  0.05328810  0.89408681  0.59793392  1
  O  O76  1  0.05328862  0.40206423  0.29615345  1
  O  O77  1  0.05328848  0.70384722  0.10591255  1
  O  O78  1  0.45928951  0.11603329  0.55257164  1
  O  O79  1  0.45928762  0.44742892  0.56346567  1
  O  O80  1  0.45928847  0.43653890  0.88396345  1
  O  O81  1  0.95928951  0.88396671  0.44742836  1
  O  O82  1  0.95928762  0.55257108  0.43653433  1
  O  O83  1  0.95928847  0.56346110  0.11603655  1
  O  O84  1  0.46385700  0.26173390  0.54003698  1
  O  O85  1  0.46385431  0.45996836  0.72170029  1
  O  O86  1  0.46385700  0.27830656  0.73826930  1
  O  O87  1  0.96385700  0.73826610  0.45996302  1
  O  O88  1  0.96385431  0.54003164  0.27829971  1
  O  O89  1  0.96385700  0.72169344  0.26173070  1
  O  O90  1  0.24611120  0.13420904  0.45164672  1
  O  O91  1  0.24610492  0.54835288  0.68256278  1
  O  O92  1  0.24610789  0.31743802  0.86579001  1
  O  O93  1  0.74611120  0.86579096  0.54835328  1
  O  O94  1  0.74610492  0.45164712  0.31743722  1
  O  O95  1  0.74610789  0.68256198  0.13420999  1
loop_
_geom_bond_atom_site_label_1
_geom_bond_atom_site_label_2
_geom_bond_distance
_geom_bond_site_symmetry_2
K0 O18 2.971112 1_556
K0 O20 2.971114 1_566
K0 O19 2.971114 1_555
K0 O23 3.025745 1_455
K0 O22 3.025747 1_466
K0 O21 3.025766 1_465
K0 O5 3.249818 1_556
K0 O4 3.249819 1_566
K0 O3 3.249824 1_555
K1 O21 2.971112 1_554
K1 O23 2.971114 1_544
K1 O22 2.971114 1_555
K1 O20 3.025745 1_555
K1 O19 3.025747 1_544
K1 O18 3.025766 1_545
K1 O2 3.249818 1_554
K1 O1 3.249819 1_544
K1 O0 3.249824 1_555
K2 O53 2.776754 1_555
K2 O52 2.776792 1_555
K2 O51 2.777714 1_555
K2 O85 2.946941 1_555
K2 O86 2.947804 1_555
K2 O84 2.947898 1_555
K3 O50 2.776754 1_555
K3 O49 2.776792 1_555
K3 O48 2.777714 1_555
K3 O88 2.946941 1_555
K3 O89 2.947804 1_555
K3 O87 2.947898 1_555
K4 O68 2.684502 1_555
K4 O67 2.684710 1_555
K4 O66 2.685029 1_555
K4 O88 2.825345 1_455
K4 O89 2.825792 1_455
K4 O87 2.825843 1_455
K5 O71 2.684502 1_555
K5 O70 2.684710 1_555
K5 O69 2.685029 1_555
K5 O85 2.825345 1_555
K5 O86 2.825792 1_555
K5 O84 2.825843 1_555
K6 O12 2.730161 1_555
K6 O90 2.734249 1_555
K6 O47 2.767664 1_455
K6 O36 2.809205 1_555
K6 O10 2.891676 1_455
K6 O58 2.892188 1_455
K7 O13 2.730158 1_555
K7 O91 2.734296 1_555
K7 O45 2.767694 1_455
K7 O37 2.809196 1_555
K7 O11 2.891613 1_455
K7 O59 2.892203 1_455
K8 O14 2.730194 1_555
K8 O92 2.734271 1_555
K8 O46 2.767739 1_455
K8 O38 2.809164 1_555
K8 O9 2.891625 1_455
K8 O57 2.892165 1_455
K9 O15 2.730161 1_555
K9 O93 2.734249 1_555
K9 O44 2.767664 1_555
K9 O39 2.809205 1_555
K9 O7 2.891676 1_555
K9 O55 2.892188 1_555
K10 O16 2.730158 1_555
K10 O94 2.734296 1_555
K10 O42 2.767694 1_555
K10 O40 2.809196 1_555
K10 O8 2.891613 1_555
K10 O56 2.892203 1_555
K11 O17 2.730194 1_555
K11 O95 2.734271 1_555
K11 O43 2.767739 1_555
K11 O41 2.809164 1_555
K11 O6 2.891625 1_555
K11 O54 2.892165 1_555
K12 O81 2.940396 1_445
K12 O60 2.977664 1_545
K12 O26 3.006983 1_545
K12 O29 3.024412 1_455
K12 O63 3.035042 1_455
K12 O78 3.054710 1_555
K12 O90 3.138529 1_555
K12 O66 3.318021 1_545
K12 O38 3.337054 1_555
K13 O82 2.940440 1_455
K13 O61 2.977671 1_555
K13 O24 3.006920 1_555
K13 O27 3.024403 1_455
K13 O64 3.034999 1_455
K13 O79 3.054745 1_555
K13 O91 3.138566 1_555
K13 O67 3.317827 1_555
K13 O36 3.336991 1_555
K14 O83 2.940444 1_456
K14 O62 2.977673 1_556
K14 O25 3.006931 1_556
K14 O28 3.024376 1_455
K14 O65 3.034989 1_455
K14 O80 3.054740 1_555
K14 O92 3.138526 1_555
K14 O68 3.317809 1_556
K14 O37 3.336990 1_555
K15 O78 2.940396 1_565
K15 O63 2.977664 1_565
K15 O29 3.006983 1_565
K15 O26 3.024412 1_555
K15 O60 3.035042 1_555
K15 O81 3.054710 1_555
K15 O93 3.138529 1_555
K15 O69 3.318021 1_565
K15 O41 3.337054 1_555
K16 O79 2.940440 1_555
K16 O64 2.977671 1_555
K16 O27 3.006920 1_555
K16 O24 3.024403 1_555
K16 O61 3.034999 1_555
K16 O82 3.054745 1_555
K16 O94 3.138566 1_555
K16 O70 3.317827 1_555
K16 O39 3.336991 1_555
K17 O80 2.940444 1_554
K17 O65 2.977673 1_554
K17 O28 3.006931 1_554
K17 O25 3.024376 1_555
K17 O62 3.034989 1_555
K17 O83 3.054740 1_555
K17 O95 3.138526 1_555
K17 O71 3.317809 1_554
K17 O40 3.336990 1_555
K18 O35 2.724582 1_555
K18 O5 2.767975 1_555
K18 O77 2.832096 1_555
K18 O54 2.883670 1_555
K18 O6 2.888437 1_555
K18 O43 3.001668 1_555
K19 O33 2.724647 1_555
K19 O3 2.767967 1_555
K19 O75 2.832067 1_555
K19 O55 2.883704 1_555
K19 O7 2.888499 1_555
K19 O44 3.001615 1_555
K20 O34 2.724644 1_555
K20 O4 2.767907 1_555
K20 O76 2.832120 1_555
K20 O56 2.883733 1_555
K20 O8 2.888448 1_555
K20 O42 3.001618 1_555
K21 O32 2.724582 1_555
K21 O2 2.767975 1_555
K21 O74 2.832096 1_555
K21 O57 2.883670 1_555
K21 O9 2.888437 1_555
K21 O46 3.001668 1_555
K22 O30 2.724647 1_555
K22 O0 2.767967 1_555
K22 O72 2.832067 1_555
K22 O58 2.883704 1_555
K22 O10 2.888499 1_555
K22 O47 3.001615 1_555
K23 O31 2.724644 1_555
K23 O1 2.767907 1_555
K23 O73 2.832120 1_555
K23 O59 2.883733 1_555
K23 O11 2.888448 1_555
K23 O45 3.001618 1_555
Li0 O4 1.961472 1_555
Li0 O12 1.979476 1_555
Li0 O42 1.985238 1_555
Li0 O20 1.994760 1_555
Li1 O5 1.961480 1_555
Li1 O13 1.979492 1_554
Li1 O43 1.985238 1_555
Li1 O18 1.994739 1_555
Li2 O3 1.961497 1_555
Li2 O14 1.979499 1_565
Li2 O44 1.985160 1_555
Li2 O19 1.994763 1_555
Li3 O1 1.961472 1_555
Li3 O15 1.979476 1_555
Li3 O45 1.985238 1_555
Li3 O23 1.994760 1_555
Li4 O2 1.961480 1_555
Li4 O16 1.979492 1_556
Li4 O46 1.985238 1_555
Li4 O21 1.994739 1_555
Li5 O0 1.961497 1_555
Li5 O17 1.979499 1_545
Li5 O47 1.985160 1_555
Li5 O22 1.994763 1_555
Li6 O60 1.961594 1_555
Li6 O72 1.979940 1_565
Li6 O6 1.991903 1_555
Li6 O41 1.994594 1_555
Li7 O61 1.961556 1_555
Li7 O73 1.979929 1_555
Li7 O7 1.991866 1_555
Li7 O39 1.994552 1_555
Li8 O62 1.961555 1_555
Li8 O74 1.979898 1_554
Li8 O8 1.991869 1_555
Li8 O40 1.994579 1_555
Li9 O63 1.961594 1_455
Li9 O75 1.979940 1_545
Li9 O9 1.991903 1_455
Li9 O38 1.994594 1_555
Li10 O64 1.961556 1_455
Li10 O76 1.979929 1_555
Li10 O10 1.991866 1_455
Li10 O36 1.994552 1_555
Li11 O65 1.961555 1_455
Li11 O77 1.979898 1_556
Li11 O11 1.991869 1_455
Li11 O37 1.994579 1_555
Li12 O32 1.970770 1_555
Li12 O86 1.980336 1_555
Li12 O78 1.981666 1_555
Li12 O69 2.000602 1_555
Li13 O30 1.970674 1_555
Li13 O84 1.980255 1_555
Li13 O79 1.981743 1_555
Li13 O70 2.000644 1_555
Li14 O31 1.970628 1_555
Li14 O85 1.980330 1_555
Li14 O80 1.981594 1_555
Li14 O71 2.000622 1_555
Li15 O35 1.970770 1_555
Li15 O89 1.980336 1_455
Li15 O81 1.981666 1_455
Li15 O66 2.000602 1_555
Li16 O33 1.970674 1_555
Li16 O87 1.980255 1_455
Li16 O82 1.981743 1_455
Li16 O67 2.000644 1_555
Li17 O34 1.970628 1_555
Li17 O88 1.980330 1_455
Li17 O83 1.981594 1_455
Li17 O68 2.000622 1_555
Li18 O49 1.959592 1_555
Li18 O24 1.961091 1_555
Li18 O56 1.977950 1_555
Li18 O94 2.006112 1_555
Li19 O50 1.959633 1_555
Li19 O25 1.961160 1_555
Li19 O54 1.977887 1_555
Li19 O95 2.006111 1_555
Li20 O48 1.959601 1_555
Li20 O26 1.961161 1_555
Li20 O55 1.978000 1_555
Li20 O93 2.006131 1_555
Li21 O52 1.959592 1_555
Li21 O27 1.961091 1_455
Li21 O59 1.977950 1_455
Li21 O91 2.006112 1_555
Li22 O53 1.959633 1_555
Li22 O28 1.961160 1_455
Li22 O57 1.977887 1_455
Li22 O92 2.006111 1_555
Li23 O51 1.959601 1_555
Li23 O29 1.961161 1_455
Li23 O58 1.978000 1_455
Li23 O90 2.006131 1_555
Mo0 O18 1.795153 1_545
Mo0 O0 1.797725 1_555
Mo0 O12 1.801678 1_555
Mo0 O6 1.807570 1_545
Mo1 O19 1.795179 1_555
Mo1 O1 1.797784 1_555
Mo1 O13 1.801635 1_555
Mo1 O7 1.807533 1_555
Mo2 O20 1.795158 1_556
Mo2 O2 1.797756 1_555
Mo2 O14 1.801624 1_555
Mo2 O8 1.807589 1_556
Mo3 O21 1.795153 1_565
Mo3 O3 1.797725 1_655
Mo3 O15 1.801678 1_555
Mo3 O9 1.807570 1_565
Mo4 O22 1.795179 1_555
Mo4 O4 1.797784 1_655
Mo4 O16 1.801635 1_555
Mo4 O10 1.807533 1_555
Mo5 O23 1.795158 1_554
Mo5 O5 1.797756 1_655
Mo5 O17 1.801624 1_555
Mo5 O11 1.807589 1_554
Mo6 O36 1.791228 1_555
Mo6 O30 1.802865 1_555
Mo6 O24 1.803507 1_555
Mo6 O42 1.807474 1_555
Mo7 O37 1.791233 1_555
Mo7 O31 1.802882 1_555
Mo7 O25 1.803517 1_556
Mo7 O43 1.807440 1_556
Mo8 O38 1.791224 1_555
Mo8 O32 1.802866 1_555
Mo8 O26 1.803433 1_545
Mo8 O44 1.807551 1_545
Mo9 O39 1.791228 1_555
Mo9 O33 1.802865 1_655
Mo9 O27 1.803507 1_555
Mo9 O45 1.807474 1_555
Mo10 O40 1.791233 1_555
Mo10 O34 1.802882 1_655
Mo10 O28 1.803517 1_554
Mo10 O46 1.807440 1_554
Mo11 O41 1.791224 1_555
Mo11 O35 1.802866 1_655
Mo11 O29 1.803433 1_565
Mo11 O47 1.807551 1_565
Mo12 O66 1.794451 1_555
Mo12 O60 1.797155 1_555
Mo12 O48 1.803834 1_555
Mo12 O54 1.806012 1_555
Mo13 O67 1.794404 1_555
Mo13 O61 1.797159 1_555
Mo13 O49 1.803864 1_555
Mo13 O55 1.805996 1_555
Mo14 O68 1.794425 1_555
Mo14 O62 1.797149 1_555
Mo14 O50 1.803833 1_555
Mo14 O56 1.806009 1_555
Mo15 O69 1.794451 1_555
Mo15 O63 1.797155 1_555
Mo15 O51 1.803834 1_655
Mo15 O57 1.806012 1_555
Mo16 O70 1.794404 1_555
Mo16 O64 1.797159 1_555
Mo16 O52 1.803864 1_655
Mo16 O58 1.805996 1_555
Mo17 O71 1.794425 1_555
Mo17 O65 1.797149 1_555
Mo17 O53 1.803833 1_655
Mo17 O59 1.806009 1_555
Mo18 O78 1.792067 1_555
Mo18 O90 1.795659 1_555
Mo18 O72 1.801518 1_555
Mo18 O84 1.808142 1_555
Mo19 O79 1.792033 1_555
Mo19 O91 1.795658 1_555
Mo19 O73 1.801517 1_555
Mo19 O85 1.808155 1_555
Mo20 O80 1.792183 1_555
Mo20 O92 1.795689 1_555
Mo20 O74 1.801488 1_555
Mo20 O86 1.808027 1_555
Mo21 O81 1.792067 1_555
Mo21 O93 1.795659 1_555
Mo21 O75 1.801518 1_655
Mo21 O87 1.808142 1_555
Mo22 O82 1.792033 1_555
Mo22 O94 1.795658 1_555
Mo22 O76 1.801517 1_655
Mo22 O88 1.808155 1_555
Mo23 O83 1.792183 1_555
Mo23 O95 1.795689 1_555
Mo23 O77 1.801488 1_655
Mo23 O89 1.808027 1_555
