# generated using pymatgen
data_Ba3Fe3O8
_symmetry_space_group_name_H-M   'P 1'
_cell_length_a   5.74088600
_cell_length_b   11.45625300
_cell_length_c   14.01104330
_cell_angle_alpha   114.13131883
_cell_angle_beta   90.00000000
_cell_angle_gamma   90.00000000
_symmetry_Int_Tables_number   1
_chemical_formula_structural   Ba3Fe3O8
_chemical_formula_sum   'Ba12 Fe12 O32'
_cell_volume   840.96441139
_cell_formula_units_Z   4
loop_
 _symmetry_equiv_pos_site_id
 _symmetry_equiv_pos_as_xyz
  1  'x, y, z'
loop_
 _atom_site_type_symbol
 _atom_site_label
 _atom_site_symmetry_multiplicity
 _atom_site_fract_x
 _atom_site_fract_y
 _atom_site_fract_z
 _atom_site_occupancy
  Ba  Ba0  1  0.75000000  0.37314800  0.00000000  1
  Ba  Ba1  1  0.25000000  0.62685200  0.00000000  1
  Ba  Ba2  1  0.75000000  0.87542600  0.00000000  1
  Ba  Ba3  1  0.25000000  0.12457400  0.00000000  1
  Ba  Ba4  1  0.75000000  0.71476500  0.68506300  1
  Ba  Ba5  1  0.25000000  0.97029900  0.68506300  1
  Ba  Ba6  1  0.25000000  0.28523500  0.31493700  1
  Ba  Ba7  1  0.75000000  0.02970100  0.31493700  1
  Ba  Ba8  1  0.75000000  0.21257900  0.68136100  1
  Ba  Ba9  1  0.25000000  0.46878200  0.68136100  1
  Ba  Ba10  1  0.25000000  0.78742100  0.31863900  1
  Ba  Ba11  1  0.75000000  0.53121800  0.31863900  1
  Fe  Fe0  1  0.75000000  0.39347700  0.49217000  1
  Fe  Fe1  1  0.25000000  0.09869300  0.49217000  1
  Fe  Fe2  1  0.25000000  0.60652300  0.50783000  1
  Fe  Fe3  1  0.75000000  0.90130700  0.50783000  1
  Fe  Fe4  1  0.75000000  0.20120400  0.15431100  1
  Fe  Fe5  1  0.25000000  0.95310800  0.15431100  1
  Fe  Fe6  1  0.25000000  0.79879600  0.84568900  1
  Fe  Fe7  1  0.75000000  0.04689200  0.84568900  1
  Fe  Fe8  1  0.75000000  0.69874000  0.15148700  1
  Fe  Fe9  1  0.25000000  0.45274600  0.15148700  1
  Fe  Fe10  1  0.25000000  0.30126000  0.84851300  1
  Fe  Fe11  1  0.75000000  0.54725400  0.84851300  1
  O  O0  1  0.75000000  0.13037800  0.00000000  1
  O  O1  1  0.25000000  0.86962200  0.00000000  1
  O  O2  1  0.75000000  0.62597200  0.00000000  1
  O  O3  1  0.25000000  0.37402800  0.00000000  1
  O  O4  1  0.75000000  0.40019600  0.62281300  1
  O  O5  1  0.25000000  0.22261700  0.62281300  1
  O  O6  1  0.25000000  0.59980400  0.37718700  1
  O  O7  1  0.75000000  0.77738300  0.37718700  1
  O  O8  1  0.75000000  0.92708900  0.64648500  1
  O  O9  1  0.25000000  0.71939600  0.64648500  1
  O  O10  1  0.25000000  0.07291100  0.35351500  1
  O  O11  1  0.75000000  0.28060400  0.35351500  1
  O  O12  1  0.50000000  0.00000000  0.50000000  1
  O  O13  1  0.50000000  0.50000000  0.50000000  1
  O  O14  1  0.00000000  0.00000000  0.50000000  1
  O  O15  1  0.00000000  0.50000000  0.50000000  1
  O  O16  1  0.50000000  0.41573200  0.83146500  1
  O  O17  1  0.00000000  0.41573200  0.83146500  1
  O  O18  1  0.50000000  0.58426800  0.16853500  1
  O  O19  1  0.00000000  0.58426800  0.16853500  1
  O  O20  1  0.50000000  0.91758200  0.83516400  1
  O  O21  1  0.00000000  0.91758200  0.83516400  1
  O  O22  1  0.50000000  0.08241800  0.16483600  1
  O  O23  1  0.00000000  0.08241800  0.16483600  1
  O  O24  1  0.50238000  0.83441900  0.17218900  1
  O  O25  1  0.49762000  0.33777000  0.17218900  1
  O  O26  1  0.99762000  0.83441900  0.17218900  1
  O  O27  1  0.00238000  0.33777000  0.17218900  1
  O  O28  1  0.49762000  0.16558100  0.82781100  1
  O  O29  1  0.50238000  0.66223000  0.82781100  1
  O  O30  1  0.00238000  0.16558100  0.82781100  1
  O  O31  1  0.99762000  0.66223000  0.82781100  1
loop_
_geom_bond_atom_site_label_1
_geom_bond_atom_site_label_2
_geom_bond_distance
_geom_bond_site_symmetry_2
Ba0 O0 2.781235 1_555
Ba0 O3 2.870461 1_655
Ba0 O3 2.870461 1_555
Ba0 O2 2.896416 1_555
Ba0 O16 2.969137 1_554
Ba0 O17 2.969137 1_654
Ba0 O18 2.969143 1_555
Ba0 O19 2.969143 1_655
Ba0 O25 2.980508 1_555
Ba0 O27 2.980508 1_655
Ba0 O28 2.980508 1_554
Ba0 O30 2.980508 1_654
Ba1 O1 2.781235 1_555
Ba1 O2 2.870461 1_455
Ba1 O2 2.870461 1_555
Ba1 O3 2.896416 1_555
Ba1 O18 2.969137 1_555
Ba1 O19 2.969137 1_555
Ba1 O17 2.969143 1_554
Ba1 O16 2.969143 1_554
Ba1 O31 2.980508 1_454
Ba1 O29 2.980508 1_554
Ba1 O26 2.980508 1_455
Ba1 O24 2.980508 1_555
Ba2 O2 2.857808 1_555
Ba2 O1 2.871213 1_655
Ba2 O1 2.871213 1_555
Ba2 O0 2.920795 1_565
Ba2 O21 2.922158 1_654
Ba2 O20 2.922158 1_554
Ba2 O22 2.922158 1_565
Ba2 O23 2.922158 1_665
Ba2 O24 2.998105 1_555
Ba2 O26 2.998105 1_555
Ba2 O29 2.998105 1_554
Ba2 O31 2.998105 1_554
Ba3 O3 2.857808 1_555
Ba3 O0 2.871213 1_555
Ba3 O0 2.871213 1_455
Ba3 O1 2.920795 1_545
Ba3 O22 2.922158 1_555
Ba3 O23 2.922158 1_555
Ba3 O20 2.922158 1_544
Ba3 O21 2.922158 1_544
Ba3 O28 2.998105 1_554
Ba3 O30 2.998105 1_554
Ba3 O27 2.998105 1_555
Ba3 O25 2.998105 1_555
Ba4 O8 2.698879 1_555
Ba4 O29 2.714313 1_555
Ba4 O31 2.714313 1_555
Ba4 O21 2.808204 1_655
Ba4 O20 2.808204 1_555
Ba4 O9 2.925383 1_555
Ba4 O9 2.925383 1_655
Ba4 O13 3.101666 1_555
Ba4 O15 3.101666 1_655
Ba4 O4 3.343339 1_555
Ba5 O9 2.698891 1_555
Ba5 O30 2.714307 1_565
Ba5 O28 2.714307 1_565
Ba5 O21 2.808210 1_555
Ba5 O20 2.808210 1_555
Ba5 O8 2.925384 1_455
Ba5 O8 2.925384 1_555
Ba5 O12 3.101661 1_565
Ba5 O14 3.101661 1_565
Ba5 O5 3.343327 1_565
Ba6 O10 2.698879 1_555
Ba6 O27 2.714313 1_555
Ba6 O25 2.714313 1_555
Ba6 O23 2.808204 1_555
Ba6 O22 2.808204 1_555
Ba6 O11 2.925383 1_555
Ba6 O11 2.925383 1_455
Ba6 O15 3.101666 1_555
Ba6 O13 3.101666 1_555
Ba6 O6 3.343339 1_555
Ba7 O11 2.698891 1_555
Ba7 O24 2.714307 1_545
Ba7 O26 2.714307 1_545
Ba7 O23 2.808210 1_655
Ba7 O22 2.808210 1_555
Ba7 O10 2.925384 1_555
Ba7 O10 2.925384 1_655
Ba7 O12 3.101661 1_555
Ba7 O14 3.101661 1_655
Ba7 O7 3.343327 1_545
Ba8 O4 2.595086 1_555
Ba8 O28 2.739138 1_555
Ba8 O30 2.739138 1_655
Ba8 O16 2.810230 1_555
Ba8 O17 2.810230 1_655
Ba8 O5 3.000454 1_555
Ba8 O5 3.000454 1_655
Ba8 O12 3.063954 1_555
Ba8 O14 3.063954 1_655
Ba8 O8 3.103082 1_545
Ba9 O5 2.595086 1_555
Ba9 O31 2.739138 1_455
Ba9 O29 2.739138 1_555
Ba9 O16 2.810236 1_555
Ba9 O17 2.810236 1_555
Ba9 O4 3.000454 1_455
Ba9 O4 3.000454 1_555
Ba9 O15 3.063954 1_555
Ba9 O13 3.063954 1_555
Ba9 O9 3.103082 1_555
Ba10 O6 2.595086 1_555
Ba10 O26 2.739138 1_455
Ba10 O24 2.739138 1_555
Ba10 O18 2.810230 1_555
Ba10 O19 2.810230 1_555
Ba10 O7 3.000454 1_555
Ba10 O7 3.000454 1_455
Ba10 O14 3.063954 1_565
Ba10 O12 3.063954 1_565
Ba10 O10 3.103082 1_565
Ba11 O7 2.595086 1_555
Ba11 O25 2.739138 1_555
Ba11 O27 2.739138 1_655
Ba11 O18 2.810236 1_555
Ba11 O19 2.810236 1_655
Ba11 O6 3.000454 1_555
Ba11 O6 3.000454 1_655
Ba11 O13 3.063954 1_555
Ba11 O15 3.063954 1_655
Ba11 O11 3.103082 1_555
Fe0 O4 1.800346 1_555
Fe0 O11 1.841779 1_555
Fe0 O13 1.857873 1_555
Fe0 O15 1.857873 1_655
Fe1 O5 1.800346 1_555
Fe1 O10 1.841779 1_555
Fe1 O12 1.857873 1_555
Fe1 O14 1.857873 1_555
Fe2 O6 1.800346 1_555
Fe2 O9 1.841779 1_555
Fe2 O13 1.857873 1_555
Fe2 O15 1.857873 1_555
Fe3 O7 1.800346 1_555
Fe3 O8 1.841779 1_555
Fe3 O12 1.857873 1_565
Fe3 O14 1.857873 1_665
Fe4 O0 1.974450 1_555
Fe4 O23 2.024249 1_655
Fe4 O22 2.024249 1_555
Fe4 O25 2.071072 1_555
Fe4 O27 2.071072 1_655
Fe4 O11 2.557641 1_555
Fe5 O1 1.974450 1_555
Fe5 O22 2.024241 1_565
Fe5 O23 2.024241 1_565
Fe5 O26 2.071080 1_455
Fe5 O24 2.071080 1_555
Fe5 O10 2.557640 1_565
Fe6 O1 1.974450 1_556
Fe6 O21 2.024249 1_555
Fe6 O20 2.024249 1_555
Fe6 O31 2.071072 1_455
Fe6 O29 2.071072 1_555
Fe6 O9 2.557641 1_555
Fe7 O0 1.974450 1_556
Fe7 O21 2.024241 1_645
Fe7 O20 2.024241 1_545
Fe7 O28 2.071080 1_555
Fe7 O30 2.071080 1_655
Fe7 O8 2.557640 1_545
Fe8 O2 1.937308 1_555
Fe8 O19 2.023083 1_655
Fe8 O18 2.023083 1_555
Fe8 O24 2.037741 1_555
Fe8 O26 2.037741 1_555
Fe9 O3 1.937308 1_555
Fe9 O18 2.023099 1_555
Fe9 O19 2.023099 1_555
Fe9 O27 2.037733 1_555
Fe9 O25 2.037733 1_555
Fe10 O3 1.937308 1_556
Fe10 O17 2.023083 1_555
Fe10 O16 2.023083 1_555
Fe10 O30 2.037741 1_555
Fe10 O28 2.037741 1_555
Fe11 O2 1.937308 1_556
Fe11 O16 2.023099 1_555
Fe11 O17 2.023099 1_655
Fe11 O29 2.037733 1_555
Fe11 O31 2.037733 1_555
