# generated using pymatgen
data_Ba4ScReWO12
_symmetry_space_group_name_H-M   'P 1'
_cell_length_a   10.02987030
_cell_length_b   10.02987030
_cell_length_c   10.02987017
_cell_angle_alpha   33.88997254
_cell_angle_beta   33.88997254
_cell_angle_gamma   33.88996847
_symmetry_Int_Tables_number   1
_chemical_formula_structural   Ba4ScReWO12
_chemical_formula_sum   'Ba4 Sc1 Re1 W1 O12'
_cell_volume   279.58430189
_cell_formula_units_Z   1
loop_
 _symmetry_equiv_pos_site_id
 _symmetry_equiv_pos_as_xyz
  1  'x, y, z'
loop_
 _atom_site_type_symbol
 _atom_site_label
 _atom_site_symmetry_multiplicity
 _atom_site_fract_x
 _atom_site_fract_y
 _atom_site_fract_z
 _atom_site_occupancy
  Ba  Ba0  1  0.70809600  0.70809600  0.70809600  1
  Ba  Ba1  1  0.28933700  0.28933700  0.28933700  1
  Ba  Ba2  1  0.86897300  0.86897300  0.86897300  1
  Ba  Ba3  1  0.13473000  0.13473000  0.13473000  1
  Sc  Sc0  1  0.99840800  0.99840800  0.99840800  1
  Re  Re0  1  0.41954300  0.41954300  0.41954300  1
  W  W0  1  0.57936900  0.57936900  0.57936900  1
  O  O0  1  0.38564300  0.38564300  0.86493700  1
  O  O1  1  0.86493700  0.38564300  0.38564300  1
  O  O2  1  0.38564300  0.86493700  0.38564300  1
  O  O3  1  0.60849200  0.60849200  0.14361400  1
  O  O4  1  0.14361400  0.60849200  0.60849200  1
  O  O5  1  0.60849200  0.14361400  0.60849200  1
  O  O6  1  0.22009800  0.22009800  0.69121200  1
  O  O7  1  0.69121200  0.22009800  0.22009800  1
  O  O8  1  0.22009800  0.69121200  0.22009800  1
  O  O9  1  0.78499000  0.78499000  0.30333500  1
  O  O10  1  0.30333500  0.78499000  0.78499000  1
  O  O11  1  0.78499000  0.30333500  0.78499000  1
loop_
_geom_bond_atom_site_label_1
_geom_bond_atom_site_label_2
_geom_bond_distance
_geom_bond_site_symmetry_2
Ba0 O4 2.871248 1_655
Ba0 O5 2.871248 1_565
Ba0 O3 2.871248 1_556
Ba0 O9 2.874374 1_555
Ba0 O11 2.874374 1_555
Ba0 O10 2.874374 1_555
Ba0 O6 2.925638 1_655
Ba0 O6 2.925638 1_565
Ba0 O8 2.925638 1_655
Ba0 O7 2.925638 1_565
Ba0 O7 2.925638 1_556
Ba0 O8 2.925638 1_556
Ba1 O2 2.807458 1_545
Ba1 O1 2.807458 1_455
Ba1 O0 2.807458 1_554
Ba1 O9 2.924324 1_545
Ba1 O9 2.924324 1_455
Ba1 O10 2.924324 1_545
Ba1 O11 2.924324 1_455
Ba1 O10 2.924324 1_554
Ba1 O11 2.924324 1_554
Ba1 O6 2.952568 1_555
Ba1 O7 2.952568 1_555
Ba1 O8 2.952568 1_555
Ba2 O0 2.937144 1_655
Ba2 O0 2.937144 1_565
Ba2 O1 2.937144 1_556
Ba2 O2 2.937144 1_556
Ba2 O2 2.937144 1_655
Ba2 O1 2.937144 1_565
Ba2 O4 2.945347 1_655
Ba2 O5 2.945347 1_565
Ba2 O3 2.945347 1_556
Ba2 O9 3.064614 1_556
Ba2 O11 3.064614 1_565
Ba2 O10 3.064614 1_655
Ba3 O2 2.809263 1_545
Ba3 O1 2.809263 1_455
Ba3 O0 2.809263 1_554
Ba3 O3 2.954470 1_545
Ba3 O3 2.954470 1_455
Ba3 O4 2.954470 1_554
Ba3 O5 2.954470 1_554
Ba3 O5 2.954470 1_455
Ba3 O4 2.954470 1_545
Ba3 O6 3.134451 1_554
Ba3 O7 3.134451 1_455
Ba3 O8 3.134451 1_545
O0 W0 1.882388 1_555
O1 W0 1.882387 1_555
O2 W0 1.882387 1_555
O3 Re0 1.841153 1_555
O4 Re0 1.841153 1_555
O5 Re0 1.841153 1_555
O6 Re0 1.993144 1_555
O6 Sc0 2.200333 1_445
O7 Re0 1.993143 1_555
O7 Sc0 2.200333 1_544
O8 Re0 1.993143 1_555
O8 Sc0 2.200333 1_454
O9 W0 2.067372 1_555
O9 Sc0 2.094525 1_554
O10 W0 2.067371 1_555
O10 Sc0 2.094525 1_455
O11 W0 2.067371 1_555
O11 Sc0 2.094525 1_545
