# generated using pymatgen
data_Li4Be3P3IO12
_symmetry_space_group_name_H-M   'P 1'
_cell_length_a   8.24497300
_cell_length_b   8.24497300
_cell_length_c   8.24497300
_cell_angle_alpha   90.00000000
_cell_angle_beta   90.00000000
_cell_angle_gamma   90.00000000
_symmetry_Int_Tables_number   1
_chemical_formula_structural   Li4Be3P3IO12
_chemical_formula_sum   'Li8 Be6 P6 I2 O24'
_cell_volume   560.48979976
_cell_formula_units_Z   2
loop_
 _symmetry_equiv_pos_site_id
 _symmetry_equiv_pos_as_xyz
  1  'x, y, z'
loop_
 _atom_site_type_symbol
 _atom_site_label
 _atom_site_symmetry_multiplicity
 _atom_site_fract_x
 _atom_site_fract_y
 _atom_site_fract_z
 _atom_site_occupancy
  Li  Li0  1  0.19336800  0.19336800  0.19336800  1
  Li  Li1  1  0.80663200  0.80663200  0.19336800  1
  Li  Li2  1  0.80663200  0.19336800  0.80663200  1
  Li  Li3  1  0.69336800  0.69336800  0.69336800  1
  Li  Li4  1  0.19336800  0.80663200  0.80663200  1
  Li  Li5  1  0.30663200  0.30663200  0.69336800  1
  Li  Li6  1  0.69336800  0.30663200  0.30663200  1
  Li  Li7  1  0.30663200  0.69336800  0.30663200  1
  Be  Be0  1  0.25000000  0.00000000  0.50000000  1
  Be  Be1  1  0.75000000  0.00000000  0.50000000  1
  Be  Be2  1  0.50000000  0.25000000  0.00000000  1
  Be  Be3  1  0.50000000  0.75000000  0.00000000  1
  Be  Be4  1  0.00000000  0.50000000  0.25000000  1
  Be  Be5  1  0.00000000  0.50000000  0.75000000  1
  P  P0  1  0.25000000  0.50000000  0.00000000  1
  P  P1  1  0.75000000  0.50000000  0.00000000  1
  P  P2  1  0.00000000  0.25000000  0.50000000  1
  P  P3  1  0.00000000  0.75000000  0.50000000  1
  P  P4  1  0.50000000  0.00000000  0.25000000  1
  P  P5  1  0.50000000  0.00000000  0.75000000  1
  I  I0  1  0.00000000  0.00000000  0.00000000  1
  I  I1  1  0.50000000  0.50000000  0.50000000  1
  O  O0  1  0.13815700  0.14615300  0.42530500  1
  O  O1  1  0.86184300  0.85384700  0.42530500  1
  O  O2  1  0.86184300  0.14615300  0.57469500  1
  O  O3  1  0.42530500  0.13815700  0.14615300  1
  O  O4  1  0.64615300  0.63815700  0.92530500  1
  O  O5  1  0.13815700  0.85384700  0.57469500  1
  O  O6  1  0.42530500  0.86184300  0.85384700  1
  O  O7  1  0.35384700  0.36184300  0.92530500  1
  O  O8  1  0.57469500  0.86184300  0.14615300  1
  O  O9  1  0.64615300  0.36184300  0.07469500  1
  O  O10  1  0.57469500  0.13815700  0.85384700  1
  O  O11  1  0.35384700  0.63815700  0.07469500  1
  O  O12  1  0.14615300  0.42530500  0.13815700  1
  O  O13  1  0.63815700  0.92530500  0.64615300  1
  O  O14  1  0.14615300  0.57469500  0.86184300  1
  O  O15  1  0.36184300  0.07469500  0.64615300  1
  O  O16  1  0.85384700  0.57469500  0.13815700  1
  O  O17  1  0.63815700  0.07469500  0.35384700  1
  O  O18  1  0.85384700  0.42530500  0.86184300  1
  O  O19  1  0.36184300  0.92530500  0.35384700  1
  O  O20  1  0.92530500  0.64615300  0.63815700  1
  O  O21  1  0.92530500  0.35384700  0.36184300  1
  O  O22  1  0.07469500  0.35384700  0.63815700  1
  O  O23  1  0.07469500  0.64615300  0.36184300  1
loop_
_geom_bond_atom_site_label_1
_geom_bond_atom_site_label_2
_geom_bond_distance
_geom_bond_site_symmetry_2
Li0 O0 2.003923 1_555
Li0 O12 2.003923 1_555
Li0 O3 2.003923 1_555
Li1 O16 2.003923 1_555
Li1 O8 2.003923 1_555
Li1 O1 2.003923 1_555
Li2 O10 2.003923 1_555
Li2 O2 2.003923 1_555
Li2 O18 2.003923 1_555
Li3 O4 2.003923 1_555
Li3 O13 2.003923 1_555
Li3 O20 2.003923 1_555
Li4 O14 2.003923 1_555
Li4 O5 2.003923 1_555
Li4 O6 2.003923 1_555
Li5 O15 2.003923 1_555
Li5 O22 2.003923 1_555
Li5 O7 2.003923 1_555
Li6 O17 2.003923 1_555
Li6 O9 2.003923 1_555
Li6 O21 2.003923 1_555
Li7 O11 2.003923 1_555
Li7 O23 2.003923 1_555
Li7 O19 2.003923 1_555
Be0 O15 1.637596 1_555
Be0 O0 1.637596 1_555
Be0 O19 1.637596 1_545
Be0 O5 1.637596 1_545
Be1 O2 1.637596 1_555
Be1 O1 1.637596 1_545
Be1 O13 1.637596 1_545
Be1 O17 1.637596 1_555
Be2 O9 1.637596 1_555
Be2 O3 1.637596 1_555
Be2 O7 1.637596 1_554
Be2 O10 1.637596 1_554
Be3 O8 1.637596 1_555
Be3 O6 1.637596 1_554
Be3 O4 1.637596 1_554
Be3 O11 1.637596 1_555
Be4 O23 1.637596 1_555
Be4 O12 1.637596 1_555
Be4 O21 1.637596 1_455
Be4 O16 1.637596 1_455
Be5 O14 1.637596 1_555
Be5 O18 1.637596 1_455
Be5 O20 1.637596 1_455
Be5 O22 1.637596 1_555
I0 Li0 2.761433 1_555
I0 Li1 2.761433 1_445
I0 Li4 2.761433 1_544
I0 Li2 2.761433 1_454
I1 Li3 2.761433 1_555
I1 Li5 2.761433 1_555
I1 Li7 2.761433 1_555
I1 Li6 2.761433 1_555
O0 P2 1.552397 1_555
O1 P3 1.552397 1_655
O2 P2 1.552397 1_655
O3 P4 1.552397 1_555
O4 P1 1.552397 1_556
O5 P3 1.552397 1_555
O6 P5 1.552397 1_565
O7 P0 1.552397 1_556
O8 P4 1.552397 1_565
O9 P1 1.552397 1_555
O10 P5 1.552397 1_555
O11 P0 1.552397 1_555
O12 P0 1.552397 1_555
O13 P5 1.552397 1_565
O14 P0 1.552397 1_556
O15 P5 1.552397 1_555
O16 P1 1.552397 1_555
O17 P4 1.552397 1_555
O18 P1 1.552397 1_556
O19 P4 1.552397 1_565
O20 P3 1.552397 1_655
O21 P2 1.552397 1_655
O22 P2 1.552397 1_555
O23 P3 1.552397 1_555
