# generated using pymatgen
data_MoP3H27C9I2O
_symmetry_space_group_name_H-M   'P 1'
_cell_length_a   10.55054000
_cell_length_b   11.26587600
_cell_length_c   20.05151000
_cell_angle_alpha   90.00000000
_cell_angle_beta   90.00000000
_cell_angle_gamma   90.00000000
_symmetry_Int_Tables_number   1
_chemical_formula_structural   MoP3H27C9I2O
_chemical_formula_sum   'Mo4 P12 H108 C36 I8 O4'
_cell_volume   2383.34404145
_cell_formula_units_Z   4
loop_
 _symmetry_equiv_pos_site_id
 _symmetry_equiv_pos_as_xyz
  1  'x, y, z'
loop_
 _atom_site_type_symbol
 _atom_site_label
 _atom_site_symmetry_multiplicity
 _atom_site_fract_x
 _atom_site_fract_y
 _atom_site_fract_z
 _atom_site_occupancy
  Mo  Mo0  1  0.75570600  0.43489000  0.38685200  1
  Mo  Mo1  1  0.74429400  0.56511000  0.88685200  1
  Mo  Mo2  1  0.25570600  0.06511000  0.61314800  1
  Mo  Mo3  1  0.24429400  0.93489000  0.11314800  1
  P  P0  1  0.52397000  0.35445600  0.38804100  1
  P  P1  1  0.97603000  0.64554400  0.88804100  1
  P  P2  1  0.02397000  0.14554400  0.61195900  1
  P  P3  1  0.47603000  0.85445600  0.11195900  1
  P  P4  1  0.69656400  0.64086000  0.44170800  1
  P  P5  1  0.80343600  0.35914000  0.94170800  1
  P  P6  1  0.19656400  0.85914000  0.55829200  1
  P  P7  1  0.30343600  0.14086000  0.05829200  1
  P  P8  1  0.83197600  0.27643300  0.29800900  1
  P  P9  1  0.66802400  0.72356700  0.79800900  1
  P  P10  1  0.33197600  0.22356700  0.70199100  1
  P  P11  1  0.16802400  0.77643300  0.20199100  1
  H  H0  1  0.44759700  0.34485400  0.27421100  1
  H  H1  1  0.05240300  0.65514600  0.77421100  1
  H  H2  1  0.94759700  0.15514600  0.72578900  1
  H  H3  1  0.55240300  0.84485400  0.22578900  1
  H  H4  1  0.41219900  0.48363300  0.31207600  1
  H  H5  1  0.08780100  0.51636700  0.81207600  1
  H  H6  1  0.91219900  0.01636700  0.68792400  1
  H  H7  1  0.58780100  0.98363300  0.18792400  1
  H  H8  1  0.31895700  0.35425000  0.33202400  1
  H  H9  1  0.18104300  0.64575000  0.83202400  1
  H  H10  1  0.81895700  0.14575000  0.66797600  1
  H  H11  1  0.68104300  0.85425000  0.16797600  1
  H  H12  1  0.34285000  0.35184100  0.46148600  1
  H  H13  1  0.15715000  0.64815900  0.96148600  1
  H  H14  1  0.84285000  0.14815900  0.53851400  1
  H  H15  1  0.65715000  0.85184100  0.03851400  1
  H  H16  1  0.41803800  0.49419400  0.46425200  1
  H  H17  1  0.08196200  0.50580600  0.96425200  1
  H  H18  1  0.91803800  0.00580600  0.53574800  1
  H  H19  1  0.58196200  0.99419400  0.03574800  1
  H  H20  1  0.48780100  0.37037600  0.50654300  1
  H  H21  1  0.01219900  0.62962400  0.00654300  1
  H  H22  1  0.98780100  0.12962400  0.49345700  1
  H  H23  1  0.51219900  0.87037600  0.99345700  1
  H  H24  1  0.41577600  0.16860100  0.40763000  1
  H  H25  1  0.08422400  0.83139900  0.90763000  1
  H  H26  1  0.91577600  0.33139900  0.59237000  1
  H  H27  1  0.58422400  0.66860100  0.09237000  1
  H  H28  1  0.57387700  0.16753100  0.44010100  1
  H  H29  1  0.92612300  0.83246900  0.94010100  1
  H  H30  1  0.07387700  0.33246900  0.55989900  1
  H  H31  1  0.42612300  0.66753100  0.05989900  1
  H  H32  1  0.54647100  0.14748400  0.35225100  1
  H  H33  1  0.95352900  0.85251600  0.85225100  1
  H  H34  1  0.04647100  0.35251600  0.64774900  1
  H  H35  1  0.45352900  0.64748400  0.14774900  1
  H  H36  1  0.76855800  0.84225200  0.45533200  1
  H  H37  1  0.73144200  0.15774800  0.95533200  1
  H  H38  1  0.26855800  0.65774800  0.54466800  1
  H  H39  1  0.23144200  0.34225200  0.04466800  1
  H  H40  1  0.79366300  0.78994000  0.37178300  1
  H  H41  1  0.70633700  0.21006000  0.87178300  1
  H  H42  1  0.29366300  0.71006000  0.62821700  1
  H  H43  1  0.20633700  0.28994000  0.12821700  1
  H  H44  1  0.89949000  0.74448000  0.43624600  1
  H  H45  1  0.60051000  0.25552000  0.93624600  1
  H  H46  1  0.39949000  0.75552000  0.56375400  1
  H  H47  1  0.10051000  0.24448000  0.06375400  1
  H  H48  1  0.78600400  0.60969800  0.55167200  1
  H  H49  1  0.71399600  0.39030200  0.05167200  1
  H  H50  1  0.28600400  0.89030200  0.44832800  1
  H  H51  1  0.21399600  0.10969800  0.94832800  1
  H  H52  1  0.62285000  0.57123200  0.54976500  1
  H  H53  1  0.87715000  0.42876800  0.04976500  1
  H  H54  1  0.12285000  0.92876800  0.45023500  1
  H  H55  1  0.37715000  0.07123200  0.95023500  1
  H  H56  1  0.66786700  0.72501800  0.55275800  1
  H  H57  1  0.83213300  0.27498200  0.05275800  1
  H  H58  1  0.16786700  0.77498200  0.44724200  1
  H  H59  1  0.33213300  0.22501800  0.94724200  1
  H  H60  1  0.53102900  0.78867300  0.45100100  1
  H  H61  1  0.96897100  0.21132700  0.95100100  1
  H  H62  1  0.03102900  0.71132700  0.54899900  1
  H  H63  1  0.46897100  0.28867300  0.04899900  1
  H  H64  1  0.46493100  0.64832800  0.42722800  1
  H  H65  1  0.03506900  0.35167200  0.92722800  1
  H  H66  1  0.96493100  0.85167200  0.57277200  1
  H  H67  1  0.53506900  0.14832800  0.07277200  1
  H  H68  1  0.54820200  0.73467200  0.36717600  1
  H  H69  1  0.95179800  0.26532800  0.86717600  1
  H  H70  1  0.04820200  0.76532800  0.63282400  1
  H  H71  1  0.45179800  0.23467200  0.13282400  1
  H  H72  1  0.76361500  0.16437100  0.20177800  1
  H  H73  1  0.73638500  0.83562900  0.70177800  1
  H  H74  1  0.26361500  0.33562900  0.79822200  1
  H  H75  1  0.23638500  0.66437100  0.29822200  1
  H  H76  1  0.68840500  0.30765600  0.20639600  1
  H  H77  1  0.81159500  0.69234400  0.70639600  1
  H  H78  1  0.18840500  0.19234400  0.79360400  1
  H  H79  1  0.31159500  0.80765600  0.29360400  1
  H  H80  1  0.63358500  0.18853900  0.25785400  1
  H  H81  1  0.86641500  0.81146100  0.75785400  1
  H  H82  1  0.13358500  0.31146100  0.74214600  1
  H  H83  1  0.36641500  0.68853900  0.24214600  1
  H  H84  1  0.79991300  0.09274700  0.35869500  1
  H  H85  1  0.70008700  0.90725300  0.85869500  1
  H  H86  1  0.29991300  0.40725300  0.64130500  1
  H  H87  1  0.20008700  0.59274700  0.14130500  1
  H  H88  1  0.95311900  0.15467600  0.37421100  1
  H  H89  1  0.54688100  0.84532400  0.87421100  1
  H  H90  1  0.45311900  0.34532400  0.62578900  1
  H  H91  1  0.04688100  0.65467600  0.12578900  1
  H  H92  1  0.92344200  0.07842600  0.29726900  1
  H  H93  1  0.57655800  0.92157400  0.79726900  1
  H  H94  1  0.42344200  0.42157400  0.70273100  1
  H  H95  1  0.07655800  0.57842600  0.20273100  1
  H  H96  1  0.04984500  0.33451700  0.27602200  1
  H  H97  1  0.45015500  0.66548300  0.77602200  1
  H  H98  1  0.54984500  0.16548300  0.72397800  1
  H  H99  1  0.95015500  0.83451700  0.22397800  1
  H  H100  1  0.94195400  0.39297500  0.21547000  1
  H  H101  1  0.55804600  0.60702500  0.71547000  1
  H  H102  1  0.44195400  0.10702500  0.78453000  1
  H  H103  1  0.05804600  0.89297500  0.28453000  1
  H  H104  1  0.98731400  0.23855700  0.21238700  1
  H  H105  1  0.51268600  0.76144300  0.71238700  1
  H  H106  1  0.48731400  0.26144300  0.78761300  1
  H  H107  1  0.01268600  0.73855700  0.28761300  1
  C  C0  1  0.41424400  0.38735400  0.32015800  1
  C  C1  1  0.08575600  0.61264600  0.82015800  1
  C  C2  1  0.91424400  0.11264600  0.67984200  1
  C  C3  1  0.58575600  0.88735400  0.17984200  1
  C  C4  1  0.43442600  0.39817500  0.46230100  1
  C  C5  1  0.06557400  0.60182500  0.96230100  1
  C  C6  1  0.93442600  0.10182500  0.53769900  1
  C  C7  1  0.56557400  0.89817500  0.03769900  1
  C  C8  1  0.51474500  0.19334200  0.39752900  1
  C  C9  1  0.98525500  0.80665800  0.89752900  1
  C  C10  1  0.01474500  0.30665800  0.60247100  1
  C  C11  1  0.48525500  0.69334200  0.10247100  1
  C  C12  1  0.80087500  0.76695200  0.42475700  1
  C  C13  1  0.69912500  0.23304800  0.92475700  1
  C  C14  1  0.30087600  0.73304800  0.57524300  1
  C  C15  1  0.19912500  0.26695200  0.07524300  1
  C  C16  1  0.69262300  0.63707800  0.53297000  1
  C  C17  1  0.80737700  0.36292200  0.03297000  1
  C  C18  1  0.19262300  0.86292200  0.46703000  1
  C  C19  1  0.30737700  0.13707800  0.96703000  1
  C  C20  1  0.54456400  0.70921400  0.41989400  1
  C  C21  1  0.95543600  0.29078600  0.91989400  1
  C  C22  1  0.04456400  0.79078600  0.58010600  1
  C  C23  1  0.45543600  0.20921400  0.08010600  1
  C  C24  1  0.71739900  0.22919400  0.23493300  1
  C  C25  1  0.78260100  0.77080600  0.73493300  1
  C  C26  1  0.21739900  0.27080600  0.76506700  1
  C  C27  1  0.28260100  0.72919400  0.26506700  1
  C  C28  1  0.88208400  0.13622300  0.33561400  1
  C  C29  1  0.61791600  0.86377700  0.83561400  1
  C  C30  1  0.38208400  0.36377700  0.66438600  1
  C  C31  1  0.11791600  0.63622300  0.16438600  1
  C  C32  1  0.96677200  0.31477900  0.24513800  1
  C  C33  1  0.53322800  0.68522100  0.74513800  1
  C  C34  1  0.46677200  0.18522100  0.75486200  1
  C  C35  1  0.03322800  0.81477900  0.25486200  1
  I  I0  1  0.01611300  0.50373900  0.39670500  1
  I  I1  1  0.48388700  0.49626100  0.89670500  1
  I  I2  1  0.51611300  0.99626100  0.60329500  1
  I  I3  1  0.98388700  0.00373900  0.10329500  1
  I  I4  1  0.71056200  0.57259600  0.26209300  1
  I  I5  1  0.78943800  0.42740400  0.76209300  1
  I  I6  1  0.21056200  0.92740400  0.73790700  1
  I  I7  1  0.28943800  0.07259600  0.23790700  1
  O  O0  1  0.75134300  0.35790500  0.46576500  1
  O  O1  1  0.74865700  0.64209500  0.96576500  1
  O  O2  1  0.25134300  0.14209500  0.53423500  1
  O  O3  1  0.24865700  0.85790500  0.03423500  1
loop_
_geom_bond_atom_site_label_1
_geom_bond_atom_site_label_2
_geom_bond_distance
_geom_bond_site_symmetry_2
Mo0 O0 1.805017 1_555
Mo1 O1 1.805017 1_555
Mo2 O2 1.805017 1_555
Mo3 O3 1.805017 1_555
C0 H0 1.096304 1_555
C0 H4 1.096919 1_555
C0 H8 1.098356 1_555
C0 P0 1.824913 1_555
C1 H1 1.096304 1_555
C1 H5 1.096919 1_555
C1 H9 1.098356 1_555
C1 P1 1.824913 1_455
C2 H2 1.096304 1_555
C2 H6 1.096919 1_555
C2 H10 1.098356 1_555
C2 P2 1.824913 1_655
C3 H3 1.096304 1_555
C3 H7 1.096919 1_555
C3 H11 1.098356 1_555
C3 P3 1.824913 1_555
C4 H16 1.096167 1_555
C4 H20 1.096441 1_555
C4 H12 1.098290 1_555
C4 P0 1.830932 1_555
C5 H17 1.096167 1_555
C5 H21 1.096441 1_556
C5 H13 1.098290 1_555
C5 P1 1.830932 1_455
C6 H18 1.096167 1_555
C6 H22 1.096441 1_555
C6 H14 1.098290 1_555
C6 P2 1.830932 1_655
C7 H19 1.096167 1_555
C7 H23 1.096441 1_554
C7 H15 1.098290 1_555
C7 P3 1.830932 1_555
C8 H28 1.096569 1_555
C8 H32 1.096913 1_555
C8 H24 1.099553 1_555
C8 P0 1.827627 1_555
C9 H29 1.096569 1_555
C9 H33 1.096913 1_555
C9 H25 1.099553 1_655
C9 P1 1.827627 1_555
C10 H30 1.096569 1_555
C10 H34 1.096913 1_555
C10 H26 1.099553 1_455
C10 P2 1.827627 1_555
C11 H31 1.096569 1_555
C11 H35 1.096913 1_555
C11 H27 1.099553 1_555
C11 P3 1.827627 1_555
C12 H44 1.095300 1_555
C12 H40 1.095969 1_555
C12 H36 1.100801 1_555
C12 P4 1.828834 1_555
C13 H45 1.095300 1_555
C13 H41 1.095969 1_555
C13 H37 1.100801 1_555
C13 P5 1.828834 1_555
C14 H46 1.095290 1_555
C14 H42 1.095970 1_555
C14 H38 1.100805 1_555
C14 P6 1.828841 1_555
C15 H47 1.095300 1_555
C15 H43 1.095969 1_555
C15 H39 1.100801 1_555
C15 P7 1.828834 1_555
C16 H52 1.098000 1_555
C16 H48 1.098378 1_555
C16 H56 1.098718 1_555
C16 P4 1.830909 1_555
C17 H53 1.098000 1_555
C17 H49 1.098378 1_555
C17 H57 1.098718 1_555
C17 P5 1.830909 1_554
C18 H54 1.098000 1_555
C18 H50 1.098378 1_555
C18 H58 1.098718 1_555
C18 P6 1.830909 1_555
C19 H55 1.098000 1_555
C19 H51 1.098378 1_555
C19 H59 1.098718 1_555
C19 P7 1.830909 1_556
C20 H64 1.094541 1_555
C20 H68 1.095965 1_555
C20 H60 1.100357 1_555
C20 P4 1.831972 1_555
C21 H65 1.094541 1_655
C21 H69 1.095965 1_555
C21 H61 1.100357 1_555
C21 P5 1.831972 1_555
C22 H66 1.094541 1_455
C22 H70 1.095965 1_555
C22 H62 1.100357 1_555
C22 P6 1.831972 1_555
C23 H67 1.094541 1_555
C23 H71 1.095965 1_555
C23 H63 1.100357 1_555
C23 P7 1.831972 1_555
C24 H76 1.096520 1_555
C24 H80 1.096798 1_555
C24 H72 1.101384 1_555
C24 P8 1.828710 1_555
C25 H77 1.096520 1_555
C25 H81 1.096798 1_555
C25 H73 1.101384 1_555
C25 P9 1.828710 1_555
C26 H78 1.096520 1_555
C26 H82 1.096798 1_555
C26 H74 1.101384 1_555
C26 P10 1.828710 1_555
C27 H79 1.096520 1_555
C27 H83 1.096798 1_555
C27 H75 1.101384 1_555
C27 P11 1.828710 1_555
C28 H88 1.097210 1_555
C28 H92 1.097973 1_555
C28 H84 1.098040 1_555
C28 P8 1.828431 1_555
C29 H89 1.097210 1_555
C29 H93 1.097973 1_555
C29 H85 1.098040 1_555
C29 P9 1.828431 1_555
C30 H90 1.097210 1_555
C30 H94 1.097973 1_555
C30 H86 1.098040 1_555
C30 P10 1.828431 1_555
C31 H91 1.097210 1_555
C31 H95 1.097973 1_555
C31 H87 1.098040 1_555
C31 P11 1.828431 1_555
C32 H100 1.094770 1_555
C32 H96 1.095963 1_655
C32 H104 1.102549 1_555
C32 P8 1.825677 1_555
C33 H101 1.094770 1_555
C33 H97 1.095963 1_555
C33 H105 1.102549 1_555
C33 P9 1.825677 1_555
C34 H102 1.094770 1_555
C34 H98 1.095963 1_555
C34 H106 1.102549 1_555
C34 P10 1.825677 1_555
C35 H103 1.094770 1_555
C35 H99 1.095963 1_455
C35 H107 1.102549 1_555
C35 P11 1.825677 1_555
I0 Mo0 2.861652 1_455
I1 Mo1 2.861652 1_555
I2 Mo2 2.861652 1_565
I3 Mo3 2.861652 1_645
I4 Mo0 2.981890 1_555
I5 Mo1 2.981890 1_555
I6 Mo2 2.981890 1_565
I7 Mo3 2.981890 1_545
