# generated using pymatgen
data_YCrO3
_symmetry_space_group_name_H-M   'P 1'
_cell_length_a   5.24543586
_cell_length_b   5.53958790
_cell_length_c   7.54985526
_cell_angle_alpha   89.99998068
_cell_angle_beta   90.00033939
_cell_angle_gamma   89.99999979
_symmetry_Int_Tables_number   1
_chemical_formula_structural   YCrO3
_chemical_formula_sum   'Y4 Cr4 O12'
_cell_volume   219.38031951
_cell_formula_units_Z   4
loop_
 _symmetry_equiv_pos_site_id
 _symmetry_equiv_pos_as_xyz
  1  'x, y, z'
loop_
 _atom_site_type_symbol
 _atom_site_label
 _atom_site_symmetry_multiplicity
 _atom_site_fract_x
 _atom_site_fract_y
 _atom_site_fract_z
 _atom_site_occupancy
  Y  Y0  1  0.01831364  0.93178368  0.75000073  1
  Y  Y1  1  0.51831449  0.56821733  0.25000124  1
  Y  Y2  1  0.48168602  0.43178160  0.74999858  1
  Y  Y3  1  0.98168604  0.06821824  0.24999946  1
  Cr  Cr0  1  0.49999924  0.00000341  0.50000150  1
  Cr  Cr1  1  0.00000023  0.49999916  0.00000053  1
  Cr  Cr2  1  -0.00000036  0.49999675  0.49999854  1
  Cr  Cr3  1  0.50000006  0.00000053  -0.00000046  1
  O  O0  1  0.10791998  0.46350535  0.25001370  1
  O  O1  1  0.60792052  0.03649521  0.75001354  1
  O  O2  1  0.39207879  0.96350501  0.24998608  1
  O  O3  1  0.89207918  0.53649512  0.74998692  1
  O  O4  1  0.69280830  0.30244984  0.44474446  1
  O  O5  1  0.19278258  0.19757972  0.55525263  1
  O  O6  1  0.80719195  0.80244856  0.05525556  1
  O  O7  1  0.30721635  0.69757925  0.94474749  1
  O  O8  1  0.30719215  0.69755041  0.55525564  1
  O  O9  1  0.80721760  0.80242044  0.44474749  1
  O  O10  1  0.19280697  0.19755144  0.94474440  1
  O  O11  1  0.69278328  0.30242096  0.05525299  1
loop_
_geom_bond_atom_site_label_1
_geom_bond_atom_site_label_2
_geom_bond_distance
_geom_bond_site_symmetry_2
Cr0 O1 1.980954 1_555
Cr0 O2 1.980980 1_545
Cr0 O5 1.992187 1_555
Cr0 O9 1.992219 1_545
Cr0 O4 2.000993 1_555
Cr0 O8 2.001013 1_545
Cr1 O0 1.980961 1_555
Cr1 O3 1.980967 1_454
Cr1 O11 1.992196 1_455
Cr1 O7 1.992199 1_554
Cr1 O10 2.000991 1_554
Cr1 O6 2.001001 1_455
Cr2 O0 1.980763 1_555
Cr2 O3 1.980792 1_455
Cr2 O4 1.991991 1_455
Cr2 O8 1.992021 1_555
Cr2 O5 2.000780 1_555
Cr2 O9 2.000804 1_455
Cr3 O1 1.980773 1_554
Cr3 O2 1.980779 1_545
Cr3 O6 1.992011 1_545
Cr3 O10 1.992012 1_554
Cr3 O11 2.000796 1_555
Cr3 O7 2.000799 1_544
O0 Y1 2.229480 1_555
O0 Y3 2.287652 1_455
O1 Y0 2.229472 1_645
O1 Y2 2.287649 1_555
O2 Y3 2.229473 1_465
O2 Y1 2.287658 1_555
O3 Y2 2.229475 1_555
O3 Y0 2.287661 1_655
O4 Y1 2.273099 1_555
O4 Y3 2.478211 1_555
O4 Y2 2.655375 1_555
O5 Y0 2.273180 1_545
O5 Y2 2.478201 1_555
O5 Y3 2.655345 1_455
O6 Y3 2.273112 1_565
O6 Y1 2.478211 1_555
O6 Y0 2.655383 1_654
O7 Y2 2.273192 1_555
O7 Y0 2.478209 1_555
O7 Y1 2.655353 1_556
O8 Y2 2.273103 1_555
O8 Y0 2.478219 1_555
O8 Y1 2.655379 1_555
O9 Y3 2.273185 1_565
O9 Y1 2.478205 1_555
O9 Y0 2.655347 1_655
O10 Y0 2.273102 1_545
O10 Y2 2.478214 1_555
O10 Y3 2.655380 1_456
O11 Y1 2.273182 1_555
O11 Y3 2.478203 1_555
O11 Y2 2.655353 1_554
