# generated using pymatgen
data_RbBeN3
_symmetry_space_group_name_H-M   'P 1'
_cell_length_a   8.43036600
_cell_length_b   14.11111200
_cell_length_c   15.12570700
_cell_angle_alpha   90.00000000
_cell_angle_beta   90.00000000
_cell_angle_gamma   90.00000000
_symmetry_Int_Tables_number   1
_chemical_formula_structural   RbBeN3
_chemical_formula_sum   'Rb16 Be16 N48'
_cell_volume   1799.38191828
_cell_formula_units_Z   16
loop_
 _symmetry_equiv_pos_site_id
 _symmetry_equiv_pos_as_xyz
  1  'x, y, z'
loop_
 _atom_site_type_symbol
 _atom_site_label
 _atom_site_symmetry_multiplicity
 _atom_site_fract_x
 _atom_site_fract_y
 _atom_site_fract_z
 _atom_site_occupancy
  Rb  Rb0  1  0.92284400  0.25244400  0.47805400  1
  Rb  Rb1  1  0.57715600  0.75244400  0.52194600  1
  Rb  Rb2  1  0.42284400  0.74755600  0.02194600  1
  Rb  Rb3  1  0.07715600  0.24755600  0.97805400  1
  Rb  Rb4  1  0.07715600  0.74755600  0.52194600  1
  Rb  Rb5  1  0.42284400  0.24755600  0.47805400  1
  Rb  Rb6  1  0.57715600  0.25244400  0.97805400  1
  Rb  Rb7  1  0.92284400  0.75244400  0.02194600  1
  Rb  Rb8  1  0.27467000  0.49398100  0.69244600  1
  Rb  Rb9  1  0.22533000  0.99398100  0.30755400  1
  Rb  Rb10  1  0.77467000  0.50601900  0.80755400  1
  Rb  Rb11  1  0.72533000  0.00601900  0.19244600  1
  Rb  Rb12  1  0.72533000  0.50601900  0.30755400  1
  Rb  Rb13  1  0.77467000  0.00601900  0.69244600  1
  Rb  Rb14  1  0.22533000  0.49398100  0.19244600  1
  Rb  Rb15  1  0.27467000  0.99398100  0.80755400  1
  Be  Be0  1  0.64754500  0.03068900  0.47269700  1
  Be  Be1  1  0.85245500  0.53068900  0.52730300  1
  Be  Be2  1  0.14754500  0.96931100  0.02730300  1
  Be  Be3  1  0.35245500  0.46931100  0.97269700  1
  Be  Be4  1  0.35245500  0.96931100  0.52730300  1
  Be  Be5  1  0.14754500  0.46931100  0.47269700  1
  Be  Be6  1  0.85245500  0.03068900  0.97269700  1
  Be  Be7  1  0.64754500  0.53068900  0.02730300  1
  Be  Be8  1  0.97330900  0.22852500  0.25066700  1
  Be  Be9  1  0.52669100  0.72852500  0.74933300  1
  Be  Be10  1  0.47330900  0.77147500  0.24933300  1
  Be  Be11  1  0.02669100  0.27147500  0.75066700  1
  Be  Be12  1  0.02669100  0.77147500  0.74933300  1
  Be  Be13  1  0.47330900  0.27147500  0.25066700  1
  Be  Be14  1  0.52669100  0.22852500  0.75066700  1
  Be  Be15  1  0.97330900  0.72852500  0.24933300  1
  N  N0  1  0.74768600  0.93137700  0.48464500  1
  N  N1  1  0.75231400  0.43137700  0.51535500  1
  N  N2  1  0.24768600  0.06862300  0.01535500  1
  N  N3  1  0.25231400  0.56862300  0.98464500  1
  N  N4  1  0.25231400  0.06862300  0.51535500  1
  N  N5  1  0.24768600  0.56862300  0.48464500  1
  N  N6  1  0.75231400  0.93137700  0.98464500  1
  N  N7  1  0.74768600  0.43137700  0.01535500  1
  N  N8  1  0.67522500  0.11973900  0.53958600  1
  N  N9  1  0.82477500  0.61973900  0.46041400  1
  N  N10  1  0.17522500  0.88026100  0.96041400  1
  N  N11  1  0.32477500  0.38026100  0.03958600  1
  N  N12  1  0.32477500  0.88026100  0.46041400  1
  N  N13  1  0.17522500  0.38026100  0.53958600  1
  N  N14  1  0.82477500  0.11973900  0.03958600  1
  N  N15  1  0.67522500  0.61973900  0.96041400  1
  N  N16  1  0.54895900  0.05370400  0.38251700  1
  N  N17  1  0.95104100  0.55370400  0.61748300  1
  N  N18  1  0.04895900  0.94629600  0.11748300  1
  N  N19  1  0.45104100  0.44629600  0.88251700  1
  N  N20  1  0.45104100  0.94629600  0.61748300  1
  N  N21  1  0.04895900  0.44629600  0.38251700  1
  N  N22  1  0.95104100  0.05370400  0.88251700  1
  N  N23  1  0.54895900  0.55370400  0.11748300  1
  N  N24  1  0.99631900  0.14512700  0.30864500  1
  N  N25  1  0.50368100  0.64512700  0.69135500  1
  N  N26  1  0.49631900  0.85487300  0.19135500  1
  N  N27  1  0.00368100  0.35487300  0.80864500  1
  N  N28  1  0.00368100  0.85487300  0.69135500  1
  N  N29  1  0.49631900  0.35487300  0.30864500  1
  N  N30  1  0.50368100  0.14512700  0.80864500  1
  N  N31  1  0.99631900  0.64512700  0.19135500  1
  N  N32  1  0.89178200  0.33725900  0.22382200  1
  N  N33  1  0.60821800  0.83725900  0.77617800  1
  N  N34  1  0.39178200  0.66274100  0.27617800  1
  N  N35  1  0.10821800  0.16274100  0.72382200  1
  N  N36  1  0.10821800  0.66274100  0.77617800  1
  N  N37  1  0.39178200  0.16274100  0.22382200  1
  N  N38  1  0.60821800  0.33725900  0.72382200  1
  N  N39  1  0.89178200  0.83725900  0.27617800  1
  N  N40  1  0.97956200  0.31398800  0.16802000  1
  N  N41  1  0.52043800  0.81398800  0.83198000  1
  N  N42  1  0.47956200  0.68601200  0.33198000  1
  N  N43  1  0.02043800  0.18601200  0.66802000  1
  N  N44  1  0.02043800  0.68601200  0.83198000  1
  N  N45  1  0.47956200  0.18601200  0.16802000  1
  N  N46  1  0.52043800  0.31398800  0.66802000  1
  N  N47  1  0.97956200  0.81398800  0.33198000  1
loop_
_geom_bond_atom_site_label_1
_geom_bond_atom_site_label_2
_geom_bond_distance
_geom_bond_site_symmetry_2
Be0 N16 1.629976 1_555
Be0 N8 1.630064 1_555
Be0 N0 1.645997 1_545
Be1 N17 1.629976 1_555
Be1 N9 1.630064 1_555
Be1 N1 1.645997 1_555
Be2 N18 1.629976 1_555
Be2 N10 1.630064 1_554
Be2 N2 1.645997 1_565
Be3 N19 1.629976 1_555
Be3 N11 1.630064 1_556
Be3 N3 1.645997 1_555
Be4 N20 1.629976 1_555
Be4 N12 1.630064 1_555
Be4 N4 1.645997 1_565
Be5 N21 1.629976 1_555
Be5 N13 1.630064 1_555
Be5 N5 1.645997 1_555
Be6 N22 1.629976 1_555
Be6 N14 1.630064 1_556
Be6 N6 1.645997 1_545
Be7 N23 1.629976 1_555
Be7 N15 1.630064 1_554
Be7 N7 1.645997 1_555
Be8 N24 1.480417 1_555
Be8 N32 1.729599 1_555
Be8 N40 1.737785 1_555
Be9 N25 1.480417 1_555
Be9 N33 1.729599 1_555
Be9 N41 1.737785 1_555
Be10 N26 1.480417 1_555
Be10 N34 1.729599 1_555
Be10 N42 1.737785 1_555
Be11 N27 1.480417 1_555
Be11 N35 1.729599 1_555
Be11 N43 1.737785 1_555
Be12 N28 1.480417 1_555
Be12 N36 1.729599 1_555
Be12 N44 1.737785 1_555
Be13 N29 1.480417 1_555
Be13 N37 1.729599 1_555
Be13 N45 1.737785 1_555
Be14 N30 1.480417 1_555
Be14 N38 1.729599 1_555
Be14 N46 1.737785 1_555
Be15 N31 1.480417 1_555
Be15 N39 1.729599 1_555
Be15 N47 1.737785 1_555
N0 Rb1 2.959805 1_555
N0 Rb13 3.322719 1_565
N1 Rb0 2.959805 1_555
N1 Rb12 3.322719 1_555
N2 Rb3 2.959805 1_554
N2 Rb15 3.322719 1_544
N3 Rb2 2.959805 1_556
N3 Rb14 3.322719 1_556
N4 Rb5 2.959805 1_555
N4 Rb9 3.322719 1_545
N5 Rb4 2.959805 1_555
N5 Rb8 3.322719 1_555
N6 Rb7 2.959805 1_556
N6 Rb11 3.322719 1_566
N7 Rb6 2.959805 1_554
N7 Rb10 3.322719 1_554
N8 Rb13 2.936637 1_555
N8 Rb5 2.940460 1_555
N8 Rb0 2.954768 1_555
N9 Rb12 2.936637 1_555
N9 Rb4 2.940460 1_655
N9 Rb1 2.954768 1_555
N10 Rb15 2.936637 1_555
N10 Rb7 2.940460 1_456
N10 Rb2 2.954768 1_556
N11 Rb14 2.936637 1_555
N11 Rb6 2.940460 1_554
N11 Rb3 2.954768 1_554
N12 Rb9 2.936637 1_555
N12 Rb1 2.940460 1_555
N12 Rb4 2.954768 1_555
N13 Rb8 2.936637 1_555
N13 Rb0 2.940460 1_455
N13 Rb5 2.954768 1_555
N14 Rb11 2.936637 1_555
N14 Rb3 2.940460 1_654
N14 Rb6 2.954768 1_554
N15 Rb10 2.936637 1_555
N15 Rb2 2.940460 1_556
N15 Rb7 2.954768 1_556
N16 Rb9 3.072390 1_545
N16 Rb5 3.271296 1_555
N16 Rb11 3.305897 1_555
N17 Rb8 3.072390 1_655
N17 Rb4 3.271296 1_655
N17 Rb10 3.305897 1_555
N18 Rb11 3.072390 1_465
N18 Rb7 3.271296 1_455
N18 Rb9 3.305897 1_555
N19 Rb10 3.072390 1_555
N19 Rb6 3.271296 1_555
N19 Rb8 3.305897 1_555
N20 Rb13 3.072390 1_565
N20 Rb1 3.271296 1_555
N20 Rb15 3.305897 1_555
N21 Rb12 3.072390 1_455
N21 Rb0 3.271296 1_455
N21 Rb14 3.305897 1_555
N22 Rb15 3.072390 1_645
N22 Rb3 3.271296 1_655
N22 Rb13 3.305897 1_555
N23 Rb14 3.072390 1_555
N23 Rb2 3.271296 1_555
N23 Rb12 3.305897 1_555
N24 Rb9 2.876920 1_645
N24 Rb0 3.040235 1_555
N24 Rb11 3.487332 1_555
N25 Rb8 2.876920 1_555
N25 Rb1 3.040235 1_555
N25 Rb10 3.487332 1_555
N26 Rb11 2.876920 1_565
N26 Rb2 3.040235 1_555
N26 Rb9 3.487332 1_555
N27 Rb10 2.876920 1_455
N27 Rb3 3.040235 1_555
N27 Rb8 3.487332 1_555
N28 Rb13 2.876920 1_465
N28 Rb4 3.040235 1_555
N28 Rb15 3.487332 1_555
N29 Rb12 2.876920 1_555
N29 Rb5 3.040235 1_555
N29 Rb14 3.487332 1_555
N30 Rb15 2.876920 1_545
N30 Rb6 3.040235 1_555
N30 Rb13 3.487332 1_555
N31 Rb14 2.876920 1_655
N31 Rb7 3.040235 1_555
N31 Rb12 3.487332 1_555
N32 N40 1.169560 1_555
N32 Rb12 3.040424 1_555
N33 N41 1.169560 1_555
N33 Rb13 3.040424 1_565
N34 N42 1.169560 1_555
N34 Rb14 3.040424 1_555
N35 N43 1.169560 1_555
N35 Rb15 3.040424 1_545
N36 N44 1.169560 1_555
N36 Rb8 3.040424 1_555
N37 N45 1.169560 1_555
N37 Rb9 3.040424 1_545
N38 N46 1.169560 1_555
N38 Rb10 3.040424 1_555
N39 N47 1.169560 1_555
N39 Rb11 3.040424 1_565
N40 Rb3 3.132404 1_654
N40 Rb14 3.298549 1_655
N41 Rb2 3.132404 1_556
N41 Rb15 3.298549 1_555
N42 Rb1 3.132404 1_555
N42 Rb12 3.298549 1_555
N43 Rb0 3.132404 1_455
N43 Rb13 3.298549 1_455
N44 Rb7 3.132404 1_456
N44 Rb10 3.298549 1_455
N45 Rb6 3.132404 1_554
N45 Rb11 3.298549 1_555
N46 Rb5 3.132404 1_555
N46 Rb8 3.298549 1_555
N47 Rb4 3.132404 1_655
N47 Rb9 3.298549 1_655
