# generated using pymatgen
data_CeBi2(Rh2O5)3
_symmetry_space_group_name_H-M   'P 1'
_cell_length_a   30.20491200
_cell_length_b   5.21499000
_cell_length_c   7.24494895
_cell_angle_alpha   89.92658653
_cell_angle_beta   90.00000000
_cell_angle_gamma   90.00000000
_symmetry_Int_Tables_number   1
_chemical_formula_structural   CeBi2(Rh2O5)3
_chemical_formula_sum   'Ce4 Bi8 Rh24 O60'
_cell_volume   1141.21120661
_cell_formula_units_Z   4
loop_
 _symmetry_equiv_pos_site_id
 _symmetry_equiv_pos_as_xyz
  1  'x, y, z'
loop_
 _atom_site_type_symbol
 _atom_site_label
 _atom_site_symmetry_multiplicity
 _atom_site_fract_x
 _atom_site_fract_y
 _atom_site_fract_z
 _atom_site_occupancy
  Ce  Ce0  1  0.00000000  0.70643000  0.75873800  1
  Ce  Ce1  1  0.66661800  0.70613400  0.75996300  1
  Ce  Ce2  1  0.33338200  0.70613400  0.75996300  1
  Ce  Ce3  1  0.00000000  0.79317400  0.25859900  1
  Bi  Bi0  1  0.66665000  0.78317700  0.25965000  1
  Bi  Bi1  1  0.33335000  0.78317700  0.25965000  1
  Bi  Bi2  1  0.16663400  0.28438500  0.24036500  1
  Bi  Bi3  1  0.83336600  0.28438500  0.24036500  1
  Bi  Bi4  1  0.50000000  0.28466600  0.24051700  1
  Bi  Bi5  1  0.16673700  0.21768000  0.74061600  1
  Bi  Bi6  1  0.83326300  0.21768000  0.74061600  1
  Bi  Bi7  1  0.50000000  0.21778900  0.74076700  1
  Rh  Rh0  1  0.10265600  0.75104700  0.91895800  1
  Rh  Rh1  1  0.76942900  0.75120200  0.91927600  1
  Rh  Rh2  1  0.43610800  0.75100700  0.91937100  1
  Rh  Rh3  1  0.22980300  0.74993400  0.42057500  1
  Rh  Rh4  1  0.89718600  0.74965900  0.41949200  1
  Rh  Rh5  1  0.56316600  0.75028800  0.42067600  1
  Rh  Rh6  1  0.93701900  0.24972900  0.08064500  1
  Rh  Rh7  1  0.60328500  0.24889300  0.08043400  1
  Rh  Rh8  1  0.26993700  0.24908300  0.08041800  1
  Rh  Rh9  1  0.06295900  0.25015100  0.58083000  1
  Rh  Rh10  1  0.72955700  0.24903600  0.57961400  1
  Rh  Rh11  1  0.39621900  0.24910500  0.57960800  1
  Rh  Rh12  1  0.06298100  0.24972900  0.08064500  1
  Rh  Rh13  1  0.73006300  0.24908300  0.08041800  1
  Rh  Rh14  1  0.39671500  0.24889300  0.08043400  1
  Rh  Rh15  1  0.93704100  0.25015100  0.58083000  1
  Rh  Rh16  1  0.60378100  0.24910500  0.57960800  1
  Rh  Rh17  1  0.27044300  0.24903600  0.57961400  1
  Rh  Rh18  1  0.23057100  0.75120200  0.91927600  1
  Rh  Rh19  1  0.89734400  0.75104700  0.91895800  1
  Rh  Rh20  1  0.56389200  0.75100700  0.91937100  1
  Rh  Rh21  1  0.10281400  0.74965900  0.41949200  1
  Rh  Rh22  1  0.77019700  0.74993400  0.42057500  1
  Rh  Rh23  1  0.43683400  0.75028800  0.42067600  1
  O  O0  1  0.10050400  0.56517300  0.16685400  1
  O  O1  1  0.76666600  0.56680300  0.16740200  1
  O  O2  1  0.43335200  0.56652500  0.16735300  1
  O  O3  1  0.23273500  0.93309900  0.66727900  1
  O  O4  1  0.89953200  0.93437400  0.66679400  1
  O  O5  1  0.56608900  0.93328700  0.66735500  1
  O  O6  1  0.93560200  0.43701100  0.83179700  1
  O  O7  1  0.60202100  0.43615400  0.83172800  1
  O  O8  1  0.26873900  0.43641600  0.83160200  1
  O  O9  1  0.06433900  0.06286700  0.33196900  1
  O  O10  1  0.73284200  0.06614900  0.33217400  1
  O  O11  1  0.39950400  0.06612300  0.33221600  1
  O  O12  1  0.06439800  0.43701100  0.83179700  1
  O  O13  1  0.73126100  0.43641600  0.83160200  1
  O  O14  1  0.39797900  0.43615400  0.83172800  1
  O  O15  1  0.93566100  0.06286700  0.33196900  1
  O  O16  1  0.60049600  0.06612300  0.33221600  1
  O  O17  1  0.26715800  0.06614900  0.33217400  1
  O  O18  1  0.23333400  0.56680300  0.16740200  1
  O  O19  1  0.89949600  0.56517300  0.16685400  1
  O  O20  1  0.56664800  0.56652500  0.16735300  1
  O  O21  1  0.10046800  0.93437400  0.66679400  1
  O  O22  1  0.76726500  0.93309900  0.66727900  1
  O  O23  1  0.43391100  0.93328700  0.66735500  1
  O  O24  1  0.12244400  0.09586500  0.01743100  1
  O  O25  1  0.78935500  0.09567000  0.01739700  1
  O  O26  1  0.45599600  0.09564100  0.01755900  1
  O  O27  1  0.21085500  0.40261700  0.51869700  1
  O  O28  1  0.87751300  0.40363200  0.51794800  1
  O  O29  1  0.54414100  0.40269100  0.51857400  1
  O  O30  1  0.95759000  0.90237400  0.98187500  1
  O  O31  1  0.62351100  0.90659300  0.97779500  1
  O  O32  1  0.29020800  0.90665300  0.97785500  1
  O  O33  1  0.04248300  0.59767200  0.48215300  1
  O  O34  1  0.71011600  0.60029700  0.48494500  1
  O  O35  1  0.37680300  0.60014600  0.48491200  1
  O  O36  1  0.04241000  0.90237400  0.98187500  1
  O  O37  1  0.70979200  0.90665300  0.97785500  1
  O  O38  1  0.37648900  0.90659300  0.97779500  1
  O  O39  1  0.95751700  0.59767200  0.48215300  1
  O  O40  1  0.62319700  0.60014600  0.48491200  1
  O  O41  1  0.28988400  0.60029700  0.48494500  1
  O  O42  1  0.21064500  0.09567000  0.01739700  1
  O  O43  1  0.87755600  0.09586500  0.01743100  1
  O  O44  1  0.54400400  0.09564100  0.01755900  1
  O  O45  1  0.12248700  0.40363200  0.51794800  1
  O  O46  1  0.78914500  0.40261700  0.51869700  1
  O  O47  1  0.45585900  0.40269100  0.51857400  1
  O  O48  1  0.16654300  0.59987800  0.88317000  1
  O  O49  1  0.83345700  0.59987800  0.88317000  1
  O  O50  1  0.50000000  0.59978500  0.88332200  1
  O  O51  1  0.16636600  0.89892500  0.38159400  1
  O  O52  1  0.83363400  0.89892500  0.38159400  1
  O  O53  1  0.50000000  0.89857100  0.38049800  1
  O  O54  1  0.00000000  0.41583100  0.12194200  1
  O  O55  1  0.66665900  0.40570000  0.11558700  1
  O  O56  1  0.33334100  0.40570000  0.11558700  1
  O  O57  1  0.00000000  0.08388000  0.62184500  1
  O  O58  1  0.66666500  0.09109100  0.62438000  1
  O  O59  1  0.33333500  0.09109100  0.62438000  1
loop_
_geom_bond_atom_site_label_1
_geom_bond_atom_site_label_2
_geom_bond_distance
_geom_bond_site_symmetry_2
Ce0 O57 2.203003 1_565
Ce0 O30 2.302778 1_455
Ce0 O36 2.302778 1_555
Ce0 O33 2.446748 1_555
Ce0 O39 2.446748 1_455
Ce0 O6 2.456805 1_455
Ce0 O12 2.456805 1_555
Ce1 O58 2.233851 1_565
Ce1 O31 2.298488 1_555
Ce1 O37 2.300076 1_555
Ce1 O40 2.449369 1_555
Ce1 O34 2.450242 1_555
Ce1 O7 2.461246 1_555
Ce1 O13 2.461375 1_555
Ce2 O59 2.233851 1_565
Ce2 O38 2.298488 1_555
Ce2 O32 2.300076 1_555
Ce2 O35 2.449369 1_555
Ce2 O41 2.450242 1_555
Ce2 O14 2.461246 1_555
Ce2 O8 2.461375 1_555
Ce3 O54 2.204003 1_555
Ce3 O33 2.303269 1_555
Ce3 O39 2.303269 1_455
Ce3 O30 2.445760 1_454
Ce3 O36 2.445760 1_554
Ce3 O9 2.457476 1_565
Ce3 O15 2.457476 1_465
Bi0 O55 2.229300 1_555
Bi0 O40 2.300693 1_555
Bi0 O34 2.300761 1_555
Bi0 O37 2.505481 1_554
Bi0 O31 2.505708 1_554
Bi0 O16 2.539365 1_565
Bi0 O10 2.540283 1_565
Bi1 O56 2.229300 1_555
Bi1 O35 2.300693 1_555
Bi1 O41 2.300761 1_555
Bi1 O32 2.505481 1_554
Bi1 O38 2.505708 1_554
Bi1 O11 2.539365 1_565
Bi1 O17 2.540283 1_565
Bi2 O51 2.254442 1_545
Bi2 O42 2.312850 1_555
Bi2 O24 2.315357 1_555
Bi2 O45 2.492480 1_555
Bi2 O27 2.496739 1_555
Bi2 O0 2.532913 1_555
Bi2 O18 2.550585 1_555
Bi3 O52 2.254442 1_545
Bi3 O25 2.312850 1_555
Bi3 O43 2.315357 1_555
Bi3 O28 2.492480 1_555
Bi3 O46 2.496739 1_555
Bi3 O19 2.532913 1_555
Bi3 O1 2.550585 1_555
Bi4 O53 2.253306 1_545
Bi4 O26 2.313368 1_555
Bi4 O44 2.313368 1_555
Bi4 O29 2.493569 1_555
Bi4 O47 2.493569 1_555
Bi4 O2 2.547964 1_555
Bi4 O20 2.547964 1_555
Bi5 O48 2.246032 1_555
Bi5 O27 2.299336 1_555
Bi5 O45 2.307654 1_555
Bi5 O42 2.486277 1_556
Bi5 O24 2.492439 1_556
Bi5 O3 2.541798 1_545
Bi5 O21 2.545093 1_545
Bi6 O49 2.246032 1_555
Bi6 O46 2.299336 1_555
Bi6 O28 2.307654 1_555
Bi6 O25 2.486277 1_556
Bi6 O43 2.492439 1_556
Bi6 O22 2.541798 1_545
Bi6 O4 2.545093 1_545
Bi7 O50 2.245092 1_555
Bi7 O47 2.301049 1_555
Bi7 O29 2.301049 1_555
Bi7 O26 2.488073 1_556
Bi7 O44 2.488073 1_556
Bi7 O5 2.543828 1_545
Bi7 O23 2.543828 1_545
O0 Rh0 2.040823 1_554
O0 Rh21 2.070068 1_555
O0 Rh12 2.093664 1_555
O1 Rh1 2.039330 1_554
O1 Rh22 2.071792 1_555
O1 Rh13 2.089854 1_555
O2 Rh2 2.038606 1_554
O2 Rh23 2.074204 1_555
O2 Rh14 2.089891 1_555
O3 Rh3 2.029601 1_555
O3 Rh18 2.057391 1_555
O3 Rh17 2.100611 1_565
O4 Rh4 2.036546 1_555
O4 Rh19 2.061926 1_555
O4 Rh15 2.093015 1_565
O5 Rh5 2.029021 1_555
O5 Rh20 2.058465 1_555
O5 Rh16 2.100041 1_565
O6 Rh6 2.049787 1_556
O6 Rh15 2.064470 1_555
O6 Rh19 2.102099 1_555
O7 Rh7 2.048740 1_556
O7 Rh16 2.072527 1_555
O7 Rh20 2.104340 1_555
O8 Rh8 2.049582 1_556
O8 Rh17 2.072456 1_555
O8 Rh18 2.104781 1_555
O9 Rh9 2.052052 1_555
O9 Rh12 2.064503 1_555
O9 Rh21 2.101881 1_545
O10 Rh10 2.034112 1_555
O10 Rh13 2.059012 1_555
O10 Rh22 2.097605 1_545
O11 Rh11 2.034038 1_555
O11 Rh14 2.058796 1_555
O11 Rh23 2.095772 1_545
O12 Rh12 2.049787 1_556
O12 Rh9 2.064470 1_555
O12 Rh0 2.102099 1_555
O13 Rh13 2.049582 1_556
O13 Rh10 2.072456 1_555
O13 Rh1 2.104781 1_555
O14 Rh14 2.048740 1_556
O14 Rh11 2.072527 1_555
O14 Rh2 2.104340 1_555
O15 Rh15 2.052052 1_555
O15 Rh6 2.064503 1_555
O15 Rh4 2.101881 1_545
O16 Rh16 2.034038 1_555
O16 Rh7 2.058796 1_555
O16 Rh5 2.095772 1_545
O17 Rh17 2.034112 1_555
O17 Rh8 2.059012 1_555
O17 Rh3 2.097605 1_545
O18 Rh18 2.039330 1_554
O18 Rh3 2.071792 1_555
O18 Rh8 2.089854 1_555
O19 Rh19 2.040823 1_554
O19 Rh4 2.070068 1_555
O19 Rh6 2.093664 1_555
O20 Rh20 2.038606 1_554
O20 Rh5 2.074204 1_555
O20 Rh7 2.089891 1_555
O21 Rh21 2.036546 1_555
O21 Rh0 2.061926 1_555
O21 Rh9 2.093015 1_565
O22 Rh22 2.029601 1_555
O22 Rh1 2.057391 1_555
O22 Rh10 2.100611 1_565
O23 Rh23 2.029021 1_555
O23 Rh2 2.058465 1_555
O23 Rh11 2.100041 1_565
O24 Rh12 2.020005 1_555
O24 Rh0 2.025615 1_544
O25 Rh13 2.014159 1_555
O25 Rh1 2.024329 1_544
O26 Rh14 2.013290 1_555
O26 Rh2 2.024928 1_544
O27 Rh17 2.018617 1_555
O27 Rh3 2.027378 1_555
O28 Rh15 2.019950 1_555
O28 Rh4 2.028529 1_555
O29 Rh16 2.020213 1_555
O29 Rh5 2.028773 1_555
O30 Rh19 2.035409 1_555
O30 Rh6 2.045193 1_566
O31 Rh20 2.020202 1_555
O31 Rh7 2.028828 1_566
O32 Rh18 2.020640 1_555
O32 Rh8 2.029632 1_566
O33 Rh21 2.038174 1_555
O33 Rh9 2.043229 1_555
O34 Rh22 2.029482 1_555
O34 Rh10 2.041469 1_555
O35 Rh23 2.028923 1_555
O35 Rh11 2.040288 1_555
O36 Rh0 2.035409 1_555
O36 Rh12 2.045193 1_566
O37 Rh1 2.020640 1_555
O37 Rh13 2.029632 1_566
O38 Rh2 2.020202 1_555
O38 Rh14 2.028828 1_566
O39 Rh4 2.038174 1_555
O39 Rh15 2.043229 1_555
O40 Rh5 2.028923 1_555
O40 Rh16 2.040288 1_555
O41 Rh3 2.029482 1_555
O41 Rh17 2.041469 1_555
O42 Rh8 2.014159 1_555
O42 Rh18 2.024329 1_544
O43 Rh6 2.020005 1_555
O43 Rh19 2.025615 1_544
O44 Rh7 2.013290 1_555
O44 Rh20 2.024928 1_544
O45 Rh9 2.019950 1_555
O45 Rh21 2.028529 1_555
O46 Rh10 2.018617 1_555
O46 Rh22 2.027378 1_555
O47 Rh11 2.020213 1_555
O47 Rh23 2.028773 1_555
O48 Rh0 2.100711 1_555
O48 Rh18 2.105213 1_555
O49 Rh19 2.100711 1_555
O49 Rh1 2.105213 1_555
O50 Rh20 2.101188 1_555
O50 Rh2 2.101188 1_555
O51 Rh3 2.086715 1_555
O51 Rh21 2.089396 1_555
O52 Rh22 2.086715 1_555
O52 Rh4 2.089396 1_555
O53 Rh23 2.079017 1_555
O53 Rh5 2.079017 1_555
O54 Rh6 2.111729 1_455
O54 Rh12 2.111729 1_555
O55 Rh7 2.097210 1_555
O55 Rh13 2.097665 1_555
O56 Rh14 2.097210 1_555
O56 Rh8 2.097665 1_555
O57 Rh15 2.110890 1_455
O57 Rh9 2.110890 1_555
O58 Rh16 2.095547 1_555
O58 Rh10 2.095618 1_555
O59 Rh11 2.095547 1_555
O59 Rh17 2.095618 1_555
