# generated using pymatgen
data_KRbTi4(PO4)6
_symmetry_space_group_name_H-M   'P 1'
_cell_length_a   9.26120539
_cell_length_b   9.26120539
_cell_length_c   9.26120549
_cell_angle_alpha   54.32073407
_cell_angle_beta   54.32073407
_cell_angle_gamma   54.32073431
_symmetry_Int_Tables_number   1
_chemical_formula_structural   KRbTi4(PO4)6
_chemical_formula_sum   'K1 Rb1 Ti4 P6 O24'
_cell_volume   487.25890240
_cell_formula_units_Z   1
loop_
 _symmetry_equiv_pos_site_id
 _symmetry_equiv_pos_as_xyz
  1  'x, y, z'
loop_
 _atom_site_type_symbol
 _atom_site_label
 _atom_site_symmetry_multiplicity
 _atom_site_fract_x
 _atom_site_fract_y
 _atom_site_fract_z
 _atom_site_occupancy
  K  K0  1  0.00000000  0.00000000  0.00000000  1
  Rb  Rb0  1  0.50000000  0.50000000  0.50000000  1
  Ti  Ti0  1  0.65033700  0.65033700  0.65033700  1
  Ti  Ti1  1  0.15017200  0.15017200  0.15017200  1
  Ti  Ti2  1  0.34966300  0.34966300  0.34966300  1
  Ti  Ti3  1  0.84982800  0.84982800  0.84982800  1
  P  P0  1  0.46873800  0.75013900  0.03089700  1
  P  P1  1  0.75013900  0.03089700  0.46873800  1
  P  P2  1  0.03089700  0.46873800  0.75013900  1
  P  P3  1  0.24986100  0.96910300  0.53126200  1
  P  P4  1  0.96910300  0.53126200  0.24986100  1
  P  P5  1  0.53126200  0.24986100  0.96910300  1
  O  O0  1  0.01214500  0.64985800  0.74274000  1
  O  O1  1  0.64985800  0.74274000  0.01214500  1
  O  O2  1  0.74274000  0.01214500  0.64985800  1
  O  O3  1  0.15036900  0.51213400  0.24238400  1
  O  O4  1  0.51213400  0.24238400  0.15036900  1
  O  O5  1  0.24238400  0.15036900  0.51213400  1
  O  O6  1  0.98785500  0.35014200  0.25726000  1
  O  O7  1  0.35014200  0.25726000  0.98785500  1
  O  O8  1  0.25726000  0.98785500  0.35014200  1
  O  O9  1  0.84963100  0.48786600  0.75761600  1
  O  O10  1  0.48786600  0.75761600  0.84963100  1
  O  O11  1  0.75761600  0.84963100  0.48786600  1
  O  O12  1  0.20018700  0.43031100  0.56851600  1
  O  O13  1  0.43031100  0.56851600  0.20018700  1
  O  O14  1  0.56851600  0.20018700  0.43031100  1
  O  O15  1  0.93068700  0.70147900  0.06856700  1
  O  O16  1  0.70147900  0.06856700  0.93068700  1
  O  O17  1  0.06856700  0.93068700  0.70147900  1
  O  O18  1  0.79981300  0.56968900  0.43148400  1
  O  O19  1  0.56968900  0.43148400  0.79981300  1
  O  O20  1  0.43148400  0.79981300  0.56968900  1
  O  O21  1  0.06931300  0.29852100  0.93143300  1
  O  O22  1  0.29852100  0.93143300  0.06931300  1
  O  O23  1  0.93143300  0.06931300  0.29852100  1
loop_
_geom_bond_atom_site_label_1
_geom_bond_atom_site_label_2
_geom_bond_distance
_geom_bond_site_symmetry_2
K0 O21 2.829392 1_554
K0 O15 2.829392 1_445
K0 O22 2.829392 1_545
K0 O16 2.829392 1_454
K0 O23 2.829392 1_455
K0 O17 2.829392 1_544
O0 P2 1.545473 1_555
O0 Ti3 1.956800 1_455
O0 Rb0 3.445317 1_555
O1 P0 1.545473 1_555
O1 Ti3 1.956800 1_554
O1 Rb0 3.445317 1_555
O2 P1 1.545473 1_555
O2 Ti3 1.956800 1_545
O2 Rb0 3.445317 1_555
O3 P4 1.544720 1_455
O3 Ti2 1.952803 1_555
O4 P5 1.544720 1_554
O4 Ti2 1.952803 1_555
O5 P3 1.544720 1_545
O5 Ti2 1.952803 1_555
O6 P4 1.545473 1_555
O6 Ti1 1.956800 1_655
O6 Rb0 3.445317 1_555
O7 P5 1.545473 1_555
O7 Ti1 1.956800 1_556
O7 Rb0 3.445317 1_555
O8 P3 1.545473 1_555
O8 Ti1 1.956800 1_565
O8 Rb0 3.445317 1_555
O9 P2 1.544720 1_655
O9 Ti0 1.952803 1_555
O10 P0 1.544720 1_556
O10 Ti0 1.952803 1_555
O11 P1 1.544720 1_565
O11 Ti0 1.952803 1_555
O12 P2 1.544410 1_555
O12 Ti2 1.967012 1_555
O12 Rb0 2.843647 1_555
O13 P0 1.544410 1_555
O13 Ti2 1.967012 1_555
O13 Rb0 2.843647 1_555
O14 P1 1.544410 1_555
O14 Ti2 1.967012 1_555
O14 Rb0 2.843647 1_555
O15 P4 1.544604 1_555
O15 Ti3 1.968507 1_554
O16 P5 1.544604 1_555
O16 Ti3 1.968507 1_545
O17 P3 1.544604 1_555
O17 Ti3 1.968507 1_455
O18 P4 1.544410 1_555
O18 Ti0 1.967012 1_555
O18 Rb0 2.843647 1_555
O19 P5 1.544410 1_555
O19 Ti0 1.967012 1_555
O19 Rb0 2.843647 1_555
O20 P3 1.544410 1_555
O20 Ti0 1.967012 1_555
O20 Rb0 2.843647 1_555
O21 P2 1.544604 1_555
O21 Ti1 1.968507 1_556
O22 P0 1.544604 1_555
O22 Ti1 1.968507 1_565
O23 P1 1.544604 1_555
O23 Ti1 1.968507 1_655
