# generated using pymatgen
data_Ce3(GaNi)2
_symmetry_space_group_name_H-M   'P 1'
_cell_length_a   5.64417900
_cell_length_b   8.14539400
_cell_length_c   12.50458900
_cell_angle_alpha   90.00000000
_cell_angle_beta   90.00000000
_cell_angle_gamma   90.00000000
_symmetry_Int_Tables_number   1
_chemical_formula_structural   Ce3(GaNi)2
_chemical_formula_sum   'Ce12 Ga8 Ni8'
_cell_volume   574.88674699
_cell_formula_units_Z   4
loop_
 _symmetry_equiv_pos_site_id
 _symmetry_equiv_pos_as_xyz
  1  'x, y, z'
loop_
 _atom_site_type_symbol
 _atom_site_label
 _atom_site_symmetry_multiplicity
 _atom_site_fract_x
 _atom_site_fract_y
 _atom_site_fract_z
 _atom_site_occupancy
  Ce  Ce0  1  0.16045000  0.89770600  0.59323200  1
  Ce  Ce1  1  0.83955000  0.10229400  0.09323200  1
  Ce  Ce2  1  0.16045000  0.60229400  0.40676800  1
  Ce  Ce3  1  0.83955000  0.39770600  0.90676800  1
  Ce  Ce4  1  0.83955000  0.10229400  0.40676800  1
  Ce  Ce5  1  0.16045000  0.89770600  0.90676800  1
  Ce  Ce6  1  0.83955000  0.39770600  0.59323200  1
  Ce  Ce7  1  0.16045000  0.60229400  0.09323200  1
  Ce  Ce8  1  0.35824300  0.25082700  0.75000000  1
  Ce  Ce9  1  0.64175700  0.74917300  0.25000000  1
  Ce  Ce10  1  0.35824300  0.24917300  0.25000000  1
  Ce  Ce11  1  0.64175700  0.75082700  0.75000000  1
  Ga  Ga0  1  0.85939800  0.10172000  0.75000000  1
  Ga  Ga1  1  0.14060200  0.89828000  0.25000000  1
  Ga  Ga2  1  0.85939800  0.39828000  0.25000000  1
  Ga  Ga3  1  0.14060200  0.60172000  0.75000000  1
  Ga  Ga4  1  0.34269500  0.25000000  0.50000000  1
  Ga  Ga5  1  0.65730500  0.75000000  0.00000000  1
  Ga  Ga6  1  0.65730500  0.75000000  0.50000000  1
  Ga  Ga7  1  0.34269500  0.25000000  0.00000000  1
  Ni  Ni0  1  0.61996700  0.03476600  0.58991800  1
  Ni  Ni1  1  0.38003300  0.96523400  0.08991800  1
  Ni  Ni2  1  0.61996700  0.46523400  0.41008200  1
  Ni  Ni3  1  0.38003300  0.53476600  0.91008200  1
  Ni  Ni4  1  0.38003300  0.96523400  0.41008200  1
  Ni  Ni5  1  0.61996700  0.03476600  0.91008200  1
  Ni  Ni6  1  0.38003300  0.53476600  0.58991800  1
  Ni  Ni7  1  0.61996700  0.46523400  0.08991800  1
loop_
_geom_bond_atom_site_label_1
_geom_bond_atom_site_label_2
_geom_bond_distance
_geom_bond_site_symmetry_2
Ce0 Ni4 2.661515 1_555
Ce0 Ni0 2.823973 1_565
Ce0 Ga0 3.080844 1_465
Ce0 Ga3 3.109333 1_555
Ce0 Ni6 3.205837 1_555
Ce0 Ni0 3.248713 1_465
Ce0 Ga4 3.263690 1_565
Ce0 Ga6 3.266646 1_555
Ce0 Ga6 3.297174 1_455
Ce1 Ni5 2.661515 1_554
Ce1 Ni1 2.823973 1_545
Ce1 Ga1 3.080844 1_645
Ce1 Ga2 3.109333 1_555
Ce1 Ni7 3.205837 1_555
Ce1 Ni1 3.248713 1_645
Ce1 Ga5 3.263690 1_545
Ce1 Ga7 3.266646 1_555
Ce1 Ga7 3.297174 1_655
Ce2 Ni6 2.661515 1_555
Ce2 Ni2 2.823973 1_555
Ce2 Ga2 3.080844 1_455
Ce2 Ga1 3.109333 1_555
Ce2 Ni4 3.205837 1_555
Ce2 Ni2 3.248713 1_455
Ce2 Ga4 3.263690 1_555
Ce2 Ga6 3.266646 1_555
Ce2 Ga6 3.297174 1_455
Ce3 Ni7 2.661515 1_556
Ce3 Ni3 2.823973 1_555
Ce3 Ga3 3.080844 1_655
Ce3 Ga0 3.109333 1_555
Ce3 Ni5 3.205837 1_555
Ce3 Ni3 3.248713 1_655
Ce3 Ga5 3.263690 1_556
Ce3 Ga7 3.266646 1_556
Ce3 Ga7 3.297174 1_656
Ce4 Ni0 2.661515 1_555
Ce4 Ni4 2.823973 1_545
Ce4 Ga1 3.080844 1_645
Ce4 Ga2 3.109333 1_555
Ce4 Ni2 3.205837 1_555
Ce4 Ni4 3.248713 1_645
Ce4 Ga6 3.263690 1_545
Ce4 Ga4 3.266646 1_555
Ce4 Ga4 3.297174 1_655
Ce5 Ni1 2.661515 1_556
Ce5 Ni5 2.823973 1_565
Ce5 Ga0 3.080844 1_465
Ce5 Ga3 3.109333 1_555
Ce5 Ni3 3.205837 1_555
Ce5 Ni5 3.248713 1_465
Ce5 Ga7 3.263690 1_566
Ce5 Ga5 3.266646 1_556
Ce5 Ga5 3.297174 1_456
Ce6 Ni2 2.661515 1_555
Ce6 Ni6 2.823973 1_555
Ce6 Ga3 3.080844 1_655
Ce6 Ga0 3.109333 1_555
Ce6 Ni0 3.205837 1_555
Ce6 Ni6 3.248713 1_655
Ce6 Ga6 3.263690 1_555
Ce6 Ga4 3.266646 1_555
Ce6 Ga4 3.297174 1_655
Ce7 Ni3 2.661515 1_554
Ce7 Ni7 2.823973 1_555
Ce7 Ga2 3.080844 1_455
Ce7 Ga1 3.109333 1_555
Ce7 Ni1 3.205837 1_555
Ce7 Ni7 3.248713 1_455
Ce7 Ga7 3.263690 1_555
Ce7 Ga5 3.266646 1_555
Ce7 Ga5 3.297174 1_455
Ce8 Ni5 3.047370 1_555
Ce8 Ni0 3.047370 1_555
Ce8 Ni6 3.061240 1_555
Ce8 Ni3 3.061240 1_555
Ce8 Ga0 3.066355 1_455
Ce8 Ga0 3.078331 1_555
Ce8 Ga3 3.110959 1_555
Ce8 Ga7 3.127386 1_556
Ce8 Ga4 3.127386 1_555
Ce9 Ni1 3.047370 1_555
Ce9 Ni4 3.047370 1_555
Ce9 Ni2 3.061240 1_555
Ce9 Ni7 3.061240 1_555
Ce9 Ga1 3.066355 1_655
Ce9 Ga1 3.078331 1_555
Ce9 Ga2 3.110959 1_555
Ce9 Ga5 3.127386 1_555
Ce9 Ga6 3.127386 1_555
Ce10 Ni2 3.047370 1_555
Ce10 Ni7 3.047370 1_555
Ce10 Ni4 3.061240 1_545
Ce10 Ni1 3.061240 1_545
Ce10 Ga2 3.066355 1_455
Ce10 Ga2 3.078331 1_555
Ce10 Ga1 3.110959 1_545
Ce10 Ga7 3.127386 1_555
Ce10 Ga4 3.127386 1_555
Ce11 Ni6 3.047370 1_555
Ce11 Ni3 3.047370 1_555
Ce11 Ni5 3.061240 1_565
Ce11 Ni0 3.061240 1_565
Ce11 Ga3 3.066355 1_655
Ce11 Ga3 3.078331 1_555
Ce11 Ga0 3.110959 1_565
Ce11 Ga5 3.127386 1_556
Ce11 Ga6 3.127386 1_555
Ga0 Ni0 2.476030 1_555
Ga0 Ni5 2.476030 1_555
Ga1 Ni1 2.476030 1_555
Ga1 Ni4 2.476030 1_555
Ga2 Ni2 2.476030 1_555
Ga2 Ni7 2.476030 1_555
Ga3 Ni6 2.476030 1_555
Ga3 Ni3 2.476030 1_555
Ga4 Ni4 2.586288 1_545
Ga4 Ni6 2.586288 1_555
Ga4 Ni2 2.605183 1_555
Ga4 Ni0 2.605183 1_555
Ga5 Ni7 2.586288 1_555
Ga5 Ni5 2.586288 1_564
Ga5 Ni3 2.605183 1_554
Ga5 Ni1 2.605183 1_555
Ga6 Ni2 2.586288 1_555
Ga6 Ni0 2.586288 1_565
Ga6 Ni6 2.605183 1_555
Ga6 Ni4 2.605183 1_555
Ga7 Ni1 2.586288 1_545
Ga7 Ni3 2.586288 1_554
Ga7 Ni7 2.605183 1_555
Ga7 Ni5 2.605183 1_554
Ni0 Ni4 2.685461 1_545
Ni1 Ni5 2.685461 1_564
Ni2 Ni6 2.685461 1_555
Ni3 Ni7 2.685461 1_556
