# generated using pymatgen
data_AlP2O11
_symmetry_space_group_name_H-M   'P 1'
_cell_length_a   7.63721228
_cell_length_b   7.63721228
_cell_length_c   7.63721259
_cell_angle_alpha   73.64023658
_cell_angle_beta   73.64023658
_cell_angle_gamma   73.64022928
_symmetry_Int_Tables_number   1
_chemical_formula_structural   AlP2O11
_chemical_formula_sum   'Al2 P4 O22'
_cell_volume   400.08849928
_cell_formula_units_Z   2
loop_
 _symmetry_equiv_pos_site_id
 _symmetry_equiv_pos_as_xyz
  1  'x, y, z'
loop_
 _atom_site_type_symbol
 _atom_site_label
 _atom_site_symmetry_multiplicity
 _atom_site_fract_x
 _atom_site_fract_y
 _atom_site_fract_z
 _atom_site_occupancy
  Al  Al0  1  0.86627600  0.86627600  0.86627600  1
  Al  Al1  1  0.13033000  0.13033000  0.13033000  1
  P  P0  1  0.97820600  0.74533900  0.27085400  1
  P  P1  1  0.27085400  0.97820600  0.74533900  1
  P  P2  1  0.74533900  0.27085400  0.97820600  1
  P  P3  1  0.49573600  0.49573600  0.49573600  1
  O  O0  1  0.90636500  0.75815700  0.10008500  1
  O  O1  1  0.10008500  0.90636500  0.75815700  1
  O  O2  1  0.75815700  0.10008500  0.90636500  1
  O  O3  1  0.09426800  0.88940700  0.23768300  1
  O  O4  1  0.23768300  0.09426800  0.88940700  1
  O  O5  1  0.88940700  0.23768300  0.09426800  1
  O  O6  1  0.08606700  0.54231600  0.34235900  1
  O  O7  1  0.34235900  0.08606700  0.54231600  1
  O  O8  1  0.54231600  0.34235900  0.08606700  1
  O  O9  1  0.80910300  0.75617200  0.44510000  1
  O  O10  1  0.44510000  0.80910300  0.75617200  1
  O  O11  1  0.75617200  0.44510000  0.80910300  1
  O  O12  1  0.40170300  0.40170300  0.40170300  1
  O  O13  1  0.36150800  0.52053400  0.68322800  1
  O  O14  1  0.68322800  0.36150800  0.52053400  1
  O  O15  1  0.52053400  0.68322800  0.36150800  1
  O  O16  1  0.63917600  0.77334300  0.93565500  1
  O  O17  1  0.93565500  0.63917600  0.77334300  1
  O  O18  1  0.77334300  0.93565500  0.63917600  1
  O  O19  1  0.08403000  0.17959400  0.37610800  1
  O  O20  1  0.37610800  0.08403000  0.17959400  1
  O  O21  1  0.17959400  0.37610800  0.08403000  1
loop_
_geom_bond_atom_site_label_1
_geom_bond_atom_site_label_2
_geom_bond_distance
_geom_bond_site_symmetry_2
Al0 O2 1.816330 1_565
Al0 O1 1.816330 1_655
Al0 O0 1.816330 1_556
Al0 O17 1.938191 1_555
Al0 O18 1.938191 1_555
Al0 O16 1.938191 1_555
Al1 O5 1.855269 1_455
Al1 O3 1.855269 1_545
Al1 O4 1.855269 1_554
Al1 O20 1.933632 1_555
Al1 O21 1.933632 1_555
Al1 O19 1.933632 1_555
O0 P0 1.520683 1_555
O1 P1 1.520683 1_555
O2 P2 1.520683 1_555
O3 P0 1.525242 1_455
O4 P1 1.525242 1_545
O5 P2 1.525242 1_554
O6 P0 1.561357 1_455
O7 P1 1.561357 1_545
O8 P2 1.561357 1_554
O9 P0 1.574586 1_555
O10 P1 1.574586 1_555
O11 P2 1.574586 1_555
O12 P3 1.555256 1_555
O13 P3 1.534151 1_555
O14 P3 1.534151 1_555
O15 P3 1.534151 1_555
