# generated using pymatgen
data_MgMn3VCr2(PO4)6
_symmetry_space_group_name_H-M   'P 1'
_cell_length_a   9.61557702
_cell_length_b   8.46068651
_cell_length_c   9.05473056
_cell_angle_alpha   60.66651144
_cell_angle_beta   51.90236324
_cell_angle_gamma   57.93444132
_symmetry_Int_Tables_number   1
_chemical_formula_structural   MgMn3VCr2(PO4)6
_chemical_formula_sum   'Mg1 Mn3 V1 Cr2 P6 O24'
_cell_volume   476.49277649
_cell_formula_units_Z   1
loop_
 _symmetry_equiv_pos_site_id
 _symmetry_equiv_pos_as_xyz
  1  'x, y, z'
loop_
 _atom_site_type_symbol
 _atom_site_label
 _atom_site_symmetry_multiplicity
 _atom_site_fract_x
 _atom_site_fract_y
 _atom_site_fract_z
 _atom_site_occupancy
  Mg  Mg0  1  0.12081100  0.62528100  0.72571200  1
  Mn  Mn0  1  0.87246100  0.63580600  0.64760600  1
  Mn  Mn1  1  0.42349400  0.86819400  0.87743000  1
  Mn  Mn2  1  0.97412500  0.36566000  0.38830400  1
  V  V0  1  0.57231800  0.14239000  0.12382000  1
  Cr  Cr0  1  0.00282300  0.00031800  0.99035800  1
  Cr  Cr1  1  0.52095600  0.48502200  0.49329900  1
  P  P0  1  0.26035000  0.25573200  0.56930500  1
  P  P1  1  0.29088300  0.92605500  0.28758100  1
  P  P2  1  0.27805900  0.53859000  0.96506800  1
  P  P3  1  0.74907800  0.45296400  0.03024100  1
  P  P4  1  0.73099800  0.05300300  0.72279600  1
  P  P5  1  0.73276300  0.76660100  0.40499400  1
  O  O0  1  0.12762300  0.08761300  0.38145100  1
  O  O1  1  0.09153300  0.50461200  0.08928000  1
  O  O2  1  0.07477300  0.36115300  0.56190800  1
  O  O3  1  0.22883500  0.08934100  0.75807800  1
  O  O4  1  0.42241600  0.18175100  0.38377500  1
  O  O5  1  0.31239600  0.39250000  0.58339700  1
  O  O6  1  0.27057100  0.89815400  0.14584600  1
  O  O7  1  0.31305000  0.73644100  0.44736600  1
  O  O8  1  0.62920600  0.60909500  0.92966200  1
  O  O9  1  0.34509700  0.54714200  0.75548700  1
  O  O10  1  0.77475300  0.25323600  0.02801100  1
  O  O11  1  0.54051900  0.03623400  0.80802000  1
  O  O12  1  0.47748400  0.96927900  0.17617700  1
  O  O13  1  0.24458200  0.74297900  0.96513300  1
  O  O14  1  0.66614500  0.45199600  0.23568600  1
  O  O15  1  0.42712900  0.38578300  0.02702400  1
  O  O16  1  0.73582600  0.23922600  0.55398100  1
  O  O17  1  0.74624600  0.08805300  0.86629200  1
  O  O18  1  0.69451300  0.60472100  0.41487200  1
  O  O19  1  0.59710100  0.83478500  0.59229900  1
  O  O20  1  0.75419200  0.92531400  0.21071300  1
  O  O21  1  0.93296800  0.68080300  0.37454700  1
  O  O22  1  0.94282600  0.47980400  0.89442100  1
  O  O23  1  0.89453200  0.86294200  0.66862900  1
loop_
_geom_bond_atom_site_label_1
_geom_bond_atom_site_label_2
_geom_bond_distance
_geom_bond_site_symmetry_2
Mg0 O22 1.986391 1_455
Mg0 O9 2.046913 1_555
Mg0 O7 2.104280 1_555
Mg0 O5 2.153603 1_555
Mg0 O23 2.183720 1_455
Mn0 O21 2.033315 1_555
Mn0 O23 2.148398 1_555
Mn0 O8 2.160758 1_555
Mn0 O2 2.211447 1_655
Mn0 O22 2.285177 1_555
Mn0 O19 2.484527 1_555
Mn1 O11 1.906046 1_565
Mn1 O6 1.982729 1_556
Mn1 O13 2.034091 1_555
Mn1 O19 2.104234 1_555
Mn1 O8 2.115755 1_555
Mn1 O3 2.229060 1_565
Mn2 O0 2.014888 1_655
Mn2 O1 2.122750 1_655
Mn2 O2 2.277815 1_655
Mn2 O18 2.298294 1_555
Mn2 O16 2.331017 1_555
Mn2 O21 2.428263 1_555
Cr0 O3 2.063806 1_555
Cr0 O10 2.077036 1_456
Cr0 O20 2.140855 1_446
Cr0 O13 2.157458 1_545
Cr1 O14 1.916785 1_555
Cr1 O18 1.985556 1_555
Cr1 O9 2.024037 1_555
Cr1 O5 2.079008 1_555
Cr1 O7 2.082878 1_555
Cr1 O16 2.148172 1_555
O0 P1 1.506202 1_545
O1 P2 1.518502 1_554
O2 P0 1.543780 1_555
O3 P0 1.565716 1_555
O4 P0 1.551274 1_555
O4 V0 1.949522 1_555
O5 P0 1.563354 1_555
O6 P1 1.547906 1_555
O7 P1 1.567064 1_555
O8 P3 1.550142 1_556
O9 P2 1.558037 1_555
O10 P3 1.581526 1_555
O10 V0 2.116232 1_555
O11 P4 1.547504 1_555
O12 P1 1.572417 1_555
O12 V0 1.845468 1_565
O13 P2 1.582315 1_555
O14 P3 1.502642 1_555
O15 P2 1.534544 1_554
O15 V0 1.909675 1_555
O16 P4 1.565736 1_555
O17 P4 1.567301 1_555
O17 V0 1.966576 1_556
O18 P5 1.547049 1_555
O19 P5 1.529820 1_555
O20 P5 1.572347 1_555
O20 V0 1.980494 1_565
O21 P5 1.538277 1_555
O22 P3 1.543716 1_556
O23 P4 1.560528 1_565
