# generated using pymatgen
data_ZnNiO2
_symmetry_space_group_name_H-M   'P 1'
_cell_length_a   2.88758500
_cell_length_b   8.29825042
_cell_length_c   8.49398060
_cell_angle_alpha   82.15842714
_cell_angle_beta   80.32153871
_cell_angle_gamma   80.16256787
_symmetry_Int_Tables_number   1
_chemical_formula_structural   ZnNiO2
_chemical_formula_sum   'Zn4 Ni4 O8'
_cell_volume   196.46565050
_cell_formula_units_Z   4
loop_
 _symmetry_equiv_pos_site_id
 _symmetry_equiv_pos_as_xyz
  1  'x, y, z'
loop_
 _atom_site_type_symbol
 _atom_site_label
 _atom_site_symmetry_multiplicity
 _atom_site_fract_x
 _atom_site_fract_y
 _atom_site_fract_z
 _atom_site_occupancy
  Zn  Zn0  1  0.84313500  0.23183800  0.57142200  1
  Zn  Zn1  1  0.15686500  0.76816200  0.42857800  1
  Zn  Zn2  1  0.57852300  0.12770600  0.21348900  1
  Zn  Zn3  1  0.42147700  0.87229400  0.78651100  1
  Ni  Ni0  1  0.12951800  0.55317100  0.69156800  1
  Ni  Ni1  1  0.71078400  0.19176900  0.88294200  1
  Ni  Ni2  1  0.28921600  0.80823100  0.11705800  1
  Ni  Ni3  1  0.87048200  0.44682900  0.30843200  1
  O  O0  1  0.31875100  0.59428800  0.26752400  1
  O  O1  1  0.86805000  0.81659800  0.94819000  1
  O  O2  1  0.13195000  0.18340200  0.05181000  1
  O  O3  1  0.68124900  0.40571200  0.73247600  1
  O  O4  1  0.58627000  0.71761000  0.61672500  1
  O  O5  1  0.33185300  0.10947700  0.71662500  1
  O  O6  1  0.41373000  0.28239000  0.38327500  1
  O  O7  1  0.66814700  0.89052300  0.28337500  1
loop_
_geom_bond_atom_site_label_1
_geom_bond_atom_site_label_2
_geom_bond_distance
_geom_bond_site_symmetry_2
Ni0 O3 1.886853 1_555
Ni0 O3 1.888797 1_455
Ni0 O4 2.023376 1_455
Ni0 O4 2.025346 1_555
Ni1 O2 2.015508 1_556
Ni1 O2 2.017857 1_656
Ni1 O3 2.039203 1_555
Ni1 O5 2.161289 1_655
Ni1 O5 2.167394 1_555
Ni2 O1 2.015508 1_554
Ni2 O1 2.017857 1_454
Ni2 O0 2.039203 1_555
Ni2 O7 2.161289 1_455
Ni2 O7 2.167394 1_555
Ni3 O0 1.886853 1_555
Ni3 O0 1.888797 1_655
Ni3 O6 2.023376 1_655
Ni3 O6 2.025346 1_555
O0 Zn1 2.065147 1_555
O1 Zn3 1.995246 1_555
O1 Zn3 1.998663 1_655
O2 Zn2 1.995246 1_555
O2 Zn2 1.998663 1_455
O3 Zn0 2.065147 1_555
O4 Zn3 2.004886 1_555
O4 Zn1 2.138463 1_555
O4 Zn1 2.147689 1_655
O5 Zn3 1.962644 1_545
O5 Zn0 2.071256 1_555
O5 Zn0 2.073054 1_455
O6 Zn2 2.004886 1_555
O6 Zn0 2.138463 1_555
O6 Zn0 2.147689 1_455
O7 Zn2 1.962644 1_565
O7 Zn1 2.071256 1_555
O7 Zn1 2.073054 1_655
