# generated using pymatgen
data_Li3Lu3(TeO6)2
_symmetry_space_group_name_H-M   'P 1'
_cell_length_a   10.60569524
_cell_length_b   10.60569524
_cell_length_c   10.60569524
_cell_angle_alpha   109.47122063
_cell_angle_beta   109.47122063
_cell_angle_gamma   109.47122063
_symmetry_Int_Tables_number   1
_chemical_formula_structural   Li3Lu3(TeO6)2
_chemical_formula_sum   'Li12 Lu12 Te8 O48'
_cell_volume   918.32316304
_cell_formula_units_Z   4
loop_
 _symmetry_equiv_pos_site_id
 _symmetry_equiv_pos_as_xyz
  1  'x, y, z'
loop_
 _atom_site_type_symbol
 _atom_site_label
 _atom_site_symmetry_multiplicity
 _atom_site_fract_x
 _atom_site_fract_y
 _atom_site_fract_z
 _atom_site_occupancy
  Li  Li0  1  0.25000000  0.62500000  0.37500000  1
  Li  Li1  1  0.75000000  0.37500000  0.62500000  1
  Li  Li2  1  0.75000000  0.87500000  0.12500000  1
  Li  Li3  1  0.37500000  0.25000000  0.62500000  1
  Li  Li4  1  0.62500000  0.75000000  0.37500000  1
  Li  Li5  1  0.25000000  0.12500000  0.87500000  1
  Li  Li6  1  0.12500000  0.75000000  0.87500000  1
  Li  Li7  1  0.87500000  0.25000000  0.12500000  1
  Li  Li8  1  0.62500000  0.37500000  0.25000000  1
  Li  Li9  1  0.37500000  0.62500000  0.75000000  1
  Li  Li10  1  0.87500000  0.12500000  0.75000000  1
  Li  Li11  1  0.12500000  0.87500000  0.25000000  1
  Lu  Lu0  1  0.25000000  0.37500000  0.12500000  1
  Lu  Lu1  1  0.75000000  0.62500000  0.87500000  1
  Lu  Lu2  1  0.75000000  0.12500000  0.37500000  1
  Lu  Lu3  1  0.12500000  0.25000000  0.37500000  1
  Lu  Lu4  1  0.37500000  0.75000000  0.12500000  1
  Lu  Lu5  1  0.25000000  0.87500000  0.62500000  1
  Lu  Lu6  1  0.87500000  0.75000000  0.62500000  1
  Lu  Lu7  1  0.62500000  0.25000000  0.87500000  1
  Lu  Lu8  1  0.37500000  0.12500000  0.25000000  1
  Lu  Lu9  1  0.62500000  0.87500000  0.75000000  1
  Lu  Lu10  1  0.12500000  0.37500000  0.75000000  1
  Lu  Lu11  1  0.87500000  0.62500000  0.25000000  1
  Te  Te0  1  0.00000000  0.00000000  0.00000000  1
  Te  Te1  1  0.50000000  0.00000000  0.50000000  1
  Te  Te2  1  0.00000000  0.50000000  0.50000000  1
  Te  Te3  1  0.50000000  0.00000000  0.00000000  1
  Te  Te4  1  0.50000000  0.50000000  0.00000000  1
  Te  Te5  1  0.50000000  0.50000000  0.50000000  1
  Te  Te6  1  0.00000000  0.00000000  0.50000000  1
  Te  Te7  1  0.00000000  0.50000000  0.00000000  1
  O  O0  1  0.46990500  0.37725800  0.29745300  1
  O  O1  1  0.53009500  0.62274200  0.70254700  1
  O  O2  1  0.57980600  0.17245200  0.20254700  1
  O  O3  1  0.92019400  0.12274200  0.59264600  1
  O  O4  1  0.29745300  0.46990500  0.37725800  1
  O  O5  1  0.32754800  0.92019400  0.29745300  1
  O  O6  1  0.42019400  0.82754800  0.79745300  1
  O  O7  1  0.07980600  0.87725800  0.40735400  1
  O  O8  1  0.70254700  0.53009500  0.62274200  1
  O  O9  1  0.67245200  0.07980600  0.70254700  1
  O  O10  1  0.03009500  0.32754800  0.90735400  1
  O  O11  1  0.20254700  0.57980600  0.17245200  1
  O  O12  1  0.12274200  0.03009500  0.20254700  1
  O  O13  1  0.96990500  0.67245200  0.09264600  1
  O  O14  1  0.79745300  0.42019400  0.82754800  1
  O  O15  1  0.87725800  0.96990500  0.79745300  1
  O  O16  1  0.59264600  0.92019400  0.12274200  1
  O  O17  1  0.17245200  0.46990500  0.59264600  1
  O  O18  1  0.40735400  0.07980600  0.87725800  1
  O  O19  1  0.82754800  0.53009500  0.40735400  1
  O  O20  1  0.90735400  0.03009500  0.32754800  1
  O  O21  1  0.37725800  0.57980600  0.90735400  1
  O  O22  1  0.09264600  0.96990500  0.67245200  1
  O  O23  1  0.62274200  0.42019400  0.09264600  1
  O  O24  1  0.37725800  0.29745300  0.46990500  1
  O  O25  1  0.57980600  0.90735400  0.37725800  1
  O  O26  1  0.62274200  0.70254700  0.53009500  1
  O  O27  1  0.42019400  0.09264600  0.62274200  1
  O  O28  1  0.12274200  0.59264600  0.92019400  1
  O  O29  1  0.03009500  0.20254700  0.12274200  1
  O  O30  1  0.87725800  0.40735400  0.07980600  1
  O  O31  1  0.96990500  0.79745300  0.87725800  1
  O  O32  1  0.32754800  0.90735400  0.03009500  1
  O  O33  1  0.92019400  0.29745300  0.32754800  1
  O  O34  1  0.67245200  0.09264600  0.96990500  1
  O  O35  1  0.07980600  0.70254700  0.67245200  1
  O  O36  1  0.17245200  0.20254700  0.57980600  1
  O  O37  1  0.46990500  0.59264600  0.17245200  1
  O  O38  1  0.82754800  0.79745300  0.42019400  1
  O  O39  1  0.53009500  0.40735400  0.82754800  1
  O  O40  1  0.29745300  0.32754800  0.92019400  1
  O  O41  1  0.70254700  0.67245200  0.07980600  1
  O  O42  1  0.20254700  0.12274200  0.03009500  1
  O  O43  1  0.79745300  0.87725800  0.96990500  1
  O  O44  1  0.90735400  0.37725800  0.57980600  1
  O  O45  1  0.09264600  0.62274200  0.42019400  1
  O  O46  1  0.59264600  0.17245200  0.46990500  1
  O  O47  1  0.40735400  0.82754800  0.53009500  1
loop_
_geom_bond_atom_site_label_1
_geom_bond_atom_site_label_2
_geom_bond_distance
_geom_bond_site_symmetry_2
Li0 O4 1.878731 1_555
Li0 O11 1.878734 1_555
Li0 O47 1.878734 1_555
Li0 O45 1.878736 1_555
Li1 O8 1.878731 1_555
Li1 O14 1.878734 1_555
Li1 O46 1.878734 1_555
Li1 O44 1.878736 1_555
Li2 O43 1.878731 1_554
Li2 O20 1.878734 1_565
Li2 O41 1.878734 1_555
Li2 O16 1.878736 1_555
Li3 O24 1.878731 1_555
Li3 O36 1.878734 1_555
Li3 O39 1.878734 1_555
Li3 O27 1.878736 1_555
Li4 O26 1.878731 1_555
Li4 O38 1.878734 1_555
Li4 O37 1.878734 1_555
Li4 O25 1.878736 1_555
Li5 O42 1.878731 1_556
Li5 O40 1.878734 1_555
Li5 O22 1.878734 1_545
Li5 O18 1.878736 1_555
Li6 O31 1.878731 1_455
Li6 O32 1.878734 1_556
Li6 O35 1.878734 1_555
Li6 O28 1.878736 1_555
Li7 O29 1.878731 1_655
Li7 O33 1.878734 1_555
Li7 O34 1.878734 1_554
Li7 O30 1.878736 1_555
Li8 O0 1.878731 1_555
Li8 O2 1.878734 1_555
Li8 O19 1.878734 1_555
Li8 O23 1.878736 1_555
Li9 O1 1.878731 1_555
Li9 O6 1.878734 1_555
Li9 O17 1.878734 1_555
Li9 O21 1.878736 1_555
Li10 O15 1.878731 1_545
Li10 O10 1.878734 1_655
Li10 O9 1.878734 1_555
Li10 O3 1.878736 1_555
Li11 O12 1.878731 1_565
Li11 O5 1.878734 1_555
Li11 O13 1.878734 1_455
Li11 O7 1.878736 1_555
Lu0 O4 2.322378 1_555
Lu0 O42 2.322378 1_555
Lu0 O40 2.322388 1_554
Lu0 O11 2.322388 1_555
Lu0 O37 2.423820 1_555
Lu0 O10 2.423820 1_554
Lu0 O0 2.423826 1_555
Lu0 O29 2.423826 1_555
Lu1 O8 2.322378 1_555
Lu1 O43 2.322378 1_555
Lu1 O41 2.322388 1_556
Lu1 O14 2.322388 1_555
Lu1 O13 2.423820 1_556
Lu1 O39 2.423820 1_555
Lu1 O31 2.423826 1_555
Lu1 O1 2.423826 1_555
Lu2 O44 2.322381 1_555
Lu2 O16 2.322381 1_545
Lu2 O46 2.322388 1_555
Lu2 O20 2.322388 1_555
Lu2 O25 2.423813 1_545
Lu2 O3 2.423813 1_555
Lu2 O33 2.423820 1_555
Lu2 O2 2.423820 1_555
Lu3 O24 2.322378 1_555
Lu3 O29 2.322378 1_555
Lu3 O33 2.322388 1_455
Lu3 O36 2.322388 1_555
Lu3 O17 2.423820 1_555
Lu3 O20 2.423820 1_455
Lu3 O4 2.423826 1_555
Lu3 O12 2.423826 1_555
Lu4 O25 2.322381 1_555
Lu4 O28 2.322381 1_554
Lu4 O37 2.322388 1_555
Lu4 O32 2.322388 1_555
Lu4 O21 2.423813 1_554
Lu4 O16 2.423813 1_555
Lu4 O5 2.423820 1_555
Lu4 O11 2.423820 1_555
Lu5 O18 2.322381 1_565
Lu5 O45 2.322381 1_555
Lu5 O47 2.322388 1_555
Lu5 O22 2.322388 1_555
Lu5 O27 2.423813 1_565
Lu5 O7 2.423813 1_555
Lu5 O6 2.423820 1_555
Lu5 O35 2.423820 1_555
Lu6 O26 2.322378 1_555
Lu6 O31 2.322378 1_555
Lu6 O35 2.322388 1_655
Lu6 O38 2.322388 1_555
Lu6 O22 2.423820 1_655
Lu6 O19 2.423820 1_555
Lu6 O15 2.423826 1_555
Lu6 O8 2.423826 1_555
Lu7 O30 2.322381 1_556
Lu7 O27 2.322381 1_555
Lu7 O39 2.322388 1_555
Lu7 O34 2.322388 1_555
Lu7 O23 2.423813 1_556
Lu7 O18 2.423813 1_555
Lu7 O14 2.423820 1_555
Lu7 O9 2.423820 1_555
Lu8 O0 2.322378 1_555
Lu8 O12 2.322378 1_555
Lu8 O5 2.322388 1_545
Lu8 O2 2.322388 1_555
Lu8 O46 2.423820 1_555
Lu8 O32 2.423820 1_545
Lu8 O24 2.423826 1_555
Lu8 O42 2.423826 1_555
Lu9 O1 2.322378 1_555
Lu9 O15 2.322378 1_555
Lu9 O9 2.322388 1_565
Lu9 O6 2.322388 1_555
Lu9 O34 2.423820 1_565
Lu9 O47 2.423820 1_555
Lu9 O43 2.423826 1_555
Lu9 O26 2.423826 1_555
Lu10 O21 2.322381 1_555
Lu10 O3 2.322381 1_455
Lu10 O17 2.322388 1_555
Lu10 O10 2.322388 1_555
Lu10 O44 2.423813 1_455
Lu10 O28 2.423813 1_555
Lu10 O40 2.423820 1_555
Lu10 O36 2.423820 1_555
Lu11 O7 2.322381 1_655
Lu11 O23 2.322381 1_555
Lu11 O19 2.322388 1_555
Lu11 O13 2.322388 1_555
Lu11 O45 2.423813 1_655
Lu11 O30 2.423813 1_555
Lu11 O38 2.423820 1_555
Lu11 O41 2.423820 1_555
O0 Te5 1.952606 1_555
O1 Te5 1.952606 1_555
O2 Te3 1.952603 1_555
O3 Te6 1.952610 1_655
O4 Te5 1.952606 1_555
O5 Te1 1.952603 1_565
O6 Te3 1.952603 1_566
O7 Te6 1.952610 1_565
O8 Te5 1.952606 1_555
O9 Te1 1.952603 1_555
O10 Te7 1.952603 1_556
O11 Te7 1.952603 1_555
O12 Te0 1.952606 1_555
O13 Te7 1.952603 1_655
O14 Te7 1.952603 1_656
O15 Te0 1.952606 1_666
O16 Te3 1.952610 1_565
O17 Te2 1.952603 1_555
O18 Te3 1.952610 1_556
O19 Te2 1.952603 1_655
O20 Te6 1.952603 1_655
O21 Te4 1.952610 1_556
O22 Te6 1.952603 1_565
O23 Te4 1.952610 1_555
O24 Te5 1.952606 1_555
O25 Te1 1.952610 1_565
O26 Te5 1.952606 1_555
O27 Te1 1.952610 1_555
O28 Te7 1.952610 1_556
O29 Te0 1.952606 1_555
O30 Te7 1.952610 1_655
O31 Te0 1.952606 1_666
O32 Te3 1.952603 1_565
O33 Te2 1.952603 1_655
O34 Te3 1.952603 1_556
O35 Te2 1.952603 1_555
O36 Te6 1.952603 1_555
O37 Te4 1.952603 1_555
O38 Te6 1.952603 1_665
O39 Te4 1.952603 1_556
O40 Te4 1.952603 1_556
O41 Te4 1.952603 1_555
O42 Te0 1.952606 1_555
O43 Te0 1.952606 1_666
O44 Te2 1.952610 1_655
O45 Te2 1.952610 1_555
O46 Te1 1.952603 1_555
O47 Te1 1.952603 1_565
