# generated using pymatgen
data_BaTm2NiO5
_symmetry_space_group_name_H-M   'P 1'
_cell_length_a   3.77038416
_cell_length_b   5.74027918
_cell_length_c   6.60388886
_cell_angle_alpha   115.76071049
_cell_angle_beta   106.58676307
_cell_angle_gamma   89.99999318
_symmetry_Int_Tables_number   1
_chemical_formula_structural   BaTm2NiO5
_chemical_formula_sum   'Ba1 Tm2 Ni1 O5'
_cell_volume   122.08621557
_cell_formula_units_Z   1
loop_
 _symmetry_equiv_pos_site_id
 _symmetry_equiv_pos_as_xyz
  1  'x, y, z'
loop_
 _atom_site_type_symbol
 _atom_site_label
 _atom_site_symmetry_multiplicity
 _atom_site_fract_x
 _atom_site_fract_y
 _atom_site_fract_z
 _atom_site_occupancy
  Ba  Ba0  1  0.49999900  0.50000000  0.00000000  1
  Tm  Tm0  1  0.29649400  0.79649400  0.59298800  1
  Tm  Tm1  1  0.70350500  0.20350600  0.40701300  1
  Ni  Ni0  1  0.00000000  0.00000000  0.00000000  1
  O  O0  1  0.50000100  0.00000000  0.00000100  1
  O  O1  1  0.15185200  0.91239300  0.30370200  1
  O  O2  1  0.84815000  0.08760700  0.69629900  1
  O  O3  1  0.84814900  0.60869300  0.69629900  1
  O  O4  1  0.15185000  0.39130800  0.30370000  1
loop_
_geom_bond_atom_site_label_1
_geom_bond_atom_site_label_2
_geom_bond_distance
_geom_bond_site_symmetry_2
Ba0 O0 2.870137 1_565
Ba0 O0 2.870142 1_555
Ba0 O4 2.953905 1_555
Ba0 O2 2.953909 1_454
Ba0 O1 2.953909 1_555
Ba0 O4 2.953910 1_655
Ba0 O3 2.953914 1_454
Ba0 O2 2.953915 1_554
Ba0 O3 2.953916 1_554
Ba0 O1 2.953919 1_655
Ni0 O0 1.885190 1_455
Ni0 O0 1.885194 1_555
Ni0 O3 2.196417 1_444
Ni0 O4 2.196418 1_555
Ni0 O2 2.196421 1_454
Ni0 O1 2.196427 1_545
O0 Tm1 2.295912 1_555
O0 Tm0 2.295918 1_544
O1 Tm0 2.213515 1_555
O1 Tm1 2.404772 1_565
O1 Tm1 2.404786 1_465
O2 Tm1 2.213515 1_555
O2 Tm0 2.404777 1_645
O2 Tm0 2.404781 1_545
O3 Tm1 2.213522 1_555
O3 Tm0 2.404774 1_555
O3 Tm0 2.404777 1_655
O4 Tm0 2.213523 1_555
O4 Tm1 2.404780 1_555
O4 Tm1 2.404789 1_455
