# generated using pymatgen
data_BaCd3Ga
_symmetry_space_group_name_H-M   'P 1'
_cell_length_a   6.75491539
_cell_length_b   6.75491539
_cell_length_c   6.75491539
_cell_angle_alpha   138.39213258
_cell_angle_beta   138.39213258
_cell_angle_gamma   60.30295713
_symmetry_Int_Tables_number   1
_chemical_formula_structural   BaCd3Ga
_chemical_formula_sum   'Ba1 Cd3 Ga1'
_cell_volume   134.48095271
_cell_formula_units_Z   1
loop_
 _symmetry_equiv_pos_site_id
 _symmetry_equiv_pos_as_xyz
  1  'x, y, z'
loop_
 _atom_site_type_symbol
 _atom_site_label
 _atom_site_symmetry_multiplicity
 _atom_site_fract_x
 _atom_site_fract_y
 _atom_site_fract_z
 _atom_site_occupancy
  Ba  Ba0  1  0.00378880  0.00378880  -0.00000000  1
  Cd  Cd0  1  0.74346933  0.24346933  0.50000000  1
  Cd  Cd1  1  0.24346933  0.74346933  0.50000000  1
  Cd  Cd2  1  0.38776491  0.38776491  0.00000000  1
  Ga  Ga0  1  0.62150663  0.62150663  -0.00000000  1
loop_
_geom_bond_atom_site_label_1
_geom_bond_atom_site_label_2
_geom_bond_distance
_geom_bond_site_symmetry_2
Ba0 Cd2 3.653618 1_556
Ba0 Cd2 3.653618 1_444
Ba0 Cd2 3.653618 1_545
Ba0 Cd2 3.653618 1_455
Ba0 Ga0 3.661005 1_455
Ba0 Ga0 3.661005 1_545
Ba0 Ga0 3.661005 1_556
Ba0 Ga0 3.661005 1_444
Ba0 Cd0 3.687218 1_555
Ba0 Cd0 3.687218 1_454
Ba0 Cd1 3.687218 1_555
Ba0 Cd1 3.687218 1_544
Ba0 Cd0 3.873481 1_455
Ba0 Cd1 3.873481 1_545
Ba0 Cd0 3.873481 1_444
Ba0 Cd1 3.873481 1_444
Cd0 Ga0 2.790318 1_556
Cd0 Ga0 2.790318 1_545
Cd0 Cd2 2.932125 1_656
Cd0 Cd2 2.932125 1_555
Cd1 Ga0 2.790318 1_455
Cd1 Ga0 2.790318 1_556
Cd1 Cd2 2.932125 1_555
Cd1 Cd2 2.932125 1_566
Cd2 Ga0 2.730561 1_555
