# generated using pymatgen
data_CsLa(TaBr3)6
_symmetry_space_group_name_H-M   'P 1'
_cell_length_a   10.03199653
_cell_length_b   10.03199653
_cell_length_c   18.74309900
_cell_angle_alpha   90.00000000
_cell_angle_beta   90.00000000
_cell_angle_gamma   120.00000350
_symmetry_Int_Tables_number   1
_chemical_formula_structural   CsLa(TaBr3)6
_chemical_formula_sum   'Cs2 La2 Ta12 Br36'
_cell_volume   1633.60390207
_cell_formula_units_Z   2
loop_
 _symmetry_equiv_pos_site_id
 _symmetry_equiv_pos_as_xyz
  1  'x, y, z'
loop_
 _atom_site_type_symbol
 _atom_site_label
 _atom_site_symmetry_multiplicity
 _atom_site_fract_x
 _atom_site_fract_y
 _atom_site_fract_z
 _atom_site_occupancy
  Cs  Cs0  1  0.33333300  0.66666700  0.75000000  1
  Cs  Cs1  1  0.66666700  0.33333300  0.25000000  1
  La  La0  1  0.66666700  0.33333300  0.75000000  1
  La  La1  1  0.33333300  0.66666700  0.25000000  1
  Ta  Ta0  1  0.85294300  0.03632900  0.56341500  1
  Ta  Ta1  1  0.14705700  0.96367100  0.43658500  1
  Ta  Ta2  1  0.96367100  0.81661300  0.56341500  1
  Ta  Ta3  1  0.85294300  0.81661300  0.93658500  1
  Ta  Ta4  1  0.03632900  0.18338700  0.43658500  1
  Ta  Ta5  1  0.14705700  0.18338700  0.06341500  1
  Ta  Ta6  1  0.18338700  0.14705700  0.56341500  1
  Ta  Ta7  1  0.96367100  0.14705700  0.93658500  1
  Ta  Ta8  1  0.81661300  0.85294300  0.43658500  1
  Ta  Ta9  1  0.03632900  0.85294300  0.06341500  1
  Ta  Ta10  1  0.18338700  0.03632900  0.93658500  1
  Ta  Ta11  1  0.81661300  0.96367100  0.06341500  1
  Br  Br0  1  0.63854100  0.07701400  0.65722100  1
  Br  Br1  1  0.36145900  0.92298600  0.34277900  1
  Br  Br2  1  0.92298600  0.56152700  0.65722100  1
  Br  Br3  1  0.63854100  0.56152700  0.84277900  1
  Br  Br4  1  0.07701400  0.43847300  0.34277900  1
  Br  Br5  1  0.36145900  0.43847300  0.15722100  1
  Br  Br6  1  0.43847300  0.36145900  0.65722100  1
  Br  Br7  1  0.92298600  0.36145900  0.84277900  1
  Br  Br8  1  0.56152700  0.63854100  0.34277900  1
  Br  Br9  1  0.07701400  0.63854100  0.15722100  1
  Br  Br10  1  0.43847300  0.07701400  0.84277900  1
  Br  Br11  1  0.56152700  0.92298600  0.15722100  1
  Br  Br12  1  0.04453700  0.22855600  0.65776000  1
  Br  Br13  1  0.95546300  0.77144400  0.34224000  1
  Br  Br14  1  0.77144400  0.81598100  0.65776000  1
  Br  Br15  1  0.04453700  0.81598100  0.84224000  1
  Br  Br16  1  0.22855600  0.18401900  0.34224000  1
  Br  Br17  1  0.95546300  0.18401900  0.15776000  1
  Br  Br18  1  0.18401900  0.95546300  0.65776000  1
  Br  Br19  1  0.77144400  0.95546300  0.84224000  1
  Br  Br20  1  0.81598100  0.04453700  0.34224000  1
  Br  Br21  1  0.22855600  0.04453700  0.15776000  1
  Br  Br22  1  0.18401900  0.22855600  0.84224000  1
  Br  Br23  1  0.81598100  0.77144400  0.15776000  1
  Br  Br24  1  0.27269700  0.41127900  0.50034100  1
  Br  Br25  1  0.72730300  0.58872100  0.49965900  1
  Br  Br26  1  0.58872100  0.86141700  0.50034100  1
  Br  Br27  1  0.27269700  0.86141700  0.99965900  1
  Br  Br28  1  0.41127900  0.13858300  0.49965900  1
  Br  Br29  1  0.72730300  0.13858300  0.00034100  1
  Br  Br30  1  0.13858300  0.72730300  0.50034100  1
  Br  Br31  1  0.58872100  0.72730300  0.99965900  1
  Br  Br32  1  0.86141700  0.27269700  0.49965900  1
  Br  Br33  1  0.41127900  0.27269700  0.00034100  1
  Br  Br34  1  0.13858300  0.41127900  0.99965900  1
  Br  Br35  1  0.86141700  0.58872100  0.00034100  1
loop_
_geom_bond_atom_site_label_1
_geom_bond_atom_site_label_2
_geom_bond_distance
_geom_bond_site_symmetry_2
Br0 Ta0 2.960081 1_555
Br0 La0 2.998354 1_555
Br0 Cs0 4.091565 1_545
Br1 Ta1 2.960081 1_555
Br1 La1 2.998354 1_555
Br1 Cs1 4.091565 1_565
Br2 Ta2 2.960073 1_555
Br2 La0 2.998357 1_555
Br2 Cs0 4.091562 1_655
Br3 Ta3 2.960076 1_555
Br3 La0 2.998362 1_555
Br3 Cs0 4.091571 1_555
Br4 Ta4 2.960073 1_555
Br4 La1 2.998357 1_555
Br4 Cs1 4.091562 1_455
Br5 Ta5 2.960076 1_555
Br5 La1 2.998362 1_555
Br5 Cs1 4.091571 1_555
Br6 Ta6 2.960076 1_555
Br6 La0 2.998362 1_555
Br6 Cs0 4.091571 1_555
Br7 Ta7 2.960081 1_555
Br7 La0 2.998354 1_555
Br7 Cs0 4.091565 1_655
Br8 Ta8 2.960076 1_555
Br8 La1 2.998362 1_555
Br8 Cs1 4.091571 1_555
Br9 Ta9 2.960081 1_555
Br9 La1 2.998354 1_555
Br9 Cs1 4.091565 1_455
Br10 Ta10 2.960073 1_555
Br10 La0 2.998357 1_555
Br10 Cs0 4.091562 1_545
Br11 Ta11 2.960073 1_555
Br11 La1 2.998357 1_555
Br11 Cs1 4.091562 1_565
Br12 Ta0 2.614105 1_455
Br12 Ta6 2.621940 1_555
Br12 Cs0 4.238670 1_555
Br13 Ta1 2.614105 1_655
Br13 Ta8 2.621940 1_555
Br13 Cs1 4.238670 1_555
Br14 Ta2 2.614109 1_555
Br14 Ta0 2.621933 1_565
Br14 Cs0 4.238672 1_555
Br15 Ta3 2.614102 1_455
Br15 Ta10 2.621934 1_565
Br15 Cs0 4.238663 1_555
Br16 Ta4 2.614109 1_555
Br16 Ta1 2.621933 1_545
Br16 Cs1 4.238672 1_555
Br17 Ta5 2.614102 1_655
Br17 Ta11 2.621934 1_545
Br17 Cs1 4.238663 1_555
Br18 Ta6 2.614102 1_565
Br18 Ta2 2.621934 1_455
Br18 Cs0 4.238663 1_555
Br19 Ta7 2.614105 1_565
Br19 Ta3 2.621940 1_555
Br19 Cs0 4.238670 1_555
Br20 Ta8 2.614102 1_545
Br20 Ta4 2.621934 1_655
Br20 Cs1 4.238663 1_555
Br21 Ta9 2.614105 1_545
Br21 Ta5 2.621940 1_555
Br21 Cs1 4.238670 1_555
Br22 Ta10 2.614109 1_555
Br22 Ta7 2.621933 1_455
Br22 Cs0 4.238672 1_555
Br23 Ta11 2.614109 1_555
Br23 Ta9 2.621933 1_655
Br23 Cs1 4.238672 1_555
Br24 Ta6 2.617542 1_555
Br24 Ta4 2.618469 1_555
Br25 Ta8 2.617542 1_555
Br25 Ta2 2.618469 1_555
Br26 Ta0 2.617542 1_565
Br26 Ta8 2.618460 1_555
Br27 Ta10 2.617542 1_565
Br27 Ta9 2.618478 1_556
Br28 Ta1 2.617542 1_545
Br28 Ta6 2.618460 1_555
Br29 Ta11 2.617542 1_545
Br29 Ta7 2.618478 1_554
Br30 Ta2 2.617542 1_455
Br30 Ta1 2.618478 1_555
Br31 Ta3 2.617542 1_555
Br31 Ta11 2.618469 1_556
Br32 Ta4 2.617542 1_655
Br32 Ta0 2.618478 1_555
Br33 Ta5 2.617542 1_555
Br33 Ta10 2.618469 1_554
Br34 Ta7 2.617542 1_455
Br34 Ta5 2.618460 1_556
Br35 Ta9 2.617542 1_655
Br35 Ta3 2.618460 1_554
