# generated using pymatgen
data_TiNbHO5
_symmetry_space_group_name_H-M   'P 1'
_cell_length_a   3.81773800
_cell_length_b   6.58120100
_cell_length_c   16.93368400
_cell_angle_alpha   90.00000000
_cell_angle_beta   90.00000000
_cell_angle_gamma   90.00000000
_symmetry_Int_Tables_number   1
_chemical_formula_structural   TiNbHO5
_chemical_formula_sum   'Ti4 Nb4 H4 O20'
_cell_volume   425.46390997
_cell_formula_units_Z   4
loop_
 _symmetry_equiv_pos_site_id
 _symmetry_equiv_pos_as_xyz
  1  'x, y, z'
loop_
 _atom_site_type_symbol
 _atom_site_label
 _atom_site_symmetry_multiplicity
 _atom_site_fract_x
 _atom_site_fract_y
 _atom_site_fract_z
 _atom_site_occupancy
  Ti  Ti0  1  0.25000000  0.31788200  0.96603600  1
  Ti  Ti1  1  0.25000000  0.81788200  0.53396400  1
  Ti  Ti2  1  0.75000000  0.68211800  0.03396400  1
  Ti  Ti3  1  0.75000000  0.18211800  0.46603600  1
  Nb  Nb0  1  0.25000000  0.79078200  0.87756500  1
  Nb  Nb1  1  0.25000000  0.29078200  0.62243500  1
  Nb  Nb2  1  0.75000000  0.20921800  0.12243500  1
  Nb  Nb3  1  0.75000000  0.70921800  0.37756500  1
  H  H0  1  0.25000000  0.40394200  0.81241600  1
  H  H1  1  0.25000000  0.90394200  0.68758400  1
  H  H2  1  0.75000000  0.59605800  0.18758400  1
  H  H3  1  0.75000000  0.09605800  0.31241600  1
  O  O0  1  0.25000000  0.46988000  0.86726600  1
  O  O1  1  0.25000000  0.96988000  0.63273400  1
  O  O2  1  0.75000000  0.53012000  0.13273400  1
  O  O3  1  0.75000000  0.03012000  0.36726600  1
  O  O4  1  0.25000000  0.07179400  0.92325000  1
  O  O5  1  0.25000000  0.57179400  0.57675000  1
  O  O6  1  0.75000000  0.92820600  0.07675000  1
  O  O7  1  0.75000000  0.42820600  0.42325000  1
  O  O8  1  0.25000000  0.63961100  0.00770700  1
  O  O9  1  0.25000000  0.13961100  0.49229300  1
  O  O10  1  0.75000000  0.36038900  0.99229300  1
  O  O11  1  0.75000000  0.86038900  0.50770700  1
  O  O12  1  0.25000000  0.83474800  0.77484000  1
  O  O13  1  0.25000000  0.33474800  0.72516000  1
  O  O14  1  0.75000000  0.16525200  0.22516000  1
  O  O15  1  0.75000000  0.66525200  0.27484000  1
  O  O16  1  0.25000000  0.23521300  0.08671600  1
  O  O17  1  0.25000000  0.73521300  0.41328400  1
  O  O18  1  0.75000000  0.76478700  0.91328400  1
  O  O19  1  0.75000000  0.26478700  0.58671600  1
loop_
_geom_bond_atom_site_label_1
_geom_bond_atom_site_label_2
_geom_bond_distance
_geom_bond_site_symmetry_2
Nb0 O12 1.763414 1_555
Nb0 O4 2.004682 1_565
Nb0 O18 2.009701 1_455
Nb0 O18 2.009701 1_555
Nb0 O0 2.119109 1_555
Nb0 O8 2.417946 1_556
Nb1 O13 1.763414 1_555
Nb1 O5 2.004682 1_555
Nb1 O19 2.009701 1_455
Nb1 O19 2.009701 1_555
Nb1 O1 2.119109 1_545
Nb1 O9 2.417946 1_555
Nb2 O14 1.763414 1_555
Nb2 O6 2.004682 1_545
Nb2 O16 2.009701 1_655
Nb2 O16 2.009701 1_555
Nb2 O2 2.119109 1_555
Nb2 O10 2.417946 1_554
Nb3 O15 1.763414 1_555
Nb3 O7 2.004682 1_555
Nb3 O17 2.009701 1_655
Nb3 O17 2.009701 1_555
Nb3 O3 2.119109 1_565
Nb3 O11 2.417946 1_555
H0 O0 1.025186 1_555
H0 O13 1.546147 1_555
H1 O1 1.025186 1_555
H1 O12 1.546147 1_555
H2 O2 1.025186 1_555
H2 O15 1.546147 1_555
H3 O3 1.025186 1_555
H3 O14 1.546147 1_555
O0 Ti0 1.948858 1_555
O1 Ti1 1.948858 1_555
O2 Ti2 1.948858 1_555
O3 Ti3 1.948858 1_555
O4 Ti0 1.774230 1_555
O5 Ti1 1.774230 1_555
O6 Ti2 1.774230 1_555
O7 Ti3 1.774230 1_555
O8 Ti2 1.979832 1_455
O8 Ti2 1.979832 1_555
O8 Ti0 2.231851 1_554
O9 Ti3 1.979832 1_555
O9 Ti3 1.979832 1_455
O9 Ti1 2.231851 1_545
O10 Ti0 1.979832 1_555
O10 Ti0 1.979832 1_655
O10 Ti2 2.231851 1_556
O11 Ti1 1.979832 1_555
O11 Ti1 1.979832 1_655
O11 Ti3 2.231851 1_565
O16 Ti0 2.114741 1_554
O17 Ti1 2.114741 1_555
O18 Ti2 2.114741 1_556
O19 Ti3 2.114741 1_555
