# generated using pymatgen
data_LaAl2Cu3
_symmetry_space_group_name_H-M   'P 1'
_cell_length_a   5.24450092
_cell_length_b   5.24450092
_cell_length_c   4.16339988
_cell_angle_alpha   90.00000000
_cell_angle_beta   90.00000000
_cell_angle_gamma   118.45681425
_symmetry_Int_Tables_number   1
_chemical_formula_structural   LaAl2Cu3
_chemical_formula_sum   'La1 Al2 Cu3'
_cell_volume   100.67752620
_cell_formula_units_Z   1
loop_
 _symmetry_equiv_pos_site_id
 _symmetry_equiv_pos_as_xyz
  1  'x, y, z'
loop_
 _atom_site_type_symbol
 _atom_site_label
 _atom_site_symmetry_multiplicity
 _atom_site_fract_x
 _atom_site_fract_y
 _atom_site_fract_z
 _atom_site_occupancy
  La  La0  1  0.00000000  -0.00000000  -0.00000000  1
  Al  Al0  1  0.50000000  -0.00000000  0.50000000  1
  Al  Al1  1  0.00000000  0.50000000  0.50000000  1
  Cu  Cu0  1  0.66109170  0.33890830  0.00000000  1
  Cu  Cu1  1  0.33890830  0.66109170  0.00000000  1
  Cu  Cu2  1  0.50000000  0.50000000  0.50000000  1
loop_
_geom_bond_atom_site_label_1
_geom_bond_atom_site_label_2
_geom_bond_distance
_geom_bond_site_symmetry_2
Al0 Cu0 2.602953 1_555
Al0 Cu1 2.602953 1_546
Al0 Cu1 2.602953 1_545
Al0 Cu0 2.602953 1_556
Al0 Cu2 2.622250 1_555
Al0 Cu2 2.622250 1_545
Al0 Al1 2.683175 1_655
Al0 Al1 2.683175 1_545
Al0 La0 3.348085 1_555
Al0 La0 3.348085 1_556
Al0 La0 3.348085 1_655
Al0 La0 3.348085 1_656
Al1 Cu0 2.602953 1_455
Al1 Cu1 2.602953 1_556
Al1 Cu1 2.602953 1_555
Al1 Cu0 2.602953 1_456
Al1 Cu2 2.622250 1_555
Al1 Cu2 2.622250 1_455
Al1 La0 3.348085 1_555
Al1 La0 3.348085 1_556
Al1 La0 3.348085 1_566
Al1 La0 3.348085 1_565
Cu0 Cu2 2.537955 1_555
Cu0 Cu2 2.537955 1_554
Cu0 La0 3.050766 1_555
Cu0 La0 3.050766 1_665
Cu0 La0 3.054341 1_655
Cu1 Cu2 2.537955 1_555
Cu1 Cu2 2.537955 1_554
Cu1 La0 3.050766 1_555
Cu1 La0 3.050766 1_665
Cu1 La0 3.054341 1_565
Cu2 La0 3.396013 1_666
Cu2 La0 3.396013 1_665
Cu2 La0 3.396013 1_555
Cu2 La0 3.396013 1_556
