# generated using pymatgen
data_Ho3PbC
_symmetry_space_group_name_H-M   'P 1'
_cell_length_a   4.86345615
_cell_length_b   4.86345615
_cell_length_c   4.86345615
_cell_angle_alpha   90.00000000
_cell_angle_beta   90.00000000
_cell_angle_gamma   90.00000000
_symmetry_Int_Tables_number   1
_chemical_formula_structural   Ho3PbC
_chemical_formula_sum   'Ho3 Pb1 C1'
_cell_volume   115.03632884
_cell_formula_units_Z   1
loop_
 _symmetry_equiv_pos_site_id
 _symmetry_equiv_pos_as_xyz
  1  'x, y, z'
loop_
 _atom_site_type_symbol
 _atom_site_label
 _atom_site_symmetry_multiplicity
 _atom_site_fract_x
 _atom_site_fract_y
 _atom_site_fract_z
 _atom_site_occupancy
  Ho  Ho0  1  0.50000000  0.00000000  0.00000000  1
  Ho  Ho1  1  0.00000000  0.50000000  0.00000000  1
  Ho  Ho2  1  0.00000000  0.00000000  0.50000000  1
  Pb  Pb0  1  0.50000000  0.50000000  0.50000000  1
  C  C0  1  0.00000000  0.00000000  0.00000000  1
loop_
_geom_bond_atom_site_label_1
_geom_bond_atom_site_label_2
_geom_bond_distance
_geom_bond_site_symmetry_2
Ho0 Pb0 3.438983 1_544
Ho0 Pb0 3.438983 1_555
Ho0 Pb0 3.438983 1_545
Ho0 Pb0 3.438983 1_554
Ho1 Pb0 3.438983 1_555
Ho1 Pb0 3.438983 1_455
Ho1 Pb0 3.438983 1_554
Ho1 Pb0 3.438983 1_454
Ho2 Pb0 3.438983 1_445
Ho2 Pb0 3.438983 1_555
Ho2 Pb0 3.438983 1_455
Ho2 Pb0 3.438983 1_545
C0 Ho0 2.431728 1_555
C0 Ho2 2.431728 1_555
C0 Ho0 2.431728 1_455
C0 Ho1 2.431728 1_555
C0 Ho1 2.431728 1_545
C0 Ho2 2.431728 1_554
