# generated using pymatgen
data_NaGeN
_symmetry_space_group_name_H-M   'P 1'
_cell_length_a   3.10533300
_cell_length_b   3.10533215
_cell_length_c   10.52185600
_cell_angle_alpha   90.00000000
_cell_angle_beta   90.00000000
_cell_angle_gamma   120.00001966
_symmetry_Int_Tables_number   1
_chemical_formula_structural   NaGeN
_chemical_formula_sum   'Na2 Ge2 N2'
_cell_volume   87.86969891
_cell_formula_units_Z   2
loop_
 _symmetry_equiv_pos_site_id
 _symmetry_equiv_pos_as_xyz
  1  'x, y, z'
loop_
 _atom_site_type_symbol
 _atom_site_label
 _atom_site_symmetry_multiplicity
 _atom_site_fract_x
 _atom_site_fract_y
 _atom_site_fract_z
 _atom_site_occupancy
  Na  Na0  1  0.66667500  0.33335000  0.75378700  1
  Na  Na1  1  0.33332500  0.66665000  0.25378700  1
  Ge  Ge0  1  0.99999500  0.99998900  0.50089400  1
  Ge  Ge1  1  0.00000500  0.00001100  0.00089400  1
  N  N0  1  0.33332900  0.66665800  0.58995900  1
  N  N1  1  0.66667100  0.33334200  0.08995900  1
loop_
_geom_bond_atom_site_label_1
_geom_bond_atom_site_label_2
_geom_bond_distance
_geom_bond_site_symmetry_2
Ge0 N0 2.023007 1_655
Ge0 N0 2.023010 1_555
Ge0 N0 2.023016 1_665
Ge1 N1 2.023007 1_455
Ge1 N1 2.023010 1_555
Ge1 N1 2.023016 1_445
N0 Na0 2.487095 1_455
N0 Na0 2.487095 1_555
N0 Na0 2.487168 1_565
N1 Na1 2.487095 1_655
N1 Na1 2.487095 1_555
N1 Na1 2.487168 1_545
