# generated using pymatgen
data_MgFe4(PO4)4
_symmetry_space_group_name_H-M   'P 1'
_cell_length_a   8.49841685
_cell_length_b   8.91389366
_cell_length_c   5.27907212
_cell_angle_alpha   95.28126046
_cell_angle_beta   107.39597040
_cell_angle_gamma   84.49993743
_symmetry_Int_Tables_number   1
_chemical_formula_structural   MgFe4(PO4)4
_chemical_formula_sum   'Mg1 Fe4 P4 O16'
_cell_volume   379.01562271
_cell_formula_units_Z   1
loop_
 _symmetry_equiv_pos_site_id
 _symmetry_equiv_pos_as_xyz
  1  'x, y, z'
loop_
 _atom_site_type_symbol
 _atom_site_label
 _atom_site_symmetry_multiplicity
 _atom_site_fract_x
 _atom_site_fract_y
 _atom_site_fract_z
 _atom_site_occupancy
  Mg  Mg0  1  0.32443000  0.78165300  0.40923500  1
  Fe  Fe0  1  0.22334300  0.45346700  0.36321400  1
  Fe  Fe1  1  0.23448800  0.05267700  0.12536600  1
  Fe  Fe2  1  0.72549100  0.02581600  0.91242000  1
  Fe  Fe3  1  0.82648600  0.50761400  0.55218500  1
  P  P0  1  0.18180100  0.67165300  0.88619900  1
  P  P1  1  0.32073500  0.13621300  0.66985100  1
  P  P2  1  0.66793400  0.84963300  0.36033700  1
  P  P3  1  0.82935200  0.34672700  0.09753500  1
  O  O0  1  0.01776400  0.59721700  0.78861700  1
  O  O1  1  0.22336000  0.19969400  0.86323100  1
  O  O2  1  0.16152300  0.83727100  0.99283500  1
  O  O3  1  0.24448500  0.99033500  0.51173600  1
  O  O4  1  0.26731700  0.65074600  0.65869400  1
  O  O5  1  0.29224100  0.59225000  0.14241600  1
  O  O6  1  0.30882000  0.24471100  0.44956900  1
  O  O7  1  0.50377400  0.10213100  0.83062800  1
  O  O8  1  0.48135500  0.89486700  0.29030100  1
  O  O9  1  0.69005200  0.68631300  0.44646800  1
  O  O10  1  0.77346100  0.40930900  0.82131700  1
  O  O11  1  0.69775800  0.37628700  0.24728900  1
  O  O12  1  0.76762800  0.95541200  0.59208600  1
  O  O13  1  0.88134400  0.17437100  0.06941100  1
  O  O14  1  0.73641400  0.86100400  0.12178200  1
  O  O15  1  0.97697900  0.43119600  0.29727900  1
loop_
_geom_bond_atom_site_label_1
_geom_bond_atom_site_label_2
_geom_bond_distance
_geom_bond_site_symmetry_2
Mg0 O3 2.001721 1_555
Mg0 O8 2.016553 1_555
Mg0 O4 2.026114 1_555
Mg0 O5 2.080777 1_555
Mg0 O2 2.289960 1_554
Fe0 O6 1.974138 1_555
Fe0 O5 2.011042 1_555
Fe0 O15 2.043369 1_455
Fe0 O4 2.222088 1_555
Fe1 O1 1.968034 1_554
Fe1 O2 2.069380 1_544
Fe1 O3 2.138293 1_545
Fe1 O6 2.297803 1_555
Fe1 O8 2.388705 1_545
Fe2 O12 1.872281 1_545
Fe2 O7 1.876553 1_555
Fe2 O14 1.897338 1_546
Fe2 O13 1.916375 1_556
Fe3 O9 1.901543 1_555
Fe3 O10 1.917610 1_555
Fe3 O0 1.921046 1_655
Fe3 O11 2.000908 1_555
Fe3 O15 2.145668 1_555
O0 P0 1.527741 1_555
O1 P1 1.534999 1_555
O2 P0 1.543474 1_555
O3 P1 1.563910 1_565
O4 P0 1.568464 1_555
O5 P0 1.581509 1_554
O6 P1 1.554275 1_555
O7 P1 1.549133 1_555
O8 P2 1.538775 1_555
O9 P2 1.542652 1_555
O10 P3 1.532282 1_556
O11 P3 1.542376 1_555
O12 P2 1.557121 1_555
O13 P3 1.563583 1_555
O14 P2 1.551763 1_555
O15 P3 1.580100 1_555
