# generated using pymatgen
data_PrNi9Ge4
_symmetry_space_group_name_H-M   'P 1'
_cell_length_a   8.14221484
_cell_length_b   8.14221484
_cell_length_c   8.14221484
_cell_angle_alpha   121.39180253
_cell_angle_beta   121.39180253
_cell_angle_gamma   87.60577133
_symmetry_Int_Tables_number   1
_chemical_formula_structural   PrNi9Ge4
_chemical_formula_sum   'Pr2 Ni18 Ge8'
_cell_volume   373.30786006
_cell_formula_units_Z   2
loop_
 _symmetry_equiv_pos_site_id
 _symmetry_equiv_pos_as_xyz
  1  'x, y, z'
loop_
 _atom_site_type_symbol
 _atom_site_label
 _atom_site_symmetry_multiplicity
 _atom_site_fract_x
 _atom_site_fract_y
 _atom_site_fract_z
 _atom_site_occupancy
  Pr  Pr0  1  0.25000000  0.25000000  0.00000000  1
  Pr  Pr1  1  0.75000000  0.75000000  0.00000000  1
  Ni  Ni0  1  0.30593000  0.80593000  0.74939500  1
  Ni  Ni1  1  0.05653500  0.55653500  0.25060500  1
  Ni  Ni2  1  0.19407000  0.94346500  0.50000000  1
  Ni  Ni3  1  0.44346500  0.69407000  0.50000000  1
  Ni  Ni4  1  0.69407000  0.19407000  0.25060500  1
  Ni  Ni5  1  0.94346500  0.44346500  0.74939500  1
  Ni  Ni6  1  0.55653500  0.30593000  0.50000000  1
  Ni  Ni7  1  0.80593000  0.05653500  0.50000000  1
  Ni  Ni8  1  0.50000000  0.00000000  0.50000000  1
  Ni  Ni9  1  0.00000000  0.50000000  0.50000000  1
  Ni  Ni10  1  0.20343600  0.06753900  0.27097500  1
  Ni  Ni11  1  0.79656400  0.93246100  0.72902500  1
  Ni  Ni12  1  0.29656400  0.56753900  0.86410400  1
  Ni  Ni13  1  0.70343600  0.43246100  0.13589600  1
  Ni  Ni14  1  0.43246100  0.29656400  0.72902500  1
  Ni  Ni15  1  0.56753900  0.70343600  0.27097500  1
  Ni  Ni16  1  0.93246100  0.20343600  0.13589600  1
  Ni  Ni17  1  0.06753900  0.79656400  0.86410400  1
  Ge  Ge0  1  0.79572400  0.29572400  0.84704500  1
  Ge  Ge1  1  0.44867900  0.94867900  0.15295500  1
  Ge  Ge2  1  0.70427600  0.55132100  0.50000000  1
  Ge  Ge3  1  0.05132100  0.20427600  0.50000000  1
  Ge  Ge4  1  0.20427600  0.70427600  0.15295500  1
  Ge  Ge5  1  0.55132100  0.05132100  0.84704500  1
  Ge  Ge6  1  0.94867900  0.79572400  0.50000000  1
  Ge  Ge7  1  0.29572400  0.44867900  0.50000000  1
loop_
_geom_bond_atom_site_label_1
_geom_bond_atom_site_label_2
_geom_bond_distance
_geom_bond_site_symmetry_2
Ni0 Ni9 2.551963 1_555
Ni0 Ni12 2.573119 1_555
Ni0 Ni17 2.573119 1_555
Ni0 Pr0 3.254043 1_566
Ni0 Pr1 3.254043 1_556
Ni1 Ni9 2.551963 1_555
Ni1 Ni13 2.573109 1_455
Ni1 Ni16 2.573109 1_455
Ni1 Pr1 3.254043 1_455
Ni1 Pr0 3.254043 1_555
Ni2 Ni8 2.551963 1_565
Ni2 Pr0 3.254043 1_566
Ni2 Pr1 3.254043 1_455
Ni3 Ni8 2.551963 1_565
Ni3 Pr0 3.254043 1_555
Ni3 Pr1 3.254043 1_556
Ni4 Ni9 2.551963 1_655
Ni4 Pr1 3.254043 1_545
Ni4 Pr0 3.254043 1_555
Ni5 Ni9 2.551963 1_655
Ni5 Pr0 3.254043 1_656
Ni5 Pr1 3.254043 1_556
Ni6 Ni8 2.551963 1_555
Ni6 Pr0 3.254043 1_555
Ni6 Pr1 3.254043 1_556
Ni7 Ni8 2.551963 1_555
Ni7 Pr1 3.254043 1_545
Ni7 Pr0 3.254043 1_656
Ni10 Ni17 2.416141 1_544
Ni10 Ni16 2.416148 1_455
Ni10 Ni8 2.424235 1_555
Ni10 Ni6 2.573113 1_555
Ni10 Ni2 2.573113 1_545
Ni10 Ni14 2.581512 1_555
Ni10 Pr0 3.398827 1_555
Ni10 Pr1 3.398827 1_445
Ni11 Ni16 2.416141 1_566
Ni11 Ni17 2.416148 1_655
Ni11 Ni8 2.424235 1_565
Ni11 Ni7 2.573113 1_565
Ni11 Ni3 2.573113 1_555
Ni11 Ni15 2.581512 1_555
Ni11 Pr1 3.398827 1_556
Ni11 Pr0 3.398827 1_666
Ni12 Ni15 2.416141 1_556
Ni12 Ni14 2.416148 1_555
Ni12 Ni9 2.424240 1_555
Ni12 Ni5 2.573109 1_455
Ni12 Ni17 2.581512 1_555
Ni12 Pr0 3.398821 1_556
Ni12 Pr1 3.398831 1_556
Ni13 Ni14 2.416141 1_554
Ni13 Ni15 2.416148 1_555
Ni13 Ni9 2.424240 1_655
Ni13 Ni4 2.573119 1_555
Ni13 Ni16 2.581512 1_555
Ni13 Pr1 3.398821 1_555
Ni13 Pr0 3.398831 1_555
Ni14 Ni8 2.424235 1_555
Ni14 Ni6 2.573113 1_555
Ni14 Ni2 2.573113 1_545
Ni14 Pr1 3.398827 1_556
Ni14 Pr0 3.398827 1_556
Ni15 Ni8 2.424235 1_565
Ni15 Ni7 2.573113 1_565
Ni15 Ni3 2.573113 1_555
Ni15 Pr1 3.398827 1_555
Ni15 Pr0 3.398827 1_555
Ni16 Ni9 2.424240 1_655
Ni16 Ni4 2.573119 1_555
Ni16 Pr0 3.398821 1_655
Ni16 Pr1 3.398831 1_545
Ni17 Ni9 2.424240 1_555
Ni17 Ni5 2.573109 1_455
Ni17 Pr1 3.398821 1_456
Ni17 Pr0 3.398831 1_566
Ge0 Ni5 2.374865 1_555
Ge0 Ni1 2.377876 1_656
Ge0 Ni8 2.426578 1_555
Ge0 Ni6 2.506489 1_555
Ge0 Ni7 2.506489 1_555
Ge0 Ni13 2.525651 1_556
Ge0 Ni16 2.525651 1_556
Ge0 Ni11 2.591527 1_545
Ge0 Ni14 2.591527 1_555
Ge0 Pr1 3.307549 1_556
Ge0 Pr0 3.307549 1_656
Ge1 Ni4 2.374865 1_565
Ge1 Ni0 2.377876 1_554
Ge1 Ni8 2.426578 1_565
Ge1 Ni7 2.506489 1_565
Ge1 Ni6 2.506489 1_565
Ge1 Ni12 2.525658 1_554
Ge1 Ni17 2.525658 1_554
Ge1 Ni15 2.591527 1_555
Ge1 Ni10 2.591527 1_565
Ge1 Pr1 3.307549 1_555
Ge1 Pr0 3.307549 1_565
Ge2 Ni6 2.374865 1_555
Ge2 Ni3 2.377876 1_555
Ge2 Ni9 2.426578 1_655
Ge2 Ni5 2.506489 1_555
Ge2 Ni4 2.506489 1_555
Ge2 Ni11 2.525658 1_555
Ge2 Ni15 2.525658 1_555
Ge2 Ni17 2.591528 1_655
Ge2 Ni13 2.591534 1_555
Ge2 Pr0 3.307549 1_555
Ge2 Pr1 3.307549 1_556
Ge3 Ni7 2.374865 1_455
Ge3 Ni2 2.377876 1_545
Ge3 Ni9 2.426578 1_555
Ge3 Ni5 2.506489 1_455
Ge3 Ni4 2.506489 1_455
Ge3 Ni10 2.525658 1_555
Ge3 Ni14 2.525658 1_555
Ge3 Ni12 2.591528 1_555
Ge3 Ni16 2.591534 1_455
Ge3 Pr1 3.307549 1_445
Ge3 Pr0 3.307549 1_556
Ge4 Ni1 2.374865 1_555
Ge4 Ni5 2.377876 1_454
Ge4 Ni8 2.426578 1_565
Ge4 Ni2 2.506489 1_555
Ge4 Ni3 2.506489 1_555
Ge4 Ni17 2.525651 1_554
Ge4 Ni12 2.525651 1_554
Ge4 Ni10 2.591527 1_565
Ge4 Ni15 2.591527 1_555
Ge4 Pr1 3.307549 1_455
Ge4 Pr0 3.307549 1_555
Ge5 Ni0 2.374865 1_545
Ge5 Ni4 2.377876 1_556
Ge5 Ni8 2.426578 1_555
Ge5 Ni3 2.506489 1_545
Ge5 Ni2 2.506489 1_545
Ge5 Ni16 2.525658 1_556
Ge5 Ni13 2.525658 1_556
Ge5 Ni11 2.591527 1_545
Ge5 Ni14 2.591527 1_555
Ge5 Pr0 3.307549 1_556
Ge5 Pr1 3.307549 1_546
Ge6 Ni2 2.374865 1_655
Ge6 Ni7 2.377876 1_565
Ge6 Ni9 2.426578 1_655
Ge6 Ni1 2.506489 1_655
Ge6 Ni0 2.506489 1_655
Ge6 Ni15 2.525658 1_555
Ge6 Ni11 2.525658 1_555
Ge6 Ni13 2.591528 1_555
Ge6 Ni17 2.591534 1_655
Ge6 Pr0 3.307549 1_666
Ge6 Pr1 3.307549 1_555
Ge7 Ni3 2.374865 1_555
Ge7 Ni6 2.377876 1_555
Ge7 Ni9 2.426578 1_555
Ge7 Ni0 2.506489 1_555
Ge7 Ni1 2.506489 1_555
Ge7 Ni14 2.525658 1_555
Ge7 Ni10 2.525658 1_555
Ge7 Ni16 2.591528 1_455
Ge7 Ni12 2.591534 1_555
Ge7 Pr1 3.307549 1_556
Ge7 Pr0 3.307549 1_555
