# generated using pymatgen
data_Te2Mo3WS6
_symmetry_space_group_name_H-M   'P 1'
_cell_length_a   3.27137264
_cell_length_b   3.27137264
_cell_length_c   37.16712700
_cell_angle_alpha   90.00000000
_cell_angle_beta   90.00000000
_cell_angle_gamma   120.00001301
_symmetry_Int_Tables_number   1
_chemical_formula_structural   Te2Mo3WS6
_chemical_formula_sum   'Te2 Mo3 W1 S6'
_cell_volume   344.46856955
_cell_formula_units_Z   1
loop_
 _symmetry_equiv_pos_site_id
 _symmetry_equiv_pos_as_xyz
  1  'x, y, z'
loop_
 _atom_site_type_symbol
 _atom_site_label
 _atom_site_symmetry_multiplicity
 _atom_site_fract_x
 _atom_site_fract_y
 _atom_site_fract_z
 _atom_site_occupancy
  Te  Te0  1  0.66666700  0.33333300  0.04195100  1
  Te  Te1  1  0.66666700  0.33333300  0.14576900  1
  Mo  Mo0  1  0.33333300  0.66666700  0.09383800  1
  Mo  Mo1  1  0.33333300  0.66666700  0.46965800  1
  Mo  Mo2  1  0.66666700  0.33333300  0.28184900  1
  W  W0  1  0.66666700  0.33333300  0.65755900  1
  S  S0  1  0.33333300  0.66666700  0.32321100  1
  S  S1  1  0.33333300  0.66666700  0.69914500  1
  S  S2  1  0.66666700  0.33333300  0.42829100  1
  S  S3  1  0.66666700  0.33333300  0.51104500  1
  S  S4  1  0.33333300  0.66666700  0.24047500  1
  S  S5  1  0.33333300  0.66666700  0.61595900  1
loop_
_geom_bond_atom_site_label_1
_geom_bond_atom_site_label_2
_geom_bond_distance
_geom_bond_site_symmetry_2
Mo0 Te0 2.699326 1_455
Mo0 Te0 2.699326 1_565
Mo0 Te0 2.699330 1_555
Mo0 Te1 2.700495 1_565
Mo0 Te1 2.700495 1_455
Mo0 Te1 2.700499 1_555
Mo1 S2 2.435399 1_455
Mo1 S2 2.435399 1_565
Mo1 S2 2.435404 1_555
Mo1 S3 2.435868 1_455
Mo1 S3 2.435868 1_565
Mo1 S3 2.435873 1_555
Mo2 S0 2.435282 1_545
Mo2 S0 2.435282 1_655
Mo2 S0 2.435286 1_555
Mo2 S4 2.435563 1_545
Mo2 S4 2.435563 1_655
Mo2 S4 2.435568 1_555
S1 W0 2.440546 1_455
S1 W0 2.440546 1_565
S1 W0 2.440550 1_555
S5 W0 2.440875 1_565
S5 W0 2.440875 1_455
S5 W0 2.440880 1_555
