# generated using pymatgen
data_Al2(ZnS2)3
_symmetry_space_group_name_H-M   'P 1'
_cell_length_a   7.26054324
_cell_length_b   7.26054324
_cell_length_c   7.26054390
_cell_angle_alpha   54.16356387
_cell_angle_beta   54.16356387
_cell_angle_gamma   54.16356060
_symmetry_Int_Tables_number   1
_chemical_formula_structural   Al2(ZnS2)3
_chemical_formula_sum   'Al2 Zn3 S6'
_cell_volume   233.76765665
_cell_formula_units_Z   1
loop_
 _symmetry_equiv_pos_site_id
 _symmetry_equiv_pos_as_xyz
  1  'x, y, z'
loop_
 _atom_site_type_symbol
 _atom_site_label
 _atom_site_symmetry_multiplicity
 _atom_site_fract_x
 _atom_site_fract_y
 _atom_site_fract_z
 _atom_site_occupancy
  Al  Al0  1  0.00076700  0.00076700  0.00076700  1
  Al  Al1  1  0.66388200  0.66388200  0.66388200  1
  Zn  Zn0  1  0.81532100  0.18100500  0.50488500  1
  Zn  Zn1  1  0.50488500  0.81532100  0.18100500  1
  Zn  Zn2  1  0.18100500  0.50488500  0.81532100  1
  S  S0  1  0.95224500  0.29226700  0.63959200  1
  S  S1  1  0.63959200  0.95224500  0.29226700  1
  S  S2  1  0.29226700  0.63959200  0.95224500  1
  S  S3  1  0.78843800  0.78843800  0.78843800  1
  S  S4  1  0.45262300  0.45262300  0.45262300  1
  S  S5  1  0.12542000  0.12542000  0.12542000  1
loop_
_geom_bond_atom_site_label_1
_geom_bond_atom_site_label_2
_geom_bond_distance
_geom_bond_site_symmetry_2
Al0 S2 2.278151 1_544
Al0 S1 2.278151 1_445
Al0 S0 2.278151 1_454
Al0 S5 2.309708 1_555
Al1 S0 2.281361 1_555
Al1 S2 2.281361 1_555
Al1 S1 2.281361 1_555
Al1 S3 2.307911 1_555
S0 Zn0 2.366755 1_555
S1 Zn1 2.366755 1_555
S2 Zn2 2.366755 1_555
S3 Zn2 2.389626 1_655
S3 Zn0 2.389626 1_565
S3 Zn1 2.389626 1_556
S4 Zn0 2.276097 1_555
S4 Zn1 2.276097 1_555
S4 Zn2 2.276097 1_555
S5 Zn1 2.407746 1_545
S5 Zn2 2.407747 1_554
S5 Zn0 2.407747 1_455
