# generated using pymatgen
data_Al5Cu3Si6(O7F2)3
_symmetry_space_group_name_H-M   'P 1'
_cell_length_a   14.57060160
_cell_length_b   8.92485654
_cell_length_c   14.05932098
_cell_angle_alpha   90.00021520
_cell_angle_beta   90.00073920
_cell_angle_gamma   89.99820615
_symmetry_Int_Tables_number   1
_chemical_formula_structural   Al5Cu3Si6(O7F2)3
_chemical_formula_sum   'Al20 Cu12 Si24 O84 F24'
_cell_volume   1828.28153684
_cell_formula_units_Z   4
loop_
 _symmetry_equiv_pos_site_id
 _symmetry_equiv_pos_as_xyz
  1  'x, y, z'
loop_
 _atom_site_type_symbol
 _atom_site_label
 _atom_site_symmetry_multiplicity
 _atom_site_fract_x
 _atom_site_fract_y
 _atom_site_fract_z
 _atom_site_occupancy
  Al  Al0  1  0.19726920  0.37939074  0.95297352  1
  Al  Al1  1  0.53242798  0.36588962  0.95256164  1
  Al  Al2  1  0.86368460  0.37298502  0.95280396  1
  Al  Al3  1  0.30089099  0.86593552  0.54744393  1
  Al  Al4  1  0.63605244  0.87938387  0.54703714  1
  Al  Al5  1  0.96964112  0.87298005  0.54720080  1
  Al  Al6  1  0.03726708  0.14308489  0.45338414  1
  Al  Al7  1  0.36096079  0.14026056  0.45569209  1
  Al  Al8  1  0.29605257  0.85690632  0.95339945  1
  Al  Al9  1  0.97237946  0.85975395  0.95568473  1
  Al  Al10  1  0.47238158  0.64024857  0.04430077  1
  Al  Al11  1  0.79606299  0.64312841  0.04659363  1
  Al  Al12  1  0.13606734  0.62061606  0.45297305  1
  Al  Al13  1  0.46965340  0.62701721  0.45281379  1
  Al  Al14  1  0.80090592  0.63410156  0.45255430  1
  Al  Al15  1  0.03243009  0.13408564  0.04744138  1
  Al  Al16  1  0.36368430  0.12701604  0.04720872  1
  Al  Al17  1  0.69728377  0.12060872  0.04703310  1
  Al  Al18  1  0.53728219  0.35686786  0.54661566  1
  Al  Al19  1  0.86095185  0.35974854  0.54429275  1
  Cu  Cu0  1  0.28526735  0.84262112  0.74895855  1
  Cu  Cu1  1  0.61613501  0.84504606  0.75240693  1
  Cu  Cu2  1  0.95349173  0.85006580  0.75088206  1
  Cu  Cu3  1  0.11619835  0.65490515  0.24761026  1
  Cu  Cu4  1  0.45348825  0.64985033  0.24913229  1
  Cu  Cu5  1  0.78531249  0.65742615  0.25103391  1
  Cu  Cu6  1  0.21713747  0.34511908  0.74760814  1
  Cu  Cu7  1  0.54804769  0.34252024  0.75105098  1
  Cu  Cu8  1  0.87986157  0.35014038  0.74913382  1
  Cu  Cu9  1  0.04804390  0.15739737  0.24895107  1
  Cu  Cu10  1  0.37984826  0.14993036  0.25087888  1
  Cu  Cu11  1  0.71719174  0.15492604  0.25238534  1
  Si  Si0  1  0.03209141  0.55325748  0.84949396  1
  Si  Si1  1  0.36732903  0.55316852  0.85131003  1
  Si  Si2  1  0.69659039  0.55964477  0.85122330  1
  Si  Si3  1  0.13715242  0.05451425  0.85167372  1
  Si  Si4  1  0.46863307  0.05059189  0.85201405  1
  Si  Si5  1  0.80870578  0.05691985  0.85668228  1
  Si  Si6  1  0.19616437  0.94551261  0.35167692  1
  Si  Si7  1  0.52463148  0.94307932  0.35668628  1
  Si  Si8  1  0.86468229  0.94939177  0.35200177  1
  Si  Si9  1  0.30124935  0.44674979  0.34950331  1
  Si  Si10  1  0.63675234  0.44030827  0.35122564  1
  Si  Si11  1  0.96600148  0.44683180  0.35130639  1
  Si  Si12  1  0.30872217  0.44310757  0.14331655  1
  Si  Si13  1  0.63718432  0.44553758  0.14831224  1
  Si  Si14  1  0.96866925  0.44938628  0.14798819  1
  Si  Si15  1  0.13671793  0.05976963  0.64876478  1
  Si  Si16  1  0.46597179  0.05316701  0.64869413  1
  Si  Si17  1  0.80122359  0.05327967  0.65051627  1
  Si  Si18  1  0.19659695  0.94025923  0.14877296  1
  Si  Si19  1  0.53211572  0.94671760  0.15051241  1
  Si  Si20  1  0.86735857  0.94682881  0.14868441  1
  Si  Si21  1  0.02461920  0.55689251  0.64330949  1
  Si  Si22  1  0.36466104  0.55063028  0.64798927  1
  Si  Si23  1  0.69615152  0.55445186  0.64831145  1
  O  O0  1  0.25767620  0.48150843  0.24379303  1
  O  O1  1  0.58656112  0.49058471  0.24936506  1
  O  O2  1  0.91248602  0.47915473  0.24962242  1
  O  O3  1  0.17243506  0.76354330  0.34801726  1
  O  O4  1  0.50430577  0.75714555  0.35058557  1
  O  O5  1  0.84430632  0.76128979  0.35207166  1
  O  O6  1  0.00939401  0.73833017  0.85010785  1
  O  O7  1  0.34307632  0.73644546  0.84995102  1
  O  O8  1  0.67566388  0.73829708  0.84519118  1
  O  O9  1  0.32905982  0.25716879  0.14942788  1
  O  O10  1  0.66092607  0.26357057  0.15198738  1
  O  O11  1  0.98904833  0.26127199  0.14793384  1
  O  O12  1  0.09691833  0.03864712  0.34987658  1
  O  O13  1  0.42526396  0.03666269  0.35417823  1
  O  O14  1  0.76322243  0.02205671  0.34034885  1
  O  O15  1  0.06203166  0.54650013  0.35015743  1
  O  O16  1  0.40364299  0.53466224  0.35065214  1
  O  O17  1  0.73385441  0.54236688  0.35236385  1
  O  O18  1  0.23382425  0.95770575  0.64763115  1
  O  O19  1  0.56199699  0.95347410  0.64985981  1
  O  O20  1  0.90360748  0.96533774  0.64936287  1
  O  O21  1  0.07013210  0.52203676  0.15963919  1
  O  O22  1  0.40809210  0.53668219  0.14581915  1
  O  O23  1  0.73641357  0.53869774  0.15008760  1
  O  O24  1  0.09949038  0.04233114  0.14763325  1
  O  O25  1  0.42972450  0.03464501  0.14936250  1
  O  O26  1  0.77133001  0.04650902  0.14984702  1
  O  O27  1  0.15761409  0.23838749  0.65478194  1
  O  O28  1  0.49020684  0.23642700  0.65004533  1
  O  O29  1  0.82393417  0.23833635  0.64987287  1
  O  O30  1  0.32395727  0.26167891  0.35011759  1
  O  O31  1  0.65766357  0.26169093  0.34519012  1
  O  O32  1  0.99024157  0.26354637  0.34993361  1
  O  O33  1  0.26309948  0.98579274  0.44228965  1
  O  O34  1  0.58006225  0.97479171  0.45080972  1
  O  O35  1  0.93262647  0.99266522  0.44158579  1
  O  O36  1  0.06837801  0.01430535  0.56000648  1
  O  O37  1  0.39975463  0.00728888  0.55887583  1
  O  O38  1  0.73585625  0.99249839  0.57032583  1
  O  O39  1  0.27130288  0.45349426  0.85015405  1
  O  O40  1  0.59949588  0.45760995  0.85238013  1
  O  O41  1  0.92969980  0.46534346  0.85063863  1
  O  O42  1  0.26493873  0.98570654  0.06001586  1
  O  O43  1  0.59748365  0.00749362  0.07032465  1
  O  O44  1  0.93356632  0.99272486  0.05886637  1
  O  O45  1  0.09746229  0.49250759  0.92969331  1
  O  O46  1  0.43355551  0.50726662  0.94112059  1
  O  O47  1  0.76493433  0.51429937  0.93999343  1
  O  O48  1  0.24679255  0.99054149  0.25062987  1
  O  O49  1  0.57569830  0.98145302  0.25621985  1
  O  O50  1  0.92087319  0.97913327  0.25037064  1
  O  O51  1  0.25326797  0.47478574  0.04919902  1
  O  O52  1  0.57023583  0.48577185  0.05769937  1
  O  O53  1  0.90071366  0.49265606  0.05841051  1
  O  O54  1  0.23587664  0.50750780  0.42969737  1
  O  O55  1  0.56841505  0.48568855  0.44000520  1
  O  O56  1  0.89978040  0.49272451  0.44111996  1
  O  O57  1  0.08007185  0.52521096  0.54919438  1
  O  O58  1  0.43262482  0.50734557  0.55841990  1
  O  O59  1  0.76309928  0.51421758  0.55769737  1
  O  O60  1  0.07566691  0.51849402  0.74378650  1
  O  O61  1  0.42084090  0.52085344  0.74962453  1
  O  O62  1  0.74678067  0.50940224  0.74936386  1
  O  O63  1  0.26318784  0.47800513  0.65963618  1
  O  O64  1  0.59692429  0.46130803  0.65010248  1
  O  O65  1  0.92525090  0.46331477  0.64581074  1
  O  O66  1  0.07021808  0.01423714  0.94228518  1
  O  O67  1  0.40068630  0.00732335  0.94159041  1
  O  O68  1  0.75327513  0.02521405  0.95080403  1
  O  O69  1  0.16089942  0.23647470  0.84800939  1
  O  O70  1  0.48903217  0.23867309  0.85209202  1
  O  O71  1  0.82904027  0.24285075  0.85057519  1
  O  O72  1  0.17570886  0.76165086  0.15480708  1
  O  O73  1  0.50941453  0.76165413  0.14988090  1
  O  O74  1  0.84313137  0.76355112  0.15003607  1
  O  O75  1  0.23637698  0.96132908  0.84989739  1
  O  O76  1  0.57010236  0.97791634  0.84036052  1
  O  O77  1  0.90806848  0.96332575  0.85416757  1
  O  O78  1  0.08651628  0.00951990  0.75062150  1
  O  O79  1  0.41244835  0.02086090  0.75037787  1
  O  O80  1  0.75763248  0.01855322  0.75621795  1
  O  O81  1  0.00428030  0.74283049  0.64942217  1
  O  O82  1  0.34427436  0.73873784  0.64793195  1
  O  O83  1  0.67240624  0.73642063  0.65199454  1
  F  F0  1  0.13132055  0.25461755  0.03086139  1
  F  F1  1  0.46346467  0.25070322  0.03041647  1
  F  F2  1  0.79494955  0.26637603  0.03406484  1
  F  F3  1  0.02636396  0.75005137  0.03671364  1
  F  F4  1  0.36587448  0.74954168  0.03410791  1
  F  F5  1  0.70002743  0.75125832  0.03543256  1
  F  F6  1  0.20200637  0.74540191  0.53086173  1
  F  F7  1  0.53838811  0.73362233  0.53407243  1
  F  F8  1  0.86986917  0.74928257  0.53041120  1
  F  F9  1  0.30698831  0.24999016  0.53671706  1
  F  F10  1  0.63332629  0.24874956  0.53547728  1
  F  F11  1  0.96746573  0.25047058  0.53409294  1
  F  F12  1  0.20000746  0.74881823  0.96460270  1
  F  F13  1  0.52636670  0.74993703  0.96326465  1
  F  F14  1  0.86587030  0.75046637  0.96587017  1
  F  F15  1  0.13332950  0.25114701  0.46456128  1
  F  F16  1  0.46748712  0.24951588  0.46588834  1
  F  F17  1  0.80697005  0.25006027  0.46325486  1
  F  F18  1  0.03838483  0.76637676  0.46593713  1
  F  F19  1  0.36987880  0.75074121  0.46960433  1
  F  F20  1  0.70202036  0.75464386  0.46913683  1
  F  F21  1  0.29494921  0.23362631  0.96593896  1
  F  F22  1  0.63131470  0.24534731  0.96914209  1
  F  F23  1  0.96345930  0.24928111  0.96959266  1
loop_
_geom_bond_atom_site_label_1
_geom_bond_atom_site_label_2
_geom_bond_distance
_geom_bond_site_symmetry_2
Al0 O51 1.794676 1_556
Al0 O45 1.800293 1_555
Al0 F0 1.833755 1_556
Al0 O39 1.921145 1_555
Al0 F21 1.936795 1_555
Al0 O69 2.021264 1_555
Al1 F1 1.806861 1_556
Al1 F22 1.813187 1_555
Al1 O40 1.899729 1_555
Al1 O52 1.906096 1_556
Al1 O70 1.919422 1_555
Al1 O46 1.921779 1_555
Al2 F2 1.792669 1_556
Al2 F23 1.840646 1_555
Al2 O53 1.906916 1_556
Al2 O41 1.915184 1_555
Al2 O71 1.915587 1_555
Al2 O47 1.921786 1_555
Al3 F19 1.806930 1_555
Al3 F6 1.813173 1_555
Al3 O18 1.899941 1_555
Al3 O33 1.906069 1_555
Al3 O82 1.919436 1_555
Al3 O37 1.921592 1_565
Al4 O34 1.794674 1_555
Al4 O38 1.800316 1_555
Al4 F20 1.833785 1_555
Al4 O19 1.921289 1_555
Al4 F7 1.936668 1_555
Al4 O83 2.021386 1_555
Al5 F18 1.792699 1_655
Al5 F8 1.840635 1_555
Al5 O35 1.907007 1_555
Al5 O20 1.915251 1_555
Al5 O81 1.915559 1_655
Al5 O36 1.921756 1_665
Al6 F15 1.707055 1_555
Al6 F11 1.800125 1_455
Al6 O32 1.934083 1_455
Al6 O12 1.934409 1_555
Al6 O36 1.942561 1_555
Al6 O35 2.038262 1_445
Al7 F9 1.695628 1_555
Al7 F16 1.838644 1_555
Al7 O30 1.915227 1_555
Al7 O13 1.941557 1_555
Al7 O37 1.957639 1_555
Al7 O33 1.992323 1_545
Al8 F12 1.707018 1_555
Al8 F4 1.800179 1_556
Al8 O7 1.934056 1_555
Al8 O75 1.934434 1_555
Al8 O42 1.942618 1_556
Al8 O67 2.038187 1_565
Al9 F3 1.695599 1_656
Al9 F14 1.838578 1_555
Al9 O6 1.915330 1_655
Al9 O77 1.941522 1_555
Al9 O44 1.957699 1_556
Al9 O66 1.992182 1_665
Al10 F13 1.695640 1_554
Al10 F4 1.838532 1_555
Al10 O73 1.915357 1_555
Al10 O22 1.941406 1_555
Al10 O46 1.957808 1_554
Al10 O52 1.992239 1_555
Al11 F5 1.707007 1_555
Al11 F14 1.800116 1_554
Al11 O74 1.934044 1_555
Al11 O23 1.934254 1_555
Al11 O47 1.942652 1_554
Al11 O53 2.038640 1_555
Al12 O57 1.794673 1_555
Al12 O54 1.800272 1_555
Al12 F6 1.833737 1_555
Al12 O15 1.921134 1_555
Al12 F18 1.936801 1_555
Al12 O3 2.021251 1_555
Al13 F7 1.792606 1_555
Al13 F19 1.840760 1_555
Al13 O58 1.906929 1_555
Al13 O16 1.915074 1_555
Al13 O4 1.915596 1_555
Al13 O55 1.921994 1_555
Al14 F8 1.806830 1_555
Al14 F20 1.813181 1_555
Al14 O17 1.899731 1_555
Al14 O59 1.906175 1_555
Al14 O5 1.919447 1_555
Al14 O56 1.921796 1_555
Al15 F23 1.806864 1_454
Al15 F0 1.813233 1_555
Al15 O24 1.899866 1_555
Al15 O66 1.906037 1_554
Al15 O11 1.919420 1_455
Al15 O44 1.921633 1_445
Al16 F21 1.792705 1_554
Al16 F1 1.840688 1_555
Al16 O67 1.907033 1_554
Al16 O25 1.915249 1_555
Al16 O9 1.915500 1_555
Al16 O42 1.921765 1_545
Al17 O68 1.794655 1_554
Al17 O43 1.800291 1_555
Al17 F22 1.833698 1_554
Al17 O26 1.921133 1_555
Al17 F2 1.936727 1_555
Al17 O10 2.021364 1_555
Al18 F10 1.707024 1_555
Al18 F16 1.800095 1_555
Al18 O28 1.934055 1_555
Al18 O64 1.934149 1_555
Al18 O55 1.942750 1_555
Al18 O58 2.038733 1_555
Al19 F17 1.695615 1_555
Al19 F11 1.838554 1_555
Al19 O29 1.915345 1_555
Al19 O65 1.941446 1_555
Al19 O56 1.957727 1_555
Al19 O59 1.992184 1_555
Cu0 O82 1.901632 1_555
Cu0 O7 1.903534 1_555
Cu0 O75 1.908874 1_555
Cu0 O18 1.909503 1_555
Cu0 O79 2.442357 1_565
Cu1 O8 1.833470 1_555
Cu1 O76 1.839882 1_555
Cu1 O83 1.898700 1_555
Cu1 O19 1.907158 1_555
Cu1 O80 2.579074 1_565
Cu2 O81 1.870387 1_655
Cu2 O77 1.889034 1_555
Cu2 O6 1.898421 1_655
Cu2 O20 1.903628 1_555
Cu2 O78 2.404624 1_665
Cu3 O72 1.833562 1_555
Cu3 O21 1.840230 1_555
Cu3 O3 1.898495 1_555
Cu3 O15 1.907267 1_555
Cu3 O0 2.578179 1_555
Cu4 O4 1.870765 1_555
Cu4 O22 1.888765 1_555
Cu4 O73 1.899197 1_555
Cu4 O16 1.903052 1_555
Cu4 O1 2.404125 1_555
Cu5 O5 1.901587 1_555
Cu5 O74 1.903472 1_555
Cu5 O23 1.909111 1_555
Cu5 O17 1.909534 1_555
Cu5 O2 2.442382 1_555
Cu6 O27 1.833795 1_555
Cu6 O63 1.840274 1_555
Cu6 O69 1.898493 1_555
Cu6 O39 1.907090 1_555
Cu6 O60 2.577978 1_555
Cu7 O70 1.901714 1_555
Cu7 O28 1.903533 1_555
Cu7 O64 1.909326 1_555
Cu7 O40 1.909595 1_555
Cu7 O61 2.443110 1_555
Cu8 O71 1.870654 1_555
Cu8 O65 1.888886 1_555
Cu8 O29 1.899283 1_555
Cu8 O41 1.902907 1_555
Cu8 O62 2.404199 1_555
Cu9 O11 1.901409 1_455
Cu9 O32 1.903280 1_455
Cu9 O12 1.908850 1_555
Cu9 O24 1.909343 1_555
Cu9 O50 2.442385 1_445
Cu10 O9 1.870296 1_555
Cu10 O13 1.889174 1_555
Cu10 O30 1.898554 1_555
Cu10 O25 1.903626 1_555
Cu10 O48 2.404646 1_545
Cu11 O31 1.833755 1_555
Cu11 O14 1.839954 1_555
Cu11 O10 1.898591 1_555
Cu11 O26 1.907026 1_555
Cu11 O49 2.578852 1_545
O0 Si12 1.632846 1_555
O0 Si9 1.645636 1_555
O1 Si13 1.650513 1_555
O1 Si10 1.669433 1_555
O2 Si11 1.653775 1_555
O2 Si14 1.668089 1_555
O3 Si6 1.661253 1_555
O4 Si7 1.687842 1_555
O5 Si8 1.704843 1_555
O6 Si0 1.684542 1_555
O7 Si1 1.673555 1_555
O8 Si2 1.625544 1_555
O9 Si12 1.687906 1_555
O10 Si13 1.661257 1_555
O11 Si14 1.704940 1_555
O12 Si6 1.668116 1_545
O13 Si7 1.671828 1_545
O14 Si8 1.622597 1_545
O15 Si11 1.658133 1_455
O16 Si9 1.685769 1_555
O17 Si10 1.682783 1_555
O18 Si15 1.682812 1_565
O19 Si16 1.658144 1_565
O20 Si17 1.685723 1_565
O21 Si14 1.622619 1_455
O22 Si12 1.671863 1_555
O23 Si13 1.668057 1_555
O24 Si18 1.682855 1_545
O25 Si19 1.685756 1_545
O26 Si20 1.658125 1_545
O27 Si15 1.625166 1_555
O28 Si16 1.673373 1_555
O29 Si17 1.684462 1_555
O30 Si9 1.684556 1_555
O31 Si10 1.625198 1_555
O32 Si11 1.673592 1_555
O33 Si6 1.644190 1_555
O34 Si7 1.575931 1_555
O35 Si8 1.647889 1_555
O36 Si15 1.647230 1_555
O37 Si16 1.641083 1_555
O38 Si17 1.572417 1_565
O39 Si1 1.658112 1_555
O40 Si2 1.682578 1_555
O41 Si0 1.685749 1_655
O42 Si18 1.647218 1_555
O43 Si19 1.572400 1_545
O44 Si20 1.641061 1_555
O45 Si0 1.572424 1_555
O46 Si1 1.641119 1_555
O47 Si2 1.647117 1_555
O48 Si6 1.650450 1_555
O48 Si18 1.669440 1_555
O49 Si7 1.632824 1_555
O49 Si19 1.645619 1_555
O50 Si20 1.653774 1_555
O50 Si8 1.668079 1_555
O51 Si12 1.575974 1_555
O52 Si13 1.644206 1_555
O53 Si14 1.647901 1_555
O54 Si9 1.572426 1_555
O55 Si10 1.647253 1_555
O56 Si11 1.641102 1_555
O57 Si21 1.575955 1_555
O58 Si22 1.647932 1_555
O59 Si23 1.644231 1_555
O60 Si21 1.632846 1_555
O60 Si0 1.645634 1_555
O61 Si1 1.653772 1_555
O61 Si22 1.668073 1_555
O62 Si23 1.650539 1_555
O62 Si2 1.669345 1_555
O63 Si22 1.622665 1_555
O64 Si23 1.667963 1_555
O65 Si21 1.671857 1_655
O66 Si3 1.644185 1_555
O67 Si4 1.647841 1_555
O68 Si5 1.575918 1_555
O69 Si3 1.661233 1_555
O70 Si4 1.704719 1_555
O71 Si5 1.687845 1_555
O72 Si18 1.625075 1_555
O73 Si19 1.684494 1_555
O74 Si20 1.673503 1_555
O75 Si3 1.668065 1_565
O76 Si4 1.622765 1_565
O77 Si5 1.671818 1_565
O78 Si3 1.650470 1_555
O78 Si15 1.669417 1_555
O79 Si16 1.653827 1_555
O79 Si4 1.668060 1_555
O80 Si5 1.632809 1_555
O80 Si17 1.645596 1_555
O81 Si21 1.687903 1_555
O82 Si22 1.704901 1_555
O83 Si23 1.661287 1_555
