# generated using pymatgen
data_CeSe2
_symmetry_space_group_name_H-M   'P 1'
_cell_length_a   5.50943200
_cell_length_b   7.27276022
_cell_length_c   7.66269787
_cell_angle_alpha   104.39935669
_cell_angle_beta   105.39056698
_cell_angle_gamma   107.70465129
_symmetry_Int_Tables_number   1
_chemical_formula_structural   CeSe2
_chemical_formula_sum   'Ce3 Se6'
_cell_volume   263.24517903
_cell_formula_units_Z   3
loop_
 _symmetry_equiv_pos_site_id
 _symmetry_equiv_pos_as_xyz
  1  'x, y, z'
loop_
 _atom_site_type_symbol
 _atom_site_label
 _atom_site_symmetry_multiplicity
 _atom_site_fract_x
 _atom_site_fract_y
 _atom_site_fract_z
 _atom_site_occupancy
  Ce  Ce0  1  0.92688800  0.43006000  0.46666800  1
  Ce  Ce1  1  0.27011600  0.68860700  0.09201900  1
  Ce  Ce2  1  0.75573700  0.98565800  0.76125000  1
  Se  Se0  1  0.50191700  0.07167900  0.42439000  1
  Se  Se1  1  0.81093300  0.33772600  0.06997200  1
  Se  Se2  1  0.48119300  0.58148900  0.43964600  1
  Se  Se3  1  0.19604800  0.83872100  0.76437600  1
  Se  Se4  1  0.80991000  0.81535600  0.06687100  1
  Se  Se5  1  0.19225900  0.33470500  0.77580800  1
loop_
_geom_bond_atom_site_label_1
_geom_bond_atom_site_label_2
_geom_bond_distance
_geom_bond_site_symmetry_2
Ce0 Se1 2.791465 1_555
Ce0 Se5 2.797382 1_655
Ce0 Se0 2.801075 1_555
Ce0 Se3 2.896215 1_655
Ce0 Se2 2.962043 1_555
Ce0 Se2 2.997588 1_655
Ce1 Se5 2.890464 1_554
Ce1 Se4 2.907997 1_555
Ce1 Se0 2.908557 1_565
Ce1 Se4 2.926785 1_455
Ce1 Se1 2.927941 1_455
Ce1 Se3 2.958392 1_554
Ce1 Se2 2.998963 1_555
Ce2 Se5 2.871245 1_665
Ce2 Se1 2.894284 1_566
Ce2 Se4 2.898963 1_556
Ce2 Se0 2.903291 1_565
Ce2 Se3 2.930187 1_655
Ce2 Se3 2.949351 1_555
Ce2 Se2 2.952224 1_555
