# generated using pymatgen
data_K3Zr2S(O2F3)3
_symmetry_space_group_name_H-M   'P 1'
_cell_length_a   7.99432984
_cell_length_b   7.99432984
_cell_length_c   11.97358052
_cell_angle_alpha   69.09992791
_cell_angle_beta   69.09992791
_cell_angle_gamma   83.25220365
_symmetry_Int_Tables_number   1
_chemical_formula_structural   K3Zr2S(O2F3)3
_chemical_formula_sum   'K6 Zr4 S2 O12 F18'
_cell_volume   667.79698485
_cell_formula_units_Z   2
loop_
 _symmetry_equiv_pos_site_id
 _symmetry_equiv_pos_as_xyz
  1  'x, y, z'
loop_
 _atom_site_type_symbol
 _atom_site_label
 _atom_site_symmetry_multiplicity
 _atom_site_fract_x
 _atom_site_fract_y
 _atom_site_fract_z
 _atom_site_occupancy
  K  K0  1  0.66757200  0.66757200  0.33948900  1
  K  K1  1  0.33242800  0.33242800  0.66051100  1
  K  K2  1  0.32223500  0.32223500  0.27726500  1
  K  K3  1  0.67776500  0.67776500  0.72273500  1
  K  K4  1  0.79880300  0.20119700  0.00000000  1
  K  K5  1  0.20119700  0.79880300  0.00000000  1
  Zr  Zr0  1  0.76415700  0.11084800  0.38735500  1
  Zr  Zr1  1  0.23584200  0.88915200  0.61264500  1
  Zr  Zr2  1  0.88915200  0.23584300  0.61264500  1
  Zr  Zr3  1  0.11084800  0.76415700  0.38735500  1
  S  S0  1  0.70987200  0.70987200  0.99682000  1
  S  S1  1  0.29012800  0.29012800  0.00318000  1
  O  O0  1  0.59187700  0.59187700  0.12234000  1
  O  O1  1  0.40812300  0.40812300  0.87766000  1
  O  O2  1  0.41086600  0.17973300  0.07402200  1
  O  O3  1  0.58913400  0.82026700  0.92597800  1
  O  O4  1  0.82026700  0.58913400  0.92597800  1
  O  O5  1  0.17973300  0.41086600  0.07402200  1
  O  O6  1  0.82496900  0.82496900  0.01264500  1
  O  O7  1  0.17503100  0.17503100  0.98735500  1
  O  O8  1  0.31628600  0.86812700  0.19311300  1
  O  O9  1  0.68371400  0.13187300  0.80688700  1
  O  O10  1  0.13187300  0.68371400  0.80688700  1
  O  O11  1  0.86812700  0.31628600  0.19311300  1
  F  F0  1  0.81838000  0.81838000  0.46446500  1
  F  F1  1  0.18162000  0.18162000  0.53553500  1
  F  F2  1  0.50000000  0.00000000  0.50000000  1
  F  F3  1  0.00000000  0.50000000  0.50000000  1
  F  F4  1  0.70113500  0.03616300  0.26082700  1
  F  F5  1  0.29886500  0.96383700  0.73917300  1
  F  F6  1  0.96383700  0.29886500  0.73917300  1
  F  F7  1  0.03616300  0.70113500  0.26082700  1
  F  F8  1  0.96479100  0.96479100  0.70075900  1
  F  F9  1  0.03520900  0.03520900  0.29924100  1
  F  F10  1  0.60488700  0.32682800  0.38916000  1
  F  F11  1  0.39511300  0.67317200  0.61084000  1
  F  F12  1  0.67317200  0.39511300  0.61084000  1
  F  F13  1  0.32682800  0.60488700  0.38916000  1
  F  F14  1  0.72962400  0.05790500  0.58764800  1
  F  F15  1  0.27037600  0.94209500  0.41235200  1
  F  F16  1  0.94209500  0.27037600  0.41235200  1
  F  F17  1  0.05790500  0.72962400  0.58764800  1
loop_
_geom_bond_atom_site_label_1
_geom_bond_atom_site_label_2
_geom_bond_distance
_geom_bond_site_symmetry_2
K0 O0 3.134297 1_555
K1 O1 3.134297 1_555
K2 O0 2.849625 1_555
K2 O5 2.877507 1_555
K2 O2 2.877507 1_555
K3 O1 2.849625 1_555
K3 O3 2.877507 1_555
K3 O4 2.877507 1_555
K4 O2 2.913491 1_555
K4 O4 2.913491 1_554
K4 O7 2.943251 1_654
K4 O6 2.943251 1_545
K4 O9 3.008677 1_554
K4 O11 3.008677 1_555
K5 O5 2.913491 1_555
K5 O3 2.913491 1_554
K5 O7 2.943251 1_564
K5 O6 2.943251 1_455
K5 O8 3.008677 1_555
K5 O10 3.008677 1_554
O0 S0 1.491472 1_554
O1 S1 1.491472 1_556
O2 S1 1.509925 1_555
O3 S0 1.509925 1_555
O4 S0 1.509925 1_555
O5 S1 1.509925 1_555
O6 S0 1.475432 1_554
O7 S1 1.475432 1_556
O8 Zr3 2.239110 1_555
O9 Zr2 2.239110 1_555
O10 Zr1 2.239109 1_555
O11 Zr0 2.239110 1_555
F0 Zr0 2.239236 1_565
F0 Zr3 2.239236 1_655
F0 K3 2.725222 1_555
F0 K0 2.839392 1_555
F1 Zr1 2.239234 1_545
F1 Zr2 2.239236 1_455
F1 K2 2.725222 1_555
F1 K1 2.839392 1_555
F2 Zr0 2.149137 1_555
F2 Zr1 2.149143 1_545
F3 Zr2 2.149137 1_455
F3 Zr3 2.149137 1_555
F4 Zr0 2.041116 1_555
F4 K4 2.768783 1_555
F4 K0 2.768957 1_545
F5 Zr1 2.041121 1_555
F5 K5 2.768783 1_556
F5 K1 2.768957 1_565
F6 Zr2 2.041116 1_555
F6 K4 2.768783 1_556
F6 K1 2.768957 1_655
F7 Zr3 2.041116 1_555
F7 K5 2.768783 1_555
F7 K0 2.768957 1_455
F8 Zr1 2.165695 1_655
F8 Zr2 2.165702 1_565
F9 Zr0 2.165702 1_455
F9 Zr3 2.165702 1_545
F10 Zr0 2.023170 1_555
F10 K0 2.641473 1_555
F10 K2 3.019403 1_555
F10 K1 3.214688 1_555
F11 Zr1 2.023174 1_555
F11 K1 2.641473 1_555
F11 K3 3.019403 1_555
F11 K0 3.214688 1_555
F12 Zr2 2.023170 1_555
F12 K1 2.641473 1_555
F12 K3 3.019403 1_555
F12 K0 3.214688 1_555
F13 Zr3 2.023170 1_555
F13 K0 2.641473 1_555
F13 K2 3.019403 1_555
F13 K1 3.214688 1_555
F14 Zr2 2.177600 1_555
F14 Zr0 2.199479 1_555
F14 K3 2.886862 1_545
F15 Zr3 2.177600 1_555
F15 Zr1 2.199477 1_555
F15 K2 2.886862 1_565
F16 Zr0 2.177600 1_555
F16 Zr2 2.199479 1_555
F16 K2 2.886862 1_655
F17 Zr1 2.177594 1_555
F17 Zr3 2.199479 1_555
F17 K3 2.886862 1_455
