# generated using pymatgen
data_Mg14CdNi
_symmetry_space_group_name_H-M   'P 1'
_cell_length_a   6.30281291
_cell_length_b   6.31878499
_cell_length_c   9.88175854
_cell_angle_alpha   90.00000000
_cell_angle_beta   90.00000000
_cell_angle_gamma   120.08386864
_symmetry_Int_Tables_number   1
_chemical_formula_structural   Mg14CdNi
_chemical_formula_sum   'Mg14 Cd1 Ni1'
_cell_volume   340.53771163
_cell_formula_units_Z   1
loop_
 _symmetry_equiv_pos_site_id
 _symmetry_equiv_pos_as_xyz
  1  'x, y, z'
loop_
 _atom_site_type_symbol
 _atom_site_label
 _atom_site_symmetry_multiplicity
 _atom_site_fract_x
 _atom_site_fract_y
 _atom_site_fract_z
 _atom_site_occupancy
  Mg  Mg0  1  0.16761549  0.33380724  0.62500000  1
  Mg  Mg1  1  0.17021281  0.83510590  0.62500000  1
  Mg  Mg2  1  0.67314498  0.33832489  0.12500000  1
  Mg  Mg3  1  0.66509886  0.33047948  0.62500000  1
  Mg  Mg4  1  0.67314498  0.83481909  0.12500000  1
  Mg  Mg5  1  0.66509886  0.83461838  0.62500000  1
  Mg  Mg6  1  0.32593475  0.17185352  0.36016838  1
  Mg  Mg7  1  0.32593475  0.17185352  0.88983162  1
  Mg  Mg8  1  0.32593475  0.65408223  0.36016838  1
  Mg  Mg9  1  0.32593475  0.65408223  0.88983162  1
  Mg  Mg10  1  0.84481869  0.17240985  0.36526349  1
  Mg  Mg11  1  0.84481869  0.17240985  0.88473651  1
  Mg  Mg12  1  0.83331230  0.66665665  0.37728090  1
  Mg  Mg13  1  0.83331230  0.66665665  0.87271910  1
  Cd  Cd0  1  0.16108190  0.83054045  0.12500000  1
  Ni  Ni0  1  0.16460115  0.33230007  0.12500000  1
loop_
_geom_bond_atom_site_label_1
_geom_bond_atom_site_label_2
_geom_bond_distance
_geom_bond_site_symmetry_2
Mg0 Mg11 3.112384 1_455
Mg0 Mg10 3.112384 1_455
Mg0 Mg5 3.146137 1_555
Mg0 Mg3 3.146138 1_555
Mg0 Mg6 3.148874 1_555
Mg0 Mg7 3.148874 1_555
Mg0 Mg9 3.148880 1_555
Mg0 Mg8 3.148880 1_555
Mg0 Mg5 3.156780 1_445
Mg0 Mg3 3.156780 1_455
Mg0 Mg1 3.159424 1_555
Mg0 Mg1 3.159424 1_545
Mg1 Mg13 3.060749 1_455
Mg1 Mg12 3.060749 1_455
Mg1 Mg3 3.120719 1_565
Mg1 Mg5 3.120719 1_555
Mg1 Mg3 3.182095 1_455
Mg1 Mg5 3.182096 1_455
Mg1 Mg8 3.200926 1_555
Mg1 Mg9 3.200926 1_555
Mg1 Mg6 3.200932 1_565
Mg1 Mg7 3.200932 1_565
Mg2 Mg7 2.998030 1_554
Mg2 Mg6 2.998030 1_555
Mg2 Ni0 3.116813 1_655
Mg2 Mg4 3.137240 1_555
Mg2 Mg4 3.181545 1_545
Mg2 Ni0 3.186344 1_555
Mg3 Mg5 3.133240 1_545
Mg3 Mg5 3.185545 1_555
Mg3 Mg6 3.205461 1_555
Mg3 Mg7 3.205461 1_555
Mg4 Mg9 2.998030 1_554
Mg4 Mg8 2.998030 1_555
Mg4 Ni0 3.116813 1_665
Mg4 Ni0 3.186344 1_555
Mg5 Mg8 3.205460 1_555
Mg5 Mg9 3.205460 1_555
Mg6 Ni0 2.914751 1_555
Mg6 Mg8 3.047100 1_555
Mg6 Mg8 3.271685 1_545
Mg7 Ni0 2.914751 1_556
Mg7 Mg9 3.047100 1_555
Mg7 Mg9 3.271685 1_545
Mg8 Ni0 2.914758 1_555
Mg9 Ni0 2.914758 1_556
Mg10 Ni0 2.945940 1_655
Mg10 Mg2 3.007339 1_555
Mg10 Mg4 3.007345 1_545
Mg10 Mg8 3.034566 1_655
Mg10 Mg6 3.034566 1_655
Mg10 Mg12 3.162246 1_555
Mg10 Mg12 3.162246 1_545
Mg10 Mg3 3.162702 1_555
Mg10 Mg5 3.162709 1_545
Mg10 Mg8 3.269055 1_545
Mg10 Mg6 3.269055 1_555
Mg11 Ni0 2.945940 1_656
Mg11 Mg2 3.007339 1_556
Mg11 Mg4 3.007345 1_546
Mg11 Mg9 3.034566 1_655
Mg11 Mg7 3.034566 1_655
Mg11 Mg13 3.162246 1_555
Mg11 Mg13 3.162246 1_545
Mg11 Mg3 3.162702 1_555
Mg11 Mg5 3.162709 1_545
Mg11 Mg9 3.269055 1_545
Mg11 Mg7 3.269055 1_555
Mg12 Mg5 3.061167 1_555
Mg12 Mg3 3.061173 1_555
Mg12 Mg4 3.072218 1_555
Mg12 Mg2 3.072225 1_555
Mg12 Mg6 3.150029 1_665
Mg12 Mg8 3.150029 1_655
Mg12 Mg6 3.163349 1_555
Mg12 Mg8 3.163349 1_555
Mg13 Mg5 3.061167 1_555
Mg13 Mg3 3.061173 1_555
Mg13 Mg4 3.072218 1_556
Mg13 Mg2 3.072225 1_556
Mg13 Mg7 3.150029 1_665
Mg13 Mg9 3.150029 1_655
Mg13 Mg7 3.163349 1_555
Mg13 Mg9 3.163349 1_555
Cd0 Mg9 2.980720 1_554
Cd0 Mg8 2.980720 1_555
Cd0 Mg7 2.980727 1_564
Cd0 Mg6 2.980727 1_565
Cd0 Mg12 3.067637 1_455
Cd0 Mg13 3.067637 1_454
Cd0 Mg2 3.089016 1_455
Cd0 Mg4 3.089016 1_455
Cd0 Ni0 3.159451 1_565
Cd0 Ni0 3.159451 1_555
Cd0 Mg2 3.213971 1_565
Cd0 Mg4 3.213971 1_555
