# generated using pymatgen
data_TbAlPt
_symmetry_space_group_name_H-M   'P 1'
_cell_length_a   4.40874134
_cell_length_b   6.93698714
_cell_length_c   7.71399821
_cell_angle_alpha   90.00000000
_cell_angle_beta   90.00000000
_cell_angle_gamma   90.00000000
_symmetry_Int_Tables_number   1
_chemical_formula_structural   TbAlPt
_chemical_formula_sum   'Tb4 Al4 Pt4'
_cell_volume   235.92015384
_cell_formula_units_Z   4
loop_
 _symmetry_equiv_pos_site_id
 _symmetry_equiv_pos_as_xyz
  1  'x, y, z'
loop_
 _atom_site_type_symbol
 _atom_site_label
 _atom_site_symmetry_multiplicity
 _atom_site_fract_x
 _atom_site_fract_y
 _atom_site_fract_z
 _atom_site_occupancy
  Tb  Tb0  1  0.75000000  0.47198619  0.81787038  1
  Tb  Tb1  1  0.75000000  0.97198619  0.68212962  1
  Tb  Tb2  1  0.25000000  0.52801381  0.18212962  1
  Tb  Tb3  1  0.25000000  0.02801381  0.31787038  1
  Al  Al0  1  0.75000000  0.35547959  0.43469451  1
  Al  Al1  1  0.75000000  0.85547959  0.06530549  1
  Al  Al2  1  0.25000000  0.64452041  0.56530549  1
  Al  Al3  1  0.25000000  0.14452041  0.93469451  1
  Pt  Pt0  1  0.75000000  0.22522152  0.11485540  1
  Pt  Pt1  1  0.75000000  0.72522152  0.38514460  1
  Pt  Pt2  1  0.25000000  0.77477848  0.88514560  1
  Pt  Pt3  1  0.25000000  0.27477848  0.61485440  1
loop_
_geom_bond_atom_site_label_1
_geom_bond_atom_site_label_2
_geom_bond_distance
_geom_bond_site_symmetry_2
Tb0 Tb2 3.592467 1_556
Tb0 Tb2 3.592467 1_656
Tb0 Tb1 3.623103 1_555
Tb0 Tb1 3.623103 1_545
Tb1 Tb3 3.592467 1_665
Tb1 Tb3 3.592467 1_565
Tb2 Tb3 3.623103 1_565
Tb2 Tb3 3.623103 1_555
Al0 Pt1 2.593219 1_555
Al0 Pt0 2.627500 1_555
Al0 Pt3 2.665345 1_555
Al0 Pt3 2.665345 1_655
Al0 Tb0 3.064320 1_555
Al0 Tb2 3.176091 1_555
Al0 Tb2 3.176091 1_655
Al0 Tb1 3.274191 1_545
Al0 Tb3 3.291149 1_555
Al0 Tb3 3.291149 1_655
Al1 Pt0 2.593219 1_565
Al1 Pt1 2.627500 1_555
Al1 Pt2 2.665345 1_554
Al1 Pt2 2.665345 1_654
Al1 Tb1 3.064320 1_554
Al1 Tb3 3.176091 1_565
Al1 Tb3 3.176091 1_665
Al1 Tb0 3.274191 1_554
Al1 Tb2 3.291149 1_555
Al1 Tb2 3.291149 1_655
Al2 Pt3 2.593218 1_555
Al2 Pt2 2.627507 1_555
Al2 Pt1 2.665349 1_555
Al2 Pt1 2.665349 1_455
Al2 Tb2 3.064320 1_555
Al2 Tb0 3.176091 1_555
Al2 Tb0 3.176091 1_455
Al2 Tb3 3.274191 1_565
Al2 Tb1 3.291149 1_455
Al2 Tb1 3.291149 1_555
Al3 Pt2 2.593218 1_545
Al3 Pt3 2.627507 1_555
Al3 Pt0 2.665349 1_556
Al3 Pt0 2.665349 1_456
Al3 Tb3 3.064320 1_556
Al3 Tb1 3.176091 1_445
Al3 Tb1 3.176091 1_545
Al3 Tb2 3.274191 1_556
Al3 Tb0 3.291149 1_555
Al3 Tb0 3.291149 1_455
Pt0 Tb0 2.859840 1_554
Pt0 Tb3 3.030393 1_555
Pt0 Tb3 3.030393 1_655
Pt0 Tb2 3.088773 1_555
Pt0 Tb2 3.088773 1_655
Pt1 Tb1 2.859840 1_555
Pt1 Tb2 3.030393 1_555
Pt1 Tb2 3.030393 1_655
Pt1 Tb3 3.088773 1_565
Pt1 Tb3 3.088773 1_665
Pt2 Tb2 2.859834 1_556
Pt2 Tb1 3.030397 1_455
Pt2 Tb1 3.030397 1_555
Pt2 Tb0 3.088775 1_555
Pt2 Tb0 3.088775 1_455
Pt3 Tb3 2.859834 1_555
Pt3 Tb0 3.030397 1_455
Pt3 Tb0 3.030397 1_555
Pt3 Tb1 3.088775 1_545
Pt3 Tb1 3.088775 1_445
