# generated using pymatgen
data_Dy2ZnTe2(SO7)2
_symmetry_space_group_name_H-M   'P 1'
_cell_length_a   5.28855200
_cell_length_b   7.92075267
_cell_length_c   8.18623360
_cell_angle_alpha   116.10062477
_cell_angle_beta   106.55184201
_cell_angle_gamma   85.36764641
_symmetry_Int_Tables_number   1
_chemical_formula_structural   Dy2ZnTe2(SO7)2
_chemical_formula_sum   'Dy2 Zn1 Te2 S2 O14'
_cell_volume   294.78957233
_cell_formula_units_Z   1
loop_
 _symmetry_equiv_pos_site_id
 _symmetry_equiv_pos_as_xyz
  1  'x, y, z'
loop_
 _atom_site_type_symbol
 _atom_site_label
 _atom_site_symmetry_multiplicity
 _atom_site_fract_x
 _atom_site_fract_y
 _atom_site_fract_z
 _atom_site_occupancy
  Dy  Dy0  1  0.08136100  0.25324300  0.98460000  1
  Dy  Dy1  1  0.91863900  0.74675700  0.01540000  1
  Zn  Zn0  1  0.00000000  0.00000000  0.50000000  1
  Te  Te0  1  0.51584300  0.27290600  0.66269900  1
  Te  Te1  1  0.48415700  0.72709400  0.33730100  1
  S  S0  1  0.76085100  0.24615300  0.24974800  1
  S  S1  1  0.23914900  0.75384700  0.75025200  1
  O  O0  1  0.88974500  0.40798400  0.25236200  1
  O  O1  1  0.11025500  0.59201600  0.74763800  1
  O  O2  1  0.86926200  0.23046000  0.42993400  1
  O  O3  1  0.13073800  0.76954000  0.57006600  1
  O  O4  1  0.47154100  0.26807900  0.21730200  1
  O  O5  1  0.52845900  0.73192100  0.78269800  1
  O  O6  1  0.82210800  0.07627100  0.08781200  1
  O  O7  1  0.17789200  0.92372900  0.91218800  1
  O  O8  1  0.75180400  0.43963100  0.89554600  1
  O  O9  1  0.24819600  0.56036900  0.10445400  1
  O  O10  1  0.27505300  0.19492800  0.75238400  1
  O  O11  1  0.72494700  0.80507200  0.24761600  1
  O  O12  1  0.75106900  0.07669900  0.66796100  1
  O  O13  1  0.24893100  0.92330100  0.33203900  1
loop_
_geom_bond_atom_site_label_1
_geom_bond_atom_site_label_2
_geom_bond_distance
_geom_bond_site_symmetry_2
Dy0 O10 2.266452 1_555
Dy0 O9 2.326438 1_556
Dy0 O4 2.345884 1_556
Dy0 O8 2.357141 1_455
Dy0 O7 2.453562 1_545
Dy0 O0 2.456606 1_456
Dy0 O12 2.520106 1_455
Dy0 O6 2.563441 1_456
Dy1 O11 2.266452 1_555
Dy1 O8 2.326438 1_554
Dy1 O5 2.345884 1_554
Dy1 O9 2.357141 1_655
Dy1 O6 2.453562 1_565
Dy1 O1 2.456606 1_654
Dy1 O13 2.520106 1_655
Dy1 O7 2.563441 1_654
O0 S0 1.488919 1_555
O1 S1 1.488919 1_555
O2 S0 1.479152 1_555
O2 Zn0 2.151892 1_655
O3 S1 1.479152 1_555
O3 Zn0 2.151892 1_565
O4 S0 1.485875 1_555
O5 S1 1.485875 1_555
O6 S0 1.509186 1_555
O7 S1 1.509186 1_555
O8 Te0 1.905403 1_555
O9 Te1 1.905403 1_555
O10 Te0 1.897596 1_555
O10 Zn0 2.147566 1_555
O11 Te1 1.897596 1_555
O11 Zn0 2.147566 1_665
O12 Te0 1.918528 1_555
O12 Zn0 2.039587 1_655
O13 Te1 1.918528 1_555
O13 Zn0 2.039587 1_565
