# generated using pymatgen
data_Dy2FeSi2
_symmetry_space_group_name_H-M   'P 1'
_cell_length_a   5.64348872
_cell_length_b   5.64348872
_cell_length_c   9.98260158
_cell_angle_alpha   62.94281937
_cell_angle_beta   62.94281937
_cell_angle_gamma   43.02764010
_symmetry_Int_Tables_number   1
_chemical_formula_structural   Dy2FeSi2
_chemical_formula_sum   'Dy4 Fe2 Si4'
_cell_volume   189.24315877
_cell_formula_units_Z   2
loop_
 _symmetry_equiv_pos_site_id
 _symmetry_equiv_pos_as_xyz
  1  'x, y, z'
loop_
 _atom_site_type_symbol
 _atom_site_label
 _atom_site_symmetry_multiplicity
 _atom_site_fract_x
 _atom_site_fract_y
 _atom_site_fract_z
 _atom_site_occupancy
  Dy  Dy0  1  0.99915000  0.99915000  0.32851200  1
  Dy  Dy1  1  0.00085000  0.00085000  0.67148800  1
  Dy  Dy2  1  0.81154800  0.81154800  0.10935400  1
  Dy  Dy3  1  0.18845200  0.18845200  0.89064600  1
  Fe  Fe0  1  0.72798000  0.72798000  0.62308600  1
  Fe  Fe1  1  0.27202000  0.27202000  0.37691400  1
  Si  Si0  1  0.65520100  0.65520100  0.43569000  1
  Si  Si1  1  0.34479900  0.34479900  0.56431000  1
  Si  Si2  1  0.50079700  0.50079700  0.12604100  1
  Si  Si3  1  0.49920300  0.49920300  0.87395900  1
loop_
_geom_bond_atom_site_label_1
_geom_bond_atom_site_label_2
_geom_bond_distance
_geom_bond_site_symmetry_2
Dy0 Si2 2.886972 1_655
Dy0 Si2 2.886972 1_565
Dy0 Fe0 2.926955 1_555
Dy0 Si1 2.952998 1_655
Dy0 Si1 2.952998 1_565
Dy0 Fe1 3.012987 1_655
Dy0 Fe1 3.012987 1_565
Dy0 Fe1 3.130055 1_665
Dy0 Si0 3.134892 1_655
Dy0 Si0 3.134892 1_565
Dy0 Si0 3.226477 1_555
Dy1 Si3 2.886972 1_545
Dy1 Si3 2.886972 1_455
Dy1 Fe1 2.926955 1_555
Dy1 Si0 2.952998 1_455
Dy1 Si0 2.952998 1_545
Dy1 Fe0 3.012987 1_545
Dy1 Fe0 3.012987 1_455
Dy1 Fe0 3.130055 1_445
Dy1 Si1 3.134892 1_545
Dy1 Si1 3.134892 1_455
Dy1 Si1 3.226477 1_555
Dy2 Si0 2.842145 1_555
Dy2 Si2 2.929818 1_565
Dy2 Si2 2.929818 1_655
Dy2 Si3 3.026542 1_564
Dy2 Si3 3.026542 1_654
Dy2 Si2 3.184941 1_555
Dy2 Fe1 3.241205 1_655
Dy2 Fe1 3.241205 1_565
Dy3 Si1 2.842145 1_555
Dy3 Si3 2.929818 1_545
Dy3 Si3 2.929818 1_455
Dy3 Si2 3.026542 1_456
Dy3 Si2 3.026542 1_546
Dy3 Si3 3.184941 1_555
Dy3 Fe0 3.241205 1_545
Dy3 Fe0 3.241205 1_455
Fe0 Si1 2.329904 1_655
Fe0 Si1 2.329904 1_565
Fe0 Si0 2.341277 1_555
Fe0 Si3 2.481868 1_555
Fe1 Si0 2.329904 1_545
Fe1 Si0 2.329904 1_455
Fe1 Si1 2.341277 1_555
Fe1 Si2 2.481868 1_555
Si0 Si1 2.860048 1_555
Si2 Si3 2.524660 1_554
