# generated using pymatgen
data_NaNi3O5
_symmetry_space_group_name_H-M   'P 1'
_cell_length_a   2.91105800
_cell_length_b   8.45991900
_cell_length_c   15.24468200
_cell_angle_alpha   90.00000000
_cell_angle_beta   90.00000000
_cell_angle_gamma   90.00000000
_symmetry_Int_Tables_number   1
_chemical_formula_structural   NaNi3O5
_chemical_formula_sum   'Na4 Ni12 O20'
_cell_volume   375.43558393
_cell_formula_units_Z   4
loop_
 _symmetry_equiv_pos_site_id
 _symmetry_equiv_pos_as_xyz
  1  'x, y, z'
loop_
 _atom_site_type_symbol
 _atom_site_label
 _atom_site_symmetry_multiplicity
 _atom_site_fract_x
 _atom_site_fract_y
 _atom_site_fract_z
 _atom_site_occupancy
  Na  Na0  1  0.75000000  0.04502400  0.63595900  1
  Na  Na1  1  0.25000000  0.45497600  0.13595900  1
  Na  Na2  1  0.75000000  0.54502400  0.86404100  1
  Na  Na3  1  0.25000000  0.95497600  0.36404100  1
  Ni  Ni0  1  0.75000000  0.09911500  0.14783300  1
  Ni  Ni1  1  0.25000000  0.16412100  0.98630800  1
  Ni  Ni2  1  0.75000000  0.19364200  0.81804800  1
  Ni  Ni3  1  0.25000000  0.30635800  0.31804800  1
  Ni  Ni4  1  0.75000000  0.33587900  0.48630800  1
  Ni  Ni5  1  0.25000000  0.40088500  0.64783300  1
  Ni  Ni6  1  0.75000000  0.59911500  0.35216700  1
  Ni  Ni7  1  0.25000000  0.66412100  0.51369200  1
  Ni  Ni8  1  0.75000000  0.69364200  0.68195200  1
  Ni  Ni9  1  0.25000000  0.80635800  0.18195200  1
  Ni  Ni10  1  0.75000000  0.83587900  0.01369200  1
  Ni  Ni11  1  0.25000000  0.90088500  0.85216700  1
  O  O0  1  0.75000000  0.02172400  0.91891500  1
  O  O1  1  0.25000000  0.07057100  0.77089000  1
  O  O2  1  0.25000000  0.19405900  0.20717000  1
  O  O3  1  0.75000000  0.25663900  0.05782500  1
  O  O4  1  0.75000000  0.19957800  0.37738800  1
  O  O5  1  0.25000000  0.30042200  0.87738800  1
  O  O6  1  0.25000000  0.24336100  0.55782500  1
  O  O7  1  0.75000000  0.30594100  0.70717000  1
  O  O8  1  0.75000000  0.42942900  0.27089000  1
  O  O9  1  0.25000000  0.47827600  0.41891500  1
  O  O10  1  0.75000000  0.52172400  0.58108500  1
  O  O11  1  0.25000000  0.57057100  0.72911000  1
  O  O12  1  0.25000000  0.69405900  0.29283000  1
  O  O13  1  0.75000000  0.75663900  0.44217500  1
  O  O14  1  0.75000000  0.69957800  0.12261200  1
  O  O15  1  0.25000000  0.80042200  0.62261200  1
  O  O16  1  0.25000000  0.74336100  0.94217500  1
  O  O17  1  0.75000000  0.80594100  0.79283000  1
  O  O18  1  0.75000000  0.92942900  0.22911000  1
  O  O19  1  0.25000000  0.97827600  0.08108500  1
loop_
_geom_bond_atom_site_label_1
_geom_bond_atom_site_label_2
_geom_bond_distance
_geom_bond_site_symmetry_2
Na0 O7 2.459845 1_555
Na0 O6 2.520466 1_555
Na0 O6 2.520466 1_655
Na0 O1 2.529119 1_655
Na0 O1 2.529119 1_555
Na0 O15 2.538114 1_545
Na0 O15 2.538114 1_645
Na1 O2 2.459845 1_555
Na1 O3 2.520466 1_455
Na1 O3 2.520466 1_555
Na1 O8 2.529119 1_555
Na1 O8 2.529119 1_455
Na1 O14 2.538114 1_455
Na1 O14 2.538114 1_555
Na2 O17 2.459845 1_555
Na2 O16 2.520466 1_555
Na2 O16 2.520466 1_655
Na2 O11 2.529119 1_555
Na2 O11 2.529119 1_655
Na2 O5 2.538114 1_555
Na2 O5 2.538114 1_655
Na3 O12 2.459845 1_555
Na3 O13 2.520466 1_455
Na3 O13 2.520466 1_555
Na3 O18 2.529119 1_455
Na3 O18 2.529119 1_555
Na3 O4 2.538114 1_565
Na3 O4 2.538114 1_465
Ni0 O2 1.892611 1_655
Ni0 O2 1.892611 1_555
Ni0 O18 1.896305 1_545
Ni0 O3 1.912775 1_555
Ni0 O19 2.049158 1_645
Ni0 O19 2.049158 1_545
Ni1 O3 1.979856 1_456
Ni1 O3 1.979856 1_556
Ni1 O5 2.021565 1_555
Ni1 O19 2.135298 1_546
Ni1 O0 2.150653 1_455
Ni1 O0 2.150653 1_555
Ni2 O1 1.928583 1_655
Ni2 O1 1.928583 1_555
Ni2 O5 1.937251 1_655
Ni2 O5 1.937251 1_555
Ni2 O7 1.938992 1_555
Ni2 O0 2.116552 1_555
Ni3 O8 1.928583 1_555
Ni3 O8 1.928583 1_455
Ni3 O4 1.937251 1_555
Ni3 O4 1.937251 1_455
Ni3 O2 1.938992 1_555
Ni3 O9 2.116552 1_555
Ni4 O6 1.979856 1_555
Ni4 O6 1.979856 1_655
Ni4 O4 2.021565 1_555
Ni4 O10 2.135298 1_555
Ni4 O9 2.150653 1_555
Ni4 O9 2.150653 1_655
Ni5 O7 1.892611 1_555
Ni5 O7 1.892611 1_455
Ni5 O11 1.896305 1_555
Ni5 O6 1.912775 1_555
Ni5 O10 2.049158 1_455
Ni5 O10 2.049158 1_555
Ni6 O12 1.892611 1_655
Ni6 O12 1.892611 1_555
Ni6 O8 1.896305 1_555
Ni6 O13 1.912775 1_555
Ni6 O9 2.049158 1_655
Ni6 O9 2.049158 1_555
Ni7 O13 1.979856 1_455
Ni7 O13 1.979856 1_555
Ni7 O15 2.021565 1_555
Ni7 O9 2.135298 1_555
Ni7 O10 2.150653 1_555
Ni7 O10 2.150653 1_455
Ni8 O11 1.928583 1_655
Ni8 O11 1.928583 1_555
Ni8 O15 1.937251 1_555
Ni8 O15 1.937251 1_655
Ni8 O17 1.938992 1_555
Ni8 O10 2.116552 1_555
Ni9 O18 1.928583 1_455
Ni9 O18 1.928583 1_555
Ni9 O14 1.937251 1_455
Ni9 O14 1.937251 1_555
Ni9 O12 1.938992 1_555
Ni9 O19 2.116552 1_555
Ni10 O16 1.979856 1_654
Ni10 O16 1.979856 1_554
Ni10 O14 2.021565 1_555
Ni10 O0 2.135298 1_564
Ni10 O19 2.150653 1_555
Ni10 O19 2.150653 1_655
Ni11 O17 1.892611 1_455
Ni11 O17 1.892611 1_555
Ni11 O1 1.896305 1_565
Ni11 O16 1.912775 1_555
Ni11 O0 2.049158 1_565
Ni11 O0 2.049158 1_465
