# generated using pymatgen
data_CaLaGa3O7
_symmetry_space_group_name_H-M   'P 1'
_cell_length_a   8.02792103
_cell_length_b   8.02792103
_cell_length_c   5.31461400
_cell_angle_alpha   90.00000000
_cell_angle_beta   90.00000000
_cell_angle_gamma   91.06334774
_symmetry_Int_Tables_number   1
_chemical_formula_structural   CaLaGa3O7
_chemical_formula_sum   'Ca2 La2 Ga6 O14'
_cell_volume   342.45468629
_cell_formula_units_Z   2
loop_
 _symmetry_equiv_pos_site_id
 _symmetry_equiv_pos_as_xyz
  1  'x, y, z'
loop_
 _atom_site_type_symbol
 _atom_site_label
 _atom_site_symmetry_multiplicity
 _atom_site_fract_x
 _atom_site_fract_y
 _atom_site_fract_z
 _atom_site_occupancy
  Ca  Ca0  1  0.65980800  0.65980800  0.48558500  1
  Ca  Ca1  1  0.34019200  0.34019200  0.48558500  1
  La  La0  1  0.83552600  0.16447400  0.50741500  1
  La  La1  1  0.16447400  0.83552600  0.50741500  1
  Ga  Ga0  1  0.50000000  0.00000000  0.00509100  1
  Ga  Ga1  1  0.00000000  0.50000000  0.00509100  1
  Ga  Ga2  1  0.85209900  0.85209900  0.03392600  1
  Ga  Ga3  1  0.64081300  0.35918700  0.96436400  1
  Ga  Ga4  1  0.14790100  0.14790100  0.03392600  1
  Ga  Ga5  1  0.35918700  0.64081300  0.96436400  1
  O  O0  1  0.66117200  0.91139600  0.21299200  1
  O  O1  1  0.84061500  0.40771100  0.79158400  1
  O  O2  1  0.33882800  0.08860400  0.21299200  1
  O  O3  1  0.15938500  0.59228800  0.79158400  1
  O  O4  1  0.40771100  0.84061500  0.79158400  1
  O  O5  1  0.08860400  0.33882800  0.21299200  1
  O  O6  1  0.59228800  0.15938500  0.79158400  1
  O  O7  1  0.91139600  0.66117200  0.21299200  1
  O  O8  1  0.50000000  0.50000000  0.79605200  1
  O  O9  1  0.00000000  0.00000000  0.19716600  1
  O  O10  1  0.86193400  0.86193400  0.69200800  1
  O  O11  1  0.64284000  0.35716000  0.30585000  1
  O  O12  1  0.13806600  0.13806600  0.69200800  1
  O  O13  1  0.35716000  0.64284000  0.30585000  1
loop_
_geom_bond_atom_site_label_1
_geom_bond_atom_site_label_2
_geom_bond_distance
_geom_bond_site_symmetry_2
Ca0 O8 2.439928 1_555
Ca0 O7 2.485440 1_555
Ca0 O0 2.485440 1_555
Ca0 O10 2.524244 1_555
Ca0 O11 2.611866 1_555
Ca0 O13 2.611866 1_555
Ca0 O4 2.992735 1_555
Ca0 O1 2.992735 1_555
Ca1 O8 2.439928 1_555
Ca1 O2 2.485440 1_555
Ca1 O5 2.485440 1_555
Ca1 O12 2.524244 1_555
Ca1 O13 2.611866 1_555
Ca1 O11 2.611866 1_555
Ca1 O6 2.992730 1_555
Ca1 O3 2.992730 1_555
La0 O11 2.453970 1_555
La0 O1 2.468309 1_555
La0 O6 2.468315 1_555
La0 O9 2.504048 1_655
La0 O10 2.631617 1_545
La0 O12 2.631617 1_655
La0 O0 2.903412 1_545
La0 O5 2.903412 1_655
La1 O13 2.453970 1_555
La1 O4 2.468309 1_555
La1 O3 2.468315 1_555
La1 O9 2.504048 1_565
La1 O10 2.631617 1_455
La1 O12 2.631617 1_565
La1 O7 2.903412 1_455
La1 O2 2.903412 1_565
Ga0 O0 1.853393 1_545
Ga0 O2 1.853393 1_555
Ga0 O6 1.854313 1_554
Ga0 O4 1.854316 1_544
Ga1 O7 1.853393 1_455
Ga1 O5 1.853393 1_555
Ga1 O3 1.854313 1_554
Ga1 O1 1.854316 1_454
Ga2 O10 1.820526 1_554
Ga2 O7 1.873144 1_555
Ga2 O0 1.873144 1_555
Ga2 O9 1.876132 1_665
Ga3 O11 1.815015 1_556
Ga3 O8 1.844818 1_555
Ga3 O1 1.882699 1_555
Ga3 O6 1.882700 1_555
Ga4 O12 1.820526 1_554
Ga4 O2 1.873144 1_555
Ga4 O5 1.873144 1_555
Ga4 O9 1.876132 1_555
Ga5 O13 1.815015 1_556
Ga5 O8 1.844818 1_555
Ga5 O4 1.882699 1_555
Ga5 O3 1.882700 1_555
