# generated using pymatgen
data_YbCrO4
_symmetry_space_group_name_H-M   'P 1'
_cell_length_a   5.99130889
_cell_length_b   5.99130889
_cell_length_c   5.99130889
_cell_angle_alpha   105.59111656
_cell_angle_beta   105.59111656
_cell_angle_gamma   117.54589857
_symmetry_Int_Tables_number   1
_chemical_formula_structural   YbCrO4
_chemical_formula_sum   'Yb2 Cr2 O8'
_cell_volume   163.05706789
_cell_formula_units_Z   2
loop_
 _symmetry_equiv_pos_site_id
 _symmetry_equiv_pos_as_xyz
  1  'x, y, z'
loop_
 _atom_site_type_symbol
 _atom_site_label
 _atom_site_symmetry_multiplicity
 _atom_site_fract_x
 _atom_site_fract_y
 _atom_site_fract_z
 _atom_site_occupancy
  Yb  Yb0  1  0.00000000  0.00000000  0.00000000  1
  Yb  Yb1  1  0.25000000  0.75000000  0.50000000  1
  Cr  Cr0  1  0.75000000  0.25000000  0.50000000  1
  Cr  Cr1  1  0.50000000  0.50000000  0.00000000  1
  O  O0  1  0.33520300  0.51624500  0.18104200  1
  O  O1  1  0.40416100  0.08520300  0.31895800  1
  O  O2  1  0.76624500  0.08520300  0.68104200  1
  O  O3  1  0.33520300  0.15416100  0.81895800  1
  O  O4  1  0.84583900  0.66479700  0.18104200  1
  O  O5  1  0.91479700  0.23375500  0.31895800  1
  O  O6  1  0.91479700  0.59583900  0.68104200  1
  O  O7  1  0.48375500  0.66479700  0.81895800  1
loop_
_geom_bond_atom_site_label_1
_geom_bond_atom_site_label_2
_geom_bond_distance
_geom_bond_site_symmetry_2
Cr0 O5 1.663934 1_555
Cr0 O2 1.663934 1_555
Cr0 O6 1.663934 1_555
Cr0 O1 1.663934 1_555
Cr1 O0 1.663934 1_555
Cr1 O4 1.663934 1_555
Cr1 O7 1.663934 1_554
Cr1 O3 1.663934 1_554
O0 Yb1 2.370823 1_555
O0 Yb0 2.461044 1_555
O1 Yb0 2.370823 1_555
O1 Yb1 2.461044 1_545
O2 Yb0 2.370823 1_656
O2 Yb1 2.461044 1_545
O3 Yb1 2.370823 1_545
O3 Yb0 2.461044 1_556
O4 Yb1 2.370823 1_655
O4 Yb0 2.461044 1_665
O5 Yb0 2.370823 1_655
O5 Yb1 2.461044 1_655
O6 Yb0 2.370823 1_666
O6 Yb1 2.461044 1_655
O7 Yb1 2.370823 1_555
O7 Yb0 2.461044 1_666
