# generated using pymatgen
data_NaFe9H18(S3O22)2
_symmetry_space_group_name_H-M   'P 1'
_cell_length_a   12.04003650
_cell_length_b   12.04003650
_cell_length_c   10.29066217
_cell_angle_alpha   69.05945457
_cell_angle_beta   69.05945457
_cell_angle_gamma   35.82743669
_symmetry_Int_Tables_number   1
_chemical_formula_structural   NaFe9H18(S3O22)2
_chemical_formula_sum   'Na1 Fe9 H18 S6 O44'
_cell_volume   809.25903052
_cell_formula_units_Z   1
loop_
 _symmetry_equiv_pos_site_id
 _symmetry_equiv_pos_as_xyz
  1  'x, y, z'
loop_
 _atom_site_type_symbol
 _atom_site_label
 _atom_site_symmetry_multiplicity
 _atom_site_fract_x
 _atom_site_fract_y
 _atom_site_fract_z
 _atom_site_occupancy
  Na  Na0  1  0.00000000  0.00000000  0.00000000  1
  Fe  Fe0  1  0.00000000  0.50000000  0.50000000  1
  Fe  Fe1  1  0.66439900  0.16944500  0.82930900  1
  Fe  Fe2  1  0.33560100  0.83055500  0.17069100  1
  Fe  Fe3  1  0.83515600  0.83515600  0.15704600  1
  Fe  Fe4  1  0.50000000  0.50000000  0.50000000  1
  Fe  Fe5  1  0.16484400  0.16484400  0.84295400  1
  Fe  Fe6  1  0.83055500  0.33560100  0.17069100  1
  Fe  Fe7  1  0.50000000  0.00000000  0.50000000  1
  Fe  Fe8  1  0.16944500  0.66439900  0.82930900  1
  H  H0  1  0.85203300  0.27345200  0.42869200  1
  H  H1  1  0.52255900  0.94837700  0.76115700  1
  H  H2  1  0.19120300  0.59882000  0.09123100  1
  H  H3  1  0.99103100  0.99103100  0.70250800  1
  H  H4  1  0.66021900  0.66021900  0.04279500  1
  H  H5  1  0.32814800  0.32814800  0.36924800  1
  H  H6  1  0.27345200  0.85203300  0.42869200  1
  H  H7  1  0.94837700  0.52255900  0.76115700  1
  H  H8  1  0.59882000  0.19120400  0.09123100  1
  H  H9  1  0.14796700  0.72654800  0.57130800  1
  H  H10  1  0.80879700  0.40118000  0.90876900  1
  H  H11  1  0.47744100  0.05162300  0.23884300  1
  H  H12  1  0.00896900  0.00896900  0.29749200  1
  H  H13  1  0.67185200  0.67185200  0.63075200  1
  H  H14  1  0.33978100  0.33978100  0.95720500  1
  H  H15  1  0.72654800  0.14796700  0.57130800  1
  H  H16  1  0.40118000  0.80879700  0.90876900  1
  H  H17  1  0.05162300  0.47744100  0.23884300  1
  S  S0  1  0.12655100  0.12655100  0.56934300  1
  S  S1  1  0.79443700  0.79443700  0.89201200  1
  S  S2  1  0.45966500  0.45966500  0.22875800  1
  S  S3  1  0.87344900  0.87344900  0.43065700  1
  S  S4  1  0.54033500  0.54033500  0.77124200  1
  S  S5  1  0.20556300  0.20556300  0.10798800  1
  O  O0  1  0.06919600  0.06919600  0.53822400  1
  O  O1  1  0.73563900  0.73563900  0.86401100  1
  O  O2  1  0.40085500  0.40085500  0.20015000  1
  O  O3  1  0.93080400  0.93080400  0.46177600  1
  O  O4  1  0.59914500  0.59914500  0.79985000  1
  O  O5  1  0.26436100  0.26436100  0.13598900  1
  O  O6  1  0.74708000  0.35918800  0.37338900  1
  O  O7  1  0.41291700  0.03709700  0.70885100  1
  O  O8  1  0.08082100  0.70134700  0.03736400  1
  O  O9  1  0.95330300  0.95330300  0.78974400  1
  O  O10  1  0.61822400  0.61822400  0.11777500  1
  O  O11  1  0.28566800  0.28566800  0.44471700  1
  O  O12  1  0.35918800  0.74708000  0.37338900  1
  O  O13  1  0.03709700  0.41291700  0.70885100  1
  O  O14  1  0.70134700  0.08082100  0.03736400  1
  O  O15  1  0.25292000  0.64081200  0.62661100  1
  O  O16  1  0.91917900  0.29865300  0.96263600  1
  O  O17  1  0.58708300  0.96290300  0.29114900  1
  O  O18  1  0.04669700  0.04669700  0.21025600  1
  O  O19  1  0.71433200  0.71433200  0.55528300  1
  O  O20  1  0.38177600  0.38177600  0.88222500  1
  O  O21  1  0.64081200  0.25292000  0.62661100  1
  O  O22  1  0.29865300  0.91917900  0.96263600  1
  O  O23  1  0.96290300  0.58708300  0.29114900  1
  O  O24  1  0.99969200  0.32969800  0.50808800  1
  O  O25  1  0.66601000  0.99691500  0.83028000  1
  O  O26  1  0.33225900  0.66217000  0.16453500  1
  O  O27  1  0.10945800  0.10945800  0.72450500  1
  O  O28  1  0.77765800  0.77765800  0.04743500  1
  O  O29  1  0.44322500  0.44322500  0.38343200  1
  O  O30  1  0.32969800  0.99969200  0.50808800  1
  O  O31  1  0.99691500  0.66601000  0.83028000  1
  O  O32  1  0.66217000  0.33225900  0.16453500  1
  O  O33  1  0.00030800  0.67030200  0.49191200  1
  O  O34  1  0.66774100  0.33783000  0.83546500  1
  O  O35  1  0.33399000  0.00308500  0.16972000  1
  O  O36  1  0.89054200  0.89054200  0.27549500  1
  O  O37  1  0.55677500  0.55677500  0.61656800  1
  O  O38  1  0.22234200  0.22234200  0.95256500  1
  O  O39  1  0.67030200  0.00030800  0.49191200  1
  O  O40  1  0.33783000  0.66774100  0.83546500  1
  O  O41  1  0.00308500  0.33399000  0.16972000  1
  O  O42  1  0.30426500  0.30426500  0.67322200  1
  O  O43  1  0.69573500  0.69573500  0.32677800  1
loop_
_geom_bond_atom_site_label_1
_geom_bond_atom_site_label_2
_geom_bond_distance
_geom_bond_site_symmetry_2
Na0 O9 2.750522 1_444
Na0 O18 2.750522 1_555
Na0 O16 2.762199 1_454
Na0 O14 2.762199 1_455
Na0 O8 2.762199 1_545
Na0 O22 2.762199 1_544
Na0 O34 2.991299 1_454
Na0 O26 2.991299 1_545
Na0 O32 2.991299 1_455
Na0 O40 2.991299 1_544
Na0 O27 2.997672 1_554
Na0 O36 2.997672 1_445
Fe0 O11 2.017657 1_555
Fe0 O19 2.017657 1_455
Fe0 O24 2.025186 1_455
Fe0 O33 2.025186 1_555
Fe0 O23 2.057664 1_455
Fe0 O13 2.057664 1_555
Fe1 O21 1.975806 1_555
Fe1 O20 1.993841 1_555
Fe1 O9 2.025806 1_545
Fe1 O14 2.049034 1_556
Fe1 O25 2.058029 1_545
Fe1 O34 2.083683 1_555
Fe2 O12 1.975806 1_555
Fe2 O10 1.993841 1_555
Fe2 O18 2.025806 1_565
Fe2 O22 2.049034 1_554
Fe2 O35 2.058029 1_565
Fe2 O26 2.083683 1_555
Fe3 O14 1.987033 1_565
Fe3 O8 1.987033 1_655
Fe3 O28 2.030831 1_555
Fe3 O36 2.063554 1_555
Fe3 O23 2.076698 1_555
Fe3 O17 2.076698 1_555
Fe4 O6 2.012873 1_555
Fe4 O12 2.012873 1_555
Fe4 O21 2.012873 1_555
Fe4 O15 2.012873 1_555
Fe4 O29 2.074478 1_555
Fe4 O37 2.074478 1_555
Fe5 O16 1.987033 1_455
Fe5 O22 1.987033 1_545
Fe5 O38 2.030831 1_555
Fe5 O27 2.063554 1_555
Fe5 O13 2.076698 1_555
Fe5 O7 2.076698 1_555
Fe6 O6 1.975806 1_555
Fe6 O10 1.993841 1_555
Fe6 O18 2.025806 1_655
Fe6 O16 2.049034 1_554
Fe6 O41 2.058029 1_655
Fe6 O32 2.083683 1_555
Fe7 O11 2.017657 1_555
Fe7 O19 2.017657 1_545
Fe7 O39 2.025186 1_555
Fe7 O30 2.025186 1_545
Fe7 O7 2.057664 1_555
Fe7 O17 2.057664 1_545
Fe8 O15 1.975806 1_555
Fe8 O20 1.993841 1_555
Fe8 O9 2.025806 1_455
Fe8 O8 2.049034 1_556
Fe8 O31 2.058029 1_455
Fe8 O40 2.083683 1_555
H0 O6 0.982429 1_555
H1 O7 0.991834 1_565
H2 O8 0.987187 1_555
H3 O9 0.984988 1_555
H4 O10 0.981574 1_555
H5 O11 0.991295 1_555
H6 O12 0.982429 1_555
H7 O13 0.991834 1_655
H8 O14 0.987193 1_555
H9 O15 0.982429 1_555
H10 O16 0.987187 1_555
H11 O17 0.991834 1_545
H12 O18 0.984988 1_555
H13 O19 0.991295 1_555
H14 O20 0.981574 1_555
H15 O21 0.982429 1_555
H16 O22 0.987187 1_555
H17 O23 0.991834 1_455
O0 S0 1.464821 1_555
O1 S1 1.479748 1_555
O2 S2 1.483380 1_555
O3 S3 1.464821 1_555
O4 S4 1.483380 1_555
O5 S5 1.479748 1_555
O24 S0 1.496967 1_655
O25 S1 1.490013 1_555
O26 S2 1.497523 1_555
O27 S0 1.494365 1_555
O28 S1 1.497993 1_554
O29 S2 1.491639 1_555
O30 S0 1.496967 1_565
O31 S1 1.490013 1_555
O32 S2 1.497523 1_555
O33 S3 1.496967 1_455
O34 S4 1.497523 1_555
O35 S5 1.490013 1_555
O36 S3 1.494365 1_555
O37 S4 1.491639 1_555
O38 S5 1.497993 1_556
O39 S3 1.496967 1_545
O40 S4 1.497523 1_555
O41 S5 1.490013 1_555
