# generated using pymatgen
data_Sm23Cd4Ru7
_symmetry_space_group_name_H-M   'P 1'
_cell_length_a   9.88070027
_cell_length_b   9.88070027
_cell_length_c   22.13998866
_cell_angle_alpha   90.00000000
_cell_angle_beta   90.00000000
_cell_angle_gamma   120.00000488
_symmetry_Int_Tables_number   1
_chemical_formula_structural   Sm23Cd4Ru7
_chemical_formula_sum   'Sm46 Cd8 Ru14'
_cell_volume   1871.90349325
_cell_formula_units_Z   2
loop_
 _symmetry_equiv_pos_site_id
 _symmetry_equiv_pos_as_xyz
  1  'x, y, z'
loop_
 _atom_site_type_symbol
 _atom_site_label
 _atom_site_symmetry_multiplicity
 _atom_site_fract_x
 _atom_site_fract_y
 _atom_site_fract_z
 _atom_site_occupancy
  Sm  Sm0  1  0.20736476  0.41472952  0.71956994  1
  Sm  Sm1  1  0.20736476  0.79263524  0.71956994  1
  Sm  Sm2  1  0.79263524  0.58527048  0.21956994  1
  Sm  Sm3  1  0.58527048  0.79263524  0.71956994  1
  Sm  Sm4  1  0.79263524  0.20736476  0.21956994  1
  Sm  Sm5  1  0.41472952  0.20736476  0.21956994  1
  Sm  Sm6  1  0.79304284  0.58608567  0.94758876  1
  Sm  Sm7  1  0.79304284  0.20695716  0.94758876  1
  Sm  Sm8  1  0.20695716  0.41391433  0.44758876  1
  Sm  Sm9  1  0.41391433  0.20695716  0.94758876  1
  Sm  Sm10  1  0.20695716  0.79304284  0.44758876  1
  Sm  Sm11  1  0.58608567  0.79304284  0.44758876  1
  Sm  Sm12  1  0.20797508  0.41595016  0.99061894  1
  Sm  Sm13  1  0.20797508  0.79202492  0.99061894  1
  Sm  Sm14  1  0.79202492  0.58404984  0.49061894  1
  Sm  Sm15  1  0.58404984  0.79202492  0.99061894  1
  Sm  Sm16  1  0.79202492  0.20797508  0.49061894  1
  Sm  Sm17  1  0.41595016  0.20797508  0.49061894  1
  Sm  Sm18  1  0.87368725  0.74737451  0.63688591  1
  Sm  Sm19  1  0.87368725  0.12631275  0.63688591  1
  Sm  Sm20  1  0.12631275  0.25262549  0.13688591  1
  Sm  Sm21  1  0.25262549  0.12631275  0.63688591  1
  Sm  Sm22  1  0.12631275  0.87368725  0.13688591  1
  Sm  Sm23  1  0.74737451  0.87368725  0.13688591  1
  Sm  Sm24  1  0.45939830  0.91879660  0.85488488  1
  Sm  Sm25  1  0.45939830  0.54060170  0.85488488  1
  Sm  Sm26  1  0.54060170  0.08120340  0.35488488  1
  Sm  Sm27  1  0.08120340  0.54060170  0.85488488  1
  Sm  Sm28  1  0.54060170  0.45939830  0.35488488  1
  Sm  Sm29  1  0.91879660  0.45939830  0.35488488  1
  Sm  Sm30  1  -0.00000000  0.00000000  0.00073948  1
  Sm  Sm31  1  -0.00000000  0.00000000  0.50073948  1
  Sm  Sm32  1  0.45902007  0.91804014  0.58434647  1
  Sm  Sm33  1  0.45902007  0.54097993  0.58434647  1
  Sm  Sm34  1  0.54097993  0.08195986  0.08434647  1
  Sm  Sm35  1  0.08195986  0.54097993  0.58434647  1
  Sm  Sm36  1  0.54097993  0.45902007  0.08434647  1
  Sm  Sm37  1  0.91804014  0.45902007  0.08434647  1
  Sm  Sm38  1  0.79460141  0.58920282  0.78190343  1
  Sm  Sm39  1  0.79460141  0.20539859  0.78190343  1
  Sm  Sm40  1  0.20539859  0.41079718  0.28190343  1
  Sm  Sm41  1  0.41079718  0.20539859  0.78190343  1
  Sm  Sm42  1  0.20539859  0.79460141  0.28190343  1
  Sm  Sm43  1  0.58920282  0.79460141  0.28190343  1
  Sm  Sm44  1  0.66666700  0.33333300  0.64546454  1
  Sm  Sm45  1  0.33333300  0.66666700  0.14546454  1
  Cd  Cd0  1  -0.00000000  0.00000000  0.75050938  1
  Cd  Cd1  1  -0.00000000  0.00000000  0.25050938  1
  Cd  Cd2  1  0.10644586  0.21289171  0.86353052  1
  Cd  Cd3  1  0.10644586  0.89355414  0.86353052  1
  Cd  Cd4  1  0.89355414  0.78710829  0.36353052  1
  Cd  Cd5  1  0.78710829  0.89355414  0.86353052  1
  Cd  Cd6  1  0.89355414  0.10644586  0.36353052  1
  Cd  Cd7  1  0.21289171  0.10644586  0.36353052  1
  Ru  Ru0  1  0.51738990  0.03477981  0.70878425  1
  Ru  Ru1  1  0.51738990  0.48261010  0.70878425  1
  Ru  Ru2  1  0.48261010  0.96522019  0.20878425  1
  Ru  Ru3  1  0.96522019  0.48261010  0.70878425  1
  Ru  Ru4  1  0.48261010  0.51738990  0.20878425  1
  Ru  Ru5  1  0.03477981  0.51738990  0.20878425  1
  Ru  Ru6  1  0.66666700  0.33333300  0.86711138  1
  Ru  Ru7  1  0.33333300  0.66666700  0.36711138  1
  Ru  Ru8  1  0.14657641  0.29315283  0.56285196  1
  Ru  Ru9  1  0.14657641  0.85342359  0.56285196  1
  Ru  Ru10  1  0.85342359  0.70684717  0.06285196  1
  Ru  Ru11  1  0.70684717  0.85342359  0.56285196  1
  Ru  Ru12  1  0.85342359  0.14657641  0.06285196  1
  Ru  Ru13  1  0.29315283  0.14657641  0.06285196  1
loop_
_geom_bond_atom_site_label_1
_geom_bond_atom_site_label_2
_geom_bond_distance
_geom_bond_site_symmetry_2
Cd0 Cd2 3.095163 1_555
Cd0 Cd5 3.095163 1_445
Cd0 Cd3 3.095163 1_545
Cd0 Sm18 3.316821 1_445
Cd0 Sm21 3.316821 1_555
Cd0 Sm19 3.316822 1_455
Cd0 Sm41 3.583225 1_555
Cd0 Sm38 3.583225 1_445
Cd0 Sm39 3.583225 1_455
Cd0 Sm3 3.614320 1_445
Cd0 Sm0 3.614320 1_555
Cd0 Sm1 3.614320 1_545
Cd1 Cd4 3.095163 1_445
Cd1 Cd7 3.095163 1_555
Cd1 Cd6 3.095163 1_455
Cd1 Sm23 3.316821 1_445
Cd1 Sm20 3.316821 1_555
Cd1 Sm22 3.316822 1_545
Cd1 Sm40 3.583225 1_555
Cd1 Sm43 3.583225 1_445
Cd1 Sm42 3.583225 1_545
Cd1 Sm2 3.614320 1_445
Cd1 Sm5 3.614320 1_555
Cd1 Sm4 3.614320 1_455
Cd2 Cd5 3.155279 1_445
Cd2 Cd3 3.155279 1_545
Cd2 Sm12 3.306996 1_555
Cd2 Sm25 3.375073 1_555
Cd2 Sm27 3.375073 1_555
Cd2 Sm41 3.540827 1_555
Cd2 Sm39 3.540827 1_455
Cd2 Sm30 3.542154 1_556
Cd2 Sm7 3.588112 1_455
Cd2 Sm9 3.588112 1_555
Cd2 Sm0 3.625150 1_555
Cd3 Cd5 3.155279 1_455
Cd3 Sm13 3.306996 1_555
Cd3 Sm24 3.375073 1_555
Cd3 Sm27 3.375073 1_555
Cd3 Sm41 3.540827 1_565
Cd3 Sm38 3.540827 1_455
Cd3 Sm30 3.542154 1_566
Cd3 Sm6 3.588112 1_455
Cd3 Sm9 3.588112 1_565
Cd3 Sm1 3.625150 1_555
Cd4 Cd7 3.155279 1_665
Cd4 Cd6 3.155279 1_565
Cd4 Sm14 3.306996 1_555
Cd4 Sm28 3.375073 1_555
Cd4 Sm29 3.375073 1_555
Cd4 Sm43 3.540827 1_555
Cd4 Sm42 3.540827 1_655
Cd4 Sm31 3.542154 1_665
Cd4 Sm10 3.588112 1_655
Cd4 Sm11 3.588112 1_555
Cd4 Sm2 3.625150 1_555
Cd5 Sm15 3.306996 1_555
Cd5 Sm25 3.375073 1_555
Cd5 Sm24 3.375073 1_555
Cd5 Sm38 3.540827 1_555
Cd5 Sm39 3.540827 1_565
Cd5 Sm30 3.542154 1_666
Cd5 Sm7 3.588112 1_565
Cd5 Sm6 3.588112 1_555
Cd5 Sm3 3.625150 1_555
Cd6 Cd7 3.155279 1_655
Cd6 Sm16 3.306996 1_555
Cd6 Sm29 3.375073 1_555
Cd6 Sm26 3.375073 1_555
Cd6 Sm40 3.540827 1_655
Cd6 Sm43 3.540827 1_545
Cd6 Sm31 3.542154 1_655
Cd6 Sm11 3.588112 1_545
Cd6 Sm8 3.588112 1_655
Cd6 Sm4 3.625150 1_555
Cd7 Sm17 3.306996 1_555
Cd7 Sm28 3.375073 1_555
Cd7 Sm26 3.375073 1_555
Cd7 Sm40 3.540827 1_555
Cd7 Sm42 3.540827 1_545
Cd7 Sm31 3.542154 1_555
Cd7 Sm10 3.588112 1_545
Cd7 Sm8 3.588112 1_555
Cd7 Sm5 3.625150 1_555
Ru0 Sm1 2.799270 1_545
Ru0 Sm3 2.799270 1_545
Ru0 Sm39 2.889208 1_555
Ru0 Sm41 2.889208 1_555
Ru0 Sm44 2.914072 1_555
Ru0 Sm32 2.930559 1_545
Ru0 Sm24 3.383496 1_545
Ru0 Sm19 3.544238 1_555
Ru0 Sm21 3.544238 1_555
Ru1 Sm3 2.799270 1_555
Ru1 Sm0 2.799270 1_555
Ru1 Sm41 2.889208 1_555
Ru1 Sm38 2.889208 1_555
Ru1 Sm44 2.914079 1_555
Ru1 Sm33 2.930559 1_555
Ru1 Sm25 3.383496 1_555
Ru1 Sm21 3.544237 1_555
Ru1 Sm18 3.544237 1_555
Ru2 Sm4 2.799270 1_565
Ru2 Sm5 2.799270 1_565
Ru2 Sm42 2.889208 1_555
Ru2 Sm43 2.889208 1_555
Ru2 Sm45 2.914072 1_555
Ru2 Sm34 2.930559 1_565
Ru2 Sm26 3.383496 1_565
Ru2 Sm22 3.544238 1_555
Ru2 Sm23 3.544238 1_555
Ru3 Sm1 2.799270 1_655
Ru3 Sm0 2.799270 1_655
Ru3 Sm39 2.889208 1_555
Ru3 Sm38 2.889208 1_555
Ru3 Sm44 2.914072 1_555
Ru3 Sm35 2.930559 1_655
Ru3 Sm27 3.383496 1_655
Ru3 Sm19 3.544238 1_555
Ru3 Sm18 3.544238 1_555
Ru4 Sm2 2.799270 1_555
Ru4 Sm5 2.799270 1_555
Ru4 Sm40 2.889208 1_555
Ru4 Sm43 2.889208 1_555
Ru4 Sm45 2.914079 1_555
Ru4 Sm36 2.930559 1_555
Ru4 Sm28 3.383496 1_555
Ru4 Sm20 3.544237 1_555
Ru4 Sm23 3.544237 1_555
Ru5 Sm4 2.799270 1_455
Ru5 Sm2 2.799270 1_455
Ru5 Sm42 2.889208 1_555
Ru5 Sm40 2.889208 1_555
Ru5 Sm45 2.914072 1_555
Ru5 Sm37 2.930559 1_455
Ru5 Sm29 3.383496 1_455
Ru5 Sm22 3.544238 1_555
Ru5 Sm20 3.544238 1_555
Ru6 Sm7 2.802199 1_555
Ru6 Sm9 2.802205 1_555
Ru6 Sm6 2.802205 1_555
Ru6 Sm39 2.890087 1_555
Ru6 Sm38 2.890093 1_555
Ru6 Sm41 2.890093 1_555
Ru6 Sm27 3.557476 1_655
Ru6 Sm24 3.557476 1_545
Ru6 Sm25 3.557484 1_555
Ru7 Sm10 2.802199 1_555
Ru7 Sm8 2.802205 1_555
Ru7 Sm11 2.802205 1_555
Ru7 Sm42 2.890087 1_555
Ru7 Sm40 2.890093 1_555
Ru7 Sm43 2.890093 1_555
Ru7 Sm26 3.557476 1_565
Ru7 Sm29 3.557476 1_455
Ru7 Sm28 3.557484 1_555
Ru8 Sm8 2.753205 1_555
Ru8 Sm31 2.860702 1_555
Ru8 Sm33 2.862455 1_555
Ru8 Sm35 2.862455 1_555
Ru8 Sm19 2.868720 1_455
Ru8 Sm21 2.868720 1_555
Ru8 Sm16 3.548246 1_455
Ru8 Sm17 3.548246 1_555
Ru9 Sm10 2.753205 1_555
Ru9 Sm31 2.860702 1_565
Ru9 Sm35 2.862455 1_555
Ru9 Sm32 2.862455 1_555
Ru9 Sm18 2.868720 1_455
Ru9 Sm21 2.868720 1_565
Ru9 Sm14 3.548245 1_455
Ru9 Sm17 3.548245 1_565
Ru10 Sm6 2.753205 1_554
Ru10 Sm30 2.860702 1_665
Ru10 Sm36 2.862455 1_555
Ru10 Sm37 2.862455 1_555
Ru10 Sm22 2.868720 1_655
Ru10 Sm23 2.868720 1_555
Ru10 Sm13 3.548246 1_654
Ru10 Sm15 3.548246 1_554
Ru11 Sm11 2.753205 1_555
Ru11 Sm31 2.860702 1_665
Ru11 Sm33 2.862455 1_555
Ru11 Sm32 2.862455 1_555
Ru11 Sm19 2.868720 1_565
Ru11 Sm18 2.868720 1_555
Ru11 Sm16 3.548246 1_565
Ru11 Sm14 3.548246 1_555
Ru12 Sm7 2.753205 1_554
Ru12 Sm30 2.860702 1_655
Ru12 Sm34 2.862455 1_555
Ru12 Sm37 2.862455 1_555
Ru12 Sm23 2.868720 1_545
Ru12 Sm20 2.868720 1_655
Ru12 Sm15 3.548245 1_544
Ru12 Sm12 3.548245 1_654
Ru13 Sm9 2.753205 1_554
Ru13 Sm30 2.860702 1_555
Ru13 Sm36 2.862455 1_555
Ru13 Sm34 2.862455 1_555
Ru13 Sm22 2.868720 1_545
Ru13 Sm20 2.868720 1_555
Ru13 Sm13 3.548246 1_544
Ru13 Sm12 3.548246 1_554
