# generated using pymatgen
data_Ba3SrAg4
_symmetry_space_group_name_H-M   'P 1'
_cell_length_a   4.93212907
_cell_length_b   6.60094271
_cell_length_c   8.65499848
_cell_angle_alpha   89.22837141
_cell_angle_beta   90.00000000
_cell_angle_gamma   90.00000000
_symmetry_Int_Tables_number   1
_chemical_formula_structural   Ba3SrAg4
_chemical_formula_sum   'Ba3 Sr1 Ag4'
_cell_volume   281.75264844
_cell_formula_units_Z   1
loop_
 _symmetry_equiv_pos_site_id
 _symmetry_equiv_pos_as_xyz
  1  'x, y, z'
loop_
 _atom_site_type_symbol
 _atom_site_label
 _atom_site_symmetry_multiplicity
 _atom_site_fract_x
 _atom_site_fract_y
 _atom_site_fract_z
 _atom_site_occupancy
  Ba  Ba0  1  0.50000000  0.36936657  0.18202239  1
  Ba  Ba1  1  0.00000000  0.87066744  0.32262643  1
  Ba  Ba2  1  0.00000000  0.63138668  0.81714675  1
  Sr  Sr0  1  0.50000000  0.13329640  0.68167797  1
  Ag  Ag0  1  0.50000000  0.61030724  0.53784712  1
  Ag  Ag1  1  0.50000000  0.89170937  0.02743184  1
  Ag  Ag2  1  0.00000000  0.37835850  0.47365744  1
  Ag  Ag3  1  -0.00000000  0.11490779  0.95758906  1
loop_
_geom_bond_atom_site_label_1
_geom_bond_atom_site_label_2
_geom_bond_distance
_geom_bond_site_symmetry_2
Ag0 Ag2 2.959263 1_555
Ag0 Ag2 2.959263 1_655
Ag0 Sr0 3.370243 1_555
Ag0 Ba2 3.457371 1_655
Ag0 Ba2 3.457371 1_555
Ag0 Ba0 3.485072 1_555
Ag0 Ba1 3.524017 1_655
Ag0 Ba1 3.524017 1_555
Ag0 Sr0 3.685546 1_565
Ag1 Ag3 2.931478 1_564
Ag1 Ag3 2.931478 1_664
Ag1 Sr0 3.371883 1_564
Ag1 Ba0 3.441678 1_565
Ag1 Ba2 3.525760 1_554
Ag1 Ba2 3.525760 1_654
Ag1 Ba1 3.552290 1_655
Ag1 Ba1 3.552290 1_555
Ag1 Ba0 3.681621 1_555
Ag2 Ba2 3.429507 1_555
Ag2 Sr0 3.444023 1_455
Ag2 Sr0 3.444023 1_555
Ag2 Ba1 3.486382 1_555
Ag2 Ba0 3.529889 1_455
Ag2 Ba0 3.529889 1_555
Ag2 Ba1 3.613516 1_545
Ag3 Ba2 3.430586 1_545
Ag3 Sr0 3.433802 1_455
Ag3 Sr0 3.433802 1_555
Ag3 Ba1 3.527583 1_546
Ag3 Ba0 3.572650 1_556
Ag3 Ba0 3.572650 1_456
Ag3 Ba2 3.604006 1_555
