# generated using pymatgen
data_Li9Mn2Co5O16
_symmetry_space_group_name_H-M   'P 1'
_cell_length_a   5.78585583
_cell_length_b   9.77731440
_cell_length_c   5.86557642
_cell_angle_alpha   89.11697448
_cell_angle_beta   60.45224636
_cell_angle_gamma   98.66381648
_symmetry_Int_Tables_number   1
_chemical_formula_structural   Li9Mn2Co5O16
_chemical_formula_sum   'Li9 Mn2 Co5 O16'
_cell_volume   283.81183403
_cell_formula_units_Z   1
loop_
 _symmetry_equiv_pos_site_id
 _symmetry_equiv_pos_as_xyz
  1  'x, y, z'
loop_
 _atom_site_type_symbol
 _atom_site_label
 _atom_site_symmetry_multiplicity
 _atom_site_fract_x
 _atom_site_fract_y
 _atom_site_fract_z
 _atom_site_occupancy
  Li  Li0  1  0.74890700  0.24411500  0.12475300  1
  Li  Li1  1  0.75204100  0.75224400  0.37779500  1
  Li  Li2  1  0.75138300  0.24496200  0.62490400  1
  Li  Li3  1  0.24698000  0.24790100  0.62084100  1
  Li  Li4  1  0.25069800  0.75489100  0.87462000  1
  Li  Li5  1  0.24616900  0.24444700  0.13197300  1
  Li  Li6  1  0.75479800  0.75518000  0.86822200  1
  Li  Li7  1  0.25022100  0.75583500  0.37508500  1
  Li  Li8  1  0.00012000  0.00000900  0.50002200  1
  Mn  Mn0  1  0.99929100  0.99954000  0.00016500  1
  Mn  Mn1  1  0.49946300  0.50006300  0.75050600  1
  Co  Co0  1  0.99977400  0.49929700  0.25021300  1
  Co  Co1  1  0.99997100  0.50059300  0.74984100  1
  Co  Co2  1  0.49984200  0.00004200  0.49994900  1
  Co  Co3  1  0.49995800  0.00016600  0.99969000  1
  Co  Co4  1  0.50053500  0.49996500  0.24948300  1
  O  O0  1  0.85894300  0.11155200  0.83331900  1
  O  O1  1  0.86275800  0.61620100  0.08376800  1
  O  O2  1  0.85981700  0.10739400  0.30365500  1
  O  O3  1  0.39430100  0.10290200  0.29757000  1
  O  O4  1  0.38454700  0.61718500  0.56603400  1
  O  O5  1  0.35529500  0.11594800  0.84440800  1
  O  O6  1  0.85902600  0.61866800  0.56609100  1
  O  O7  1  0.38142300  0.61379700  0.04422300  1
  O  O8  1  0.61735000  0.38434300  0.45714000  1
  O  O9  1  0.60632400  0.89875500  0.70293500  1
  O  O10  1  0.61638500  0.38459100  0.93251500  1
  O  O11  1  0.14265100  0.38400400  0.93227500  1
  O  O12  1  0.14285900  0.88940700  0.16643200  1
  O  O13  1  0.13593200  0.38096500  0.41953600  1
  O  O14  1  0.64292800  0.88300800  0.15603400  1
  O  O15  1  0.13931000  0.89203000  0.69600100  1
loop_
_geom_bond_atom_site_label_1
_geom_bond_atom_site_label_2
_geom_bond_distance
_geom_bond_site_symmetry_2
Li0 O2 2.044322 1_555
Li0 O3 2.048284 1_555
Li0 O0 2.061763 1_554
Li0 O11 2.193669 1_654
Li0 O10 2.206372 1_554
Li0 O8 2.278902 1_555
Li1 O6 2.045011 1_555
Li1 O4 2.068217 1_555
Li1 O1 2.095652 1_555
Li1 O12 2.172283 1_655
Li1 O14 2.174162 1_555
Li1 O9 2.293943 1_555
Li2 O8 2.111061 1_555
Li2 O0 2.128130 1_555
Li2 O13 2.141377 1_655
Li2 O5 2.160932 1_555
Li2 O10 2.176368 1_555
Li2 O2 2.218050 1_555
Li3 O8 2.088906 1_555
Li3 O13 2.110072 1_555
Li3 O0 2.158331 1_455
Li3 O11 2.168301 1_555
Li3 O5 2.186060 1_555
Li3 O3 2.276994 1_555
Li4 O15 2.047907 1_555
Li4 O9 2.065691 1_555
Li4 O12 2.076555 1_556
Li4 O7 2.116364 1_556
Li4 O4 2.166900 1_555
Li4 O1 2.167426 1_456
Li5 O5 2.018940 1_554
Li5 O13 2.073230 1_555
Li5 O10 2.104560 1_554
Li5 O11 2.116960 1_554
Li5 O2 2.154616 1_455
Li5 O3 2.174925 1_555
Li6 O14 2.015434 1_556
Li6 O7 2.121369 1_556
Li6 O6 2.132388 1_555
Li6 O15 2.145960 1_655
Li6 O9 2.188903 1_555
Li6 O1 2.194712 1_556
Li7 O12 2.129382 1_555
Li7 O14 2.140045 1_555
Li7 O6 2.171380 1_455
Li7 O4 2.196671 1_555
Li7 O15 2.207170 1_555
Li7 O7 2.284478 1_555
Li8 O9 2.048768 1_445
Li8 O15 2.053385 1_545
Li8 O3 2.055347 1_555
Li8 O2 2.056622 1_455
Li8 O12 2.102517 1_545
Li8 O0 2.106570 1_455
Mn0 O5 1.943814 1_664
Mn0 O14 1.945818 1_555
Mn0 O2 1.956917 1_565
Mn0 O15 1.957821 1_654
Mn0 O0 1.958382 1_564
Mn0 O12 1.958760 1_655
Mn1 O11 1.942267 1_555
Mn1 O10 1.943531 1_555
Mn1 O7 1.948967 1_556
Mn1 O4 1.955757 1_555
Mn1 O8 1.959919 1_555
Mn1 O6 1.964134 1_555
Co0 O1 1.972317 1_555
Co0 O13 1.989086 1_655
Co0 O7 2.042361 1_655
Co0 O8 2.047479 1_555
Co0 O11 2.063230 1_654
Co0 O6 2.079203 1_555
Co1 O10 2.053977 1_555
Co1 O11 2.059900 1_655
Co1 O4 2.060291 1_655
Co1 O6 2.066788 1_555
Co1 O1 2.132897 1_556
Co1 O13 2.141112 1_655
Co2 O9 1.910195 1_545
Co2 O3 1.912227 1_555
Co2 O2 1.924634 1_555
Co2 O15 1.929242 1_545
Co2 O5 2.180693 1_555
Co2 O14 2.184829 1_545
Co3 O9 1.890022 1_545
Co3 O3 1.902931 1_556
Co3 O12 1.923113 1_546
Co3 O0 1.933665 1_555
Co3 O5 1.953780 1_555
Co3 O14 1.959254 1_546
Co4 O1 1.966677 1_555
Co4 O13 1.987018 1_555
Co4 O7 2.042385 1_555
Co4 O8 2.053794 1_555
Co4 O10 2.059543 1_554
Co4 O4 2.068760 1_555
