# generated using pymatgen
data_Na2Mo2O5
_symmetry_space_group_name_H-M   'P 1'
_cell_length_a   8.54534570
_cell_length_b   8.54534570
_cell_length_c   5.64202562
_cell_angle_alpha   71.02248200
_cell_angle_beta   71.02248200
_cell_angle_gamma   124.14958817
_symmetry_Int_Tables_number   1
_chemical_formula_structural   Na2Mo2O5
_chemical_formula_sum   'Na4 Mo4 O10'
_cell_volume   245.35240593
_cell_formula_units_Z   2
loop_
 _symmetry_equiv_pos_site_id
 _symmetry_equiv_pos_as_xyz
  1  'x, y, z'
loop_
 _atom_site_type_symbol
 _atom_site_label
 _atom_site_symmetry_multiplicity
 _atom_site_fract_x
 _atom_site_fract_y
 _atom_site_fract_z
 _atom_site_occupancy
  Na  Na0  1  0.13834600  0.43524000  0.46583300  1
  Na  Na1  1  0.84625300  0.56948600  0.54612200  1
  Na  Na2  1  0.56948600  0.84625300  0.54612200  1
  Na  Na3  1  0.43524000  0.13834600  0.46583300  1
  Mo  Mo0  1  0.99077700  0.49465200  0.01347500  1
  Mo  Mo1  1  0.49465200  0.99077700  0.01347500  1
  Mo  Mo2  1  0.15233500  0.15233500  0.00414900  1
  Mo  Mo3  1  0.85501200  0.85501200  0.90054400  1
  O  O0  1  0.24826800  0.74011500  0.00897600  1
  O  O1  1  0.76795300  0.21650900  0.51270600  1
  O  O2  1  0.21650900  0.76795300  0.51270600  1
  O  O3  1  0.74011500  0.24826800  0.00897600  1
  O  O4  1  0.16613700  0.39118000  0.92407600  1
  O  O5  1  0.80102300  0.58465700  0.12398500  1
  O  O6  1  0.58465700  0.80102300  0.12398500  1
  O  O7  1  0.39118000  0.16613700  0.92407600  1
  O  O8  1  0.19723200  0.19723200  0.59586100  1
  O  O9  1  0.90779200  0.90779200  0.49504600  1
loop_
_geom_bond_atom_site_label_1
_geom_bond_atom_site_label_2
_geom_bond_distance
_geom_bond_site_symmetry_2
Na0 O8 2.312290 1_555
Na0 O0 2.371481 1_555
Na0 O6 2.438563 1_555
Na0 O1 2.464498 1_455
Na0 O4 2.597914 1_555
Na0 O2 2.659214 1_555
Na0 O3 2.729973 1_456
Na1 O3 2.485773 1_556
Na1 O5 2.508561 1_555
Na1 O2 2.510408 1_655
Na1 O7 2.515488 1_555
Na1 O9 2.523868 1_555
Na1 O1 2.787007 1_555
Na1 O0 2.800555 1_655
Na2 O0 2.485773 1_556
Na2 O6 2.508561 1_555
Na2 O1 2.510408 1_565
Na2 O4 2.515488 1_555
Na2 O9 2.523868 1_555
Na2 O2 2.787007 1_555
Na2 O3 2.800555 1_565
Na3 O8 2.312290 1_555
Na3 O3 2.371481 1_555
Na3 O5 2.438563 1_555
Na3 O2 2.464498 1_545
Na3 O7 2.597914 1_555
Na3 O1 2.659214 1_555
Na3 O0 2.729973 1_546
Mo0 O0 1.997317 1_655
Mo0 O3 2.007119 1_555
Mo0 O2 2.064892 1_654
Mo0 O1 2.070034 1_555
Mo0 O4 2.137246 1_654
Mo0 O5 2.159660 1_555
Mo1 O3 1.997317 1_565
Mo1 O0 2.007119 1_555
Mo1 O1 2.064892 1_564
Mo1 O2 2.070034 1_555
Mo1 O7 2.137246 1_564
Mo1 O6 2.159660 1_555
Mo2 O7 1.865238 1_554
Mo2 O4 1.865238 1_554
Mo2 O9 1.993323 1_445
Mo2 O8 2.070254 1_554
Mo3 O5 1.915805 1_556
Mo3 O6 1.915805 1_556
Mo3 O8 1.979513 1_665
Mo3 O9 2.017520 1_555
