# generated using pymatgen
data_KMg3AlSi3O11F
_symmetry_space_group_name_H-M   'P 1'
_cell_length_a   5.38678750
_cell_length_b   5.38678750
_cell_length_c   20.69065324
_cell_angle_alpha   87.39085386
_cell_angle_beta   87.39085386
_cell_angle_gamma   119.88077535
_symmetry_Int_Tables_number   1
_chemical_formula_structural   KMg3AlSi3O11F
_chemical_formula_sum   'K2 Mg6 Al2 Si6 O22 F2'
_cell_volume   518.42277500
_cell_formula_units_Z   2
loop_
 _symmetry_equiv_pos_site_id
 _symmetry_equiv_pos_as_xyz
  1  'x, y, z'
loop_
 _atom_site_type_symbol
 _atom_site_label
 _atom_site_symmetry_multiplicity
 _atom_site_fract_x
 _atom_site_fract_y
 _atom_site_fract_z
 _atom_site_occupancy
  K  K0  1  0.08449300  0.91015400  0.26305400  1
  K  K1  1  0.91015400  0.08449300  0.76305400  1
  Mg  Mg0  1  0.33574500  0.16899300  0.49797100  1
  Mg  Mg1  1  0.82701300  0.65868200  0.99980000  1
  Mg  Mg2  1  0.65868200  0.82701300  0.49980000  1
  Mg  Mg3  1  0.16899300  0.33574500  0.99797100  1
  Mg  Mg4  1  0.00039700  0.50077300  0.49960100  1
  Mg  Mg5  1  0.50077300  0.00039700  0.99960100  1
  Al  Al0  1  0.72556500  0.21155600  0.36601500  1
  Al  Al1  1  0.21155600  0.72556500  0.86601500  1
  Si  Si0  1  0.78894000  0.27911400  0.13377700  1
  Si  Si1  1  0.27911400  0.78894000  0.63377700  1
  Si  Si2  1  0.38999100  0.54885800  0.36323200  1
  Si  Si3  1  0.45677700  0.61232900  0.13380300  1
  Si  Si4  1  0.61232900  0.45677700  0.63380300  1
  Si  Si5  1  0.54885800  0.38999100  0.86323200  1
  O  O0  1  0.55941900  0.39194200  0.33575600  1
  O  O1  1  0.61286300  0.43550400  0.16323200  1
  O  O2  1  0.43550400  0.61286300  0.66323200  1
  O  O3  1  0.39194200  0.55941900  0.83575600  1
  O  O4  1  0.56749400  0.87951100  0.33339100  1
  O  O5  1  0.11279900  0.43229900  0.16212300  1
  O  O6  1  0.43229900  0.11279900  0.66212300  1
  O  O7  1  0.87951100  0.56749400  0.83339100  1
  O  O8  1  0.07992700  0.39821300  0.33356000  1
  O  O9  1  0.61346100  0.93555400  0.16235700  1
  O  O10  1  0.93555400  0.61346100  0.66235700  1
  O  O11  1  0.39821300  0.07992700  0.83356000  1
  O  O12  1  0.68878600  0.18207900  0.45189400  1
  O  O13  1  0.81138900  0.30721200  0.05513300  1
  O  O14  1  0.30721200  0.81138900  0.55513300  1
  O  O15  1  0.18207900  0.68878600  0.95189400  1
  O  O16  1  0.35725800  0.52348500  0.44435700  1
  O  O17  1  0.48384300  0.64126400  0.05511100  1
  O  O18  1  0.64126400  0.48384300  0.55511100  1
  O  O19  1  0.52348500  0.35725800  0.94435700  1
  O  O20  1  0.14811000  0.98059800  0.04489700  1
  O  O21  1  0.98059800  0.14811000  0.54489700  1
  F  F0  1  0.01564200  0.84196500  0.45093700  1
  F  F1  1  0.84196500  0.01564200  0.95093700  1
loop_
_geom_bond_atom_site_label_1
_geom_bond_atom_site_label_2
_geom_bond_distance
_geom_bond_site_symmetry_2
K0 O4 3.008703 1_455
K0 O8 3.049037 1_555
K0 O0 3.068971 1_455
K0 O8 3.074265 1_565
K0 O0 3.103786 1_565
K0 O4 3.108936 1_555
K0 O1 3.358929 1_565
K0 O5 3.362210 1_565
K0 O9 3.394702 1_555
K0 O9 3.405739 1_455
K0 O1 3.426931 1_455
K0 O5 3.444108 1_555
K1 O7 3.008703 1_545
K1 O11 3.049037 1_555
K1 O3 3.068971 1_545
K1 O11 3.074265 1_655
K1 O3 3.103786 1_655
K1 O7 3.108936 1_555
K1 O2 3.358929 1_655
K1 O6 3.362210 1_655
K1 O10 3.394702 1_555
K1 O10 3.405739 1_545
K1 O2 3.426931 1_545
K1 O6 3.444108 1_555
Mg0 O21 2.054708 1_455
Mg0 O12 2.055672 1_555
Mg0 O16 2.113150 1_555
Mg0 O18 2.135724 1_555
Mg0 O14 2.148076 1_545
Mg1 O15 2.042250 1_655
Mg1 O20 2.043324 1_656
Mg1 O19 2.078663 1_555
Mg1 O17 2.088194 1_556
Mg1 O13 2.130140 1_556
Mg2 O12 2.042250 1_565
Mg2 O21 2.043324 1_565
Mg2 O16 2.078663 1_555
Mg2 O18 2.088194 1_555
Mg2 O14 2.130140 1_555
Mg3 O20 2.054708 1_546
Mg3 O15 2.055672 1_555
Mg3 O19 2.113150 1_555
Mg3 O17 2.135724 1_556
Mg3 O13 2.148076 1_456
Mg4 O21 2.031154 1_455
Mg4 O12 2.042795 1_455
Mg4 O14 2.108061 1_555
Mg4 O16 2.137695 1_555
Mg4 O18 2.163887 1_455
Mg5 O20 2.031154 1_546
Mg5 O15 2.042795 1_545
Mg5 O13 2.108061 1_556
Mg5 O19 2.137695 1_555
Mg5 O17 2.163887 1_546
Al0 O0 1.731862 1_555
Al0 O8 1.736413 1_655
Al0 O4 1.739164 1_545
Al0 O12 1.769951 1_555
Al1 O3 1.731862 1_555
Al1 O11 1.736413 1_565
Al1 O7 1.739164 1_455
Al1 O15 1.769951 1_555
O0 Si2 1.623525 1_555
O1 Si0 1.664643 1_555
O1 Si3 1.666374 1_555
O2 Si1 1.664643 1_555
O2 Si4 1.666374 1_555
O3 Si5 1.623525 1_555
O4 Si2 1.617770 1_555
O5 Si0 1.664699 1_455
O5 Si3 1.666177 1_555
O6 Si1 1.664699 1_545
O6 Si4 1.666177 1_555
O7 Si5 1.617770 1_555
O8 Si2 1.616594 1_555
O9 Si3 1.663668 1_555
O9 Si0 1.665723 1_565
O10 Si4 1.663668 1_555
O10 Si1 1.665723 1_655
O11 Si5 1.616594 1_555
O13 Si0 1.620717 1_555
O14 Si1 1.620717 1_555
O16 Si2 1.671941 1_555
O17 Si3 1.621477 1_555
O18 Si4 1.621477 1_555
O19 Si5 1.671941 1_555
F0 Mg4 2.017957 1_555
F0 Mg0 2.075062 1_565
F0 Mg2 2.094593 1_455
F1 Mg5 2.017957 1_555
F1 Mg3 2.075062 1_655
F1 Mg1 2.094593 1_545
