# generated using pymatgen
data_Rb2CaSb2
_symmetry_space_group_name_H-M   'P 1'
_cell_length_a   3.66514600
_cell_length_b   3.66514600
_cell_length_c   18.01866200
_cell_angle_alpha   90.00000000
_cell_angle_beta   90.00000000
_cell_angle_gamma   90.00000000
_symmetry_Int_Tables_number   1
_chemical_formula_structural   Rb2CaSb2
_chemical_formula_sum   'Rb2 Ca1 Sb2'
_cell_volume   242.05000578
_cell_formula_units_Z   1
loop_
 _symmetry_equiv_pos_site_id
 _symmetry_equiv_pos_as_xyz
  1  'x, y, z'
loop_
 _atom_site_type_symbol
 _atom_site_label
 _atom_site_symmetry_multiplicity
 _atom_site_fract_x
 _atom_site_fract_y
 _atom_site_fract_z
 _atom_site_occupancy
  Rb  Rb0  1  0.50000000  0.50000000  0.64977300  1
  Rb  Rb1  1  0.50000000  0.50000000  0.35022700  1
  Ca  Ca0  1  0.50000000  0.50000000  0.00000000  1
  Sb  Sb0  1  0.50000000  0.50000000  0.16332600  1
  Sb  Sb1  1  0.50000000  0.50000000  0.83667400  1
loop_
_geom_bond_atom_site_label_1
_geom_bond_atom_site_label_2
_geom_bond_distance
_geom_bond_site_symmetry_2
Rb0 Sb1 3.367706 1_555
Rb1 Sb0 3.367706 1_555
Ca0 Sb0 2.942916 1_555
Ca0 Sb1 2.942916 1_554
