# generated using pymatgen
data_VCrO4
_symmetry_space_group_name_H-M   'P 1'
_cell_length_a   4.97151787
_cell_length_b   4.97151786
_cell_length_c   6.03281317
_cell_angle_alpha   90.00000000
_cell_angle_beta   90.00000000
_cell_angle_gamma   111.96573252
_symmetry_Int_Tables_number   1
_chemical_formula_structural   VCrO4
_chemical_formula_sum   'V2 Cr2 O8'
_cell_volume   138.28293791
_cell_formula_units_Z   2
loop_
 _symmetry_equiv_pos_site_id
 _symmetry_equiv_pos_as_xyz
  1  'x, y, z'
loop_
 _atom_site_type_symbol
 _atom_site_label
 _atom_site_symmetry_multiplicity
 _atom_site_fract_x
 _atom_site_fract_y
 _atom_site_fract_z
 _atom_site_occupancy
  V  V0  1  0.64330816  0.35669184  0.25000000  1
  V  V1  1  0.35669184  0.64330816  0.75000000  1
  Cr  Cr0  1  -0.00000000  -0.00000000  0.50000000  1
  Cr  Cr1  1  -0.00000000  -0.00000000  0.00000000  1
  O  O0  1  0.74615928  0.78711766  0.75000000  1
  O  O1  1  0.25384072  0.21288234  0.25000000  1
  O  O2  1  0.78711766  0.74615928  0.25000000  1
  O  O3  1  0.21288234  0.25384072  0.75000000  1
  O  O4  1  0.23539482  0.76460518  0.97102168  1
  O  O5  1  0.76460518  0.23539482  0.47102168  1
  O  O6  1  0.76460518  0.23539482  0.02897832  1
  O  O7  1  0.23539482  0.76460518  0.52897832  1
loop_
_geom_bond_atom_site_label_1
_geom_bond_atom_site_label_2
_geom_bond_distance
_geom_bond_site_symmetry_2
Cr0 O5 1.947864 1_455
Cr0 O7 1.947864 1_545
Cr0 O3 1.997043 1_555
Cr0 O2 1.997043 1_445
Cr0 O0 1.997043 1_445
Cr0 O1 1.997043 1_555
Cr1 O6 1.947864 1_455
Cr1 O4 1.947864 1_544
Cr1 O3 1.997043 1_554
Cr1 O2 1.997043 1_445
Cr1 O1 1.997043 1_555
Cr1 O0 1.997043 1_444
O0 V1 1.795712 1_555
O1 V0 1.795712 1_555
O2 V0 1.795712 1_555
O3 V1 1.795712 1_555
O4 V1 1.666507 1_555
O5 V0 1.666507 1_555
O6 V0 1.666507 1_555
O7 V1 1.666507 1_555
