# generated using pymatgen
data_Mg6WC
_symmetry_space_group_name_H-M   'P 1'
_cell_length_a   4.17434200
_cell_length_b   6.84577400
_cell_length_c   11.43232200
_cell_angle_alpha   90.00000000
_cell_angle_beta   90.00000000
_cell_angle_gamma   90.00000000
_symmetry_Int_Tables_number   1
_chemical_formula_structural   Mg6WC
_chemical_formula_sum   'Mg12 W2 C2'
_cell_volume   326.69691494
_cell_formula_units_Z   2
loop_
 _symmetry_equiv_pos_site_id
 _symmetry_equiv_pos_as_xyz
  1  'x, y, z'
loop_
 _atom_site_type_symbol
 _atom_site_label
 _atom_site_symmetry_multiplicity
 _atom_site_fract_x
 _atom_site_fract_y
 _atom_site_fract_z
 _atom_site_occupancy
  Mg  Mg0  1  0.00000000  0.28625600  0.08549100  1
  Mg  Mg1  1  0.00000000  0.71374300  0.08549100  1
  Mg  Mg2  1  0.00000000  0.50000000  0.82410000  1
  Mg  Mg3  1  0.50000000  0.24181300  0.89657700  1
  Mg  Mg4  1  0.50000000  0.75818700  0.89657700  1
  Mg  Mg5  1  0.50000000  0.50000000  0.64806500  1
  Mg  Mg6  1  0.00000000  0.78625600  0.58549100  1
  Mg  Mg7  1  0.00000000  0.21374400  0.58549100  1
  Mg  Mg8  1  0.00000000  0.00000000  0.32410000  1
  Mg  Mg9  1  0.50000000  0.74181300  0.39657700  1
  Mg  Mg10  1  0.50000000  0.25818700  0.39657700  1
  Mg  Mg11  1  0.50000000  0.00000000  0.14806500  1
  W  W0  1  0.00000000  0.50000000  0.29622500  1
  W  W1  1  0.00000000  0.00000000  0.79622500  1
  C  C0  1  0.50000000  0.50000000  0.26747300  1
  C  C1  1  0.50000000  0.00000000  0.76747300  1
loop_
_geom_bond_atom_site_label_1
_geom_bond_atom_site_label_2
_geom_bond_distance
_geom_bond_site_symmetry_2
Mg0 W0 2.818727 1_555
Mg0 Mg11 2.950972 1_455
Mg0 Mg11 2.950972 1_555
Mg0 Mg2 3.327319 1_554
Mg0 Mg8 3.358779 1_555
Mg1 W0 2.818724 1_555
Mg1 Mg11 2.950977 1_565
Mg1 Mg11 2.950977 1_465
Mg1 Mg2 3.327316 1_554
Mg1 Mg8 3.358783 1_565
Mg2 Mg4 2.857770 1_455
Mg2 Mg4 2.857770 1_555
Mg2 Mg3 2.857770 1_455
Mg2 Mg3 2.857770 1_555
Mg2 Mg5 2.899378 1_555
Mg2 Mg5 2.899378 1_455
Mg2 Mg6 3.358779 1_555
Mg2 Mg7 3.358779 1_555
Mg2 W1 3.437690 1_555
Mg2 W1 3.437690 1_565
Mg3 W1 2.900486 1_555
Mg3 W1 2.900486 1_655
Mg3 Mg5 3.345997 1_555
Mg4 W1 2.900486 1_565
Mg4 W1 2.900486 1_665
Mg4 Mg5 3.345997 1_555
Mg5 Mg6 2.950972 1_655
Mg5 Mg6 2.950972 1_555
Mg5 Mg7 2.950972 1_555
Mg5 Mg7 2.950972 1_655
Mg5 Mg9 3.317603 1_555
Mg6 W1 2.818727 1_565
Mg6 Mg8 3.327319 1_565
Mg7 W1 2.818727 1_555
Mg7 Mg8 3.327319 1_555
Mg8 Mg9 2.857770 1_545
Mg8 Mg9 2.857770 1_445
Mg8 W0 3.437690 1_555
Mg8 W0 3.437690 1_545
Mg9 W0 2.900486 1_655
Mg9 W0 2.900486 1_555
Mg10 Mg8 2.857770 1_555
Mg10 Mg8 2.857770 1_655
Mg10 W0 2.900486 1_655
Mg10 W0 2.900486 1_555
Mg10 Mg5 3.317603 1_555
Mg10 Mg11 3.345997 1_555
Mg11 Mg8 2.899378 1_655
Mg11 Mg8 2.899378 1_555
Mg11 Mg3 3.317603 1_554
Mg11 Mg4 3.317603 1_544
Mg11 Mg9 3.345997 1_545
C0 W0 2.112896 1_555
C0 W0 2.112896 1_655
C0 Mg10 2.217835 1_555
C0 Mg9 2.217835 1_555
C1 W1 2.112896 1_655
C1 W1 2.112896 1_555
C1 Mg3 2.217835 1_555
C1 Mg4 2.217835 1_545
