# generated using pymatgen
data_CsPr(PO3)4
_symmetry_space_group_name_H-M   'P 1'
_cell_length_a   7.17359311
_cell_length_b   8.81783270
_cell_length_c   9.22680346
_cell_angle_alpha   90.00000000
_cell_angle_beta   90.00000000
_cell_angle_gamma   99.45687474
_symmetry_Int_Tables_number   1
_chemical_formula_structural   CsPr(PO3)4
_chemical_formula_sum   'Cs2 Pr2 P8 O24'
_cell_volume   575.71445333
_cell_formula_units_Z   2
loop_
 _symmetry_equiv_pos_site_id
 _symmetry_equiv_pos_as_xyz
  1  'x, y, z'
loop_
 _atom_site_type_symbol
 _atom_site_label
 _atom_site_symmetry_multiplicity
 _atom_site_fract_x
 _atom_site_fract_y
 _atom_site_fract_z
 _atom_site_occupancy
  Cs  Cs0  1  0.67018249  0.17463669  0.33206250  1
  Cs  Cs1  1  0.32981751  0.82536331  0.83206250  1
  Pr  Pr0  1  0.79838661  0.69756917  0.49562478  1
  Pr  Pr1  1  0.20161339  0.30243083  0.99562478  1
  P  P0  1  0.64553118  0.54358229  0.86924106  1
  P  P1  1  0.35446882  0.45641771  0.36924106  1
  P  P2  1  0.06017148  0.37417576  0.60411227  1
  P  P3  1  0.93982852  0.62582424  0.10411227  1
  P  P4  1  0.30651595  0.77310168  0.42301269  1
  P  P5  1  0.69348405  0.22689832  0.92301269  1
  P  P6  1  0.08379693  0.92966985  0.22157722  1
  P  P7  1  0.91620307  0.07033015  0.72157722  1
  O  O0  1  0.84766108  0.59412776  0.24690719  1
  O  O1  1  0.15233892  0.40587224  0.74690719  1
  O  O2  1  0.20969628  0.36183181  0.47967605  1
  O  O3  1  0.79030372  0.63816819  0.97967605  1
  O  O4  1  0.27500816  0.61217287  0.33882360  1
  O  O5  1  0.72499184  0.38782713  0.83882360  1
  O  O6  1  0.53991820  0.49057731  0.44275009  1
  O  O7  1  0.46008180  0.50942269  0.94275009  1
  O  O8  1  0.50744349  0.81679503  0.46671177  1
  O  O9  1  0.49255651  0.18320497  0.96671177  1
  O  O10  1  0.04509084  0.80153150  0.09798520  1
  O  O11  1  0.95490916  0.19846850  0.59798520  1
  O  O12  1  0.07464445  0.08959777  0.82693379  1
  O  O13  1  0.92535555  0.91040223  0.32693379  1
  O  O14  1  0.14259177  0.07779308  0.14896673  1
  O  O15  1  0.85740823  0.92220692  0.64896673  1
  O  O16  1  0.92327810  0.46931034  0.55051990  1
  O  O17  1  0.07672190  0.53068966  0.05051990  1
  O  O18  1  0.72713759  0.11259088  0.79530626  1
  O  O19  1  0.27286241  0.88740912  0.29530626  1
  O  O20  1  0.34057243  0.36727344  0.23319741  1
  O  O21  1  0.65942757  0.63272656  0.73319741  1
  O  O22  1  0.84480738  0.23218774  0.03335048  1
  O  O23  1  0.15519262  0.76781226  0.53335048  1
loop_
_geom_bond_atom_site_label_1
_geom_bond_atom_site_label_2
_geom_bond_distance
_geom_bond_site_symmetry_2
Cs0 O22 3.035500 1_555
Cs0 O11 3.177296 1_555
Cs0 O13 3.191131 1_545
Cs0 O6 3.245465 1_555
Cs0 O20 3.260083 1_555
Cs0 O8 3.413557 1_545
Cs0 O19 3.504461 1_545
Cs0 O16 3.544101 1_555
Cs0 O9 3.608981 1_554
Cs0 O0 3.791217 1_555
Cs1 O23 3.035500 1_555
Cs1 O10 3.177296 1_556
Cs1 O12 3.191131 1_565
Cs1 O7 3.245465 1_555
Cs1 O21 3.260083 1_555
Cs1 O9 3.413557 1_565
Cs1 O18 3.504461 1_565
Cs1 O17 3.544101 1_556
Cs1 O8 3.608981 1_555
Cs1 O1 3.791217 1_555
O0 P3 1.480018 1_555
O0 Pr0 2.515809 1_555
O1 P2 1.480018 1_555
O1 Pr1 2.515809 1_555
O2 P2 1.587134 1_555
O2 P1 1.589917 1_555
O3 P3 1.587134 1_556
O3 P0 1.589917 1_555
O4 P1 1.596008 1_555
O4 P4 1.600870 1_555
O5 P0 1.596008 1_555
O5 P5 1.600870 1_555
O6 P1 1.479486 1_555
O6 Pr0 2.428005 1_555
O7 P0 1.479486 1_555
O7 Pr1 2.428005 1_555
O8 P4 1.485288 1_555
O8 Pr0 2.500697 1_555
O9 P5 1.485288 1_555
O9 Pr1 2.500697 1_555
O10 P6 1.597216 1_555
O10 P3 1.609174 1_455
O11 P7 1.597216 1_555
O11 P2 1.609174 1_655
O12 P7 1.483995 1_455
O12 Pr1 2.492511 1_555
O13 P6 1.483995 1_655
O13 Pr0 2.492511 1_555
O14 P6 1.466860 1_545
O14 Pr1 2.414358 1_554
O15 P7 1.466860 1_565
O15 Pr0 2.414358 1_555
O16 P2 1.477601 1_655
O16 Pr0 2.388085 1_555
O17 P3 1.477601 1_455
O17 Pr1 2.388085 1_554
O18 P5 1.594565 1_555
O18 P7 1.614692 1_555
O19 P4 1.594565 1_555
O19 P6 1.614692 1_555
O20 P1 1.475711 1_555
O20 Pr1 2.436869 1_554
O21 P0 1.475711 1_555
O21 Pr0 2.436869 1_555
O22 P5 1.483366 1_554
O22 Pr1 2.556422 1_654
O23 P4 1.483366 1_555
O23 Pr0 2.556422 1_455
