# generated using pymatgen
data_Co2SnO4
_symmetry_space_group_name_H-M   'P 1'
_cell_length_a   6.19762900
_cell_length_b   6.22065573
_cell_length_c   25.20733946
_cell_angle_alpha   96.12291808
_cell_angle_beta   90.88395836
_cell_angle_gamma   119.00647947
_symmetry_Int_Tables_number   1
_chemical_formula_structural   Co2SnO4
_chemical_formula_sum   'Co20 Sn10 O40'
_cell_volume   842.55350205
_cell_formula_units_Z   10
loop_
 _symmetry_equiv_pos_site_id
 _symmetry_equiv_pos_as_xyz
  1  'x, y, z'
loop_
 _atom_site_type_symbol
 _atom_site_label
 _atom_site_symmetry_multiplicity
 _atom_site_fract_x
 _atom_site_fract_y
 _atom_site_fract_z
 _atom_site_occupancy
  Co  Co0  1  0.30001200  0.66348800  0.04877200  1
  Co  Co1  1  0.21243700  0.59282600  0.19740900  1
  Co  Co2  1  0.66302200  0.33032900  0.02482700  1
  Co  Co3  1  0.49009200  0.25842600  0.25430700  1
  Co  Co4  1  0.40945200  0.19067400  0.39844700  1
  Co  Co5  1  0.75245000  0.12845200  0.12503700  1
  Co  Co6  1  0.85147000  0.92662600  0.22533700  1
  Co  Co7  1  0.68959200  0.85785500  0.45392800  1
  Co  Co8  1  0.60851400  0.79039700  0.59841900  1
  Co  Co9  1  0.94974500  0.72513600  0.32551300  1
  Co  Co10  1  0.04957100  0.52481200  0.42566300  1
  Co  Co11  1  0.88675300  0.45736700  0.65402400  1
  Co  Co12  1  0.80212500  0.38750700  0.79980200  1
  Co  Co13  1  0.14913700  0.32468300  0.52570600  1
  Co  Co14  1  0.24694500  0.12350800  0.62584700  1
  Co  Co15  1  0.10008900  0.06138500  0.85137100  1
  Co  Co16  1  0.34540500  0.92280800  0.72580400  1
  Co  Co17  1  0.43380300  0.71340700  0.82657800  1
  Co  Co18  1  0.05804000  0.52654000  0.92131200  1
  Co  Co19  1  0.54844700  0.52639100  0.92100300  1
  Sn  Sn0  1  0.00642400  0.98817500  0.99239000  1
  Sn  Sn1  1  0.75201300  0.62321600  0.12581900  1
  Sn  Sn2  1  0.25737500  0.12923500  0.12537000  1
  Sn  Sn3  1  0.94973000  0.22493100  0.32561300  1
  Sn  Sn4  1  0.44988000  0.72496400  0.32555900  1
  Sn  Sn5  1  0.14905400  0.82420700  0.52578900  1
  Sn  Sn6  1  0.64938900  0.32459300  0.52585100  1
  Sn  Sn7  1  0.34502400  0.42297800  0.72540300  1
  Sn  Sn8  1  0.84418700  0.92240400  0.72605800  1
  Sn  Sn9  1  0.55165000  0.02278800  0.92075200  1
  O  O0  1  0.46173500  0.46997800  0.07784400  1
  O  O1  1  0.92792800  0.47152500  0.07882900  1
  O  O2  1  0.55086000  0.28165400  0.17227300  1
  O  O3  1  0.46099000  0.00610200  0.07812400  1
  O  O4  1  0.65629000  0.06729000  0.27774800  1
  O  O5  1  0.04606500  0.24876500  0.17095200  1
  O  O6  1  0.95671600  0.97275600  0.07622100  1
  O  O7  1  0.58419300  0.78714400  0.17104100  1
  O  O8  1  0.12006300  0.06741400  0.27778400  1
  O  O9  1  0.74815300  0.88022800  0.37148300  1
  O  O10  1  0.65694600  0.60402900  0.27771400  1
  O  O11  1  0.04824300  0.78700500  0.17148400  1
  O  O12  1  0.24358000  0.84884000  0.37168500  1
  O  O13  1  0.85546200  0.66679500  0.47787400  1
  O  O14  1  0.15300300  0.56964600  0.27828400  1
  O  O15  1  0.77911800  0.38415900  0.37170700  1
  O  O16  1  0.31963600  0.66707800  0.47785500  1
  O  O17  1  0.94769300  0.47979000  0.57157800  1
  O  O18  1  0.85563900  0.20279800  0.47788800  1
  O  O19  1  0.24559100  0.38224000  0.37193200  1
  O  O20  1  0.44281300  0.44840600  0.57192300  1
  O  O21  1  0.05049100  0.26456900  0.67794300  1
  O  O22  1  0.97788500  0.98330000  0.57183000  1
  O  O23  1  0.35176600  0.16933100  0.47893500  1
  O  O24  1  0.51707600  0.26621100  0.67789200  1
  O  O25  1  0.14567900  0.07771700  0.77045200  1
  O  O26  1  0.05115800  0.80143400  0.67804400  1
  O  O27  1  0.44455700  0.98178600  0.57220000  1
  O  O28  1  0.63688800  0.04334000  0.77311900  1
  O  O29  1  0.25621600  0.87192200  0.87803800  1
  O  O30  1  0.17071800  0.57863500  0.77191000  1
  O  O31  1  0.54763800  0.76833600  0.67901000  1
  O  O32  1  0.73087100  0.86817900  0.87731000  1
  O  O33  1  0.36150200  0.69346400  0.97070300  1
  O  O34  1  0.25755100  0.39482600  0.87822200  1
  O  O35  1  0.63822200  0.57878400  0.77253800  1
  O  O36  1  0.83785400  0.64260100  0.97303500  1
  O  O37  1  0.74474100  0.36775600  0.88074800  1
  O  O38  1  0.37748500  0.18444000  0.97404800  1
  O  O39  1  0.83915200  0.17961900  0.97408800  1
loop_
_geom_bond_atom_site_label_1
_geom_bond_atom_site_label_2
_geom_bond_distance
_geom_bond_site_symmetry_2
Co0 O3 1.914116 1_565
Co0 O33 2.021183 1_554
Co0 O0 2.079977 1_555
Co0 O1 2.212267 1_455
Co1 O5 1.903367 1_555
Co1 O11 2.064374 1_555
Co1 O14 2.084924 1_555
Co1 O7 2.174636 1_555
Co2 O1 1.896683 1_555
Co2 O38 1.928330 1_554
Co2 O39 2.118043 1_554
Co2 O0 2.225245 1_555
Co2 O36 2.279320 1_554
Co2 O3 2.370947 1_555
Co3 O10 1.895774 1_555
Co3 O4 2.035348 1_555
Co3 O2 2.115125 1_555
Co3 O8 2.137873 1_555
Co4 O12 1.893721 1_545
Co4 O19 2.054450 1_555
Co4 O23 2.072593 1_555
Co4 O15 2.167566 1_555
Co5 O5 1.908006 1_655
Co5 O3 1.910343 1_555
Co5 O2 2.201253 1_555
Co5 O6 2.244515 1_545
Co5 O7 2.314159 1_545
Co5 O1 2.326471 1_555
Co6 O8 1.886022 1_665
Co6 O7 1.911238 1_555
Co6 O4 2.191704 1_565
Co6 O11 2.216117 1_655
Co6 O10 2.343438 1_555
Co6 O5 2.375451 1_665
Co7 O18 1.894982 1_565
Co7 O13 2.037775 1_555
Co7 O9 2.122752 1_555
Co7 O16 2.141439 1_555
Co8 O20 1.893014 1_555
Co8 O27 2.051147 1_555
Co8 O31 2.078705 1_555
Co8 O22 2.164376 1_555
Co9 O12 1.909864 1_655
Co9 O10 1.930119 1_555
Co9 O9 2.193109 1_555
Co9 O14 2.218581 1_655
Co9 O15 2.315767 1_555
Co9 O8 2.345457 1_665
Co10 O16 1.887505 1_555
Co10 O15 1.917920 1_455
Co10 O13 2.188791 1_455
Co10 O19 2.221790 1_555
Co10 O18 2.338085 1_455
Co10 O12 2.375937 1_555
Co11 O26 1.890847 1_655
Co11 O21 2.036523 1_655
Co11 O17 2.125128 1_555
Co11 O24 2.139669 1_555
Co12 O28 1.905261 1_555
Co12 O35 2.060358 1_555
Co12 O37 2.082892 1_555
Co12 O30 2.172611 1_655
Co13 O20 1.909738 1_555
Co13 O18 1.932966 1_455
Co13 O17 2.191235 1_455
Co13 O23 2.209205 1_555
Co13 O22 2.316666 1_445
Co13 O16 2.347916 1_555
Co14 O24 1.885332 1_555
Co14 O22 1.913505 1_445
Co14 O21 2.194669 1_555
Co14 O27 2.224815 1_545
Co14 O26 2.339128 1_545
Co14 O20 2.379829 1_555
Co15 O34 1.851995 1_555
Co15 O29 2.008018 1_545
Co15 O25 2.069999 1_555
Co15 O32 2.157505 1_445
Co16 O28 1.917623 1_565
Co16 O26 1.936003 1_555
Co16 O25 2.167004 1_565
Co16 O31 2.203969 1_555
Co16 O30 2.329876 1_555
Co16 O24 2.353665 1_565
Co17 O30 1.902340 1_555
Co17 O32 1.974247 1_555
Co17 O29 2.165653 1_555
Co17 O35 2.236252 1_555
Co17 O34 2.304379 1_555
Co17 O28 2.397812 1_565
Co18 O37 1.911719 1_455
Co18 O33 1.980778 1_555
Co18 O34 2.052846 1_555
Co18 O36 2.212000 1_455
Co18 O29 2.301431 1_555
Co18 O39 2.469071 1_455
Co19 O34 1.844950 1_555
Co19 O36 1.981830 1_555
Co19 O37 2.114765 1_555
Co19 O33 2.219662 1_555
Co19 O32 2.284402 1_555
Co19 O38 2.428994 1_555
O0 Sn1 1.905639 1_555
O0 Sn2 2.348865 1_555
O1 Sn1 2.069116 1_555
O2 Sn2 1.904527 1_555
O2 Sn1 2.333839 1_555
O3 Sn2 2.094450 1_555
O4 Sn3 1.917065 1_555
O4 Sn4 2.361529 1_545
O5 Sn2 2.096842 1_555
O6 Sn2 1.966476 1_665
O6 Sn0 2.145741 1_654
O6 Sn1 2.419513 1_555
O7 Sn1 2.058712 1_555
O8 Sn3 2.078113 1_455
O9 Sn4 1.911574 1_555
O9 Sn3 2.339039 1_565
O10 Sn4 2.111374 1_555
O11 Sn1 1.898479 1_455
O11 Sn2 2.337026 1_565
O12 Sn4 2.095402 1_555
O13 Sn5 1.918446 1_655
O13 Sn6 2.363336 1_555
O14 Sn4 1.923963 1_555
O14 Sn3 2.362391 1_455
O15 Sn3 2.063330 1_555
O16 Sn5 2.079106 1_555
O17 Sn6 1.909062 1_555
O17 Sn5 2.336419 1_655
O18 Sn6 2.112160 1_555
O19 Sn3 1.906066 1_455
O19 Sn4 2.339702 1_555
O20 Sn6 2.095814 1_555
O21 Sn7 1.915992 1_555
O21 Sn8 2.365481 1_445
O22 Sn5 2.064679 1_655
O23 Sn6 1.922264 1_555
O23 Sn5 2.356552 1_545
O24 Sn7 2.078719 1_555
O25 Sn8 1.905571 1_445
O25 Sn7 2.327852 1_555
O26 Sn8 2.113352 1_455
O27 Sn5 1.905737 1_555
O27 Sn6 2.340061 1_565
O28 Sn8 2.101866 1_545
O29 Sn9 1.857336 1_565
O30 Sn7 2.071305 1_555
O31 Sn8 1.919609 1_555
O31 Sn7 2.350492 1_555
O32 Sn9 2.051049 1_565
O33 Sn9 2.329313 1_565
O35 Sn7 1.905974 1_555
O35 Sn8 2.346370 1_555
O36 Sn0 1.879671 1_655
O37 Sn9 2.249953 1_555
O38 Sn0 2.103152 1_545
O38 Sn9 2.188700 1_555
O39 Sn9 1.973494 1_555
O39 Sn0 2.001402 1_645
