# generated using pymatgen
data_V3(NO4)2
_symmetry_space_group_name_H-M   'P 1'
_cell_length_a   9.04990400
_cell_length_b   9.04990400
_cell_length_c   5.49585400
_cell_angle_alpha   90.00000000
_cell_angle_beta   90.00000000
_cell_angle_gamma   90.00000000
_symmetry_Int_Tables_number   1
_chemical_formula_structural   V3(NO4)2
_chemical_formula_sum   'V6 N4 O16'
_cell_volume   450.11463269
_cell_formula_units_Z   2
loop_
 _symmetry_equiv_pos_site_id
 _symmetry_equiv_pos_as_xyz
  1  'x, y, z'
loop_
 _atom_site_type_symbol
 _atom_site_label
 _atom_site_symmetry_multiplicity
 _atom_site_fract_x
 _atom_site_fract_y
 _atom_site_fract_z
 _atom_site_occupancy
  V  V0  1  0.50000000  0.50000000  0.51335900  1
  V  V1  1  0.00000000  0.00000000  0.51335900  1
  V  V2  1  0.35991900  0.85991900  0.49202700  1
  V  V3  1  0.64008100  0.14008100  0.49202700  1
  V  V4  1  0.85991900  0.64008100  0.49202700  1
  V  V5  1  0.14008100  0.35991900  0.49202700  1
  N  N0  1  0.22883400  0.72883400  0.08053000  1
  N  N1  1  0.77116600  0.27116600  0.08053000  1
  N  N2  1  0.72883400  0.77116600  0.08053000  1
  N  N3  1  0.27116600  0.22883400  0.08053000  1
  O  O0  1  0.41964600  0.68725200  0.60099700  1
  O  O1  1  0.58035400  0.31274800  0.60099700  1
  O  O2  1  0.91964600  0.81274800  0.60099700  1
  O  O3  1  0.08035400  0.18725200  0.60099700  1
  O  O4  1  0.31274800  0.41964600  0.60099700  1
  O  O5  1  0.68725200  0.58035400  0.60099700  1
  O  O6  1  0.18725200  0.91964600  0.60099700  1
  O  O7  1  0.81274800  0.08035400  0.60099700  1
  O  O8  1  0.31993300  0.81993300  0.14573400  1
  O  O9  1  0.68006700  0.18006700  0.14573400  1
  O  O10  1  0.81993300  0.68006700  0.14573400  1
  O  O11  1  0.18006700  0.31993300  0.14573400  1
  O  O12  1  0.50000000  0.00000000  0.45841200  1
  O  O13  1  0.00000000  0.50000000  0.45841200  1
  O  O14  1  0.50000000  0.50000000  0.21926000  1
  O  O15  1  0.00000000  0.00000000  0.21926000  1
loop_
_geom_bond_atom_site_label_1
_geom_bond_atom_site_label_2
_geom_bond_distance
_geom_bond_site_symmetry_2
N0 O8 1.219758 1_555
N1 O9 1.219758 1_555
N2 O10 1.219758 1_555
N3 O11 1.219758 1_555
O0 V2 1.758581 1_555
O0 V0 1.905914 1_555
O1 V3 1.758581 1_555
O1 V0 1.905914 1_555
O2 V4 1.758581 1_555
O2 V1 1.905914 1_665
O3 V5 1.758581 1_555
O3 V1 1.905914 1_555
O4 V5 1.758581 1_555
O4 V0 1.905914 1_555
O5 V4 1.758581 1_555
O5 V0 1.905914 1_555
O6 V2 1.758581 1_555
O6 V1 1.905914 1_565
O7 V3 1.758581 1_555
O7 V1 1.905914 1_655
O8 V2 1.970781 1_555
O9 V3 1.970781 1_555
O10 V4 1.970781 1_555
O11 V5 1.970781 1_555
O12 V3 1.802320 1_555
O12 V2 1.802320 1_545
O13 V5 1.802320 1_555
O13 V4 1.802320 1_455
O14 V0 1.616325 1_555
O15 V1 1.616325 1_555
