# generated using pymatgen
data_CsPbI3
_symmetry_space_group_name_H-M   'P 1'
_cell_length_a   8.85338100
_cell_length_b   8.93053600
_cell_length_c   12.75775900
_cell_angle_alpha   90.00000000
_cell_angle_beta   90.00000000
_cell_angle_gamma   90.00000000
_symmetry_Int_Tables_number   1
_chemical_formula_structural   CsPbI3
_chemical_formula_sum   'Cs4 Pb4 I12'
_cell_volume   1008.69779994
_cell_formula_units_Z   4
loop_
 _symmetry_equiv_pos_site_id
 _symmetry_equiv_pos_as_xyz
  1  'x, y, z'
loop_
 _atom_site_type_symbol
 _atom_site_label
 _atom_site_symmetry_multiplicity
 _atom_site_fract_x
 _atom_site_fract_y
 _atom_site_fract_z
 _atom_site_occupancy
  Cs  Cs0  1  0.99242200  0.96543800  0.25000000  1
  Cs  Cs1  1  0.00757800  0.03456200  0.75000000  1
  Cs  Cs2  1  0.49242200  0.53456200  0.75000000  1
  Cs  Cs3  1  0.50757800  0.46543800  0.25000000  1
  Pb  Pb0  1  0.50000000  0.00000000  0.00000000  1
  Pb  Pb1  1  0.00000000  0.50000000  0.00000000  1
  Pb  Pb2  1  0.50000000  0.00000000  0.50000000  1
  Pb  Pb3  1  0.00000000  0.50000000  0.50000000  1
  I  I0  1  0.05147900  0.50714100  0.25000000  1
  I  I1  1  0.94852100  0.49285900  0.75000000  1
  I  I2  1  0.55147900  0.99285900  0.75000000  1
  I  I3  1  0.44852100  0.00714100  0.25000000  1
  I  I4  1  0.79662400  0.20392400  0.02592500  1
  I  I5  1  0.20337600  0.79607600  0.97407500  1
  I  I6  1  0.29662400  0.29607600  0.97407500  1
  I  I7  1  0.70337600  0.70392400  0.02592500  1
  I  I8  1  0.20337600  0.79607600  0.52592500  1
  I  I9  1  0.79662400  0.20392400  0.47407500  1
  I  I10  1  0.70337600  0.70392400  0.47407500  1
  I  I11  1  0.29662400  0.29607600  0.52592500  1
loop_
_geom_bond_atom_site_label_1
_geom_bond_atom_site_label_2
_geom_bond_distance
_geom_bond_site_symmetry_2
Cs0 I4 3.963982 1_565
Cs0 I9 3.963982 1_565
Cs0 I3 4.055157 1_665
Cs0 I0 4.126100 1_655
Cs0 I8 4.262332 1_655
Cs0 I5 4.262332 1_654
Cs0 I7 4.491678 1_555
Cs0 I10 4.491678 1_555
Cs1 I5 3.963982 1_545
Cs1 I8 3.963982 1_545
Cs1 I2 4.055157 1_445
Cs1 I1 4.126100 1_455
Cs1 I9 4.262332 1_455
Cs1 I4 4.262332 1_456
Cs1 I11 4.491678 1_555
Cs1 I6 4.491678 1_555
Cs2 I11 3.963982 1_555
Cs2 I6 3.963982 1_555
Cs2 I1 4.055157 1_555
Cs2 I2 4.126100 1_555
Cs2 I10 4.262332 1_555
Cs2 I7 4.262332 1_556
Cs2 I8 4.491678 1_555
Cs2 I5 4.491678 1_555
Cs3 I7 3.963982 1_555
Cs3 I10 3.963982 1_555
Cs3 I0 4.055157 1_555
Cs3 I3 4.126100 1_555
Cs3 I11 4.262332 1_555
Cs3 I6 4.262332 1_554
Cs3 I4 4.491678 1_555
Cs3 I9 4.491678 1_555
I0 Pb3 3.222470 1_555
I0 Pb1 3.222470 1_555
I1 Pb1 3.222470 1_656
I1 Pb3 3.222470 1_655
I2 Pb0 3.222470 1_566
I2 Pb2 3.222470 1_565
I3 Pb2 3.222470 1_555
I3 Pb0 3.222470 1_555
I4 Pb0 3.212867 1_555
I4 Pb1 3.216020 1_655
I5 Pb0 3.212867 1_566
I5 Pb1 3.216020 1_556
I6 Pb1 3.212867 1_556
I6 Pb0 3.216020 1_556
I7 Pb1 3.212867 1_655
I7 Pb0 3.216020 1_565
I8 Pb2 3.212867 1_565
I8 Pb3 3.216020 1_555
I9 Pb2 3.212867 1_555
I9 Pb3 3.216020 1_655
I10 Pb3 3.212867 1_655
I10 Pb2 3.216020 1_565
I11 Pb3 3.212867 1_555
I11 Pb2 3.216020 1_555
