# generated using pymatgen
data_Th5Sn4
_symmetry_space_group_name_H-M   'P 1'
_cell_length_a   8.31384500
_cell_length_b   8.44376200
_cell_length_c   15.84908800
_cell_angle_alpha   90.00000000
_cell_angle_beta   90.00000000
_cell_angle_gamma   90.00000000
_symmetry_Int_Tables_number   1
_chemical_formula_structural   Th5Sn4
_chemical_formula_sum   'Th20 Sn16'
_cell_volume   1112.60801397
_cell_formula_units_Z   4
loop_
 _symmetry_equiv_pos_site_id
 _symmetry_equiv_pos_as_xyz
  1  'x, y, z'
loop_
 _atom_site_type_symbol
 _atom_site_label
 _atom_site_symmetry_multiplicity
 _atom_site_fract_x
 _atom_site_fract_y
 _atom_site_fract_z
 _atom_site_occupancy
  Th  Th0  1  0.37216100  0.83755100  0.87794100  1
  Th  Th1  1  0.87216100  0.66244900  0.62205900  1
  Th  Th2  1  0.62783900  0.16244900  0.37794100  1
  Th  Th3  1  0.12783900  0.33755100  0.12205900  1
  Th  Th4  1  0.62783900  0.16244900  0.12205900  1
  Th  Th5  1  0.12783900  0.33755100  0.37794100  1
  Th  Th6  1  0.37216100  0.83755100  0.62205900  1
  Th  Th7  1  0.87216100  0.66244900  0.87794100  1
  Th  Th8  1  0.51925000  0.32044000  0.90080400  1
  Th  Th9  1  0.01925000  0.17956000  0.59919600  1
  Th  Th10  1  0.48075000  0.67956000  0.40080400  1
  Th  Th11  1  0.98075000  0.82044000  0.09919600  1
  Th  Th12  1  0.48075000  0.67956000  0.09919600  1
  Th  Th13  1  0.98075000  0.82044000  0.40080400  1
  Th  Th14  1  0.51925000  0.32044000  0.59919600  1
  Th  Th15  1  0.01925000  0.17956000  0.90080400  1
  Th  Th16  1  0.19210500  0.49821500  0.75000000  1
  Th  Th17  1  0.69210500  0.00178500  0.75000000  1
  Th  Th18  1  0.80789500  0.50178500  0.25000000  1
  Th  Th19  1  0.30789500  0.99821500  0.25000000  1
  Sn  Sn0  1  0.28838900  0.03290800  0.04271000  1
  Sn  Sn1  1  0.78838900  0.46709200  0.45729000  1
  Sn  Sn2  1  0.71161100  0.96709200  0.54271000  1
  Sn  Sn3  1  0.21161100  0.53290800  0.95729000  1
  Sn  Sn4  1  0.71161100  0.96709200  0.95729000  1
  Sn  Sn5  1  0.21161100  0.53290800  0.54271000  1
  Sn  Sn6  1  0.28838900  0.03290800  0.45729000  1
  Sn  Sn7  1  0.78838900  0.46709200  0.04271000  1
  Sn  Sn8  1  0.56581900  0.61151400  0.75000000  1
  Sn  Sn9  1  0.06581900  0.88848600  0.75000000  1
  Sn  Sn10  1  0.43418100  0.38848600  0.25000000  1
  Sn  Sn11  1  0.93418100  0.11151400  0.25000000  1
  Sn  Sn12  1  0.32223300  0.14030400  0.75000000  1
  Sn  Sn13  1  0.82223300  0.35969600  0.75000000  1
  Sn  Sn14  1  0.67776700  0.85969600  0.25000000  1
  Sn  Sn15  1  0.17776700  0.64030400  0.25000000  1
loop_
_geom_bond_atom_site_label_1
_geom_bond_atom_site_label_2
_geom_bond_distance
_geom_bond_site_symmetry_2
Sn0 Th3 3.159135 1_555
Sn0 Th0 3.166336 1_544
Sn0 Th11 3.249870 1_445
Sn0 Th4 3.277568 1_555
Sn0 Th19 3.302376 1_545
Sn0 Th15 3.405657 1_554
Sn0 Th12 3.501556 1_545
Sn0 Th8 3.825795 1_554
Sn1 Th2 3.159135 1_555
Sn1 Th1 3.166336 1_555
Sn1 Th10 3.249870 1_555
Sn1 Th5 3.277568 1_655
Sn1 Th18 3.302376 1_555
Sn1 Th14 3.405657 1_555
Sn1 Th13 3.501556 1_555
Sn1 Th9 3.825795 1_655
Sn2 Th1 3.159135 1_555
Sn2 Th2 3.166336 1_565
Sn2 Th9 3.249870 1_665
Sn2 Th6 3.277568 1_555
Sn2 Th17 3.302376 1_565
Sn2 Th13 3.405657 1_555
Sn2 Th14 3.501556 1_565
Sn2 Th10 3.825795 1_555
Sn3 Th0 3.159135 1_555
Sn3 Th3 3.166336 1_556
Sn3 Th8 3.249870 1_555
Sn3 Th7 3.277568 1_455
Sn3 Th16 3.302376 1_555
Sn3 Th12 3.405657 1_556
Sn3 Th15 3.501556 1_555
Sn3 Th11 3.825795 1_456
Sn4 Th7 3.159135 1_555
Sn4 Th4 3.166336 1_566
Sn4 Th15 3.249870 1_665
Sn4 Th0 3.277568 1_555
Sn4 Th17 3.302376 1_565
Sn4 Th11 3.405657 1_556
Sn4 Th8 3.501556 1_565
Sn4 Th12 3.825795 1_556
Sn5 Th6 3.159135 1_555
Sn5 Th5 3.166336 1_555
Sn5 Th14 3.249870 1_555
Sn5 Th1 3.277568 1_455
Sn5 Th16 3.302376 1_555
Sn5 Th10 3.405657 1_555
Sn5 Th9 3.501556 1_555
Sn5 Th13 3.825795 1_455
Sn6 Th5 3.159135 1_555
Sn6 Th6 3.166336 1_545
Sn6 Th13 3.249870 1_445
Sn6 Th2 3.277568 1_555
Sn6 Th19 3.302376 1_545
Sn6 Th9 3.405657 1_555
Sn6 Th10 3.501556 1_545
Sn6 Th14 3.825795 1_555
Sn7 Th4 3.159135 1_555
Sn7 Th7 3.166336 1_554
Sn7 Th12 3.249870 1_555
Sn7 Th3 3.277568 1_655
Sn7 Th18 3.302376 1_555
Sn7 Th8 3.405657 1_554
Sn7 Th11 3.501556 1_555
Sn7 Th15 3.825795 1_654
Sn8 Th0 3.216639 1_555
Sn8 Th6 3.216639 1_555
Sn8 Th16 3.250949 1_555
Sn8 Th7 3.283798 1_555
Sn8 Th1 3.283798 1_555
Sn8 Th8 3.450085 1_555
Sn8 Th14 3.450085 1_555
Sn8 Th17 3.458570 1_565
Sn9 Th7 3.216639 1_455
Sn9 Th1 3.216639 1_455
Sn9 Th17 3.250949 1_465
Sn9 Th0 3.283798 1_555
Sn9 Th6 3.283798 1_555
Sn9 Th15 3.450085 1_565
Sn9 Th9 3.450085 1_565
Sn9 Th16 3.458570 1_555
Sn10 Sn15 3.010918 1_555
Sn10 Th2 3.216639 1_555
Sn10 Th4 3.216639 1_555
Sn10 Th18 3.250949 1_555
Sn10 Th3 3.283798 1_555
Sn10 Th5 3.283798 1_555
Sn10 Th12 3.450085 1_555
Sn10 Th10 3.450085 1_555
Sn10 Th19 3.458570 1_545
Sn11 Sn14 3.010918 1_545
Sn11 Th5 3.216639 1_655
Sn11 Th3 3.216639 1_655
Sn11 Th19 3.250949 1_645
Sn11 Th4 3.283798 1_555
Sn11 Th2 3.283798 1_555
Sn11 Th13 3.450085 1_545
Sn11 Th11 3.450085 1_545
Sn11 Th18 3.458570 1_555
Sn12 Sn9 3.010918 1_545
Sn12 Th16 3.209924 1_555
Sn12 Th14 3.272471 1_555
Sn12 Th8 3.272471 1_555
Sn12 Th6 3.289242 1_545
Sn12 Th0 3.289242 1_545
Sn12 Th17 3.289985 1_555
Sn12 Th15 3.488209 1_555
Sn12 Th9 3.488209 1_555
Sn13 Sn8 3.010918 1_555
Sn13 Th17 3.209924 1_555
Sn13 Th15 3.272471 1_655
Sn13 Th9 3.272471 1_655
Sn13 Th1 3.289242 1_555
Sn13 Th7 3.289242 1_555
Sn13 Th16 3.289985 1_655
Sn13 Th14 3.488209 1_555
Sn13 Th8 3.488209 1_555
Sn14 Th18 3.209924 1_555
Sn14 Th12 3.272471 1_555
Sn14 Th10 3.272471 1_555
Sn14 Th4 3.289242 1_565
Sn14 Th2 3.289242 1_565
Sn14 Th19 3.289985 1_555
Sn14 Th11 3.488209 1_555
Sn14 Th13 3.488209 1_555
Sn15 Th19 3.209924 1_555
Sn15 Th11 3.272471 1_455
Sn15 Th13 3.272471 1_455
Sn15 Th5 3.289242 1_555
Sn15 Th3 3.289242 1_555
Sn15 Th18 3.289985 1_455
Sn15 Th12 3.488209 1_555
Sn15 Th10 3.488209 1_555
