# generated using pymatgen
data_Ba3Y2WO9
_symmetry_space_group_name_H-M   'P 1'
_cell_length_a   6.04431808
_cell_length_b   8.56139338
_cell_length_c   10.47110456
_cell_angle_alpha   65.86987065
_cell_angle_beta   73.22470435
_cell_angle_gamma   90.00000000
_symmetry_Int_Tables_number   1
_chemical_formula_structural   Ba3Y2WO9
_chemical_formula_sum   'Ba6 Y4 W2 O18'
_cell_volume   469.12789627
_cell_formula_units_Z   2
loop_
 _symmetry_equiv_pos_site_id
 _symmetry_equiv_pos_as_xyz
  1  'x, y, z'
loop_
 _atom_site_type_symbol
 _atom_site_label
 _atom_site_symmetry_multiplicity
 _atom_site_fract_x
 _atom_site_fract_y
 _atom_site_fract_z
 _atom_site_occupancy
  Ba  Ba0  1  0.50000000  0.26408820  0.00000000  1
  Ba  Ba1  1  0.83835368  0.57939356  0.32329164  1
  Ba  Ba2  1  0.16164632  0.90268620  0.67670836  1
  Ba  Ba3  1  0.50000000  0.73591180  0.00000000  1
  Ba  Ba4  1  0.83835368  0.09731380  0.32329164  1
  Ba  Ba5  1  0.16164632  0.42060644  0.67670836  1
  Y  Y0  1  -0.00000000  -0.00000000  0.00000000  1
  Y  Y1  1  0.32829276  0.32829276  0.34341348  1
  Y  Y2  1  0.67170724  0.67170724  0.65658652  1
  Y  Y3  1  -0.00000000  0.50000000  0.00000000  1
  W  W0  1  0.33469143  0.83469143  0.33061614  1
  W  W1  1  0.66530857  0.16530857  0.66938286  1
  O  O0  1  -0.00000000  0.24622274  0.00000000  1
  O  O1  1  0.33032315  0.60303764  0.33935171  1
  O  O2  1  0.66967685  0.94239135  0.66064829  1
  O  O3  1  0.16134181  0.41057946  0.17884109  1
  O  O4  1  0.49038416  0.76049417  0.47901066  1
  O  O5  1  0.81515796  0.08953536  0.82092727  1
  O  O6  1  0.34018189  0.58942054  0.82115891  1
  O  O7  1  0.63608624  0.91046464  0.17907273  1
  O  O8  1  0.96939582  0.23950583  0.52098934  1
  O  O9  1  -0.00000000  0.75377726  0.00000000  1
  O  O10  1  0.33032315  0.05760865  0.33935171  1
  O  O11  1  0.66967685  0.39696236  0.66064829  1
  O  O12  1  0.83865819  0.58942054  0.82115891  1
  O  O13  1  0.18484204  0.91046464  0.17907273  1
  O  O14  1  0.50961584  0.23950583  0.52098934  1
  O  O15  1  0.65981811  0.41057946  0.17884109  1
  O  O16  1  0.03060418  0.76049417  0.47901066  1
  O  O17  1  0.36391376  0.08953536  0.82092727  1
loop_
_geom_bond_atom_site_label_1
_geom_bond_atom_site_label_2
_geom_bond_distance
_geom_bond_site_symmetry_2
Ba0 O12 2.996237 1_554
Ba0 O3 2.996237 1_555
Ba0 O6 2.996240 1_554
Ba0 O15 2.996240 1_555
Ba0 O0 3.026027 1_555
Ba0 O0 3.026027 1_655
Ba0 O11 3.092540 1_554
Ba0 O10 3.092541 1_555
Ba0 O13 3.099539 1_545
Ba0 O7 3.099541 1_545
Ba0 O5 3.099551 1_554
Ba0 O17 3.099554 1_554
Ba1 O15 2.875892 1_555
Ba1 O3 2.875899 1_655
Ba1 O9 2.932881 1_655
Ba1 O1 3.037789 1_655
Ba1 O1 3.037795 1_555
Ba1 O11 3.060627 1_555
Ba1 O7 3.061890 1_555
Ba1 O13 3.061896 1_655
Ba1 O14 3.066192 1_555
Ba1 O8 3.066197 1_555
Ba1 O4 3.094143 1_555
Ba1 O16 3.094143 1_655
Ba2 O6 2.875898 1_555
Ba2 O12 2.875905 1_455
Ba2 O9 2.932880 1_556
Ba2 O2 3.037790 1_455
Ba2 O2 3.037796 1_555
Ba2 O10 3.060628 1_565
Ba2 O17 3.061871 1_565
Ba2 O5 3.061878 1_465
Ba2 O4 3.066203 1_555
Ba2 O16 3.066209 1_555
Ba2 O14 3.094143 1_565
Ba2 O8 3.094143 1_465
Ba3 O3 2.996237 1_555
Ba3 O12 2.996237 1_554
Ba3 O15 2.996240 1_555
Ba3 O6 2.996240 1_554
Ba3 O9 3.026027 1_555
Ba3 O9 3.026027 1_655
Ba3 O1 3.092540 1_555
Ba3 O2 3.092541 1_554
Ba3 O5 3.099539 1_564
Ba3 O17 3.099541 1_564
Ba3 O13 3.099551 1_555
Ba3 O7 3.099554 1_555
Ba4 O15 2.875898 1_555
Ba4 O3 2.875905 1_655
Ba4 O0 2.932880 1_655
Ba4 O10 3.037790 1_655
Ba4 O10 3.037796 1_555
Ba4 O2 3.060628 1_545
Ba4 O7 3.061871 1_545
Ba4 O13 3.061878 1_645
Ba4 O14 3.066203 1_555
Ba4 O8 3.066209 1_555
Ba4 O4 3.094143 1_545
Ba4 O16 3.094143 1_645
Ba5 O6 2.875892 1_555
Ba5 O12 2.875899 1_455
Ba5 O0 2.932881 1_556
Ba5 O11 3.037789 1_455
Ba5 O11 3.037795 1_555
Ba5 O1 3.060627 1_555
Ba5 O17 3.061890 1_555
Ba5 O5 3.061896 1_455
Ba5 O4 3.066192 1_555
Ba5 O16 3.066197 1_555
Ba5 O14 3.094143 1_555
Ba5 O8 3.094143 1_455
O0 Y0 2.108010 1_555
O0 Y3 2.172687 1_555
O1 W0 1.947496 1_555
O1 Y1 2.335102 1_555
O2 W1 1.947483 1_565
O2 Y2 2.335111 1_555
O3 Y1 2.120232 1_555
O3 Y3 2.219451 1_555
O4 W0 1.934065 1_555
O4 Y2 2.292836 1_555
O5 W1 1.935774 1_555
O5 Y0 2.320746 1_656
O6 Y2 2.120241 1_555
O6 Y3 2.219447 1_556
O7 W0 1.935774 1_555
O7 Y0 2.320741 1_665
O8 W1 1.934060 1_555
O8 Y1 2.292827 1_655
O9 Y0 2.108010 1_565
O9 Y3 2.172687 1_555
O10 W0 1.947487 1_545
O10 Y1 2.335111 1_555
O11 W1 1.947500 1_555
O11 Y2 2.335102 1_555
O12 Y2 2.120232 1_555
O12 Y3 2.219451 1_656
O13 W0 1.935765 1_555
O13 Y0 2.320746 1_565
O14 W1 1.934056 1_555
O14 Y1 2.292836 1_555
O15 Y1 2.120241 1_555
O15 Y3 2.219447 1_655
O16 W0 1.934065 1_555
O16 Y2 2.292827 1_455
O17 W1 1.935778 1_555
O17 Y0 2.320741 1_556
