# generated using pymatgen
data_Tl4SnSe3
_symmetry_space_group_name_H-M   'P 1'
_cell_length_a   8.51384500
_cell_length_b   8.51384500
_cell_length_c   8.82397214
_cell_angle_alpha   118.84403793
_cell_angle_beta   118.84403793
_cell_angle_gamma   90.00000000
_symmetry_Int_Tables_number   1
_chemical_formula_structural   Tl4SnSe3
_chemical_formula_sum   'Tl8 Sn2 Se6'
_cell_volume   467.62846386
_cell_formula_units_Z   2
loop_
 _symmetry_equiv_pos_site_id
 _symmetry_equiv_pos_as_xyz
  1  'x, y, z'
loop_
 _atom_site_type_symbol
 _atom_site_label
 _atom_site_symmetry_multiplicity
 _atom_site_fract_x
 _atom_site_fract_y
 _atom_site_fract_z
 _atom_site_occupancy
  Tl  Tl0  1  0.00597700  0.80503600  0.31101200  1
  Tl  Tl1  1  0.30503600  0.50597700  0.31101200  1
  Tl  Tl2  1  0.80503600  0.30503600  0.31101200  1
  Tl  Tl3  1  0.50597700  0.00597700  0.31101200  1
  Tl  Tl4  1  0.99402300  0.19496400  0.68898800  1
  Tl  Tl5  1  0.69496400  0.49402300  0.68898800  1
  Tl  Tl6  1  0.19496400  0.69496400  0.68898800  1
  Tl  Tl7  1  0.49402300  0.99402300  0.68898800  1
  Sn  Sn0  1  0.50000000  0.50000000  0.00000000  1
  Sn  Sn1  1  0.00000000  0.00000000  0.00000000  1
  Se  Se0  1  0.75000000  0.75000000  0.50000000  1
  Se  Se1  1  0.25000000  0.25000000  0.50000000  1
  Se  Se2  1  0.66501000  0.83499000  0.00000000  1
  Se  Se3  1  0.33499000  0.16501000  0.00000000  1
  Se  Se4  1  0.83499000  0.33499000  0.00000000  1
  Se  Se5  1  0.16501000  0.66501000  0.00000000  1
loop_
_geom_bond_atom_site_label_1
_geom_bond_atom_site_label_2
_geom_bond_distance
_geom_bond_site_symmetry_2
Se0 Sn1 3.225667 1_666
Se0 Sn0 3.225667 1_555
Se1 Sn0 3.225667 1_556
Se1 Sn1 3.225667 1_555
Se2 Tl5 3.002029 1_554
Se2 Tl0 3.002029 1_655
Se2 Sn1 3.179287 1_665
Se2 Sn0 3.179287 1_555
Se2 Tl3 3.348809 1_565
Se2 Tl7 3.348809 1_554
Se2 Tl2 3.348816 1_565
Se2 Tl6 3.348816 1_554
Se3 Tl4 3.002029 1_454
Se3 Tl1 3.002029 1_555
Se3 Sn1 3.179287 1_555
Se3 Sn0 3.179287 1_555
Se3 Tl7 3.348809 1_544
Se3 Tl3 3.348809 1_555
Se3 Tl6 3.348816 1_544
Se3 Tl2 3.348816 1_555
Se4 Tl2 3.002025 1_555
Se4 Tl7 3.002033 1_544
Se4 Sn1 3.179287 1_655
Se4 Sn0 3.179287 1_555
Se4 Tl4 3.348809 1_554
Se4 Tl5 3.348809 1_554
Se4 Tl1 3.348816 1_655
Se4 Tl0 3.348816 1_655
Se5 Tl6 3.002025 1_554
Se5 Tl3 3.002033 1_565
Se5 Sn1 3.179287 1_565
Se5 Sn0 3.179287 1_555
Se5 Tl0 3.348809 1_555
Se5 Tl1 3.348809 1_555
Se5 Tl4 3.348816 1_454
Se5 Tl5 3.348816 1_454
