# generated using pymatgen
data_La(SmB8)3
_symmetry_space_group_name_H-M   'P 1'
_cell_length_a   7.17950005
_cell_length_b   7.17950005
_cell_length_c   5.79610200
_cell_angle_alpha   90.00000000
_cell_angle_beta   90.00000000
_cell_angle_gamma   109.89398935
_symmetry_Int_Tables_number   1
_chemical_formula_structural   La(SmB8)3
_chemical_formula_sum   'La1 Sm3 B24'
_cell_volume   280.93242453
_cell_formula_units_Z   1
loop_
 _symmetry_equiv_pos_site_id
 _symmetry_equiv_pos_as_xyz
  1  'x, y, z'
loop_
 _atom_site_type_symbol
 _atom_site_label
 _atom_site_symmetry_multiplicity
 _atom_site_fract_x
 _atom_site_fract_y
 _atom_site_fract_z
 _atom_site_occupancy
  La  La0  1  0.00000000  0.00000000  0.00000000  1
  Sm  Sm0  1  0.74851800  0.25148200  0.50000000  1
  Sm  Sm1  1  0.50000000  0.50000000  0.00000000  1
  Sm  Sm2  1  0.25148200  0.74851800  0.50000000  1
  B  B0  1  0.17631300  0.32508100  0.65116200  1
  B  B1  1  0.92549300  0.57449600  0.15110800  1
  B  B2  1  0.67491900  0.82368700  0.65116200  1
  B  B3  1  0.42550400  0.07450700  0.15110800  1
  B  B4  1  0.17631300  0.32508100  0.34883800  1
  B  B5  1  0.92549300  0.57449600  0.84889200  1
  B  B6  1  0.67491900  0.82368700  0.34883800  1
  B  B7  1  0.42550400  0.07450700  0.84889200  1
  B  B8  1  0.40032800  0.40032800  0.50000000  1
  B  B9  1  0.14975200  0.65015100  0.00000000  1
  B  B10  1  0.89955700  0.89955700  0.50000000  1
  B  B11  1  0.65015100  0.14975200  0.00000000  1
  B  B12  1  0.32508100  0.17631300  0.65116200  1
  B  B13  1  0.07450700  0.42550400  0.15110800  1
  B  B14  1  0.82368700  0.67491900  0.65116200  1
  B  B15  1  0.57449600  0.92549300  0.15110800  1
  B  B16  1  0.10044300  0.10044300  0.50000000  1
  B  B17  1  0.85024800  0.34984900  0.00000000  1
  B  B18  1  0.59967200  0.59967200  0.50000000  1
  B  B19  1  0.34984900  0.85024800  0.00000000  1
  B  B20  1  0.32508100  0.17631300  0.34883800  1
  B  B21  1  0.07450700  0.42550400  0.84889200  1
  B  B22  1  0.82368700  0.67491900  0.34883800  1
  B  B23  1  0.57449600  0.92549300  0.84889200  1
loop_
_geom_bond_atom_site_label_1
_geom_bond_atom_site_label_2
_geom_bond_distance
_geom_bond_site_symmetry_2
B0 B21 1.651110 1_555
B0 B8 1.747814 1_555
B0 B12 1.748705 1_555
B0 B16 1.751445 1_555
B0 B4 1.752301 1_555
B0 Sm1 3.013234 1_556
B0 La0 3.021089 1_556
B0 Sm2 3.030565 1_555
B0 Sm0 3.061956 1_455
B1 B22 1.651110 1_555
B1 B9 1.749075 1_655
B1 B17 1.751358 1_555
B1 B13 1.751468 1_655
B1 B5 1.751675 1_554
B1 Sm0 3.012729 1_555
B1 Sm2 3.022901 1_655
B1 Sm1 3.045189 1_555
B1 La0 3.045251 1_665
B2 B23 1.651110 1_555
B2 B6 1.752301 1_555
B2 Sm1 3.013234 1_556
B2 La0 3.021089 1_666
B2 Sm2 3.030565 1_555
B2 Sm0 3.061956 1_565
B3 B7 1.751675 1_554
B3 Sm0 3.012729 1_555
B3 Sm2 3.022901 1_545
B3 Sm1 3.045189 1_555
B3 La0 3.045251 1_555
B4 B8 1.747814 1_555
B4 Sm1 3.013234 1_555
B4 La0 3.021089 1_555
B4 Sm2 3.030565 1_555
B4 Sm0 3.061956 1_455
B5 B9 1.749075 1_656
B5 Sm0 3.012729 1_555
B5 Sm2 3.022901 1_655
B5 Sm1 3.045189 1_556
B5 La0 3.045251 1_666
B6 Sm1 3.013234 1_555
B6 La0 3.021089 1_665
B6 Sm2 3.030565 1_555
B6 Sm0 3.061956 1_565
B7 Sm0 3.012729 1_555
B7 Sm2 3.022901 1_545
B7 Sm1 3.045189 1_556
B7 La0 3.045251 1_556
B8 Sm1 3.012367 1_555
B8 Sm1 3.012367 1_556
B8 Sm2 3.034668 1_555
B8 Sm0 3.034668 1_555
B9 Sm2 3.013280 1_554
B9 Sm2 3.013280 1_555
B9 La0 3.050020 1_565
B9 Sm1 3.054536 1_555
B10 B16 1.656679 1_665
B10 B6 1.751445 1_555
B10 B22 1.751445 1_555
B10 B14 1.751445 1_555
B10 B2 1.751445 1_555
B10 La0 3.014108 1_666
B10 La0 3.014108 1_665
B10 Sm2 3.069930 1_655
B10 Sm0 3.069930 1_565
B11 B17 1.650172 1_555
B11 B15 1.749075 1_545
B11 B23 1.749075 1_544
B11 B3 1.751358 1_555
B11 B7 1.751358 1_554
B11 Sm0 3.013280 1_555
B11 Sm0 3.013280 1_554
B11 La0 3.050020 1_655
B11 Sm1 3.054536 1_555
B12 B7 1.651110 1_555
B12 B8 1.747814 1_555
B12 B16 1.751445 1_555
B12 B20 1.752301 1_555
B12 Sm1 3.013234 1_556
B12 La0 3.021089 1_556
B12 Sm0 3.030565 1_555
B12 Sm2 3.061956 1_545
B13 B4 1.651110 1_555
B13 B17 1.749075 1_455
B13 B9 1.751358 1_555
B13 B21 1.751675 1_554
B13 Sm2 3.012729 1_555
B13 Sm0 3.022901 1_455
B13 Sm1 3.045189 1_555
B13 La0 3.045251 1_555
B14 B5 1.651110 1_555
B14 B18 1.747814 1_555
B14 B2 1.748705 1_555
B14 B22 1.752301 1_555
B14 Sm1 3.013234 1_556
B14 La0 3.021089 1_666
B14 Sm0 3.030565 1_555
B14 Sm2 3.061956 1_655
B15 B6 1.651110 1_555
B15 B19 1.751358 1_555
B15 B3 1.751468 1_565
B15 B23 1.751675 1_554
B15 Sm2 3.012729 1_555
B15 Sm0 3.022901 1_565
B15 Sm1 3.045189 1_555
B15 La0 3.045251 1_665
B16 B4 1.751445 1_555
B16 B20 1.751445 1_555
B16 La0 3.014108 1_556
B16 La0 3.014108 1_555
B16 Sm0 3.069930 1_455
B16 Sm2 3.069930 1_545
B17 B21 1.749075 1_654
B17 B5 1.751358 1_554
B17 Sm0 3.013280 1_555
B17 Sm0 3.013280 1_554
B17 La0 3.050020 1_655
B17 Sm1 3.054536 1_555
B18 B8 1.643962 1_555
B18 B22 1.747814 1_555
B18 B6 1.747814 1_555
B18 B2 1.747814 1_555
B18 Sm1 3.012367 1_555
B18 Sm1 3.012367 1_556
B18 Sm2 3.034668 1_555
B18 Sm0 3.034668 1_555
B19 B9 1.650172 1_555
B19 B3 1.749075 1_565
B19 B7 1.749075 1_564
B19 B23 1.751358 1_554
B19 Sm2 3.013280 1_554
B19 Sm2 3.013280 1_555
B19 La0 3.050020 1_565
B19 Sm1 3.054536 1_555
B20 B3 1.651110 1_555
B20 B8 1.747814 1_555
B20 B4 1.748705 1_555
B20 Sm1 3.013234 1_555
B20 La0 3.021089 1_555
B20 Sm0 3.030565 1_555
B20 Sm2 3.061956 1_545
B21 B9 1.751358 1_556
B21 B5 1.751468 1_455
B21 Sm2 3.012729 1_555
B21 Sm0 3.022901 1_455
B21 Sm1 3.045189 1_556
B21 La0 3.045251 1_556
B22 B6 1.748705 1_555
B22 Sm1 3.013234 1_555
B22 La0 3.021089 1_665
B22 Sm0 3.030565 1_555
B22 Sm2 3.061956 1_655
B23 B7 1.751468 1_565
B23 Sm2 3.012729 1_555
B23 Sm0 3.022901 1_565
B23 Sm1 3.045189 1_556
B23 La0 3.045251 1_666
