# generated using pymatgen
data_Ba2Mg3Mn4Tl2O12
_symmetry_space_group_name_H-M   'P 1'
_cell_length_a   3.83653179
_cell_length_b   3.83653213
_cell_length_c   23.06727865
_cell_angle_alpha   94.77019995
_cell_angle_beta   94.77020195
_cell_angle_gamma   90.00000049
_symmetry_Int_Tables_number   1
_chemical_formula_structural   Ba2Mg3Mn4Tl2O12
_chemical_formula_sum   'Ba2 Mg3 Mn4 Tl2 O12'
_cell_volume   337.17057836
_cell_formula_units_Z   1
loop_
 _symmetry_equiv_pos_site_id
 _symmetry_equiv_pos_as_xyz
  1  'x, y, z'
loop_
 _atom_site_type_symbol
 _atom_site_label
 _atom_site_symmetry_multiplicity
 _atom_site_fract_x
 _atom_site_fract_y
 _atom_site_fract_z
 _atom_site_occupancy
  Ba  Ba0  1  0.16344300  0.16344300  0.32688600  1
  Ba  Ba1  1  0.83655700  0.83655700  0.67311400  1
  Mg  Mg0  1  0.07828800  0.07828800  0.15657800  1
  Mg  Mg1  1  0.92171200  0.92171200  0.84342200  1
  Mg  Mg2  1  0.00000000  0.00000000  0.00000000  1
  Mn  Mn0  1  0.53579000  0.53579000  0.07158000  1
  Mn  Mn1  1  0.39190200  0.39190200  0.78380300  1
  Mn  Mn2  1  0.60809800  0.60809800  0.21619700  1
  Mn  Mn3  1  0.46421000  0.46421000  0.92842000  1
  Tl  Tl0  1  0.72486500  0.72486500  0.44972800  1
  Tl  Tl1  1  0.27513500  0.27513500  0.55027200  1
  O  O0  1  0.40495300  0.90495300  0.80990600  1
  O  O1  1  0.52998900  0.02998900  0.05997800  1
  O  O2  1  0.22112800  0.22112800  0.44225600  1
  O  O3  1  0.97001100  0.47001100  0.94002200  1
  O  O4  1  0.77887200  0.77887200  0.55774400  1
  O  O5  1  0.09504700  0.59504700  0.19009400  1
  O  O6  1  0.59504700  0.09504700  0.19009400  1
  O  O7  1  0.34750400  0.34750400  0.69500700  1
  O  O8  1  0.90495300  0.40495300  0.80990600  1
  O  O9  1  0.02998900  0.52998900  0.05997800  1
  O  O10  1  0.47001100  0.97001100  0.94002200  1
  O  O11  1  0.65249600  0.65249600  0.30499300  1
loop_
_geom_bond_atom_site_label_1
_geom_bond_atom_site_label_2
_geom_bond_distance
_geom_bond_site_symmetry_2
Ba0 O2 2.642804 1_555
Ba0 O11 2.758801 1_555
Ba0 O11 2.758804 1_455
Ba0 O11 2.758804 1_545
Ba0 O11 2.758806 1_445
Ba1 O4 2.642804 1_555
Ba1 O7 2.758801 1_555
Ba1 O7 2.758804 1_655
Ba1 O7 2.758804 1_565
Ba1 O7 2.758806 1_665
Mg0 O6 2.066200 1_455
Mg0 O5 2.066200 1_545
Mg0 O6 2.066207 1_555
Mg0 O5 2.066207 1_555
Mg1 O0 2.066200 1_655
Mg1 O8 2.066200 1_565
Mg1 O0 2.066207 1_555
Mg1 O8 2.066207 1_555
Mg2 O1 2.359539 1_455
Mg2 O10 2.359539 1_544
Mg2 O10 2.359539 1_444
Mg2 O1 2.359539 1_555
Mg2 O3 2.359539 1_454
Mg2 O9 2.359539 1_545
Mg2 O3 2.359539 1_444
Mg2 O9 2.359539 1_555
Mn0 O9 1.936589 1_655
Mn0 O9 1.936589 1_555
Mn0 O1 1.936589 1_565
Mn0 O1 1.936589 1_555
Mn1 O8 2.009298 1_555
Mn1 O0 2.009298 1_555
Mn1 O8 2.009301 1_455
Mn1 O0 2.009301 1_545
Mn1 O7 2.034068 1_555
Mn2 O5 2.009298 1_555
Mn2 O6 2.009298 1_555
Mn2 O5 2.009301 1_655
Mn2 O6 2.009301 1_565
Mn2 O11 2.034068 1_555
Mn3 O3 1.936589 1_455
Mn3 O3 1.936589 1_555
Mn3 O10 1.936589 1_545
Mn3 O10 1.936589 1_555
O2 Tl1 2.474344 1_555
O2 Tl0 2.718227 1_445
O2 Tl0 2.718232 1_545
O2 Tl0 2.718232 1_455
O2 Tl0 2.718237 1_555
O4 Tl0 2.474344 1_555
O4 Tl1 2.718227 1_665
O4 Tl1 2.718232 1_565
O4 Tl1 2.718232 1_655
O4 Tl1 2.718237 1_555
