# generated using pymatgen
data_Hf5CoP3
_symmetry_space_group_name_H-M   'P 1'
_cell_length_a   3.57153126
_cell_length_b   10.16521080
_cell_length_c   16.93282091
_cell_angle_alpha   90.00000000
_cell_angle_beta   90.00000000
_cell_angle_gamma   90.00000000
_symmetry_Int_Tables_number   1
_chemical_formula_structural   Hf5CoP3
_chemical_formula_sum   'Hf20 Co4 P12'
_cell_volume   614.75229673
_cell_formula_units_Z   4
loop_
 _symmetry_equiv_pos_site_id
 _symmetry_equiv_pos_as_xyz
  1  'x, y, z'
loop_
 _atom_site_type_symbol
 _atom_site_label
 _atom_site_symmetry_multiplicity
 _atom_site_fract_x
 _atom_site_fract_y
 _atom_site_fract_z
 _atom_site_occupancy
  Hf  Hf0  1  0.25000000  0.12152161  0.47718289  1
  Hf  Hf1  1  0.75000000  0.87847839  0.52281711  1
  Hf  Hf2  1  0.75000000  0.62152161  0.02281711  1
  Hf  Hf3  1  0.25000000  0.37847839  0.97718289  1
  Hf  Hf4  1  0.25000000  0.06029466  0.07537729  1
  Hf  Hf5  1  0.75000000  0.93970534  0.92462271  1
  Hf  Hf6  1  0.75000000  0.56029466  0.42462271  1
  Hf  Hf7  1  0.25000000  0.43970534  0.57537729  1
  Hf  Hf8  1  0.25000000  0.48817193  0.27337160  1
  Hf  Hf9  1  0.75000000  0.51182807  0.72662840  1
  Hf  Hf10  1  0.75000000  0.98817193  0.22662840  1
  Hf  Hf11  1  0.25000000  0.01182807  0.77337160  1
  Hf  Hf12  1  0.25000000  0.81552439  0.36900058  1
  Hf  Hf13  1  0.75000000  0.18447561  0.63099942  1
  Hf  Hf14  1  0.75000000  0.31552439  0.13099942  1
  Hf  Hf15  1  0.25000000  0.68447561  0.86900058  1
  Hf  Hf16  1  0.25000000  0.75403894  0.16869800  1
  Hf  Hf17  1  0.75000000  0.24596106  0.83130200  1
  Hf  Hf18  1  0.75000000  0.25403894  0.33130200  1
  Hf  Hf19  1  0.25000000  0.74596106  0.66869800  1
  Co  Co0  1  0.25000000  0.36506717  0.41139033  1
  Co  Co1  1  0.75000000  0.63493283  0.58860967  1
  Co  Co2  1  0.75000000  0.86506717  0.08860967  1
  Co  Co3  1  0.25000000  0.13493283  0.91139033  1
  P  P0  1  0.25000000  0.81176473  0.00989498  1
  P  P1  1  0.75000000  0.18823527  0.99010502  1
  P  P2  1  0.75000000  0.31176473  0.49010502  1
  P  P3  1  0.25000000  0.68823527  0.50989498  1
  P  P4  1  0.25000000  0.50695829  0.11691834  1
  P  P5  1  0.75000000  0.49304171  0.88308166  1
  P  P6  1  0.75000000  0.00695829  0.38308166  1
  P  P7  1  0.25000000  0.99304171  0.61691834  1
  P  P8  1  0.25000000  0.18508243  0.21683472  1
  P  P9  1  0.75000000  0.81491757  0.78316528  1
  P  P10  1  0.75000000  0.68508243  0.28316528  1
  P  P11  1  0.25000000  0.31491757  0.71683472  1
loop_
_geom_bond_atom_site_label_1
_geom_bond_atom_site_label_2
_geom_bond_distance
_geom_bond_site_symmetry_2
Hf0 P2 2.641336 1_455
Hf0 P2 2.641336 1_555
Hf0 P6 2.661594 1_555
Hf0 P6 2.661594 1_455
Hf0 P7 2.702629 1_545
Hf1 P3 2.641336 1_555
Hf1 P3 2.641336 1_655
Hf1 P7 2.661594 1_555
Hf1 P7 2.661594 1_655
Hf1 P6 2.702629 1_565
Hf2 P0 2.641336 1_555
Hf2 P0 2.641336 1_655
Hf2 P4 2.661594 1_555
Hf2 P4 2.661594 1_655
Hf2 P5 2.702629 1_554
Hf3 P1 2.641336 1_455
Hf3 P1 2.641336 1_555
Hf3 P5 2.661594 1_555
Hf3 P5 2.661594 1_455
Hf3 P4 2.702629 1_556
Hf4 P1 2.639170 1_554
Hf4 P1 2.639170 1_454
Hf4 P8 2.710426 1_555
Hf4 P0 2.758972 1_545
Hf5 P0 2.639170 1_656
Hf5 P0 2.639170 1_556
Hf5 P9 2.710426 1_555
Hf5 P1 2.758972 1_565
Hf6 P3 2.639170 1_555
Hf6 P3 2.639170 1_655
Hf6 P10 2.710426 1_555
Hf6 P2 2.758972 1_555
Hf7 P2 2.639170 1_555
Hf7 P2 2.639170 1_455
Hf7 P11 2.710426 1_555
Hf7 P3 2.758972 1_555
Hf8 P4 2.656069 1_555
Hf8 P10 2.687566 1_555
Hf8 P10 2.687566 1_455
Hf8 P8 3.226274 1_555
Hf9 P5 2.656069 1_555
Hf9 P11 2.687566 1_655
Hf9 P11 2.687566 1_555
Hf9 P9 3.226274 1_555
Hf10 P6 2.656069 1_565
Hf10 P8 2.687566 1_565
Hf10 P8 2.687566 1_665
Hf10 P10 3.226274 1_555
Hf11 P7 2.656069 1_545
Hf11 P9 2.687566 1_545
Hf11 P9 2.687566 1_445
Hf11 P11 3.226274 1_555
Hf12 P6 2.651904 1_465
Hf12 P6 2.651904 1_565
Hf12 P10 2.656995 1_555
Hf12 P10 2.656995 1_455
Hf12 P3 2.714035 1_555
Hf13 P7 2.651904 1_545
Hf13 P7 2.651904 1_645
Hf13 P11 2.656995 1_555
Hf13 P11 2.656995 1_655
Hf13 P2 2.714035 1_555
Hf14 P4 2.651904 1_555
Hf14 P4 2.651904 1_655
Hf14 P8 2.656995 1_655
Hf14 P8 2.656995 1_555
Hf14 P1 2.714035 1_554
Hf15 P5 2.651904 1_555
Hf15 P5 2.651904 1_455
Hf15 P9 2.656995 1_455
Hf15 P9 2.656995 1_555
Hf15 P0 2.714035 1_556
Hf16 P4 2.660264 1_555
Hf16 P10 2.727110 1_555
Hf16 P10 2.727110 1_455
Hf16 P0 2.752264 1_555
Hf17 P5 2.660264 1_555
Hf17 P11 2.727110 1_655
Hf17 P11 2.727110 1_555
Hf17 P1 2.752264 1_555
Hf18 P6 2.660264 1_555
Hf18 P8 2.727110 1_655
Hf18 P8 2.727110 1_555
Hf18 P2 2.752264 1_555
Hf19 P7 2.660264 1_555
Hf19 P9 2.727110 1_555
Hf19 P9 2.727110 1_455
Hf19 P3 2.752264 1_555
Co0 P2 2.293264 1_455
Co0 P2 2.293264 1_555
Co0 Hf18 2.510342 1_455
Co0 Hf18 2.510342 1_555
Co0 Hf8 2.650991 1_555
Co0 Hf6 2.679089 1_555
Co0 Hf6 2.679089 1_455
Co0 Hf0 2.714805 1_555
Co0 Hf7 2.878550 1_555
Co1 P3 2.293264 1_555
Co1 P3 2.293264 1_655
Co1 Hf19 2.510342 1_555
Co1 Hf19 2.510342 1_655
Co1 Hf9 2.650991 1_555
Co1 Hf7 2.679089 1_655
Co1 Hf7 2.679089 1_555
Co1 Hf1 2.714805 1_555
Co1 Hf6 2.878550 1_555
Co2 P0 2.293264 1_555
Co2 P0 2.293264 1_655
Co2 Hf16 2.510342 1_555
Co2 Hf16 2.510342 1_655
Co2 Hf10 2.650991 1_555
Co2 Hf4 2.679089 1_565
Co2 Hf4 2.679089 1_665
Co2 Hf2 2.714805 1_555
Co2 Hf5 2.878550 1_554
Co3 P1 2.293264 1_455
Co3 P1 2.293264 1_555
Co3 Hf17 2.510342 1_555
Co3 Hf17 2.510342 1_455
Co3 Hf11 2.650991 1_555
Co3 Hf5 2.679089 1_545
Co3 Hf5 2.679089 1_445
Co3 Hf3 2.714805 1_555
Co3 Hf4 2.878550 1_556
