# generated using pymatgen
data_SrEuC4
_symmetry_space_group_name_H-M   'P 1'
_cell_length_a   4.40780925
_cell_length_b   4.40780925
_cell_length_c   5.75005517
_cell_angle_alpha   90.00000000
_cell_angle_beta   90.00000000
_cell_angle_gamma   81.14366013
_symmetry_Int_Tables_number   1
_chemical_formula_structural   SrEuC4
_chemical_formula_sum   'Sr1 Eu1 C4'
_cell_volume   110.38462619
_cell_formula_units_Z   1
loop_
 _symmetry_equiv_pos_site_id
 _symmetry_equiv_pos_as_xyz
  1  'x, y, z'
loop_
 _atom_site_type_symbol
 _atom_site_label
 _atom_site_symmetry_multiplicity
 _atom_site_fract_x
 _atom_site_fract_y
 _atom_site_fract_z
 _atom_site_occupancy
  Sr  Sr0  1  0.50000000  0.50000000  0.50000000  1
  Eu  Eu0  1  0.00000000  0.00000000  0.00000000  1
  C  C0  1  0.40511800  0.40511800  0.00000000  1
  C  C1  1  0.90576400  0.90576400  0.50000000  1
  C  C2  1  0.09423600  0.09423600  0.50000000  1
  C  C3  1  0.59488200  0.59488200  0.00000000  1
loop_
_geom_bond_atom_site_label_1
_geom_bond_atom_site_label_2
_geom_bond_distance
_geom_bond_site_symmetry_2
C0 C3 1.270710 1_555
C0 Eu0 2.712778 1_555
C0 Eu0 2.936403 1_565
C0 Eu0 2.936403 1_655
C0 Sr0 2.944395 1_555
C0 Sr0 2.944395 1_554
C1 C2 1.262059 1_665
C1 Sr0 2.717104 1_555
C1 Sr0 2.935470 1_655
C1 Sr0 2.935470 1_565
C1 Eu0 2.943464 1_665
C1 Eu0 2.943464 1_666
C2 Sr0 2.717104 1_555
C2 Sr0 2.935470 1_455
C2 Sr0 2.935470 1_545
C2 Eu0 2.943464 1_555
C2 Eu0 2.943464 1_556
C3 Eu0 2.712778 1_665
C3 Eu0 2.936403 1_565
C3 Eu0 2.936403 1_655
C3 Sr0 2.944395 1_555
C3 Sr0 2.944395 1_554
