# generated using pymatgen
data_CoC2N3
_symmetry_space_group_name_H-M   'P 1'
_cell_length_a   8.39775187
_cell_length_b   11.71575912
_cell_length_c   5.04966902
_cell_angle_alpha   90.00000790
_cell_angle_beta   91.41049426
_cell_angle_gamma   45.76896284
_symmetry_Int_Tables_number   1
_chemical_formula_structural   CoC2N3
_chemical_formula_sum   'Co4 C8 N12'
_cell_volume   355.77552961
_cell_formula_units_Z   4
loop_
 _symmetry_equiv_pos_site_id
 _symmetry_equiv_pos_as_xyz
  1  'x, y, z'
loop_
 _atom_site_type_symbol
 _atom_site_label
 _atom_site_symmetry_multiplicity
 _atom_site_fract_x
 _atom_site_fract_y
 _atom_site_fract_z
 _atom_site_occupancy
  Co  Co0  1  0.00000000  0.01664263  0.75000000  1
  Co  Co1  1  1.00000000  0.98335737  0.25000000  1
  Co  Co2  1  1.00000000  0.52214797  0.75000000  1
  Co  Co3  1  0.00000000  0.47785203  0.25000000  1
  C  C0  1  0.23150164  0.69555776  0.62197997  1
  C  C1  1  0.76849836  0.92705940  0.87802003  1
  C  C2  1  0.76849836  0.30444224  0.37802003  1
  C  C3  1  0.23150164  0.07294060  0.12197997  1
  C  C4  1  0.21836140  0.53100513  0.85320572  1
  C  C5  1  0.78163860  0.74936653  0.64679428  1
  C  C6  1  0.78163860  0.46899487  0.14679428  1
  C  C7  1  0.21836140  0.25063347  0.35320572  1
  N  N0  1  0.15771771  0.81906487  0.52384269  1
  N  N1  1  0.84228229  0.97678258  0.97615731  1
  N  N2  1  0.84228229  0.18093513  0.47615731  1
  N  N3  1  0.15771771  0.02321742  0.02384269  1
  N  N4  1  0.32032959  0.56812581  0.74184799  1
  N  N5  1  0.67967041  0.88845640  0.75815201  1
  N  N6  1  0.67967041  0.43187419  0.25815201  1
  N  N7  1  0.32032959  0.11154360  0.24184799  1
  N  N8  1  0.19987212  0.48349014  0.05693221  1
  N  N9  1  0.80012788  0.68336126  0.44306779  1
  N  N10  1  0.80012788  0.51650986  0.94306779  1
  N  N11  1  0.19987212  0.31663874  0.55693221  1
loop_
_geom_bond_atom_site_label_1
_geom_bond_atom_site_label_2
_geom_bond_distance
_geom_bond_site_symmetry_2
Co0 N3 1.929899 1_556
Co0 N2 1.929899 1_455
Co0 N0 2.052774 1_545
Co0 N1 2.052775 1_445
Co1 N1 1.929899 1_554
Co1 N0 1.929899 1_655
Co1 N2 2.052774 1_565
Co1 N3 2.052775 1_665
Co2 N11 2.001834 1_655
Co2 N10 2.001842 1_555
Co2 N9 2.058149 1_555
Co2 N8 2.058153 1_656
Co3 N9 2.001834 1_455
Co3 N8 2.001842 1_555
Co3 N11 2.058149 1_555
Co3 N10 2.058153 1_454
C0 N0 1.207196 1_555
C0 N4 1.255321 1_555
C1 N1 1.207196 1_555
C1 N5 1.255312 1_555
C2 N2 1.207196 1_555
C2 N6 1.255321 1_555
C3 N3 1.207196 1_555
C3 N7 1.255312 1_555
C4 N8 1.233196 1_556
C4 N4 1.334857 1_555
C4 Co2 1.965556 1_455
C5 N9 1.233202 1_555
C5 N5 1.334866 1_555
C5 Co2 1.965556 1_555
C6 N10 1.233196 1_554
C6 N6 1.334857 1_555
C6 Co3 1.965556 1_655
C7 N11 1.233202 1_555
C7 N7 1.334866 1_555
C7 Co3 1.965556 1_555
