# generated using pymatgen
data_Na2MgB12(H4O7)4
_symmetry_space_group_name_H-M   'P 1'
_cell_length_a   7.57122900
_cell_length_b   7.83543149
_cell_length_c   19.07274373
_cell_angle_alpha   97.96976195
_cell_angle_beta   90.00000000
_cell_angle_gamma   90.00000000
_symmetry_Int_Tables_number   1
_chemical_formula_structural   Na2MgB12(H4O7)4
_chemical_formula_sum   'Na4 Mg2 B24 H32 O56'
_cell_volume   1120.54008974
_cell_formula_units_Z   2
loop_
 _symmetry_equiv_pos_site_id
 _symmetry_equiv_pos_as_xyz
  1  'x, y, z'
loop_
 _atom_site_type_symbol
 _atom_site_label
 _atom_site_symmetry_multiplicity
 _atom_site_fract_x
 _atom_site_fract_y
 _atom_site_fract_z
 _atom_site_occupancy
  Na  Na0  1  0.17495700  0.29022000  0.66320000  1
  Na  Na1  1  0.67495700  0.70978000  0.83680000  1
  Na  Na2  1  0.82504300  0.70978000  0.33680000  1
  Na  Na3  1  0.32504300  0.29022000  0.16320000  1
  Mg  Mg0  1  0.50000000  0.00000000  0.50000000  1
  Mg  Mg1  1  0.00000000  0.00000000  0.00000000  1
  B  B0  1  0.45791200  0.25440100  0.97339000  1
  B  B1  1  0.95791200  0.74559900  0.52661000  1
  B  B2  1  0.54208800  0.74559900  0.02661000  1
  B  B3  1  0.04208800  0.25440100  0.47339000  1
  B  B4  1  0.34419400  0.98660400  0.75719800  1
  B  B5  1  0.84419400  0.01339600  0.74280200  1
  B  B6  1  0.65580600  0.01339600  0.24280200  1
  B  B7  1  0.15580600  0.98660400  0.25719800  1
  B  B8  1  0.30546300  0.02890500  0.88788700  1
  B  B9  1  0.80546300  0.97109500  0.61211300  1
  B  B10  1  0.69453700  0.97109500  0.11211300  1
  B  B11  1  0.19453700  0.02890500  0.38788700  1
  B  B12  1  0.15540600  0.32481400  0.93496200  1
  B  B13  1  0.65540600  0.67518600  0.56503800  1
  B  B14  1  0.84459400  0.67518600  0.06503800  1
  B  B15  1  0.34459400  0.32481400  0.43496200  1
  B  B16  1  0.09740200  0.18199000  0.80208800  1
  B  B17  1  0.59740200  0.81801000  0.69791200  1
  B  B18  1  0.90259800  0.81801000  0.19791200  1
  B  B19  1  0.40259800  0.18199000  0.30208800  1
  B  B20  1  0.05222700  0.49565300  0.84076100  1
  B  B21  1  0.55222700  0.50434700  0.65923900  1
  B  B22  1  0.94777300  0.50434700  0.15923900  1
  B  B23  1  0.44777300  0.49565300  0.34076100  1
  H  H0  1  0.26662300  0.82941500  0.94455500  1
  H  H1  1  0.76662300  0.17058500  0.55544500  1
  H  H2  1  0.73337700  0.17058500  0.05544500  1
  H  H3  1  0.23337700  0.82941500  0.44455500  1
  H  H4  1  0.34698100  0.98430600  0.62323400  1
  H  H5  1  0.84698100  0.01569400  0.87676600  1
  H  H6  1  0.65301900  0.01569400  0.37676600  1
  H  H7  1  0.15301900  0.98430600  0.12323400  1
  H  H8  1  0.01269200  0.65387300  0.98061300  1
  H  H9  1  0.51269200  0.34612700  0.51938700  1
  H  H10  1  0.98730800  0.34612700  0.01938700  1
  H  H11  1  0.48730800  0.65387300  0.48061300  1
  H  H12  1  0.05492200  0.75080100  0.85586700  1
  H  H13  1  0.55492200  0.24919900  0.64413300  1
  H  H14  1  0.94507800  0.24919900  0.14413300  1
  H  H15  1  0.44507800  0.75080100  0.35586700  1
  H  H16  1  0.17948000  0.98299700  0.57301200  1
  H  H17  1  0.67948000  0.01700300  0.92698800  1
  H  H18  1  0.82052000  0.01700300  0.42698800  1
  H  H19  1  0.32052000  0.98299700  0.07301200  1
  H  H20  1  0.97807100  0.59550000  0.67297800  1
  H  H21  1  0.47807100  0.40450000  0.82702200  1
  H  H22  1  0.02192900  0.40450000  0.32702200  1
  H  H23  1  0.52192900  0.59550000  0.17297800  1
  H  H24  1  0.37546100  0.57681600  0.97201300  1
  H  H25  1  0.87546100  0.42318400  0.52798700  1
  H  H26  1  0.62453900  0.42318400  0.02798700  1
  H  H27  1  0.12453900  0.57681600  0.47201300  1
  H  H28  1  0.16471200  0.66956100  0.68400900  1
  H  H29  1  0.66471200  0.33043900  0.81599100  1
  H  H30  1  0.83528800  0.33043900  0.31599100  1
  H  H31  1  0.33528800  0.66956100  0.18400900  1
  O  O0  1  0.45121900  0.09285400  0.93552600  1
  O  O1  1  0.95121900  0.90714600  0.56447400  1
  O  O2  1  0.54878100  0.90714600  0.06447400  1
  O  O3  1  0.04878100  0.09285400  0.43552600  1
  O  O4  1  0.03224300  0.25502900  0.98274800  1
  O  O5  1  0.53224300  0.74497100  0.51725200  1
  O  O6  1  0.96775700  0.74497100  0.01725200  1
  O  O7  1  0.46775700  0.25502900  0.48274800  1
  O  O8  1  0.19010200  0.18333200  0.87343500  1
  O  O9  1  0.69010200  0.81666800  0.62656500  1
  O  O10  1  0.80989800  0.81666800  0.12656500  1
  O  O11  1  0.30989800  0.18333200  0.37343500  1
  O  O12  1  0.18932500  0.91308200  0.92287500  1
  O  O13  1  0.68932500  0.08691800  0.57712500  1
  O  O14  1  0.81067500  0.08691800  0.07712500  1
  O  O15  1  0.31067500  0.91308200  0.42287500  1
  O  O16  1  0.29775900  0.03644000  0.58210100  1
  O  O17  1  0.79775900  0.96356000  0.91789900  1
  O  O18  1  0.70224100  0.96356000  0.41789900  1
  O  O19  1  0.20224100  0.03644000  0.08210100  1
  O  O20  1  0.43253200  0.91601800  0.69661300  1
  O  O21  1  0.93253200  0.08398200  0.80338700  1
  O  O22  1  0.56746800  0.08398200  0.30338700  1
  O  O23  1  0.06746800  0.91601800  0.19661300  1
  O  O24  1  0.05954400  0.35800500  0.78853300  1
  O  O25  1  0.55954400  0.64199500  0.71146700  1
  O  O26  1  0.94045600  0.64199500  0.21146700  1
  O  O27  1  0.44045600  0.35800500  0.28853300  1
  O  O28  1  0.08551100  0.48057100  0.91036900  1
  O  O29  1  0.58551100  0.51942800  0.58963100  1
  O  O30  1  0.91448900  0.51942800  0.08963100  1
  O  O31  1  0.41448900  0.48057100  0.41036900  1
  O  O32  1  0.37898600  0.94028100  0.82250000  1
  O  O33  1  0.87898600  0.05971900  0.67750000  1
  O  O34  1  0.62101400  0.05971900  0.17750000  1
  O  O35  1  0.12101400  0.94028100  0.32250000  1
  O  O36  1  0.21689400  0.10530800  0.74729900  1
  O  O37  1  0.71689400  0.89469200  0.75270100  1
  O  O38  1  0.78310600  0.89469200  0.25270100  1
  O  O39  1  0.28310600  0.10530800  0.24729900  1
  O  O40  1  0.09681200  0.58294800  0.65329100  1
  O  O41  1  0.59681200  0.41705200  0.84670900  1
  O  O42  1  0.90318800  0.41705200  0.34670900  1
  O  O43  1  0.40318800  0.58294800  0.15329100  1
  O  O44  1  0.32548300  0.37319400  0.96983500  1
  O  O45  1  0.82548300  0.62680600  0.53016500  1
  O  O46  1  0.67451700  0.62680600  0.03016500  1
  O  O47  1  0.17451700  0.37319400  0.46983500  1
  O  O48  1  0.00789700  0.65496000  0.82151700  1
  O  O49  1  0.50789700  0.34504000  0.67848300  1
  O  O50  1  0.99210300  0.34504000  0.17848300  1
  O  O51  1  0.49210300  0.65496000  0.32151700  1
  O  O52  1  0.40013500  0.70389100  0.98184900  1
  O  O53  1  0.90013500  0.29610900  0.51815100  1
  O  O54  1  0.59986500  0.29610900  0.01815100  1
  O  O55  1  0.09986500  0.70389100  0.48184900  1
loop_
_geom_bond_atom_site_label_1
_geom_bond_atom_site_label_2
_geom_bond_distance
_geom_bond_site_symmetry_2
Na0 O36 2.327505 1_555
Na0 O40 2.401418 1_555
Na0 O16 2.521531 1_555
Na0 O24 2.531365 1_555
Na0 O49 2.566906 1_555
Na0 O33 2.914509 1_455
Na1 O37 2.327505 1_555
Na1 O41 2.401418 1_555
Na1 O17 2.521531 1_555
Na1 O25 2.531365 1_555
Na1 O48 2.566906 1_655
Na1 O32 2.914509 1_555
Na2 O38 2.327505 1_555
Na2 O42 2.401418 1_555
Na2 O18 2.521531 1_555
Na2 O26 2.531365 1_555
Na2 O51 2.566906 1_555
Na2 O35 2.914509 1_655
Na3 O39 2.327505 1_555
Na3 O43 2.401418 1_555
Na3 O19 2.521531 1_555
Na3 O27 2.531365 1_555
Na3 O50 2.566906 1_455
Na3 O34 2.914509 1_555
Mg0 O5 2.084045 1_545
Mg0 O7 2.084045 1_555
Mg0 O13 2.098694 1_555
Mg0 O15 2.098694 1_545
Mg0 O16 2.180406 1_555
Mg0 O18 2.180406 1_545
Mg1 O4 2.084045 1_554
Mg1 O6 2.084045 1_445
Mg1 O12 2.098694 1_544
Mg1 O14 2.098694 1_455
Mg1 O19 2.180406 1_555
Mg1 O17 2.180406 1_444
B0 O0 1.368517 1_555
B0 O44 1.376148 1_555
B0 O54 1.383246 1_556
B1 O1 1.368517 1_555
B1 O45 1.376148 1_555
B1 O55 1.383246 1_655
B2 O2 1.368517 1_555
B2 O46 1.376148 1_555
B2 O52 1.383246 1_554
B3 O3 1.368517 1_555
B3 O47 1.376148 1_555
B3 O53 1.383246 1_455
B4 O32 1.370302 1_555
B4 O36 1.370535 1_565
B4 O20 1.382473 1_555
B5 O33 1.370302 1_555
B5 O37 1.370535 1_545
B5 O21 1.382473 1_555
B6 O34 1.370302 1_555
B6 O38 1.370535 1_545
B6 O22 1.382473 1_555
B7 O35 1.370302 1_555
B7 O39 1.370535 1_565
B7 O23 1.382473 1_555
B8 O32 1.451623 1_545
B8 O0 1.472486 1_555
B8 O12 1.486616 1_545
B8 O8 1.547721 1_555
B9 O33 1.451623 1_565
B9 O1 1.472486 1_555
B9 O13 1.486616 1_565
B9 O9 1.547721 1_555
B10 O34 1.451623 1_565
B10 O2 1.472486 1_555
B10 O14 1.486616 1_565
B10 O10 1.547721 1_555
B11 O35 1.451623 1_545
B11 O3 1.472486 1_555
B11 O15 1.486616 1_545
B11 O11 1.547721 1_555
B12 O4 1.461983 1_555
B12 O28 1.465684 1_555
B12 O44 1.474559 1_555
B12 O8 1.521274 1_555
B13 O5 1.461983 1_555
B13 O29 1.465691 1_555
B13 O45 1.474559 1_555
B13 O9 1.521274 1_555
B14 O6 1.461983 1_555
B14 O30 1.465691 1_555
B14 O46 1.474559 1_555
B14 O10 1.521274 1_555
B15 O7 1.461983 1_555
B15 O31 1.465684 1_555
B15 O47 1.474559 1_555
B15 O11 1.521274 1_555
B16 O36 1.448226 1_555
B16 O24 1.466265 1_555
B16 O21 1.467579 1_455
B16 O8 1.529860 1_555
B17 O37 1.448226 1_555
B17 O25 1.466265 1_555
B17 O20 1.467579 1_555
B17 O9 1.529860 1_555
B18 O38 1.448226 1_555
B18 O26 1.466265 1_555
B18 O23 1.467579 1_655
B18 O10 1.529860 1_555
B19 O39 1.448226 1_555
B19 O27 1.466265 1_555
B19 O22 1.467579 1_555
B19 O11 1.529860 1_555
B20 O24 1.364059 1_555
B20 O28 1.372421 1_555
B20 O48 1.390148 1_555
B21 O25 1.364059 1_555
B21 O29 1.372419 1_555
B21 O49 1.390148 1_555
B22 O26 1.364059 1_555
B22 O30 1.372419 1_555
B22 O50 1.390148 1_555
B23 O27 1.364059 1_555
B23 O31 1.372421 1_555
B23 O51 1.390148 1_555
H0 O12 1.009170 1_555
H0 O52 1.639848 1_555
H1 O13 1.009170 1_555
H1 O53 1.639848 1_555
H2 O14 1.009170 1_555
H2 O54 1.639848 1_555
H3 O15 1.009170 1_555
H3 O55 1.639848 1_555
H4 O16 1.005031 1_565
H4 O20 1.694759 1_555
H5 O17 1.005031 1_545
H5 O21 1.694759 1_555
H6 O18 1.005031 1_545
H6 O22 1.694759 1_555
H7 O19 1.005031 1_565
H7 O23 1.694759 1_555
H8 O6 0.987551 1_456
H9 O7 0.987551 1_555
H10 O4 0.987551 1_654
H11 O5 0.987551 1_555
H12 O48 0.991710 1_555
H13 O49 0.991710 1_555
H14 O50 0.991710 1_555
H15 O51 0.991710 1_555
H16 O16 0.993591 1_565
H17 O17 0.993591 1_545
H18 O18 0.993591 1_545
H19 O19 0.993591 1_565
H20 O40 0.973987 1_655
H21 O41 0.973987 1_555
H22 O42 0.973987 1_455
H23 O43 0.973987 1_555
H24 O52 1.004833 1_555
H24 O44 1.634638 1_555
H25 O53 1.004833 1_555
H25 O45 1.634638 1_555
H26 O54 1.004833 1_555
H26 O46 1.634638 1_555
H27 O55 1.004833 1_555
H27 O47 1.634638 1_555
H28 O40 0.978696 1_555
H29 O41 0.978696 1_555
H30 O42 0.978696 1_555
H31 O43 0.978696 1_555
