# generated using pymatgen
data_Ba2In2Si3SO10
_symmetry_space_group_name_H-M   'P 1'
_cell_length_a   5.38448400
_cell_length_b   8.91733500
_cell_length_c   23.37186600
_cell_angle_alpha   90.00000000
_cell_angle_beta   90.00000000
_cell_angle_gamma   90.00000000
_symmetry_Int_Tables_number   1
_chemical_formula_structural   Ba2In2Si3SO10
_chemical_formula_sum   'Ba8 In8 Si12 S4 O40'
_cell_volume   1122.20593357
_cell_formula_units_Z   4
loop_
 _symmetry_equiv_pos_site_id
 _symmetry_equiv_pos_as_xyz
  1  'x, y, z'
loop_
 _atom_site_type_symbol
 _atom_site_label
 _atom_site_symmetry_multiplicity
 _atom_site_fract_x
 _atom_site_fract_y
 _atom_site_fract_z
 _atom_site_occupancy
  Ba  Ba0  1  0.64193000  0.60400900  0.27543900  1
  Ba  Ba1  1  0.35807000  0.10400900  0.72456100  1
  Ba  Ba2  1  0.64193000  0.10400900  0.22456100  1
  Ba  Ba3  1  0.35807000  0.60400900  0.77543900  1
  Ba  Ba4  1  0.62724400  0.75525400  0.09322600  1
  Ba  Ba5  1  0.37275600  0.25525400  0.90677400  1
  Ba  Ba6  1  0.62724400  0.25525400  0.40677400  1
  Ba  Ba7  1  0.37275600  0.75525400  0.59322600  1
  In  In0  1  0.61715800  0.77497400  0.43513300  1
  In  In1  1  0.38284200  0.27497400  0.56486700  1
  In  In2  1  0.61715800  0.27497400  0.06486700  1
  In  In3  1  0.38284200  0.77497400  0.93513300  1
  In  In4  1  0.04812100  0.93479900  0.34822400  1
  In  In5  1  0.95187900  0.43479900  0.65177600  1
  In  In6  1  0.04812100  0.43479900  0.15177600  1
  In  In7  1  0.95187900  0.93479900  0.84822400  1
  Si  Si0  1  0.12932200  0.99990500  0.48784700  1
  Si  Si1  1  0.87067800  0.49990500  0.51215300  1
  Si  Si2  1  0.12932200  0.49990500  0.01215300  1
  Si  Si3  1  0.87067800  0.99990500  0.98784700  1
  Si  Si4  1  0.11986700  0.56039000  0.39298300  1
  Si  Si5  1  0.88013300  0.06039000  0.60701700  1
  Si  Si6  1  0.11986700  0.06039000  0.10701700  1
  Si  Si7  1  0.88013300  0.56039000  0.89298300  1
  Si  Si8  1  0.11989400  0.80993200  0.20354800  1
  Si  Si9  1  0.88010600  0.30993200  0.79645200  1
  Si  Si10  1  0.11989400  0.30993200  0.29645200  1
  Si  Si11  1  0.88010600  0.80993200  0.70354800  1
  S  S0  1  0.50579200  0.93036200  0.34698600  1
  S  S1  1  0.49420800  0.43036200  0.65301400  1
  S  S2  1  0.50579200  0.43036200  0.15301400  1
  S  S3  1  0.49420800  0.93036200  0.84698600  1
  O  O0  1  0.32575900  0.86109000  0.48579400  1
  O  O1  1  0.67424100  0.36109000  0.51420600  1
  O  O2  1  0.32575900  0.36109000  0.01420600  1
  O  O3  1  0.67424100  0.86109000  0.98579400  1
  O  O4  1  0.41974600  0.57979000  0.39285300  1
  O  O5  1  0.58025400  0.07979000  0.60714700  1
  O  O6  1  0.41974600  0.07979000  0.10714700  1
  O  O7  1  0.58025400  0.57979000  0.89285300  1
  O  O8  1  0.41971600  0.80615500  0.20314000  1
  O  O9  1  0.58028400  0.30615500  0.79686000  1
  O  O10  1  0.41971600  0.30615500  0.29686000  1
  O  O11  1  0.58028400  0.80615500  0.70314000  1
  O  O12  1  0.02546200  0.95093900  0.16047100  1
  O  O13  1  0.97453800  0.45093900  0.83952900  1
  O  O14  1  0.02546200  0.45093900  0.33952900  1
  O  O15  1  0.97453800  0.95093900  0.66047100  1
  O  O16  1  0.01606500  0.97255900  0.04998100  1
  O  O17  1  0.98393500  0.47255900  0.95001900  1
  O  O18  1  0.01606500  0.47255900  0.45001900  1
  O  O19  1  0.98393500  0.97255900  0.54998100  1
  O  O20  1  0.26715300  0.66345200  0.01117300  1
  O  O21  1  0.73284700  0.16345200  0.98882700  1
  O  O22  1  0.26715300  0.16345200  0.48882700  1
  O  O23  1  0.73284700  0.66345200  0.51117300  1
  O  O24  1  0.08153300  0.98981400  0.93641000  1
  O  O25  1  0.91846700  0.48981400  0.06359000  1
  O  O26  1  0.08153300  0.48981400  0.56359000  1
  O  O27  1  0.91846700  0.98981400  0.43641000  1
  O  O28  1  0.04702400  0.71267300  0.88344700  1
  O  O29  1  0.95297600  0.21267300  0.11655300  1
  O  O30  1  0.04702400  0.21267300  0.61655300  1
  O  O31  1  0.95297600  0.71267300  0.38344700  1
  O  O32  1  0.01879300  0.84660300  0.76448800  1
  O  O33  1  0.98120700  0.34660300  0.23551200  1
  O  O34  1  0.01879300  0.34660300  0.73551200  1
  O  O35  1  0.98120700  0.84660300  0.26448800  1
  O  O36  1  0.02108900  0.66034900  0.67794600  1
  O  O37  1  0.97891100  0.16034900  0.32205400  1
  O  O38  1  0.02108900  0.16034900  0.82205400  1
  O  O39  1  0.97891100  0.66034900  0.17794600  1
loop_
_geom_bond_atom_site_label_1
_geom_bond_atom_site_label_2
_geom_bond_distance
_geom_bond_site_symmetry_2
Ba0 O8 2.745234 1_555
Ba0 O35 2.843001 1_555
Ba0 O14 2.893372 1_655
Ba0 O39 2.955790 1_555
Ba0 O10 2.955834 1_555
Ba0 O4 3.001405 1_555
Ba0 O33 3.078452 1_555
Ba0 O31 3.180615 1_555
Ba0 S2 3.334986 1_555
Ba0 S0 3.435521 1_555
Ba1 O9 2.745234 1_555
Ba1 O34 2.843001 1_555
Ba1 O15 2.893372 1_445
Ba1 O38 2.955790 1_555
Ba1 O11 2.955834 1_545
Ba1 O5 3.001405 1_555
Ba1 O32 3.078452 1_545
Ba1 O30 3.180615 1_555
Ba1 S3 3.334986 1_545
Ba1 S1 3.435521 1_555
Ba2 O10 2.745234 1_555
Ba2 O33 2.843001 1_555
Ba2 O12 2.893372 1_645
Ba2 O37 2.955790 1_555
Ba2 O8 2.955834 1_545
Ba2 O6 3.001405 1_555
Ba2 O35 3.078452 1_545
Ba2 O29 3.180615 1_555
Ba2 S0 3.334986 1_545
Ba2 S2 3.435521 1_555
Ba3 O11 2.745234 1_555
Ba3 O32 2.843001 1_555
Ba3 O13 2.893372 1_455
Ba3 O36 2.955790 1_555
Ba3 O9 2.955834 1_555
Ba3 O7 3.001405 1_555
Ba3 O34 3.078452 1_555
Ba3 O28 3.180615 1_555
Ba3 S1 3.334986 1_555
Ba3 S3 3.435521 1_555
Ba4 O3 2.694308 1_554
Ba4 O8 2.837940 1_555
Ba4 O20 2.847314 1_555
Ba4 O39 2.867471 1_555
Ba4 O25 2.922572 1_555
Ba4 O16 3.026501 1_655
Ba4 O6 3.119193 1_565
Ba4 O12 3.180036 1_655
Ba4 S2 3.282357 1_555
Ba5 O2 2.694308 1_556
Ba5 O9 2.837940 1_555
Ba5 O21 2.847314 1_555
Ba5 O38 2.867471 1_555
Ba5 O24 2.922572 1_545
Ba5 O17 3.026501 1_455
Ba5 O7 3.119193 1_555
Ba5 O13 3.180036 1_455
Ba5 S3 3.282357 1_545
Ba6 O1 2.694308 1_555
Ba6 O10 2.837940 1_555
Ba6 O22 2.847314 1_555
Ba6 O37 2.867471 1_555
Ba6 O27 2.922572 1_545
Ba6 O18 3.026501 1_655
Ba6 O4 3.119193 1_555
Ba6 O14 3.180036 1_655
Ba6 S0 3.282357 1_545
Ba7 O0 2.694308 1_555
Ba7 O11 2.837940 1_555
Ba7 O23 2.847314 1_555
Ba7 O36 2.867471 1_555
Ba7 O26 2.922572 1_555
Ba7 O19 3.026501 1_455
Ba7 O5 3.119193 1_565
Ba7 O15 3.180036 1_455
Ba7 S1 3.282357 1_555
In0 O0 2.110339 1_555
In0 O23 2.129660 1_555
In0 O31 2.244441 1_555
In0 O4 2.266223 1_555
In0 O27 2.510646 1_555
In0 S0 2.554184 1_555
In1 O1 2.110339 1_555
In1 O22 2.129660 1_555
In1 O30 2.244441 1_555
In1 O5 2.266223 1_555
In1 O26 2.510646 1_555
In1 S1 2.554184 1_555
In2 O2 2.110339 1_555
In2 O21 2.129660 1_554
In2 O29 2.244441 1_555
In2 O6 2.266223 1_555
In2 O25 2.510646 1_555
In2 S2 2.554184 1_555
In3 O3 2.110339 1_555
In3 O20 2.129660 1_556
In3 O28 2.244441 1_555
In3 O7 2.266223 1_555
In3 O24 2.510646 1_555
In3 S3 2.554184 1_555
In4 O37 2.135024 1_465
In4 O35 2.139735 1_455
In4 O31 2.205361 1_455
In4 O27 2.230709 1_455
In4 S0 2.464810 1_555
In4 S0 2.920573 1_455
In5 O36 2.135024 1_655
In5 O34 2.139735 1_655
In5 O30 2.205361 1_655
In5 O26 2.230709 1_655
In5 S1 2.464810 1_555
In5 S1 2.920573 1_655
In6 O39 2.135024 1_455
In6 O33 2.139735 1_455
In6 O29 2.205361 1_455
In6 O25 2.230709 1_455
In6 S2 2.464810 1_555
In6 S2 2.920573 1_455
In7 O38 2.135024 1_665
In7 O32 2.139735 1_655
In7 O28 2.205361 1_655
In7 O24 2.230709 1_655
In7 S3 2.464810 1_555
In7 S3 2.920573 1_655
O0 Si0 1.628912 1_555
O1 Si1 1.628912 1_555
O2 Si2 1.628912 1_555
O3 Si3 1.628912 1_555
O4 Si4 1.623937 1_555
O5 Si5 1.623937 1_555
O6 Si6 1.623937 1_555
O7 Si7 1.623937 1_555
O8 Si8 1.614766 1_555
O9 Si9 1.614766 1_555
O10 Si10 1.614766 1_555
O11 Si11 1.614766 1_555
O12 Si6 1.664869 1_565
O12 Si8 1.689153 1_555
O13 Si7 1.664869 1_555
O13 Si9 1.689153 1_555
O14 Si4 1.664869 1_555
O14 Si10 1.689153 1_555
O15 Si5 1.664869 1_565
O15 Si11 1.689153 1_555
O16 Si6 1.644023 1_565
O16 Si3 1.667676 1_454
O17 Si7 1.644023 1_555
O17 Si2 1.667676 1_656
O18 Si4 1.644023 1_555
O18 Si1 1.667676 1_455
O19 Si5 1.644023 1_565
O19 Si0 1.667676 1_655
O20 Si2 1.636536 1_555
O21 Si3 1.636536 1_545
O22 Si0 1.636536 1_545
O23 Si1 1.636536 1_555
O24 Si3 1.656001 1_455
O25 Si2 1.656001 1_655
O26 Si1 1.656001 1_455
O27 Si0 1.656001 1_655
O28 Si7 1.643547 1_455
O29 Si6 1.643547 1_655
O30 Si5 1.643547 1_455
O31 Si4 1.643547 1_655
O32 Si11 1.641085 1_455
O33 Si10 1.641085 1_655
O34 Si9 1.641085 1_455
O35 Si8 1.641085 1_655
O36 Si11 1.647285 1_455
O37 Si10 1.647285 1_655
O38 Si9 1.647285 1_455
O39 Si8 1.647285 1_655
