# generated using pymatgen
data_CsY(NbBr3)6
_symmetry_space_group_name_H-M   'P 1'
_cell_length_a   9.97126096
_cell_length_b   9.97126096
_cell_length_c   18.60767100
_cell_angle_alpha   90.00000000
_cell_angle_beta   90.00000000
_cell_angle_gamma   119.99999311
_symmetry_Int_Tables_number   1
_chemical_formula_structural   CsY(NbBr3)6
_chemical_formula_sum   'Cs2 Y2 Nb12 Br36'
_cell_volume   1602.22257117
_cell_formula_units_Z   2
loop_
 _symmetry_equiv_pos_site_id
 _symmetry_equiv_pos_as_xyz
  1  'x, y, z'
loop_
 _atom_site_type_symbol
 _atom_site_label
 _atom_site_symmetry_multiplicity
 _atom_site_fract_x
 _atom_site_fract_y
 _atom_site_fract_z
 _atom_site_occupancy
  Cs  Cs0  1  0.33333300  0.66666700  0.75000000  1
  Cs  Cs1  1  0.66666700  0.33333300  0.25000000  1
  Y  Y0  1  0.66666700  0.33333300  0.75000000  1
  Y  Y1  1  0.33333300  0.66666700  0.25000000  1
  Nb  Nb0  1  0.85107400  0.03829800  0.56470100  1
  Nb  Nb1  1  0.14892600  0.96170200  0.43529900  1
  Nb  Nb2  1  0.96170200  0.81277600  0.56470100  1
  Nb  Nb3  1  0.85107400  0.81277600  0.93529900  1
  Nb  Nb4  1  0.03829800  0.18722400  0.43529900  1
  Nb  Nb5  1  0.14892600  0.18722400  0.06470100  1
  Nb  Nb6  1  0.18722400  0.14892600  0.56470100  1
  Nb  Nb7  1  0.96170200  0.14892600  0.93529900  1
  Nb  Nb8  1  0.81277600  0.85107400  0.43529900  1
  Nb  Nb9  1  0.03829800  0.85107400  0.06470100  1
  Nb  Nb10  1  0.18722400  0.03829800  0.93529900  1
  Nb  Nb11  1  0.81277600  0.96170200  0.06470100  1
  Br  Br0  1  0.63703500  0.08512500  0.66142800  1
  Br  Br1  1  0.36296500  0.91487500  0.33857200  1
  Br  Br2  1  0.91487500  0.55191000  0.66142800  1
  Br  Br3  1  0.63703500  0.55191000  0.83857200  1
  Br  Br4  1  0.08512500  0.44809000  0.33857200  1
  Br  Br5  1  0.36296500  0.44809000  0.16142800  1
  Br  Br6  1  0.44809000  0.36296500  0.66142800  1
  Br  Br7  1  0.91487500  0.36296500  0.83857200  1
  Br  Br8  1  0.55191000  0.63703500  0.33857200  1
  Br  Br9  1  0.08512500  0.63703500  0.16142800  1
  Br  Br10  1  0.44809000  0.08512500  0.83857200  1
  Br  Br11  1  0.55191000  0.91487500  0.16142800  1
  Br  Br12  1  0.04621500  0.23077200  0.65886800  1
  Br  Br13  1  0.95378500  0.76922800  0.34113200  1
  Br  Br14  1  0.76922800  0.81544300  0.65886800  1
  Br  Br15  1  0.04621500  0.81544300  0.84113200  1
  Br  Br16  1  0.23077200  0.18455700  0.34113200  1
  Br  Br17  1  0.95378500  0.18455700  0.15886800  1
  Br  Br18  1  0.18455700  0.95378500  0.65886800  1
  Br  Br19  1  0.76922800  0.95378500  0.84113200  1
  Br  Br20  1  0.81544300  0.04621500  0.34113200  1
  Br  Br21  1  0.23077200  0.04621500  0.15886800  1
  Br  Br22  1  0.18455700  0.23077200  0.84113200  1
  Br  Br23  1  0.81544300  0.76922800  0.15886800  1
  Br  Br24  1  0.27534100  0.41390800  0.50083200  1
  Br  Br25  1  0.72465900  0.58609200  0.49916800  1
  Br  Br26  1  0.58609200  0.86143200  0.50083200  1
  Br  Br27  1  0.27534100  0.86143200  0.99916800  1
  Br  Br28  1  0.41390800  0.13856800  0.49916800  1
  Br  Br29  1  0.72465900  0.13856800  0.00083200  1
  Br  Br30  1  0.13856800  0.72465900  0.50083200  1
  Br  Br31  1  0.58609200  0.72465900  0.99916800  1
  Br  Br32  1  0.86143200  0.27534100  0.49916800  1
  Br  Br33  1  0.41390800  0.27534100  0.00083200  1
  Br  Br34  1  0.13856800  0.41390800  0.99916800  1
  Br  Br35  1  0.86143200  0.58609200  0.00083200  1
loop_
_geom_bond_atom_site_label_1
_geom_bond_atom_site_label_2
_geom_bond_distance
_geom_bond_site_symmetry_2
Br0 Y0 2.863161 1_555
Br0 Nb0 3.001505 1_555
Br0 Cs0 4.081831 1_545
Br1 Y1 2.863161 1_555
Br1 Nb1 3.001505 1_555
Br1 Cs1 4.081831 1_565
Br2 Y0 2.863164 1_555
Br2 Nb2 3.001505 1_555
Br2 Cs0 4.081829 1_655
Br3 Y0 2.863169 1_555
Br3 Nb3 3.001505 1_555
Br3 Cs0 4.081837 1_555
Br4 Y1 2.863164 1_555
Br4 Nb4 3.001505 1_555
Br4 Cs1 4.081829 1_455
Br5 Y1 2.863169 1_555
Br5 Nb5 3.001505 1_555
Br5 Cs1 4.081837 1_555
Br6 Y0 2.863169 1_555
Br6 Nb6 3.001505 1_555
Br6 Cs0 4.081837 1_555
Br7 Y0 2.863161 1_555
Br7 Nb7 3.001505 1_555
Br7 Cs0 4.081831 1_655
Br8 Y1 2.863169 1_555
Br8 Nb8 3.001505 1_555
Br8 Cs1 4.081837 1_555
Br9 Y1 2.863161 1_555
Br9 Nb9 3.001505 1_555
Br9 Cs1 4.081831 1_455
Br10 Y0 2.863164 1_555
Br10 Nb10 3.001505 1_555
Br10 Cs0 4.081829 1_545
Br11 Y1 2.863164 1_555
Br11 Nb11 3.001505 1_555
Br11 Cs1 4.081829 1_565
Br12 Nb0 2.608719 1_455
Br12 Nb6 2.619305 1_555
Br12 Cs0 4.185671 1_555
Br13 Nb1 2.608719 1_655
Br13 Nb8 2.619305 1_555
Br13 Cs1 4.185671 1_555
Br14 Nb2 2.608718 1_555
Br14 Nb0 2.619305 1_565
Br14 Cs0 4.185672 1_555
Br15 Nb3 2.608718 1_455
Br15 Nb10 2.619305 1_565
Br15 Cs0 4.185663 1_555
Br16 Nb4 2.608718 1_555
Br16 Nb1 2.619305 1_545
Br16 Cs1 4.185672 1_555
Br17 Nb5 2.608718 1_655
Br17 Nb11 2.619305 1_545
Br17 Cs1 4.185663 1_555
Br18 Nb6 2.608718 1_565
Br18 Nb2 2.619305 1_455
Br18 Cs0 4.185663 1_555
Br19 Nb7 2.608719 1_565
Br19 Nb3 2.619305 1_555
Br19 Cs0 4.185671 1_555
Br20 Nb8 2.608718 1_545
Br20 Nb4 2.619305 1_655
Br20 Cs1 4.185663 1_555
Br21 Nb9 2.608719 1_545
Br21 Nb5 2.619305 1_555
Br21 Cs1 4.185671 1_555
Br22 Nb10 2.608718 1_555
Br22 Nb7 2.619305 1_455
Br22 Cs0 4.185672 1_555
Br23 Nb11 2.608718 1_555
Br23 Nb9 2.619305 1_655
Br23 Cs1 4.185672 1_555
Br24 Nb4 2.615376 1_555
Br24 Nb6 2.616129 1_555
Br25 Nb2 2.615376 1_555
Br25 Nb8 2.616129 1_555
Br26 Nb8 2.615371 1_555
Br26 Nb0 2.616131 1_565
Br27 Nb9 2.615380 1_556
Br27 Nb10 2.616137 1_565
Br28 Nb6 2.615371 1_555
Br28 Nb1 2.616131 1_545
Br29 Nb7 2.615380 1_554
Br29 Nb11 2.616137 1_545
Br30 Nb1 2.615380 1_555
Br30 Nb2 2.616137 1_455
Br31 Nb11 2.615376 1_556
Br31 Nb3 2.616129 1_555
Br32 Nb0 2.615380 1_555
Br32 Nb4 2.616137 1_655
Br33 Nb10 2.615376 1_554
Br33 Nb5 2.616129 1_555
Br34 Nb5 2.615371 1_556
Br34 Nb7 2.616131 1_455
Br35 Nb3 2.615371 1_554
Br35 Nb9 2.616131 1_655
