# generated using pymatgen
data_CuP(HO)5
_symmetry_space_group_name_H-M   'P 1'
_cell_length_a   7.51872900
_cell_length_b   7.17143700
_cell_length_c   8.93170043
_cell_angle_alpha   69.69108971
_cell_angle_beta   90.00000000
_cell_angle_gamma   90.00000000
_symmetry_Int_Tables_number   1
_chemical_formula_structural   CuP(HO)5
_chemical_formula_sum   'Cu4 P4 H20 O20'
_cell_volume   451.65954226
_cell_formula_units_Z   4
loop_
 _symmetry_equiv_pos_site_id
 _symmetry_equiv_pos_as_xyz
  1  'x, y, z'
loop_
 _atom_site_type_symbol
 _atom_site_label
 _atom_site_symmetry_multiplicity
 _atom_site_fract_x
 _atom_site_fract_y
 _atom_site_fract_z
 _atom_site_occupancy
  Cu  Cu0  1  0.52477200  0.77472300  0.09001900  1
  Cu  Cu1  1  0.02477200  0.22527700  0.40998100  1
  Cu  Cu2  1  0.47522800  0.22527700  0.90998100  1
  Cu  Cu3  1  0.97522800  0.77472300  0.59001900  1
  P  P0  1  0.77472500  0.08816300  0.16973300  1
  P  P1  1  0.27472500  0.91183700  0.33026700  1
  P  P2  1  0.22527500  0.91183700  0.83026700  1
  P  P3  1  0.72527500  0.08816300  0.66973300  1
  H  H0  1  0.92694900  0.11268100  0.07281500  1
  H  H1  1  0.42694900  0.88731900  0.42718500  1
  H  H2  1  0.07305100  0.88731900  0.92718500  1
  H  H3  1  0.57305100  0.11268100  0.57281500  1
  H  H4  1  0.75360200  0.72225600  0.89048500  1
  H  H5  1  0.25360200  0.27774400  0.60951500  1
  H  H6  1  0.24639800  0.27774400  0.10951500  1
  H  H7  1  0.74639800  0.72225600  0.39048500  1
  H  H8  1  0.69168400  0.50653900  0.01178300  1
  H  H9  1  0.19168400  0.49346100  0.48821700  1
  H  H10  1  0.30831600  0.49346100  0.98821700  1
  H  H11  1  0.80831600  0.50653900  0.51178300  1
  H  H12  1  0.56915300  0.36626200  0.25454600  1
  H  H13  1  0.06915300  0.63373800  0.24545400  1
  H  H14  1  0.43084700  0.63373800  0.74545400  1
  H  H15  1  0.93084700  0.36626200  0.75454600  1
  H  H16  1  0.41378900  0.41826900  0.35189500  1
  H  H17  1  0.91378900  0.58173100  0.14810500  1
  H  H18  1  0.58621100  0.58173100  0.64810500  1
  H  H19  1  0.08621100  0.41826900  0.85189500  1
  O  O0  1  0.70614200  0.87368900  0.20540600  1
  O  O1  1  0.20614200  0.12631100  0.29459400  1
  O  O2  1  0.29385800  0.12631100  0.79459400  1
  O  O3  1  0.79385800  0.87368900  0.70540600  1
  O  O4  1  0.36271700  0.74904400  0.92023200  1
  O  O5  1  0.86271700  0.25095600  0.57976800  1
  O  O6  1  0.63728300  0.25095600  0.07976800  1
  O  O7  1  0.13728300  0.74904400  0.42023200  1
  O  O8  1  0.32533100  0.88582700  0.17219800  1
  O  O9  1  0.82533100  0.11417300  0.32780200  1
  O  O10  1  0.67466900  0.11417300  0.82780200  1
  O  O11  1  0.17466900  0.88582700  0.67219800  1
  O  O12  1  0.72346500  0.64422000  0.00520100  1
  O  O13  1  0.22346500  0.35578000  0.49479900  1
  O  O14  1  0.27653500  0.35578000  0.99479900  1
  O  O15  1  0.77653500  0.64422000  0.50520100  1
  O  O16  1  0.52055100  0.47258700  0.28754100  1
  O  O17  1  0.02055100  0.52741300  0.21245900  1
  O  O18  1  0.47944900  0.52741300  0.71245900  1
  O  O19  1  0.97944900  0.47258700  0.78754100  1
loop_
_geom_bond_atom_site_label_1
_geom_bond_atom_site_label_2
_geom_bond_distance
_geom_bond_site_symmetry_2
Cu0 O8 1.956579 1_555
Cu0 O0 1.983230 1_555
Cu0 O4 2.003027 1_554
Cu0 O12 2.042980 1_555
Cu0 O16 2.270404 1_555
Cu1 O9 1.956579 1_455
Cu1 O1 1.983230 1_555
Cu1 O5 2.003027 1_455
Cu1 O13 2.042980 1_555
Cu1 O17 2.270404 1_555
Cu2 O10 1.956579 1_555
Cu2 O2 1.983230 1_555
Cu2 O6 2.003027 1_556
Cu2 O14 2.042980 1_555
Cu2 O18 2.270404 1_555
Cu3 O11 1.956579 1_655
Cu3 O3 1.983230 1_555
Cu3 O7 2.003027 1_655
Cu3 O15 2.042980 1_555
Cu3 O19 2.270404 1_555
H0 P0 1.408740 1_555
H1 P1 1.408740 1_555
H2 P2 1.408740 1_555
H3 P3 1.408740 1_555
H4 O12 1.008126 1_556
H4 O3 1.660559 1_555
H5 O13 1.008126 1_555
H5 O2 1.660559 1_555
H6 O14 1.008126 1_554
H6 O1 1.660559 1_555
H7 O15 1.008126 1_555
H7 O0 1.660559 1_555
H8 O12 0.997578 1_555
H9 O13 0.997578 1_555
H10 O14 0.997578 1_555
H11 O15 0.997578 1_555
H12 O16 0.978663 1_555
H13 O17 0.978663 1_555
H14 O18 0.978663 1_555
H15 O19 0.978663 1_555
H16 O16 0.985419 1_555
H17 O17 0.985419 1_655
H18 O18 0.985419 1_555
H19 O19 0.985419 1_455
O0 P0 1.546915 1_565
O1 P1 1.546915 1_545
O2 P2 1.546915 1_545
O3 P3 1.546915 1_565
O4 P2 1.557350 1_555
O5 P3 1.557350 1_555
O6 P0 1.557350 1_555
O7 P1 1.557350 1_555
O8 P1 1.534804 1_555
O9 P0 1.534804 1_555
O10 P3 1.534804 1_555
O11 P2 1.534804 1_555
