# generated using pymatgen
data_YTiFe11N
_symmetry_space_group_name_H-M   'P 1'
_cell_length_a   4.80849000
_cell_length_b   6.52723379
_cell_length_c   6.52723379
_cell_angle_alpha   97.52739398
_cell_angle_beta   111.61331215
_cell_angle_gamma   68.38668785
_symmetry_Int_Tables_number   1
_chemical_formula_structural   YTiFe11N
_chemical_formula_sum   'Y1 Ti1 Fe11 N1'
_cell_volume   177.06710650
_cell_formula_units_Z   1
loop_
 _symmetry_equiv_pos_site_id
 _symmetry_equiv_pos_as_xyz
  1  'x, y, z'
loop_
 _atom_site_type_symbol
 _atom_site_label
 _atom_site_symmetry_multiplicity
 _atom_site_fract_x
 _atom_site_fract_y
 _atom_site_fract_z
 _atom_site_occupancy
  Y  Y0  1  0.00654800  0.99345200  0.00654800  1
  Ti  Ti0  1  0.63493500  0.36506500  0.63493500  1
  Fe  Fe0  1  0.72598800  0.77401200  0.22598800  1
  Fe  Fe1  1  0.27719300  0.22280700  0.77719300  1
  Fe  Fe2  1  0.49728300  0.77999700  0.77456300  1
  Fe  Fe3  1  0.49728300  0.22543700  0.22000300  1
  Fe  Fe4  1  0.49997100  0.99735500  0.49844400  1
  Fe  Fe5  1  0.00111800  0.99735500  0.49844400  1
  Fe  Fe6  1  0.49997100  0.50155600  0.00264500  1
  Fe  Fe7  1  0.00111800  0.50155600  0.00264500  1
  Fe  Fe8  1  0.35758000  0.64242000  0.35758000  1
  Fe  Fe9  1  0.99988000  0.35935700  0.35911600  1
  Fe  Fe10  1  0.99988000  0.64088400  0.64064300  1
  N  N0  1  0.50125200  0.99874800  0.00125200  1
loop_
_geom_bond_atom_site_label_1
_geom_bond_atom_site_label_2
_geom_bond_distance
_geom_bond_site_symmetry_2
Ti0 Y0 3.180505 1_646
Fe0 N0 1.923436 1_555
Fe0 Fe6 2.458945 1_555
Fe0 Fe5 2.458945 1_655
Fe0 Fe4 2.458945 1_555
Fe0 Fe7 2.458945 1_655
Fe0 Fe10 2.638597 1_555
Fe0 Fe9 2.638597 1_555
Fe1 N0 1.917642 1_546
Fe1 Fe7 2.489283 1_556
Fe1 Fe6 2.489283 1_556
Fe1 Fe5 2.489283 1_545
Fe1 Fe4 2.489283 1_545
Fe1 Fe10 2.664650 1_455
Fe1 Fe9 2.664650 1_455
Fe1 Ti0 2.694956 1_455
Fe1 Ti0 2.694956 1_555
Fe2 N0 1.916820 1_556
Fe2 Fe5 2.441695 1_555
Fe2 Fe4 2.441695 1_555
Fe2 Fe6 2.489391 1_556
Fe2 Fe7 2.489391 1_656
Fe2 Ti0 2.661016 1_555
Fe3 N0 1.916820 1_545
Fe3 Fe7 2.441695 1_555
Fe3 Fe6 2.441695 1_555
Fe3 Fe4 2.489391 1_545
Fe3 Fe5 2.489391 1_645
Fe3 Ti0 2.661016 1_555
Fe3 Fe9 2.675981 1_455
Fe3 Fe9 2.675985 1_555
Fe4 Fe5 2.398730 1_555
Fe4 Fe5 2.409760 1_655
Fe4 Fe8 2.613078 1_555
Fe4 Fe9 2.637972 1_465
Fe4 Ti0 2.671480 1_565
Fe4 Y0 3.217125 1_555
Fe4 Y0 3.310355 1_656
Fe5 Fe8 2.613078 1_555
Fe5 Fe9 2.637974 1_465
Fe5 Ti0 2.671480 1_465
Fe5 Y0 3.217125 1_555
Fe5 Y0 3.310355 1_556
Fe6 Fe7 2.398730 1_555
Fe6 Fe7 2.409760 1_655
Fe6 Fe8 2.613078 1_555
Fe6 Fe9 2.618300 1_555
Fe6 Ti0 2.671480 1_554
Fe6 Y0 3.217125 1_555
Fe6 Y0 3.310355 1_645
Fe7 Fe8 2.613078 1_555
Fe7 Fe9 2.618298 1_455
Fe7 Ti0 2.671480 1_454
Fe7 Y0 3.217125 1_555
Fe7 Y0 3.310355 1_545
Fe8 Ti0 2.373784 1_555
Fe8 Fe9 2.954799 1_455
Fe8 Fe9 2.954803 1_555
Fe9 Ti0 2.929789 1_655
Fe9 Ti0 2.929793 1_555
Fe9 Y0 3.091779 1_645
Fe10 Fe9 2.422557 1_555
Fe10 Fe5 2.618298 1_655
Fe10 Fe4 2.618300 1_555
Fe10 Fe6 2.637972 1_656
Fe10 Fe7 2.637974 1_656
Fe10 Fe2 2.675981 1_655
Fe10 Fe2 2.675985 1_555
Fe10 Ti0 2.929789 1_655
Fe10 Ti0 2.929793 1_555
Fe10 Fe8 2.954799 1_655
Fe10 Fe8 2.954803 1_555
Fe10 Y0 3.091779 1_656
N0 Y0 2.404672 1_555
N0 Y0 2.404672 1_655
