# generated using pymatgen
data_K2LaTa6(Br5O)3
_symmetry_space_group_name_H-M   'P 1'
_cell_length_a   9.59609608
_cell_length_b   9.59609608
_cell_length_c   18.08284900
_cell_angle_alpha   90.00000000
_cell_angle_beta   90.00000000
_cell_angle_gamma   120.00000052
_symmetry_Int_Tables_number   1
_chemical_formula_structural   K2LaTa6(Br5O)3
_chemical_formula_sum   'K4 La2 Ta12 Br30 O6'
_cell_volume   1442.07105566
_cell_formula_units_Z   2
loop_
 _symmetry_equiv_pos_site_id
 _symmetry_equiv_pos_as_xyz
  1  'x, y, z'
loop_
 _atom_site_type_symbol
 _atom_site_label
 _atom_site_symmetry_multiplicity
 _atom_site_fract_x
 _atom_site_fract_y
 _atom_site_fract_z
 _atom_site_occupancy
  K  K0  1  0.66666700  0.33333300  0.54703900  1
  K  K1  1  0.33333300  0.66666700  0.45296100  1
  K  K2  1  0.66666700  0.33333300  0.95296100  1
  K  K3  1  0.33333300  0.66666700  0.04703900  1
  La  La0  1  0.33333300  0.66666700  0.75000000  1
  La  La1  1  0.66666700  0.33333300  0.25000000  1
  Ta  Ta0  1  0.17243600  0.18908400  0.68579200  1
  Ta  Ta1  1  0.82756400  0.81091600  0.31420800  1
  Ta  Ta2  1  0.81091600  0.98335200  0.68579200  1
  Ta  Ta3  1  0.17243600  0.98335200  0.81420800  1
  Ta  Ta4  1  0.18908400  0.01664800  0.31420800  1
  Ta  Ta5  1  0.82756400  0.01664800  0.18579200  1
  Ta  Ta6  1  0.01664800  0.82756400  0.68579200  1
  Ta  Ta7  1  0.81091600  0.82756400  0.81420800  1
  Ta  Ta8  1  0.98335200  0.17243600  0.31420800  1
  Ta  Ta9  1  0.18908400  0.17243600  0.18579200  1
  Ta  Ta10  1  0.01664800  0.18908400  0.81420800  1
  Ta  Ta11  1  0.98335200  0.81091600  0.18579200  1
  Br  Br0  1  0.42797000  0.21398500  0.75000000  1
  Br  Br1  1  0.57203000  0.78601500  0.25000000  1
  Br  Br2  1  0.78601500  0.21398500  0.75000000  1
  Br  Br3  1  0.21398500  0.78601500  0.25000000  1
  Br  Br4  1  0.78601500  0.57203000  0.75000000  1
  Br  Br5  1  0.21398500  0.42797000  0.25000000  1
  Br  Br6  1  0.98091300  0.20419700  0.58542000  1
  Br  Br7  1  0.01908700  0.79580300  0.41458000  1
  Br  Br8  1  0.79580300  0.77671600  0.58542000  1
  Br  Br9  1  0.98091300  0.77671600  0.91458000  1
  Br  Br10  1  0.20419700  0.22328400  0.41458000  1
  Br  Br11  1  0.01908700  0.22328400  0.08542000  1
  Br  Br12  1  0.22328400  0.01908700  0.58542000  1
  Br  Br13  1  0.79580300  0.01908700  0.91458000  1
  Br  Br14  1  0.77671600  0.98091300  0.41458000  1
  Br  Br15  1  0.20419700  0.98091300  0.08542000  1
  Br  Br16  1  0.22328400  0.20419700  0.91458000  1
  Br  Br17  1  0.77671600  0.79580300  0.08542000  1
  Br  Br18  1  0.39713200  0.47035300  0.61545800  1
  Br  Br19  1  0.60286800  0.52964700  0.38454200  1
  Br  Br20  1  0.52964700  0.92677900  0.61545800  1
  Br  Br21  1  0.39713200  0.92677900  0.88454200  1
  Br  Br22  1  0.47035300  0.07322100  0.38454200  1
  Br  Br23  1  0.60286800  0.07322100  0.11545800  1
  Br  Br24  1  0.07322100  0.60286800  0.61545800  1
  Br  Br25  1  0.52964700  0.60286800  0.88454200  1
  Br  Br26  1  0.92677900  0.39713200  0.38454200  1
  Br  Br27  1  0.47035300  0.39713200  0.11545800  1
  Br  Br28  1  0.07322100  0.47035300  0.88454200  1
  Br  Br29  1  0.92677900  0.52964700  0.11545800  1
  O  O0  1  0.63850100  0.81925100  0.75000000  1
  O  O1  1  0.36149900  0.18074900  0.25000000  1
  O  O2  1  0.18074900  0.81925100  0.75000000  1
  O  O3  1  0.81925100  0.18074900  0.25000000  1
  O  O4  1  0.18074900  0.36149900  0.75000000  1
  O  O5  1  0.81925100  0.63850100  0.25000000  1
loop_
_geom_bond_atom_site_label_1
_geom_bond_atom_site_label_2
_geom_bond_distance
_geom_bond_site_symmetry_2
La0 O0 2.536087 1_555
La0 O4 2.536087 1_555
La0 O2 2.536087 1_555
La1 O5 2.536087 1_555
La1 O1 2.536087 1_555
La1 O3 2.536087 1_555
Br0 Ta3 2.613840 1_545
Br0 Ta0 2.613840 1_555
Br1 Ta5 2.613840 1_565
Br1 Ta1 2.613840 1_555
Br2 Ta2 2.613840 1_545
Br2 Ta10 2.613840 1_655
Br3 Ta11 2.613840 1_455
Br3 Ta4 2.613840 1_565
Br4 Ta6 2.613840 1_655
Br4 Ta7 2.613840 1_555
Br5 Ta8 2.613840 1_455
Br5 Ta9 2.613840 1_555
Br6 Ta0 2.638109 1_655
Br6 Ta2 2.643767 1_545
Br6 K0 3.853260 1_555
Br7 Ta1 2.638109 1_455
Br7 Ta4 2.643767 1_565
Br7 K1 3.853260 1_555
Br8 Ta2 2.638109 1_555
Br8 Ta6 2.643767 1_655
Br8 K0 3.853269 1_555
Br9 Ta3 2.638109 1_655
Br9 Ta7 2.643767 1_555
Br9 K2 3.853267 1_555
Br10 Ta4 2.638109 1_555
Br10 Ta8 2.643767 1_455
Br10 K1 3.853269 1_555
Br11 Ta5 2.638109 1_455
Br11 Ta9 2.643767 1_555
Br11 K3 3.853267 1_555
Br12 Ta6 2.638109 1_545
Br12 Ta0 2.643767 1_555
Br12 K0 3.853267 1_555
Br13 Ta7 2.638109 1_545
Br13 Ta10 2.643767 1_655
Br13 K2 3.853260 1_555
Br14 Ta8 2.638109 1_565
Br14 Ta1 2.643767 1_555
Br14 K1 3.853267 1_555
Br15 Ta9 2.638109 1_565
Br15 Ta11 2.643767 1_455
Br15 K3 3.853260 1_555
Br16 Ta10 2.638109 1_555
Br16 Ta3 2.643767 1_545
Br16 K2 3.853269 1_555
Br17 Ta11 2.638109 1_555
Br17 Ta5 2.643767 1_565
Br17 K3 3.853269 1_555
Br18 Ta0 2.780660 1_555
Br18 La0 3.316029 1_555
Br18 K0 3.653805 1_555
Br18 K1 3.702874 1_555
Br19 Ta1 2.780660 1_555
Br19 La1 3.316029 1_555
Br19 K1 3.653805 1_555
Br19 K0 3.702874 1_555
Br20 Ta2 2.780660 1_555
Br20 La0 3.316024 1_555
Br20 K0 3.653797 1_565
Br20 K1 3.702870 1_555
Br21 Ta3 2.780660 1_555
Br21 La0 3.316022 1_555
Br21 K2 3.653798 1_565
Br21 K3 3.702868 1_556
Br22 Ta4 2.780660 1_555
Br22 La1 3.316024 1_555
Br22 K1 3.653797 1_545
Br22 K0 3.702870 1_555
Br23 Ta5 2.780660 1_555
Br23 La1 3.316022 1_555
Br23 K3 3.653798 1_545
Br23 K2 3.702868 1_554
Br24 Ta6 2.780660 1_555
Br24 La0 3.316022 1_555
Br24 K0 3.653798 1_455
Br24 K1 3.702868 1_555
Br25 Ta7 2.780660 1_555
Br25 La0 3.316029 1_555
Br25 K2 3.653805 1_555
Br25 K3 3.702874 1_556
Br26 Ta8 2.780660 1_555
Br26 La1 3.316022 1_555
Br26 K1 3.653798 1_655
Br26 K0 3.702868 1_555
Br27 Ta9 2.780660 1_555
Br27 La1 3.316029 1_555
Br27 K3 3.653805 1_555
Br27 K2 3.702874 1_554
Br28 Ta10 2.780660 1_555
Br28 La0 3.316024 1_555
Br28 K2 3.653797 1_455
Br28 K3 3.702870 1_556
Br29 Ta11 2.780660 1_555
Br29 La1 3.316024 1_555
Br29 K3 3.653797 1_655
Br29 K2 3.702870 1_554
O0 Ta2 1.989935 1_555
O0 Ta7 1.989938 1_555
O1 Ta4 1.989935 1_555
O1 Ta9 1.989938 1_555
O2 Ta6 1.989930 1_555
O2 Ta3 1.989930 1_555
O3 Ta5 1.989930 1_555
O3 Ta8 1.989930 1_555
O4 Ta10 1.989935 1_555
O4 Ta0 1.989938 1_555
O5 Ta11 1.989935 1_555
O5 Ta1 1.989938 1_555
