# generated using pymatgen
data_Fe5O7F3
_symmetry_space_group_name_H-M   'P 1'
_cell_length_a   4.67999600
_cell_length_b   4.68722900
_cell_length_c   15.21368200
_cell_angle_alpha   90.00000000
_cell_angle_beta   90.00000000
_cell_angle_gamma   90.00000000
_symmetry_Int_Tables_number   1
_chemical_formula_structural   Fe5O7F3
_chemical_formula_sum   'Fe10 O14 F6'
_cell_volume   333.73056843
_cell_formula_units_Z   2
loop_
 _symmetry_equiv_pos_site_id
 _symmetry_equiv_pos_as_xyz
  1  'x, y, z'
loop_
 _atom_site_type_symbol
 _atom_site_label
 _atom_site_symmetry_multiplicity
 _atom_site_fract_x
 _atom_site_fract_y
 _atom_site_fract_z
 _atom_site_occupancy
  Fe  Fe0  1  0.78077400  0.00939100  0.80602100  1
  Fe  Fe1  1  0.76869200  0.01064800  0.00000000  1
  Fe  Fe2  1  0.78077400  0.00939100  0.19397900  1
  Fe  Fe3  1  0.75967700  0.97815300  0.39943400  1
  Fe  Fe4  1  0.75967700  0.97815300  0.60056600  1
  Fe  Fe5  1  0.24032300  0.47815300  0.89943400  1
  Fe  Fe6  1  0.21922600  0.50939100  0.30602100  1
  Fe  Fe7  1  0.24032300  0.47815300  0.10056600  1
  Fe  Fe8  1  0.23130800  0.51064800  0.50000000  1
  Fe  Fe9  1  0.21922600  0.50939100  0.69397900  1
  O  O0  1  0.95251800  0.80245000  0.90405800  1
  O  O1  1  0.95251800  0.80245000  0.09594200  1
  O  O2  1  0.93772300  0.81578100  0.29689400  1
  O  O3  1  0.93066600  0.80252600  0.50000000  1
  O  O4  1  0.93772300  0.81578100  0.70310600  1
  O  O5  1  0.06227700  0.31578100  0.79689400  1
  O  O6  1  0.06933400  0.30252600  0.00000000  1
  O  O7  1  0.06227700  0.31578100  0.20310600  1
  O  O8  1  0.04748200  0.30245000  0.40405800  1
  O  O9  1  0.04748200  0.30245000  0.59594200  1
  O  O10  1  0.43488700  0.69188300  0.40214800  1
  O  O11  1  0.43488700  0.69188300  0.59785200  1
  O  O12  1  0.56511300  0.19188300  0.90214800  1
  O  O13  1  0.56511300  0.19188300  0.09785200  1
  F  F0  1  0.45038300  0.70005400  0.79873000  1
  F  F1  1  0.45200400  0.69139700  0.00000000  1
  F  F2  1  0.45038300  0.70005400  0.20127000  1
  F  F3  1  0.54961700  0.20005400  0.29873000  1
  F  F4  1  0.54961700  0.20005400  0.70127000  1
  F  F5  1  0.54799600  0.19139700  0.50000000  1
loop_
_geom_bond_atom_site_label_1
_geom_bond_atom_site_label_2
_geom_bond_distance
_geom_bond_site_symmetry_2
Fe0 O0 1.952300 1_545
Fe0 O4 1.953083 1_545
Fe0 O5 1.953804 1_655
Fe0 O12 1.972079 1_555
Fe1 O1 1.955242 1_545
Fe1 O0 1.955242 1_544
Fe1 O13 1.961010 1_555
Fe1 O12 1.961010 1_554
Fe1 O6 1.962487 1_655
Fe2 O1 1.952300 1_545
Fe2 O2 1.953083 1_545
Fe2 O7 1.953804 1_655
Fe2 O13 1.972079 1_555
Fe3 O3 1.912816 1_555
Fe3 O2 1.925404 1_555
Fe3 O10 2.027958 1_555
Fe3 O8 2.032172 1_665
Fe4 O3 1.912816 1_555
Fe4 O4 1.925404 1_555
Fe4 O11 2.027958 1_555
Fe4 O9 2.032172 1_665
Fe5 O6 1.912816 1_556
Fe5 O5 1.925404 1_555
Fe5 O12 2.027958 1_555
Fe5 O0 2.032172 1_455
Fe6 O8 1.952300 1_555
Fe6 O7 1.953083 1_555
Fe6 O2 1.953804 1_455
Fe6 O10 1.972079 1_555
Fe7 O6 1.912816 1_555
Fe7 O7 1.925404 1_555
Fe7 O13 2.027958 1_555
Fe7 O1 2.032172 1_455
Fe8 O9 1.955242 1_555
Fe8 O8 1.955242 1_555
Fe8 O11 1.961010 1_555
Fe8 O10 1.961010 1_555
Fe8 O3 1.962487 1_455
Fe9 O9 1.952300 1_555
Fe9 O5 1.953083 1_555
Fe9 O4 1.953804 1_455
Fe9 O11 1.972079 1_555
F0 Fe5 2.096550 1_555
F0 Fe0 2.122601 1_565
F0 Fe9 2.123371 1_555
F1 Fe7 2.078774 1_555
F1 Fe5 2.078774 1_554
F1 Fe1 2.106143 1_565
F2 Fe7 2.096550 1_555
F2 Fe2 2.122601 1_565
F2 Fe6 2.123371 1_555
F3 Fe3 2.096550 1_545
F3 Fe6 2.122601 1_555
F3 Fe2 2.123371 1_555
F4 Fe4 2.096550 1_545
F4 Fe9 2.122601 1_555
F4 Fe0 2.123371 1_555
F5 Fe4 2.078774 1_545
F5 Fe3 2.078774 1_545
F5 Fe8 2.106143 1_555
