# generated using pymatgen
data_Fe(BRh2)3
_symmetry_space_group_name_H-M   'P 1'
_cell_length_a   7.50854974
_cell_length_b   7.50854974
_cell_length_c   4.76077248
_cell_angle_alpha   89.80584466
_cell_angle_beta   89.80584466
_cell_angle_gamma   60.09284135
_symmetry_Int_Tables_number   1
_chemical_formula_structural   Fe(BRh2)3
_chemical_formula_sum   'Fe2 B6 Rh12'
_cell_volume   232.66035769
_cell_formula_units_Z   2
loop_
 _symmetry_equiv_pos_site_id
 _symmetry_equiv_pos_as_xyz
  1  'x, y, z'
loop_
 _atom_site_type_symbol
 _atom_site_label
 _atom_site_symmetry_multiplicity
 _atom_site_fract_x
 _atom_site_fract_y
 _atom_site_fract_z
 _atom_site_occupancy
  Fe  Fe0  1  0.90831700  0.54997500  0.04437100  1
  Fe  Fe1  1  0.54997500  0.90831700  0.04437100  1
  B  B0  1  0.81511800  0.37334600  0.77013500  1
  B  B1  1  0.81605300  0.81605300  0.76675500  1
  B  B2  1  0.37334600  0.81511800  0.77013500  1
  B  B3  1  0.18773000  0.62008800  0.27604600  1
  B  B4  1  0.18922700  0.18922700  0.27895800  1
  B  B5  1  0.62008800  0.18773000  0.27604600  1
  Rh  Rh0  1  0.87593000  0.24972200  0.36301300  1
  Rh  Rh1  1  0.87112800  0.87112800  0.35020400  1
  Rh  Rh2  1  0.24972200  0.87593000  0.36301300  1
  Rh  Rh3  1  0.12247200  0.74732000  0.86904500  1
  Rh  Rh4  1  0.12811000  0.12811000  0.87297800  1
  Rh  Rh5  1  0.74732000  0.12247200  0.86904500  1
  Rh  Rh6  1  0.66785800  0.66785800  0.53720800  1
  Rh  Rh7  1  0.33261600  0.33261600  0.04797300  1
  Rh  Rh8  1  0.45672200  0.45672200  0.52529900  1
  Rh  Rh9  1  0.07833600  0.45917200  0.53952600  1
  Rh  Rh10  1  0.45917200  0.07833600  0.53952600  1
  Rh  Rh11  1  0.55134600  0.55134600  0.02091900  1
loop_
_geom_bond_atom_site_label_1
_geom_bond_atom_site_label_2
_geom_bond_distance
_geom_bond_site_symmetry_2
B0 Rh0 2.100080 1_555
B0 Rh11 2.118841 1_556
B0 Rh4 2.199957 1_655
B0 Rh6 2.212650 1_555
B0 Fe0 2.212806 1_556
B0 Rh5 2.231099 1_555
B1 Rh1 2.105739 1_555
B1 Rh5 2.149148 1_565
B1 Rh3 2.149148 1_655
B1 Fe1 2.196888 1_556
B1 Fe0 2.196888 1_556
B1 Rh6 2.218505 1_555
B2 Rh2 2.100080 1_555
B2 Rh11 2.118841 1_556
B2 Rh4 2.199957 1_565
B2 Rh6 2.212650 1_555
B2 Fe1 2.212806 1_556
B2 Rh3 2.231099 1_555
B3 Rh3 2.105775 1_554
B3 Rh8 2.127896 1_555
B3 Rh9 2.163419 1_555
B3 Rh7 2.165144 1_555
B3 Rh1 2.204386 1_455
B3 Rh2 2.230849 1_555
B4 Rh4 2.092566 1_554
B4 Rh7 2.160428 1_555
B4 Rh10 2.160453 1_555
B4 Rh9 2.160453 1_555
B4 Rh2 2.197633 1_545
B4 Rh0 2.197633 1_455
B5 Rh5 2.105775 1_554
B5 Rh8 2.127896 1_555
B5 Rh10 2.163419 1_555
B5 Rh7 2.165144 1_555
B5 Rh1 2.204386 1_545
B5 Rh0 2.230849 1_555
