# generated using pymatgen
data_Sr7CaTi8O24
_symmetry_space_group_name_H-M   'P 1'
_cell_length_a   7.87507800
_cell_length_b   7.87507800
_cell_length_c   7.87507800
_cell_angle_alpha   90.00000000
_cell_angle_beta   90.00000000
_cell_angle_gamma   90.00000000
_symmetry_Int_Tables_number   1
_chemical_formula_structural   Sr7CaTi8O24
_chemical_formula_sum   'Sr7 Ca1 Ti8 O24'
_cell_volume   488.38755867
_cell_formula_units_Z   1
loop_
 _symmetry_equiv_pos_site_id
 _symmetry_equiv_pos_as_xyz
  1  'x, y, z'
loop_
 _atom_site_type_symbol
 _atom_site_label
 _atom_site_symmetry_multiplicity
 _atom_site_fract_x
 _atom_site_fract_y
 _atom_site_fract_z
 _atom_site_occupancy
  Sr  Sr0  1  0.50000000  0.00000000  0.50000000  1
  Sr  Sr1  1  0.50000000  0.00000000  0.00000000  1
  Sr  Sr2  1  0.50000000  0.50000000  0.00000000  1
  Sr  Sr3  1  0.00000000  0.00000000  0.50000000  1
  Sr  Sr4  1  0.00000000  0.00000000  0.00000000  1
  Sr  Sr5  1  0.00000000  0.50000000  0.50000000  1
  Sr  Sr6  1  0.00000000  0.50000000  0.00000000  1
  Ca  Ca0  1  0.50000000  0.50000000  0.50000000  1
  Ti  Ti0  1  0.25065600  0.74934400  0.25065600  1
  Ti  Ti1  1  0.25065600  0.74934400  0.74934400  1
  Ti  Ti2  1  0.25065600  0.25065600  0.25065600  1
  Ti  Ti3  1  0.25065600  0.25065600  0.74934400  1
  Ti  Ti4  1  0.74934400  0.74934400  0.25065600  1
  Ti  Ti5  1  0.74934400  0.74934400  0.74934400  1
  Ti  Ti6  1  0.74934400  0.25065600  0.25065600  1
  Ti  Ti7  1  0.74934400  0.25065600  0.74934400  1
  O  O0  1  0.50000000  0.74823500  0.25176500  1
  O  O1  1  0.50000000  0.74823500  0.74823500  1
  O  O2  1  0.50000000  0.25176500  0.25176500  1
  O  O3  1  0.50000000  0.25176500  0.74823500  1
  O  O4  1  0.00000000  0.74974500  0.25025500  1
  O  O5  1  0.00000000  0.74974500  0.74974500  1
  O  O6  1  0.00000000  0.25025500  0.25025500  1
  O  O7  1  0.00000000  0.25025500  0.74974500  1
  O  O8  1  0.25025500  0.00000000  0.25025500  1
  O  O9  1  0.25025500  0.00000000  0.74974500  1
  O  O10  1  0.25176500  0.50000000  0.25176500  1
  O  O11  1  0.25176500  0.50000000  0.74823500  1
  O  O12  1  0.74974500  0.00000000  0.25025500  1
  O  O13  1  0.74974500  0.00000000  0.74974500  1
  O  O14  1  0.74823500  0.50000000  0.25176500  1
  O  O15  1  0.74823500  0.50000000  0.74823500  1
  O  O16  1  0.25176500  0.74823500  0.50000000  1
  O  O17  1  0.25025500  0.74974500  0.00000000  1
  O  O18  1  0.25176500  0.25176500  0.50000000  1
  O  O19  1  0.25025500  0.25025500  0.00000000  1
  O  O20  1  0.74823500  0.74823500  0.50000000  1
  O  O21  1  0.74974500  0.74974500  0.00000000  1
  O  O22  1  0.74823500  0.25176500  0.50000000  1
  O  O23  1  0.74974500  0.25025500  0.00000000  1
loop_
_geom_bond_atom_site_label_1
_geom_bond_atom_site_label_2
_geom_bond_distance
_geom_bond_site_symmetry_2
Ca0 O16 2.764604 1_555
Ca0 O10 2.764604 1_555
Ca0 O2 2.764604 1_555
Ca0 O3 2.764604 1_555
Ca0 O20 2.764604 1_555
Ca0 O11 2.764604 1_555
Ca0 O1 2.764604 1_555
Ca0 O14 2.764604 1_555
Ca0 O18 2.764604 1_555
Ca0 O15 2.764604 1_555
Ca0 O22 2.764604 1_555
Ca0 O0 2.764604 1_555
O0 Ti0 1.963642 1_555
O0 Ti4 1.963642 1_555
O0 Sr0 2.784330 1_565
O0 Sr2 2.784330 1_555
O0 Sr1 2.803917 1_565
O1 Ti1 1.963642 1_555
O1 Ti5 1.963642 1_555
O1 Sr0 2.784330 1_565
O1 Sr2 2.784330 1_556
O1 Sr1 2.803917 1_566
O2 Ti2 1.963642 1_555
O2 Ti6 1.963642 1_555
O2 Sr0 2.784330 1_555
O2 Sr2 2.784330 1_555
O2 Sr1 2.803917 1_555
O3 Ti7 1.963642 1_555
O3 Ti3 1.963642 1_555
O3 Sr0 2.784330 1_555
O3 Sr2 2.784330 1_556
O3 Sr1 2.803917 1_556
O4 Ti0 1.973941 1_555
O4 Ti4 1.973941 1_455
O4 Sr5 2.781421 1_555
O4 Sr3 2.784262 1_565
O4 Sr6 2.784262 1_555
O4 Sr4 2.787100 1_565
O5 Ti1 1.973941 1_555
O5 Ti5 1.973941 1_455
O5 Sr5 2.781421 1_555
O5 Sr3 2.784262 1_565
O5 Sr6 2.784262 1_556
O5 Sr4 2.787100 1_566
O6 Ti6 1.973941 1_455
O6 Ti2 1.973941 1_555
O6 Sr5 2.781421 1_555
O6 Sr6 2.784262 1_555
O6 Sr3 2.784262 1_555
O6 Sr4 2.787100 1_555
O7 Ti7 1.973941 1_455
O7 Ti3 1.973941 1_555
O7 Sr5 2.781421 1_555
O7 Sr6 2.784262 1_556
O7 Sr3 2.784262 1_555
O7 Sr4 2.787100 1_556
O8 Ti2 1.973941 1_555
O8 Ti0 1.973941 1_545
O8 Sr0 2.781421 1_555
O8 Sr1 2.784262 1_555
O8 Sr3 2.784262 1_555
O8 Sr4 2.787100 1_555
O9 Ti3 1.973941 1_555
O9 Ti1 1.973941 1_545
O9 Sr0 2.781421 1_555
O9 Sr1 2.784262 1_556
O9 Sr3 2.784262 1_555
O9 Sr4 2.787100 1_556
O10 Ti0 1.963642 1_555
O10 Ti2 1.963642 1_555
O10 Sr2 2.784330 1_555
O10 Sr5 2.784330 1_555
O10 Sr6 2.803917 1_555
O11 Ti1 1.963642 1_555
O11 Ti3 1.963642 1_555
O11 Sr2 2.784330 1_556
O11 Sr5 2.784330 1_555
O11 Sr6 2.803917 1_556
O12 Ti6 1.973941 1_555
O12 Ti4 1.973941 1_545
O12 Sr0 2.781421 1_555
O12 Sr3 2.784262 1_655
O12 Sr1 2.784262 1_555
O12 Sr4 2.787100 1_655
O13 Ti5 1.973941 1_545
O13 Ti7 1.973941 1_555
O13 Sr0 2.781421 1_555
O13 Sr3 2.784262 1_655
O13 Sr1 2.784262 1_556
O13 Sr4 2.787100 1_656
O14 Ti4 1.963642 1_555
O14 Ti6 1.963642 1_555
O14 Sr5 2.784330 1_655
O14 Sr2 2.784330 1_555
O14 Sr6 2.803917 1_655
O15 Ti7 1.963642 1_555
O15 Ti5 1.963642 1_555
O15 Sr5 2.784330 1_655
O15 Sr2 2.784330 1_556
O15 Sr6 2.803917 1_656
O16 Ti0 1.963642 1_555
O16 Ti1 1.963642 1_555
O16 Sr0 2.784330 1_565
O16 Sr5 2.784330 1_555
O16 Sr3 2.803917 1_565
O17 Ti0 1.973941 1_555
O17 Ti1 1.973941 1_554
O17 Sr2 2.781421 1_555
O17 Sr6 2.784262 1_555
O17 Sr1 2.784262 1_565
O17 Sr4 2.787100 1_565
O18 Ti2 1.963642 1_555
O18 Ti3 1.963642 1_555
O18 Sr0 2.784330 1_555
O18 Sr5 2.784330 1_555
O18 Sr3 2.803917 1_555
O19 Ti2 1.973941 1_555
O19 Ti3 1.973941 1_554
O19 Sr2 2.781421 1_555
O19 Sr6 2.784262 1_555
O19 Sr1 2.784262 1_555
O19 Sr4 2.787100 1_555
O20 Ti5 1.963642 1_555
O20 Ti4 1.963642 1_555
O20 Sr5 2.784330 1_655
O20 Sr0 2.784330 1_565
O20 Sr3 2.803917 1_665
O21 Ti5 1.973941 1_554
O21 Ti4 1.973941 1_555
O21 Sr2 2.781421 1_555
O21 Sr6 2.784262 1_655
O21 Sr1 2.784262 1_565
O21 Sr4 2.787100 1_665
O22 Ti7 1.963642 1_555
O22 Ti6 1.963642 1_555
O22 Sr0 2.784330 1_555
O22 Sr5 2.784330 1_655
O22 Sr3 2.803917 1_655
O23 Ti7 1.973941 1_554
O23 Ti6 1.973941 1_555
O23 Sr2 2.781421 1_555
O23 Sr6 2.784262 1_655
O23 Sr1 2.784262 1_555
O23 Sr4 2.787100 1_655
