# generated using pymatgen
data_SmMgMnS4
_symmetry_space_group_name_H-M   'P 1'
_cell_length_a   7.86773416
_cell_length_b   7.63690508
_cell_length_c   7.63903347
_cell_angle_alpha   60.16771570
_cell_angle_beta   58.96807018
_cell_angle_gamma   59.03113890
_symmetry_Int_Tables_number   1
_chemical_formula_structural   SmMgMnS4
_chemical_formula_sum   'Sm2 Mg2 Mn2 S8'
_cell_volume   319.95218528
_cell_formula_units_Z   2
loop_
 _symmetry_equiv_pos_site_id
 _symmetry_equiv_pos_as_xyz
  1  'x, y, z'
loop_
 _atom_site_type_symbol
 _atom_site_label
 _atom_site_symmetry_multiplicity
 _atom_site_fract_x
 _atom_site_fract_y
 _atom_site_fract_z
 _atom_site_occupancy
  Sm  Sm0  1  0.50006300  0.49995400  0.49996400  1
  Sm  Sm1  1  0.00001300  0.49996500  0.50004100  1
  Mg  Mg0  1  0.87524300  0.87473300  0.87477400  1
  Mg  Mg1  1  0.12474300  0.12526000  0.12526300  1
  Mn  Mn0  1  0.49995400  0.50014300  0.99986600  1
  Mn  Mn1  1  0.49991500  0.00000500  0.49999100  1
  S  S0  1  0.71008300  0.75914300  0.75939800  1
  S  S1  1  0.27207400  0.22650200  0.72893200  1
  S  S2  1  0.27246900  0.72896900  0.22656700  1
  S  S3  1  0.72860900  0.24058600  0.24087800  1
  S  S4  1  0.72752700  0.27104200  0.77344500  1
  S  S5  1  0.27139300  0.75940900  0.75914200  1
  S  S6  1  0.28993800  0.24082700  0.24064000  1
  S  S7  1  0.72798100  0.77345800  0.27110100  1
loop_
_geom_bond_atom_site_label_1
_geom_bond_atom_site_label_2
_geom_bond_distance
_geom_bond_site_symmetry_2
Mg0 S7 2.466284 1_556
Mg0 S4 2.467123 1_565
Mg0 S0 2.525860 1_555
Mg0 S5 2.526023 1_655
Mg1 S1 2.466322 1_554
Mg1 S2 2.467020 1_545
Mg1 S3 2.525926 1_455
Mg1 S6 2.525968 1_555
Mn0 S4 2.419206 1_555
Mn0 S2 2.419224 1_556
Mn0 S0 2.576648 1_555
Mn0 S6 2.577848 1_556
Mn0 S5 2.580356 1_555
Mn0 S3 2.582491 1_556
Mn1 S7 2.418742 1_545
Mn1 S1 2.418748 1_555
Mn1 S5 2.576593 1_545
Mn1 S3 2.577404 1_555
Mn1 S6 2.580560 1_555
Mn1 S0 2.581885 1_545
S0 Sm1 2.764373 1_655
S1 Sm0 2.761190 1_555
S1 Sm1 2.761469 1_555
S2 Sm1 2.761148 1_555
S2 Sm0 2.761462 1_555
S3 Sm0 2.763960 1_555
S4 Sm1 2.760888 1_655
S4 Sm0 2.761291 1_555
S5 Sm0 2.764883 1_555
S6 Sm1 2.764389 1_555
S7 Sm0 2.761163 1_555
S7 Sm1 2.761562 1_655
