# generated using pymatgen
data_Tb6Ta4Al43
_symmetry_space_group_name_H-M   'P 1'
_cell_length_a   11.03212727
_cell_length_b   11.03210771
_cell_length_c   17.78439008
_cell_angle_alpha   90.00002080
_cell_angle_beta   89.99982129
_cell_angle_gamma   120.00007323
_symmetry_Int_Tables_number   1
_chemical_formula_structural   Tb6Ta4Al43
_chemical_formula_sum   'Tb12 Ta8 Al86'
_cell_volume   1874.50690073
_cell_formula_units_Z   2
loop_
 _symmetry_equiv_pos_site_id
 _symmetry_equiv_pos_as_xyz
  1  'x, y, z'
loop_
 _atom_site_type_symbol
 _atom_site_label
 _atom_site_symmetry_multiplicity
 _atom_site_fract_x
 _atom_site_fract_y
 _atom_site_fract_z
 _atom_site_occupancy
  Tb  Tb0  1  0.53093595  0.00000040  0.59627920  1
  Tb  Tb1  1  0.46906601  0.00000023  0.40372533  1
  Tb  Tb2  1  0.00000011  0.53093607  0.59627823  1
  Tb  Tb3  1  0.46906553  0.00000048  0.09628246  1
  Tb  Tb4  1  -0.00000004  0.53093577  0.90371333  1
  Tb  Tb5  1  0.00000027  0.46906582  0.40372581  1
  Tb  Tb6  1  0.53093619  0.00000034  0.90371261  1
  Tb  Tb7  1  0.00000098  0.46906611  0.09628211  1
  Tb  Tb8  1  0.46906360  0.46906361  0.59627834  1
  Tb  Tb9  1  0.53093488  0.53093466  0.40372557  1
  Tb  Tb10  1  0.53093419  0.53093383  0.09628229  1
  Tb  Tb11  1  0.46906325  0.46906369  0.90371313  1
  Ta  Ta0  1  0.00000634  0.00000294  0.49998723  1
  Ta  Ta1  1  -0.00000018  -0.00000028  0.00002228  1
  Ta  Ta2  1  0.72653747  0.00000021  0.74999477  1
  Ta  Ta3  1  0.27346723  0.00000009  0.25000676  1
  Ta  Ta4  1  -0.00000103  0.72654045  0.74999356  1
  Ta  Ta5  1  -0.00000038  0.27345989  0.25000619  1
  Ta  Ta6  1  0.27345716  0.27345698  0.74999240  1
  Ta  Ta7  1  0.72654077  0.72653993  0.25000516  1
  Al  Al0  1  0.15306803  0.59708453  0.74999150  1
  Al  Al1  1  0.84693106  0.40291578  0.25000806  1
  Al  Al2  1  0.40291505  0.55598436  0.74999147  1
  Al  Al3  1  0.59708595  0.15306855  0.74999145  1
  Al  Al4  1  0.59708618  0.44401616  0.25000782  1
  Al  Al5  1  0.40291404  0.84693207  0.25000815  1
  Al  Al6  1  0.44401760  0.84693265  0.74999152  1
  Al  Al7  1  0.55598313  0.40291595  0.74999144  1
  Al  Al8  1  0.55598217  0.15306839  0.25000809  1
  Al  Al9  1  0.44401570  0.59708426  0.25000793  1
  Al  Al10  1  0.84693202  0.44401779  0.74999156  1
  Al  Al11  1  0.15306969  0.55598433  0.25000803  1
  Al  Al12  1  0.15898133  0.00000008  0.11525212  1
  Al  Al13  1  0.84100733  -0.00000006  0.88474677  1
  Al  Al14  1  0.00000064  0.15898047  0.11525320  1
  Al  Al15  1  0.84101535  -0.00000034  0.61524957  1
  Al  Al16  1  -0.00000226  0.15898057  0.38475362  1
  Al  Al17  1  -0.00000114  0.84100765  0.88474632  1
  Al  Al18  1  0.15898285  0.00000040  0.38475374  1
  Al  Al19  1  -0.00000177  0.84101579  0.61524823  1
  Al  Al20  1  0.84102012  0.84101943  0.11525326  1
  Al  Al21  1  0.15898649  0.15898651  0.88474344  1
  Al  Al22  1  0.15898169  0.15898199  0.61524807  1
  Al  Al23  1  0.84101913  0.84101844  0.38475249  1
  Al  Al24  1  0.24744412  0.49488755  0.49999945  1
  Al  Al25  1  0.75255655  0.50511314  0.49999949  1
  Al  Al26  1  0.50511353  0.75255711  0.49999962  1
  Al  Al27  1  0.75255513  0.50511044  0.00000005  1
  Al  Al28  1  0.49489075  0.24744532  0.00000028  1
  Al  Al29  1  0.49488708  0.24744329  0.49999945  1
  Al  Al30  1  0.24744555  0.49489028  0.00000050  1
  Al  Al31  1  0.50511028  0.75255586  0.00000023  1
  Al  Al32  1  0.24744426  0.75255707  0.49999940  1
  Al  Al33  1  0.75255632  0.24744351  0.49999955  1
  Al  Al34  1  0.75255552  0.24744539  -0.00000016  1
  Al  Al35  1  0.24744520  0.75255556  0.00000078  1
  Al  Al36  1  0.14787721  0.00000382  0.74999373  1
  Al  Al37  1  0.85212503  0.00000004  0.25000273  1
  Al  Al38  1  0.00000471  0.14787814  0.74999650  1
  Al  Al39  1  -0.00000458  0.85211926  0.25000228  1
  Al  Al40  1  0.85212578  0.85212102  0.74999684  1
  Al  Al41  1  0.14787654  0.14788090  0.25000291  1
  Al  Al42  1  0.33333332  0.66666654  0.62501085  1
  Al  Al43  1  0.66666706  0.33333376  0.37498951  1
  Al  Al44  1  0.66666662  0.33333326  0.12498769  1
  Al  Al45  1  0.66666610  0.33333387  0.87501133  1
  Al  Al46  1  0.33333320  0.66666649  0.87501176  1
  Al  Al47  1  0.33333345  0.66666648  0.12498814  1
  Al  Al48  1  0.33333425  0.66666701  0.37498938  1
  Al  Al49  1  0.66666565  0.33333254  0.62501060  1
  Al  Al50  1  0.25455935  0.00000031  0.52960674  1
  Al  Al51  1  0.74544041  -0.00000038  0.47039151  1
  Al  Al52  1  -0.00000033  0.25455857  0.52960730  1
  Al  Al53  1  0.74543788  0.00000021  0.02961365  1
  Al  Al54  1  0.00000105  0.25456164  0.97038976  1
  Al  Al55  1  0.00000010  0.74544168  0.47039000  1
  Al  Al56  1  0.25456232  0.00000099  0.97038963  1
  Al  Al57  1  0.99999999  0.74543808  0.02961365  1
  Al  Al58  1  0.74544112  0.74544194  0.52960673  1
  Al  Al59  1  0.25455812  0.25455772  0.47039039  1
  Al  Al60  1  0.25456182  0.25456114  0.02961224  1
  Al  Al61  1  0.74543876  0.74543974  0.97038989  1
  Al  Al62  1  0.15828781  0.39474550  0.66291338  1
  Al  Al63  1  0.84171079  0.60525178  0.33708429  1
  Al  Al64  1  0.60525266  0.76354282  0.66291392  1
  Al  Al65  1  0.84170956  0.60524453  0.16292701  1
  Al  Al66  1  0.39475353  0.15829155  0.83707333  1
  Al  Al67  1  0.39475012  0.23645912  0.33708478  1
  Al  Al68  1  0.15829075  0.39475339  0.83707332  1
  Al  Al69  1  0.60524464  0.84170956  0.16292660  1
  Al  Al70  1  0.23645723  0.84171132  0.66291300  1
  Al  Al71  1  0.39475132  0.23646175  0.16292901  1
  Al  Al72  1  0.76353652  0.60524674  0.83707298  1
  Al  Al73  1  0.76353996  0.15828897  0.33708509  1
  Al  Al74  1  0.60524463  0.76353678  0.83707332  1
  Al  Al75  1  0.23646243  0.39474996  0.16292951  1
  Al  Al76  1  0.60525144  0.84171090  0.33708503  1
  Al  Al77  1  0.39474544  0.15828825  0.66291347  1
  Al  Al78  1  0.76353516  0.15829044  0.16292655  1
  Al  Al79  1  0.23645873  0.39474758  0.33708465  1
  Al  Al80  1  0.23646363  0.84170937  0.83707402  1
  Al  Al81  1  0.76354273  0.60525015  0.66291615  1
  Al  Al82  1  0.84170854  0.23646322  0.83707358  1
  Al  Al83  1  0.15828947  0.76353863  0.16292921  1
  Al  Al84  1  0.15829065  0.76354142  0.33708478  1
  Al  Al85  1  0.84171037  0.23645698  0.66291404  1
loop_
_geom_bond_atom_site_label_1
_geom_bond_atom_site_label_2
_geom_bond_distance
_geom_bond_site_symmetry_2
Tb0 Tb1 3.491816 1_555
Tb2 Tb5 3.491789 1_555
Tb3 Tb6 3.492092 1_554
Tb4 Tb7 3.492074 1_556
Tb8 Tb9 3.491795 1_555
Tb10 Tb11 3.492083 1_554
Ta2 Tb0 3.482800 1_555
Ta2 Tb6 3.482820 1_555
Ta3 Tb1 3.482822 1_555
Ta3 Tb3 3.482888 1_555
Ta4 Tb2 3.482812 1_555
Ta4 Tb4 3.482876 1_555
Ta5 Tb5 3.482876 1_555
Ta5 Tb7 3.482939 1_555
Ta6 Tb8 3.482800 1_555
Ta6 Tb11 3.482902 1_555
Ta7 Tb9 3.482883 1_555
Ta7 Tb10 3.482931 1_555
Al0 Ta4 2.702412 1_555
Al0 Al68 2.740956 1_555
Al0 Al62 2.740976 1_555
Al0 Al42 2.820995 1_555
Al0 Al46 2.821559 1_555
Al0 Al70 2.836389 1_555
Al0 Al80 2.836402 1_555
Al0 Al10 2.924853 1_455
Al0 Al2 3.008789 1_555
Al0 Al6 3.008805 1_555
Al0 Tb2 3.102409 1_555
Al0 Tb4 3.102535 1_555
Al1 Ta5 2.702407 1_655
Al1 Al65 2.740921 1_555
Al1 Al63 2.740932 1_555
Al1 Al43 2.820998 1_555
Al1 Al44 2.821555 1_555
Al1 Al73 2.836371 1_555
Al1 Al78 2.836396 1_555
Al1 Al11 2.924878 1_655
Al1 Al4 3.008767 1_555
Al1 Al8 3.008797 1_555
Al1 Tb5 3.102485 1_655
Al1 Tb7 3.102608 1_655
Al2 Ta6 2.702429 1_555
Al2 Al74 2.740945 1_555
Al2 Al64 2.740959 1_555
Al2 Al42 2.820993 1_555
Al2 Al46 2.821544 1_555
Al2 Al68 2.836392 1_555
Al2 Al62 2.836398 1_555
Al2 Al7 2.924858 1_555
Al2 Al6 3.008785 1_555
Al2 Tb8 3.102406 1_555
Al2 Tb11 3.102543 1_555
Al3 Ta2 2.702364 1_555
Al3 Al66 2.740968 1_555
Al3 Al77 2.740995 1_555
Al3 Al49 2.820993 1_555
Al3 Al45 2.821550 1_555
Al3 Al85 2.836359 1_555
Al3 Al82 2.836388 1_555
Al3 Al6 2.924846 1_545
Al3 Al7 3.008807 1_555
Al3 Tb0 3.102389 1_555
Al3 Tb6 3.102526 1_555
Al4 Ta7 2.702395 1_555
Al4 Al67 2.740939 1_555
Al4 Al71 2.740947 1_555
Al4 Al43 2.821004 1_555
Al4 Al44 2.821539 1_555
Al4 Al63 2.836358 1_555
Al4 Al65 2.836371 1_555
Al4 Al9 2.924878 1_555
Al4 Al8 3.008773 1_555
Al4 Tb9 3.102480 1_555
Al4 Tb10 3.102606 1_555
Al5 Ta3 2.702317 1_565
Al5 Al69 2.740946 1_555
Al5 Al76 2.740963 1_555
Al5 Al84 2.836339 1_555
Al5 Al83 2.836376 1_555
Al5 Al8 2.924850 1_565
Al5 Al9 3.008803 1_555
Al5 Tb1 3.102466 1_565
Al5 Tb3 3.102598 1_565
Al6 Ta2 2.702363 1_565
Al6 Al80 2.740960 1_555
Al6 Al70 2.740995 1_555
Al6 Al64 2.836364 1_555
Al6 Al74 2.836384 1_555
Al6 Tb0 3.102385 1_565
Al6 Tb6 3.102527 1_565
Al7 Ta6 2.702420 1_555
Al7 Al81 2.740926 1_555
Al7 Al72 2.740952 1_555
Al7 Al77 2.836393 1_555
Al7 Tb8 3.102402 1_555
Al7 Tb11 3.102533 1_555
Al8 Ta3 2.702318 1_555
Al8 Tb1 3.102463 1_555
Al8 Tb3 3.102598 1_555
Al9 Ta7 2.702413 1_555
Al9 Tb9 3.102480 1_555
Al9 Tb10 3.102600 1_555
Al10 Ta4 2.702384 1_655
Al10 Al82 2.740961 1_555
Al10 Al85 2.740980 1_555
Al10 Al49 2.821015 1_555
Al10 Al45 2.821547 1_555
Al10 Al81 2.836319 1_555
Al10 Al72 2.836388 1_555
Al10 Al3 3.008792 1_555
Al10 Al7 3.008801 1_555
Al10 Tb2 3.102401 1_655
Al10 Tb4 3.102541 1_655
Al11 Ta5 2.702402 1_555
Al11 Al84 2.740941 1_555
Al11 Al83 2.740943 1_555
Al11 Al48 2.821009 1_555
Al11 Al47 2.821535 1_555
Al11 Al79 2.836368 1_555
Al11 Al75 2.836388 1_555
Al11 Al5 3.008775 1_555
Al11 Al9 3.008777 1_555
Al11 Tb5 3.102477 1_555
Al11 Tb7 3.102610 1_555
Al12 Ta1 2.697368 1_555
Al12 Ta3 2.708985 1_555
Al12 Al83 2.739388 1_545
Al12 Al71 2.739391 1_555
Al12 Al56 2.783727 1_554
Al12 Al57 2.890860 1_445
Al12 Al60 2.890861 1_555
Al12 Al39 2.935884 1_545
Al12 Al41 2.935895 1_555
Al12 Al14 3.037831 1_555
Al12 Al20 3.037832 1_445
Al12 Tb3 3.437480 1_555
Al13 Ta1 2.698066 1_656
Al13 Ta2 2.708861 1_555
Al13 Al82 2.739337 1_555
Al13 Al74 2.739342 1_545
Al13 Al53 2.783754 1_556
Al13 Al61 2.890900 1_545
Al13 Al54 2.890916 1_655
Al13 Al38 2.935918 1_655
Al13 Al40 2.935919 1_545
Al13 Al21 3.038003 1_655
Al13 Al17 3.038048 1_645
Al13 Tb6 3.437334 1_555
Al14 Ta1 2.697369 1_555
Al14 Ta5 2.708923 1_555
Al14 Al75 2.739386 1_555
Al14 Al78 2.739421 1_455
Al14 Al54 2.783747 1_554
Al14 Al60 2.890873 1_555
Al14 Al53 2.890879 1_455
Al14 Al41 2.935837 1_555
Al14 Al37 2.935841 1_455
Al14 Al20 3.037825 1_445
Al14 Tb7 3.437494 1_555
Al15 Ta0 2.697857 1_655
Al15 Ta2 2.708789 1_555
Al15 Al64 2.739254 1_545
Al15 Al85 2.739258 1_555
Al15 Al51 2.783637 1_555
Al15 Al58 2.890871 1_545
Al15 Al52 2.890872 1_655
Al15 Al38 2.935850 1_655
Al15 Al40 2.935852 1_545
Al15 Al22 3.037881 1_655
Al15 Al19 3.037885 1_645
Al15 Tb0 3.437437 1_555
Al16 Ta0 2.697418 1_555
Al16 Ta5 2.708828 1_555
Al16 Al73 2.739310 1_455
Al16 Al79 2.739324 1_555
Al16 Al52 2.783570 1_555
Al16 Al51 2.890816 1_455
Al16 Al59 2.890841 1_555
Al16 Al37 2.935860 1_455
Al16 Al41 2.935861 1_555
Al16 Al23 3.037835 1_445
Al16 Al18 3.037871 1_555
Al16 Tb5 3.437479 1_555
Al17 Ta1 2.698058 1_566
Al17 Ta4 2.708854 1_555
Al17 Al72 2.739328 1_455
Al17 Al80 2.739347 1_555
Al17 Al57 2.783766 1_456
Al17 Al61 2.890905 1_455
Al17 Al56 2.890937 1_565
Al17 Al40 2.935864 1_455
Al17 Al36 2.935948 1_565
Al17 Al21 3.037995 1_565
Al17 Tb4 3.437344 1_555
Al18 Ta0 2.697384 1_555
Al18 Ta3 2.708850 1_555
Al18 Al67 2.739314 1_555
Al18 Al84 2.739315 1_545
Al18 Al50 2.783560 1_555
Al18 Al59 2.890808 1_555
Al18 Al55 2.890812 1_545
Al18 Al41 2.935901 1_555
Al18 Al39 2.935917 1_545
Al18 Al23 3.037856 1_445
Al18 Tb1 3.437477 1_555
Al19 Ta0 2.697796 1_565
Al19 Ta4 2.708782 1_555
Al19 Al70 2.739282 1_555
Al19 Al81 2.739282 1_455
Al19 Al55 2.783636 1_555
Al19 Al58 2.890861 1_455
Al19 Al50 2.890882 1_565
Al19 Al40 2.935810 1_455
Al19 Al36 2.935826 1_565
Al19 Al22 3.037874 1_565
Al19 Tb2 3.437439 1_555
Al20 Ta1 2.697364 1_665
Al20 Ta7 2.708900 1_555
Al20 Al65 2.739413 1_555
Al20 Al69 2.739422 1_555
Al20 Al61 2.783747 1_554
Al20 Al57 2.890862 1_555
Al20 Al53 2.890880 1_565
Al20 Al39 2.935825 1_655
Al20 Al37 2.935844 1_565
Al20 Tb10 3.437497 1_555
Al21 Ta1 2.698059 1_556
Al21 Ta6 2.708841 1_555
Al21 Al66 2.739341 1_555
Al21 Al68 2.739342 1_555
Al21 Al60 2.783813 1_556
Al21 Al54 2.890927 1_555
Al21 Al56 2.890936 1_555
Al21 Al38 2.935812 1_555
Al21 Al36 2.935849 1_555
Al21 Tb11 3.437398 1_555
Al22 Ta0 2.697755 1_555
Al22 Ta6 2.708766 1_555
Al22 Al62 2.739269 1_555
Al22 Al77 2.739279 1_555
Al22 Al59 2.783629 1_555
Al22 Al52 2.890862 1_555
Al22 Al50 2.890866 1_555
Al22 Al36 2.935775 1_555
Al22 Al38 2.935807 1_555
Al22 Tb8 3.437449 1_555
Al23 Ta0 2.697464 1_665
Al23 Ta7 2.708830 1_555
Al23 Al63 2.739307 1_555
Al23 Al76 2.739325 1_555
Al23 Al58 2.783577 1_555
Al23 Al55 2.890824 1_655
Al23 Al51 2.890848 1_565
Al23 Al39 2.935837 1_655
Al23 Al37 2.935852 1_565
Al23 Tb9 3.437480 1_555
Al24 Al52 2.742466 1_555
Al24 Al59 2.742473 1_555
Al24 Al48 2.763377 1_555
Al24 Al42 2.763397 1_555
Al24 Al26 2.842637 1_555
Al24 Al32 2.842637 1_555
Al24 Al62 3.081526 1_555
Al24 Al79 3.081536 1_555
Al24 Tb5 3.112401 1_555
Al24 Tb8 3.112439 1_555
Al24 Tb9 3.409869 1_555
Al24 Tb2 3.409925 1_555
Al25 Al58 2.742463 1_555
Al25 Al55 2.742464 1_655
Al25 Al43 2.763379 1_555
Al25 Al49 2.763398 1_555
Al25 Al33 2.842638 1_555
Al25 Al29 2.842639 1_555
Al25 Al63 3.081537 1_555
Al25 Al81 3.081555 1_555
Al25 Tb9 3.112398 1_555
Al25 Tb2 3.112443 1_655
Al25 Tb5 3.409870 1_655
Al25 Tb8 3.409925 1_555
Al26 Al51 2.742445 1_565
Al26 Al58 2.742455 1_555
Al26 Al48 2.763386 1_555
Al26 Al42 2.763397 1_555
Al26 Al32 2.842640 1_555
Al26 Al76 3.081524 1_555
Al26 Al64 3.081528 1_555
Al26 Tb9 3.112397 1_555
Al26 Tb0 3.112442 1_565
Al26 Tb1 3.409872 1_565
Al26 Tb8 3.409927 1_555
Al27 Al57 2.742484 1_555
Al27 Al61 2.742485 1_554
Al27 Al44 2.763043 1_555
Al27 Al45 2.763059 1_554
Al27 Al28 2.842585 1_555
Al27 Al34 2.842591 1_555
Al27 Al65 3.081729 1_555
Al27 Al72 3.081734 1_554
Al27 Tb10 3.112474 1_555
Al27 Tb4 3.112514 1_654
Al27 Tb7 3.409956 1_655
Al27 Tb11 3.410007 1_554
Al28 Al56 2.742474 1_554
Al28 Al60 2.742486 1_555
Al28 Al44 2.763040 1_555
Al28 Al45 2.763050 1_554
Al28 Al34 2.842590 1_555
Al28 Al66 3.081735 1_554
Al28 Al71 3.081767 1_555
Al28 Tb3 3.112471 1_555
Al28 Tb11 3.112522 1_554
Al28 Tb10 3.409934 1_555
Al28 Tb6 3.409995 1_554
Al29 Al50 2.742449 1_555
Al29 Al59 2.742472 1_555
Al29 Al43 2.763377 1_555
Al29 Al49 2.763395 1_555
Al29 Al33 2.842639 1_555
Al29 Al77 3.081525 1_555
Al29 Al67 3.081528 1_555
Al29 Tb1 3.112392 1_555
Al29 Tb8 3.112436 1_555
Al29 Tb9 3.409872 1_555
Al29 Tb0 3.409926 1_555
Al30 Al54 2.742477 1_554
Al30 Al60 2.742488 1_555
Al30 Al47 2.763041 1_555
Al30 Al46 2.763053 1_554
Al30 Al31 2.842589 1_555
Al30 Al35 2.842593 1_555
Al30 Al68 3.081739 1_554
Al30 Al75 3.081778 1_555
Al30 Tb7 3.112467 1_555
Al30 Tb11 3.112512 1_554
Al30 Tb10 3.409943 1_555
Al30 Tb4 3.410006 1_554
Al31 Al61 2.742478 1_554
Al31 Al53 2.742480 1_565
Al31 Al47 2.763044 1_555
Al31 Al46 2.763062 1_554
Al31 Al35 2.842592 1_555
Al31 Al69 3.081719 1_555
Al31 Al74 3.081722 1_554
Al31 Tb10 3.112487 1_555
Al31 Tb6 3.112518 1_564
Al31 Tb3 3.409939 1_565
Al31 Tb11 3.410000 1_554
Al32 Al50 2.742455 1_565
Al32 Al55 2.742477 1_555
Al32 Al48 2.763381 1_555
Al32 Al42 2.763404 1_555
Al32 Al70 3.081518 1_555
Al32 Al84 3.081531 1_555
Al32 Tb1 3.112387 1_565
Al32 Tb2 3.112436 1_555
Al32 Tb5 3.409873 1_555
Al32 Tb0 3.409931 1_565
Al33 Al51 2.742460 1_555
Al33 Al52 2.742464 1_655
Al33 Al43 2.763383 1_555
Al33 Al49 2.763393 1_555
Al33 Al73 3.081526 1_555
Al33 Al85 3.081535 1_555
Al33 Tb5 3.112390 1_655
Al33 Tb0 3.112436 1_555
Al33 Tb1 3.409873 1_555
Al33 Tb2 3.409926 1_655
Al34 Al53 2.742485 1_555
Al34 Al54 2.742486 1_654
Al34 Al44 2.763045 1_555
Al34 Al45 2.763066 1_554
Al34 Al82 3.081713 1_554
Al34 Al78 3.081725 1_555
Al34 Tb7 3.112484 1_655
Al34 Tb6 3.112524 1_554
Al34 Tb3 3.409943 1_555
Al34 Tb4 3.409978 1_654
Al35 Al56 2.742481 1_564
Al35 Al57 2.742486 1_455
Al35 Al47 2.763046 1_555
Al35 Al46 2.763063 1_554
Al35 Al80 3.081726 1_554
Al35 Al83 3.081761 1_555
Al35 Tb3 3.112472 1_565
Al35 Tb4 3.112530 1_554
Al35 Tb7 3.409926 1_555
Al35 Tb6 3.409998 1_564
Al36 Ta6 2.615485 1_555
Al36 Ta4 2.615583 1_545
Al36 Al38 2.825594 1_555
Al36 Al40 2.825637 1_445
Al36 Al77 2.847661 1_555
Al36 Al70 2.847711 1_545
Al36 Al66 2.847726 1_555
Al36 Al80 2.847774 1_545
Al37 Ta5 2.615548 1_655
Al37 Ta7 2.615551 1_545
Al37 Al39 2.825636 1_645
Al37 Al41 2.825638 1_655
Al37 Al78 2.847724 1_555
Al37 Al69 2.847726 1_545
Al37 Al76 2.847726 1_545
Al37 Al73 2.847732 1_555
Al38 Ta6 2.615484 1_555
Al38 Ta2 2.615623 1_455
Al38 Al40 2.825687 1_445
Al38 Al62 2.847680 1_555
Al38 Al68 2.847684 1_555
Al38 Al85 2.847742 1_455
Al38 Al82 2.847744 1_455
Al39 Ta7 2.615505 1_455
Al39 Ta3 2.615667 1_565
Al39 Al41 2.825730 1_565
Al39 Al83 2.847655 1_555
Al39 Al65 2.847666 1_455
Al39 Al63 2.847672 1_455
Al39 Al84 2.847743 1_555
Al40 Ta4 2.615496 1_655
Al40 Ta2 2.615627 1_565
Al40 Al72 2.847666 1_555
Al40 Al81 2.847692 1_555
Al40 Al74 2.847737 1_555
Al40 Al64 2.847748 1_555
Al41 Ta5 2.615518 1_555
Al41 Ta3 2.615665 1_555
Al41 Al75 2.847599 1_555
Al41 Al71 2.847662 1_555
Al41 Al79 2.847667 1_555
Al41 Al67 2.847741 1_555
Al42 Al64 2.718386 1_555
Al42 Al70 2.718393 1_555
Al42 Al62 2.718393 1_555
Al42 Al6 2.821005 1_555
Al42 Tb0 3.243434 1_565
Al42 Tb8 3.243437 1_555
Al42 Tb2 3.243440 1_555
Al43 Al67 2.718372 1_555
Al43 Al73 2.718377 1_555
Al43 Al63 2.718377 1_555
Al43 Al8 2.821012 1_555
Al43 Tb1 3.243441 1_555
Al43 Tb9 3.243443 1_555
Al43 Tb5 3.243449 1_655
Al44 Al65 2.718473 1_555
Al44 Al78 2.718475 1_555
Al44 Al71 2.718519 1_555
Al44 Al8 2.821551 1_555
Al44 Tb3 3.243351 1_555
Al44 Tb10 3.243358 1_555
Al44 Tb7 3.243370 1_655
Al45 Al72 2.718480 1_555
Al45 Al66 2.718481 1_555
Al45 Al82 2.718483 1_555
Al45 Al7 2.821551 1_555
Al45 Tb11 3.243347 1_555
Al45 Tb6 3.243348 1_555
Al45 Tb4 3.243358 1_655
Al46 Al74 2.718469 1_555
Al46 Al80 2.718480 1_555
Al46 Al68 2.718483 1_555
Al46 Al6 2.821555 1_555
Al46 Tb11 3.243348 1_555
Al46 Tb4 3.243350 1_555
Al46 Tb6 3.243350 1_565
Al47 Al69 2.718473 1_555
Al47 Al83 2.718526 1_555
Al47 Al75 2.718528 1_555
Al47 Al9 2.821546 1_555
Al47 Al5 2.821553 1_555
Al47 Tb7 3.243355 1_555
Al47 Tb10 3.243362 1_555
Al47 Tb3 3.243363 1_565
Al48 Al76 2.718369 1_555
Al48 Al84 2.718383 1_555
Al48 Al79 2.718389 1_555
Al48 Al9 2.821000 1_555
Al48 Al5 2.821005 1_555
Al48 Tb1 3.243441 1_565
Al48 Tb9 3.243446 1_555
Al48 Tb5 3.243451 1_555
Al49 Al81 2.718372 1_555
Al49 Al77 2.718388 1_555
Al49 Al85 2.718398 1_555
Al49 Al7 2.821002 1_555
Al49 Tb0 3.243420 1_555
Al49 Tb8 3.243438 1_555
Al49 Tb2 3.243447 1_655
Al50 Ta0 2.857254 1_555
Al50 Al70 2.891561 1_545
Al50 Al77 2.891565 1_555
Al50 Al59 2.999282 1_555
Al50 Al55 2.999296 1_545
Al50 Tb1 3.257608 1_555
Al50 Tb0 3.271469 1_555
Al51 Ta0 2.857284 1_655
Al51 Al76 2.891572 1_545
Al51 Al73 2.891572 1_555
Al51 Al58 2.999275 1_545
Al51 Al52 2.999291 1_655
Al51 Tb0 3.257670 1_555
Al51 Tb1 3.271409 1_555
Al52 Ta0 2.857300 1_555
Al52 Al62 2.891560 1_555
Al52 Al85 2.891569 1_455
Al52 Al59 2.999295 1_555
Al52 Tb5 3.257614 1_555
Al52 Tb2 3.271457 1_555
Al53 Ta1 2.857244 1_655
Al53 Al69 2.891678 1_545
Al53 Al78 2.891678 1_555
Al53 Al61 2.999357 1_544
Al53 Al54 2.999369 1_654
Al53 Tb6 3.257818 1_554
Al53 Tb3 3.271396 1_555
Al54 Ta1 2.857366 1_556
Al54 Al68 2.891721 1_555
Al54 Al82 2.891744 1_455
Al54 Al60 2.999358 1_556
Al54 Tb7 3.257726 1_556
Al54 Tb4 3.271467 1_555
Al55 Ta0 2.857216 1_565
Al55 Al84 2.891559 1_555
Al55 Al63 2.891566 1_455
Al55 Al58 2.999297 1_455
Al55 Tb2 3.257685 1_555
Al55 Tb5 3.271400 1_555
Al56 Ta1 2.857376 1_556
Al56 Al66 2.891721 1_555
Al56 Al80 2.891723 1_545
Al56 Al60 2.999345 1_556
Al56 Al57 2.999374 1_446
Al56 Tb3 3.257732 1_556
Al56 Tb6 3.271467 1_555
Al57 Ta1 2.857236 1_665
Al57 Al65 2.891683 1_555
Al57 Al83 2.891710 1_655
Al57 Al61 2.999377 1_554
Al57 Tb4 3.257805 1_654
Al57 Tb7 3.271393 1_655
Al58 Ta0 2.857341 1_665
Al58 Al64 2.891578 1_555
Al58 Al81 2.891638 1_555
Al58 Tb9 3.257612 1_555
Al58 Tb8 3.271465 1_555
Al59 Ta0 2.857160 1_555
Al59 Al79 2.891564 1_555
Al59 Al67 2.891569 1_555
Al59 Tb8 3.257686 1_555
Al59 Tb9 3.271410 1_555
Al60 Ta1 2.857232 1_555
Al60 Al75 2.891723 1_555
Al60 Al71 2.891727 1_555
Al60 Tb11 3.257784 1_554
Al60 Tb10 3.271406 1_555
Al61 Ta1 2.857358 1_666
Al61 Al72 2.891738 1_555
Al61 Al74 2.891744 1_555
Al61 Tb10 3.257728 1_556
Al61 Tb11 3.271482 1_555
Al62 Ta6 2.739194 1_555
Al62 Al85 3.024611 1_455
Al62 Tb2 3.055305 1_555
Al62 Al68 3.097328 1_555
Al62 Tb8 3.319684 1_555
Al63 Ta7 2.739197 1_555
Al63 Al84 3.024634 1_655
Al63 Tb5 3.055326 1_655
Al63 Al65 3.097281 1_555
Al63 Tb9 3.319728 1_555
Al64 Ta2 2.739203 1_565
Al64 Al81 3.024662 1_555
Al64 Tb8 3.055311 1_555
Al64 Al74 3.097319 1_555
Al64 Tb0 3.319673 1_565
Al65 Ta7 2.739230 1_555
Al65 Al83 3.024635 1_655
Al65 Tb7 3.055297 1_655
Al65 Tb10 3.319771 1_555
Al66 Ta6 2.739245 1_555
Al66 Al7 2.836390 1_555
Al66 Al80 3.024651 1_545
Al66 Tb6 3.055297 1_555
Al66 Al77 3.097327 1_555
Al66 Tb11 3.319701 1_555
Al67 Ta3 2.739188 1_555
Al67 Al8 2.836336 1_555
Al67 Al79 3.024635 1_555
Al67 Tb9 3.055316 1_555
Al67 Al71 3.097254 1_555
Al67 Tb1 3.319717 1_555
Al68 Ta6 2.739247 1_555
Al68 Al82 3.024657 1_455
Al68 Tb4 3.055292 1_555
Al68 Tb11 3.319712 1_555
Al69 Ta7 2.739252 1_555
Al69 Al9 2.836389 1_555
Al69 Al78 3.024639 1_565
Al69 Tb3 3.055297 1_565
Al69 Al76 3.097301 1_555
Al69 Tb10 3.319763 1_555
Al70 Ta4 2.739205 1_555
Al70 Al77 3.024601 1_565
Al70 Tb0 3.055293 1_565
Al70 Al80 3.097348 1_555
Al70 Tb2 3.319677 1_555
Al71 Ta3 2.739202 1_555
Al71 Al8 2.836373 1_555
Al71 Al75 3.024608 1_555
Al71 Tb10 3.055323 1_555
Al71 Tb3 3.319765 1_555
Al72 Ta4 2.739227 1_655
Al72 Al74 3.024655 1_555
Al72 Tb11 3.055291 1_555
Al72 Al81 3.097273 1_555
Al72 Tb4 3.319732 1_655
Al73 Ta5 2.739199 1_655
Al73 Al8 2.740960 1_555
Al73 Al76 3.024612 1_545
Al73 Tb1 3.055297 1_555
Al73 Al78 3.097303 1_555
Al73 Tb5 3.319735 1_655
Al74 Ta2 2.739225 1_565
Al74 Tb11 3.055286 1_555
Al74 Tb6 3.319701 1_565
Al75 Ta5 2.739202 1_555
Al75 Al9 2.740936 1_555
Al75 Tb10 3.055326 1_555
Al75 Al79 3.097243 1_555
Al75 Tb7 3.319793 1_555
Al76 Ta7 2.739216 1_555
Al76 Al9 2.836374 1_555
Al76 Tb1 3.055306 1_565
Al76 Tb9 3.319725 1_555
Al77 Ta6 2.739181 1_555
Al77 Tb0 3.055295 1_555
Al77 Tb8 3.319677 1_555
Al78 Ta5 2.739254 1_655
Al78 Al8 2.740947 1_555
Al78 Tb3 3.055294 1_555
Al78 Tb7 3.319762 1_655
Al79 Ta5 2.739199 1_555
Al79 Al9 2.740939 1_555
Al79 Tb9 3.055328 1_555
Al79 Tb5 3.319733 1_555
Al80 Ta4 2.739264 1_555
Al80 Tb6 3.055282 1_565
Al80 Tb4 3.319708 1_555
Al81 Ta4 2.739166 1_655
Al81 Tb8 3.055334 1_555
Al81 Tb2 3.319672 1_655
Al82 Ta2 2.739228 1_555
Al82 Tb4 3.055283 1_655
Al82 Al85 3.097321 1_555
Al82 Tb6 3.319697 1_555
Al83 Ta3 2.739202 1_565
Al83 Tb7 3.055332 1_555
Al83 Al84 3.097251 1_555
Al83 Tb3 3.319769 1_565
Al84 Ta3 2.739181 1_565
Al84 Tb5 3.055315 1_555
Al84 Tb1 3.319723 1_565
Al85 Ta2 2.739194 1_555
Al85 Tb2 3.055308 1_655
Al85 Tb0 3.319673 1_555
