# generated using pymatgen
data_MgAs4(PO4)4
_symmetry_space_group_name_H-M   'P 1'
_cell_length_a   5.01705115
_cell_length_b   8.56239680
_cell_length_c   8.54424751
_cell_angle_alpha   94.67122279
_cell_angle_beta   90.00000000
_cell_angle_gamma   90.00000000
_symmetry_Int_Tables_number   1
_chemical_formula_structural   MgAs4(PO4)4
_chemical_formula_sum   'Mg1 As4 P4 O16'
_cell_volume   365.82447019
_cell_formula_units_Z   1
loop_
 _symmetry_equiv_pos_site_id
 _symmetry_equiv_pos_as_xyz
  1  'x, y, z'
loop_
 _atom_site_type_symbol
 _atom_site_label
 _atom_site_symmetry_multiplicity
 _atom_site_fract_x
 _atom_site_fract_y
 _atom_site_fract_z
 _atom_site_occupancy
  Mg  Mg0  1  0.75000000  0.06417424  0.45998387  1
  As  As0  1  0.25000000  0.63632230  0.69782580  1
  As  As1  1  0.75000000  0.31448637  0.29515792  1
  As  As2  1  0.75000000  0.13649324  0.82589360  1
  As  As3  1  0.25000000  0.83858652  0.23880652  1
  P  P0  1  0.25000000  0.28460687  0.62457280  1
  P  P1  1  0.75000000  0.72577295  0.38507884  1
  P  P2  1  0.75000000  0.80898502  0.87103242  1
  P  P3  1  0.25000000  0.17107747  0.09936317  1
  O  O0  1  0.25000000  0.33464533  0.46132806  1
  O  O1  1  0.75000000  0.64247490  0.53335792  1
  O  O2  1  0.75000000  0.90748401  0.02405111  1
  O  O3  1  0.25000000  0.09573772  0.93156902  1
  O  O4  1  0.25000000  0.42764825  0.75580425  1
  O  O5  1  0.75000000  0.64992360  0.22260298  1
  O  O6  1  0.75000000  0.93182758  0.73547398  1
  O  O7  1  0.25000000  0.04873396  0.23147042  1
  O  O8  1  0.99952236  0.27313689  0.12814523  1
  O  O9  1  0.50124486  0.69963482  0.84845160  1
  O  O10  1  0.99207794  0.85942606  0.40037740  1
  O  O11  1  0.50364539  0.17914557  0.65133942  1
  O  O12  1  0.99875514  0.69963482  0.84845160  1
  O  O13  1  0.50047764  0.27313689  0.12814523  1
  O  O14  1  0.99635461  0.17914557  0.65133942  1
  O  O15  1  0.50792206  0.85942606  0.40037740  1
loop_
_geom_bond_atom_site_label_1
_geom_bond_atom_site_label_2
_geom_bond_distance
_geom_bond_site_symmetry_2
Mg0 O15 2.159280 1_545
Mg0 O10 2.159280 1_545
Mg0 O14 2.215349 1_555
Mg0 O11 2.215349 1_555
Mg0 O6 2.694298 1_545
As0 O12 1.850798 1_455
As0 O9 1.850798 1_555
As0 O4 1.892629 1_555
As1 O13 1.909595 1_555
As1 O8 1.909595 1_555
As1 Mg0 2.658681 1_555
As2 O6 1.856705 1_545
As2 O14 1.993514 1_555
As2 O11 1.993514 1_555
As3 O7 1.805552 1_565
As3 O10 1.889963 1_455
As3 O15 1.889963 1_555
O0 P0 1.492106 1_555
O1 P1 1.503661 1_555
O2 P2 1.497022 1_554
O3 P3 1.523459 1_556
O4 P0 1.591746 1_555
O5 P1 1.483959 1_555
O6 P2 1.626745 1_555
O7 P3 1.601265 1_555
O8 P3 1.538935 1_655
O9 P2 1.562692 1_555
O10 P1 1.666555 1_555
O11 P0 1.587684 1_555
O12 P2 1.562692 1_555
O13 P3 1.538935 1_555
O14 P0 1.587684 1_655
O15 P1 1.666555 1_555
