# generated using pymatgen
data_Al2O3
_symmetry_space_group_name_H-M   'P 1'
_cell_length_a   10.54966178
_cell_length_b   10.14336905
_cell_length_c   10.24359370
_cell_angle_alpha   92.22476849
_cell_angle_beta   92.20911185
_cell_angle_gamma   90.27215823
_symmetry_Int_Tables_number   1
_chemical_formula_structural   Al2O3
_chemical_formula_sum   'Al40 O60'
_cell_volume   1094.49615113
_cell_formula_units_Z   20
loop_
 _symmetry_equiv_pos_site_id
 _symmetry_equiv_pos_as_xyz
  1  'x, y, z'
loop_
 _atom_site_type_symbol
 _atom_site_label
 _atom_site_symmetry_multiplicity
 _atom_site_fract_x
 _atom_site_fract_y
 _atom_site_fract_z
 _atom_site_occupancy
  Al  Al0  1  0.46456500  0.16103500  0.89763000  1
  Al  Al1  1  0.09926600  0.01557900  0.52613600  1
  Al  Al2  1  0.37073000  0.00842600  0.09596900  1
  Al  Al3  1  0.14176800  0.71651100  0.39967800  1
  Al  Al4  1  0.75307800  0.86076700  0.11682300  1
  Al  Al5  1  0.35046200  0.50942500  0.15138000  1
  Al  Al6  1  0.00237500  0.28078700  0.69524600  1
  Al  Al7  1  0.38694800  0.19033700  0.58844100  1
  Al  Al8  1  0.22127100  0.24313400  0.88825800  1
  Al  Al9  1  0.55388200  0.44629000  0.56190600  1
  Al  Al10  1  0.44927100  0.74492200  0.54456000  1
  Al  Al11  1  0.12524900  0.56206000  0.94023100  1
  Al  Al12  1  0.65130100  0.90987200  0.65527600  1
  Al  Al13  1  0.85532700  0.05468100  0.69988100  1
  Al  Al14  1  0.64543600  0.19509000  0.44699800  1
  Al  Al15  1  0.75840300  0.63316900  0.72690900  1
  Al  Al16  1  0.85951600  0.42145100  0.90526000  1
  Al  Al17  1  0.90235500  0.77599500  0.53943900  1
  Al  Al18  1  0.11971100  0.99399000  0.22161200  1
  Al  Al19  1  0.37547800  0.74466600  0.28200000  1
  Al  Al20  1  0.94512200  0.11204700  0.00901400  1
  Al  Al21  1  0.34952500  0.62102300  0.73405800  1
  Al  Al22  1  0.47230100  0.72681900  0.98666100  1
  Al  Al23  1  0.03239600  0.71645500  0.14622600  1
  Al  Al24  1  0.06141400  0.89484800  0.90291600  1
  Al  Al25  1  0.50305600  0.42231700  0.91684300  1
  Al  Al26  1  0.06065500  0.55093500  0.66715300  1
  Al  Al27  1  0.58256300  0.42584700  0.24099200  1
  Al  Al28  1  0.73096800  0.60539400  0.04765800  1
  Al  Al29  1  0.67675000  0.71139500  0.34462600  1
  Al  Al30  1  0.67495600  0.23199400  0.73356500  1
  Al  Al31  1  0.21693400  0.19645500  0.35901600  1
  Al  Al32  1  0.40989000  0.97272300  0.42085900  1
  Al  Al33  1  0.32530200  0.93647700  0.80169100  1
  Al  Al34  1  0.81831900  0.46679900  0.50026800  1
  Al  Al35  1  0.89332300  0.53332200  0.22795500  1
  Al  Al36  1  0.09188600  0.35457600  0.12171600  1
  Al  Al37  1  0.25769800  0.45918100  0.40173800  1
  Al  Al38  1  0.82592200  0.26547200  0.25576000  1
  Al  Al39  1  0.65802200  0.12003600  0.14870100  1
  O  O0  1  0.86420400  0.72938900  0.09170600  1
  O  O1  1  0.03676200  0.52928400  0.11896100  1
  O  O2  1  0.30002300  0.09173700  0.94502700  1
  O  O3  1  0.94509700  0.23136000  0.14963800  1
  O  O4  1  0.74491000  0.55327000  0.87610000  1
  O  O5  1  0.75205600  0.19972100  0.58206100  1
  O  O6  1  0.38435600  0.67826800  0.11950600  1
  O  O7  1  0.27110300  0.06125800  0.50443600  1
  O  O8  1  0.51710900  0.47270500  0.08095300  1
  O  O9  1  0.99348500  0.11462700  0.62093000  1
  O  O10  1  0.41676200  0.07973200  0.73560000  1
  O  O11  1  0.98405000  0.66371400  0.31449500  1
  O  O12  1  0.87646400  0.40763000  0.34560600  1
  O  O13  1  0.51505200  0.09550600  0.05992600  1
  O  O14  1  0.71423200  0.85876100  0.27889600  1
  O  O15  1  0.16488100  0.27901900  0.73209100  1
  O  O16  1  0.00167300  0.48054400  0.84320100  1
  O  O17  1  0.64346200  0.75207500  0.71273700  1
  O  O18  1  0.41922600  0.91579700  0.24738800  1
  O  O19  1  0.68550500  0.05305200  0.75742200  1
  O  O20  1  0.14208800  0.82462200  0.24369900  1
  O  O21  1  0.15630900  0.57512700  0.51688400  1
  O  O22  1  0.51689100  0.68507100  0.38235100  1
  O  O23  1  0.85497800  0.26826500  0.80582400  1
  O  O24  1  0.82417900  0.45370000  0.07127500  1
  O  O25  1  0.29250500  0.30732500  0.48752600  1
  O  O26  1  0.16182200  0.91929400  0.77599700  1
  O  O27  1  0.08149100  0.24103300  0.97865700  1
  O  O28  1  0.70814100  0.48751900  0.63253900  1
  O  O29  1  0.19716700  0.58417600  0.78048700  1
  O  O30  1  0.53041800  0.90159000  0.53165700  1
  O  O31  1  0.31450200  0.80694900  0.44080000  1
  O  O32  1  0.78890700  0.65330700  0.46838600  1
  O  O33  1  0.25677400  0.60381600  0.29930700  1
  O  O34  1  0.77960600  0.02778300  0.07005000  1
  O  O35  1  0.93081000  0.00637200  0.85533600  1
  O  O36  1  0.37717800  0.31306500  0.88692300  1
  O  O37  1  0.60709200  0.28296400  0.88457800  1
  O  O38  1  0.37617100  0.78824500  0.70272000  1
  O  O39  1  0.70449100  0.57384200  0.23066900  1
  O  O40  1  0.41675300  0.42570300  0.28985900  1
  O  O41  1  0.52177800  0.30036500  0.64353200  1
  O  O42  1  0.08937700  0.73457100  0.97869300  1
  O  O43  1  0.67283600  0.29356900  0.17019100  1
  O  O44  1  0.39203800  0.87541100  0.95841300  1
  O  O45  1  0.73617300  0.12920500  0.31811900  1
  O  O46  1  0.16364800  0.34577200  0.28270900  1
  O  O47  1  0.48856900  0.13253800  0.44426100  1
  O  O48  1  0.63363500  0.75251600  0.02965900  1
  O  O49  1  0.81201700  0.91219100  0.59471100  1
  O  O50  1  0.95998800  0.41625800  0.59415500  1
  O  O51  1  0.07377400  0.08602800  0.36452900  1
  O  O52  1  0.63438800  0.38144100  0.41739000  1
  O  O53  1  0.45581800  0.58622500  0.86729600  1
  O  O54  1  0.43163600  0.56482400  0.58791400  1
  O  O55  1  0.25966500  0.09546100  0.21142600  1
  O  O56  1  0.92552900  0.67232500  0.68025300  1
  O  O57  1  0.04732200  0.98127000  0.06487200  1
  O  O58  1  0.23031500  0.44988100  0.03437600  1
  O  O59  1  0.05344900  0.84409500  0.50264100  1
loop_
_geom_bond_atom_site_label_1
_geom_bond_atom_site_label_2
_geom_bond_distance
_geom_bond_site_symmetry_2
Al0 O36 1.805225 1_555
Al0 O13 1.873572 1_556
Al0 O10 1.874704 1_555
Al0 O37 1.954225 1_555
Al0 O2 1.955227 1_555
Al1 O9 1.793345 1_455
Al1 O59 1.807677 1_545
Al1 O51 1.839234 1_555
Al1 O7 1.892485 1_555
Al2 O13 1.813985 1_555
Al2 O55 1.893838 1_555
Al2 O18 1.899187 1_545
Al2 O2 1.918268 1_554
Al2 O44 1.932898 1_544
Al3 O59 1.906978 1_555
Al3 O21 1.908728 1_555
Al3 O11 1.913110 1_455
Al3 O33 1.963145 1_555
Al3 O20 1.972790 1_555
Al3 O31 2.057821 1_555
Al4 O14 1.726167 1_555
Al4 O0 1.796642 1_555
Al4 O34 1.801867 1_565
Al4 O48 1.847891 1_555
Al5 O6 1.792815 1_555
Al5 O58 1.796463 1_555
Al5 O40 1.801434 1_555
Al5 O8 1.957838 1_555
Al5 O33 2.049767 1_555
Al6 O15 1.741498 1_555
Al6 O50 1.800319 1_455
Al6 O9 1.822730 1_455
Al6 O23 1.965261 1_455
Al7 O41 1.860493 1_555
Al7 O25 1.869896 1_555
Al7 O10 1.930822 1_555
Al7 O47 1.932655 1_555
Al7 O7 1.940252 1_555
Al8 O15 1.737633 1_555
Al8 O27 1.771721 1_555
Al8 O36 1.788855 1_555
Al8 O2 1.852272 1_555
Al9 O41 1.765761 1_555
Al9 O54 1.787775 1_555
Al9 O28 1.796115 1_555
Al9 O52 1.836334 1_555
Al10 O30 1.813231 1_555
Al10 O38 1.859275 1_555
Al10 O31 1.868392 1_555
Al10 O54 1.906611 1_555
Al10 O22 1.911951 1_555
Al11 O16 1.788082 1_555
Al11 O42 1.823363 1_555
Al11 O29 1.851003 1_555
Al11 O58 1.862293 1_556
Al11 O1 2.123676 1_556
Al12 O17 1.729404 1_555
Al12 O30 1.761571 1_555
Al12 O19 1.783879 1_565
Al12 O49 1.828119 1_555
Al13 O9 1.807981 1_555
Al13 O49 1.814729 1_545
Al13 O35 1.837543 1_555
Al13 O19 1.907691 1_555
Al13 O5 2.204470 1_555
Al13 O23 2.385194 1_555
Al14 O5 1.748150 1_555
Al14 O47 1.768361 1_555
Al14 O45 1.772238 1_555
Al14 O52 1.929354 1_555
Al15 O17 1.720482 1_555
Al15 O4 1.767618 1_555
Al15 O28 1.800129 1_555
Al15 O56 1.888864 1_555
Al16 O16 1.762690 1_655
Al16 O24 1.773367 1_556
Al16 O23 1.823957 1_555
Al16 O4 1.832312 1_555
Al17 O49 1.769385 1_555
Al17 O59 1.793355 1_655
Al17 O56 1.827351 1_555
Al17 O32 1.832824 1_555
Al18 O57 1.751056 1_555
Al18 O20 1.757335 1_555
Al18 O51 1.789567 1_565
Al18 O55 1.804437 1_565
Al19 O6 1.777242 1_555
Al19 O18 1.845172 1_555
Al19 O31 1.861119 1_555
Al19 O22 1.893762 1_555
Al19 O33 1.913270 1_555
Al20 O57 1.809550 1_645
Al20 O3 1.845095 1_555
Al20 O35 1.870575 1_554
Al20 O27 1.981511 1_654
Al20 O34 2.069283 1_555
Al21 O29 1.736781 1_555
Al21 O38 1.761774 1_555
Al21 O53 1.779881 1_555
Al21 O54 1.831630 1_555
Al22 O48 1.757239 1_556
Al22 O44 1.760548 1_555
Al22 O6 1.760724 1_556
Al22 O53 1.845243 1_555
Al23 O20 1.831311 1_555
Al23 O0 1.846348 1_455
Al23 O42 1.855593 1_554
Al23 O1 1.909254 1_555
Al23 O11 1.911590 1_455
Al24 O26 1.732779 1_555
Al24 O42 1.848647 1_555
Al24 O35 1.849725 1_465
Al24 O57 1.857473 1_556
Al25 O36 1.736025 1_555
Al25 O8 1.738557 1_556
Al25 O37 1.821615 1_555
Al25 O53 1.823184 1_555
Al26 O29 1.836201 1_555
Al26 O50 1.843598 1_455
Al26 O56 1.893372 1_455
Al26 O21 1.895966 1_555
Al26 O16 2.081192 1_555
Al27 O43 1.795294 1_555
Al27 O8 1.834834 1_555
Al27 O40 1.837921 1_555
Al27 O52 1.938102 1_555
Al27 O39 1.980838 1_555
Al28 O48 1.826662 1_555
Al28 O4 1.827033 1_554
Al28 O24 1.848781 1_555
Al28 O0 1.910868 1_555
Al28 O39 1.944483 1_555
Al29 O14 1.713811 1_555
Al29 O22 1.765998 1_555
Al29 O39 1.816258 1_555
Al29 O32 1.817507 1_555
Al30 O37 1.788749 1_555
Al30 O5 1.799357 1_555
Al30 O19 1.844143 1_555
Al30 O41 1.971881 1_555
Al30 O23 2.038121 1_555
Al31 O46 1.813029 1_555
Al31 O25 1.851722 1_555
Al31 O55 1.864144 1_555
Al31 O51 1.879949 1_555
Al31 O7 2.127576 1_555
Al32 O47 1.820983 1_565
Al32 O30 1.840268 1_555
Al32 O18 1.853401 1_555
Al32 O7 1.932001 1_565
Al32 O31 1.976940 1_555
Al33 O26 1.741461 1_555
Al33 O44 1.857649 1_555
Al33 O38 1.872915 1_555
Al33 O10 1.901106 1_565
Al33 O2 2.135834 1_565
Al34 O12 1.803071 1_555
Al34 O28 1.825560 1_555
Al34 O50 1.831998 1_555
Al34 O32 1.956438 1_555
Al34 O52 2.244003 1_555
Al35 O12 1.800890 1_555
Al35 O11 1.811851 1_555
Al35 O24 1.887801 1_555
Al35 O1 1.914521 1_655
Al35 O39 2.037003 1_555
Al36 O46 1.793497 1_555
Al36 O27 1.827934 1_554
Al36 O1 1.868644 1_555
Al36 O58 2.005531 1_555
Al36 O3 2.021254 1_455
Al37 O25 1.834475 1_555
Al37 O33 1.836368 1_555
Al37 O46 1.892460 1_555
Al37 O21 1.979902 1_555
Al37 O40 2.089925 1_555
Al38 O3 1.721172 1_555
Al38 O12 1.749977 1_555
Al38 O45 1.821469 1_555
Al38 O43 1.836413 1_555
Al39 O13 1.742677 1_555
Al39 O43 1.770839 1_555
Al39 O34 1.789559 1_555
Al39 O45 1.891193 1_555
