# generated using pymatgen
data_PrCdNi4
_symmetry_space_group_name_H-M   'P 1'
_cell_length_a   5.01499742
_cell_length_b   5.01501041
_cell_length_c   5.01501042
_cell_angle_alpha   59.99997141
_cell_angle_beta   59.99989534
_cell_angle_gamma   59.99988568
_symmetry_Int_Tables_number   1
_chemical_formula_structural   PrCdNi4
_chemical_formula_sum   'Pr1 Cd1 Ni4'
_cell_volume   89.18638939
_cell_formula_units_Z   1
loop_
 _symmetry_equiv_pos_site_id
 _symmetry_equiv_pos_as_xyz
  1  'x, y, z'
loop_
 _atom_site_type_symbol
 _atom_site_label
 _atom_site_symmetry_multiplicity
 _atom_site_fract_x
 _atom_site_fract_y
 _atom_site_fract_z
 _atom_site_occupancy
  Pr  Pr0  1  0.24999900  0.25000100  0.25000000  1
  Cd  Cd0  1  0.00000000  0.00000000  0.00000000  1
  Ni  Ni0  1  0.62651823  0.62651723  0.12044631  1
  Ni  Ni1  1  0.62651823  0.12044531  0.62651823  1
  Ni  Ni2  1  0.12044531  0.62651823  0.62651823  1
  Ni  Ni3  1  0.62651823  0.62651823  0.62651823  1
loop_
_geom_bond_atom_site_label_1
_geom_bond_atom_site_label_2
_geom_bond_distance
_geom_bond_site_symmetry_2
Cd0 Ni3 2.937112 1_544
Cd0 Ni1 2.937112 1_554
Cd0 Ni0 2.937114 1_545
Cd0 Ni0 2.937115 1_455
Cd0 Ni3 2.937117 1_454
Cd0 Ni3 2.937117 1_445
Cd0 Ni1 2.937118 1_455
Cd0 Ni1 2.937118 1_454
Cd0 Ni2 2.937120 1_545
Cd0 Ni2 2.937120 1_554
Cd0 Ni0 2.937121 1_445
Cd0 Ni2 2.937121 1_544
Cd0 Pr0 3.071045 1_455
Cd0 Pr0 3.071048 1_545
Cd0 Pr0 3.071052 1_554
Cd0 Pr0 3.071053 1_555
Ni0 Ni2 2.477045 1_654
Ni0 Ni3 2.477052 1_554
Ni0 Ni1 2.477053 1_564
Ni0 Ni2 2.537951 1_555
Ni0 Ni1 2.537955 1_555
Ni0 Ni3 2.537958 1_555
Ni0 Pr0 2.943598 1_655
Ni0 Pr0 2.943609 1_555
Ni0 Pr0 2.943617 1_565
Ni1 Ni2 2.477042 1_645
Ni1 Ni3 2.477049 1_545
Ni1 Ni2 2.537953 1_555
Ni1 Ni3 2.537961 1_555
Ni1 Pr0 2.943603 1_655
Ni1 Pr0 2.943613 1_556
Ni1 Pr0 2.943613 1_555
Ni2 Ni3 2.477043 1_455
Ni2 Ni3 2.537954 1_555
Ni2 Pr0 2.943611 1_556
Ni2 Pr0 2.943612 1_555
Ni2 Pr0 2.943615 1_565
Ni3 Pr0 2.943601 1_655
Ni3 Pr0 2.943610 1_556
Ni3 Pr0 2.943614 1_565
