# generated using pymatgen
data_Ba3NaSi2B7O20
_symmetry_space_group_name_H-M   'P 1'
_cell_length_a   8.54215583
_cell_length_b   8.54215583
_cell_length_c   13.71040163
_cell_angle_alpha   68.98241724
_cell_angle_beta   68.98241724
_cell_angle_gamma   59.97641127
_symmetry_Int_Tables_number   1
_chemical_formula_structural   Ba3NaSi2B7O20
_chemical_formula_sum   'Ba6 Na2 Si4 B14 O40'
_cell_volume   788.43637374
_cell_formula_units_Z   2
loop_
 _symmetry_equiv_pos_site_id
 _symmetry_equiv_pos_as_xyz
  1  'x, y, z'
loop_
 _atom_site_type_symbol
 _atom_site_label
 _atom_site_symmetry_multiplicity
 _atom_site_fract_x
 _atom_site_fract_y
 _atom_site_fract_z
 _atom_site_occupancy
  Ba  Ba0  1  0.57549500  0.42450500  0.25000000  1
  Ba  Ba1  1  0.42450500  0.57549500  0.75000000  1
  Ba  Ba2  1  0.85316300  0.72514400  0.69864100  1
  Ba  Ba3  1  0.27485600  0.14683700  0.80135900  1
  Ba  Ba4  1  0.14683700  0.27485600  0.30135900  1
  Ba  Ba5  1  0.72514400  0.85316300  0.19864100  1
  Na  Na0  1  0.50000000  0.00000000  0.50000000  1
  Na  Na1  1  0.00000000  0.50000000  0.00000000  1
  Si  Si0  1  0.74335400  0.52825600  0.49126000  1
  Si  Si1  1  0.47174400  0.25664600  0.00874000  1
  Si  Si2  1  0.25664600  0.47174400  0.50874000  1
  Si  Si3  1  0.52825600  0.74335400  0.99126000  1
  B  B0  1  0.36748900  0.74884100  0.46730300  1
  B  B1  1  0.25115900  0.63251100  0.03269700  1
  B  B2  1  0.63251100  0.25115900  0.53269700  1
  B  B3  1  0.74884100  0.36748900  0.96730300  1
  B  B4  1  0.00423200  0.68399000  0.37915700  1
  B  B5  1  0.31601000  0.99576800  0.12084300  1
  B  B6  1  0.99576800  0.31601000  0.62084300  1
  B  B7  1  0.68399000  0.00423200  0.87915700  1
  B  B8  1  0.86116300  0.97780000  0.44310100  1
  B  B9  1  0.02220000  0.13883700  0.05689900  1
  B  B10  1  0.13883700  0.02220000  0.55689900  1
  B  B11  1  0.97780000  0.86116300  0.94310100  1
  B  B12  1  0.01660700  0.98339300  0.25000000  1
  B  B13  1  0.98339300  0.01660700  0.75000000  1
  O  O0  1  0.26686500  0.63638100  0.53639400  1
  O  O1  1  0.36361900  0.73313500  0.96360600  1
  O  O2  1  0.73313500  0.36361900  0.46360600  1
  O  O3  1  0.63638100  0.26686500  0.03639400  1
  O  O4  1  0.53159500  0.69915900  0.51097000  1
  O  O5  1  0.30084100  0.46840500  0.98903000  1
  O  O6  1  0.46840500  0.30084100  0.48903000  1
  O  O7  1  0.69915900  0.53159500  0.01097000  1
  O  O8  1  0.75619500  0.05401900  0.53175900  1
  O  O9  1  0.94598100  0.24380500  0.96824100  1
  O  O10  1  0.24380500  0.94598100  0.46824100  1
  O  O11  1  0.05401900  0.75619500  0.03175900  1
  O  O12  1  0.89684800  0.07999400  0.34156300  1
  O  O13  1  0.92000600  0.10315200  0.15843700  1
  O  O14  1  0.10315200  0.92000600  0.65843700  1
  O  O15  1  0.07999400  0.89684800  0.84156300  1
  O  O16  1  0.81019100  0.46848500  0.60293200  1
  O  O17  1  0.53151500  0.18980900  0.89706800  1
  O  O18  1  0.18980900  0.53151500  0.39706800  1
  O  O19  1  0.46848500  0.81019100  0.10293200  1
  O  O20  1  0.91544600  0.78974900  0.46488800  1
  O  O21  1  0.21025100  0.08455400  0.03511200  1
  O  O22  1  0.08455400  0.21025100  0.53511200  1
  O  O23  1  0.78974900  0.91544600  0.96488800  1
  O  O24  1  0.11734500  0.40273200  0.61393600  1
  O  O25  1  0.59726800  0.88265500  0.88606400  1
  O  O26  1  0.88265500  0.59726800  0.38606400  1
  O  O27  1  0.40273200  0.11734500  0.11393600  1
  O  O28  1  0.01668000  0.80317200  0.27359400  1
  O  O29  1  0.19682800  0.98332000  0.22640600  1
  O  O30  1  0.98332000  0.19682800  0.72640600  1
  O  O31  1  0.80317200  0.01668000  0.77359400  1
  O  O32  1  0.51046200  0.11920100  0.31490900  1
  O  O33  1  0.88079900  0.48953800  0.18509100  1
  O  O34  1  0.48953800  0.88079900  0.68509100  1
  O  O35  1  0.11920100  0.51046200  0.81490900  1
  O  O36  1  0.45846400  0.71985000  0.35863900  1
  O  O37  1  0.28015000  0.54153600  0.14136100  1
  O  O38  1  0.54153600  0.28015000  0.64136100  1
  O  O39  1  0.71985000  0.45846400  0.85863900  1
loop_
_geom_bond_atom_site_label_1
_geom_bond_atom_site_label_2
_geom_bond_distance
_geom_bond_site_symmetry_2
Ba0 O33 2.707840 1_555
Ba0 O32 2.707840 1_555
Ba0 O37 2.947267 1_555
Ba0 O36 2.947267 1_555
Ba0 O7 3.004344 1_555
Ba0 O6 3.004344 1_555
Ba0 O19 3.049402 1_555
Ba0 O18 3.049402 1_555
Ba0 O12 3.083746 1_555
Ba0 O13 3.083746 1_555
Ba1 O34 2.707840 1_555
Ba1 O35 2.707840 1_555
Ba1 O38 2.947267 1_555
Ba1 O39 2.947267 1_555
Ba1 O4 3.004344 1_555
Ba1 O5 3.004344 1_555
Ba1 O17 3.049402 1_555
Ba1 O16 3.049402 1_555
Ba1 O14 3.083746 1_555
Ba1 O15 3.083746 1_555
Ba2 O35 2.720235 1_655
Ba2 O34 2.748512 1_555
Ba2 O31 2.810149 1_565
Ba2 O24 2.867259 1_655
Ba2 O8 2.869397 1_565
Ba2 O39 2.918540 1_555
Ba2 O20 2.942915 1_555
Ba2 O25 2.949455 1_555
Ba2 O14 3.112757 1_655
Ba2 O16 3.142904 1_555
Ba2 O0 3.301712 1_655
Ba3 O34 2.720235 1_545
Ba3 O35 2.748512 1_555
Ba3 O30 2.810149 1_455
Ba3 O25 2.867259 1_545
Ba3 O9 2.869397 1_455
Ba3 O38 2.918540 1_555
Ba3 O21 2.942915 1_556
Ba3 O24 2.949455 1_555
Ba3 O15 3.112757 1_545
Ba3 O17 3.142904 1_555
Ba3 O1 3.301712 1_545
Ba4 O33 2.720235 1_455
Ba4 O32 2.748512 1_555
Ba4 O29 2.810149 1_545
Ba4 O26 2.867259 1_455
Ba4 O10 2.869397 1_545
Ba4 O37 2.918540 1_555
Ba4 O22 2.942915 1_555
Ba4 O27 2.949455 1_555
Ba4 O12 3.112757 1_455
Ba4 O18 3.142904 1_555
Ba4 O2 3.301712 1_455
Ba5 O32 2.720235 1_565
Ba5 O33 2.748512 1_555
Ba5 O28 2.810149 1_655
Ba5 O27 2.867259 1_565
Ba5 O11 2.869397 1_655
Ba5 O36 2.918540 1_555
Ba5 O23 2.942915 1_554
Ba5 O26 2.949455 1_555
Ba5 O13 3.112757 1_565
Ba5 O19 3.142904 1_555
Ba5 O3 3.301712 1_565
Na0 O32 2.357852 1_555
Na0 O34 2.357852 1_545
Na0 O4 2.399437 1_545
Na0 O6 2.399437 1_555
Na1 O33 2.357852 1_455
Na1 O35 2.357852 1_554
Na1 O7 2.399437 1_455
Na1 O5 2.399437 1_554
B0 O36 1.458222 1_555
B0 O0 1.465777 1_555
B0 O10 1.475670 1_555
B0 O4 1.525794 1_555
B1 O37 1.458222 1_555
B1 O1 1.465777 1_554
B1 O11 1.475670 1_555
B1 O5 1.525794 1_554
B2 O38 1.458222 1_555
B2 O2 1.465777 1_555
B2 O8 1.475670 1_555
B2 O6 1.525794 1_555
B3 O39 1.458222 1_555
B3 O3 1.465777 1_556
B3 O9 1.475670 1_555
B3 O7 1.525794 1_556
B4 O28 1.443432 1_555
B4 O20 1.486446 1_455
B4 O18 1.501099 1_555
B4 O26 1.511722 1_455
B5 O29 1.443432 1_555
B5 O21 1.486446 1_565
B5 O19 1.501099 1_555
B5 O27 1.511722 1_565
B6 O30 1.443432 1_555
B6 O22 1.486446 1_655
B6 O16 1.501099 1_555
B6 O24 1.511722 1_655
B7 O31 1.443432 1_555
B7 O23 1.486446 1_545
B7 O17 1.501099 1_555
B7 O25 1.511722 1_545
B8 O12 1.372284 1_565
B8 O20 1.376375 1_555
B8 O8 1.380973 1_565
B9 O13 1.372284 1_455
B9 O21 1.376375 1_555
B9 O9 1.380973 1_454
B10 O14 1.372284 1_545
B10 O22 1.376375 1_555
B10 O10 1.380973 1_545
B11 O15 1.372284 1_655
B11 O23 1.376375 1_555
B11 O11 1.380973 1_656
B12 O28 1.454853 1_555
B12 O29 1.454853 1_555
B12 O12 1.510132 1_465
B12 O13 1.510132 1_465
B13 O31 1.454853 1_555
B13 O30 1.454853 1_555
B13 O15 1.510132 1_645
B13 O14 1.510132 1_645
O0 Si2 1.630423 1_555
O1 Si3 1.630423 1_555
O2 Si0 1.630423 1_555
O3 Si1 1.630423 1_555
O4 Si0 1.663141 1_555
O5 Si1 1.663141 1_556
O6 Si2 1.663141 1_555
O7 Si3 1.663141 1_554
O16 Si0 1.644809 1_555
O17 Si1 1.644809 1_556
O18 Si2 1.644809 1_555
O19 Si3 1.644809 1_554
O24 Si2 1.644587 1_555
O25 Si3 1.644587 1_555
O26 Si0 1.644587 1_555
O27 Si1 1.644587 1_555
