# generated using pymatgen
data_Li4MnFe3(BO3)4
_symmetry_space_group_name_H-M   'P 1'
_cell_length_a   5.22139200
_cell_length_b   5.22579887
_cell_length_c   20.87297093
_cell_angle_alpha   91.08435446
_cell_angle_beta   90.74406281
_cell_angle_gamma   119.85038801
_symmetry_Int_Tables_number   1
_chemical_formula_structural   Li4MnFe3(BO3)4
_chemical_formula_sum   'Li8 Mn2 Fe6 B8 O24'
_cell_volume   493.72357607
_cell_formula_units_Z   2
loop_
 _symmetry_equiv_pos_site_id
 _symmetry_equiv_pos_as_xyz
  1  'x, y, z'
loop_
 _atom_site_type_symbol
 _atom_site_label
 _atom_site_symmetry_multiplicity
 _atom_site_fract_x
 _atom_site_fract_y
 _atom_site_fract_z
 _atom_site_occupancy
  Li  Li0  1  0.34906900  0.32108100  0.66631800  1
  Li  Li1  1  0.32098900  0.34636200  0.91633300  1
  Li  Li2  1  0.34673500  0.32154500  0.16603100  1
  Li  Li3  1  0.32109700  0.34785200  0.41587600  1
  Li  Li4  1  0.66497500  0.65293600  0.79160800  1
  Li  Li5  1  0.65131700  0.66140500  0.54141500  1
  Li  Li6  1  0.66135700  0.65082400  0.29119200  1
  Li  Li7  1  0.65237000  0.66390400  0.04144500  1
  Mn  Mn0  1  0.99512600  0.32643500  0.55901500  1
  Mn  Mn1  1  0.99899000  0.67888400  0.43316500  1
  Fe  Fe0  1  0.00125100  0.33034700  0.05821000  1
  Fe  Fe1  1  0.99583700  0.68078200  0.93398900  1
  Fe  Fe2  1  0.68215500  0.99856700  0.68428800  1
  Fe  Fe3  1  0.67929500  0.99393800  0.18377900  1
  Fe  Fe4  1  0.32669200  0.00106100  0.80831400  1
  Fe  Fe5  1  0.33199300  0.00320000  0.30776900  1
  B  B0  1  0.66137700  0.00424000  0.93684300  1
  B  B1  1  0.65874000  0.00352000  0.43655000  1
  B  B2  1  0.99299100  0.33188400  0.81208300  1
  B  B3  1  0.99314100  0.33251400  0.31141500  1
  B  B4  1  0.00333300  0.66165700  0.68759500  1
  B  B5  1  0.00518700  0.66200400  0.18698300  1
  B  B6  1  0.33478300  0.99403800  0.56276000  1
  B  B7  1  0.33283600  0.99324400  0.06207200  1
  O  O0  1  0.74580800  0.06800700  0.79171000  1
  O  O1  1  0.74505700  0.06705700  0.29129700  1
  O  O2  1  0.93085400  0.25814500  0.95181500  1
  O  O3  1  0.41621600  0.02351700  0.91681700  1
  O  O4  1  0.93257600  0.25299200  0.45204300  1
  O  O5  1  0.42314000  0.03689500  0.41559500  1
  O  O6  1  0.97021600  0.58143800  0.82726500  1
  O  O7  1  0.36253000  0.27049700  0.56982500  1
  O  O8  1  0.96817400  0.58122100  0.32619600  1
  O  O9  1  0.34946000  0.26627100  0.06844200  1
  O  O10  1  0.26735300  0.35042100  0.81867500  1
  O  O11  1  0.26516700  0.34942500  0.31829700  1
  O  O12  1  0.72750600  0.63779900  0.69426200  1
  O  O13  1  0.72889500  0.63879600  0.19346100  1
  O  O14  1  0.63798400  0.72833300  0.94377700  1
  O  O15  1  0.02422400  0.41580100  0.66783400  1
  O  O16  1  0.62587900  0.72614700  0.44401900  1
  O  O17  1  0.02466300  0.41606600  0.16737300  1
  O  O18  1  0.57651100  0.95816500  0.57855700  1
  O  O19  1  0.58135100  0.96970900  0.07744000  1
  O  O20  1  0.06880300  0.75261100  0.54110900  1
  O  O21  1  0.06848100  0.74487300  0.04161400  1
  O  O22  1  0.25773500  0.93005600  0.70226900  1
  O  O23  1  0.25858200  0.93233300  0.20146300  1
loop_
_geom_bond_atom_site_label_1
_geom_bond_atom_site_label_2
_geom_bond_distance
_geom_bond_site_symmetry_2
Li0 O12 1.913616 1_555
Li0 O15 1.989846 1_555
Li0 O22 2.015774 1_545
Li0 O7 2.033081 1_555
Li1 O14 1.922317 1_555
Li1 O3 1.982245 1_555
Li1 O2 2.006955 1_455
Li1 O10 2.055901 1_555
Li2 O13 1.923348 1_555
Li2 O17 1.974932 1_555
Li2 O23 2.007381 1_545
Li2 O9 2.053161 1_555
Li3 O16 1.893593 1_555
Li3 O5 1.945803 1_555
Li3 O4 1.995945 1_455
Li3 O11 2.054588 1_555
Li4 O6 1.950947 1_555
Li4 O10 1.981345 1_555
Li4 O0 1.992862 1_565
Li4 O12 2.068413 1_555
Li5 O18 1.929754 1_555
Li5 O7 1.949643 1_555
Li5 O20 1.986252 1_655
Li5 O16 2.080558 1_555
Li6 O8 1.947382 1_555
Li6 O11 1.975060 1_555
Li6 O1 1.993933 1_565
Li6 O13 2.079794 1_555
Li7 O19 1.951292 1_555
Li7 O9 1.983115 1_555
Li7 O21 1.996038 1_655
Li7 O14 2.078980 1_554
Mn0 O7 2.089489 1_655
Mn0 O20 2.104770 1_655
Mn0 O18 2.124390 1_545
Mn0 O4 2.250181 1_555
Mn0 O15 2.297952 1_655
Mn1 O16 2.096662 1_555
Mn1 O5 2.112313 1_665
Mn1 O4 2.120702 1_555
Mn1 O8 2.266578 1_555
Mn1 O20 2.272408 1_655
Fe0 O9 2.015445 1_555
Fe0 O21 2.051915 1_555
Fe0 O19 2.111405 1_445
Fe0 O2 2.240169 1_454
Fe0 O17 2.303702 1_555
Fe1 O14 2.016170 1_555
Fe1 O3 2.070134 1_665
Fe1 O2 2.102366 1_555
Fe1 O21 2.263963 1_656
Fe1 O6 2.264769 1_555
Fe2 O12 2.027747 1_555
Fe2 O15 2.056613 1_665
Fe2 O22 2.101631 1_555
Fe2 O18 2.248145 1_555
Fe2 O0 2.258200 1_565
Fe3 O13 2.010866 1_555
Fe3 O17 2.078470 1_665
Fe3 O23 2.094510 1_555
Fe3 O19 2.258243 1_555
Fe3 O1 2.262156 1_565
Fe4 O10 2.006436 1_555
Fe4 O0 2.072106 1_555
Fe4 O6 2.102003 1_445
Fe4 O22 2.232041 1_545
Fe4 O3 2.295504 1_555
Fe5 O11 2.014698 1_555
Fe5 O1 2.046548 1_555
Fe5 O8 2.121409 1_445
Fe5 O23 2.239015 1_545
Fe5 O5 2.279623 1_555
B0 O3 1.392677 1_555
B0 O14 1.395635 1_545
B0 O2 1.397274 1_555
B1 O16 1.384359 1_545
B1 O5 1.391948 1_555
B1 O4 1.401776 1_555
B2 O10 1.391672 1_655
B2 O0 1.392836 1_555
B2 O6 1.398215 1_555
B3 O11 1.383878 1_655
B3 O1 1.397737 1_555
B3 O8 1.398540 1_555
B4 O12 1.391475 1_455
B4 O22 1.394293 1_555
B4 O15 1.397622 1_555
B5 O17 1.393182 1_555
B5 O13 1.394879 1_455
B5 O23 1.396560 1_555
B6 O7 1.383102 1_565
B6 O20 1.393774 1_555
B6 O18 1.401419 1_555
B7 O9 1.389302 1_565
B7 O19 1.396898 1_555
B7 O21 1.397317 1_555
