# generated using pymatgen
data_SmAl3(BO3)4
_symmetry_space_group_name_H-M   'P 1'
_cell_length_a   5.89892414
_cell_length_b   5.89892414
_cell_length_c   5.89892420
_cell_angle_alpha   104.35948376
_cell_angle_beta   104.35948376
_cell_angle_gamma   104.35947311
_symmetry_Int_Tables_number   1
_chemical_formula_structural   SmAl3(BO3)4
_chemical_formula_sum   'Sm1 Al3 B4 O12'
_cell_volume   181.86360956
_cell_formula_units_Z   1
loop_
 _symmetry_equiv_pos_site_id
 _symmetry_equiv_pos_as_xyz
  1  'x, y, z'
loop_
 _atom_site_type_symbol
 _atom_site_label
 _atom_site_symmetry_multiplicity
 _atom_site_fract_x
 _atom_site_fract_y
 _atom_site_fract_z
 _atom_site_occupancy
  Sm  Sm0  1  0.50000000  0.50000000  0.50000000  1
  Al  Al0  1  0.05630495  0.94369505  0.50000000  1
  Al  Al1  1  0.94369505  0.50000000  0.05630495  1
  Al  Al2  1  0.50000000  0.05630495  0.94369505  1
  B  B0  1  0.44184287  0.55815713  -0.00000000  1
  B  B1  1  0.55815713  1.00000000  0.44184287  1
  B  B2  1  0.00000000  0.44184287  0.55815713  1
  B  B3  1  -0.00000000  -0.00000000  -0.00000000  1
  O  O0  1  0.27504663  0.52813859  0.12327809  1
  O  O1  1  0.52813859  0.12327809  0.27504663  1
  O  O2  1  0.72495337  0.87672191  0.47186141  1
  O  O3  1  0.12327809  0.27504663  0.52813859  1
  O  O4  1  0.47186141  0.72495337  0.87672191  1
  O  O5  1  0.87672191  0.47186141  0.72495337  1
  O  O6  1  0.85110884  0.14889116  -0.00000000  1
  O  O7  1  0.14889116  1.00000000  0.85110884  1
  O  O8  1  0.00000000  0.85110884  0.14889116  1
  O  O9  1  0.59056368  0.40943632  -0.00000000  1
  O  O10  1  0.40943632  0.00000000  0.59056368  1
  O  O11  1  1.00000000  0.59056368  0.40943632  1
loop_
_geom_bond_atom_site_label_1
_geom_bond_atom_site_label_2
_geom_bond_distance
_geom_bond_site_symmetry_2
Al0 O2 1.851401 1_455
Al0 O3 1.851401 1_565
Al0 O7 1.925113 1_555
Al0 O8 1.925113 1_555
Al0 O11 1.936964 1_455
Al0 O10 1.936964 1_565
Al1 O5 1.851401 1_554
Al1 O0 1.851401 1_655
Al1 O8 1.925113 1_655
Al1 O6 1.925113 1_555
Al1 O11 1.936964 1_555
Al1 O9 1.936964 1_555
Al2 O1 1.851401 1_556
Al2 O4 1.851401 1_545
Al2 O7 1.925113 1_545
Al2 O6 1.925113 1_556
Al2 O10 1.936964 1_555
Al2 O9 1.936964 1_556
B0 O0 1.364052 1_555
B0 O4 1.364052 1_554
B0 O9 1.386014 1_555
B1 O2 1.364052 1_555
B1 O1 1.364052 1_565
B1 O10 1.386014 1_565
B2 O3 1.364052 1_555
B2 O5 1.364052 1_455
B2 O11 1.386014 1_455
B3 O6 1.387602 1_455
B3 O7 1.387602 1_544
B3 O8 1.387602 1_545
O0 Sm0 2.357198 1_555
O1 Sm0 2.357198 1_555
O2 Sm0 2.357198 1_555
O3 Sm0 2.357198 1_555
O4 Sm0 2.357198 1_555
O5 Sm0 2.357198 1_555
