# generated using pymatgen
data_Mg16Al12Ag
_symmetry_space_group_name_H-M   'P 1'
_cell_length_a   9.24616851
_cell_length_b   9.06219715
_cell_length_c   9.06219595
_cell_angle_alpha   109.05632426
_cell_angle_beta   109.88299010
_cell_angle_gamma   109.88297804
_symmetry_Int_Tables_number   1
_chemical_formula_structural   Mg16Al12Ag
_chemical_formula_sum   'Mg16 Al12 Ag1'
_cell_volume   581.53344929
_cell_formula_units_Z   1
loop_
 _symmetry_equiv_pos_site_id
 _symmetry_equiv_pos_as_xyz
  1  'x, y, z'
loop_
 _atom_site_type_symbol
 _atom_site_label
 _atom_site_symmetry_multiplicity
 _atom_site_fract_x
 _atom_site_fract_y
 _atom_site_fract_z
 _atom_site_occupancy
  Mg  Mg0  1  0.59060700  0.29352300  0.00000000  1
  Mg  Mg1  1  0.00230100  0.34767100  0.00000000  1
  Mg  Mg2  1  0.99713800  0.00000000  0.00000000  1
  Mg  Mg3  1  0.31677600  0.60152000  0.00000000  1
  Mg  Mg4  1  0.68257900  0.68048000  0.27917700  1
  Mg  Mg5  1  0.59060700  0.00000000  0.29352400  1
  Mg  Mg6  1  0.00209900  0.59869700  0.31952000  1
  Mg  Mg7  1  0.00230200  0.00000000  0.34767100  1
  Mg  Mg8  1  0.71525600  0.39848100  0.39848100  1
  Mg  Mg9  1  0.40340200  0.72082300  0.40130300  1
  Mg  Mg10  1  0.00209900  0.31952000  0.59869700  1
  Mg  Mg11  1  0.31677500  0.00000000  0.60152000  1
  Mg  Mg12  1  0.65462900  0.65232800  0.65232800  1
  Mg  Mg13  1  0.68257900  0.27917700  0.68048000  1
  Mg  Mg14  1  0.29708300  0.70647600  0.70647600  1
  Mg  Mg15  1  0.40340200  0.40130300  0.72082300  1
  Al  Al0  1  0.64309300  0.81243100  0.00000000  1
  Al  Al1  1  0.81524900  0.62466300  0.00000000  1
  Al  Al2  1  0.36709000  0.36824800  0.18379500  1
  Al  Al3  1  0.18329400  0.81620400  0.18445300  1
  Al  Al4  1  0.83066200  0.18756900  0.18757000  1
  Al  Al5  1  0.36709000  0.18379500  0.36824800  1
  Al  Al6  1  0.19058500  0.37533800  0.37533800  1
  Al  Al7  1  0.81524900  0.00000000  0.62466300  1
  Al  Al8  1  0.99884200  0.81554700  0.63175300  1
  Al  Al9  1  0.64309300  0.00000000  0.81243100  1
  Al  Al10  1  0.99884200  0.63175300  0.81554800  1
  Al  Al11  1  0.18329400  0.18445300  0.81620400  1
  Ag  Ag0  1  0.30398800  0.00000000  0.00000100  1
loop_
_geom_bond_atom_site_label_1
_geom_bond_atom_site_label_2
_geom_bond_distance
_geom_bond_site_symmetry_2
Mg0 Mg11 3.074684 1_554
Mg0 Mg8 3.074689 1_555
Mg0 Mg15 3.183651 1_554
Mg0 Mg4 3.183652 1_555
Mg0 Mg13 3.260148 1_554
Mg0 Mg6 3.260149 1_655
Mg1 Mg3 3.032625 1_555
Mg1 Mg13 3.043762 1_454
Mg1 Mg6 3.043762 1_555
Mg1 Mg2 3.134749 1_455
Mg2 Mg7 3.134745 1_655
Mg3 Mg5 3.074685 1_565
Mg3 Mg4 3.115070 1_555
Mg3 Mg9 3.146129 1_555
Mg4 Mg7 3.043768 1_665
Mg4 Mg8 3.146125 1_555
Mg4 Mg6 3.215996 1_655
Mg4 Mg9 3.215996 1_555
Mg4 Mg5 3.260147 1_565
Mg5 Mg8 3.074691 1_555
Mg5 Mg9 3.183645 1_545
Mg6 Mg8 3.115073 1_455
Mg6 Mg9 3.215996 1_555
Mg10 Mg7 3.043768 1_555
Mg10 Mg8 3.115073 1_455
Mg10 Mg3 3.146129 1_556
Mg10 Mg14 3.183646 1_555
Mg10 Mg13 3.215996 1_455
Mg10 Mg15 3.215996 1_555
Mg10 Mg5 3.260147 1_455
Mg11 Mg7 3.032612 1_555
Mg11 Mg14 3.074685 1_545
Mg11 Mg9 3.115077 1_545
Mg11 Mg13 3.115077 1_555
Mg11 Mg15 3.146127 1_555
Mg11 Mg6 3.146127 1_545
Mg12 Mg8 3.032611 1_555
Mg12 Mg9 3.043758 1_555
Mg12 Mg15 3.043758 1_555
Mg12 Mg2 3.134759 1_566
Mg13 Mg8 3.146125 1_555
Mg13 Mg5 3.183645 1_555
Mg13 Mg15 3.215996 1_555
Mg14 Mg3 3.074683 1_556
Mg14 Mg6 3.183645 1_555
Mg14 Mg9 3.260146 1_555
Mg14 Mg15 3.260147 1_555
Mg15 Mg3 3.115070 1_556
Al0 Al1 2.696581 1_555
Al0 Al9 2.768616 1_564
Al0 Al4 2.768617 1_565
Al0 Mg14 2.947362 1_554
Al0 Mg5 2.947362 1_565
Al0 Mg3 2.972196 1_555
Al0 Mg12 3.064641 1_554
Al0 Mg7 3.064641 1_665
Al0 Mg4 3.099672 1_555
Al0 Mg15 3.099673 1_554
Al0 Mg2 3.133783 1_565
Al1 Al10 2.757861 1_554
Al1 Al3 2.757861 1_655
Al1 Mg6 2.956873 1_655
Al1 Mg13 2.956874 1_554
Al1 Mg0 3.013253 1_555
Al1 Mg7 3.127530 1_665
Al1 Mg12 3.127535 1_554
Al1 Mg4 3.139857 1_555
Al1 Mg15 3.139857 1_554
Al1 Mg2 3.241412 1_565
Al2 Al5 2.722622 1_555
Al2 Al6 2.757883 1_555
Al2 Mg4 2.887232 1_555
Al2 Mg9 2.985689 1_555
Al2 Mg8 3.002545 1_555
Al2 Mg1 3.119858 1_555
Al2 Mg3 3.146502 1_555
Al2 Mg0 3.171865 1_555
Al2 Mg2 3.215891 1_455
Al3 Al5 2.712918 1_565
Al3 Mg9 2.887229 1_555
Al3 Mg6 2.985679 1_555
Al3 Mg3 3.002549 1_555
Al3 Mg7 3.119846 1_565
Al3 Mg11 3.146502 1_565
Al3 Mg5 3.171871 1_565
Al3 Mg2 3.215893 1_465
Al4 Al6 2.696574 1_655
Al4 Al9 2.768624 1_554
Al4 Mg5 2.947355 1_555
Al4 Mg0 2.947358 1_555
Al4 Mg8 2.972200 1_555
Al4 Mg7 3.064637 1_655
Al4 Mg1 3.064644 1_655
Al4 Mg10 3.099664 1_655
Al4 Mg6 3.099674 1_655
Al4 Mg2 3.133787 1_555
Al5 Al6 2.757883 1_555
Al5 Mg13 2.887231 1_555
Al5 Mg15 2.985689 1_555
Al5 Mg8 3.002545 1_555
Al5 Mg7 3.119850 1_555
Al5 Mg11 3.146504 1_555
Al5 Mg5 3.171862 1_555
Al5 Mg2 3.215890 1_455
Al6 Mg15 2.956873 1_555
Al6 Mg9 2.956874 1_555
Al6 Mg14 3.013233 1_555
Al6 Mg7 3.127532 1_555
Al6 Mg1 3.127533 1_555
Al6 Mg6 3.139843 1_555
Al6 Mg10 3.139843 1_555
Al6 Mg2 3.241424 1_455
Al7 Al9 2.696581 1_555
Al7 Al8 2.757868 1_545
Al7 Mg10 2.956874 1_655
Al7 Mg4 2.956874 1_545
Al7 Mg5 3.013245 1_555
Al7 Mg1 3.127532 1_656
Al7 Mg12 3.127536 1_545
Al7 Mg13 3.139857 1_555
Al7 Mg9 3.139857 1_545
Al7 Mg2 3.241412 1_556
Al8 Mg6 2.887238 1_655
Al8 Mg4 2.985695 1_555
Al8 Mg11 3.002545 1_665
Al8 Mg12 3.119857 1_555
Al8 Mg8 3.146497 1_555
Al8 Mg14 3.171862 1_655
Al8 Mg2 3.215882 1_566
Al9 Mg0 2.947355 1_556
Al9 Mg14 2.947362 1_545
Al9 Mg11 2.972202 1_555
Al9 Mg1 3.064637 1_656
Al9 Mg12 3.064641 1_545
Al9 Mg13 3.099672 1_555
Al9 Mg9 3.099673 1_545
Al9 Mg2 3.133782 1_556
Al10 Al8 2.712903 1_555
Al10 Al3 2.722615 1_656
Al10 Mg10 2.887242 1_655
Al10 Mg13 2.985693 1_555
Al10 Mg3 3.002550 1_656
Al10 Mg12 3.119858 1_555
Al10 Mg8 3.146503 1_555
Al10 Mg14 3.171869 1_655
Al10 Mg2 3.215881 1_566
Al11 Al2 2.712918 1_556
Al11 Al8 2.722623 1_445
Al11 Al7 2.757861 1_455
Al11 Mg15 2.887230 1_555
Al11 Mg10 2.985679 1_555
Al11 Mg11 3.002541 1_555
Al11 Mg1 3.119855 1_556
Al11 Mg3 3.146501 1_556
Al11 Mg0 3.171874 1_556
Al11 Mg2 3.215893 1_456
Ag0 Mg2 2.837184 1_455
Ag0 Al5 2.938722 1_555
Ag0 Al10 2.938725 1_444
Ag0 Al2 2.938729 1_555
Ag0 Al8 2.938730 1_444
Ag0 Al3 2.938731 1_545
Ag0 Al11 2.938744 1_554
Ag0 Mg5 3.050193 1_555
Ag0 Mg0 3.050199 1_555
Ag0 Mg14 3.050204 1_544
