# generated using pymatgen
data_Li5V3P8O29
_symmetry_space_group_name_H-M   'P 1'
_cell_length_a   9.78131800
_cell_length_b   9.82053538
_cell_length_c   14.08454150
_cell_angle_alpha   89.52981833
_cell_angle_beta   89.54819210
_cell_angle_gamma   60.15030464
_symmetry_Int_Tables_number   1
_chemical_formula_structural   Li5V3P8O29
_chemical_formula_sum   'Li10 V6 P16 O58'
_cell_volume   1173.39132475
_cell_formula_units_Z   2
loop_
 _symmetry_equiv_pos_site_id
 _symmetry_equiv_pos_as_xyz
  1  'x, y, z'
loop_
 _atom_site_type_symbol
 _atom_site_label
 _atom_site_symmetry_multiplicity
 _atom_site_fract_x
 _atom_site_fract_y
 _atom_site_fract_z
 _atom_site_occupancy
  Li  Li0  1  0.22959100  0.08619100  0.55961100  1
  Li  Li1  1  0.09676600  0.67452900  0.55719000  1
  Li  Li2  1  0.33293600  0.32755200  0.88925800  1
  Li  Li3  1  0.23509800  0.67180200  0.06469400  1
  Li  Li4  1  0.67973400  0.08856200  0.06190200  1
  Li  Li5  1  0.67812100  0.23034500  0.55865800  1
  Li  Li6  1  0.76687400  0.33567100  0.94363600  1
  Li  Li7  1  0.90960000  0.32265100  0.43318300  1
  Li  Li8  1  0.77544800  0.90722400  0.43844200  1
  Li  Li9  1  0.04538600  0.98412000  0.99840400  1
  V  V0  1  0.43274600  0.57027400  0.25365800  1
  V  V1  1  0.56736000  0.43323900  0.74696700  1
  V  V2  1  0.42953100  0.99806300  0.75274700  1
  V  V3  1  0.56272100  0.00076500  0.24761900  1
  V  V4  1  0.00673800  0.43138000  0.24122600  1
  V  V5  1  0.99209800  0.57314200  0.75337900  1
  P  P0  1  0.08453200  0.22406300  0.83874700  1
  P  P1  1  0.22907600  0.08817100  0.34260500  1
  P  P2  1  0.08644700  0.67872000  0.34252200  1
  P  P3  1  0.33789000  0.33675100  0.12666000  1
  P  P4  1  0.32966600  0.33382700  0.62970600  1
  P  P5  1  0.22665200  0.68144000  0.84516700  1
  P  P6  1  0.31287900  0.77145200  0.66174900  1
  P  P7  1  0.68223200  0.09204600  0.84401000  1
  P  P8  1  0.30626300  0.91535500  0.15955100  1
  P  P9  1  0.67986000  0.22994100  0.34085100  1
  P  P10  1  0.77137100  0.31700700  0.15865000  1
  P  P11  1  0.67309600  0.66169300  0.36827600  1
  P  P12  1  0.66388200  0.66280700  0.87249100  1
  P  P13  1  0.91477100  0.31971300  0.65428600  1
  P  P14  1  0.76808700  0.91567500  0.66120100  1
  P  P15  1  0.91548600  0.77825000  0.16018700  1
  O  O0  1  0.99969400  0.24882900  0.56307900  1
  O  O1  1  0.08187300  0.25249800  0.33489000  1
  O  O2  1  0.20349900  0.99154500  0.07646700  1
  O  O3  1  0.25689400  0.08659800  0.83772100  1
  O  O4  1  0.09360700  0.37817900  0.83079000  1
  O  O5  1  0.19334900  0.32817700  0.16763200  1
  O  O6  1  0.09493900  0.52089600  0.32421400  1
  O  O7  1  0.00749100  0.79358100  0.07977600  1
  O  O8  1  0.07940100  0.66011400  0.83158200  1
  O  O9  1  0.32530400  0.18500300  0.66763300  1
  O  O10  1  0.38028100  0.09916200  0.31795000  1
  O  O11  1  0.18137800  0.48240200  0.67547700  1
  O  O12  1  0.33570000  0.34944300  0.01986100  1
  O  O13  1  0.32416400  0.34592000  0.52409900  1
  O  O14  1  0.32885100  0.49009200  0.16855300  1
  O  O15  1  0.51719200  0.11018800  0.83008600  1
  O  O16  1  0.49196500  0.19005000  0.16162400  1
  O  O17  1  0.25493700  0.65658100  0.33472600  1
  O  O18  1  0.21477600  0.79435600  0.75953900  1
  O  O19  1  0.22447900  0.76383300  0.57935600  1
  O  O20  1  0.21612800  0.76123500  0.93660700  1
  O  O21  1  0.37307500  0.51756800  0.83060200  1
  O  O22  1  0.48474000  0.32679800  0.66863000  1
  O  O23  1  0.34126800  0.73989100  0.16601000  1
  O  O24  1  0.51896700  0.37983800  0.32225300  1
  O  O25  1  0.66266700  0.08235300  0.34179700  1
  O  O26  1  0.21156200  0.98990200  0.25758300  1
  O  O27  1  0.24358100  0.00993400  0.43551600  1
  O  O28  1  0.76194300  0.00080100  0.57083600  1
  O  O29  1  0.33561000  0.91659100  0.66136000  1
  O  O30  1  0.47434500  0.61881300  0.67828900  1
  O  O31  1  0.66257400  0.25994900  0.83612100  1
  O  O32  1  0.52310700  0.65998500  0.32254600  1
  O  O33  1  0.61454000  0.47215200  0.17418100  1
  O  O34  1  0.76792000  0.23289900  0.07021800  1
  O  O35  1  0.75563500  0.24443300  0.43002800  1
  O  O36  1  0.79093300  0.20852600  0.25065800  1
  O  O37  1  0.74990000  0.33379800  0.65744400  1
  O  O38  1  0.51998500  0.80778700  0.82925700  1
  O  O39  1  0.46199300  0.91660200  0.16663000  1
  O  O40  1  0.67439800  0.50972100  0.83166700  1
  O  O41  1  0.68179400  0.65269700  0.97697500  1
  O  O42  1  0.66808400  0.65716500  0.47386200  1
  O  O43  1  0.81888300  0.51253400  0.32677800  1
  O  O44  1  0.61695600  0.90786800  0.67951900  1
  O  O45  1  0.66984100  0.81370500  0.32969700  1
  O  O46  1  0.91200200  0.34395400  0.15963600  1
  O  O47  1  0.01134700  0.20446700  0.74068500  1
  O  O48  1  0.99167600  0.21246300  0.91968100  1
  O  O49  1  0.90439800  0.47780100  0.67787500  1
  O  O50  1  0.81501900  0.66355300  0.82356500  1
  O  O51  1  0.91033200  0.62521600  0.16867800  1
  O  O52  1  0.74376500  0.92049200  0.16225200  1
  O  O53  1  0.76586300  0.01441600  0.93334400  1
  O  O54  1  0.79011200  0.00108500  0.75209700  1
  O  O55  1  0.91535500  0.74768100  0.66162300  1
  O  O56  1  0.00419800  0.75361200  0.43404400  1
  O  O57  1  0.98878300  0.79896200  0.25879800  1
loop_
_geom_bond_atom_site_label_1
_geom_bond_atom_site_label_2
_geom_bond_distance
_geom_bond_site_symmetry_2
Li0 O27 1.884179 1_555
Li0 O0 2.008562 1_455
Li0 O29 2.041602 1_545
Li0 O9 2.254759 1_555
Li1 O19 1.878391 1_555
Li1 O56 1.932350 1_555
Li1 O55 2.129665 1_455
Li1 O11 2.331579 1_555
Li2 O12 1.855723 1_556
Li2 O15 2.162225 1_555
Li2 O21 2.240027 1_555
Li2 O4 2.295754 1_555
Li3 O7 1.943731 1_555
Li3 O20 1.969121 1_554
Li3 O23 2.071748 1_555
Li3 O14 2.124729 1_555
Li4 O53 1.976218 1_554
Li4 O34 1.997097 1_555
Li4 O52 2.015147 1_545
Li4 O16 2.121176 1_555
Li5 O28 1.984768 1_555
Li5 O35 1.988686 1_555
Li5 O37 2.051743 1_555
Li5 O22 2.251337 1_555
Li6 O48 1.938915 1_555
Li6 O34 2.039061 1_556
Li6 O40 2.160092 1_555
Li6 O31 2.164468 1_555
Li7 O35 2.003287 1_555
Li7 O0 2.004250 1_555
Li7 O1 2.013427 1_655
Li7 O43 2.199690 1_555
Li8 O56 1.981215 1_655
Li8 O25 2.030849 1_565
Li8 O28 2.059734 1_565
Li8 O45 2.291025 1_555
Li9 O2 1.935561 1_556
Li9 O20 2.169611 1_555
Li9 O48 2.308598 1_465
Li9 O7 2.366603 1_556
O0 P13 1.499011 1_555
O1 P1 1.541363 1_555
O1 V4 2.014589 1_555
O2 P8 1.481580 1_555
O3 P0 1.548975 1_555
O3 V2 1.887714 1_545
O4 P0 1.562665 1_555
O4 V5 1.982640 1_455
O5 P3 1.563258 1_555
O5 V4 1.891875 1_555
O6 P2 1.534177 1_555
O6 V4 1.915995 1_555
O7 P15 1.493727 1_455
O8 P5 1.568516 1_555
O8 V5 1.851549 1_455
O9 P4 1.572307 1_555
O9 V2 1.991693 1_545
O10 P1 1.571568 1_555
O10 V3 1.835959 1_555
O11 P4 1.594464 1_555
O11 V5 1.940971 1_455
O12 P3 1.507790 1_555
O13 P4 1.490449 1_555
O14 P3 1.582688 1_555
O14 V0 1.980111 1_555
O15 P7 1.547356 1_555
O15 V2 2.026943 1_545
O16 P3 1.558216 1_555
O16 V3 2.024114 1_555
O17 P2 1.554433 1_555
O17 V0 1.887883 1_555
O18 P5 1.596774 1_555
O18 P6 1.624129 1_555
O19 P6 1.477020 1_555
O20 P5 1.489130 1_555
O21 P5 1.545828 1_555
O21 V1 2.024569 1_555
O22 P4 1.585670 1_555
O22 V1 1.958827 1_555
O23 P8 1.582833 1_555
O23 V0 1.897161 1_555
O24 P9 1.551232 1_555
O24 V0 1.885571 1_555
O25 P9 1.539962 1_555
O25 V3 2.043232 1_555
O26 P1 1.606688 1_565
O26 P8 1.619194 1_555
O27 P1 1.483519 1_555
O28 P14 1.502033 1_545
O29 P6 1.548027 1_555
O29 V2 1.976889 1_555
O30 P6 1.561731 1_555
O30 V1 1.849083 1_555
O31 P7 1.565216 1_555
O31 V1 1.935434 1_555
O32 P11 1.614639 1_555
O32 V0 1.816992 1_555
O33 P10 1.547901 1_555
O33 V0 1.903723 1_555
O34 P10 1.509975 1_555
O35 P9 1.506586 1_555
O36 P9 1.610430 1_555
O36 P10 1.621490 1_555
O37 P13 1.548770 1_555
O37 V1 1.995110 1_555
O38 P12 1.543839 1_555
O38 V2 1.942160 1_555
O39 P8 1.533411 1_555
O39 V3 1.949071 1_565
O40 P12 1.568656 1_555
O40 V1 1.975007 1_555
O41 P12 1.480047 1_555
O42 P11 1.488581 1_555
O43 P11 1.562802 1_555
O43 V4 1.996617 1_655
O44 P14 1.537588 1_555
O44 V2 1.891534 1_555
O45 P11 1.569865 1_555
O45 V3 1.969041 1_565
O46 P10 1.524830 1_555
O46 V4 1.934252 1_655
O47 P13 1.607903 1_455
O47 P0 1.616835 1_555
O48 P0 1.490588 1_655
O49 P13 1.543403 1_555
O49 V5 1.890416 1_555
O50 P12 1.629409 1_555
O50 V5 1.795026 1_555
O51 P15 1.532271 1_555
O51 V4 1.937342 1_655
O52 P15 1.561304 1_555
O52 V3 1.948163 1_565
O53 P7 1.487681 1_555
O54 P14 1.609592 1_545
O54 P7 1.626779 1_555
O55 P14 1.559202 1_555
O55 V5 1.967175 1_555
O56 P2 1.503328 1_555
O57 P2 1.602966 1_655
O57 P15 1.627851 1_555
