# generated using pymatgen
data_K4CaU(Si2O7)2
_symmetry_space_group_name_H-M   'P 1'
_cell_length_a   9.39128534
_cell_length_b   9.39128534
_cell_length_c   8.34630883
_cell_angle_alpha   90.00000000
_cell_angle_beta   90.00000000
_cell_angle_gamma   90.00000000
_symmetry_Int_Tables_number   1
_chemical_formula_structural   K4CaU(Si2O7)2
_chemical_formula_sum   'K8 Ca2 U2 Si8 O28'
_cell_volume   736.11305950
_cell_formula_units_Z   2
loop_
 _symmetry_equiv_pos_site_id
 _symmetry_equiv_pos_as_xyz
  1  'x, y, z'
loop_
 _atom_site_type_symbol
 _atom_site_label
 _atom_site_symmetry_multiplicity
 _atom_site_fract_x
 _atom_site_fract_y
 _atom_site_fract_z
 _atom_site_occupancy
  K  K0  1  0.34391887  0.15608113  0.25000000  1
  K  K1  1  0.15608113  0.65608113  0.75000000  1
  K  K2  1  0.65608113  0.84391887  0.25000000  1
  K  K3  1  0.84391887  0.34391887  0.75000000  1
  K  K4  1  0.21037581  0.71037581  0.25000000  1
  K  K5  1  0.28962419  0.21037581  0.75000000  1
  K  K6  1  0.71037581  0.78962419  0.75000000  1
  K  K7  1  0.78962419  0.28962419  0.25000000  1
  Ca  Ca0  1  0.50000000  0.50000000  0.00000000  1
  Ca  Ca1  1  0.00000000  0.00000000  0.50000000  1
  U  U0  1  0.50000000  0.50000000  0.50000000  1
  U  U1  1  0.00000000  0.00000000  0.00000000  1
  Si  Si0  1  0.88057825  0.61681132  0.44663280  1
  Si  Si1  1  0.61942175  0.11681132  0.94663280  1
  Si  Si2  1  0.61681132  0.11942175  0.55336720  1
  Si  Si3  1  0.88318868  0.61942175  0.05336720  1
  Si  Si4  1  0.11942175  0.38318868  0.44663280  1
  Si  Si5  1  0.38057825  0.88318868  0.94663280  1
  Si  Si6  1  0.38318868  0.88057825  0.55336720  1
  Si  Si7  1  0.11681132  0.38057825  0.05336720  1
  O  O0  1  0.50000000  0.50000000  0.27747462  1
  O  O1  1  0.00000000  0.00000000  0.77747462  1
  O  O2  1  0.50000000  0.50000000  0.72252538  1
  O  O3  1  0.00000000  0.00000000  0.22252538  1
  O  O4  1  0.91189987  0.76901511  0.51854645  1
  O  O5  1  0.58810013  0.26901511  0.01854645  1
  O  O6  1  0.76901511  0.08810013  0.48145355  1
  O  O7  1  0.73098489  0.58810013  0.98145355  1
  O  O8  1  0.08810013  0.23098489  0.51854645  1
  O  O9  1  0.41189987  0.73098489  0.01854645  1
  O  O10  1  0.23098489  0.91189987  0.48145355  1
  O  O11  1  0.26901511  0.41189987  0.98145355  1
  O  O12  1  0.72942770  0.55085752  0.50554157  1
  O  O13  1  0.77057230  0.05085752  0.00554157  1
  O  O14  1  0.55085752  0.27057230  0.49445843  1
  O  O15  1  0.94914248  0.77057230  0.99445843  1
  O  O16  1  0.27057230  0.44914248  0.50554157  1
  O  O17  1  0.22942770  0.94914248  0.00554157  1
  O  O18  1  0.44914248  0.72942770  0.49445843  1
  O  O19  1  0.05085752  0.22942770  0.99445843  1
  O  O20  1  0.00000000  0.50000000  0.50774258  1
  O  O21  1  0.50000000  0.00000000  0.00774258  1
  O  O22  1  0.50000000  0.00000000  0.49225742  1
  O  O23  1  0.00000000  0.50000000  0.99225742  1
  O  O24  1  0.88515236  0.61484764  0.25000000  1
  O  O25  1  0.61484764  0.11484764  0.75000000  1
  O  O26  1  0.11484764  0.38515236  0.25000000  1
  O  O27  1  0.38515236  0.88515236  0.75000000  1
loop_
_geom_bond_atom_site_label_1
_geom_bond_atom_site_label_2
_geom_bond_distance
_geom_bond_site_symmetry_2
K0 O22 2.895765 1_555
K0 O21 2.895765 1_555
K0 O14 3.015942 1_555
K0 O17 3.015942 1_545
K0 O26 3.042360 1_555
K0 O10 3.180456 1_545
K0 O5 3.180456 1_555
K1 O20 2.895765 1_555
K1 O23 2.895765 1_555
K1 O16 3.015942 1_555
K1 O15 3.015942 1_455
K1 O27 3.042360 1_555
K1 O4 3.180456 1_455
K1 O11 3.180456 1_555
K2 O22 2.895765 1_565
K2 O21 2.895765 1_565
K2 O18 3.015942 1_555
K2 O13 3.015942 1_565
K2 O24 3.042360 1_555
K2 O9 3.180456 1_555
K2 O6 3.180456 1_565
K3 O20 2.895765 1_655
K3 O23 2.895765 1_655
K3 O12 3.015942 1_555
K3 O19 3.015942 1_655
K3 O25 3.042360 1_555
K3 O8 3.180456 1_655
K3 O7 3.180456 1_555
K4 O9 2.711285 1_555
K4 O10 2.711285 1_555
K5 O11 2.711285 1_555
K5 O8 2.711285 1_555
K6 O4 2.711285 1_555
K6 O7 2.711285 1_555
K7 O5 2.711285 1_555
K7 O6 2.711285 1_555
Ca0 O2 2.315889 1_554
Ca0 O0 2.315889 1_555
Ca0 O11 2.326829 1_554
Ca0 O9 2.326829 1_555
Ca0 O5 2.326829 1_555
Ca0 O7 2.326829 1_554
Ca1 O1 2.315889 1_555
Ca1 O3 2.315889 1_555
Ca1 O6 2.326829 1_455
Ca1 O4 2.326829 1_445
Ca1 O8 2.326829 1_555
Ca1 O10 2.326829 1_545
O0 U0 1.857266 1_555
O1 U1 1.857266 1_556
O2 U0 1.857266 1_555
O3 U1 1.857266 1_555
O4 Si0 1.577953 1_555
O5 Si1 1.577953 1_554
O6 Si2 1.577953 1_555
O7 Si3 1.577953 1_556
O8 Si4 1.577953 1_555
O9 Si5 1.577953 1_554
O10 Si6 1.577953 1_555
O11 Si7 1.577953 1_556
O12 Si0 1.624918 1_555
O12 U0 2.207408 1_555
O13 Si1 1.624918 1_554
O13 U1 2.207408 1_655
O14 Si2 1.624918 1_555
O14 U0 2.207408 1_555
O15 Si3 1.624918 1_556
O15 U1 2.207408 1_666
O16 Si4 1.624918 1_555
O16 U0 2.207408 1_555
O17 Si5 1.624918 1_554
O17 U1 2.207408 1_565
O18 Si6 1.624918 1_555
O18 U0 2.207408 1_555
O19 Si7 1.624918 1_556
O19 U1 2.207408 1_556
O20 Si4 1.649662 1_555
O20 Si0 1.649662 1_455
O21 Si5 1.649662 1_544
O21 Si1 1.649662 1_554
O22 Si6 1.649662 1_545
O22 Si2 1.649662 1_555
O23 Si3 1.649662 1_456
O23 Si7 1.649662 1_556
O24 Si0 1.641824 1_555
O24 Si3 1.641824 1_555
O25 Si1 1.641824 1_555
O25 Si2 1.641824 1_555
O26 Si4 1.641824 1_555
O26 Si7 1.641824 1_555
O27 Si5 1.641824 1_555
O27 Si6 1.641824 1_555
