# generated using pymatgen
data_Te2MoWSeS
_symmetry_space_group_name_H-M   'P 1'
_cell_length_a   3.39803197
_cell_length_b   3.39803197
_cell_length_c   40.80267900
_cell_angle_alpha   90.00000000
_cell_angle_beta   90.00000000
_cell_angle_gamma   119.99999941
_symmetry_Int_Tables_number   1
_chemical_formula_structural   Te2MoWSeS
_chemical_formula_sum   'Te4 Mo2 W2 Se2 S2'
_cell_volume   408.01321923
_cell_formula_units_Z   2
loop_
 _symmetry_equiv_pos_site_id
 _symmetry_equiv_pos_as_xyz
  1  'x, y, z'
loop_
 _atom_site_type_symbol
 _atom_site_label
 _atom_site_symmetry_multiplicity
 _atom_site_fract_x
 _atom_site_fract_y
 _atom_site_fract_z
 _atom_site_occupancy
  Te  Te0  1  0.33333300  0.66666700  0.70566300  1
  Te  Te1  1  0.66666700  0.33333300  0.42189700  1
  Te  Te2  1  0.66666700  0.33333300  0.51371400  1
  Te  Te3  1  0.33333300  0.66666700  0.61332400  1
  Mo  Mo0  1  0.33333300  0.66666700  0.09382900  1
  Mo  Mo1  1  0.33333300  0.66666700  0.46780500  1
  W  W0  1  0.66666700  0.33333300  0.28177600  1
  W  W1  1  0.66666700  0.33333300  0.65949800  1
  Se  Se0  1  0.66666700  0.33333300  0.05341500  1
  Se  Se1  1  0.66666700  0.33333300  0.13422600  1
  S  S0  1  0.33333300  0.66666700  0.31872400  1
  S  S1  1  0.33333300  0.66666700  0.24487700  1
loop_
_geom_bond_atom_site_label_1
_geom_bond_atom_site_label_2
_geom_bond_distance
_geom_bond_site_symmetry_2
Te0 W1 2.719747 1_565
Te0 W1 2.719747 1_455
Te0 W1 2.719751 1_555
Te3 W1 2.720002 1_565
Te3 W1 2.720002 1_455
Te3 W1 2.720006 1_555
Mo0 Se1 2.562377 1_455
Mo0 Se1 2.562377 1_565
Mo0 Se1 2.562382 1_555
Mo0 Se0 2.562824 1_565
Mo0 Se0 2.562824 1_455
Mo0 Se0 2.562828 1_555
Mo1 Te1 2.712495 1_455
Mo1 Te1 2.712495 1_565
Mo1 Te1 2.712499 1_555
Mo1 Te2 2.712523 1_565
Mo1 Te2 2.712523 1_455
Mo1 Te2 2.712528 1_555
S0 W0 2.474198 1_455
S0 W0 2.474198 1_565
S0 W0 2.474203 1_555
S1 W0 2.472980 1_565
S1 W0 2.472980 1_455
S1 W0 2.472985 1_555
