# generated using pymatgen
data_KBi3F10
_symmetry_space_group_name_H-M   'P 1'
_cell_length_a   8.44055570
_cell_length_b   8.44055570
_cell_length_c   8.44055570
_cell_angle_alpha   60.00000000
_cell_angle_beta   60.00000000
_cell_angle_gamma   60.00000000
_symmetry_Int_Tables_number   1
_chemical_formula_structural   KBi3F10
_chemical_formula_sum   'K2 Bi6 F20'
_cell_volume   425.20476441
_cell_formula_units_Z   2
loop_
 _symmetry_equiv_pos_site_id
 _symmetry_equiv_pos_as_xyz
  1  'x, y, z'
loop_
 _atom_site_type_symbol
 _atom_site_label
 _atom_site_symmetry_multiplicity
 _atom_site_fract_x
 _atom_site_fract_y
 _atom_site_fract_z
 _atom_site_occupancy
  K  K0  1  0.25000000  0.25000000  0.25000000  1
  K  K1  1  0.75000000  0.75000000  0.75000000  1
  Bi  Bi0  1  0.75975906  0.24024094  0.24024094  1
  Bi  Bi1  1  0.24024094  0.75975906  0.75975906  1
  Bi  Bi2  1  0.24024094  0.75975906  0.24024094  1
  Bi  Bi3  1  0.75975906  0.24024094  0.75975906  1
  Bi  Bi4  1  0.24024094  0.24024094  0.75975906  1
  Bi  Bi5  1  0.75975906  0.75975906  0.24024094  1
  F  F0  1  0.83007456  0.50000000  0.50000000  1
  F  F1  1  0.16992544  0.50000000  0.50000000  1
  F  F2  1  0.50000000  0.83007456  0.16992544  1
  F  F3  1  0.50000000  0.16992544  0.83007456  1
  F  F4  1  0.50000000  0.83007456  0.50000000  1
  F  F5  1  0.16992544  0.50000000  0.83007456  1
  F  F6  1  0.50000000  0.16992544  0.50000000  1
  F  F7  1  0.83007456  0.50000000  0.16992544  1
  F  F8  1  0.50000000  0.50000000  0.83007456  1
  F  F9  1  0.50000000  0.50000000  0.16992544  1
  F  F10  1  0.16992544  0.83007456  0.50000000  1
  F  F11  1  0.83007456  0.16992544  0.50000000  1
  F  F12  1  0.11545029  0.11545029  0.11545029  1
  F  F13  1  0.88454971  0.88454971  0.88454971  1
  F  F14  1  0.11545029  0.11545029  0.65364913  1
  F  F15  1  0.11545029  0.65364913  0.11545029  1
  F  F16  1  0.88454971  0.88454971  0.34635087  1
  F  F17  1  0.88454971  0.34635087  0.88454971  1
  F  F18  1  0.65364913  0.11545029  0.11545029  1
  F  F19  1  0.34635087  0.88454971  0.88454971  1
loop_
_geom_bond_atom_site_label_1
_geom_bond_atom_site_label_2
_geom_bond_distance
_geom_bond_site_symmetry_2
Bi0 F11 2.271420 1_555
Bi0 F7 2.271420 1_555
Bi0 F9 2.271420 1_555
Bi0 F6 2.271420 1_555
Bi0 F17 2.453002 1_554
Bi0 F16 2.453002 1_545
Bi0 F12 2.453002 1_655
Bi0 F18 2.453002 1_555
Bi1 F4 2.271420 1_555
Bi1 F8 2.271420 1_555
Bi1 F5 2.271420 1_555
Bi1 F10 2.271420 1_555
Bi1 F13 2.453002 1_455
Bi1 F15 2.453002 1_556
Bi1 F14 2.453002 1_565
Bi1 F19 2.453002 1_555
Bi2 F2 2.271420 1_555
Bi2 F10 2.271420 1_555
Bi2 F1 2.271420 1_555
Bi2 F9 2.271420 1_555
Bi2 F16 2.453002 1_455
Bi2 F12 2.453002 1_565
Bi2 F19 2.453002 1_554
Bi2 F15 2.453002 1_555
Bi3 F0 2.271420 1_555
Bi3 F8 2.271420 1_555
Bi3 F11 2.271420 1_555
Bi3 F3 2.271420 1_555
Bi3 F13 2.453002 1_545
Bi3 F18 2.453002 1_556
Bi3 F17 2.453002 1_555
Bi3 F14 2.453002 1_655
Bi4 F5 2.271420 1_555
Bi4 F3 2.271420 1_555
Bi4 F1 2.271420 1_555
Bi4 F6 2.271420 1_555
Bi4 F17 2.453002 1_455
Bi4 F14 2.453002 1_555
Bi4 F19 2.453002 1_545
Bi4 F12 2.453002 1_556
Bi5 F0 2.271420 1_555
Bi5 F4 2.271420 1_555
Bi5 F2 2.271420 1_555
Bi5 F7 2.271420 1_555
Bi5 F13 2.453002 1_554
Bi5 F16 2.453002 1_555
Bi5 F18 2.453002 1_565
Bi5 F15 2.453002 1_655
F12 K0 2.781823 1_555
F13 K1 2.781823 1_555
F14 K0 2.781823 1_555
F15 K0 2.781823 1_555
F16 K1 2.781823 1_555
F17 K1 2.781823 1_555
F18 K0 2.781823 1_555
F19 K1 2.781823 1_555
