# generated using pymatgen
data_RbNaCa2Nb4O13
_symmetry_space_group_name_H-M   'P 1'
_cell_length_a   3.97914300
_cell_length_b   3.97914300
_cell_length_c   19.25434700
_cell_angle_alpha   90.00000000
_cell_angle_beta   90.00000000
_cell_angle_gamma   90.00000000
_symmetry_Int_Tables_number   1
_chemical_formula_structural   RbNaCa2Nb4O13
_chemical_formula_sum   'Rb1 Na1 Ca2 Nb4 O13'
_cell_volume   304.86522460
_cell_formula_units_Z   1
loop_
 _symmetry_equiv_pos_site_id
 _symmetry_equiv_pos_as_xyz
  1  'x, y, z'
loop_
 _atom_site_type_symbol
 _atom_site_label
 _atom_site_symmetry_multiplicity
 _atom_site_fract_x
 _atom_site_fract_y
 _atom_site_fract_z
 _atom_site_occupancy
  Rb  Rb0  1  0.50000000  0.50000000  0.50000000  1
  Na  Na0  1  0.50000000  0.50000000  0.00000000  1
  Ca  Ca0  1  0.50000000  0.50000000  0.77752800  1
  Ca  Ca1  1  0.50000000  0.50000000  0.22247200  1
  Nb  Nb0  1  0.00000000  0.00000000  0.67272500  1
  Nb  Nb1  1  0.00000000  0.00000000  0.32727500  1
  Nb  Nb2  1  0.00000000  0.00000000  0.89483100  1
  Nb  Nb3  1  0.00000000  0.00000000  0.10516900  1
  O  O0  1  0.50000000  0.00000000  0.69468200  1
  O  O1  1  0.00000000  0.50000000  0.69468200  1
  O  O2  1  0.50000000  0.00000000  0.30531800  1
  O  O3  1  0.00000000  0.50000000  0.30531800  1
  O  O4  1  0.50000000  0.00000000  0.89458900  1
  O  O5  1  0.00000000  0.50000000  0.89458900  1
  O  O6  1  0.50000000  0.00000000  0.10541100  1
  O  O7  1  0.00000000  0.50000000  0.10541100  1
  O  O8  1  0.00000000  0.00000000  0.79307100  1
  O  O9  1  0.00000000  0.00000000  0.20692900  1
  O  O10  1  0.00000000  0.00000000  0.57933100  1
  O  O11  1  0.00000000  0.00000000  0.42066900  1
  O  O12  1  0.00000000  0.00000000  0.00000000  1
loop_
_geom_bond_atom_site_label_1
_geom_bond_atom_site_label_2
_geom_bond_distance
_geom_bond_site_symmetry_2
Na0 O12 2.813679 1_555
Na0 O12 2.813679 1_655
Na0 O12 2.813679 1_565
Na0 O12 2.813679 1_665
Na0 O6 2.842139 1_555
Na0 O6 2.842139 1_565
Na0 O7 2.842139 1_555
Na0 O7 2.842139 1_655
Na0 O5 2.842139 1_654
Na0 O4 2.842139 1_554
Na0 O5 2.842139 1_554
Na0 O4 2.842139 1_564
Ca0 O0 2.550075 1_555
Ca0 O1 2.550075 1_555
Ca0 O1 2.550075 1_655
Ca0 O0 2.550075 1_565
Ca0 O8 2.829550 1_555
Ca0 O8 2.829550 1_655
Ca0 O8 2.829550 1_565
Ca0 O8 2.829550 1_665
Ca0 O4 3.006428 1_555
Ca0 O4 3.006428 1_565
Ca0 O5 3.006428 1_655
Ca0 O5 3.006428 1_555
Ca1 O3 2.550075 1_655
Ca1 O2 2.550075 1_565
Ca1 O2 2.550075 1_555
Ca1 O3 2.550075 1_555
Ca1 O9 2.829550 1_555
Ca1 O9 2.829550 1_565
Ca1 O9 2.829550 1_655
Ca1 O9 2.829550 1_665
Ca1 O7 3.006428 1_555
Ca1 O6 3.006428 1_565
Ca1 O7 3.006428 1_655
Ca1 O6 3.006428 1_555
Nb0 O10 1.798240 1_555
Nb0 O1 2.033993 1_545
Nb0 O0 2.033993 1_455
Nb0 O0 2.033993 1_555
Nb0 O1 2.033993 1_555
Nb0 O8 2.317184 1_555
Nb1 O11 1.798240 1_555
Nb1 O3 2.033993 1_555
Nb1 O3 2.033993 1_545
Nb1 O2 2.033993 1_455
Nb1 O2 2.033993 1_555
Nb1 O9 2.317184 1_555
Nb2 O8 1.959322 1_555
Nb2 O5 1.989577 1_555
Nb2 O5 1.989577 1_545
Nb2 O4 1.989577 1_455
Nb2 O4 1.989577 1_555
Nb2 O12 2.024960 1_556
Nb3 O9 1.959322 1_555
Nb3 O7 1.989577 1_545
Nb3 O6 1.989577 1_455
Nb3 O6 1.989577 1_555
Nb3 O7 1.989577 1_555
Nb3 O12 2.024960 1_555
O10 Rb0 3.201553 1_545
O10 Rb0 3.201553 1_445
O10 Rb0 3.201553 1_455
O10 Rb0 3.201553 1_555
O11 Rb0 3.201553 1_545
O11 Rb0 3.201553 1_445
O11 Rb0 3.201553 1_455
O11 Rb0 3.201553 1_555
