# generated using pymatgen
data_Mo6PbSe8
_symmetry_space_group_name_H-M   'P 1'
_cell_length_a   12.63072033
_cell_length_b   8.22058487
_cell_length_c   12.18330300
_cell_angle_alpha   36.18384248
_cell_angle_beta   149.48777294
_cell_angle_gamma   129.59853700
_symmetry_Int_Tables_number   1
_chemical_formula_structural   Mo6PbSe8
_chemical_formula_sum   'Mo6 Pb1 Se8'
_cell_volume   372.03169459
_cell_formula_units_Z   1
loop_
 _symmetry_equiv_pos_site_id
 _symmetry_equiv_pos_as_xyz
  1  'x, y, z'
loop_
 _atom_site_type_symbol
 _atom_site_label
 _atom_site_symmetry_multiplicity
 _atom_site_fract_x
 _atom_site_fract_y
 _atom_site_fract_z
 _atom_site_occupancy
  Mo  Mo0  1  0.20531600  0.81526800  0.93117000  1
  Mo  Mo1  1  0.34628500  0.64909700  0.31970000  1
  Mo  Mo2  1  0.29343400  0.22918800  0.87994800  1
  Mo  Mo3  1  0.79468400  0.18473200  0.06883000  1
  Mo  Mo4  1  0.65371500  0.35090300  0.68029900  1
  Mo  Mo5  1  0.70656600  0.77081200  0.12005200  1
  Pb  Pb0  1  0.00000000  0.00000000  0.00000000  1
  Se  Se0  1  0.13113200  0.32285800  0.36591800  1
  Se  Se1  1  0.46340900  0.05729700  0.30005400  1
  Se  Se2  1  0.91653000  0.28053700  0.46485100  1
  Se  Se3  1  0.86886800  0.67714200  0.63408200  1
  Se  Se4  1  0.53659100  0.94270300  0.69994600  1
  Se  Se5  1  0.08347000  0.71946300  0.53514900  1
  Se  Se6  1  0.43124700  0.69689100  0.03276600  1
  Se  Se7  1  0.56875300  0.30310900  0.96723400  1
loop_
_geom_bond_atom_site_label_1
_geom_bond_atom_site_label_2
_geom_bond_distance
_geom_bond_site_symmetry_2
Mo0 Mo1 2.362915 1_556
Mo0 Se6 2.476310 1_556
Mo0 Mo2 2.479401 1_565
Mo0 Se3 2.535615 1_455
Mo0 Se2 2.685549 1_465
Mo1 Se0 2.408836 1_555
Mo1 Se1 2.547802 1_565
Mo1 Pb0 3.348966 1_565
Mo2 Se7 2.360162 1_555
Mo2 Se2 2.459635 1_455
Mo2 Se1 2.462030 1_556
Mo2 Se5 2.832544 1_555
Mo3 Mo4 2.362926 1_554
Mo3 Se7 2.476310 1_554
Mo3 Mo5 2.479401 1_545
Mo3 Se0 2.535615 1_655
Mo3 Se5 2.685549 1_645
Mo4 Se3 2.408832 1_555
Mo4 Se4 2.547796 1_545
Mo4 Pb0 3.348958 1_656
Mo5 Se6 2.360162 1_555
Mo5 Se5 2.459635 1_655
Mo5 Se4 2.462030 1_554
Mo5 Se2 2.832544 1_555
Pb0 Se4 3.200333 1_444
Pb0 Se1 3.200333 1_555
