# generated using pymatgen
data_Sr2Re6S11
_symmetry_space_group_name_H-M   'P 1'
_cell_length_a   11.81259402
_cell_length_b   11.81259402
_cell_length_c   11.81259338
_cell_angle_alpha   45.53123957
_cell_angle_beta   45.53123957
_cell_angle_gamma   45.53124001
_symmetry_Int_Tables_number   1
_chemical_formula_structural   Sr2Re6S11
_chemical_formula_sum   'Sr4 Re12 S22'
_cell_volume   764.89705750
_cell_formula_units_Z   2
loop_
 _symmetry_equiv_pos_site_id
 _symmetry_equiv_pos_as_xyz
  1  'x, y, z'
loop_
 _atom_site_type_symbol
 _atom_site_label
 _atom_site_symmetry_multiplicity
 _atom_site_fract_x
 _atom_site_fract_y
 _atom_site_fract_z
 _atom_site_occupancy
  Sr  Sr0  1  0.68944389  0.68944389  0.68944389  1
  Sr  Sr1  1  0.18944389  0.18944389  0.18944389  1
  Sr  Sr2  1  0.31055611  0.31055611  0.31055611  1
  Sr  Sr3  1  0.81055611  0.81055611  0.81055611  1
  Re  Re0  1  0.61501669  0.49356321  0.28890696  1
  Re  Re1  1  0.28890696  0.61501669  0.49356321  1
  Re  Re2  1  0.49356321  0.28890696  0.61501669  1
  Re  Re3  1  0.78890696  0.99356321  0.11501669  1
  Re  Re4  1  0.11501669  0.78890696  0.99356321  1
  Re  Re5  1  0.99356321  0.11501669  0.78890696  1
  Re  Re6  1  0.38498331  0.50643679  0.71109304  1
  Re  Re7  1  0.71109304  0.38498331  0.50643679  1
  Re  Re8  1  0.50643679  0.71109304  0.38498331  1
  Re  Re9  1  0.21109304  0.00643679  0.88498331  1
  Re  Re10  1  0.88498331  0.21109304  0.00643679  1
  Re  Re11  1  0.00643679  0.88498331  0.21109304  1
  S  S0  1  0.79795221  0.19330895  0.41816096  1
  S  S1  1  0.41816096  0.79795221  0.19330895  1
  S  S2  1  0.19330895  0.41816096  0.79795221  1
  S  S3  1  0.91816096  0.69330895  0.29795221  1
  S  S4  1  0.29795221  0.91816096  0.69330895  1
  S  S5  1  0.69330895  0.29795221  0.91816096  1
  S  S6  1  0.20204779  0.80669105  0.58183904  1
  S  S7  1  0.58183904  0.20204779  0.80669105  1
  S  S8  1  0.80669105  0.58183904  0.20204779  1
  S  S9  1  0.08183904  0.30669105  0.70204779  1
  S  S10  1  0.70204779  0.08183904  0.30669105  1
  S  S11  1  0.30669105  0.70204779  0.08183904  1
  S  S12  1  0.50588703  0.99411297  0.25000000  1
  S  S13  1  0.25000000  0.50588703  0.99411297  1
  S  S14  1  0.99411297  0.25000000  0.50588703  1
  S  S15  1  0.75000000  0.49411297  0.00588703  1
  S  S16  1  0.00588703  0.75000000  0.49411297  1
  S  S17  1  0.49411297  0.00588703  0.75000000  1
  S  S18  1  0.40768271  0.40768271  0.40768271  1
  S  S19  1  0.90768271  0.90768271  0.90768271  1
  S  S20  1  0.59231729  0.59231729  0.59231729  1
  S  S21  1  0.09231729  0.09231729  0.09231729  1
loop_
_geom_bond_atom_site_label_1
_geom_bond_atom_site_label_2
_geom_bond_distance
_geom_bond_site_symmetry_2
Re0 S18 2.380865 1_555
Re0 S8 2.412607 1_555
Re0 S0 2.424437 1_555
Re0 S1 2.426326 1_555
Re0 S15 2.496992 1_555
Re1 S18 2.380865 1_555
Re1 S6 2.412607 1_555
Re1 S1 2.424437 1_555
Re1 S2 2.426326 1_555
Re1 S16 2.496992 1_555
Re2 S18 2.380865 1_555
Re2 S7 2.412607 1_555
Re2 S2 2.424437 1_555
Re2 S0 2.426326 1_555
Re2 S17 2.496992 1_555
Re3 S19 2.380865 1_554
Re3 S10 2.412607 1_565
Re3 S3 2.424437 1_555
Re3 S5 2.426326 1_564
Re3 S12 2.496992 1_555
Re4 S19 2.380865 1_455
Re4 S11 2.412607 1_556
Re4 S4 2.424437 1_555
Re4 S3 2.426326 1_456
Re4 S13 2.496992 1_555
Re5 S19 2.380865 1_545
Re5 S9 2.412607 1_655
Re5 S5 2.424437 1_555
Re5 S4 2.426326 1_645
Re5 S14 2.496992 1_555
Re6 S20 2.380865 1_555
Re6 S2 2.412607 1_555
Re6 S6 2.424437 1_555
Re6 S7 2.426326 1_555
Re6 S13 2.496992 1_555
Re7 S20 2.380865 1_555
Re7 S0 2.412607 1_555
Re7 S7 2.424437 1_555
Re7 S8 2.426326 1_555
Re7 S14 2.496992 1_555
Re8 S20 2.380865 1_555
Re8 S1 2.412607 1_555
Re8 S8 2.424437 1_555
Re8 S6 2.426326 1_555
Re8 S12 2.496992 1_555
Re9 S21 2.380865 1_556
Re9 S4 2.412607 1_545
Re9 S9 2.424437 1_555
Re9 S11 2.426326 1_546
Re9 S17 2.496992 1_555
Re10 S21 2.380865 1_655
Re10 S5 2.412607 1_554
Re10 S10 2.424437 1_555
Re10 S9 2.426326 1_654
Re10 S15 2.496992 1_555
Re11 S21 2.380865 1_565
Re11 S3 2.412607 1_455
Re11 S11 2.424437 1_555
Re11 S10 2.426326 1_465
Re11 S16 2.496992 1_555
S0 Sr1 3.325626 1_655
S0 Sr3 3.551252 1_545
S1 Sr1 3.325626 1_565
S1 Sr3 3.551252 1_554
S2 Sr1 3.325626 1_556
S2 Sr3 3.551252 1_455
S3 Sr0 3.325626 1_555
S3 Sr2 3.551252 1_655
S4 Sr0 3.325626 1_555
S4 Sr2 3.551252 1_565
S5 Sr0 3.325626 1_555
S5 Sr2 3.551252 1_556
S6 Sr3 3.325626 1_455
S6 Sr1 3.551252 1_565
S7 Sr3 3.325626 1_545
S7 Sr1 3.551252 1_556
S8 Sr3 3.325626 1_554
S8 Sr1 3.551252 1_655
S9 Sr2 3.325626 1_555
S9 Sr0 3.551252 1_455
S10 Sr2 3.325626 1_555
S10 Sr0 3.551252 1_545
S11 Sr2 3.325626 1_555
S11 Sr0 3.551252 1_554
S12 Sr2 3.026259 1_565
S12 Sr1 3.026259 1_565
S13 Sr2 3.026259 1_556
S13 Sr1 3.026259 1_556
S14 Sr1 3.026259 1_655
S14 Sr2 3.026259 1_655
S15 Sr0 3.026259 1_554
S15 Sr3 3.026259 1_554
S16 Sr3 3.026259 1_455
S16 Sr0 3.026259 1_455
S17 Sr0 3.026259 1_545
S17 Sr3 3.026259 1_545
S18 Sr2 3.079242 1_555
S19 Sr3 3.079242 1_555
S20 Sr0 3.079242 1_555
S21 Sr1 3.079242 1_555
