# generated using pymatgen
data_VO2
_symmetry_space_group_name_H-M   'P 1'
_cell_length_a   3.00917964
_cell_length_b   8.75815357
_cell_length_c   10.66702419
_cell_angle_alpha   89.71984576
_cell_angle_beta   89.75879487
_cell_angle_gamma   91.80899712
_symmetry_Int_Tables_number   1
_chemical_formula_structural   VO2
_chemical_formula_sum   'V8 O16'
_cell_volume   280.98175448
_cell_formula_units_Z   8
loop_
 _symmetry_equiv_pos_site_id
 _symmetry_equiv_pos_as_xyz
  1  'x, y, z'
loop_
 _atom_site_type_symbol
 _atom_site_label
 _atom_site_symmetry_multiplicity
 _atom_site_fract_x
 _atom_site_fract_y
 _atom_site_fract_z
 _atom_site_occupancy
  V  V0  1  0.73503600  0.06040100  0.11587200  1
  V  V1  1  0.76159100  0.07014100  0.60826600  1
  V  V2  1  0.76273300  0.56706800  0.89494200  1
  V  V3  1  0.24616200  0.42600000  0.10511500  1
  V  V4  1  0.77173300  0.56049300  0.38355500  1
  V  V5  1  0.22540700  0.44233300  0.61366100  1
  V  V6  1  0.22029700  0.93758600  0.89155900  1
  V  V7  1  0.24583700  0.93265100  0.39677000  1
  O  O0  1  0.21583500  0.71252600  0.36007200  1
  O  O1  1  0.78266000  0.29051900  0.63838300  1
  O  O2  1  0.78125700  0.79090100  0.86072300  1
  O  O3  1  0.24719900  0.20769400  0.13463400  1
  O  O4  1  0.26664000  0.60953900  0.01639400  1
  O  O5  1  0.74653200  0.38549000  0.98064100  1
  O  O6  1  0.74112000  0.88856700  0.51747900  1
  O  O7  1  0.26544700  0.11300600  0.48281100  1
  O  O8  1  0.74965800  0.98314200  0.28318000  1
  O  O9  1  0.25782700  0.02251500  0.71658400  1
  O  O10  1  0.26235600  0.52326900  0.78344500  1
  O  O11  1  0.74645900  0.47652900  0.21410900  1
  O  O12  1  0.22954700  0.92509200  0.07432200  1
  O  O13  1  0.74261200  0.07224700  0.93047800  1
  O  O14  1  0.74454300  0.57216000  0.57255800  1
  O  O15  1  0.25151500  0.43013000  0.42444800  1
loop_
_geom_bond_atom_site_label_1
_geom_bond_atom_site_label_2
_geom_bond_distance
_geom_bond_site_symmetry_2
O0 V4 1.871686 1_455
O0 V7 1.968460 1_555
O0 V4 2.185145 1_555
O1 V5 1.869282 1_655
O1 V1 1.957304 1_555
O1 V5 2.188692 1_555
O2 V6 1.845181 1_655
O2 V2 1.991306 1_555
O2 V6 2.178173 1_555
O3 V3 1.936295 1_555
O3 V0 1.989738 1_455
O3 V0 1.994692 1_555
O4 V3 1.860582 1_555
O4 V2 2.017126 1_554
O4 V2 2.025268 1_454
O5 V2 1.829640 1_555
O5 V3 2.033967 1_656
O5 V3 2.043890 1_556
O6 V1 1.865457 1_565
O6 V7 2.013791 1_655
O6 V7 2.018887 1_555
O7 V7 1.830206 1_545
O7 V1 2.042721 1_455
O7 V1 2.051367 1_555
O8 V0 1.906724 1_565
O8 V7 1.974633 1_555
O8 V7 1.986123 1_655
O9 V1 1.935879 1_555
O9 V1 1.946273 1_455
O9 V6 2.007250 1_545
O10 V5 1.950423 1_555
O10 V2 1.952424 1_555
O10 V2 1.961600 1_455
O11 V3 1.947245 1_555
O11 V4 1.955551 1_555
O11 V3 1.959848 1_655
O12 V0 1.952325 1_565
O12 V6 1.952436 1_554
O12 V0 1.981433 1_465
O13 V6 1.932957 1_645
O13 V0 1.979813 1_556
O13 V6 1.981642 1_545
O14 V5 1.919187 1_655
O14 V5 1.950053 1_555
O14 V4 2.020630 1_555
O15 V4 1.919053 1_455
O15 V4 1.954725 1_555
O15 V5 2.023016 1_555
