# generated using pymatgen
data_Ho2S2F
_symmetry_space_group_name_H-M   'P 1'
_cell_length_a   3.73204200
_cell_length_b   3.73204200
_cell_length_c   11.12450200
_cell_angle_alpha   90.00000000
_cell_angle_beta   90.00000000
_cell_angle_gamma   90.00000000
_symmetry_Int_Tables_number   1
_chemical_formula_structural   Ho2S2F
_chemical_formula_sum   'Ho2 S2 F1'
_cell_volume   154.94359336
_cell_formula_units_Z   1
loop_
 _symmetry_equiv_pos_site_id
 _symmetry_equiv_pos_as_xyz
  1  'x, y, z'
loop_
 _atom_site_type_symbol
 _atom_site_label
 _atom_site_symmetry_multiplicity
 _atom_site_fract_x
 _atom_site_fract_y
 _atom_site_fract_z
 _atom_site_occupancy
  Ho  Ho0  1  0.50000000  0.50000000  0.19247600  1
  Ho  Ho1  1  0.50000000  0.50000000  0.80752400  1
  S  S0  1  0.50000000  0.50000000  0.58846300  1
  S  S1  1  0.50000000  0.50000000  0.41153700  1
  F  F0  1  0.50000000  0.50000000  0.00000000  1
loop_
_geom_bond_atom_site_label_1
_geom_bond_atom_site_label_2
_geom_bond_distance
_geom_bond_site_symmetry_2
Ho0 S1 2.436945 1_555
Ho1 S0 2.436945 1_555
S0 S1 1.968214 1_555
F0 Ho0 2.141200 1_555
F0 Ho1 2.141200 1_554
