# generated using pymatgen
data_Zr8As5
_symmetry_space_group_name_H-M   'P 1'
_cell_length_a   3.73493100
_cell_length_b   10.21268100
_cell_length_c   28.80093400
_cell_angle_alpha   90.00000000
_cell_angle_beta   90.00000000
_cell_angle_gamma   90.00000000
_symmetry_Int_Tables_number   1
_chemical_formula_structural   Zr8As5
_chemical_formula_sum   'Zr32 As20'
_cell_volume   1098.57300135
_cell_formula_units_Z   4
loop_
 _symmetry_equiv_pos_site_id
 _symmetry_equiv_pos_as_xyz
  1  'x, y, z'
loop_
 _atom_site_type_symbol
 _atom_site_label
 _atom_site_symmetry_multiplicity
 _atom_site_fract_x
 _atom_site_fract_y
 _atom_site_fract_z
 _atom_site_occupancy
  Zr  Zr0  1  0.50000000  0.25794000  0.41798600  1
  Zr  Zr1  1  0.50000000  0.24111500  0.58286300  1
  Zr  Zr2  1  0.50000000  0.74206000  0.91798600  1
  Zr  Zr3  1  0.50000000  0.75888500  0.08286300  1
  Zr  Zr4  1  0.50000000  0.57398400  0.38066400  1
  Zr  Zr5  1  0.50000000  0.92403900  0.61891500  1
  Zr  Zr6  1  0.50000000  0.42601600  0.88066400  1
  Zr  Zr7  1  0.50000000  0.07596100  0.11891500  1
  Zr  Zr8  1  0.50000000  0.25502600  0.23583700  1
  Zr  Zr9  1  0.50000000  0.24484000  0.76535800  1
  Zr  Zr10  1  0.50000000  0.74497400  0.73583700  1
  Zr  Zr11  1  0.50000000  0.75516000  0.26535800  1
  Zr  Zr12  1  0.50000000  0.41138600  0.12646700  1
  Zr  Zr13  1  0.50000000  0.08520500  0.87355200  1
  Zr  Zr14  1  0.50000000  0.58861400  0.62646700  1
  Zr  Zr15  1  0.50000000  0.91479500  0.37355200  1
  Zr  Zr16  1  0.00000000  0.66336000  0.17096200  1
  Zr  Zr17  1  0.00000000  0.83938600  0.82988200  1
  Zr  Zr18  1  0.00000000  0.33664000  0.67096200  1
  Zr  Zr19  1  0.00000000  0.16061400  0.32988200  1
  Zr  Zr20  1  0.00000000  0.25146600  0.50057900  1
  Zr  Zr21  1  0.00000000  0.74853400  0.00057900  1
  Zr  Zr22  1  0.50000000  0.47640400  0.00752500  1
  Zr  Zr23  1  0.50000000  0.02022700  0.99328400  1
  Zr  Zr24  1  0.50000000  0.52359600  0.50752500  1
  Zr  Zr25  1  0.50000000  0.97977300  0.49328400  1
  Zr  Zr26  1  0.00000000  0.50204200  0.28332000  1
  Zr  Zr27  1  0.00000000  0.99653800  0.71655100  1
  Zr  Zr28  1  0.00000000  0.49795800  0.78332000  1
  Zr  Zr29  1  0.00000000  0.00346200  0.21655100  1
  Zr  Zr30  1  0.00000000  0.75418000  0.44376300  1
  Zr  Zr31  1  0.00000000  0.24582000  0.94376300  1
  As  As0  1  0.00000000  0.46400400  0.43976000  1
  As  As1  1  0.00000000  0.03804500  0.56152800  1
  As  As2  1  0.00000000  0.53599600  0.93976000  1
  As  As3  1  0.00000000  0.96195500  0.06152800  1
  As  As4  1  0.00000000  0.55824800  0.07670200  1
  As  As5  1  0.00000000  0.94626700  0.92523000  1
  As  As6  1  0.00000000  0.44175200  0.57670200  1
  As  As7  1  0.00000000  0.05373300  0.42523000  1
  As  As8  1  0.50000000  0.51342900  0.21388900  1
  As  As9  1  0.50000000  0.98566600  0.78541400  1
  As  As10  1  0.50000000  0.48657100  0.71388900  1
  As  As11  1  0.50000000  0.01433400  0.28541400  1
  As  As12  1  0.50000000  0.35377600  0.32857000  1
  As  As13  1  0.50000000  0.14299800  0.67146100  1
  As  As14  1  0.50000000  0.64622400  0.82857000  1
  As  As15  1  0.50000000  0.85700200  0.17146100  1
  As  As16  1  0.00000000  0.23233800  0.16287000  1
  As  As17  1  0.00000000  0.26821800  0.83906900  1
  As  As18  1  0.00000000  0.76766200  0.66287000  1
  As  As19  1  0.00000000  0.73178200  0.33906900  1
loop_
_geom_bond_atom_site_label_1
_geom_bond_atom_site_label_2
_geom_bond_distance
_geom_bond_site_symmetry_2
As0 Zr4 2.765114 1_455
As0 Zr4 2.765114 1_555
As0 Zr24 2.768922 1_455
As0 Zr24 2.768922 1_555
As0 Zr20 2.789209 1_555
As0 Zr0 2.882616 1_555
As0 Zr0 2.882616 1_455
As0 Zr30 2.965717 1_555
As1 Zr5 2.752232 1_545
As1 Zr5 2.752232 1_445
As1 Zr25 2.775742 1_445
As1 Zr25 2.775742 1_545
As1 Zr20 2.798579 1_555
As1 Zr1 2.857624 1_555
As1 Zr1 2.857624 1_455
As2 Zr6 2.765114 1_455
As2 Zr6 2.765114 1_555
As2 Zr22 2.768922 1_456
As2 Zr22 2.768922 1_556
As2 Zr21 2.789209 1_556
As2 Zr2 2.882616 1_555
As2 Zr2 2.882616 1_455
As2 Zr31 2.965717 1_555
As3 Zr7 2.752232 1_465
As3 Zr7 2.752232 1_565
As3 Zr23 2.775742 1_464
As3 Zr23 2.775742 1_564
As3 Zr21 2.798579 1_555
As3 Zr3 2.857624 1_555
As3 Zr3 2.857624 1_455
As4 Zr3 2.778036 1_455
As4 Zr3 2.778036 1_555
As4 Zr12 2.791286 1_455
As4 Zr12 2.791286 1_555
As4 Zr22 2.855797 1_455
As4 Zr22 2.855797 1_555
As4 Zr16 2.919308 1_555
As4 Zr21 2.929711 1_555
As5 Zr13 2.777777 1_465
As5 Zr13 2.777777 1_565
As5 Zr2 2.807182 1_455
As5 Zr2 2.807182 1_555
As5 Zr23 2.810627 1_465
As5 Zr23 2.810627 1_565
As5 Zr17 2.955096 1_555
As5 Zr21 2.964345 1_556
As5 Zr31 3.105455 1_565
As6 Zr1 2.778036 1_555
As6 Zr1 2.778036 1_455
As6 Zr14 2.791286 1_555
As6 Zr14 2.791286 1_455
As6 Zr24 2.855797 1_455
As6 Zr24 2.855797 1_555
As6 Zr18 2.919308 1_555
As6 Zr20 2.929711 1_555
As7 Zr15 2.777777 1_445
As7 Zr15 2.777777 1_545
As7 Zr0 2.807182 1_455
As7 Zr0 2.807182 1_555
As7 Zr25 2.810627 1_545
As7 Zr25 2.810627 1_445
As7 Zr19 2.955096 1_555
As7 Zr20 2.964345 1_555
As7 Zr30 3.105455 1_545
As8 Zr16 2.713029 1_555
As8 Zr16 2.713029 1_655
As8 Zr8 2.713638 1_555
As8 Zr12 2.724983 1_555
As8 Zr26 2.738551 1_555
As8 Zr26 2.738551 1_655
As8 Zr11 2.879577 1_555
As9 Zr9 2.709157 1_565
As9 Zr17 2.712829 1_555
As9 Zr17 2.712829 1_655
As9 Zr27 2.726409 1_555
As9 Zr27 2.726409 1_655
As9 Zr13 2.734439 1_565
As9 Zr10 2.842728 1_555
As10 Zr18 2.713029 1_555
As10 Zr18 2.713029 1_655
As10 Zr10 2.713638 1_555
As10 Zr14 2.724983 1_555
As10 Zr28 2.738551 1_555
As10 Zr28 2.738551 1_655
As10 Zr9 2.879577 1_555
As11 Zr11 2.709157 1_545
As11 Zr19 2.712829 1_555
As11 Zr19 2.712829 1_655
As11 Zr29 2.726409 1_655
As11 Zr29 2.726409 1_555
As11 Zr15 2.734439 1_545
As11 Zr8 2.842728 1_555
As12 Zr4 2.703457 1_555
As12 Zr19 2.716691 1_555
As12 Zr19 2.716691 1_655
As12 Zr26 2.734712 1_555
As12 Zr26 2.734712 1_655
As12 Zr0 2.754982 1_555
As12 Zr8 2.854861 1_555
As13 Zr5 2.700131 1_545
As13 Zr18 2.720028 1_555
As13 Zr18 2.720028 1_655
As13 Zr27 2.722342 1_645
As13 Zr27 2.722342 1_545
As13 Zr1 2.741401 1_555
As13 Zr9 2.897433 1_555
As14 Zr6 2.703457 1_555
As14 Zr17 2.716691 1_655
As14 Zr17 2.716691 1_555
As14 Zr28 2.734712 1_555
As14 Zr28 2.734712 1_655
As14 Zr2 2.754982 1_555
As14 Zr10 2.854861 1_555
As15 Zr7 2.700131 1_565
As15 Zr16 2.720028 1_555
As15 Zr16 2.720028 1_655
As15 Zr29 2.722342 1_565
As15 Zr29 2.722342 1_665
As15 Zr3 2.741401 1_555
As15 Zr11 2.897433 1_555
As16 Zr7 2.764153 1_455
As16 Zr7 2.764153 1_555
As16 Zr29 2.802486 1_555
As16 Zr12 2.816076 1_455
As16 Zr12 2.816076 1_555
As16 Zr8 2.820903 1_455
As16 Zr8 2.820903 1_555
As17 Zr6 2.742195 1_555
As17 Zr6 2.742195 1_455
As17 Zr13 2.822609 1_455
As17 Zr13 2.822609 1_555
As17 Zr9 2.837486 1_555
As17 Zr9 2.837486 1_455
As17 Zr28 2.843056 1_555
As17 Zr31 3.023949 1_555
As18 Zr5 2.764153 1_455
As18 Zr5 2.764153 1_555
As18 Zr27 2.802486 1_555
As18 Zr14 2.816076 1_555
As18 Zr14 2.816076 1_455
As18 Zr10 2.820903 1_455
As18 Zr10 2.820903 1_555
As19 Zr4 2.742195 1_455
As19 Zr4 2.742195 1_555
As19 Zr15 2.822609 1_555
As19 Zr15 2.822609 1_455
As19 Zr11 2.837486 1_555
As19 Zr11 2.837486 1_455
As19 Zr26 2.843056 1_555
As19 Zr30 3.023949 1_555
