# generated using pymatgen
data_CaVAsO5
_symmetry_space_group_name_H-M   'P 1'
_cell_length_a   9.01996000
_cell_length_b   6.01108200
_cell_length_c   7.67760209
_cell_angle_alpha   89.83178263
_cell_angle_beta   90.00000000
_cell_angle_gamma   90.00000000
_symmetry_Int_Tables_number   1
_chemical_formula_structural   CaVAsO5
_chemical_formula_sum   'Ca4 V4 As4 O20'
_cell_volume   416.27563529
_cell_formula_units_Z   4
loop_
 _symmetry_equiv_pos_site_id
 _symmetry_equiv_pos_as_xyz
  1  'x, y, z'
loop_
 _atom_site_type_symbol
 _atom_site_label
 _atom_site_symmetry_multiplicity
 _atom_site_fract_x
 _atom_site_fract_y
 _atom_site_fract_z
 _atom_site_occupancy
  Ca  Ca0  1  0.91845100  0.77388400  0.84749500  1
  Ca  Ca1  1  0.41845100  0.22611600  0.15250500  1
  Ca  Ca2  1  0.08225400  0.72334900  0.35469800  1
  Ca  Ca3  1  0.58225400  0.27665100  0.64530200  1
  V  V0  1  0.24890300  0.49453300  0.75772200  1
  V  V1  1  0.74890300  0.50546700  0.24227800  1
  V  V2  1  0.75383000  0.00345300  0.25765800  1
  V  V3  1  0.25383000  0.99654700  0.74234200  1
  As  As0  1  0.05954800  0.26911000  0.10725700  1
  As  As1  1  0.55954800  0.73089000  0.89274300  1
  As  As2  1  0.94056000  0.23130100  0.60716500  1
  As  As3  1  0.44056000  0.76869900  0.39283500  1
  O  O0  1  0.17628400  0.24151300  0.92569000  1
  O  O1  1  0.67628400  0.75848700  0.07431000  1
  O  O2  1  0.82496500  0.25979600  0.42485100  1
  O  O3  1  0.32496500  0.74020400  0.57514900  1
  O  O4  1  0.17619200  0.33722100  0.27215800  1
  O  O5  1  0.67619200  0.66277900  0.72784200  1
  O  O6  1  0.82031400  0.15943000  0.76914500  1
  O  O7  1  0.32031400  0.84057000  0.23085500  1
  O  O8  1  0.96673100  0.01882600  0.13253700  1
  O  O9  1  0.46673100  0.98117400  0.86746300  1
  O  O10  1  0.03180500  0.48208400  0.63439900  1
  O  O11  1  0.53180500  0.51791600  0.36560100  1
  O  O12  1  0.94173100  0.49704800  0.08968300  1
  O  O13  1  0.44173100  0.50295200  0.91031700  1
  O  O14  1  0.05908800  0.00534500  0.59103900  1
  O  O15  1  0.55908800  0.99465500  0.40896100  1
  O  O16  1  0.16623300  0.75302600  0.86865400  1
  O  O17  1  0.66623300  0.24697400  0.13134600  1
  O  O18  1  0.83320100  0.74550300  0.37414400  1
  O  O19  1  0.33320100  0.25449700  0.62585600  1
loop_
_geom_bond_atom_site_label_1
_geom_bond_atom_site_label_2
_geom_bond_distance
_geom_bond_site_symmetry_2
Ca0 O16 2.244358 1_655
Ca0 O5 2.463434 1_555
Ca0 O12 2.500511 1_556
Ca0 O6 2.551129 1_565
Ca0 O10 2.610670 1_655
Ca0 O8 2.676882 1_566
Ca0 O14 2.721349 1_665
Ca0 O1 2.794889 1_556
Ca1 O17 2.244358 1_555
Ca1 O4 2.463434 1_555
Ca1 O13 2.500511 1_554
Ca1 O7 2.551129 1_545
Ca1 O11 2.610670 1_555
Ca1 O9 2.676882 1_544
Ca1 O15 2.721349 1_545
Ca1 O0 2.794889 1_554
Ca2 O18 2.255365 1_455
Ca2 O7 2.451016 1_555
Ca2 O14 2.495520 1_565
Ca2 O4 2.552534 1_555
Ca2 O10 2.627454 1_555
Ca2 O8 2.670571 1_465
Ca2 O12 2.759205 1_455
Ca2 O3 2.769248 1_555
Ca3 O19 2.255365 1_555
Ca3 O6 2.451016 1_555
Ca3 O15 2.495520 1_545
Ca3 O5 2.552534 1_555
Ca3 O11 2.627454 1_555
Ca3 O9 2.670571 1_545
Ca3 O13 2.759205 1_555
Ca3 O2 2.769248 1_555
As0 O4 1.697204 1_555
As0 O8 1.732144 1_455
As0 O12 1.738903 1_455
As0 O0 1.755227 1_554
As1 O5 1.697204 1_555
As1 O9 1.732144 1_555
As1 O13 1.738903 1_555
As1 O1 1.755227 1_556
As2 O6 1.704835 1_555
As2 O10 1.730731 1_655
As2 O14 1.733247 1_655
As2 O2 1.753377 1_555
As3 O7 1.704835 1_555
As3 O11 1.730731 1_555
As3 O15 1.733247 1_555
As3 O3 1.753377 1_555
O0 V0 2.096137 1_555
O0 V3 2.156675 1_545
O1 V1 2.096137 1_555
O1 V2 2.156675 1_565
O2 V2 2.108415 1_555
O2 V1 2.145730 1_555
O3 V3 2.108415 1_555
O3 V0 2.145730 1_555
O8 V2 2.149094 1_555
O9 V3 2.149094 1_555
O10 V0 2.176488 1_555
O11 V1 2.176488 1_555
O12 V1 2.097770 1_555
O13 V0 2.097770 1_555
O14 V3 2.106508 1_545
O15 V2 2.106508 1_565
O16 V3 1.923330 1_555
O16 V0 1.924462 1_555
O17 V2 1.923330 1_555
O17 V1 1.924462 1_555
O18 V1 1.921876 1_555
O18 V2 1.925738 1_565
O19 V0 1.921876 1_555
O19 V3 1.925738 1_545
