# generated using pymatgen
data_Sr2ZnAg
_symmetry_space_group_name_H-M   'P 1'
_cell_length_a   13.16437735
_cell_length_b   13.16437735
_cell_length_c   13.16437735
_cell_angle_alpha   120.46105778
_cell_angle_beta   118.59426626
_cell_angle_gamma   90.82757373
_symmetry_Int_Tables_number   1
_chemical_formula_structural   Sr2ZnAg
_chemical_formula_sum   'Sr2 Zn1 Ag1'
_cell_volume   1623.99591177
_cell_formula_units_Z   1
loop_
 _symmetry_equiv_pos_site_id
 _symmetry_equiv_pos_as_xyz
  1  'x, y, z'
loop_
 _atom_site_type_symbol
 _atom_site_label
 _atom_site_symmetry_multiplicity
 _atom_site_fract_x
 _atom_site_fract_y
 _atom_site_fract_z
 _atom_site_occupancy
  Sr  Sr0  1  0.26381100  0.00000000  0.26381100  1
  Sr  Sr1  1  0.73618900  0.00000000  0.73618900  1
  Zn  Zn0  1  0.00000000  0.00000000  0.00000000  1
  Ag  Ag0  1  0.50000000  0.00000000  0.50000000  1
loop_
_geom_bond_atom_site_label_1
_geom_bond_atom_site_label_2
_geom_bond_distance
_geom_bond_site_symmetry_2
Sr0 Zn0 3.546436 1_555
Sr1 Zn0 3.546436 1_656
Ag0 Sr1 3.175110 1_555
Ag0 Sr0 3.175110 1_555
