# generated using pymatgen
data_Ca3ZrSi2O9
_symmetry_space_group_name_H-M   'P 1'
_cell_length_a   10.33124900
_cell_length_b   7.44342400
_cell_length_c   10.52680598
_cell_angle_alpha   88.92726676
_cell_angle_beta   90.00000000
_cell_angle_gamma   90.00000000
_symmetry_Int_Tables_number   1
_chemical_formula_structural   Ca3ZrSi2O9
_chemical_formula_sum   'Ca12 Zr4 Si8 O36'
_cell_volume   809.36809852
_cell_formula_units_Z   4
loop_
 _symmetry_equiv_pos_site_id
 _symmetry_equiv_pos_as_xyz
  1  'x, y, z'
loop_
 _atom_site_type_symbol
 _atom_site_label
 _atom_site_symmetry_multiplicity
 _atom_site_fract_x
 _atom_site_fract_y
 _atom_site_fract_z
 _atom_site_occupancy
  Ca  Ca0  1  0.92286200  0.36489000  0.11410100  1
  Ca  Ca1  1  0.42286200  0.63511000  0.38589900  1
  Ca  Ca2  1  0.07713800  0.63511000  0.88589900  1
  Ca  Ca3  1  0.57713800  0.36489000  0.61410100  1
  Ca  Ca4  1  0.32493800  0.88118900  0.08960500  1
  Ca  Ca5  1  0.82493800  0.11881100  0.41039500  1
  Ca  Ca6  1  0.67506200  0.11881100  0.91039500  1
  Ca  Ca7  1  0.17506200  0.88118900  0.58960500  1
  Ca  Ca8  1  0.30381100  0.37298400  0.09928700  1
  Ca  Ca9  1  0.80381100  0.62701600  0.40071300  1
  Ca  Ca10  1  0.69618900  0.62701600  0.90071300  1
  Ca  Ca11  1  0.19618900  0.37298400  0.59928700  1
  Zr  Zr0  1  0.56398800  0.87648100  0.61514400  1
  Zr  Zr1  1  0.06398800  0.12351900  0.88485600  1
  Zr  Zr2  1  0.43601200  0.12351900  0.38485600  1
  Zr  Zr3  1  0.93601200  0.87648100  0.11514400  1
  Si  Si0  1  0.13501700  0.59765500  0.31057800  1
  Si  Si1  1  0.63501700  0.40234500  0.18942200  1
  Si  Si2  1  0.86498300  0.40234500  0.68942200  1
  Si  Si3  1  0.36498300  0.59765500  0.81057800  1
  Si  Si4  1  0.12432200  0.16636000  0.31807700  1
  Si  Si5  1  0.62432200  0.83364000  0.18192300  1
  Si  Si6  1  0.87567800  0.83364000  0.68192300  1
  Si  Si7  1  0.37567800  0.16636000  0.81807700  1
  O  O0  1  0.39217200  0.34394900  0.48468800  1
  O  O1  1  0.89217200  0.65605100  0.01531200  1
  O  O2  1  0.60782800  0.65605100  0.51531200  1
  O  O3  1  0.10782800  0.34394900  0.98468800  1
  O  O4  1  0.11022600  0.90373000  0.01029400  1
  O  O5  1  0.61022600  0.09627000  0.48970600  1
  O  O6  1  0.88977400  0.09627000  0.98970600  1
  O  O7  1  0.38977400  0.90373000  0.51029400  1
  O  O8  1  0.16646400  0.62079100  0.46029400  1
  O  O9  1  0.66646400  0.37920900  0.03970600  1
  O  O10  1  0.83353600  0.37920900  0.53970600  1
  O  O11  1  0.33353600  0.62079100  0.96029400  1
  O  O12  1  0.00048500  0.69260200  0.26318700  1
  O  O13  1  0.50048500  0.30739800  0.23681300  1
  O  O14  1  0.87672900  0.86005700  0.52941700  1
  O  O15  1  0.99951500  0.30739800  0.73681300  1
  O  O16  1  0.23530400  0.64322100  0.72651600  1
  O  O17  1  0.73530400  0.35677900  0.77348400  1
  O  O18  1  0.76469600  0.35677900  0.27348400  1
  O  O19  1  0.26469600  0.64322100  0.22651600  1
  O  O20  1  0.76387000  0.89306400  0.24378600  1
  O  O21  1  0.26387000  0.10693600  0.25621400  1
  O  O22  1  0.23613000  0.10693600  0.75621400  1
  O  O23  1  0.73613000  0.89306400  0.74378600  1
  O  O24  1  0.39432600  0.38249000  0.77516600  1
  O  O25  1  0.89432600  0.61751000  0.72483400  1
  O  O26  1  0.60567400  0.61751000  0.22483400  1
  O  O27  1  0.10567400  0.38249000  0.27516600  1
  O  O28  1  0.00379500  0.91572800  0.75086200  1
  O  O29  1  0.50379500  0.08427200  0.74913800  1
  O  O30  1  0.99620500  0.08427200  0.24913800  1
  O  O31  1  0.49620500  0.91572800  0.25086200  1
  O  O32  1  0.62327100  0.86005700  0.02941700  1
  O  O33  1  0.12327100  0.13994300  0.47058300  1
  O  O34  1  0.37672900  0.13994300  0.97058300  1
  O  O35  1  0.49951500  0.69260200  0.76318700  1
loop_
_geom_bond_atom_site_label_1
_geom_bond_atom_site_label_2
_geom_bond_distance
_geom_bond_site_symmetry_2
Ca0 O18 2.342002 1_555
Ca0 O3 2.353673 1_654
Ca0 O1 2.407179 1_555
Ca0 O6 2.434634 1_554
Ca0 O27 2.543088 1_655
Ca0 O30 2.616595 1_555
Ca0 O9 2.763743 1_555
Ca0 O12 3.033092 1_655
Ca1 O19 2.342002 1_555
Ca1 O2 2.353673 1_555
Ca1 O0 2.407179 1_555
Ca1 O7 2.434634 1_555
Ca1 O26 2.543088 1_555
Ca1 O31 2.616595 1_555
Ca1 O8 2.763743 1_555
Ca1 O13 3.033092 1_555
Ca2 O16 2.342002 1_555
Ca2 O1 2.353673 1_456
Ca2 O3 2.407179 1_555
Ca2 O4 2.434634 1_556
Ca2 O25 2.543088 1_455
Ca2 O28 2.616595 1_555
Ca2 O11 2.763743 1_555
Ca2 O15 3.033092 1_455
Ca3 O17 2.342002 1_555
Ca3 O0 2.353673 1_555
Ca3 O2 2.407179 1_555
Ca3 O5 2.434634 1_555
Ca3 O24 2.543088 1_555
Ca3 O29 2.616595 1_555
Ca3 O10 2.763743 1_555
Ca3 O35 3.033092 1_555
Ca4 O34 2.339933 1_564
Ca4 O19 2.346575 1_555
Ca4 O4 2.374985 1_555
Ca4 O11 2.390911 1_554
Ca4 O31 2.468764 1_555
Ca4 O21 2.531389 1_565
Ca5 O14 2.339933 1_545
Ca5 O18 2.346575 1_555
Ca5 O5 2.374985 1_555
Ca5 O10 2.390911 1_555
Ca5 O30 2.468764 1_555
Ca5 O20 2.531389 1_545
Ca6 O32 2.339933 1_546
Ca6 O17 2.346575 1_555
Ca6 O6 2.374985 1_555
Ca6 O9 2.390911 1_556
Ca6 O29 2.468764 1_555
Ca6 O23 2.531389 1_545
Ca7 O33 2.339933 1_565
Ca7 O16 2.346575 1_555
Ca7 O7 2.374985 1_555
Ca7 O8 2.390911 1_555
Ca7 O28 2.468764 1_555
Ca7 O22 2.531389 1_565
Ca8 O34 2.345213 1_554
Ca8 O11 2.352949 1_554
Ca8 O3 2.368837 1_554
Ca8 O19 2.470633 1_555
Ca8 O13 2.536985 1_555
Ca8 O21 2.588109 1_555
Ca8 O27 2.761879 1_555
Ca9 O14 2.345213 1_555
Ca9 O10 2.352949 1_555
Ca9 O2 2.368837 1_555
Ca9 O18 2.470633 1_555
Ca9 O12 2.536985 1_655
Ca9 O20 2.588109 1_555
Ca9 O26 2.761879 1_555
Ca10 O32 2.345213 1_556
Ca10 O9 2.352949 1_556
Ca10 O1 2.368837 1_556
Ca10 O17 2.470633 1_555
Ca10 O35 2.536985 1_555
Ca10 O23 2.588109 1_555
Ca10 O25 2.761879 1_555
Ca11 O33 2.345213 1_555
Ca11 O8 2.352949 1_555
Ca11 O0 2.368837 1_555
Ca11 O16 2.470633 1_555
Ca11 O15 2.536985 1_455
Ca11 O22 2.588109 1_555
Ca11 O24 2.761879 1_555
O0 Zr2 2.016480 1_555
O1 Zr3 2.016480 1_555
O2 Zr0 2.016480 1_555
O3 Zr1 2.016480 1_555
O4 Zr3 2.119066 1_455
O4 Zr1 2.137139 1_564
O5 Zr2 2.119066 1_555
O5 Zr0 2.137139 1_545
O6 Zr1 2.119066 1_655
O6 Zr3 2.137139 1_546
O7 Zr0 2.119066 1_555
O7 Zr2 2.137139 1_565
O8 Si0 1.621495 1_555
O9 Si1 1.621495 1_555
O10 Si2 1.621495 1_555
O11 Si3 1.621495 1_555
O12 Si0 1.633071 1_555
O12 Zr3 2.160044 1_455
O13 Si1 1.633071 1_555
O13 Zr2 2.160044 1_555
O14 Si6 1.613777 1_555
O15 Si2 1.633071 1_555
O15 Zr1 2.160044 1_655
O16 Si3 1.637612 1_555
O17 Si2 1.637612 1_555
O18 Si1 1.637612 1_555
O19 Si0 1.637612 1_555
O20 Si5 1.645914 1_555
O20 Zr3 2.240129 1_555
O21 Si4 1.645914 1_555
O21 Zr2 2.240129 1_555
O22 Si7 1.645914 1_555
O22 Zr1 2.240129 1_555
O23 Si6 1.645914 1_555
O23 Zr0 2.240129 1_555
O24 Si7 1.673924 1_555
O24 Si3 1.678757 1_555
O25 Si6 1.673924 1_555
O25 Si2 1.678757 1_555
O26 Si5 1.673924 1_555
O26 Si1 1.678757 1_555
O27 Si4 1.673924 1_555
O27 Si0 1.678757 1_555
O28 Si6 1.633565 1_455
O28 Zr1 2.202319 1_565
O29 Si7 1.633565 1_555
O29 Zr0 2.202319 1_545
O30 Si4 1.633565 1_655
O30 Zr3 2.202319 1_545
O31 Si5 1.633565 1_555
O31 Zr2 2.202319 1_565
O32 Si5 1.613777 1_555
O33 Si4 1.613777 1_555
O34 Si7 1.613777 1_555
O35 Si3 1.633071 1_555
O35 Zr0 2.160044 1_555
