# generated using pymatgen
data_Ba4Sr2Nd2Co4O15
_symmetry_space_group_name_H-M   'P 1'
_cell_length_a   11.80709111
_cell_length_b   11.80709111
_cell_length_c   6.93173373
_cell_angle_alpha   89.73668612
_cell_angle_beta   89.73668612
_cell_angle_gamma   119.99165701
_symmetry_Int_Tables_number   1
_chemical_formula_structural   Ba4Sr2Nd2Co4O15
_chemical_formula_sum   'Ba8 Sr4 Nd4 Co8 O30'
_cell_volume   836.90564290
_cell_formula_units_Z   2
loop_
 _symmetry_equiv_pos_site_id
 _symmetry_equiv_pos_as_xyz
  1  'x, y, z'
loop_
 _atom_site_type_symbol
 _atom_site_label
 _atom_site_symmetry_multiplicity
 _atom_site_fract_x
 _atom_site_fract_y
 _atom_site_fract_z
 _atom_site_occupancy
  Ba  Ba0  1  0.82520300  0.17301000  0.32993300  1
  Ba  Ba1  1  0.82887700  0.65682100  0.32946700  1
  Ba  Ba2  1  0.34533800  0.17397900  0.33483500  1
  Ba  Ba3  1  0.17301000  0.82520300  0.82993300  1
  Ba  Ba4  1  0.17397900  0.34533800  0.83483500  1
  Ba  Ba5  1  0.65682100  0.82887700  0.82946700  1
  Ba  Ba6  1  0.66439900  0.33248300  0.00930600  1
  Ba  Ba7  1  0.33248300  0.66439900  0.50930600  1
  Sr  Sr0  1  0.00002900  0.00025100  0.51265100  1
  Sr  Sr1  1  0.00025100  0.00002900  0.01265100  1
  Sr  Sr2  1  0.52615300  0.05004600  0.67000000  1
  Sr  Sr3  1  0.05004600  0.52615300  0.17000000  1
  Nd  Nd0  1  0.52426100  0.47630900  0.66628400  1
  Nd  Nd1  1  0.95156000  0.47729600  0.66948700  1
  Nd  Nd2  1  0.47630900  0.52426100  0.16628400  1
  Nd  Nd3  1  0.47729600  0.95156000  0.16948700  1
  Co  Co0  1  0.66613300  0.33252200  0.46489200  1
  Co  Co1  1  0.33252200  0.66613300  0.96489200  1
  Co  Co2  1  0.82619100  0.17571100  0.83883600  1
  Co  Co3  1  0.82670100  0.65211500  0.83605300  1
  Co  Co4  1  0.35008700  0.17193400  0.84149100  1
  Co  Co5  1  0.17571100  0.82619100  0.33883600  1
  Co  Co6  1  0.17193400  0.35008700  0.34149100  1
  Co  Co7  1  0.65211500  0.82670100  0.33605300  1
  O  O0  1  0.06081400  0.67181500  0.48262100  1
  O  O1  1  0.33322500  0.39549100  0.46868000  1
  O  O2  1  0.60468400  0.93342800  0.45950800  1
  O  O3  1  0.06493000  0.39144800  0.48083700  1
  O  O4  1  0.32856200  0.93488000  0.46542900  1
  O  O5  1  0.60539400  0.66558300  0.46445300  1
  O  O6  1  0.93488000  0.32856200  0.96542900  1
  O  O7  1  0.66558300  0.60539400  0.96445300  1
  O  O8  1  0.39144800  0.06493000  0.98083700  1
  O  O9  1  0.93342800  0.60468400  0.95950800  1
  O  O10  1  0.67181500  0.06081400  0.98262100  1
  O  O11  1  0.39549100  0.33322500  0.96868000  1
  O  O12  1  0.58090200  0.41636900  0.33077400  1
  O  O13  1  0.58254300  0.16819200  0.32600900  1
  O  O14  1  0.82836200  0.41549100  0.34314600  1
  O  O15  1  0.41636900  0.58090200  0.83077400  1
  O  O16  1  0.41549100  0.82836200  0.84314600  1
  O  O17  1  0.16819200  0.58254300  0.82600900  1
  O  O18  1  0.08369700  0.90227600  0.25118700  1
  O  O19  1  0.09544700  0.18370500  0.25128200  1
  O  O20  1  0.82085600  0.90472700  0.25394900  1
  O  O21  1  0.90227600  0.08369700  0.75118700  1
  O  O22  1  0.90472700  0.82085600  0.75394900  1
  O  O23  1  0.18370500  0.09544700  0.75128200  1
  O  O24  1  0.75744100  0.25224400  0.66458900  1
  O  O25  1  0.75024900  0.50614100  0.66277200  1
  O  O26  1  0.49800600  0.25569000  0.66572700  1
  O  O27  1  0.25224400  0.75744100  0.16458900  1
  O  O28  1  0.25569000  0.49800600  0.16572700  1
  O  O29  1  0.50614100  0.75024900  0.16277200  1
loop_
_geom_bond_atom_site_label_1
_geom_bond_atom_site_label_2
_geom_bond_distance
_geom_bond_site_symmetry_2
Ba0 O24 2.765452 1_555
Ba0 O13 2.837360 1_555
Ba0 O14 2.846437 1_555
Ba0 O2 2.860004 1_545
Ba0 O10 2.915751 1_554
Ba0 O3 2.917420 1_655
Ba0 O6 2.997257 1_554
Ba0 O19 3.174100 1_655
Ba0 O20 3.188581 1_545
Ba0 O21 3.379670 1_555
Ba1 O25 2.766978 1_555
Ba1 O5 2.846046 1_555
Ba1 O14 2.847513 1_555
Ba1 O0 2.863832 1_655
Ba1 O12 2.884771 1_555
Ba1 O18 2.999815 1_655
Ba1 O20 3.018959 1_555
Ba1 O9 3.037164 1_554
Ba1 O7 3.062082 1_554
Ba1 O22 3.399024 1_555
Ba2 O26 2.785784 1_555
Ba2 O12 2.822724 1_555
Ba2 O13 2.835863 1_555
Ba2 O1 2.848974 1_555
Ba2 O4 2.871273 1_545
Ba2 O8 2.948386 1_554
Ba2 O11 3.026058 1_554
Ba2 O19 3.067217 1_555
Ba2 O18 3.208840 1_545
Ba2 O23 3.315194 1_555
Ba3 O27 2.765452 1_556
Ba3 O17 2.837360 1_555
Ba3 O16 2.846437 1_555
Ba3 O9 2.860004 1_455
Ba3 O0 2.915751 1_555
Ba3 O8 2.917420 1_565
Ba3 O4 2.997257 1_555
Ba3 O23 3.174100 1_565
Ba3 O22 3.188581 1_455
Ba3 O18 3.379670 1_556
Ba4 O28 2.785784 1_556
Ba4 O15 2.822724 1_555
Ba4 O17 2.835863 1_555
Ba4 O11 2.848974 1_555
Ba4 O6 2.871273 1_455
Ba4 O3 2.948386 1_555
Ba4 O1 3.026058 1_555
Ba4 O23 3.067217 1_555
Ba4 O21 3.208840 1_455
Ba4 O19 3.315194 1_556
Ba5 O29 2.766978 1_556
Ba5 O7 2.846046 1_555
Ba5 O16 2.847513 1_555
Ba5 O10 2.863832 1_565
Ba5 O15 2.884771 1_555
Ba5 O21 2.999815 1_565
Ba5 O22 3.018959 1_555
Ba5 O2 3.037164 1_555
Ba5 O5 3.062082 1_555
Ba5 O20 3.399024 1_556
Ba6 O13 2.753780 1_555
Ba6 O12 2.809742 1_555
Ba6 O14 2.868539 1_555
Ba6 O26 2.938677 1_554
Ba6 O24 2.975095 1_554
Ba6 O25 2.975919 1_554
Ba6 O11 3.193140 1_554
Ba6 O8 3.199674 1_554
Ba6 O9 3.211177 1_554
Ba6 O7 3.228885 1_554
Ba6 O6 3.229969 1_554
Ba6 O10 3.258345 1_554
Ba7 O17 2.753780 1_555
Ba7 O15 2.809742 1_555
Ba7 O16 2.868539 1_555
Ba7 O28 2.938677 1_555
Ba7 O27 2.975095 1_555
Ba7 O29 2.975919 1_555
Ba7 O1 3.193140 1_555
Ba7 O3 3.199674 1_555
Ba7 O2 3.211177 1_555
Ba7 O5 3.228885 1_555
Ba7 O4 3.229969 1_555
Ba7 O0 3.258345 1_555
Nd0 O5 2.384928 1_555
Nd0 O1 2.400623 1_555
Nd0 O15 2.453630 1_555
Nd0 O26 2.464602 1_555
Nd0 O25 2.510776 1_555
Nd0 O12 2.613588 1_555
Nd0 O7 2.626232 1_555
Nd0 O11 2.632432 1_555
Nd1 O0 2.368977 1_655
Nd1 O3 2.425229 1_655
Nd1 O17 2.474652 1_655
Nd1 O24 2.495576 1_555
Nd1 O25 2.564757 1_555
Nd1 O9 2.587538 1_555
Nd1 O14 2.598027 1_555
Nd1 O6 2.635971 1_555
Nd2 O7 2.384928 1_554
Nd2 O11 2.400623 1_554
Nd2 O12 2.453630 1_555
Nd2 O28 2.464602 1_555
Nd2 O29 2.510776 1_555
Nd2 O15 2.613588 1_554
Nd2 O5 2.626232 1_555
Nd2 O1 2.632432 1_555
Nd3 O10 2.368977 1_564
Nd3 O8 2.425229 1_564
Nd3 O13 2.474652 1_565
Nd3 O27 2.495576 1_555
Nd3 O29 2.564757 1_555
Nd3 O2 2.587538 1_555
Nd3 O16 2.598027 1_554
Nd3 O4 2.635971 1_555
Co0 O14 1.855371 1_555
Co0 O13 1.943428 1_555
Co0 O12 1.962960 1_555
Co0 O26 2.205496 1_555
Co0 O24 2.236085 1_555
Co0 O25 2.252331 1_555
Co1 O16 1.855371 1_555
Co1 O17 1.943428 1_555
Co1 O15 1.962960 1_555
Co1 O28 2.205496 1_556
Co1 O27 2.236085 1_556
Co1 O29 2.252331 1_556
Co2 O21 1.825714 1_555
Co2 O6 1.839403 1_555
Co2 O10 1.911770 1_555
Co2 O24 1.914847 1_555
Co3 O22 1.814332 1_555
Co3 O9 1.828912 1_555
Co3 O7 1.909485 1_555
Co3 O25 1.923981 1_555
Co4 O23 1.818958 1_555
Co4 O8 1.837829 1_555
Co4 O11 1.921055 1_555
Co4 O26 1.937843 1_555
Co5 O18 1.825714 1_555
Co5 O4 1.839403 1_555
Co5 O0 1.911770 1_555
Co5 O27 1.914847 1_555
Co6 O19 1.818958 1_555
Co6 O3 1.837829 1_555
Co6 O1 1.921055 1_555
Co6 O28 1.937843 1_555
Co7 O20 1.814332 1_555
Co7 O2 1.828912 1_555
Co7 O5 1.909485 1_555
Co7 O29 1.923981 1_555
O0 Sr3 2.736444 1_555
O2 Sr2 2.483338 1_565
O3 Sr3 2.730271 1_555
O4 Sr2 2.485796 1_565
O6 Sr3 2.485796 1_656
O8 Sr2 2.730271 1_555
O9 Sr3 2.483338 1_656
O10 Sr2 2.736444 1_555
O13 Sr2 2.664795 1_555
O14 Sr3 2.556623 1_655
O16 Sr2 2.556623 1_565
O17 Sr3 2.664795 1_556
O18 Sr1 2.484173 1_565
O18 Sr0 2.596955 1_565
O19 Sr1 2.513117 1_555
O19 Sr0 2.597873 1_555
O20 Sr1 2.473382 1_665
O20 Sr0 2.575126 1_665
O21 Sr0 2.484173 1_655
O21 Sr1 2.596955 1_656
O22 Sr0 2.473382 1_665
O22 Sr1 2.575126 1_666
O23 Sr0 2.513117 1_555
O23 Sr1 2.597873 1_556
O24 Sr2 2.576583 1_555
O26 Sr2 2.610161 1_555
O27 Sr3 2.576583 1_555
O28 Sr3 2.610161 1_555
