# generated using pymatgen
data_Lu2Fe4Si9
_symmetry_space_group_name_H-M   'P 1'
_cell_length_a   3.92835146
_cell_length_b   3.92835146
_cell_length_c   15.85699200
_cell_angle_alpha   90.00000000
_cell_angle_beta   90.00000000
_cell_angle_gamma   119.99999085
_symmetry_Int_Tables_number   1
_chemical_formula_structural   Lu2Fe4Si9
_chemical_formula_sum   'Lu2 Fe4 Si9'
_cell_volume   211.92010007
_cell_formula_units_Z   1
loop_
 _symmetry_equiv_pos_site_id
 _symmetry_equiv_pos_as_xyz
  1  'x, y, z'
loop_
 _atom_site_type_symbol
 _atom_site_label
 _atom_site_symmetry_multiplicity
 _atom_site_fract_x
 _atom_site_fract_y
 _atom_site_fract_z
 _atom_site_occupancy
  Lu  Lu0  1  0.33333300  0.66666700  0.24075100  1
  Lu  Lu1  1  0.66666700  0.33333300  0.75924900  1
  Fe  Fe0  1  0.33333300  0.66666700  0.59080800  1
  Fe  Fe1  1  0.66666700  0.33333300  0.40919200  1
  Fe  Fe2  1  0.66666700  0.33333300  0.10342600  1
  Fe  Fe3  1  0.33333300  0.66666700  0.89657400  1
  Si  Si0  1  0.33333300  0.66666700  0.43422800  1
  Si  Si1  1  0.66666700  0.33333300  0.56577200  1
  Si  Si2  1  0.66666700  0.33333300  0.95667200  1
  Si  Si3  1  0.33333300  0.66666700  0.04332800  1
  Si  Si4  1  0.00000000  0.00000000  0.65264300  1
  Si  Si5  1  0.00000000  0.00000000  0.34735700  1
  Si  Si6  1  0.00000000  0.00000000  0.12950700  1
  Si  Si7  1  0.00000000  0.00000000  0.87049300  1
  Si  Si8  1  0.00000000  0.00000000  0.50000000  1
loop_
_geom_bond_atom_site_label_1
_geom_bond_atom_site_label_2
_geom_bond_distance
_geom_bond_site_symmetry_2
Lu0 Si5 2.828709 1_565
Lu0 Si5 2.828712 1_665
Lu0 Si5 2.828712 1_555
Lu0 Si6 2.873265 1_565
Lu0 Si6 2.873268 1_665
Lu0 Si6 2.873268 1_555
Lu0 Si0 3.067963 1_555
Lu0 Si3 3.130535 1_555
Lu1 Si4 2.828709 1_655
Lu1 Si4 2.828712 1_555
Lu1 Si4 2.828712 1_665
Lu1 Si7 2.873265 1_655
Lu1 Si7 2.873268 1_555
Lu1 Si7 2.873268 1_665
Lu1 Si1 3.067963 1_555
Lu1 Si2 3.130535 1_555
Fe0 Si1 2.302516 1_455
Fe0 Si1 2.302516 1_565
Fe0 Si1 2.302522 1_555
Fe0 Si4 2.470908 1_565
Fe0 Si4 2.470911 1_665
Fe0 Si4 2.470911 1_555
Fe0 Si0 2.482888 1_555
Fe0 Si8 2.686523 1_565
Fe0 Si8 2.686526 1_555
Fe0 Si8 2.686526 1_665
Fe1 Si0 2.302516 1_545
Fe1 Si0 2.302516 1_655
Fe1 Si0 2.302522 1_555
Fe1 Si5 2.470908 1_655
Fe1 Si5 2.470911 1_555
Fe1 Si5 2.470911 1_665
Fe1 Si1 2.482888 1_555
Fe1 Si8 2.686523 1_655
Fe1 Si8 2.686526 1_555
Fe1 Si8 2.686526 1_665
Fe2 Si6 2.305430 1_655
Fe2 Si6 2.305434 1_555
Fe2 Si6 2.305434 1_665
Fe2 Si2 2.327077 1_554
Fe2 Si3 2.460108 1_655
Fe2 Si3 2.460108 1_545
Fe2 Si3 2.460114 1_555
Fe2 Lu0 3.144161 1_545
Fe2 Lu0 3.144161 1_655
Fe2 Lu0 3.144165 1_555
Fe3 Si7 2.305430 1_565
Fe3 Si7 2.305434 1_665
Fe3 Si7 2.305434 1_555
Fe3 Si3 2.327077 1_556
Fe3 Si2 2.460108 1_455
Fe3 Si2 2.460108 1_565
Fe3 Si2 2.460114 1_555
Fe3 Lu1 3.144161 1_455
Fe3 Lu1 3.144161 1_565
Fe3 Lu1 3.144165 1_555
Si0 Si8 2.496339 1_565
Si0 Si8 2.496342 1_665
Si0 Si8 2.496342 1_555
Si0 Si5 2.653585 1_565
Si0 Si5 2.653588 1_555
Si0 Si5 2.653588 1_665
Si1 Si8 2.496339 1_655
Si1 Si8 2.496342 1_555
Si1 Si8 2.496342 1_665
Si1 Si4 2.653585 1_655
Si1 Si4 2.653588 1_665
Si1 Si4 2.653588 1_555
Si2 Si7 2.647905 1_655
Si2 Si7 2.647908 1_555
Si2 Si7 2.647908 1_665
Si2 Si3 2.651817 1_546
Si2 Si3 2.651817 1_656
Si2 Si3 2.651822 1_556
Si3 Si6 2.647905 1_565
Si3 Si6 2.647908 1_665
Si3 Si6 2.647908 1_555
Si4 Si8 2.420459 1_555
Si5 Si8 2.420459 1_555
