# generated using pymatgen
data_NaYbTi2O6
_symmetry_space_group_name_H-M   'P 1'
_cell_length_a   5.37699500
_cell_length_b   5.49718300
_cell_length_c   7.67187200
_cell_angle_alpha   90.00000000
_cell_angle_beta   90.00000000
_cell_angle_gamma   90.00000000
_symmetry_Int_Tables_number   1
_chemical_formula_structural   NaYbTi2O6
_chemical_formula_sum   'Na2 Yb2 Ti4 O12'
_cell_volume   226.76768981
_cell_formula_units_Z   2
loop_
 _symmetry_equiv_pos_site_id
 _symmetry_equiv_pos_as_xyz
  1  'x, y, z'
loop_
 _atom_site_type_symbol
 _atom_site_label
 _atom_site_symmetry_multiplicity
 _atom_site_fract_x
 _atom_site_fract_y
 _atom_site_fract_z
 _atom_site_occupancy
  Na  Na0  1  0.49549700  0.72272700  0.50000000  1
  Na  Na1  1  0.99549700  0.27727300  0.00000000  1
  Yb  Yb0  1  0.01337300  0.19477200  0.50000000  1
  Yb  Yb1  1  0.51337300  0.80522800  0.00000000  1
  Ti  Ti0  1  0.50493700  0.26170600  0.74801300  1
  Ti  Ti1  1  0.00493700  0.73829400  0.24801300  1
  Ti  Ti2  1  0.50493700  0.26170600  0.25198700  1
  Ti  Ti3  1  0.00493700  0.73829400  0.75198700  1
  O  O0  1  0.94115500  0.76708200  0.50000000  1
  O  O1  1  0.57676200  0.26587500  0.50000000  1
  O  O2  1  0.07676200  0.73412500  0.00000000  1
  O  O3  1  0.44115500  0.23291800  0.00000000  1
  O  O4  1  0.20309500  0.45714500  0.70702800  1
  O  O5  1  0.27857400  0.97088600  0.27866600  1
  O  O6  1  0.77857400  0.02911400  0.22133400  1
  O  O7  1  0.70309500  0.54285500  0.79297200  1
  O  O8  1  0.77857400  0.02911400  0.77866600  1
  O  O9  1  0.70309500  0.54285500  0.20702800  1
  O  O10  1  0.20309500  0.45714500  0.29297200  1
  O  O11  1  0.27857400  0.97088600  0.72133400  1
loop_
_geom_bond_atom_site_label_1
_geom_bond_atom_site_label_2
_geom_bond_distance
_geom_bond_site_symmetry_2
Na0 O0 2.408674 1_555
Na0 O5 2.470791 1_555
Na0 O11 2.470791 1_555
Na0 O1 2.549129 1_555
Na0 O4 2.669473 1_555
Na0 O10 2.669473 1_555
Na0 O9 2.697337 1_555
Na0 O7 2.697337 1_555
Na1 O3 2.408674 1_655
Na1 O6 2.470791 1_555
Na1 O8 2.470791 1_554
Na1 O2 2.549129 1_655
Na1 O9 2.669473 1_555
Na1 O7 2.669473 1_554
Na1 O10 2.697337 1_655
Na1 O4 2.697337 1_654
O0 Ti3 1.969764 1_655
O0 Ti1 1.969764 1_655
O0 Yb0 2.382942 1_665
O1 Ti2 1.941658 1_555
O1 Ti0 1.941658 1_555
O1 Yb0 2.379971 1_655
O2 Ti1 1.941658 1_555
O2 Ti3 1.941658 1_554
O2 Yb1 2.379971 1_555
O3 Ti0 1.969764 1_554
O3 Ti2 1.969764 1_555
O3 Yb1 2.382942 1_545
O4 Ti3 1.908639 1_555
O4 Ti0 1.971614 1_555
O4 Yb0 2.375629 1_555
O5 Ti1 1.963410 1_555
O5 Ti2 2.019695 1_565
O5 Yb0 2.536044 1_565
O5 Yb1 2.644579 1_555
O6 Ti2 1.963410 1_555
O6 Ti1 2.019695 1_645
O6 Yb1 2.536044 1_545
O6 Yb0 2.644579 1_655
O7 Ti0 1.908639 1_555
O7 Ti3 1.971614 1_655
O7 Yb1 2.375629 1_556
O8 Ti0 1.963410 1_555
O8 Ti3 2.019695 1_645
O8 Yb1 2.536044 1_546
O8 Yb0 2.644579 1_655
O9 Ti2 1.908639 1_555
O9 Ti1 1.971614 1_655
O9 Yb1 2.375629 1_555
O10 Ti1 1.908639 1_555
O10 Ti2 1.971614 1_555
O10 Yb0 2.375629 1_555
O11 Ti3 1.963410 1_555
O11 Ti0 2.019695 1_565
O11 Yb0 2.536044 1_565
O11 Yb1 2.644579 1_556
