# generated using pymatgen
data_Hf4ZnGa11
_symmetry_space_group_name_H-M   'P 1'
_cell_length_a   3.96525800
_cell_length_b   3.96525800
_cell_length_c   17.42965400
_cell_angle_alpha   90.00000000
_cell_angle_beta   90.00000000
_cell_angle_gamma   90.00000000
_symmetry_Int_Tables_number   1
_chemical_formula_structural   Hf4ZnGa11
_chemical_formula_sum   'Hf4 Zn1 Ga11'
_cell_volume   274.05117339
_cell_formula_units_Z   1
loop_
 _symmetry_equiv_pos_site_id
 _symmetry_equiv_pos_as_xyz
  1  'x, y, z'
loop_
 _atom_site_type_symbol
 _atom_site_label
 _atom_site_symmetry_multiplicity
 _atom_site_fract_x
 _atom_site_fract_y
 _atom_site_fract_z
 _atom_site_occupancy
  Hf  Hf0  1  0.50000000  0.50000000  0.38170000  1
  Hf  Hf1  1  0.00000000  0.00000000  0.88222100  1
  Hf  Hf2  1  0.00000000  0.00000000  0.11812200  1
  Hf  Hf3  1  0.50000000  0.50000000  0.61947700  1
  Zn  Zn0  1  0.50000000  0.50000000  0.12762700  1
  Ga  Ga0  1  0.50000000  0.00000000  0.00246000  1
  Ga  Ga1  1  0.00000000  0.50000000  0.50010700  1
  Ga  Ga2  1  0.00000000  0.50000000  0.00246000  1
  Ga  Ga3  1  0.50000000  0.00000000  0.50010700  1
  Ga  Ga4  1  0.00000000  0.50000000  0.24629100  1
  Ga  Ga5  1  0.50000000  0.00000000  0.75019900  1
  Ga  Ga6  1  0.50000000  0.00000000  0.24629100  1
  Ga  Ga7  1  0.00000000  0.50000000  0.75019900  1
  Ga  Ga8  1  0.00000000  0.00000000  0.62499900  1
  Ga  Ga9  1  0.00000000  0.00000000  0.37111400  1
  Ga  Ga10  1  0.50000000  0.50000000  0.87662700  1
loop_
_geom_bond_atom_site_label_1
_geom_bond_atom_site_label_2
_geom_bond_distance
_geom_bond_site_symmetry_2
Hf2 Zn0 2.808751 1_445
Hf2 Zn0 2.808751 1_455
Hf2 Zn0 2.808751 1_555
Hf2 Zn0 2.808751 1_545
Ga0 Ga2 2.803861 1_645
Ga0 Ga2 2.803861 1_655
Ga0 Ga2 2.803861 1_545
Ga0 Ga2 2.803861 1_555
Ga0 Hf2 2.827520 1_655
Ga0 Hf2 2.827520 1_555
Ga0 Hf1 2.884940 1_554
Ga0 Hf1 2.884940 1_654
Ga0 Zn0 2.947927 1_545
Ga0 Zn0 2.947927 1_555
Ga0 Ga10 2.956528 1_554
Ga0 Ga10 2.956528 1_544
Ga1 Ga3 2.803861 1_555
Ga1 Ga3 2.803861 1_455
Ga1 Ga3 2.803861 1_565
Ga1 Ga3 2.803861 1_465
Ga1 Hf0 2.861828 1_555
Ga1 Hf0 2.861828 1_455
Ga1 Hf3 2.873956 1_455
Ga1 Hf3 2.873956 1_555
Ga1 Ga8 2.944381 1_565
Ga1 Ga8 2.944381 1_555
Ga1 Ga9 2.997613 1_565
Ga1 Ga9 2.997613 1_555
Ga2 Hf2 2.827520 1_555
Ga2 Hf2 2.827520 1_565
Ga2 Hf1 2.884940 1_554
Ga2 Hf1 2.884940 1_564
Ga2 Zn0 2.947927 1_455
Ga2 Zn0 2.947927 1_555
Ga3 Hf0 2.861828 1_545
Ga3 Hf0 2.861828 1_555
Ga3 Hf3 2.873956 1_545
Ga3 Hf3 2.873956 1_555
Ga3 Ga8 2.944381 1_655
Ga3 Ga8 2.944381 1_555
Ga3 Ga9 2.997613 1_655
Ga3 Ga9 2.997613 1_555
Ga4 Ga6 2.803861 1_465
Ga4 Ga6 2.803861 1_455
Ga4 Ga6 2.803861 1_565
Ga4 Ga6 2.803861 1_555
Ga4 Zn0 2.865060 1_455
Ga4 Zn0 2.865060 1_555
Ga4 Ga9 2.943492 1_565
Ga4 Ga9 2.943492 1_555
Ga4 Hf2 2.986856 1_555
Ga4 Hf2 2.986856 1_565
Ga4 Hf0 3.082376 1_455
Ga4 Hf0 3.082376 1_555
Ga5 Ga7 2.803861 1_555
Ga5 Ga7 2.803861 1_545
Ga5 Ga7 2.803861 1_645
Ga5 Ga7 2.803861 1_655
Ga5 Ga8 2.948353 1_655
Ga5 Ga8 2.948353 1_555
Ga5 Hf3 3.020282 1_555
Ga5 Hf3 3.020282 1_545
Ga5 Hf1 3.037412 1_655
Ga5 Hf1 3.037412 1_555
Ga6 Zn0 2.865060 1_545
Ga6 Zn0 2.865060 1_555
Ga6 Ga9 2.943492 1_655
Ga6 Ga9 2.943492 1_555
Ga6 Hf2 2.986856 1_655
Ga6 Hf2 2.986856 1_555
Ga6 Hf0 3.082376 1_545
Ga6 Hf0 3.082376 1_555
Ga7 Ga8 2.948353 1_555
Ga7 Ga8 2.948353 1_565
Ga7 Hf3 3.020282 1_455
Ga7 Hf3 3.020282 1_555
Ga7 Hf1 3.037412 1_565
Ga7 Hf1 3.037412 1_555
Ga8 Hf3 2.805512 1_545
Ga8 Hf3 2.805512 1_455
Ga8 Hf3 2.805512 1_555
Ga8 Hf3 2.805512 1_445
Ga9 Hf0 2.809925 1_445
Ga9 Hf0 2.809925 1_555
Ga9 Hf0 2.809925 1_455
Ga9 Hf0 2.809925 1_545
Ga10 Hf1 2.805556 1_555
Ga10 Hf1 2.805556 1_565
Ga10 Hf1 2.805556 1_665
Ga10 Hf1 2.805556 1_655
Ga10 Ga2 2.956528 1_656
Ga10 Ga2 2.956528 1_556
Ga10 Ga5 2.964229 1_555
Ga10 Ga5 2.964229 1_565
Ga10 Ga7 2.964229 1_655
Ga10 Ga7 2.964229 1_555
