# generated using pymatgen
data_Lu(BC)2
_symmetry_space_group_name_H-M   'P 1'
_cell_length_a   5.31922900
_cell_length_b   5.31922900
_cell_length_c   3.43865500
_cell_angle_alpha   90.00000000
_cell_angle_beta   90.00000000
_cell_angle_gamma   90.00000000
_symmetry_Int_Tables_number   1
_chemical_formula_structural   Lu(BC)2
_chemical_formula_sum   'Lu2 B4 C4'
_cell_volume   97.29398252
_cell_formula_units_Z   2
loop_
 _symmetry_equiv_pos_site_id
 _symmetry_equiv_pos_as_xyz
  1  'x, y, z'
loop_
 _atom_site_type_symbol
 _atom_site_label
 _atom_site_symmetry_multiplicity
 _atom_site_fract_x
 _atom_site_fract_y
 _atom_site_fract_z
 _atom_site_occupancy
  Lu  Lu0  1  0.50000000  0.50000000  0.00000000  1
  Lu  Lu1  1  0.00000000  0.00000000  0.00000000  1
  B  B0  1  0.13597400  0.63597400  0.50000000  1
  B  B1  1  0.63597400  0.86402600  0.50000000  1
  B  B2  1  0.86402600  0.36402600  0.50000000  1
  B  B3  1  0.36402600  0.13597400  0.50000000  1
  C  C0  1  0.83737000  0.66263000  0.50000000  1
  C  C1  1  0.33737000  0.83737000  0.50000000  1
  C  C2  1  0.66263000  0.16263000  0.50000000  1
  C  C3  1  0.16263000  0.33737000  0.50000000  1
loop_
_geom_bond_atom_site_label_1
_geom_bond_atom_site_label_2
_geom_bond_distance
_geom_bond_site_symmetry_2
B0 C1 1.515007 1_555
B0 C3 1.594659 1_555
B0 C0 1.594659 1_455
B0 Lu1 2.688609 1_566
B0 Lu0 2.688609 1_556
B0 Lu0 2.688609 1_555
B0 Lu1 2.688609 1_565
B1 C0 1.515007 1_555
B1 C1 1.594659 1_555
B1 C2 1.594659 1_565
B1 Lu1 2.688609 1_666
B1 Lu0 2.688609 1_556
B1 Lu1 2.688609 1_665
B1 Lu0 2.688609 1_555
B2 C2 1.515007 1_555
B2 C0 1.594659 1_555
B2 C3 1.594659 1_655
B2 Lu0 2.688609 1_556
B2 Lu0 2.688609 1_555
B2 Lu1 2.688609 1_655
B2 Lu1 2.688609 1_656
B3 C3 1.515007 1_555
B3 C2 1.594659 1_555
B3 C1 1.594659 1_545
B3 Lu1 2.688609 1_556
B3 Lu1 2.688609 1_555
B3 Lu0 2.688609 1_556
B3 Lu0 2.688609 1_555
C0 Lu1 2.631507 1_666
C0 Lu0 2.631507 1_556
C0 Lu1 2.631507 1_665
C0 Lu0 2.631507 1_555
C1 Lu0 2.631507 1_556
C1 Lu0 2.631507 1_555
C1 Lu1 2.631507 1_565
C1 Lu1 2.631507 1_566
C2 Lu1 2.631507 1_655
C2 Lu1 2.631507 1_656
C2 Lu0 2.631507 1_555
C2 Lu0 2.631507 1_556
C3 Lu0 2.631507 1_556
C3 Lu0 2.631507 1_555
C3 Lu1 2.631507 1_556
C3 Lu1 2.631507 1_555
