# generated using pymatgen
data_YV4(CuO4)3
_symmetry_space_group_name_H-M   'P 1'
_cell_length_a   6.41755079
_cell_length_b   6.41438452
_cell_length_c   6.43057425
_cell_angle_alpha   109.53117704
_cell_angle_beta   109.48130358
_cell_angle_gamma   109.44908154
_symmetry_Int_Tables_number   1
_chemical_formula_structural   YV4(CuO4)3
_chemical_formula_sum   'Y1 V4 Cu3 O12'
_cell_volume   203.65496435
_cell_formula_units_Z   1
loop_
 _symmetry_equiv_pos_site_id
 _symmetry_equiv_pos_as_xyz
  1  'x, y, z'
loop_
 _atom_site_type_symbol
 _atom_site_label
 _atom_site_symmetry_multiplicity
 _atom_site_fract_x
 _atom_site_fract_y
 _atom_site_fract_z
 _atom_site_occupancy
  Y  Y0  1  0.99999900  0.99999900  0.99999500  1
  V  V0  1  0.49999700  0.99999900  0.00000000  1
  V  V1  1  0.99999300  0.00000200  0.50000300  1
  V  V2  1  0.99999900  0.49999900  0.99999700  1
  V  V3  1  0.50000400  0.50000200  0.50000300  1
  Cu  Cu0  1  0.49999800  0.99999900  0.50000100  1
  Cu  Cu1  1  0.50000200  0.50000000  0.99999900  1
  Cu  Cu2  1  0.00000100  0.50000100  0.50000000  1
  O  O0  1  0.82413600  0.29689100  0.12424700  1
  O  O1  1  0.17586700  0.70311300  0.87575800  1
  O  O2  1  0.82096800  0.70067200  0.52778900  1
  O  O3  1  0.29753100  0.47322100  0.17463400  1
  O  O4  1  0.47292500  0.17755700  0.30135700  1
  O  O5  1  0.12081300  0.81704400  0.28959700  1
  O  O6  1  0.69518600  0.87849500  0.16925500  1
  O  O7  1  0.52707200  0.82243900  0.69864400  1
  O  O8  1  0.17903400  0.29933100  0.47221000  1
  O  O9  1  0.70247200  0.52678200  0.82536500  1
  O  O10  1  0.87919000  0.18295100  0.71040100  1
  O  O11  1  0.30481500  0.12150500  0.83074200  1
loop_
_geom_bond_atom_site_label_1
_geom_bond_atom_site_label_2
_geom_bond_distance
_geom_bond_site_symmetry_2
Cu0 O4 1.978786 1_565
Cu0 O7 1.978792 1_555
Cu0 O5 1.992479 1_555
Cu0 O10 1.992513 1_565
Cu1 O9 1.983076 1_555
Cu1 O3 1.983085 1_556
Cu1 O6 1.986592 1_556
Cu1 O11 1.986593 1_555
Cu2 O0 1.976518 1_455
Cu2 O1 1.976545 1_555
Cu2 O8 1.994205 1_555
Cu2 O2 1.994210 1_455
O0 V0 1.956566 1_545
O0 V2 1.981867 1_554
O0 Y0 2.560118 1_544
O1 V0 1.956522 1_556
O1 V2 1.981848 1_455
O1 Y0 2.560093 1_455
O2 V3 1.940785 1_555
O2 V1 1.983856 1_565
O2 Y0 2.555927 1_555
O3 V2 1.963086 1_454
O3 V3 1.973148 1_555
O3 Y0 2.559613 1_444
O4 V3 1.945708 1_555
O4 V0 1.990818 1_545
O4 Y0 2.561899 1_444
O5 V2 1.913010 1_454
O5 V1 2.013242 1_465
O5 Y0 2.559431 1_454
O6 V0 1.915490 1_555
O6 V1 2.014658 1_565
O6 Y0 2.567243 1_554
O7 V3 1.945692 1_555
O7 V0 1.990827 1_556
O7 Y0 2.561886 1_555
O8 V3 1.940796 1_555
O8 V1 1.983907 1_455
O8 Y0 2.555974 1_444
O9 V2 1.963071 1_555
O9 V3 1.973106 1_555
O9 Y0 2.559593 1_555
O10 V2 1.913018 1_555
O10 V1 2.013095 1_555
O10 Y0 2.559368 1_545
O11 V0 1.915483 1_546
O11 V1 2.014677 1_455
O11 Y0 2.567225 1_445
