# generated using pymatgen
data_Rb3(Cr5Te8)4
_symmetry_space_group_name_H-M   'P 1'
_cell_length_a   11.14075658
_cell_length_b   13.72517761
_cell_length_c   11.88500425
_cell_angle_alpha   114.71947618
_cell_angle_beta   102.31966655
_cell_angle_gamma   100.55725784
_symmetry_Int_Tables_number   1
_chemical_formula_structural   Rb3(Cr5Te8)4
_chemical_formula_sum   'Rb3 Cr20 Te32'
_cell_volume   1534.90083249
_cell_formula_units_Z   1
loop_
 _symmetry_equiv_pos_site_id
 _symmetry_equiv_pos_as_xyz
  1  'x, y, z'
loop_
 _atom_site_type_symbol
 _atom_site_label
 _atom_site_symmetry_multiplicity
 _atom_site_fract_x
 _atom_site_fract_y
 _atom_site_fract_z
 _atom_site_occupancy
  Rb  Rb0  1  0.61968900  0.11963500  0.49994100  1
  Rb  Rb1  1  0.87500000  0.37500000  0.50000000  1
  Rb  Rb2  1  0.13031100  0.63036500  0.50005900  1
  Cr  Cr0  1  0.94490600  0.61144000  0.96392900  1
  Cr  Cr1  1  0.69417600  0.36088800  0.96319400  1
  Cr  Cr2  1  0.44451600  0.11105100  0.96173000  1
  Cr  Cr3  1  0.19583200  0.86205400  0.96360100  1
  Cr  Cr4  1  0.05582400  0.38911200  0.03680600  1
  Cr  Cr5  1  0.80509400  0.13856000  0.03607100  1
  Cr  Cr6  1  0.55416800  0.88794600  0.03639900  1
  Cr  Cr7  1  0.30548400  0.63894900  0.03827000  1
  Cr  Cr8  1  0.24326300  0.25109500  0.66196600  1
  Cr  Cr9  1  0.99240600  0.00063400  0.66157100  1
  Cr  Cr10  1  0.74239000  0.75235500  0.66273900  1
  Cr  Cr11  1  0.49358300  0.50238300  0.66250900  1
  Cr  Cr12  1  0.75759400  0.74936600  0.33842900  1
  Cr  Cr13  1  0.50673700  0.49890500  0.33803400  1
  Cr  Cr14  1  0.25641700  0.24761700  0.33749100  1
  Cr  Cr15  1  0.00761000  0.99764500  0.33726100  1
  Cr  Cr16  1  0.75017200  0.75012600  0.00012100  1
  Cr  Cr17  1  0.50028700  0.50034800  0.00045100  1
  Cr  Cr18  1  0.24971300  0.24965200  0.99954900  1
  Cr  Cr19  1  0.99982800  0.99987400  0.99987900  1
  Te  Te0  1  0.00589900  0.85304300  0.76100900  1
  Te  Te1  1  0.75607400  0.60295600  0.76101400  1
  Te  Te2  1  0.50596800  0.35284600  0.76148100  1
  Te  Te3  1  0.25603900  0.10362700  0.76245300  1
  Te  Te4  1  0.99392500  0.14704300  0.23898600  1
  Te  Te5  1  0.74410000  0.89695600  0.23899100  1
  Te  Te6  1  0.49396000  0.64637400  0.23754700  1
  Te  Te7  1  0.24403100  0.39715400  0.23851900  1
  Te  Te8  1  0.76662700  0.60209600  0.43590800  1
  Te  Te9  1  0.51624800  0.35174600  0.43556000  1
  Te  Te10  1  0.26600800  0.10103700  0.43492500  1
  Te  Te11  1  0.01674000  0.85172400  0.43510800  1
  Te  Te12  1  0.23375100  0.39825300  0.56444000  1
  Te  Te13  1  0.98337200  0.14790300  0.56409200  1
  Te  Te14  1  0.73325900  0.89827500  0.56489200  1
  Te  Te15  1  0.48399100  0.64896300  0.56507500  1
  Te  Te16  1  0.23263500  0.40151600  0.90262800  1
  Te  Te17  1  0.98234000  0.15131500  0.90216100  1
  Te  Te18  1  0.73227500  0.90213700  0.90255000  1
  Te  Te19  1  0.48233200  0.65234900  0.90286400  1
  Te  Te20  1  0.76766000  0.59868500  0.09783900  1
  Te  Te21  1  0.51736500  0.34848400  0.09737200  1
  Te  Te22  1  0.26766800  0.09765100  0.09713600  1
  Te  Te23  1  0.01772500  0.84786300  0.09745000  1
  Te  Te24  1  0.12175300  0.63241400  0.84195100  1
  Te  Te25  1  0.87091900  0.38196800  0.84135100  1
  Te  Te26  1  0.62124700  0.13219500  0.84158400  1
  Te  Te27  1  0.37179500  0.88270700  0.84187500  1
  Te  Te28  1  0.87908100  0.36803200  0.15864900  1
  Te  Te29  1  0.62824700  0.11758600  0.15804900  1
  Te  Te30  1  0.37820500  0.86729300  0.15812500  1
  Te  Te31  1  0.12875300  0.61780500  0.15841600  1
loop_
_geom_bond_atom_site_label_1
_geom_bond_atom_site_label_2
_geom_bond_distance
_geom_bond_site_symmetry_2
Rb0 Te10 3.788826 1_555
Rb0 Te14 3.792203 1_545
Rb0 Te13 3.873817 1_555
Rb0 Te9 3.882058 1_555
Rb0 Te30 3.986366 1_545
Rb0 Te26 3.987544 1_555
Rb0 Te5 4.042247 1_545
Rb0 Te2 4.044506 1_555
Rb0 Te25 4.062551 1_555
Rb0 Te29 4.073295 1_555
Rb1 Te12 3.832025 1_655
Rb1 Te9 3.832034 1_555
Rb1 Te8 3.837379 1_555
Rb1 Te13 3.837388 1_555
Rb1 Te24 4.027526 1_655
Rb1 Te29 4.027526 1_555
Rb1 Te28 4.028142 1_555
Rb1 Te25 4.028142 1_555
Rb1 Te4 4.040200 1_555
Rb1 Te1 4.040200 1_555
Rb2 Te15 3.788816 1_555
Rb2 Te11 3.792195 1_555
Rb2 Te8 3.873826 1_455
Rb2 Te12 3.882067 1_555
Rb2 Te27 3.986366 1_555
Rb2 Te31 3.987544 1_555
Rb2 Te0 4.042247 1_555
Rb2 Te7 4.044499 1_555
Rb2 Te28 4.062551 1_455
Rb2 Te24 4.073295 1_555
Cr0 Te31 2.700169 1_656
Cr0 Te25 2.724005 1_555
Cr0 Te24 2.725124 1_655
Cr0 Te1 2.786691 1_555
Cr0 Te23 2.808087 1_656
Cr0 Te20 2.812523 1_556
Cr1 Te28 2.709767 1_556
Cr1 Te26 2.715073 1_555
Cr1 Te25 2.723290 1_555
Cr1 Te2 2.775755 1_555
Cr1 Te21 2.810137 1_556
Cr1 Te20 2.824377 1_556
Cr2 Te26 2.708654 1_555
Cr2 Te27 2.711299 1_545
Cr2 Te29 2.713221 1_556
Cr2 Te3 2.761588 1_555
Cr2 Te21 2.820658 1_556
Cr2 Te22 2.823691 1_556
Cr3 Te30 2.698367 1_556
Cr3 Te27 2.714029 1_555
Cr3 Te24 2.726177 1_555
Cr3 Te0 2.787680 1_555
Cr3 Te22 2.798765 1_566
Cr3 Te23 2.823175 1_556
Cr4 Te25 2.709767 1_454
Cr4 Te31 2.715073 1_555
Cr4 Te28 2.723290 1_455
Cr4 Te7 2.775749 1_555
Cr4 Te16 2.810137 1_554
Cr4 Te17 2.824377 1_454
Cr5 Te26 2.700169 1_554
Cr5 Te28 2.724005 1_555
Cr5 Te29 2.725124 1_555
Cr5 Te4 2.786691 1_555
Cr5 Te18 2.808087 1_544
Cr5 Te17 2.812523 1_554
Cr6 Te27 2.698367 1_554
Cr6 Te30 2.714029 1_555
Cr6 Te29 2.726177 1_565
Cr6 Te5 2.787680 1_555
Cr6 Te19 2.798765 1_554
Cr6 Te18 2.823175 1_554
Cr7 Te31 2.708654 1_555
Cr7 Te30 2.711299 1_555
Cr7 Te24 2.713221 1_554
Cr7 Te6 2.761576 1_555
Cr7 Te16 2.820658 1_554
Cr7 Te19 2.823691 1_554
Cr8 Te12 2.723639 1_555
Cr8 Te10 2.724391 1_555
Cr8 Te13 2.724796 1_455
Cr8 Te2 2.749298 1_555
Cr8 Te3 2.756442 1_555
Cr8 Te16 2.784391 1_555
Cr9 Te14 2.716120 1_545
Cr9 Te11 2.721873 1_645
Cr9 Te13 2.724202 1_555
Cr9 Te0 2.749697 1_645
Cr9 Te3 2.760538 1_655
Cr9 Te17 2.782429 1_555
Cr10 Te14 2.710335 1_555
Cr10 Te15 2.710693 1_555
Cr10 Te8 2.731055 1_555
Cr10 Te0 2.755447 1_655
Cr10 Te1 2.762927 1_555
Cr10 Te18 2.771974 1_555
Cr11 Te15 2.715568 1_555
Cr11 Te12 2.726094 1_555
Cr11 Te9 2.726101 1_555
Cr11 Te1 2.745199 1_555
Cr11 Te2 2.769254 1_555
Cr11 Te19 2.782513 1_555
Cr12 Te11 2.716108 1_655
Cr12 Te14 2.721873 1_555
Cr12 Te8 2.724214 1_555
Cr12 Te5 2.749685 1_555
Cr12 Te6 2.760546 1_555
Cr12 Te20 2.782429 1_555
Cr13 Te9 2.723651 1_555
Cr13 Te15 2.724396 1_555
Cr13 Te8 2.724784 1_555
Cr13 Te7 2.749308 1_555
Cr13 Te6 2.756456 1_555
Cr13 Te21 2.784391 1_555
Cr14 Te10 2.715567 1_555
Cr14 Te9 2.726082 1_555
Cr14 Te12 2.726101 1_555
Cr14 Te4 2.745211 1_455
Cr14 Te7 2.769256 1_555
Cr14 Te22 2.782513 1_555
Cr15 Te11 2.710347 1_555
Cr15 Te10 2.710683 1_565
Cr15 Te13 2.731055 1_465
Cr15 Te5 2.755459 1_455
Cr15 Te4 2.762915 1_465
Cr15 Te23 2.771974 1_555
Cr16 Te5 2.733594 1_555
Cr16 Te1 2.736380 1_554
Cr16 Te20 2.788894 1_555
Cr16 Te23 2.790707 1_655
Cr16 Te19 2.793632 1_554
Cr16 Te18 2.795485 1_554
Cr17 Te6 2.715781 1_555
Cr17 Te2 2.735656 1_554
Cr17 Te21 2.787026 1_555
Cr17 Te20 2.789842 1_555
Cr17 Te16 2.793315 1_554
Cr17 Te19 2.795570 1_554
Cr18 Te3 2.715773 1_555
Cr18 Te7 2.735660 1_556
Cr18 Te16 2.787026 1_555
Cr18 Te17 2.789842 1_455
Cr18 Te21 2.793315 1_556
Cr18 Te22 2.795570 1_556
Cr19 Te0 2.733594 1_655
Cr19 Te4 2.736380 1_566
Cr19 Te17 2.788894 1_565
Cr19 Te18 2.790707 1_555
Cr19 Te22 2.793632 1_666
Cr19 Te23 2.795485 1_656
