# generated using pymatgen
data_Te(AsO2)2
_symmetry_space_group_name_H-M   'P 1'
_cell_length_a   4.25463300
_cell_length_b   5.40835286
_cell_length_c   39.85095648
_cell_angle_alpha   89.62151531
_cell_angle_beta   88.46908677
_cell_angle_gamma   87.58768228
_symmetry_Int_Tables_number   1
_chemical_formula_structural   Te(AsO2)2
_chemical_formula_sum   'Te6 As12 O24'
_cell_volume   915.83923543
_cell_formula_units_Z   6
loop_
 _symmetry_equiv_pos_site_id
 _symmetry_equiv_pos_as_xyz
  1  'x, y, z'
loop_
 _atom_site_type_symbol
 _atom_site_label
 _atom_site_symmetry_multiplicity
 _atom_site_fract_x
 _atom_site_fract_y
 _atom_site_fract_z
 _atom_site_occupancy
  Te  Te0  1  0.14243400  0.26108800  0.97477700  1
  Te  Te1  1  0.45633100  0.39071900  0.86072600  1
  Te  Te2  1  0.98369500  0.41230200  0.77715700  1
  Te  Te3  1  0.50313200  0.36374100  0.69239900  1
  Te  Te4  1  0.04407600  0.31114400  0.60818000  1
  Te  Te5  1  0.46654700  0.21876700  0.51993900  1
  As  As0  1  0.55067700  0.86388300  0.96931400  1
  As  As1  1  0.97384400  0.09387400  0.88261700  1
  As  As2  1  0.49294800  0.13016300  0.80109800  1
  As  As3  1  0.00440000  0.07498700  0.71965600  1
  As  As4  1  0.54576200  0.04819000  0.64004700  1
  As  As5  1  0.08771700  0.95427000  0.56032200  1
  As  As6  1  0.43173800  0.85778000  0.47521400  1
  As  As7  1  0.00079000  0.84470800  0.39005600  1
  As  As8  1  0.54445700  0.90582000  0.30282900  1
  As  As9  1  0.01947700  0.69335300  0.20337400  1
  As  As10  1  0.50706300  0.85676700  0.10709200  1
  As  As11  1  0.10036900  0.81318900  0.03908000  1
  O  O0  1  0.29903300  0.70487700  0.93856100  1
  O  O1  1  0.43949700  0.45044500  0.93762900  1
  O  O2  1  0.01162000  0.89019800  0.84484200  1
  O  O3  1  0.97174800  0.63801700  0.85590000  1
  O  O4  1  0.49755200  0.88920700  0.74449400  1
  O  O5  1  0.99403800  0.86449600  0.67262800  1
  O  O6  1  0.99597000  0.61029200  0.67541400  1
  O  O7  1  0.49564800  0.63882200  0.74854700  1
  O  O8  1  0.42030200  0.78942600  0.58408700  1
  O  O9  1  0.44168400  0.53036900  0.57534200  1
  O  O10  1  0.02595500  0.94007500  0.45807000  1
  O  O11  1  0.03146500  0.73942000  0.48519600  1
  O  O12  1  0.38268800  0.99298400  0.39525900  1
  O  O13  1  0.41290100  0.73424900  0.38010400  1
  O  O14  1  0.95386700  0.00278700  0.34805400  1
  O  O15  1  0.90469900  0.79467700  0.32428600  1
  O  O16  1  0.69049200  0.85942600  0.25886800  1
  O  O17  1  0.52947900  0.63826000  0.27541700  1
  O  O18  1  0.95178500  0.01685700  0.19228200  1
  O  O19  1  0.06981100  0.84901700  0.16265700  1
  O  O20  1  0.35198600  0.97681200  0.06754800  1
  O  O21  1  0.40620600  0.56488100  0.11017200  1
  O  O22  1  0.95357300  0.07813600  0.01674800  1
  O  O23  1  0.41253300  0.71553000  0.00735000  1
loop_
_geom_bond_atom_site_label_1
_geom_bond_atom_site_label_2
_geom_bond_distance
_geom_bond_site_symmetry_2
As0 O23 1.806322 1_556
As0 O0 1.883961 1_555
As1 O2 1.870685 1_645
As1 Te1 2.777721 1_655
As1 Te1 2.823667 1_555
As2 O4 2.611755 1_545
As2 Te1 2.768125 1_555
As2 Te2 2.782212 1_555
As2 Te2 2.783177 1_455
As3 O5 2.201599 1_445
As3 O4 2.512372 1_545
As3 O4 2.587428 1_445
As3 Te3 2.826336 1_455
As3 Te3 2.873093 1_555
As3 Te2 2.935583 1_455
As4 O5 2.503233 1_545
As4 Te3 2.701617 1_555
As5 O8 1.910054 1_555
As5 Te5 2.694269 1_565
As6 O11 1.876293 1_555
As6 O10 1.907837 1_555
As6 Te5 2.663591 1_565
As7 O12 1.859048 1_555
As7 O13 1.861805 1_555
As7 O14 1.886013 1_465
As8 O17 1.823111 1_555
As8 O15 1.851305 1_555
As8 O16 1.858127 1_555
As9 O18 1.814851 1_465
As9 O19 1.834683 1_555
As10 O21 1.656170 1_555
As10 O20 1.829258 1_555
As11 O22 1.781260 1_465
As11 O20 1.836872 1_555
As11 O23 1.871325 1_555
O0 O1 1.477271 1_555
O1 Te0 2.196980 1_555
O2 O3 1.445922 1_455
O3 Te1 2.421195 1_655
O3 Te1 2.618329 1_555
O4 O7 1.363046 1_555
O5 O6 1.378266 1_555
O6 Te3 2.591554 1_655
O6 Te3 2.603952 1_555
O7 Te2 2.646955 1_555
O7 Te3 2.693917 1_555
O7 Te2 2.760199 1_455
O8 O9 1.444560 1_555
O9 Te4 2.451547 1_555
O9 Te5 2.783451 1_555
O10 O11 1.526599 1_555
O12 O13 1.526849 1_555
O14 O15 1.500740 1_545
O16 O17 1.539287 1_555
O18 O19 1.553718 1_645
O22 Te0 2.096547 1_654
