# generated using pymatgen
data_MgBiSbO5
_symmetry_space_group_name_H-M   'P 1'
_cell_length_a   5.23060600
_cell_length_b   10.35825900
_cell_length_c   16.09411600
_cell_angle_alpha   90.00000000
_cell_angle_beta   90.00000000
_cell_angle_gamma   90.00000000
_symmetry_Int_Tables_number   1
_chemical_formula_structural   MgBiSbO5
_chemical_formula_sum   'Mg8 Bi8 Sb8 O40'
_cell_volume   871.97874901
_cell_formula_units_Z   8
loop_
 _symmetry_equiv_pos_site_id
 _symmetry_equiv_pos_as_xyz
  1  'x, y, z'
loop_
 _atom_site_type_symbol
 _atom_site_label
 _atom_site_symmetry_multiplicity
 _atom_site_fract_x
 _atom_site_fract_y
 _atom_site_fract_z
 _atom_site_occupancy
  Mg  Mg0  1  0.53366400  0.38253000  0.56084300  1
  Mg  Mg1  1  0.03366400  0.11747000  0.56084300  1
  Mg  Mg2  1  0.03366400  0.61747000  0.93915700  1
  Mg  Mg3  1  0.96633600  0.38253000  0.06084300  1
  Mg  Mg4  1  0.46633600  0.11747000  0.06084300  1
  Mg  Mg5  1  0.96633600  0.88253000  0.43915700  1
  Mg  Mg6  1  0.46633600  0.61747000  0.43915700  1
  Mg  Mg7  1  0.53366400  0.88253000  0.93915700  1
  Bi  Bi0  1  0.01341800  0.85990600  0.77577900  1
  Bi  Bi1  1  0.98658200  0.14009400  0.22422100  1
  Bi  Bi2  1  0.48658200  0.35990600  0.22422100  1
  Bi  Bi3  1  0.98658200  0.64009400  0.27577900  1
  Bi  Bi4  1  0.51341800  0.14009400  0.72422100  1
  Bi  Bi5  1  0.51341800  0.64009400  0.77577900  1
  Bi  Bi6  1  0.48658200  0.85990600  0.27577900  1
  Bi  Bi7  1  0.01341800  0.35990600  0.72422100  1
  Sb  Sb0  1  0.00880900  0.37277900  0.41595000  1
  Sb  Sb1  1  0.49119100  0.87277900  0.58405000  1
  Sb  Sb2  1  0.99119100  0.62722100  0.58405000  1
  Sb  Sb3  1  0.50880900  0.12722100  0.41595000  1
  Sb  Sb4  1  0.99119100  0.12722100  0.91595000  1
  Sb  Sb5  1  0.00880900  0.87277900  0.08405000  1
  Sb  Sb6  1  0.49119100  0.37277900  0.91595000  1
  Sb  Sb7  1  0.50880900  0.62722100  0.08405000  1
  O  O0  1  0.87208900  0.32231900  0.30768600  1
  O  O1  1  0.24814900  0.01929700  0.96595600  1
  O  O2  1  0.25185100  0.51929700  0.03404400  1
  O  O3  1  0.32595200  0.78263200  0.85274300  1
  O  O4  1  0.17404800  0.28263200  0.14725700  1
  O  O5  1  0.87208900  0.82231900  0.19231400  1
  O  O6  1  0.17404800  0.78263200  0.35274300  1
  O  O7  1  0.62791100  0.82231900  0.69231400  1
  O  O8  1  0.24814900  0.51929700  0.53404400  1
  O  O9  1  0.12791100  0.67768100  0.69231400  1
  O  O10  1  0.62791100  0.32231900  0.80768600  1
  O  O11  1  0.79993800  0.22052700  0.46994800  1
  O  O12  1  0.74814900  0.98070300  0.53404400  1
  O  O13  1  0.67404800  0.71736800  0.35274300  1
  O  O14  1  0.22837600  0.00404900  0.13589000  1
  O  O15  1  0.74814900  0.48070300  0.96595600  1
  O  O16  1  0.12791100  0.17768100  0.80768600  1
  O  O17  1  0.82595200  0.21736800  0.64725700  1
  O  O18  1  0.29993800  0.77947300  0.03005200  1
  O  O19  1  0.25185100  0.01929700  0.46595600  1
  O  O20  1  0.20006200  0.77947300  0.53005200  1
  O  O21  1  0.77162400  0.99595100  0.86411000  1
  O  O22  1  0.67404800  0.21736800  0.14725700  1
  O  O23  1  0.72837600  0.99595100  0.36411000  1
  O  O24  1  0.20006200  0.27947300  0.96994800  1
  O  O25  1  0.29993800  0.27947300  0.46994800  1
  O  O26  1  0.75185100  0.48070300  0.46595600  1
  O  O27  1  0.75185100  0.98070300  0.03404400  1
  O  O28  1  0.72837600  0.49595100  0.13589000  1
  O  O29  1  0.70006200  0.72052700  0.53005200  1
  O  O30  1  0.70006200  0.22052700  0.96994800  1
  O  O31  1  0.79993800  0.72052700  0.03005200  1
  O  O32  1  0.77162400  0.49595100  0.63589000  1
  O  O33  1  0.82595200  0.71736800  0.85274300  1
  O  O34  1  0.32595200  0.28263200  0.64725700  1
  O  O35  1  0.22837600  0.50404900  0.36411000  1
  O  O36  1  0.27162400  0.50404900  0.86411000  1
  O  O37  1  0.37208900  0.17768100  0.30768600  1
  O  O38  1  0.27162400  0.00404900  0.63589000  1
  O  O39  1  0.37208900  0.67768100  0.19231400  1
loop_
_geom_bond_atom_site_label_1
_geom_bond_atom_site_label_2
_geom_bond_distance
_geom_bond_site_symmetry_2
Mg0 O34 2.045812 1_555
Mg0 O32 2.094825 1_555
Mg0 O8 2.103156 1_555
Mg0 O26 2.160704 1_555
Mg0 O25 2.184975 1_555
Mg0 O11 2.625974 1_555
Mg0 O17 2.682978 1_555
Mg1 O17 2.045812 1_455
Mg1 O38 2.094825 1_555
Mg1 O12 2.103156 1_445
Mg1 O19 2.160704 1_555
Mg1 O11 2.184975 1_455
Mg1 O25 2.625974 1_555
Mg1 O34 2.682978 1_555
Mg2 O33 2.045812 1_455
Mg2 O36 2.094825 1_555
Mg2 O15 2.103156 1_455
Mg2 O2 2.160704 1_556
Mg2 O31 2.184975 1_456
Mg2 O18 2.625974 1_556
Mg2 O3 2.682978 1_555
Mg3 O4 2.045812 1_655
Mg3 O28 2.094825 1_555
Mg3 O2 2.103156 1_655
Mg3 O15 2.160704 1_554
Mg3 O24 2.184975 1_654
Mg3 O30 2.625974 1_554
Mg3 O22 2.682978 1_555
Mg4 O22 2.045812 1_555
Mg4 O14 2.094825 1_555
Mg4 O27 2.103156 1_545
Mg4 O1 2.160704 1_554
Mg4 O30 2.184975 1_554
Mg4 O24 2.625974 1_554
Mg4 O4 2.682978 1_555
Mg5 O6 2.045812 1_655
Mg5 O23 2.094825 1_555
Mg5 O19 2.103156 1_665
Mg5 O12 2.160704 1_555
Mg5 O20 2.184975 1_655
Mg5 O29 2.625974 1_555
Mg5 O13 2.682978 1_555
Mg6 O13 2.045812 1_555
Mg6 O35 2.094825 1_555
Mg6 O26 2.103156 1_555
Mg6 O8 2.160704 1_555
Mg6 O29 2.184975 1_555
Mg6 O20 2.625974 1_555
Mg6 O6 2.682978 1_555
Mg7 O3 2.045812 1_555
Mg7 O21 2.094825 1_555
Mg7 O1 2.103156 1_565
Mg7 O27 2.160704 1_556
Mg7 O18 2.184975 1_556
Mg7 O31 2.625974 1_556
Mg7 O33 2.682978 1_555
Bi0 O33 2.162334 1_455
Bi0 O3 2.201672 1_555
Bi0 O21 2.367768 1_455
Bi0 O9 2.392879 1_555
Bi0 O7 2.453984 1_455
Bi1 O4 2.162334 1_655
Bi1 O22 2.201672 1_555
Bi1 O14 2.367768 1_655
Bi1 O0 2.392879 1_555
Bi1 O37 2.453984 1_655
Bi2 O22 2.162334 1_555
Bi2 O4 2.201672 1_555
Bi2 O28 2.367768 1_555
Bi2 O37 2.392879 1_555
Bi2 O0 2.453984 1_555
Bi3 O6 2.162334 1_655
Bi3 O13 2.201672 1_555
Bi3 O35 2.367768 1_655
Bi3 O5 2.392879 1_555
Bi3 O39 2.453984 1_655
Bi4 O34 2.162334 1_555
Bi4 O17 2.201672 1_555
Bi4 O38 2.367768 1_555
Bi4 O10 2.392879 1_555
Bi4 O16 2.453984 1_555
Bi5 O3 2.162334 1_555
Bi5 O33 2.201672 1_555
Bi5 O36 2.367768 1_555
Bi5 O7 2.392879 1_555
Bi5 O9 2.453984 1_555
Bi6 O13 2.162334 1_555
Bi6 O6 2.201672 1_555
Bi6 O23 2.367768 1_555
Bi6 O39 2.392879 1_555
Bi6 O5 2.453984 1_555
Bi7 O17 2.162334 1_455
Bi7 O34 2.201672 1_555
Bi7 O32 2.367768 1_455
Bi7 O16 2.392879 1_555
Bi7 O10 2.453984 1_455
O0 Sb0 1.954637 1_655
O1 Sb4 1.924546 1_455
O2 Sb7 1.924546 1_555
O5 Sb5 1.954637 1_655
O7 Sb1 1.954637 1_555
O8 Sb2 1.924546 1_455
O9 Sb2 1.954637 1_455
O10 Sb6 1.954637 1_555
O11 Sb3 2.002051 1_555
O11 Sb0 2.106179 1_655
O12 Sb1 1.924546 1_555
O14 Sb5 1.965688 1_545
O15 Sb6 1.924546 1_555
O16 Sb4 1.954637 1_455
O18 Sb5 2.002051 1_555
O18 Sb7 2.106179 1_555
O19 Sb3 1.924546 1_555
O20 Sb1 2.002051 1_555
O20 Sb2 2.106179 1_455
O21 Sb4 1.965688 1_565
O23 Sb3 1.965688 1_565
O24 Sb6 2.002051 1_555
O24 Sb4 2.106179 1_455
O25 Sb0 2.002051 1_555
O25 Sb3 2.106179 1_555
O26 Sb0 1.924546 1_655
O27 Sb5 1.924546 1_655
O28 Sb7 1.965688 1_555
O29 Sb2 2.002051 1_555
O29 Sb1 2.106179 1_555
O30 Sb4 2.002051 1_555
O30 Sb6 2.106179 1_555
O31 Sb7 2.002051 1_555
O31 Sb5 2.106179 1_655
O32 Sb2 1.965688 1_555
O35 Sb0 1.965688 1_555
O36 Sb6 1.965688 1_555
O37 Sb3 1.954637 1_555
O38 Sb1 1.965688 1_545
O39 Sb7 1.954637 1_555
