# generated using pymatgen
data_SrMnOF5
_symmetry_space_group_name_H-M   'P 1'
_cell_length_a   7.79893900
_cell_length_b   5.36919300
_cell_length_c   6.08035224
_cell_angle_alpha   69.60106396
_cell_angle_beta   90.00000000
_cell_angle_gamma   90.00000000
_symmetry_Int_Tables_number   1
_chemical_formula_structural   SrMnOF5
_chemical_formula_sum   'Sr2 Mn2 O2 F10'
_cell_volume   238.64181796
_cell_formula_units_Z   2
loop_
 _symmetry_equiv_pos_site_id
 _symmetry_equiv_pos_as_xyz
  1  'x, y, z'
loop_
 _atom_site_type_symbol
 _atom_site_label
 _atom_site_symmetry_multiplicity
 _atom_site_fract_x
 _atom_site_fract_y
 _atom_site_fract_z
 _atom_site_occupancy
  Sr  Sr0  1  0.25000000  0.91447500  0.38417800  1
  Sr  Sr1  1  0.75000000  0.08552500  0.61582200  1
  Mn  Mn0  1  0.00000000  0.50000000  0.00000000  1
  Mn  Mn1  1  0.50000000  0.50000000  0.00000000  1
  O  O0  1  0.25000000  0.34404000  0.55760700  1
  O  O1  1  0.75000000  0.65596000  0.44239300  1
  F  F0  1  0.25000000  0.35942000  0.03673600  1
  F  F1  1  0.75000000  0.64058000  0.96326400  1
  F  F2  1  0.05479300  0.71363400  0.17401400  1
  F  F3  1  0.55479300  0.28636600  0.82598600  1
  F  F4  1  0.94520700  0.28636600  0.82598600  1
  F  F5  1  0.44520700  0.71363400  0.17401400  1
  F  F6  1  0.03769200  0.78922700  0.71423700  1
  F  F7  1  0.53769200  0.21077300  0.28576300  1
  F  F8  1  0.96230800  0.21077300  0.28576300  1
  F  F9  1  0.46230800  0.78922700  0.71423700  1
loop_
_geom_bond_atom_site_label_1
_geom_bond_atom_site_label_2
_geom_bond_distance
_geom_bond_site_symmetry_2
O0 Sr0 2.850792 1_545
O0 Sr0 2.870734 1_555
O1 Sr1 2.850792 1_565
O1 Sr1 2.870734 1_555
F0 Mn1 2.074500 1_555
F0 Mn0 2.074500 1_555
F0 Sr0 2.579146 1_545
F1 Mn0 2.074500 1_656
F1 Mn1 2.074500 1_556
F1 Sr1 2.579146 1_565
F2 Mn0 1.861146 1_555
F2 Sr0 2.464577 1_555
F3 Mn1 1.861146 1_556
F3 Sr1 2.464577 1_555
F4 Mn0 1.861146 1_656
F4 Sr1 2.464577 1_555
F5 Mn1 1.861146 1_555
F5 Sr0 2.464577 1_555
F6 Mn0 1.906836 1_556
F6 Sr0 2.506106 1_555
F6 Sr1 2.694347 1_465
F7 Mn1 1.906836 1_555
F7 Sr1 2.506106 1_555
F7 Sr0 2.694347 1_545
F8 Mn0 1.906836 1_655
F8 Sr1 2.506106 1_555
F8 Sr0 2.694347 1_645
F9 Mn1 1.906836 1_556
F9 Sr0 2.506106 1_555
F9 Sr1 2.694347 1_565
