# generated using pymatgen
data_K3Mn4P5H3O20
_symmetry_space_group_name_H-M   'P 1'
_cell_length_a   8.28025596
_cell_length_b   8.28025596
_cell_length_c   13.85213235
_cell_angle_alpha   79.54414899
_cell_angle_beta   79.54414899
_cell_angle_gamma   79.68223336
_symmetry_Int_Tables_number   1
_chemical_formula_structural   K3Mn4P5H3O20
_chemical_formula_sum   'K6 Mn8 P10 H6 O40'
_cell_volume   907.90736539
_cell_formula_units_Z   2
loop_
 _symmetry_equiv_pos_site_id
 _symmetry_equiv_pos_as_xyz
  1  'x, y, z'
loop_
 _atom_site_type_symbol
 _atom_site_label
 _atom_site_symmetry_multiplicity
 _atom_site_fract_x
 _atom_site_fract_y
 _atom_site_fract_z
 _atom_site_occupancy
  K  K0  1  0.00033700  0.99944500  0.74820900  1
  K  K1  1  0.99944500  0.00033700  0.24820900  1
  K  K2  1  0.69126200  0.83863700  0.58440600  1
  K  K3  1  0.16715300  0.31230600  0.91474700  1
  K  K4  1  0.31230600  0.16715300  0.41474700  1
  K  K5  1  0.83863700  0.69126200  0.08440600  1
  Mn  Mn0  1  0.04147800  0.47766600  0.66675600  1
  Mn  Mn1  1  0.52152300  0.95668100  0.83301100  1
  Mn  Mn2  1  0.95668100  0.52152300  0.33301100  1
  Mn  Mn3  1  0.47766600  0.04147800  0.16675600  1
  Mn  Mn4  1  0.50208700  0.49864400  0.50027600  1
  Mn  Mn5  1  0.49864400  0.50208700  0.00027600  1
  Mn  Mn6  1  0.35564700  0.64549900  0.24887500  1
  Mn  Mn7  1  0.64549900  0.35564700  0.74887500  1
  P  P0  1  0.37686600  0.62306700  0.74980900  1
  P  P1  1  0.62306700  0.37686600  0.24980900  1
  P  P2  1  0.14563300  0.73032100  0.46362000  1
  P  P3  1  0.26625400  0.85816900  0.03678900  1
  P  P4  1  0.85816900  0.26625400  0.53678900  1
  P  P5  1  0.73032100  0.14563300  0.96362000  1
  P  P6  1  0.34059600  0.20752100  0.65787800  1
  P  P7  1  0.79233400  0.65963500  0.84238400  1
  P  P8  1  0.65963500  0.79233400  0.34238400  1
  P  P9  1  0.20752100  0.34059600  0.15787800  1
  H  H0  1  0.34982800  0.93686200  0.66815700  1
  H  H1  1  0.06310800  0.65060600  0.83174200  1
  H  H2  1  0.65060600  0.06310800  0.33174200  1
  H  H3  1  0.93686200  0.34982800  0.16815700  1
  H  H4  1  0.01406200  0.98967400  0.49470700  1
  H  H5  1  0.98967400  0.01406200  0.99470700  1
  O  O0  1  0.34377500  0.34498300  0.56551200  1
  O  O1  1  0.65501400  0.65707200  0.93490200  1
  O  O2  1  0.65707200  0.65501400  0.43490200  1
  O  O3  1  0.34498300  0.34377500  0.06551200  1
  O  O4  1  0.13855900  0.67095800  0.36393800  1
  O  O5  1  0.33298400  0.86180900  0.13540700  1
  O  O6  1  0.86180900  0.33298400  0.63540700  1
  O  O7  1  0.67095800  0.13855900  0.86393800  1
  O  O8  1  0.49299800  0.17223900  0.71225900  1
  O  O9  1  0.82752800  0.50711000  0.78829700  1
  O  O10  1  0.50711000  0.82752800  0.28829700  1
  O  O11  1  0.17223900  0.49299800  0.21225900  1
  O  O12  1  0.33086400  0.04287200  0.61507700  1
  O  O13  1  0.95717600  0.66959200  0.88491500  1
  O  O14  1  0.66959200  0.95717600  0.38491500  1
  O  O15  1  0.04287200  0.33086400  0.11507700  1
  O  O16  1  0.10934800  0.92594900  0.44232200  1
  O  O17  1  0.07468200  0.89950100  0.05702500  1
  O  O18  1  0.89950100  0.07468200  0.55702500  1
  O  O19  1  0.92594900  0.10934800  0.94232200  1
  O  O20  1  0.19224700  0.61219200  0.74431900  1
  O  O21  1  0.38754600  0.80763700  0.75552600  1
  O  O22  1  0.80763700  0.38754600  0.25552600  1
  O  O23  1  0.61219200  0.19224700  0.24431900  1
  O  O24  1  0.32382100  0.68341600  0.48916200  1
  O  O25  1  0.31348400  0.67797400  0.01159000  1
  O  O26  1  0.67797400  0.31348400  0.51159000  1
  O  O27  1  0.68341600  0.32382100  0.98916200  1
  O  O28  1  0.17872600  0.25124900  0.72840300  1
  O  O29  1  0.74839800  0.82137000  0.77182200  1
  O  O30  1  0.82137000  0.74839800  0.27182200  1
  O  O31  1  0.25124900  0.17872600  0.22840300  1
  O  O32  1  0.49990300  0.56426300  0.65847100  1
  O  O33  1  0.43625300  0.50004100  0.84109300  1
  O  O34  1  0.50004100  0.43625300  0.34109300  1
  O  O35  1  0.56426300  0.49990300  0.15847100  1
  O  O36  1  0.01450900  0.66737400  0.54837900  1
  O  O37  1  0.33825300  0.98602600  0.95191400  1
  O  O38  1  0.98602600  0.33825300  0.45191400  1
  O  O39  1  0.66737400  0.01450900  0.04837900  1
loop_
_geom_bond_atom_site_label_1
_geom_bond_atom_site_label_2
_geom_bond_distance
_geom_bond_site_symmetry_2
K0 O29 2.704109 1_455
K0 O28 2.711615 1_565
K0 O18 2.848892 1_465
K0 O19 2.919558 1_465
K0 O7 3.048463 1_465
K0 O12 3.049674 1_565
K0 O6 3.055190 1_465
K0 O13 3.065991 1_455
K0 O20 3.319096 1_555
K0 O21 3.323825 1_555
K1 O30 2.704109 1_545
K1 O31 2.711615 1_655
K1 O17 2.848892 1_645
K1 O16 2.919558 1_645
K1 O4 3.048463 1_645
K1 O15 3.049674 1_655
K1 O5 3.055190 1_645
K1 O14 3.065991 1_545
K1 O23 3.319096 1_555
K1 O22 3.323825 1_555
K2 O29 2.696460 1_555
K2 O18 2.763672 1_565
K2 O14 2.786444 1_555
K2 O36 2.799370 1_655
K2 O2 2.861919 1_555
K2 O32 2.928853 1_555
K3 O28 2.700781 1_555
K3 O19 2.766135 1_455
K3 O15 2.800869 1_556
K3 O37 2.821368 1_545
K3 O3 2.837018 1_556
K3 O33 2.874427 1_555
K4 O31 2.700781 1_555
K4 O16 2.766135 1_545
K4 O12 2.800869 1_555
K4 O38 2.821368 1_455
K4 O0 2.837018 1_555
K4 O34 2.874427 1_555
K5 O30 2.696460 1_555
K5 O17 2.763672 1_655
K5 O13 2.786444 1_554
K5 O39 2.799370 1_565
K5 O1 2.861919 1_554
K5 O35 2.928853 1_555
Mn0 O36 2.068473 1_555
Mn0 O28 2.131552 1_555
Mn0 O6 2.213322 1_455
Mn0 O9 2.223532 1_455
Mn0 O20 2.317980 1_555
Mn1 O37 2.044677 1_555
Mn1 O29 2.124996 1_555
Mn1 O8 2.224449 1_565
Mn1 O7 2.253154 1_565
Mn1 O21 2.304165 1_555
Mn2 O38 2.044677 1_555
Mn2 O30 2.124996 1_555
Mn2 O11 2.224449 1_655
Mn2 O4 2.253154 1_655
Mn2 O22 2.304165 1_555
Mn3 O39 2.068473 1_555
Mn3 O31 2.131552 1_555
Mn3 O5 2.213322 1_545
Mn3 O10 2.223532 1_545
Mn3 O23 2.317980 1_555
Mn4 O26 1.921464 1_555
Mn4 O24 1.931664 1_555
Mn4 O2 1.972628 1_555
Mn4 O0 1.975864 1_555
Mn4 O32 2.347714 1_555
Mn4 O34 2.357851 1_555
Mn5 O25 1.921464 1_555
Mn5 O27 1.931664 1_554
Mn5 O1 1.972628 1_554
Mn5 O3 1.975864 1_555
Mn5 O35 2.347714 1_555
Mn5 O33 2.357851 1_554
Mn6 O5 2.163006 1_555
Mn6 O4 2.182280 1_555
Mn6 O35 2.241062 1_555
Mn6 O34 2.252156 1_555
Mn6 O11 2.314546 1_555
Mn6 O10 2.316754 1_555
Mn7 O6 2.163006 1_555
Mn7 O7 2.182280 1_555
Mn7 O32 2.241062 1_555
Mn7 O33 2.252156 1_555
Mn7 O8 2.314546 1_555
Mn7 O9 2.316754 1_555
H0 O12 1.045978 1_565
H0 O21 1.501543 1_555
H0 K0 2.894710 1_555
H1 O13 1.046305 1_455
H1 O20 1.503018 1_555
H1 K3 2.870029 1_555
H1 K0 2.901679 1_555
H2 O14 1.046305 1_545
H2 O23 1.503018 1_555
H2 K4 2.870029 1_555
H2 K1 2.901679 1_555
H3 O15 1.045978 1_655
H3 O22 1.501543 1_555
H3 K1 2.894710 1_555
H4 O16 1.099787 1_555
H4 O18 1.350784 1_465
H5 O19 1.099787 1_555
H5 O17 1.350784 1_646
O0 P6 1.550227 1_555
O1 P7 1.551006 1_555
O2 P8 1.551006 1_555
O3 P9 1.550227 1_555
O4 P2 1.561311 1_555
O5 P3 1.570742 1_555
O6 P4 1.570742 1_555
O7 P5 1.561311 1_555
O8 P6 1.542190 1_555
O9 P7 1.540662 1_555
O10 P8 1.540662 1_555
O11 P9 1.542190 1_555
O12 P6 1.602112 1_555
O13 P7 1.602106 1_555
O14 P8 1.602106 1_555
O15 P9 1.602112 1_555
O16 P2 1.576580 1_555
O17 P3 1.546255 1_555
O18 P4 1.546255 1_555
O19 P5 1.576580 1_555
O20 P0 1.563580 1_555
O21 P0 1.563533 1_555
O22 P1 1.563533 1_555
O23 P1 1.563580 1_555
O24 P2 1.545083 1_555
O25 P3 1.559325 1_555
O26 P4 1.559325 1_555
O27 P5 1.545083 1_555
O28 P6 1.536633 1_555
O29 P7 1.536438 1_555
O30 P8 1.536438 1_555
O31 P9 1.536633 1_555
O32 P0 1.566477 1_555
O33 P0 1.567531 1_555
O34 P1 1.567531 1_555
O35 P1 1.566477 1_555
O36 P2 1.531964 1_555
O37 P3 1.542215 1_556
O38 P4 1.542215 1_555
O39 P5 1.531964 1_554
