# generated using pymatgen
data_Nd3RuO7
_symmetry_space_group_name_H-M   'P 1'
_cell_length_a   6.60662235
_cell_length_b   6.60662235
_cell_length_c   7.52891995
_cell_angle_alpha   90.00000000
_cell_angle_beta   90.00000000
_cell_angle_gamma   112.20727569
_symmetry_Int_Tables_number   1
_chemical_formula_structural   Nd3RuO7
_chemical_formula_sum   'Nd6 Ru2 O14'
_cell_volume   304.24217760
_cell_formula_units_Z   2
loop_
 _symmetry_equiv_pos_site_id
 _symmetry_equiv_pos_as_xyz
  1  'x, y, z'
loop_
 _atom_site_type_symbol
 _atom_site_label
 _atom_site_symmetry_multiplicity
 _atom_site_fract_x
 _atom_site_fract_y
 _atom_site_fract_z
 _atom_site_occupancy
  Nd  Nd0  1  0.46731988  0.90804479  0.75000000  1
  Nd  Nd1  1  0.53268012  0.09195521  0.25000000  1
  Nd  Nd2  1  0.90804479  0.46731988  0.75000000  1
  Nd  Nd3  1  0.09195521  0.53268012  0.25000000  1
  Nd  Nd4  1  -0.00000000  0.00000000  0.50000000  1
  Nd  Nd5  1  -0.00000000  0.00000000  0.00000000  1
  Ru  Ru0  1  0.50000000  0.50000000  0.50000000  1
  Ru  Ru1  1  0.50000000  0.50000000  0.00000000  1
  O  O0  1  0.58297351  0.58297351  0.75000000  1
  O  O1  1  0.41702649  0.41702649  0.25000000  1
  O  O2  1  0.83897979  0.10122959  0.75000000  1
  O  O3  1  0.16102021  0.89877041  0.25000000  1
  O  O4  1  0.10122959  0.83897979  0.75000000  1
  O  O5  1  0.89877041  0.16102021  0.25000000  1
  O  O6  1  0.44099766  0.19072045  0.95844714  1
  O  O7  1  0.55900234  0.80927955  0.45844714  1
  O  O8  1  0.19072045  0.44099766  0.95844714  1
  O  O9  1  0.80927955  0.55900234  0.45844714  1
  O  O10  1  0.44099766  0.19072045  0.54155286  1
  O  O11  1  0.55900234  0.80927955  0.04155286  1
  O  O12  1  0.80927955  0.55900234  0.04155286  1
  O  O13  1  0.19072045  0.44099766  0.54155286  1
loop_
_geom_bond_atom_site_label_1
_geom_bond_atom_site_label_2
_geom_bond_distance
_geom_bond_site_symmetry_2
Nd0 O4 2.285542 1_555
Nd0 O2 2.299801 1_565
Nd0 O11 2.431003 1_556
Nd0 O7 2.431003 1_555
Nd0 O6 2.495269 1_565
Nd0 O10 2.495269 1_565
Nd0 O0 2.537032 1_555
Nd1 O5 2.285542 1_555
Nd1 O3 2.299801 1_545
Nd1 O10 2.431003 1_555
Nd1 O6 2.431003 1_554
Nd1 O7 2.495269 1_545
Nd1 O11 2.495269 1_545
Nd1 O1 2.537032 1_555
Nd2 O2 2.285542 1_555
Nd2 O4 2.299801 1_655
Nd2 O12 2.431003 1_556
Nd2 O9 2.431003 1_555
Nd2 O13 2.495269 1_655
Nd2 O8 2.495269 1_655
Nd2 O0 2.537032 1_555
Nd3 O3 2.285542 1_555
Nd3 O5 2.299801 1_455
Nd3 O8 2.431003 1_554
Nd3 O13 2.431003 1_555
Nd3 O12 2.495269 1_455
Nd3 O9 2.495269 1_455
Nd3 O1 2.537032 1_555
Nd4 O5 2.378977 1_455
Nd4 O3 2.378977 1_545
Nd4 O4 2.378977 1_545
Nd4 O2 2.378977 1_455
Nd4 O7 2.720112 1_445
Nd4 O9 2.720112 1_445
Nd4 O13 2.720112 1_555
Nd4 O10 2.720112 1_555
Nd5 O5 2.378977 1_455
Nd5 O3 2.378977 1_545
Nd5 O2 2.378977 1_454
Nd5 O4 2.378977 1_544
Nd5 O11 2.720112 1_445
Nd5 O12 2.720112 1_445
Nd5 O8 2.720112 1_554
Nd5 O6 2.720112 1_554
O0 Ru0 1.979048 1_555
O0 Ru1 1.979048 1_556
O1 Ru0 1.979048 1_555
O1 Ru1 1.979048 1_555
O6 Ru1 1.955196 1_556
O7 Ru0 1.955196 1_555
O8 Ru1 1.955196 1_556
O9 Ru0 1.955196 1_555
O10 Ru0 1.955196 1_555
O11 Ru1 1.955196 1_555
O12 Ru1 1.955196 1_555
O13 Ru0 1.955196 1_555
