# generated using pymatgen
data_Li9Mn2Co5O16
_symmetry_space_group_name_H-M   'P 1'
_cell_length_a   7.71488816
_cell_length_b   7.71488816
_cell_length_c   5.16906936
_cell_angle_alpha   76.28762175
_cell_angle_beta   76.28762175
_cell_angle_gamma   96.92931059
_symmetry_Int_Tables_number   1
_chemical_formula_structural   Li9Mn2Co5O16
_chemical_formula_sum   'Li9 Mn2 Co5 O16'
_cell_volume   285.23005583
_cell_formula_units_Z   1
loop_
 _symmetry_equiv_pos_site_id
 _symmetry_equiv_pos_as_xyz
  1  'x, y, z'
loop_
 _atom_site_type_symbol
 _atom_site_label
 _atom_site_symmetry_multiplicity
 _atom_site_fract_x
 _atom_site_fract_y
 _atom_site_fract_z
 _atom_site_occupancy
  Li  Li0  1  0.87624200  0.37548600  0.50151700  1
  Li  Li1  1  0.99255500  0.74722300  0.49658900  1
  Li  Li2  1  0.11485300  0.11485300  0.50702300  1
  Li  Li3  1  0.25228200  0.50597000  0.50266100  1
  Li  Li4  1  0.37548600  0.87624200  0.50151700  1
  Li  Li5  1  0.50597000  0.25228200  0.50266100  1
  Li  Li6  1  0.63143800  0.63143800  0.49223700  1
  Li  Li7  1  0.74722300  0.99255500  0.49658900  1
  Li  Li8  1  0.87415500  0.87415500  0.99744100  1
  Mn  Mn0  1  0.99528500  0.24711200  0.99680700  1
  Mn  Mn1  1  0.24711200  0.99528500  0.99680700  1
  Co  Co0  1  0.12353500  0.62666300  0.00032600  1
  Co  Co1  1  0.37980000  0.37980000  0.00540500  1
  Co  Co2  1  0.51035900  0.75788300  0.00261600  1
  Co  Co3  1  0.62666300  0.12353500  0.00032600  1
  Co  Co4  1  0.75788300  0.51035900  0.00261600  1
  O  O0  1  0.76655800  0.25110600  0.23709400  1
  O  O1  1  0.88515100  0.61794400  0.22262600  1
  O  O2  1  0.01538100  0.01538100  0.22663400  1
  O  O3  1  0.12408500  0.37753500  0.20765000  1
  O  O4  1  0.25110600  0.76655800  0.23709400  1
  O  O5  1  0.37753500  0.12408500  0.20765000  1
  O  O6  1  0.50262500  0.50262500  0.24218200  1
  O  O7  1  0.61794400  0.88515100  0.22262600  1
  O  O8  1  0.99863100  0.48599400  0.76256000  1
  O  O9  1  0.13373300  0.87136700  0.78413600  1
  O  O10  1  0.23663100  0.23663100  0.77005600  1
  O  O11  1  0.36433400  0.62050500  0.78869900  1
  O  O12  1  0.48599400  0.99863100  0.76256000  1
  O  O13  1  0.62050500  0.36433400  0.78869900  1
  O  O14  1  0.73758000  0.73758000  0.75245900  1
  O  O15  1  0.87136700  0.13373300  0.78413600  1
loop_
_geom_bond_atom_site_label_1
_geom_bond_atom_site_label_2
_geom_bond_distance
_geom_bond_site_symmetry_2
Li0 O1 2.055584 1_555
Li0 O15 2.068679 1_555
Li0 O8 2.096268 1_555
Li0 O0 2.116428 1_555
Li0 O3 2.137297 1_655
Li0 O13 2.147939 1_555
Li1 O14 2.075791 1_555
Li1 O4 2.089289 1_655
Li1 O2 2.164513 1_665
Li1 O8 2.166501 1_555
Li1 O1 2.171015 1_555
Li1 O9 2.345963 1_655
Li2 O2 2.047192 1_555
Li2 O15 2.119183 1_455
Li2 O9 2.119183 1_545
Li2 O10 2.147596 1_555
Li2 O5 2.221001 1_555
Li2 O3 2.221001 1_555
Li3 O8 2.059292 1_455
Li3 O6 2.083114 1_555
Li3 O4 2.151310 1_555
Li3 O10 2.177490 1_555
Li3 O11 2.180657 1_555
Li3 O3 2.341009 1_555
Li4 O7 2.055584 1_555
Li4 O9 2.068679 1_555
Li4 O12 2.096268 1_555
Li4 O4 2.116428 1_555
Li4 O5 2.137297 1_565
Li4 O11 2.147939 1_555
Li5 O12 2.059292 1_545
Li5 O6 2.083114 1_555
Li5 O0 2.151310 1_555
Li5 O10 2.177490 1_555
Li5 O13 2.180657 1_555
Li5 O5 2.341009 1_555
Li6 O14 2.008240 1_555
Li6 O7 2.146866 1_555
Li6 O1 2.146866 1_555
Li6 O6 2.150708 1_555
Li6 O11 2.236406 1_555
Li6 O13 2.236406 1_555
Li7 O14 2.075791 1_555
Li7 O0 2.089289 1_565
Li7 O2 2.164513 1_665
Li7 O12 2.166501 1_555
Li7 O7 2.171015 1_555
Li7 O15 2.345963 1_565
Li8 O15 2.049740 1_565
Li8 O9 2.049740 1_655
Li8 O7 2.065348 1_556
Li8 O1 2.065348 1_556
Li8 O2 2.171461 1_666
Li8 O14 2.195738 1_555
Mn0 O15 1.907857 1_555
Mn0 O0 1.910407 1_556
Mn0 O2 1.943913 1_656
Mn0 O8 1.943966 1_555
Mn0 O10 1.973277 1_655
Mn0 O3 1.994922 1_656
Mn1 O9 1.907857 1_555
Mn1 O4 1.910407 1_556
Mn1 O2 1.943913 1_566
Mn1 O12 1.943966 1_555
Mn1 O10 1.973277 1_565
Mn1 O5 1.994922 1_566
Co0 O1 1.907573 1_455
Co0 O11 1.931985 1_554
Co0 O9 1.934247 1_554
Co0 O3 1.967274 1_555
Co0 O8 2.135025 1_454
Co0 O4 2.138299 1_555
Co1 O11 1.961668 1_554
Co1 O13 1.961668 1_554
Co1 O3 1.997607 1_555
Co1 O5 1.997607 1_555
Co1 O6 2.043725 1_555
Co1 O10 2.213518 1_554
Co2 O7 1.930425 1_555
Co2 O14 1.963966 1_554
Co2 O12 2.031496 1_554
Co2 O6 2.048314 1_555
Co2 O4 2.096518 1_555
Co2 O11 2.115001 1_554
Co3 O7 1.907573 1_545
Co3 O13 1.931985 1_554
Co3 O15 1.934247 1_554
Co3 O5 1.967274 1_555
Co3 O12 2.135025 1_544
Co3 O0 2.138299 1_555
Co4 O1 1.930425 1_555
Co4 O14 1.963966 1_554
Co4 O8 2.031496 1_554
Co4 O6 2.048314 1_555
Co4 O0 2.096518 1_555
Co4 O13 2.115001 1_554
