# generated using pymatgen
data_RbLi2CdC2O6F
_symmetry_space_group_name_H-M   'P 1'
_cell_length_a   4.98842544
_cell_length_b   4.98842544
_cell_length_c   15.62404800
_cell_angle_alpha   90.00000000
_cell_angle_beta   90.00000000
_cell_angle_gamma   119.99999264
_symmetry_Int_Tables_number   1
_chemical_formula_structural   RbLi2CdC2O6F
_chemical_formula_sum   'Rb2 Li4 Cd2 C4 O12 F2'
_cell_volume   336.70626716
_cell_formula_units_Z   2
loop_
 _symmetry_equiv_pos_site_id
 _symmetry_equiv_pos_as_xyz
  1  'x, y, z'
loop_
 _atom_site_type_symbol
 _atom_site_label
 _atom_site_symmetry_multiplicity
 _atom_site_fract_x
 _atom_site_fract_y
 _atom_site_fract_z
 _atom_site_occupancy
  Rb  Rb0  1  0.00000000  0.00000000  0.75000000  1
  Rb  Rb1  1  0.00000000  0.00000000  0.25000000  1
  Li  Li0  1  0.33333300  0.66666700  0.63049100  1
  Li  Li1  1  0.66666700  0.33333300  0.13049100  1
  Li  Li2  1  0.66666700  0.33333300  0.36950900  1
  Li  Li3  1  0.33333300  0.66666700  0.86950900  1
  Cd  Cd0  1  0.00000000  0.00000000  0.50000000  1
  Cd  Cd1  1  0.00000000  0.00000000  0.00000000  1
  C  C0  1  0.66666700  0.33333300  0.59020200  1
  C  C1  1  0.33333300  0.66666700  0.09020200  1
  C  C2  1  0.33333300  0.66666700  0.40979800  1
  C  C3  1  0.66666700  0.33333300  0.90979800  1
  O  O0  1  0.66679100  0.59434500  0.59081700  1
  O  O1  1  0.40565500  0.07244600  0.59081700  1
  O  O2  1  0.92755400  0.33320900  0.59081700  1
  O  O3  1  0.33320900  0.40565500  0.09081700  1
  O  O4  1  0.59434500  0.92755400  0.09081700  1
  O  O5  1  0.07244600  0.66679100  0.09081700  1
  O  O6  1  0.33320900  0.40565500  0.40918300  1
  O  O7  1  0.59434500  0.92755400  0.40918300  1
  O  O8  1  0.07244600  0.66679100  0.40918300  1
  O  O9  1  0.66679100  0.59434500  0.90918300  1
  O  O10  1  0.40565500  0.07244600  0.90918300  1
  O  O11  1  0.92755400  0.33320900  0.90918300  1
  F  F0  1  0.33333300  0.66666700  0.75000000  1
  F  F1  1  0.66666700  0.33333300  0.25000000  1
loop_
_geom_bond_atom_site_label_1
_geom_bond_atom_site_label_2
_geom_bond_distance
_geom_bond_site_symmetry_2
Li0 O1 1.970152 1_565
Li0 O2 1.970153 1_455
Li0 O0 1.970156 1_555
Li1 O4 1.970152 1_545
Li1 O5 1.970153 1_655
Li1 O3 1.970156 1_555
Li2 O7 1.970152 1_545
Li2 O8 1.970153 1_655
Li2 O6 1.970156 1_555
Li3 O10 1.970152 1_565
Li3 O11 1.970153 1_455
Li3 O9 1.970156 1_555
Cd0 O2 2.346814 1_455
Cd0 O8 2.346814 1_545
Cd0 O1 2.346814 1_555
Cd0 O7 2.346814 1_445
Cd0 O0 2.346814 1_445
Cd0 O6 2.346814 1_555
Cd1 O11 2.346814 1_454
Cd1 O5 2.346814 1_545
Cd1 O4 2.346814 1_445
Cd1 O10 2.346814 1_554
Cd1 O3 2.346814 1_555
Cd1 O9 2.346814 1_444
C0 O2 1.301760 1_555
C0 O1 1.301763 1_555
C0 O0 1.301765 1_555
C1 O5 1.301760 1_555
C1 O4 1.301763 1_555
C1 O3 1.301765 1_555
C2 O8 1.301760 1_555
C2 O7 1.301763 1_555
C2 O6 1.301765 1_555
C3 O11 1.301760 1_555
C3 O10 1.301763 1_555
C3 O9 1.301765 1_555
O0 Rb0 3.111231 1_665
O1 Rb0 3.111231 1_555
O2 Rb0 3.111230 1_655
O3 Rb1 3.111231 1_555
O4 Rb1 3.111231 1_665
O5 Rb1 3.111230 1_565
O6 Rb1 3.111231 1_555
O7 Rb1 3.111231 1_665
O8 Rb1 3.111230 1_565
O9 Rb0 3.111231 1_665
O10 Rb0 3.111231 1_555
O11 Rb0 3.111230 1_655
F0 Li0 1.867214 1_555
F0 Li3 1.867214 1_555
F0 Rb0 2.880066 1_565
F0 Rb0 2.880070 1_665
F0 Rb0 2.880070 1_555
F1 Li2 1.867214 1_555
F1 Li1 1.867214 1_555
F1 Rb1 2.880066 1_655
F1 Rb1 2.880070 1_665
F1 Rb1 2.880070 1_555
