# generated using pymatgen
data_Si(AgO)2
_symmetry_space_group_name_H-M   'P 1'
_cell_length_a   4.66061900
_cell_length_b   9.16246400
_cell_length_c   9.16246400
_cell_angle_alpha   90.00000000
_cell_angle_beta   90.00000000
_cell_angle_gamma   90.00000000
_symmetry_Int_Tables_number   1
_chemical_formula_structural   Si(AgO)2
_chemical_formula_sum   'Si4 Ag8 O8'
_cell_volume   391.26244444
_cell_formula_units_Z   4
loop_
 _symmetry_equiv_pos_site_id
 _symmetry_equiv_pos_as_xyz
  1  'x, y, z'
loop_
 _atom_site_type_symbol
 _atom_site_label
 _atom_site_symmetry_multiplicity
 _atom_site_fract_x
 _atom_site_fract_y
 _atom_site_fract_z
 _atom_site_occupancy
  Si  Si0  1  0.25000000  0.25000000  0.25000000  1
  Si  Si1  1  0.25000000  0.75000000  0.75000000  1
  Si  Si2  1  0.75000000  0.25000000  0.75000000  1
  Si  Si3  1  0.75000000  0.75000000  0.25000000  1
  Ag  Ag0  1  0.16262900  0.07870700  0.62900200  1
  Ag  Ag1  1  0.16262900  0.92129300  0.37099800  1
  Ag  Ag2  1  0.66262900  0.87099800  0.57870700  1
  Ag  Ag3  1  0.33737100  0.42129300  0.87099800  1
  Ag  Ag4  1  0.66262900  0.12900200  0.42129300  1
  Ag  Ag5  1  0.33737100  0.57870700  0.12900200  1
  Ag  Ag6  1  0.83737100  0.62900200  0.92129300  1
  Ag  Ag7  1  0.83737100  0.37099800  0.07870700  1
  O  O0  1  0.00489000  0.13858400  0.21042800  1
  O  O1  1  0.00489000  0.86141600  0.78957200  1
  O  O2  1  0.50489000  0.28957200  0.63858400  1
  O  O3  1  0.49511000  0.36141600  0.28957200  1
  O  O4  1  0.50489000  0.71042800  0.36141600  1
  O  O5  1  0.49511000  0.63858400  0.71042800  1
  O  O6  1  0.99511000  0.21042800  0.86141600  1
  O  O7  1  0.99511000  0.78957200  0.13858400  1
loop_
_geom_bond_atom_site_label_1
_geom_bond_atom_site_label_2
_geom_bond_distance
_geom_bond_site_symmetry_2
Ag0 O2 2.506989 1_555
Ag0 O6 2.569211 1_455
Ag0 O1 2.582384 1_545
Ag1 O4 2.506989 1_555
Ag1 O7 2.569211 1_455
Ag1 O0 2.582384 1_565
Ag2 O1 2.506989 1_655
Ag2 O5 2.569211 1_555
Ag2 O4 2.582384 1_555
Ag3 O6 2.506989 1_455
Ag3 O2 2.569211 1_555
Ag3 O5 2.582384 1_555
Ag4 O0 2.506989 1_655
Ag4 O3 2.569211 1_555
Ag4 O2 2.582384 1_555
Ag5 O7 2.506989 1_455
Ag5 O4 2.569211 1_555
Ag5 O3 2.582384 1_555
Ag6 O5 2.506989 1_555
Ag6 O1 2.569211 1_655
Ag6 O7 2.582384 1_556
Ag7 O3 2.506989 1_555
Ag7 O0 2.569211 1_655
Ag7 O6 2.582384 1_554
O0 Si0 1.574352 1_555
O1 Si1 1.574352 1_555
O2 Si2 1.574352 1_555
O3 Si0 1.574352 1_555
O4 Si3 1.574352 1_555
O5 Si1 1.574352 1_555
O6 Si2 1.574352 1_555
O7 Si3 1.574352 1_555
