# generated using pymatgen
data_LiCoPO4
_symmetry_space_group_name_H-M   'P 1'
_cell_length_a   4.28796175
_cell_length_b   14.69950615
_cell_length_c   4.82220062
_cell_angle_alpha   89.98734493
_cell_angle_beta   89.94081916
_cell_angle_gamma   90.01971678
_symmetry_Int_Tables_number   1
_chemical_formula_structural   LiCoPO4
_chemical_formula_sum   'Li4 Co4 P4 O16'
_cell_volume   303.94755491
_cell_formula_units_Z   4
loop_
 _symmetry_equiv_pos_site_id
 _symmetry_equiv_pos_as_xyz
  1  'x, y, z'
loop_
 _atom_site_type_symbol
 _atom_site_label
 _atom_site_symmetry_multiplicity
 _atom_site_fract_x
 _atom_site_fract_y
 _atom_site_fract_z
 _atom_site_occupancy
  Li  Li0  1  0.99442600  0.25074400  0.73444400  1
  Li  Li1  1  0.99199000  0.74933300  0.23687100  1
  Li  Li2  1  0.50724600  0.24870500  0.23428400  1
  Li  Li3  1  0.50527000  0.75132100  0.73671800  1
  Co  Co0  1  0.54316200  0.56049200  0.29280300  1
  Co  Co1  1  0.54287000  0.43952800  0.79134000  1
  Co  Co2  1  0.95873200  0.06031900  0.29042200  1
  Co  Co3  1  0.95841300  0.93946400  0.79081300  1
  P  P0  1  0.00572400  0.38685200  0.24617800  1
  P  P1  1  0.00437600  0.61327500  0.74795500  1
  P  P2  1  0.49550700  0.11269100  0.74599800  1
  P  P3  1  0.49422300  0.88718700  0.24751400  1
  O  O0  1  0.17378600  0.31616000  0.42704300  1
  O  O1  1  0.17209300  0.68377400  0.92982000  1
  O  O2  1  0.32726300  0.18329700  0.92742100  1
  O  O3  1  0.32533800  0.81683500  0.42944400  1
  O  O4  1  0.69254900  0.16040900  0.51095700  1
  O  O5  1  0.69108400  0.83936400  0.01261300  1
  O  O6  1  0.80916600  0.33924700  0.01101800  1
  O  O7  1  0.80691200  0.66109400  0.51384300  1
  O  O8  1  0.25559800  0.04803300  0.60612000  1
  O  O9  1  0.25500300  0.95187200  0.10666000  1
  O  O10  1  0.24539800  0.45178700  0.10653900  1
  O  O11  1  0.24389000  0.54875600  0.60667500  1
  O  O12  1  0.77014900  0.55766100  0.92999500  1
  O  O13  1  0.77074500  0.44192700  0.42877900  1
  O  O14  1  0.72983700  0.05755000  0.92847100  1
  O  O15  1  0.72925200  0.94232200  0.42925900  1
loop_
_geom_bond_atom_site_label_1
_geom_bond_atom_site_label_2
_geom_bond_distance
_geom_bond_site_symmetry_2
Li0 O0 1.926137 1_655
Li0 O2 1.972081 1_655
Li0 O6 2.025230 1_556
Li0 O4 2.145367 1_555
Li1 O1 1.927754 1_654
Li1 O3 1.972868 1_655
Li1 O7 2.022969 1_555
Li1 O5 2.142221 1_555
Li2 O2 1.926702 1_554
Li2 O0 1.972395 1_555
Li2 O4 2.024367 1_555
Li2 O6 2.145190 1_555
Li3 O3 1.928854 1_555
Li3 O1 1.972274 1_555
Li3 O5 2.020400 1_556
Li3 O7 2.141502 1_555
Co0 O11 1.990754 1_555
Co0 O12 2.001618 1_554
Co0 O13 2.102800 1_555
Co0 O7 2.145710 1_555
Co0 O10 2.234257 1_555
Co1 O10 1.991489 1_556
Co1 O13 2.002280 1_555
Co1 O12 2.100701 1_555
Co1 O6 2.145210 1_556
Co1 O11 2.240006 1_555
Co2 O8 1.993649 1_655
Co2 O14 2.003734 1_554
Co2 O15 2.102837 1_545
Co2 O4 2.144224 1_555
Co2 O9 2.222623 1_645
Co3 O9 1.993586 1_656
Co3 O15 2.002651 1_555
Co3 O14 2.101108 1_565
Co3 O5 2.149105 1_556
Co3 O8 2.227030 1_665
O0 P0 1.536627 1_555
O1 P1 1.536691 1_555
O2 P2 1.537083 1_555
O3 P3 1.536653 1_555
O4 P2 1.577266 1_555
O5 P3 1.577535 1_555
O6 P0 1.577306 1_655
O7 P1 1.577197 1_655
O8 P2 1.554871 1_555
O9 P3 1.555462 1_555
O10 P0 1.555096 1_555
O11 P1 1.554958 1_555
O12 P1 1.563625 1_655
O13 P0 1.563657 1_655
O14 P2 1.562990 1_555
O15 P3 1.562743 1_555
