# generated using pymatgen
data_MgCuBi2O7
_symmetry_space_group_name_H-M   'P 1'
_cell_length_a   8.44757500
_cell_length_b   10.14502000
_cell_length_c   11.61884179
_cell_angle_alpha   82.49784721
_cell_angle_beta   90.00000000
_cell_angle_gamma   90.00000000
_symmetry_Int_Tables_number   1
_chemical_formula_structural   MgCuBi2O7
_chemical_formula_sum   'Mg6 Cu6 Bi12 O42'
_cell_volume   987.22062390
_cell_formula_units_Z   6
loop_
 _symmetry_equiv_pos_site_id
 _symmetry_equiv_pos_as_xyz
  1  'x, y, z'
loop_
 _atom_site_type_symbol
 _atom_site_label
 _atom_site_symmetry_multiplicity
 _atom_site_fract_x
 _atom_site_fract_y
 _atom_site_fract_z
 _atom_site_occupancy
  Mg  Mg0  1  0.45985000  0.84892100  0.58157100  1
  Mg  Mg1  1  0.95628400  0.50000000  0.75000000  1
  Mg  Mg2  1  0.45985000  0.15107900  0.91842900  1
  Mg  Mg3  1  0.04371600  0.50000000  0.25000000  1
  Mg  Mg4  1  0.54015000  0.15107900  0.41842900  1
  Mg  Mg5  1  0.54015000  0.84892100  0.08157100  1
  Cu  Cu0  1  0.90588700  0.21295000  0.41828200  1
  Cu  Cu1  1  0.09411300  0.78705000  0.58171800  1
  Cu  Cu2  1  0.40933300  0.50000000  0.25000000  1
  Cu  Cu3  1  0.90588700  0.78705000  0.08171800  1
  Cu  Cu4  1  0.59066700  0.50000000  0.75000000  1
  Cu  Cu5  1  0.09411300  0.21295000  0.91828200  1
  Bi  Bi0  1  0.20755100  0.80583000  0.30262400  1
  Bi  Bi1  1  0.75575200  0.84407000  0.36886900  1
  Bi  Bi2  1  0.24424800  0.84407000  0.86886900  1
  Bi  Bi3  1  0.79244900  0.80583000  0.80262400  1
  Bi  Bi4  1  0.28074400  0.48878600  0.97349300  1
  Bi  Bi5  1  0.75575200  0.15593000  0.13113100  1
  Bi  Bi6  1  0.71925600  0.48878600  0.47349300  1
  Bi  Bi7  1  0.24424800  0.15593000  0.63113100  1
  Bi  Bi8  1  0.28074400  0.51121400  0.52650700  1
  Bi  Bi9  1  0.71925600  0.51121400  0.02650700  1
  Bi  Bi10  1  0.79244900  0.19417000  0.69737600  1
  Bi  Bi11  1  0.20755100  0.19417000  0.19737600  1
  O  O0  1  0.72599600  0.75833200  0.99076800  1
  O  O1  1  0.76387300  0.14900000  0.31473600  1
  O  O2  1  0.87808400  0.00000000  0.75000000  1
  O  O3  1  0.91887300  0.47073300  0.11442700  1
  O  O4  1  0.40433600  0.04893000  0.54943700  1
  O  O5  1  0.94123800  0.71517700  0.68977300  1
  O  O6  1  0.35894400  0.68628500  0.96506300  1
  O  O7  1  0.08112700  0.47073300  0.61442700  1
  O  O8  1  0.75377900  0.55832100  0.84335900  1
  O  O9  1  0.40433600  0.95107000  0.95056300  1
  O  O10  1  0.75377900  0.44167900  0.65664100  1
  O  O11  1  0.46444700  0.43231000  0.87195600  1
  O  O12  1  0.99104900  0.17018600  0.06291700  1
  O  O13  1  0.05876200  0.71517700  0.18977300  1
  O  O14  1  0.64105600  0.31371500  0.03493700  1
  O  O15  1  0.35894400  0.31371500  0.53493700  1
  O  O16  1  0.94123800  0.28482300  0.81022700  1
  O  O17  1  0.59566400  0.95107000  0.45056300  1
  O  O18  1  0.27400400  0.75833200  0.49076800  1
  O  O19  1  0.53555300  0.56769000  0.12804400  1
  O  O20  1  0.42784200  0.19440900  0.26714500  1
  O  O21  1  0.24622100  0.44167900  0.15664100  1
  O  O22  1  0.00895100  0.17018600  0.56291700  1
  O  O23  1  0.24622100  0.55832100  0.34335900  1
  O  O24  1  0.91887300  0.52926700  0.38557300  1
  O  O25  1  0.53555300  0.43231000  0.37195600  1
  O  O26  1  0.08112700  0.52926700  0.88557300  1
  O  O27  1  0.57215800  0.19440900  0.76714500  1
  O  O28  1  0.57215800  0.80559100  0.73285500  1
  O  O29  1  0.00895100  0.82981400  0.93708300  1
  O  O30  1  0.05876200  0.28482300  0.31022700  1
  O  O31  1  0.72599600  0.24166800  0.50923200  1
  O  O32  1  0.12191600  0.00000000  0.25000000  1
  O  O33  1  0.23612700  0.14900000  0.81473600  1
  O  O34  1  0.59566400  0.04893000  0.04943700  1
  O  O35  1  0.99104900  0.82981400  0.43708300  1
  O  O36  1  0.27400400  0.24166800  0.00923200  1
  O  O37  1  0.76387300  0.85100000  0.18526400  1
  O  O38  1  0.46444700  0.56769000  0.62804400  1
  O  O39  1  0.64105600  0.68628500  0.46506300  1
  O  O40  1  0.23612700  0.85100000  0.68526400  1
  O  O41  1  0.42784200  0.80559100  0.23285500  1
loop_
_geom_bond_atom_site_label_1
_geom_bond_atom_site_label_2
_geom_bond_distance
_geom_bond_site_symmetry_2
Mg0 O28 1.995300 1_555
Mg0 O4 2.068507 1_565
Mg0 O17 2.072508 1_555
Mg0 O18 2.162317 1_555
Mg0 O40 2.242853 1_555
Mg1 O26 1.950326 1_655
Mg1 O7 1.950326 1_655
Mg1 O8 2.149581 1_555
Mg1 O10 2.149581 1_555
Mg1 O16 2.207333 1_555
Mg1 O5 2.207333 1_555
Mg2 O27 1.995300 1_555
Mg2 O9 2.068507 1_545
Mg2 O34 2.072508 1_556
Mg2 O36 2.162317 1_556
Mg2 O33 2.242853 1_555
Mg3 O24 1.950326 1_455
Mg3 O3 1.950326 1_455
Mg3 O23 2.149581 1_555
Mg3 O21 2.149581 1_555
Mg3 O13 2.207333 1_555
Mg3 O30 2.207333 1_555
Mg4 O20 1.995300 1_555
Mg4 O17 2.068507 1_545
Mg4 O4 2.072508 1_555
Mg4 O31 2.162317 1_555
Mg4 O1 2.242853 1_555
Mg5 O41 1.995300 1_555
Mg5 O34 2.068507 1_565
Mg5 O9 2.072508 1_554
Mg5 O0 2.162317 1_554
Mg5 O37 2.242853 1_555
Cu0 O1 1.873861 1_555
Cu0 O30 1.880587 1_655
Cu0 O22 1.892064 1_655
Cu0 O31 1.895066 1_555
Cu1 O40 1.873861 1_555
Cu1 O5 1.880587 1_455
Cu1 O35 1.892064 1_455
Cu1 O18 1.895066 1_555
Cu2 O19 1.833640 1_555
Cu2 O25 1.833640 1_555
Cu2 O23 1.895494 1_555
Cu2 O21 1.895494 1_555
Cu3 O37 1.873861 1_555
Cu3 O13 1.880587 1_655
Cu3 O29 1.892064 1_654
Cu3 O0 1.895066 1_554
Cu4 O11 1.833640 1_555
Cu4 O38 1.833640 1_555
Cu4 O8 1.895494 1_555
Cu4 O10 1.895494 1_555
Cu5 O33 1.873861 1_555
Cu5 O16 1.880587 1_455
Cu5 O12 1.892064 1_456
Cu5 O36 1.895066 1_556
Bi0 O41 2.029948 1_555
Bi0 O13 2.111811 1_555
Bi0 O32 2.112581 1_565
Bi0 O18 2.247427 1_555
Bi0 O35 2.438043 1_455
Bi0 O23 2.515040 1_555
Bi1 O17 2.043827 1_555
Bi1 O39 2.069568 1_555
Bi1 O37 2.126349 1_555
Bi1 O35 2.137769 1_555
Bi2 O9 2.043827 1_555
Bi2 O6 2.069568 1_555
Bi2 O40 2.126349 1_555
Bi2 O29 2.137769 1_555
Bi3 O28 2.029948 1_555
Bi3 O5 2.111811 1_555
Bi3 O2 2.112581 1_565
Bi3 O0 2.247427 1_555
Bi3 O29 2.438043 1_655
Bi3 O8 2.515040 1_555
Bi4 O26 1.986497 1_555
Bi4 O11 2.074799 1_555
Bi4 O6 2.099828 1_555
Bi4 O21 2.139190 1_556
Bi4 O36 2.487763 1_556
Bi5 O34 2.043827 1_555
Bi5 O14 2.069568 1_555
Bi5 O1 2.126349 1_555
Bi5 O12 2.137769 1_555
Bi6 O24 1.986497 1_555
Bi6 O25 2.074799 1_555
Bi6 O39 2.099828 1_555
Bi6 O10 2.139190 1_555
Bi6 O31 2.487763 1_555
Bi7 O4 2.043827 1_555
Bi7 O15 2.069568 1_555
Bi7 O33 2.126349 1_555
Bi7 O22 2.137769 1_555
Bi8 O7 1.986497 1_555
Bi8 O38 2.074799 1_555
Bi8 O15 2.099828 1_555
Bi8 O23 2.139190 1_555
Bi8 O18 2.487763 1_555
Bi9 O3 1.986497 1_555
Bi9 O19 2.074799 1_555
Bi9 O14 2.099828 1_555
Bi9 O8 2.139190 1_554
Bi9 O0 2.487763 1_554
Bi10 O27 2.029948 1_555
Bi10 O16 2.111811 1_555
Bi10 O2 2.112581 1_555
Bi10 O31 2.247427 1_555
Bi10 O22 2.438043 1_655
Bi10 O10 2.515040 1_555
Bi11 O20 2.029948 1_555
Bi11 O30 2.111811 1_555
Bi11 O32 2.112581 1_555
Bi11 O36 2.247427 1_555
Bi11 O12 2.438043 1_455
Bi11 O21 2.515040 1_555
