# generated using pymatgen
data_CaMg5
_symmetry_space_group_name_H-M   'P 1'
_cell_length_a   5.84422691
_cell_length_b   5.84422691
_cell_length_c   5.17089806
_cell_angle_alpha   90.00000000
_cell_angle_beta   90.00000000
_cell_angle_gamma   120.00000870
_symmetry_Int_Tables_number   1
_chemical_formula_structural   CaMg5
_chemical_formula_sum   'Ca1 Mg5'
_cell_volume   152.95043230
_cell_formula_units_Z   1
loop_
 _symmetry_equiv_pos_site_id
 _symmetry_equiv_pos_as_xyz
  1  'x, y, z'
loop_
 _atom_site_type_symbol
 _atom_site_label
 _atom_site_symmetry_multiplicity
 _atom_site_fract_x
 _atom_site_fract_y
 _atom_site_fract_z
 _atom_site_occupancy
  Ca  Ca0  1  -0.00000000  0.00000000  0.50000000  1
  Mg  Mg0  1  -0.00000000  0.60750961  0.00000000  1
  Mg  Mg1  1  0.60750961  -0.00000000  -0.00000000  1
  Mg  Mg2  1  0.39249039  0.39249039  0.00000000  1
  Mg  Mg3  1  0.66666700  0.33333300  0.50000000  1
  Mg  Mg4  1  0.33333300  0.66666700  0.50000000  1
loop_
_geom_bond_atom_site_label_1
_geom_bond_atom_site_label_2
_geom_bond_distance
_geom_bond_site_symmetry_2
Ca0 Mg4 3.374163 1_545
Ca0 Mg3 3.374163 1_455
Ca0 Mg4 3.374167 1_445
Ca0 Mg4 3.374167 1_555
Ca0 Mg3 3.374167 1_555
Ca0 Mg3 3.374167 1_445
Ca0 Mg2 3.456310 1_556
Ca0 Mg2 3.456310 1_555
Ca0 Mg1 3.456310 1_456
Ca0 Mg1 3.456310 1_455
Ca0 Mg0 3.456310 1_545
Ca0 Mg0 3.456310 1_546
Mg0 Mg1 3.118183 1_565
Mg0 Mg1 3.118183 1_455
Mg0 Mg2 3.118183 1_455
Mg0 Mg2 3.118184 1_555
Mg0 Mg4 3.150486 1_554
Mg0 Mg4 3.150486 1_555
Mg0 Mg3 3.150487 1_455
Mg0 Mg3 3.150487 1_454
Mg1 Mg2 3.118183 1_545
Mg1 Mg2 3.118184 1_555
Mg1 Mg3 3.150486 1_555
Mg1 Mg3 3.150486 1_554
Mg1 Mg4 3.150487 1_545
Mg1 Mg4 3.150487 1_544
Mg2 Mg3 3.150489 1_554
Mg2 Mg4 3.150489 1_555
Mg2 Mg4 3.150489 1_554
Mg2 Mg3 3.150489 1_555
Mg3 Mg4 3.374162 1_545
Mg3 Mg4 3.374162 1_655
Mg3 Mg4 3.374173 1_555
