# generated using pymatgen
data_Sr(MnN)4
_symmetry_space_group_name_H-M   'P 1'
_cell_length_a   7.44272455
_cell_length_b   7.44272455
_cell_length_c   7.44272455
_cell_angle_alpha   60.00000000
_cell_angle_beta   60.00000000
_cell_angle_gamma   60.00000000
_symmetry_Int_Tables_number   1
_chemical_formula_structural   Sr(MnN)4
_chemical_formula_sum   'Sr3 Mn12 N12'
_cell_volume   291.52838134
_cell_formula_units_Z   3
loop_
 _symmetry_equiv_pos_site_id
 _symmetry_equiv_pos_as_xyz
  1  'x, y, z'
loop_
 _atom_site_type_symbol
 _atom_site_label
 _atom_site_symmetry_multiplicity
 _atom_site_fract_x
 _atom_site_fract_y
 _atom_site_fract_z
 _atom_site_occupancy
  Sr  Sr0  1  0.25000000  0.25000000  0.25000000  1
  Sr  Sr1  1  0.75000000  0.75000000  0.75000000  1
  Sr  Sr2  1  0.50000000  0.50000000  0.50000000  1
  Mn  Mn0  1  0.10240100  0.65146000  0.34854000  1
  Mn  Mn1  1  0.34854000  0.89759900  0.10240100  1
  Mn  Mn2  1  0.89759900  0.34854000  0.65146000  1
  Mn  Mn3  1  0.65146000  0.10240100  0.89759900  1
  Mn  Mn4  1  0.10240100  0.89759900  0.65146000  1
  Mn  Mn5  1  0.34854000  0.65146000  0.89759900  1
  Mn  Mn6  1  0.89759900  0.10240100  0.34854000  1
  Mn  Mn7  1  0.65146000  0.34854000  0.10240100  1
  Mn  Mn8  1  0.10240100  0.34854000  0.89759900  1
  Mn  Mn9  1  0.34854000  0.10240100  0.65146000  1
  Mn  Mn10  1  0.89759900  0.65146000  0.10240100  1
  Mn  Mn11  1  0.65146000  0.89759900  0.34854000  1
  N  N0  1  0.39535400  0.60464600  0.14511300  1
  N  N1  1  0.14511300  0.85488700  0.39535400  1
  N  N2  1  0.85488700  0.14511300  0.60464600  1
  N  N3  1  0.60464600  0.39535400  0.85488700  1
  N  N4  1  0.39535400  0.85488700  0.60464600  1
  N  N5  1  0.14511300  0.60464600  0.85488700  1
  N  N6  1  0.85488700  0.39535400  0.14511300  1
  N  N7  1  0.60464600  0.14511300  0.39535400  1
  N  N8  1  0.39535400  0.14511300  0.85488700  1
  N  N9  1  0.14511300  0.39535400  0.60464600  1
  N  N10  1  0.85488700  0.60464600  0.39535400  1
  N  N11  1  0.60464600  0.85488700  0.14511300  1
loop_
_geom_bond_atom_site_label_1
_geom_bond_atom_site_label_2
_geom_bond_distance
_geom_bond_site_symmetry_2
Mn0 N10 1.874839 1_455
Mn0 N1 1.906412 1_555
Mn0 N0 1.906412 1_555
Mn0 N9 1.932453 1_555
Mn0 Sr1 2.962411 1_455
Mn0 Sr0 2.962411 1_555
Mn1 N8 1.874839 1_564
Mn1 N1 1.906412 1_555
Mn1 N0 1.906412 1_555
Mn1 N11 1.932453 1_555
Mn1 Sr0 2.962411 1_565
Mn1 Sr1 2.962411 1_554
Mn2 N9 1.874839 1_655
Mn2 N3 1.906412 1_555
Mn2 N2 1.906412 1_555
Mn2 N10 1.932453 1_555
Mn2 Sr1 2.962411 1_555
Mn2 Sr0 2.962411 1_655
Mn3 N11 1.874839 1_546
Mn3 N3 1.906412 1_555
Mn3 N2 1.906412 1_555
Mn3 N8 1.932453 1_555
Mn3 Sr1 2.962411 1_545
Mn3 Sr0 2.962411 1_556
Mn4 N2 1.874839 1_465
Mn4 N4 1.906412 1_555
Mn4 N5 1.906412 1_555
Mn4 N1 1.932453 1_555
Mn4 Sr1 2.962411 1_455
Mn4 Sr0 2.962411 1_565
Mn5 N0 1.874839 1_556
Mn5 N4 1.906412 1_555
Mn5 N5 1.906412 1_555
Mn5 N3 1.932453 1_555
Mn5 Sr1 2.962411 1_555
Mn5 Sr0 2.962411 1_556
Mn6 N1 1.874839 1_645
Mn6 N6 1.906412 1_555
Mn6 N7 1.906412 1_555
Mn6 N2 1.932453 1_555
Mn6 Sr0 2.962411 1_655
Mn6 Sr1 2.962411 1_545
Mn7 N3 1.874839 1_554
Mn7 N6 1.906412 1_555
Mn7 N7 1.906412 1_555
Mn7 N0 1.932453 1_555
Mn7 Sr1 2.962411 1_554
Mn7 Sr0 2.962411 1_555
Mn8 N6 1.874839 1_456
Mn8 N8 1.906412 1_555
Mn8 N9 1.906412 1_555
Mn8 N5 1.932453 1_555
Mn8 Sr0 2.962411 1_556
Mn8 Sr1 2.962411 1_455
Mn9 N4 1.874839 1_545
Mn9 N8 1.906412 1_555
Mn9 N9 1.906412 1_555
Mn9 N7 1.932453 1_555
Mn9 Sr1 2.962411 1_545
Mn9 Sr0 2.962411 1_555
Mn10 N5 1.874839 1_654
Mn10 N10 1.906412 1_555
Mn10 N11 1.906412 1_555
Mn10 N6 1.932453 1_555
Mn10 Sr0 2.962411 1_655
Mn10 Sr1 2.962411 1_554
Mn11 N7 1.874839 1_565
Mn11 N10 1.906412 1_555
Mn11 N11 1.906412 1_555
Mn11 N4 1.932453 1_555
Mn11 Sr1 2.962411 1_555
Mn11 Sr0 2.962411 1_565
N0 Sr2 2.753764 1_555
N0 Sr1 2.949128 1_554
N0 Sr0 2.949128 1_555
N1 Sr2 2.753764 1_555
N1 Sr1 2.949128 1_455
N1 Sr0 2.949128 1_565
N2 Sr2 2.753764 1_555
N2 Sr1 2.949128 1_545
N2 Sr0 2.949128 1_655
N3 Sr2 2.753764 1_555
N3 Sr0 2.949128 1_556
N3 Sr1 2.949128 1_555
N4 Sr2 2.753764 1_555
N4 Sr1 2.949128 1_555
N4 Sr0 2.949128 1_565
N5 Sr2 2.753764 1_555
N5 Sr1 2.949128 1_455
N5 Sr0 2.949128 1_556
N6 Sr2 2.753764 1_555
N6 Sr1 2.949128 1_554
N6 Sr0 2.949128 1_655
N7 Sr2 2.753764 1_555
N7 Sr1 2.949128 1_545
N7 Sr0 2.949128 1_555
N8 Sr2 2.753764 1_555
N8 Sr1 2.949128 1_545
N8 Sr0 2.949128 1_556
N9 Sr2 2.753764 1_555
N9 Sr1 2.949128 1_455
N9 Sr0 2.949128 1_555
N10 Sr2 2.753764 1_555
N10 Sr1 2.949128 1_555
N10 Sr0 2.949128 1_655
N11 Sr2 2.753764 1_555
N11 Sr1 2.949128 1_554
N11 Sr0 2.949128 1_565
