# generated using pymatgen
data_SrYbAl2Si2N5O2
_symmetry_space_group_name_H-M   'P 1'
_cell_length_a   6.04803653
_cell_length_b   6.15059240
_cell_length_c   10.03972333
_cell_angle_alpha   89.31704202
_cell_angle_beta   90.25952481
_cell_angle_gamma   119.31279112
_symmetry_Int_Tables_number   1
_chemical_formula_structural   SrYbAl2Si2N5O2
_chemical_formula_sum   'Sr2 Yb2 Al4 Si4 N10 O4'
_cell_volume   325.62543355
_cell_formula_units_Z   2
loop_
 _symmetry_equiv_pos_site_id
 _symmetry_equiv_pos_as_xyz
  1  'x, y, z'
loop_
 _atom_site_type_symbol
 _atom_site_label
 _atom_site_symmetry_multiplicity
 _atom_site_fract_x
 _atom_site_fract_y
 _atom_site_fract_z
 _atom_site_occupancy
  Sr  Sr0  1  0.34271500  0.66535100  0.23043100  1
  Sr  Sr1  1  0.67842600  0.35819700  0.75572200  1
  Yb  Yb0  1  0.32865600  0.65938800  0.87319100  1
  Yb  Yb1  1  0.65950600  0.33013500  0.37443200  1
  Al  Al0  1  0.16702100  0.83559000  0.55819700  1
  Al  Al1  1  0.16940000  0.33867600  0.55870900  1
  Al  Al2  1  0.67426600  0.83335800  0.55955600  1
  Al  Al3  1  0.83349500  0.66342700  0.06346800  1
  Si  Si0  1  0.00746400  0.01123600  0.80065700  1
  Si  Si1  1  0.99972200  0.00000300  0.29706600  1
  Si  Si2  1  0.33959500  0.16277100  0.06134700  1
  Si  Si3  1  0.83005900  0.17483700  0.06032100  1
  N  N0  1  0.12469000  0.82561100  0.74132000  1
  N  N1  1  0.00790700  0.01074300  0.47553000  1
  N  N2  1  0.14878400  0.30402400  0.73972900  1
  N  N3  1  0.29951600  0.14595700  0.23070700  1
  N  N4  1  0.70520400  0.81509600  0.74354600  1
  N  N5  1  0.81138400  0.70162500  0.24335000  1
  N  N6  1  0.51792200  0.03270500  0.00495500  1
  N  N7  1  0.99461300  0.48599600  0.02698900  1
  N  N8  1  0.82839500  0.13332000  0.23223900  1
  N  N9  1  0.00947200  0.01544300  0.98643800  1
  O  O0  1  0.03108100  0.52228200  0.49857200  1
  O  O1  1  0.49775900  0.98837700  0.51954900  1
  O  O2  1  0.49333600  0.51712200  0.50614500  1
  O  O3  1  0.49961300  0.46872700  0.01195500  1
loop_
_geom_bond_atom_site_label_1
_geom_bond_atom_site_label_2
_geom_bond_distance
_geom_bond_site_symmetry_2
Al0 O1 1.786807 1_555
Al0 O0 1.794289 1_555
Al0 N0 1.853537 1_555
Al0 N1 1.939590 1_565
Al1 O2 1.792087 1_555
Al1 O0 1.801064 1_555
Al1 N2 1.825015 1_555
Al1 N1 1.955348 1_555
Al2 O1 1.787070 1_555
Al2 O2 1.789879 1_555
Al2 N4 1.863413 1_555
Al2 N1 1.952339 1_665
Al3 N7 1.824456 1_555
Al3 N5 1.837840 1_555
Al3 O3 1.848444 1_555
Al3 N9 2.032181 1_664
N0 Si0 1.724431 1_565
N0 Yb0 2.346842 1_555
N0 Sr1 2.822507 1_455
N1 Si1 1.793300 1_455
N2 Si0 1.679000 1_555
N2 Yb0 2.341912 1_555
N2 Sr1 3.027024 1_455
N2 Sr1 3.057685 1_555
N3 Si2 1.713348 1_555
N3 Si1 1.714709 1_455
N3 Yb1 2.387731 1_555
N3 Sr0 3.075088 1_555
N3 Sr0 3.092360 1_545
N4 Si0 1.724412 1_665
N4 Yb0 2.378940 1_555
N4 Sr1 2.735827 1_555
N5 Si1 1.710984 1_565
N5 Yb1 2.383398 1_555
N5 Sr0 2.734828 1_555
N6 Si2 1.727681 1_555
N6 Si3 1.738737 1_555
N6 Yb0 2.411974 1_544
N6 Sr0 2.984602 1_545
N6 Sr1 3.034976 1_554
N7 Si3 1.699387 1_555
N7 Yb0 2.341479 1_654
N7 Sr0 2.749882 1_655
N7 Sr1 3.197496 1_554
N8 Si1 1.727070 1_555
N8 Si3 1.741134 1_555
N8 Yb1 2.410775 1_555
N8 Sr0 2.938629 1_545
N8 Sr0 3.227487 1_655
N9 Si0 1.865580 1_555
N9 Si2 1.898486 1_556
N9 Si3 1.937786 1_456
O0 Yb1 2.325854 1_455
O0 Sr0 3.152687 1_555
O0 Sr1 3.180097 1_455
O1 Yb1 2.329070 1_565
O1 Sr1 3.108290 1_565
O2 Yb1 2.293772 1_555
O2 Sr1 3.078095 1_555
O2 Sr0 3.170738 1_555
O3 Si2 1.709560 1_555
O3 Yb0 2.349539 1_554
O3 Sr0 2.894810 1_555
O3 Sr1 3.006046 1_554
