# generated using pymatgen
data_LiMnSe2
_symmetry_space_group_name_H-M   'P 1'
_cell_length_a   3.99342209
_cell_length_b   3.99342209
_cell_length_c   6.57119100
_cell_angle_alpha   90.00000000
_cell_angle_beta   90.00000000
_cell_angle_gamma   120.00000143
_symmetry_Int_Tables_number   1
_chemical_formula_structural   LiMnSe2
_chemical_formula_sum   'Li1 Mn1 Se2'
_cell_volume   90.75386867
_cell_formula_units_Z   1
loop_
 _symmetry_equiv_pos_site_id
 _symmetry_equiv_pos_as_xyz
  1  'x, y, z'
loop_
 _atom_site_type_symbol
 _atom_site_label
 _atom_site_symmetry_multiplicity
 _atom_site_fract_x
 _atom_site_fract_y
 _atom_site_fract_z
 _atom_site_occupancy
  Li  Li0  1  0.00000000  0.00000000  0.82270000  1
  Mn  Mn0  1  0.33333300  0.66666700  0.34164600  1
  Se  Se0  1  0.33333300  0.66666700  0.99059500  1
  Se  Se1  1  0.66666700  0.33333300  0.49325900  1
loop_
_geom_bond_atom_site_label_1
_geom_bond_atom_site_label_2
_geom_bond_distance
_geom_bond_site_symmetry_2
Li0 Se0 2.555974 1_545
Li0 Se0 2.555977 1_445
Li0 Se0 2.555977 1_555
Li0 Se1 3.162632 1_455
Li0 Se1 3.162634 1_445
Li0 Se1 3.162634 1_555
Mn0 Se0 2.306823 1_554
Mn0 Se1 2.511646 1_455
Mn0 Se1 2.511646 1_565
Mn0 Se1 2.511652 1_555
