# generated using pymatgen
data_Sr2ZnGe2O7
_symmetry_space_group_name_H-M   'P 1'
_cell_length_a   8.25775900
_cell_length_b   8.25775900
_cell_length_c   5.40083900
_cell_angle_alpha   90.00000000
_cell_angle_beta   90.00000000
_cell_angle_gamma   90.00000000
_symmetry_Int_Tables_number   1
_chemical_formula_structural   Sr2ZnGe2O7
_chemical_formula_sum   'Sr4 Zn2 Ge4 O14'
_cell_volume   368.28636389
_cell_formula_units_Z   2
loop_
 _symmetry_equiv_pos_site_id
 _symmetry_equiv_pos_as_xyz
  1  'x, y, z'
loop_
 _atom_site_type_symbol
 _atom_site_label
 _atom_site_symmetry_multiplicity
 _atom_site_fract_x
 _atom_site_fract_y
 _atom_site_fract_z
 _atom_site_occupancy
  Sr  Sr0  1  0.66565700  0.16565700  0.50731500  1
  Sr  Sr1  1  0.83434300  0.66565700  0.49268500  1
  Sr  Sr2  1  0.16565700  0.33434300  0.49268500  1
  Sr  Sr3  1  0.33434300  0.83434300  0.50731500  1
  Zn  Zn0  1  0.00000000  0.00000000  0.00000000  1
  Zn  Zn1  1  0.50000000  0.50000000  0.00000000  1
  Ge  Ge0  1  0.85709900  0.35709900  0.95290700  1
  Ge  Ge1  1  0.14290100  0.64290100  0.95290700  1
  Ge  Ge2  1  0.64290100  0.85709900  0.04709300  1
  Ge  Ge3  1  0.35709900  0.14290100  0.04709300  1
  O  O0  1  0.67896500  0.41723800  0.79246100  1
  O  O1  1  0.32103500  0.58276200  0.79246100  1
  O  O2  1  0.41723800  0.32103500  0.20753900  1
  O  O3  1  0.58276200  0.67896500  0.20753900  1
  O  O4  1  0.91723800  0.17896500  0.79246100  1
  O  O5  1  0.82103500  0.91723800  0.20753900  1
  O  O6  1  0.17896500  0.08276200  0.20753900  1
  O  O7  1  0.08276200  0.82103500  0.79246100  1
  O  O8  1  0.86158400  0.36158400  0.27490200  1
  O  O9  1  0.63841600  0.86158400  0.72509800  1
  O  O10  1  0.50000000  0.00000000  0.18295300  1
  O  O11  1  0.00000000  0.50000000  0.81704700  1
  O  O12  1  0.13841600  0.63841600  0.27490200  1
  O  O13  1  0.36158400  0.13841600  0.72509800  1
loop_
_geom_bond_atom_site_label_1
_geom_bond_atom_site_label_2
_geom_bond_distance
_geom_bond_site_symmetry_2
Ge0 O8 1.739832 1_556
Ge0 O4 1.778012 1_555
Ge0 O0 1.778012 1_555
Ge0 O11 1.823019 1_655
Ge1 O12 1.739832 1_556
Ge1 O1 1.778012 1_555
Ge1 O7 1.778012 1_555
Ge1 O11 1.823019 1_555
Ge2 O9 1.739832 1_554
Ge2 O3 1.778012 1_555
Ge2 O5 1.778012 1_555
Ge2 O10 1.823019 1_565
Ge3 O13 1.739832 1_554
Ge3 O6 1.778012 1_555
Ge3 O2 1.778012 1_555
Ge3 O10 1.823019 1_555
O0 Zn1 1.976739 1_556
O0 Sr0 2.588387 1_555
O0 Sr1 2.911315 1_555
O1 Zn1 1.976739 1_556
O1 Sr3 2.588387 1_555
O1 Sr2 2.911315 1_555
O2 Zn1 1.976739 1_555
O2 Sr2 2.588387 1_555
O2 Sr0 2.911315 1_555
O3 Zn1 1.976739 1_555
O3 Sr1 2.588387 1_555
O3 Sr3 2.911315 1_555
O4 Zn0 1.976739 1_656
O4 Sr0 2.588387 1_555
O4 Sr2 2.911315 1_655
O5 Zn0 1.976739 1_665
O5 Sr1 2.588387 1_555
O5 Sr0 2.911315 1_565
O6 Zn0 1.976739 1_555
O6 Sr2 2.588387 1_555
O6 Sr3 2.911315 1_545
O7 Zn0 1.976739 1_566
O7 Sr3 2.588387 1_555
O7 Sr1 2.911315 1_455
O8 Sr0 2.609771 1_555
O8 Sr2 2.781906 1_655
O8 Sr1 2.781906 1_555
O9 Sr1 2.609771 1_555
O9 Sr0 2.781906 1_565
O9 Sr3 2.781906 1_555
O10 Sr3 2.609886 1_545
O10 Sr0 2.609886 1_555
O11 Sr2 2.609886 1_555
O11 Sr1 2.609886 1_455
O12 Sr3 2.609771 1_555
O12 Sr2 2.781906 1_555
O12 Sr1 2.781906 1_455
O13 Sr2 2.609771 1_555
O13 Sr3 2.781906 1_545
O13 Sr0 2.781906 1_555
