# generated using pymatgen
data_KAs
_symmetry_space_group_name_H-M   'P 1'
_cell_length_a   4.75258800
_cell_length_b   7.89397400
_cell_length_c   8.56057300
_cell_angle_alpha   90.00000000
_cell_angle_beta   90.00000000
_cell_angle_gamma   90.00000000
_symmetry_Int_Tables_number   1
_chemical_formula_structural   KAs
_chemical_formula_sum   'K4 As4'
_cell_volume   321.16535739
_cell_formula_units_Z   4
loop_
 _symmetry_equiv_pos_site_id
 _symmetry_equiv_pos_as_xyz
  1  'x, y, z'
loop_
 _atom_site_type_symbol
 _atom_site_label
 _atom_site_symmetry_multiplicity
 _atom_site_fract_x
 _atom_site_fract_y
 _atom_site_fract_z
 _atom_site_occupancy
  K  K0  1  0.69513000  0.25000000  0.50000000  1
  K  K1  1  0.30487000  0.75000000  0.00000000  1
  K  K2  1  0.30487000  0.75000000  0.50000000  1
  K  K3  1  0.69513000  0.25000000  0.00000000  1
  As  As0  1  0.80701500  0.58813600  0.25000000  1
  As  As1  1  0.19298500  0.08813600  0.25000000  1
  As  As2  1  0.19298500  0.41186400  0.75000000  1
  As  As3  1  0.80701500  0.91186400  0.75000000  1
loop_
_geom_bond_atom_site_label_1
_geom_bond_atom_site_label_2
_geom_bond_distance
_geom_bond_site_symmetry_2
As0 K2 3.436755 1_655
As0 K1 3.436755 1_655
As0 K2 3.450824 1_555
As0 K1 3.450824 1_555
As0 K0 3.462339 1_555
As0 K3 3.462339 1_555
As1 K0 3.436755 1_455
As1 K3 3.436755 1_455
As1 K3 3.450824 1_555
As1 K0 3.450824 1_555
As1 K2 3.462339 1_545
As1 K1 3.462339 1_545
As2 K0 3.436755 1_455
As2 K3 3.436755 1_456
As2 K3 3.450824 1_556
As2 K0 3.450824 1_555
As2 K2 3.462339 1_555
As2 K1 3.462339 1_556
As3 K2 3.436755 1_655
As3 K1 3.436755 1_656
As3 K1 3.450824 1_556
As3 K2 3.450824 1_555
As3 K3 3.462339 1_566
As3 K0 3.462339 1_565
