# generated using pymatgen
data_Fe2P12W
_symmetry_space_group_name_H-M   'P 1'
_cell_length_a   5.68603000
_cell_length_b   11.12187200
_cell_length_c   13.75994900
_cell_angle_alpha   90.00000000
_cell_angle_beta   90.00000000
_cell_angle_gamma   90.00000000
_symmetry_Int_Tables_number   1
_chemical_formula_structural   Fe2P12W
_chemical_formula_sum   'Fe8 P48 W4'
_cell_volume   870.16951319
_cell_formula_units_Z   4
loop_
 _symmetry_equiv_pos_site_id
 _symmetry_equiv_pos_as_xyz
  1  'x, y, z'
loop_
 _atom_site_type_symbol
 _atom_site_label
 _atom_site_symmetry_multiplicity
 _atom_site_fract_x
 _atom_site_fract_y
 _atom_site_fract_z
 _atom_site_occupancy
  Fe  Fe0  1  0.89648200  0.95900200  0.34967500  1
  Fe  Fe1  1  0.60351800  0.45900200  0.15032500  1
  Fe  Fe2  1  0.60351800  0.04099800  0.84967500  1
  Fe  Fe3  1  0.89648200  0.54099800  0.65032500  1
  Fe  Fe4  1  0.10351800  0.04099800  0.65032500  1
  Fe  Fe5  1  0.39648200  0.54099800  0.84967500  1
  Fe  Fe6  1  0.39648200  0.95900200  0.15032500  1
  Fe  Fe7  1  0.10351800  0.45900200  0.34967500  1
  P  P0  1  0.01684600  0.69562300  0.16794400  1
  P  P1  1  0.48315400  0.19562300  0.33205600  1
  P  P2  1  0.48315400  0.30437700  0.66794400  1
  P  P3  1  0.01684600  0.80437700  0.83205600  1
  P  P4  1  0.98315400  0.30437700  0.83205600  1
  P  P5  1  0.51684600  0.80437700  0.66794400  1
  P  P6  1  0.51684600  0.69562300  0.33205600  1
  P  P7  1  0.98315400  0.19562300  0.16794400  1
  P  P8  1  0.88091300  0.77138100  0.31061400  1
  P  P9  1  0.61908700  0.27138100  0.18938600  1
  P  P10  1  0.61908700  0.22861900  0.81061400  1
  P  P11  1  0.88091300  0.72861900  0.68938600  1
  P  P12  1  0.11908700  0.22861900  0.68938600  1
  P  P13  1  0.38091300  0.72861900  0.81061400  1
  P  P14  1  0.38091300  0.77138100  0.18938600  1
  P  P15  1  0.11908700  0.27138100  0.31061400  1
  P  P16  1  0.74383100  0.89795600  0.49145600  1
  P  P17  1  0.75616900  0.39795600  0.00854400  1
  P  P18  1  0.75616900  0.10204400  0.99145600  1
  P  P19  1  0.74383100  0.60204400  0.50854400  1
  P  P20  1  0.25616900  0.10204400  0.50854400  1
  P  P21  1  0.24383100  0.60204400  0.99145600  1
  P  P22  1  0.24383100  0.89795600  0.00854400  1
  P  P23  1  0.25616900  0.39795600  0.49145600  1
  P  P24  1  0.56222600  0.64442400  0.08678900  1
  P  P25  1  0.93777400  0.14442400  0.41321100  1
  P  P26  1  0.93777400  0.35557600  0.58678900  1
  P  P27  1  0.56222600  0.85557600  0.91321100  1
  P  P28  1  0.43777400  0.35557600  0.91321100  1
  P  P29  1  0.06222600  0.85557600  0.58678900  1
  P  P30  1  0.06222600  0.64442400  0.41321100  1
  P  P31  1  0.43777400  0.14442400  0.08678900  1
  P  P32  1  0.76489500  0.93880700  0.09152400  1
  P  P33  1  0.73510500  0.43880700  0.40847600  1
  P  P34  1  0.73510500  0.06119300  0.59152400  1
  P  P35  1  0.76489500  0.56119300  0.90847600  1
  P  P36  1  0.23510500  0.06119300  0.90847600  1
  P  P37  1  0.26489500  0.56119300  0.59152400  1
  P  P38  1  0.26489500  0.93880700  0.40847600  1
  P  P39  1  0.23510500  0.43880700  0.09152400  1
  P  P40  1  0.53297000  0.99991600  0.29721300  1
  P  P41  1  0.96703000  0.49991600  0.20278700  1
  P  P42  1  0.96703000  0.00008400  0.79721300  1
  P  P43  1  0.53297000  0.50008400  0.70278700  1
  P  P44  1  0.46703000  0.00008400  0.70278700  1
  P  P45  1  0.03297000  0.50008400  0.79721300  1
  P  P46  1  0.03297000  0.99991600  0.20278700  1
  P  P47  1  0.46703000  0.49991600  0.29721300  1
  W  W0  1  0.89937400  0.75000000  0.00000000  1
  W  W1  1  0.60062600  0.25000000  0.50000000  1
  W  W2  1  0.10062600  0.25000000  0.00000000  1
  W  W3  1  0.39937400  0.75000000  0.50000000  1
loop_
_geom_bond_atom_site_label_1
_geom_bond_atom_site_label_2
_geom_bond_distance
_geom_bond_site_symmetry_2
Fe0 P8 2.156623 1_555
Fe0 P46 2.212349 1_655
Fe0 P40 2.236159 1_555
Fe0 P16 2.240616 1_555
Fe0 P25 2.252171 1_565
Fe0 P38 2.256836 1_655
Fe1 P9 2.156623 1_555
Fe1 P47 2.212349 1_555
Fe1 P41 2.236159 1_555
Fe1 P17 2.240616 1_555
Fe1 P24 2.252171 1_555
Fe1 P39 2.256836 1_555
Fe2 P10 2.156623 1_555
Fe2 P44 2.212349 1_555
Fe2 P42 2.236159 1_555
Fe2 P18 2.240616 1_555
Fe2 P27 2.252171 1_545
Fe2 P36 2.256836 1_555
Fe3 P11 2.156623 1_555
Fe3 P45 2.212349 1_655
Fe3 P43 2.236159 1_555
Fe3 P19 2.240616 1_555
Fe3 P26 2.252171 1_555
Fe3 P37 2.256836 1_655
Fe4 P12 2.156623 1_555
Fe4 P42 2.212349 1_455
Fe4 P44 2.236159 1_555
Fe4 P20 2.240616 1_555
Fe4 P29 2.252171 1_545
Fe4 P34 2.256836 1_455
Fe5 P13 2.156623 1_555
Fe5 P43 2.212349 1_555
Fe5 P45 2.236159 1_555
Fe5 P21 2.240616 1_555
Fe5 P28 2.252171 1_555
Fe5 P35 2.256836 1_555
Fe6 P14 2.156623 1_555
Fe6 P40 2.212349 1_555
Fe6 P46 2.236159 1_555
Fe6 P22 2.240616 1_555
Fe6 P31 2.252171 1_565
Fe6 P32 2.256836 1_555
Fe7 P15 2.156623 1_555
Fe7 P41 2.212349 1_455
Fe7 P47 2.236159 1_555
Fe7 P23 2.240616 1_555
Fe7 P30 2.252171 1_555
Fe7 P33 2.256836 1_455
P0 P41 2.246732 1_455
P0 P14 2.254389 1_555
P0 P8 2.271831 1_455
P0 W0 2.480357 1_455
P1 P40 2.246732 1_545
P1 P15 2.254389 1_555
P1 P9 2.271831 1_555
P1 W1 2.480357 1_555
P2 P43 2.246732 1_555
P2 W1 2.480357 1_555
P3 P42 2.246732 1_465
P3 W0 2.480357 1_456
P4 P45 2.246732 1_655
P4 W2 2.480357 1_656
P5 W3 2.480357 1_555
P6 P8 2.254389 1_555
P6 W3 2.480357 1_555
P7 P9 2.254389 1_555
P7 W2 2.480357 1_655
P10 P28 2.247128 1_555
P10 P4 2.254389 1_555
P10 P2 2.271831 1_555
P11 P29 2.247128 1_655
P11 P5 2.254389 1_555
P11 P3 2.271831 1_655
P12 P26 2.247128 1_455
P12 P2 2.254389 1_555
P12 P4 2.271831 1_455
P13 P27 2.247128 1_555
P13 P3 2.254389 1_555
P13 P5 2.271831 1_555
P14 P24 2.247128 1_555
P14 P6 2.271831 1_555
P15 P25 2.247128 1_455
P15 P7 2.271831 1_455
P16 P34 2.279132 1_565
P16 P29 2.284838 1_655
P16 W3 2.560807 1_555
P17 P35 2.279132 1_554
P17 P28 2.284838 1_554
P17 W2 2.560807 1_655
P18 P32 2.279132 1_546
P18 P31 2.284838 1_556
P18 W2 2.560807 1_656
P19 P33 2.279132 1_555
P19 P30 2.284838 1_655
P19 W3 2.560807 1_555
P20 P38 2.279132 1_545
P20 P25 2.284838 1_455
P20 W1 2.560807 1_555
P21 P39 2.279132 1_556
P21 P24 2.284838 1_556
P21 W0 2.560807 1_456
P22 P36 2.279132 1_564
P22 P27 2.284838 1_554
P22 W0 2.560807 1_455
P23 P37 2.279132 1_555
P23 P26 2.284838 1_455
P23 W1 2.560807 1_555
P24 W0 2.545567 1_555
P25 W1 2.545567 1_555
P26 W1 2.545567 1_555
P27 W0 2.545567 1_556
P28 W2 2.545567 1_556
P29 W3 2.545567 1_555
P30 P8 2.247128 1_455
P30 W3 2.545567 1_555
P31 P9 2.247128 1_555
P31 W2 2.545567 1_555
P32 P46 2.264782 1_655
P32 W0 2.565194 1_555
P33 P47 2.264782 1_555
P33 W1 2.565194 1_555
P34 P44 2.264782 1_555
P34 W1 2.565194 1_555
P35 P45 2.264782 1_655
P35 W0 2.565194 1_556
P36 P42 2.264782 1_455
P36 W2 2.565194 1_556
P37 P43 2.264782 1_555
P37 W3 2.565194 1_555
P38 P40 2.264782 1_555
P38 W3 2.565194 1_555
P39 P41 2.264782 1_455
P39 W2 2.565194 1_555
P44 P5 2.246732 1_545
P46 P7 2.246732 1_465
P47 P6 2.246732 1_555
