# generated using pymatgen
data_Sc4OsCl4
_symmetry_space_group_name_H-M   'P 1'
_cell_length_a   8.03291538
_cell_length_b   8.03291538
_cell_length_c   6.15670467
_cell_angle_alpha   89.50529240
_cell_angle_beta   89.50529240
_cell_angle_gamma   89.35312990
_symmetry_Int_Tables_number   1
_chemical_formula_structural   Sc4OsCl4
_chemical_formula_sum   'Sc8 Os2 Cl8'
_cell_volume   397.22356867
_cell_formula_units_Z   2
loop_
 _symmetry_equiv_pos_site_id
 _symmetry_equiv_pos_as_xyz
  1  'x, y, z'
loop_
 _atom_site_type_symbol
 _atom_site_label
 _atom_site_symmetry_multiplicity
 _atom_site_fract_x
 _atom_site_fract_y
 _atom_site_fract_z
 _atom_site_occupancy
  Sc  Sc0  1  0.10432550  0.74060841  0.98400161  1
  Sc  Sc1  1  0.25939159  0.89567450  0.51599839  1
  Sc  Sc2  1  0.89567450  0.25939159  0.01599839  1
  Sc  Sc3  1  0.74060841  0.10432550  0.48400161  1
  Sc  Sc4  1  0.74249953  0.89689839  0.01292332  1
  Sc  Sc5  1  0.10310161  0.25750047  0.48707668  1
  Sc  Sc6  1  0.25750047  0.10310161  0.98707668  1
  Sc  Sc7  1  0.89689839  0.74249953  0.51292332  1
  Os  Os0  1  0.00974359  0.99025641  0.25000000  1
  Os  Os1  1  0.99025641  0.00974359  0.75000000  1
  Cl  Cl0  1  0.42305128  0.81834658  0.89799499  1
  Cl  Cl1  1  0.18165342  0.57694872  0.60200501  1
  Cl  Cl2  1  0.57694872  0.18165342  0.10200501  1
  Cl  Cl3  1  0.81834658  0.42305128  0.39799499  1
  Cl  Cl4  1  0.80712009  0.58069739  0.89687436  1
  Cl  Cl5  1  0.41930261  0.19287991  0.60312564  1
  Cl  Cl6  1  0.19287991  0.41930261  0.10312564  1
  Cl  Cl7  1  0.58069739  0.80712009  0.39687436  1
loop_
_geom_bond_atom_site_label_1
_geom_bond_atom_site_label_2
_geom_bond_distance
_geom_bond_site_symmetry_2
Os0 Sc0 2.698459 1_554
Os0 Sc1 2.698459 1_555
Os0 Sc7 2.713434 1_455
Os0 Sc6 2.713434 1_564
Os0 Sc4 2.722272 1_455
Os0 Sc5 2.722272 1_565
Os0 Sc2 2.741066 1_465
Os0 Sc3 2.741066 1_465
Os1 Sc3 2.698459 1_555
Os1 Sc2 2.698459 1_556
Os1 Sc5 2.713434 1_655
Os1 Sc4 2.713434 1_546
Os1 Sc7 2.722272 1_545
Os1 Sc6 2.722272 1_655
Os1 Sc1 2.741066 1_645
Os1 Sc0 2.741066 1_645
Cl0 Sc0 2.689321 1_555
Cl0 Sc6 2.691088 1_565
Cl0 Sc4 2.749423 1_556
Cl0 Sc1 2.766780 1_555
Cl1 Sc1 2.689321 1_555
Cl1 Sc7 2.691088 1_455
Cl1 Sc5 2.749423 1_555
Cl1 Sc0 2.766780 1_555
Cl2 Sc2 2.689321 1_555
Cl2 Sc4 2.691088 1_545
Cl2 Sc6 2.749423 1_554
Cl2 Sc3 2.766780 1_555
Cl3 Sc3 2.689321 1_555
Cl3 Sc5 2.691088 1_655
Cl3 Sc7 2.749423 1_555
Cl3 Sc2 2.766780 1_555
Cl4 Sc4 2.688267 1_556
Cl4 Sc2 2.764137 1_556
Cl4 Sc7 2.781367 1_555
Cl4 Sc0 2.782243 1_655
Cl5 Sc5 2.688267 1_555
Cl5 Sc3 2.764137 1_555
Cl5 Sc6 2.781367 1_555
Cl5 Sc1 2.782243 1_545
Cl6 Sc6 2.688267 1_554
Cl6 Sc0 2.764137 1_554
Cl6 Sc5 2.781367 1_555
Cl6 Sc2 2.782243 1_455
Cl7 Sc7 2.688267 1_555
Cl7 Sc1 2.764137 1_555
Cl7 Sc4 2.781367 1_555
Cl7 Sc3 2.782243 1_565
