# generated using pymatgen
data_ScC3(N3F2)3
_symmetry_space_group_name_H-M   'P 1'
_cell_length_a   13.17568100
_cell_length_b   13.17568100
_cell_length_c   13.17568100
_cell_angle_alpha   90.00000000
_cell_angle_beta   90.00000000
_cell_angle_gamma   90.00000000
_symmetry_Int_Tables_number   1
_chemical_formula_structural   ScC3(N3F2)3
_chemical_formula_sum   'Sc8 C24 N72 F48'
_cell_volume   2287.27937792
_cell_formula_units_Z   8
loop_
 _symmetry_equiv_pos_site_id
 _symmetry_equiv_pos_as_xyz
  1  'x, y, z'
loop_
 _atom_site_type_symbol
 _atom_site_label
 _atom_site_symmetry_multiplicity
 _atom_site_fract_x
 _atom_site_fract_y
 _atom_site_fract_z
 _atom_site_occupancy
  Sc  Sc0  1  0.50000000  0.00000000  0.00000000  1
  Sc  Sc1  1  0.50000000  0.50000000  0.50000000  1
  Sc  Sc2  1  0.00000000  0.00000000  0.50000000  1
  Sc  Sc3  1  0.00000000  0.50000000  0.00000000  1
  Sc  Sc4  1  0.00000000  0.00000000  0.00000000  1
  Sc  Sc5  1  0.00000000  0.50000000  0.50000000  1
  Sc  Sc6  1  0.50000000  0.00000000  0.50000000  1
  Sc  Sc7  1  0.50000000  0.50000000  0.00000000  1
  C  C0  1  0.73837800  0.04100500  0.21424300  1
  C  C1  1  0.26162200  0.54100500  0.28575700  1
  C  C2  1  0.76162200  0.95899500  0.71424300  1
  C  C3  1  0.23837800  0.45899500  0.78575700  1
  C  C4  1  0.21424300  0.73837800  0.04100500  1
  C  C5  1  0.28575700  0.26162200  0.54100500  1
  C  C6  1  0.71424300  0.76162200  0.95899500  1
  C  C7  1  0.78575700  0.23837800  0.45899500  1
  C  C8  1  0.04100500  0.21424300  0.73837800  1
  C  C9  1  0.54100500  0.28575700  0.26162200  1
  C  C10  1  0.95899500  0.71424300  0.76162200  1
  C  C11  1  0.45899500  0.78575700  0.23837800  1
  C  C12  1  0.26162200  0.95899500  0.78575700  1
  C  C13  1  0.73837800  0.45899500  0.71424300  1
  C  C14  1  0.23837800  0.04100500  0.28575700  1
  C  C15  1  0.76162200  0.54100500  0.21424300  1
  C  C16  1  0.78575700  0.26162200  0.95899500  1
  C  C17  1  0.71424300  0.73837800  0.45899500  1
  C  C18  1  0.28575700  0.23837800  0.04100500  1
  C  C19  1  0.21424300  0.76162200  0.54100500  1
  C  C20  1  0.95899500  0.78575700  0.26162200  1
  C  C21  1  0.45899500  0.71424300  0.73837800  1
  C  C22  1  0.04100500  0.28575700  0.23837800  1
  C  C23  1  0.54100500  0.21424300  0.76162200  1
  N  N0  1  0.75851200  0.03679300  0.11186800  1
  N  N1  1  0.24148800  0.53679300  0.38813200  1
  N  N2  1  0.74148800  0.96320700  0.61186800  1
  N  N3  1  0.25851200  0.46320700  0.88813200  1
  N  N4  1  0.11186800  0.75851200  0.03679300  1
  N  N5  1  0.38813200  0.24148800  0.53679300  1
  N  N6  1  0.61186800  0.74148800  0.96320700  1
  N  N7  1  0.88813200  0.25851200  0.46320700  1
  N  N8  1  0.03679300  0.11186800  0.75851200  1
  N  N9  1  0.53679300  0.38813200  0.24148800  1
  N  N10  1  0.96320700  0.61186800  0.74148800  1
  N  N11  1  0.46320700  0.88813200  0.25851200  1
  N  N12  1  0.24148800  0.96320700  0.88813200  1
  N  N13  1  0.75851200  0.46320700  0.61186800  1
  N  N14  1  0.25851200  0.03679300  0.38813200  1
  N  N15  1  0.74148800  0.53679300  0.11186800  1
  N  N16  1  0.88813200  0.24148800  0.96320700  1
  N  N17  1  0.61186800  0.75851200  0.46320700  1
  N  N18  1  0.38813200  0.25851200  0.03679300  1
  N  N19  1  0.11186800  0.74148800  0.53679300  1
  N  N20  1  0.96320700  0.88813200  0.24148800  1
  N  N21  1  0.46320700  0.61186800  0.75851200  1
  N  N22  1  0.03679300  0.38813200  0.25851200  1
  N  N23  1  0.53679300  0.11186800  0.74148800  1
  N  N24  1  0.82086100  0.06757900  0.26729400  1
  N  N25  1  0.17913900  0.56757900  0.23270600  1
  N  N26  1  0.67913900  0.93242100  0.76729400  1
  N  N27  1  0.32086100  0.43242100  0.73270600  1
  N  N28  1  0.26729400  0.82086100  0.06757900  1
  N  N29  1  0.23270600  0.17913900  0.56757900  1
  N  N30  1  0.76729400  0.67913900  0.93242100  1
  N  N31  1  0.73270600  0.32086100  0.43242100  1
  N  N32  1  0.06757900  0.26729400  0.82086100  1
  N  N33  1  0.56757900  0.23270600  0.17913900  1
  N  N34  1  0.93242100  0.76729400  0.67913900  1
  N  N35  1  0.43242100  0.73270600  0.32086100  1
  N  N36  1  0.17913900  0.93242100  0.73270600  1
  N  N37  1  0.82086100  0.43242100  0.76729400  1
  N  N38  1  0.32086100  0.06757900  0.23270600  1
  N  N39  1  0.67913900  0.56757900  0.26729400  1
  N  N40  1  0.73270600  0.17913900  0.93242100  1
  N  N41  1  0.76729400  0.82086100  0.43242100  1
  N  N42  1  0.23270600  0.32086100  0.06757900  1
  N  N43  1  0.26729400  0.67913900  0.56757900  1
  N  N44  1  0.93242100  0.73270600  0.17913900  1
  N  N45  1  0.43242100  0.76729400  0.82086100  1
  N  N46  1  0.06757900  0.23270600  0.32086100  1
  N  N47  1  0.56757900  0.26729400  0.67913900  1
  N  N48  1  0.64479800  0.02186800  0.25243700  1
  N  N49  1  0.35520200  0.52186800  0.24756300  1
  N  N50  1  0.85520200  0.97813200  0.75243700  1
  N  N51  1  0.14479800  0.47813200  0.74756300  1
  N  N52  1  0.25243700  0.64479800  0.02186800  1
  N  N53  1  0.24756300  0.35520200  0.52186800  1
  N  N54  1  0.75243700  0.85520200  0.97813200  1
  N  N55  1  0.74756300  0.14479800  0.47813200  1
  N  N56  1  0.02186800  0.25243700  0.64479800  1
  N  N57  1  0.52186800  0.24756300  0.35520200  1
  N  N58  1  0.97813200  0.75243700  0.85520200  1
  N  N59  1  0.47813200  0.74756300  0.14479800  1
  N  N60  1  0.35520200  0.97813200  0.74756300  1
  N  N61  1  0.64479800  0.47813200  0.75243700  1
  N  N62  1  0.14479800  0.02186800  0.24756300  1
  N  N63  1  0.85520200  0.52186800  0.25243700  1
  N  N64  1  0.74756300  0.35520200  0.97813200  1
  N  N65  1  0.75243700  0.64479800  0.47813200  1
  N  N66  1  0.24756300  0.14479800  0.02186800  1
  N  N67  1  0.25243700  0.85520200  0.52186800  1
  N  N68  1  0.97813200  0.74756300  0.35520200  1
  N  N69  1  0.47813200  0.75243700  0.64479800  1
  N  N70  1  0.02186800  0.24756300  0.14479800  1
  N  N71  1  0.52186800  0.25243700  0.85520200  1
  F  F0  1  0.87589300  0.05922600  0.92448300  1
  F  F1  1  0.12410700  0.55922600  0.57551700  1
  F  F2  1  0.62410700  0.94077400  0.42448300  1
  F  F3  1  0.37589300  0.44077400  0.07551700  1
  F  F4  1  0.92448300  0.87589300  0.05922600  1
  F  F5  1  0.57551700  0.12410700  0.55922600  1
  F  F6  1  0.42448300  0.62410700  0.94077400  1
  F  F7  1  0.07551700  0.37589300  0.44077400  1
  F  F8  1  0.05922600  0.92448300  0.87589300  1
  F  F9  1  0.55922600  0.57551700  0.12410700  1
  F  F10  1  0.94077400  0.42448300  0.62410700  1
  F  F11  1  0.44077400  0.07551700  0.37589300  1
  F  F12  1  0.12410700  0.94077400  0.07551700  1
  F  F13  1  0.87589300  0.44077400  0.42448300  1
  F  F14  1  0.37589300  0.05922600  0.57551700  1
  F  F15  1  0.62410700  0.55922600  0.92448300  1
  F  F16  1  0.07551700  0.12410700  0.94077400  1
  F  F17  1  0.42448300  0.87589300  0.44077400  1
  F  F18  1  0.57551700  0.37589300  0.05922600  1
  F  F19  1  0.92448300  0.62410700  0.55922600  1
  F  F20  1  0.94077400  0.07551700  0.12410700  1
  F  F21  1  0.44077400  0.42448300  0.87589300  1
  F  F22  1  0.05922600  0.57551700  0.37589300  1
  F  F23  1  0.55922600  0.92448300  0.62410700  1
  F  F24  1  0.47022400  0.94143500  0.14139900  1
  F  F25  1  0.52977600  0.44143500  0.35860100  1
  F  F26  1  0.02977600  0.05856500  0.64139900  1
  F  F27  1  0.97022400  0.55856500  0.85860100  1
  F  F28  1  0.14139900  0.47022400  0.94143500  1
  F  F29  1  0.35860100  0.52977600  0.44143500  1
  F  F30  1  0.64139900  0.02977600  0.05856500  1
  F  F31  1  0.85860100  0.97022400  0.55856500  1
  F  F32  1  0.94143500  0.14139900  0.47022400  1
  F  F33  1  0.44143500  0.35860100  0.52977600  1
  F  F34  1  0.05856500  0.64139900  0.02977600  1
  F  F35  1  0.55856500  0.85860100  0.97022400  1
  F  F36  1  0.52977600  0.05856500  0.85860100  1
  F  F37  1  0.47022400  0.55856500  0.64139900  1
  F  F38  1  0.97022400  0.94143500  0.35860100  1
  F  F39  1  0.02977600  0.44143500  0.14139900  1
  F  F40  1  0.85860100  0.52977600  0.05856500  1
  F  F41  1  0.64139900  0.47022400  0.55856500  1
  F  F42  1  0.35860100  0.97022400  0.94143500  1
  F  F43  1  0.14139900  0.02977600  0.44143500  1
  F  F44  1  0.05856500  0.85860100  0.52977600  1
  F  F45  1  0.55856500  0.64139900  0.47022400  1
  F  F46  1  0.94143500  0.35860100  0.97022400  1
  F  F47  1  0.44143500  0.14139900  0.02977600  1
loop_
_geom_bond_atom_site_label_1
_geom_bond_atom_site_label_2
_geom_bond_distance
_geom_bond_site_symmetry_2
C0 N24 1.338745 1_555
C0 N48 1.355381 1_555
C0 N0 1.375819 1_555
C1 N25 1.338745 1_555
C1 N49 1.355381 1_555
C1 N1 1.375819 1_555
C2 N26 1.338745 1_555
C2 N50 1.355381 1_555
C2 N2 1.375819 1_555
C3 N27 1.338745 1_555
C3 N51 1.355381 1_555
C3 N3 1.375819 1_555
C4 N28 1.338745 1_555
C4 N52 1.355381 1_555
C4 N4 1.375819 1_555
C5 N29 1.338745 1_555
C5 N53 1.355381 1_555
C5 N5 1.375819 1_555
C6 N30 1.338745 1_555
C6 N54 1.355381 1_555
C6 N6 1.375819 1_555
C7 N31 1.338745 1_555
C7 N55 1.355381 1_555
C7 N7 1.375819 1_555
C8 N32 1.338745 1_555
C8 N56 1.355381 1_555
C8 N8 1.375819 1_555
C9 N33 1.338745 1_555
C9 N57 1.355381 1_555
C9 N9 1.375819 1_555
C10 N34 1.338745 1_555
C10 N58 1.355381 1_555
C10 N10 1.375819 1_555
C11 N35 1.338745 1_555
C11 N59 1.355381 1_555
C11 N11 1.375819 1_555
C12 N36 1.338745 1_555
C12 N60 1.355381 1_555
C12 N12 1.375819 1_555
C13 N37 1.338745 1_555
C13 N61 1.355381 1_555
C13 N13 1.375819 1_555
C14 N38 1.338745 1_555
C14 N62 1.355381 1_555
C14 N14 1.375819 1_555
C15 N39 1.338745 1_555
C15 N63 1.355381 1_555
C15 N15 1.375819 1_555
C16 N40 1.338745 1_555
C16 N64 1.355381 1_555
C16 N16 1.375819 1_555
C17 N41 1.338745 1_555
C17 N65 1.355381 1_555
C17 N17 1.375819 1_555
C18 N42 1.338745 1_555
C18 N66 1.355381 1_555
C18 N18 1.375819 1_555
C19 N43 1.338745 1_555
C19 N67 1.355381 1_555
C19 N19 1.375819 1_555
C20 N44 1.338745 1_555
C20 N68 1.355381 1_555
C20 N20 1.375819 1_555
C21 N45 1.338745 1_555
C21 N69 1.355381 1_555
C21 N21 1.375819 1_555
C22 N46 1.338745 1_555
C22 N70 1.355381 1_555
C22 N22 1.375819 1_555
C23 N47 1.338745 1_555
C23 N71 1.355381 1_555
C23 N23 1.375819 1_555
F0 Sc4 2.067074 1_656
F1 Sc5 2.067074 1_555
F2 Sc6 2.067074 1_565
F3 Sc7 2.067074 1_555
F4 Sc4 2.067074 1_665
F5 Sc6 2.067074 1_555
F6 Sc7 2.067074 1_556
F7 Sc5 2.067074 1_555
F8 Sc4 2.067074 1_566
F9 Sc7 2.067074 1_555
F10 Sc5 2.067074 1_655
F11 Sc6 2.067074 1_555
F12 Sc4 2.067074 1_565
F13 Sc5 2.067074 1_655
F14 Sc6 2.067074 1_555
F15 Sc7 2.067074 1_556
F16 Sc4 2.067074 1_556
F17 Sc6 2.067074 1_565
F18 Sc7 2.067074 1_555
F19 Sc5 2.067074 1_655
F20 Sc4 2.067074 1_655
F21 Sc7 2.067074 1_556
F22 Sc5 2.067074 1_555
F23 Sc6 2.067074 1_565
F24 N11 1.697870 1_555
F24 Sc0 2.054314 1_565
F25 N9 1.697870 1_555
F25 Sc1 2.054314 1_555
F26 N8 1.697870 1_555
F26 Sc2 2.054314 1_555
F27 N10 1.697870 1_555
F27 Sc3 2.054314 1_656
F28 N3 1.697870 1_555
F28 Sc3 2.054314 1_556
F29 N1 1.697870 1_555
F29 Sc1 2.054314 1_555
F30 N0 1.697870 1_555
F30 Sc0 2.054314 1_555
F31 N2 1.697870 1_555
F31 Sc2 2.054314 1_665
F32 N7 1.697870 1_555
F32 Sc2 2.054314 1_655
F33 N5 1.697870 1_555
F33 Sc1 2.054314 1_555
F34 N4 1.697870 1_555
F34 Sc3 2.054314 1_555
F35 N6 1.697870 1_555
F35 Sc0 2.054314 1_566
F36 N23 1.697870 1_555
F36 Sc0 2.054314 1_556
F37 N21 1.697870 1_555
F37 Sc1 2.054314 1_555
F38 N20 1.697870 1_555
F38 Sc2 2.054314 1_665
F39 N22 1.697870 1_555
F39 Sc3 2.054314 1_555
F40 N15 1.697870 1_555
F40 Sc3 2.054314 1_655
F41 N13 1.697870 1_555
F41 Sc1 2.054314 1_555
F42 N12 1.697870 1_555
F42 Sc0 2.054314 1_566
F43 N14 1.697870 1_555
F43 Sc2 2.054314 1_555
F44 N19 1.697870 1_555
F44 Sc2 2.054314 1_565
F45 N17 1.697870 1_555
F45 Sc1 2.054314 1_555
F46 N16 1.697870 1_555
F46 Sc3 2.054314 1_656
F47 N18 1.697870 1_555
F47 Sc0 2.054314 1_555
