# generated using pymatgen
data_CeCo5P3
_symmetry_space_group_name_H-M   'P 1'
_cell_length_a   3.70954453
_cell_length_b   10.29681511
_cell_length_c   11.65471761
_cell_angle_alpha   90.00000000
_cell_angle_beta   90.00000000
_cell_angle_gamma   90.00000000
_symmetry_Int_Tables_number   1
_chemical_formula_structural   CeCo5P3
_chemical_formula_sum   'Ce4 Co20 P12'
_cell_volume   445.16935322
_cell_formula_units_Z   4
loop_
 _symmetry_equiv_pos_site_id
 _symmetry_equiv_pos_as_xyz
  1  'x, y, z'
loop_
 _atom_site_type_symbol
 _atom_site_label
 _atom_site_symmetry_multiplicity
 _atom_site_fract_x
 _atom_site_fract_y
 _atom_site_fract_z
 _atom_site_occupancy
  Ce  Ce0  1  0.25000000  0.58321800  0.69992228  1
  Ce  Ce1  1  0.25000000  0.91678200  0.19992228  1
  Ce  Ce2  1  0.75000000  0.41678200  0.30007772  1
  Ce  Ce3  1  0.75000000  0.08321800  0.80007772  1
  Co  Co0  1  0.25000000  0.70903522  0.99060155  1
  Co  Co1  1  0.25000000  0.79096478  0.49060155  1
  Co  Co2  1  0.75000000  0.29096478  0.00939845  1
  Co  Co3  1  0.75000000  0.20903522  0.50939845  1
  Co  Co4  1  0.25000000  0.40397610  0.48538842  1
  Co  Co5  1  0.25000000  0.09602390  0.98538842  1
  Co  Co6  1  0.75000000  0.59602390  0.51461158  1
  Co  Co7  1  0.75000000  0.90397610  0.01461158  1
  Co  Co8  1  0.25000000  0.22048244  0.17337319  1
  Co  Co9  1  0.25000000  0.27951756  0.67337319  1
  Co  Co10  1  0.75000000  0.77951756  0.82662681  1
  Co  Co11  1  0.75000000  0.72048244  0.32662681  1
  Co  Co12  1  0.25000000  0.88439260  0.69817844  1
  Co  Co13  1  0.25000000  0.61560740  0.19817844  1
  Co  Co14  1  0.75000000  0.11560740  0.30182156  1
  Co  Co15  1  0.75000000  0.38439260  0.80182156  1
  Co  Co16  1  0.25000000  0.47000928  0.93294460  1
  Co  Co17  1  0.25000000  0.02999072  0.43294460  1
  Co  Co18  1  0.75000000  0.52999072  0.06705540  1
  Co  Co19  1  0.75000000  0.97000928  0.56705540  1
  P  P0  1  0.25000000  0.41929899  0.11211321  1
  P  P1  1  0.25000000  0.08070101  0.61211321  1
  P  P2  1  0.75000000  0.58070101  0.88788679  1
  P  P3  1  0.75000000  0.91929899  0.38788679  1
  P  P4  1  0.25000000  0.27828489  0.86489867  1
  P  P5  1  0.25000000  0.22171511  0.36489867  1
  P  P6  1  0.75000000  0.72171511  0.13510133  1
  P  P7  1  0.75000000  0.77828489  0.63510133  1
  P  P8  1  0.25000000  0.60619388  0.39441770  1
  P  P9  1  0.25000000  0.89380612  0.89441770  1
  P  P10  1  0.75000000  0.39380612  0.60558230  1
  P  P11  1  0.75000000  0.10619388  0.10558230  1
loop_
_geom_bond_atom_site_label_1
_geom_bond_atom_site_label_2
_geom_bond_distance
_geom_bond_site_symmetry_2
Ce0 P7 2.836417 1_555
Ce0 P7 2.836417 1_455
Ce0 Co6 2.849923 1_455
Ce0 Co6 2.849923 1_555
Ce0 P2 2.870523 1_455
Ce0 P2 2.870523 1_555
Ce0 P10 2.907390 1_555
Ce0 P10 2.907390 1_455
Ce0 Co16 2.955411 1_555
Ce0 Co15 3.006975 1_555
Ce0 Co15 3.006975 1_455
Ce0 Co12 3.101206 1_555
Ce0 Co4 3.107728 1_555
Ce0 Co10 3.115499 1_455
Ce0 Co10 3.115499 1_555
Ce0 Co9 3.142418 1_555
Ce0 Co1 3.244595 1_555
Ce1 P6 2.836417 1_455
Ce1 P6 2.836417 1_555
Ce1 Co7 2.849923 1_455
Ce1 Co7 2.849923 1_555
Ce1 P3 2.870523 1_555
Ce1 P3 2.870523 1_455
Ce1 P11 2.907390 1_565
Ce1 P11 2.907390 1_465
Ce1 Co17 2.955411 1_565
Ce1 Co14 3.006975 1_565
Ce1 Co14 3.006975 1_465
Ce1 Co13 3.101206 1_555
Ce1 Co5 3.107728 1_564
Ce1 Co11 3.115499 1_455
Ce1 Co11 3.115499 1_555
Ce1 Co8 3.142418 1_565
Ce1 Co0 3.244595 1_554
Ce2 P5 2.836417 1_655
Ce2 P5 2.836417 1_555
Ce2 Co4 2.849923 1_655
Ce2 Co4 2.849923 1_555
Ce2 P0 2.870523 1_555
Ce2 P0 2.870523 1_655
Ce2 P8 2.907390 1_655
Ce2 P8 2.907390 1_555
Ce2 Co18 2.955411 1_555
Ce2 Co13 3.006975 1_555
Ce2 Co13 3.006975 1_655
Ce2 Co14 3.101206 1_555
Ce2 Co6 3.107728 1_555
Ce2 Co8 3.115499 1_555
Ce2 Co8 3.115499 1_655
Ce2 Co11 3.142418 1_555
Ce2 Co3 3.244595 1_555
Ce3 P4 2.836417 1_655
Ce3 P4 2.836417 1_555
Ce3 Co5 2.849923 1_555
Ce3 Co5 2.849923 1_655
Ce3 P1 2.870523 1_655
Ce3 P1 2.870523 1_555
Ce3 P9 2.907390 1_545
Ce3 P9 2.907390 1_645
Ce3 Co19 2.955411 1_545
Ce3 Co12 3.006975 1_645
Ce3 Co12 3.006975 1_545
Ce3 Co15 3.101206 1_555
Ce3 Co7 3.107728 1_546
Ce3 Co9 3.115499 1_555
Ce3 Co9 3.115499 1_655
Ce3 Co10 3.142418 1_545
Ce3 Co2 3.244595 1_556
Co0 P9 2.208242 1_555
Co0 P6 2.508672 1_556
Co0 P6 2.508672 1_456
Co0 P2 2.572828 1_555
Co0 P2 2.572828 1_455
Co1 P8 2.208242 1_555
Co1 P7 2.508672 1_555
Co1 P7 2.508672 1_455
Co1 P3 2.572828 1_455
Co1 P3 2.572828 1_555
Co2 P11 2.208242 1_555
Co2 P4 2.508672 1_654
Co2 P4 2.508672 1_554
Co2 P0 2.572828 1_655
Co2 P0 2.572828 1_555
Co3 P10 2.208242 1_555
Co3 P5 2.508672 1_555
Co3 P5 2.508672 1_655
Co3 P1 2.572828 1_555
Co3 P1 2.572828 1_655
Co4 P10 2.326684 1_555
Co4 P10 2.326684 1_455
Co4 P8 2.336591 1_555
Co4 P5 2.343932 1_555
Co5 P11 2.326684 1_456
Co5 P11 2.326684 1_556
Co5 P9 2.336591 1_545
Co5 P4 2.343932 1_555
Co6 P8 2.326684 1_655
Co6 P8 2.326684 1_555
Co6 P10 2.336591 1_555
Co6 P7 2.343932 1_555
Co7 P9 2.326684 1_554
Co7 P9 2.326684 1_654
Co7 P11 2.336591 1_565
Co7 P6 2.343932 1_555
Co8 P0 2.168106 1_555
Co8 P5 2.232211 1_555
Co8 P11 2.334371 1_555
Co8 P11 2.334371 1_455
Co9 P1 2.168106 1_555
Co9 P4 2.232211 1_555
Co9 P10 2.334371 1_555
Co9 P10 2.334371 1_455
Co10 P2 2.168106 1_555
Co10 P7 2.232211 1_555
Co10 P9 2.334371 1_655
Co10 P9 2.334371 1_555
Co11 P3 2.168106 1_555
Co11 P6 2.232211 1_555
Co11 P8 2.334371 1_655
Co11 P8 2.334371 1_555
Co12 P1 2.256547 1_565
Co12 P7 2.274716 1_455
Co12 P7 2.274716 1_555
Co12 P9 2.289166 1_555
Co13 P0 2.256547 1_555
Co13 P6 2.274716 1_555
Co13 P6 2.274716 1_455
Co13 P8 2.289166 1_555
Co14 P3 2.256547 1_545
Co14 P5 2.274716 1_655
Co14 P5 2.274716 1_555
Co14 P11 2.289166 1_555
Co15 P2 2.256547 1_555
Co15 P4 2.274716 1_655
Co15 P4 2.274716 1_555
Co15 P10 2.289166 1_555
Co16 P4 2.127489 1_555
Co16 P0 2.152453 1_556
Co16 P2 2.239426 1_555
Co16 P2 2.239426 1_455
Co17 P5 2.127489 1_555
Co17 P1 2.152453 1_555
Co17 P3 2.239426 1_445
Co17 P3 2.239426 1_545
Co18 P6 2.127489 1_555
Co18 P2 2.152453 1_554
Co18 P0 2.239426 1_555
Co18 P0 2.239426 1_655
Co19 P7 2.127489 1_555
Co19 P3 2.152453 1_555
Co19 P1 2.239426 1_565
Co19 P1 2.239426 1_665
