# generated using pymatgen
data_Cd2Ga2Se5
_symmetry_space_group_name_H-M   'P 1'
_cell_length_a   6.74063700
_cell_length_b   7.22394300
_cell_length_c   10.85031011
_cell_angle_alpha   70.81457721
_cell_angle_beta   90.00000000
_cell_angle_gamma   90.00000000
_symmetry_Int_Tables_number   1
_chemical_formula_structural   Cd2Ga2Se5
_chemical_formula_sum   'Cd4 Ga4 Se10'
_cell_volume   499.00049383
_cell_formula_units_Z   2
loop_
 _symmetry_equiv_pos_site_id
 _symmetry_equiv_pos_as_xyz
  1  'x, y, z'
loop_
 _atom_site_type_symbol
 _atom_site_label
 _atom_site_symmetry_multiplicity
 _atom_site_fract_x
 _atom_site_fract_y
 _atom_site_fract_z
 _atom_site_occupancy
  Cd  Cd0  1  0.51188500  0.65510600  0.88084500  1
  Cd  Cd1  1  0.48791900  0.42762900  0.31755800  1
  Cd  Cd2  1  0.01188500  0.34489400  0.11915500  1
  Cd  Cd3  1  0.98791900  0.57237100  0.68244200  1
  Ga  Ga0  1  0.50577900  0.85031600  0.49508800  1
  Ga  Ga1  1  0.50084100  0.02076500  0.10328600  1
  Ga  Ga2  1  0.00084100  0.97923500  0.89671400  1
  Ga  Ga3  1  0.00577900  0.14968400  0.50491200  1
  Se  Se0  1  0.10903700  0.65005500  0.90021900  1
  Se  Se1  1  0.14127400  0.21566100  0.69984200  1
  Se  Se2  1  0.13916400  0.85440400  0.47375600  1
  Se  Se3  1  0.09435100  0.44374300  0.32739100  1
  Se  Se4  1  0.13474900  0.00070400  0.10238800  1
  Se  Se5  1  0.60903700  0.34994500  0.09978100  1
  Se  Se6  1  0.63474900  0.99929600  0.89761200  1
  Se  Se7  1  0.59435100  0.55625700  0.67260900  1
  Se  Se8  1  0.63916400  0.14559600  0.52624400  1
  Se  Se9  1  0.64127400  0.78433900  0.30015800  1
loop_
_geom_bond_atom_site_label_1
_geom_bond_atom_site_label_2
_geom_bond_distance
_geom_bond_site_symmetry_2
Cd0 Se7 2.642787 1_555
Cd0 Se6 2.683005 1_555
Cd0 Se0 2.722896 1_555
Cd0 Se5 2.736742 1_556
Cd1 Se3 2.659129 1_555
Cd1 Se8 2.699132 1_555
Cd1 Se9 2.724815 1_555
Cd1 Se5 2.727000 1_555
Cd2 Se3 2.642787 1_555
Cd2 Se4 2.683005 1_555
Cd2 Se5 2.722896 1_455
Cd2 Se0 2.736742 1_554
Cd3 Se7 2.659129 1_555
Cd3 Se2 2.699132 1_655
Cd3 Se1 2.724815 1_655
Cd3 Se0 2.727000 1_655
Ga0 Se7 2.426885 1_555
Ga0 Se8 2.438577 1_565
Ga0 Se2 2.481305 1_555
Ga0 Se9 2.489440 1_555
Ga1 Se9 2.445040 1_545
Ga1 Se6 2.458947 1_544
Ga1 Se4 2.472152 1_555
Ga1 Se5 2.475617 1_555
Ga2 Se1 2.445040 1_565
Ga2 Se4 2.458947 1_566
Ga2 Se6 2.472152 1_455
Ga2 Se0 2.475617 1_555
Ga3 Se3 2.426885 1_555
Ga3 Se2 2.438577 1_545
Ga3 Se8 2.481305 1_455
Ga3 Se1 2.489440 1_555
