# generated using pymatgen
data_Ho2Al3Ge4
_symmetry_space_group_name_H-M   'P 1'
_cell_length_a   8.00445117
_cell_length_b   8.00445117
_cell_length_c   7.88249500
_cell_angle_alpha   90.00000000
_cell_angle_beta   90.00000000
_cell_angle_gamma   135.84373499
_symmetry_Int_Tables_number   1
_chemical_formula_structural   Ho2Al3Ge4
_chemical_formula_sum   'Ho4 Al6 Ge8'
_cell_volume   351.82063503
_cell_formula_units_Z   2
loop_
 _symmetry_equiv_pos_site_id
 _symmetry_equiv_pos_as_xyz
  1  'x, y, z'
loop_
 _atom_site_type_symbol
 _atom_site_label
 _atom_site_symmetry_multiplicity
 _atom_site_fract_x
 _atom_site_fract_y
 _atom_site_fract_z
 _atom_site_occupancy
  Ho  Ho0  1  0.11350800  0.88649200  0.41756800  1
  Ho  Ho1  1  0.88649200  0.11350800  0.58243200  1
  Ho  Ho2  1  0.38649200  0.61350800  0.91756800  1
  Ho  Ho3  1  0.61350800  0.38649200  0.08243200  1
  Al  Al0  1  0.00000000  0.00000000  0.00000000  1
  Al  Al1  1  0.50000000  0.50000000  0.50000000  1
  Al  Al2  1  0.03213400  0.46786600  0.25000000  1
  Al  Al3  1  0.46786600  0.03213400  0.75000000  1
  Al  Al4  1  0.96786600  0.53213400  0.75000000  1
  Al  Al5  1  0.53213400  0.96786600  0.25000000  1
  Ge  Ge0  1  0.20286400  0.29713600  0.25000000  1
  Ge  Ge1  1  0.29713600  0.20286400  0.75000000  1
  Ge  Ge2  1  0.79713600  0.70286400  0.75000000  1
  Ge  Ge3  1  0.70286400  0.79713600  0.25000000  1
  Ge  Ge4  1  0.18437500  0.81562500  0.05059600  1
  Ge  Ge5  1  0.81562500  0.18437500  0.94940400  1
  Ge  Ge6  1  0.31562500  0.68437500  0.55059600  1
  Ge  Ge7  1  0.68437500  0.31562500  0.44940400  1
loop_
_geom_bond_atom_site_label_1
_geom_bond_atom_site_label_2
_geom_bond_distance
_geom_bond_site_symmetry_2
Al0 Ge2 2.575908 1_444
Al0 Ge3 2.575908 1_445
Al0 Ge1 2.575908 1_554
Al0 Ge0 2.575908 1_555
Al0 Ge5 2.764127 1_454
Al0 Ge4 2.764127 1_545
Al1 Ge2 2.575908 1_555
Al1 Ge3 2.575908 1_555
Al1 Ge1 2.575908 1_555
Al1 Ge0 2.575908 1_555
Al1 Ge6 2.764127 1_555
Al1 Ge7 2.764127 1_555
Al2 Ge0 2.532780 1_555
Al2 Ge4 2.614723 1_555
Al2 Ge7 2.614723 1_455
Al2 Ge6 2.850281 1_555
Al2 Ge5 2.850281 1_454
Al3 Ge1 2.532780 1_555
Al3 Ge6 2.614723 1_545
Al3 Ge5 2.614723 1_555
Al3 Ge7 2.850281 1_555
Al3 Ge4 2.850281 1_546
Al4 Ge2 2.532780 1_555
Al4 Ge5 2.614723 1_555
Al4 Ge6 2.614723 1_655
Al4 Ge7 2.850281 1_555
Al4 Ge4 2.850281 1_656
Al5 Ge3 2.532780 1_555
Al5 Ge4 2.614723 1_555
Al5 Ge7 2.614723 1_565
Al5 Ge5 2.850281 1_564
Al5 Ge6 2.850281 1_555
Ge0 Ho0 3.112404 1_545
Ge0 Ho3 3.112404 1_555
Ge0 Ho1 3.177882 1_455
Ge0 Ho2 3.177882 1_554
Ge1 Ho1 3.112404 1_455
Ge1 Ho2 3.112404 1_555
Ge1 Ho0 3.177882 1_545
Ge1 Ho3 3.177882 1_556
Ge2 Ho1 3.112404 1_565
Ge2 Ho2 3.112404 1_555
Ge2 Ho0 3.177882 1_655
Ge2 Ho3 3.177882 1_556
Ge3 Ho0 3.112404 1_655
Ge3 Ho3 3.112404 1_555
Ge3 Ho2 3.177882 1_554
Ge3 Ho1 3.177882 1_565
Ge4 Ho0 3.077777 1_555
Ge4 Ho2 3.176474 1_554
Ge4 Ho3 3.196895 1_565
Ge4 Ho3 3.196895 1_455
Ge5 Ho1 3.077777 1_555
Ge5 Ho3 3.176474 1_556
Ge5 Ho2 3.196895 1_545
Ge5 Ho2 3.196895 1_655
Ge6 Ho2 3.077777 1_555
Ge6 Ho0 3.176474 1_555
Ge6 Ho1 3.196895 1_455
Ge6 Ho1 3.196895 1_565
Ge7 Ho3 3.077777 1_555
Ge7 Ho1 3.176474 1_555
Ge7 Ho0 3.196895 1_545
Ge7 Ho0 3.196895 1_655
