# generated using pymatgen
data_Al2PbC2O11
_symmetry_space_group_name_H-M   'P 1'
_cell_length_a   6.14635100
_cell_length_b   8.97037800
_cell_length_c   15.95291600
_cell_angle_alpha   90.00000000
_cell_angle_beta   90.00000000
_cell_angle_gamma   90.00000000
_symmetry_Int_Tables_number   1
_chemical_formula_structural   Al2PbC2O11
_chemical_formula_sum   'Al8 Pb4 C8 O44'
_cell_volume   879.56548799
_cell_formula_units_Z   4
loop_
 _symmetry_equiv_pos_site_id
 _symmetry_equiv_pos_as_xyz
  1  'x, y, z'
loop_
 _atom_site_type_symbol
 _atom_site_label
 _atom_site_symmetry_multiplicity
 _atom_site_fract_x
 _atom_site_fract_y
 _atom_site_fract_z
 _atom_site_occupancy
  Al  Al0  1  0.02465300  0.15684500  0.69932100  1
  Al  Al1  1  0.47534700  0.34315500  0.19932100  1
  Al  Al2  1  0.52465300  0.84315500  0.30067900  1
  Al  Al3  1  0.97534700  0.65684500  0.80067900  1
  Al  Al4  1  0.97534700  0.84315500  0.30067900  1
  Al  Al5  1  0.52465300  0.65684500  0.80067900  1
  Al  Al6  1  0.47534700  0.15684500  0.69932100  1
  Al  Al7  1  0.02465300  0.34315500  0.19932100  1
  Pb  Pb0  1  0.75000000  0.98676600  0.90490000  1
  Pb  Pb1  1  0.75000000  0.51323400  0.40490000  1
  Pb  Pb2  1  0.25000000  0.01323400  0.09510000  1
  Pb  Pb3  1  0.25000000  0.48676600  0.59510000  1
  C  C0  1  0.25000000  0.07962200  0.85527000  1
  C  C1  1  0.25000000  0.42037800  0.35527000  1
  C  C2  1  0.75000000  0.92037800  0.14473000  1
  C  C3  1  0.75000000  0.57962200  0.64473000  1
  C  C4  1  0.25000000  0.73356800  0.94820400  1
  C  C5  1  0.25000000  0.76643200  0.44820400  1
  C  C6  1  0.75000000  0.26643200  0.05179600  1
  C  C7  1  0.75000000  0.23356800  0.55179600  1
  O  O0  1  0.06558100  0.09709800  0.81510300  1
  O  O1  1  0.43441900  0.40290200  0.31510300  1
  O  O2  1  0.56558100  0.90290200  0.18489700  1
  O  O3  1  0.93441900  0.59709800  0.68489700  1
  O  O4  1  0.93441900  0.90290200  0.18489700  1
  O  O5  1  0.56558100  0.59709800  0.68489700  1
  O  O6  1  0.43441900  0.09709800  0.81510300  1
  O  O7  1  0.06558100  0.40290200  0.31510300  1
  O  O8  1  0.25000000  0.04128800  0.93152500  1
  O  O9  1  0.25000000  0.45871200  0.43152500  1
  O  O10  1  0.75000000  0.95871200  0.06847500  1
  O  O11  1  0.75000000  0.54128800  0.56847500  1
  O  O12  1  0.06451800  0.72826600  0.90913300  1
  O  O13  1  0.43548200  0.77173400  0.40913300  1
  O  O14  1  0.56451800  0.27173400  0.09086700  1
  O  O15  1  0.93548200  0.22826600  0.59086700  1
  O  O16  1  0.93548200  0.27173400  0.09086700  1
  O  O17  1  0.56451800  0.22826600  0.59086700  1
  O  O18  1  0.43548200  0.72826600  0.90913300  1
  O  O19  1  0.06451800  0.77173400  0.40913300  1
  O  O20  1  0.25000000  0.74834200  0.02756900  1
  O  O21  1  0.25000000  0.75165800  0.52756900  1
  O  O22  1  0.75000000  0.25165800  0.97243100  1
  O  O23  1  0.75000000  0.24834200  0.47243100  1
  O  O24  1  0.25000000  0.29181000  0.70198700  1
  O  O25  1  0.25000000  0.20819000  0.20198700  1
  O  O26  1  0.75000000  0.70819000  0.29801300  1
  O  O27  1  0.75000000  0.79181000  0.79801300  1
  O  O28  1  0.75000000  0.06051200  0.71134000  1
  O  O29  1  0.75000000  0.43948800  0.21134000  1
  O  O30  1  0.25000000  0.93948800  0.28866000  1
  O  O31  1  0.25000000  0.56051200  0.78866000  1
  O  O32  1  0.25000000  0.04607200  0.65966600  1
  O  O33  1  0.25000000  0.45392800  0.15966600  1
  O  O34  1  0.75000000  0.95392800  0.34033400  1
  O  O35  1  0.75000000  0.54607200  0.84033400  1
  O  O36  1  0.75000000  0.22437100  0.73956000  1
  O  O37  1  0.75000000  0.27562900  0.23956000  1
  O  O38  1  0.25000000  0.77562900  0.26044000  1
  O  O39  1  0.25000000  0.72437100  0.76044000  1
  O  O40  1  0.25000000  0.39634300  0.95143600  1
  O  O41  1  0.25000000  0.10365700  0.45143600  1
  O  O42  1  0.75000000  0.60365700  0.04856400  1
  O  O43  1  0.75000000  0.89634300  0.54856400  1
loop_
_geom_bond_atom_site_label_1
_geom_bond_atom_site_label_2
_geom_bond_distance
_geom_bond_site_symmetry_2
Al0 O32 1.818237 1_555
Al0 O24 1.840100 1_555
Al0 O36 1.904919 1_455
Al0 O28 1.906105 1_455
Al0 O15 1.924655 1_455
Al0 O0 1.939629 1_555
Al1 O33 1.818237 1_555
Al1 O25 1.840100 1_555
Al1 O37 1.904919 1_555
Al1 O29 1.906105 1_555
Al1 O14 1.924655 1_555
Al1 O1 1.939629 1_555
Al2 O34 1.818237 1_555
Al2 O26 1.840100 1_555
Al2 O38 1.904919 1_555
Al2 O30 1.906105 1_555
Al2 O13 1.924655 1_555
Al2 O2 1.939629 1_555
Al3 O35 1.818237 1_555
Al3 O27 1.840100 1_555
Al3 O39 1.904919 1_655
Al3 O31 1.906105 1_655
Al3 O12 1.924655 1_655
Al3 O3 1.939629 1_555
Al4 O34 1.818237 1_555
Al4 O26 1.840100 1_555
Al4 O38 1.904919 1_655
Al4 O30 1.906105 1_655
Al4 O19 1.924655 1_655
Al4 O4 1.939629 1_555
Al5 O35 1.818237 1_555
Al5 O27 1.840100 1_555
Al5 O39 1.904919 1_555
Al5 O31 1.906105 1_555
Al5 O18 1.924655 1_555
Al5 O5 1.939629 1_555
Al6 O32 1.818237 1_555
Al6 O24 1.840100 1_555
Al6 O36 1.904919 1_555
Al6 O28 1.906105 1_555
Al6 O17 1.924655 1_555
Al6 O6 1.939629 1_555
Al7 O33 1.818237 1_555
Al7 O25 1.840100 1_555
Al7 O37 1.904919 1_455
Al7 O29 1.906105 1_455
Al7 O16 1.924655 1_455
Al7 O7 1.939629 1_555
C0 O8 1.264157 1_555
C0 O6 1.311490 1_555
C0 O0 1.311490 1_555
C1 O9 1.264157 1_555
C1 O1 1.311490 1_555
C1 O7 1.311490 1_555
C2 O10 1.264157 1_555
C2 O4 1.311490 1_555
C2 O2 1.311490 1_555
C3 O11 1.264157 1_555
C3 O5 1.311490 1_555
C3 O3 1.311490 1_555
C4 O20 1.273020 1_556
C4 O12 1.300171 1_555
C4 O18 1.300171 1_555
C5 O21 1.273020 1_555
C5 O13 1.300171 1_555
C5 O19 1.300171 1_555
C6 O22 1.273020 1_554
C6 O14 1.300171 1_555
C6 O16 1.300171 1_555
C7 O23 1.273020 1_555
C7 O15 1.300171 1_555
C7 O17 1.300171 1_555
O0 Pb0 2.606530 1_445
O1 Pb1 2.606530 1_555
O2 Pb2 2.606530 1_565
O3 Pb3 2.606530 1_655
O4 Pb2 2.606530 1_665
O5 Pb3 2.606530 1_555
O6 Pb0 2.606530 1_545
O7 Pb1 2.606530 1_455
O8 Pb2 2.621605 1_556
O9 Pb3 2.621605 1_555
O10 Pb0 2.621605 1_554
O11 Pb1 2.621605 1_555
O20 Pb2 2.608994 1_565
O21 Pb3 2.608994 1_555
O22 Pb0 2.608994 1_545
O23 Pb1 2.608994 1_555
O24 Pb3 2.442534 1_555
O25 Pb2 2.442534 1_555
O26 Pb1 2.442534 1_555
O27 Pb0 2.442534 1_555
O28 O36 1.537274 1_555
O29 O37 1.537274 1_555
O30 O38 1.537274 1_555
O31 O39 1.537274 1_555
