# generated using pymatgen
data_YCo4Si
_symmetry_space_group_name_H-M   'P 1'
_cell_length_a   3.71864000
_cell_length_b   5.07607845
_cell_length_c   5.07569043
_cell_angle_alpha   119.98452075
_cell_angle_beta   90.00000000
_cell_angle_gamma   90.00000000
_symmetry_Int_Tables_number   1
_chemical_formula_structural   YCo4Si
_chemical_formula_sum   'Y1 Co4 Si1'
_cell_volume   82.98621178
_cell_formula_units_Z   1
loop_
 _symmetry_equiv_pos_site_id
 _symmetry_equiv_pos_as_xyz
  1  'x, y, z'
loop_
 _atom_site_type_symbol
 _atom_site_label
 _atom_site_symmetry_multiplicity
 _atom_site_fract_x
 _atom_site_fract_y
 _atom_site_fract_z
 _atom_site_occupancy
  Y  Y0  1  0.00000000  0.99992600  0.00003600  1
  Co  Co0  1  0.00000000  0.66654500  0.33332000  1
  Co  Co1  1  0.50000000  0.50001700  0.00002000  1
  Co  Co2  1  0.50000000  0.50005500  0.49995600  1
  Co  Co3  1  0.50000000  0.99999000  0.49999400  1
  Si  Si0  1  0.00000000  0.33336800  0.66667400  1
loop_
_geom_bond_atom_site_label_1
_geom_bond_atom_site_label_2
_geom_bond_distance
_geom_bond_site_symmetry_2
Co0 Co2 2.366668 1_555
Co0 Co2 2.366668 1_455
Co0 Co1 2.367319 1_455
Co0 Co1 2.367319 1_555
Co0 Co3 2.367783 1_455
Co0 Co3 2.367783 1_555
Co0 Y0 2.930327 1_555
Co0 Y0 2.930923 1_545
Co0 Y0 2.931125 1_556
Co1 Si0 2.367444 1_554
Co1 Si0 2.367444 1_654
Co1 Co2 2.537424 1_555
Co1 Co2 2.538266 1_554
Co1 Co3 2.538401 1_555
Co1 Co3 2.538671 1_544
Co1 Y0 3.145817 1_655
Co1 Y0 3.145817 1_555
Co1 Y0 3.146628 1_545
Co1 Y0 3.146628 1_645
Co2 Si0 2.367427 1_555
Co2 Si0 2.367427 1_655
Co2 Co3 2.537613 1_555
Co2 Co3 2.538466 1_545
Co2 Y0 3.146523 1_556
Co2 Y0 3.146523 1_656
Co2 Y0 3.146723 1_645
Co2 Y0 3.146723 1_545
Co3 Si0 2.367600 1_565
Co3 Si0 2.367600 1_665
Co3 Y0 3.145763 1_555
Co3 Y0 3.145763 1_655
Co3 Y0 3.146369 1_556
Co3 Y0 3.146369 1_656
Si0 Y0 2.930655 1_556
Si0 Y0 2.930783 1_545
Si0 Y0 2.930938 1_546
