# generated using pymatgen
data_Sr3Fe2Ag2S2O5
_symmetry_space_group_name_H-M   'P 1'
_cell_length_a   5.67034803
_cell_length_b   5.67023837
_cell_length_c   14.12738984
_cell_angle_alpha   90.00024813
_cell_angle_beta   78.40594382
_cell_angle_gamma   90.00026438
_symmetry_Int_Tables_number   1
_chemical_formula_structural   Sr3Fe2Ag2S2O5
_chemical_formula_sum   'Sr6 Fe4 Ag4 S4 O10'
_cell_volume   444.95901529
_cell_formula_units_Z   2
loop_
 _symmetry_equiv_pos_site_id
 _symmetry_equiv_pos_as_xyz
  1  'x, y, z'
loop_
 _atom_site_type_symbol
 _atom_site_label
 _atom_site_symmetry_multiplicity
 _atom_site_fract_x
 _atom_site_fract_y
 _atom_site_fract_z
 _atom_site_occupancy
  Sr  Sr0  1  0.50000100  0.99999900  0.99999700  1
  Sr  Sr1  1  0.00000300  0.50000300  0.99999900  1
  Sr  Sr2  1  0.13520800  0.50000400  0.72972700  1
  Sr  Sr3  1  0.63522500  0.00000100  0.72972800  1
  Sr  Sr4  1  0.36478300  0.99999600  0.27027200  1
  Sr  Sr5  1  0.86479100  0.50000200  0.27027100  1
  Fe  Fe0  1  0.43094200  0.49999000  0.13774000  1
  Fe  Fe1  1  0.06905000  0.00000200  0.86225700  1
  Fe  Fe2  1  0.93095900  0.99998800  0.13770300  1
  Fe  Fe3  1  0.56901100  0.50001000  0.86231100  1
  Ag  Ag0  1  0.50000500  0.24998600  0.49999800  1
  Ag  Ag1  1  0.00000100  0.74998600  0.49999900  1
  Ag  Ag2  1  0.00000000  0.25001800  0.49999800  1
  Ag  Ag3  1  0.50000600  0.75001600  0.49999800  1
  S  S0  1  0.31542700  0.49999800  0.36964100  1
  S  S1  1  0.81543000  0.99999400  0.36965300  1
  S  S2  1  0.18457800  0.00000200  0.63035100  1
  S  S3  1  0.68458300  0.50000300  0.63034100  1
  O  O0  1  0.49997300  0.50000100  0.00005200  1
  O  O1  1  0.00002200  0.99999900  0.99996400  1
  O  O2  1  0.67193500  0.25002700  0.15598100  1
  O  O3  1  0.17192900  0.75003900  0.15597800  1
  O  O4  1  0.82806200  0.24998100  0.84402000  1
  O  O5  1  0.32807100  0.74996400  0.84402200  1
  O  O6  1  0.17193000  0.24995800  0.15597800  1
  O  O7  1  0.67193300  0.74996700  0.15597900  1
  O  O8  1  0.32807600  0.25003400  0.84402200  1
  O  O9  1  0.82806600  0.75003400  0.84402300  1
loop_
_geom_bond_atom_site_label_1
_geom_bond_atom_site_label_2
_geom_bond_distance
_geom_bond_site_symmetry_2
Fe0 O0 1.905483 1_555
Fe0 O6 2.020223 1_555
Fe0 O3 2.020302 1_555
Fe0 O2 2.020945 1_555
Fe0 O7 2.020975 1_555
Fe1 O1 1.905746 1_545
Fe1 O8 2.020279 1_555
Fe1 O5 2.020291 1_545
Fe1 O9 2.020892 1_445
Fe1 O4 2.020973 1_455
Fe2 O1 1.906189 1_654
Fe2 O7 2.020225 1_555
Fe2 O2 2.020296 1_565
Fe2 O3 2.020924 1_655
Fe2 O6 2.021001 1_665
Fe3 O0 1.906216 1_556
Fe3 O9 2.020349 1_555
Fe3 O4 2.020360 1_555
Fe3 O5 2.020877 1_555
Fe3 O8 2.020934 1_555
Ag0 S3 2.696400 1_555
Ag0 S0 2.696549 1_555
Ag0 S1 2.697289 1_545
Ag0 S2 2.697332 1_555
Ag1 S1 2.696398 1_455
Ag1 S2 2.696491 1_565
Ag1 S3 2.697217 1_455
Ag1 S0 2.697380 1_555
Ag2 S1 2.696418 1_445
Ag2 S2 2.696518 1_555
Ag2 S3 2.697228 1_455
Ag2 S0 2.697352 1_555
Ag3 S3 2.696398 1_555
Ag3 S0 2.696556 1_555
Ag3 S1 2.697244 1_555
Ag3 S2 2.697342 1_565
S0 Sr5 3.149087 1_555
S0 Sr4 3.151030 1_555
S0 Sr4 3.151042 1_545
S0 Sr5 3.153095 1_455
S1 Sr4 3.149069 1_655
S1 Sr5 3.151070 1_555
S1 Sr5 3.151160 1_565
S1 Sr4 3.153245 1_555
S2 Sr3 3.149055 1_455
S2 Sr2 3.151073 1_545
S2 Sr2 3.151084 1_555
S2 Sr3 3.153211 1_555
S3 Sr2 3.149199 1_555
S3 Sr3 3.151130 1_565
S3 Sr3 3.151159 1_555
S3 Sr2 3.153176 1_655
O0 Sr0 2.835108 1_554
O0 Sr0 2.835131 1_544
O0 Sr1 2.835154 1_554
O0 Sr1 2.835194 1_654
O1 Sr1 2.835097 1_555
O1 Sr1 2.835142 1_565
O1 Sr0 2.835149 1_555
O1 Sr0 2.835199 1_455
O2 Sr4 2.553437 1_545
O2 Sr5 2.553748 1_555
O2 Sr1 2.945822 1_654
O2 Sr0 2.946180 1_544
O3 Sr5 2.553426 1_455
O3 Sr4 2.553726 1_555
O3 Sr0 2.945781 1_554
O3 Sr1 2.946122 1_554
O4 Sr2 2.553407 1_655
O4 Sr3 2.553725 1_555
O4 Sr0 2.945775 1_545
O4 Sr1 2.946125 1_655
O5 Sr3 2.553483 1_565
O5 Sr2 2.553774 1_555
O5 Sr1 2.945737 1_555
O5 Sr0 2.946085 1_555
O6 Sr5 2.553452 1_455
O6 Sr4 2.553752 1_545
O6 Sr0 2.945774 1_544
O6 Sr1 2.946163 1_554
O7 Sr4 2.553439 1_555
O7 Sr5 2.553757 1_555
O7 Sr1 2.945776 1_654
O7 Sr0 2.946176 1_554
O8 Sr3 2.553456 1_555
O8 Sr2 2.553835 1_555
O8 Sr1 2.945772 1_555
O8 Sr0 2.946084 1_545
O9 Sr2 2.553438 1_655
O9 Sr3 2.553740 1_565
O9 Sr0 2.945713 1_555
O9 Sr1 2.946118 1_655
