# generated using pymatgen
data_Ca3Mg5(SiO3)8
_symmetry_space_group_name_H-M   'P 1'
_cell_length_a   5.31413700
_cell_length_b   6.68585840
_cell_length_c   13.28066844
_cell_angle_alpha   90.46124844
_cell_angle_beta   100.66116461
_cell_angle_gamma   102.37793345
_symmetry_Int_Tables_number   1
_chemical_formula_structural   Ca3Mg5(SiO3)8
_chemical_formula_sum   'Ca3 Mg5 Si8 O24'
_cell_volume   452.37266387
_cell_formula_units_Z   1
loop_
 _symmetry_equiv_pos_site_id
 _symmetry_equiv_pos_as_xyz
  1  'x, y, z'
loop_
 _atom_site_type_symbol
 _atom_site_label
 _atom_site_symmetry_multiplicity
 _atom_site_fract_x
 _atom_site_fract_y
 _atom_site_fract_z
 _atom_site_occupancy
  Ca  Ca0  1  0.60250200  0.69984300  0.35209000  1
  Ca  Ca1  1  0.40056100  0.30302100  0.64965800  1
  Ca  Ca2  1  0.89998700  0.29762700  0.15068600  1
  Mg  Mg0  1  0.79492300  0.09201900  0.54785200  1
  Mg  Mg1  1  0.29872000  0.09513700  0.04571300  1
  Mg  Mg2  1  0.70340100  0.90636400  0.95109500  1
  Mg  Mg3  1  0.20392500  0.90763000  0.45616400  1
  Mg  Mg4  1  0.11994000  0.74334400  0.86937900  1
  Si  Si0  1  0.85979700  0.61989000  0.59893900  1
  Si  Si1  1  0.36187800  0.61704400  0.09538100  1
  Si  Si2  1  0.05052200  0.19604500  0.80823500  1
  Si  Si3  1  0.53984300  0.19208100  0.31012200  1
  Si  Si4  1  0.64906300  0.38306700  0.90051300  1
  Si  Si5  1  0.13352200  0.37939400  0.40323500  1
  Si  Si6  1  0.44497300  0.79985600  0.69287900  1
  Si  Si7  1  0.95741200  0.80771100  0.18847200  1
  O  O0  1  0.16140000  0.62399000  0.66497500  1
  O  O1  1  0.66532400  0.63436800  0.16395200  1
  O  O2  1  0.81399000  0.32206100  0.81324100  1
  O  O3  1  0.31605600  0.33431800  0.31588200  1
  O  O4  1  0.34194900  0.36705500  0.83472100  1
  O  O5  1  0.83199700  0.36615400  0.33176300  1
  O  O6  1  0.67825700  0.66709900  0.68590300  1
  O  O7  1  0.18056300  0.66591700  0.18085400  1
  O  O8  1  0.72964700  0.38863200  0.55573300  1
  O  O9  1  0.23433000  0.38353500  0.05695100  1
  O  O10  1  0.02226400  0.11550000  0.69240000  1
  O  O11  1  0.51232700  0.10992900  0.19347500  1
  O  O12  1  0.79560000  0.61860000  0.93433700  1
  O  O13  1  0.26262900  0.61272500  0.44293400  1
  O  O14  1  0.45024900  0.86863100  0.81061200  1
  O  O15  1  0.98545900  0.88725000  0.30477100  1
  O  O16  1  0.86924100  0.79667600  0.51539100  1
  O  O17  1  0.36878500  0.79018800  0.00973200  1
  O  O18  1  0.04097200  0.02299400  0.89489900  1
  O  O19  1  0.53958700  0.02724500  0.39874800  1
  O  O20  1  0.63491400  0.21047200  0.98659600  1
  O  O21  1  0.12710900  0.20255300  0.48557800  1
  O  O22  1  0.45826700  0.97226200  0.60718200  1
  O  O23  1  0.95811600  0.97177200  0.09895800  1
loop_
_geom_bond_atom_site_label_1
_geom_bond_atom_site_label_2
_geom_bond_distance
_geom_bond_site_symmetry_2
Ca0 O13 2.328839 1_555
Ca0 O15 2.345021 1_555
Ca0 O16 2.361861 1_555
Ca0 O19 2.378210 1_565
Ca0 O3 2.576072 1_555
Ca0 O1 2.626738 1_555
Ca0 O5 2.795741 1_555
Ca0 O7 2.852669 1_555
Ca1 O10 2.299697 1_555
Ca1 O8 2.308986 1_555
Ca1 O22 2.374287 1_545
Ca1 O21 2.386974 1_555
Ca1 O6 2.552044 1_555
Ca1 O4 2.577666 1_555
Ca1 O0 2.742202 1_555
Ca1 O2 2.769917 1_555
Ca2 O9 2.329974 1_655
Ca2 O11 2.340507 1_555
Ca2 O20 2.358955 1_554
Ca2 O23 2.378381 1_545
Ca2 O5 2.549186 1_555
Ca2 O7 2.576014 1_655
Ca2 O3 2.779595 1_655
Ca2 O1 2.816647 1_555
Mg0 O10 2.055517 1_655
Mg0 O21 2.082569 1_655
Mg0 O8 2.090223 1_555
Mg0 O22 2.092894 1_545
Mg0 O16 2.150484 1_545
Mg0 O19 2.165641 1_555
Mg1 O9 2.038233 1_555
Mg1 O11 2.067314 1_555
Mg1 O23 2.073503 1_445
Mg1 O20 2.083507 1_554
Mg1 O18 2.192384 1_554
Mg1 O17 2.213474 1_545
Mg2 O14 2.067016 1_555
Mg2 O18 2.070783 1_665
Mg2 O17 2.074051 1_556
Mg2 O12 2.104461 1_555
Mg2 O23 2.151407 1_556
Mg2 O20 2.203191 1_565
Mg3 O16 2.072109 1_455
Mg3 O13 2.072238 1_555
Mg3 O19 2.074677 1_565
Mg3 O15 2.114949 1_455
Mg3 O21 2.144519 1_565
Mg3 O22 2.183742 1_555
Mg4 O18 2.040968 1_565
Mg4 O17 2.054815 1_556
Mg4 O14 2.068560 1_555
Mg4 O12 2.087110 1_455
O0 Si0 1.673146 1_455
O0 Si6 1.678534 1_555
O1 Si1 1.678673 1_555
O1 Si7 1.701231 1_555
O2 Si2 1.666813 1_655
O2 Si4 1.673133 1_555
O3 Si3 1.685772 1_555
O3 Si5 1.706945 1_555
O4 Si4 1.683584 1_555
O4 Si2 1.691814 1_555
O5 Si5 1.688611 1_655
O5 Si3 1.703632 1_555
O6 Si6 1.687064 1_555
O6 Si0 1.703274 1_555
O7 Si7 1.685240 1_455
O7 Si1 1.690384 1_555
O8 Si0 1.605811 1_555
O9 Si1 1.600869 1_555
O10 Si2 1.595505 1_555
O11 Si3 1.609654 1_555
O12 Si4 1.619089 1_555
O13 Si5 1.605118 1_555
O14 Si6 1.619771 1_555
O15 Si7 1.599437 1_555
O16 Si0 1.626961 1_555
O17 Si1 1.629020 1_555
O18 Si2 1.638228 1_555
O19 Si3 1.618874 1_555
O20 Si4 1.630978 1_555
O21 Si5 1.616262 1_555
O22 Si6 1.626324 1_555
O23 Si7 1.623982 1_555
