# generated using pymatgen
data_FeB12(HO6)4
_symmetry_space_group_name_H-M   'P 1'
_cell_length_a   8.71830500
_cell_length_b   8.77653058
_cell_length_c   11.86124391
_cell_angle_alpha   104.04384538
_cell_angle_beta   90.00000000
_cell_angle_gamma   90.00000000
_symmetry_Int_Tables_number   1
_chemical_formula_structural   FeB12(HO6)4
_chemical_formula_sum   'Fe2 B24 H8 O48'
_cell_volume   880.45322099
_cell_formula_units_Z   2
loop_
 _symmetry_equiv_pos_site_id
 _symmetry_equiv_pos_as_xyz
  1  'x, y, z'
loop_
 _atom_site_type_symbol
 _atom_site_label
 _atom_site_symmetry_multiplicity
 _atom_site_fract_x
 _atom_site_fract_y
 _atom_site_fract_z
 _atom_site_occupancy
  Fe  Fe0  1  0.50000000  0.00000000  0.00000000  1
  Fe  Fe1  1  0.00000000  0.50000000  0.00000000  1
  B  B0  1  0.53524900  0.86115200  0.72170200  1
  B  B1  1  0.03524900  0.63884800  0.27829800  1
  B  B2  1  0.46475100  0.13884800  0.27829800  1
  B  B3  1  0.96475100  0.36115200  0.72170200  1
  B  B4  1  0.40391400  0.79671900  0.53086700  1
  B  B5  1  0.90391400  0.70328100  0.46913300  1
  B  B6  1  0.59608600  0.20328100  0.46913300  1
  B  B7  1  0.09608600  0.29671900  0.53086700  1
  B  B8  1  0.40382300  0.60691100  0.64571700  1
  B  B9  1  0.90382300  0.89308900  0.35428300  1
  B  B10  1  0.59617700  0.39308900  0.35428300  1
  B  B11  1  0.09617700  0.10691100  0.64571700  1
  B  B12  1  0.79009400  0.93970200  0.85746600  1
  B  B13  1  0.29009400  0.56029800  0.14253400  1
  B  B14  1  0.20990600  0.06029800  0.14253400  1
  B  B15  1  0.70990600  0.43970200  0.85746600  1
  B  B16  1  0.75431700  0.23855700  0.97642300  1
  B  B17  1  0.25431700  0.26144300  0.02357700  1
  B  B18  1  0.24568300  0.76144300  0.02357700  1
  B  B19  1  0.74568300  0.73855700  0.97642300  1
  B  B20  1  0.49127500  0.29262300  0.91579800  1
  B  B21  1  0.99127500  0.20737700  0.08420200  1
  B  B22  1  0.50872500  0.70737700  0.08420200  1
  B  B23  1  0.00872500  0.79262300  0.91579800  1
  H  H0  1  0.40819000  0.93248800  0.41789400  1
  H  H1  1  0.90819000  0.56751200  0.58210600  1
  H  H2  1  0.59181000  0.06751200  0.58210600  1
  H  H3  1  0.09181000  0.43248800  0.41789400  1
  H  H4  1  0.41140500  0.44092000  0.73081300  1
  H  H5  1  0.91140500  0.05908000  0.26918700  1
  H  H6  1  0.58859500  0.55908000  0.26918700  1
  H  H7  1  0.08859500  0.94092000  0.73081300  1
  O  O0  1  0.49573100  0.89735800  0.61250300  1
  O  O1  1  0.99573100  0.60264200  0.38749700  1
  O  O2  1  0.50426900  0.10264200  0.38749700  1
  O  O3  1  0.00426900  0.39735800  0.61250300  1
  O  O4  1  0.35322600  0.65423700  0.54950800  1
  O  O5  1  0.85322600  0.84576300  0.45049200  1
  O  O6  1  0.64677400  0.34576300  0.45049200  1
  O  O7  1  0.14677400  0.15423700  0.54950800  1
  O  O8  1  0.50253800  0.70183300  0.72436000  1
  O  O9  1  0.00253800  0.79816700  0.27564000  1
  O  O10  1  0.49746200  0.29816700  0.27564000  1
  O  O11  1  0.99746200  0.20183300  0.72436000  1
  O  O12  1  0.69954600  0.90314000  0.75018900  1
  O  O13  1  0.19954600  0.59686000  0.24981100  1
  O  O14  1  0.30045400  0.09686000  0.24981100  1
  O  O15  1  0.80045400  0.40314000  0.75018900  1
  O  O16  1  0.70903000  0.89322500  0.95489900  1
  O  O17  1  0.20903000  0.60677500  0.04510100  1
  O  O18  1  0.29097000  0.10677500  0.04510100  1
  O  O19  1  0.79097000  0.39322500  0.95489900  1
  O  O20  1  0.58374400  0.22265000  0.98745900  1
  O  O21  1  0.08374400  0.27735000  0.01254100  1
  O  O22  1  0.41625600  0.77735000  0.01254100  1
  O  O23  1  0.91625600  0.72265000  0.98745900  1
  O  O24  1  0.80782200  0.11005000  0.88094200  1
  O  O25  1  0.30782200  0.38995000  0.11905800  1
  O  O26  1  0.19217800  0.88995000  0.11905800  1
  O  O27  1  0.69217800  0.61005000  0.88094200  1
  O  O28  1  0.36640400  0.83166900  0.42887800  1
  O  O29  1  0.86640400  0.66833100  0.57112200  1
  O  O30  1  0.63359600  0.16833100  0.57112200  1
  O  O31  1  0.13359600  0.33166900  0.42887800  1
  O  O32  1  0.35762700  0.46656800  0.66513800  1
  O  O33  1  0.85762700  0.03343200  0.33486200  1
  O  O34  1  0.64237300  0.53343200  0.33486200  1
  O  O35  1  0.14237300  0.96656800  0.66513800  1
  O  O36  1  0.94376000  0.87166500  0.84234400  1
  O  O37  1  0.44376000  0.62833500  0.15765600  1
  O  O38  1  0.05624000  0.12833500  0.15765600  1
  O  O39  1  0.55624000  0.37166500  0.84234400  1
  O  O40  1  0.53071700  0.03095400  0.17477900  1
  O  O41  1  0.03071700  0.46904600  0.82522100  1
  O  O42  1  0.46928300  0.96904600  0.82522100  1
  O  O43  1  0.96928300  0.53095400  0.17477900  1
  O  O44  1  0.83450800  0.21441900  0.07709900  1
  O  O45  1  0.33450800  0.28558100  0.92290100  1
  O  O46  1  0.16549200  0.78558100  0.92290100  1
  O  O47  1  0.66549200  0.71441900  0.07709900  1
loop_
_geom_bond_atom_site_label_1
_geom_bond_atom_site_label_2
_geom_bond_distance
_geom_bond_site_symmetry_2
Fe0 O40 2.042037 1_555
Fe0 O42 2.042037 1_544
Fe0 O16 2.059649 1_544
Fe0 O18 2.059649 1_555
Fe0 O22 2.124792 1_545
Fe0 O20 2.124792 1_554
Fe1 O43 2.042037 1_455
Fe1 O41 2.042037 1_554
Fe1 O17 2.059649 1_555
Fe1 O19 2.059649 1_454
Fe1 O21 2.124792 1_555
Fe1 O23 2.124792 1_454
B0 O8 1.434877 1_555
B0 O0 1.448123 1_555
B0 O42 1.473362 1_555
B0 O12 1.497092 1_555
B1 O9 1.434877 1_555
B1 O1 1.448123 1_455
B1 O43 1.473362 1_455
B1 O13 1.497092 1_555
B2 O10 1.434877 1_555
B2 O2 1.448123 1_555
B2 O40 1.473362 1_555
B2 O14 1.497092 1_555
B3 O11 1.434877 1_555
B3 O3 1.448123 1_655
B3 O41 1.473362 1_655
B3 O15 1.497092 1_555
B4 O28 1.358138 1_555
B4 O4 1.393596 1_555
B4 O0 1.394081 1_555
B5 O29 1.358138 1_555
B5 O5 1.393596 1_555
B5 O1 1.394081 1_555
B6 O30 1.358138 1_555
B6 O6 1.393596 1_555
B6 O2 1.394081 1_555
B7 O31 1.358138 1_555
B7 O7 1.393596 1_555
B7 O3 1.394081 1_555
B8 O32 1.367525 1_555
B8 O4 1.378184 1_555
B8 O8 1.388410 1_555
B9 O33 1.367525 1_565
B9 O5 1.378184 1_555
B9 O9 1.388410 1_655
B10 O34 1.367525 1_555
B10 O6 1.378184 1_555
B10 O10 1.388410 1_555
B11 O35 1.367525 1_545
B11 O7 1.378184 1_555
B11 O11 1.388410 1_455
B12 O36 1.459989 1_555
B12 O24 1.461026 1_565
B12 O12 1.465297 1_555
B12 O16 1.493401 1_555
B13 O37 1.459989 1_555
B13 O25 1.461026 1_555
B13 O13 1.465297 1_555
B13 O17 1.493401 1_555
B14 O38 1.459989 1_555
B14 O26 1.461026 1_545
B14 O14 1.465297 1_555
B14 O18 1.493401 1_555
B15 O39 1.459989 1_555
B15 O27 1.461026 1_555
B15 O15 1.465297 1_555
B15 O19 1.493401 1_555
B16 O44 1.443058 1_556
B16 O24 1.467081 1_555
B16 O19 1.475857 1_555
B16 O20 1.502326 1_555
B17 O45 1.443058 1_554
B17 O25 1.467081 1_555
B17 O18 1.475857 1_555
B17 O21 1.502326 1_555
B18 O46 1.443058 1_554
B18 O26 1.467081 1_555
B18 O17 1.475857 1_555
B18 O22 1.502326 1_555
B19 O47 1.443058 1_556
B19 O27 1.467081 1_555
B19 O16 1.475857 1_555
B19 O23 1.502326 1_555
B20 O39 1.361783 1_555
B20 O45 1.371652 1_555
B20 O20 1.415231 1_555
B21 O38 1.361783 1_655
B21 O44 1.371652 1_555
B21 O21 1.415231 1_655
B22 O37 1.361783 1_555
B22 O47 1.371652 1_555
B22 O22 1.415231 1_555
B23 O36 1.361783 1_455
B23 O46 1.371652 1_555
B23 O23 1.415231 1_455
H0 O28 0.994275 1_555
H1 O29 0.994275 1_555
H2 O30 0.994275 1_555
H3 O31 0.994275 1_555
H4 O32 0.981029 1_555
H5 O33 0.981029 1_555
H6 O34 0.981029 1_555
H7 O35 0.981029 1_555
