# generated using pymatgen
data_K2SmBr5
_symmetry_space_group_name_H-M   'P 1'
_cell_length_a   8.43658350
_cell_length_b   9.10490592
_cell_length_c   13.36864359
_cell_angle_alpha   90.00000000
_cell_angle_beta   90.00000000
_cell_angle_gamma   90.00000000
_symmetry_Int_Tables_number   1
_chemical_formula_structural   K2SmBr5
_chemical_formula_sum   'K8 Sm4 Br20'
_cell_volume   1026.90298666
_cell_formula_units_Z   4
loop_
 _symmetry_equiv_pos_site_id
 _symmetry_equiv_pos_as_xyz
  1  'x, y, z'
loop_
 _atom_site_type_symbol
 _atom_site_label
 _atom_site_symmetry_multiplicity
 _atom_site_fract_x
 _atom_site_fract_y
 _atom_site_fract_z
 _atom_site_occupancy
  K  K0  1  0.94619254  0.00338682  0.82748151  1
  K  K1  1  0.05380746  0.99661318  0.17251849  1
  K  K2  1  0.44619254  0.99661318  0.67251849  1
  K  K3  1  0.05380746  0.50338682  0.17251849  1
  K  K4  1  0.55380746  0.00338682  0.32748151  1
  K  K5  1  0.94619254  0.49661318  0.82748151  1
  K  K6  1  0.55380746  0.49661318  0.32748151  1
  K  K7  1  0.44619254  0.50338682  0.67251849  1
  Sm  Sm0  1  0.92183916  0.75000000  0.50568405  1
  Sm  Sm1  1  0.07816084  0.25000000  0.49431595  1
  Sm  Sm2  1  0.42183916  0.25000000  0.99431595  1
  Sm  Sm3  1  0.57816084  0.75000000  0.00568405  1
  Br  Br0  1  0.12746186  0.75000000  0.67972975  1
  Br  Br1  1  0.87253814  0.25000000  0.32027025  1
  Br  Br2  1  0.62746186  0.25000000  0.82027025  1
  Br  Br3  1  0.37253814  0.75000000  0.17972975  1
  Br  Br4  1  0.83328137  0.04446872  0.57715801  1
  Br  Br5  1  0.16671863  0.95553128  0.42284199  1
  Br  Br6  1  0.33328137  0.95553128  0.92284199  1
  Br  Br7  1  0.16671863  0.54446872  0.42284199  1
  Br  Br8  1  0.66671863  0.04446872  0.07715801  1
  Br  Br9  1  0.83328137  0.45553128  0.57715801  1
  Br  Br10  1  0.66671863  0.45553128  0.07715801  1
  Br  Br11  1  0.33328137  0.54446872  0.92284199  1
  Br  Br12  1  0.57356858  0.75000000  0.50877341  1
  Br  Br13  1  0.42643142  0.25000000  0.49122659  1
  Br  Br14  1  0.07356858  0.25000000  0.99122659  1
  Br  Br15  1  0.92643142  0.75000000  0.00877341  1
  Br  Br16  1  0.66261955  0.75000000  0.79508507  1
  Br  Br17  1  0.33738045  0.25000000  0.20491493  1
  Br  Br18  1  0.16261955  0.25000000  0.70491493  1
  Br  Br19  1  0.83738045  0.75000000  0.29508507  1
loop_
_geom_bond_atom_site_label_1
_geom_bond_atom_site_label_2
_geom_bond_distance
_geom_bond_site_symmetry_2
Br0 Sm0 2.902268 1_455
Br0 K5 3.400420 1_455
Br0 K0 3.400420 1_465
Br0 K7 3.504537 1_555
Br0 K2 3.504537 1_555
Br1 Sm1 2.902268 1_655
Br1 K1 3.400420 1_645
Br1 K3 3.400420 1_655
Br1 K4 3.504537 1_555
Br1 K6 3.504537 1_555
Br2 Sm2 2.902268 1_555
Br2 K2 3.400420 1_545
Br2 K7 3.400420 1_555
Br2 K5 3.504537 1_555
Br2 K0 3.504537 1_555
Br3 Sm3 2.902268 1_555
Br3 K4 3.400420 1_565
Br3 K6 3.400420 1_555
Br3 K1 3.504537 1_555
Br3 K3 3.504537 1_555
Br4 Sm0 2.942711 1_545
Br4 Sm1 2.999430 1_655
Br4 K0 3.499471 1_555
Br4 K2 3.532692 1_545
Br5 Sm1 2.942711 1_565
Br5 Sm0 2.999430 1_455
Br5 K1 3.499471 1_555
Br5 K4 3.532692 1_565
Br6 Sm2 2.942711 1_565
Br6 Sm3 2.999430 1_556
Br6 K2 3.499471 1_555
Br6 K0 3.532692 1_465
Br7 Sm1 2.942711 1_555
Br7 Sm0 2.999430 1_455
Br7 K3 3.499471 1_555
Br7 K6 3.532692 1_555
Br8 Sm3 2.942711 1_545
Br8 Sm2 2.999430 1_554
Br8 K4 3.499471 1_555
Br8 K1 3.532692 1_645
Br9 Sm0 2.942711 1_555
Br9 Sm1 2.999430 1_655
Br9 K5 3.499471 1_555
Br9 K7 3.532692 1_555
Br10 Sm3 2.942711 1_555
Br10 Sm2 2.999430 1_554
Br10 K6 3.499471 1_555
Br10 K3 3.532692 1_655
Br11 Sm2 2.942711 1_555
Br11 Sm3 2.999430 1_556
Br11 K7 3.499471 1_555
Br11 K5 3.532692 1_455
Br12 Sm0 2.938504 1_555
Br12 K2 3.314893 1_555
Br12 K7 3.314893 1_555
Br12 K4 3.350269 1_565
Br12 K6 3.350269 1_555
Br13 Sm1 2.938504 1_555
Br13 K6 3.314893 1_555
Br13 K4 3.314893 1_555
Br13 K7 3.350269 1_555
Br13 K2 3.350269 1_545
Br14 Sm2 2.938504 1_555
Br14 K5 3.314893 1_455
Br14 K0 3.314893 1_455
Br14 K3 3.350269 1_556
Br14 K1 3.350269 1_546
Br15 Sm3 2.938504 1_555
Br15 K3 3.314893 1_655
Br15 K1 3.314893 1_655
Br15 K0 3.350269 1_564
Br15 K5 3.350269 1_554
Br16 Sm3 2.904191 1_556
Br16 K7 3.325740 1_555
Br16 K2 3.325740 1_555
Br16 K0 3.351661 1_565
Br16 K5 3.351661 1_555
Br17 Sm2 2.904191 1_554
Br17 K6 3.325740 1_555
Br17 K4 3.325740 1_555
Br17 K3 3.351661 1_555
Br17 K1 3.351661 1_545
Br18 Sm1 2.904191 1_555
Br18 K5 3.325740 1_455
Br18 K0 3.325740 1_455
Br18 K2 3.351661 1_545
Br18 K7 3.351661 1_555
Br19 Sm0 2.904191 1_555
Br19 K3 3.325740 1_655
Br19 K1 3.325740 1_655
Br19 K4 3.351661 1_565
Br19 K6 3.351661 1_555
