# generated using pymatgen
data_Li9Mn2Co5O16
_symmetry_space_group_name_H-M   'P 1'
_cell_length_a   2.99385300
_cell_length_b   8.11904624
_cell_length_c   11.97814719
_cell_angle_alpha   90.55792525
_cell_angle_beta   94.42742391
_cell_angle_gamma   90.91099304
_symmetry_Int_Tables_number   1
_chemical_formula_structural   Li9Mn2Co5O16
_chemical_formula_sum   'Li9 Mn2 Co5 O16'
_cell_volume   290.23250815
_cell_formula_units_Z   1
loop_
 _symmetry_equiv_pos_site_id
 _symmetry_equiv_pos_as_xyz
  1  'x, y, z'
loop_
 _atom_site_type_symbol
 _atom_site_label
 _atom_site_symmetry_multiplicity
 _atom_site_fract_x
 _atom_site_fract_y
 _atom_site_fract_z
 _atom_site_occupancy
  Li  Li0  1  0.99773500  0.99151800  0.25692400  1
  Li  Li1  1  0.50539100  0.75466100  0.62517400  1
  Li  Li2  1  0.99511700  0.50351400  0.99966200  1
  Li  Li3  1  0.49860600  0.25022100  0.37735800  1
  Li  Li4  1  0.00384400  0.99952800  0.74753700  1
  Li  Li5  1  0.49449300  0.74413800  0.12624700  1
  Li  Li6  1  0.00234200  0.50473800  0.49637900  1
  Li  Li7  1  0.50211700  0.25044500  0.87120600  1
  Li  Li8  1  0.50025500  0.75117500  0.37674900  1
  Mn  Mn0  1  0.00186700  0.99782800  0.99926300  1
  Mn  Mn1  1  0.49704200  0.25379600  0.12751700  1
  Co  Co0  1  0.99662000  0.49850900  0.74779700  1
  Co  Co1  1  0.00383200  0.99093700  0.49522300  1
  Co  Co2  1  0.50669300  0.75052300  0.87206600  1
  Co  Co3  1  0.99302200  0.51161700  0.25742200  1
  Co  Co4  1  0.49450300  0.24556700  0.62511600  1
  O  O0  1  0.47431500  0.00991800  0.12372300  1
  O  O1  1  0.99707600  0.77593300  0.50345600  1
  O  O2  1  0.49624800  0.51210100  0.86576800  1
  O  O3  1  0.97910600  0.27218700  0.24701200  1
  O  O4  1  0.48173700  0.01181500  0.61574100  1
  O  O5  1  0.97077600  0.75731100  0.99254200  1
  O  O6  1  0.48009100  0.50076300  0.36743800  1
  O  O7  1  0.96717600  0.25185700  0.74213300  1
  O  O8  1  0.52833400  0.00131300  0.38384600  1
  O  O9  1  0.03073800  0.74592900  0.75707000  1
  O  O10  1  0.51965700  0.49176400  0.13126700  1
  O  O11  1  0.02756300  0.22980700  0.50752000  1
  O  O12  1  0.52041300  0.98834400  0.87966000  1
  O  O13  1  0.00661400  0.72564200  0.24797300  1
  O  O14  1  0.50031300  0.48595400  0.62980100  1
  O  O15  1  0.02636700  0.24064800  0.00340400  1
loop_
_geom_bond_atom_site_label_1
_geom_bond_atom_site_label_2
_geom_bond_distance
_geom_bond_site_symmetry_2
Li0 O8 2.112301 1_665
Li0 O8 2.150252 1_565
Li0 O0 2.156301 1_565
Li0 O13 2.160965 1_655
Li0 O0 2.225548 1_665
Li0 O3 2.284352 1_565
Li1 O1 2.035216 1_455
Li1 O4 2.094025 1_565
Li1 O9 2.144024 1_655
Li1 O1 2.156505 1_555
Li1 O14 2.182729 1_555
Li1 O9 2.205895 1_555
Li2 O5 2.065394 1_555
Li2 O2 2.107930 1_555
Li2 O15 2.138510 1_656
Li2 O10 2.141429 1_656
Li2 O10 2.205759 1_556
Li2 O2 2.279985 1_655
Li3 O8 2.026250 1_555
Li3 O6 2.040167 1_555
Li3 O3 2.127859 1_455
Li3 O11 2.144363 1_655
Li3 O11 2.187255 1_555
Li3 O3 2.209734 1_555
Li4 O7 2.054734 1_465
Li4 O9 2.065759 1_555
Li4 O12 2.129314 1_555
Li4 O4 2.138344 1_465
Li4 O4 2.212787 1_565
Li4 O12 2.227067 1_455
Li5 O13 2.040994 1_655
Li5 O10 2.052912 1_555
Li5 O13 2.146631 1_555
Li5 O5 2.157718 1_454
Li5 O0 2.160126 1_565
Li5 O5 2.227259 1_554
Li6 O14 2.108103 1_555
Li6 O6 2.110852 1_455
Li6 O6 2.184901 1_555
Li6 O1 2.203005 1_455
Li6 O11 2.239583 1_555
Li6 O14 2.281372 1_455
Li7 O2 2.126340 1_555
Li7 O12 2.132775 1_545
Li7 O7 2.138686 1_455
Li7 O15 2.144733 1_656
Li7 O7 2.158970 1_555
Li7 O15 2.211228 1_556
Li8 O8 2.031965 1_565
Li8 O6 2.034760 1_555
Li8 O1 2.047502 1_555
Li8 O13 2.058762 1_555
Li8 O1 2.229332 1_455
Li8 O13 2.255042 1_655
Mn0 O12 1.952302 1_455
Mn0 O5 1.954086 1_455
Mn0 O15 1.971664 1_566
Mn0 O0 1.974826 1_566
Mn0 O12 2.193963 1_555
Mn0 O0 2.256607 1_466
Mn1 O10 1.932146 1_555
Mn1 O3 1.955494 1_555
Mn1 O15 1.968718 1_555
Mn1 O0 1.980102 1_555
Mn1 O3 2.195746 1_455
Mn1 O15 2.258068 1_655
Co0 O14 1.970778 1_555
Co0 O2 1.977824 1_655
Co0 O7 2.003376 1_555
Co0 O9 2.011339 1_655
Co0 O2 2.140590 1_555
Co0 O14 2.147830 1_655
Co1 O1 1.749253 1_455
Co1 O8 1.877826 1_465
Co1 O11 1.943307 1_565
Co1 O4 1.956635 1_565
Co1 O8 2.138714 1_565
Co1 O4 2.215379 1_465
Co2 O9 1.903537 1_555
Co2 O5 1.924161 1_555
Co2 O12 1.931771 1_555
Co2 O2 1.936156 1_555
Co2 O9 2.166734 1_655
Co2 O5 2.240208 1_455
Co3 O13 1.742494 1_655
Co3 O6 1.892189 1_655
Co3 O3 1.946305 1_555
Co3 O10 1.993787 1_555
Co3 O6 2.100694 1_555
Co3 O10 2.272988 1_655
Co4 O4 1.899674 1_555
Co4 O11 1.908278 1_555
Co4 O7 1.913071 1_555
Co4 O14 1.951736 1_555
Co4 O7 2.191450 1_455
Co4 O11 2.213015 1_655
