# generated using pymatgen
data_Zn3Mo2O7
_symmetry_space_group_name_H-M   'P 1'
_cell_length_a   9.99729425
_cell_length_b   9.99729425
_cell_length_c   5.32313700
_cell_angle_alpha   90.00000000
_cell_angle_beta   90.00000000
_cell_angle_gamma   148.98584105
_symmetry_Int_Tables_number   1
_chemical_formula_structural   Zn3Mo2O7
_chemical_formula_sum   'Zn6 Mo4 O14'
_cell_volume   274.12616758
_cell_formula_units_Z   2
loop_
 _symmetry_equiv_pos_site_id
 _symmetry_equiv_pos_as_xyz
  1  'x, y, z'
loop_
 _atom_site_type_symbol
 _atom_site_label
 _atom_site_symmetry_multiplicity
 _atom_site_fract_x
 _atom_site_fract_y
 _atom_site_fract_z
 _atom_site_occupancy
  Zn  Zn0  1  0.73436700  0.73436700  0.26312900  1
  Zn  Zn1  1  0.26563300  0.26563300  0.76312900  1
  Zn  Zn2  1  0.98896000  0.57924900  0.21855800  1
  Zn  Zn3  1  0.01104000  0.42075100  0.71855800  1
  Zn  Zn4  1  0.57924900  0.98896000  0.21855800  1
  Zn  Zn5  1  0.42075100  0.01104000  0.71855800  1
  Mo  Mo0  1  0.14858200  0.35538100  0.24264300  1
  Mo  Mo1  1  0.85141800  0.64461900  0.74264300  1
  Mo  Mo2  1  0.64461900  0.85141800  0.74264300  1
  Mo  Mo3  1  0.35538100  0.14858200  0.24264300  1
  O  O0  1  0.34649100  0.93621000  0.34207500  1
  O  O1  1  0.65350900  0.06379000  0.84207500  1
  O  O2  1  0.06379000  0.65350900  0.84207500  1
  O  O3  1  0.93621000  0.34649100  0.34207500  1
  O  O4  1  0.54514200  0.27723900  0.91783000  1
  O  O5  1  0.45485800  0.72276100  0.41783000  1
  O  O6  1  0.72276100  0.45485800  0.41783000  1
  O  O7  1  0.27723900  0.54514200  0.91783000  1
  O  O8  1  0.98916100  0.83987000  0.06641100  1
  O  O9  1  0.01083900  0.16013000  0.56641100  1
  O  O10  1  0.36944700  0.36944700  0.14183500  1
  O  O11  1  0.63055300  0.63055300  0.64183500  1
  O  O12  1  0.83987000  0.98916100  0.06641100  1
  O  O13  1  0.16013000  0.01083900  0.56641100  1
loop_
_geom_bond_atom_site_label_1
_geom_bond_atom_site_label_2
_geom_bond_distance
_geom_bond_site_symmetry_2
Mo0 O7 2.015034 1_554
Mo0 O9 2.017277 1_555
Mo0 O12 2.107450 1_445
Mo0 O5 2.111452 1_555
Mo0 O3 2.114794 1_455
Mo0 O10 2.156618 1_555
Mo1 O6 2.015034 1_555
Mo1 O8 2.017277 1_556
Mo1 O13 2.107450 1_665
Mo1 O4 2.111452 1_555
Mo1 O2 2.114794 1_655
Mo1 O11 2.156618 1_555
Mo2 O5 2.015034 1_555
Mo2 O12 2.017277 1_556
Mo2 O9 2.107450 1_665
Mo2 O7 2.111452 1_555
Mo2 O1 2.114794 1_565
Mo2 O11 2.156618 1_555
Mo3 O4 2.015034 1_554
Mo3 O13 2.017277 1_555
Mo3 O8 2.107450 1_445
Mo3 O6 2.111452 1_555
Mo3 O0 2.114794 1_545
Mo3 O10 2.156618 1_555
O0 Zn4 2.005418 1_555
O0 Zn2 2.019754 1_455
O0 Zn5 2.043313 1_565
O1 Zn5 2.005418 1_555
O1 Zn3 2.019754 1_655
O1 Zn4 2.043313 1_546
O2 Zn3 2.005418 1_555
O2 Zn5 2.019754 1_565
O2 Zn2 2.043313 1_456
O3 Zn2 2.005418 1_555
O3 Zn4 2.019754 1_545
O3 Zn3 2.043313 1_655
O4 Zn5 2.020224 1_555
O5 Zn4 2.020224 1_555
O6 Zn2 2.020224 1_555
O7 Zn3 2.020224 1_555
O8 Zn0 2.022942 1_555
O9 Zn1 2.022942 1_555
O10 Zn0 2.054829 1_555
O10 Zn1 2.090896 1_554
O11 Zn1 2.054829 1_555
O11 Zn0 2.090896 1_555
O12 Zn0 2.022942 1_555
O13 Zn1 2.022942 1_555
