# generated using pymatgen
data_Mg149In
_symmetry_space_group_name_H-M   'P 1'
_cell_length_a   15.96523203
_cell_length_b   15.96531428
_cell_length_c   15.60860216
_cell_angle_alpha   90.00000367
_cell_angle_beta   89.99999309
_cell_angle_gamma   120.00035064
_symmetry_Int_Tables_number   1
_chemical_formula_structural   Mg149In
_chemical_formula_sum   'Mg149 In1'
_cell_volume   3445.44891574
_cell_formula_units_Z   1
loop_
 _symmetry_equiv_pos_site_id
 _symmetry_equiv_pos_as_xyz
  1  'x, y, z'
loop_
 _atom_site_type_symbol
 _atom_site_label
 _atom_site_symmetry_multiplicity
 _atom_site_fract_x
 _atom_site_fract_y
 _atom_site_fract_z
 _atom_site_occupancy
  Mg  Mg0  1  0.79981957  0.00065325  0.00000009  1
  Mg  Mg1  1  0.20083287  0.00065273  -0.00000007  1
  Mg  Mg2  1  0.20083306  0.20018001  -0.00000000  1
  Mg  Mg3  1  0.99934693  0.20018097  0.00000007  1
  Mg  Mg4  1  0.80003925  0.19996010  0.00000021  1
  Mg  Mg5  1  0.39991976  0.19996032  0.00000003  1
  Mg  Mg6  1  0.59998182  0.19996423  0.00000015  1
  Mg  Mg7  1  0.19970471  0.39941002  0.00000002  1
  Mg  Mg8  1  0.80003583  0.40001846  0.00000004  1
  Mg  Mg9  1  0.59998184  0.40001845  0.00000001  1
  Mg  Mg10  1  0.00006408  0.40022956  -0.00000022  1
  Mg  Mg11  1  0.40016435  0.40022897  -0.00000012  1
  Mg  Mg12  1  0.00006415  0.59983547  0.00000001  1
  Mg  Mg13  1  0.59977117  0.59983575  0.00000008  1
  Mg  Mg14  1  0.40003680  0.59996314  -0.00000000  1
  Mg  Mg15  1  0.19992647  0.59996375  0.00000004  1
  Mg  Mg16  1  0.80003927  0.60008016  -0.00000003  1
  Mg  Mg17  1  0.99934717  0.79916534  0.00000006  1
  Mg  Mg18  1  0.79981982  0.79916641  0.00000001  1
  Mg  Mg19  1  0.40003678  0.80007395  -0.00000001  1
  Mg  Mg20  1  0.19970463  0.80029486  0.00000007  1
  Mg  Mg21  1  0.60058972  0.80029475  -0.00000009  1
  Mg  Mg22  1  0.40016444  0.99993625  0.00000010  1
  Mg  Mg23  1  0.59977126  0.99993546  -0.00000004  1
  Mg  Mg24  1  0.06643363  0.33303682  0.16645245  1
  Mg  Mg25  1  0.26660395  0.33303760  0.16645252  1
  Mg  Mg26  1  0.06643353  0.73339592  0.16645261  1
  Mg  Mg27  1  0.66696259  0.73339606  0.16645241  1
  Mg  Mg28  1  0.26660383  0.93356743  0.16645258  1
  Mg  Mg29  1  0.66696252  0.93356644  0.16645253  1
  Mg  Mg30  1  0.66653066  0.13332044  0.16655040  1
  Mg  Mg31  1  0.46678977  0.13331987  0.16655043  1
  Mg  Mg32  1  0.46678947  0.33346871  0.16655052  1
  Mg  Mg33  1  0.86667993  0.33346951  0.16655042  1
  Mg  Mg34  1  0.86667975  0.53321029  0.16655069  1
  Mg  Mg35  1  0.66653076  0.53321130  0.16655058  1
  Mg  Mg36  1  0.66666536  0.33333269  0.16669068  1
  Mg  Mg37  1  0.46663215  0.53336899  0.16659884  1
  Mg  Mg38  1  0.06673719  0.53336906  0.16659899  1
  Mg  Mg39  1  0.46663218  0.93326424  0.16659844  1
  Mg  Mg40  1  0.26661325  0.53322591  0.16667846  1
  Mg  Mg41  1  0.26661316  0.73338737  0.16667863  1
  Mg  Mg42  1  0.46677368  0.73338716  0.16667803  1
  Mg  Mg43  1  0.06675458  0.13350899  0.16730729  1
  Mg  Mg44  1  0.86649113  0.93324555  0.16730705  1
  Mg  Mg45  1  0.06675459  0.93324643  0.16730715  1
  Mg  Mg46  1  0.26726041  0.13362948  0.16715761  1
  Mg  Mg47  1  0.86637023  0.13363045  0.16715727  1
  Mg  Mg48  1  0.86637011  0.73273973  0.16715718  1
  Mg  Mg49  1  0.19992306  0.39984701  0.33315821  1
  Mg  Mg50  1  0.60015321  0.80007698  0.33315819  1
  Mg  Mg51  1  0.19992318  0.80007689  0.33315824  1
  Mg  Mg52  1  0.60003591  0.20007204  0.33319534  1
  Mg  Mg53  1  0.60003593  0.39996405  0.33319538  1
  Mg  Mg54  1  0.79992745  0.39996387  0.33319583  1
  Mg  Mg55  1  0.60014078  0.00003827  0.33323846  1
  Mg  Mg56  1  0.39989745  0.00003845  0.33323847  1
  Mg  Mg57  1  0.99996113  0.39985841  0.33323809  1
  Mg  Mg58  1  0.39989747  0.39985968  0.33323854  1
  Mg  Mg59  1  0.60014072  0.60010214  0.33323862  1
  Mg  Mg60  1  0.99996094  0.60010229  0.33323828  1
  Mg  Mg61  1  0.99999996  0.00000010  0.33340120  1
  Mg  Mg62  1  0.79996330  0.20003676  0.33331457  1
  Mg  Mg63  1  0.40007425  0.20003657  0.33331501  1
  Mg  Mg64  1  0.79996335  0.59992552  0.33331437  1
  Mg  Mg65  1  0.39998830  0.60001187  0.33330120  1
  Mg  Mg66  1  0.20002335  0.60001151  0.33330097  1
  Mg  Mg67  1  0.39998833  0.79997658  0.33330110  1
  Mg  Mg68  1  0.80013900  0.00003510  0.33362581  1
  Mg  Mg69  1  0.19989698  0.00003627  0.33362551  1
  Mg  Mg70  1  0.99996423  0.19986021  0.33362531  1
  Mg  Mg71  1  0.19989685  0.19986080  0.33362542  1
  Mg  Mg72  1  0.99996425  0.80010345  0.33362550  1
  Mg  Mg73  1  0.80013878  0.80010404  0.33362580  1
  Mg  Mg74  1  0.06660512  0.13320922  0.50000009  1
  Mg  Mg75  1  0.86670014  0.13329918  0.49999962  1
  Mg  Mg76  1  0.26660028  0.13330015  0.49999999  1
  Mg  Mg77  1  0.46669007  0.13324125  0.50000004  1
  Mg  Mg78  1  0.66655090  0.13324113  0.50000005  1
  Mg  Mg79  1  0.06655866  0.33328320  0.50000008  1
  Mg  Mg80  1  0.26672432  0.33328312  0.50000017  1
  Mg  Mg81  1  0.66666620  0.33333311  0.49999991  1
  Mg  Mg82  1  0.46669009  0.33344992  0.49999985  1
  Mg  Mg83  1  0.86675903  0.33344964  0.49999993  1
  Mg  Mg84  1  0.66655047  0.53331046  0.49999989  1
  Mg  Mg85  1  0.86675912  0.53331047  0.49999985  1
  Mg  Mg86  1  0.46672083  0.53327854  0.50000015  1
  Mg  Mg87  1  0.06655739  0.53327892  0.50000002  1
  Mg  Mg88  1  0.26658612  0.53317217  0.49999987  1
  Mg  Mg89  1  0.66671695  0.73327565  0.49999996  1
  Mg  Mg90  1  0.06655867  0.73327564  0.50000005  1
  Mg  Mg91  1  0.86670031  0.73340015  0.50000003  1
  Mg  Mg92  1  0.26658613  0.73341420  0.49999990  1
  Mg  Mg93  1  0.46682814  0.73341411  0.50000016  1
  Mg  Mg94  1  0.06660527  0.93339599  0.50000005  1
  Mg  Mg95  1  0.86679062  0.93339573  0.50000016  1
  Mg  Mg96  1  0.66671692  0.93344117  0.50000015  1
  Mg  Mg97  1  0.26672439  0.93344123  0.50000010  1
  Mg  Mg98  1  0.46672100  0.93344224  0.49999997  1
  Mg  Mg99  1  0.80013894  0.00003495  0.66637444  1
  Mg  Mg100  1  0.19989688  0.00003619  0.66637451  1
  Mg  Mg101  1  0.99996438  0.19986016  0.66637464  1
  Mg  Mg102  1  0.19989699  0.19986072  0.66637444  1
  Mg  Mg103  1  0.99996409  0.80010305  0.66637476  1
  Mg  Mg104  1  0.80013885  0.80010380  0.66637433  1
  Mg  Mg105  1  0.39998856  0.60001187  0.66669786  1
  Mg  Mg106  1  0.20002351  0.60001162  0.66669794  1
  Mg  Mg107  1  0.39998847  0.79997670  0.66669780  1
  Mg  Mg108  1  0.79996323  0.20003686  0.66668558  1
  Mg  Mg109  1  0.40007412  0.20003652  0.66668507  1
  Mg  Mg110  1  0.79996320  0.59992550  0.66668548  1
  Mg  Mg111  1  0.99999987  0.99999994  0.66659895  1
  Mg  Mg112  1  0.60014061  0.00003843  0.66676158  1
  Mg  Mg113  1  0.39989766  0.00003872  0.66676174  1
  Mg  Mg114  1  0.99996094  0.39985849  0.66676173  1
  Mg  Mg115  1  0.39989767  0.39985996  0.66676162  1
  Mg  Mg116  1  0.60014077  0.60010236  0.66676165  1
  Mg  Mg117  1  0.99996118  0.60010287  0.66676173  1
  Mg  Mg118  1  0.60003593  0.20007198  0.66680455  1
  Mg  Mg119  1  0.60003592  0.39996374  0.66680447  1
  Mg  Mg120  1  0.79992743  0.39996376  0.66680420  1
  Mg  Mg121  1  0.19992337  0.39984728  0.66684201  1
  Mg  Mg122  1  0.60015319  0.80007707  0.66684164  1
  Mg  Mg123  1  0.19992317  0.80007702  0.66684172  1
  Mg  Mg124  1  0.26726038  0.13362960  0.83284238  1
  Mg  Mg125  1  0.86637020  0.13363045  0.83284268  1
  Mg  Mg126  1  0.86637016  0.73273969  0.83284261  1
  Mg  Mg127  1  0.06675462  0.13350912  0.83269271  1
  Mg  Mg128  1  0.86649115  0.93324555  0.83269279  1
  Mg  Mg129  1  0.06675472  0.93324661  0.83269267  1
  Mg  Mg130  1  0.26661343  0.53322612  0.83332146  1
  Mg  Mg131  1  0.26661307  0.73338737  0.83332151  1
  Mg  Mg132  1  0.46677345  0.73338722  0.83332182  1
  Mg  Mg133  1  0.46663219  0.53336904  0.83340128  1
  Mg  Mg134  1  0.06673695  0.53336878  0.83340109  1
  Mg  Mg135  1  0.46663223  0.93326405  0.83340129  1
  Mg  Mg136  1  0.66666546  0.33333267  0.83330928  1
  Mg  Mg137  1  0.66653057  0.13332013  0.83345044  1
  Mg  Mg138  1  0.46678961  0.13331978  0.83345053  1
  Mg  Mg139  1  0.46678949  0.33346892  0.83345053  1
  Mg  Mg140  1  0.86668010  0.33346974  0.83345035  1
  Mg  Mg141  1  0.86668005  0.53321063  0.83345035  1
  Mg  Mg142  1  0.66653073  0.53321139  0.83345034  1
  Mg  Mg143  1  0.06643364  0.33303678  0.83354747  1
  Mg  Mg144  1  0.26660398  0.33303760  0.83354752  1
  Mg  Mg145  1  0.06643349  0.73339593  0.83354734  1
  Mg  Mg146  1  0.66696254  0.73339605  0.83354752  1
  Mg  Mg147  1  0.26660399  0.93356715  0.83354748  1
  Mg  Mg148  1  0.66696255  0.93356651  0.83354745  1
  In  In0  1  0.99999887  0.99999934  0.00000005  1
loop_
_geom_bond_atom_site_label_1
_geom_bond_atom_site_label_2
_geom_bond_distance
_geom_bond_site_symmetry_2
Mg0 Mg4 3.180244 1_555
Mg0 Mg29 3.181892 1_545
Mg0 Mg148 3.181894 1_544
Mg0 Mg3 3.185495 1_555
Mg0 Mg23 3.188103 1_545
Mg0 Mg21 3.189790 1_545
Mg0 Mg47 3.191825 1_555
Mg0 Mg125 3.191828 1_554
Mg0 Mg44 3.202541 1_545
Mg0 Mg128 3.202545 1_544
Mg0 Mg18 3.216803 1_545
Mg1 Mg5 3.180223 1_555
Mg1 Mg28 3.181897 1_545
Mg1 Mg147 3.181897 1_544
Mg1 Mg2 3.185514 1_555
Mg1 Mg22 3.188110 1_545
Mg1 Mg20 3.189808 1_545
Mg1 Mg124 3.191827 1_554
Mg1 Mg46 3.191828 1_555
Mg1 Mg129 3.202527 1_544
Mg1 Mg45 3.202527 1_545
Mg1 Mg17 3.216771 1_445
Mg2 Mg5 3.180221 1_555
Mg2 Mg25 3.181903 1_555
Mg2 Mg7 3.189815 1_555
Mg2 Mg46 3.191839 1_555
Mg2 Mg43 3.202530 1_555
Mg2 Mg3 3.216780 1_455
Mg3 Mg4 3.180232 1_555
Mg3 Mg7 3.189778 1_655
Mg3 Mg47 3.191816 1_555
Mg3 Mg43 3.202547 1_655
Mg4 Mg47 3.189307 1_555
Mg4 Mg6 3.193996 1_555
Mg4 Mg8 3.194022 1_555
Mg5 Mg9 3.193997 1_555
Mg5 Mg6 3.194006 1_555
Mg6 Mg8 3.193902 1_555
Mg6 Mg9 3.193928 1_555
Mg8 Mg9 3.193908 1_555
Mg10 Mg134 3.185997 1_554
Mg10 Mg38 3.186006 1_555
Mg10 Mg12 3.186771 1_555
Mg10 Mg140 3.187321 1_454
Mg10 Mg33 3.187338 1_455
Mg10 Mg143 3.187528 1_554
Mg10 Mg24 3.187532 1_555
Mg10 Mg3 3.188129 1_455
Mg10 Mg15 3.189818 1_555
Mg10 Mg8 3.191814 1_455
Mg10 Mg7 3.193871 1_555
Mg10 Mg4 3.195389 1_455
Mg11 Mg133 3.186003 1_554
Mg11 Mg37 3.186007 1_555
Mg11 Mg13 3.186760 1_555
Mg11 Mg139 3.187338 1_554
Mg11 Mg32 3.187356 1_555
Mg11 Mg144 3.187504 1_554
Mg11 Mg25 3.187508 1_555
Mg11 Mg2 3.188106 1_555
Mg11 Mg14 3.189837 1_555
Mg11 Mg9 3.191814 1_555
Mg11 Mg7 3.193867 1_555
Mg11 Mg5 3.195401 1_555
Mg12 Mg134 3.186005 1_554
Mg12 Mg38 3.186006 1_555
Mg12 Mg141 3.187325 1_454
Mg12 Mg34 3.187340 1_455
Mg12 Mg26 3.187513 1_555
Mg12 Mg145 3.187514 1_554
Mg12 Mg17 3.188103 1_455
Mg12 Mg15 3.189825 1_555
Mg12 Mg8 3.191804 1_455
Mg12 Mg20 3.193855 1_555
Mg12 Mg16 3.195399 1_455
Mg13 Mg37 3.185991 1_555
Mg13 Mg133 3.185991 1_554
Mg13 Mg142 3.187333 1_554
Mg13 Mg35 3.187344 1_555
Mg13 Mg27 3.187509 1_555
Mg13 Mg146 3.187512 1_554
Mg13 Mg18 3.188098 1_555
Mg13 Mg14 3.189823 1_555
Mg13 Mg9 3.191829 1_555
Mg13 Mg21 3.193877 1_555
Mg13 Mg16 3.195377 1_555
Mg14 Mg37 3.186404 1_555
Mg14 Mg40 3.189280 1_555
Mg14 Mg42 3.189284 1_555
Mg14 Mg15 3.194813 1_555
Mg14 Mg19 3.194832 1_555
Mg14 Mg21 3.200100 1_555
Mg14 Mg7 3.200105 1_555
Mg15 Mg38 3.186394 1_555
Mg15 Mg41 3.189288 1_555
Mg15 Mg40 3.189297 1_555
Mg15 Mg19 3.194798 1_555
Mg15 Mg20 3.200121 1_555
Mg15 Mg7 3.200135 1_555
Mg16 Mg17 3.180212 1_555
Mg16 Mg18 3.180228 1_555
Mg16 Mg35 3.188333 1_555
Mg16 Mg34 3.188358 1_555
Mg16 Mg48 3.189297 1_555
Mg16 Mg9 3.193989 1_555
Mg16 Mg8 3.194020 1_555
Mg17 Mg26 3.181892 1_655
Mg17 Mg18 3.185509 1_555
Mg17 Mg20 3.189775 1_655
Mg17 Mg48 3.191817 1_555
Mg17 Mg45 3.202554 1_655
Mg18 Mg27 3.181893 1_555
Mg18 Mg21 3.189800 1_555
Mg18 Mg48 3.191826 1_555
Mg18 Mg44 3.202538 1_555
Mg19 Mg39 3.186402 1_555
Mg19 Mg41 3.189283 1_555
Mg19 Mg42 3.189284 1_555
Mg19 Mg23 3.189813 1_555
Mg19 Mg22 3.189846 1_555
Mg19 Mg21 3.200113 1_555
Mg19 Mg20 3.200114 1_555
Mg20 Mg26 3.185187 1_555
Mg20 Mg28 3.185204 1_555
Mg20 Mg41 3.192432 1_555
Mg20 Mg22 3.193866 1_555
Mg21 Mg29 3.185198 1_555
Mg21 Mg27 3.185199 1_555
Mg21 Mg42 3.192417 1_555
Mg21 Mg23 3.193880 1_555
Mg22 Mg39 3.186000 1_555
Mg22 Mg23 3.186776 1_555
Mg22 Mg31 3.187335 1_565
Mg22 Mg28 3.187507 1_555
Mg22 Mg6 3.191805 1_565
Mg22 Mg5 3.195402 1_565
Mg23 Mg39 3.185988 1_555
Mg23 Mg30 3.187347 1_565
Mg23 Mg29 3.187515 1_555
Mg23 Mg6 3.191843 1_565
Mg23 Mg4 3.195375 1_565
Mg24 Mg3 3.181887 1_455
Mg24 Mg7 3.185185 1_555
Mg24 Mg43 3.188118 1_555
Mg24 Mg47 3.188837 1_455
Mg24 Mg57 3.189620 1_455
Mg24 Mg49 3.190155 1_555
Mg24 Mg33 3.192574 1_455
Mg24 Mg70 3.193614 1_455
Mg24 Mg25 3.195759 1_555
Mg24 Mg38 3.195948 1_555
Mg24 Mg40 3.195983 1_555
Mg25 Mg7 3.185200 1_555
Mg25 Mg43 3.188103 1_555
Mg25 Mg46 3.188886 1_555
Mg25 Mg58 3.189612 1_555
Mg25 Mg49 3.190169 1_555
Mg25 Mg32 3.192573 1_555
Mg25 Mg71 3.193616 1_555
Mg25 Mg37 3.195912 1_555
Mg25 Mg40 3.195997 1_555
Mg26 Mg45 3.188144 1_555
Mg26 Mg48 3.188853 1_455
Mg26 Mg60 3.189614 1_455
Mg26 Mg51 3.190155 1_555
Mg26 Mg34 3.192560 1_455
Mg26 Mg72 3.193619 1_455
Mg26 Mg28 3.195766 1_555
Mg26 Mg38 3.195919 1_555
Mg26 Mg41 3.195984 1_555
Mg27 Mg44 3.188104 1_555
Mg27 Mg48 3.188859 1_555
Mg27 Mg59 3.189623 1_555
Mg27 Mg50 3.190170 1_555
Mg27 Mg35 3.192571 1_555
Mg27 Mg73 3.193612 1_555
Mg27 Mg29 3.195784 1_555
Mg27 Mg37 3.195895 1_555
Mg27 Mg42 3.195993 1_555
Mg28 Mg45 3.188108 1_555
Mg28 Mg46 3.188844 1_565
Mg28 Mg56 3.189611 1_565
Mg28 Mg51 3.190168 1_555
Mg28 Mg31 3.192552 1_565
Mg28 Mg69 3.193611 1_565
Mg28 Mg39 3.195923 1_555
Mg28 Mg41 3.196014 1_555
Mg29 Mg44 3.188113 1_555
Mg29 Mg47 3.188853 1_565
Mg29 Mg55 3.189619 1_565
Mg29 Mg50 3.190159 1_555
Mg29 Mg30 3.192589 1_565
Mg29 Mg68 3.193613 1_565
Mg29 Mg39 3.195912 1_555
Mg29 Mg42 3.195978 1_555
Mg30 Mg6 3.185810 1_555
Mg30 Mg52 3.187445 1_555
Mg30 Mg47 3.188027 1_555
Mg30 Mg55 3.188280 1_555
Mg30 Mg4 3.188328 1_555
Mg30 Mg31 3.188905 1_555
Mg30 Mg62 3.190444 1_555
Mg30 Mg36 3.192184 1_555
Mg30 Mg39 3.192677 1_545
Mg30 Mg33 3.195419 1_555
Mg31 Mg6 3.185797 1_555
Mg31 Mg52 3.187435 1_555
Mg31 Mg46 3.188021 1_555
Mg31 Mg56 3.188274 1_555
Mg31 Mg5 3.188354 1_555
Mg31 Mg63 3.190454 1_555
Mg31 Mg36 3.192148 1_555
Mg31 Mg39 3.192694 1_545
Mg31 Mg32 3.195442 1_555
Mg32 Mg9 3.185802 1_555
Mg32 Mg53 3.187437 1_555
Mg32 Mg46 3.188012 1_555
Mg32 Mg58 3.188289 1_555
Mg32 Mg5 3.188336 1_555
Mg32 Mg35 3.188918 1_555
Mg32 Mg63 3.190450 1_555
Mg32 Mg36 3.192152 1_555
Mg32 Mg37 3.192727 1_555
Mg33 Mg8 3.185815 1_555
Mg33 Mg54 3.187455 1_555
Mg33 Mg47 3.188038 1_555
Mg33 Mg57 3.188262 1_555
Mg33 Mg4 3.188340 1_555
Mg33 Mg34 3.188926 1_555
Mg33 Mg62 3.190450 1_555
Mg33 Mg36 3.192188 1_555
Mg33 Mg38 3.192694 1_655
Mg34 Mg8 3.185805 1_555
Mg34 Mg54 3.187446 1_555
Mg34 Mg48 3.188039 1_555
Mg34 Mg60 3.188261 1_555
Mg34 Mg64 3.190438 1_555
Mg34 Mg36 3.192177 1_555
Mg34 Mg38 3.192697 1_655
Mg34 Mg35 3.195433 1_555
Mg35 Mg9 3.185813 1_555
Mg35 Mg53 3.187448 1_555
Mg35 Mg48 3.188008 1_555
Mg35 Mg59 3.188272 1_555
Mg35 Mg64 3.190439 1_555
Mg35 Mg36 3.192201 1_555
Mg35 Mg37 3.192687 1_555
Mg36 Mg52 3.185770 1_555
Mg36 Mg53 3.185774 1_555
Mg36 Mg54 3.185782 1_555
Mg36 Mg6 3.188999 1_555
Mg36 Mg9 3.189010 1_555
Mg36 Mg8 3.189010 1_555
Mg37 Mg65 3.188499 1_555
Mg37 Mg59 3.189468 1_555
Mg37 Mg58 3.189478 1_555
Mg37 Mg40 3.192207 1_555
Mg37 Mg42 3.192224 1_555
Mg38 Mg66 3.188481 1_555
Mg38 Mg60 3.189477 1_455
Mg38 Mg57 3.189481 1_455
Mg38 Mg41 3.192195 1_555
Mg38 Mg40 3.192211 1_555
Mg39 Mg67 3.188507 1_555
Mg39 Mg55 3.189471 1_565
Mg39 Mg56 3.189482 1_565
Mg39 Mg41 3.192207 1_555
Mg39 Mg42 3.192231 1_555
Mg40 Mg49 3.186399 1_555
Mg40 Mg65 3.188183 1_555
Mg40 Mg66 3.188192 1_555
Mg40 Mg7 3.192426 1_555
Mg40 Mg42 3.195606 1_555
Mg40 Mg41 3.195641 1_555
Mg41 Mg51 3.186404 1_555
Mg41 Mg67 3.188181 1_555
Mg41 Mg66 3.188190 1_555
Mg41 Mg42 3.195611 1_555
Mg42 Mg50 3.186403 1_555
Mg42 Mg67 3.188193 1_555
Mg42 Mg65 3.188196 1_555
Mg43 Mg71 3.182445 1_555
Mg43 Mg70 3.182446 1_455
Mg43 Mg61 3.182531 1_455
Mg43 Mg44 3.197244 1_445
Mg43 Mg45 3.197255 1_545
Mg43 Mg47 3.200154 1_455
Mg43 Mg46 3.200162 1_555
Mg44 Mg73 3.182452 1_555
Mg44 Mg68 3.182456 1_565
Mg44 Mg61 3.182529 1_565
Mg44 Mg45 3.197246 1_655
Mg44 Mg48 3.200174 1_555
Mg44 Mg47 3.200174 1_565
Mg45 Mg69 3.182448 1_565
Mg45 Mg72 3.182458 1_455
Mg45 Mg61 3.182531 1_465
Mg45 Mg46 3.200134 1_565
Mg45 Mg48 3.200153 1_455
Mg46 Mg63 3.177770 1_555
Mg46 Mg69 3.187976 1_555
Mg46 Mg71 3.187991 1_555
Mg46 Mg5 3.189295 1_555
Mg47 Mg62 3.177772 1_555
Mg47 Mg70 3.187979 1_555
Mg47 Mg68 3.188002 1_555
Mg48 Mg64 3.177776 1_555
Mg48 Mg72 3.187984 1_555
Mg48 Mg73 3.188008 1_555
Mg49 Mg88 3.190578 1_555
Mg49 Mg79 3.190889 1_555
Mg49 Mg80 3.190905 1_555
Mg49 Mg57 3.192530 1_455
Mg49 Mg58 3.192537 1_555
Mg49 Mg70 3.192612 1_455
Mg49 Mg71 3.192642 1_555
Mg49 Mg65 3.194876 1_555
Mg49 Mg66 3.194890 1_555
Mg50 Mg93 3.190575 1_555
Mg50 Mg96 3.190894 1_555
Mg50 Mg89 3.190901 1_555
Mg50 Mg55 3.192544 1_565
Mg50 Mg59 3.192562 1_555
Mg50 Mg68 3.192598 1_565
Mg50 Mg73 3.192608 1_555
Mg50 Mg65 3.194875 1_555
Mg50 Mg67 3.194878 1_555
Mg51 Mg92 3.190584 1_555
Mg51 Mg90 3.190889 1_555
Mg51 Mg97 3.190894 1_555
Mg51 Mg56 3.192526 1_565
Mg51 Mg60 3.192534 1_455
Mg51 Mg72 3.192611 1_455
Mg51 Mg69 3.192632 1_565
Mg51 Mg67 3.194888 1_555
Mg51 Mg66 3.194907 1_555
Mg52 Mg81 3.189593 1_555
Mg52 Mg77 3.190267 1_555
Mg52 Mg78 3.190277 1_555
Mg52 Mg54 3.191308 1_555
Mg52 Mg53 3.191339 1_555
Mg52 Mg63 3.192152 1_555
Mg52 Mg62 3.192169 1_555
Mg52 Mg56 3.194412 1_555
Mg52 Mg55 3.194440 1_555
Mg53 Mg81 3.189597 1_555
Mg53 Mg82 3.190264 1_555
Mg53 Mg84 3.190275 1_555
Mg53 Mg54 3.191316 1_555
Mg53 Mg64 3.192151 1_555
Mg53 Mg63 3.192153 1_555
Mg53 Mg58 3.194424 1_555
Mg53 Mg59 3.194431 1_555
Mg54 Mg81 3.189583 1_555
Mg54 Mg83 3.190268 1_555
Mg54 Mg85 3.190270 1_555
Mg54 Mg64 3.192165 1_555
Mg54 Mg62 3.192186 1_555
Mg54 Mg60 3.194410 1_555
Mg54 Mg57 3.194426 1_555
Mg55 Mg96 3.188348 1_545
Mg55 Mg78 3.188582 1_555
Mg55 Mg98 3.190308 1_545
Mg55 Mg62 3.191610 1_555
Mg55 Mg68 3.193049 1_555
Mg55 Mg67 3.194747 1_545
Mg55 Mg56 3.196933 1_555
Mg56 Mg97 3.188338 1_545
Mg56 Mg77 3.188581 1_555
Mg56 Mg98 3.190316 1_545
Mg56 Mg63 3.191623 1_555
Mg56 Mg69 3.193042 1_555
Mg56 Mg67 3.194776 1_545
Mg57 Mg79 3.188348 1_655
Mg57 Mg83 3.188574 1_555
Mg57 Mg87 3.190325 1_655
Mg57 Mg62 3.191598 1_555
Mg57 Mg70 3.193065 1_555
Mg57 Mg66 3.194757 1_655
Mg57 Mg60 3.196958 1_555
Mg58 Mg80 3.188338 1_555
Mg58 Mg82 3.188578 1_555
Mg58 Mg86 3.190307 1_555
Mg58 Mg63 3.191651 1_555
Mg58 Mg71 3.193039 1_555
Mg58 Mg65 3.194768 1_555
Mg58 Mg59 3.196915 1_555
Mg59 Mg89 3.188343 1_555
Mg59 Mg84 3.188570 1_555
Mg59 Mg86 3.190309 1_555
Mg59 Mg64 3.191626 1_555
Mg59 Mg73 3.193043 1_555
Mg59 Mg65 3.194760 1_555
Mg60 Mg90 3.188347 1_655
Mg60 Mg85 3.188568 1_555
Mg60 Mg87 3.190320 1_655
Mg60 Mg64 3.191598 1_555
Mg60 Mg72 3.193061 1_555
Mg60 Mg66 3.194768 1_655
Mg61 Mg95 3.186555 1_545
Mg61 Mg74 3.186558 1_655
Mg61 Mg94 3.186563 1_645
Mg61 Mg73 3.191102 1_545
Mg61 Mg71 3.191105 1_655
Mg61 Mg68 3.191108 1_555
Mg61 Mg69 3.191116 1_655
Mg61 Mg70 3.191117 1_555
Mg61 Mg72 3.191130 1_545
Mg62 Mg78 3.189280 1_555
Mg62 Mg83 3.189288 1_555
Mg62 Mg75 3.189779 1_555
Mg62 Mg70 3.194475 1_555
Mg62 Mg68 3.194497 1_555
Mg63 Mg77 3.189273 1_555
Mg63 Mg82 3.189285 1_555
Mg63 Mg76 3.189766 1_555
Mg63 Mg69 3.194460 1_555
Mg63 Mg71 3.194480 1_555
Mg64 Mg85 3.189276 1_555
Mg64 Mg84 3.189285 1_555
Mg64 Mg91 3.189786 1_555
Mg64 Mg72 3.194470 1_555
Mg64 Mg73 3.194517 1_555
Mg65 Mg88 3.189367 1_555
Mg65 Mg93 3.189377 1_555
Mg65 Mg86 3.189888 1_555
Mg65 Mg66 3.192484 1_555
Mg65 Mg67 3.192499 1_555
Mg66 Mg88 3.189378 1_555
Mg66 Mg92 3.189380 1_555
Mg66 Mg87 3.189881 1_555
Mg66 Mg67 3.192479 1_555
Mg67 Mg92 3.189369 1_555
Mg67 Mg93 3.189382 1_555
Mg67 Mg98 3.189882 1_555
Mg68 Mg75 3.184131 1_555
Mg68 Mg95 3.184357 1_545
Mg68 Mg96 3.185398 1_545
Mg68 Mg70 3.190247 1_555
Mg68 Mg73 3.191960 1_545
Mg69 Mg76 3.184138 1_555
Mg69 Mg94 3.184356 1_545
Mg69 Mg97 3.185412 1_545
Mg69 Mg71 3.190262 1_555
Mg69 Mg72 3.191964 1_445
Mg70 Mg75 3.184132 1_555
Mg70 Mg74 3.184369 1_655
Mg70 Mg79 3.185416 1_655
Mg70 Mg71 3.191966 1_655
Mg71 Mg76 3.184144 1_555
Mg71 Mg74 3.184358 1_555
Mg71 Mg80 3.185410 1_555
Mg72 Mg91 3.184134 1_555
Mg72 Mg94 3.184368 1_655
Mg72 Mg90 3.185410 1_655
Mg72 Mg73 3.190265 1_555
Mg73 Mg91 3.184151 1_555
Mg73 Mg95 3.184359 1_555
Mg73 Mg89 3.185393 1_555
Mg74 Mg95 3.190068 1_445
Mg74 Mg94 3.190082 1_545
Mg74 Mg76 3.192244 1_555
Mg74 Mg75 3.192248 1_455
Mg74 Mg80 3.194579 1_555
Mg74 Mg79 3.194615 1_555
Mg75 Mg99 3.184146 1_555
Mg75 Mg96 3.191771 1_545
Mg75 Mg79 3.191781 1_655
Mg75 Mg95 3.192244 1_545
Mg75 Mg78 3.194966 1_555
Mg75 Mg83 3.194995 1_555
Mg76 Mg80 3.191801 1_555
Mg76 Mg97 3.191802 1_545
Mg76 Mg94 3.192233 1_545
Mg76 Mg77 3.194950 1_555
Mg76 Mg82 3.194950 1_555
Mg77 Mg98 3.190101 1_545
Mg77 Mg78 3.190825 1_555
Mg77 Mg97 3.191168 1_545
Mg77 Mg81 3.193581 1_555
Mg77 Mg82 3.196394 1_555
Mg78 Mg98 3.190075 1_545
Mg78 Mg96 3.191195 1_545
Mg78 Mg81 3.193611 1_555
Mg78 Mg83 3.196364 1_555
Mg79 Mg83 3.191177 1_455
Mg79 Mg88 3.192371 1_555
Mg79 Mg87 3.193005 1_555
Mg79 Mg80 3.195692 1_555
Mg80 Mg82 3.191169 1_555
Mg80 Mg88 3.192395 1_555
Mg80 Mg86 3.192973 1_555
Mg81 Mg82 3.193598 1_555
Mg81 Mg83 3.193599 1_555
Mg81 Mg85 3.193599 1_555
Mg81 Mg84 3.193625 1_555
Mg82 Mg86 3.190081 1_555
Mg82 Mg84 3.190810 1_555
Mg83 Mg87 3.190065 1_655
Mg83 Mg85 3.190840 1_555
Mg84 Mg86 3.190072 1_555
Mg84 Mg89 3.191179 1_555
Mg84 Mg91 3.194950 1_555
Mg84 Mg85 3.196377 1_555
Mg85 Mg87 3.190078 1_655
Mg85 Mg90 3.191160 1_655
Mg85 Mg91 3.194964 1_555
Mg86 Mg89 3.192984 1_555
Mg86 Mg88 3.194348 1_555
Mg86 Mg93 3.194371 1_555
Mg87 Mg90 3.193000 1_555
Mg87 Mg92 3.194347 1_555
Mg87 Mg88 3.194358 1_555
Mg88 Mg93 3.196901 1_555
Mg88 Mg92 3.196927 1_555
Mg89 Mg91 3.191787 1_555
Mg89 Mg93 3.192377 1_555
Mg89 Mg95 3.194584 1_555
Mg89 Mg96 3.195706 1_555
Mg90 Mg91 3.191779 1_455
Mg90 Mg92 3.192379 1_555
Mg90 Mg94 3.194612 1_555
Mg90 Mg97 3.195682 1_555
Mg91 Mg94 3.192246 1_655
Mg91 Mg95 3.192272 1_555
Mg92 Mg97 3.192391 1_555
Mg92 Mg98 3.194338 1_555
Mg92 Mg93 3.196911 1_555
Mg93 Mg96 3.192366 1_555
Mg93 Mg98 3.194368 1_555
Mg94 Mg95 3.190085 1_455
Mg94 Mg97 3.194587 1_555
Mg95 Mg99 3.184355 1_565
Mg95 Mg96 3.194586 1_555
Mg96 Mg99 3.185397 1_565
Mg96 Mg98 3.192990 1_555
Mg97 Mg98 3.192984 1_555
Mg100 Mg129 3.182444 1_545
Mg100 Mg76 3.184140 1_555
Mg100 Mg94 3.184355 1_545
Mg100 Mg97 3.185410 1_545
Mg100 Mg124 3.187978 1_555
Mg100 Mg102 3.190261 1_555
Mg100 Mg111 3.191115 1_445
Mg100 Mg103 3.191967 1_445
Mg100 Mg123 3.192629 1_545
Mg100 Mg113 3.193044 1_555
Mg100 Mg147 3.193615 1_545
Mg100 Mg109 3.194460 1_555
Mg101 Mg127 3.182444 1_655
Mg101 Mg75 3.184143 1_555
Mg101 Mg74 3.184364 1_655
Mg101 Mg79 3.185414 1_655
Mg101 Mg125 3.187980 1_555
Mg101 Mg99 3.190249 1_555
Mg101 Mg111 3.191116 1_545
Mg101 Mg102 3.191966 1_655
Mg101 Mg121 3.192616 1_655
Mg101 Mg114 3.193069 1_555
Mg101 Mg143 3.193614 1_655
Mg101 Mg108 3.194480 1_555
Mg102 Mg127 3.182447 1_555
Mg102 Mg76 3.184141 1_555
Mg102 Mg74 3.184355 1_555
Mg102 Mg80 3.185405 1_555
Mg102 Mg124 3.187990 1_555
Mg102 Mg111 3.191107 1_445
Mg102 Mg121 3.192646 1_555
Mg102 Mg115 3.193043 1_555
Mg102 Mg144 3.193619 1_555
Mg102 Mg109 3.194476 1_555
Mg103 Mg129 3.182457 1_655
Mg103 Mg91 3.184135 1_555
Mg103 Mg94 3.184374 1_655
Mg103 Mg90 3.185410 1_655
Mg103 Mg126 3.187976 1_555
Mg103 Mg104 3.190262 1_555
Mg103 Mg111 3.191133 1_555
Mg103 Mg123 3.192609 1_655
Mg103 Mg117 3.193048 1_555
Mg103 Mg145 3.193613 1_655
Mg103 Mg110 3.194467 1_555
Mg104 Mg128 3.182450 1_555
Mg104 Mg91 3.184149 1_555
Mg104 Mg95 3.184359 1_555
Mg104 Mg89 3.185397 1_555
Mg104 Mg126 3.188002 1_555
Mg104 Mg111 3.191101 1_555
Mg104 Mg99 3.191963 1_565
Mg104 Mg122 3.192612 1_555
Mg104 Mg116 3.193040 1_555
Mg104 Mg146 3.193611 1_555
Mg104 Mg110 3.194512 1_555
Mg105 Mg130 3.188194 1_555
Mg105 Mg132 3.188206 1_555
Mg105 Mg133 3.188510 1_555
Mg105 Mg88 3.189361 1_555
Mg105 Mg93 3.189361 1_555
Mg105 Mg86 3.189870 1_555
Mg105 Mg106 3.192486 1_555
Mg105 Mg107 3.192502 1_555
Mg105 Mg116 3.194755 1_555
Mg105 Mg115 3.194763 1_555
Mg105 Mg121 3.194873 1_555
Mg105 Mg122 3.194873 1_555
Mg106 Mg130 3.188204 1_555
Mg106 Mg131 3.188205 1_555
Mg106 Mg134 3.188499 1_555
Mg106 Mg88 3.189367 1_555
Mg106 Mg92 3.189368 1_555
Mg106 Mg87 3.189868 1_555
Mg106 Mg107 3.192479 1_555
Mg106 Mg114 3.194760 1_455
Mg106 Mg117 3.194770 1_455
Mg106 Mg121 3.194888 1_555
Mg106 Mg123 3.194909 1_555
Mg107 Mg131 3.188198 1_555
Mg107 Mg132 3.188203 1_555
Mg107 Mg135 3.188515 1_555
Mg107 Mg92 3.189359 1_555
Mg107 Mg93 3.189363 1_555
Mg107 Mg98 3.189868 1_555
Mg107 Mg112 3.194745 1_565
Mg107 Mg113 3.194778 1_565
Mg107 Mg122 3.194876 1_555
Mg107 Mg123 3.194891 1_555
Mg108 Mg125 3.177771 1_555
Mg108 Mg78 3.189281 1_555
Mg108 Mg83 3.189291 1_555
Mg108 Mg75 3.189792 1_555
Mg108 Mg137 3.190453 1_555
Mg108 Mg140 3.190459 1_555
Mg108 Mg114 3.191597 1_555
Mg108 Mg112 3.191610 1_555
Mg108 Mg118 3.192167 1_555
Mg108 Mg120 3.192182 1_555
Mg108 Mg99 3.194501 1_555
Mg109 Mg124 3.177768 1_555
Mg109 Mg77 3.189274 1_555
Mg109 Mg82 3.189291 1_555
Mg109 Mg76 3.189767 1_555
Mg109 Mg139 3.190464 1_555
Mg109 Mg138 3.190466 1_555
Mg109 Mg113 3.191620 1_555
Mg109 Mg115 3.191654 1_555
Mg109 Mg119 3.192152 1_555
Mg109 Mg118 3.192154 1_555
Mg110 Mg126 3.177775 1_555
Mg110 Mg85 3.189279 1_555
Mg110 Mg84 3.189285 1_555
Mg110 Mg91 3.189783 1_555
Mg110 Mg142 3.190451 1_555
Mg110 Mg141 3.190454 1_555
Mg110 Mg117 3.191599 1_555
Mg110 Mg116 3.191624 1_555
Mg110 Mg119 3.192153 1_555
Mg110 Mg120 3.192167 1_555
Mg111 Mg128 3.182523 1_555
Mg111 Mg129 3.182526 1_655
Mg111 Mg127 3.182532 1_665
Mg111 Mg95 3.186552 1_555
Mg111 Mg74 3.186559 1_665
Mg111 Mg94 3.186563 1_655
Mg111 Mg99 3.191108 1_565
Mg112 Mg137 3.188286 1_555
Mg112 Mg96 3.188347 1_545
Mg112 Mg78 3.188580 1_555
Mg112 Mg135 3.189465 1_545
Mg112 Mg148 3.189621 1_545
Mg112 Mg98 3.190308 1_545
Mg112 Mg122 3.192547 1_545
Mg112 Mg99 3.193053 1_555
Mg112 Mg118 3.194435 1_555
Mg112 Mg113 3.196927 1_555
Mg113 Mg138 3.188280 1_555
Mg113 Mg97 3.188340 1_545
Mg113 Mg77 3.188581 1_555
Mg113 Mg135 3.189479 1_545
Mg113 Mg147 3.189609 1_545
Mg113 Mg98 3.190320 1_545
Mg113 Mg123 3.192529 1_545
Mg113 Mg118 3.194407 1_555
Mg114 Mg140 3.188271 1_555
Mg114 Mg79 3.188346 1_655
Mg114 Mg83 3.188572 1_555
Mg114 Mg134 3.189482 1_655
Mg114 Mg143 3.189624 1_655
Mg114 Mg87 3.190321 1_655
Mg114 Mg121 3.192536 1_655
Mg114 Mg120 3.194422 1_555
Mg114 Mg117 3.196963 1_555
Mg115 Mg139 3.188299 1_555
Mg115 Mg80 3.188338 1_555
Mg115 Mg82 3.188584 1_555
Mg115 Mg133 3.189476 1_555
Mg115 Mg144 3.189611 1_555
Mg115 Mg86 3.190303 1_555
Mg115 Mg121 3.192535 1_555
Mg115 Mg119 3.194426 1_555
Mg115 Mg116 3.196913 1_555
Mg116 Mg142 3.188281 1_555
Mg116 Mg89 3.188346 1_555
Mg116 Mg84 3.188577 1_555
Mg116 Mg133 3.189466 1_555
Mg116 Mg146 3.189617 1_555
Mg116 Mg86 3.190309 1_555
Mg116 Mg122 3.192560 1_555
Mg116 Mg119 3.194439 1_555
Mg117 Mg141 3.188273 1_555
Mg117 Mg90 3.188341 1_655
Mg117 Mg85 3.188574 1_555
Mg117 Mg134 3.189481 1_655
Mg117 Mg145 3.189608 1_655
Mg117 Mg87 3.190322 1_655
Mg117 Mg123 3.192528 1_655
Mg117 Mg120 3.194418 1_555
Mg118 Mg136 3.185771 1_555
Mg118 Mg138 3.187450 1_555
Mg118 Mg137 3.187459 1_555
Mg118 Mg81 3.189594 1_555
Mg118 Mg77 3.190265 1_555
Mg118 Mg78 3.190273 1_555
Mg118 Mg120 3.191308 1_555
Mg118 Mg119 3.191335 1_555
Mg119 Mg136 3.185774 1_555
Mg119 Mg139 3.187452 1_555
Mg119 Mg142 3.187465 1_555
Mg119 Mg81 3.189594 1_555
Mg119 Mg82 3.190267 1_555
Mg119 Mg84 3.190278 1_555
Mg119 Mg120 3.191314 1_555
Mg120 Mg136 3.185780 1_555
Mg120 Mg141 3.187462 1_555
Mg120 Mg140 3.187464 1_555
Mg120 Mg81 3.189585 1_555
Mg120 Mg83 3.190269 1_555
Mg120 Mg85 3.190275 1_555
Mg121 Mg130 3.186394 1_555
Mg121 Mg143 3.190153 1_555
Mg121 Mg144 3.190167 1_555
Mg121 Mg88 3.190582 1_555
Mg121 Mg79 3.190892 1_555
Mg121 Mg80 3.190902 1_555
Mg122 Mg132 3.186405 1_555
Mg122 Mg148 3.190161 1_555
Mg122 Mg146 3.190172 1_555
Mg122 Mg93 3.190569 1_555
Mg122 Mg96 3.190887 1_555
Mg122 Mg89 3.190901 1_555
Mg122 Mg99 3.192596 1_565
Mg123 Mg131 3.186407 1_555
Mg123 Mg145 3.190155 1_555
Mg123 Mg147 3.190166 1_555
Mg123 Mg92 3.190587 1_555
Mg123 Mg90 3.190887 1_555
Mg123 Mg97 3.190890 1_555
Mg124 Mg139 3.188013 1_555
Mg124 Mg138 3.188021 1_555
Mg124 Mg147 3.188852 1_545
Mg124 Mg144 3.188883 1_555
Mg124 Mg5 3.189296 1_556
Mg124 Mg2 3.191838 1_556
Mg124 Mg129 3.200133 1_545
Mg124 Mg127 3.200161 1_555
Mg125 Mg99 3.187999 1_555
Mg125 Mg137 3.188026 1_555
Mg125 Mg140 3.188040 1_555
Mg125 Mg143 3.188837 1_655
Mg125 Mg148 3.188852 1_545
Mg125 Mg4 3.189312 1_556
Mg125 Mg3 3.191819 1_556
Mg125 Mg127 3.200154 1_655
Mg125 Mg128 3.200175 1_545
Mg126 Mg142 3.188008 1_555
Mg126 Mg141 3.188035 1_555
Mg126 Mg145 3.188851 1_655
Mg126 Mg146 3.188860 1_555
Mg126 Mg16 3.189299 1_556
Mg126 Mg17 3.191822 1_556
Mg126 Mg18 3.191829 1_556
Mg126 Mg129 3.200155 1_655
Mg126 Mg128 3.200175 1_555
Mg127 Mg144 3.188102 1_555
Mg127 Mg143 3.188115 1_555
Mg127 Mg128 3.197245 1_445
Mg127 Mg129 3.197255 1_545
Mg127 Mg2 3.202530 1_556
Mg127 Mg3 3.202548 1_456
Mg128 Mg99 3.182451 1_565
Mg128 Mg146 3.188104 1_555
Mg128 Mg148 3.188114 1_555
Mg128 Mg129 3.197246 1_655
Mg128 Mg18 3.202540 1_556
Mg129 Mg147 3.188112 1_555
Mg129 Mg145 3.188146 1_555
Mg129 Mg17 3.202559 1_456
Mg130 Mg14 3.189280 1_556
Mg130 Mg15 3.189298 1_556
Mg130 Mg133 3.192206 1_555
Mg130 Mg134 3.192214 1_555
Mg130 Mg7 3.192429 1_556
Mg130 Mg132 3.195601 1_555
Mg130 Mg131 3.195640 1_555
Mg130 Mg143 3.195986 1_555
Mg130 Mg144 3.195999 1_555
Mg131 Mg19 3.189282 1_556
Mg131 Mg15 3.189287 1_556
Mg131 Mg134 3.192198 1_555
Mg131 Mg135 3.192207 1_555
Mg131 Mg20 3.192431 1_556
Mg131 Mg132 3.195608 1_555
Mg131 Mg145 3.195984 1_555
Mg131 Mg147 3.196008 1_555
Mg132 Mg19 3.189283 1_556
Mg132 Mg14 3.189286 1_556
Mg132 Mg135 3.192225 1_555
Mg132 Mg133 3.192226 1_555
Mg132 Mg21 3.192419 1_556
Mg132 Mg148 3.195980 1_555
Mg132 Mg146 3.195997 1_555
Mg133 Mg14 3.186402 1_556
Mg133 Mg142 3.192686 1_555
Mg133 Mg139 3.192725 1_555
Mg133 Mg146 3.195894 1_555
Mg133 Mg144 3.195912 1_555
Mg134 Mg15 3.186397 1_556
Mg134 Mg140 3.192686 1_455
Mg134 Mg141 3.192693 1_455
Mg134 Mg145 3.195922 1_555
Mg134 Mg143 3.195946 1_555
Mg135 Mg23 3.185990 1_556
Mg135 Mg22 3.186008 1_556
Mg135 Mg19 3.186403 1_556
Mg135 Mg137 3.192675 1_565
Mg135 Mg138 3.192697 1_565
Mg135 Mg148 3.195909 1_555
Mg135 Mg147 3.195920 1_555
Mg136 Mg6 3.189003 1_556
Mg136 Mg9 3.189011 1_556
Mg136 Mg8 3.189012 1_556
Mg136 Mg138 3.192151 1_555
Mg136 Mg139 3.192155 1_555
Mg136 Mg141 3.192181 1_555
Mg136 Mg140 3.192187 1_555
Mg136 Mg137 3.192188 1_555
Mg136 Mg142 3.192203 1_555
Mg137 Mg6 3.185804 1_556
Mg137 Mg23 3.187333 1_546
Mg137 Mg4 3.188324 1_556
Mg137 Mg138 3.188908 1_555
Mg137 Mg148 3.192584 1_545
Mg137 Mg140 3.195426 1_555
Mg138 Mg6 3.185790 1_556
Mg138 Mg22 3.187325 1_546
Mg138 Mg5 3.188342 1_556
Mg138 Mg147 3.192551 1_545
Mg138 Mg139 3.195445 1_555
Mg139 Mg9 3.185789 1_556
Mg139 Mg5 3.188325 1_556
Mg139 Mg142 3.188916 1_555
Mg139 Mg144 3.192571 1_555
Mg140 Mg8 3.185805 1_556
Mg140 Mg4 3.188338 1_556
Mg140 Mg141 3.188926 1_555
Mg140 Mg143 3.192574 1_655
Mg141 Mg8 3.185796 1_556
Mg141 Mg16 3.188343 1_556
Mg141 Mg145 3.192555 1_655
Mg141 Mg142 3.195436 1_555
Mg142 Mg9 3.185802 1_556
Mg142 Mg16 3.188321 1_556
Mg142 Mg146 3.192570 1_555
Mg143 Mg3 3.181890 1_456
Mg143 Mg7 3.185187 1_556
Mg143 Mg144 3.195759 1_555
Mg144 Mg2 3.181902 1_556
Mg144 Mg7 3.185199 1_556
Mg145 Mg17 3.181893 1_456
Mg145 Mg20 3.185190 1_556
Mg145 Mg147 3.195766 1_555
Mg146 Mg18 3.181895 1_556
Mg146 Mg21 3.185197 1_556
Mg146 Mg148 3.195784 1_555
Mg147 Mg20 3.185203 1_556
Mg147 Mg22 3.187508 1_556
Mg148 Mg21 3.185197 1_556
Mg148 Mg23 3.187513 1_556
Mg148 Mg99 3.193609 1_565
In0 Mg44 3.197960 1_555
In0 Mg128 3.197963 1_554
In0 Mg45 3.197977 1_655
In0 Mg129 3.197979 1_654
In0 Mg43 3.197983 1_665
In0 Mg127 3.197986 1_664
In0 Mg18 3.201129 1_555
In0 Mg0 3.201142 1_565
In0 Mg2 3.201152 1_665
In0 Mg1 3.201158 1_665
In0 Mg3 3.201180 1_565
In0 Mg17 3.201188 1_555
