# generated using pymatgen
data_Na4Ca4Be4AlSi7(O6F)4
_symmetry_space_group_name_H-M   'P 1'
_cell_length_a   9.03632339
_cell_length_b   9.03632339
_cell_length_c   9.03632339
_cell_angle_alpha   107.92509760
_cell_angle_beta   107.92509760
_cell_angle_gamma   112.60979587
_symmetry_Int_Tables_number   1
_chemical_formula_structural   Na4Ca4Be4AlSi7(O6F)4
_chemical_formula_sum   'Na4 Ca4 Be4 Al1 Si7 O24 F4'
_cell_volume   566.72075418
_cell_formula_units_Z   1
loop_
 _symmetry_equiv_pos_site_id
 _symmetry_equiv_pos_as_xyz
  1  'x, y, z'
loop_
 _atom_site_type_symbol
 _atom_site_label
 _atom_site_symmetry_multiplicity
 _atom_site_fract_x
 _atom_site_fract_y
 _atom_site_fract_z
 _atom_site_occupancy
  Na  Na0  1  0.66227200  0.50988500  0.67406900  1
  Na  Na1  1  0.83581600  0.98820200  0.32593100  1
  Na  Na2  1  0.49011500  0.16418400  0.15238600  1
  Na  Na3  1  0.01179800  0.33772800  0.84761400  1
  Ca  Ca0  1  0.33522500  0.49979400  0.34626000  1
  Ca  Ca1  1  0.15353400  0.98896500  0.65374000  1
  Ca  Ca2  1  0.50020600  0.84646600  0.83543100  1
  Ca  Ca3  1  0.01103500  0.66477500  0.16456900  1
  Be  Be0  1  0.72255200  0.86460300  0.64402500  1
  Be  Be1  1  0.22057800  0.07852700  0.35597500  1
  Be  Be2  1  0.13539700  0.77942200  0.85794900  1
  Be  Be3  1  0.92147300  0.27744800  0.14205100  1
  Al  Al0  1  0.50000000  0.50000000  0.00000000  1
  Si  Si0  1  0.49422700  0.99422700  0.50000000  1
  Si  Si1  1  0.00577300  0.50577300  0.50000000  1
  Si  Si2  1  0.72793400  0.58680000  0.36656700  1
  Si  Si3  1  0.22023200  0.36136600  0.63343300  1
  Si  Si4  1  0.41320000  0.77976800  0.14113400  1
  Si  Si5  1  0.63863400  0.27206600  0.85886600  1
  Si  Si6  1  0.00000000  0.00000000  0.00000000  1
  O  O0  1  0.38022800  0.53147000  0.64156300  1
  O  O1  1  0.88990700  0.73866500  0.35843700  1
  O  O2  1  0.46853000  0.11009300  0.84875800  1
  O  O3  1  0.26133500  0.61977200  0.15124200  1
  O  O4  1  0.53159100  0.44966000  0.17767200  1
  O  O5  1  0.27198800  0.35391900  0.82232800  1
  O  O6  1  0.55034000  0.72801200  0.08193100  1
  O  O7  1  0.64608100  0.46840900  0.91806900  1
  O  O8  1  0.52964000  0.86562600  0.58297700  1
  O  O9  1  0.28264900  0.94666300  0.41702300  1
  O  O10  1  0.13437400  0.71735100  0.66401400  1
  O  O11  1  0.05333700  0.47036000  0.33598600  1
  O  O12  1  0.78428500  0.87897300  0.84290000  1
  O  O13  1  0.03607300  0.94138500  0.15710000  1
  O  O14  1  0.12102700  0.96392700  0.90531200  1
  O  O15  1  0.05861500  0.21571500  0.09468800  1
  O  O16  1  0.66708900  0.66579100  0.50927500  1
  O  O17  1  0.15651600  0.15781400  0.49072500  1
  O  O18  1  0.33420900  0.84348400  0.00129800  1
  O  O19  1  0.84218600  0.33291100  0.99870200  1
  O  O20  1  0.78785900  0.44733000  0.41744200  1
  O  O21  1  0.02988800  0.37041700  0.58255800  1
  O  O22  1  0.55267000  0.97011200  0.34052900  1
  O  O23  1  0.62958300  0.21214100  0.65947100  1
  F  F0  1  0.37694100  0.23817200  0.35519000  1
  F  F1  1  0.88298300  0.02175200  0.64481000  1
  F  F2  1  0.76182800  0.11701700  0.13876900  1
  F  F3  1  0.97824800  0.62305900  0.86123100  1
loop_
_geom_bond_atom_site_label_1
_geom_bond_atom_site_label_2
_geom_bond_distance
_geom_bond_site_symmetry_2
Na0 O16 2.342709 1_555
Na0 O7 2.385029 1_555
Na0 O23 2.547542 1_555
Na0 O0 2.564484 1_555
Na0 O12 2.769800 1_555
Na0 O20 2.879457 1_555
Na1 O17 2.342709 1_665
Na1 O6 2.385026 1_555
Na1 O22 2.547545 1_555
Na1 O1 2.564475 1_555
Na1 O13 2.769798 1_655
Na1 O21 2.879464 1_665
Na2 O18 2.342709 1_545
Na2 O4 2.385026 1_555
Na2 O20 2.547545 1_555
Na2 O2 2.564475 1_554
Na2 O14 2.769798 1_544
Na2 O22 2.879464 1_545
Na3 O19 2.342709 1_455
Na3 O5 2.385024 1_555
Na3 O21 2.547548 1_555
Na3 O3 2.564478 1_556
Na3 O15 2.769792 1_556
Na3 O23 2.879466 1_455
Ca0 O3 2.394805 1_555
Ca0 O16 2.423820 1_555
Ca0 O11 2.426118 1_555
Ca0 O15 2.445780 1_555
Ca0 O0 2.477968 1_555
Ca0 F0 2.553725 1_555
Ca0 O8 2.731067 1_555
Ca0 O4 2.744419 1_555
Ca1 O2 2.394805 1_565
Ca1 O17 2.423820 1_565
Ca1 O10 2.426118 1_555
Ca1 O14 2.445780 1_555
Ca1 O1 2.477968 1_455
Ca1 F1 2.553721 1_465
Ca1 O9 2.731067 1_555
Ca1 O5 2.744419 1_565
Ca2 O0 2.394805 1_555
Ca2 O18 2.423820 1_556
Ca2 O8 2.426118 1_555
Ca2 O12 2.445780 1_555
Ca2 O2 2.477968 1_565
Ca2 F2 2.553723 1_566
Ca2 O10 2.731067 1_555
Ca2 O6 2.744419 1_556
Ca3 O1 2.394805 1_455
Ca3 O19 2.423820 1_454
Ca3 O9 2.426118 1_555
Ca3 O13 2.445780 1_555
Ca3 O3 2.477968 1_555
Ca3 F3 2.553723 1_454
Ca3 O11 2.731067 1_555
Ca3 O7 2.744419 1_454
Be0 F1 1.588331 1_565
Be0 O16 1.595892 1_555
Be0 O12 1.655654 1_555
Be0 O8 1.663368 1_555
Be1 F0 1.588321 1_555
Be1 O17 1.595892 1_555
Be1 O13 1.655654 1_545
Be1 O9 1.663368 1_545
Be2 F3 1.588326 1_455
Be2 O18 1.595892 1_556
Be2 O14 1.655654 1_555
Be2 O10 1.663368 1_555
Be3 F2 1.588326 1_555
Be3 O19 1.595892 1_554
Be3 O15 1.655654 1_655
Be3 O11 1.663368 1_655
Al0 O4 1.770122 1_555
Al0 O5 1.770122 1_554
Al0 O6 1.770122 1_555
Al0 O7 1.770122 1_554
O0 Si3 1.617015 1_555
O1 Si2 1.617005 1_555
O2 Si5 1.617010 1_555
O3 Si4 1.617010 1_555
O4 Si2 1.655400 1_555
O5 Si3 1.655395 1_555
O6 Si4 1.655404 1_555
O7 Si5 1.655404 1_555
O8 Si0 1.640009 1_555
O9 Si0 1.640009 1_555
O10 Si1 1.640009 1_555
O11 Si1 1.640009 1_555
O12 Si6 1.647068 1_666
O13 Si6 1.647068 1_565
O14 Si6 1.647068 1_566
O15 Si6 1.647068 1_555
O16 Si2 1.626759 1_555
O17 Si3 1.626755 1_555
O18 Si4 1.626752 1_555
O19 Si5 1.626752 1_555
O20 Si1 1.663309 1_655
O20 Si2 1.679602 1_555
O21 Si1 1.663309 1_555
O21 Si3 1.679598 1_555
O22 Si0 1.663309 1_555
O22 Si4 1.679598 1_555
O23 Si0 1.663309 1_545
O23 Si5 1.679598 1_555
F0 Na2 2.403429 1_555
F0 Na0 2.680215 1_555
F1 Na3 2.403417 1_655
F1 Na1 2.680208 1_545
F2 Na1 2.403422 1_545
F2 Na2 2.680217 1_555
F3 Na0 2.403415 1_555
F3 Na3 2.680226 1_655
