# generated using pymatgen
data_Tm3FeSi3
_symmetry_space_group_name_H-M   'P 1'
_cell_length_a   4.09776230
_cell_length_b   5.54225896
_cell_length_c   12.55913734
_cell_angle_alpha   85.07179708
_cell_angle_beta   80.61088451
_cell_angle_gamma   68.30390720
_symmetry_Int_Tables_number   1
_chemical_formula_structural   Tm3FeSi3
_chemical_formula_sum   'Tm6 Fe2 Si6'
_cell_volume   261.37014686
_cell_formula_units_Z   2
loop_
 _symmetry_equiv_pos_site_id
 _symmetry_equiv_pos_as_xyz
  1  'x, y, z'
loop_
 _atom_site_type_symbol
 _atom_site_label
 _atom_site_symmetry_multiplicity
 _atom_site_fract_x
 _atom_site_fract_y
 _atom_site_fract_z
 _atom_site_occupancy
  Tm  Tm0  1  0.74890601  0.73199017  0.77019982  1
  Tm  Tm1  1  0.25109399  0.26800983  0.22980018  1
  Tm  Tm2  1  0.52535311  0.32948450  0.61981028  1
  Tm  Tm3  1  0.47464689  0.67051550  0.38018972  1
  Tm  Tm4  1  0.39964275  0.28180905  0.91890644  1
  Tm  Tm5  1  0.60035725  0.71819095  0.08109356  1
  Fe  Fe0  1  0.75293665  0.07815285  0.41597485  1
  Fe  Fe1  1  0.24706335  0.92184715  0.58402515  1
  Si  Si0  1  0.14466506  0.25438528  0.45628461  1
  Si  Si1  1  0.85533494  0.74561472  0.54371539  1
  Si  Si2  1  0.11552373  0.84467927  0.92427227  1
  Si  Si3  1  0.88447627  0.15532073  0.07572773  1
  Si  Si4  1  0.05547318  0.13164392  0.75740971  1
  Si  Si5  1  0.94452682  0.86835608  0.24259029  1
loop_
_geom_bond_atom_site_label_1
_geom_bond_atom_site_label_2
_geom_bond_distance
_geom_bond_site_symmetry_2
Fe0 Si1 2.299222 1_545
Fe0 Si0 2.301371 1_655
Fe0 Si0 2.301375 1_555
Fe0 Si5 2.431545 1_545
Fe0 Tm2 2.869991 1_555
Fe0 Tm3 2.975409 1_645
Fe0 Tm3 2.975415 1_545
Fe0 Tm3 3.070231 1_555
Fe0 Tm1 3.217058 1_655
Fe0 Tm1 3.217065 1_555
Fe1 Si0 2.299222 1_565
Fe1 Si1 2.301371 1_455
Fe1 Si1 2.301375 1_555
Fe1 Si4 2.431545 1_565
Fe1 Tm3 2.869991 1_555
Fe1 Tm2 2.975409 1_465
Fe1 Tm2 2.975415 1_565
Fe1 Tm2 3.070231 1_555
Fe1 Tm0 3.217058 1_455
Fe1 Tm0 3.217065 1_555
Si0 Si1 2.779536 1_455
Si0 Tm1 2.805260 1_555
Si0 Tm2 2.914932 1_455
Si0 Tm2 2.914935 1_555
Si0 Tm3 3.092926 1_555
Si0 Tm3 3.092929 1_455
Si0 Tm3 3.176112 1_545
Si1 Tm0 2.805260 1_555
Si1 Tm3 2.914932 1_655
Si1 Tm3 2.914935 1_555
Si1 Tm2 3.092926 1_555
Si1 Tm2 3.092929 1_655
Si1 Tm2 3.176112 1_565
Si2 Si3 2.499709 1_466
Si2 Si4 2.507591 1_565
Si2 Tm0 2.870741 1_455
Si2 Tm0 2.870750 1_555
Si2 Tm5 2.885716 1_556
Si2 Tm5 2.885716 1_456
Si2 Tm4 2.901193 1_555
Si2 Tm4 3.043225 1_465
Si2 Tm4 3.043231 1_565
Si3 Si5 2.507591 1_545
Si3 Tm1 2.870741 1_655
Si3 Tm1 2.870750 1_555
Si3 Tm4 2.885716 1_554
Si3 Tm4 2.885716 1_654
Si3 Tm5 2.901193 1_555
Si3 Tm5 3.043225 1_645
Si3 Tm5 3.043231 1_545
Si4 Tm2 2.836515 1_455
Si4 Tm2 2.836518 1_555
Si4 Tm0 2.905245 1_445
Si4 Tm0 2.905251 1_545
Si4 Tm4 2.981051 1_455
Si4 Tm4 2.981053 1_555
Si4 Tm0 3.100039 1_455
Si5 Tm3 2.836515 1_655
Si5 Tm3 2.836518 1_555
Si5 Tm1 2.905245 1_665
Si5 Tm1 2.905251 1_565
Si5 Tm5 2.981051 1_655
Si5 Tm5 2.981053 1_555
Si5 Tm1 3.100039 1_655
