# generated using pymatgen
data_Ba5(Si2O7)2
_symmetry_space_group_name_H-M   'P 1'
_cell_length_a   7.82575300
_cell_length_b   7.82575300
_cell_length_c   11.92069000
_cell_angle_alpha   90.00000000
_cell_angle_beta   90.00000000
_cell_angle_gamma   90.00000000
_symmetry_Int_Tables_number   1
_chemical_formula_structural   Ba5(Si2O7)2
_chemical_formula_sum   'Ba10 Si8 O28'
_cell_volume   730.05178467
_cell_formula_units_Z   2
loop_
 _symmetry_equiv_pos_site_id
 _symmetry_equiv_pos_as_xyz
  1  'x, y, z'
loop_
 _atom_site_type_symbol
 _atom_site_label
 _atom_site_symmetry_multiplicity
 _atom_site_fract_x
 _atom_site_fract_y
 _atom_site_fract_z
 _atom_site_occupancy
  Ba  Ba0  1  0.83956800  0.33956800  0.25000000  1
  Ba  Ba1  1  0.16043200  0.66043200  0.25000000  1
  Ba  Ba2  1  0.66043200  0.83956800  0.75000000  1
  Ba  Ba3  1  0.33956800  0.16043200  0.75000000  1
  Ba  Ba4  1  0.33956800  0.16043200  0.25000000  1
  Ba  Ba5  1  0.66043200  0.83956800  0.25000000  1
  Ba  Ba6  1  0.83956800  0.33956800  0.75000000  1
  Ba  Ba7  1  0.16043200  0.66043200  0.75000000  1
  Ba  Ba8  1  0.50000000  0.50000000  0.50000000  1
  Ba  Ba9  1  0.00000000  0.00000000  0.00000000  1
  Si  Si0  1  0.77392100  0.61518100  0.00000000  1
  Si  Si1  1  0.22607900  0.38481900  0.00000000  1
  Si  Si2  1  0.72607900  0.11518100  0.50000000  1
  Si  Si3  1  0.27392100  0.88481900  0.50000000  1
  Si  Si4  1  0.61518100  0.22607900  0.00000000  1
  Si  Si5  1  0.38481900  0.77392100  0.00000000  1
  Si  Si6  1  0.11518100  0.27392100  0.50000000  1
  Si  Si7  1  0.88481900  0.72607900  0.50000000  1
  O  O0  1  0.83060900  0.62568300  0.38650900  1
  O  O1  1  0.16939100  0.37431700  0.38650900  1
  O  O2  1  0.66939100  0.12568300  0.88650900  1
  O  O3  1  0.33060900  0.87431700  0.88650900  1
  O  O4  1  0.62568300  0.16939100  0.38650900  1
  O  O5  1  0.37431700  0.83060900  0.38650900  1
  O  O6  1  0.12568300  0.33060900  0.88650900  1
  O  O7  1  0.87431700  0.66939100  0.88650900  1
  O  O8  1  0.16939100  0.37431700  0.61349100  1
  O  O9  1  0.83060900  0.62568300  0.61349100  1
  O  O10  1  0.33060900  0.87431700  0.11349100  1
  O  O11  1  0.66939100  0.12568300  0.11349100  1
  O  O12  1  0.37431700  0.83060900  0.61349100  1
  O  O13  1  0.62568300  0.16939100  0.61349100  1
  O  O14  1  0.87431700  0.66939100  0.11349100  1
  O  O15  1  0.12568300  0.33060900  0.11349100  1
  O  O16  1  0.77446400  0.90959700  0.50000000  1
  O  O17  1  0.22553600  0.09040300  0.50000000  1
  O  O18  1  0.72553600  0.40959700  0.00000000  1
  O  O19  1  0.27446400  0.59040300  0.00000000  1
  O  O20  1  0.90959700  0.22553600  0.50000000  1
  O  O21  1  0.09040300  0.77446400  0.50000000  1
  O  O22  1  0.40959700  0.27446400  0.00000000  1
  O  O23  1  0.59040300  0.72553600  0.00000000  1
  O  O24  1  0.50000000  0.50000000  0.25188700  1
  O  O25  1  0.00000000  0.00000000  0.75188700  1
  O  O26  1  0.50000000  0.50000000  0.74811300  1
  O  O27  1  0.00000000  0.00000000  0.24811300  1
loop_
_geom_bond_atom_site_label_1
_geom_bond_atom_site_label_2
_geom_bond_distance
_geom_bond_site_symmetry_2
Ba0 O11 2.687616 1_555
Ba0 O4 2.687616 1_555
Ba0 O15 2.768822 1_655
Ba0 O0 2.768822 1_555
Ba0 O27 2.939121 1_655
Ba0 O24 2.939121 1_555
Ba0 O1 3.063355 1_655
Ba0 O14 3.063355 1_555
Ba0 O18 3.158816 1_555
Ba0 O20 3.158816 1_555
Ba1 O5 2.687616 1_555
Ba1 O10 2.687616 1_555
Ba1 O14 2.768822 1_455
Ba1 O1 2.768822 1_555
Ba1 O27 2.939121 1_565
Ba1 O24 2.939121 1_555
Ba1 O15 3.063355 1_555
Ba1 O0 3.063355 1_455
Ba1 O21 3.158816 1_555
Ba1 O19 3.158816 1_555
Ba2 O9 2.687616 1_555
Ba2 O7 2.687616 1_555
Ba2 O2 2.768822 1_565
Ba2 O12 2.768822 1_555
Ba2 O26 2.939121 1_555
Ba2 O25 2.939121 1_665
Ba2 O13 3.063355 1_565
Ba2 O3 3.063355 1_555
Ba2 O16 3.158816 1_555
Ba2 O23 3.158816 1_556
Ba3 O8 2.687616 1_555
Ba3 O6 2.687616 1_555
Ba3 O13 2.768822 1_555
Ba3 O3 2.768822 1_545
Ba3 O26 2.939121 1_555
Ba3 O25 2.939121 1_555
Ba3 O2 3.063355 1_555
Ba3 O12 3.063355 1_545
Ba3 O22 3.158816 1_556
Ba3 O17 3.158816 1_555
Ba4 O1 2.687616 1_555
Ba4 O15 2.687616 1_555
Ba4 O4 2.768822 1_555
Ba4 O10 2.768822 1_545
Ba4 O27 2.939121 1_555
Ba4 O24 2.939121 1_555
Ba4 O11 3.063355 1_555
Ba4 O5 3.063355 1_545
Ba4 O22 3.158816 1_555
Ba4 O17 3.158816 1_555
Ba5 O0 2.687616 1_555
Ba5 O14 2.687616 1_555
Ba5 O11 2.768822 1_565
Ba5 O5 2.768822 1_555
Ba5 O27 2.939121 1_665
Ba5 O24 2.939121 1_555
Ba5 O4 3.063355 1_565
Ba5 O10 3.063355 1_555
Ba5 O16 3.158816 1_555
Ba5 O23 3.158816 1_555
Ba6 O2 2.687616 1_555
Ba6 O13 2.687616 1_555
Ba6 O6 2.768822 1_655
Ba6 O9 2.768822 1_555
Ba6 O26 2.939121 1_555
Ba6 O25 2.939121 1_655
Ba6 O8 3.063355 1_655
Ba6 O7 3.063355 1_555
Ba6 O18 3.158816 1_556
Ba6 O20 3.158816 1_555
Ba7 O12 2.687616 1_555
Ba7 O3 2.687616 1_555
Ba7 O7 2.768822 1_455
Ba7 O8 2.768822 1_555
Ba7 O25 2.939121 1_565
Ba7 O26 2.939121 1_555
Ba7 O6 3.063355 1_555
Ba7 O9 3.063355 1_455
Ba7 O21 3.158816 1_555
Ba7 O19 3.158816 1_556
Ba8 O26 2.957678 1_555
Ba8 O24 2.957678 1_555
Ba8 O0 3.080852 1_555
Ba8 O9 3.080852 1_555
Ba8 O12 3.080852 1_555
Ba8 O5 3.080852 1_555
Ba8 O13 3.080852 1_555
Ba8 O4 3.080852 1_555
Ba8 O8 3.080852 1_555
Ba8 O1 3.080852 1_555
Ba9 O27 2.957678 1_555
Ba9 O25 2.957678 1_554
Ba9 O6 3.080852 1_554
Ba9 O10 3.080852 1_545
Ba9 O14 3.080852 1_445
Ba9 O11 3.080852 1_455
Ba9 O7 3.080852 1_444
Ba9 O2 3.080852 1_454
Ba9 O3 3.080852 1_544
Ba9 O15 3.080852 1_555
O0 Si7 1.620979 1_555
O1 Si6 1.620979 1_555
O2 Si4 1.620979 1_556
O3 Si5 1.620979 1_556
O4 Si2 1.620979 1_555
O5 Si3 1.620979 1_555
O6 Si1 1.620979 1_556
O7 Si0 1.620979 1_556
O8 Si6 1.620979 1_555
O9 Si7 1.620979 1_555
O10 Si5 1.620979 1_555
O11 Si4 1.620979 1_555
O12 Si3 1.620979 1_555
O13 Si2 1.620979 1_555
O14 Si0 1.620979 1_555
O15 Si1 1.620979 1_555
O16 Si2 1.652807 1_565
O16 Si7 1.675828 1_555
O17 Si3 1.652807 1_545
O17 Si6 1.675828 1_555
O18 Si0 1.652807 1_555
O18 Si4 1.675828 1_555
O19 Si1 1.652807 1_555
O19 Si5 1.675828 1_555
O20 Si6 1.652807 1_655
O20 Si2 1.675828 1_555
O21 Si7 1.652807 1_455
O21 Si3 1.675828 1_555
O22 Si4 1.652807 1_555
O22 Si1 1.675828 1_555
O23 Si5 1.652807 1_555
O23 Si0 1.675828 1_555
