# generated using pymatgen
data_Na6Fe(SO4)4
_symmetry_space_group_name_H-M   'P 1'
_cell_length_a   8.38731806
_cell_length_b   9.38544500
_cell_length_c   9.93537861
_cell_angle_alpha   90.00000000
_cell_angle_beta   113.63025886
_cell_angle_gamma   90.00000000
_symmetry_Int_Tables_number   1
_chemical_formula_structural   Na6Fe(SO4)4
_chemical_formula_sum   'Na12 Fe2 S8 O32'
_cell_volume   716.52202392
_cell_formula_units_Z   2
loop_
 _symmetry_equiv_pos_site_id
 _symmetry_equiv_pos_as_xyz
  1  'x, y, z'
loop_
 _atom_site_type_symbol
 _atom_site_label
 _atom_site_symmetry_multiplicity
 _atom_site_fract_x
 _atom_site_fract_y
 _atom_site_fract_z
 _atom_site_occupancy
  Na  Na0  1  0.91071900  0.84869700  0.55342800  1
  Na  Na1  1  0.08928100  0.15130300  0.44657200  1
  Na  Na2  1  0.58928100  0.34869700  0.44657200  1
  Na  Na3  1  0.41071900  0.65130300  0.55342800  1
  Na  Na4  1  0.53237000  0.98456900  0.68892600  1
  Na  Na5  1  0.46763000  0.01543100  0.31107400  1
  Na  Na6  1  0.96763000  0.48456900  0.31107400  1
  Na  Na7  1  0.03237000  0.51543100  0.68892600  1
  Na  Na8  1  0.81593700  0.36302200  0.88951200  1
  Na  Na9  1  0.18406300  0.63697800  0.11048800  1
  Na  Na10  1  0.68406300  0.86302200  0.11048800  1
  Na  Na11  1  0.31593700  0.13697800  0.88951200  1
  Fe  Fe0  1  0.00000000  0.00000000  0.00000000  1
  Fe  Fe1  1  0.50000000  0.50000000  0.00000000  1
  S  S0  1  0.77514200  0.69427500  0.85933900  1
  S  S1  1  0.22485800  0.30572500  0.14066100  1
  S  S2  1  0.72485800  0.19427500  0.14066100  1
  S  S3  1  0.27514200  0.80572500  0.85933900  1
  S  S4  1  0.65379700  0.64738000  0.33811400  1
  S  S5  1  0.34620300  0.35262000  0.66188600  1
  S  S6  1  0.84620300  0.14738000  0.66188600  1
  S  S7  1  0.15379700  0.85262000  0.33811400  1
  O  O0  1  0.84372800  0.81401500  0.96953600  1
  O  O1  1  0.15627200  0.18598500  0.03046400  1
  O  O2  1  0.65627200  0.31401500  0.03046400  1
  O  O3  1  0.34372800  0.68598500  0.96953600  1
  O  O4  1  0.92345000  0.60412700  0.86388200  1
  O  O5  1  0.07655000  0.39587300  0.13611800  1
  O  O6  1  0.57655000  0.10412700  0.13611800  1
  O  O7  1  0.42345000  0.89587300  0.86388200  1
  O  O8  1  0.00018000  0.91548100  0.35417400  1
  O  O9  1  0.99982000  0.08451900  0.64582600  1
  O  O10  1  0.49982000  0.41548100  0.64582600  1
  O  O11  1  0.50018000  0.58451900  0.35417400  1
  O  O12  1  0.67922100  0.75507400  0.71058800  1
  O  O13  1  0.32077900  0.24492600  0.28941200  1
  O  O14  1  0.82077900  0.25507400  0.28941200  1
  O  O15  1  0.17922100  0.74492600  0.71058800  1
  O  O16  1  0.65867300  0.60613100  0.90532600  1
  O  O17  1  0.34132700  0.39386900  0.09467400  1
  O  O18  1  0.84132700  0.10613100  0.09467400  1
  O  O19  1  0.15867300  0.89386900  0.90532600  1
  O  O20  1  0.81781100  0.60349800  0.46291900  1
  O  O21  1  0.18218900  0.39650200  0.53708100  1
  O  O22  1  0.68218900  0.10349800  0.53708100  1
  O  O23  1  0.31781100  0.89650200  0.46291900  1
  O  O24  1  0.33100600  0.40553900  0.79996500  1
  O  O25  1  0.66899400  0.59446100  0.20003500  1
  O  O26  1  0.16899400  0.90553900  0.20003500  1
  O  O27  1  0.83100600  0.09446100  0.79996500  1
  O  O28  1  0.85924500  0.30576100  0.66958500  1
  O  O29  1  0.14075500  0.69423900  0.33041500  1
  O  O30  1  0.64075500  0.80576100  0.33041500  1
  O  O31  1  0.35924500  0.19423900  0.66958500  1
loop_
_geom_bond_atom_site_label_1
_geom_bond_atom_site_label_2
_geom_bond_distance
_geom_bond_site_symmetry_2
Na0 O15 2.374710 1_655
Na0 O9 2.397899 1_565
Na0 O8 2.462876 1_655
Na0 O20 2.479939 1_555
Na0 O30 2.485313 1_555
Na1 O14 2.374710 1_455
Na1 O8 2.397899 1_545
Na1 O9 2.462876 1_455
Na1 O21 2.479939 1_555
Na1 O31 2.485313 1_555
Na2 O13 2.374710 1_555
Na2 O11 2.397899 1_555
Na2 O10 2.462876 1_555
Na2 O22 2.479939 1_555
Na2 O28 2.485313 1_555
Na3 O12 2.374710 1_555
Na3 O10 2.397899 1_555
Na3 O11 2.462876 1_555
Na3 O23 2.479939 1_555
Na3 O29 2.485313 1_555
Na4 O23 2.392557 1_555
Na4 O31 2.407098 1_565
Na4 O7 2.412902 1_555
Na4 O12 2.447489 1_555
Na4 O27 2.517818 1_565
Na4 O22 2.573057 1_565
Na5 O22 2.392557 1_555
Na5 O30 2.407098 1_545
Na5 O6 2.412902 1_555
Na5 O13 2.447489 1_555
Na5 O26 2.517818 1_545
Na5 O23 2.573057 1_545
Na6 O21 2.392557 1_655
Na6 O29 2.407098 1_655
Na6 O5 2.412902 1_655
Na6 O14 2.447489 1_555
Na6 O25 2.517818 1_555
Na6 O20 2.573057 1_555
Na7 O20 2.392557 1_455
Na7 O28 2.407098 1_455
Na7 O4 2.412902 1_455
Na7 O15 2.447489 1_555
Na7 O24 2.517818 1_555
Na7 O21 2.573057 1_555
Na8 O2 2.338693 1_556
Na8 O28 2.414854 1_555
Na8 O4 2.486501 1_555
Na8 O5 2.565676 1_656
Na8 O16 2.671468 1_555
Na8 O27 2.692749 1_555
Na8 O10 2.826281 1_555
Na9 O3 2.338693 1_554
Na9 O29 2.414854 1_555
Na9 O5 2.486501 1_555
Na9 O4 2.565676 1_454
Na9 O17 2.671468 1_555
Na9 O26 2.692749 1_555
Na9 O11 2.826281 1_555
Na10 O0 2.338693 1_554
Na10 O30 2.414854 1_555
Na10 O6 2.486501 1_565
Na10 O7 2.565676 1_554
Na10 O18 2.671468 1_565
Na10 O25 2.692749 1_555
Na10 O8 2.826281 1_655
Na11 O1 2.338693 1_556
Na11 O31 2.414854 1_555
Na11 O7 2.486501 1_545
Na11 O6 2.565676 1_556
Na11 O19 2.671468 1_545
Na11 O24 2.692749 1_555
Na11 O9 2.826281 1_455
Fe0 O27 2.118159 1_454
Fe0 O26 2.118159 1_545
Fe0 O0 2.130369 1_444
Fe0 O1 2.130369 1_555
Fe0 O18 2.156765 1_455
Fe0 O19 2.156765 1_544
Fe1 O24 2.118159 1_554
Fe1 O25 2.118159 1_555
Fe1 O2 2.130369 1_555
Fe1 O3 2.130369 1_554
Fe1 O17 2.156765 1_555
Fe1 O16 2.156765 1_554
O0 S0 1.512503 1_555
O1 S1 1.512503 1_555
O2 S2 1.512503 1_555
O3 S3 1.512503 1_555
O4 S0 1.490027 1_555
O5 S1 1.490027 1_555
O6 S2 1.490027 1_555
O7 S3 1.490027 1_555
O8 S7 1.482703 1_555
O9 S6 1.482703 1_555
O10 S5 1.482703 1_555
O11 S4 1.482703 1_555
O12 S0 1.484543 1_555
O13 S1 1.484543 1_555
O14 S2 1.484543 1_555
O15 S3 1.484543 1_555
O16 S0 1.484991 1_555
O17 S1 1.484991 1_555
O18 S2 1.484991 1_555
O19 S3 1.484991 1_555
O20 S4 1.494023 1_555
O21 S5 1.494023 1_555
O22 S6 1.494023 1_555
O23 S7 1.494023 1_555
O24 S5 1.511663 1_555
O25 S4 1.511663 1_555
O26 S7 1.511663 1_555
O27 S6 1.511663 1_555
O28 S6 1.490208 1_555
O29 S7 1.490208 1_555
O30 S4 1.490208 1_555
O31 S5 1.490208 1_555
