# generated using pymatgen
data_Sn7GeN6
_symmetry_space_group_name_H-M   'P 1'
_cell_length_a   12.40048600
_cell_length_b   7.01955800
_cell_length_c   12.18963000
_cell_angle_alpha   90.00000000
_cell_angle_beta   90.00000000
_cell_angle_gamma   90.00000000
_symmetry_Int_Tables_number   1
_chemical_formula_structural   Sn7GeN6
_chemical_formula_sum   'Sn28 Ge4 N24'
_cell_volume   1061.05768830
_cell_formula_units_Z   4
loop_
 _symmetry_equiv_pos_site_id
 _symmetry_equiv_pos_as_xyz
  1  'x, y, z'
loop_
 _atom_site_type_symbol
 _atom_site_label
 _atom_site_symmetry_multiplicity
 _atom_site_fract_x
 _atom_site_fract_y
 _atom_site_fract_z
 _atom_site_occupancy
  Sn  Sn0  1  0.00179000  0.76567400  0.03175900  1
  Sn  Sn1  1  0.49821000  0.73432600  0.53175900  1
  Sn  Sn2  1  0.50179000  0.73432600  0.96824100  1
  Sn  Sn3  1  0.99821000  0.76567400  0.46824100  1
  Sn  Sn4  1  0.99821000  0.23432600  0.96824100  1
  Sn  Sn5  1  0.50179000  0.26567400  0.46824100  1
  Sn  Sn6  1  0.49821000  0.26567400  0.03175900  1
  Sn  Sn7  1  0.00179000  0.23432600  0.53175900  1
  Sn  Sn8  1  0.21482300  0.80402600  0.62665600  1
  Sn  Sn9  1  0.28517700  0.69597400  0.12665600  1
  Sn  Sn10  1  0.71482300  0.69597400  0.37334400  1
  Sn  Sn11  1  0.78517700  0.80402600  0.87334400  1
  Sn  Sn12  1  0.78517700  0.19597400  0.37334400  1
  Sn  Sn13  1  0.71482300  0.30402600  0.87334400  1
  Sn  Sn14  1  0.28517700  0.30402600  0.62665600  1
  Sn  Sn15  1  0.21482300  0.19597400  0.12665600  1
  Sn  Sn16  1  0.25516200  0.53888800  0.85766600  1
  Sn  Sn17  1  0.24483800  0.96111200  0.35766600  1
  Sn  Sn18  1  0.75516200  0.96111200  0.14233400  1
  Sn  Sn19  1  0.74483800  0.53888800  0.64233400  1
  Sn  Sn20  1  0.74483800  0.46111200  0.14233400  1
  Sn  Sn21  1  0.75516200  0.03888800  0.64233400  1
  Sn  Sn22  1  0.24483800  0.03888800  0.85766600  1
  Sn  Sn23  1  0.25516200  0.46111200  0.35766600  1
  Sn  Sn24  1  0.00000000  0.42261100  0.75000000  1
  Sn  Sn25  1  0.50000000  0.07738900  0.25000000  1
  Sn  Sn26  1  0.00000000  0.57738900  0.25000000  1
  Sn  Sn27  1  0.50000000  0.92261100  0.75000000  1
  Ge  Ge0  1  0.00000000  0.84395800  0.75000000  1
  Ge  Ge1  1  0.50000000  0.65604200  0.25000000  1
  Ge  Ge2  1  0.00000000  0.15604200  0.25000000  1
  Ge  Ge3  1  0.50000000  0.34395800  0.75000000  1
  N  N0  1  0.11283600  0.65638100  0.75965200  1
  N  N1  1  0.38716400  0.84361900  0.25965200  1
  N  N2  1  0.61283600  0.84361900  0.24034800  1
  N  N3  1  0.88716400  0.65638100  0.74034800  1
  N  N4  1  0.88716400  0.34361900  0.24034800  1
  N  N5  1  0.61283600  0.15638100  0.74034800  1
  N  N6  1  0.38716400  0.15638100  0.75965200  1
  N  N7  1  0.11283600  0.34361900  0.25965200  1
  N  N8  1  0.17833500  0.71148800  0.45746600  1
  N  N9  1  0.32166500  0.78851200  0.95746600  1
  N  N10  1  0.67833500  0.78851200  0.54253400  1
  N  N11  1  0.82166500  0.71148800  0.04253400  1
  N  N12  1  0.82166500  0.28851200  0.54253400  1
  N  N13  1  0.67833500  0.21148800  0.04253400  1
  N  N14  1  0.32166500  0.21148800  0.45746600  1
  N  N15  1  0.17833500  0.28851200  0.95746600  1
  N  N16  1  0.46048300  0.45114000  0.61400400  1
  N  N17  1  0.03951700  0.04886000  0.11400300  1
  N  N18  1  0.96048300  0.04886000  0.38599700  1
  N  N19  1  0.53951700  0.45114000  0.88599600  1
  N  N20  1  0.53951700  0.54886000  0.38599700  1
  N  N21  1  0.96048300  0.95114000  0.88599600  1
  N  N22  1  0.03951700  0.95114000  0.61400400  1
  N  N23  1  0.46048300  0.54886000  0.11400300  1
loop_
_geom_bond_atom_site_label_1
_geom_bond_atom_site_label_2
_geom_bond_distance
_geom_bond_site_symmetry_2
Ge0 N22 1.885284 1_555
Ge0 N21 1.885284 1_455
Ge0 N0 1.924937 1_555
Ge0 N3 1.924937 1_455
Ge1 N20 1.885295 1_555
Ge1 N23 1.885295 1_555
Ge1 N2 1.924937 1_555
Ge1 N1 1.924937 1_555
Ge2 N18 1.885295 1_455
Ge2 N17 1.885295 1_555
Ge2 N7 1.924937 1_555
Ge2 N4 1.924937 1_455
Ge3 N19 1.885284 1_555
Ge3 N16 1.885284 1_555
Ge3 N5 1.924937 1_555
Ge3 N6 1.924937 1_555
N0 Sn24 2.159727 1_555
N0 Sn16 2.285292 1_555
N0 Sn8 2.302556 1_555
N1 Sn25 2.159727 1_565
N1 Sn17 2.285292 1_555
N1 Sn9 2.302556 1_555
N2 Sn25 2.159727 1_565
N2 Sn18 2.285292 1_555
N2 Sn10 2.302556 1_555
N3 Sn24 2.159727 1_655
N3 Sn19 2.285292 1_555
N3 Sn11 2.302556 1_555
N4 Sn26 2.159727 1_655
N4 Sn20 2.285292 1_555
N4 Sn12 2.302556 1_555
N5 Sn27 2.159727 1_545
N5 Sn21 2.285292 1_555
N5 Sn13 2.302556 1_555
N6 Sn27 2.159727 1_545
N6 Sn22 2.285292 1_555
N6 Sn14 2.302556 1_555
N7 Sn26 2.159727 1_555
N7 Sn23 2.285292 1_555
N7 Sn15 2.302556 1_555
N8 Sn8 2.209077 1_555
N8 Sn3 2.269595 1_455
N8 Sn17 2.287005 1_555
N8 Sn23 2.340184 1_555
N9 Sn9 2.209077 1_556
N9 Sn2 2.269595 1_555
N9 Sn16 2.287005 1_555
N9 Sn22 2.340184 1_565
N10 Sn10 2.209077 1_555
N10 Sn1 2.269595 1_555
N10 Sn19 2.287005 1_555
N10 Sn21 2.340184 1_565
N11 Sn11 2.209077 1_554
N11 Sn0 2.269595 1_655
N11 Sn18 2.287005 1_555
N11 Sn20 2.340184 1_555
N12 Sn12 2.209077 1_555
N12 Sn7 2.269595 1_655
N12 Sn21 2.287005 1_555
N12 Sn19 2.340184 1_555
N13 Sn13 2.209077 1_554
N13 Sn6 2.269595 1_555
N13 Sn20 2.287005 1_555
N13 Sn18 2.340184 1_545
N14 Sn14 2.209077 1_555
N14 Sn5 2.269595 1_555
N14 Sn23 2.287005 1_555
N14 Sn17 2.340184 1_545
N15 Sn15 2.209077 1_556
N15 Sn4 2.269595 1_455
N15 Sn22 2.287005 1_555
N15 Sn16 2.340184 1_555
N16 Sn5 2.261482 1_555
N16 Sn1 2.274963 1_555
N16 Sn14 2.411629 1_555
N17 Sn4 2.261472 1_454
N17 Sn0 2.274958 1_545
N17 Sn15 2.411630 1_555
N18 Sn7 2.261472 1_655
N18 Sn3 2.274958 1_545
N18 Sn12 2.411630 1_555
N19 Sn6 2.261482 1_556
N19 Sn2 2.274963 1_555
N19 Sn13 2.411629 1_555
N20 Sn1 2.261472 1_555
N20 Sn5 2.274958 1_555
N20 Sn10 2.411630 1_555
N21 Sn0 2.261482 1_656
N21 Sn4 2.274963 1_565
N21 Sn11 2.411629 1_555
N22 Sn3 2.261482 1_455
N22 Sn7 2.274963 1_565
N22 Sn8 2.411629 1_555
N23 Sn2 2.261472 1_554
N23 Sn6 2.274958 1_555
N23 Sn9 2.411630 1_555
