# generated using pymatgen
data_Mg14FeCoO16
_symmetry_space_group_name_H-M   'P 1'
_cell_length_a   8.55262012
_cell_length_b   8.52055213
_cell_length_c   4.27325057
_cell_angle_alpha   90.00000000
_cell_angle_beta   90.00000000
_cell_angle_gamma   90.00000000
_symmetry_Int_Tables_number   1
_chemical_formula_structural   Mg14FeCoO16
_chemical_formula_sum   'Mg14 Fe1 Co1 O16'
_cell_volume   311.40478356
_cell_formula_units_Z   1
loop_
 _symmetry_equiv_pos_site_id
 _symmetry_equiv_pos_as_xyz
  1  'x, y, z'
loop_
 _atom_site_type_symbol
 _atom_site_label
 _atom_site_symmetry_multiplicity
 _atom_site_fract_x
 _atom_site_fract_y
 _atom_site_fract_z
 _atom_site_occupancy
  Mg  Mg0  1  0.50000000  0.00000000  0.00000000  1
  Mg  Mg1  1  0.50000000  0.50000000  0.00000000  1
  Mg  Mg2  1  0.00000000  0.25582839  0.50000000  1
  Mg  Mg3  1  0.00000000  0.74417161  0.50000000  1
  Mg  Mg4  1  0.50000000  0.25147164  0.50000000  1
  Mg  Mg5  1  0.50000000  0.74852836  0.50000000  1
  Mg  Mg6  1  0.25193446  0.00000000  0.50000000  1
  Mg  Mg7  1  0.24776316  0.50000000  0.50000000  1
  Mg  Mg8  1  0.74806554  0.00000000  0.50000000  1
  Mg  Mg9  1  0.75223684  0.50000000  0.50000000  1
  Mg  Mg10  1  0.24977777  0.25353926  0.00000000  1
  Mg  Mg11  1  0.24977777  0.74646074  0.00000000  1
  Mg  Mg12  1  0.75022223  0.25353926  0.00000000  1
  Mg  Mg13  1  0.75022223  0.74646074  -0.00000000  1
  Fe  Fe0  1  0.00000000  0.00000000  0.00000000  1
  Co  Co0  1  0.00000000  0.50000000  0.00000000  1
  O  O0  1  0.24977804  0.00000000  0.00000000  1
  O  O1  1  0.25834501  0.50000000  0.00000000  1
  O  O2  1  0.75022196  0.00000000  0.00000000  1
  O  O3  1  0.74165499  0.50000000  0.00000000  1
  O  O4  1  0.24892618  0.24895916  0.50000000  1
  O  O5  1  0.24892618  0.75104084  0.50000000  1
  O  O6  1  0.75107382  0.24895916  0.50000000  1
  O  O7  1  0.75107382  0.75104084  0.50000000  1
  O  O8  1  0.00000000  0.00000000  0.50000000  1
  O  O9  1  0.00000000  0.50000000  0.50000000  1
  O  O10  1  0.50000000  0.00000000  0.50000000  1
  O  O11  1  0.50000000  0.50000000  0.50000000  1
  O  O12  1  0.00000000  0.24006545  -0.00000000  1
  O  O13  1  0.00000000  0.75993455  0.00000000  1
  O  O14  1  0.50000000  0.24774571  0.00000000  1
  O  O15  1  0.50000000  0.75225429  -0.00000000  1
loop_
_geom_bond_atom_site_label_1
_geom_bond_atom_site_label_2
_geom_bond_distance
_geom_bond_site_symmetry_2
Mg0 O15 2.110930 1_545
Mg0 O14 2.110930 1_555
Mg0 O10 2.136625 1_555
Mg0 O10 2.136625 1_554
Mg0 O0 2.140053 1_555
Mg0 O2 2.140053 1_555
Mg1 O3 2.066783 1_555
Mg1 O1 2.066783 1_555
Mg1 O11 2.136625 1_554
Mg1 O11 2.136625 1_555
Mg1 O15 2.149346 1_555
Mg1 O14 2.149346 1_555
Mg2 O9 2.080477 1_555
Mg2 O4 2.129775 1_555
Mg2 O6 2.129775 1_455
Mg2 O12 2.140842 1_556
Mg2 O12 2.140842 1_555
Mg2 O8 2.179799 1_555
Mg3 O9 2.080477 1_555
Mg3 O5 2.129775 1_555
Mg3 O7 2.129775 1_455
Mg3 O13 2.140842 1_555
Mg3 O13 2.140842 1_556
Mg3 O8 2.179799 1_565
Mg4 O11 2.117599 1_555
Mg4 O14 2.136861 1_555
Mg4 O14 2.136861 1_556
Mg4 O10 2.142677 1_555
Mg4 O4 2.147446 1_555
Mg4 O6 2.147446 1_555
Mg5 O11 2.117599 1_555
Mg5 O15 2.136861 1_556
Mg5 O15 2.136861 1_555
Mg5 O10 2.142677 1_565
Mg5 O5 2.147446 1_555
Mg5 O7 2.147446 1_555
Mg6 O5 2.121426 1_545
Mg6 O4 2.121426 1_555
Mg6 O10 2.121610 1_555
Mg6 O0 2.136705 1_555
Mg6 O0 2.136705 1_556
Mg6 O8 2.154700 1_555
Mg7 O9 2.119024 1_555
Mg7 O1 2.138541 1_555
Mg7 O1 2.138541 1_556
Mg7 O4 2.139030 1_555
Mg7 O5 2.139030 1_555
Mg7 O11 2.157286 1_555
Mg8 O7 2.121426 1_545
Mg8 O6 2.121426 1_555
Mg8 O10 2.121610 1_555
Mg8 O2 2.136705 1_555
Mg8 O2 2.136705 1_556
Mg8 O8 2.154700 1_655
Mg9 O9 2.119024 1_655
Mg9 O3 2.138541 1_556
Mg9 O3 2.138541 1_555
Mg9 O6 2.139030 1_555
Mg9 O7 2.139030 1_555
Mg9 O11 2.157286 1_555
Mg10 O1 2.101260 1_555
Mg10 O4 2.136994 1_554
Mg10 O4 2.136994 1_555
Mg10 O12 2.139337 1_555
Mg10 O14 2.140625 1_555
Mg10 O0 2.160294 1_555
Mg11 O1 2.101260 1_555
Mg11 O5 2.136994 1_554
Mg11 O5 2.136994 1_555
Mg11 O13 2.139337 1_555
Mg11 O15 2.140625 1_555
Mg11 O0 2.160294 1_565
Mg12 O3 2.101260 1_555
Mg12 O6 2.136994 1_555
Mg12 O6 2.136994 1_554
Mg12 O12 2.139337 1_655
Mg12 O14 2.140625 1_555
Mg12 O2 2.160294 1_555
Mg13 O3 2.101260 1_555
Mg13 O7 2.136994 1_555
Mg13 O7 2.136994 1_554
Mg13 O13 2.139337 1_655
Mg13 O15 2.140625 1_555
Mg13 O2 2.160294 1_565
Fe0 O13 2.045490 1_545
Fe0 O12 2.045490 1_555
Fe0 O0 2.136257 1_555
Fe0 O2 2.136257 1_455
Fe0 O8 2.136625 1_554
Fe0 O8 2.136625 1_555
Co0 O9 2.136625 1_554
Co0 O9 2.136625 1_555
Co0 O1 2.209527 1_555
Co0 O3 2.209527 1_455
Co0 O13 2.214786 1_555
Co0 O12 2.214786 1_555
