# generated using pymatgen
data_LaSiP3
_symmetry_space_group_name_H-M   'P 1'
_cell_length_a   5.78309152
_cell_length_b   5.98363527
_cell_length_c   25.53921043
_cell_angle_alpha   90.00000000
_cell_angle_beta   90.00000000
_cell_angle_gamma   90.00000000
_symmetry_Int_Tables_number   1
_chemical_formula_structural   LaSiP3
_chemical_formula_sum   'La8 Si8 P24'
_cell_volume   883.75654912
_cell_formula_units_Z   8
loop_
 _symmetry_equiv_pos_site_id
 _symmetry_equiv_pos_as_xyz
  1  'x, y, z'
loop_
 _atom_site_type_symbol
 _atom_site_label
 _atom_site_symmetry_multiplicity
 _atom_site_fract_x
 _atom_site_fract_y
 _atom_site_fract_z
 _atom_site_occupancy
  La  La0  1  0.75027679  0.97813942  0.09015756  1
  La  La1  1  0.25027679  0.02186058  0.90984244  1
  La  La2  1  0.25027679  0.52186058  0.59015756  1
  La  La3  1  0.75027679  0.47813942  0.40984244  1
  La  La4  1  0.24924496  0.47753219  0.09966433  1
  La  La5  1  0.74924496  0.52246781  0.90033567  1
  La  La6  1  0.74924496  0.02246781  0.59966433  1
  La  La7  1  0.24924496  0.97753219  0.40033567  1
  Si  Si0  1  0.32991980  0.05760366  0.20618896  1
  Si  Si1  1  0.82991980  0.94239634  0.79381104  1
  Si  Si2  1  0.82991980  0.44239634  0.70618896  1
  Si  Si3  1  0.32991980  0.55760366  0.29381104  1
  Si  Si4  1  0.82700633  0.38817680  0.20957088  1
  Si  Si5  1  0.32700633  0.61182320  0.79042912  1
  Si  Si6  1  0.32700633  0.11182320  0.70957088  1
  Si  Si7  1  0.82700633  0.88817680  0.29042912  1
  P  P0  1  0.74767659  0.48636585  0.12896192  1
  P  P1  1  0.24767659  0.51363415  0.87103808  1
  P  P2  1  0.24767659  0.01363415  0.62896192  1
  P  P3  1  0.74767659  0.98636585  0.37103808  1
  P  P4  1  0.24836172  0.97470326  0.12476430  1
  P  P5  1  0.74836172  0.02529674  0.87523570  1
  P  P6  1  0.74836172  0.52529674  0.62476430  1
  P  P7  1  0.24836172  0.47470326  0.37523570  1
  P  P8  1  0.44892582  0.67942956  0.00225809  1
  P  P9  1  0.94892582  0.32057044  0.99774191  1
  P  P10  1  0.94892582  0.82057044  0.50225809  1
  P  P11  1  0.44892582  0.17942956  0.49774191  1
  P  P12  1  0.55572361  0.31934398  0.99786679  1
  P  P13  1  0.05572361  0.68065602  0.00213321  1
  P  P14  1  0.05572361  0.18065602  0.49786679  1
  P  P15  1  0.55572361  0.81934398  0.50213321  1
  P  P16  1  0.21474082  0.40997163  0.21754093  1
  P  P17  1  0.71474082  0.59002837  0.78245907  1
  P  P18  1  0.71474082  0.09002837  0.71754093  1
  P  P19  1  0.21474082  0.90997163  0.28245907  1
  P  P20  1  0.71712357  0.03155516  0.21250056  1
  P  P21  1  0.21712357  0.96844484  0.78749944  1
  P  P22  1  0.21712357  0.46844484  0.71250056  1
  P  P23  1  0.71712357  0.53155516  0.28749944  1
loop_
_geom_bond_atom_site_label_1
_geom_bond_atom_site_label_2
_geom_bond_distance
_geom_bond_site_symmetry_2
La0 P4 3.013086 1_655
La0 P4 3.034268 1_555
La0 P0 3.105033 1_555
La0 P20 3.146695 1_565
La0 P0 3.198485 1_565
La0 P12 3.315088 1_564
La0 P9 3.329975 1_564
La0 P8 3.357281 1_555
La0 P13 3.367879 1_655
La1 P5 3.013086 1_555
La1 P5 3.034268 1_455
La1 P1 3.105033 1_555
La1 P21 3.146695 1_545
La1 P1 3.198485 1_545
La1 P13 3.315088 1_546
La1 P8 3.329975 1_546
La1 P9 3.357281 1_455
La1 P12 3.367879 1_555
La2 P6 3.013086 1_555
La2 P6 3.034268 1_455
La2 P2 3.105033 1_565
La2 P22 3.146695 1_555
La2 P2 3.198485 1_555
La2 P14 3.315088 1_555
La2 P11 3.329975 1_555
La2 P10 3.357281 1_455
La2 P15 3.367879 1_555
La3 P7 3.013086 1_655
La3 P7 3.034268 1_555
La3 P3 3.105033 1_545
La3 P23 3.146695 1_555
La3 P3 3.198485 1_555
La3 P15 3.315088 1_555
La3 P10 3.329975 1_555
La3 P11 3.357281 1_555
La3 P14 3.367879 1_655
La4 P0 2.978476 1_555
La4 P13 2.989008 1_555
La4 P0 2.996035 1_455
La4 P8 2.996915 1_555
La4 P4 3.043176 1_555
La4 P16 3.044044 1_555
La4 P4 3.076280 1_545
La4 P9 3.267137 1_454
La4 P12 3.285792 1_554
La5 P1 2.978476 1_655
La5 P12 2.989008 1_555
La5 P1 2.996035 1_555
La5 P9 2.996915 1_555
La5 P5 3.043176 1_555
La5 P17 3.044044 1_555
La5 P5 3.076280 1_565
La5 P8 3.267137 1_556
La5 P13 3.285792 1_656
La6 P2 2.978476 1_655
La6 P15 2.989008 1_545
La6 P2 2.996035 1_555
La6 P10 2.996915 1_545
La6 P6 3.043176 1_545
La6 P18 3.044044 1_555
La6 P6 3.076280 1_555
La6 P11 3.267137 1_555
La6 P14 3.285792 1_655
La7 P3 2.978476 1_555
La7 P14 2.989008 1_565
La7 P3 2.996035 1_455
La7 P11 2.996915 1_565
La7 P7 3.043176 1_565
La7 P19 3.044044 1_555
La7 P7 3.076280 1_555
La7 P10 3.267137 1_455
La7 P15 3.285792 1_555
P0 Si4 2.189489 1_555
P1 Si5 2.189489 1_555
P2 Si6 2.189489 1_555
P3 Si7 2.189489 1_555
P4 Si0 2.189277 1_565
P5 Si1 2.189277 1_545
P6 Si2 2.189277 1_555
P7 Si3 2.189277 1_555
P10 P14 2.244198 1_665
P10 P15 2.273938 1_555
P11 P15 2.244198 1_545
P11 P14 2.273938 1_555
P12 P8 2.244198 1_556
P12 P9 2.273938 1_555
P13 P9 2.244198 1_454
P13 P8 2.273938 1_555
P16 Si0 2.230080 1_555
P16 Si3 2.240147 1_555
P16 Si4 2.255298 1_455
P17 Si1 2.230080 1_555
P17 Si2 2.240147 1_555
P17 Si5 2.255298 1_555
P18 Si2 2.230080 1_555
P18 Si1 2.240147 1_545
P18 Si6 2.255298 1_555
P19 Si3 2.230080 1_555
P19 Si0 2.240147 1_565
P19 Si7 2.255298 1_455
P20 Si4 2.227760 1_555
P20 Si0 2.250433 1_555
P20 Si7 2.258512 1_545
P21 Si5 2.227760 1_555
P21 Si1 2.250433 1_455
P21 Si6 2.258512 1_565
P22 Si6 2.227760 1_555
P22 Si2 2.250433 1_455
P22 Si5 2.258512 1_555
P23 Si7 2.227760 1_555
P23 Si3 2.250433 1_555
P23 Si4 2.258512 1_555
