# generated using pymatgen
data_Sm2ZrS5
_symmetry_space_group_name_H-M   'P 1'
_cell_length_a   7.34364462
_cell_length_b   7.89967865
_cell_length_c   11.63391152
_cell_angle_alpha   90.00000000
_cell_angle_beta   90.00000000
_cell_angle_gamma   90.00000000
_symmetry_Int_Tables_number   1
_chemical_formula_structural   Sm2ZrS5
_chemical_formula_sum   'Sm8 Zr4 S20'
_cell_volume   674.91150814
_cell_formula_units_Z   4
loop_
 _symmetry_equiv_pos_site_id
 _symmetry_equiv_pos_as_xyz
  1  'x, y, z'
loop_
 _atom_site_type_symbol
 _atom_site_label
 _atom_site_symmetry_multiplicity
 _atom_site_fract_x
 _atom_site_fract_y
 _atom_site_fract_z
 _atom_site_occupancy
  Sm  Sm0  1  0.52864505  0.49838007  0.32255259  1
  Sm  Sm1  1  0.97135495  0.00161993  0.82255259  1
  Sm  Sm2  1  0.47135495  0.99838007  0.67744741  1
  Sm  Sm3  1  0.02864505  0.50161993  0.17744741  1
  Sm  Sm4  1  0.47135495  0.50161993  0.67744741  1
  Sm  Sm5  1  0.02864505  0.99838007  0.17744741  1
  Sm  Sm6  1  0.52864505  0.00161993  0.32255259  1
  Sm  Sm7  1  0.97135495  0.49838007  0.82255259  1
  Zr  Zr0  1  0.07636397  0.75000000  0.49267797  1
  Zr  Zr1  1  0.42363603  0.75000000  0.99267797  1
  Zr  Zr2  1  0.92363603  0.25000000  0.50732203  1
  Zr  Zr3  1  0.57636397  0.25000000  0.00732203  1
  S  S0  1  0.83687634  0.96384665  0.58938736  1
  S  S1  1  0.66312366  0.53615335  0.08938736  1
  S  S2  1  0.16312366  0.46384665  0.41061264  1
  S  S3  1  0.33687634  0.03615335  0.91061264  1
  S  S4  1  0.16312366  0.03615335  0.41061264  1
  S  S5  1  0.33687634  0.46384665  0.91061264  1
  S  S6  1  0.83687634  0.53615335  0.58938736  1
  S  S7  1  0.66312366  0.96384665  0.08938736  1
  S  S8  1  0.83832133  0.75000000  0.31674882  1
  S  S9  1  0.66167867  0.75000000  0.81674882  1
  S  S10  1  0.16167867  0.25000000  0.68325118  1
  S  S11  1  0.33832133  0.25000000  0.18325118  1
  S  S12  1  0.44637839  0.75000000  0.49615208  1
  S  S13  1  0.05362161  0.75000000  0.99615208  1
  S  S14  1  0.55362161  0.25000000  0.50384792  1
  S  S15  1  0.94637839  0.25000000  0.00384792  1
  S  S16  1  0.18409769  0.75000000  0.70708596  1
  S  S17  1  0.31590231  0.75000000  0.20708596  1
  S  S18  1  0.81590231  0.25000000  0.29291404  1
  S  S19  1  0.68409769  0.25000000  0.79291404  1
loop_
_geom_bond_atom_site_label_1
_geom_bond_atom_site_label_2
_geom_bond_distance
_geom_bond_site_symmetry_2
S0 Zr2 2.535235 1_565
S0 Zr0 2.685654 1_655
S0 Sm2 2.886041 1_555
S0 Sm1 2.902180 1_565
S1 Zr3 2.535235 1_555
S1 Zr1 2.685654 1_554
S1 Sm3 2.886041 1_655
S1 Sm0 2.902180 1_555
S2 Zr0 2.535235 1_555
S2 Zr2 2.685654 1_455
S2 Sm0 2.886041 1_555
S2 Sm3 2.902180 1_555
S3 Zr1 2.535235 1_545
S3 Zr3 2.685654 1_556
S3 Sm1 2.886041 1_455
S3 Sm2 2.902180 1_545
S4 Zr0 2.535235 1_545
S4 Zr2 2.685654 1_455
S4 Sm6 2.886041 1_555
S4 Sm5 2.902180 1_545
S5 Zr1 2.535235 1_555
S5 Zr3 2.685654 1_556
S5 Sm7 2.886041 1_455
S5 Sm4 2.902180 1_555
S6 Zr2 2.535235 1_555
S6 Zr0 2.685654 1_655
S6 Sm4 2.886041 1_555
S6 Sm7 2.902180 1_555
S7 Zr3 2.535235 1_565
S7 Zr1 2.685654 1_554
S7 Sm5 2.886041 1_655
S7 Sm6 2.902180 1_565
S8 Zr0 2.691657 1_655
S8 Sm3 2.903415 1_655
S8 Sm5 2.903415 1_655
S8 Sm0 3.021150 1_555
S8 Sm6 3.021150 1_565
S9 Zr1 2.691657 1_555
S9 Sm4 2.903415 1_555
S9 Sm2 2.903415 1_555
S9 Sm1 3.021150 1_565
S9 Sm7 3.021150 1_555
S10 Zr2 2.691657 1_455
S10 Sm7 2.903415 1_455
S10 Sm1 2.903415 1_455
S10 Sm2 3.021150 1_545
S10 Sm4 3.021150 1_555
S11 Zr3 2.691657 1_555
S11 Sm0 2.903415 1_555
S11 Sm6 2.903415 1_555
S11 Sm5 3.021150 1_545
S11 Sm3 3.021150 1_555
S12 Zr0 2.717555 1_555
S12 Sm4 2.886552 1_555
S12 Sm2 2.886552 1_555
S12 Sm0 2.897404 1_555
S12 Sm6 2.897404 1_565
S13 Zr1 2.717555 1_555
S13 Sm3 2.886552 1_556
S13 Sm5 2.886552 1_556
S13 Sm7 2.897404 1_455
S13 Sm1 2.897404 1_465
S14 Zr2 2.717555 1_555
S14 Sm6 2.886552 1_555
S14 Sm0 2.886552 1_555
S14 Sm2 2.897404 1_545
S14 Sm4 2.897404 1_555
S15 Zr3 2.717555 1_555
S15 Sm7 2.886552 1_554
S15 Sm1 2.886552 1_554
S15 Sm5 2.897404 1_645
S15 Sm3 2.897404 1_655
S16 Zr0 2.616865 1_555
S16 Sm1 2.862927 1_465
S16 Sm7 2.862927 1_455
S16 Sm4 2.901530 1_555
S16 Sm2 2.901530 1_555
S17 Zr1 2.616865 1_554
S17 Sm6 2.862927 1_565
S17 Sm0 2.862927 1_555
S17 Sm3 2.901530 1_555
S17 Sm5 2.901530 1_555
S18 Zr2 2.616865 1_555
S18 Sm5 2.862927 1_645
S18 Sm3 2.862927 1_655
S18 Sm0 2.901530 1_555
S18 Sm6 2.901530 1_555
S19 Zr3 2.616865 1_556
S19 Sm2 2.862927 1_545
S19 Sm4 2.862927 1_555
S19 Sm1 2.901530 1_555
S19 Sm7 2.901530 1_555
