# generated using pymatgen
data_ThInNi
_symmetry_space_group_name_H-M   'P 1'
_cell_length_a   7.33698469
_cell_length_b   7.33698469
_cell_length_c   4.14111165
_cell_angle_alpha   90.00000000
_cell_angle_beta   90.00000000
_cell_angle_gamma   119.99999448
_symmetry_Int_Tables_number   1
_chemical_formula_structural   ThInNi
_chemical_formula_sum   'Th3 In3 Ni3'
_cell_volume   193.05578550
_cell_formula_units_Z   3
loop_
 _symmetry_equiv_pos_site_id
 _symmetry_equiv_pos_as_xyz
  1  'x, y, z'
loop_
 _atom_site_type_symbol
 _atom_site_label
 _atom_site_symmetry_multiplicity
 _atom_site_fract_x
 _atom_site_fract_y
 _atom_site_fract_z
 _atom_site_occupancy
  Th  Th0  1  0.41810316  0.00000000  0.50000000  1
  Th  Th1  1  0.00000000  0.41810316  0.50000000  1
  Th  Th2  1  0.58189684  0.58189684  0.50000000  1
  In  In0  1  0.75757851  0.00000000  0.00000000  1
  In  In1  1  0.00000000  0.75757851  0.00000000  1
  In  In2  1  0.24242149  0.24242149  -0.00000000  1
  Ni  Ni0  1  0.33333300  0.66666700  0.00000000  1
  Ni  Ni1  1  0.66666700  0.33333300  -0.00000000  1
  Ni  Ni2  1  -0.00000000  -0.00000000  0.50000000  1
loop_
_geom_bond_atom_site_label_1
_geom_bond_atom_site_label_2
_geom_bond_distance
_geom_bond_site_symmetry_2
In0 Ni2 2.729610 1_654
In0 Ni2 2.729610 1_655
In0 Ni1 2.838565 1_555
In0 Ni0 2.838571 1_545
In0 In1 3.080700 1_645
In0 In2 3.080700 1_655
In0 Th0 3.238968 1_555
In0 Th0 3.238968 1_554
In0 Th2 3.377107 1_544
In0 Th2 3.377107 1_545
In0 Th1 3.377107 1_654
In0 Th1 3.377107 1_655
In1 Ni2 2.729610 1_565
In1 Ni2 2.729610 1_564
In1 Ni0 2.838565 1_555
In1 Ni1 2.838571 1_455
In1 In2 3.080700 1_565
In1 Th1 3.238968 1_554
In1 Th1 3.238968 1_555
In1 Th2 3.377107 1_455
In1 Th2 3.377107 1_454
In1 Th0 3.377107 1_564
In1 Th0 3.377107 1_565
In2 Ni2 2.729610 1_554
In2 Ni2 2.729610 1_555
In2 Ni0 2.838573 1_555
In2 Ni1 2.838573 1_555
In2 Th2 3.238968 1_555
In2 Th2 3.238968 1_554
In2 Th1 3.377106 1_554
In2 Th0 3.377106 1_555
In2 Th1 3.377106 1_555
In2 Th0 3.377106 1_554
Ni0 Th0 3.022281 1_564
Ni0 Th0 3.022281 1_565
Ni0 Th1 3.022283 1_555
Ni0 Th1 3.022283 1_554
Ni0 Th2 3.022287 1_555
Ni0 Th2 3.022287 1_554
Ni1 Th1 3.022281 1_655
Ni1 Th1 3.022281 1_654
Ni1 Th0 3.022283 1_554
Ni1 Th0 3.022283 1_555
Ni1 Th2 3.022287 1_555
Ni1 Th2 3.022287 1_554
Ni2 Th1 3.067616 1_555
Ni2 Th0 3.067616 1_555
Ni2 Th2 3.067617 1_445
