# generated using pymatgen
data_Y2MnCrO6
_symmetry_space_group_name_H-M   'P 1'
_cell_length_a   5.74116800
_cell_length_b   5.36917600
_cell_length_c   9.18489653
_cell_angle_alpha   54.60280571
_cell_angle_beta   90.00000000
_cell_angle_gamma   90.00000000
_symmetry_Int_Tables_number   1
_chemical_formula_structural   Y2MnCrO6
_chemical_formula_sum   'Y4 Mn2 Cr2 O12'
_cell_volume   230.79318451
_cell_formula_units_Z   2
loop_
 _symmetry_equiv_pos_site_id
 _symmetry_equiv_pos_as_xyz
  1  'x, y, z'
loop_
 _atom_site_type_symbol
 _atom_site_label
 _atom_site_symmetry_multiplicity
 _atom_site_fract_x
 _atom_site_fract_y
 _atom_site_fract_z
 _atom_site_occupancy
  Y  Y0  1  0.07426400  0.73009100  0.75084000  1
  Y  Y1  1  0.57426400  0.26990900  0.74916000  1
  Y  Y2  1  0.92573600  0.26990900  0.24916000  1
  Y  Y3  1  0.42573600  0.73009100  0.25084000  1
  Mn  Mn0  1  0.00000000  0.00000000  0.00000000  1
  Mn  Mn1  1  0.50000000  0.00000000  0.50000000  1
  Cr  Cr0  1  0.50000000  0.50000000  0.00000000  1
  Cr  Cr1  1  0.00000000  0.50000000  0.50000000  1
  O  O0  1  0.31594200  0.25706700  0.94042500  1
  O  O1  1  0.81594200  0.74293300  0.55957500  1
  O  O2  1  0.68405800  0.74293300  0.05957500  1
  O  O3  1  0.18405800  0.25706700  0.44042500  1
  O  O4  1  0.19370600  0.63602300  0.05389100  1
  O  O5  1  0.69370600  0.36397700  0.44610900  1
  O  O6  1  0.80629400  0.36397700  0.94610900  1
  O  O7  1  0.30629400  0.63602300  0.55389100  1
  O  O8  1  0.45926900  0.86918600  0.74526600  1
  O  O9  1  0.95926900  0.13081400  0.75473400  1
  O  O10  1  0.54073100  0.13081400  0.25473400  1
  O  O11  1  0.04073100  0.86918600  0.24526600  1
loop_
_geom_bond_atom_site_label_1
_geom_bond_atom_site_label_2
_geom_bond_distance
_geom_bond_site_symmetry_2
Mn0 O9 1.946752 1_454
Mn0 O11 1.946752 1_545
Mn0 O4 2.044569 1_545
Mn0 O6 2.044569 1_454
Mn0 O0 2.149343 1_554
Mn0 O2 2.149343 1_445
Mn1 O10 1.946752 1_555
Mn1 O8 1.946752 1_545
Mn1 O5 2.044569 1_555
Mn1 O7 2.044569 1_545
Mn1 O1 2.149343 1_545
Mn1 O3 2.149343 1_555
Cr0 O2 1.986006 1_555
Cr0 O0 1.986006 1_554
Cr0 O8 2.021208 1_554
Cr0 O10 2.021208 1_555
Cr0 O6 2.071100 1_554
Cr0 O4 2.071100 1_555
Cr1 O3 1.986006 1_555
Cr1 O1 1.986006 1_455
Cr1 O9 2.021208 1_455
Cr1 O11 2.021208 1_555
Cr1 O5 2.071100 1_455
Cr1 O7 2.071100 1_555
O0 Y1 2.269381 1_555
O0 Y0 2.506852 1_555
O0 Y3 2.680743 1_546
O1 Y0 2.269381 1_655
O1 Y1 2.506852 1_555
O1 Y2 2.680743 1_565
O2 Y3 2.269381 1_555
O2 Y2 2.506852 1_555
O2 Y1 2.680743 1_564
O3 Y2 2.269381 1_455
O3 Y3 2.506852 1_555
O3 Y0 2.680743 1_545
O4 Y2 2.315893 1_455
O4 Y3 2.521985 1_555
O4 Y0 2.616200 1_554
O5 Y3 2.315893 1_555
O5 Y2 2.521985 1_555
O5 Y1 2.616200 1_555
O6 Y0 2.315893 1_655
O6 Y1 2.521985 1_555
O6 Y2 2.616200 1_556
O7 Y1 2.315893 1_555
O7 Y0 2.521985 1_555
O7 Y3 2.616200 1_555
O8 Y1 2.270567 1_565
O8 Y0 2.324188 1_555
O9 Y0 2.270567 1_645
O9 Y1 2.324188 1_555
O10 Y3 2.270567 1_545
O10 Y2 2.324188 1_555
O11 Y2 2.270567 1_465
O11 Y3 2.324188 1_555
