# generated using pymatgen
data_Th2As3
_symmetry_space_group_name_H-M   'P 1'
_cell_length_a   8.80955500
_cell_length_b   8.80955500
_cell_length_c   32.84513200
_cell_angle_alpha   90.00000000
_cell_angle_beta   90.00000000
_cell_angle_gamma   90.00000000
_symmetry_Int_Tables_number   1
_chemical_formula_structural   Th2As3
_chemical_formula_sum   'Th2 As3'
_cell_volume   2549.05352093
_cell_formula_units_Z   1
loop_
 _symmetry_equiv_pos_site_id
 _symmetry_equiv_pos_as_xyz
  1  'x, y, z'
loop_
 _atom_site_type_symbol
 _atom_site_label
 _atom_site_symmetry_multiplicity
 _atom_site_fract_x
 _atom_site_fract_y
 _atom_site_fract_z
 _atom_site_occupancy
  Th  Th0  1  0.50000000  0.50000000  0.28191600  1
  Th  Th1  1  0.50000000  0.50000000  0.71808400  1
  As  As0  1  0.50000000  0.50000000  0.64271300  1
  As  As1  1  0.50000000  0.50000000  0.35728700  1
  As  As2  1  0.50000000  0.50000000  0.00000000  1
loop_
_geom_bond_atom_site_label_1
_geom_bond_atom_site_label_2
_geom_bond_distance
_geom_bond_site_symmetry_2
As0 Th1 2.475570 1_555
As1 Th0 2.475570 1_555
