# generated using pymatgen
data_CsY(WO4)2
_symmetry_space_group_name_H-M   'P 1'
_cell_length_a   7.70344694
_cell_length_b   7.70344694
_cell_length_c   7.57192600
_cell_angle_alpha   62.57575341
_cell_angle_beta   62.57575341
_cell_angle_gamma   88.57179685
_symmetry_Int_Tables_number   1
_chemical_formula_structural   CsY(WO4)2
_chemical_formula_sum   'Cs2 Y2 W4 O16'
_cell_volume   343.88387108
_cell_formula_units_Z   2
loop_
 _symmetry_equiv_pos_site_id
 _symmetry_equiv_pos_as_xyz
  1  'x, y, z'
loop_
 _atom_site_type_symbol
 _atom_site_label
 _atom_site_symmetry_multiplicity
 _atom_site_fract_x
 _atom_site_fract_y
 _atom_site_fract_z
 _atom_site_occupancy
  Cs  Cs0  1  0.19789500  0.80210500  0.75000000  1
  Cs  Cs1  1  0.80210500  0.19789500  0.25000000  1
  Y  Y0  1  0.77736800  0.22263200  0.75000000  1
  Y  Y1  1  0.22263200  0.77736800  0.25000000  1
  W  W0  1  0.69813100  0.68628700  0.78557200  1
  W  W1  1  0.30186900  0.31371300  0.21442800  1
  W  W2  1  0.31371300  0.30186900  0.71442800  1
  W  W3  1  0.68628700  0.69813100  0.28557200  1
  O  O0  1  0.62140000  0.74626500  0.56651100  1
  O  O1  1  0.37860000  0.25373500  0.43348900  1
  O  O2  1  0.25373500  0.37860000  0.93348900  1
  O  O3  1  0.74626500  0.62140000  0.06651100  1
  O  O4  1  0.36891600  0.06060600  0.87400200  1
  O  O5  1  0.63108400  0.93939400  0.12599800  1
  O  O6  1  0.93939400  0.63108400  0.62599800  1
  O  O7  1  0.06060600  0.36891600  0.37400200  1
  O  O8  1  0.59193300  0.37278500  0.96376700  1
  O  O9  1  0.40806700  0.62721500  0.03623300  1
  O  O10  1  0.62721500  0.40806700  0.53623300  1
  O  O11  1  0.37278500  0.59193300  0.46376700  1
  O  O12  1  0.77663400  0.94905800  0.70253000  1
  O  O13  1  0.22336600  0.05094200  0.29747000  1
  O  O14  1  0.05094200  0.22336600  0.79747000  1
  O  O15  1  0.94905800  0.77663400  0.20253000  1
loop_
_geom_bond_atom_site_label_1
_geom_bond_atom_site_label_2
_geom_bond_distance
_geom_bond_site_symmetry_2
Cs0 O15 2.967002 1_456
Cs0 O13 2.967002 1_565
Cs0 O0 3.010678 1_555
Cs0 O2 3.010678 1_555
Cs0 O3 3.045224 1_456
Cs0 O1 3.045224 1_565
Cs0 O9 3.093161 1_556
Cs0 O11 3.093161 1_555
Cs0 O4 3.094399 1_565
Cs0 O6 3.094399 1_455
Cs1 O12 2.967002 1_545
Cs1 O14 2.967002 1_654
Cs1 O1 3.010678 1_555
Cs1 O3 3.010678 1_555
Cs1 O0 3.045224 1_545
Cs1 O2 3.045224 1_654
Cs1 O10 3.093161 1_555
Cs1 O8 3.093161 1_554
Cs1 O7 3.094399 1_655
Cs1 O5 3.094399 1_545
O0 W0 1.870234 1_555
O0 W3 2.156480 1_555
O1 W1 1.870234 1_555
O1 W2 2.156480 1_555
O2 W2 1.870234 1_555
O2 W1 2.156480 1_556
O3 W3 1.870234 1_555
O3 W0 2.156480 1_554
O4 W2 1.860199 1_555
O4 Y1 2.362473 1_546
O5 W3 1.860199 1_555
O5 Y0 2.362473 1_564
O6 W0 1.860199 1_555
O6 Y1 2.362473 1_655
O7 W1 1.860199 1_555
O7 Y0 2.362473 1_455
O8 W1 2.037363 1_556
O8 W0 2.098173 1_555
O8 Y0 2.347525 1_555
O9 W0 2.037363 1_554
O9 W1 2.098173 1_555
O9 Y1 2.347525 1_555
O10 W3 2.037363 1_555
O10 W2 2.098173 1_555
O10 Y0 2.347525 1_555
O11 W2 2.037363 1_555
O11 W3 2.098173 1_555
O11 Y1 2.347525 1_555
O12 W0 1.843078 1_555
O12 Y0 2.295838 1_565
O13 W1 1.843078 1_555
O13 Y1 2.295838 1_545
O14 W2 1.843078 1_555
O14 Y0 2.295838 1_455
O15 W3 1.843078 1_555
O15 Y1 2.295838 1_655
