# generated using pymatgen
data_Sr2Ge2Se5
_symmetry_space_group_name_H-M   'P 1'
_cell_length_a   12.39348995
_cell_length_b   8.52535437
_cell_length_c   12.20324559
_cell_angle_alpha   49.38111078
_cell_angle_beta   90.00000000
_cell_angle_gamma   90.00000000
_symmetry_Int_Tables_number   1
_chemical_formula_structural   Sr2Ge2Se5
_chemical_formula_sum   'Sr8 Ge8 Se20'
_cell_volume   978.71363739
_cell_formula_units_Z   4
loop_
 _symmetry_equiv_pos_site_id
 _symmetry_equiv_pos_as_xyz
  1  'x, y, z'
loop_
 _atom_site_type_symbol
 _atom_site_label
 _atom_site_symmetry_multiplicity
 _atom_site_fract_x
 _atom_site_fract_y
 _atom_site_fract_z
 _atom_site_occupancy
  Sr  Sr0  1  0.19771961  0.53724130  0.52273893  1
  Sr  Sr1  1  0.69771961  0.46275870  0.97726107  1
  Sr  Sr2  1  0.80228039  0.46275870  0.47726107  1
  Sr  Sr3  1  0.30228039  0.53724130  0.02273893  1
  Sr  Sr4  1  0.33788930  0.01267890  0.53280998  1
  Sr  Sr5  1  0.83788930  0.98732110  0.96719002  1
  Sr  Sr6  1  0.66211070  0.98732110  0.46719002  1
  Sr  Sr7  1  0.16211070  0.01267890  0.03280998  1
  Ge  Ge0  1  0.98122744  0.51386018  0.18873025  1
  Ge  Ge1  1  0.01877256  0.48613982  0.81126975  1
  Ge  Ge2  1  0.51877256  0.51386018  0.68873025  1
  Ge  Ge3  1  0.48122744  0.48613982  0.31126975  1
  Ge  Ge4  1  0.44944310  0.15890669  0.83761581  1
  Ge  Ge5  1  0.94944310  0.84109331  0.66238419  1
  Ge  Ge6  1  0.55055690  0.84109331  0.16238419  1
  Ge  Ge7  1  0.05055690  0.15890669  0.33761581  1
  Se  Se0  1  0.41070963  0.09596710  0.06005124  1
  Se  Se1  1  0.91070963  0.90403290  0.43994876  1
  Se  Se2  1  0.58929037  0.90403290  0.93994876  1
  Se  Se3  1  0.08929037  0.09596710  0.56005124  1
  Se  Se4  1  0.20373712  0.06409655  0.28059988  1
  Se  Se5  1  0.29626288  0.06409655  0.78059988  1
  Se  Se6  1  0.70373712  0.93590345  0.21940012  1
  Se  Se7  1  0.79626288  0.93590345  0.71940012  1
  Se  Se8  1  0.44155734  0.74541572  0.46053087  1
  Se  Se9  1  0.94155734  0.25458428  0.03946913  1
  Se  Se10  1  0.55844266  0.25458428  0.53946913  1
  Se  Se11  1  0.05844266  0.74541572  0.96053087  1
  Se  Se12  1  0.50879919  0.32568171  0.21242476  1
  Se  Se13  1  0.00879919  0.67431829  0.28757524  1
  Se  Se14  1  0.49120081  0.67431829  0.78757524  1
  Se  Se15  1  0.99120081  0.32568171  0.71242476  1
  Se  Se16  1  0.21032593  0.51870854  0.79534088  1
  Se  Se17  1  0.71032593  0.48129146  0.70465912  1
  Se  Se18  1  0.78967407  0.48129146  0.20465912  1
  Se  Se19  1  0.28967407  0.51870854  0.29534088  1
loop_
_geom_bond_atom_site_label_1
_geom_bond_atom_site_label_2
_geom_bond_distance
_geom_bond_site_symmetry_2
Ge0 Se11 2.325920 1_654
Ge0 Se13 2.364647 1_655
Ge0 Se18 2.383391 1_555
Ge0 Ge7 2.457211 1_655
Ge0 Sr5 3.542437 1_554
Ge1 Se9 2.325920 1_456
Ge1 Se15 2.364647 1_455
Ge1 Se16 2.383391 1_555
Ge1 Ge5 2.457211 1_455
Ge1 Sr7 3.542437 1_556
Ge2 Se8 2.325920 1_555
Ge2 Se14 2.364647 1_555
Ge2 Se17 2.383391 1_555
Ge2 Ge4 2.457211 1_555
Ge2 Sr6 3.542437 1_555
Ge3 Se10 2.325920 1_555
Ge3 Se12 2.364647 1_555
Ge3 Se19 2.383391 1_555
Ge3 Ge6 2.457211 1_555
Ge3 Sr4 3.542437 1_555
Ge4 Se5 2.339609 1_555
Ge4 Se2 2.398292 1_545
Ge4 Se0 2.447459 1_556
Ge5 Se7 2.339609 1_555
Ge5 Se3 2.398292 1_665
Ge5 Se1 2.447459 1_555
Ge6 Se6 2.339609 1_555
Ge6 Se0 2.398292 1_565
Ge6 Se2 2.447459 1_554
Ge7 Se4 2.339609 1_555
Ge7 Se1 2.398292 1_445
Ge7 Se3 2.447459 1_555
Se0 Sr7 3.227174 1_555
Se0 Sr3 3.733041 1_555
Se1 Sr6 3.227174 1_555
Se1 Sr2 3.733041 1_555
Se2 Sr5 3.227174 1_555
Se2 Sr1 3.733041 1_555
Se3 Sr4 3.227174 1_555
Se3 Sr0 3.733041 1_555
Se4 Sr4 3.266881 1_555
Se4 Sr3 3.337284 1_555
Se4 Sr7 3.365680 1_555
Se4 Sr0 3.410354 1_545
Se5 Sr7 3.266881 1_556
Se5 Sr0 3.337284 1_555
Se5 Sr4 3.365680 1_555
Se5 Sr3 3.410354 1_546
Se6 Sr5 3.266881 1_554
Se6 Sr2 3.337284 1_555
Se6 Sr6 3.365680 1_555
Se6 Sr1 3.410354 1_564
Se7 Sr6 3.266881 1_555
Se7 Sr1 3.337284 1_555
Se7 Sr5 3.365680 1_555
Se7 Sr2 3.410354 1_565
Se8 Sr4 3.199551 1_565
Se8 Sr0 3.332314 1_555
Se8 Sr6 3.456824 1_555
Se9 Sr5 3.199551 1_544
Se9 Sr1 3.332314 1_554
Se9 Sr7 3.456824 1_655
Se10 Sr6 3.199551 1_545
Se10 Sr2 3.332314 1_555
Se10 Sr4 3.456824 1_555
Se11 Sr7 3.199551 1_566
Se11 Sr3 3.332314 1_556
Se11 Sr5 3.456824 1_455
Se12 Sr3 3.118687 1_555
Se12 Sr6 3.149598 1_545
Se12 Sr1 3.273626 1_554
Se12 Sr4 3.648168 1_555
Se13 Sr2 3.118687 1_455
Se13 Sr7 3.149598 1_565
Se13 Sr0 3.273626 1_555
Se13 Sr5 3.648168 1_454
Se14 Sr1 3.118687 1_555
Se14 Sr4 3.149598 1_565
Se14 Sr3 3.273626 1_556
Se14 Sr6 3.648168 1_555
Se15 Sr0 3.118687 1_655
Se15 Sr5 3.149598 1_545
Se15 Sr2 3.273626 1_555
Se15 Sr7 3.648168 1_656
Se16 Sr3 3.097613 1_556
Se16 Sr0 3.229779 1_555
Se16 Sr7 3.329906 1_556
Se16 Sr4 3.595992 1_565
Se17 Sr2 3.097613 1_555
Se17 Sr1 3.229779 1_555
Se17 Sr6 3.329906 1_555
Se17 Sr5 3.595992 1_545
Se18 Sr1 3.097613 1_554
Se18 Sr2 3.229779 1_555
Se18 Sr5 3.329906 1_554
Se18 Sr6 3.595992 1_545
Se19 Sr0 3.097613 1_555
Se19 Sr3 3.229779 1_555
Se19 Sr4 3.329906 1_555
Se19 Sr7 3.595992 1_565
