# generated using pymatgen
data_Mg2Ti3CrS8
_symmetry_space_group_name_H-M   'P 1'
_cell_length_a   7.24693644
_cell_length_b   7.38734242
_cell_length_c   7.24548148
_cell_angle_alpha   60.53793553
_cell_angle_beta   59.96970400
_cell_angle_gamma   60.55355901
_symmetry_Int_Tables_number   1
_chemical_formula_structural   Mg2Ti3CrS8
_chemical_formula_sum   'Mg2 Ti3 Cr1 S8'
_cell_volume   276.45690049
_cell_formula_units_Z   1
loop_
 _symmetry_equiv_pos_site_id
 _symmetry_equiv_pos_as_xyz
  1  'x, y, z'
loop_
 _atom_site_type_symbol
 _atom_site_label
 _atom_site_symmetry_multiplicity
 _atom_site_fract_x
 _atom_site_fract_y
 _atom_site_fract_z
 _atom_site_occupancy
  Mg  Mg0  1  0.87432300  0.87679300  0.87469500  1
  Mg  Mg1  1  0.12577800  0.12300600  0.12542400  1
  Ti  Ti0  1  0.50006000  0.50008400  0.49991500  1
  Ti  Ti1  1  0.49997100  0.49992100  0.99995500  1
  Ti  Ti2  1  0.99996600  0.49996800  0.49990500  1
  Cr  Cr0  1  0.49972400  0.00028200  0.49970000  1
  S  S0  1  0.73667800  0.74257200  0.73672800  1
  S  S1  1  0.26302500  0.25733400  0.71641100  1
  S  S2  1  0.25893500  0.72337100  0.25877400  1
  S  S3  1  0.71596500  0.25738000  0.26319800  1
  S  S4  1  0.74109900  0.27650300  0.74117900  1
  S  S5  1  0.28424600  0.74267200  0.73666400  1
  S  S6  1  0.26352200  0.25725700  0.26346500  1
  S  S7  1  0.73671200  0.74285100  0.28398700  1
loop_
_geom_bond_atom_site_label_1
_geom_bond_atom_site_label_2
_geom_bond_distance
_geom_bond_site_symmetry_2
Mg0 S7 2.427247 1_556
Mg0 S4 2.430821 1_565
Mg0 S5 2.431858 1_655
Mg0 S0 2.433715 1_555
Mg1 S1 2.425626 1_554
Mg1 S2 2.430366 1_545
Mg1 S3 2.431225 1_455
Mg1 S6 2.434918 1_555
Cr0 S6 2.450469 1_555
Cr0 S5 2.456034 1_545
Cr0 S7 2.456581 1_545
Cr0 S3 2.456918 1_555
Cr0 S0 2.458414 1_545
Cr0 S1 2.459332 1_555
S0 Ti1 2.485752 1_555
S0 Ti2 2.486518 1_555
S1 Ti2 2.485050 1_455
S1 Ti0 2.488337 1_555
S2 Ti0 2.492757 1_555
S2 Ti1 2.494797 1_554
S2 Ti2 2.495053 1_455
S3 Ti1 2.483419 1_554
S3 Ti0 2.486990 1_555
S4 Ti0 2.492892 1_555
S4 Ti1 2.494408 1_555
S4 Ti2 2.494829 1_555
S5 Ti1 2.482440 1_555
S5 Ti0 2.486562 1_555
S6 Ti1 2.484722 1_554
S6 Ti2 2.485359 1_455
S7 Ti2 2.483332 1_555
S7 Ti0 2.486696 1_555
