# generated using pymatgen
data_Sr2MnMoO6
_symmetry_space_group_name_H-M   'P 1'
_cell_length_a   5.62601657
_cell_length_b   5.62465778
_cell_length_c   8.26534191
_cell_angle_alpha   89.94821250
_cell_angle_beta   90.04487675
_cell_angle_gamma   89.89672844
_symmetry_Int_Tables_number   1
_chemical_formula_structural   Sr2MnMoO6
_chemical_formula_sum   'Sr4 Mn2 Mo2 O12'
_cell_volume   261.55132077
_cell_formula_units_Z   2
loop_
 _symmetry_equiv_pos_site_id
 _symmetry_equiv_pos_as_xyz
  1  'x, y, z'
loop_
 _atom_site_type_symbol
 _atom_site_label
 _atom_site_symmetry_multiplicity
 _atom_site_fract_x
 _atom_site_fract_y
 _atom_site_fract_z
 _atom_site_occupancy
  Sr  Sr0  1  0.50022700  0.00051600  0.25465400  1
  Sr  Sr1  1  0.00015600  0.50025000  0.74523800  1
  Sr  Sr2  1  0.99975200  0.49977400  0.25475600  1
  Sr  Sr3  1  0.49961800  0.99962900  0.74532300  1
  Mn  Mn0  1  0.50013200  0.50008400  0.49998800  1
  Mn  Mn1  1  0.99995500  0.99990400  0.00015300  1
  Mo  Mo0  1  0.49988700  0.49994600  0.99999900  1
  Mo  Mo1  1  0.99998600  0.00003100  0.49997700  1
  O  O0  1  0.99723800  0.00331400  0.26645000  1
  O  O1  1  0.49778300  0.50282900  0.76406400  1
  O  O2  1  0.50233300  0.49692400  0.23575400  1
  O  O3  1  0.00319100  0.99679600  0.73360200  1
  O  O4  1  0.20572400  0.31833400  0.99988200  1
  O  O5  1  0.70907000  0.78260900  0.49996500  1
  O  O6  1  0.79389200  0.68160200  0.00017500  1
  O  O7  1  0.29111200  0.21746900  0.50006800  1
  O  O8  1  0.68183600  0.20540600  0.99853100  1
  O  O9  1  0.21700100  0.70790800  0.49857700  1
  O  O10  1  0.31809000  0.79458000  0.00143200  1
  O  O11  1  0.78301800  0.29209600  0.50141300  1
loop_
_geom_bond_atom_site_label_1
_geom_bond_atom_site_label_2
_geom_bond_distance
_geom_bond_site_symmetry_2
Mn0 O11 1.973547 1_555
Mn0 O9 1.974112 1_555
Mn0 O5 1.978324 1_555
Mn0 O7 1.979006 1_555
Mn0 O1 2.182797 1_555
Mn0 O2 2.184117 1_555
Mn1 O10 2.128345 1_655
Mn1 O8 2.128824 1_564
Mn1 O4 2.134373 1_664
Mn1 O6 2.134668 1_555
Mn1 O0 2.201201 1_565
Mn1 O3 2.203310 1_654
Mo0 O6 1.945776 1_556
Mo0 O10 1.945907 1_556
Mo0 O8 1.945907 1_555
Mo0 O4 1.946402 1_555
Mo0 O2 1.948692 1_556
Mo0 O1 1.950163 1_555
Mo1 O0 1.930302 1_555
Mo1 O3 1.931130 1_645
Mo1 O5 2.044882 1_545
Mo1 O11 2.044914 1_555
Mo1 O9 2.045331 1_645
Mo1 O7 2.045883 1_655
O0 Sr2 2.794064 1_555
O0 Sr0 2.797888 1_555
O0 Sr0 2.831596 1_655
O0 Sr2 2.833986 1_545
O1 Sr3 2.798518 1_555
O1 Sr1 2.803921 1_555
O1 Sr1 2.830772 1_655
O1 Sr3 2.834704 1_545
O2 Sr0 2.796398 1_555
O2 Sr2 2.802844 1_555
O2 Sr2 2.832028 1_455
O2 Sr0 2.836982 1_565
O3 Sr1 2.794553 1_555
O3 Sr3 2.794585 1_555
O3 Sr1 2.833497 1_565
O3 Sr3 2.834858 1_455
O4 Sr1 2.608141 1_555
O4 Sr2 2.612588 1_456
O4 Sr0 3.217480 1_556
O4 Sr3 3.221151 1_545
O5 Sr0 2.642045 1_565
O5 Sr3 2.644671 1_555
O5 Sr1 3.048543 1_655
O5 Sr2 3.051980 1_555
O6 Sr2 2.608255 1_555
O6 Sr1 2.613544 1_654
O6 Sr3 3.217902 1_554
O6 Sr0 3.220712 1_565
O7 Sr3 2.640676 1_545
O7 Sr0 2.644009 1_555
O7 Sr2 3.049425 1_455
O7 Sr1 3.052433 1_555
O8 Sr3 2.603058 1_545
O8 Sr0 2.618535 1_556
O8 Sr1 3.217262 1_655
O8 Sr2 3.230573 1_556
O9 Sr2 2.632724 1_455
O9 Sr1 2.648349 1_555
O9 Sr0 3.053020 1_565
O9 Sr3 3.064334 1_555
O10 Sr0 2.603370 1_565
O10 Sr3 2.618657 1_554
O10 Sr2 3.217375 1_455
O10 Sr1 3.230351 1_554
O11 Sr1 2.632510 1_655
O11 Sr2 2.648084 1_555
O11 Sr3 3.053034 1_545
O11 Sr0 3.064488 1_555
