# generated using pymatgen
data_Ho2NiGe6
_symmetry_space_group_name_H-M   'P 1'
_cell_length_a   10.90216715
_cell_length_b   10.90216715
_cell_length_c   4.05492500
_cell_angle_alpha   90.00000000
_cell_angle_beta   90.00000000
_cell_angle_gamma   158.92214225
_symmetry_Int_Tables_number   1
_chemical_formula_structural   Ho2NiGe6
_chemical_formula_sum   'Ho2 Ni1 Ge6'
_cell_volume   173.32928388
_cell_formula_units_Z   1
loop_
 _symmetry_equiv_pos_site_id
 _symmetry_equiv_pos_as_xyz
  1  'x, y, z'
loop_
 _atom_site_type_symbol
 _atom_site_label
 _atom_site_symmetry_multiplicity
 _atom_site_fract_x
 _atom_site_fract_y
 _atom_site_fract_z
 _atom_site_occupancy
  Ho  Ho0  1  0.66115500  0.33884500  0.00000000  1
  Ho  Ho1  1  0.99738500  0.00261500  0.00000000  1
  Ni  Ni0  1  0.21849300  0.78150700  0.50000000  1
  Ge  Ge0  1  0.27558400  0.72441600  0.00000000  1
  Ge  Ge1  1  0.77644500  0.22355500  0.50000000  1
  Ge  Ge2  1  0.89375100  0.10624900  0.50000000  1
  Ge  Ge3  1  0.39241000  0.60759000  0.00000000  1
  Ge  Ge4  1  0.53570500  0.46429500  0.50000000  1
  Ge  Ge5  1  0.11107300  0.88892700  0.50000000  1
loop_
_geom_bond_atom_site_label_1
_geom_bond_atom_site_label_2
_geom_bond_distance
_geom_bond_site_symmetry_2
Ho0 Ni0 3.097995 1_654
Ho0 Ni0 3.097995 1_655
Ho0 Ni0 3.097995 1_544
Ho0 Ni0 3.097995 1_545
Ge0 Ni0 2.368200 1_554
Ge0 Ni0 2.368200 1_555
Ge0 Ge3 2.504342 1_555
Ge0 Ge1 2.843793 1_454
Ge0 Ge1 2.843793 1_565
Ge0 Ge1 2.843793 1_564
Ge0 Ge1 2.843793 1_455
Ge0 Ho0 3.161206 1_455
Ge0 Ho0 3.161206 1_565
Ge1 Ni0 2.349361 1_545
Ge1 Ni0 2.349361 1_655
Ge1 Ge2 2.514632 1_555
Ge1 Ho0 3.196639 1_556
Ge1 Ho0 3.196639 1_555
Ge2 Ge3 2.843879 1_656
Ge2 Ge3 2.843879 1_655
Ge2 Ge3 2.843879 1_545
Ge2 Ge3 2.843879 1_546
Ge2 Ho1 3.007640 1_556
Ge2 Ho1 3.007640 1_555
Ge3 Ho1 3.006669 1_455
Ge3 Ho1 3.006669 1_565
Ge4 Ge5 2.566411 1_655
Ge4 Ge5 2.566411 1_545
Ge4 Ho1 2.959999 1_565
Ge4 Ho1 2.959999 1_455
Ge4 Ho1 2.959999 1_566
Ge4 Ho1 2.959999 1_456
Ge4 Ho0 3.367857 1_556
Ge4 Ho0 3.367857 1_555
Ge5 Ni0 2.302710 1_555
Ge5 Ho0 3.039638 1_566
Ge5 Ho0 3.039638 1_456
Ge5 Ho0 3.039638 1_455
Ge5 Ho0 3.039638 1_565
Ge5 Ho1 3.170163 1_466
Ge5 Ho1 3.170163 1_465
