# generated using pymatgen
data_Ba2AlFe3O7
_symmetry_space_group_name_H-M   'P 1'
_cell_length_a   3.68197700
_cell_length_b   4.49308028
_cell_length_c   11.07459704
_cell_angle_alpha   87.03438270
_cell_angle_beta   87.52638517
_cell_angle_gamma   88.64668247
_symmetry_Int_Tables_number   1
_chemical_formula_structural   Ba2AlFe3O7
_chemical_formula_sum   'Ba2 Al1 Fe3 O7'
_cell_volume   182.75384706
_cell_formula_units_Z   1
loop_
 _symmetry_equiv_pos_site_id
 _symmetry_equiv_pos_as_xyz
  1  'x, y, z'
loop_
 _atom_site_type_symbol
 _atom_site_label
 _atom_site_symmetry_multiplicity
 _atom_site_fract_x
 _atom_site_fract_y
 _atom_site_fract_z
 _atom_site_occupancy
  Ba  Ba0  1  0.48530700  0.47858300  0.18316700  1
  Ba  Ba1  1  0.51444100  0.52185900  0.81659500  1
  Al  Al0  1  0.50600100  0.50122100  0.50124800  1
  Fe  Fe0  1  0.95930500  0.96010400  0.36519900  1
  Fe  Fe1  1  0.04453100  0.04051800  0.63245200  1
  Fe  Fe2  1  0.99961000  0.00034400  0.00034500  1
  O  O0  1  0.00026200  0.49973400  0.00147400  1
  O  O1  1  0.46083800  0.81887700  0.39279200  1
  O  O2  1  0.54024600  0.18288000  0.60714700  1
  O  O3  1  0.89602600  0.37498400  0.39514600  1
  O  O4  1  0.09631000  0.62193200  0.60016500  1
  O  O5  1  0.00069900  0.97387900  0.18114000  1
  O  O6  1  0.99642300  0.02508600  0.82313200  1
loop_
_geom_bond_atom_site_label_1
_geom_bond_atom_site_label_2
_geom_bond_distance
_geom_bond_site_symmetry_2
Ba0 O0 2.704127 1_655
Ba0 O0 2.744049 1_555
Ba0 O5 2.819120 1_555
Ba0 O1 2.842182 1_555
Ba0 O3 2.859171 1_555
Ba0 O5 2.920015 1_545
Ba0 O5 2.922721 1_645
Ba0 O5 2.957141 1_655
Ba0 O3 3.151263 1_455
Ba1 O0 2.727527 1_556
Ba1 O0 2.772796 1_656
Ba1 O6 2.818490 1_555
Ba1 O2 2.837033 1_555
Ba1 O6 2.912812 1_565
Ba1 O4 2.914053 1_555
Ba1 O6 2.925194 1_465
Ba1 O6 2.966077 1_455
Ba1 O4 3.166688 1_655
Al0 O2 1.807720 1_555
Al0 O1 1.826475 1_555
Al0 O3 1.910374 1_555
Al0 O4 1.910468 1_555
Fe0 O3 1.917261 1_565
Fe0 O1 1.962409 1_555
Fe0 O1 1.969613 1_655
Fe0 O5 2.035344 1_655
Fe1 O4 1.936014 1_545
Fe1 O2 1.952312 1_555
Fe1 O2 1.976241 1_455
Fe1 O6 2.109175 1_455
Fe2 O6 1.960484 1_554
Fe2 O5 1.999781 1_645
Fe2 O0 2.244540 1_655
Fe2 O0 2.248614 1_645
