# generated using pymatgen
data_Tl4GeS4
_symmetry_space_group_name_H-M   'P 1'
_cell_length_a   8.58827844
_cell_length_b   8.58827844
_cell_length_c   7.68665254
_cell_angle_alpha   73.07962147
_cell_angle_beta   73.07962147
_cell_angle_gamma   83.42582878
_symmetry_Int_Tables_number   1
_chemical_formula_structural   Tl4GeS4
_chemical_formula_sum   'Tl8 Ge2 S8'
_cell_volume   518.65692261
_cell_formula_units_Z   2
loop_
 _symmetry_equiv_pos_site_id
 _symmetry_equiv_pos_as_xyz
  1  'x, y, z'
loop_
 _atom_site_type_symbol
 _atom_site_label
 _atom_site_symmetry_multiplicity
 _atom_site_fract_x
 _atom_site_fract_y
 _atom_site_fract_z
 _atom_site_occupancy
  Tl  Tl0  1  0.20688065  0.20909560  0.91501805  1
  Tl  Tl1  1  0.20909560  0.20688065  0.41501805  1
  Tl  Tl2  1  0.02697428  0.59087597  0.94008263  1
  Tl  Tl3  1  0.59087597  0.02697428  0.44008263  1
  Tl  Tl4  1  0.74169321  0.00750591  0.91273334  1
  Tl  Tl5  1  0.00750591  0.74169321  0.41273334  1
  Tl  Tl6  1  0.63381306  0.40976527  0.99519200  1
  Tl  Tl7  1  0.40976527  0.63381306  0.49519200  1
  Ge  Ge0  1  0.79795154  0.37743932  0.46192529  1
  Ge  Ge1  1  0.37743932  0.79795154  0.96192529  1
  S  S0  1  0.20658176  0.91437034  0.79000317  1
  S  S1  1  0.91437034  0.20658176  0.29000317  1
  S  S2  1  0.62363783  0.75566163  0.77839691  1
  S  S3  1  0.75566163  0.62363783  0.27839691  1
  S  S4  1  0.56100525  0.27922796  0.65156771  1
  S  S5  1  0.27922796  0.56100525  0.15156771  1
  S  S6  1  0.95243789  0.39347954  0.64178090  1
  S  S7  1  0.39347954  0.95243789  0.14178090  1
loop_
_geom_bond_atom_site_label_1
_geom_bond_atom_site_label_2
_geom_bond_distance
_geom_bond_site_symmetry_2
Ge0 S6 2.216070 1_555
Ge0 S1 2.218768 1_555
Ge0 S4 2.219926 1_555
Ge0 S3 2.231354 1_555
Ge1 S7 2.216070 1_556
Ge1 S0 2.218768 1_555
Ge1 S5 2.219926 1_556
Ge1 S2 2.231354 1_555
S0 Tl0 2.957880 1_565
S0 Tl2 3.083635 1_555
S0 Tl1 3.221932 1_565
S1 Tl1 2.957880 1_655
S1 Tl3 3.083635 1_555
S1 Tl0 3.221932 1_654
S2 Tl6 2.958579 1_555
S2 Tl3 3.003309 1_565
S2 Tl4 3.030511 1_565
S3 Tl7 2.958579 1_555
S3 Tl2 3.003309 1_654
S3 Tl5 3.030511 1_655
S4 Tl3 3.013600 1_555
S4 Tl0 3.136520 1_555
S4 Tl4 3.184510 1_555
S4 Tl7 3.205936 1_555
S5 Tl2 3.013600 1_554
S5 Tl1 3.136520 1_555
S5 Tl5 3.184510 1_555
S5 Tl6 3.205936 1_554
S6 Tl5 3.006863 1_655
S6 Tl1 3.007625 1_655
S7 Tl4 3.006863 1_564
S7 Tl0 3.007625 1_564
