# generated using pymatgen
data_HfGeO2
_symmetry_space_group_name_H-M   'P 1'
_cell_length_a   7.02024245
_cell_length_b   7.02024245
_cell_length_c   7.02024245
_cell_angle_alpha   124.60156447
_cell_angle_beta   124.60156447
_cell_angle_gamma   82.19902446
_symmetry_Int_Tables_number   1
_chemical_formula_structural   HfGeO2
_chemical_formula_sum   'Hf4 Ge4 O8'
_cell_volume   225.33443367
_cell_formula_units_Z   4
loop_
 _symmetry_equiv_pos_site_id
 _symmetry_equiv_pos_as_xyz
  1  'x, y, z'
loop_
 _atom_site_type_symbol
 _atom_site_label
 _atom_site_symmetry_multiplicity
 _atom_site_fract_x
 _atom_site_fract_y
 _atom_site_fract_z
 _atom_site_occupancy
  Hf  Hf0  1  0.87500000  0.62500000  0.25000000  1
  Hf  Hf1  1  0.37500000  0.62500000  0.75000000  1
  Hf  Hf2  1  0.37500000  0.62500000  0.25000000  1
  Hf  Hf3  1  0.37500000  0.12500000  0.75000000  1
  Ge  Ge0  1  0.37500000  0.12500000  0.25000000  1
  Ge  Ge1  1  0.87500000  0.12500000  0.75000000  1
  Ge  Ge2  1  0.87500000  0.12500000  0.25000000  1
  Ge  Ge3  1  0.87500000  0.62500000  0.75000000  1
  O  O0  1  0.15806200  0.45768900  0.27467600  1
  O  O1  1  0.18301200  0.88338500  0.72532400  1
  O  O2  1  0.20768900  0.43301200  0.79962700  1
  O  O3  1  0.59193800  0.79231100  0.22532400  1
  O  O4  1  0.63338500  0.40806200  0.20037300  1
  O  O5  1  0.56698800  0.36661500  0.77467600  1
  O  O6  1  0.54231100  0.81698800  0.70037300  1
  O  O7  1  0.11661500  0.84193800  0.29962700  1
loop_
_geom_bond_atom_site_label_1
_geom_bond_atom_site_label_2
_geom_bond_distance
_geom_bond_site_symmetry_2
Hf0 O0 2.136572 1_655
Hf0 O3 2.136572 1_555
Hf0 O7 2.178383 1_655
Hf0 O4 2.178383 1_555
Hf0 O1 2.257503 1_655
Hf0 O5 2.257503 1_554
Hf1 O5 2.136570 1_555
Hf1 O1 2.136570 1_555
Hf1 O6 2.178383 1_555
Hf1 O2 2.178383 1_555
Hf1 O0 2.257505 1_555
Hf1 O3 2.257505 1_556
Hf2 O2 2.136572 1_554
Hf2 O6 2.136572 1_555
Hf2 O3 2.178378 1_555
Hf2 O0 2.178378 1_555
Hf2 O7 2.257499 1_555
Hf2 O4 2.257499 1_555
Hf3 O4 2.136572 1_556
Hf3 O7 2.136572 1_545
Hf3 O5 2.178388 1_555
Hf3 O1 2.178388 1_545
Hf3 O2 2.257499 1_555
Hf3 O6 2.257499 1_545
Ge0 O5 2.479391 1_555
Ge0 O1 2.479391 1_544
Ge0 O0 2.584332 1_555
Ge0 O3 2.584332 1_545
Ge1 O0 2.479393 1_656
Ge1 O3 2.479393 1_545
Ge1 O1 2.584330 1_645
Ge1 O5 2.584330 1_555
Ge2 O7 2.479396 1_645
Ge2 O4 2.479396 1_555
Ge2 O2 2.584332 1_655
Ge2 O6 2.584332 1_544
Ge3 O2 2.479396 1_655
Ge3 O6 2.479396 1_555
Ge3 O4 2.584332 1_555
Ge3 O7 2.584332 1_656
