# generated using pymatgen
data_CePr4O10
_symmetry_space_group_name_H-M   'P 1'
_cell_length_a   16.48300648
_cell_length_b   16.48300648
_cell_length_c   16.48300681
_cell_angle_alpha   14.01075520
_cell_angle_beta   14.01075520
_cell_angle_gamma   14.01075745
_symmetry_Int_Tables_number   1
_chemical_formula_structural   CePr4O10
_chemical_formula_sum   'Ce1 Pr4 O10'
_cell_volume   228.45602211
_cell_formula_units_Z   1
loop_
 _symmetry_equiv_pos_site_id
 _symmetry_equiv_pos_as_xyz
  1  'x, y, z'
loop_
 _atom_site_type_symbol
 _atom_site_label
 _atom_site_symmetry_multiplicity
 _atom_site_fract_x
 _atom_site_fract_y
 _atom_site_fract_z
 _atom_site_occupancy
  Ce  Ce0  1  0.00000000  0.00000000  0.00000000  1
  Pr  Pr0  1  0.60158700  0.60158700  0.60158700  1
  Pr  Pr1  1  0.20061500  0.20061500  0.20061500  1
  Pr  Pr2  1  0.79938500  0.79938500  0.79938500  1
  Pr  Pr3  1  0.39841300  0.39841300  0.39841300  1
  O  O0  1  0.04666700  0.04666700  0.04666700  1
  O  O1  1  0.85006100  0.85006100  0.85006100  1
  O  O2  1  0.44957300  0.44957300  0.44957300  1
  O  O3  1  0.65274700  0.65274700  0.65274700  1
  O  O4  1  0.25064400  0.25064400  0.25064400  1
  O  O5  1  0.34725300  0.34725300  0.34725300  1
  O  O6  1  0.14993900  0.14993900  0.14993900  1
  O  O7  1  0.74935600  0.74935600  0.74935600  1
  O  O8  1  0.95333300  0.95333300  0.95333300  1
  O  O9  1  0.55042700  0.55042700  0.55042700  1
loop_
_geom_bond_atom_site_label_1
_geom_bond_atom_site_label_2
_geom_bond_distance
_geom_bond_site_symmetry_2
Ce0 O0 2.284639 1_555
Ce0 O8 2.284639 1_444
Ce0 O5 2.419263 1_554
Ce0 O3 2.419263 1_445
Ce0 O5 2.419263 1_455
Ce0 O5 2.419263 1_545
Ce0 O3 2.419263 1_454
Ce0 O3 2.419263 1_544
O0 Pr3 2.490181 1_554
O0 Pr3 2.490181 1_455
O0 Pr3 2.490181 1_545
O1 Pr1 2.469656 1_665
O1 Pr1 2.469657 1_566
O1 Pr1 2.469657 1_656
O1 Pr2 2.480904 1_555
O2 Pr2 2.457493 1_554
O2 Pr2 2.457493 1_455
O2 Pr2 2.457493 1_545
O2 Pr3 2.504599 1_555
O3 Pr0 2.504599 1_555
O4 Pr1 2.449230 1_555
O4 Pr0 2.476222 1_554
O4 Pr0 2.476222 1_545
O4 Pr0 2.476222 1_455
O5 Pr3 2.504599 1_555
O6 Pr2 2.469656 1_445
O6 Pr2 2.469657 1_544
O6 Pr2 2.469657 1_454
O6 Pr1 2.480904 1_555
O7 Pr2 2.449230 1_555
O7 Pr3 2.476222 1_556
O7 Pr3 2.476222 1_565
O7 Pr3 2.476222 1_655
O8 Pr0 2.490181 1_556
O8 Pr0 2.490181 1_655
O8 Pr0 2.490181 1_565
O9 Pr1 2.457493 1_556
O9 Pr1 2.457493 1_655
O9 Pr1 2.457493 1_565
O9 Pr0 2.504599 1_555
