# generated using pymatgen
data_Ca3GeO
_symmetry_space_group_name_H-M   'P 1'
_cell_length_a   6.66971808
_cell_length_b   6.66971808
_cell_length_c   6.66971808
_cell_angle_alpha   120.08931702
_cell_angle_beta   119.79060003
_cell_angle_gamma   90.10422070
_symmetry_Int_Tables_number   1
_chemical_formula_structural   Ca3GeO
_chemical_formula_sum   'Ca6 Ge2 O2'
_cell_volume   209.98918596
_cell_formula_units_Z   2
loop_
 _symmetry_equiv_pos_site_id
 _symmetry_equiv_pos_as_xyz
  1  'x, y, z'
loop_
 _atom_site_type_symbol
 _atom_site_label
 _atom_site_symmetry_multiplicity
 _atom_site_fract_x
 _atom_site_fract_y
 _atom_site_fract_z
 _atom_site_occupancy
  Ca  Ca0  1  0.27205016  0.27205016  0.50000000  1
  Ca  Ca1  1  0.72794984  0.22794984  0.00000000  1
  Ca  Ca2  1  0.27205016  0.77205016  -0.00000000  1
  Ca  Ca3  1  0.72794984  0.72794984  0.50000000  1
  Ca  Ca4  1  0.79306911  0.25000000  0.54306911  1
  Ca  Ca5  1  0.20693089  0.75000000  0.45693089  1
  Ge  Ge0  1  0.25152951  0.25000000  0.00152951  1
  Ge  Ge1  1  0.74847049  0.75000000  0.99847049  1
  O  O0  1  0.00000000  0.50000000  0.50000000  1
  O  O1  1  0.50000000  0.00000000  0.50000000  1
loop_
_geom_bond_atom_site_label_1
_geom_bond_atom_site_label_2
_geom_bond_distance
_geom_bond_site_symmetry_2
Ca0 O0 2.369375 1_555
Ca0 O1 2.369375 1_555
Ca0 Ge1 3.186097 1_555
Ca0 Ge0 3.186097 1_555
Ca0 Ge0 3.489688 1_556
Ca0 Ge1 3.489688 1_444
Ca1 O0 2.369375 1_655
Ca1 O1 2.369375 1_554
Ca1 Ge1 3.186097 1_544
Ca1 Ge0 3.186097 1_555
Ca1 Ge1 3.489688 1_554
Ca1 Ge0 3.489688 1_655
Ca2 O0 2.369375 1_554
Ca2 O1 2.369375 1_565
Ca2 Ge0 3.186097 1_565
Ca2 Ge1 3.186097 1_554
Ca2 Ge1 3.489688 1_454
Ca2 Ge0 3.489688 1_555
Ca3 O0 2.369375 1_655
Ca3 O1 2.369375 1_565
Ca3 Ge1 3.186097 1_555
Ca3 Ge0 3.186097 1_555
Ca3 Ge1 3.489688 1_554
Ca3 Ge0 3.489688 1_666
Ca4 O0 2.373514 1_655
Ca4 O1 2.373514 1_555
Ca4 Ge0 3.067475 1_656
Ca4 Ge1 3.343698 1_544
Ca4 Ge1 3.343698 1_555
Ca4 Ge0 3.623342 1_555
Ca5 O0 2.373514 1_555
Ca5 O1 2.373514 1_565
Ca5 Ge1 3.067475 1_454
Ca5 Ge0 3.343698 1_555
Ca5 Ge0 3.343698 1_566
Ca5 Ge1 3.623342 1_555
