# generated using pymatgen
data_Mg14CdC
_symmetry_space_group_name_H-M   'P 1'
_cell_length_a   6.36074893
_cell_length_b   6.36074893
_cell_length_c   9.61843900
_cell_angle_alpha   90.00000000
_cell_angle_beta   90.00000000
_cell_angle_gamma   116.59568545
_symmetry_Int_Tables_number   1
_chemical_formula_structural   Mg14CdC
_chemical_formula_sum   'Mg14 Cd1 C1'
_cell_volume   347.97649993
_cell_formula_units_Z   1
loop_
 _symmetry_equiv_pos_site_id
 _symmetry_equiv_pos_as_xyz
  1  'x, y, z'
loop_
 _atom_site_type_symbol
 _atom_site_label
 _atom_site_symmetry_multiplicity
 _atom_site_fract_x
 _atom_site_fract_y
 _atom_site_fract_z
 _atom_site_occupancy
  Mg  Mg0  1  0.83912300  0.16087700  0.00000000  1
  Mg  Mg1  1  0.33815300  0.66184700  0.00000000  1
  Mg  Mg2  1  0.36735700  0.11599400  0.50000000  1
  Mg  Mg3  1  0.32401300  0.15942200  0.00000000  1
  Mg  Mg4  1  0.88400600  0.63264300  0.50000000  1
  Mg  Mg5  1  0.84057800  0.67598700  0.00000000  1
  Mg  Mg6  1  0.18086700  0.36693000  0.28866800  1
  Mg  Mg7  1  0.18086700  0.36693000  0.71133200  1
  Mg  Mg8  1  0.63307000  0.81913300  0.28866800  1
  Mg  Mg9  1  0.63307000  0.81913300  0.71133200  1
  Mg  Mg10  1  0.66207000  0.33793000  0.24483300  1
  Mg  Mg11  1  0.66207000  0.33793000  0.75516700  1
  Mg  Mg12  1  0.16673400  0.83326600  0.25897000  1
  Mg  Mg13  1  0.16673400  0.83326600  0.74103000  1
  Cd  Cd0  1  0.84815400  0.15184600  0.50000000  1
  C  C0  1  0.27314200  0.72685800  0.50000000  1
loop_
_geom_bond_atom_site_label_1
_geom_bond_atom_site_label_2
_geom_bond_distance
_geom_bond_site_symmetry_2
Mg0 Mg10 3.036088 1_555
Mg0 Mg11 3.036088 1_554
Mg0 Mg5 3.088418 1_545
Mg0 Mg3 3.088418 1_655
Mg0 Mg3 3.272353 1_555
Mg0 Mg5 3.272353 1_555
Mg0 Mg1 3.342613 1_655
Mg0 Mg1 3.342613 1_545
Mg0 Mg8 3.406048 1_545
Mg0 Mg9 3.406048 1_544
Mg0 Mg7 3.406048 1_654
Mg0 Mg6 3.406048 1_655
Mg1 Mg13 3.105922 1_554
Mg1 Mg12 3.105922 1_555
Mg1 Mg5 3.156558 1_555
Mg1 Mg3 3.156558 1_555
Mg1 Mg3 3.206224 1_565
Mg1 Mg5 3.206224 1_455
Mg1 Mg6 3.247865 1_555
Mg1 Mg7 3.247865 1_554
Mg1 Mg8 3.247865 1_555
Mg1 Mg9 3.247865 1_554
Mg3 Mg5 3.231857 1_445
Mg3 Mg6 3.369927 1_555
Mg3 Mg7 3.369927 1_554
Mg3 Mg5 3.453337 1_555
Mg5 Mg8 3.369927 1_555
Mg5 Mg9 3.369927 1_554
Mg10 Mg4 3.026730 1_555
Mg10 Mg2 3.026730 1_555
Mg10 Mg5 3.045078 1_555
Mg10 Mg3 3.045078 1_555
Mg10 Mg6 3.175830 1_555
Mg10 Mg8 3.175830 1_555
Mg10 Mg8 3.249054 1_545
Mg10 Mg6 3.249054 1_655
Mg10 Mg12 3.345742 1_655
Mg10 Mg12 3.345742 1_545
Mg11 Mg4 3.026730 1_555
Mg11 Mg2 3.026730 1_555
Mg11 Mg5 3.045078 1_556
Mg11 Mg3 3.045078 1_556
Mg11 Mg9 3.175830 1_555
Mg11 Mg7 3.175830 1_555
Mg11 Mg9 3.249054 1_545
Mg11 Mg7 3.249054 1_655
Mg11 Mg13 3.345742 1_655
Mg11 Mg13 3.345742 1_545
Mg12 Mg3 3.106601 1_565
Mg12 Mg5 3.106601 1_455
Mg13 Mg3 3.106601 1_566
Mg13 Mg5 3.106601 1_456
Cd0 Mg9 2.808883 1_545
Cd0 Mg8 2.808883 1_545
Cd0 Mg7 2.808883 1_655
Cd0 Mg6 2.808883 1_655
Cd0 Mg2 2.963160 1_555
Cd0 Mg4 2.963160 1_555
Cd0 Mg11 3.174906 1_555
Cd0 Mg10 3.174906 1_555
Cd0 Mg4 3.410715 1_545
Cd0 Mg2 3.410715 1_655
C0 Mg2 2.271031 1_565
C0 Mg4 2.271031 1_455
C0 Mg12 2.588640 1_555
C0 Mg13 2.588640 1_555
