# generated using pymatgen
data_Cu2NO6
_symmetry_space_group_name_H-M   'P 1'
_cell_length_a   5.45055324
_cell_length_b   5.84650900
_cell_length_c   7.46461605
_cell_angle_alpha   90.00000000
_cell_angle_beta   95.13342839
_cell_angle_gamma   90.00000000
_symmetry_Int_Tables_number   1
_chemical_formula_structural   Cu2NO6
_chemical_formula_sum   'Cu4 N2 O12'
_cell_volume   236.91864408
_cell_formula_units_Z   2
loop_
 _symmetry_equiv_pos_site_id
 _symmetry_equiv_pos_as_xyz
  1  'x, y, z'
loop_
 _atom_site_type_symbol
 _atom_site_label
 _atom_site_symmetry_multiplicity
 _atom_site_fract_x
 _atom_site_fract_y
 _atom_site_fract_z
 _atom_site_occupancy
  Cu  Cu0  1  0.00000000  0.50000000  0.00000000  1
  Cu  Cu1  1  0.00000000  0.00000000  0.00000000  1
  Cu  Cu2  1  0.50443100  0.25000000  0.99551800  1
  Cu  Cu3  1  0.49556900  0.75000000  0.00448200  1
  N  N0  1  0.22108500  0.25000000  0.40141600  1
  N  N1  1  0.77891500  0.75000000  0.59858400  1
  O  O0  1  0.89870200  0.25000000  0.87266000  1
  O  O1  1  0.10129800  0.75000000  0.12734000  1
  O  O2  1  0.30879500  0.49721000  0.90701100  1
  O  O3  1  0.69120500  0.99721000  0.09298900  1
  O  O4  1  0.69120500  0.50279000  0.09298900  1
  O  O5  1  0.30879500  0.00279000  0.90701100  1
  O  O6  1  0.18809800  0.25000000  0.22673200  1
  O  O7  1  0.81190200  0.75000000  0.77326800  1
  O  O8  1  0.23709900  0.43621100  0.47968700  1
  O  O9  1  0.76290100  0.93621100  0.52031300  1
  O  O10  1  0.76290100  0.56378900  0.52031300  1
  O  O11  1  0.23709900  0.06378900  0.47968700  1
loop_
_geom_bond_atom_site_label_1
_geom_bond_atom_site_label_2
_geom_bond_distance
_geom_bond_site_symmetry_2
Cu0 O0 1.803003 1_454
Cu0 O1 1.803003 1_555
Cu0 O2 1.877227 1_554
Cu0 O4 1.877227 1_455
Cu0 O6 2.396122 1_555
Cu0 O7 2.396122 1_454
Cu1 O1 1.803003 1_545
Cu1 O0 1.803003 1_454
Cu1 O5 1.877227 1_554
Cu1 O3 1.877227 1_445
Cu1 O6 2.396122 1_555
Cu1 O7 2.396122 1_444
Cu2 O5 1.880532 1_555
Cu2 O2 1.880532 1_555
Cu2 O4 1.901973 1_556
Cu2 O3 1.901973 1_546
Cu2 O0 2.410790 1_555
Cu2 O6 2.546403 1_556
Cu3 O4 1.880532 1_555
Cu3 O3 1.880532 1_555
Cu3 O2 1.901973 1_554
Cu3 O5 1.901973 1_564
Cu3 O1 2.410790 1_555
Cu3 O7 2.546403 1_554
N0 O8 1.234945 1_555
N0 O11 1.234945 1_555
N0 O6 1.300252 1_555
N1 O10 1.234945 1_555
N1 O9 1.234945 1_555
N1 O7 1.300252 1_555
