# generated using pymatgen
data_Pr7Si5Ni2
_symmetry_space_group_name_H-M   'P 1'
_cell_length_a   4.31036200
_cell_length_b   13.75131900
_cell_length_c   23.27570000
_cell_angle_alpha   90.00000000
_cell_angle_beta   90.00000000
_cell_angle_gamma   90.00000000
_symmetry_Int_Tables_number   1
_chemical_formula_structural   Pr7Si5Ni2
_chemical_formula_sum   'Pr28 Si20 Ni8'
_cell_volume   1379.62435695
_cell_formula_units_Z   4
loop_
 _symmetry_equiv_pos_site_id
 _symmetry_equiv_pos_as_xyz
  1  'x, y, z'
loop_
 _atom_site_type_symbol
 _atom_site_label
 _atom_site_symmetry_multiplicity
 _atom_site_fract_x
 _atom_site_fract_y
 _atom_site_fract_z
 _atom_site_occupancy
  Pr  Pr0  1  0.25000000  0.88347500  0.97946200  1
  Pr  Pr1  1  0.25000000  0.61652500  0.47946200  1
  Pr  Pr2  1  0.75000000  0.11652500  0.02053800  1
  Pr  Pr3  1  0.75000000  0.38347500  0.52053800  1
  Pr  Pr4  1  0.25000000  0.47397100  0.63321000  1
  Pr  Pr5  1  0.25000000  0.02602900  0.13321000  1
  Pr  Pr6  1  0.75000000  0.52602900  0.36679000  1
  Pr  Pr7  1  0.75000000  0.97397100  0.86679000  1
  Pr  Pr8  1  0.25000000  0.74912500  0.61828600  1
  Pr  Pr9  1  0.25000000  0.75087500  0.11828600  1
  Pr  Pr10  1  0.75000000  0.25087500  0.38171400  1
  Pr  Pr11  1  0.75000000  0.24912500  0.88171400  1
  Pr  Pr12  1  0.25000000  0.59984500  0.77539600  1
  Pr  Pr13  1  0.25000000  0.90015500  0.27539600  1
  Pr  Pr14  1  0.75000000  0.40015500  0.22460400  1
  Pr  Pr15  1  0.75000000  0.09984500  0.72460400  1
  Pr  Pr16  1  0.25000000  0.45679100  0.93187000  1
  Pr  Pr17  1  0.25000000  0.04320900  0.43187000  1
  Pr  Pr18  1  0.75000000  0.54320900  0.06813000  1
  Pr  Pr19  1  0.75000000  0.95679100  0.56813000  1
  Pr  Pr20  1  0.25000000  0.19009700  0.60349800  1
  Pr  Pr21  1  0.25000000  0.30990300  0.10349800  1
  Pr  Pr22  1  0.75000000  0.80990300  0.39650200  1
  Pr  Pr23  1  0.75000000  0.69009700  0.89650200  1
  Pr  Pr24  1  0.25000000  0.33449500  0.76220300  1
  Pr  Pr25  1  0.25000000  0.16550500  0.26220300  1
  Pr  Pr26  1  0.75000000  0.66550500  0.23779700  1
  Pr  Pr27  1  0.75000000  0.83449500  0.73779700  1
  Si  Si0  1  0.25000000  0.84127700  0.49562100  1
  Si  Si1  1  0.25000000  0.65872300  0.99562100  1
  Si  Si2  1  0.75000000  0.15872300  0.50437900  1
  Si  Si3  1  0.75000000  0.34127700  0.00437900  1
  Si  Si4  1  0.25000000  0.10490500  0.92718100  1
  Si  Si5  1  0.25000000  0.39509500  0.42718100  1
  Si  Si6  1  0.75000000  0.89509500  0.07281900  1
  Si  Si7  1  0.75000000  0.60490500  0.57281900  1
  Si  Si8  1  0.25000000  0.12124300  0.82029600  1
  Si  Si9  1  0.25000000  0.37875700  0.32029600  1
  Si  Si10  1  0.75000000  0.87875700  0.17970400  1
  Si  Si11  1  0.75000000  0.62124300  0.67970400  1
  Si  Si12  1  0.25000000  0.96594200  0.66684300  1
  Si  Si13  1  0.25000000  0.53405800  0.16684300  1
  Si  Si14  1  0.75000000  0.03405800  0.33315700  1
  Si  Si15  1  0.75000000  0.46594200  0.83315700  1
  Si  Si16  1  0.25000000  0.81855700  0.83587800  1
  Si  Si17  1  0.25000000  0.68144300  0.33587800  1
  Si  Si18  1  0.75000000  0.18144300  0.16412200  1
  Si  Si19  1  0.75000000  0.31855700  0.66412200  1
  Ni  Ni0  1  0.25000000  0.25600200  0.98028400  1
  Ni  Ni1  1  0.25000000  0.24399800  0.48028400  1
  Ni  Ni2  1  0.75000000  0.74399800  0.01971600  1
  Ni  Ni3  1  0.75000000  0.75600200  0.51971600  1
  Ni  Ni4  1  0.25000000  0.96718400  0.77198600  1
  Ni  Ni5  1  0.25000000  0.53281600  0.27198600  1
  Ni  Ni6  1  0.75000000  0.03281600  0.22801400  1
  Ni  Ni7  1  0.75000000  0.46718400  0.72801400  1
loop_
_geom_bond_atom_site_label_1
_geom_bond_atom_site_label_2
_geom_bond_distance
_geom_bond_site_symmetry_2
Pr0 Si6 3.064645 1_456
Pr0 Si6 3.064645 1_556
Pr0 Si1 3.113438 1_555
Pr0 Si4 3.279106 1_565
Pr0 Si16 3.459193 1_555
Pr1 Si7 3.064645 1_555
Pr1 Si7 3.064645 1_455
Pr1 Si0 3.113438 1_555
Pr1 Si5 3.279106 1_555
Pr1 Si17 3.459193 1_555
Pr2 Si4 3.064645 1_554
Pr2 Si4 3.064645 1_654
Pr2 Si3 3.113438 1_555
Pr2 Si6 3.279106 1_545
Pr2 Si18 3.459193 1_555
Pr3 Si5 3.064645 1_655
Pr3 Si5 3.064645 1_555
Pr3 Si2 3.113438 1_555
Pr3 Si7 3.279106 1_555
Pr3 Si19 3.459193 1_555
Pr4 Si19 3.119276 1_555
Pr4 Si19 3.119276 1_455
Pr4 Si7 3.140460 1_555
Pr4 Si7 3.140460 1_455
Pr4 Si11 3.149173 1_455
Pr4 Si11 3.149173 1_555
Pr5 Si18 3.119276 1_455
Pr5 Si18 3.119276 1_555
Pr5 Si6 3.140460 1_445
Pr5 Si6 3.140460 1_545
Pr5 Si10 3.149173 1_545
Pr5 Si10 3.149173 1_445
Pr6 Si17 3.119276 1_655
Pr6 Si17 3.119276 1_555
Pr6 Si5 3.140460 1_655
Pr6 Si5 3.140460 1_555
Pr6 Si9 3.149173 1_655
Pr6 Si9 3.149173 1_555
Pr7 Si16 3.119276 1_555
Pr7 Si16 3.119276 1_655
Pr7 Si4 3.140460 1_665
Pr7 Si4 3.140460 1_565
Pr7 Si8 3.149173 1_665
Pr7 Si8 3.149173 1_565
Pr8 Si7 3.114145 1_555
Pr8 Si7 3.114145 1_455
Pr8 Si0 3.123700 1_555
Pr8 Si11 3.127442 1_555
Pr8 Si11 3.127442 1_455
Pr8 Si12 3.188543 1_555
Pr9 Si6 3.114145 1_455
Pr9 Si6 3.114145 1_555
Pr9 Si1 3.123700 1_554
Pr9 Si10 3.127442 1_455
Pr9 Si10 3.127442 1_555
Pr9 Si13 3.188543 1_555
Pr10 Si5 3.114145 1_655
Pr10 Si5 3.114145 1_555
Pr10 Si2 3.123700 1_555
Pr10 Si9 3.127442 1_655
Pr10 Si9 3.127442 1_555
Pr10 Si14 3.188543 1_555
Pr11 Si4 3.114145 1_555
Pr11 Si4 3.114145 1_655
Pr11 Si3 3.123700 1_556
Pr11 Si8 3.127442 1_555
Pr11 Si8 3.127442 1_655
Pr11 Si15 3.188543 1_555
Pr12 Si11 3.113237 1_555
Pr12 Si11 3.113237 1_455
Pr12 Si15 3.137329 1_455
Pr12 Si15 3.137329 1_555
Pr12 Si16 3.320741 1_555
Pr13 Si10 3.113237 1_455
Pr13 Si10 3.113237 1_555
Pr13 Si14 3.137329 1_465
Pr13 Si14 3.137329 1_565
Pr13 Si17 3.320741 1_555
Pr14 Si9 3.113237 1_655
Pr14 Si9 3.113237 1_555
Pr14 Si13 3.137329 1_555
Pr14 Si13 3.137329 1_655
Pr14 Si18 3.320741 1_555
Pr15 Si8 3.113237 1_655
Pr15 Si8 3.113237 1_555
Pr15 Si12 3.137329 1_545
Pr15 Si12 3.137329 1_645
Pr15 Si19 3.320741 1_555
Pr16 Si1 3.148428 1_555
Pr16 Si15 3.152724 1_455
Pr16 Si15 3.152724 1_555
Pr16 Si3 3.164864 1_456
Pr16 Si3 3.164864 1_556
Pr17 Si0 3.148428 1_545
Pr17 Si14 3.152724 1_555
Pr17 Si14 3.152724 1_455
Pr17 Si2 3.164864 1_555
Pr17 Si2 3.164864 1_455
Pr18 Si3 3.148428 1_555
Pr18 Si13 3.152724 1_655
Pr18 Si13 3.152724 1_555
Pr18 Si1 3.164864 1_554
Pr18 Si1 3.164864 1_654
Pr19 Si2 3.148428 1_565
Pr19 Si12 3.152724 1_655
Pr19 Si12 3.152724 1_555
Pr19 Si0 3.164864 1_655
Pr19 Si0 3.164864 1_555
Pr20 Si19 3.123526 1_555
Pr20 Si19 3.123526 1_455
Pr20 Si2 3.186453 1_555
Pr20 Si2 3.186453 1_455
Pr20 Si12 3.416900 1_545
Pr21 Si18 3.123526 1_455
Pr21 Si18 3.123526 1_555
Pr21 Si3 3.186453 1_455
Pr21 Si3 3.186453 1_555
Pr21 Si13 3.416900 1_555
Pr22 Si17 3.123526 1_655
Pr22 Si17 3.123526 1_555
Pr22 Si0 3.186453 1_555
Pr22 Si0 3.186453 1_655
Pr22 Si14 3.416900 1_565
Pr23 Si16 3.123526 1_655
Pr23 Si16 3.123526 1_555
Pr23 Si1 3.186453 1_655
Pr23 Si1 3.186453 1_555
Pr23 Si15 3.416900 1_555
Pr24 Si19 3.147140 1_555
Pr24 Si19 3.147140 1_455
Pr24 Si8 3.229219 1_555
Pr24 Si15 3.261837 1_455
Pr24 Si15 3.261837 1_555
Pr25 Si18 3.147140 1_555
Pr25 Si18 3.147140 1_455
Pr25 Si9 3.229219 1_555
Pr25 Si14 3.261837 1_455
Pr25 Si14 3.261837 1_555
Pr26 Si17 3.147140 1_655
Pr26 Si17 3.147140 1_555
Pr26 Si10 3.229219 1_555
Pr26 Si13 3.261837 1_555
Pr26 Si13 3.261837 1_655
Pr27 Si16 3.147140 1_555
Pr27 Si16 3.147140 1_655
Pr27 Si11 3.229219 1_555
Pr27 Si12 3.261837 1_555
Pr27 Si12 3.261837 1_655
Si4 Si8 2.497947 1_555
Si5 Si9 2.497947 1_555
Si10 Si6 2.497947 1_555
Si11 Si7 2.497947 1_555
Ni0 Si4 2.417623 1_555
Ni0 Si3 2.516829 1_456
Ni0 Si3 2.516829 1_556
Ni0 Pr21 2.962127 1_556
Ni0 Pr16 2.982211 1_555
Ni0 Pr2 3.033374 1_456
Ni0 Pr2 3.033374 1_556
Ni0 Pr11 3.149206 1_555
Ni0 Pr11 3.149206 1_455
Ni1 Si5 2.417623 1_555
Ni1 Si2 2.516829 1_455
Ni1 Si2 2.516829 1_555
Ni1 Pr20 2.962127 1_555
Ni1 Pr17 2.982211 1_555
Ni1 Pr3 3.033374 1_455
Ni1 Pr3 3.033374 1_555
Ni1 Pr10 3.149206 1_555
Ni1 Pr10 3.149206 1_455
Ni2 Si6 2.417623 1_555
Ni2 Si1 2.516829 1_654
Ni2 Si1 2.516829 1_554
Ni2 Pr23 2.962127 1_554
Ni2 Pr18 2.982211 1_555
Ni2 Pr0 3.033374 1_554
Ni2 Pr0 3.033374 1_654
Ni2 Pr9 3.149206 1_655
Ni2 Pr9 3.149206 1_555
Ni3 Si7 2.417623 1_555
Ni3 Si0 2.516829 1_555
Ni3 Si0 2.516829 1_655
Ni3 Pr22 2.962127 1_555
Ni3 Pr19 2.982211 1_555
Ni3 Pr1 3.033374 1_655
Ni3 Pr1 3.033374 1_555
Ni3 Pr8 3.149206 1_655
Ni3 Pr8 3.149206 1_555
Ni4 Si8 2.398435 1_565
Ni4 Si12 2.447337 1_555
Ni4 Si16 2.527597 1_555
Ni4 Pr27 2.933838 1_555
Ni4 Pr27 2.933838 1_455
Ni4 Pr15 3.031340 1_465
Ni4 Pr15 3.031340 1_565
Ni4 Pr7 3.085892 1_555
Ni4 Pr7 3.085892 1_455
Ni5 Si9 2.398435 1_555
Ni5 Si13 2.447337 1_555
Ni5 Si17 2.527597 1_555
Ni5 Pr26 2.933838 1_455
Ni5 Pr26 2.933838 1_555
Ni5 Pr14 3.031340 1_455
Ni5 Pr14 3.031340 1_555
Ni5 Pr6 3.085892 1_555
Ni5 Pr6 3.085892 1_455
Ni6 Si10 2.398435 1_545
Ni6 Si14 2.447337 1_555
Ni6 Si18 2.527597 1_555
Ni6 Pr25 2.933838 1_655
Ni6 Pr25 2.933838 1_555
Ni6 Pr13 3.031340 1_645
Ni6 Pr13 3.031340 1_545
Ni6 Pr5 3.085892 1_555
Ni6 Pr5 3.085892 1_655
Ni7 Si11 2.398435 1_555
Ni7 Si15 2.447337 1_555
Ni7 Si19 2.527597 1_555
Ni7 Pr24 2.933838 1_555
Ni7 Pr24 2.933838 1_655
Ni7 Pr12 3.031340 1_655
Ni7 Pr12 3.031340 1_555
Ni7 Pr4 3.085892 1_655
Ni7 Pr4 3.085892 1_555
