# generated using pymatgen
data_Fe3P3H12C2N2O13F2
_symmetry_space_group_name_H-M   'P 1'
_cell_length_a   10.45981300
_cell_length_b   8.95602200
_cell_length_c   18.93820003
_cell_angle_alpha   65.33645319
_cell_angle_beta   90.00000000
_cell_angle_gamma   90.00000000
_symmetry_Int_Tables_number   1
_chemical_formula_structural   Fe3P3H12C2N2O13F2
_chemical_formula_sum   'Fe12 P12 H48 C8 N8 O52 F8'
_cell_volume   1612.25448704
_cell_formula_units_Z   4
loop_
 _symmetry_equiv_pos_site_id
 _symmetry_equiv_pos_as_xyz
  1  'x, y, z'
loop_
 _atom_site_type_symbol
 _atom_site_label
 _atom_site_symmetry_multiplicity
 _atom_site_fract_x
 _atom_site_fract_y
 _atom_site_fract_z
 _atom_site_occupancy
  Fe  Fe0  1  0.68406200  0.42904300  0.80082900  1
  Fe  Fe1  1  0.81593800  0.42904300  0.30082900  1
  Fe  Fe2  1  0.31593800  0.57095700  0.19917100  1
  Fe  Fe3  1  0.18406200  0.57095700  0.69917100  1
  Fe  Fe4  1  0.84696200  0.80225400  0.76866600  1
  Fe  Fe5  1  0.65303800  0.80225400  0.26866600  1
  Fe  Fe6  1  0.15303800  0.19774600  0.23133400  1
  Fe  Fe7  1  0.34696200  0.19774600  0.73133400  1
  Fe  Fe8  1  0.65208700  0.49308300  0.59669100  1
  Fe  Fe9  1  0.84791300  0.49308300  0.09669100  1
  Fe  Fe10  1  0.34791300  0.50691700  0.40330900  1
  Fe  Fe11  1  0.15208700  0.50691700  0.90330900  1
  P  P0  1  0.65892700  0.13459000  0.74255200  1
  P  P1  1  0.84107300  0.13459000  0.24255200  1
  P  P2  1  0.34107300  0.86541000  0.25744800  1
  P  P3  1  0.15892700  0.86541000  0.75744800  1
  P  P4  1  0.88196000  0.62512900  0.66078000  1
  P  P5  1  0.61804000  0.62512900  0.16078000  1
  P  P6  1  0.11804000  0.37487100  0.33922000  1
  P  P7  1  0.38196000  0.37487100  0.83922000  1
  P  P8  1  0.86718600  0.46645600  0.93004500  1
  P  P9  1  0.63281400  0.46645600  0.43004500  1
  P  P10  1  0.13281400  0.53354400  0.06995500  1
  P  P11  1  0.36718600  0.53354400  0.56995500  1
  H  H0  1  0.56447700  0.09725600  0.04802500  1
  H  H1  1  0.93552300  0.09725600  0.54802500  1
  H  H2  1  0.43552300  0.90274400  0.95197500  1
  H  H3  1  0.06447700  0.90274400  0.45197500  1
  H  H4  1  0.61141200  0.28448200  0.98659800  1
  H  H5  1  0.88858800  0.28448200  0.48659800  1
  H  H6  1  0.38858800  0.71551800  0.01340200  1
  H  H7  1  0.11141200  0.71551800  0.51340200  1
  H  H8  1  0.68040000  0.19653500  0.07341800  1
  H  H9  1  0.81960000  0.19653500  0.57341800  1
  H  H10  1  0.31960000  0.80346500  0.92658200  1
  H  H11  1  0.18040000  0.80346500  0.42658200  1
  H  H12  1  0.37853000  0.82106400  0.67647000  1
  H  H13  1  0.12147000  0.82106400  0.17647000  1
  H  H14  1  0.62147000  0.17893600  0.32353000  1
  H  H15  1  0.87853000  0.17893600  0.82353000  1
  H  H16  1  0.51763600  0.72057800  0.69508000  1
  H  H17  1  0.98236400  0.72057800  0.19508000  1
  H  H18  1  0.48236400  0.27942200  0.30492000  1
  H  H19  1  0.01763600  0.27942200  0.80492000  1
  H  H20  1  0.49695300  0.88266800  0.71745800  1
  H  H21  1  0.00304700  0.88266800  0.21745800  1
  H  H22  1  0.50304700  0.11733200  0.28254200  1
  H  H23  1  0.99695300  0.11733200  0.78254200  1
  H  H24  1  0.46550500  0.60702300  0.91984300  1
  H  H25  1  0.03449500  0.60702300  0.41984300  1
  H  H26  1  0.53449500  0.39297700  0.08015700  1
  H  H27  1  0.96550500  0.39297700  0.58015700  1
  H  H28  1  0.52199700  0.80978300  0.86110600  1
  H  H29  1  0.97800300  0.80978300  0.36110600  1
  H  H30  1  0.47800300  0.19021700  0.13889400  1
  H  H31  1  0.02199700  0.19021700  0.63889400  1
  H  H32  1  0.59095200  0.69576800  0.95500600  1
  H  H33  1  0.90904800  0.69576800  0.45500600  1
  H  H34  1  0.40904800  0.30423200  0.04499400  1
  H  H35  1  0.09095200  0.30423200  0.54499400  1
  H  H36  1  0.46998000  0.06301200  0.57839600  1
  H  H37  1  0.03002000  0.06301200  0.07839600  1
  H  H38  1  0.53002000  0.93698800  0.42160400  1
  H  H39  1  0.96998000  0.93698800  0.92160400  1
  H  H40  1  0.62643100  0.97863500  0.60688400  1
  H  H41  1  0.87356900  0.97863500  0.10688400  1
  H  H42  1  0.37356900  0.02136500  0.39311600  1
  H  H43  1  0.12643100  0.02136500  0.89311600  1
  H  H44  1  0.52138700  0.88887000  0.56094700  1
  H  H45  1  0.97861300  0.88887000  0.06094700  1
  H  H46  1  0.47861300  0.11113000  0.43905300  1
  H  H47  1  0.02138700  0.11113000  0.93905300  1
  C  C0  1  0.50338400  0.72013800  0.92047200  1
  C  C1  1  0.99661600  0.72013800  0.42047200  1
  C  C2  1  0.49661600  0.27986200  0.07952800  1
  C  C3  1  0.00338400  0.27986200  0.57952800  1
  C  C4  1  0.52678800  0.95025200  0.60002200  1
  C  C5  1  0.97321200  0.95025200  0.10002200  1
  C  C6  1  0.47321200  0.04974800  0.39997800  1
  C  C7  1  0.02678800  0.04974800  0.89997800  1
  N  N0  1  0.59457400  0.20973500  0.04462200  1
  N  N1  1  0.90542600  0.20973500  0.54462200  1
  N  N2  1  0.40542600  0.79026500  0.95537800  1
  N  N3  1  0.09457400  0.79026500  0.45537800  1
  N  N4  1  0.47686000  0.83572600  0.67714100  1
  N  N5  1  0.02314000  0.83572600  0.17714100  1
  N  N6  1  0.52314000  0.16427400  0.32285900  1
  N  N7  1  0.97686000  0.16427400  0.82285900  1
  O  O0  1  0.68837100  0.20054300  0.80481900  1
  O  O1  1  0.81162900  0.20054300  0.30481900  1
  O  O2  1  0.31162900  0.79945700  0.19518100  1
  O  O3  1  0.18837100  0.79945700  0.69518100  1
  O  O4  1  0.86474100  0.78923000  0.66986800  1
  O  O5  1  0.63525900  0.78923000  0.16986800  1
  O  O6  1  0.13525900  0.21077000  0.33013200  1
  O  O7  1  0.36474100  0.21077000  0.83013200  1
  O  O8  1  0.84409800  0.47831300  0.73683200  1
  O  O9  1  0.65590200  0.47831300  0.23683200  1
  O  O10  1  0.15590200  0.52168700  0.26316800  1
  O  O11  1  0.34409800  0.52168700  0.76316800  1
  O  O12  1  0.80031400  0.46291300  0.00340700  1
  O  O13  1  0.69968600  0.46291300  0.50340700  1
  O  O14  1  0.19968600  0.53708700  0.99659300  1
  O  O15  1  0.30031400  0.53708700  0.49659300  1
  O  O16  1  0.00042300  0.38218600  0.95063900  1
  O  O17  1  0.49957700  0.38218600  0.45063900  1
  O  O18  1  0.99957700  0.61781400  0.04936100  1
  O  O19  1  0.50042300  0.61781400  0.54936100  1
  O  O20  1  0.79686000  0.63168400  0.59192800  1
  O  O21  1  0.70314000  0.63168400  0.09192800  1
  O  O22  1  0.20314000  0.36831600  0.40807200  1
  O  O23  1  0.29686000  0.36831600  0.90807200  1
  O  O24  1  0.69348100  0.26349300  0.65959100  1
  O  O25  1  0.80651900  0.26349300  0.15959100  1
  O  O26  1  0.30651900  0.73650700  0.34040900  1
  O  O27  1  0.19348100  0.73650700  0.84040900  1
  O  O28  1  0.78124300  0.36970700  0.89741000  1
  O  O29  1  0.71875700  0.36970700  0.39741000  1
  O  O30  1  0.21875700  0.63029300  0.10259000  1
  O  O31  1  0.28124300  0.63029300  0.60259000  1
  O  O32  1  0.89174800  0.64697400  0.87104800  1
  O  O33  1  0.60825200  0.64697400  0.37104800  1
  O  O34  1  0.10825200  0.35302600  0.12895200  1
  O  O35  1  0.39174800  0.35302600  0.62895200  1
  O  O36  1  0.51741900  0.08002600  0.74536400  1
  O  O37  1  0.98258100  0.08002600  0.24536400  1
  O  O38  1  0.48258100  0.91997400  0.25463600  1
  O  O39  1  0.01741900  0.91997400  0.75463600  1
  O  O40  1  0.02194700  0.60728800  0.63966000  1
  O  O41  1  0.47805300  0.60728800  0.13966000  1
  O  O42  1  0.97805300  0.39271200  0.36034000  1
  O  O43  1  0.52194700  0.39271200  0.86034000  1
  O  O44  1  0.74679100  0.98516500  0.76006700  1
  O  O45  1  0.75320900  0.98516500  0.26006700  1
  O  O46  1  0.25320900  0.01483500  0.23993300  1
  O  O47  1  0.24679100  0.01483500  0.73993300  1
  O  O48  1  0.64347200  0.98183400  0.97343900  1
  O  O49  1  0.85652800  0.98183400  0.47343900  1
  O  O50  1  0.35652800  0.01816600  0.02656100  1
  O  O51  1  0.14347200  0.01816600  0.52656100  1
  F  F0  1  0.68232000  0.66795400  0.78364000  1
  F  F1  1  0.81768000  0.66795400  0.28364000  1
  F  F2  1  0.31768000  0.33204600  0.21636000  1
  F  F3  1  0.18232000  0.33204600  0.71636000  1
  F  F4  1  0.59150300  0.50975600  0.69717300  1
  F  F5  1  0.90849700  0.50975600  0.19717300  1
  F  F6  1  0.40849700  0.49024400  0.30282700  1
  F  F7  1  0.09150300  0.49024400  0.80282700  1
loop_
_geom_bond_atom_site_label_1
_geom_bond_atom_site_label_2
_geom_bond_distance
_geom_bond_site_symmetry_2
Fe0 O28 1.962131 1_555
Fe0 O43 1.986301 1_555
Fe0 O8 2.004841 1_555
Fe0 O0 2.016593 1_555
Fe1 O29 1.962131 1_555
Fe1 O42 1.986301 1_555
Fe1 O9 2.004841 1_555
Fe1 O1 2.016593 1_555
Fe2 O30 1.962131 1_555
Fe2 O41 1.986301 1_555
Fe2 O10 2.004841 1_555
Fe2 O2 2.016593 1_555
Fe3 O31 1.962131 1_555
Fe3 O40 1.986301 1_555
Fe3 O11 2.004841 1_555
Fe3 O3 2.016593 1_555
Fe4 O44 1.893476 1_555
Fe4 O32 1.913772 1_555
Fe4 O4 1.931627 1_555
Fe4 O39 2.031567 1_655
Fe5 O45 1.893476 1_555
Fe5 O33 1.913772 1_555
Fe5 O5 1.931627 1_555
Fe5 O38 2.031567 1_555
Fe6 O46 1.893476 1_555
Fe6 O34 1.913772 1_555
Fe6 O6 1.931627 1_555
Fe6 O37 2.031567 1_455
Fe7 O47 1.893476 1_555
Fe7 O35 1.913772 1_555
Fe7 O7 1.931627 1_555
Fe7 O36 2.031567 1_555
Fe8 O19 1.931906 1_555
Fe8 O20 1.936143 1_555
Fe8 O24 1.946859 1_555
Fe8 O13 1.959658 1_555
Fe9 O18 1.931906 1_555
Fe9 O21 1.936143 1_555
Fe9 O25 1.946859 1_555
Fe9 O12 1.959658 1_555
Fe10 O17 1.931906 1_555
Fe10 O22 1.936143 1_555
Fe10 O26 1.946859 1_555
Fe10 O15 1.959658 1_555
Fe11 O16 1.931906 1_555
Fe11 O23 1.936143 1_555
Fe11 O27 1.946859 1_555
Fe11 O14 1.959658 1_555
H0 N0 1.031436 1_555
H1 N1 1.031436 1_555
H2 N2 1.031436 1_555
H3 N3 1.031436 1_555
H4 N0 1.035734 1_556
H5 N1 1.035734 1_555
H6 N2 1.035734 1_554
H7 N3 1.035734 1_555
H8 N0 1.031251 1_555
H9 N1 1.031251 1_555
H10 N2 1.031251 1_555
H11 N3 1.031251 1_555
H12 N4 1.037611 1_555
H13 N5 1.037611 1_555
H14 N6 1.037611 1_555
H15 N7 1.037611 1_555
H16 N4 1.033655 1_555
H17 N5 1.033655 1_655
H18 N6 1.033655 1_555
H19 N7 1.033655 1_455
H20 N4 1.035277 1_555
H21 N5 1.035277 1_555
H22 N6 1.035277 1_555
H23 N7 1.035277 1_555
C0 H28 1.092328 1_555
C0 H24 1.092467 1_555
C0 H32 1.093249 1_555
C0 N2 1.492584 1_555
C1 H29 1.092328 1_555
C1 H25 1.092467 1_655
C1 H33 1.093249 1_555
C1 N3 1.492584 1_655
C2 H30 1.092328 1_555
C2 H26 1.092467 1_555
C2 H34 1.093249 1_555
C2 N0 1.492584 1_555
C3 H31 1.092328 1_555
C3 H27 1.092467 1_455
C3 H35 1.093249 1_555
C3 N1 1.492584 1_455
C4 H44 1.092033 1_555
C4 H40 1.093322 1_555
C4 H36 1.093383 1_565
C4 N4 1.485804 1_555
C5 H45 1.092033 1_555
C5 H41 1.093322 1_555
C5 H37 1.093383 1_665
C5 N5 1.485804 1_655
C6 H46 1.092033 1_555
C6 H42 1.093322 1_555
C6 H38 1.093383 1_545
C6 N6 1.485804 1_555
C7 H47 1.092033 1_555
C7 H43 1.093322 1_555
C7 H39 1.093383 1_445
C7 N7 1.485804 1_455
O0 P0 1.554232 1_555
O1 P1 1.554232 1_555
O2 P2 1.554232 1_555
O3 P3 1.554232 1_555
O4 P4 1.559859 1_555
O5 P5 1.559859 1_555
O6 P6 1.559859 1_555
O7 P7 1.559859 1_555
O8 P4 1.542615 1_555
O9 P5 1.542615 1_555
O10 P6 1.542615 1_555
O11 P7 1.542615 1_555
O12 P8 1.543939 1_554
O13 P9 1.543939 1_555
O14 P10 1.543939 1_556
O15 P11 1.543939 1_555
O16 P8 1.555080 1_455
O17 P9 1.555080 1_555
O18 P10 1.555080 1_655
O19 P11 1.555080 1_555
O20 P4 1.559530 1_555
O21 P5 1.559530 1_555
O22 P6 1.559530 1_555
O23 P7 1.559530 1_555
O24 P0 1.555023 1_555
O25 P1 1.555023 1_555
O26 P2 1.555023 1_555
O27 P3 1.555023 1_555
O28 P8 1.545261 1_555
O29 P9 1.545261 1_555
O30 P10 1.545261 1_555
O31 P11 1.545261 1_555
O32 P8 1.555829 1_555
O33 P9 1.555829 1_555
O34 P10 1.555829 1_555
O35 P11 1.555829 1_555
O36 P0 1.552661 1_555
O37 P1 1.552661 1_555
O38 P2 1.552661 1_555
O39 P3 1.552661 1_555
O40 P4 1.543645 1_455
O41 P5 1.543645 1_555
O42 P6 1.543645 1_655
O43 P7 1.543645 1_555
O44 P0 1.541141 1_565
O45 P1 1.541141 1_565
O46 P2 1.541141 1_545
O47 P3 1.541141 1_545
F0 Fe0 2.025654 1_555
F0 Fe4 2.051384 1_555
F1 Fe1 2.025654 1_555
F1 Fe5 2.051384 1_555
F2 Fe2 2.025654 1_555
F2 Fe6 2.051384 1_555
F3 Fe3 2.025654 1_555
F3 Fe7 2.051384 1_555
F4 Fe0 2.032033 1_555
F4 Fe8 2.069355 1_555
F5 Fe1 2.032033 1_555
F5 Fe9 2.069355 1_555
F6 Fe2 2.032033 1_555
F6 Fe10 2.069355 1_555
F7 Fe3 2.032033 1_555
F7 Fe11 2.069355 1_555
