# generated using pymatgen
data_LaSnPd
_symmetry_space_group_name_H-M   'P 1'
_cell_length_a   7.69851853
_cell_length_b   7.69851839
_cell_length_c   4.21640500
_cell_angle_alpha   90.00000000
_cell_angle_beta   90.00000000
_cell_angle_gamma   120.00000066
_symmetry_Int_Tables_number   1
_chemical_formula_structural   LaSnPd
_chemical_formula_sum   'La3 Sn3 Pd3'
_cell_volume   216.41495031
_cell_formula_units_Z   3
loop_
 _symmetry_equiv_pos_site_id
 _symmetry_equiv_pos_as_xyz
  1  'x, y, z'
loop_
 _atom_site_type_symbol
 _atom_site_label
 _atom_site_symmetry_multiplicity
 _atom_site_fract_x
 _atom_site_fract_y
 _atom_site_fract_z
 _atom_site_occupancy
  La  La0  1  0.00000000  0.58465689  -0.00000000  1
  La  La1  1  0.41534311  0.41534311  -0.00000000  1
  La  La2  1  0.58465689  0.00000000  0.00000000  1
  Sn  Sn0  1  0.75334875  0.75334875  0.50000000  1
  Sn  Sn1  1  0.00000000  0.24665125  0.50000000  1
  Sn  Sn2  1  0.24665125  0.00000000  0.50000000  1
  Pd  Pd0  1  0.66666700  0.33333300  0.50000000  1
  Pd  Pd1  1  0.00000000  0.00000000  -0.00000000  1
  Pd  Pd2  1  0.33333300  0.66666700  0.50000000  1
loop_
_geom_bond_atom_site_label_1
_geom_bond_atom_site_label_2
_geom_bond_distance
_geom_bond_site_symmetry_2
La0 Pd2 3.131803 1_554
La0 Pd2 3.131803 1_555
La0 Pd0 3.131805 1_455
La0 Pd0 3.131805 1_454
La0 Pd1 3.197527 1_565
La0 Sn1 3.348980 1_554
La0 Sn1 3.348980 1_555
La0 Sn2 3.493237 1_564
La0 Sn2 3.493237 1_565
La0 Sn0 3.493237 1_455
La0 Sn0 3.493237 1_454
La1 Pd2 3.131809 1_555
La1 Pd2 3.131809 1_554
La1 Pd0 3.131809 1_555
La1 Pd0 3.131809 1_554
La1 Pd1 3.197527 1_555
La1 Sn0 3.348980 1_554
La1 Sn0 3.348980 1_555
La1 Sn2 3.493237 1_554
La1 Sn2 3.493237 1_555
La1 Sn1 3.493237 1_554
La1 Sn1 3.493237 1_555
La2 Pd0 3.131803 1_555
La2 Pd0 3.131803 1_554
La2 Pd2 3.131805 1_544
La2 Pd2 3.131805 1_545
La2 Pd1 3.197527 1_655
La2 Sn2 3.348980 1_555
La2 Sn2 3.348980 1_554
La2 Sn1 3.493237 1_654
La2 Sn1 3.493237 1_655
La2 Sn0 3.493237 1_544
La2 Sn0 3.493237 1_545
Sn0 Sn1 3.288903 1_665
Sn0 Sn2 3.288903 1_665
Sn1 Sn2 3.288903 1_555
Pd0 Sn1 2.956858 1_655
Pd0 Sn2 2.956863 1_555
Pd0 Sn0 2.956865 1_555
Pd1 Sn0 2.837278 1_444
Pd1 Sn0 2.837278 1_445
Pd1 Sn1 2.837278 1_554
Pd1 Sn1 2.837278 1_555
Pd1 Sn2 2.837278 1_554
Pd1 Sn2 2.837278 1_555
Pd2 Sn2 2.956858 1_565
Pd2 Sn1 2.956863 1_555
Pd2 Sn0 2.956865 1_555
