# generated using pymatgen
data_YSb(WO4)2
_symmetry_space_group_name_H-M   'P 1'
_cell_length_a   5.65853800
_cell_length_b   5.41056600
_cell_length_c   11.10283652
_cell_angle_alpha   69.24553816
_cell_angle_beta   90.00000000
_cell_angle_gamma   90.00000000
_symmetry_Int_Tables_number   1
_chemical_formula_structural   YSb(WO4)2
_chemical_formula_sum   'Y2 Sb2 W4 O16'
_cell_volume   317.86482809
_cell_formula_units_Z   2
loop_
 _symmetry_equiv_pos_site_id
 _symmetry_equiv_pos_as_xyz
  1  'x, y, z'
loop_
 _atom_site_type_symbol
 _atom_site_label
 _atom_site_symmetry_multiplicity
 _atom_site_fract_x
 _atom_site_fract_y
 _atom_site_fract_z
 _atom_site_occupancy
  Y  Y0  1  0.73907500  0.00000000  0.25000000  1
  Y  Y1  1  0.26092500  0.00000000  0.75000000  1
  Sb  Sb0  1  0.33405100  0.50000000  0.25000000  1
  Sb  Sb1  1  0.66594900  0.50000000  0.75000000  1
  W  W0  1  0.17289400  0.25126000  0.00276400  1
  W  W1  1  0.17289400  0.74874000  0.49723600  1
  W  W2  1  0.82710600  0.74874000  0.99723600  1
  W  W3  1  0.82710600  0.25126000  0.50276400  1
  O  O0  1  0.40222200  0.74811500  0.37003900  1
  O  O1  1  0.40222200  0.25188500  0.12996100  1
  O  O2  1  0.59777800  0.25188500  0.62996100  1
  O  O3  1  0.59777800  0.74811500  0.87003900  1
  O  O4  1  0.93485200  0.11128800  0.88576500  1
  O  O5  1  0.93485200  0.88871200  0.61423500  1
  O  O6  1  0.06514800  0.88871200  0.11423500  1
  O  O7  1  0.06514800  0.11128800  0.38576500  1
  O  O8  1  0.60423900  0.25469800  0.36362100  1
  O  O9  1  0.60423900  0.74530200  0.13637900  1
  O  O10  1  0.39576100  0.74530200  0.63637900  1
  O  O11  1  0.39576100  0.25469800  0.86362100  1
  O  O12  1  0.89874300  0.63183100  0.40091400  1
  O  O13  1  0.10125700  0.36816900  0.59908600  1
  O  O14  1  0.89874300  0.36816900  0.09908600  1
  O  O15  1  0.10125700  0.63183100  0.90091400  1
loop_
_geom_bond_atom_site_label_1
_geom_bond_atom_site_label_2
_geom_bond_distance
_geom_bond_site_symmetry_2
O0 W1 1.918792 1_555
O0 Sb0 2.235011 1_555
O0 Y0 2.445305 1_565
O1 W0 1.918792 1_555
O1 Sb0 2.235011 1_555
O1 Y0 2.445305 1_555
O2 W3 1.918792 1_555
O2 Sb1 2.235011 1_555
O2 Y1 2.445305 1_555
O3 W2 1.918792 1_555
O3 Sb1 2.235011 1_555
O3 Y1 2.445305 1_565
O4 W2 2.007660 1_545
O4 W0 2.184620 1_656
O4 Y1 2.585033 1_655
O4 Sb1 2.600741 1_555
O5 W3 2.007660 1_565
O5 W1 2.184620 1_655
O5 Y1 2.585033 1_665
O5 Sb1 2.600741 1_555
O6 W0 2.007660 1_565
O6 W2 2.184620 1_454
O6 Y0 2.585033 1_465
O6 Sb0 2.600741 1_555
O7 W1 2.007660 1_545
O7 W3 2.184620 1_455
O7 Y0 2.585033 1_455
O7 Sb0 2.600741 1_555
O8 W3 1.989225 1_555
O8 Sb0 2.122204 1_555
O8 Y0 2.303190 1_555
O9 W2 1.989225 1_554
O9 Sb0 2.122204 1_555
O9 Y0 2.303190 1_565
O10 W1 1.989225 1_555
O10 Sb1 2.122204 1_555
O10 Y1 2.303190 1_565
O11 W0 1.989225 1_556
O11 Sb1 2.122204 1_555
O11 Y1 2.303190 1_555
O12 W3 2.008166 1_555
O12 W1 2.104704 1_655
O12 Y0 2.286123 1_565
O13 W1 2.008166 1_555
O13 W3 2.104704 1_455
O13 Y1 2.286123 1_555
O14 W2 2.008166 1_554
O14 W0 2.104704 1_655
O14 Y0 2.286123 1_555
O15 W0 2.008166 1_556
O15 W2 2.104704 1_455
O15 Y1 2.286123 1_565
