# generated using pymatgen
data_SnBi4Te7
_symmetry_space_group_name_H-M   'P 1'
_cell_length_a   4.42682963
_cell_length_b   4.42682963
_cell_length_c   25.16363385
_cell_angle_alpha   90.00000000
_cell_angle_beta   90.00000000
_cell_angle_gamma   119.99998611
_symmetry_Int_Tables_number   1
_chemical_formula_structural   SnBi4Te7
_chemical_formula_sum   'Sn1 Bi4 Te7'
_cell_volume   427.06075756
_cell_formula_units_Z   1
loop_
 _symmetry_equiv_pos_site_id
 _symmetry_equiv_pos_as_xyz
  1  'x, y, z'
loop_
 _atom_site_type_symbol
 _atom_site_label
 _atom_site_symmetry_multiplicity
 _atom_site_fract_x
 _atom_site_fract_y
 _atom_site_fract_z
 _atom_site_occupancy
  Sn  Sn0  1  0.00000000  -0.00000000  -0.00000000  1
  Bi  Bi0  1  0.66666700  0.33333300  0.15633940  1
  Bi  Bi1  1  0.33333300  0.66666700  0.84366060  1
  Bi  Bi2  1  0.66666700  0.33333300  0.41881214  1
  Bi  Bi3  1  0.33333300  0.66666700  0.58118786  1
  Te  Te0  1  0.00000000  -0.00000000  0.50000000  1
  Te  Te1  1  0.66666700  0.33333300  0.92570245  1
  Te  Te2  1  0.33333300  0.66666700  0.07429755  1
  Te  Te3  1  0.00000000  -0.00000000  0.77629782  1
  Te  Te4  1  -0.00000000  0.00000000  0.22370218  1
  Te  Te5  1  0.66666700  0.33333300  0.64890251  1
  Te  Te6  1  0.33333300  0.66666700  0.35109749  1
loop_
_geom_bond_atom_site_label_1
_geom_bond_atom_site_label_2
_geom_bond_distance
_geom_bond_site_symmetry_2
Sn0 Te2 3.166646 1_545
Sn0 Te1 3.166646 1_454
Sn0 Te2 3.166650 1_555
Sn0 Te2 3.166650 1_445
Sn0 Te1 3.166650 1_444
Sn0 Te1 3.166650 1_554
Bi0 Te4 3.066855 1_655
Bi0 Te4 3.066858 1_555
Bi0 Te4 3.066858 1_665
Bi0 Te2 3.285468 1_545
Bi0 Te2 3.285468 1_655
Bi0 Te2 3.285474 1_555
Bi1 Te3 3.066855 1_565
Bi1 Te3 3.066858 1_665
Bi1 Te3 3.066858 1_555
Bi1 Te1 3.285468 1_455
Bi1 Te1 3.285468 1_565
Bi1 Te1 3.285474 1_555
Bi2 Te6 3.071758 1_545
Bi2 Te6 3.071758 1_655
Bi2 Te6 3.071764 1_555
Bi2 Te0 3.272008 1_655
Bi2 Te0 3.272011 1_665
Bi2 Te0 3.272011 1_555
Bi3 Te5 3.071758 1_455
Bi3 Te5 3.071758 1_565
Bi3 Te5 3.071764 1_555
Bi3 Te0 3.272008 1_565
Bi3 Te0 3.272011 1_665
Bi3 Te0 3.272011 1_555
