# generated using pymatgen
data_Sr3Ca5Ti3Mn5O24
_symmetry_space_group_name_H-M   'P 1'
_cell_length_a   7.69941400
_cell_length_b   7.73193203
_cell_length_c   7.73429907
_cell_angle_alpha   89.99638422
_cell_angle_beta   89.99296239
_cell_angle_gamma   89.99456085
_symmetry_Int_Tables_number   1
_chemical_formula_structural   Sr3Ca5Ti3Mn5O24
_chemical_formula_sum   'Sr3 Ca5 Ti3 Mn5 O24'
_cell_volume   460.43322588
_cell_formula_units_Z   1
loop_
 _symmetry_equiv_pos_site_id
 _symmetry_equiv_pos_as_xyz
  1  'x, y, z'
loop_
 _atom_site_type_symbol
 _atom_site_label
 _atom_site_symmetry_multiplicity
 _atom_site_fract_x
 _atom_site_fract_y
 _atom_site_fract_z
 _atom_site_occupancy
  Sr  Sr0  1  0.24557200  0.75161900  0.24837700  1
  Sr  Sr1  1  0.75447700  0.75160700  0.24851000  1
  Sr  Sr2  1  0.75499300  0.75151500  0.75142200  1
  Ca  Ca0  1  0.24189000  0.24774600  0.24772500  1
  Ca  Ca1  1  0.75794300  0.24772000  0.24768800  1
  Ca  Ca2  1  0.24269700  0.75236600  0.75223700  1
  Ca  Ca3  1  0.24208800  0.24746000  0.75243700  1
  Ca  Ca4  1  0.75777800  0.24769200  0.75238700  1
  Ti  Ti0  1  0.49857100  0.49557100  0.99915600  1
  Ti  Ti1  1  0.49854900  0.00256600  0.50151600  1
  Ti  Ti2  1  0.49850300  0.49741700  0.50088700  1
  Mn  Mn0  1  0.00051900  0.00162400  0.99943600  1
  Mn  Mn1  1  0.49910400  0.00125100  0.99958800  1
  Mn  Mn2  1  0.00026600  0.49777900  0.99929400  1
  Mn  Mn3  1  0.00026100  0.00206200  0.50079500  1
  Mn  Mn4  1  0.00025900  0.49788300  0.50075700  1
  O  O0  1  0.00050400  0.00782600  0.24987200  1
  O  O1  1  0.49920700  0.00537700  0.24670600  1
  O  O2  1  0.00022700  0.49224400  0.24968300  1
  O  O3  1  0.49924100  0.49559400  0.24968300  1
  O  O4  1  0.00369000  0.00478600  0.75002600  1
  O  O5  1  0.49792600  0.00387000  0.75323100  1
  O  O6  1  0.00403400  0.49535300  0.75031100  1
  O  O7  1  0.49841100  0.49654800  0.75025100  1
  O  O8  1  0.00382700  0.75023900  0.99627800  1
  O  O9  1  0.49769100  0.75339100  0.99757900  1
  O  O10  1  0.00055200  0.25003000  0.99940800  1
  O  O11  1  0.49916000  0.24672700  0.99912600  1
  O  O12  1  0.00412100  0.75034600  0.50370100  1
  O  O13  1  0.49818700  0.75042700  0.50188700  1
  O  O14  1  0.00025800  0.24970400  0.50051200  1
  O  O15  1  0.49918000  0.24981100  0.50088900  1
  O  O16  1  0.25005000  0.00464000  0.99632000  1
  O  O17  1  0.75009300  0.00785700  0.99952400  1
  O  O18  1  0.24666600  0.49629800  0.99783600  1
  O  O19  1  0.75338000  0.49481300  0.99925100  1
  O  O20  1  0.24665200  0.00377200  0.50209900  1
  O  O21  1  0.75336400  0.00531400  0.50074200  1
  O  O22  1  0.24668100  0.49628900  0.50209300  1
  O  O23  1  0.75342900  0.49486900  0.50078300  1
loop_
_geom_bond_atom_site_label_1
_geom_bond_atom_site_label_2
_geom_bond_distance
_geom_bond_site_symmetry_2
Ca0 O0 2.626071 1_555
Ca0 O2 2.652432 1_555
Ca0 O10 2.672543 1_554
Ca0 O14 2.698712 1_555
Ca0 O16 2.705255 1_554
Ca0 O18 2.725718 1_554
Ca0 O20 2.725808 1_555
Ca0 O1 2.726953 1_555
Ca0 O22 2.750521 1_555
Ca0 O3 2.756717 1_555
Ca0 O11 2.760386 1_554
Ca0 O15 2.785579 1_555
Ca1 O0 2.632095 1_655
Ca1 O2 2.656188 1_655
Ca1 O17 2.669777 1_554
Ca1 O10 2.678826 1_654
Ca1 O14 2.702882 1_655
Ca1 O19 2.709782 1_554
Ca1 O21 2.710030 1_555
Ca1 O1 2.735022 1_555
Ca1 O23 2.735908 1_555
Ca1 O3 2.764079 1_555
Ca1 O11 2.768898 1_554
Ca1 O15 2.793514 1_555
Ca2 O8 2.635247 1_555
Ca2 O12 2.659014 1_555
Ca2 O4 2.682371 1_565
Ca2 O6 2.706763 1_555
Ca2 O16 2.715189 1_565
Ca2 O9 2.730611 1_555
Ca2 O20 2.742601 1_565
Ca2 O18 2.743849 1_555
Ca2 O13 2.760081 1_555
Ca2 O5 2.764774 1_565
Ca2 O22 2.768519 1_555
Ca2 O7 2.790736 1_555
Ca3 O4 2.625036 1_555
Ca3 O6 2.651933 1_555
Ca3 O16 2.661991 1_555
Ca3 O10 2.665823 1_555
Ca3 O14 2.695282 1_555
Ca3 O20 2.701967 1_555
Ca3 O18 2.702937 1_555
Ca3 O5 2.725203 1_555
Ca3 O22 2.729704 1_555
Ca3 O11 2.749352 1_555
Ca3 O7 2.757726 1_555
Ca3 O15 2.775391 1_555
Ca4 O17 2.663714 1_555
Ca4 O4 2.666818 1_655
Ca4 O10 2.673075 1_655
Ca4 O6 2.694938 1_655
Ca4 O14 2.698123 1_655
Ca4 O19 2.701471 1_555
Ca4 O21 2.702181 1_555
Ca4 O23 2.727639 1_555
Ca4 O5 2.749113 1_555
Ca4 O11 2.757869 1_555
Ca4 O7 2.773041 1_555
Ca4 O15 2.783730 1_555
Mn0 O10 1.920658 1_555
Mn0 O16 1.921534 1_555
Mn0 O17 1.928731 1_455
Mn0 O4 1.929316 1_555
Mn0 O0 1.937543 1_556
Mn0 O8 1.944011 1_545
Mn1 O11 1.898007 1_555
Mn1 O5 1.905528 1_555
Mn1 O1 1.911553 1_556
Mn1 O9 1.916533 1_545
Mn1 O16 1.917916 1_555
Mn1 O17 1.933148 1_555
Mn2 O18 1.897201 1_555
Mn2 O19 1.901018 1_455
Mn2 O10 1.915580 1_555
Mn2 O6 1.926016 1_555
Mn2 O2 1.937054 1_556
Mn2 O8 1.952337 1_555
Mn3 O20 1.897142 1_555
Mn3 O21 1.901126 1_455
Mn3 O14 1.914752 1_555
Mn3 O4 1.927928 1_555
Mn3 O0 1.941223 1_555
Mn3 O12 1.946603 1_545
Mn4 O22 1.897373 1_555
Mn4 O23 1.900591 1_455
Mn4 O14 1.918904 1_555
Mn4 O6 1.930446 1_555
Mn4 O2 1.942374 1_555
Mn4 O12 1.952390 1_555
O0 Sr0 2.735690 1_545
O0 Sr1 2.741112 1_445
O1 Ti1 1.970901 1_555
O1 Sr0 2.768406 1_545
O1 Sr1 2.777110 1_545
O2 Sr0 2.755194 1_555
O2 Sr1 2.757002 1_455
O3 Ti0 1.937658 1_554
O3 Ti2 1.942946 1_555
O3 Sr0 2.780768 1_555
O3 Sr1 2.789448 1_555
O4 Sr2 2.739014 1_445
O5 Ti1 1.946871 1_555
O5 Sr2 2.779226 1_545
O6 Sr2 2.756615 1_455
O7 Ti0 1.925121 1_555
O7 Ti2 1.928667 1_555
O7 Sr2 2.791043 1_555
O8 Sr2 2.694068 1_455
O8 Sr0 2.695772 1_556
O8 Sr1 2.736929 1_456
O9 Ti0 1.993494 1_555
O9 Sr0 2.744088 1_556
O9 Sr2 2.747470 1_555
O9 Sr1 2.770679 1_556
O11 Ti0 1.924050 1_555
O12 Sr2 2.710958 1_455
O12 Sr0 2.711981 1_555
O12 Sr1 2.755199 1_455
O13 Ti1 1.949526 1_565
O13 Ti2 1.956273 1_555
O13 Sr0 2.761960 1_555
O13 Sr2 2.763217 1_555
O13 Sr1 2.780895 1_555
O15 Ti1 1.911694 1_555
O15 Ti2 1.914479 1_555
O16 Sr0 2.761967 1_546
O17 Sr2 2.759063 1_545
O17 Sr1 2.763093 1_546
O18 Ti0 1.939557 1_555
O18 Sr0 2.766338 1_556
O19 Ti0 1.961888 1_555
O19 Sr2 2.759198 1_555
O19 Sr1 2.767563 1_556
O20 Ti1 1.939486 1_555
O20 Sr0 2.766312 1_545
O21 Ti1 1.962052 1_555
O21 Sr2 2.758550 1_545
O21 Sr1 2.766653 1_545
O22 Ti2 1.938924 1_555
O22 Sr0 2.783471 1_555
O23 Ti2 1.962878 1_555
O23 Sr2 2.774205 1_555
O23 Sr1 2.783366 1_555
