# generated using pymatgen
data_FeSb6Pd
_symmetry_space_group_name_H-M   'P 1'
_cell_length_a   7.98560775
_cell_length_b   7.98560775
_cell_length_c   9.24848672
_cell_angle_alpha   54.86753836
_cell_angle_beta   54.86753836
_cell_angle_gamma   70.48003732
_symmetry_Int_Tables_number   1
_chemical_formula_structural   FeSb6Pd
_chemical_formula_sum   'Fe2 Sb12 Pd2'
_cell_volume   394.45897375
_cell_formula_units_Z   2
loop_
 _symmetry_equiv_pos_site_id
 _symmetry_equiv_pos_as_xyz
  1  'x, y, z'
loop_
 _atom_site_type_symbol
 _atom_site_label
 _atom_site_symmetry_multiplicity
 _atom_site_fract_x
 _atom_site_fract_y
 _atom_site_fract_z
 _atom_site_occupancy
  Fe  Fe0  1  0.50000000  -0.00000000  0.50000000  1
  Fe  Fe1  1  -0.00000000  0.50000000  0.50000000  1
  Sb  Sb0  1  0.67459442  0.67459442  0.48528534  1
  Sb  Sb1  1  0.32540558  0.32540558  0.51471466  1
  Sb  Sb2  1  0.65034499  0.65034499  0.19837803  1
  Sb  Sb3  1  0.34965501  0.34965501  0.80162197  1
  Sb  Sb4  1  0.16667658  0.85332917  0.65175784  1
  Sb  Sb5  1  0.83332342  0.14667083  0.34824216  1
  Sb  Sb6  1  0.85332917  0.16667658  0.65175784  1
  Sb  Sb7  1  0.14667083  0.83332342  0.34824216  1
  Sb  Sb8  1  0.81803973  0.49290801  0.83419509  1
  Sb  Sb9  1  0.18196027  0.50709199  0.16580491  1
  Sb  Sb10  1  0.50709199  0.18196027  0.16580491  1
  Sb  Sb11  1  0.49290801  0.81803973  0.83419509  1
  Pd  Pd0  1  -0.00000000  0.50000000  -0.00000000  1
  Pd  Pd1  1  0.50000000  -0.00000000  -0.00000000  1
loop_
_geom_bond_atom_site_label_1
_geom_bond_atom_site_label_2
_geom_bond_distance
_geom_bond_site_symmetry_2
Fe0 Sb4 2.513659 1_545
Fe0 Sb5 2.513659 1_555
Fe0 Sb11 2.520350 1_545
Fe0 Sb10 2.520350 1_555
Fe0 Sb0 2.546060 1_545
Fe0 Sb1 2.546060 1_555
Fe1 Sb7 2.513659 1_555
Fe1 Sb6 2.513659 1_455
Fe1 Sb9 2.520350 1_555
Fe1 Sb8 2.520350 1_455
Fe1 Sb0 2.546060 1_455
Fe1 Sb1 2.546060 1_555
Sb0 Sb2 2.885078 1_555
Sb0 Sb3 3.008406 1_555
Sb1 Sb3 2.885078 1_555
Sb1 Sb2 3.008406 1_555
Pd0 Sb2 2.646287 1_455
Pd0 Sb3 2.646287 1_554
Pd0 Sb8 2.680580 1_454
Pd0 Sb9 2.680580 1_555
Pd0 Sb5 2.687480 1_455
Pd0 Sb4 2.687480 1_554
Pd1 Sb3 2.646287 1_554
Pd1 Sb2 2.646287 1_545
Pd1 Sb11 2.680580 1_544
Pd1 Sb10 2.680580 1_555
Pd1 Sb6 2.687480 1_554
Pd1 Sb7 2.687480 1_545
