# generated using pymatgen
data_Al5Re24
_symmetry_space_group_name_H-M   'P 1'
_cell_length_a   8.33760588
_cell_length_b   8.33760588
_cell_length_c   8.33760588
_cell_angle_alpha   109.47122063
_cell_angle_beta   109.47122063
_cell_angle_gamma   109.47122063
_symmetry_Int_Tables_number   1
_chemical_formula_structural   Al5Re24
_chemical_formula_sum   'Al5 Re24'
_cell_volume   446.17188040
_cell_formula_units_Z   1
loop_
 _symmetry_equiv_pos_site_id
 _symmetry_equiv_pos_as_xyz
  1  'x, y, z'
loop_
 _atom_site_type_symbol
 _atom_site_label
 _atom_site_symmetry_multiplicity
 _atom_site_fract_x
 _atom_site_fract_y
 _atom_site_fract_z
 _atom_site_occupancy
  Al  Al0  1  0.00000000  0.00000000  0.00000000  1
  Al  Al1  1  0.64100600  0.00000000  0.00000000  1
  Al  Al2  1  0.00000000  0.64100600  0.00000000  1
  Al  Al3  1  0.00000000  0.00000000  0.64100600  1
  Al  Al4  1  0.35899400  0.35899400  0.35899400  1
  Re  Re0  1  0.39853100  0.68037300  0.00000000  1
  Re  Re1  1  0.71815800  0.31962700  0.31962700  1
  Re  Re2  1  0.39853100  0.00000000  0.68037300  1
  Re  Re3  1  0.68037300  0.39853100  0.00000000  1
  Re  Re4  1  0.00000000  0.39853100  0.68037300  1
  Re  Re5  1  0.31962700  0.71815800  0.31962700  1
  Re  Re6  1  0.31962700  0.31962700  0.71815800  1
  Re  Re7  1  0.00000000  0.68037300  0.39853100  1
  Re  Re8  1  0.68037300  0.00000000  0.39853100  1
  Re  Re9  1  0.60146900  0.60146900  0.28184200  1
  Re  Re10  1  0.28184200  0.60146900  0.60146900  1
  Re  Re11  1  0.60146900  0.28184200  0.60146900  1
  Re  Re12  1  0.37491400  0.19160400  0.00000000  1
  Re  Re13  1  0.18331000  0.80839600  0.80839600  1
  Re  Re14  1  0.37491400  0.00000000  0.19160400  1
  Re  Re15  1  0.19160400  0.37491400  0.00000000  1
  Re  Re16  1  0.00000000  0.37491400  0.19160400  1
  Re  Re17  1  0.80839600  0.18331000  0.80839600  1
  Re  Re18  1  0.80839600  0.80839600  0.18331000  1
  Re  Re19  1  0.00000000  0.19160400  0.37491400  1
  Re  Re20  1  0.19160400  0.00000000  0.37491400  1
  Re  Re21  1  0.62508600  0.62508600  0.81669000  1
  Re  Re22  1  0.81669000  0.62508600  0.62508600  1
  Re  Re23  1  0.62508600  0.81669000  0.62508600  1
loop_
_geom_bond_atom_site_label_1
_geom_bond_atom_site_label_2
_geom_bond_distance
_geom_bond_site_symmetry_2
Al0 Al4 2.993150 1_555
Al0 Al3 2.993150 1_554
Al0 Al2 2.993150 1_545
Al0 Al1 2.993150 1_455
Al0 Re14 2.999019 1_555
Al0 Re20 2.999019 1_555
Al0 Re15 2.999019 1_555
Al0 Re12 2.999019 1_555
Al0 Re19 2.999019 1_555
Al0 Re16 2.999019 1_555
Al0 Re13 2.999019 1_544
Al0 Re17 2.999019 1_454
Al0 Re18 2.999019 1_445
Al0 Re23 2.999019 1_444
Al0 Re22 2.999019 1_444
Al0 Re21 2.999019 1_444
Al1 Re1 2.756305 1_555
Al1 Re2 2.756305 1_554
Al1 Re0 2.756305 1_545
Al1 Re19 2.920245 1_655
Al1 Re16 2.920245 1_655
Al1 Re17 2.920245 1_554
Al1 Re18 2.920245 1_545
Al1 Re23 2.920245 1_544
Al1 Re21 2.920245 1_544
Al1 Re13 3.136387 1_544
Al1 Re14 3.136387 1_555
Al1 Re12 3.136387 1_555
Al1 Re8 3.228252 1_555
Al1 Re3 3.228252 1_555
Al1 Re10 3.228252 1_544
Al2 Re5 2.756305 1_555
Al2 Re4 2.756305 1_554
Al2 Re3 2.756305 1_455
Al2 Re14 2.920245 1_565
Al2 Re20 2.920245 1_565
Al2 Re13 2.920245 1_554
Al2 Re18 2.920245 1_455
Al2 Re21 2.920245 1_454
Al2 Re22 2.920245 1_454
Al2 Re17 3.136387 1_454
Al2 Re15 3.136387 1_555
Al2 Re16 3.136387 1_555
Al2 Re7 3.228252 1_555
Al2 Re0 3.228252 1_555
Al2 Re11 3.228252 1_454
Al3 Re6 2.756305 1_555
Al3 Re8 2.756305 1_455
Al3 Re7 2.756305 1_545
Al3 Re15 2.920245 1_556
Al3 Re12 2.920245 1_556
Al3 Re13 2.920245 1_545
Al3 Re17 2.920245 1_455
Al3 Re22 2.920245 1_445
Al3 Re23 2.920245 1_445
Al3 Re18 3.136387 1_445
Al3 Re19 3.136387 1_555
Al3 Re20 3.136387 1_555
Al3 Re4 3.228252 1_555
Al3 Re2 3.228252 1_555
Al3 Re9 3.228252 1_445
Al4 Re11 2.756305 1_555
Al4 Re9 2.756305 1_555
Al4 Re10 2.756305 1_555
Al4 Re15 2.920245 1_555
Al4 Re12 2.920245 1_555
Al4 Re14 2.920245 1_555
Al4 Re20 2.920245 1_555
Al4 Re19 2.920245 1_555
Al4 Re16 2.920245 1_555
Al4 Re22 3.136387 1_555
Al4 Re21 3.136387 1_555
Al4 Re23 3.136387 1_555
Al4 Re1 3.228252 1_555
Al4 Re6 3.228252 1_555
Al4 Re5 3.228252 1_555
Re0 Re15 2.556064 1_555
Re0 Re13 2.722871 1_554
Re0 Re14 2.722871 1_565
Re0 Re6 2.817745 1_554
Re0 Re9 2.817745 1_555
Re0 Re21 2.855150 1_554
Re0 Re18 2.855150 1_555
Re0 Re5 2.895015 1_555
Re0 Re4 2.895015 1_554
Re0 Re8 2.895015 1_565
Re0 Re10 2.895015 1_554
Re1 Re22 2.556064 1_555
Re1 Re12 2.722871 1_555
Re1 Re14 2.722871 1_555
Re1 Re4 2.817745 1_655
Re1 Re7 2.817745 1_655
Re1 Re19 2.855150 1_655
Re1 Re16 2.855150 1_655
Re1 Re8 2.895015 1_555
Re1 Re3 2.895015 1_555
Re1 Re9 2.895015 1_555
Re1 Re11 2.895015 1_555
Re2 Re20 2.556064 1_555
Re2 Re5 2.817745 1_545
Re2 Re23 2.855150 1_545
Re2 Re6 2.895015 1_555
Re2 Re7 2.895015 1_545
Re2 Re3 2.895015 1_556
Re3 Re6 2.817745 1_554
Re3 Re9 2.817745 1_555
Re3 Re7 2.895015 1_655
Re4 Re6 2.895015 1_555
Re4 Re8 2.895015 1_455
Re5 Re8 2.817745 1_565
Re5 Re7 2.895015 1_555
Re5 Re9 2.895015 1_555
Re7 Re9 2.895015 1_455
Re8 Re9 2.895015 1_545
Re10 Re13 2.556064 1_555
Re10 Re21 2.722871 1_555
Re10 Re23 2.722871 1_555
Re10 Re4 2.817745 1_555
Re10 Re7 2.817745 1_555
Re10 Re16 2.855150 1_555
Re10 Re19 2.855150 1_555
Re10 Re6 2.895015 1_555
Re10 Re5 2.895015 1_555
Re10 Re2 2.895015 1_565
Re11 Re17 2.556064 1_555
Re11 Re22 2.722871 1_555
Re11 Re21 2.722871 1_555
Re11 Re8 2.817745 1_555
Re11 Re2 2.817745 1_555
Re11 Re20 2.855150 1_555
Re11 Re14 2.855150 1_555
Re11 Re6 2.895015 1_555
Re11 Re3 2.895015 1_556
Re11 Re4 2.895015 1_655
Re12 Re15 2.495812 1_555
Re12 Re3 2.556064 1_555
Re12 Re14 2.608737 1_555
Re12 Re13 2.608737 1_544
Re12 Re2 2.722871 1_554
Re12 Re9 2.855150 1_555
Re12 Re6 2.855150 1_554
Re13 Re22 2.495812 1_455
Re13 Re14 2.608737 1_566
Re13 Re2 2.722871 1_565
Re13 Re4 2.855150 1_555
Re13 Re7 2.855150 1_555
Re14 Re20 2.495812 1_555
Re14 Re8 2.556064 1_555
Re14 Re5 2.855150 1_545
Re15 Re17 2.608737 1_454
Re15 Re16 2.608737 1_555
Re15 Re4 2.722871 1_554
Re15 Re5 2.722871 1_555
Re15 Re9 2.855150 1_555
Re15 Re6 2.855150 1_554
Re16 Re19 2.495812 1_555
Re16 Re7 2.556064 1_555
Re16 Re17 2.608737 1_454
Re16 Re3 2.722871 1_455
Re16 Re5 2.722871 1_555
Re17 Re23 2.495812 1_545
Re17 Re3 2.722871 1_556
Re17 Re4 2.722871 1_655
Re17 Re8 2.855150 1_555
Re17 Re2 2.855150 1_555
Re18 Re21 2.495812 1_554
Re18 Re9 2.556064 1_555
Re18 Re19 2.608737 1_665
Re18 Re20 2.608737 1_665
Re18 Re7 2.722871 1_655
Re18 Re8 2.722871 1_565
Re18 Re3 2.855150 1_555
Re19 Re4 2.556064 1_555
Re19 Re20 2.608737 1_555
Re19 Re8 2.722871 1_455
Re19 Re6 2.722871 1_555
Re20 Re7 2.722871 1_545
Re20 Re6 2.722871 1_555
Re20 Re5 2.855150 1_545
Re21 Re6 2.556064 1_555
Re21 Re22 2.608737 1_555
Re21 Re23 2.608737 1_555
Re21 Re3 2.855150 1_556
Re22 Re23 2.608737 1_555
Re22 Re9 2.722871 1_555
Re22 Re7 2.855150 1_655
Re22 Re4 2.855150 1_655
Re23 Re5 2.556064 1_555
Re23 Re9 2.722871 1_555
Re23 Re8 2.855150 1_565
