# generated using pymatgen
data_Mg14AlCO16
_symmetry_space_group_name_H-M   'P 1'
_cell_length_a   4.20248500
_cell_length_b   8.42867600
_cell_length_c   8.67767100
_cell_angle_alpha   90.00000000
_cell_angle_beta   90.00000000
_cell_angle_gamma   90.00000000
_symmetry_Int_Tables_number   1
_chemical_formula_structural   Mg14AlCO16
_chemical_formula_sum   'Mg14 Al1 C1 O16'
_cell_volume   307.37512071
_cell_formula_units_Z   1
loop_
 _symmetry_equiv_pos_site_id
 _symmetry_equiv_pos_as_xyz
  1  'x, y, z'
loop_
 _atom_site_type_symbol
 _atom_site_label
 _atom_site_symmetry_multiplicity
 _atom_site_fract_x
 _atom_site_fract_y
 _atom_site_fract_z
 _atom_site_occupancy
  Mg  Mg0  1  0.00000000  0.50000000  0.00000000  1
  Mg  Mg1  1  0.00000000  0.50000000  0.50000000  1
  Mg  Mg2  1  0.50000000  0.00000000  0.25505900  1
  Mg  Mg3  1  0.50000000  0.00000000  0.74494100  1
  Mg  Mg4  1  0.50000000  0.50000000  0.25188200  1
  Mg  Mg5  1  0.50000000  0.50000000  0.74811800  1
  Mg  Mg6  1  0.50000000  0.24957500  0.00000000  1
  Mg  Mg7  1  0.50000000  0.24607100  0.50000000  1
  Mg  Mg8  1  0.50000000  0.75042500  0.00000000  1
  Mg  Mg9  1  0.50000000  0.75392900  0.50000000  1
  Mg  Mg10  1  0.00000000  0.24495900  0.25436000  1
  Mg  Mg11  1  0.00000000  0.24495900  0.74564000  1
  Mg  Mg12  1  0.00000000  0.75504100  0.25436000  1
  Mg  Mg13  1  0.00000000  0.75504100  0.74564000  1
  Al  Al0  1  0.00000000  0.00000000  0.00000000  1
  C  C0  1  0.00000000  0.00000000  0.50000000  1
  O  O0  1  0.00000000  0.24061400  0.00000000  1
  O  O1  1  0.00000000  0.25530200  0.50000000  1
  O  O2  1  0.00000000  0.75938600  0.00000000  1
  O  O3  1  0.00000000  0.74469800  0.50000000  1
  O  O4  1  0.50000000  0.24857100  0.25090200  1
  O  O5  1  0.50000000  0.24857100  0.74909800  1
  O  O6  1  0.50000000  0.75142900  0.25090200  1
  O  O7  1  0.50000000  0.75142900  0.74909800  1
  O  O8  1  0.50000000  0.00000000  0.00000000  1
  O  O9  1  0.50000000  0.00000000  0.50000000  1
  O  O10  1  0.50000000  0.50000000  0.00000000  1
  O  O11  1  0.50000000  0.50000000  0.50000000  1
  O  O12  1  0.00000000  0.00000000  0.20842500  1
  O  O13  1  0.00000000  0.00000000  0.79157500  1
  O  O14  1  0.00000000  0.50000000  0.24702300  1
  O  O15  1  0.00000000  0.50000000  0.75297700  1
loop_
_geom_bond_atom_site_label_1
_geom_bond_atom_site_label_2
_geom_bond_distance
_geom_bond_site_symmetry_2
Mg0 O10 2.101243 1_555
Mg0 O10 2.101243 1_455
Mg0 O14 2.143584 1_555
Mg0 O15 2.143584 1_554
Mg0 O2 2.186281 1_555
Mg0 O0 2.186281 1_555
Mg1 O3 2.062480 1_555
Mg1 O1 2.062480 1_555
Mg1 O11 2.101243 1_555
Mg1 O11 2.101243 1_455
Mg1 O15 2.195251 1_555
Mg1 O14 2.195251 1_555
Mg2 O4 2.095435 1_555
Mg2 O6 2.095435 1_545
Mg2 O9 2.125517 1_555
Mg2 O12 2.139855 1_655
Mg2 O12 2.139855 1_555
Mg2 O8 2.213318 1_555
Mg3 O7 2.095435 1_545
Mg3 O5 2.095435 1_555
Mg3 O9 2.125517 1_555
Mg3 O13 2.139855 1_655
Mg3 O13 2.139855 1_555
Mg3 O8 2.213318 1_556
Mg4 O14 2.101666 1_555
Mg4 O14 2.101666 1_655
Mg4 O6 2.119231 1_555
Mg4 O4 2.119231 1_555
Mg4 O11 2.153086 1_555
Mg4 O10 2.185749 1_555
Mg5 O15 2.101666 1_555
Mg5 O15 2.101666 1_655
Mg5 O7 2.119231 1_555
Mg5 O5 2.119231 1_555
Mg5 O11 2.153086 1_555
Mg5 O10 2.185749 1_556
Mg6 O0 2.102600 1_555
Mg6 O0 2.102600 1_655
Mg6 O8 2.103587 1_555
Mg6 O10 2.110751 1_555
Mg6 O4 2.177261 1_555
Mg6 O5 2.177261 1_554
Mg7 O9 2.074053 1_555
Mg7 O1 2.102682 1_655
Mg7 O1 2.102682 1_555
Mg7 O11 2.140285 1_555
Mg7 O5 2.161693 1_555
Mg7 O4 2.161693 1_555
Mg8 O2 2.102600 1_655
Mg8 O2 2.102600 1_555
Mg8 O8 2.103587 1_565
Mg8 O10 2.110751 1_555
Mg8 O6 2.177261 1_555
Mg8 O7 2.177261 1_554
Mg9 O9 2.074053 1_565
Mg9 O3 2.102682 1_555
Mg9 O3 2.102682 1_655
Mg9 O11 2.140285 1_555
Mg9 O7 2.161693 1_555
Mg9 O6 2.161693 1_555
Mg10 O4 2.101677 1_555
Mg10 O4 2.101677 1_455
Mg10 O12 2.102806 1_555
Mg10 O1 2.133365 1_555
Mg10 O14 2.150601 1_555
Mg10 O0 2.207556 1_555
Mg11 O5 2.101677 1_555
Mg11 O5 2.101677 1_455
Mg11 O13 2.102806 1_555
Mg11 O1 2.133365 1_555
Mg11 O15 2.150601 1_555
Mg11 O0 2.207556 1_556
Mg12 O6 2.101677 1_455
Mg12 O6 2.101677 1_555
Mg12 O12 2.102806 1_565
Mg12 O3 2.133365 1_555
Mg12 O14 2.150601 1_555
Mg12 O2 2.207556 1_555
Mg13 O7 2.101677 1_555
Mg13 O7 2.101677 1_455
Mg13 O13 2.102806 1_565
Mg13 O3 2.133365 1_555
Mg13 O15 2.150601 1_555
Mg13 O2 2.207556 1_556
Al0 O12 1.808644 1_555
Al0 O13 1.808644 1_554
Al0 O0 2.028057 1_555
Al0 O2 2.028057 1_545
Al0 O8 2.101243 1_555
Al0 O8 2.101243 1_455
C0 O9 2.101243 1_555
C0 O9 2.101243 1_455
C0 O1 2.151858 1_555
C0 O3 2.151858 1_545
