# generated using pymatgen
data_Se2S2O7
_symmetry_space_group_name_H-M   'P 1'
_cell_length_a   5.85324200
_cell_length_b   7.76474900
_cell_length_c   17.65941418
_cell_angle_alpha   70.46155128
_cell_angle_beta   90.00000000
_cell_angle_gamma   90.00000000
_symmetry_Int_Tables_number   1
_chemical_formula_structural   Se2S2O7
_chemical_formula_sum   'Se8 S8 O28'
_cell_volume   756.38591464
_cell_formula_units_Z   4
loop_
 _symmetry_equiv_pos_site_id
 _symmetry_equiv_pos_as_xyz
  1  'x, y, z'
loop_
 _atom_site_type_symbol
 _atom_site_label
 _atom_site_symmetry_multiplicity
 _atom_site_fract_x
 _atom_site_fract_y
 _atom_site_fract_z
 _atom_site_occupancy
  Se  Se0  1  0.78512200  0.92158800  0.56196600  1
  Se  Se1  1  0.28512200  0.07841200  0.93803400  1
  Se  Se2  1  0.21487800  0.07841200  0.43803400  1
  Se  Se3  1  0.71487800  0.92158800  0.06196600  1
  Se  Se4  1  0.03755100  0.79654500  0.49196100  1
  Se  Se5  1  0.53755100  0.20345500  0.00803900  1
  Se  Se6  1  0.96244900  0.20345500  0.50803900  1
  Se  Se7  1  0.46244900  0.79654500  0.99196100  1
  S  S0  1  0.55316600  0.40017600  0.61520200  1
  S  S1  1  0.05316600  0.59982400  0.88479800  1
  S  S2  1  0.44683400  0.59982400  0.38479800  1
  S  S3  1  0.94683400  0.40017600  0.11520200  1
  S  S4  1  0.84341000  0.21694600  0.75298800  1
  S  S5  1  0.34341000  0.78305400  0.74701200  1
  S  S6  1  0.15659000  0.78305400  0.24701200  1
  S  S7  1  0.65659000  0.21694600  0.25298800  1
  O  O0  1  0.58402900  0.25317200  0.58102500  1
  O  O1  1  0.08402900  0.74682800  0.91897500  1
  O  O2  1  0.41597100  0.74682800  0.41897500  1
  O  O3  1  0.91597100  0.25317200  0.08102500  1
  O  O4  1  0.32050600  0.46108100  0.61454200  1
  O  O5  1  0.82050600  0.53891900  0.88545800  1
  O  O6  1  0.67949400  0.53891900  0.38545800  1
  O  O7  1  0.17949400  0.46108100  0.11454200  1
  O  O8  1  0.72783000  0.54246900  0.58929100  1
  O  O9  1  0.22783000  0.45753100  0.91070900  1
  O  O10  1  0.27217000  0.45753100  0.41070900  1
  O  O11  1  0.77217000  0.54246900  0.08929100  1
  O  O12  1  0.59701600  0.29859900  0.71560900  1
  O  O13  1  0.09701600  0.70140100  0.78439100  1
  O  O14  1  0.40298400  0.70140100  0.28439100  1
  O  O15  1  0.90298400  0.29859900  0.21560900  1
  O  O16  1  0.92264800  0.09607000  0.71075500  1
  O  O17  1  0.42264800  0.90393000  0.78924500  1
  O  O18  1  0.07735200  0.90393000  0.28924500  1
  O  O19  1  0.57735200  0.09607000  0.21075500  1
  O  O20  1  0.79166400  0.12686500  0.83777700  1
  O  O21  1  0.29166400  0.87313500  0.66222300  1
  O  O22  1  0.20833600  0.87313500  0.16222300  1
  O  O23  1  0.70833600  0.12686500  0.33777700  1
  O  O24  1  0.00181700  0.36963700  0.74222600  1
  O  O25  1  0.50181700  0.63036300  0.75777400  1
  O  O26  1  0.99818300  0.63036300  0.25777400  1
  O  O27  1  0.49818300  0.36963700  0.24222600  1
loop_
_geom_bond_atom_site_label_1
_geom_bond_atom_site_label_2
_geom_bond_distance
_geom_bond_site_symmetry_2
Se0 Se6 2.319523 1_565
Se0 Se4 2.336013 1_655
Se1 Se7 2.319523 1_545
Se1 Se5 2.336013 1_556
Se2 Se4 2.319523 1_545
Se2 Se6 2.336013 1_455
Se3 Se5 2.319523 1_565
Se3 Se7 2.336013 1_554
O0 S0 1.469901 1_555
O0 Se6 2.655038 1_555
O1 S1 1.469901 1_555
O1 Se7 2.655038 1_555
O2 S2 1.469901 1_555
O2 Se4 2.655038 1_555
O3 S3 1.469901 1_555
O3 Se5 2.655038 1_555
O4 S0 1.440360 1_555
O5 S1 1.440360 1_655
O6 S2 1.440360 1_555
O7 S3 1.440360 1_455
O8 S0 1.461901 1_555
O9 S1 1.461901 1_555
O10 S2 1.461901 1_555
O11 S3 1.461901 1_555
O12 S4 1.624105 1_555
O12 S0 1.701915 1_555
O13 S5 1.624105 1_555
O13 S1 1.701915 1_555
O14 S6 1.624105 1_555
O14 S2 1.701915 1_555
O15 S7 1.624105 1_555
O15 S3 1.701915 1_555
O16 S4 1.456184 1_555
O17 S5 1.456184 1_555
O18 S6 1.456184 1_555
O19 S7 1.456184 1_555
O20 S4 1.456856 1_555
O21 S5 1.456856 1_555
O22 S6 1.456856 1_555
O23 S7 1.456856 1_555
O24 S4 1.466546 1_455
O25 S5 1.466546 1_555
O26 S6 1.466546 1_655
O27 S7 1.466546 1_555
