# generated using pymatgen
data_Ba2Sr3CaMg2(SiO4)4
_symmetry_space_group_name_H-M   'P 1'
_cell_length_a   5.54550730
_cell_length_b   5.54550730
_cell_length_c   14.08362500
_cell_angle_alpha   90.00000000
_cell_angle_beta   90.00000000
_cell_angle_gamma   119.99999168
_symmetry_Int_Tables_number   1
_chemical_formula_structural   Ba2Sr3CaMg2(SiO4)4
_chemical_formula_sum   'Ba2 Sr3 Ca1 Mg2 Si4 O16'
_cell_volume   375.08326169
_cell_formula_units_Z   1
loop_
 _symmetry_equiv_pos_site_id
 _symmetry_equiv_pos_as_xyz
  1  'x, y, z'
loop_
 _atom_site_type_symbol
 _atom_site_label
 _atom_site_symmetry_multiplicity
 _atom_site_fract_x
 _atom_site_fract_y
 _atom_site_fract_z
 _atom_site_occupancy
  Ba  Ba0  1  0.33333300  0.66666700  0.25117700  1
  Ba  Ba1  1  0.33333300  0.66666700  0.74930900  1
  Sr  Sr0  1  0.66666700  0.33333300  0.91878300  1
  Sr  Sr1  1  0.00000000  0.00000000  0.08151700  1
  Sr  Sr2  1  0.00000000  0.00000000  0.58031200  1
  Ca  Ca0  1  0.66666700  0.33333300  0.41586900  1
  Mg  Mg0  1  0.33333300  0.66666700  0.00058400  1
  Mg  Mg1  1  0.33333300  0.66666700  0.49917400  1
  Si  Si0  1  0.66666700  0.33333300  0.13769800  1
  Si  Si1  1  0.66666700  0.33333300  0.63352000  1
  Si  Si2  1  0.00000000  0.00000000  0.36457000  1
  Si  Si3  1  0.00000000  0.00000000  0.86501200  1
  O  O0  1  0.66666700  0.33333300  0.25362400  1
  O  O1  1  0.66666700  0.33333300  0.74837800  1
  O  O2  1  0.00000000  0.00000000  0.25008100  1
  O  O3  1  0.00000000  0.00000000  0.75017600  1
  O  O4  1  0.50867100  0.49132900  0.09013100  1
  O  O5  1  0.50842700  0.49157300  0.58676400  1
  O  O6  1  0.50867100  0.01734200  0.09013100  1
  O  O7  1  0.50842700  0.01685400  0.58676400  1
  O  O8  1  0.98265800  0.49132900  0.09013100  1
  O  O9  1  0.98314600  0.49157300  0.58676400  1
  O  O10  1  0.15845900  0.84154100  0.41136300  1
  O  O11  1  0.15847200  0.84152800  0.91181100  1
  O  O12  1  0.15845900  0.31691800  0.41136300  1
  O  O13  1  0.15847200  0.31694300  0.91181100  1
  O  O14  1  0.68308200  0.84154100  0.41136300  1
  O  O15  1  0.68305700  0.84152800  0.91181100  1
loop_
_geom_bond_atom_site_label_1
_geom_bond_atom_site_label_2
_geom_bond_distance
_geom_bond_site_symmetry_2
Ba0 O10 2.812626 1_555
Ba0 O12 2.812629 1_555
Ba0 O14 2.812629 1_555
Ba0 O6 2.825002 1_565
Ba0 O8 2.825002 1_455
Ba0 O4 2.825005 1_555
Ba0 O2 3.201734 1_565
Ba0 O2 3.201739 1_555
Ba0 O2 3.201739 1_665
Ba0 O0 3.201883 1_455
Ba0 O0 3.201883 1_565
Ba0 O0 3.201892 1_555
Ba1 O11 2.838782 1_555
Ba1 O15 2.838788 1_555
Ba1 O13 2.838788 1_555
Ba1 O7 2.840592 1_565
Ba1 O9 2.840592 1_455
Ba1 O5 2.840594 1_555
Ba1 O3 3.201720 1_565
Ba1 O1 3.201724 1_455
Ba1 O1 3.201724 1_565
Ba1 O3 3.201725 1_555
Ba1 O3 3.201725 1_665
Ba1 O1 3.201733 1_555
Ca0 O0 2.284998 1_555
Ca0 O12 2.774597 1_655
Ca0 O14 2.774597 1_545
Ca0 O10 2.774600 1_655
Ca0 O10 2.774600 1_545
Ca0 O12 2.774603 1_555
Ca0 O14 2.774603 1_555
Ca0 O9 2.846560 1_555
Ca0 O7 2.846560 1_555
Ca0 O5 2.846562 1_555
Mg0 O11 2.093807 1_554
Mg0 O15 2.093815 1_554
Mg0 O13 2.093815 1_554
Mg0 O6 2.103996 1_565
Mg0 O8 2.103996 1_455
Mg0 O4 2.104000 1_555
Mg1 O7 2.085702 1_565
Mg1 O9 2.085702 1_455
Mg1 O5 2.085705 1_555
Mg1 O10 2.085846 1_555
Mg1 O14 2.085850 1_555
Mg1 O12 2.085850 1_555
O0 Si0 1.632658 1_555
O1 Si1 1.617617 1_555
O1 Sr0 2.399920 1_555
O2 Si2 1.612420 1_555
O2 Sr1 2.373992 1_555
O3 Si3 1.617307 1_555
O3 Sr2 2.392301 1_555
O4 Si0 1.658854 1_555
O4 Sr1 2.776656 1_665
O4 Sr1 2.776656 1_555
O4 Sr0 2.850710 1_554
O5 Si1 1.656425 1_555
O5 Sr2 2.775423 1_555
O5 Sr2 2.775423 1_665
O6 Si0 1.658850 1_555
O6 Sr1 2.776656 1_655
O6 Sr1 2.776656 1_555
O6 Sr0 2.850708 1_554
O7 Si1 1.656421 1_555
O7 Sr2 2.775423 1_655
O7 Sr2 2.775423 1_555
O8 Si0 1.658850 1_555
O8 Sr1 2.776656 1_655
O8 Sr1 2.776656 1_665
O8 Sr0 2.850708 1_554
O9 Si1 1.656421 1_555
O9 Sr2 2.775423 1_655
O9 Sr2 2.775423 1_665
O10 Si2 1.658562 1_565
O10 Sr2 2.824560 1_565
O11 Si3 1.658711 1_565
O11 Sr0 2.775608 1_565
O11 Sr0 2.775608 1_455
O11 Sr1 2.833614 1_566
O12 Si2 1.658563 1_555
O12 Sr2 2.824560 1_555
O13 Si3 1.658706 1_555
O13 Sr0 2.775608 1_455
O13 Sr0 2.775608 1_555
O13 Sr1 2.833612 1_556
O14 Si2 1.658563 1_665
O14 Sr2 2.824560 1_665
O15 Si3 1.658706 1_665
O15 Sr0 2.775608 1_565
O15 Sr0 2.775608 1_555
O15 Sr1 2.833612 1_666
