# generated using pymatgen
data_Sm3B3O7
_symmetry_space_group_name_H-M   'P 1'
_cell_length_a   4.11781105
_cell_length_b   4.11781088
_cell_length_c   25.47972100
_cell_angle_alpha   90.00000000
_cell_angle_beta   90.00000000
_cell_angle_gamma   122.99466691
_symmetry_Int_Tables_number   1
_chemical_formula_structural   Sm3B3O7
_chemical_formula_sum   'Sm6 B6 O14'
_cell_volume   362.36407253
_cell_formula_units_Z   2
loop_
 _symmetry_equiv_pos_site_id
 _symmetry_equiv_pos_as_xyz
  1  'x, y, z'
loop_
 _atom_site_type_symbol
 _atom_site_label
 _atom_site_symmetry_multiplicity
 _atom_site_fract_x
 _atom_site_fract_y
 _atom_site_fract_z
 _atom_site_occupancy
  Sm  Sm0  1  0.00147900  0.99852100  0.16800700  1
  Sm  Sm1  1  0.00147900  0.99852100  0.33199300  1
  Sm  Sm2  1  0.00477600  0.99522400  0.66766400  1
  Sm  Sm3  1  0.00477600  0.99522400  0.83233600  1
  Sm  Sm4  1  0.99925500  0.00074500  0.00488100  1
  Sm  Sm5  1  0.99925500  0.00074500  0.49511900  1
  B  B0  1  0.24596600  0.75403400  0.41404700  1
  B  B1  1  0.24596600  0.75403400  0.08595300  1
  B  B2  1  0.25343300  0.74656700  0.75000000  1
  B  B3  1  0.76349000  0.23651000  0.25000000  1
  B  B4  1  0.64777500  0.35222500  0.58111700  1
  B  B5  1  0.64777500  0.35222500  0.91888300  1
  O  O0  1  0.34496900  0.65503100  0.46083000  1
  O  O1  1  0.34109300  0.65890700  0.13343000  1
  O  O2  1  0.35066500  0.64933500  0.79726800  1
  O  O3  1  0.34496900  0.65503100  0.03917000  1
  O  O4  1  0.34109300  0.65890700  0.36657000  1
  O  O5  1  0.35066500  0.64933500  0.70273200  1
  O  O6  1  0.03150600  0.96849400  0.58131100  1
  O  O7  1  0.66802000  0.33198000  0.29733600  1
  O  O8  1  0.67975300  0.32024700  0.63222700  1
  O  O9  1  0.66802000  0.33198000  0.20266400  1
  O  O10  1  0.67628200  0.32371800  0.97025900  1
  O  O11  1  0.67628200  0.32371800  0.52974100  1
  O  O12  1  0.67975300  0.32024700  0.86777300  1
  O  O13  1  0.03150600  0.96849400  0.91868900  1
loop_
_geom_bond_atom_site_label_1
_geom_bond_atom_site_label_2
_geom_bond_distance
_geom_bond_site_symmetry_2
B0 O0 1.390797 1_555
B0 O4 1.391895 1_555
B0 Sm5 2.730436 1_465
B0 Sm1 2.738988 1_555
B1 O3 1.390797 1_555
B1 O1 1.391895 1_555
B1 Sm4 2.730436 1_465
B1 Sm0 2.738988 1_555
B2 O2 1.394893 1_555
B2 O5 1.394893 1_555
B2 Sm3 2.764031 1_555
B2 Sm2 2.764031 1_555
B3 O9 1.390006 1_555
B3 O7 1.390006 1_555
B3 Sm1 2.707645 1_645
B3 Sm0 2.707645 1_645
B4 O8 1.322674 1_555
B4 O11 1.325205 1_555
B4 O6 2.137621 1_655
B4 O6 2.137621 1_545
B5 O12 1.322674 1_555
B5 O10 1.325205 1_555
B5 O13 2.137621 1_655
B5 O13 2.137621 1_545
O0 Sm5 2.423112 1_455
O0 Sm5 2.423112 1_565
O0 Sm5 2.650227 1_465
O1 Sm0 2.446404 1_545
O1 Sm0 2.446404 1_655
O1 Sm0 2.611054 1_555
O2 Sm3 2.429757 1_545
O2 Sm3 2.429757 1_655
O2 Sm3 2.658029 1_555
O3 Sm4 2.423112 1_455
O3 Sm4 2.423112 1_565
O3 Sm4 2.650227 1_465
O4 Sm1 2.446404 1_545
O4 Sm1 2.446404 1_655
O4 Sm1 2.611054 1_555
O5 Sm2 2.429757 1_545
O5 Sm2 2.429757 1_655
O5 Sm2 2.658029 1_555
O6 Sm5 2.208517 1_465
O6 Sm2 2.208739 1_555
O7 Sm1 2.468580 1_655
O7 Sm1 2.468580 1_545
O7 Sm1 2.569864 1_645
O8 Sm2 2.506051 1_655
O8 Sm2 2.506051 1_545
O8 Sm2 2.519667 1_645
O9 Sm0 2.468580 1_655
O9 Sm0 2.468580 1_545
O9 Sm0 2.569864 1_645
O10 Sm4 2.498414 1_556
O10 Sm4 2.506197 1_566
O10 Sm4 2.506197 1_456
O11 Sm5 2.498414 1_555
O11 Sm5 2.506197 1_565
O11 Sm5 2.506197 1_455
O12 Sm3 2.506051 1_655
O12 Sm3 2.506051 1_545
O12 Sm3 2.519667 1_645
O13 Sm4 2.208517 1_466
O13 Sm3 2.208739 1_555
