# generated using pymatgen
data_Ba2LiSmCoCu2O7
_symmetry_space_group_name_H-M   'P 1'
_cell_length_a   3.97471100
_cell_length_b   3.95968400
_cell_length_c   12.99687200
_cell_angle_alpha   90.00000000
_cell_angle_beta   90.00000000
_cell_angle_gamma   90.00000000
_symmetry_Int_Tables_number   1
_chemical_formula_structural   Ba2LiSmCoCu2O7
_chemical_formula_sum   'Ba2 Li1 Sm1 Co1 Cu2 O7'
_cell_volume   204.55256383
_cell_formula_units_Z   1
loop_
 _symmetry_equiv_pos_site_id
 _symmetry_equiv_pos_as_xyz
  1  'x, y, z'
loop_
 _atom_site_type_symbol
 _atom_site_label
 _atom_site_symmetry_multiplicity
 _atom_site_fract_x
 _atom_site_fract_y
 _atom_site_fract_z
 _atom_site_occupancy
  Ba  Ba0  1  0.50000000  0.50000000  0.10877600  1
  Ba  Ba1  1  0.50000000  0.50000000  0.79343300  1
  Li  Li0  1  0.00000000  0.50000000  0.26852400  1
  Sm  Sm0  1  0.50000000  0.50000000  0.51066000  1
  Co  Co0  1  0.00000000  0.00000000  0.97698800  1
  Cu  Cu0  1  0.00000000  0.00000000  0.39940100  1
  Cu  Cu1  1  0.00000000  0.00000000  0.63506600  1
  O  O0  1  0.50000000  0.00000000  0.39825100  1
  O  O1  1  0.50000000  0.00000000  0.62920600  1
  O  O2  1  0.00000000  0.00000000  0.13049900  1
  O  O3  1  0.00000000  0.00000000  0.83904500  1
  O  O4  1  0.00000000  0.50000000  0.40461000  1
  O  O5  1  0.00000000  0.50000000  0.62871100  1
  O  O6  1  0.00000000  0.50000000  0.98238600  1
loop_
_geom_bond_atom_site_label_1
_geom_bond_atom_site_label_2
_geom_bond_distance
_geom_bond_site_symmetry_2
Ba0 O6 2.578364 1_554
Ba0 O6 2.578364 1_654
Ba0 O2 2.819409 1_555
Ba0 O2 2.819409 1_655
Ba0 O2 2.819409 1_565
Ba0 O2 2.819409 1_665
Ba1 O3 2.867191 1_555
Ba1 O3 2.867191 1_655
Ba1 O3 2.867191 1_665
Ba1 O3 2.867191 1_565
Ba1 O1 2.911288 1_555
Ba1 O1 2.911288 1_565
Ba1 O5 2.921114 1_555
Ba1 O5 2.921114 1_655
Ba1 O6 3.159197 1_555
Ba1 O6 3.159197 1_655
Li0 O4 1.768692 1_555
Co0 O3 1.792828 1_555
Co0 O6 1.981085 1_545
Co0 O6 1.981085 1_555
Co0 O2 1.995163 1_556
Cu0 O4 1.980999 1_555
Cu0 O4 1.980999 1_545
Cu0 O0 1.987412 1_455
Cu0 O0 1.987412 1_555
Cu1 O5 1.981564 1_545
Cu1 O5 1.981564 1_555
Cu1 O1 1.988814 1_555
Cu1 O1 1.988814 1_455
O0 Sm0 2.460527 1_545
O0 Sm0 2.460527 1_555
O1 Sm0 2.508708 1_545
O1 Sm0 2.508708 1_555
O4 Sm0 2.418542 1_555
O4 Sm0 2.418542 1_455
O5 Sm0 2.510705 1_455
O5 Sm0 2.510705 1_555
