# generated using pymatgen
data_NbSe2
_symmetry_space_group_name_H-M   'P 1'
_cell_length_a   3.50765716
_cell_length_b   3.50765716
_cell_length_c   26.75629520
_cell_angle_alpha   90.00000000
_cell_angle_beta   90.00000000
_cell_angle_gamma   119.99363600
_symmetry_Int_Tables_number   1
_chemical_formula_structural   NbSe2
_chemical_formula_sum   'Nb4 Se8'
_cell_volume   285.11412532
_cell_formula_units_Z   4
loop_
 _symmetry_equiv_pos_site_id
 _symmetry_equiv_pos_as_xyz
  1  'x, y, z'
loop_
 _atom_site_type_symbol
 _atom_site_label
 _atom_site_symmetry_multiplicity
 _atom_site_fract_x
 _atom_site_fract_y
 _atom_site_fract_z
 _atom_site_occupancy
  Nb  Nb0  1  0.22607683  0.77392317  -0.00000000  1
  Nb  Nb1  1  -0.00086721  0.00086721  0.25564603  1
  Nb  Nb2  1  0.66490963  0.33509037  0.50000000  1
  Nb  Nb3  1  -0.00086721  0.00086721  0.74435397  1
  Se  Se0  1  0.89282662  0.10717338  0.06246639  1
  Se  Se1  1  0.33203756  0.66796244  0.19382623  1
  Se  Se2  1  0.66579988  0.33420012  0.31736387  1
  Se  Se3  1  0.33135342  0.66864658  0.43770808  1
  Se  Se4  1  0.33135342  0.66864658  0.56229192  1
  Se  Se5  1  0.66579988  0.33420012  0.68263613  1
  Se  Se6  1  0.33203756  0.66796244  0.80617377  1
  Se  Se7  1  0.89282662  0.10717338  0.93753361  1
loop_
_geom_bond_atom_site_label_1
_geom_bond_atom_site_label_2
_geom_bond_distance
_geom_bond_site_symmetry_2
Nb0 Se7 2.625335 1_464
Nb0 Se0 2.625335 1_465
Nb0 Se7 2.626070 1_454
Nb0 Se7 2.626070 1_564
Nb0 Se0 2.626070 1_565
Nb0 Se0 2.626070 1_455
Nb1 Se1 2.612731 1_545
Nb1 Se2 2.613020 1_455
Nb1 Se2 2.613174 1_445
Nb1 Se2 2.613174 1_555
Nb1 Se1 2.615907 1_555
Nb1 Se1 2.615907 1_445
Nb2 Se4 2.622384 1_545
Nb2 Se4 2.622384 1_655
Nb2 Se3 2.622384 1_545
Nb2 Se3 2.622384 1_655
Nb2 Se4 2.623802 1_555
Nb2 Se3 2.623802 1_555
Nb3 Se6 2.612731 1_545
Nb3 Se5 2.613020 1_455
Nb3 Se5 2.613174 1_555
Nb3 Se5 2.613174 1_445
Nb3 Se6 2.615907 1_445
Nb3 Se6 2.615907 1_555
