# generated using pymatgen
data_BaCe2FeS5
_symmetry_space_group_name_H-M   'P 1'
_cell_length_a   8.68659492
_cell_length_b   8.68659492
_cell_length_c   8.68659492
_cell_angle_alpha   126.57918051
_cell_angle_beta   126.57918051
_cell_angle_gamma   78.93828446
_symmetry_Int_Tables_number   1
_chemical_formula_structural   BaCe2FeS5
_chemical_formula_sum   'Ba2 Ce4 Fe2 S10'
_cell_volume   408.91281568
_cell_formula_units_Z   2
loop_
 _symmetry_equiv_pos_site_id
 _symmetry_equiv_pos_as_xyz
  1  'x, y, z'
loop_
 _atom_site_type_symbol
 _atom_site_label
 _atom_site_symmetry_multiplicity
 _atom_site_fract_x
 _atom_site_fract_y
 _atom_site_fract_z
 _atom_site_occupancy
  Ba  Ba0  1  0.75000000  0.75000000  0.00000000  1
  Ba  Ba1  1  0.25000000  0.25000000  0.00000000  1
  Ce  Ce0  1  0.83918600  0.66081400  0.50000000  1
  Ce  Ce1  1  0.66081400  0.16081400  0.82162700  1
  Ce  Ce2  1  0.33918600  0.83918600  0.17837300  1
  Ce  Ce3  1  0.16081400  0.33918600  0.50000000  1
  Fe  Fe0  1  0.25000000  0.75000000  0.50000000  1
  Fe  Fe1  1  0.75000000  0.25000000  0.50000000  1
  S  S0  1  0.98547300  0.48547300  0.20106600  1
  S  S1  1  0.71559300  0.21559300  0.20106600  1
  S  S2  1  0.01452700  0.51452700  0.79893400  1
  S  S3  1  0.51452700  0.71559300  0.50000000  1
  S  S4  1  0.21559300  0.01452700  0.50000000  1
  S  S5  1  0.48547300  0.28440700  0.50000000  1
  S  S6  1  0.78440700  0.98547300  0.50000000  1
  S  S7  1  0.28440700  0.78440700  0.79893400  1
  S  S8  1  0.00000000  0.00000000  0.00000000  1
  S  S9  1  0.50000000  0.50000000  0.00000000  1
loop_
_geom_bond_atom_site_label_1
_geom_bond_atom_site_label_2
_geom_bond_distance
_geom_bond_site_symmetry_2
Ba0 S1 3.352057 1_565
Ba0 S4 3.352057 1_665
Ba0 S3 3.352057 1_554
Ba0 S0 3.352057 1_555
Ba0 S6 3.352057 1_555
Ba0 S5 3.352057 1_554
Ba0 S2 3.352057 1_654
Ba0 S7 3.352057 1_554
Ba0 S9 3.352882 1_555
Ba0 S8 3.352882 1_665
Ba1 S1 3.352057 1_555
Ba1 S3 3.352057 1_555
Ba1 S4 3.352057 1_554
Ba1 S7 3.352057 1_544
Ba1 S6 3.352057 1_444
Ba1 S2 3.352057 1_554
Ba1 S5 3.352057 1_555
Ba1 S0 3.352057 1_455
Ba1 S8 3.352882 1_555
Ba1 S9 3.352882 1_555
Ce0 S6 2.768554 1_555
Ce0 S3 2.768554 1_555
Ce0 S8 2.931295 1_666
Ce0 S9 2.931295 1_555
Ce0 S7 3.025523 1_655
Ce0 S0 3.025523 1_555
Ce0 S2 3.025523 1_655
Ce0 S1 3.025523 1_555
Ce1 S0 2.768554 1_556
Ce1 S1 2.768563 1_556
Ce1 S8 2.931296 1_656
Ce1 S9 2.931296 1_556
Ce1 S6 3.025516 1_545
Ce1 S5 3.025516 1_555
Ce1 S3 3.025524 1_545
Ce1 S4 3.025524 1_555
Ce2 S2 2.768554 1_554
Ce2 S7 2.768563 1_554
Ce2 S8 2.931296 1_565
Ce2 S9 2.931296 1_555
Ce2 S3 3.025516 1_555
Ce2 S4 3.025516 1_565
Ce2 S5 3.025524 1_565
Ce2 S6 3.025524 1_555
Ce3 S4 2.768554 1_555
Ce3 S5 2.768554 1_555
Ce3 S9 2.931295 1_556
Ce3 S8 2.931295 1_555
Ce3 S2 3.025523 1_555
Ce3 S0 3.025523 1_455
Ce3 S1 3.025523 1_455
Ce3 S7 3.025523 1_555
Fe0 S7 2.259614 1_555
Fe0 S4 2.259614 1_565
Fe0 S3 2.259614 1_555
Fe0 S0 2.259614 1_455
Fe1 S1 2.259614 1_555
Fe1 S2 2.259614 1_655
Fe1 S5 2.259614 1_555
Fe1 S6 2.259614 1_545
