# generated using pymatgen
data_Be3Cr2(SiO4)3
_symmetry_space_group_name_H-M   'P 1'
_cell_length_a   7.50964800
_cell_length_b   8.00805200
_cell_length_c   15.92519718
_cell_angle_alpha   59.93898479
_cell_angle_beta   90.00000000
_cell_angle_gamma   90.00000000
_symmetry_Int_Tables_number   1
_chemical_formula_structural   Be3Cr2(SiO4)3
_chemical_formula_sum   'Be12 Cr8 Si12 O48'
_cell_volume   828.88555218
_cell_formula_units_Z   4
loop_
 _symmetry_equiv_pos_site_id
 _symmetry_equiv_pos_as_xyz
  1  'x, y, z'
loop_
 _atom_site_type_symbol
 _atom_site_label
 _atom_site_symmetry_multiplicity
 _atom_site_fract_x
 _atom_site_fract_y
 _atom_site_fract_z
 _atom_site_occupancy
  Be  Be0  1  0.85535200  0.80849100  0.76494300  1
  Be  Be1  1  0.65019400  0.17301600  0.40174100  1
  Be  Be2  1  0.15019400  0.82698400  0.09825900  1
  Be  Be3  1  0.34980600  0.82698400  0.59825900  1
  Be  Be4  1  0.84980600  0.17301600  0.90174100  1
  Be  Be5  1  0.14385900  0.47083200  0.41433200  1
  Be  Be6  1  0.64385900  0.52916800  0.08566800  1
  Be  Be7  1  0.85614100  0.52916800  0.58566800  1
  Be  Be8  1  0.35614100  0.47083200  0.91433200  1
  Be  Be9  1  0.64464800  0.80849100  0.26494300  1
  Be  Be10  1  0.14464800  0.19150900  0.23505700  1
  Be  Be11  1  0.35535200  0.19150900  0.73505700  1
  Cr  Cr0  1  0.44984800  0.16663700  0.08869400  1
  Cr  Cr1  1  0.05015200  0.16663700  0.58869400  1
  Cr  Cr2  1  0.55015200  0.83336300  0.91130600  1
  Cr  Cr3  1  0.94984800  0.83336300  0.41130600  1
  Cr  Cr4  1  0.56155100  0.83108900  0.42381700  1
  Cr  Cr5  1  0.06155100  0.16891100  0.07618300  1
  Cr  Cr6  1  0.43844900  0.16891100  0.57618300  1
  Cr  Cr7  1  0.93844900  0.83108900  0.92381700  1
  Si  Si0  1  0.23527200  0.80319700  0.76684400  1
  Si  Si1  1  0.73527200  0.19680300  0.73315600  1
  Si  Si2  1  0.76472800  0.19680300  0.23315600  1
  Si  Si3  1  0.26472800  0.80319700  0.26684400  1
  Si  Si4  1  0.73700200  0.46785200  0.91924400  1
  Si  Si5  1  0.23700200  0.53214800  0.58075600  1
  Si  Si6  1  0.26299800  0.53214800  0.08075600  1
  Si  Si7  1  0.76299800  0.46785200  0.41924400  1
  Si  Si8  1  0.23819500  0.15955500  0.90127600  1
  Si  Si9  1  0.73819500  0.84044500  0.59872400  1
  Si  Si10  1  0.76180500  0.84044500  0.09872400  1
  Si  Si11  1  0.26180500  0.15955500  0.40127600  1
  O  O0  1  0.11690200  0.71202800  0.03581700  1
  O  O1  1  0.04462500  0.78058000  0.82343800  1
  O  O2  1  0.54462500  0.21942000  0.67656200  1
  O  O3  1  0.95537500  0.21942000  0.17656200  1
  O  O4  1  0.45537500  0.78058000  0.32343800  1
  O  O5  1  0.54389200  0.35561300  0.95909300  1
  O  O6  1  0.04389200  0.64438700  0.54090700  1
  O  O7  1  0.45610800  0.64438700  0.04090700  1
  O  O8  1  0.95610800  0.35561300  0.45909300  1
  O  O9  1  0.03883300  0.08592900  0.88835800  1
  O  O10  1  0.53883300  0.91407100  0.61164200  1
  O  O11  1  0.96116700  0.91407100  0.11164200  1
  O  O12  1  0.11997400  0.06460900  0.35591100  1
  O  O13  1  0.61997400  0.93539100  0.14408900  1
  O  O14  1  0.88002600  0.93539100  0.64408900  1
  O  O15  1  0.38002600  0.06460900  0.85591100  1
  O  O16  1  0.61690200  0.28797200  0.46418300  1
  O  O17  1  0.46116700  0.08592900  0.38835800  1
  O  O18  1  0.38309800  0.71202800  0.53581700  1
  O  O19  1  0.88309800  0.28797200  0.96418300  1
  O  O20  1  0.75938700  0.94446600  0.47533100  1
  O  O21  1  0.61402500  0.29010000  0.14466600  1
  O  O22  1  0.88597500  0.29010000  0.64466600  1
  O  O23  1  0.38597500  0.70990000  0.85533400  1
  O  O24  1  0.73720800  0.26983900  0.80913100  1
  O  O25  1  0.23720800  0.73016100  0.69086900  1
  O  O26  1  0.26279200  0.73016100  0.19086900  1
  O  O27  1  0.76279200  0.26983900  0.30913100  1
  O  O28  1  0.74777800  0.62130400  0.80706700  1
  O  O29  1  0.24777800  0.37869600  0.69293300  1
  O  O30  1  0.25222200  0.37869600  0.19293300  1
  O  O31  1  0.75222200  0.62130400  0.30706700  1
  O  O32  1  0.24835500  0.38331400  0.86464900  1
  O  O33  1  0.74835500  0.61668600  0.63535100  1
  O  O34  1  0.75164500  0.61668600  0.13535100  1
  O  O35  1  0.25164500  0.38331400  0.36464900  1
  O  O36  1  0.75578600  0.95132100  0.80559000  1
  O  O37  1  0.25578600  0.04867900  0.69441000  1
  O  O38  1  0.24421400  0.04867900  0.19441000  1
  O  O39  1  0.74421400  0.95132100  0.30559000  1
  O  O40  1  0.75010700  0.60837300  0.97221600  1
  O  O41  1  0.25010700  0.39162700  0.52778400  1
  O  O42  1  0.24989300  0.39162700  0.02778400  1
  O  O43  1  0.74989300  0.60837300  0.47221600  1
  O  O44  1  0.74061300  0.94446600  0.97533100  1
  O  O45  1  0.24061300  0.05553400  0.52466900  1
  O  O46  1  0.25938700  0.05553400  0.02466900  1
  O  O47  1  0.11402500  0.70990000  0.35533400  1
loop_
_geom_bond_atom_site_label_1
_geom_bond_atom_site_label_2
_geom_bond_distance
_geom_bond_site_symmetry_2
Be0 O28 1.530426 1_555
Be0 O1 1.652102 1_655
Be0 O14 1.676832 1_555
Be0 O36 1.740139 1_555
Be1 O27 1.531558 1_555
Be1 O17 1.641874 1_555
Be1 O16 1.678065 1_555
Be1 O20 1.801870 1_545
Be2 O26 1.531558 1_555
Be2 O11 1.641874 1_455
Be2 O0 1.678065 1_555
Be2 O46 1.801870 1_565
Be3 O25 1.531558 1_555
Be3 O10 1.641874 1_555
Be3 O18 1.678065 1_555
Be3 O45 1.801870 1_565
Be4 O24 1.531558 1_555
Be4 O9 1.641874 1_655
Be4 O19 1.678065 1_555
Be4 O44 1.801870 1_545
Be5 O35 1.525756 1_555
Be5 O8 1.639658 1_455
Be5 O47 1.672150 1_555
Be5 O41 1.776279 1_555
Be6 O34 1.525756 1_555
Be6 O7 1.639658 1_555
Be6 O21 1.672150 1_555
Be6 O40 1.776279 1_554
Be7 O33 1.525756 1_555
Be7 O6 1.639658 1_655
Be7 O22 1.672150 1_555
Be7 O43 1.776279 1_555
Be8 O32 1.525756 1_555
Be8 O5 1.639658 1_555
Be8 O23 1.672150 1_555
Be8 O42 1.776279 1_556
Be9 O31 1.530426 1_555
Be9 O4 1.652102 1_555
Be9 O13 1.676832 1_555
Be9 O39 1.740139 1_555
Be10 O30 1.530426 1_555
Be10 O3 1.652102 1_455
Be10 O12 1.676832 1_555
Be10 O38 1.740139 1_555
Be11 O29 1.530426 1_555
Be11 O2 1.652102 1_555
Be11 O15 1.676832 1_555
Be11 O37 1.740139 1_555
Cr0 O5 1.979787 1_554
Cr0 O21 2.043292 1_555
Cr0 O13 2.050142 1_545
Cr0 O38 2.125575 1_555
Cr0 O42 2.165875 1_555
Cr0 O46 2.187645 1_555
Cr1 O8 1.979787 1_455
Cr1 O22 2.043292 1_455
Cr1 O14 2.050142 1_445
Cr1 O37 2.125575 1_555
Cr1 O41 2.165875 1_555
Cr1 O45 2.187645 1_555
Cr2 O7 1.979787 1_556
Cr2 O23 2.043292 1_555
Cr2 O15 2.050142 1_565
Cr2 O36 2.125575 1_555
Cr2 O40 2.165875 1_555
Cr2 O44 2.187645 1_555
Cr3 O6 1.979787 1_655
Cr3 O47 2.043292 1_655
Cr3 O12 2.050142 1_665
Cr3 O39 2.125575 1_555
Cr3 O43 2.165875 1_555
Cr3 O20 2.187645 1_555
Cr4 O17 1.974179 1_565
Cr4 O4 2.000628 1_555
Cr4 O18 2.045132 1_555
Cr4 O43 2.097211 1_555
Cr4 O20 2.109691 1_555
Cr4 O39 2.130127 1_555
Cr5 O11 1.974179 1_445
Cr5 O3 2.000628 1_455
Cr5 O19 2.045132 1_454
Cr5 O42 2.097211 1_555
Cr5 O46 2.109691 1_555
Cr5 O38 2.130127 1_555
Cr6 O10 1.974179 1_545
Cr6 O2 2.000628 1_555
Cr6 O16 2.045132 1_555
Cr6 O41 2.097211 1_555
Cr6 O45 2.109691 1_555
Cr6 O37 2.130127 1_555
Cr7 O9 1.974179 1_665
Cr7 O1 2.000628 1_655
Cr7 O0 2.045132 1_656
Cr7 O40 2.097211 1_555
Cr7 O44 2.109691 1_555
Cr7 O36 2.130127 1_555
O0 Si6 1.660743 1_555
O1 Si0 1.652663 1_555
O2 Si1 1.652663 1_555
O3 Si2 1.652663 1_555
O4 Si3 1.652663 1_555
O5 Si4 1.655957 1_555
O6 Si5 1.655957 1_555
O7 Si6 1.655957 1_555
O8 Si7 1.655957 1_555
O9 Si8 1.659184 1_555
O10 Si9 1.659184 1_555
O11 Si10 1.659184 1_555
O12 Si11 1.668768 1_555
O13 Si10 1.668768 1_555
O14 Si9 1.668768 1_555
O15 Si8 1.668768 1_555
O16 Si7 1.660743 1_555
O17 Si11 1.659184 1_555
O18 Si5 1.660743 1_555
O19 Si4 1.660743 1_555
O20 Si9 1.714863 1_555
O21 Si2 1.664361 1_555
O22 Si1 1.664361 1_555
O23 Si0 1.664361 1_555
O24 Si1 1.585921 1_555
O25 Si0 1.585921 1_555
O26 Si3 1.585921 1_555
O27 Si2 1.585921 1_555
O28 Si4 1.583880 1_555
O29 Si5 1.583880 1_555
O30 Si6 1.583880 1_555
O31 Si7 1.583880 1_555
O32 Si8 1.584219 1_555
O33 Si9 1.584219 1_555
O34 Si10 1.584219 1_555
O35 Si11 1.584219 1_555
O36 Si1 1.716692 1_565
O37 Si0 1.716692 1_545
O38 Si3 1.716692 1_545
O39 Si2 1.716692 1_565
O40 Si4 1.714255 1_555
O41 Si5 1.714255 1_555
O42 Si6 1.714255 1_555
O43 Si7 1.714255 1_555
O44 Si10 1.714863 1_556
O45 Si11 1.714863 1_555
O46 Si8 1.714863 1_554
O47 Si3 1.664361 1_555
