# generated using pymatgen
data_Hf6CCl14
_symmetry_space_group_name_H-M   'P 1'
_cell_length_a   9.41557961
_cell_length_b   9.41557961
_cell_length_c   11.41257510
_cell_angle_alpha   90.00000000
_cell_angle_beta   90.00000000
_cell_angle_gamma   95.91449319
_symmetry_Int_Tables_number   1
_chemical_formula_structural   Hf6CCl14
_chemical_formula_sum   'Hf12 C2 Cl28'
_cell_volume   1006.37479101
_cell_formula_units_Z   2
loop_
 _symmetry_equiv_pos_site_id
 _symmetry_equiv_pos_as_xyz
  1  'x, y, z'
loop_
 _atom_site_type_symbol
 _atom_site_label
 _atom_site_symmetry_multiplicity
 _atom_site_fract_x
 _atom_site_fract_y
 _atom_site_fract_z
 _atom_site_occupancy
  Hf  Hf0  1  0.95360468  0.18297642  0.11693050  1
  Hf  Hf1  1  0.04639532  0.81702358  0.88306950  1
  Hf  Hf2  1  0.54639532  0.31702358  0.61693050  1
  Hf  Hf3  1  0.68297642  0.45360468  0.38306950  1
  Hf  Hf4  1  0.45360468  0.68297642  0.38306950  1
  Hf  Hf5  1  0.31702358  0.54639532  0.61693050  1
  Hf  Hf6  1  0.81702358  0.04639532  0.88306950  1
  Hf  Hf7  1  0.18297642  0.95360468  0.11693050  1
  Hf  Hf8  1  0.35433039  0.35433039  0.39540196  1
  Hf  Hf9  1  0.64566961  0.64566961  0.60459804  1
  Hf  Hf10  1  0.14566961  0.14566961  0.89540196  1
  Hf  Hf11  1  0.85433039  0.85433039  0.10459804  1
  C  C0  1  -0.00000000  0.00000000  -0.00000000  1
  C  C1  1  0.50000000  0.50000000  0.50000000  1
  Cl  Cl0  1  0.28705535  0.53388187  0.25162042  1
  Cl  Cl1  1  0.71294465  0.46611813  0.74837958  1
  Cl  Cl2  1  0.21294465  0.96611813  0.75162042  1
  Cl  Cl3  1  0.03388187  0.78705535  0.24837958  1
  Cl  Cl4  1  0.78705535  0.03388187  0.24837958  1
  Cl  Cl5  1  0.96611813  0.21294465  0.75162042  1
  Cl  Cl6  1  0.46611813  0.71294465  0.74837958  1
  Cl  Cl7  1  0.53388187  0.28705535  0.25162042  1
  Cl  Cl8  1  0.11662927  0.36515095  0.01003166  1
  Cl  Cl9  1  0.88337073  0.63484905  0.98996834  1
  Cl  Cl10  1  0.38337073  0.13484905  0.51003166  1
  Cl  Cl11  1  0.86515095  0.61662927  0.48996834  1
  Cl  Cl12  1  0.61662927  0.86515095  0.48996834  1
  Cl  Cl13  1  0.13484905  0.38337073  0.51003166  1
  Cl  Cl14  1  0.63484905  0.88337073  0.98996834  1
  Cl  Cl15  1  0.36515095  0.11662927  0.01003166  1
  Cl  Cl16  1  0.89957071  0.39957071  0.25000000  1
  Cl  Cl17  1  0.10042929  0.60042929  0.75000000  1
  Cl  Cl18  1  0.60042929  0.10042929  0.75000000  1
  Cl  Cl19  1  0.39957071  0.89957071  0.25000000  1
  Cl  Cl20  1  0.74986640  0.25013360  -0.00000000  1
  Cl  Cl21  1  0.25013360  0.74986640  -0.00000000  1
  Cl  Cl22  1  0.75013360  0.24986640  0.50000000  1
  Cl  Cl23  1  0.24986640  0.75013360  0.50000000  1
  Cl  Cl24  1  0.15591607  0.15591607  0.26379336  1
  Cl  Cl25  1  0.84408393  0.84408393  0.73620664  1
  Cl  Cl26  1  0.34408393  0.34408393  0.76379336  1
  Cl  Cl27  1  0.65591607  0.65591607  0.23620664  1
loop_
_geom_bond_atom_site_label_1
_geom_bond_atom_site_label_2
_geom_bond_distance
_geom_bond_site_symmetry_2
C0 Hf10 2.190818 1_554
C0 Hf11 2.190818 1_445
C0 Hf0 2.257189 1_455
C0 Hf7 2.257189 1_545
C0 Hf1 2.257189 1_544
C0 Hf6 2.257189 1_454
C1 Hf9 2.190818 1_555
C1 Hf8 2.190818 1_555
C1 Hf3 2.257189 1_555
C1 Hf2 2.257189 1_555
C1 Hf4 2.257189 1_555
C1 Hf5 2.257189 1_555
Cl0 Hf8 2.484473 1_555
Cl0 Hf4 2.495324 1_555
Cl1 Hf9 2.484473 1_555
Cl1 Hf2 2.495324 1_555
Cl2 Hf10 2.484473 1_565
Cl2 Hf1 2.495324 1_555
Cl3 Hf11 2.484473 1_455
Cl3 Hf7 2.495324 1_555
Cl4 Hf11 2.484473 1_545
Cl4 Hf0 2.495324 1_555
Cl5 Hf10 2.484473 1_655
Cl5 Hf6 2.495324 1_555
Cl6 Hf9 2.484473 1_555
Cl6 Hf5 2.495324 1_555
Cl7 Hf8 2.484473 1_555
Cl7 Hf3 2.495324 1_555
Cl8 Hf10 2.484605 1_554
Cl8 Hf0 2.498817 1_455
Cl9 Hf11 2.484605 1_556
Cl9 Hf1 2.498817 1_655
Cl10 Hf8 2.484605 1_555
Cl10 Hf2 2.498817 1_555
Cl11 Hf9 2.484605 1_555
Cl11 Hf3 2.498817 1_555
Cl12 Hf9 2.484605 1_555
Cl12 Hf4 2.498817 1_555
Cl13 Hf8 2.484605 1_555
Cl13 Hf5 2.498817 1_555
Cl14 Hf11 2.484605 1_556
Cl14 Hf6 2.498817 1_565
Cl15 Hf10 2.484605 1_554
Cl15 Hf7 2.498817 1_545
Cl16 Hf3 2.634009 1_555
Cl16 Hf0 2.634009 1_555
Cl17 Hf1 2.634009 1_555
Cl17 Hf5 2.634009 1_555
Cl18 Hf6 2.634009 1_555
Cl18 Hf2 2.634009 1_555
Cl19 Hf4 2.634009 1_555
Cl19 Hf7 2.634009 1_555
Cl20 Hf0 2.471958 1_555
Cl20 Hf6 2.471958 1_554
Cl21 Hf7 2.471958 1_555
Cl21 Hf1 2.471958 1_554
Cl22 Hf3 2.471958 1_555
Cl22 Hf2 2.471958 1_555
Cl23 Hf4 2.471958 1_555
Cl23 Hf5 2.471958 1_555
Cl24 Hf7 2.569584 1_545
Cl24 Hf0 2.569584 1_455
Cl24 Hf8 2.918381 1_555
Cl25 Hf1 2.569584 1_655
Cl25 Hf6 2.569584 1_565
Cl25 Hf9 2.918381 1_555
Cl26 Hf5 2.569584 1_555
Cl26 Hf2 2.569584 1_555
Cl26 Hf10 2.918381 1_555
Cl27 Hf4 2.569584 1_555
Cl27 Hf3 2.569584 1_555
Cl27 Hf11 2.918381 1_555
