# generated using pymatgen
data_GdFe2BiO6
_symmetry_space_group_name_H-M   'P 1'
_cell_length_a   5.35068500
_cell_length_b   5.58462600
_cell_length_c   7.66015100
_cell_angle_alpha   90.00000000
_cell_angle_beta   90.00000000
_cell_angle_gamma   90.00000000
_symmetry_Int_Tables_number   1
_chemical_formula_structural   GdFe2BiO6
_chemical_formula_sum   'Gd2 Fe4 Bi2 O12'
_cell_volume   228.89737331
_cell_formula_units_Z   2
loop_
 _symmetry_equiv_pos_site_id
 _symmetry_equiv_pos_as_xyz
  1  'x, y, z'
loop_
 _atom_site_type_symbol
 _atom_site_label
 _atom_site_symmetry_multiplicity
 _atom_site_fract_x
 _atom_site_fract_y
 _atom_site_fract_z
 _atom_site_occupancy
  Gd  Gd0  1  0.23585800  0.44036300  0.50000000  1
  Gd  Gd1  1  0.76414200  0.94036300  0.50000000  1
  Fe  Fe0  1  0.24947900  0.99977100  0.74676800  1
  Fe  Fe1  1  0.75052100  0.49977100  0.25323200  1
  Fe  Fe2  1  0.24947900  0.99977100  0.25323200  1
  Fe  Fe3  1  0.75052100  0.49977100  0.74676800  1
  Bi  Bi0  1  0.26186500  0.55138000  0.00000000  1
  Bi  Bi1  1  0.73813500  0.05138000  0.00000000  1
  O  O0  1  0.55639900  0.80048700  0.78895900  1
  O  O1  1  0.44360100  0.30048700  0.21104100  1
  O  O2  1  0.94738700  0.20116800  0.30103100  1
  O  O3  1  0.05261300  0.70116800  0.69896900  1
  O  O4  1  0.94738700  0.20116800  0.69896900  1
  O  O5  1  0.05261300  0.70116800  0.30103100  1
  O  O6  1  0.55639900  0.80048700  0.21104100  1
  O  O7  1  0.44360100  0.30048700  0.78895900  1
  O  O8  1  0.16087500  0.97521800  0.00000000  1
  O  O9  1  0.83912500  0.47521800  0.00000000  1
  O  O10  1  0.34387900  0.03018600  0.50000000  1
  O  O11  1  0.65612100  0.53018600  0.50000000  1
loop_
_geom_bond_atom_site_label_1
_geom_bond_atom_site_label_2
_geom_bond_distance
_geom_bond_site_symmetry_2
Gd0 O11 2.303966 1_555
Gd0 O3 2.325021 1_555
Gd0 O5 2.325021 1_555
Gd0 O10 2.362479 1_555
Gd0 O4 2.547514 1_455
Gd0 O2 2.547514 1_455
Gd0 O7 2.597159 1_555
Gd0 O1 2.597159 1_555
Gd1 O10 2.303966 1_565
Gd1 O4 2.325021 1_565
Gd1 O2 2.325021 1_565
Gd1 O11 2.362479 1_555
Gd1 O5 2.547514 1_655
Gd1 O3 2.547514 1_655
Gd1 O0 2.597159 1_555
Gd1 O6 2.597159 1_555
Fe0 O10 1.963961 1_565
Fe0 O7 2.000914 1_565
Fe0 O8 2.001592 1_556
Fe0 O4 2.002953 1_465
Fe0 O3 2.006114 1_555
Fe0 O0 2.009971 1_555
Fe1 O11 1.963961 1_555
Fe1 O6 2.000914 1_555
Fe1 O9 2.001592 1_555
Fe1 O5 2.002953 1_655
Fe1 O2 2.006114 1_555
Fe1 O1 2.009971 1_555
Fe2 O10 1.963961 1_565
Fe2 O1 2.000914 1_565
Fe2 O8 2.001592 1_555
Fe2 O2 2.002953 1_465
Fe2 O5 2.006114 1_555
Fe2 O6 2.009971 1_555
Fe3 O11 1.963961 1_555
Fe3 O0 2.000914 1_555
Fe3 O9 2.001592 1_556
Fe3 O3 2.002953 1_655
Fe3 O4 2.006114 1_555
Fe3 O7 2.009971 1_555
Bi0 O9 2.301591 1_455
Bi0 O1 2.349937 1_555
Bi0 O7 2.349937 1_554
Bi0 O8 2.427874 1_555
Bi0 O6 2.651870 1_555
Bi0 O0 2.651870 1_554
Bi0 O5 2.696427 1_555
Bi0 O3 2.696427 1_554
Bi1 O8 2.301591 1_645
Bi1 O6 2.349937 1_545
Bi1 O0 2.349937 1_544
Bi1 O9 2.427874 1_555
Bi1 O1 2.651870 1_555
Bi1 O7 2.651870 1_554
Bi1 O2 2.696427 1_555
Bi1 O4 2.696427 1_554
