# generated using pymatgen
data_Mg3Mn2(Si2O7)2
_symmetry_space_group_name_H-M   'P 1'
_cell_length_a   9.35536808
_cell_length_b   9.35536808
_cell_length_c   9.94919819
_cell_angle_alpha   58.95279470
_cell_angle_beta   58.95279470
_cell_angle_gamma   48.24925344
_symmetry_Int_Tables_number   1
_chemical_formula_structural   Mg3Mn2(Si2O7)2
_chemical_formula_sum   'Mg6 Mn4 Si8 O28'
_cell_volume   535.97245892
_cell_formula_units_Z   2
loop_
 _symmetry_equiv_pos_site_id
 _symmetry_equiv_pos_as_xyz
  1  'x, y, z'
loop_
 _atom_site_type_symbol
 _atom_site_label
 _atom_site_symmetry_multiplicity
 _atom_site_fract_x
 _atom_site_fract_y
 _atom_site_fract_z
 _atom_site_occupancy
  Mg  Mg0  1  0.07397600  0.26255300  0.11129800  1
  Mg  Mg1  1  0.73744700  0.92602400  0.38870200  1
  Mg  Mg2  1  0.26255300  0.07397600  0.61129800  1
  Mg  Mg3  1  0.39138600  0.60861400  0.75000000  1
  Mg  Mg4  1  0.92602400  0.73744700  0.88870200  1
  Mg  Mg5  1  0.60861400  0.39138600  0.25000000  1
  Mn  Mn0  1  0.78736300  0.21263700  0.75000000  1
  Mn  Mn1  1  0.21263700  0.78736300  0.25000000  1
  Mn  Mn2  1  0.00000000  0.00000000  0.00000000  1
  Mn  Mn3  1  0.00000000  0.00000000  0.50000000  1
  Si  Si0  1  0.54847200  0.08027600  0.70532300  1
  Si  Si1  1  0.08027600  0.54847200  0.20532300  1
  Si  Si2  1  0.51262500  0.24943000  0.10628600  1
  Si  Si3  1  0.24943000  0.51262500  0.60628600  1
  Si  Si4  1  0.91972400  0.45152800  0.79467700  1
  Si  Si5  1  0.48737500  0.75057000  0.89371400  1
  Si  Si6  1  0.75057000  0.48737500  0.39371400  1
  Si  Si7  1  0.45152800  0.91972400  0.29467700  1
  O  O0  1  0.82893100  0.31670600  0.31930300  1
  O  O1  1  0.96781800  0.88849400  0.41267700  1
  O  O2  1  0.45694200  0.63402800  0.08746800  1
  O  O3  1  0.88849400  0.96781800  0.91267700  1
  O  O4  1  0.23074700  0.99238000  0.30720900  1
  O  O5  1  0.07273800  0.50045100  0.62403200  1
  O  O6  1  0.63402800  0.45694200  0.58746800  1
  O  O7  1  0.00762000  0.76925300  0.19279100  1
  O  O8  1  0.92726200  0.49954900  0.37596800  1
  O  O9  1  0.61456500  0.69380700  0.27049600  1
  O  O10  1  0.03218200  0.11150600  0.58732300  1
  O  O11  1  0.76925300  0.00762000  0.69279100  1
  O  O12  1  0.49954900  0.92726200  0.87596800  1
  O  O13  1  0.31670600  0.82893100  0.81930300  1
  O  O14  1  0.69380700  0.61456500  0.77049600  1
  O  O15  1  0.99238000  0.23074700  0.80720900  1
  O  O16  1  0.91918900  0.48135800  0.94145300  1
  O  O17  1  0.38543500  0.30619300  0.72950400  1
  O  O18  1  0.51864200  0.08081100  0.55854700  1
  O  O19  1  0.30619300  0.38543500  0.22950400  1
  O  O20  1  0.50045100  0.07273800  0.12403200  1
  O  O21  1  0.11150600  0.03218200  0.08732300  1
  O  O22  1  0.48135800  0.91918900  0.44145300  1
  O  O23  1  0.54305800  0.36597200  0.91253200  1
  O  O24  1  0.08081100  0.51864200  0.05854700  1
  O  O25  1  0.36597200  0.54305800  0.41253200  1
  O  O26  1  0.68329400  0.17106900  0.18069700  1
  O  O27  1  0.17106900  0.68329400  0.68069700  1
loop_
_geom_bond_atom_site_label_1
_geom_bond_atom_site_label_2
_geom_bond_distance
_geom_bond_site_symmetry_2
Mg0 O16 2.037407 1_454
Mg0 O21 2.064267 1_555
Mg0 O0 2.106173 1_455
Mg0 O24 2.211753 1_555
Mg0 O4 2.295402 1_545
Mg1 O18 2.037407 1_565
Mg1 O1 2.064267 1_555
Mg1 O26 2.106173 1_565
Mg1 O22 2.211753 1_555
Mg1 O7 2.295402 1_655
Mg2 O22 2.037407 1_545
Mg2 O10 2.064267 1_555
Mg2 O13 2.106173 1_545
Mg2 O18 2.211753 1_555
Mg2 O15 2.295402 1_455
Mg3 O23 2.017916 1_555
Mg3 O6 2.017916 1_555
Mg3 O27 2.064724 1_555
Mg3 O13 2.064724 1_555
Mg4 O24 2.037407 1_656
Mg4 O3 2.064267 1_555
Mg4 O27 2.106173 1_655
Mg4 O16 2.211753 1_555
Mg4 O11 2.295402 1_565
Mg5 O25 2.017916 1_555
Mg5 O2 2.017916 1_555
Mg5 O26 2.064724 1_555
Mg5 O0 2.064724 1_555
Mn0 O3 1.905358 1_545
Mn0 O10 1.905358 1_655
Mn0 O23 2.027436 1_555
Mn0 O6 2.027436 1_555
Mn0 O11 2.385321 1_555
Mn0 O15 2.385321 1_555
Mn1 O1 1.905358 1_455
Mn1 O21 1.905358 1_565
Mn1 O25 2.027436 1_555
Mn1 O2 2.027436 1_555
Mn1 O7 2.385321 1_555
Mn1 O4 2.385321 1_555
Mn2 O21 1.885897 1_555
Mn2 O3 1.885897 1_444
Mn2 O15 2.002340 1_454
Mn2 O7 2.002340 1_545
Mn2 O26 2.393830 1_455
Mn2 O13 2.393830 1_544
Mn3 O10 1.885897 1_555
Mn3 O1 1.885897 1_445
Mn3 O4 2.002340 1_545
Mn3 O11 2.002340 1_455
Mn3 O27 2.393830 1_545
Mn3 O0 2.393830 1_455
O0 Si6 1.653926 1_555
O2 Si5 1.632535 1_554
O4 Si7 1.641894 1_555
O5 Si4 1.644772 1_455
O5 Si3 1.644858 1_555
O6 Si6 1.632535 1_555
O7 Si1 1.641894 1_555
O8 Si1 1.644772 1_655
O8 Si6 1.644858 1_555
O9 Si7 1.644403 1_555
O9 Si6 1.657054 1_555
O11 Si0 1.641894 1_555
O12 Si0 1.644772 1_565
O12 Si5 1.644858 1_555
O13 Si5 1.653926 1_555
O14 Si4 1.644403 1_555
O14 Si5 1.657054 1_555
O15 Si4 1.641894 1_555
O16 Si4 1.619059 1_555
O17 Si0 1.644403 1_555
O17 Si3 1.657054 1_555
O18 Si0 1.619059 1_555
O19 Si1 1.644403 1_555
O19 Si2 1.657054 1_555
O20 Si7 1.644772 1_545
O20 Si2 1.644858 1_555
O22 Si7 1.619059 1_555
O23 Si2 1.632535 1_556
O24 Si1 1.619059 1_555
O25 Si3 1.632535 1_555
O26 Si2 1.653926 1_555
O27 Si3 1.653926 1_555
