# generated using pymatgen
data_Al2Ni3
_symmetry_space_group_name_H-M   'P 1'
_cell_length_a   2.86914643
_cell_length_b   2.86914643
_cell_length_c   13.90152731
_cell_angle_alpha   90.00000000
_cell_angle_beta   90.00000000
_cell_angle_gamma   90.00000000
_symmetry_Int_Tables_number   1
_chemical_formula_structural   Al2Ni3
_chemical_formula_sum   'Al4 Ni6'
_cell_volume   114.43739001
_cell_formula_units_Z   2
loop_
 _symmetry_equiv_pos_site_id
 _symmetry_equiv_pos_as_xyz
  1  'x, y, z'
loop_
 _atom_site_type_symbol
 _atom_site_label
 _atom_site_symmetry_multiplicity
 _atom_site_fract_x
 _atom_site_fract_y
 _atom_site_fract_z
 _atom_site_occupancy
  Al  Al0  1  0.50000000  0.50000000  0.19137872  1
  Al  Al1  1  0.50000000  0.50000000  0.39778470  1
  Al  Al2  1  0.50000000  0.50000000  0.60221530  1
  Al  Al3  1  0.50000000  0.50000000  0.80862128  1
  Ni  Ni0  1  0.00000000  -0.00000000  0.90385694  1
  Ni  Ni1  1  -0.00000000  0.00000000  0.09614306  1
  Ni  Ni2  1  -0.00000000  -0.00000000  0.29540283  1
  Ni  Ni3  1  0.00000000  0.00000000  0.50000000  1
  Ni  Ni4  1  0.00000000  0.00000000  0.70459717  1
  Ni  Ni5  1  0.50000000  0.50000000  -0.00000000  1
loop_
_geom_bond_atom_site_label_1
_geom_bond_atom_site_label_2
_geom_bond_distance
_geom_bond_site_symmetry_2
Al0 Ni1 2.422554 1_665
Al0 Ni1 2.422554 1_555
Al0 Ni1 2.422554 1_655
Al0 Ni1 2.422554 1_565
Al0 Ni2 2.491423 1_555
Al0 Ni2 2.491423 1_565
Al0 Ni2 2.491423 1_665
Al0 Ni2 2.491423 1_655
Al0 Ni5 2.660457 1_555
Al1 Ni3 2.476913 1_655
Al1 Ni3 2.476913 1_665
Al1 Ni3 2.476913 1_555
Al1 Ni3 2.476913 1_565
Al1 Ni2 2.478242 1_565
Al1 Ni2 2.478242 1_665
Al1 Ni2 2.478242 1_655
Al1 Ni2 2.478242 1_555
Al2 Ni3 2.476913 1_655
Al2 Ni3 2.476913 1_665
Al2 Ni3 2.476913 1_555
Al2 Ni3 2.476913 1_565
Al2 Ni4 2.478242 1_555
Al2 Ni4 2.478242 1_655
Al2 Ni4 2.478242 1_665
Al2 Ni4 2.478242 1_565
Al3 Ni0 2.422554 1_665
Al3 Ni0 2.422554 1_655
Al3 Ni0 2.422554 1_555
Al3 Ni0 2.422554 1_565
Al3 Ni4 2.491423 1_555
Al3 Ni4 2.491423 1_655
Al3 Ni4 2.491423 1_665
Al3 Ni4 2.491423 1_565
Al3 Ni5 2.660457 1_556
Ni0 Ni5 2.429471 1_556
Ni0 Ni5 2.429471 1_446
Ni0 Ni5 2.429471 1_546
Ni0 Ni5 2.429471 1_456
Ni1 Ni5 2.429471 1_445
Ni1 Ni5 2.429471 1_455
Ni1 Ni5 2.429471 1_555
Ni1 Ni5 2.429471 1_545
