# generated using pymatgen
data_Li4V3P8O29
_symmetry_space_group_name_H-M   'P 1'
_cell_length_a   9.77924900
_cell_length_b   9.79398043
_cell_length_c   14.23851213
_cell_angle_alpha   89.95442337
_cell_angle_beta   90.72042774
_cell_angle_gamma   119.85566548
_symmetry_Int_Tables_number   1
_chemical_formula_structural   Li4V3P8O29
_chemical_formula_sum   'Li8 V6 P16 O58'
_cell_volume   1182.62439194
_cell_formula_units_Z   2
loop_
 _symmetry_equiv_pos_site_id
 _symmetry_equiv_pos_as_xyz
  1  'x, y, z'
loop_
 _atom_site_type_symbol
 _atom_site_label
 _atom_site_symmetry_multiplicity
 _atom_site_fract_x
 _atom_site_fract_y
 _atom_site_fract_z
 _atom_site_occupancy
  Li  Li0  1  0.77321700  0.08997400  0.06082500  1
  Li  Li1  1  0.32041200  0.22723900  0.06561200  1
  Li  Li2  1  0.67133100  0.90476900  0.44084900  1
  Li  Li3  1  0.32638800  0.09450600  0.55660100  1
  Li  Li4  1  0.69112900  0.77345100  0.93749600  1
  Li  Li5  1  0.22291100  0.90778500  0.94668300  1
  Li  Li6  1  0.09402800  0.32355000  0.94187000  1
  Li  Li7  1  0.00190000  0.00614100  0.49270900  1
  V  V0  1  0.56758000  0.00056300  0.25056500  1
  V  V1  1  0.43124600  0.99804700  0.75141100  1
  V  V2  1  0.56784800  0.56257600  0.74526200  1
  V  V3  1  0.43404000  0.44109700  0.25580600  1
  V  V4  1  0.99968000  0.56513600  0.25522600  1
  V  V5  1  0.99854900  0.43861900  0.74120100  1
  P  P0  1  0.91617900  0.68644000  0.83956300  1
  P  P1  1  0.78072800  0.69669300  0.33570200  1
  P  P2  1  0.91971500  0.22180800  0.34206200  1
  P  P3  1  0.66548000  0.33338600  0.13345900  1
  P  P4  1  0.66153100  0.33057800  0.62950200  1
  P  P5  1  0.77340600  0.09305600  0.83762500  1
  P  P6  1  0.68406900  0.91091700  0.65830700  1
  P  P7  1  0.32143500  0.23394600  0.84622200  1
  P  P8  1  0.67887200  0.76709900  0.15328500  1
  P  P9  1  0.31553500  0.09076800  0.34170800  1
  P  P10  1  0.22539100  0.90661700  0.16407200  1
  P  P11  1  0.33529800  0.66879800  0.37144200  1
  P  P12  1  0.33317700  0.66243600  0.86619000  1
  P  P13  1  0.08040300  0.77903400  0.65506900  1
  P  P14  1  0.22129700  0.30564400  0.66340200  1
  P  P15  1  0.08628500  0.31814700  0.15896100  1
  O  O0  1  0.00414400  0.79513700  0.56939400  1
  O  O1  1  0.91501200  0.65649200  0.33536700  1
  O  O2  1  0.74228600  0.75431700  0.06168000  1
  O  O3  1  0.74530000  0.65918000  0.83799700  1
  O  O4  1  0.91114100  0.52763500  0.81939700  1
  O  O5  1  0.81516900  0.47413600  0.18369900  1
  O  O6  1  0.92512400  0.38276000  0.33190000  1
  O  O7  1  0.00175300  0.24309300  0.06786300  1
  O  O8  1  0.91977000  0.25988900  0.83720200  1
  O  O9  1  0.66873600  0.48151100  0.67786700  1
  O  O10  1  0.61938600  0.53889700  0.32841700  1
  O  O11  1  0.81092600  0.32960500  0.67517400  1
  O  O12  1  0.66805200  0.33770100  0.02891600  1
  O  O13  1  0.66793700  0.34274200  0.52591500  1
  O  O14  1  0.66804600  0.18192000  0.16903300  1
  O  O15  1  0.47983000  0.38158000  0.82317400  1
  O  O16  1  0.51751400  0.33620000  0.17342100  1
  O  O17  1  0.74382400  0.08618100  0.33571600  1
  O  O18  1  0.79566400  0.00549400  0.74815100  1
  O  O19  1  0.76771900  0.97553500  0.56868800  1
  O  O20  1  0.76200700  0.00467700  0.92636800  1
  O  O21  1  0.62074300  0.10104600  0.81953000  1
  O  O22  1  0.50957400  0.18592800  0.66643100  1
  O  O23  1  0.66297900  0.91676500  0.16051100  1
  O  O24  1  0.46971100  0.08936800  0.33101100  1
  O  O25  1  0.34638800  0.26223300  0.32690600  1
  O  O26  1  0.79866600  0.78502000  0.23744700  1
  O  O27  1  0.79346300  0.80175000  0.41485500  1
  O  O28  1  0.20830700  0.20165800  0.58382600  1
  O  O29  1  0.65602600  0.74006800  0.67312000  1
  O  O30  1  0.52858400  0.90990100  0.67114600  1
  O  O31  1  0.33618200  0.08392500  0.84372800  1
  O  O32  1  0.48896000  0.81310200  0.33523000  1
  O  O33  1  0.37907500  0.90041100  0.18124000  1
  O  O34  1  0.23640000  0.99443800  0.07505400  1
  O  O35  1  0.22905400  0.02660200  0.43098900  1
  O  O36  1  0.20416300  0.99777000  0.25196300  1
  O  O37  1  0.25517700  0.91503300  0.66586000  1
  O  O38  1  0.48166300  0.66253100  0.82381800  1
  O  O39  1  0.52032300  0.61888400  0.17896700  1
  O  O40  1  0.33105600  0.81408300  0.83152700  1
  O  O41  1  0.33263200  0.65242000  0.97068800  1
  O  O42  1  0.33137100  0.65581400  0.47522200  1
  O  O43  1  0.18841000  0.66937100  0.32519400  1
  O  O44  1  0.38210100  0.46245100  0.67195600  1
  O  O45  1  0.33067100  0.51755700  0.32330900  1
  O  O46  1  0.08219200  0.73946900  0.16833700  1
  O  O47  1  0.99650500  0.79300600  0.74825300  1
  O  O48  1  0.00661100  0.76982700  0.92522000  1
  O  O49  1  0.08038500  0.61860900  0.66906300  1
  O  O50  1  0.18274600  0.51587800  0.82127500  1
  O  O51  1  0.09315500  0.47607100  0.17858600  1
  O  O52  1  0.25438700  0.33942200  0.16111500  1
  O  O53  1  0.25088700  0.24939500  0.93617100  1
  O  O54  1  0.20234800  0.21439700  0.76130000  1
  O  O55  1  0.08597900  0.34484700  0.66564700  1
  O  O56  1  0.00024700  0.19812400  0.42370800  1
  O  O57  1  0.99340500  0.20292300  0.24387700  1
loop_
_geom_bond_atom_site_label_1
_geom_bond_atom_site_label_2
_geom_bond_distance
_geom_bond_site_symmetry_2
Li0 O7 1.977744 1_655
Li0 O23 2.066022 1_545
Li0 O20 2.069101 1_554
Li0 O14 2.281828 1_555
Li1 O53 2.005223 1_554
Li1 O34 2.007217 1_545
Li1 O52 2.050357 1_555
Li1 O16 2.256256 1_555
Li2 O27 1.947565 1_555
Li2 O19 1.997633 1_555
Li2 O32 2.142158 1_555
Li2 O17 2.160693 1_565
Li3 O28 1.950253 1_555
Li3 O35 1.968747 1_555
Li3 O22 2.188880 1_555
Li3 O37 2.190656 1_545
Li4 O2 1.866140 1_556
Li4 O20 2.018270 1_565
Li4 O3 2.037634 1_555
Li4 O38 2.387447 1_555
Li5 O48 1.879402 1_555
Li5 O34 1.990853 1_556
Li5 O31 2.118065 1_565
Li5 O40 2.379378 1_555
Li6 O7 1.995992 1_556
Li6 O53 1.999884 1_555
Li6 O8 2.096076 1_455
Li6 O50 2.377918 1_555
Li7 O56 2.127882 1_555
Li7 O27 2.296753 1_445
Li7 O35 2.313579 1_555
Li7 O0 2.346135 1_545
Li7 O28 2.348212 1_555
Li7 O19 2.425518 1_445
O0 P13 1.470735 1_555
O1 P1 1.547409 1_555
O1 V4 1.884460 1_555
O2 P8 1.483034 1_555
O3 P0 1.555352 1_555
O3 V2 1.989910 1_555
O4 P0 1.558203 1_555
O4 V5 1.870246 1_555
O5 P3 1.587754 1_555
O5 V4 1.855109 1_555
O6 P2 1.557388 1_555
O6 V4 1.906358 1_555
O7 P15 1.508549 1_555
O8 P5 1.546041 1_555
O8 V5 2.050886 1_555
O9 P4 1.600336 1_555
O9 V2 1.824694 1_555
O10 P1 1.567485 1_555
O10 V3 1.870180 1_555
O11 P4 1.596051 1_555
O11 V5 1.843392 1_555
O12 P3 1.489276 1_555
O13 P4 1.479234 1_555
O14 P3 1.579044 1_555
O14 V0 1.937985 1_555
O15 P7 1.542672 1_555
O15 V2 1.901482 1_555
O16 P3 1.574406 1_555
O16 V3 1.989683 1_555
O17 P2 1.566119 1_555
O17 V0 1.911496 1_555
O18 P5 1.612576 1_555
O18 P6 1.626580 1_545
O19 P6 1.485766 1_555
O20 P5 1.504659 1_555
O21 P5 1.551759 1_555
O21 V1 1.867512 1_545
O22 P4 1.553768 1_555
O22 V1 2.013259 1_545
O23 P8 1.552693 1_555
O23 V0 1.995531 1_565
O24 P9 1.524134 1_555
O24 V0 1.960216 1_555
O25 P9 1.565934 1_555
O25 V3 1.830943 1_555
O26 P1 1.609191 1_555
O26 P8 1.612310 1_555
O27 P1 1.488324 1_555
O28 P14 1.485445 1_555
O29 P6 1.569590 1_555
O29 V2 1.829634 1_555
O30 P6 1.528869 1_555
O30 V1 1.950541 1_555
O31 P7 1.546639 1_555
O31 V1 2.027431 1_545
O32 P11 1.557311 1_555
O32 V0 2.007381 1_565
O33 P10 1.550448 1_555
O33 V0 1.868211 1_565
O34 P10 1.505792 1_555
O35 P9 1.490906 1_555
O36 P10 1.612149 1_555
O36 P9 1.621065 1_565
O37 P13 1.563998 1_555
O37 V1 1.914303 1_555
O38 P12 1.578991 1_555
O38 V2 1.940808 1_555
O39 P8 1.554815 1_555
O39 V3 1.870363 1_555
O40 P12 1.574538 1_555
O40 V1 1.942870 1_555
O41 P12 1.490950 1_555
O42 P11 1.482373 1_555
O43 P11 1.575212 1_555
O43 V4 1.876300 1_455
O44 P14 1.561175 1_555
O44 V2 1.879118 1_555
O45 P11 1.612436 1_555
O45 V3 1.812647 1_555
O46 P10 1.537586 1_555
O46 V4 1.935713 1_455
O47 P13 1.609884 1_655
O47 P0 1.613669 1_555
O48 P0 1.480518 1_455
O49 P13 1.583539 1_555
O49 V5 1.848294 1_455
O50 P12 1.583947 1_555
O50 V5 1.926097 1_455
O51 P15 1.540015 1_555
O51 V4 1.899426 1_455
O52 P15 1.550646 1_555
O52 V3 2.024039 1_555
O53 P7 1.505198 1_555
O54 P7 1.611813 1_555
O54 P14 1.617294 1_555
O55 P14 1.551303 1_555
O55 V5 1.881033 1_455
O56 P2 1.477804 1_455
O57 P15 1.601654 1_655
O57 P2 1.632912 1_555
