# generated using pymatgen
data_TaPb3
_symmetry_space_group_name_H-M   'P 1'
_cell_length_a   6.60887420
_cell_length_b   6.60887420
_cell_length_c   5.55310200
_cell_angle_alpha   90.00000000
_cell_angle_beta   90.00000000
_cell_angle_gamma   120.00000196
_symmetry_Int_Tables_number   1
_chemical_formula_structural   TaPb3
_chemical_formula_sum   'Ta2 Pb6'
_cell_volume   210.04930240
_cell_formula_units_Z   2
loop_
 _symmetry_equiv_pos_site_id
 _symmetry_equiv_pos_as_xyz
  1  'x, y, z'
loop_
 _atom_site_type_symbol
 _atom_site_label
 _atom_site_symmetry_multiplicity
 _atom_site_fract_x
 _atom_site_fract_y
 _atom_site_fract_z
 _atom_site_occupancy
  Ta  Ta0  1  0.33333300  0.66666700  0.75000000  1
  Ta  Ta1  1  0.66666700  0.33333300  0.25000000  1
  Pb  Pb0  1  0.17304500  0.34609000  0.25000000  1
  Pb  Pb1  1  0.65391000  0.82695500  0.25000000  1
  Pb  Pb2  1  0.17304500  0.82695500  0.25000000  1
  Pb  Pb3  1  0.82695500  0.65391000  0.75000000  1
  Pb  Pb4  1  0.34609000  0.17304500  0.75000000  1
  Pb  Pb5  1  0.82695500  0.17304500  0.75000000  1
loop_
_geom_bond_atom_site_label_1
_geom_bond_atom_site_label_2
_geom_bond_distance
_geom_bond_site_symmetry_2
Pb0 Pb1 3.177976 1_555
Pb0 Pb2 3.177976 1_555
Pb0 Ta1 3.305240 1_455
Pb0 Ta1 3.305247 1_555
Pb0 Ta0 3.328025 1_555
Pb0 Ta0 3.328025 1_554
Pb0 Pb5 3.410707 1_455
Pb0 Pb5 3.410707 1_454
Pb0 Pb4 3.410707 1_555
Pb0 Pb4 3.410707 1_554
Pb0 Pb1 3.430898 1_445
Pb0 Pb2 3.430898 1_545
Pb1 Pb2 3.177976 1_555
Pb1 Ta1 3.305240 1_565
Pb1 Ta1 3.305247 1_555
Pb1 Ta0 3.328025 1_554
Pb1 Ta0 3.328025 1_555
Pb1 Pb5 3.410707 1_565
Pb1 Pb5 3.410707 1_564
Pb1 Pb3 3.410707 1_555
Pb1 Pb3 3.410707 1_554
Pb1 Pb2 3.430898 1_655
Pb2 Ta1 3.305243 1_455
Pb2 Ta1 3.305243 1_565
Pb2 Ta0 3.328022 1_555
Pb2 Ta0 3.328022 1_554
Pb2 Pb3 3.410707 1_454
Pb2 Pb3 3.410707 1_455
Pb2 Pb4 3.410707 1_564
Pb2 Pb4 3.410707 1_565
Pb3 Pb4 3.177976 1_555
Pb3 Pb5 3.177976 1_555
Pb3 Ta0 3.305240 1_655
Pb3 Ta0 3.305247 1_555
Pb3 Ta1 3.328025 1_555
Pb3 Ta1 3.328025 1_556
Pb3 Pb4 3.430898 1_665
Pb3 Pb5 3.430898 1_565
Pb4 Pb5 3.177976 1_555
Pb4 Ta0 3.305240 1_545
Pb4 Ta0 3.305247 1_555
Pb4 Ta1 3.328025 1_555
Pb4 Ta1 3.328025 1_556
Pb4 Pb5 3.430898 1_455
Pb5 Ta0 3.305243 1_545
Pb5 Ta0 3.305243 1_655
Pb5 Ta1 3.328022 1_555
Pb5 Ta1 3.328022 1_556
