# generated using pymatgen
data_MoO2
_symmetry_space_group_name_H-M   'P 1'
_cell_length_a   3.28447200
_cell_length_b   9.16009600
_cell_length_c   11.10545600
_cell_angle_alpha   90.00000000
_cell_angle_beta   90.00000000
_cell_angle_gamma   90.00000000
_symmetry_Int_Tables_number   1
_chemical_formula_structural   MoO2
_chemical_formula_sum   'Mo8 O16'
_cell_volume   334.11962465
_cell_formula_units_Z   8
loop_
 _symmetry_equiv_pos_site_id
 _symmetry_equiv_pos_as_xyz
  1  'x, y, z'
loop_
 _atom_site_type_symbol
 _atom_site_label
 _atom_site_symmetry_multiplicity
 _atom_site_fract_x
 _atom_site_fract_y
 _atom_site_fract_z
 _atom_site_occupancy
  Mo  Mo0  1  0.75000000  0.93744800  0.61525300  1
  Mo  Mo1  1  0.25000000  0.56255200  0.11525300  1
  Mo  Mo2  1  0.75000000  0.43744800  0.88474700  1
  Mo  Mo3  1  0.25000000  0.06255200  0.38474700  1
  Mo  Mo4  1  0.25000000  0.08014500  0.89185400  1
  Mo  Mo5  1  0.75000000  0.91985500  0.10814600  1
  Mo  Mo6  1  0.25000000  0.58014500  0.60814600  1
  Mo  Mo7  1  0.75000000  0.41985500  0.39185400  1
  O  O0  1  0.75000000  0.43895300  0.57249900  1
  O  O1  1  0.25000000  0.56104700  0.42750100  1
  O  O2  1  0.75000000  0.93895300  0.92750100  1
  O  O3  1  0.25000000  0.06104700  0.07249900  1
  O  O4  1  0.75000000  0.50198100  0.22244600  1
  O  O5  1  0.25000000  0.49801900  0.77755400  1
  O  O6  1  0.75000000  0.00198100  0.27755400  1
  O  O7  1  0.25000000  0.99801900  0.72244600  1
  O  O8  1  0.75000000  0.10803100  0.50129700  1
  O  O9  1  0.25000000  0.89196900  0.49870300  1
  O  O10  1  0.75000000  0.60803100  0.99870300  1
  O  O11  1  0.25000000  0.39196900  0.00129700  1
  O  O12  1  0.25000000  0.28083400  0.35892200  1
  O  O13  1  0.75000000  0.71916600  0.64107800  1
  O  O14  1  0.75000000  0.21916600  0.85892200  1
  O  O15  1  0.25000000  0.78083400  0.14107800  1
loop_
_geom_bond_atom_site_label_1
_geom_bond_atom_site_label_2
_geom_bond_distance
_geom_bond_site_symmetry_2
Mo0 O8 2.010761 1_565
Mo0 O13 2.019948 1_555
Mo0 O7 2.102831 1_555
Mo0 O7 2.102831 1_655
Mo0 O9 2.132090 1_555
Mo0 O9 2.132090 1_655
Mo1 O11 2.010761 1_555
Mo1 O15 2.019948 1_555
Mo1 O4 2.102831 1_455
Mo1 O4 2.102831 1_555
Mo1 O10 2.132090 1_554
Mo1 O10 2.132090 1_454
Mo2 O10 2.010761 1_555
Mo2 O14 2.019948 1_555
Mo2 O5 2.102831 1_555
Mo2 O5 2.102831 1_655
Mo2 O11 2.132090 1_556
Mo2 O11 2.132090 1_656
Mo3 O9 2.010761 1_545
Mo3 O12 2.019948 1_555
Mo3 O6 2.102831 1_555
Mo3 O6 2.102831 1_455
Mo3 O8 2.132090 1_555
Mo3 O8 2.132090 1_455
Mo4 O3 2.013758 1_556
Mo4 O7 2.026183 1_545
Mo4 O14 2.110061 1_455
Mo4 O14 2.110061 1_555
Mo4 O2 2.127526 1_445
Mo4 O2 2.127526 1_545
Mo5 O2 2.013758 1_554
Mo5 O6 2.026183 1_565
Mo5 O15 2.110061 1_655
Mo5 O15 2.110061 1_555
Mo5 O3 2.127526 1_665
Mo5 O3 2.127526 1_565
Mo6 O1 2.013758 1_555
Mo6 O5 2.026183 1_555
Mo6 O13 2.110061 1_555
Mo6 O13 2.110061 1_455
Mo6 O0 2.127526 1_455
Mo6 O0 2.127526 1_555
Mo7 O0 2.013758 1_555
Mo7 O4 2.026183 1_555
Mo7 O12 2.110061 1_555
Mo7 O12 2.110061 1_655
Mo7 O1 2.127526 1_555
Mo7 O1 2.127526 1_655
