# generated using pymatgen
data_Na3Be3Pb2F13
_symmetry_space_group_name_H-M   'P 1'
_cell_length_a   7.14954200
_cell_length_b   9.55718400
_cell_length_c   9.64725139
_cell_angle_alpha   60.45136833
_cell_angle_beta   90.00000000
_cell_angle_gamma   90.00000000
_symmetry_Int_Tables_number   1
_chemical_formula_structural   Na3Be3Pb2F13
_chemical_formula_sum   'Na6 Be6 Pb4 F26'
_cell_volume   573.45557313
_cell_formula_units_Z   2
loop_
 _symmetry_equiv_pos_site_id
 _symmetry_equiv_pos_as_xyz
  1  'x, y, z'
loop_
 _atom_site_type_symbol
 _atom_site_label
 _atom_site_symmetry_multiplicity
 _atom_site_fract_x
 _atom_site_fract_y
 _atom_site_fract_z
 _atom_site_occupancy
  Na  Na0  1  0.49378900  0.33842200  0.32263600  1
  Na  Na1  1  0.99378900  0.66157800  0.67736400  1
  Na  Na2  1  0.50711400  0.66039600  0.67736500  1
  Na  Na3  1  0.00711400  0.33960400  0.32263500  1
  Na  Na4  1  0.75862500  0.74051600  0.00337400  1
  Na  Na5  1  0.25862500  0.25948400  0.99662600  1
  Be  Be0  1  0.75064000  0.02653400  0.59504800  1
  Be  Be1  1  0.75088600  0.59315400  0.37513600  1
  Be  Be2  1  0.75290400  0.37390600  0.03000000  1
  Be  Be3  1  0.25064000  0.97346600  0.40495200  1
  Be  Be4  1  0.25088600  0.40684600  0.62486400  1
  Be  Be5  1  0.25290400  0.62609400  0.97000000  1
  Pb  Pb0  1  0.75256900  0.99217800  0.24010800  1
  Pb  Pb1  1  0.75374700  0.25060100  0.76407400  1
  Pb  Pb2  1  0.25256900  0.00782200  0.75989200  1
  Pb  Pb3  1  0.25374700  0.74939900  0.23592600  1
  F  F0  1  0.57594900  0.08081400  0.65937100  1
  F  F1  1  0.57841200  0.66200700  0.25866100  1
  F  F2  1  0.57936300  0.25501500  0.07750500  1
  F  F3  1  0.07594900  0.91918600  0.34062900  1
  F  F4  1  0.07841200  0.33799300  0.74133900  1
  F  F5  1  0.07936300  0.74498500  0.92249500  1
  F  F6  1  0.42327500  0.91148000  0.34783600  1
  F  F7  1  0.42500900  0.34647900  0.73767100  1
  F  F8  1  0.42764800  0.74330700  0.91656900  1
  F  F9  1  0.92327500  0.08852000  0.65216400  1
  F  F10  1  0.92500900  0.65352100  0.26232900  1
  F  F11  1  0.92764800  0.25669300  0.08343100  1
  F  F12  1  0.74780200  0.12554700  0.40852700  1
  F  F13  1  0.74697100  0.40567600  0.46339200  1
  F  F14  1  0.74778200  0.46656400  0.12318300  1
  F  F15  1  0.24780200  0.87445300  0.59147300  1
  F  F16  1  0.24697100  0.59432400  0.53660800  1
  F  F17  1  0.24778200  0.53343600  0.87681700  1
  F  F18  1  0.75322500  0.84395500  0.66212600  1
  F  F19  1  0.75161500  0.65835600  0.49481600  1
  F  F20  1  0.75414000  0.48555500  0.84577700  1
  F  F21  1  0.25322500  0.15604500  0.33787400  1
  F  F22  1  0.25161500  0.34164400  0.50518400  1
  F  F23  1  0.25414000  0.51444500  0.15422300  1
  F  F24  1  0.81353500  0.99047800  0.99340900  1
  F  F25  1  0.31353500  0.00952200  0.00659100  1
loop_
_geom_bond_atom_site_label_1
_geom_bond_atom_site_label_2
_geom_bond_distance
_geom_bond_site_symmetry_2
Be0 F18 1.533030 1_545
Be0 F12 1.566617 1_555
Be0 F9 1.581116 1_555
Be0 F0 1.591100 1_555
Be1 F19 1.559179 1_555
Be1 F13 1.559304 1_555
Be1 F10 1.564512 1_555
Be1 F1 1.576989 1_555
Be2 F14 1.542354 1_555
Be2 F20 1.557819 1_554
Be2 F11 1.584904 1_555
Be2 F2 1.589635 1_555
Be3 F21 1.533030 1_565
Be3 F15 1.566617 1_555
Be3 F6 1.581116 1_555
Be3 F3 1.591100 1_555
Be4 F22 1.559179 1_555
Be4 F16 1.559304 1_555
Be4 F7 1.564512 1_555
Be4 F4 1.576989 1_555
Be5 F17 1.542354 1_555
Be5 F23 1.557819 1_556
Be5 F8 1.584904 1_555
Be5 F5 1.589635 1_555
F0 Pb2 2.470880 1_555
F0 Pb1 2.624107 1_555
F1 Pb3 2.439880 1_555
F1 Na4 2.542813 1_555
F2 Na5 2.415824 1_554
F2 Pb0 2.533316 1_545
F3 Pb0 2.470880 1_455
F3 Pb3 2.624107 1_555
F4 Pb1 2.439880 1_455
F4 Na5 2.542813 1_555
F5 Na4 2.415824 1_456
F5 Pb2 2.533316 1_565
F6 Pb0 2.535168 1_555
F6 Pb3 2.585280 1_555
F6 Na2 2.949525 1_555
F7 Pb1 2.489649 1_555
F7 Na5 2.509721 1_555
F7 Na2 2.821781 1_555
F8 Na4 2.505894 1_556
F8 Pb2 2.544309 1_565
F8 Na2 2.842456 1_555
F9 Pb2 2.535168 1_655
F9 Pb1 2.585280 1_555
F9 Na3 2.949525 1_655
F10 Pb3 2.489649 1_655
F10 Na4 2.509721 1_555
F10 Na3 2.821781 1_655
F11 Na5 2.505894 1_654
F11 Pb0 2.544309 1_545
F11 Na3 2.842456 1_655
F12 Pb0 2.511660 1_545
F12 Na0 2.541873 1_555
F12 Na3 2.576241 1_655
F13 Pb1 2.524466 1_555
F13 Na0 2.528738 1_555
F13 Na3 2.558842 1_655
F14 Na4 2.283015 1_555
F14 Na0 2.485081 1_555
F14 Na3 2.511890 1_655
F15 Pb2 2.511660 1_565
F15 Na1 2.541873 1_455
F15 Na2 2.576241 1_555
F16 Pb3 2.524466 1_555
F16 Na1 2.528738 1_455
F16 Na2 2.558842 1_555
F17 Na5 2.283015 1_555
F17 Na1 2.485081 1_455
F17 Na2 2.511890 1_555
F18 Na1 2.401063 1_555
F18 Na2 2.437406 1_555
F19 Na1 2.480670 1_555
F19 Na2 2.488263 1_555
F20 Na1 2.389479 1_555
F20 Na2 2.423496 1_555
F20 Pb1 2.721996 1_555
F21 Na0 2.401063 1_555
F21 Na3 2.437406 1_555
F22 Na0 2.480670 1_555
F22 Na3 2.488263 1_555
F23 Na0 2.389479 1_555
F23 Na3 2.423496 1_555
F23 Pb3 2.721996 1_555
F24 Na4 2.375677 1_556
F24 Pb1 2.415170 1_565
F24 Pb0 2.427476 1_556
F25 Na5 2.375677 1_554
F25 Pb3 2.415170 1_545
F25 Pb2 2.427476 1_554
