# generated using pymatgen
data_Sm3GaCoSe7
_symmetry_space_group_name_H-M   'P 1'
_cell_length_a   6.46174200
_cell_length_b   10.16990872
_cell_length_c   10.17029298
_cell_angle_alpha   120.00077315
_cell_angle_beta   90.00000000
_cell_angle_gamma   90.00000000
_symmetry_Int_Tables_number   1
_chemical_formula_structural   Sm3GaCoSe7
_chemical_formula_sum   'Sm6 Ga2 Co2 Se14'
_cell_volume   578.79847830
_cell_formula_units_Z   2
loop_
 _symmetry_equiv_pos_site_id
 _symmetry_equiv_pos_as_xyz
  1  'x, y, z'
loop_
 _atom_site_type_symbol
 _atom_site_label
 _atom_site_symmetry_multiplicity
 _atom_site_fract_x
 _atom_site_fract_y
 _atom_site_fract_z
 _atom_site_occupancy
  Sm  Sm0  1  0.17810900  0.84202200  0.21493800  1
  Sm  Sm1  1  0.17810400  0.78505300  0.62711000  1
  Sm  Sm2  1  0.17809800  0.37292500  0.15795400  1
  Sm  Sm3  1  0.67810900  0.15797800  0.78506200  1
  Sm  Sm4  1  0.67810400  0.21494700  0.37289000  1
  Sm  Sm5  1  0.67809800  0.62707500  0.84204600  1
  Ga  Ga0  1  0.09929300  0.33335800  0.66668800  1
  Ga  Ga1  1  0.59929300  0.66664200  0.33331200  1
  Co  Co0  1  0.50309100  0.99999500  0.99997600  1
  Co  Co1  1  0.00309100  0.00000500  0.00002400  1
  Se  Se0  1  0.45008600  0.56304900  0.08314100  1
  Se  Se1  1  0.45010800  0.91683200  0.47992300  1
  Se  Se2  1  0.45009600  0.52007000  0.43693100  1
  Se  Se3  1  0.95008600  0.43695100  0.91685900  1
  Se  Se4  1  0.95010800  0.08316800  0.52007700  1
  Se  Se5  1  0.95009600  0.47993000  0.56306900  1
  Se  Se6  1  0.47044300  0.33331300  0.66662800  1
  Se  Se7  1  0.97044300  0.66668700  0.33337200  1
  Se  Se8  1  0.25916000  0.12788100  0.22461000  1
  Se  Se9  1  0.25916200  0.77519700  0.90318200  1
  Se  Se10  1  0.25914900  0.09681500  0.87202100  1
  Se  Se11  1  0.75916000  0.87211900  0.77539000  1
  Se  Se12  1  0.75916200  0.22480300  0.09681800  1
  Se  Se13  1  0.75914900  0.90318500  0.12797900  1
loop_
_geom_bond_atom_site_label_1
_geom_bond_atom_site_label_2
_geom_bond_distance
_geom_bond_site_symmetry_2
Ga0 Se6 2.398276 1_555
Ga0 Se3 2.415044 1_455
Ga0 Se4 2.415081 1_455
Ga0 Se5 2.415134 1_455
Ga1 Se7 2.398276 1_555
Ga1 Se0 2.415044 1_555
Ga1 Se1 2.415081 1_555
Ga1 Se2 2.415134 1_555
Co0 Se8 2.534557 1_566
Co0 Se10 2.535569 1_565
Co0 Se9 2.535645 1_555
Co0 Se11 2.583749 1_555
Co0 Se12 2.585188 1_566
Co0 Se13 2.585241 1_556
Co1 Se11 2.534557 1_444
Co1 Se13 2.535569 1_445
Co1 Se12 2.535645 1_455
Co1 Se8 2.583749 1_555
Co1 Se9 2.585188 1_544
Co1 Se10 2.585241 1_554
Se0 Sm2 2.979528 1_555
Se0 Sm0 3.021856 1_555
Se0 Sm5 3.194327 1_554
Se1 Sm0 2.980004 1_555
Se1 Sm1 3.021975 1_555
Se1 Sm3 3.194503 1_565
Se2 Sm1 2.979896 1_555
Se2 Sm2 3.022028 1_555
Se2 Sm4 3.194189 1_555
Se3 Sm5 2.979528 1_555
Se3 Sm3 3.021856 1_555
Se3 Sm2 3.194327 1_656
Se4 Sm3 2.980004 1_555
Se4 Sm4 3.021975 1_555
Se4 Sm0 3.194503 1_645
Se5 Sm4 2.979896 1_555
Se5 Sm5 3.022028 1_555
Se5 Sm1 3.194189 1_655
Se6 Sm4 2.928817 1_555
Se6 Sm5 2.928928 1_555
Se6 Sm3 2.928983 1_555
Se7 Sm1 2.928817 1_655
Se7 Sm2 2.928928 1_655
Se7 Sm0 2.928983 1_655
Se8 Sm0 2.906815 1_545
Se8 Sm2 2.938335 1_555
Se8 Sm4 3.008544 1_555
Se9 Sm1 2.906749 1_555
Se9 Sm0 2.938427 1_556
Se9 Sm5 3.007874 1_555
Se10 Sm2 2.906866 1_556
Se10 Sm1 2.938286 1_545
Se10 Sm3 3.008022 1_555
Se11 Sm3 2.906815 1_565
Se11 Sm5 2.938335 1_555
Se11 Sm1 3.008544 1_655
Se12 Sm4 2.906749 1_555
Se12 Sm3 2.938427 1_554
Se12 Sm2 3.007874 1_655
Se13 Sm5 2.906866 1_554
Se13 Sm4 2.938286 1_565
Se13 Sm0 3.008022 1_655
