# generated using pymatgen
data_Cs2Sb2Pt
_symmetry_space_group_name_H-M   'P 1'
_cell_length_a   7.01087764
_cell_length_b   7.65161058
_cell_length_c   8.43261961
_cell_angle_alpha   116.98075112
_cell_angle_beta   90.00000000
_cell_angle_gamma   90.00000000
_symmetry_Int_Tables_number   1
_chemical_formula_structural   Cs2Sb2Pt
_chemical_formula_sum   'Cs4 Sb4 Pt2'
_cell_volume   403.12798842
_cell_formula_units_Z   2
loop_
 _symmetry_equiv_pos_site_id
 _symmetry_equiv_pos_as_xyz
  1  'x, y, z'
loop_
 _atom_site_type_symbol
 _atom_site_label
 _atom_site_symmetry_multiplicity
 _atom_site_fract_x
 _atom_site_fract_y
 _atom_site_fract_z
 _atom_site_occupancy
  Cs  Cs0  1  0.75000000  0.39692936  0.79385771  1
  Cs  Cs1  1  0.25000000  0.60307064  0.20614229  1
  Cs  Cs2  1  0.75000000  0.80238291  0.60476482  1
  Cs  Cs3  1  0.25000000  0.19761709  0.39523518  1
  Sb  Sb0  1  0.75000000  0.27969015  0.19205072  1
  Sb  Sb1  1  0.25000000  0.08764143  0.80794928  1
  Sb  Sb2  1  0.25000000  0.72030985  0.80794928  1
  Sb  Sb3  1  0.75000000  0.91235857  0.19205072  1
  Pt  Pt0  1  0.50000000  -0.00000000  -0.00000000  1
  Pt  Pt1  1  0.00000000  -0.00000000  -0.00000000  1
loop_
_geom_bond_atom_site_label_1
_geom_bond_atom_site_label_2
_geom_bond_distance
_geom_bond_site_symmetry_2
Cs0 Sb3 3.848729 1_556
Cs0 Sb0 3.848743 1_556
Cs0 Sb1 4.261215 1_655
Cs0 Sb1 4.261215 1_555
Cs0 Sb2 4.261219 1_555
Cs0 Sb2 4.261219 1_655
Cs1 Sb1 3.848729 1_554
Cs1 Sb2 3.848743 1_554
Cs1 Sb3 4.261215 1_555
Cs1 Sb3 4.261215 1_455
Cs1 Sb0 4.261219 1_455
Cs1 Sb0 4.261219 1_555
Cs2 Pt1 3.448711 1_666
Cs2 Pt0 3.448711 1_566
Cs2 Sb3 3.934170 1_555
Cs2 Sb0 3.934184 1_555
Cs2 Sb2 4.073631 1_655
Cs2 Sb2 4.073631 1_555
Cs2 Sb1 4.073633 1_565
Cs2 Sb1 4.073633 1_665
Cs3 Pt0 3.448711 1_555
Cs3 Pt1 3.448711 1_555
Cs3 Sb1 3.934170 1_555
Cs3 Sb2 3.934184 1_555
Cs3 Sb0 4.073631 1_455
Cs3 Sb0 4.073631 1_555
Cs3 Sb3 4.073633 1_445
Cs3 Sb3 4.073633 1_545
Sb0 Sb3 2.810678 1_545
Sb1 Sb2 2.810678 1_545
Pt0 Sb2 2.670183 1_544
Pt0 Sb0 2.670183 1_555
Pt0 Sb3 2.670191 1_545
Pt0 Sb1 2.670191 1_554
Pt1 Sb2 2.670183 1_544
Pt1 Sb0 2.670183 1_455
Pt1 Sb3 2.670191 1_445
Pt1 Sb1 2.670191 1_554
