# generated using pymatgen
data_RbVSe2
_symmetry_space_group_name_H-M   'P 1'
_cell_length_a   6.02032046
_cell_length_b   7.61540255
_cell_length_c   12.60944515
_cell_angle_alpha   84.58549284
_cell_angle_beta   76.18882821
_cell_angle_gamma   66.71702449
_symmetry_Int_Tables_number   1
_chemical_formula_structural   RbVSe2
_chemical_formula_sum   'Rb4 V4 Se8'
_cell_volume   515.67524934
_cell_formula_units_Z   4
loop_
 _symmetry_equiv_pos_site_id
 _symmetry_equiv_pos_as_xyz
  1  'x, y, z'
loop_
 _atom_site_type_symbol
 _atom_site_label
 _atom_site_symmetry_multiplicity
 _atom_site_fract_x
 _atom_site_fract_y
 _atom_site_fract_z
 _atom_site_occupancy
  Rb  Rb0  1  0.94726495  0.75000000  0.10547209  1
  Rb  Rb1  1  0.30273505  0.75000000  0.39452791  1
  Rb  Rb2  1  0.05273505  0.25000000  0.89452791  1
  Rb  Rb3  1  0.69726495  0.25000000  0.60547209  1
  V  V0  1  0.12500000  0.75000000  0.75000000  1
  V  V1  1  0.87500000  0.25000000  0.25000000  1
  V  V2  1  0.62500000  0.75000000  0.75000000  1
  V  V3  1  0.37500000  0.25000000  0.25000000  1
  Se  Se0  1  0.27464314  0.05318543  0.14398929  1
  Se  Se1  1  0.97181787  0.44681457  0.35601071  1
  Se  Se2  1  0.67217243  0.05318543  0.35601071  1
  Se  Se3  1  0.58136856  0.44681457  0.14398929  1
  Se  Se4  1  0.72535686  0.94681457  0.85601071  1
  Se  Se5  1  0.02818213  0.55318543  0.64398929  1
  Se  Se6  1  0.32782757  0.94681457  0.64398929  1
  Se  Se7  1  0.41863144  0.55318543  0.85601071  1
loop_
_geom_bond_atom_site_label_1
_geom_bond_atom_site_label_2
_geom_bond_distance
_geom_bond_site_symmetry_2
Rb0 Se7 3.668717 1_654
Rb0 Se4 3.668725 1_554
Rb0 Se0 3.703710 1_665
Rb0 Se3 3.703715 1_555
Rb0 Se3 3.720991 1_655
Rb0 Se0 3.720996 1_565
Rb0 Se2 3.729560 1_565
Rb0 Se1 3.729560 1_555
Rb1 Se5 3.668719 1_555
Rb1 Se6 3.668722 1_555
Rb1 Se2 3.703705 1_465
Rb1 Se1 3.703720 1_555
Rb1 Se1 3.720986 1_455
Rb1 Se2 3.721000 1_565
Rb1 Se3 3.729560 1_555
Rb1 Se0 3.729560 1_565
Rb2 Se3 3.668717 1_456
Rb2 Se0 3.668725 1_556
Rb2 Se4 3.703710 1_445
Rb2 Se7 3.703715 1_555
Rb2 Se7 3.720991 1_455
Rb2 Se4 3.720996 1_545
Rb2 Se6 3.729560 1_545
Rb2 Se5 3.729560 1_555
Rb3 Se1 3.668719 1_555
Rb3 Se2 3.668722 1_555
Rb3 Se6 3.703705 1_645
Rb3 Se5 3.703720 1_555
Rb3 Se5 3.720986 1_655
Rb3 Se6 3.721000 1_545
Rb3 Se7 3.729560 1_555
Rb3 Se4 3.729560 1_545
Se0 V1 2.411187 1_455
Se0 V3 2.424450 1_555
Se1 V1 2.411187 1_555
Se1 V3 2.424450 1_655
Se2 V1 2.411184 1_555
Se2 V3 2.424454 1_555
Se3 V1 2.411184 1_555
Se3 V3 2.424454 1_555
Se4 V0 2.411187 1_655
Se4 V2 2.424450 1_555
Se5 V0 2.411187 1_555
Se5 V2 2.424450 1_455
Se6 V0 2.411184 1_555
Se6 V2 2.424454 1_555
Se7 V0 2.411184 1_555
Se7 V2 2.424454 1_555
