# generated using pymatgen
data_BaAl5O9
_symmetry_space_group_name_H-M   'P 1'
_cell_length_a   5.70720567
_cell_length_b   5.70720567
_cell_length_c   13.49569700
_cell_angle_alpha   90.00000000
_cell_angle_beta   90.00000000
_cell_angle_gamma   119.99999618
_symmetry_Int_Tables_number   1
_chemical_formula_structural   BaAl5O9
_chemical_formula_sum   'Ba2 Al10 O18'
_cell_volume   380.69135483
_cell_formula_units_Z   2
loop_
 _symmetry_equiv_pos_site_id
 _symmetry_equiv_pos_as_xyz
  1  'x, y, z'
loop_
 _atom_site_type_symbol
 _atom_site_label
 _atom_site_symmetry_multiplicity
 _atom_site_fract_x
 _atom_site_fract_y
 _atom_site_fract_z
 _atom_site_occupancy
  Ba  Ba0  1  0.33333300  0.66666700  0.25000000  1
  Ba  Ba1  1  0.66666700  0.33333300  0.75000000  1
  Al  Al0  1  0.50000000  0.50000000  0.50000000  1
  Al  Al1  1  0.50000000  0.00000000  0.50000000  1
  Al  Al2  1  0.00000000  0.50000000  0.50000000  1
  Al  Al3  1  0.50000000  0.50000000  0.00000000  1
  Al  Al4  1  0.50000000  0.00000000  0.00000000  1
  Al  Al5  1  0.00000000  0.50000000  0.00000000  1
  Al  Al6  1  0.00000000  0.00000000  0.12050600  1
  Al  Al7  1  0.00000000  0.00000000  0.87949400  1
  Al  Al8  1  0.00000000  0.00000000  0.62050600  1
  Al  Al9  1  0.00000000  0.00000000  0.37949400  1
  O  O0  1  0.00000000  0.00000000  0.25000000  1
  O  O1  1  0.00000000  0.00000000  0.75000000  1
  O  O2  1  0.17152600  0.82847400  0.08020700  1
  O  O3  1  0.17152600  0.34305200  0.08020700  1
  O  O4  1  0.65694800  0.82847400  0.08020700  1
  O  O5  1  0.82847400  0.17152600  0.91979300  1
  O  O6  1  0.82847400  0.65694800  0.91979300  1
  O  O7  1  0.34305200  0.17152600  0.91979300  1
  O  O8  1  0.82847400  0.17152600  0.58020700  1
  O  O9  1  0.82847400  0.65694800  0.58020700  1
  O  O10  1  0.34305200  0.17152600  0.58020700  1
  O  O11  1  0.17152600  0.82847400  0.41979300  1
  O  O12  1  0.17152600  0.34305200  0.41979300  1
  O  O13  1  0.65694800  0.82847400  0.41979300  1
  O  O14  1  0.33333300  0.66666700  0.93366600  1
  O  O15  1  0.66666700  0.33333300  0.06633400  1
  O  O16  1  0.66666700  0.33333300  0.43366600  1
  O  O17  1  0.33333300  0.66666700  0.56633400  1
loop_
_geom_bond_atom_site_label_1
_geom_bond_atom_site_label_2
_geom_bond_distance
_geom_bond_site_symmetry_2
Ba0 O11 2.794499 1_555
Ba0 O2 2.794499 1_555
Ba0 O4 2.794502 1_555
Ba0 O13 2.794502 1_555
Ba0 O12 2.794502 1_555
Ba0 O3 2.794502 1_555
Ba0 O0 3.295053 1_565
Ba0 O0 3.295059 1_555
Ba0 O0 3.295059 1_665
Ba1 O8 2.794499 1_555
Ba1 O5 2.794499 1_555
Ba1 O6 2.794502 1_555
Ba1 O7 2.794502 1_555
Ba1 O9 2.794502 1_555
Ba1 O10 2.794502 1_555
Ba1 O1 3.295053 1_655
Ba1 O1 3.295059 1_665
Ba1 O1 3.295059 1_555
Al0 O16 1.875043 1_555
Al0 O17 1.875043 1_555
Al0 O12 1.951721 1_555
Al0 O10 1.951721 1_555
Al0 O13 1.951721 1_555
Al0 O9 1.951721 1_555
Al1 O17 1.875039 1_545
Al1 O16 1.875039 1_555
Al1 O13 1.951721 1_545
Al1 O10 1.951721 1_555
Al1 O11 1.951721 1_545
Al1 O8 1.951721 1_555
Al2 O17 1.875039 1_555
Al2 O16 1.875039 1_455
Al2 O12 1.951721 1_555
Al2 O9 1.951721 1_455
Al2 O11 1.951721 1_555
Al2 O8 1.951721 1_455
Al3 O14 1.875043 1_554
Al3 O15 1.875043 1_555
Al3 O3 1.951721 1_555
Al3 O7 1.951721 1_554
Al3 O4 1.951721 1_555
Al3 O6 1.951721 1_554
Al4 O14 1.875039 1_544
Al4 O15 1.875039 1_555
Al4 O4 1.951721 1_545
Al4 O7 1.951721 1_554
Al4 O2 1.951721 1_545
Al4 O5 1.951721 1_554
Al5 O14 1.875039 1_554
Al5 O15 1.875039 1_455
Al5 O6 1.951721 1_454
Al5 O3 1.951721 1_555
Al5 O5 1.951721 1_454
Al5 O2 1.951721 1_555
Al6 O0 1.747612 1_555
Al6 O2 1.780652 1_545
Al6 O4 1.780653 1_445
Al6 O3 1.780653 1_555
Al7 O1 1.747612 1_555
Al7 O5 1.780652 1_455
Al7 O6 1.780653 1_445
Al7 O7 1.780653 1_555
Al8 O1 1.747612 1_555
Al8 O8 1.780652 1_455
Al8 O9 1.780653 1_445
Al8 O10 1.780653 1_555
Al9 O0 1.747612 1_555
Al9 O11 1.780652 1_545
Al9 O12 1.780653 1_555
Al9 O13 1.780653 1_445
