# generated using pymatgen
data_BaMn4O7
_symmetry_space_group_name_H-M   'P 1'
_cell_length_a   6.61520288
_cell_length_b   6.61520288
_cell_length_c   10.82809700
_cell_angle_alpha   90.00000000
_cell_angle_beta   90.00000000
_cell_angle_gamma   120.00000881
_symmetry_Int_Tables_number   1
_chemical_formula_structural   BaMn4O7
_chemical_formula_sum   'Ba2 Mn8 O14'
_cell_volume   410.36382274
_cell_formula_units_Z   2
loop_
 _symmetry_equiv_pos_site_id
 _symmetry_equiv_pos_as_xyz
  1  'x, y, z'
loop_
 _atom_site_type_symbol
 _atom_site_label
 _atom_site_symmetry_multiplicity
 _atom_site_fract_x
 _atom_site_fract_y
 _atom_site_fract_z
 _atom_site_occupancy
  Ba  Ba0  1  0.66666700  0.33333300  0.46384000  1
  Ba  Ba1  1  0.33333300  0.66666700  0.96384000  1
  Mn  Mn0  1  0.83059300  0.16940700  0.19136400  1
  Mn  Mn1  1  0.66118700  0.83059300  0.69136400  1
  Mn  Mn2  1  0.16940700  0.33881300  0.69136400  1
  Mn  Mn3  1  0.83059300  0.66118700  0.19136400  1
  Mn  Mn4  1  0.33881300  0.16940700  0.19136400  1
  Mn  Mn5  1  0.16940700  0.83059300  0.69136400  1
  Mn  Mn6  1  0.00000000  0.00000000  0.44742500  1
  Mn  Mn7  1  0.00000000  0.00000000  0.94742500  1
  O  O0  1  0.85498600  0.14501400  0.01291900  1
  O  O1  1  0.70997100  0.85498600  0.51291900  1
  O  O2  1  0.14501400  0.29002900  0.51291900  1
  O  O3  1  0.85498600  0.70997100  0.01291900  1
  O  O4  1  0.29002900  0.14501400  0.01291900  1
  O  O5  1  0.14501400  0.85498600  0.51291900  1
  O  O6  1  0.00000000  0.00000000  0.76150000  1
  O  O7  1  0.00000000  0.00000000  0.26150000  1
  O  O8  1  0.52407900  0.47592100  0.25614600  1
  O  O9  1  0.04815800  0.52407900  0.75614600  1
  O  O10  1  0.47592100  0.95184200  0.75614600  1
  O  O11  1  0.52407900  0.04815800  0.25614600  1
  O  O12  1  0.47592100  0.52407900  0.75614600  1
  O  O13  1  0.95184200  0.47592100  0.25614600  1
loop_
_geom_bond_atom_site_label_1
_geom_bond_atom_site_label_2
_geom_bond_distance
_geom_bond_site_symmetry_2
Ba0 O11 2.779717 1_555
Ba0 O13 2.779717 1_555
Ba0 O8 2.779720 1_555
Ba0 O2 3.359189 1_655
Ba0 O1 3.359189 1_545
Ba0 O5 3.359196 1_655
Ba0 O5 3.359196 1_545
Ba0 O1 3.359202 1_555
Ba0 O2 3.359202 1_555
Ba1 O9 2.779717 1_555
Ba1 O10 2.779717 1_555
Ba1 O12 2.779720 1_555
Ba1 O4 3.359189 1_566
Ba1 O3 3.359189 1_456
Ba1 O0 3.359196 1_566
Ba1 O0 3.359196 1_456
Ba1 O3 3.359202 1_556
Ba1 O4 3.359202 1_556
Mn0 O11 1.902740 1_555
Mn0 O13 1.902740 1_555
Mn0 O0 1.952329 1_555
Mn0 O7 2.084322 1_655
Mn1 O12 1.902740 1_555
Mn1 O10 1.902745 1_555
Mn1 O1 1.952327 1_555
Mn1 O6 2.084316 1_665
Mn2 O12 1.902740 1_555
Mn2 O9 1.902745 1_555
Mn2 O2 1.952327 1_555
Mn2 O6 2.084316 1_555
Mn3 O8 1.902740 1_555
Mn3 O13 1.902745 1_555
Mn3 O3 1.952327 1_555
Mn3 O7 2.084316 1_665
Mn4 O8 1.902740 1_555
Mn4 O11 1.902745 1_555
Mn4 O4 1.952327 1_555
Mn4 O7 2.084316 1_555
Mn5 O9 1.902740 1_555
Mn5 O10 1.902740 1_555
Mn5 O5 1.952329 1_555
Mn5 O6 2.084322 1_565
Mn6 O5 1.806566 1_545
Mn6 O1 1.806572 1_445
Mn6 O2 1.806572 1_555
Mn6 O7 2.013214 1_555
Mn7 O0 1.806566 1_456
Mn7 O4 1.806572 1_556
Mn7 O3 1.806572 1_446
Mn7 O6 2.013214 1_555
