# generated using pymatgen
data_BaSrLaBiO6
_symmetry_space_group_name_H-M   'P 1'
_cell_length_a   6.10832192
_cell_length_b   6.32146881
_cell_length_c   8.77607295
_cell_angle_alpha   90.00077254
_cell_angle_beta   89.46799585
_cell_angle_gamma   89.99952652
_symmetry_Int_Tables_number   1
_chemical_formula_structural   BaSrLaBiO6
_chemical_formula_sum   'Ba2 Sr2 La2 Bi2 O12'
_cell_volume   338.86086851
_cell_formula_units_Z   2
loop_
 _symmetry_equiv_pos_site_id
 _symmetry_equiv_pos_as_xyz
  1  'x, y, z'
loop_
 _atom_site_type_symbol
 _atom_site_label
 _atom_site_symmetry_multiplicity
 _atom_site_fract_x
 _atom_site_fract_y
 _atom_site_fract_z
 _atom_site_occupancy
  Ba  Ba0  1  0.99425738  0.03379522  0.24735184  1
  Ba  Ba1  1  0.49421353  0.46618717  0.74735048  1
  Sr  Sr0  1  0.50322950  0.01473722  0.99727295  1
  Sr  Sr1  1  0.00323194  0.48525507  0.49728180  1
  La  La0  1  0.52378707  0.56233016  0.24751447  1
  La  La1  1  0.02382870  0.93767637  0.74750368  1
  Bi  Bi0  1  0.00122945  0.50078243  0.00055692  1
  Bi  Bi1  1  0.50116528  0.99917696  0.50055425  1
  O  O0  1  0.15119901  0.20356179  0.93420175  1
  O  O1  1  0.29718158  0.73515432  0.56710666  1
  O  O2  1  0.79714436  0.76487832  0.06712220  1
  O  O3  1  0.65123712  0.29642842  0.43418324  1
  O  O4  1  0.26612778  0.71054215  0.94757527  1
  O  O5  1  0.20712791  0.16618458  0.56525305  1
  O  O6  1  0.70707831  0.33384179  0.06523514  1
  O  O7  1  0.76616847  0.78945842  0.44758190  1
  O  O8  1  0.41281671  0.93600928  0.26728909  1
  O  O9  1  0.14308783  0.46366231  0.22588600  1
  O  O10  1  0.64309979  0.03634963  0.72589390  1
  O  O11  1  0.91278831  0.56398838  0.76728542  1
loop_
_geom_bond_atom_site_label_1
_geom_bond_atom_site_label_2
_geom_bond_distance
_geom_bond_site_symmetry_2
Ba0 O2 2.622336 1_545
Ba0 O8 2.637745 1_645
Ba0 O7 2.714650 1_545
Ba0 O9 2.871071 1_655
Ba0 O6 3.046525 1_555
Ba0 O0 3.094292 1_654
Ba0 O3 3.125869 1_555
Ba0 O5 3.200332 1_655
Ba1 O1 2.622402 1_555
Ba1 O11 2.637867 1_555
Ba1 O4 2.714635 1_555
Ba1 O10 2.870978 1_555
Ba1 O5 3.045922 1_555
Ba1 O3 3.094528 1_555
Ba1 O0 3.125952 1_555
Ba1 O6 3.200132 1_556
La0 O9 2.416800 1_555
La0 O6 2.421865 1_555
La0 O8 2.463201 1_555
La0 O3 2.477692 1_555
La0 O2 2.623896 1_555
La0 O7 2.717459 1_555
La1 O10 2.416960 1_465
La1 O5 2.421833 1_565
La1 O11 2.463392 1_455
La1 O0 2.477616 1_565
La1 O1 2.623789 1_555
La1 O4 2.717238 1_555
Bi0 O4 2.139795 1_554
Bi0 O6 2.155310 1_455
Bi0 O11 2.159422 1_454
Bi0 O2 2.160760 1_455
Bi0 O0 2.167598 1_554
Bi0 O9 2.179052 1_555
Bi1 O7 2.140076 1_555
Bi1 O5 2.154964 1_565
Bi1 O8 2.159170 1_555
Bi1 O1 2.160044 1_555
Bi1 O3 2.168093 1_565
Bi1 O10 2.179357 1_565
O0 Sr0 2.525295 1_555
O1 Sr1 2.472948 1_555
O2 Sr0 2.472676 1_564
O3 Sr1 2.525179 1_655
O4 Sr0 2.448940 1_565
O5 Sr1 2.447257 1_555
O6 Sr0 2.447271 1_554
O7 Sr1 2.448837 1_655
O8 Sr0 2.478670 1_564
O9 Sr1 2.526571 1_555
O10 Sr0 2.526472 1_555
O11 Sr1 2.478598 1_655
