# generated using pymatgen
data_Er4CrSe7
_symmetry_space_group_name_H-M   'P 1'
_cell_length_a   6.78704020
_cell_length_b   6.78704020
_cell_length_c   11.92890262
_cell_angle_alpha   75.76283628
_cell_angle_beta   75.76283628
_cell_angle_gamma   33.76171952
_symmetry_Int_Tables_number   1
_chemical_formula_structural   Er4CrSe7
_chemical_formula_sum   'Er4 Cr1 Se7'
_cell_volume   295.11684933
_cell_formula_units_Z   1
loop_
 _symmetry_equiv_pos_site_id
 _symmetry_equiv_pos_as_xyz
  1  'x, y, z'
loop_
 _atom_site_type_symbol
 _atom_site_label
 _atom_site_symmetry_multiplicity
 _atom_site_fract_x
 _atom_site_fract_y
 _atom_site_fract_z
 _atom_site_occupancy
  Er  Er0  1  0.69526400  0.69526400  0.20414500  1
  Er  Er1  1  0.30499300  0.30499300  0.80348200  1
  Er  Er2  1  0.99930300  0.99930300  0.00648600  1
  Er  Er3  1  0.11334700  0.11334700  0.56495400  1
  Cr  Cr0  1  0.88458700  0.88458700  0.42357700  1
  Se  Se0  1  0.74700000  0.74700000  0.63663800  1
  Se  Se1  1  0.27018100  0.27018100  0.35337500  1
  Se  Se2  1  0.33702700  0.33702700  0.05100900  1
  Se  Se3  1  0.66004900  0.66004900  0.94864800  1
  Se  Se4  1  0.03140100  0.03140100  0.22885400  1
  Se  Se5  1  0.96491500  0.96491500  0.78418500  1
  Se  Se6  1  0.49193300  0.49193300  0.49464700  1
loop_
_geom_bond_atom_site_label_1
_geom_bond_atom_site_label_2
_geom_bond_distance
_geom_bond_site_symmetry_2
Er0 Se4 2.859875 1_655
Er0 Se4 2.859875 1_565
Er0 Se2 2.980413 1_565
Er0 Se2 2.980413 1_655
Er0 Se1 2.981696 1_565
Er0 Se1 2.981696 1_655
Er0 Se3 3.196077 1_554
Er1 Se5 2.829557 1_455
Er1 Se5 2.829557 1_545
Er1 Se3 2.958317 1_455
Er1 Se3 2.958317 1_545
Er1 Se0 3.030417 1_545
Er1 Se0 3.030417 1_455
Er1 Se2 3.085978 1_556
Er2 Se4 2.789019 1_665
Er2 Se5 2.800080 1_554
Er2 Se3 2.824768 1_654
Er2 Se3 2.824768 1_564
Er2 Se2 2.834395 1_655
Er2 Se2 2.834395 1_565
Er3 Se6 2.784711 1_455
Er3 Se6 2.784711 1_545
Er3 Se1 2.806633 1_555
Er3 Se5 2.822175 1_445
Er3 Se0 2.896952 1_545
Er3 Se0 2.896952 1_455
Cr0 Se4 2.599087 1_665
Cr0 Se6 2.674836 1_565
Cr0 Se6 2.674836 1_655
Cr0 Se0 2.705320 1_555
Cr0 Se1 2.726443 1_565
Cr0 Se1 2.726443 1_655
