# generated using pymatgen
data_Sr5(CoN2)2
_symmetry_space_group_name_H-M   'P 1'
_cell_length_a   8.72079900
_cell_length_b   8.72079900
_cell_length_c   12.46718000
_cell_angle_alpha   90.00000000
_cell_angle_beta   90.00000000
_cell_angle_gamma   90.00000000
_symmetry_Int_Tables_number   1
_chemical_formula_structural   Sr5(CoN2)2
_chemical_formula_sum   'Sr20 Co8 N16'
_cell_volume   948.15815234
_cell_formula_units_Z   4
loop_
 _symmetry_equiv_pos_site_id
 _symmetry_equiv_pos_as_xyz
  1  'x, y, z'
loop_
 _atom_site_type_symbol
 _atom_site_label
 _atom_site_symmetry_multiplicity
 _atom_site_fract_x
 _atom_site_fract_y
 _atom_site_fract_z
 _atom_site_occupancy
  Sr  Sr0  1  0.75000000  0.75000000  0.34594300  1
  Sr  Sr1  1  0.75000000  0.75000000  0.84594300  1
  Sr  Sr2  1  0.25000000  0.25000000  0.65405700  1
  Sr  Sr3  1  0.25000000  0.25000000  0.15405700  1
  Sr  Sr4  1  0.13235400  0.57659000  0.40121300  1
  Sr  Sr5  1  0.36764600  0.57659000  0.90121300  1
  Sr  Sr6  1  0.13235400  0.92341000  0.90121300  1
  Sr  Sr7  1  0.36764600  0.92341000  0.40121300  1
  Sr  Sr8  1  0.57659000  0.13235400  0.90121300  1
  Sr  Sr9  1  0.92341000  0.13235400  0.40121300  1
  Sr  Sr10  1  0.57659000  0.36764600  0.40121300  1
  Sr  Sr11  1  0.92341000  0.36764600  0.90121300  1
  Sr  Sr12  1  0.86764600  0.42341000  0.59878700  1
  Sr  Sr13  1  0.63235400  0.42341000  0.09878700  1
  Sr  Sr14  1  0.86764600  0.07659000  0.09878700  1
  Sr  Sr15  1  0.63235400  0.07659000  0.59878700  1
  Sr  Sr16  1  0.42341000  0.86764600  0.09878700  1
  Sr  Sr17  1  0.07659000  0.86764600  0.59878700  1
  Sr  Sr18  1  0.42341000  0.63235400  0.59878700  1
  Sr  Sr19  1  0.07659000  0.63235400  0.09878700  1
  Co  Co0  1  0.09108200  0.90891800  0.25000000  1
  Co  Co1  1  0.40891800  0.90891800  0.75000000  1
  Co  Co2  1  0.09108200  0.59108200  0.75000000  1
  Co  Co3  1  0.40891800  0.59108200  0.25000000  1
  Co  Co4  1  0.90891800  0.09108200  0.75000000  1
  Co  Co5  1  0.59108200  0.09108200  0.25000000  1
  Co  Co6  1  0.90891800  0.40891800  0.25000000  1
  Co  Co7  1  0.59108200  0.40891800  0.75000000  1
  N  N0  1  0.64065900  0.05015700  0.38716800  1
  N  N1  1  0.85934100  0.05015700  0.88716800  1
  N  N2  1  0.64065900  0.44984300  0.88716800  1
  N  N3  1  0.85934100  0.44984300  0.38716800  1
  N  N4  1  0.05015700  0.64065900  0.88716800  1
  N  N5  1  0.44984300  0.64065900  0.38716800  1
  N  N6  1  0.05015700  0.85934100  0.38716800  1
  N  N7  1  0.44984300  0.85934100  0.88716800  1
  N  N8  1  0.35934100  0.94984300  0.61283200  1
  N  N9  1  0.14065900  0.94984300  0.11283200  1
  N  N10  1  0.35934100  0.55015700  0.11283200  1
  N  N11  1  0.14065900  0.55015700  0.61283200  1
  N  N12  1  0.94984300  0.35934100  0.11283200  1
  N  N13  1  0.55015700  0.35934100  0.61283200  1
  N  N14  1  0.94984300  0.14065900  0.61283200  1
  N  N15  1  0.55015700  0.14065900  0.11283200  1
loop_
_geom_bond_atom_site_label_1
_geom_bond_atom_site_label_2
_geom_bond_distance
_geom_bond_site_symmetry_2
Co0 N6 1.799650 1_555
Co0 N9 1.799650 1_555
Co1 N7 1.799650 1_555
Co1 N8 1.799650 1_555
Co2 N4 1.799650 1_555
Co2 N11 1.799650 1_555
Co3 N5 1.799650 1_555
Co3 N10 1.799650 1_555
Co4 N1 1.799650 1_555
Co4 N14 1.799650 1_555
Co5 N0 1.799650 1_555
Co5 N15 1.799650 1_555
Co6 N3 1.799650 1_555
Co6 N12 1.799650 1_555
Co7 N2 1.799650 1_555
Co7 N13 1.799650 1_555
N0 Sr9 2.573857 1_555
N0 Sr7 2.630793 1_545
N0 Sr15 2.649334 1_555
N0 Sr10 2.829993 1_555
N0 Sr0 2.832891 1_545
N1 Sr8 2.573857 1_555
N1 Sr6 2.630793 1_645
N1 Sr14 2.649334 1_556
N1 Sr11 2.829993 1_555
N1 Sr1 2.832891 1_545
N2 Sr11 2.573857 1_555
N2 Sr5 2.630793 1_555
N2 Sr13 2.649334 1_556
N2 Sr8 2.829993 1_555
N2 Sr1 2.832891 1_555
N3 Sr10 2.573857 1_555
N3 Sr4 2.630793 1_655
N3 Sr12 2.649334 1_555
N3 Sr9 2.829993 1_555
N3 Sr0 2.832891 1_555
N4 Sr6 2.573857 1_555
N4 Sr11 2.630793 1_455
N4 Sr19 2.649334 1_556
N4 Sr5 2.829993 1_555
N4 Sr1 2.832891 1_455
N5 Sr7 2.573857 1_555
N5 Sr10 2.630793 1_555
N5 Sr18 2.649334 1_555
N5 Sr4 2.829993 1_555
N5 Sr0 2.832891 1_555
N6 Sr4 2.573857 1_555
N6 Sr9 2.630793 1_465
N6 Sr17 2.649334 1_555
N6 Sr7 2.829993 1_555
N6 Sr0 2.832891 1_455
N7 Sr5 2.573857 1_555
N7 Sr8 2.630793 1_565
N7 Sr16 2.649334 1_556
N7 Sr6 2.829993 1_555
N7 Sr1 2.832891 1_555
N8 Sr17 2.573857 1_555
N8 Sr15 2.630793 1_565
N8 Sr7 2.649334 1_555
N8 Sr18 2.829993 1_555
N8 Sr2 2.832891 1_565
N9 Sr16 2.573857 1_555
N9 Sr14 2.630793 1_465
N9 Sr6 2.649334 1_554
N9 Sr19 2.829993 1_555
N9 Sr3 2.832891 1_565
N10 Sr19 2.573857 1_555
N10 Sr13 2.630793 1_555
N10 Sr5 2.649334 1_554
N10 Sr16 2.829993 1_555
N10 Sr3 2.832891 1_555
N11 Sr18 2.573857 1_555
N11 Sr12 2.630793 1_455
N11 Sr4 2.649334 1_555
N11 Sr17 2.829993 1_555
N11 Sr2 2.832891 1_555
N12 Sr14 2.573857 1_555
N12 Sr19 2.630793 1_655
N12 Sr11 2.649334 1_554
N12 Sr13 2.829993 1_555
N12 Sr3 2.832891 1_655
N13 Sr15 2.573857 1_555
N13 Sr18 2.630793 1_555
N13 Sr10 2.649334 1_555
N13 Sr12 2.829993 1_555
N13 Sr2 2.832891 1_555
N14 Sr12 2.573857 1_555
N14 Sr17 2.630793 1_645
N14 Sr9 2.649334 1_555
N14 Sr15 2.829993 1_555
N14 Sr2 2.832891 1_655
N15 Sr13 2.573857 1_555
N15 Sr16 2.630793 1_545
N15 Sr8 2.649334 1_554
N15 Sr14 2.829993 1_555
N15 Sr3 2.832891 1_555
