# generated using pymatgen
data_Li9Mn2Co5O16
_symmetry_space_group_name_H-M   'P 1'
_cell_length_a   2.92438900
_cell_length_b   5.12463231
_cell_length_c   19.35065341
_cell_angle_alpha   92.58229395
_cell_angle_beta   93.61464834
_cell_angle_gamma   90.82194900
_symmetry_Int_Tables_number   1
_chemical_formula_structural   Li9Mn2Co5O16
_chemical_formula_sum   'Li9 Mn2 Co5 O16'
_cell_volume   289.08322857
_cell_formula_units_Z   1
loop_
 _symmetry_equiv_pos_site_id
 _symmetry_equiv_pos_as_xyz
  1  'x, y, z'
loop_
 _atom_site_type_symbol
 _atom_site_label
 _atom_site_symmetry_multiplicity
 _atom_site_fract_x
 _atom_site_fract_y
 _atom_site_fract_z
 _atom_site_occupancy
  Li  Li0  1  0.07311000  0.69960000  0.13508200  1
  Li  Li1  1  0.67697300  0.55349900  0.36894000  1
  Li  Li2  1  0.31421800  0.43589100  0.62351700  1
  Li  Li3  1  0.93804600  0.31039300  0.87562600  1
  Li  Li4  1  0.57276100  0.19802500  0.13177900  1
  Li  Li5  1  0.18250500  0.05039900  0.36973400  1
  Li  Li6  1  0.81267000  0.94409600  0.62083000  1
  Li  Li7  1  0.43610900  0.81381400  0.87545800  1
  Li  Li8  1  0.62492600  0.87568700  0.25061800  1
  Mn  Mn0  1  0.00166100  0.00103900  0.00199500  1
  Mn  Mn1  1  0.87535700  0.62539500  0.75009200  1
  Co  Co0  1  0.24931100  0.74690500  0.49716500  1
  Co  Co1  1  0.50201200  0.50214300  0.00251400  1
  Co  Co2  1  0.12425900  0.37496500  0.25009300  1
  Co  Co3  1  0.74824200  0.24801500  0.49807300  1
  Co  Co4  1  0.37461000  0.12514900  0.74920600  1
  O  O0  1  0.52382100  0.86440800  0.05789300  1
  O  O1  1  0.15164200  0.66934000  0.30441000  1
  O  O2  1  0.79744300  0.60138900  0.55594400  1
  O  O3  1  0.39640200  0.49032400  0.80703200  1
  O  O4  1  0.02917800  0.32306400  0.05727700  1
  O  O5  1  0.64515700  0.23216500  0.30519000  1
  O  O6  1  0.29795700  0.09687100  0.55728100  1
  O  O7  1  0.90199500  0.94958200  0.80679800  1
  O  O8  1  0.60198700  0.52044000  0.19403100  1
  O  O9  1  0.19949400  0.39348600  0.44170800  1
  O  O10  1  0.84841000  0.30400200  0.69286800  1
  O  O11  1  0.47802100  0.13970900  0.94495600  1
  O  O12  1  0.09711900  0.07830600  0.19592200  1
  O  O13  1  0.69706600  0.89672000  0.43938600  1
  O  O14  1  0.35504300  0.75780500  0.69379100  1
  O  O15  1  0.97249600  0.67737200  0.94479000  1
loop_
_geom_bond_atom_site_label_1
_geom_bond_atom_site_label_2
_geom_bond_distance
_geom_bond_site_symmetry_2
Li0 O8 2.073305 1_455
Li0 O8 2.109246 1_555
Li0 O12 2.221974 1_565
Li0 O0 2.238654 1_555
Li0 O0 2.318341 1_455
Li0 O4 2.390267 1_555
Li1 O5 2.010026 1_555
Li1 O1 2.024904 1_655
Li1 O1 2.030484 1_555
Li1 O13 2.173994 1_555
Li1 O9 2.204273 1_655
Li1 O9 2.219019 1_555
Li2 O14 2.087260 1_555
Li2 O10 2.097419 1_455
Li2 O6 2.110149 1_555
Li2 O10 2.132100 1_555
Li2 O2 2.144874 1_455
Li2 O2 2.173606 1_555
Li3 O11 2.162010 1_555
Li3 O3 2.169776 1_655
Li3 O11 2.221873 1_655
Li3 O7 2.226807 1_545
Li3 O3 2.237885 1_555
Li3 O15 2.255863 1_555
Li4 O8 1.997995 1_555
Li4 O12 2.028202 1_555
Li4 O12 2.030768 1_655
Li4 O4 2.138190 1_655
Li4 O0 2.175895 1_545
Li4 O4 2.199879 1_555
Li5 O5 2.130697 1_555
Li5 O13 2.138947 1_545
Li5 O13 2.181045 1_445
Li5 O5 2.190042 1_455
Li5 O9 2.191249 1_555
Li5 O1 2.275414 1_545
Li6 O6 2.068336 1_565
Li6 O6 2.100981 1_665
Li6 O2 2.110661 1_555
Li6 O14 2.240253 1_555
Li6 O10 2.258383 1_565
Li6 O14 2.302820 1_655
Li7 O3 2.071759 1_555
Li7 O11 2.093744 1_565
Li7 O7 2.095201 1_555
Li7 O15 2.100876 1_455
Li7 O7 2.131154 1_455
Li7 O15 2.144762 1_555
Li8 O5 2.066664 1_565
Li8 O8 2.079755 1_555
Li8 O12 2.085037 1_665
Li8 O1 2.087149 1_555
Li8 O1 2.125569 1_655
Li8 O12 2.125991 1_565
Mn0 O4 1.923654 1_555
Mn0 O15 1.949978 1_444
Mn0 O0 1.960539 1_445
Mn0 O0 1.970440 1_545
Mn0 O11 1.974846 1_554
Mn0 O11 1.989218 1_454
Mn1 O10 1.940614 1_555
Mn1 O7 1.947157 1_555
Mn1 O14 1.961423 1_655
Mn1 O14 1.962101 1_555
Mn1 O3 1.972428 1_555
Mn1 O3 1.975402 1_655
Co0 O13 1.946061 1_555
Co0 O2 1.957976 1_455
Co0 O9 2.061710 1_555
Co0 O2 2.073664 1_555
Co0 O13 2.081562 1_455
Co0 O6 2.091349 1_565
Co1 O4 2.028089 1_555
Co1 O15 2.048370 1_554
Co1 O4 2.064955 1_655
Co1 O15 2.089049 1_454
Co1 O0 2.099442 1_555
Co1 O11 2.120179 1_554
Co2 O1 1.797211 1_555
Co2 O12 1.805209 1_555
Co2 O5 1.965833 1_455
Co2 O5 1.972359 1_555
Co2 O8 1.979527 1_555
Co2 O8 1.990477 1_455
Co3 O9 1.927004 1_655
Co3 O6 1.971679 1_555
Co3 O9 2.051218 1_555
Co3 O13 2.083172 1_545
Co3 O2 2.084136 1_555
Co3 O6 2.092932 1_655
Co4 O10 2.047546 1_555
Co4 O7 2.051972 1_445
Co4 O10 2.077374 1_455
Co4 O7 2.084115 1_545
Co4 O14 2.122317 1_545
Co4 O3 2.134747 1_555
