# generated using pymatgen
data_CaCuP4(RuO7)2
_symmetry_space_group_name_H-M   'P 1'
_cell_length_a   5.00450885
_cell_length_b   6.70144528
_cell_length_c   8.72521373
_cell_angle_alpha   93.50777676
_cell_angle_beta   91.31655968
_cell_angle_gamma   106.56334582
_symmetry_Int_Tables_number   1
_chemical_formula_structural   CaCuP4(RuO7)2
_chemical_formula_sum   'Ca1 Cu1 P4 Ru2 O14'
_cell_volume   279.70364748
_cell_formula_units_Z   1
loop_
 _symmetry_equiv_pos_site_id
 _symmetry_equiv_pos_as_xyz
  1  'x, y, z'
loop_
 _atom_site_type_symbol
 _atom_site_label
 _atom_site_symmetry_multiplicity
 _atom_site_fract_x
 _atom_site_fract_y
 _atom_site_fract_z
 _atom_site_occupancy
  Ca  Ca0  1  0.41066500  0.55580600  0.06565000  1
  Cu  Cu0  1  0.00053800  0.00062500  0.50921300  1
  P  P0  1  0.39650200  0.78498400  0.78134100  1
  P  P1  1  0.59955600  0.21168200  0.21373400  1
  P  P2  1  0.01807100  0.64694700  0.27985300  1
  P  P3  1  0.97130100  0.35302100  0.72902200  1
  Ru  Ru0  1  0.49748700  0.49390400  0.50293100  1
  Ru  Ru1  1  0.00248900  0.99901800  0.99633200  1
  O  O0  1  0.12269500  0.79297600  0.15167100  1
  O  O1  1  0.88572900  0.20116500  0.85297200  1
  O  O2  1  0.47772400  0.77132700  0.61478300  1
  O  O3  1  0.51778700  0.21858800  0.38067600  1
  O  O4  1  0.20371700  0.54988900  0.82222300  1
  O  O5  1  0.78789600  0.45614400  0.18162900  1
  O  O6  1  0.22275500  0.93475100  0.80932600  1
  O  O7  1  0.77497200  0.06467700  0.18139100  1
  O  O8  1  0.25598700  0.55711200  0.32253600  1
  O  O9  1  0.73434900  0.43590400  0.67963100  1
  O  O10  1  0.63019600  0.79652000  0.90468400  1
  O  O11  1  0.36724100  0.20798800  0.09201700  1
  O  O12  1  0.13703300  0.28383600  0.59530200  1
  O  O13  1  0.86030900  0.72017300  0.41120700  1
loop_
_geom_bond_atom_site_label_1
_geom_bond_atom_site_label_2
_geom_bond_distance
_geom_bond_site_symmetry_2
Ca0 O10 2.262613 1_554
Ca0 O11 2.304839 1_555
Ca0 O4 2.334644 1_554
Ca0 O8 2.388365 1_555
Ca0 O5 2.397474 1_555
Ca0 O0 2.525084 1_555
Cu0 O12 1.922431 1_555
Cu0 O13 1.944161 1_445
O0 P2 1.533418 1_555
O0 Ru1 2.184167 1_554
O1 P3 1.515295 1_555
O1 Ru1 2.089566 1_645
O2 P0 1.522375 1_555
O2 Ru0 2.075056 1_555
O3 P1 1.523560 1_555
O3 Ru0 2.103157 1_555
O4 P3 1.644707 1_455
O4 P0 1.660765 1_555
O5 P2 1.636191 1_655
O5 P1 1.684823 1_555
O6 P0 1.516689 1_555
O6 Ru1 2.080933 1_555
O7 P1 1.513689 1_555
O7 Ru1 2.092946 1_644
O8 P2 1.527916 1_555
O8 Ru0 2.098474 1_555
O9 P3 1.510547 1_555
O9 Ru0 2.045779 1_555
O10 P0 1.553186 1_555
O10 Ru1 2.075930 1_655
O11 P1 1.550419 1_555
O11 Ru1 2.078380 1_544
O12 P3 1.568972 1_455
O12 Ru0 2.154801 1_555
O13 P2 1.539913 1_655
O13 Ru0 2.209566 1_555
