# generated using pymatgen
data_SmDy(CoO3)4
_symmetry_space_group_name_H-M   'P 1'
_cell_length_a   5.24699970
_cell_length_b   5.24699970
_cell_length_c   7.48993786
_cell_angle_alpha   90.00000000
_cell_angle_beta   90.00000000
_cell_angle_gamma   90.00000000
_symmetry_Int_Tables_number   1
_chemical_formula_structural   SmDy(CoO3)4
_chemical_formula_sum   'Sm1 Dy1 Co4 O12'
_cell_volume   206.20552305
_cell_formula_units_Z   1
loop_
 _symmetry_equiv_pos_site_id
 _symmetry_equiv_pos_as_xyz
  1  'x, y, z'
loop_
 _atom_site_type_symbol
 _atom_site_label
 _atom_site_symmetry_multiplicity
 _atom_site_fract_x
 _atom_site_fract_y
 _atom_site_fract_z
 _atom_site_occupancy
  Sm  Sm0  1  -0.00000000  0.00000000  0.50000000  1
  Dy  Dy0  1  0.50000000  0.50000000  -0.00000000  1
  Co  Co0  1  -0.00000000  0.50000000  0.75030204  1
  Co  Co1  1  -0.00000000  0.50000000  0.24969796  1
  Co  Co2  1  0.50000000  0.00000000  0.24969796  1
  Co  Co3  1  0.50000000  0.00000000  0.75030204  1
  O  O0  1  0.25188290  0.25188290  0.24686353  1
  O  O1  1  0.25188290  0.25188290  0.75313647  1
  O  O2  1  0.74811710  0.74811710  0.24686353  1
  O  O3  1  0.74811710  0.74811710  0.75313647  1
  O  O4  1  0.74811710  0.25188290  0.75313647  1
  O  O5  1  0.74811710  0.25188290  0.24686353  1
  O  O6  1  0.25188290  0.74811710  0.75313647  1
  O  O7  1  0.25188290  0.74811710  0.24686353  1
  O  O8  1  -0.00000000  0.50000000  0.50000000  1
  O  O9  1  -0.00000000  0.50000000  -0.00000000  1
  O  O10  1  0.50000000  -0.00000000  0.50000000  1
  O  O11  1  0.50000000  -0.00000000  -0.00000000  1
loop_
_geom_bond_atom_site_label_1
_geom_bond_atom_site_label_2
_geom_bond_distance
_geom_bond_site_symmetry_2
Dy0 O3 2.609311 1_554
Dy0 O2 2.609311 1_555
Dy0 O4 2.609311 1_554
Dy0 O6 2.609311 1_554
Dy0 O5 2.609311 1_555
Dy0 O7 2.609311 1_555
Dy0 O1 2.609311 1_554
Dy0 O0 2.609311 1_555
Dy0 O9 2.623500 1_555
Dy0 O9 2.623500 1_655
Dy0 O11 2.623500 1_565
Dy0 O11 2.623500 1_555
Co0 O6 1.855269 1_555
Co0 O3 1.855269 1_455
Co0 O1 1.855269 1_555
Co0 O4 1.855269 1_455
Co0 O9 1.870222 1_556
Co0 O8 1.874747 1_555
Co1 O7 1.855269 1_555
Co1 O2 1.855269 1_455
Co1 O0 1.855269 1_555
Co1 O5 1.855269 1_455
Co1 O9 1.870222 1_555
Co1 O8 1.874747 1_555
Co2 O5 1.855269 1_555
Co2 O0 1.855269 1_555
Co2 O2 1.855269 1_545
Co2 O7 1.855269 1_545
Co2 O11 1.870222 1_555
Co2 O10 1.874747 1_555
Co3 O4 1.855269 1_555
Co3 O3 1.855269 1_545
Co3 O1 1.855269 1_555
Co3 O6 1.855269 1_545
Co3 O11 1.870222 1_556
Co3 O10 1.874747 1_555
O0 Sm0 2.662355 1_555
O1 Sm0 2.662355 1_555
O2 Sm0 2.662355 1_665
O3 Sm0 2.662355 1_665
O4 Sm0 2.662355 1_655
O5 Sm0 2.662355 1_655
O6 Sm0 2.662355 1_565
O7 Sm0 2.662355 1_565
O8 Sm0 2.623500 1_565
O8 Sm0 2.623500 1_555
O10 Sm0 2.623500 1_655
O10 Sm0 2.623500 1_555
