# generated using pymatgen
data_LaMn3V4O12
_symmetry_space_group_name_H-M   'P 1'
_cell_length_a   6.67616039
_cell_length_b   6.67616039
_cell_length_c   6.67616039
_cell_angle_alpha   109.47122063
_cell_angle_beta   109.47122063
_cell_angle_gamma   109.47122063
_symmetry_Int_Tables_number   1
_chemical_formula_structural   LaMn3V4O12
_chemical_formula_sum   'La1 Mn3 V4 O12'
_cell_volume   229.06482007
_cell_formula_units_Z   1
loop_
 _symmetry_equiv_pos_site_id
 _symmetry_equiv_pos_as_xyz
  1  'x, y, z'
loop_
 _atom_site_type_symbol
 _atom_site_label
 _atom_site_symmetry_multiplicity
 _atom_site_fract_x
 _atom_site_fract_y
 _atom_site_fract_z
 _atom_site_occupancy
  La  La0  1  0.00000000  0.00000000  0.00000000  1
  Mn  Mn0  1  0.50000000  0.00000000  0.50000000  1
  Mn  Mn1  1  0.00000000  0.50000000  0.50000000  1
  Mn  Mn2  1  0.50000000  0.50000000  0.00000000  1
  V  V0  1  0.00000000  0.50000000  0.00000000  1
  V  V1  1  0.50000000  0.50000000  0.50000000  1
  V  V2  1  0.00000000  0.00000000  0.50000000  1
  V  V3  1  0.50000000  0.00000000  0.00000000  1
  O  O0  1  0.74919800  0.49839600  0.74919800  1
  O  O1  1  0.25080200  0.50160400  0.25080200  1
  O  O2  1  0.25080200  0.00000000  0.74919800  1
  O  O3  1  0.74919800  0.00000000  0.25080200  1
  O  O4  1  0.00000000  0.25080200  0.74919800  1
  O  O5  1  0.00000000  0.74919800  0.25080200  1
  O  O6  1  0.50160400  0.25080200  0.25080200  1
  O  O7  1  0.49839600  0.74919800  0.74919800  1
  O  O8  1  0.25080200  0.25080200  0.50160400  1
  O  O9  1  0.74919800  0.74919800  0.49839600  1
  O  O10  1  0.25080200  0.74919800  0.00000000  1
  O  O11  1  0.74919800  0.25080200  0.00000000  1
loop_
_geom_bond_atom_site_label_1
_geom_bond_atom_site_label_2
_geom_bond_distance
_geom_bond_site_symmetry_2
La0 O8 2.734275 1_555
La0 O6 2.734275 1_555
La0 O1 2.734275 1_555
La0 O5 2.734275 1_545
La0 O11 2.734275 1_455
La0 O3 2.734275 1_455
La0 O10 2.734275 1_545
La0 O2 2.734275 1_554
La0 O4 2.734275 1_554
La0 O0 2.734275 1_444
La0 O7 2.734275 1_444
La0 O9 2.734275 1_444
Mn0 O0 2.716788 1_555
Mn0 O2 2.716788 1_555
Mn0 O3 2.716788 1_555
Mn0 O1 2.716788 1_545
Mn0 O6 2.725545 1_555
Mn0 O5 2.725545 1_545
Mn0 O10 2.725545 1_545
Mn0 O9 2.725545 1_545
Mn0 O4 2.725545 1_655
Mn0 O8 2.725545 1_555
Mn0 O11 2.725545 1_556
Mn0 O7 2.725545 1_545
Mn1 O7 2.716788 1_555
Mn1 O4 2.716788 1_555
Mn1 O5 2.716788 1_555
Mn1 O6 2.716788 1_455
Mn1 O0 2.725545 1_455
Mn1 O1 2.725545 1_555
Mn1 O10 2.725545 1_556
Mn1 O11 2.725545 1_455
Mn1 O9 2.725545 1_455
Mn1 O8 2.725545 1_555
Mn1 O3 2.725545 1_455
Mn1 O2 2.725545 1_565
Mn2 O9 2.716788 1_555
Mn2 O10 2.716788 1_555
Mn2 O11 2.716788 1_555
Mn2 O8 2.716788 1_554
Mn2 O6 2.725545 1_555
Mn2 O0 2.725545 1_554
Mn2 O3 2.725545 1_565
Mn2 O7 2.725545 1_554
Mn2 O1 2.725545 1_555
Mn2 O2 2.725545 1_554
Mn2 O5 2.725545 1_655
Mn2 O4 2.725545 1_554
O0 V1 1.927261 1_555
O0 V0 1.927261 1_656
O1 V0 1.927261 1_555
O1 V1 1.927261 1_555
O2 V2 1.927261 1_555
O2 V3 1.927261 1_556
O3 V3 1.927261 1_555
O3 V2 1.927261 1_655
O4 V2 1.927261 1_555
O4 V0 1.927261 1_556
O5 V0 1.927261 1_555
O5 V2 1.927261 1_565
O6 V3 1.927261 1_555
O6 V1 1.927261 1_555
O7 V1 1.927261 1_555
O7 V3 1.927261 1_566
O8 V2 1.927261 1_555
O8 V1 1.927261 1_555
O9 V1 1.927261 1_555
O9 V2 1.927261 1_665
O10 V0 1.927261 1_555
O10 V3 1.927261 1_565
O11 V3 1.927261 1_555
O11 V0 1.927261 1_655
