# generated using pymatgen
data_LaNi
_symmetry_space_group_name_H-M   'P 1'
_cell_length_a   3.80996288
_cell_length_b   4.36346257
_cell_length_c   5.77535562
_cell_angle_alpha   90.00000000
_cell_angle_beta   109.25944878
_cell_angle_gamma   90.00000000
_symmetry_Int_Tables_number   1
_chemical_formula_structural   LaNi
_chemical_formula_sum   'La2 Ni2'
_cell_volume   90.63974184
_cell_formula_units_Z   2
loop_
 _symmetry_equiv_pos_site_id
 _symmetry_equiv_pos_as_xyz
  1  'x, y, z'
loop_
 _atom_site_type_symbol
 _atom_site_label
 _atom_site_symmetry_multiplicity
 _atom_site_fract_x
 _atom_site_fract_y
 _atom_site_fract_z
 _atom_site_occupancy
  La  La0  1  0.86654322  0.75000000  0.73308743  1
  La  La1  1  0.13345678  0.25000000  0.26691257  1
  Ni  Ni0  1  0.57280368  0.75000000  0.14560735  1
  Ni  Ni1  1  0.42719632  0.25000000  0.85439265  1
loop_
_geom_bond_atom_site_label_1
_geom_bond_atom_site_label_2
_geom_bond_distance
_geom_bond_site_symmetry_2
La0 Ni0 2.947450 1_556
La0 Ni0 2.947453 1_656
La0 Ni1 2.970911 1_555
La0 Ni1 2.970911 1_565
La0 Ni1 2.970914 1_655
La0 Ni1 2.970914 1_665
La0 Ni0 3.203021 1_555
La1 Ni1 2.947450 1_554
La1 Ni1 2.947453 1_454
La1 Ni0 2.970911 1_555
La1 Ni0 2.970911 1_545
La1 Ni0 2.970914 1_455
La1 Ni0 2.970914 1_445
La1 Ni1 3.203021 1_555
Ni0 Ni1 2.698310 1_564
Ni0 Ni1 2.698310 1_554
