# generated using pymatgen
data_Li5Mn2CoO8
_symmetry_space_group_name_H-M   'P 1'
_cell_length_a   4.96856400
_cell_length_b   5.81896494
_cell_length_c   5.85280067
_cell_angle_alpha   119.44017463
_cell_angle_beta   89.22688302
_cell_angle_gamma   106.60594299
_symmetry_Int_Tables_number   1
_chemical_formula_structural   Li5Mn2CoO8
_chemical_formula_sum   'Li5 Mn2 Co1 O8'
_cell_volume   139.57439422
_cell_formula_units_Z   1
loop_
 _symmetry_equiv_pos_site_id
 _symmetry_equiv_pos_as_xyz
  1  'x, y, z'
loop_
 _atom_site_type_symbol
 _atom_site_label
 _atom_site_symmetry_multiplicity
 _atom_site_fract_x
 _atom_site_fract_y
 _atom_site_fract_z
 _atom_site_occupancy
  Li  Li0  1  0.49695700  0.74726400  0.74999800  1
  Li  Li1  1  0.99992200  0.49483300  0.00595500  1
  Li  Li2  1  0.00358700  0.00585100  0.49776100  1
  Li  Li3  1  0.50259500  0.25413300  0.24879500  1
  Li  Li4  1  0.99959300  0.49767600  0.49960200  1
  Mn  Mn0  1  0.00062400  0.00106100  0.00188600  1
  Mn  Mn1  1  0.49912000  0.74070700  0.25880000  1
  Co  Co0  1  0.49260700  0.25526400  0.74184100  1
  O  O0  1  0.74871800  0.65178000  0.12235500  1
  O  O1  1  0.26884000  0.39582200  0.36318400  1
  O  O2  1  0.25643400  0.88600900  0.89364100  1
  O  O3  1  0.75531200  0.12410600  0.66281900  1
  O  O4  1  0.24961800  0.87827700  0.34348400  1
  O  O5  1  0.71382900  0.61818700  0.60360200  1
  O  O6  1  0.75886900  0.10042800  0.13266300  1
  O  O7  1  0.25337600  0.34860300  0.87361500  1
loop_
_geom_bond_atom_site_label_1
_geom_bond_atom_site_label_2
_geom_bond_distance
_geom_bond_site_symmetry_2
Li0 O5 1.504805 1_555
Li0 O2 1.626007 1_555
Li0 O3 2.487958 1_565
Li1 O7 1.687627 1_654
Li1 O0 1.694978 1_555
Li1 O3 2.114832 1_554
Li1 O4 2.138017 1_655
Li2 O4 1.640330 1_545
Li2 O3 1.651667 1_455
Li3 O1 1.568641 1_555
Li3 O6 1.706826 1_555
Li4 O1 1.654561 1_655
Li4 O5 1.733310 1_555
Li4 O6 2.234972 1_555
Li4 O2 2.315532 1_655
Mn0 O6 1.516613 1_455
Mn0 O2 1.585159 1_544
Mn1 O0 1.541852 1_555
Mn1 O4 1.607438 1_555
Mn1 O3 2.336924 1_565
Co0 O7 1.495043 1_555
Co0 O3 1.645059 1_555
