# generated using pymatgen
data_CsHCO3
_symmetry_space_group_name_H-M   'P 1'
_cell_length_a   11.31558000
_cell_length_b   4.68822100
_cell_length_c   7.79001213
_cell_angle_alpha   67.85366921
_cell_angle_beta   90.00000000
_cell_angle_gamma   90.00000000
_symmetry_Int_Tables_number   1
_chemical_formula_structural   CsHCO3
_chemical_formula_sum   'Cs4 H4 C4 O12'
_cell_volume   382.77107137
_cell_formula_units_Z   4
loop_
 _symmetry_equiv_pos_site_id
 _symmetry_equiv_pos_as_xyz
  1  'x, y, z'
loop_
 _atom_site_type_symbol
 _atom_site_label
 _atom_site_symmetry_multiplicity
 _atom_site_fract_x
 _atom_site_fract_y
 _atom_site_fract_z
 _atom_site_occupancy
  Cs  Cs0  1  0.17241600  0.42828900  0.92156200  1
  Cs  Cs1  1  0.32758400  0.42828900  0.42156200  1
  Cs  Cs2  1  0.82758400  0.57171100  0.07843800  1
  Cs  Cs3  1  0.67241600  0.57171100  0.57843800  1
  H  H0  1  0.09542400  0.99985700  0.49709200  1
  H  H1  1  0.40457600  0.99985700  0.99709200  1
  H  H2  1  0.90457600  0.00014300  0.50290800  1
  H  H3  1  0.59542400  0.00014300  0.00290800  1
  C  C0  1  0.04675700  0.83061900  0.31136200  1
  C  C1  1  0.45324300  0.83061900  0.81136200  1
  C  C2  1  0.95324300  0.16938100  0.68863800  1
  C  C3  1  0.54675700  0.16938100  0.18863800  1
  O  O0  1  0.08227600  0.71930000  0.19611200  1
  O  O1  1  0.41772400  0.71930000  0.69611200  1
  O  O2  1  0.91772400  0.28070000  0.80388800  1
  O  O3  1  0.58227600  0.28070000  0.30388800  1
  O  O4  1  0.93906100  0.87414700  0.34613400  1
  O  O5  1  0.56093900  0.87414700  0.84613400  1
  O  O6  1  0.06093900  0.12585300  0.65386600  1
  O  O7  1  0.43906100  0.12585300  0.15386600  1
  O  O8  1  0.13349900  0.91801900  0.40524300  1
  O  O9  1  0.36650100  0.91801900  0.90524300  1
  O  O10  1  0.86650100  0.08198100  0.59475700  1
  O  O11  1  0.63349900  0.08198100  0.09475700  1
loop_
_geom_bond_atom_site_label_1
_geom_bond_atom_site_label_2
_geom_bond_distance
_geom_bond_site_symmetry_2
Cs0 O0 3.110622 1_556
Cs0 O9 3.144960 1_555
Cs0 O2 3.178543 1_455
Cs0 O6 3.190545 1_555
Cs0 H1 3.223482 1_545
Cs0 O9 3.285053 1_545
Cs0 O1 3.293078 1_555
Cs0 O0 3.362011 1_546
Cs0 O6 3.390165 1_565
Cs0 H0 3.491826 1_555
Cs0 O7 3.529087 1_556
Cs0 O8 3.649365 1_546
Cs1 O1 3.110622 1_555
Cs1 O8 3.144960 1_555
Cs1 O3 3.178543 1_555
Cs1 O7 3.190545 1_555
Cs1 H0 3.223482 1_545
Cs1 O8 3.285053 1_545
Cs1 O0 3.293078 1_555
Cs1 O1 3.362011 1_545
Cs1 O7 3.390165 1_565
Cs1 H1 3.491826 1_554
Cs1 O6 3.529087 1_555
Cs1 O9 3.649365 1_545
Cs2 O2 3.110622 1_554
Cs2 O11 3.144960 1_555
Cs2 O0 3.178543 1_655
Cs2 O4 3.190545 1_555
Cs2 H3 3.223482 1_565
Cs2 O11 3.285053 1_565
Cs2 O3 3.293078 1_555
Cs2 O2 3.362011 1_564
Cs2 O4 3.390165 1_545
Cs2 H2 3.491826 1_555
Cs2 O5 3.529087 1_554
Cs2 O10 3.649365 1_564
Cs3 O3 3.110622 1_555
Cs3 O10 3.144960 1_555
Cs3 O1 3.178543 1_555
Cs3 O5 3.190545 1_555
Cs3 H2 3.223482 1_565
Cs3 O10 3.285053 1_565
Cs3 O2 3.293078 1_555
Cs3 O3 3.362011 1_565
Cs3 O5 3.390165 1_545
Cs3 H3 3.491826 1_556
Cs3 O4 3.529087 1_555
Cs3 O11 3.649365 1_565
H0 O8 1.025549 1_555
H0 O6 1.592669 1_565
H1 O9 1.025549 1_555
H1 O7 1.592669 1_566
H2 O10 1.025549 1_555
H2 O4 1.592669 1_545
H3 O11 1.025549 1_555
H3 O5 1.592669 1_544
C0 O0 1.262224 1_555
C0 O4 1.281321 1_455
C0 O8 1.375532 1_555
C0 Cs0 3.560727 1_564
C1 O1 1.262224 1_555
C1 O5 1.281321 1_555
C1 O9 1.375532 1_555
C1 Cs1 3.560727 1_565
C2 O2 1.262224 1_555
C2 O6 1.281321 1_655
C2 O10 1.375532 1_555
C2 Cs2 3.560727 1_546
C3 O3 1.262224 1_555
C3 O7 1.281321 1_555
C3 O11 1.375532 1_555
C3 Cs3 3.560727 1_545
