# generated using pymatgen
data_Na3U2O10F7
_symmetry_space_group_name_H-M   'P 1'
_cell_length_a   7.18303500
_cell_length_b   7.82066021
_cell_length_c   8.84749947
_cell_angle_alpha   67.00330674
_cell_angle_beta   76.46353224
_cell_angle_gamma   74.03386762
_symmetry_Int_Tables_number   1
_chemical_formula_structural   Na3U2O10F7
_chemical_formula_sum   'Na3 U2 O10 F7'
_cell_volume   435.34569994
_cell_formula_units_Z   1
loop_
 _symmetry_equiv_pos_site_id
 _symmetry_equiv_pos_as_xyz
  1  'x, y, z'
loop_
 _atom_site_type_symbol
 _atom_site_label
 _atom_site_symmetry_multiplicity
 _atom_site_fract_x
 _atom_site_fract_y
 _atom_site_fract_z
 _atom_site_occupancy
  Na  Na0  1  0.44955800  0.84721400  0.95993700  1
  Na  Na1  1  0.55044200  0.15278600  0.04006300  1
  Na  Na2  1  0.50000000  0.00000000  0.50000000  1
  U  U0  1  0.99195400  0.99970500  0.73132100  1
  U  U1  1  0.00804600  0.00029500  0.26867900  1
  O  O0  1  0.02573500  0.74389500  0.81043800  1
  O  O1  1  0.97426500  0.25610500  0.18956200  1
  O  O2  1  0.95771900  0.25470600  0.65454100  1
  O  O3  1  0.04228100  0.74529400  0.34545900  1
  O  O4  1  0.39930800  0.44735600  0.71377800  1
  O  O5  1  0.60069200  0.55264400  0.28622200  1
  O  O6  1  0.47202800  0.45938200  0.33485500  1
  O  O7  1  0.52797200  0.54061800  0.66514500  1
  O  O8  1  0.58049000  0.51851600  0.96017300  1
  O  O9  1  0.41951000  0.48148400  0.03982700  1
  F  F0  1  0.00000000  0.00000000  0.00000000  1
  F  F1  1  0.31537800  0.96539900  0.73969300  1
  F  F2  1  0.68462200  0.03460100  0.26030700  1
  F  F3  1  0.67539000  0.02147600  0.85460900  1
  F  F4  1  0.32461000  0.97852400  0.14539100  1
  F  F5  1  0.81274400  0.00689500  0.53148800  1
  F  F6  1  0.18725600  0.99310500  0.46851200  1
loop_
_geom_bond_atom_site_label_1
_geom_bond_atom_site_label_2
_geom_bond_distance
_geom_bond_site_symmetry_2
Na0 O8 2.481808 1_555
Na0 O9 2.723189 1_556
Na1 O9 2.481808 1_555
Na1 O8 2.723189 1_554
O0 U0 1.808180 1_455
O1 U1 1.808180 1_655
O2 U0 1.802484 1_545
O3 U1 1.802484 1_565
O4 O7 1.229117 1_555
O5 O6 1.229117 1_555
O8 O9 1.249359 1_556
F0 U1 2.392237 1_555
F0 U0 2.392237 1_444
F1 Na0 2.135921 1_555
F1 Na2 2.182129 1_565
F1 U0 2.279627 1_455
F2 Na1 2.135921 1_555
F2 Na2 2.182129 1_555
F2 U1 2.279627 1_655
F3 Na1 2.161595 1_556
F3 Na0 2.207574 1_545
F3 U0 2.271651 1_545
F4 Na0 2.161595 1_554
F4 Na1 2.207574 1_565
F4 U1 2.271651 1_565
F5 Na2 2.344870 1_555
F5 U0 2.394589 1_545
F5 U1 2.429853 1_655
F6 Na2 2.344870 1_565
F6 U1 2.394589 1_565
F6 U0 2.429853 1_455
