# generated using pymatgen
data_BaGdCuTe3
_symmetry_space_group_name_H-M   'P 1'
_cell_length_a   7.82212866
_cell_length_b   7.82212866
_cell_length_c   11.55576847
_cell_angle_alpha   90.00000000
_cell_angle_beta   90.00000000
_cell_angle_gamma   146.84686484
_symmetry_Int_Tables_number   1
_chemical_formula_structural   BaGdCuTe3
_chemical_formula_sum   'Ba2 Gd2 Cu2 Te6'
_cell_volume   386.66929051
_cell_formula_units_Z   2
loop_
 _symmetry_equiv_pos_site_id
 _symmetry_equiv_pos_as_xyz
  1  'x, y, z'
loop_
 _atom_site_type_symbol
 _atom_site_label
 _atom_site_symmetry_multiplicity
 _atom_site_fract_x
 _atom_site_fract_y
 _atom_site_fract_z
 _atom_site_occupancy
  Ba  Ba0  1  0.25086622  0.74913378  0.25000000  1
  Ba  Ba1  1  0.74913378  0.25086622  0.75000000  1
  Gd  Gd0  1  0.00000000  -0.00000000  0.50000000  1
  Gd  Gd1  1  0.00000000  -0.00000000  0.00000000  1
  Cu  Cu0  1  0.53292871  0.46707129  0.25000000  1
  Cu  Cu1  1  0.46707129  0.53292871  0.75000000  1
  Te  Te0  1  0.63689645  0.36310355  0.43503545  1
  Te  Te1  1  0.36310355  0.63689645  0.56496455  1
  Te  Te2  1  0.63689645  0.36310355  0.06496455  1
  Te  Te3  1  0.36310355  0.63689645  0.93503545  1
  Te  Te4  1  0.93202899  0.06797101  0.25000000  1
  Te  Te5  1  0.06797101  0.93202899  0.75000000  1
loop_
_geom_bond_atom_site_label_1
_geom_bond_atom_site_label_2
_geom_bond_distance
_geom_bond_site_symmetry_2
Ba0 Te4 3.515509 1_455
Ba0 Te4 3.515509 1_565
Ba0 Te0 3.531629 1_565
Ba0 Te2 3.531629 1_565
Ba0 Te0 3.531629 1_455
Ba0 Te2 3.531629 1_455
Ba0 Te1 4.009893 1_555
Ba0 Te3 4.009893 1_554
Ba1 Te5 3.515509 1_655
Ba1 Te5 3.515509 1_545
Ba1 Te3 3.531629 1_655
Ba1 Te1 3.531629 1_655
Ba1 Te3 3.531629 1_545
Ba1 Te1 3.531629 1_545
Ba1 Te0 4.009893 1_555
Ba1 Te2 4.009893 1_556
Gd0 Te5 3.063442 1_545
Gd0 Te4 3.063442 1_455
Gd0 Te0 3.123625 1_555
Gd0 Te0 3.123625 1_445
Gd0 Te1 3.123625 1_445
Gd0 Te1 3.123625 1_555
Gd1 Te5 3.063442 1_544
Gd1 Te4 3.063442 1_455
Gd1 Te2 3.123625 1_555
Gd1 Te3 3.123625 1_444
Gd1 Te2 3.123625 1_445
Gd1 Te3 3.123625 1_554
Cu0 Te0 2.646164 1_555
Cu0 Te2 2.646164 1_555
Cu0 Te4 2.696110 1_565
Cu0 Te4 2.696110 1_455
Cu1 Te3 2.646164 1_555
Cu1 Te1 2.646164 1_555
Cu1 Te5 2.696110 1_655
Cu1 Te5 2.696110 1_545
