# generated using pymatgen
data_K2NbAgS4
_symmetry_space_group_name_H-M   'P 1'
_cell_length_a   13.38617315
_cell_length_b   11.93209941
_cell_length_c   7.38939590
_cell_angle_alpha   84.21042910
_cell_angle_beta   62.47733720
_cell_angle_gamma   33.31223370
_symmetry_Int_Tables_number   1
_chemical_formula_structural   K2NbAgS4
_chemical_formula_sum   'K4 Nb2 Ag2 S8'
_cell_volume   465.90223629
_cell_formula_units_Z   2
loop_
 _symmetry_equiv_pos_site_id
 _symmetry_equiv_pos_as_xyz
  1  'x, y, z'
loop_
 _atom_site_type_symbol
 _atom_site_label
 _atom_site_symmetry_multiplicity
 _atom_site_fract_x
 _atom_site_fract_y
 _atom_site_fract_z
 _atom_site_occupancy
  K  K0  1  0.43035400  0.43035400  0.06964600  1
  K  K1  1  0.81964600  0.81964600  0.18035400  1
  K  K2  1  0.06964600  0.06964600  0.43035400  1
  K  K3  1  0.18035400  0.18035400  0.81964600  1
  Nb  Nb0  1  0.25000000  0.25000000  0.25000000  1
  Nb  Nb1  1  0.00000000  0.00000000  0.00000000  1
  Ag  Ag0  1  0.75000000  0.75000000  0.75000000  1
  Ag  Ag1  1  0.50000000  0.50000000  0.50000000  1
  S  S0  1  0.74114600  0.37456300  0.05437200  1
  S  S1  1  0.82991900  0.05437200  0.37456300  1
  S  S2  1  0.05437200  0.82991900  0.74114600  1
  S  S3  1  0.37456300  0.74114600  0.82991900  1
  S  S4  1  0.50885400  0.87543700  0.19562800  1
  S  S5  1  0.87543700  0.50885400  0.42008100  1
  S  S6  1  0.19562800  0.42008100  0.50885400  1
  S  S7  1  0.42008100  0.19562800  0.87543700  1
loop_
_geom_bond_atom_site_label_1
_geom_bond_atom_site_label_2
_geom_bond_distance
_geom_bond_site_symmetry_2
K0 S7 3.399963 1_554
K0 S6 3.399963 1_555
K0 S1 3.426526 1_465
K0 S2 3.426526 1_644
K0 S0 3.566002 1_555
K0 S3 3.566002 1_554
K0 S2 3.777481 1_555
K0 S1 3.777481 1_554
K1 S2 3.399963 1_654
K1 S1 3.399963 1_565
K1 S7 3.426526 1_654
K1 S6 3.426526 1_565
K1 S5 3.566002 1_555
K1 S4 3.566002 1_555
K1 S6 3.777481 1_654
K1 S7 3.777481 1_565
K2 S4 3.399963 1_545
K2 S5 3.399963 1_455
K2 S3 3.426526 1_544
K2 S0 3.426526 1_456
K2 S2 3.566002 1_545
K2 S1 3.566002 1_455
K2 S3 3.777481 1_455
K2 S0 3.777481 1_545
K3 S0 3.399963 1_456
K3 S3 3.399963 1_545
K3 S5 3.426526 1_456
K3 S4 3.426526 1_545
K3 S6 3.566002 1_555
K3 S7 3.566002 1_555
K3 S5 3.777481 1_545
K3 S4 3.777481 1_456
Nb0 S4 2.309708 1_545
Nb0 S5 2.309708 1_455
Nb0 S7 2.309708 1_554
Nb0 S6 2.309708 1_555
Nb1 S3 2.309708 1_544
Nb1 S0 2.309708 1_455
Nb1 S1 2.309708 1_455
Nb1 S2 2.309708 1_544
Ag0 S6 2.568831 1_655
Ag0 S7 2.568831 1_565
Ag0 S5 2.568831 1_555
Ag0 S4 2.568831 1_556
Ag1 S3 2.568831 1_555
Ag1 S0 2.568831 1_555
Ag1 S2 2.568831 1_555
Ag1 S1 2.568831 1_555
