# generated using pymatgen
data_Zn(SnO2)2
_symmetry_space_group_name_H-M   'P 1'
_cell_length_a   6.57517745
_cell_length_b   6.57517745
_cell_length_c   6.54502546
_cell_angle_alpha   61.34280892
_cell_angle_beta   61.34280892
_cell_angle_gamma   60.61930510
_symmetry_Int_Tables_number   1
_chemical_formula_structural   Zn(SnO2)2
_chemical_formula_sum   'Zn2 Sn4 O8'
_cell_volume   205.02402963
_cell_formula_units_Z   2
loop_
 _symmetry_equiv_pos_site_id
 _symmetry_equiv_pos_as_xyz
  1  'x, y, z'
loop_
 _atom_site_type_symbol
 _atom_site_label
 _atom_site_symmetry_multiplicity
 _atom_site_fract_x
 _atom_site_fract_y
 _atom_site_fract_z
 _atom_site_occupancy
  Zn  Zn0  1  0.89279000  0.89279000  0.33902100  1
  Zn  Zn1  1  0.10721000  0.10721000  0.66097900  1
  Sn  Sn0  1  0.50000000  0.50000000  0.50000000  1
  Sn  Sn1  1  0.00000000  0.50000000  0.00000000  1
  Sn  Sn2  1  0.50000000  0.00000000  0.00000000  1
  Sn  Sn3  1  0.50000000  0.50000000  0.00000000  1
  O  O0  1  0.73293900  0.21438900  0.79178200  1
  O  O1  1  0.21438900  0.73293900  0.79178200  1
  O  O2  1  0.23880800  0.23880800  0.78709000  1
  O  O3  1  0.74827100  0.74827100  0.77615100  1
  O  O4  1  0.76119200  0.76119200  0.21291000  1
  O  O5  1  0.78561100  0.26706100  0.20821800  1
  O  O6  1  0.25172900  0.25172900  0.22384900  1
  O  O7  1  0.26706100  0.78561100  0.20821800  1
loop_
_geom_bond_atom_site_label_1
_geom_bond_atom_site_label_2
_geom_bond_distance
_geom_bond_site_symmetry_2
O0 Zn1 2.035155 1_655
O0 Sn2 2.112843 1_556
O0 Sn3 2.315196 1_556
O0 Sn0 2.462299 1_555
O1 Zn1 2.035155 1_565
O1 Sn1 2.112843 1_556
O1 Sn3 2.315196 1_556
O1 Sn0 2.462299 1_555
O2 Zn1 2.069635 1_555
O2 Sn1 2.215289 1_556
O2 Sn2 2.215289 1_556
O2 Sn0 2.476547 1_555
O3 Sn1 2.220732 1_656
O3 Sn2 2.220732 1_566
O3 Sn3 2.345858 1_556
O3 Zn0 2.379549 1_555
O4 Zn0 2.069635 1_555
O4 Sn2 2.215289 1_565
O4 Sn1 2.215289 1_655
O4 Sn0 2.476547 1_555
O5 Zn0 2.035155 1_545
O5 Sn1 2.112843 1_655
O5 Sn3 2.315196 1_555
O5 Sn0 2.462299 1_555
O6 Sn2 2.220732 1_555
O6 Sn1 2.220732 1_555
O6 Sn3 2.345858 1_555
O6 Zn1 2.379549 1_555
O7 Zn0 2.035155 1_455
O7 Sn2 2.112843 1_565
O7 Sn3 2.315196 1_555
O7 Sn0 2.462299 1_555
