# generated using pymatgen
data_La5Pb3Se
_symmetry_space_group_name_H-M   'P 1'
_cell_length_a   9.70998892
_cell_length_b   9.70999032
_cell_length_c   7.23557240
_cell_angle_alpha   90.00002399
_cell_angle_beta   89.99999070
_cell_angle_gamma   120.00000729
_symmetry_Int_Tables_number   1
_chemical_formula_structural   La5Pb3Se
_chemical_formula_sum   'La10 Pb6 Se2'
_cell_volume   590.80073176
_cell_formula_units_Z   2
loop_
 _symmetry_equiv_pos_site_id
 _symmetry_equiv_pos_as_xyz
  1  'x, y, z'
loop_
 _atom_site_type_symbol
 _atom_site_label
 _atom_site_symmetry_multiplicity
 _atom_site_fract_x
 _atom_site_fract_y
 _atom_site_fract_z
 _atom_site_occupancy
  La  La0  1  0.74955857  0.74955857  0.75000000  1
  La  La1  1  0.25044143  -0.00000000  0.75000000  1
  La  La2  1  -0.00000000  0.25044143  0.75000000  1
  La  La3  1  0.25044143  0.25044143  0.25000000  1
  La  La4  1  0.74955857  0.00000000  0.25000000  1
  La  La5  1  0.00000000  0.74955857  0.25000000  1
  La  La6  1  0.66666700  0.33333300  0.00000000  1
  La  La7  1  0.33333300  0.66666700  0.00000000  1
  La  La8  1  0.33333300  0.66666700  0.50000000  1
  La  La9  1  0.66666700  0.33333300  0.50000000  1
  Pb  Pb0  1  0.39401844  0.39401844  0.75000000  1
  Pb  Pb1  1  0.60598156  -0.00000000  0.75000000  1
  Pb  Pb2  1  -0.00000000  0.60598156  0.75000000  1
  Pb  Pb3  1  0.60598156  0.60598156  0.25000000  1
  Pb  Pb4  1  0.39401844  0.00000000  0.25000000  1
  Pb  Pb5  1  0.00000000  0.39401844  0.25000000  1
  Se  Se0  1  0.00000000  -0.00000000  0.00000000  1
  Se  Se1  1  0.00000000  -0.00000000  0.50000000  1
loop_
_geom_bond_atom_site_label_1
_geom_bond_atom_site_label_2
_geom_bond_distance
_geom_bond_site_symmetry_2
La0 Se0 3.030786 1_666
La0 Se1 3.030787 1_665
La0 Pb2 3.353714 1_655
La0 Pb1 3.353714 1_565
La0 Pb0 3.452291 1_555
La0 Pb3 3.877109 1_555
La0 Pb3 3.877110 1_556
La1 Se0 3.030786 1_556
La1 Se1 3.030786 1_555
La1 Pb2 3.353714 1_545
La1 Pb0 3.353714 1_555
La1 Pb1 3.452291 1_555
La1 Pb4 3.877109 1_555
La1 Pb4 3.877110 1_556
La2 Se1 3.030786 1_555
La2 Se0 3.030787 1_556
La2 Pb1 3.353714 1_455
La2 Pb0 3.353714 1_555
La2 Pb2 3.452291 1_555
La2 Pb5 3.877109 1_556
La2 Pb5 3.877110 1_555
La3 Se0 3.030786 1_555
La3 Se1 3.030787 1_555
La3 Pb5 3.353714 1_555
La3 Pb4 3.353714 1_555
La3 Pb3 3.452291 1_555
La3 Pb0 3.877109 1_555
La3 Pb0 3.877110 1_554
La4 Se0 3.030786 1_655
La4 Se1 3.030786 1_655
La4 Pb5 3.353714 1_655
La4 Pb3 3.353714 1_545
La4 Pb4 3.452291 1_555
La4 Pb1 3.877109 1_555
La4 Pb1 3.877110 1_554
La5 Se1 3.030786 1_565
La5 Se0 3.030787 1_565
La5 Pb4 3.353714 1_565
La5 Pb3 3.353714 1_455
La5 Pb5 3.452291 1_555
La5 Pb2 3.877109 1_554
La5 Pb2 3.877110 1_555
La6 Pb1 3.491140 1_554
La6 Pb5 3.491141 1_655
La6 Pb2 3.491144 1_654
La6 Pb4 3.491144 1_555
La6 Pb3 3.491149 1_555
La6 Pb0 3.491149 1_554
La7 Pb4 3.491140 1_565
La7 Pb2 3.491141 1_554
La7 Pb5 3.491144 1_555
La7 Pb1 3.491144 1_564
La7 Pb0 3.491149 1_554
La7 Pb3 3.491149 1_555
La8 Pb2 3.491141 1_555
La8 Pb4 3.491142 1_565
La8 Pb1 3.491143 1_565
La8 Pb5 3.491143 1_555
La8 Pb3 3.491149 1_555
La8 Pb0 3.491150 1_555
La9 Pb5 3.491141 1_655
La9 Pb1 3.491142 1_555
La9 Pb4 3.491143 1_555
La9 Pb2 3.491143 1_655
La9 Pb0 3.491149 1_555
La9 Pb3 3.491150 1_555
