# generated using pymatgen
data_AsPt3
_symmetry_space_group_name_H-M   'P 1'
_cell_length_a   5.58704174
_cell_length_b   5.58704174
_cell_length_c   4.77086500
_cell_angle_alpha   90.00000000
_cell_angle_beta   90.00000000
_cell_angle_gamma   119.99999688
_symmetry_Int_Tables_number   1
_chemical_formula_structural   AsPt3
_chemical_formula_sum   'As2 Pt6'
_cell_volume   128.97086252
_cell_formula_units_Z   2
loop_
 _symmetry_equiv_pos_site_id
 _symmetry_equiv_pos_as_xyz
  1  'x, y, z'
loop_
 _atom_site_type_symbol
 _atom_site_label
 _atom_site_symmetry_multiplicity
 _atom_site_fract_x
 _atom_site_fract_y
 _atom_site_fract_z
 _atom_site_occupancy
  As  As0  1  0.33333300  0.66666700  0.75000000  1
  As  As1  1  0.66666700  0.33333300  0.25000000  1
  Pt  Pt0  1  0.16647000  0.33294000  0.25000000  1
  Pt  Pt1  1  0.66706000  0.83353000  0.25000000  1
  Pt  Pt2  1  0.16647000  0.83353000  0.25000000  1
  Pt  Pt3  1  0.83353000  0.66706000  0.75000000  1
  Pt  Pt4  1  0.33294000  0.16647000  0.75000000  1
  Pt  Pt5  1  0.83353000  0.16647000  0.75000000  1
loop_
_geom_bond_atom_site_label_1
_geom_bond_atom_site_label_2
_geom_bond_distance
_geom_bond_site_symmetry_2
As0 Pt4 2.793519 1_565
As0 Pt3 2.793519 1_455
As0 Pt5 2.793522 1_565
As0 Pt5 2.793522 1_455
As0 Pt3 2.793524 1_555
As0 Pt4 2.793524 1_555
As0 Pt2 2.880568 1_555
As0 Pt2 2.880568 1_556
As0 Pt0 2.880571 1_555
As0 Pt0 2.880571 1_556
As0 Pt1 2.880571 1_555
As0 Pt1 2.880571 1_556
As1 Pt0 2.793519 1_655
As1 Pt1 2.793519 1_545
As1 Pt2 2.793522 1_655
As1 Pt2 2.793522 1_545
As1 Pt0 2.793524 1_555
As1 Pt1 2.793524 1_555
As1 Pt5 2.880568 1_555
As1 Pt5 2.880568 1_554
As1 Pt3 2.880571 1_554
As1 Pt3 2.880571 1_555
As1 Pt4 2.880571 1_554
As1 Pt4 2.880571 1_555
Pt0 Pt2 2.790225 1_545
Pt0 Pt1 2.790225 1_445
Pt0 Pt2 2.796817 1_555
Pt0 Pt1 2.796817 1_555
Pt0 Pt4 2.878438 1_554
Pt0 Pt4 2.878438 1_555
Pt0 Pt5 2.878438 1_454
Pt0 Pt5 2.878438 1_455
Pt1 Pt2 2.790225 1_655
Pt1 Pt2 2.796817 1_555
Pt1 Pt3 2.878438 1_554
Pt1 Pt3 2.878438 1_555
Pt1 Pt5 2.878438 1_565
Pt1 Pt5 2.878438 1_564
Pt2 Pt4 2.878438 1_565
Pt2 Pt4 2.878438 1_564
Pt2 Pt3 2.878438 1_455
Pt2 Pt3 2.878438 1_454
Pt3 Pt5 2.790225 1_565
Pt3 Pt4 2.790225 1_665
Pt3 Pt5 2.796817 1_555
Pt3 Pt4 2.796817 1_555
Pt4 Pt5 2.790225 1_455
Pt4 Pt5 2.796817 1_555
