# generated using pymatgen
data_Sr2Co(BrO)2
_symmetry_space_group_name_H-M   'P 1'
_cell_length_a   8.09613101
_cell_length_b   9.11519243
_cell_length_c   9.29762553
_cell_angle_alpha   96.34143883
_cell_angle_beta   64.17320228
_cell_angle_gamma   77.16921994
_symmetry_Int_Tables_number   1
_chemical_formula_structural   Sr2Co(BrO)2
_chemical_formula_sum   'Sr8 Co4 Br8 O8'
_cell_volume   585.16451755
_cell_formula_units_Z   4
loop_
 _symmetry_equiv_pos_site_id
 _symmetry_equiv_pos_as_xyz
  1  'x, y, z'
loop_
 _atom_site_type_symbol
 _atom_site_label
 _atom_site_symmetry_multiplicity
 _atom_site_fract_x
 _atom_site_fract_y
 _atom_site_fract_z
 _atom_site_occupancy
  Sr  Sr0  1  0.44557000  0.81152400  0.70300300  1
  Sr  Sr1  1  0.94578200  0.81132200  0.70289400  1
  Sr  Sr2  1  0.19452800  0.81177400  0.20310600  1
  Sr  Sr3  1  0.69650200  0.81217700  0.20305100  1
  Sr  Sr4  1  0.55549500  0.18819300  0.29695800  1
  Sr  Sr5  1  0.05357100  0.18782000  0.29687000  1
  Sr  Sr6  1  0.30439300  0.18844300  0.79700900  1
  Sr  Sr7  1  0.80417700  0.18873200  0.79709500  1
  Co  Co0  1  0.24956700  0.00001700  0.50084000  1
  Co  Co1  1  0.50042200  0.99999900  0.99915800  1
  Co  Co2  1  0.74955500  0.99996700  0.50094600  1
  Co  Co3  1  0.00043100  0.00004800  0.99906800  1
  Br  Br0  1  0.62135200  0.34272300  0.58596000  1
  Br  Br1  1  0.12118500  0.34366000  0.58578500  1
  Br  Br2  1  0.37072700  0.34368000  0.08598000  1
  Br  Br3  1  0.87174800  0.34268000  0.08523200  1
  Br  Br4  1  0.37914600  0.65631400  0.41403200  1
  Br  Br5  1  0.87813200  0.65730700  0.41474800  1
  Br  Br6  1  0.12874000  0.65730500  0.91408400  1
  Br  Br7  1  0.62895900  0.65632400  0.91419800  1
  O  O0  1  0.50301700  0.00013900  0.50054300  1
  O  O1  1  0.99650100  0.99987100  0.50042200  1
  O  O2  1  0.24698400  0.99999200  0.99939600  1
  O  O3  1  0.75350200  0.00000800  0.99963100  1
  O  O4  1  0.87510800  0.99993700  0.24999500  1
  O  O5  1  0.37497300  0.99998900  0.24999500  1
  O  O6  1  0.62182000  0.99997100  0.75656500  1
  O  O7  1  0.12811100  0.00008600  0.74343800  1
loop_
_geom_bond_atom_site_label_1
_geom_bond_atom_site_label_2
_geom_bond_distance
_geom_bond_site_symmetry_2
Co0 O7 2.030142 1_555
Co0 O1 2.050847 1_445
Co0 O0 2.051010 1_555
Co0 O5 2.099246 1_545
Co1 O6 2.030186 1_555
Co1 O3 2.050907 1_565
Co1 O2 2.050918 1_555
Co1 O5 2.099259 1_556
Co2 O1 1.996995 1_555
Co2 O0 1.997292 1_565
Co2 O4 2.100129 1_555
Co2 O6 2.139250 1_555
Co3 O3 1.996976 1_455
Co3 O2 1.997343 1_545
Co3 O4 2.100225 1_446
Co3 O7 2.139431 1_555
Br0 Co2 2.960172 1_545
Br0 Sr7 3.198811 1_555
Br0 Sr4 3.199105 1_555
Br0 Sr5 3.199268 1_655
Br0 Sr6 3.199718 1_555
Br1 Co0 2.967839 1_555
Br1 Sr7 3.204778 1_455
Br1 Sr6 3.206011 1_555
Br1 Sr4 3.209736 1_555
Br1 Sr5 3.212004 1_555
Br2 Co1 2.968156 1_544
Br2 Sr6 3.203776 1_554
Br2 Sr7 3.205001 1_554
Br2 Sr5 3.210152 1_555
Br2 Sr4 3.213026 1_555
Br3 Co3 2.959092 1_654
Br3 Sr6 3.198282 1_654
Br3 Sr7 3.198888 1_554
Br3 Sr4 3.199379 1_555
Br3 Sr5 3.200940 1_655
Br4 Co0 2.968345 1_565
Br4 Sr0 3.204141 1_555
Br4 Sr1 3.204552 1_455
Br4 Sr3 3.211458 1_555
Br4 Sr2 3.211740 1_555
Br5 Co2 2.959334 1_555
Br5 Sr0 3.197931 1_555
Br5 Sr1 3.199600 1_555
Br5 Sr2 3.199737 1_655
Br5 Sr3 3.200467 1_555
Br6 Co3 2.960060 1_565
Br6 Sr2 3.198700 1_556
Br6 Sr0 3.198769 1_555
Br6 Sr3 3.198976 1_456
Br6 Sr1 3.200029 1_455
Br7 Co1 2.968116 1_555
Br7 Sr1 3.204252 1_555
Br7 Sr0 3.206641 1_555
Br7 Sr2 3.210573 1_556
Br7 Sr3 3.211189 1_556
O0 Sr6 2.645143 1_555
O0 Sr0 2.650066 1_545
O0 Sr3 2.650616 1_545
O0 Sr4 2.653533 1_555
O1 Sr7 2.648555 1_565
O1 Sr1 2.649695 1_555
O1 Sr2 2.649937 1_655
O1 Sr5 2.652577 1_665
O2 Sr0 2.645258 1_555
O2 Sr6 2.648438 1_565
O2 Sr5 2.650013 1_566
O2 Sr2 2.655502 1_556
O3 Sr1 2.648339 1_545
O3 Sr4 2.650327 1_556
O3 Sr3 2.650883 1_546
O3 Sr7 2.651339 1_555
O4 Sr5 2.587147 1_665
O4 Sr3 2.587406 1_555
O4 Sr2 2.588826 1_655
O4 Sr4 2.590166 1_565
O5 Sr5 2.600116 1_565
O5 Sr3 2.600628 1_555
O5 Sr2 2.602024 1_555
O5 Sr4 2.602668 1_565
O6 Sr6 2.598402 1_565
O6 Sr7 2.598446 1_565
O6 Sr1 2.598483 1_555
O6 Sr0 2.598770 1_555
O7 Sr1 2.598332 1_445
O7 Sr7 2.598337 1_455
O7 Sr6 2.598377 1_555
O7 Sr0 2.598983 1_545
