# generated using pymatgen
data_Ga2BiAs
_symmetry_space_group_name_H-M   'P 1'
_cell_length_a   4.30014100
_cell_length_b   4.30014100
_cell_length_c   6.14586100
_cell_angle_alpha   90.00000000
_cell_angle_beta   90.00000000
_cell_angle_gamma   90.00000000
_symmetry_Int_Tables_number   1
_chemical_formula_structural   Ga2BiAs
_chemical_formula_sum   'Ga2 Bi1 As1'
_cell_volume   113.64442248
_cell_formula_units_Z   1
loop_
 _symmetry_equiv_pos_site_id
 _symmetry_equiv_pos_as_xyz
  1  'x, y, z'
loop_
 _atom_site_type_symbol
 _atom_site_label
 _atom_site_symmetry_multiplicity
 _atom_site_fract_x
 _atom_site_fract_y
 _atom_site_fract_z
 _atom_site_occupancy
  Ga  Ga0  1  0.50000000  0.00000000  0.72573600  1
  Ga  Ga1  1  0.00000000  0.50000000  0.27426400  1
  Bi  Bi0  1  0.00000000  0.00000000  0.00000000  1
  As  As0  1  0.50000000  0.50000000  0.50000000  1
loop_
_geom_bond_atom_site_label_1
_geom_bond_atom_site_label_2
_geom_bond_distance
_geom_bond_site_symmetry_2
Bi0 Ga0 2.732034 1_454
Bi0 Ga1 2.732034 1_555
Bi0 Ga0 2.732034 1_554
Bi0 Ga1 2.732034 1_545
As0 Ga0 2.558812 1_565
As0 Ga1 2.558812 1_655
As0 Ga0 2.558812 1_555
As0 Ga1 2.558812 1_555
