# generated using pymatgen
data_Mg6SiMo
_symmetry_space_group_name_H-M   'P 1'
_cell_length_a   4.77936600
_cell_length_b   6.12133800
_cell_length_c   10.48690400
_cell_angle_alpha   90.00000000
_cell_angle_beta   90.00000000
_cell_angle_gamma   90.00000000
_symmetry_Int_Tables_number   1
_chemical_formula_structural   Mg6SiMo
_chemical_formula_sum   'Mg12 Si2 Mo2'
_cell_volume   306.80606639
_cell_formula_units_Z   2
loop_
 _symmetry_equiv_pos_site_id
 _symmetry_equiv_pos_as_xyz
  1  'x, y, z'
loop_
 _atom_site_type_symbol
 _atom_site_label
 _atom_site_symmetry_multiplicity
 _atom_site_fract_x
 _atom_site_fract_y
 _atom_site_fract_z
 _atom_site_occupancy
  Mg  Mg0  1  0.00000000  0.26009000  0.08763000  1
  Mg  Mg1  1  0.00000000  0.73991000  0.08763000  1
  Mg  Mg2  1  0.00000000  0.50000000  0.83363000  1
  Mg  Mg3  1  0.50000000  0.24583200  0.91743800  1
  Mg  Mg4  1  0.50000000  0.75416800  0.91743800  1
  Mg  Mg5  1  0.50000000  0.50000000  0.66668600  1
  Mg  Mg6  1  0.00000000  0.76009000  0.58763000  1
  Mg  Mg7  1  0.00000000  0.23991000  0.58763000  1
  Mg  Mg8  1  0.00000000  0.00000000  0.33363000  1
  Mg  Mg9  1  0.50000000  0.74583200  0.41743800  1
  Mg  Mg10  1  0.50000000  0.25416800  0.41743800  1
  Mg  Mg11  1  0.50000000  0.00000000  0.16668600  1
  Si  Si0  1  0.00000000  0.50000000  0.31072700  1
  Si  Si1  1  0.00000000  0.00000000  0.81072700  1
  Mo  Mo0  1  0.50000000  0.50000000  0.17882000  1
  Mo  Mo1  1  0.50000000  0.00000000  0.67882000  1
loop_
_geom_bond_atom_site_label_1
_geom_bond_atom_site_label_2
_geom_bond_distance
_geom_bond_site_symmetry_2
Mg0 Si0 2.762320 1_555
Mg0 Mo0 2.963409 1_455
Mg0 Mo0 2.963409 1_555
Mg0 Mg3 2.983901 1_554
Mg0 Mg3 2.983901 1_454
Mg0 Mg11 2.988761 1_455
Mg0 Mg11 2.988761 1_555
Mg0 Mg8 3.031507 1_555
Mg0 Mg2 3.041686 1_554
Mg1 Si0 2.762320 1_555
Mg1 Mo0 2.963409 1_555
Mg1 Mo0 2.963409 1_455
Mg1 Mg4 2.983901 1_454
Mg1 Mg4 2.983901 1_554
Mg1 Mg11 2.988761 1_565
Mg1 Mg11 2.988761 1_465
Mg1 Mg8 3.031507 1_565
Mg1 Mg2 3.041686 1_554
Mg2 Mg5 2.962368 1_455
Mg2 Mg5 2.962368 1_555
Mg2 Mg4 2.983905 1_555
Mg2 Mg4 2.983905 1_455
Mg2 Mg3 2.983905 1_555
Mg2 Mg3 2.983905 1_455
Mg2 Mg7 3.031507 1_555
Mg2 Mg6 3.031507 1_555
Mg2 Si1 3.070078 1_555
Mg2 Si1 3.070078 1_565
Mg3 Mo1 2.919985 1_555
Mg3 Mg4 3.009642 1_545
Mg3 Si1 3.037661 1_555
Mg3 Si1 3.037661 1_655
Mg3 Mg5 3.055409 1_555
Mg3 Mg4 3.111696 1_555
Mg3 Mo0 3.151861 1_556
Mg4 Mo1 2.919985 1_565
Mg4 Si1 3.037661 1_565
Mg4 Si1 3.037661 1_665
Mg4 Mg5 3.055409 1_555
Mg4 Mo0 3.151861 1_556
Mg5 Mg6 2.988761 1_655
Mg5 Mg7 2.988761 1_655
Mg5 Mg6 2.988761 1_555
Mg5 Mg7 2.988761 1_555
Mg5 Mg9 3.016064 1_555
Mg5 Mo1 3.063313 1_565
Mg5 Mo1 3.063313 1_555
Mg6 Si1 2.762320 1_565
Mg6 Mo1 2.963409 1_565
Mg6 Mo1 2.963409 1_465
Mg6 Mg9 2.983901 1_455
Mg6 Mg9 2.983901 1_555
Mg6 Mg8 3.041686 1_565
Mg7 Si1 2.762320 1_555
Mg7 Mo1 2.963409 1_555
Mg7 Mo1 2.963409 1_455
Mg7 Mg8 3.041686 1_555
Mg8 Mg9 2.983905 1_545
Mg8 Mg9 2.983905 1_445
Mg8 Si0 3.070078 1_545
Mg8 Si0 3.070078 1_555
Mg9 Mo0 2.919985 1_555
Mg9 Si0 3.037661 1_655
Mg9 Si0 3.037661 1_555
Mg9 Mo1 3.151861 1_565
Mg10 Mo0 2.919985 1_555
Mg10 Mg7 2.983901 1_555
Mg10 Mg7 2.983901 1_655
Mg10 Mg8 2.983905 1_655
Mg10 Mg8 2.983905 1_555
Mg10 Mg9 3.009642 1_555
Mg10 Mg5 3.016064 1_555
Mg10 Si0 3.037661 1_655
Mg10 Si0 3.037661 1_555
Mg10 Mg11 3.055409 1_555
Mg10 Mg9 3.111696 1_545
Mg10 Mo1 3.151861 1_555
Mg11 Mg8 2.962368 1_655
Mg11 Mg8 2.962368 1_555
Mg11 Mg3 3.016064 1_554
Mg11 Mg4 3.016064 1_544
Mg11 Mg9 3.055409 1_545
Mg11 Mo0 3.063313 1_555
Mg11 Mo0 3.063313 1_545
Mo0 Si0 2.761176 1_555
Mo0 Si0 2.761176 1_655
Mo1 Si1 2.761176 1_555
Mo1 Si1 2.761176 1_655
