# generated using pymatgen
data_Nd2SiTeO4
_symmetry_space_group_name_H-M   'P 1'
_cell_length_a   6.31573760
_cell_length_b   7.19320191
_cell_length_c   11.21327110
_cell_angle_alpha   90.00000000
_cell_angle_beta   90.00000000
_cell_angle_gamma   90.00000000
_symmetry_Int_Tables_number   1
_chemical_formula_structural   Nd2SiTeO4
_chemical_formula_sum   'Nd8 Si4 Te4 O16'
_cell_volume   509.42311965
_cell_formula_units_Z   4
loop_
 _symmetry_equiv_pos_site_id
 _symmetry_equiv_pos_as_xyz
  1  'x, y, z'
loop_
 _atom_site_type_symbol
 _atom_site_label
 _atom_site_symmetry_multiplicity
 _atom_site_fract_x
 _atom_site_fract_y
 _atom_site_fract_z
 _atom_site_occupancy
  Nd  Nd0  1  0.38815683  0.75000000  0.50000000  1
  Nd  Nd1  1  0.38815683  0.75000000  -0.00000000  1
  Nd  Nd2  1  0.61184317  0.25000000  0.50000000  1
  Nd  Nd3  1  0.61184317  0.25000000  -0.00000000  1
  Nd  Nd4  1  0.88772610  0.96172949  0.75000000  1
  Nd  Nd5  1  0.88772610  0.53827051  0.25000000  1
  Nd  Nd6  1  0.11227390  0.46172949  0.75000000  1
  Nd  Nd7  1  0.11227390  0.03827051  0.25000000  1
  Si  Si0  1  0.11300022  0.25000000  -0.00000000  1
  Si  Si1  1  0.88699978  0.75000000  -0.00000000  1
  Si  Si2  1  0.88699978  0.75000000  0.50000000  1
  Si  Si3  1  0.11300022  0.25000000  0.50000000  1
  Te  Te0  1  0.59749334  0.57685315  0.75000000  1
  Te  Te1  1  0.59749334  0.92314685  0.25000000  1
  Te  Te2  1  0.40250666  0.07685315  0.75000000  1
  Te  Te3  1  0.40250666  0.42314685  0.25000000  1
  O  O0  1  0.26756706  0.07711360  0.46463406  1
  O  O1  1  0.26756706  0.42288640  0.53536594  1
  O  O2  1  0.73243294  0.57711360  0.03536594  1
  O  O3  1  0.73243294  0.92288640  0.96463406  1
  O  O4  1  0.73243294  0.92288640  0.53536594  1
  O  O5  1  0.73243294  0.57711360  0.46463406  1
  O  O6  1  0.26756706  0.42288640  0.96463406  1
  O  O7  1  0.26756706  0.07711360  0.03536594  1
  O  O8  1  0.04790145  0.76956665  0.38508969  1
  O  O9  1  0.04790145  0.76956665  0.11491031  1
  O  O10  1  0.95209855  0.26956665  0.11491031  1
  O  O11  1  0.95209855  0.23043335  0.88508969  1
  O  O12  1  0.95209855  0.23043335  0.61491031  1
  O  O13  1  0.95209855  0.26956665  0.38508969  1
  O  O14  1  0.04790145  0.73043335  0.88508969  1
  O  O15  1  0.04790145  0.73043335  0.61491031  1
loop_
_geom_bond_atom_site_label_1
_geom_bond_atom_site_label_2
_geom_bond_distance
_geom_bond_site_symmetry_2
Nd0 O0 2.504776 1_565
Nd0 O1 2.504776 1_555
Nd0 O15 2.509609 1_555
Nd0 O8 2.509609 1_555
Nd0 O4 2.536071 1_555
Nd0 O5 2.536071 1_555
Nd0 Te0 3.340329 1_555
Nd0 Te1 3.340329 1_555
Nd0 Te3 3.659860 1_555
Nd0 Te2 3.659860 1_565
Nd1 O7 2.504776 1_565
Nd1 O6 2.504776 1_554
Nd1 O9 2.509609 1_555
Nd1 O14 2.509609 1_554
Nd1 O3 2.536071 1_554
Nd1 O2 2.536071 1_555
Nd1 Te0 3.340329 1_554
Nd1 Te1 3.340329 1_555
Nd1 Te3 3.659860 1_555
Nd1 Te2 3.659860 1_564
Nd2 O4 2.504776 1_545
Nd2 O5 2.504776 1_555
Nd2 O13 2.509609 1_555
Nd2 O12 2.509609 1_555
Nd2 O1 2.536071 1_555
Nd2 O0 2.536071 1_555
Nd2 Te2 3.340329 1_555
Nd2 Te3 3.340329 1_555
Nd2 Te1 3.659860 1_545
Nd2 Te0 3.659860 1_555
Nd3 O3 2.504776 1_544
Nd3 O2 2.504776 1_555
Nd3 O10 2.509609 1_555
Nd3 O11 2.509609 1_554
Nd3 O6 2.536071 1_554
Nd3 O7 2.536071 1_555
Nd3 Te3 3.340329 1_555
Nd3 Te2 3.340329 1_554
Nd3 Te1 3.659860 1_545
Nd3 Te0 3.659860 1_554
Nd4 O14 2.467001 1_655
Nd4 O15 2.467001 1_655
Nd4 O11 2.489132 1_565
Nd4 O12 2.489132 1_565
Nd4 O4 2.613898 1_555
Nd4 O3 2.613898 1_555
Nd4 Te2 3.174435 1_565
Nd4 Te0 3.320327 1_555
Nd4 Te2 3.355024 1_665
Nd5 O8 2.467001 1_655
Nd5 O9 2.467001 1_655
Nd5 O13 2.489132 1_555
Nd5 O10 2.489132 1_555
Nd5 O5 2.613898 1_555
Nd5 O2 2.613898 1_555
Nd5 Te3 3.174435 1_555
Nd5 Te1 3.320327 1_555
Nd5 Te3 3.355024 1_655
Nd6 O11 2.467001 1_455
Nd6 O12 2.467001 1_455
Nd6 O15 2.489132 1_555
Nd6 O14 2.489132 1_555
Nd6 O1 2.613898 1_555
Nd6 O6 2.613898 1_555
Nd6 Te0 3.174435 1_555
Nd6 Te2 3.320327 1_555
Nd6 Te0 3.355024 1_455
Nd7 O13 2.467001 1_455
Nd7 O10 2.467001 1_455
Nd7 O8 2.489132 1_545
Nd7 O9 2.489132 1_545
Nd7 O7 2.613898 1_555
Nd7 O0 2.613898 1_555
Nd7 Te1 3.174435 1_545
Nd7 Te3 3.320327 1_555
Nd7 Te1 3.355024 1_445
O0 Si3 1.629969 1_555
O1 Si3 1.629969 1_555
O2 Si1 1.629969 1_555
O3 Si1 1.629969 1_556
O4 Si2 1.629969 1_555
O5 Si2 1.629969 1_555
O6 Si0 1.629969 1_556
O7 Si0 1.629969 1_555
O8 Si2 1.647053 1_455
O9 Si1 1.647053 1_455
O10 Si0 1.647053 1_655
O11 Si0 1.647053 1_656
O12 Si3 1.647053 1_655
O13 Si3 1.647053 1_655
O14 Si1 1.647053 1_456
O15 Si2 1.647053 1_455
