# generated using pymatgen
data_Zr2Si4Ni3
_symmetry_space_group_name_H-M   'P 1'
_cell_length_a   7.31933095
_cell_length_b   7.31933095
_cell_length_c   6.86361653
_cell_angle_alpha   90.00000000
_cell_angle_beta   90.00000000
_cell_angle_gamma   138.57706560
_symmetry_Int_Tables_number   1
_chemical_formula_structural   Zr2Si4Ni3
_chemical_formula_sum   'Zr4 Si8 Ni6'
_cell_volume   243.27596227
_cell_formula_units_Z   2
loop_
 _symmetry_equiv_pos_site_id
 _symmetry_equiv_pos_as_xyz
  1  'x, y, z'
loop_
 _atom_site_type_symbol
 _atom_site_label
 _atom_site_symmetry_multiplicity
 _atom_site_fract_x
 _atom_site_fract_y
 _atom_site_fract_z
 _atom_site_occupancy
  Zr  Zr0  1  0.10466884  0.89533116  0.59791199  1
  Zr  Zr1  1  0.89533116  0.10466884  0.40208801  1
  Zr  Zr2  1  0.39533116  0.60466884  0.09791199  1
  Zr  Zr3  1  0.60466884  0.39533116  0.90208801  1
  Si  Si0  1  0.81164553  0.68835447  0.25000000  1
  Si  Si1  1  0.68835447  0.81164553  0.75000000  1
  Si  Si2  1  0.18835447  0.31164553  0.75000000  1
  Si  Si3  1  0.31164553  0.18835447  0.25000000  1
  Si  Si4  1  0.18255682  0.81744318  0.97813679  1
  Si  Si5  1  0.81744318  0.18255682  0.02186321  1
  Si  Si6  1  0.31744318  0.68255682  0.47813679  1
  Si  Si7  1  0.68255682  0.31744318  0.52186321  1
  Ni  Ni0  1  -0.00000000  0.00000000  0.00000000  1
  Ni  Ni1  1  0.50000000  0.50000000  0.50000000  1
  Ni  Ni2  1  0.97757403  0.52242597  0.25000000  1
  Ni  Ni3  1  0.52242597  0.97757403  0.75000000  1
  Ni  Ni4  1  0.02242597  0.47757403  0.75000000  1
  Ni  Ni5  1  0.47757403  0.02242597  0.25000000  1
loop_
_geom_bond_atom_site_label_1
_geom_bond_atom_site_label_2
_geom_bond_distance
_geom_bond_site_symmetry_2
Si0 Zr0 2.779289 1_655
Si0 Zr3 2.779289 1_554
Si0 Zr1 2.819724 1_565
Si0 Zr2 2.819724 1_555
Si1 Zr1 2.779289 1_565
Si1 Zr2 2.779289 1_556
Si1 Zr0 2.819724 1_655
Si1 Zr3 2.819724 1_555
Si2 Zr1 2.779289 1_455
Si2 Zr2 2.779289 1_556
Si2 Zr3 2.819724 1_555
Si2 Zr0 2.819724 1_545
Si3 Zr0 2.779289 1_545
Si3 Zr3 2.779289 1_554
Si3 Zr1 2.819724 1_455
Si3 Zr2 2.819724 1_555
Si4 Zr0 2.819224 1_555
Si4 Zr3 2.847902 1_565
Si4 Zr3 2.847902 1_455
Si4 Zr2 3.027201 1_556
Si5 Zr1 2.819224 1_555
Si5 Zr2 2.847902 1_655
Si5 Zr2 2.847902 1_545
Si5 Zr3 3.027201 1_554
Si6 Zr2 2.819224 1_555
Si6 Zr1 2.847902 1_455
Si6 Zr1 2.847902 1_565
Si6 Zr0 3.027201 1_555
Si7 Zr3 2.819224 1_555
Si7 Zr0 2.847902 1_545
Si7 Zr0 2.847902 1_655
Si7 Zr1 3.027201 1_555
Ni0 Si0 2.309109 1_445
Ni0 Si1 2.309109 1_444
Ni0 Si3 2.309109 1_555
Ni0 Si2 2.309109 1_554
Ni0 Si4 2.504180 1_544
Ni0 Si5 2.504180 1_455
Ni0 Zr3 3.034197 1_444
Ni0 Zr2 3.034197 1_555
Ni0 Zr2 3.034197 1_445
Ni0 Zr3 3.034197 1_554
Ni0 Zr0 3.109728 1_544
Ni0 Zr1 3.109728 1_455
Ni1 Si0 2.309109 1_555
Ni1 Si1 2.309109 1_555
Ni1 Si3 2.309109 1_555
Ni1 Si2 2.309109 1_555
Ni1 Si6 2.504180 1_555
Ni1 Si7 2.504180 1_555
Ni1 Zr1 3.034197 1_455
Ni1 Zr0 3.034197 1_655
Ni1 Zr0 3.034197 1_545
Ni1 Zr1 3.034197 1_565
Ni1 Zr2 3.109728 1_555
Ni1 Zr3 3.109728 1_555
Ni2 Si0 2.271995 1_555
Ni2 Si4 2.353073 1_654
Ni2 Si7 2.353073 1_555
Ni2 Si6 2.375137 1_655
Ni2 Si5 2.375137 1_555
Ni2 Ni5 2.588570 1_555
Ni2 Ni5 2.588570 1_665
Ni2 Zr2 2.835702 1_655
Ni2 Zr1 2.835702 1_555
Ni2 Zr3 3.195236 1_554
Ni2 Zr0 3.195236 1_655
Ni3 Si1 2.271995 1_555
Ni3 Si5 2.353073 1_566
Ni3 Si6 2.353073 1_555
Ni3 Si7 2.375137 1_565
Ni3 Si4 2.375137 1_555
Ni3 Ni4 2.588570 1_665
Ni3 Ni4 2.588570 1_555
Ni3 Zr0 2.835702 1_555
Ni3 Zr3 2.835702 1_565
Ni3 Zr2 3.195236 1_556
Ni3 Zr1 3.195236 1_565
Ni4 Si2 2.271995 1_555
Ni4 Si6 2.353073 1_555
Ni4 Si5 2.353073 1_456
Ni4 Si4 2.375137 1_555
Ni4 Si7 2.375137 1_455
Ni4 Zr3 2.835702 1_455
Ni4 Zr0 2.835702 1_555
Ni4 Zr1 3.195236 1_455
Ni4 Zr2 3.195236 1_556
Ni5 Si3 2.271995 1_555
Ni5 Si4 2.353073 1_544
Ni5 Si7 2.353073 1_555
Ni5 Si5 2.375137 1_555
Ni5 Si6 2.375137 1_545
Ni5 Zr1 2.835702 1_555
Ni5 Zr2 2.835702 1_545
Ni5 Zr3 3.195236 1_554
Ni5 Zr0 3.195236 1_545
