# generated using pymatgen
data_Mg14ZrMo
_symmetry_space_group_name_H-M   'P 1'
_cell_length_a   6.34105921
_cell_length_b   6.34105871
_cell_length_c   10.02017697
_cell_angle_alpha   90.00000000
_cell_angle_beta   90.00000000
_cell_angle_gamma   120.00000267
_symmetry_Int_Tables_number   1
_chemical_formula_structural   Mg14ZrMo
_chemical_formula_sum   'Mg14 Zr1 Mo1'
_cell_volume   348.92299720
_cell_formula_units_Z   1
loop_
 _symmetry_equiv_pos_site_id
 _symmetry_equiv_pos_as_xyz
  1  'x, y, z'
loop_
 _atom_site_type_symbol
 _atom_site_label
 _atom_site_symmetry_multiplicity
 _atom_site_fract_x
 _atom_site_fract_y
 _atom_site_fract_z
 _atom_site_occupancy
  Mg  Mg0  1  0.17443226  0.83721563  0.12500000  1
  Mg  Mg1  1  0.16484060  0.83241980  0.62500000  1
  Mg  Mg2  1  0.66278437  0.32556774  0.12500000  1
  Mg  Mg3  1  0.66758020  0.33515940  0.62500000  1
  Mg  Mg4  1  0.66278437  0.83721563  0.12500000  1
  Mg  Mg5  1  0.66758020  0.83241980  0.62500000  1
  Mg  Mg6  1  0.32604932  0.17395068  0.38464340  1
  Mg  Mg7  1  0.32604932  0.17395068  0.86535660  1
  Mg  Mg8  1  0.32604932  0.65209965  0.38464340  1
  Mg  Mg9  1  0.32604932  0.65209965  0.86535660  1
  Mg  Mg10  1  0.84790035  0.17395068  0.38464340  1
  Mg  Mg11  1  0.84790035  0.17395068  0.86535660  1
  Mg  Mg12  1  0.83333300  0.66666700  0.36937849  1
  Mg  Mg13  1  0.83333300  0.66666700  0.88062151  1
  Zr  Zr0  1  0.16666700  0.33333300  0.12500000  1
  Mo  Mo0  1  0.16666700  0.33333300  0.62500000  1
loop_
_geom_bond_atom_site_label_1
_geom_bond_atom_site_label_2
_geom_bond_distance
_geom_bond_site_symmetry_2
Mg0 Mg13 3.083003 1_454
Mg0 Mg12 3.083003 1_455
Mg0 Mg2 3.096669 1_565
Mg0 Mg4 3.096670 1_555
Mg0 Zr0 3.170816 1_555
Mg0 Zr0 3.170816 1_565
Mg0 Mg8 3.193655 1_555
Mg0 Mg9 3.193655 1_554
Mg0 Mg6 3.193662 1_565
Mg0 Mg7 3.193662 1_564
Mg0 Mg2 3.244389 1_455
Mg0 Mg4 3.244390 1_455
Mg1 Mg9 3.053143 1_555
Mg1 Mg8 3.053143 1_555
Mg1 Mg7 3.053150 1_565
Mg1 Mg6 3.053150 1_565
Mg1 Mg12 3.142416 1_455
Mg1 Mg13 3.142416 1_455
Mg1 Mg3 3.153157 1_455
Mg1 Mg5 3.153158 1_455
Mg1 Mo0 3.170545 1_565
Mg1 Mo0 3.170545 1_555
Mg1 Mg3 3.187901 1_565
Mg1 Mg5 3.187902 1_555
Mg2 Mg4 3.096669 1_545
Mg2 Zr0 3.170816 1_655
Mg2 Zr0 3.170816 1_555
Mg2 Mg6 3.193662 1_555
Mg2 Mg7 3.193662 1_554
Mg2 Mg4 3.244389 1_555
Mg3 Mg7 3.053150 1_555
Mg3 Mg6 3.053150 1_555
Mg3 Mg5 3.153157 1_555
Mg3 Mo0 3.170545 1_555
Mg3 Mo0 3.170545 1_655
Mg3 Mg5 3.187901 1_545
Mg4 Zr0 3.170816 1_555
Mg4 Zr0 3.170816 1_665
Mg4 Mg8 3.193661 1_555
Mg4 Mg9 3.193661 1_554
Mg5 Mg9 3.053150 1_555
Mg5 Mg8 3.053150 1_555
Mg5 Mo0 3.170545 1_665
Mg5 Mo0 3.170545 1_555
Mg6 Mo0 2.977368 1_555
Mg6 Mg8 3.031971 1_555
Mg6 Zr0 3.135755 1_555
Mg6 Mg8 3.309088 1_545
Mg7 Mo0 2.977368 1_555
Mg7 Mg9 3.031971 1_555
Mg7 Zr0 3.135755 1_556
Mg7 Mg9 3.309088 1_545
Mg8 Mo0 2.977375 1_555
Mg8 Zr0 3.135761 1_555
Mg9 Mo0 2.977375 1_555
Mg9 Zr0 3.135761 1_556
Mg10 Mo0 2.977375 1_655
Mg10 Mg8 3.031971 1_655
Mg10 Mg6 3.031971 1_655
Mg10 Mg3 3.053143 1_555
Mg10 Mg5 3.053150 1_545
Mg10 Zr0 3.135761 1_655
Mg10 Mg12 3.175225 1_555
Mg10 Mg12 3.175225 1_545
Mg10 Mg2 3.193655 1_555
Mg10 Mg4 3.193661 1_545
Mg10 Mg8 3.309088 1_545
Mg10 Mg6 3.309088 1_555
Mg11 Mo0 2.977375 1_655
Mg11 Mg9 3.031971 1_655
Mg11 Mg7 3.031971 1_655
Mg11 Mg3 3.053143 1_555
Mg11 Mg5 3.053150 1_545
Mg11 Zr0 3.135761 1_656
Mg11 Mg13 3.175225 1_555
Mg11 Mg13 3.175225 1_545
Mg11 Mg2 3.193655 1_556
Mg11 Mg4 3.193661 1_546
Mg11 Mg9 3.309088 1_545
Mg11 Mg7 3.309088 1_555
Mg12 Mg4 3.082997 1_555
Mg12 Mg2 3.083003 1_555
Mg12 Mg5 3.142410 1_555
Mg12 Mg3 3.142416 1_555
Mg12 Mg6 3.175225 1_665
Mg12 Mg6 3.175225 1_555
Mg12 Mg8 3.175225 1_655
Mg12 Mg8 3.175225 1_555
Mg13 Mg4 3.082997 1_556
Mg13 Mg2 3.083003 1_556
Mg13 Mg5 3.142410 1_555
Mg13 Mg3 3.142416 1_555
Mg13 Mg7 3.175225 1_665
Mg13 Mg7 3.175225 1_555
Mg13 Mg9 3.175225 1_655
Mg13 Mg9 3.175225 1_555
