# generated using pymatgen
data_Ba2Mg2Mn3Tl2O10
_symmetry_space_group_name_H-M   'P 1'
_cell_length_a   3.75040200
_cell_length_b   3.75901979
_cell_length_c   20.29624920
_cell_angle_alpha   94.06055896
_cell_angle_beta   94.80130495
_cell_angle_gamma   89.86925219
_symmetry_Int_Tables_number   1
_chemical_formula_structural   Ba2Mg2Mn3Tl2O10
_chemical_formula_sum   'Ba2 Mg2 Mn3 Tl2 O10'
_cell_volume   284.41147061
_cell_formula_units_Z   1
loop_
 _symmetry_equiv_pos_site_id
 _symmetry_equiv_pos_as_xyz
  1  'x, y, z'
loop_
 _atom_site_type_symbol
 _atom_site_label
 _atom_site_symmetry_multiplicity
 _atom_site_fract_x
 _atom_site_fract_y
 _atom_site_fract_z
 _atom_site_occupancy
  Ba  Ba0  1  0.87030800  0.81115300  0.70124400  1
  Ba  Ba1  1  0.12497800  0.09048200  0.30229200  1
  Mg  Mg0  1  0.03769000  0.00082100  0.09883500  1
  Mg  Mg1  1  0.96781300  0.88148400  0.90384700  1
  Mn  Mn0  1  0.57039900  0.53683300  0.17875200  1
  Mn  Mn1  1  0.43410800  0.35444800  0.82191700  1
  Mn  Mn2  1  0.50361900  0.40495200  0.99887500  1
  Tl  Tl0  1  0.27728400  0.25039700  0.55828500  1
  Tl  Tl1  1  0.71653300  0.69761500  0.44480200  1
  O  O0  1  0.06508200  0.53173700  0.16659900  1
  O  O1  1  0.61153100  0.57426900  0.27552200  1
  O  O2  1  0.55040500  0.01378700  0.12842600  1
  O  O3  1  0.21214600  0.22446400  0.43475700  1
  O  O4  1  0.49393900  0.89381600  0.96845600  1
  O  O5  1  0.44753100  0.85800300  0.83172900  1
  O  O6  1  0.38336100  0.32012100  0.72525600  1
  O  O7  1  0.96148000  0.37059900  0.87321000  1
  O  O8  1  0.78197300  0.78423100  0.56719000  1
  O  O9  1  0.01681900  0.41091700  0.02904200  1
loop_
_geom_bond_atom_site_label_1
_geom_bond_atom_site_label_2
_geom_bond_distance
_geom_bond_site_symmetry_2
Ba0 O6 2.689628 1_565
Ba0 O6 2.696560 1_555
Ba0 O6 2.702049 1_655
Ba0 O6 2.707041 1_665
Ba0 O8 2.707947 1_555
Ba1 O3 2.692702 1_555
Ba1 O1 2.693180 1_555
Ba1 O1 2.694300 1_455
Ba1 O1 2.718612 1_545
Ba1 O1 2.731525 1_445
Mg0 O2 1.965587 1_555
Mg0 O2 1.970298 1_455
Mg0 O9 2.163157 1_555
Mg0 O0 2.308754 1_545
Mg0 O0 2.339578 1_555
Mg0 O9 2.543072 1_545
Mg1 O7 1.975823 1_555
Mg1 O7 1.981637 1_565
Mg1 O4 2.274605 1_655
Mg1 O4 2.293765 1_555
Mg1 O5 2.337112 1_555
Mg1 O5 2.410184 1_655
Mn0 O0 1.890507 1_555
Mn0 O0 1.891817 1_655
Mn0 O1 1.952281 1_555
Mn0 O2 2.123505 1_565
Mn0 O2 2.148973 1_555
Mn1 O5 1.889586 1_555
Mn1 O5 1.890826 1_545
Mn1 O6 1.950258 1_555
Mn1 O7 2.128113 1_455
Mn1 O7 2.155530 1_555
Mn2 O9 1.969989 1_656
Mn2 O9 1.973207 1_556
Mn2 O4 1.975531 1_545
Mn2 O4 1.978905 1_555
O3 Tl0 2.493587 1_555
O3 Tl1 2.580090 1_455
O3 Tl1 2.585096 1_555
O3 Tl1 2.741819 1_545
O3 Tl1 2.748828 1_445
O8 Tl1 2.473935 1_555
O8 Tl0 2.580389 1_565
O8 Tl0 2.582628 1_665
O8 Tl0 2.738255 1_655
O8 Tl0 2.747877 1_555
