# generated using pymatgen
data_Mg6Si5
_symmetry_space_group_name_H-M   'P 1'
_cell_length_a   4.26088500
_cell_length_b   7.20543769
_cell_length_c   14.26298409
_cell_angle_alpha   103.54969324
_cell_angle_beta   91.09978780
_cell_angle_gamma   90.90442890
_symmetry_Int_Tables_number   1
_chemical_formula_structural   Mg6Si5
_chemical_formula_sum   'Mg12 Si10'
_cell_volume   425.53659522
_cell_formula_units_Z   2
loop_
 _symmetry_equiv_pos_site_id
 _symmetry_equiv_pos_as_xyz
  1  'x, y, z'
loop_
 _atom_site_type_symbol
 _atom_site_label
 _atom_site_symmetry_multiplicity
 _atom_site_fract_x
 _atom_site_fract_y
 _atom_site_fract_z
 _atom_site_occupancy
  Mg  Mg0  1  0.41896800  0.55007700  0.05394500  1
  Mg  Mg1  1  0.46098400  0.24004700  0.44458600  1
  Mg  Mg2  1  0.91155300  0.74222700  0.74684800  1
  Mg  Mg3  1  0.43491300  0.01005900  0.22060100  1
  Mg  Mg4  1  0.43761700  0.53257400  0.29219300  1
  Mg  Mg5  1  0.39614200  0.39733600  0.78656000  1
  Mg  Mg6  1  0.01474700  0.02192200  0.59259500  1
  Mg  Mg7  1  0.95539900  0.58703400  0.47332700  1
  Mg  Mg8  1  0.92617800  0.32048200  0.14499300  1
  Mg  Mg9  1  0.40964400  0.81300600  0.90233700  1
  Mg  Mg10  1  0.89551000  0.17824300  0.89777000  1
  Mg  Mg11  1  0.91961200  0.89403100  0.05699200  1
  Si  Si0  1  0.44586100  0.86197700  0.44100000  1
  Si  Si1  1  0.51302300  0.82366100  0.60753400  1
  Si  Si2  1  0.90620500  0.57139600  0.90860400  1
  Si  Si3  1  0.92437800  0.71108100  0.19960200  1
  Si  Si4  1  0.94715600  0.26417900  0.32468300  1
  Si  Si5  1  0.41488800  0.51215500  0.61147400  1
  Si  Si6  1  0.91317600  0.37286400  0.62422100  1
  Si  Si7  1  0.95047300  0.93343100  0.35745500  1
  Si  Si8  1  0.41653900  0.14340000  0.04237700  1
  Si  Si9  1  0.39060100  0.01516200  0.76668300  1
loop_
_geom_bond_atom_site_label_1
_geom_bond_atom_site_label_2
_geom_bond_distance
_geom_bond_site_symmetry_2
Mg0 Si8 2.895917 1_555
Mg0 Si3 2.986547 1_555
Mg0 Si2 2.989196 1_554
Mg0 Si2 3.013356 1_454
Mg0 Si3 3.036260 1_455
Mg1 Si0 2.712353 1_545
Mg1 Si5 2.718812 1_555
Mg1 Si4 2.740457 1_555
Mg1 Si4 2.784936 1_455
Mg1 Si7 3.100814 1_445
Mg1 Si7 3.119910 1_545
Mg1 Si6 3.129863 1_555
Mg2 Si1 2.761225 1_555
Mg2 Si9 2.775678 1_665
Mg2 Si6 2.821733 1_555
Mg2 Si2 2.858376 1_555
Mg2 Si9 2.962427 1_565
Mg2 Si5 3.031057 1_555
Mg2 Si5 3.138026 1_655
Mg3 Si8 2.920645 1_555
Mg3 Si4 2.965816 1_555
Mg3 Si4 2.973320 1_455
Mg3 Si3 2.990583 1_545
Mg3 Si3 2.997891 1_445
Mg3 Si7 2.999889 1_445
Mg3 Si7 3.052756 1_545
Mg4 Si0 2.788087 1_555
Mg4 Si3 2.918370 1_555
Mg4 Si4 2.941343 1_455
Mg4 Si3 2.992424 1_455
Mg4 Si4 3.030215 1_555
Mg5 Si9 2.701081 1_555
Mg5 Si5 2.810828 1_555
Mg5 Si2 2.841145 1_555
Mg5 Si2 2.856595 1_455
Mg5 Si6 3.039978 1_455
Mg5 Si6 3.203501 1_555
Mg6 Si6 2.508508 1_455
Mg6 Si1 2.592300 1_445
Mg6 Si1 2.610504 1_545
Mg6 Si0 2.903318 1_545
Mg6 Si9 2.939205 1_555
Mg7 Si4 2.755238 1_555
Mg7 Si5 2.896555 1_655
Mg7 Si6 2.933959 1_555
Mg7 Si1 2.972327 1_555
Mg7 Si0 2.973024 1_655
Mg7 Si0 3.062068 1_555
Mg7 Si5 3.179734 1_555
Mg8 Si4 2.687128 1_555
Mg8 Si8 2.720503 1_555
Mg8 Si8 2.731697 1_655
Mg8 Si3 2.738888 1_555
Mg9 Si9 2.681456 1_565
Mg9 Si8 2.724935 1_566
Mg9 Si2 2.757275 1_455
Mg9 Si2 2.774391 1_555
Mg10 Si2 2.800263 1_555
Mg10 Si9 2.870748 1_555
Mg10 Si9 2.920073 1_655
Mg10 Si8 2.978275 1_556
Mg10 Si8 3.054523 1_656
Mg11 Si3 2.670425 1_555
Mg11 Si2 2.751851 1_554
Mg11 Si8 2.797767 1_665
Mg11 Si8 2.854239 1_565
Si0 Si1 2.466518 1_555
Si0 Si7 2.523026 1_455
Si0 Si7 2.580460 1_555
Si1 Si5 2.290486 1_555
Si1 Si9 2.434997 1_565
Si3 Si7 2.437782 1_555
Si4 Si7 2.533977 1_545
Si5 Si6 2.375496 1_455
Si5 Si6 2.384552 1_555
