# generated using pymatgen
data_YbBeNF6
_symmetry_space_group_name_H-M   'P 1'
_cell_length_a   6.62682100
_cell_length_b   6.72848600
_cell_length_c   7.02247839
_cell_angle_alpha   70.97451072
_cell_angle_beta   90.00000000
_cell_angle_gamma   90.00000000
_symmetry_Int_Tables_number   1
_chemical_formula_structural   YbBeNF6
_chemical_formula_sum   'Yb2 Be2 N2 F12'
_cell_volume   296.01689290
_cell_formula_units_Z   2
loop_
 _symmetry_equiv_pos_site_id
 _symmetry_equiv_pos_as_xyz
  1  'x, y, z'
loop_
 _atom_site_type_symbol
 _atom_site_label
 _atom_site_symmetry_multiplicity
 _atom_site_fract_x
 _atom_site_fract_y
 _atom_site_fract_z
 _atom_site_occupancy
  Yb  Yb0  1  0.25000000  0.28828100  0.30682100  1
  Yb  Yb1  1  0.75000000  0.71171900  0.69317900  1
  Be  Be0  1  0.25000000  0.76337900  0.46497700  1
  Be  Be1  1  0.75000000  0.23662100  0.53502300  1
  N  N0  1  0.25000000  0.25891700  0.85570300  1
  N  N1  1  0.75000000  0.74108300  0.14429700  1
  F  F0  1  0.44215500  0.75771600  0.59679000  1
  F  F1  1  0.55784500  0.24228400  0.40321000  1
  F  F2  1  0.94215500  0.24228400  0.40321000  1
  F  F3  1  0.05784500  0.75771600  0.59679000  1
  F  F4  1  0.25000000  0.57128700  0.38789100  1
  F  F5  1  0.75000000  0.42871300  0.61210900  1
  F  F6  1  0.58723900  0.68228600  0.04875100  1
  F  F7  1  0.41276100  0.31771400  0.95124900  1
  F  F8  1  0.08723900  0.31771400  0.95124900  1
  F  F9  1  0.91276100  0.68228600  0.04875100  1
  F  F10  1  0.25000000  0.97378900  0.28391900  1
  F  F11  1  0.75000000  0.02621100  0.71608100  1
loop_
_geom_bond_atom_site_label_1
_geom_bond_atom_site_label_2
_geom_bond_distance
_geom_bond_site_symmetry_2
Be0 F4 1.555551 1_555
Be0 F10 1.564404 1_555
Be0 F3 1.567412 1_555
Be0 F0 1.567412 1_555
Be1 F5 1.555551 1_555
Be1 F11 1.564404 1_555
Be1 F2 1.567412 1_555
Be1 F1 1.567412 1_555
F0 Yb1 2.139887 1_555
F1 Yb0 2.139887 1_555
F2 Yb0 2.139887 1_655
F3 Yb1 2.139887 1_455
F4 Yb0 2.157985 1_555
F5 Yb1 2.157985 1_555
F6 N1 1.393961 1_555
F6 Yb1 2.667425 1_554
F7 N0 1.393961 1_555
F7 Yb0 2.667425 1_556
F8 N0 1.393961 1_555
F8 Yb0 2.667425 1_556
F9 N1 1.393961 1_555
F9 Yb1 2.667425 1_554
F10 Yb0 2.173807 1_565
F11 Yb1 2.173807 1_545
