# generated using pymatgen
data_Ho3(SiNi3)2
_symmetry_space_group_name_H-M   'P 1'
_cell_length_a   7.56427810
_cell_length_b   7.56427810
_cell_length_c   7.56427810
_cell_angle_alpha   109.47122063
_cell_angle_beta   109.47122063
_cell_angle_gamma   109.47122063
_symmetry_Int_Tables_number   1
_chemical_formula_structural   Ho3(SiNi3)2
_chemical_formula_sum   'Ho6 Si4 Ni12'
_cell_volume   333.18126431
_cell_formula_units_Z   2
loop_
 _symmetry_equiv_pos_site_id
 _symmetry_equiv_pos_as_xyz
  1  'x, y, z'
loop_
 _atom_site_type_symbol
 _atom_site_label
 _atom_site_symmetry_multiplicity
 _atom_site_fract_x
 _atom_site_fract_y
 _atom_site_fract_z
 _atom_site_occupancy
  Ho  Ho0  1  0.71625200  0.71625200  0.00000000  1
  Ho  Ho1  1  0.28374800  0.00000000  0.28374800  1
  Ho  Ho2  1  0.00000000  0.28374800  0.28374800  1
  Ho  Ho3  1  0.28374800  0.28374800  0.00000000  1
  Ho  Ho4  1  0.71625200  0.00000000  0.71625200  1
  Ho  Ho5  1  0.00000000  0.71625200  0.71625200  1
  Si  Si0  1  0.00000000  0.00000000  0.50000000  1
  Si  Si1  1  0.00000000  0.50000000  0.00000000  1
  Si  Si2  1  0.50000000  0.00000000  0.00000000  1
  Si  Si3  1  0.50000000  0.50000000  0.50000000  1
  Ni  Ni0  1  0.33105800  0.33105800  0.66211600  1
  Ni  Ni1  1  0.66894200  0.00000000  0.33105800  1
  Ni  Ni2  1  0.00000000  0.66894200  0.33105800  1
  Ni  Ni3  1  0.66894200  0.33105800  0.00000000  1
  Ni  Ni4  1  0.33105800  0.66211600  0.33105800  1
  Ni  Ni5  1  0.00000000  0.33105800  0.66894200  1
  Ni  Ni6  1  0.33105800  0.66894200  0.00000000  1
  Ni  Ni7  1  0.33105800  0.00000000  0.66894200  1
  Ni  Ni8  1  0.66211600  0.33105800  0.33105800  1
  Ni  Ni9  1  0.66894200  0.66894200  0.33788400  1
  Ni  Ni10  1  0.66894200  0.33788400  0.66894200  1
  Ni  Ni11  1  0.33788400  0.66894200  0.66894200  1
loop_
_geom_bond_atom_site_label_1
_geom_bond_atom_site_label_2
_geom_bond_distance
_geom_bond_site_symmetry_2
Ho0 Ni9 2.814721 1_555
Ho0 Ni6 2.814721 1_555
Ho0 Ni3 2.814721 1_555
Ho0 Ni0 2.814721 1_554
Ho0 Ni1 2.920995 1_565
Ho0 Ni2 2.920995 1_655
Ho0 Ni11 2.920995 1_554
Ho0 Ni10 2.920995 1_554
Ho0 Si1 3.102140 1_655
Ho0 Si2 3.102140 1_565
Ho0 Si0 3.102140 1_665
Ho0 Si3 3.102140 1_554
Ho1 Ni4 2.814721 1_545
Ho1 Ni10 2.814721 1_555
Ho1 Ni7 2.814721 1_555
Ho1 Ni1 2.814721 1_555
Ho1 Ni6 2.920995 1_545
Ho1 Ni8 2.920995 1_555
Ho1 Ni2 2.920995 1_545
Ho1 Ni0 2.920995 1_555
Ho1 Si3 3.102140 1_555
Ho1 Si0 3.102140 1_555
Ho1 Si2 3.102140 1_555
Ho1 Si1 3.102140 1_545
Ho2 Ni8 2.814721 1_455
Ho2 Ni5 2.814721 1_555
Ho2 Ni2 2.814721 1_555
Ho2 Ni11 2.814721 1_555
Ho2 Ni4 2.920995 1_555
Ho2 Ni3 2.920995 1_455
Ho2 Ni1 2.920995 1_455
Ho2 Ni0 2.920995 1_555
Ho2 Si1 3.102140 1_555
Ho2 Si2 3.102140 1_455
Ho2 Si3 3.102140 1_555
Ho2 Si0 3.102140 1_555
Ho3 Ni0 2.814721 1_554
Ho3 Ni3 2.814721 1_555
Ho3 Ni9 2.814721 1_555
Ho3 Ni6 2.814721 1_555
Ho3 Ni5 2.920995 1_554
Ho3 Ni7 2.920995 1_554
Ho3 Ni8 2.920995 1_555
Ho3 Ni4 2.920995 1_555
Ho3 Si2 3.102140 1_555
Ho3 Si3 3.102140 1_555
Ho3 Si1 3.102140 1_555
Ho3 Si0 3.102140 1_554
Ho4 Ni10 2.814721 1_555
Ho4 Ni1 2.814721 1_555
Ho4 Ni7 2.814721 1_555
Ho4 Ni4 2.814721 1_545
Ho4 Ni5 2.920995 1_655
Ho4 Ni11 2.920995 1_545
Ho4 Ni9 2.920995 1_545
Ho4 Ni3 2.920995 1_556
Ho4 Si3 3.102140 1_545
Ho4 Si0 3.102140 1_655
Ho4 Si2 3.102140 1_556
Ho4 Si1 3.102140 1_656
Ho5 Ni2 2.814721 1_555
Ho5 Ni11 2.814721 1_555
Ho5 Ni5 2.814721 1_555
Ho5 Ni8 2.814721 1_455
Ho5 Ni9 2.920995 1_455
Ho5 Ni10 2.920995 1_455
Ho5 Ni6 2.920995 1_556
Ho5 Ni7 2.920995 1_565
Ho5 Si1 3.102140 1_556
Ho5 Si0 3.102140 1_565
Ho5 Si2 3.102140 1_566
Ho5 Si3 3.102140 1_455
Ni0 Si0 2.402232 1_555
Ni0 Si3 2.402232 1_555
Ni0 Ni10 2.521896 1_555
Ni0 Ni11 2.521896 1_555
Ni0 Ni5 2.521896 1_555
Ni0 Ni7 2.521896 1_555
Ni1 Si0 2.402232 1_655
Ni1 Si2 2.402232 1_555
Ni1 Ni6 2.521896 1_545
Ni1 Ni5 2.521896 1_655
Ni1 Ni8 2.521896 1_555
Ni1 Ni9 2.521896 1_545
Ni2 Si0 2.402232 1_565
Ni2 Si1 2.402232 1_555
Ni2 Ni9 2.521896 1_455
Ni2 Ni3 2.521896 1_455
Ni2 Ni7 2.521896 1_565
Ni2 Ni4 2.521896 1_555
Ni3 Si1 2.402232 1_655
Ni3 Si2 2.402232 1_555
Ni3 Ni8 2.521896 1_555
Ni3 Ni7 2.521896 1_554
Ni4 Si3 2.402232 1_555
Ni4 Si1 2.402232 1_555
Ni4 Ni9 2.521896 1_555
Ni4 Ni6 2.521896 1_555
Ni5 Si1 2.402232 1_556
Ni5 Si0 2.402232 1_555
Ni5 Ni6 2.521896 1_556
Ni6 Si2 2.402232 1_565
Ni6 Si1 2.402232 1_555
Ni7 Si2 2.402232 1_556
Ni7 Si0 2.402232 1_555
Ni8 Si2 2.402232 1_555
Ni8 Si3 2.402232 1_555
Ni8 Ni9 2.521896 1_555
Ni9 Si0 2.402232 1_665
Ni9 Si3 2.402232 1_555
Ni10 Si1 2.402232 1_656
Ni10 Si3 2.402232 1_555
Ni10 Ni3 2.521896 1_556
Ni10 Ni5 2.521896 1_655
Ni10 Ni8 2.521896 1_555
Ni11 Si2 2.402232 1_566
Ni11 Si3 2.402232 1_555
Ni11 Ni7 2.521896 1_565
Ni11 Ni6 2.521896 1_556
Ni11 Ni4 2.521896 1_555
