# generated using pymatgen
data_CsTlCl3
_symmetry_space_group_name_H-M   'P 1'
_cell_length_a   5.57995427
_cell_length_b   5.57995427
_cell_length_c   5.57995021
_cell_angle_alpha   89.98883282
_cell_angle_beta   89.98883282
_cell_angle_gamma   89.99737164
_symmetry_Int_Tables_number   1
_chemical_formula_structural   CsTlCl3
_chemical_formula_sum   'Cs1 Tl1 Cl3'
_cell_volume   173.73670712
_cell_formula_units_Z   1
loop_
 _symmetry_equiv_pos_site_id
 _symmetry_equiv_pos_as_xyz
  1  'x, y, z'
loop_
 _atom_site_type_symbol
 _atom_site_label
 _atom_site_symmetry_multiplicity
 _atom_site_fract_x
 _atom_site_fract_y
 _atom_site_fract_z
 _atom_site_occupancy
  Cs  Cs0  1  0.99811200  0.99811200  0.99450000  1
  Tl  Tl0  1  0.49797700  0.49797700  0.48666000  1
  Cl  Cl0  1  0.49450900  0.99912800  0.48493600  1
  Cl  Cl1  1  0.50252900  0.50252900  0.98638100  1
  Cl  Cl2  1  0.99912800  0.49450900  0.48493600  1
loop_
_geom_bond_atom_site_label_1
_geom_bond_atom_site_label_2
_geom_bond_distance
_geom_bond_site_symmetry_2
Cl0 Tl0 2.783641 1_565
Cl0 Tl0 2.796480 1_555
Cl0 Cs0 3.894126 1_454
Cl0 Cs0 3.922069 1_554
Cl0 Cs0 3.969099 1_455
Cl0 Cs0 3.998036 1_555
Cl1 Tl0 2.788660 1_555
Cl1 Tl0 2.791753 1_556
Cl1 Cs0 3.911132 1_555
Cl1 Cs0 3.945947 1_545
Cl1 Cs0 3.945947 1_455
Cl1 Cs0 3.980816 1_445
Cl2 Tl0 2.783641 1_655
Cl2 Tl0 2.796480 1_555
Cl2 Cs0 3.894126 1_544
Cl2 Cs0 3.922069 1_554
Cl2 Cs0 3.969099 1_545
Cl2 Cs0 3.998036 1_555
