# generated using pymatgen
data_KSiO3
_symmetry_space_group_name_H-M   'P 1'
_cell_length_a   11.00797200
_cell_length_b   7.83872000
_cell_length_c   10.36872265
_cell_angle_alpha   48.63116328
_cell_angle_beta   90.00000000
_cell_angle_gamma   90.00000000
_symmetry_Int_Tables_number   1
_chemical_formula_structural   KSiO3
_chemical_formula_sum   'K8 Si8 O24'
_cell_volume   671.44653407
_cell_formula_units_Z   8
loop_
 _symmetry_equiv_pos_site_id
 _symmetry_equiv_pos_as_xyz
  1  'x, y, z'
loop_
 _atom_site_type_symbol
 _atom_site_label
 _atom_site_symmetry_multiplicity
 _atom_site_fract_x
 _atom_site_fract_y
 _atom_site_fract_z
 _atom_site_occupancy
  K  K0  1  0.25113200  0.00174800  0.98522800  1
  K  K1  1  0.24886800  0.00174800  0.48522800  1
  K  K2  1  0.74886800  0.99825200  0.01477200  1
  K  K3  1  0.75113200  0.99825200  0.51477200  1
  K  K4  1  0.47622300  0.50099200  0.82092100  1
  K  K5  1  0.02377700  0.50099200  0.32092100  1
  K  K6  1  0.52377700  0.49900800  0.17907900  1
  K  K7  1  0.97622300  0.49900800  0.67907900  1
  Si  Si0  1  0.31332000  0.50122300  0.49184300  1
  Si  Si1  1  0.18668000  0.50122300  0.99184300  1
  Si  Si2  1  0.68668000  0.49877700  0.50815700  1
  Si  Si3  1  0.81332000  0.49877700  0.00815700  1
  Si  Si4  1  0.49986300  0.89365800  0.30364400  1
  Si  Si5  1  0.00013700  0.89365800  0.80364400  1
  Si  Si6  1  0.50013700  0.10634200  0.69635600  1
  Si  Si7  1  0.99986300  0.10634200  0.19635600  1
  O  O0  1  0.17381600  0.49430600  0.54409300  1
  O  O1  1  0.32618400  0.49430600  0.04409300  1
  O  O2  1  0.82618400  0.50569400  0.45590700  1
  O  O3  1  0.67381600  0.50569400  0.95590700  1
  O  O4  1  0.38635300  0.72741700  0.43489100  1
  O  O5  1  0.11364700  0.72741700  0.93489100  1
  O  O6  1  0.61364700  0.27258300  0.56510900  1
  O  O7  1  0.88635300  0.27258300  0.06510900  1
  O  O8  1  0.39092100  0.28134000  0.65832400  1
  O  O9  1  0.10907900  0.28134000  0.15832400  1
  O  O10  1  0.60907900  0.71866000  0.34167600  1
  O  O11  1  0.89092100  0.71866000  0.84167600  1
  O  O12  1  0.29137600  0.49876200  0.33852200  1
  O  O13  1  0.20862400  0.49876200  0.83852200  1
  O  O14  1  0.70862400  0.50123800  0.66147800  1
  O  O15  1  0.79137600  0.50123800  0.16147800  1
  O  O16  1  0.46363300  0.06227200  0.10253500  1
  O  O17  1  0.03636700  0.06227200  0.60253500  1
  O  O18  1  0.53636700  0.93772800  0.89746500  1
  O  O19  1  0.96363300  0.93772800  0.39746500  1
  O  O20  1  0.53881300  0.05972300  0.33768900  1
  O  O21  1  0.96118700  0.05972300  0.83768900  1
  O  O22  1  0.46118700  0.94027700  0.66231100  1
  O  O23  1  0.03881300  0.94027700  0.16231100  1
loop_
_geom_bond_atom_site_label_1
_geom_bond_atom_site_label_2
_geom_bond_distance
_geom_bond_site_symmetry_2
K0 O23 2.810087 1_546
K0 O16 2.817654 1_556
K0 O5 2.944600 1_545
K0 O8 2.973390 1_555
K0 O13 3.142902 1_555
K0 O12 3.173272 1_546
K1 O22 2.810087 1_545
K1 O17 2.817654 1_555
K1 O4 2.944600 1_545
K1 O9 2.973390 1_555
K1 O12 3.142902 1_555
K1 O13 3.173272 1_545
K2 O21 2.810087 1_564
K2 O18 2.817654 1_554
K2 O7 2.944600 1_565
K2 O10 2.973390 1_555
K2 O15 3.142902 1_555
K2 O14 3.173272 1_564
K3 O20 2.810087 1_565
K3 O19 2.817654 1_555
K3 O6 2.944600 1_565
K3 O11 2.973390 1_555
K3 O14 3.142902 1_555
K3 O15 3.173272 1_565
K4 O3 2.599917 1_555
K4 O16 2.664372 1_556
K4 O22 2.665307 1_555
K4 O1 2.815128 1_556
K4 O13 2.950708 1_555
K4 O14 3.045265 1_555
K4 O8 3.244314 1_555
K4 O4 3.280184 1_555
K5 O2 2.599917 1_455
K5 O17 2.664372 1_555
K5 O23 2.665307 1_555
K5 O0 2.815128 1_555
K5 O12 2.950708 1_555
K5 O15 3.045265 1_455
K5 O9 3.244314 1_555
K5 O5 3.280184 1_554
K6 O1 2.599917 1_555
K6 O18 2.664372 1_554
K6 O20 2.665307 1_555
K6 O3 2.815128 1_554
K6 O15 2.950708 1_555
K6 O12 3.045265 1_555
K6 O10 3.244314 1_555
K6 O6 3.280184 1_555
K7 O0 2.599917 1_655
K7 O19 2.664372 1_555
K7 O21 2.665307 1_555
K7 O2 2.815128 1_555
K7 O14 2.950708 1_555
K7 O13 3.045265 1_655
K7 O11 3.244314 1_555
K7 O7 3.280184 1_556
O0 Si0 1.617363 1_555
O1 Si1 1.617363 1_554
O2 Si2 1.617363 1_555
O3 Si3 1.617363 1_556
O4 Si0 1.659773 1_555
O4 Si4 1.663522 1_555
O5 Si1 1.659773 1_555
O5 Si5 1.663522 1_555
O6 Si2 1.659773 1_555
O6 Si6 1.663522 1_555
O7 Si3 1.659773 1_555
O7 Si7 1.663522 1_555
O8 Si0 1.657565 1_555
O8 Si6 1.663612 1_555
O9 Si1 1.657565 1_554
O9 Si7 1.663612 1_455
O10 Si2 1.657565 1_555
O10 Si4 1.663612 1_555
O11 Si3 1.657565 1_556
O11 Si5 1.663612 1_655
O12 Si0 1.620661 1_555
O13 Si1 1.620661 1_555
O14 Si2 1.620661 1_555
O15 Si3 1.620661 1_555
O16 Si4 1.615920 1_545
O17 Si5 1.615920 1_545
O18 Si6 1.615920 1_565
O19 Si7 1.615920 1_565
O20 Si4 1.615661 1_545
O21 Si5 1.615661 1_645
O22 Si6 1.615661 1_565
O23 Si7 1.615661 1_465
