# generated using pymatgen
data_Sr3Os3N5
_symmetry_space_group_name_H-M   'P 1'
_cell_length_a   5.93787433
_cell_length_b   7.19815964
_cell_length_c   9.53414098
_cell_angle_alpha   110.55589156
_cell_angle_beta   105.04899146
_cell_angle_gamma   92.33880046
_symmetry_Int_Tables_number   1
_chemical_formula_structural   Sr3Os3N5
_chemical_formula_sum   'Sr6 Os6 N10'
_cell_volume   364.52834117
_cell_formula_units_Z   2
loop_
 _symmetry_equiv_pos_site_id
 _symmetry_equiv_pos_as_xyz
  1  'x, y, z'
loop_
 _atom_site_type_symbol
 _atom_site_label
 _atom_site_symmetry_multiplicity
 _atom_site_fract_x
 _atom_site_fract_y
 _atom_site_fract_z
 _atom_site_occupancy
  Sr  Sr0  1  0.82275800  0.42203300  0.61633300  1
  Sr  Sr1  1  0.17724200  0.57796700  0.38366700  1
  Sr  Sr2  1  0.65988100  0.86506300  0.89318600  1
  Sr  Sr3  1  0.34011900  0.13493700  0.10681400  1
  Sr  Sr4  1  0.66116200  0.69287800  0.21245200  1
  Sr  Sr5  1  0.33883800  0.30712200  0.78754800  1
  Os  Os0  1  0.88308300  0.32471300  0.96950000  1
  Os  Os1  1  0.11691700  0.67528700  0.03050000  1
  Os  Os2  1  0.64603600  0.91512400  0.58866800  1
  Os  Os3  1  0.35396400  0.08487600  0.41133200  1
  Os  Os4  1  0.09298300  0.87255500  0.70864700  1
  Os  Os5  1  0.90701700  0.12744500  0.29135300  1
  N  N0  1  0.89770800  0.10463400  0.78302800  1
  N  N1  1  0.10229200  0.89536600  0.21697200  1
  N  N2  1  0.82148100  0.70380400  0.50015300  1
  N  N3  1  0.17851800  0.29619600  0.49984700  1
  N  N4  1  0.73196100  0.54179200  0.92779100  1
  N  N5  1  0.26803900  0.45820800  0.07220900  1
  N  N6  1  0.35957100  0.90267600  0.64471800  1
  N  N7  1  0.64042900  0.09732400  0.35528200  1
  N  N8  1  0.12817000  0.75698100  0.86474100  1
  N  N9  1  0.87183000  0.24301900  0.13525900  1
loop_
_geom_bond_atom_site_label_1
_geom_bond_atom_site_label_2
_geom_bond_distance
_geom_bond_site_symmetry_2
N0 Os0 1.947170 1_555
N0 Os2 2.036749 1_545
N0 Os4 2.095534 1_645
N0 Sr2 2.813257 1_545
N0 Sr5 2.927982 1_655
N0 Sr0 3.195196 1_555
N1 Os1 1.947170 1_555
N1 Os3 2.036749 1_565
N1 Os5 2.095534 1_465
N1 Sr3 2.813257 1_565
N1 Sr4 2.927982 1_455
N1 Sr1 3.195196 1_555
N2 Os2 1.948251 1_555
N2 Os4 2.122806 1_655
N2 Sr0 2.629696 1_555
N2 Sr4 2.631118 1_555
N2 Sr1 2.680378 1_655
N3 Os3 1.948255 1_555
N3 Os5 2.122803 1_455
N3 Sr1 2.629696 1_555
N3 Sr5 2.631119 1_555
N3 Sr0 2.680372 1_455
N4 Os0 1.941770 1_555
N4 Os1 2.259387 1_656
N4 Sr2 2.500771 1_555
N4 Sr5 2.561542 1_555
N4 Sr4 2.698581 1_556
N4 Sr0 2.987192 1_555
N5 Os1 1.941770 1_555
N5 Os0 2.259387 1_454
N5 Sr3 2.500771 1_555
N5 Sr4 2.561542 1_555
N5 Sr5 2.698581 1_554
N5 Sr1 2.987192 1_555
N6 Os4 1.868183 1_555
N6 Os2 1.918383 1_555
N6 Sr1 2.671847 1_555
N6 Sr2 2.676026 1_555
N6 Sr5 2.770800 1_565
N7 Os5 1.868183 1_555
N7 Os3 1.918383 1_555
N7 Sr0 2.671847 1_555
N7 Sr3 2.676026 1_555
N7 Sr4 2.770800 1_545
N8 Os1 1.884695 1_556
N8 Os4 1.916429 1_555
N8 Sr0 2.848464 1_455
N8 Sr3 2.848681 1_566
N8 Sr2 2.971663 1_455
N8 Sr2 3.139055 1_555
N9 Os0 1.884695 1_554
N9 Os5 1.916429 1_555
N9 Sr1 2.848464 1_655
N9 Sr2 2.848681 1_544
N9 Sr3 2.971663 1_655
N9 Sr3 3.139055 1_555
