# generated using pymatgen
data_TbNd3Fe34
_symmetry_space_group_name_H-M   'P 1'
_cell_length_a   6.46395376
_cell_length_b   6.46395376
_cell_length_c   12.91718415
_cell_angle_alpha   83.08014821
_cell_angle_beta   83.08014821
_cell_angle_gamma   83.08937671
_symmetry_Int_Tables_number   1
_chemical_formula_structural   TbNd3Fe34
_chemical_formula_sum   'Tb1 Nd3 Fe34'
_cell_volume   528.80613994
_cell_formula_units_Z   1
loop_
 _symmetry_equiv_pos_site_id
 _symmetry_equiv_pos_as_xyz
  1  'x, y, z'
loop_
 _atom_site_type_symbol
 _atom_site_label
 _atom_site_symmetry_multiplicity
 _atom_site_fract_x
 _atom_site_fract_y
 _atom_site_fract_z
 _atom_site_occupancy
  Tb  Tb0  1  0.34120400  0.34120400  0.67069400  1
  Nd  Nd0  1  0.34181800  0.34181800  0.17078700  1
  Nd  Nd1  1  0.65742800  0.65742800  0.82860900  1
  Nd  Nd2  1  0.65824600  0.65824600  0.32922200  1
  Fe  Fe0  1  0.15440100  0.65679400  0.82809200  1
  Fe  Fe1  1  0.15370300  0.65781300  0.32906000  1
  Fe  Fe2  1  0.65653100  0.65653100  0.57735100  1
  Fe  Fe3  1  0.65789900  0.65789900  0.07674600  1
  Fe  Fe4  1  0.65679400  0.15440100  0.82809200  1
  Fe  Fe5  1  0.65781300  0.15370300  0.32906000  1
  Fe  Fe6  1  0.84641200  0.34222800  0.67129500  1
  Fe  Fe7  1  0.84639300  0.34222100  0.17101600  1
  Fe  Fe8  1  0.34215600  0.34215600  0.92212800  1
  Fe  Fe9  1  0.34248300  0.34248300  0.42422100  1
  Fe  Fe10  1  0.34222800  0.84641200  0.67129500  1
  Fe  Fe11  1  0.34222100  0.84639300  0.17101600  1
  Fe  Fe12  1  0.00065800  0.00065800  0.74971600  1
  Fe  Fe13  1  0.00007700  0.00007700  0.25006000  1
  Fe  Fe14  1  0.00050800  0.49955100  0.50068300  1
  Fe  Fe15  1  0.00016200  0.50004100  0.99973700  1
  Fe  Fe16  1  0.50004100  0.00016200  0.99973700  1
  Fe  Fe17  1  0.49955100  0.00050800  0.50068300  1
  Fe  Fe18  1  0.09776000  0.09776000  0.54908100  1
  Fe  Fe19  1  0.09711800  0.09711800  0.04835100  1
  Fe  Fe20  1  0.90312800  0.90312800  0.95127500  1
  Fe  Fe21  1  0.90301900  0.90301900  0.45183700  1
  Fe  Fe22  1  0.71022300  0.28975300  0.99973700  1
  Fe  Fe23  1  0.70836700  0.29075600  0.50083700  1
  Fe  Fe24  1  0.29045600  0.00123100  0.85400000  1
  Fe  Fe25  1  0.28986300  0.99981200  0.35523200  1
  Fe  Fe26  1  0.00104000  0.70855700  0.64540200  1
  Fe  Fe27  1  0.00003300  0.71015800  0.14487100  1
  Fe  Fe28  1  0.70855700  0.00104000  0.64540200  1
  Fe  Fe29  1  0.71015800  0.00003300  0.14487100  1
  Fe  Fe30  1  0.00123100  0.29045600  0.85400000  1
  Fe  Fe31  1  0.99981200  0.28986300  0.35523200  1
  Fe  Fe32  1  0.28975300  0.71022300  0.99973700  1
  Fe  Fe33  1  0.29075600  0.70836700  0.50083700  1
loop_
_geom_bond_atom_site_label_1
_geom_bond_atom_site_label_2
_geom_bond_distance
_geom_bond_site_symmetry_2
Fe0 Fe15 2.470956 1_555
Fe0 Fe12 2.474206 1_565
Fe0 Fe10 2.499177 1_555
Fe0 Fe8 2.500140 1_555
Fe0 Fe32 2.554453 1_555
Fe0 Fe24 2.562039 1_565
Fe0 Fe26 2.637637 1_555
Fe0 Fe30 2.644436 1_555
Fe0 Fe20 2.659083 1_455
Fe0 Tb0 3.093249 1_555
Fe0 Nd1 3.211123 1_455
Fe0 Nd1 3.252851 1_555
Fe1 Fe13 2.468513 1_565
Fe1 Fe14 2.471847 1_555
Fe1 Fe11 2.509351 1_555
Fe1 Fe9 2.512721 1_555
Fe1 Fe25 2.548717 1_555
Fe1 Fe33 2.555985 1_555
Fe1 Fe21 2.649821 1_455
Fe1 Fe31 2.656163 1_455
Fe1 Fe27 2.656384 1_555
Fe1 Nd0 3.104830 1_555
Fe1 Nd2 3.202024 1_455
Fe1 Nd2 3.261934 1_555
Fe2 Fe6 2.504268 1_555
Fe2 Fe26 2.562801 1_655
Fe2 Fe28 2.562801 1_565
Fe2 Fe23 2.640436 1_555
Fe2 Fe33 2.640436 1_555
Fe2 Fe21 2.659265 1_555
Fe2 Tb0 3.094860 1_555
Fe2 Nd2 3.202499 1_555
Fe2 Nd1 3.246954 1_555
Fe3 Fe7 2.508303 1_555
Fe3 Fe32 2.657520 1_554
Fe3 Nd0 3.103682 1_555
Fe3 Nd1 3.205968 1_554
Fe3 Nd2 3.261821 1_555
Fe4 Fe6 2.499177 1_555
Fe4 Fe8 2.500140 1_555
Fe4 Tb0 3.093249 1_555
Fe4 Nd1 3.211123 1_545
Fe4 Nd1 3.252851 1_555
Fe5 Fe7 2.509351 1_555
Fe5 Fe9 2.512721 1_555
Fe5 Nd0 3.104830 1_555
Fe5 Nd2 3.202024 1_545
Fe5 Nd2 3.261934 1_555
Fe6 Nd1 3.094061 1_555
Fe6 Tb0 3.196599 1_655
Fe6 Tb0 3.267390 1_555
Fe7 Nd2 3.104414 1_555
Fe7 Nd0 3.201737 1_655
Fe7 Nd0 3.262222 1_555
Fe8 Nd1 3.094895 1_555
Fe8 Nd0 3.211449 1_556
Fe8 Tb0 3.249315 1_555
Fe9 Nd2 3.103753 1_555
Fe9 Tb0 3.181768 1_555
Fe9 Nd0 3.274696 1_555
Fe10 Fe17 2.461285 1_565
Fe10 Fe12 2.463678 1_565
Fe10 Fe2 2.504268 1_555
Fe10 Fe33 2.544878 1_555
Fe10 Fe26 2.547994 1_555
Fe10 Fe24 2.642241 1_565
Fe10 Fe18 2.644657 1_565
Fe10 Fe28 2.648801 1_565
Fe10 Nd1 3.094061 1_555
Fe10 Tb0 3.196599 1_565
Fe10 Tb0 3.267390 1_555
Fe11 Fe13 2.468225 1_565
Fe11 Fe16 2.468562 1_564
Fe11 Fe3 2.508303 1_555
Fe11 Fe27 2.549975 1_555
Fe11 Fe32 2.550795 1_554
Fe11 Fe19 2.648685 1_565
Fe11 Fe29 2.655337 1_565
Fe11 Fe25 2.655948 1_555
Fe11 Nd2 3.104414 1_555
Fe11 Nd0 3.201737 1_565
Fe11 Nd0 3.262222 1_555
Fe12 Fe30 2.436085 1_555
Fe12 Fe24 2.436085 1_555
Fe12 Fe28 2.447805 1_455
Fe12 Fe26 2.447805 1_545
Fe12 Fe6 2.463678 1_455
Fe12 Fe4 2.474206 1_455
Fe12 Fe18 2.610629 1_555
Fe12 Fe20 2.622615 1_445
Fe12 Tb0 3.288819 1_555
Fe12 Nd1 3.313306 1_445
Fe13 Fe25 2.442578 1_545
Fe13 Fe31 2.442578 1_455
Fe13 Fe29 2.443755 1_455
Fe13 Fe27 2.443755 1_545
Fe13 Fe7 2.468225 1_455
Fe13 Fe5 2.468513 1_455
Fe13 Fe19 2.623486 1_555
Fe13 Fe21 2.624340 1_445
Fe13 Nd0 3.300309 1_555
Fe13 Nd2 3.300925 1_445
Fe14 Fe26 2.435356 1_555
Fe14 Fe33 2.439833 1_555
Fe14 Fe31 2.446273 1_455
Fe14 Fe23 2.449346 1_455
Fe14 Fe6 2.461285 1_455
Fe14 Fe9 2.463357 1_555
Fe14 Fe2 2.474423 1_455
Fe14 Fe18 2.615687 1_555
Fe14 Fe21 2.626914 1_455
Fe14 Tb0 3.286566 1_555
Fe14 Nd2 3.307455 1_455
Fe15 Fe32 2.441685 1_555
Fe15 Fe27 2.443798 1_556
Fe15 Fe22 2.444005 1_455
Fe15 Fe30 2.447117 1_555
Fe15 Fe7 2.468562 1_456
Fe15 Fe3 2.469075 1_456
Fe15 Fe8 2.470435 1_555
Fe15 Fe19 2.622660 1_556
Fe15 Fe20 2.623435 1_455
Fe15 Nd0 3.300426 1_556
Fe15 Nd1 3.305315 1_455
Fe16 Fe22 2.441685 1_555
Fe16 Fe29 2.443798 1_556
Fe16 Fe32 2.444005 1_545
Fe16 Fe24 2.447117 1_555
Fe16 Fe3 2.469075 1_546
Fe16 Fe8 2.470435 1_555
Fe16 Fe4 2.470956 1_555
Fe16 Fe19 2.622660 1_556
Fe16 Fe20 2.623435 1_545
Fe16 Nd0 3.300426 1_556
Fe16 Nd1 3.305315 1_545
Fe17 Fe28 2.435356 1_555
Fe17 Fe23 2.439833 1_555
Fe17 Fe25 2.446273 1_545
Fe17 Fe33 2.449346 1_545
Fe17 Fe9 2.463357 1_555
Fe17 Fe5 2.471847 1_555
Fe17 Fe2 2.474423 1_545
Fe17 Fe18 2.615687 1_555
Fe17 Fe21 2.626914 1_545
Fe17 Tb0 3.286566 1_555
Fe17 Nd2 3.307455 1_545
Fe18 Fe21 2.426995 1_445
Fe18 Fe9 2.641696 1_555
Fe18 Fe6 2.644657 1_455
Fe18 Fe25 2.767004 1_545
Fe18 Fe31 2.767004 1_455
Fe18 Fe28 2.775772 1_455
Fe18 Fe26 2.775772 1_545
Fe18 Fe33 2.777596 1_545
Fe18 Fe23 2.777596 1_455
Fe18 Tb0 3.034372 1_555
Fe19 Fe20 2.419354 1_444
Fe19 Fe7 2.648685 1_455
Fe19 Fe8 2.652373 1_554
Fe19 Fe22 2.764019 1_454
Fe19 Fe32 2.764019 1_544
Fe19 Fe27 2.764501 1_545
Fe19 Fe29 2.764501 1_455
Fe19 Fe30 2.771458 1_554
Fe19 Fe24 2.771458 1_554
Fe19 Nd0 3.051652 1_555
Fe20 Fe3 2.649286 1_556
Fe20 Fe4 2.659083 1_565
Fe20 Fe32 2.762484 1_655
Fe20 Fe22 2.762484 1_565
Fe20 Fe29 2.763987 1_566
Fe20 Fe27 2.763987 1_656
Fe20 Fe30 2.771524 1_665
Fe20 Fe24 2.771524 1_665
Fe20 Nd1 3.061878 1_555
Fe21 Fe5 2.649821 1_565
Fe21 Fe31 2.763658 1_565
Fe21 Fe25 2.763658 1_655
Fe21 Fe26 2.768722 1_655
Fe21 Fe28 2.768722 1_565
Fe21 Fe23 2.774317 1_565
Fe21 Fe33 2.774317 1_655
Fe21 Nd2 3.053746 1_555
Fe22 Fe29 2.485104 1_556
Fe22 Fe30 2.495794 1_655
Fe22 Fe7 2.550795 1_556
Fe22 Fe4 2.554453 1_555
Fe22 Fe3 2.657520 1_556
Fe22 Fe8 2.660662 1_555
Fe22 Nd1 3.061343 1_555
Fe22 Nd0 3.063398 1_556
Fe23 Fe28 2.480216 1_555
Fe23 Fe31 2.496541 1_555
Fe23 Fe6 2.544878 1_555
Fe23 Fe5 2.555985 1_555
Fe23 Fe9 2.641721 1_555
Fe23 Tb0 3.047029 1_555
Fe23 Nd2 3.062808 1_555
Fe24 Fe30 2.479769 1_555
Fe24 Fe32 2.495794 1_545
Fe24 Fe8 2.541241 1_555
Fe24 Fe4 2.644436 1_555
Fe24 Tb0 3.045632 1_555
Fe24 Nd1 3.064755 1_545
Fe25 Fe31 2.486851 1_465
Fe25 Fe33 2.496541 1_555
Fe25 Fe9 2.558528 1_565
Fe25 Fe5 2.656163 1_565
Fe25 Nd2 3.062440 1_555
Fe25 Nd0 3.064814 1_565
Fe26 Fe33 2.480216 1_555
Fe26 Fe28 2.507702 1_465
Fe26 Fe6 2.648801 1_455
Fe26 Tb0 3.051181 1_555
Fe26 Nd1 3.060150 1_455
Fe27 Fe32 2.485104 1_554
Fe27 Fe29 2.485342 1_465
Fe27 Fe3 2.549455 1_455
Fe27 Fe7 2.655337 1_455
Fe27 Nd0 3.063034 1_555
Fe27 Nd2 3.063056 1_455
Fe28 Fe6 2.547994 1_555
Fe28 Fe4 2.637637 1_555
Fe28 Tb0 3.051181 1_555
Fe28 Nd1 3.060150 1_545
Fe29 Fe3 2.549455 1_545
Fe29 Fe7 2.549975 1_555
Fe29 Fe5 2.656384 1_555
Fe29 Nd0 3.063034 1_555
Fe29 Nd2 3.063056 1_545
Fe30 Fe8 2.541241 1_555
Fe30 Fe4 2.562039 1_455
Fe30 Fe6 2.642241 1_455
Fe30 Tb0 3.045632 1_555
Fe30 Nd1 3.064755 1_455
Fe31 Fe5 2.548717 1_555
Fe31 Fe9 2.558528 1_655
Fe31 Fe7 2.655948 1_555
Fe31 Nd2 3.062440 1_555
Fe31 Nd0 3.064814 1_655
Fe32 Fe8 2.660662 1_555
Fe32 Nd1 3.061343 1_555
Fe32 Nd0 3.063398 1_556
Fe33 Fe9 2.641721 1_555
Fe33 Tb0 3.047029 1_555
Fe33 Nd2 3.062808 1_555
