# generated using pymatgen
data_Ba2Mg(BO2)6
_symmetry_space_group_name_H-M   'P 1'
_cell_length_a   7.02751782
_cell_length_b   7.02751782
_cell_length_c   7.02751726
_cell_angle_alpha   61.15119468
_cell_angle_beta   61.15119468
_cell_angle_gamma   61.15119399
_symmetry_Int_Tables_number   1
_chemical_formula_structural   Ba2Mg(BO2)6
_chemical_formula_sum   'Ba2 Mg1 B6 O12'
_cell_volume   251.76623919
_cell_formula_units_Z   1
loop_
 _symmetry_equiv_pos_site_id
 _symmetry_equiv_pos_as_xyz
  1  'x, y, z'
loop_
 _atom_site_type_symbol
 _atom_site_label
 _atom_site_symmetry_multiplicity
 _atom_site_fract_x
 _atom_site_fract_y
 _atom_site_fract_z
 _atom_site_occupancy
  Ba  Ba0  1  0.79095700  0.79095700  0.79095700  1
  Ba  Ba1  1  0.20904300  0.20904300  0.20904300  1
  Mg  Mg0  1  0.00000000  0.00000000  0.00000000  1
  B  B0  1  0.63542400  0.35499100  0.24419800  1
  B  B1  1  0.35499100  0.24419800  0.63542400  1
  B  B2  1  0.24419800  0.63542400  0.35499100  1
  B  B3  1  0.36457600  0.64500900  0.75580200  1
  B  B4  1  0.64500900  0.75580200  0.36457600  1
  B  B5  1  0.75580200  0.36457600  0.64500900  1
  O  O0  1  0.08615900  0.84081800  0.31043600  1
  O  O1  1  0.84081800  0.31043600  0.08615900  1
  O  O2  1  0.31043600  0.08615900  0.84081800  1
  O  O3  1  0.91384100  0.15918200  0.68956400  1
  O  O4  1  0.15918200  0.68956400  0.91384100  1
  O  O5  1  0.68956400  0.91384100  0.15918200  1
  O  O6  1  0.46552300  0.57286400  0.19650000  1
  O  O7  1  0.57286400  0.19650000  0.46552300  1
  O  O8  1  0.19650000  0.46552300  0.57286400  1
  O  O9  1  0.53447700  0.42713600  0.80350000  1
  O  O10  1  0.42713600  0.80350000  0.53447700  1
  O  O11  1  0.80350000  0.53447700  0.42713600  1
loop_
_geom_bond_atom_site_label_1
_geom_bond_atom_site_label_2
_geom_bond_distance
_geom_bond_site_symmetry_2
Ba0 O5 2.780835 1_556
Ba0 O4 2.780835 1_655
Ba0 O3 2.780835 1_565
Ba0 O7 2.929042 1_565
Ba0 O8 2.929042 1_655
Ba0 O6 2.929042 1_556
Ba0 O0 2.937536 1_655
Ba0 O1 2.937536 1_556
Ba0 O2 2.937536 1_565
Ba1 O2 2.780835 1_554
Ba1 O1 2.780835 1_455
Ba1 O0 2.780835 1_545
Ba1 O10 2.929042 1_545
Ba1 O11 2.929042 1_455
Ba1 O9 2.929042 1_554
Ba1 O3 2.937536 1_455
Ba1 O4 2.937536 1_554
Ba1 O5 2.937536 1_545
Mg0 O3 2.154852 1_454
Mg0 O0 2.154852 1_545
Mg0 O1 2.154852 1_455
Mg0 O4 2.154852 1_544
Mg0 O2 2.154852 1_554
Mg0 O5 2.154852 1_445
B0 O1 1.329445 1_555
B0 O7 1.412064 1_555
B0 O6 1.417413 1_555
B1 O2 1.329445 1_555
B1 O8 1.412064 1_555
B1 O7 1.417413 1_555
B2 O0 1.329445 1_555
B2 O6 1.412064 1_555
B2 O8 1.417413 1_555
B3 O4 1.329445 1_555
B3 O10 1.412064 1_555
B3 O9 1.417413 1_555
B4 O5 1.329445 1_555
B4 O11 1.412064 1_555
B4 O10 1.417413 1_555
B5 O3 1.329445 1_555
B5 O9 1.412064 1_555
B5 O11 1.417413 1_555
