# generated using pymatgen
data_KMn2O4
_symmetry_space_group_name_H-M   'P 1'
_cell_length_a   2.95187153
_cell_length_b   6.58822744
_cell_length_c   10.64178251
_cell_angle_alpha   92.68015074
_cell_angle_beta   89.98159175
_cell_angle_gamma   76.73796513
_symmetry_Int_Tables_number   1
_chemical_formula_structural   KMn2O4
_chemical_formula_sum   'K2 Mn4 O8'
_cell_volume   201.20448219
_cell_formula_units_Z   2
loop_
 _symmetry_equiv_pos_site_id
 _symmetry_equiv_pos_as_xyz
  1  'x, y, z'
loop_
 _atom_site_type_symbol
 _atom_site_label
 _atom_site_symmetry_multiplicity
 _atom_site_fract_x
 _atom_site_fract_y
 _atom_site_fract_z
 _atom_site_occupancy
  K  K0  1  0.99269600  0.99251700  0.47650300  1
  K  K1  1  0.98072900  0.03128100  0.92046000  1
  Mn  Mn0  1  0.72525900  0.52572800  0.61976500  1
  Mn  Mn1  1  0.25463800  0.46916500  0.37577500  1
  Mn  Mn2  1  0.22293400  0.53502000  0.87166300  1
  Mn  Mn3  1  0.75405200  0.47299600  0.12322600  1
  O  O0  1  0.79651200  0.38973000  0.77647300  1
  O  O1  1  0.18488400  0.60671100  0.22189300  1
  O  O2  1  0.66528500  0.64280500  0.45163400  1
  O  O3  1  0.31450300  0.35078100  0.54598300  1
  O  O4  1  0.64675900  0.68594200  0.95470100  1
  O  O5  1  0.32787000  0.33000000  0.03327400  1
  O  O6  1  0.13618500  0.69906600  0.67784900  1
  O  O7  1  0.84134300  0.30116000  0.31730100  1
loop_
_geom_bond_atom_site_label_1
_geom_bond_atom_site_label_2
_geom_bond_distance
_geom_bond_site_symmetry_2
K0 O7 2.666552 1_565
K0 O2 2.676578 1_655
K0 O2 2.697636 1_555
K0 O3 2.791675 1_565
K0 O3 2.808231 1_665
K0 O6 2.918989 1_655
K1 O5 2.658156 1_556
K1 O5 2.658868 1_656
K1 O4 2.683316 1_645
K1 O4 2.717985 1_545
K1 O0 2.823158 1_555
K1 O6 3.267527 1_645
Mn0 O0 1.918748 1_555
Mn0 O6 1.930701 1_655
Mn0 O6 1.931860 1_555
Mn0 O2 1.973371 1_555
Mn0 O3 1.991243 1_655
Mn0 O3 1.993059 1_555
Mn1 O1 1.897003 1_555
Mn1 O7 1.912161 1_455
Mn1 O7 1.914975 1_555
Mn1 O2 1.995057 1_555
Mn1 O2 1.996632 1_455
Mn1 O3 1.997371 1_555
Mn2 O4 1.950177 1_455
Mn2 O4 1.955505 1_555
Mn2 O0 1.993417 1_555
Mn2 O0 1.997441 1_455
Mn2 O5 2.214459 1_556
Mn2 O6 2.359976 1_555
Mn3 O5 1.961306 1_555
Mn3 O5 1.963522 1_655
Mn3 O1 1.980986 1_655
Mn3 O1 1.983584 1_555
Mn3 O4 2.305786 1_554
Mn3 O7 2.387191 1_555
