# generated using pymatgen
data_LiFe6Ge5
_symmetry_space_group_name_H-M   'P 1'
_cell_length_a   4.99832563
_cell_length_b   4.99832563
_cell_length_c   14.72490993
_cell_angle_alpha   80.23517383
_cell_angle_beta   80.23517383
_cell_angle_gamma   60.11063856
_symmetry_Int_Tables_number   1
_chemical_formula_structural   LiFe6Ge5
_chemical_formula_sum   'Li2 Fe12 Ge10'
_cell_volume   312.76154935
_cell_formula_units_Z   2
loop_
 _symmetry_equiv_pos_site_id
 _symmetry_equiv_pos_as_xyz
  1  'x, y, z'
loop_
 _atom_site_type_symbol
 _atom_site_label
 _atom_site_symmetry_multiplicity
 _atom_site_fract_x
 _atom_site_fract_y
 _atom_site_fract_z
 _atom_site_occupancy
  Li  Li0  1  0.09129100  0.09129100  0.73701200  1
  Li  Li1  1  0.90870900  0.90870900  0.26298800  1
  Fe  Fe0  1  0.04619700  0.54648600  0.86185000  1
  Fe  Fe1  1  0.54648600  0.04619700  0.86185000  1
  Fe  Fe2  1  0.95380300  0.45351400  0.13815000  1
  Fe  Fe3  1  0.45351400  0.95380300  0.13815000  1
  Fe  Fe4  1  0.14405700  0.63442400  0.58292100  1
  Fe  Fe5  1  0.63442400  0.14405700  0.58292100  1
  Fe  Fe6  1  0.85594300  0.36557600  0.41707900  1
  Fe  Fe7  1  0.36557600  0.85594300  0.41707900  1
  Fe  Fe8  1  0.36531000  0.36531000  0.41798900  1
  Fe  Fe9  1  0.63469000  0.63469000  0.58201100  1
  Fe  Fe10  1  0.45317600  0.45317600  0.13834400  1
  Fe  Fe11  1  0.54682400  0.54682400  0.86165600  1
  Ge  Ge0  1  0.33354900  0.33354900  0.99986700  1
  Ge  Ge1  1  0.66645100  0.66645100  0.00013300  1
  Ge  Ge2  1  0.02884600  0.02884600  0.91189900  1
  Ge  Ge3  1  0.97115400  0.97115400  0.08810100  1
  Ge  Ge4  1  0.42552300  0.42552300  0.72401300  1
  Ge  Ge5  1  0.57447700  0.57447700  0.27598700  1
  Ge  Ge6  1  0.14638300  0.14638300  0.55741100  1
  Ge  Ge7  1  0.85361700  0.85361700  0.44258900  1
  Ge  Ge8  1  0.24103000  0.24103000  0.27716000  1
  Ge  Ge9  1  0.75897000  0.75897000  0.72284000  1
loop_
_geom_bond_atom_site_label_1
_geom_bond_atom_site_label_2
_geom_bond_distance
_geom_bond_site_symmetry_2
Fe0 Ge4 2.459308 1_555
Fe0 Ge0 2.461451 1_555
Fe0 Ge1 2.465209 1_456
Fe0 Ge9 2.473593 1_455
Fe0 Fe11 2.495673 1_455
Fe0 Fe1 2.501894 1_465
Fe0 Fe11 2.502656 1_555
Fe0 Fe1 2.504788 1_555
Fe0 Ge2 2.595412 1_565
Fe0 Ge2 2.607699 1_555
Fe0 Li0 3.061622 1_555
Fe0 Li0 3.101359 1_565
Fe1 Ge4 2.459308 1_555
Fe1 Ge0 2.461451 1_555
Fe1 Ge1 2.465209 1_546
Fe1 Ge9 2.473593 1_545
Fe1 Fe11 2.495673 1_545
Fe1 Fe11 2.502656 1_555
Fe1 Ge2 2.595412 1_655
Fe1 Ge2 2.607699 1_555
Fe1 Li0 3.061622 1_555
Fe1 Li0 3.101359 1_655
Fe2 Ge5 2.459308 1_555
Fe2 Ge1 2.461451 1_555
Fe2 Ge0 2.465209 1_654
Fe2 Ge8 2.473593 1_655
Fe2 Fe3 2.501894 1_645
Fe2 Fe3 2.504788 1_555
Fe2 Ge3 2.595412 1_545
Fe2 Ge3 2.607699 1_555
Fe2 Li1 3.061622 1_555
Fe2 Li1 3.101359 1_545
Fe3 Ge5 2.459308 1_555
Fe3 Ge1 2.461451 1_555
Fe3 Ge0 2.465209 1_564
Fe3 Ge8 2.473593 1_565
Fe3 Ge3 2.595412 1_455
Fe3 Ge3 2.607699 1_555
Fe3 Li1 3.061622 1_555
Fe3 Li1 3.101359 1_455
Fe4 Ge4 2.485426 1_555
Fe4 Ge9 2.496564 1_455
Fe4 Ge7 2.498431 1_455
Fe4 Ge6 2.524465 1_555
Fe4 Ge6 2.528144 1_565
Fe5 Ge4 2.485426 1_555
Fe5 Ge9 2.496564 1_545
Fe5 Ge7 2.498431 1_545
Fe5 Ge6 2.524465 1_555
Fe5 Ge6 2.528144 1_655
Fe6 Ge5 2.485426 1_555
Fe6 Ge8 2.496564 1_655
Fe6 Ge6 2.498431 1_655
Fe6 Ge7 2.524465 1_555
Fe6 Ge7 2.528144 1_545
Fe7 Ge5 2.485426 1_555
Fe7 Ge8 2.496564 1_565
Fe7 Ge6 2.498431 1_565
Fe7 Ge7 2.524465 1_555
Fe7 Ge7 2.528144 1_455
Fe8 Ge5 2.482847 1_555
Fe8 Ge6 2.505774 1_555
Fe8 Ge8 2.516042 1_555
Fe8 Ge7 2.528597 1_455
Fe8 Ge7 2.528597 1_545
Fe9 Ge4 2.482847 1_555
Fe9 Ge7 2.505774 1_555
Fe9 Ge9 2.516042 1_555
Fe9 Ge6 2.528597 1_655
Fe9 Ge6 2.528597 1_565
Fe10 Ge5 2.458269 1_555
Fe10 Ge0 2.460955 1_554
Fe10 Ge1 2.464825 1_555
Fe10 Ge8 2.465183 1_555
Fe10 Fe3 2.495673 1_545
Fe10 Fe2 2.495673 1_455
Fe10 Fe2 2.502656 1_555
Fe10 Fe3 2.502656 1_555
Fe10 Ge3 2.606367 1_545
Fe10 Ge3 2.606367 1_455
Fe10 Li1 3.083276 1_455
Fe10 Li1 3.083276 1_545
Fe11 Ge4 2.458269 1_555
Fe11 Ge1 2.460955 1_556
Fe11 Ge0 2.464825 1_555
Fe11 Ge9 2.465183 1_555
Fe11 Ge2 2.606367 1_565
Fe11 Ge2 2.606367 1_655
Fe11 Li0 3.083276 1_565
Fe11 Li0 3.083276 1_655
Ge2 Li0 2.525524 1_555
Ge2 Ge3 2.544276 1_446
Ge3 Li1 2.525524 1_555
Ge4 Li0 2.860608 1_555
Ge4 Li0 2.910017 1_655
Ge4 Li0 2.910017 1_565
Ge5 Li1 2.860608 1_555
Ge5 Li1 2.910017 1_455
Ge5 Li1 2.910017 1_545
Ge6 Li0 2.593671 1_555
Ge7 Li1 2.593671 1_555
Ge8 Li1 2.880376 1_455
Ge8 Li1 2.880376 1_545
Ge8 Li1 2.923478 1_445
Ge9 Li0 2.880376 1_565
Ge9 Li0 2.880376 1_655
Ge9 Li0 2.923478 1_665
