# generated using pymatgen
data_MgMn6(OF2)4
_symmetry_space_group_name_H-M   'P 1'
_cell_length_a   5.18677942
_cell_length_b   8.10349065
_cell_length_c   5.85316611
_cell_angle_alpha   93.97515322
_cell_angle_beta   92.83037695
_cell_angle_gamma   89.53051021
_symmetry_Int_Tables_number   1
_chemical_formula_structural   MgMn6(OF2)4
_chemical_formula_sum   'Mg1 Mn6 O4 F8'
_cell_volume   245.12047139
_cell_formula_units_Z   1
loop_
 _symmetry_equiv_pos_site_id
 _symmetry_equiv_pos_as_xyz
  1  'x, y, z'
loop_
 _atom_site_type_symbol
 _atom_site_label
 _atom_site_symmetry_multiplicity
 _atom_site_fract_x
 _atom_site_fract_y
 _atom_site_fract_z
 _atom_site_occupancy
  Mg  Mg0  1  0.48795200  0.82808100  0.83064300  1
  Mn  Mn0  1  0.48955600  0.03977000  0.45169700  1
  Mn  Mn1  1  0.66889600  0.64101900  0.22952700  1
  Mn  Mn2  1  0.49130100  0.33864900  0.83843700  1
  Mn  Mn3  1  0.95336300  0.67720800  0.68768100  1
  Mn  Mn4  1  0.00960300  0.33530600  0.34564200  1
  Mn  Mn5  1  0.99350900  0.01067200  0.99889400  1
  O  O0  1  0.82545500  0.76768800  0.97255000  1
  O  O1  1  0.65920400  0.78127200  0.52853800  1
  O  O2  1  0.68363300  0.40546700  0.12128700  1
  O  O3  1  0.32046100  0.26022300  0.55034000  1
  F  F0  1  0.78761100  0.42879000  0.65780500  1
  F  F1  1  0.85131600  0.09054500  0.31770000  1
  F  F2  1  0.64160400  0.07548400  0.82058300  1
  F  F3  1  0.30328900  0.60742800  0.84011300  1
  F  F4  1  0.35500900  0.90716200  0.13990300  1
  F  F5  1  0.08645900  0.59659300  0.38584400  1
  F  F6  1  0.19912400  0.24114900  0.02556300  1
  F  F7  1  0.17876100  0.91749100  0.68433600  1
loop_
_geom_bond_atom_site_label_1
_geom_bond_atom_site_label_2
_geom_bond_distance
_geom_bond_site_symmetry_2
Mg0 O0 1.972960 1_555
Mg0 O1 2.028853 1_555
Mn0 O3 2.043351 1_555
Mn0 O1 2.329337 1_545
Mn1 O2 1.971152 1_555
Mn1 O1 2.022196 1_555
Mn1 O0 2.079369 1_554
Mn2 O3 1.935380 1_555
Mn2 O2 1.936676 1_556
Mn3 O0 1.920853 1_555
Mn3 O1 1.963197 1_555
Mn4 O3 2.073548 1_555
Mn4 O2 2.185128 1_455
Mn5 O0 2.152524 1_545
F0 Mn2 2.073494 1_555
F0 Mn3 2.187873 1_555
F0 Mn4 2.289032 1_655
F1 Mn5 2.098942 1_554
F1 Mn0 2.123188 1_555
F1 Mn4 2.145504 1_655
F2 Mn5 2.137480 1_555
F2 Mg0 2.169132 1_545
F2 Mn2 2.261940 1_555
F2 Mn0 2.261986 1_555
F3 Mg0 2.040753 1_555
F3 Mn3 2.074410 1_455
F3 Mn2 2.378683 1_555
F4 Mg0 2.029280 1_554
F4 Mn0 2.141710 1_565
F4 Mn5 2.194961 1_464
F5 Mn3 1.994392 1_455
F5 Mn4 2.152414 1_555
F5 Mn1 2.344066 1_455
F6 Mn2 2.103336 1_554
F6 Mn5 2.150746 1_454
F6 Mn4 2.242715 1_555
F7 Mg0 1.939465 1_555
F7 Mn5 2.203034 1_465
F7 Mn3 2.281080 1_455
F7 Mn0 2.421708 1_565
