# generated using pymatgen
data_KMg(PO3)3
_symmetry_space_group_name_H-M   'P 1'
_cell_length_a   6.71764456
_cell_length_b   6.71764456
_cell_length_c   9.93288200
_cell_angle_alpha   90.00000000
_cell_angle_beta   90.00000000
_cell_angle_gamma   120.00000548
_symmetry_Int_Tables_number   1
_chemical_formula_structural   KMg(PO3)3
_chemical_formula_sum   'K2 Mg2 P6 O18'
_cell_volume   388.18605094
_cell_formula_units_Z   2
loop_
 _symmetry_equiv_pos_site_id
 _symmetry_equiv_pos_as_xyz
  1  'x, y, z'
loop_
 _atom_site_type_symbol
 _atom_site_label
 _atom_site_symmetry_multiplicity
 _atom_site_fract_x
 _atom_site_fract_y
 _atom_site_fract_z
 _atom_site_occupancy
  K  K0  1  0.33333300  0.66666700  0.50000000  1
  K  K1  1  0.33333300  0.66666700  0.00000000  1
  Mg  Mg0  1  0.00000000  0.00000000  0.50000000  1
  Mg  Mg1  1  0.00000000  0.00000000  0.00000000  1
  P  P0  1  0.72691800  0.11039000  0.75000000  1
  P  P1  1  0.72691800  0.61652800  0.25000000  1
  P  P2  1  0.38347200  0.11039000  0.25000000  1
  P  P3  1  0.88961000  0.27308200  0.25000000  1
  P  P4  1  0.88961000  0.61652800  0.75000000  1
  P  P5  1  0.38347200  0.27308200  0.75000000  1
  O  O0  1  0.74628600  0.00737100  0.62032700  1
  O  O1  1  0.99262900  0.25371400  0.37967300  1
  O  O2  1  0.99262900  0.73891500  0.62032700  1
  O  O3  1  0.26108500  0.25371400  0.62032700  1
  O  O4  1  0.99262900  0.73891500  0.87967300  1
  O  O5  1  0.26108500  0.25371400  0.87967300  1
  O  O6  1  0.74628600  0.00737100  0.87967300  1
  O  O7  1  0.26108500  0.00737100  0.12032700  1
  O  O8  1  0.74628600  0.73891500  0.12032700  1
  O  O9  1  0.74628600  0.73891500  0.37967300  1
  O  O10  1  0.90524600  0.52145400  0.25000000  1
  O  O11  1  0.61620900  0.09475400  0.25000000  1
  O  O12  1  0.47854600  0.38379100  0.25000000  1
  O  O13  1  0.47854600  0.09475400  0.75000000  1
  O  O14  1  0.61620900  0.52145400  0.75000000  1
  O  O15  1  0.90524600  0.38379100  0.75000000  1
  O  O16  1  0.99262900  0.25371400  0.12032700  1
  O  O17  1  0.26108500  0.00737100  0.37967300  1
loop_
_geom_bond_atom_site_label_1
_geom_bond_atom_site_label_2
_geom_bond_distance
_geom_bond_site_symmetry_2
K0 O17 2.830746 1_565
K0 O2 2.830746 1_455
K0 O1 2.830749 1_455
K0 O0 2.830749 1_565
K0 O9 2.830752 1_555
K0 O3 2.830752 1_555
K1 O4 2.830746 1_454
K1 O7 2.830746 1_565
K1 O16 2.830749 1_455
K1 O6 2.830749 1_564
K1 O5 2.830752 1_554
K1 O8 2.830752 1_555
Mg0 O3 2.102422 1_555
Mg0 O9 2.102422 1_445
Mg0 O17 2.102422 1_555
Mg0 O2 2.102422 1_445
Mg0 O0 2.102422 1_455
Mg0 O1 2.102422 1_455
Mg1 O5 2.102422 1_554
Mg1 O8 2.102422 1_445
Mg1 O4 2.102422 1_444
Mg1 O7 2.102422 1_555
Mg1 O6 2.102422 1_454
Mg1 O16 2.102422 1_455
O0 P0 1.498301 1_555
O1 P3 1.498301 1_555
O2 P4 1.498301 1_555
O3 P5 1.498301 1_555
O4 P4 1.498301 1_555
O5 P5 1.498301 1_555
O6 P0 1.498301 1_555
O7 P2 1.498301 1_555
O8 P1 1.498301 1_555
O9 P1 1.498301 1_555
O10 P1 1.614952 1_555
O10 P3 1.618515 1_555
O11 P3 1.614946 1_555
O11 P2 1.618521 1_555
O12 P2 1.614945 1_555
O12 P1 1.618517 1_555
O13 P5 1.614952 1_555
O13 P0 1.618515 1_555
O14 P4 1.614945 1_555
O14 P5 1.618517 1_555
O15 P0 1.614946 1_555
O15 P4 1.618521 1_555
O16 P3 1.498301 1_555
O17 P2 1.498301 1_555
