# generated using pymatgen
data_Na2V2O5
_symmetry_space_group_name_H-M   'P 1'
_cell_length_a   5.41109044
_cell_length_b   5.57535914
_cell_length_c   8.24430905
_cell_angle_alpha   109.76963531
_cell_angle_beta   109.07375496
_cell_angle_gamma   90.02141942
_symmetry_Int_Tables_number   1
_chemical_formula_structural   Na2V2O5
_chemical_formula_sum   'Na4 V4 O10'
_cell_volume   219.48427032
_cell_formula_units_Z   2
loop_
 _symmetry_equiv_pos_site_id
 _symmetry_equiv_pos_as_xyz
  1  'x, y, z'
loop_
 _atom_site_type_symbol
 _atom_site_label
 _atom_site_symmetry_multiplicity
 _atom_site_fract_x
 _atom_site_fract_y
 _atom_site_fract_z
 _atom_site_occupancy
  Na  Na0  1  0.60713700  0.13555100  0.21514500  1
  Na  Na1  1  0.39267000  0.86300900  0.78462900  1
  Na  Na2  1  0.10710600  0.57984000  0.21512800  1
  Na  Na3  1  0.89278700  0.42154700  0.78466900  1
  V  V0  1  0.01153900  0.00148900  0.00025000  1
  V  V1  1  0.51134200  0.49877200  0.00028000  1
  V  V2  1  0.20817100  0.18040900  0.50001200  1
  V  V3  1  0.70845900  0.81950300  0.50027400  1
  O  O0  1  0.24021600  0.22398400  0.97712400  1
  O  O1  1  0.28743400  0.74413700  0.02270700  1
  O  O2  1  0.73952800  0.25271100  0.97675800  1
  O  O3  1  0.78793100  0.77840500  0.02217100  1
  O  O4  1  0.16746900  0.20318000  0.28352700  1
  O  O5  1  0.88489800  0.79826300  0.71710100  1
  O  O6  1  0.66824900  0.58247000  0.28311100  1
  O  O7  1  0.38445200  0.41699500  0.71744900  1
  O  O8  1  0.86398100  0.12010900  0.49941500  1
  O  O9  1  0.36463400  0.87962700  0.50025100  1
loop_
_geom_bond_atom_site_label_1
_geom_bond_atom_site_label_2
_geom_bond_distance
_geom_bond_site_symmetry_2
Na0 O8 2.332226 1_555
Na0 O6 2.359204 1_555
Na0 O1 2.476558 1_545
Na0 O0 2.478840 1_554
Na0 O3 2.515699 1_545
Na0 O2 2.567237 1_554
Na0 O4 2.617919 1_555
Na0 O4 2.896765 1_655
Na1 O9 2.332976 1_555
Na1 O7 2.354673 1_555
Na1 O0 2.438389 1_565
Na1 O1 2.495245 1_556
Na1 O2 2.545231 1_565
Na1 O3 2.553487 1_556
Na1 O5 2.617848 1_455
Na1 O5 2.892806 1_555
Na2 O9 2.336793 1_555
Na2 O4 2.348607 1_555
Na2 O3 2.477138 1_455
Na2 O2 2.482448 1_454
Na2 O1 2.510349 1_555
Na2 O0 2.568367 1_554
Na2 O6 2.611103 1_455
Na2 O6 2.901068 1_555
Na3 O8 2.337933 1_555
Na3 O5 2.345101 1_555
Na3 O2 2.438839 1_555
Na3 O3 2.491175 1_556
Na3 O0 2.549381 1_655
Na3 O1 2.552793 1_656
Na3 O7 2.620682 1_555
Na3 O7 2.887882 1_655
O0 V0 1.849145 1_556
O0 V1 2.037979 1_556
O1 V1 1.830325 1_555
O1 V0 2.079039 1_565
O2 V1 1.849870 1_556
O2 V0 2.040710 1_656
O3 V0 1.826881 1_665
O3 V1 2.081960 1_555
O4 V2 1.773816 1_555
O4 V0 2.089373 1_555
O5 V3 1.774504 1_555
O5 V0 2.089819 1_666
O6 V3 1.773082 1_555
O6 V1 2.084560 1_555
O7 V2 1.773465 1_555
O7 V1 2.085802 1_556
O8 V3 1.878309 1_545
O8 V2 1.890547 1_655
O9 V2 1.879155 1_565
O9 V3 1.890499 1_555
