# generated using pymatgen
data_Mn4Fe8Si3Ge
_symmetry_space_group_name_H-M   'P 1'
_cell_length_a   13.18295110
_cell_length_b   13.18295110
_cell_length_c   13.18295095
_cell_angle_alpha   17.32643408
_cell_angle_beta   17.32643408
_cell_angle_gamma   17.32643650
_symmetry_Int_Tables_number   1
_chemical_formula_structural   Mn4Fe8Si3Ge
_chemical_formula_sum   'Mn4 Fe8 Si3 Ge1'
_cell_volume   177.32062177
_cell_formula_units_Z   1
loop_
 _symmetry_equiv_pos_site_id
 _symmetry_equiv_pos_as_xyz
  1  'x, y, z'
loop_
 _atom_site_type_symbol
 _atom_site_label
 _atom_site_symmetry_multiplicity
 _atom_site_fract_x
 _atom_site_fract_y
 _atom_site_fract_z
 _atom_site_occupancy
  Mn  Mn0  1  0.62534400  0.62534400  0.62534400  1
  Mn  Mn1  1  0.37465600  0.37465600  0.37465600  1
  Mn  Mn2  1  0.87525200  0.87525200  0.87525200  1
  Mn  Mn3  1  0.12474800  0.12474800  0.12474800  1
  Fe  Fe0  1  0.93755900  0.93755900  0.93755900  1
  Fe  Fe1  1  0.68738600  0.68738600  0.68738600  1
  Fe  Fe2  1  0.18878000  0.18878000  0.18878000  1
  Fe  Fe3  1  0.43589100  0.43589100  0.43589100  1
  Fe  Fe4  1  0.56410900  0.56410900  0.56410900  1
  Fe  Fe5  1  0.31261400  0.31261400  0.31261400  1
  Fe  Fe6  1  0.81122000  0.81122000  0.81122000  1
  Fe  Fe7  1  0.06244100  0.06244100  0.06244100  1
  Si  Si0  1  0.74970500  0.74970500  0.74970500  1
  Si  Si1  1  0.00000000  0.00000000  0.00000000  1
  Si  Si2  1  0.25029500  0.25029500  0.25029500  1
  Ge  Ge0  1  0.50000000  0.50000000  0.50000000  1
loop_
_geom_bond_atom_site_label_1
_geom_bond_atom_site_label_2
_geom_bond_distance
_geom_bond_site_symmetry_2
Mn0 Si1 2.801312 1_665
Mn0 Si1 2.801313 1_656
Mn0 Si1 2.801313 1_566
Mn0 Si2 2.810133 1_556
Mn0 Si2 2.810134 1_655
Mn0 Si2 2.810134 1_565
Mn1 Si1 2.801312 1_556
Mn1 Si1 2.801313 1_565
Mn1 Si1 2.801313 1_655
Mn1 Si0 2.810133 1_554
Mn1 Si0 2.810134 1_545
Mn1 Si0 2.810134 1_455
Mn2 Si2 2.809998 1_665
Mn2 Si2 2.809999 1_566
Mn2 Si2 2.809999 1_656
Mn3 Si0 2.809998 1_445
Mn3 Si0 2.809999 1_544
Mn3 Si0 2.809999 1_454
Fe0 Mn2 2.426612 1_555
Fe0 Si2 2.429162 1_665
Fe0 Si2 2.429162 1_566
Fe0 Si2 2.429162 1_656
Fe0 Si1 2.431831 1_666
Fe0 Mn0 2.435938 1_556
Fe0 Mn0 2.435938 1_565
Fe0 Mn0 2.435938 1_655
Fe1 Mn0 2.416292 1_555
Fe1 Si0 2.427080 1_555
Fe1 Mn1 2.429239 1_556
Fe1 Mn1 2.429239 1_655
Fe1 Mn1 2.429239 1_565
Fe1 Si1 2.430735 1_665
Fe1 Si1 2.430735 1_566
Fe1 Si1 2.430735 1_656
Fe2 Si2 2.395767 1_555
Fe2 Mn2 2.419151 1_445
Fe2 Mn2 2.419151 1_544
Fe2 Mn2 2.419151 1_454
Fe2 Ge0 2.449294 1_554
Fe2 Ge0 2.449294 1_455
Fe2 Ge0 2.449294 1_545
Fe2 Mn3 2.493794 1_555
Fe3 Mn1 2.384862 1_555
Fe3 Si0 2.415623 1_554
Fe3 Si0 2.415623 1_545
Fe3 Si0 2.415623 1_455
Fe3 Mn3 2.450350 1_556
Fe3 Mn3 2.450350 1_655
Fe3 Mn3 2.450350 1_565
Fe3 Ge0 2.496793 1_555
Fe4 Mn0 2.384862 1_555
Fe4 Si2 2.415623 1_556
Fe4 Si2 2.415623 1_655
Fe4 Si2 2.415623 1_565
Fe4 Mn2 2.450350 1_554
Fe4 Mn2 2.450350 1_455
Fe4 Mn2 2.450350 1_545
Fe4 Ge0 2.496793 1_555
Fe5 Mn1 2.416292 1_555
Fe5 Si2 2.427080 1_555
Fe5 Mn0 2.429239 1_554
Fe5 Mn0 2.429239 1_455
Fe5 Mn0 2.429239 1_545
Fe5 Si1 2.430735 1_556
Fe5 Si1 2.430735 1_655
Fe5 Si1 2.430735 1_565
Fe6 Si0 2.395767 1_555
Fe6 Mn3 2.419151 1_665
Fe6 Mn3 2.419151 1_566
Fe6 Mn3 2.419151 1_656
Fe6 Ge0 2.449294 1_556
Fe6 Ge0 2.449294 1_565
Fe6 Ge0 2.449294 1_655
Fe6 Mn2 2.493794 1_555
Fe7 Mn3 2.426612 1_555
Fe7 Si0 2.429162 1_445
Fe7 Si0 2.429162 1_454
Fe7 Si0 2.429162 1_544
Fe7 Si1 2.431831 1_555
Fe7 Mn1 2.435938 1_554
Fe7 Mn1 2.435938 1_545
Fe7 Mn1 2.435938 1_455
Ge0 Mn3 2.814712 1_556
Ge0 Mn2 2.814712 1_554
Ge0 Mn3 2.814712 1_565
Ge0 Mn3 2.814712 1_655
Ge0 Mn2 2.814712 1_545
Ge0 Mn2 2.814712 1_455
