# generated using pymatgen
data_Li8Fe7Cu(PO4)12
_symmetry_space_group_name_H-M   'P 1'
_cell_length_a   8.67144200
_cell_length_b   8.81127368
_cell_length_c   12.23813295
_cell_angle_alpha   89.99616733
_cell_angle_beta   89.95412829
_cell_angle_gamma   89.95530794
_symmetry_Int_Tables_number   1
_chemical_formula_structural   Li8Fe7Cu(PO4)12
_chemical_formula_sum   'Li8 Fe7 Cu1 P12 O48'
_cell_volume   935.07169075
_cell_formula_units_Z   1
loop_
 _symmetry_equiv_pos_site_id
 _symmetry_equiv_pos_as_xyz
  1  'x, y, z'
loop_
 _atom_site_type_symbol
 _atom_site_label
 _atom_site_symmetry_multiplicity
 _atom_site_fract_x
 _atom_site_fract_y
 _atom_site_fract_z
 _atom_site_occupancy
  Li  Li0  1  0.21656200  0.72211200  0.18178500  1
  Li  Li1  1  0.21654300  0.77787600  0.81849000  1
  Li  Li2  1  0.28337500  0.22200300  0.31842900  1
  Li  Li3  1  0.28376100  0.27802900  0.68141400  1
  Li  Li4  1  0.71569800  0.72180000  0.31871800  1
  Li  Li5  1  0.71640200  0.77636700  0.68185100  1
  Li  Li6  1  0.78404500  0.22197700  0.18182900  1
  Li  Li7  1  0.78437500  0.27784800  0.81638600  1
  Fe  Fe0  1  0.24923600  0.95924200  0.61350100  1
  Fe  Fe1  1  0.24927400  0.54066300  0.38687200  1
  Fe  Fe2  1  0.25038500  0.04122600  0.11289400  1
  Fe  Fe3  1  0.24997200  0.45868800  0.88674300  1
  Fe  Fe4  1  0.74985100  0.54122900  0.11239200  1
  Fe  Fe5  1  0.74955500  0.95917300  0.88675200  1
  Fe  Fe6  1  0.75071800  0.04046400  0.38665200  1
  Cu  Cu0  1  0.75323300  0.45865800  0.61024300  1
  P  P0  1  0.10615600  0.39295100  0.14683700  1
  P  P1  1  0.10605200  0.10647300  0.85283300  1
  P  P2  1  0.39509800  0.60533300  0.64668000  1
  P  P3  1  0.39362000  0.89309600  0.35311000  1
  P  P4  1  0.60583300  0.10758900  0.64613900  1
  P  P5  1  0.60713700  0.39244100  0.35330800  1
  P  P6  1  0.89446100  0.60739500  0.85181400  1
  P  P7  1  0.89397900  0.89278900  0.14674500  1
  P  P8  1  0.03820700  0.25111100  0.50001500  1
  P  P9  1  0.46032700  0.74993100  0.99991700  1
  P  P10  1  0.54005200  0.25013100  0.99990200  1
  P  P11  1  0.95936100  0.74852600  0.49926300  1
  O  O0  1  0.05611700  0.64111300  0.42930500  1
  O  O1  1  0.05664400  0.85596100  0.56998100  1
  O  O2  1  0.07267100  0.89534000  0.15513900  1
  O  O3  1  0.07312900  0.60476100  0.84341400  1
  O  O4  1  0.14847000  0.16328300  0.57824200  1
  O  O5  1  0.14797800  0.33795100  0.42119300  1
  O  O6  1  0.15681500  0.43362100  0.03056600  1
  O  O7  1  0.15755000  0.06610100  0.96905700  1
  O  O8  1  0.16312900  0.23281200  0.18006200  1
  O  O9  1  0.16353500  0.26660300  0.81983800  1
  O  O10  1  0.17372400  0.51329200  0.22639000  1
  O  O11  1  0.17323400  0.98596800  0.77311000  1
  O  O12  1  0.32654000  0.01362900  0.27365100  1
  O  O13  1  0.32735100  0.48552200  0.72625600  1
  O  O14  1  0.33798600  0.76623400  0.67972600  1
  O  O15  1  0.33621500  0.73291900  0.32031100  1
  O  O16  1  0.34401000  0.56524500  0.53059100  1
  O  O17  1  0.34173800  0.93347400  0.46955800  1
  O  O18  1  0.35112400  0.83749900  0.07855200  1
  O  O19  1  0.35106500  0.66239200  0.92151500  1
  O  O20  1  0.42689600  0.10427300  0.65483700  1
  O  O21  1  0.42791700  0.39503000  0.34421900  1
  O  O22  1  0.44308200  0.14302000  0.07039500  1
  O  O23  1  0.44255000  0.35728800  0.92995300  1
  O  O24  1  0.55734400  0.64282500  0.07035100  1
  O  O25  1  0.55724500  0.85716100  0.92954000  1
  O  O26  1  0.57374400  0.60747800  0.65705200  1
  O  O27  1  0.57220600  0.89549900  0.34515100  1
  O  O28  1  0.64927000  0.33753800  0.07850100  1
  O  O29  1  0.64910100  0.16281100  0.92117400  1
  O  O30  1  0.65692600  0.06821400  0.52999300  1
  O  O31  1  0.65028600  0.43934900  0.46993200  1
  O  O32  1  0.66459400  0.23276700  0.32015800  1
  O  O33  1  0.66170600  0.26809300  0.68103000  1
  O  O34  1  0.67334200  0.51300600  0.27299900  1
  O  O35  1  0.67313400  0.98736500  0.72590700  1
  O  O36  1  0.82669600  0.01306500  0.22634100  1
  O  O37  1  0.82351700  0.48508900  0.77537400  1
  O  O38  1  0.83681300  0.73243700  0.17972700  1
  O  O39  1  0.83739100  0.76771100  0.81941400  1
  O  O40  1  0.84312100  0.56532800  0.96811800  1
  O  O41  1  0.84282600  0.93317200  0.03053100  1
  O  O42  1  0.85303300  0.66325800  0.58195500  1
  O  O43  1  0.85069600  0.83684800  0.42116500  1
  O  O44  1  0.92745100  0.10406600  0.84485600  1
  O  O45  1  0.92740500  0.39607400  0.15550400  1
  O  O46  1  0.94078700  0.14491500  0.43016500  1
  O  O47  1  0.94863100  0.35747900  0.57768800  1
loop_
_geom_bond_atom_site_label_1
_geom_bond_atom_site_label_2
_geom_bond_distance
_geom_bond_site_symmetry_2
Li0 O10 1.955012 1_555
Li0 O15 1.990638 1_555
Li0 O2 1.997645 1_555
Li0 O18 1.997666 1_555
Li1 O11 1.952055 1_555
Li1 O3 1.992139 1_555
Li1 O19 1.996543 1_555
Li1 O14 2.000107 1_555
Li2 O12 1.951969 1_555
Li2 O8 1.991583 1_555
Li2 O21 1.999661 1_555
Li2 O5 1.999961 1_555
Li3 O13 1.946325 1_555
Li3 O9 1.991013 1_555
Li3 O20 1.996694 1_555
Li3 O4 1.999299 1_555
Li4 O34 1.958092 1_555
Li4 O43 1.993560 1_555
Li4 O27 1.997948 1_555
Li4 O38 2.000608 1_555
Li5 O26 1.959709 1_555
Li5 O35 1.971464 1_555
Li5 O42 1.971702 1_555
Li5 O39 1.985809 1_555
Li6 O36 1.954772 1_555
Li6 O32 1.986172 1_555
Li6 O28 2.000515 1_555
Li6 O45 2.001164 1_555
Li7 O37 1.924104 1_555
Li7 O33 1.971262 1_555
Li7 O44 2.000757 1_555
Li7 O29 2.011779 1_555
Fe0 O17 1.948249 1_555
Fe0 O1 1.976047 1_555
Fe0 O14 2.034724 1_555
Fe0 O4 2.044518 1_565
Fe0 O20 2.065603 1_565
Fe0 O11 2.074368 1_555
Fe1 O16 1.953964 1_555
Fe1 O0 1.963383 1_555
Fe1 O15 2.025449 1_555
Fe1 O5 2.034716 1_555
Fe1 O21 2.077135 1_555
Fe1 O10 2.084952 1_555
Fe2 O7 1.948505 1_554
Fe2 O22 1.966723 1_555
Fe2 O8 2.023644 1_555
Fe2 O18 2.039402 1_545
Fe2 O2 2.072720 1_545
Fe2 O12 2.089860 1_555
Fe3 O6 1.948672 1_556
Fe3 O23 1.966113 1_555
Fe3 O9 2.024838 1_555
Fe3 O19 2.043121 1_555
Fe3 O3 2.070624 1_555
Fe3 O13 2.088478 1_555
Fe4 O40 1.953114 1_554
Fe4 O24 1.962567 1_555
Fe4 O38 2.022221 1_555
Fe4 O28 2.038891 1_555
Fe4 O45 2.069510 1_555
Fe4 O34 2.088878 1_555
Fe5 O41 1.950568 1_556
Fe5 O25 1.965688 1_555
Fe5 O39 2.025460 1_555
Fe5 O29 2.037858 1_565
Fe5 O44 2.067417 1_565
Fe5 O35 2.092220 1_555
Fe6 O30 1.948342 1_555
Fe6 O46 1.962377 1_555
Fe6 O32 2.022343 1_555
Fe6 O43 2.036399 1_545
Fe6 O27 2.071260 1_545
Fe6 O36 2.083069 1_555
Cu0 O31 1.943495 1_555
Cu0 O47 1.954757 1_555
Cu0 O42 2.029949 1_555
Cu0 O33 2.049541 1_555
Cu0 O26 2.113200 1_555
Cu0 O37 2.124137 1_555
O0 P11 1.526573 1_455
O1 P11 1.536001 1_455
O2 P7 1.553181 1_455
O3 P6 1.552789 1_455
O4 P8 1.558789 1_555
O5 P8 1.556160 1_555
O6 P0 1.531445 1_555
O7 P1 1.532900 1_555
O8 P0 1.549053 1_555
O9 P1 1.550159 1_555
O10 P0 1.554841 1_555
O11 P1 1.554665 1_565
O12 P3 1.552973 1_545
O13 P2 1.551744 1_555
O14 P2 1.554824 1_555
O15 P3 1.549951 1_555
O16 P2 1.529957 1_555
O17 P3 1.535807 1_555
O18 P9 1.554240 1_554
O19 P9 1.554333 1_555
O20 P4 1.555501 1_555
O21 P5 1.558309 1_555
O22 P10 1.530364 1_554
O23 P10 1.529364 1_555
O24 P9 1.530104 1_554
O25 P9 1.529965 1_555
O26 P2 1.554541 1_555
O27 P3 1.551741 1_555
O28 P10 1.555014 1_554
O29 P10 1.553050 1_555
O30 P4 1.528361 1_555
O31 P5 1.532670 1_555
O32 P5 1.546267 1_555
O33 P4 1.555197 1_555
O34 P5 1.556919 1_555
O35 P4 1.554206 1_565
O36 P7 1.552641 1_545
O37 P6 1.554686 1_555
O38 P7 1.551016 1_555
O39 P6 1.548123 1_555
O40 P6 1.536446 1_555
O41 P7 1.531939 1_555
O42 P11 1.561479 1_555
O43 P11 1.551528 1_555
O44 P1 1.552042 1_655
O45 P0 1.553791 1_655
O46 P8 1.523959 1_655
O47 P8 1.543745 1_655
