# generated using pymatgen
data_Dy(NiB)2
_symmetry_space_group_name_H-M   'P 1'
_cell_length_a   4.93763509
_cell_length_b   4.93763509
_cell_length_c   6.80743991
_cell_angle_alpha   59.43640738
_cell_angle_beta   59.43640738
_cell_angle_gamma   64.11696061
_symmetry_Int_Tables_number   1
_chemical_formula_structural   Dy(NiB)2
_chemical_formula_sum   'Dy2 Ni4 B4'
_cell_volume   119.45598318
_cell_formula_units_Z   2
loop_
 _symmetry_equiv_pos_site_id
 _symmetry_equiv_pos_as_xyz
  1  'x, y, z'
loop_
 _atom_site_type_symbol
 _atom_site_label
 _atom_site_symmetry_multiplicity
 _atom_site_fract_x
 _atom_site_fract_y
 _atom_site_fract_z
 _atom_site_occupancy
  Dy  Dy0  1  0.12003427  0.87996573  0.25000000  1
  Dy  Dy1  1  0.87996573  0.12003427  0.75000000  1
  Ni  Ni0  1  0.47032708  0.27971188  0.19966584  1
  Ni  Ni1  1  0.72028812  0.52967292  0.30033416  1
  Ni  Ni2  1  0.52967292  0.72028812  0.80033416  1
  Ni  Ni3  1  0.27971188  0.47032708  0.69966584  1
  B  B0  1  0.15580131  0.50252478  0.02569071  1
  B  B1  1  0.49747522  0.84419869  0.47430929  1
  B  B2  1  0.84419869  0.49747522  0.97430929  1
  B  B3  1  0.50252478  0.15580131  0.52569071  1
loop_
_geom_bond_atom_site_label_1
_geom_bond_atom_site_label_2
_geom_bond_distance
_geom_bond_site_symmetry_2
Dy0 Ni0 2.801385 1_555
Dy0 Ni1 2.801385 1_555
Dy0 Ni1 2.948720 1_455
Dy0 Ni0 2.948720 1_565
Dy0 Ni2 2.974622 1_554
Dy0 Ni3 2.974622 1_555
Dy1 Ni2 2.801385 1_555
Dy1 Ni3 2.801385 1_555
Dy1 Ni3 2.948720 1_655
Dy1 Ni2 2.948720 1_545
Dy1 Ni0 2.974622 1_556
Dy1 Ni1 2.974622 1_555
B0 B2 1.754952 1_454
B0 Ni1 2.012996 1_455
B0 Ni0 2.019546 1_555
B0 Ni2 2.023063 1_554
B0 Ni3 2.053845 1_554
B0 Dy0 2.690396 1_545
B0 Dy1 2.797891 1_464
B0 Dy0 2.858074 1_555
B1 B3 1.754952 1_565
B1 Ni0 2.012996 1_565
B1 Ni1 2.019546 1_555
B1 Ni3 2.023063 1_555
B1 Ni2 2.053845 1_555
B1 Dy0 2.690396 1_655
B1 Dy1 2.797891 1_465
B1 Dy0 2.858074 1_555
B2 Ni3 2.012996 1_655
B2 Ni2 2.019546 1_555
B2 Ni0 2.023063 1_556
B2 Ni1 2.053845 1_556
B2 Dy1 2.690396 1_565
B2 Dy0 2.797891 1_646
B2 Dy1 2.858074 1_555
B3 Ni2 2.012996 1_545
B3 Ni3 2.019546 1_555
B3 Ni1 2.023063 1_555
B3 Ni0 2.053845 1_555
B3 Dy1 2.690396 1_455
B3 Dy0 2.797891 1_645
B3 Dy1 2.858074 1_555
