# generated using pymatgen
data_Sr2CoSi2O7
_symmetry_space_group_name_H-M   'P 1'
_cell_length_a   8.10560700
_cell_length_b   8.10550500
_cell_length_c   10.45719200
_cell_angle_alpha   89.99953820
_cell_angle_beta   89.99966050
_cell_angle_gamma   90.00007069
_symmetry_Int_Tables_number   1
_chemical_formula_structural   Sr2CoSi2O7
_chemical_formula_sum   'Sr8 Co4 Si8 O28'
_cell_volume   687.03791245
_cell_formula_units_Z   4
loop_
 _symmetry_equiv_pos_site_id
 _symmetry_equiv_pos_as_xyz
  1  'x, y, z'
loop_
 _atom_site_type_symbol
 _atom_site_label
 _atom_site_symmetry_multiplicity
 _atom_site_fract_x
 _atom_site_fract_y
 _atom_site_fract_z
 _atom_site_occupancy
  Sr  Sr0  1  0.16658600  0.66658000  0.25321200  1
  Sr  Sr1  1  0.16657800  0.66659100  0.75320500  1
  Sr  Sr2  1  0.83340700  0.33339500  0.25320700  1
  Sr  Sr3  1  0.83341600  0.33342900  0.75321900  1
  Sr  Sr4  1  0.66658700  0.83340800  0.24678800  1
  Sr  Sr5  1  0.66658400  0.83341700  0.74678400  1
  Sr  Sr6  1  0.33342600  0.16657900  0.24678800  1
  Sr  Sr7  1  0.33342000  0.16658100  0.74679300  1
  Co  Co0  1  0.99999800  0.00000100  0.49999500  1
  Co  Co1  1  0.49999900  0.50000200  0.00000400  1
  Co  Co2  1  0.00000200  0.00000300  0.99999600  1
  Co  Co3  1  0.49999900  0.49999700  0.50000400  1
  Si  Si0  1  0.63828900  0.13828600  0.47243000  1
  Si  Si1  1  0.63828200  0.13828800  0.97242900  1
  Si  Si2  1  0.36171200  0.86171900  0.47242900  1
  Si  Si3  1  0.36171600  0.86171500  0.97243100  1
  Si  Si4  1  0.13828700  0.36171400  0.02757100  1
  Si  Si5  1  0.13827700  0.36171100  0.52757000  1
  Si  Si6  1  0.86171900  0.63828200  0.02756900  1
  Si  Si7  1  0.86171200  0.63828800  0.52757000  1
  O  O0  1  0.99999900  0.49999600  0.08204700  1
  O  O1  1  0.99999600  0.50000100  0.58204500  1
  O  O2  1  0.49999900  0.00000500  0.41795500  1
  O  O3  1  0.50000300  0.99999900  0.91795500  1
  O  O4  1  0.63982800  0.13983700  0.12695700  1
  O  O5  1  0.63983800  0.13983200  0.62695600  1
  O  O6  1  0.36016900  0.86016700  0.12695800  1
  O  O7  1  0.36016600  0.86016500  0.62695800  1
  O  O8  1  0.13983200  0.36016400  0.37304300  1
  O  O9  1  0.13983400  0.36016700  0.87304500  1
  O  O10  1  0.86016400  0.63983300  0.37304400  1
  O  O11  1  0.86017000  0.63983200  0.87303900  1
  O  O12  1  0.07986000  0.19106400  0.10059300  1
  O  O13  1  0.07984700  0.19106800  0.60059300  1
  O  O14  1  0.92014700  0.80892900  0.10058700  1
  O  O15  1  0.92015100  0.80893100  0.60058700  1
  O  O16  1  0.19107600  0.92015500  0.39940900  1
  O  O17  1  0.19107200  0.92014600  0.89941100  1
  O  O18  1  0.42014200  0.69107200  0.39941100  1
  O  O19  1  0.42014700  0.69107300  0.89940900  1
  O  O20  1  0.80892800  0.07984500  0.39940800  1
  O  O21  1  0.80892900  0.07986100  0.89941400  1
  O  O22  1  0.57986400  0.30893400  0.39941000  1
  O  O23  1  0.57985000  0.30893000  0.89940700  1
  O  O24  1  0.30892800  0.42014700  0.10059200  1
  O  O25  1  0.30892100  0.42014400  0.60058900  1
  O  O26  1  0.69107600  0.57985400  0.10058800  1
  O  O27  1  0.69106600  0.57986100  0.60059400  1
loop_
_geom_bond_atom_site_label_1
_geom_bond_atom_site_label_2
_geom_bond_distance
_geom_bond_site_symmetry_2
Co0 O20 1.980869 1_555
Co0 O15 1.980880 1_545
Co0 O16 1.980915 1_645
Co0 O13 1.980917 1_655
Co1 O24 1.980899 1_555
Co1 O19 1.980922 1_554
Co1 O26 1.980922 1_555
Co1 O23 1.980946 1_554
Co2 O17 1.980888 1_545
Co2 O12 1.980897 1_556
Co2 O21 1.980897 1_455
Co2 O14 1.980921 1_446
Co3 O22 1.980909 1_555
Co3 O25 1.980922 1_555
Co3 O27 1.980924 1_555
Co3 O18 1.980949 1_555
O0 Si6 1.684399 1_555
O0 Si4 1.684415 1_655
O0 Sr0 2.617302 1_655
O0 Sr2 2.617333 1_555
O1 Si7 1.684416 1_555
O1 Si5 1.684417 1_655
O1 Sr3 2.617261 1_555
O1 Sr1 2.617271 1_655
O2 Si2 1.684416 1_545
O2 Si0 1.684420 1_555
O2 Sr6 2.617203 1_555
O2 Sr4 2.617366 1_545
O3 Si1 1.684400 1_565
O3 Si3 1.684413 1_555
O3 Sr7 2.617243 1_565
O3 Sr5 2.617303 1_555
O4 Si1 1.616027 1_554
O4 Sr2 2.581944 1_555
O4 Sr6 2.790223 1_555
O4 Sr4 2.790398 1_545
O5 Si0 1.616006 1_555
O5 Sr3 2.582200 1_555
O5 Sr5 2.790275 1_545
O5 Sr7 2.790371 1_555
O6 Si3 1.616016 1_554
O6 Sr0 2.582105 1_555
O6 Sr6 2.790277 1_565
O6 Sr4 2.790356 1_555
O7 Si2 1.616037 1_555
O7 Sr1 2.582028 1_555
O7 Sr5 2.790330 1_555
O7 Sr7 2.790332 1_565
O8 Si5 1.616016 1_555
O8 Sr6 2.582170 1_555
O8 Sr0 2.790299 1_555
O8 Sr2 2.790442 1_455
O9 Si4 1.616005 1_556
O9 Sr7 2.582119 1_555
O9 Sr3 2.790325 1_455
O9 Sr1 2.790393 1_555
O10 Si7 1.616005 1_555
O10 Sr4 2.582039 1_555
O10 Sr0 2.790373 1_655
O10 Sr2 2.790507 1_555
O11 Si6 1.616047 1_556
O11 Sr5 2.582127 1_555
O11 Sr3 2.790173 1_555
O11 Sr1 2.790289 1_655
O12 Si4 1.649427 1_555
O12 Sr6 2.569222 1_555
O12 Sr2 2.805083 1_455
O13 Si5 1.649391 1_555
O13 Sr7 2.569300 1_555
O13 Sr3 2.805127 1_455
O14 Si6 1.649402 1_555
O14 Sr4 2.569204 1_555
O14 Sr0 2.805131 1_655
O15 Si7 1.649396 1_555
O15 Sr5 2.569229 1_555
O15 Sr1 2.804990 1_655
O16 Si2 1.649365 1_555
O16 Sr0 2.569279 1_555
O16 Sr6 2.804995 1_565
O17 Si3 1.649408 1_555
O17 Sr1 2.569208 1_555
O17 Sr7 2.805034 1_565
O18 Si2 1.649405 1_555
O18 Sr0 2.569188 1_555
O18 Sr4 2.805094 1_555
O19 Si3 1.649393 1_555
O19 Sr1 2.569297 1_555
O19 Sr5 2.805087 1_555
O20 Si0 1.649403 1_555
O20 Sr2 2.569114 1_555
O20 Sr4 2.805060 1_545
O21 Si1 1.649391 1_555
O21 Sr3 2.569198 1_555
O21 Sr5 2.805174 1_545
O22 Si0 1.649402 1_555
O22 Sr2 2.569093 1_555
O22 Sr6 2.805136 1_555
O23 Si1 1.649387 1_555
O23 Sr3 2.569172 1_555
O23 Sr7 2.805022 1_555
O24 Si4 1.649399 1_555
O24 Sr6 2.569213 1_555
O24 Sr0 2.805035 1_555
O25 Si5 1.649410 1_555
O25 Sr7 2.569231 1_555
O25 Sr1 2.805095 1_555
O26 Si6 1.649381 1_555
O26 Sr4 2.569160 1_555
O26 Sr2 2.805132 1_555
O27 Si7 1.649423 1_555
O27 Sr5 2.569107 1_555
O27 Sr3 2.805075 1_555
