# generated using pymatgen
data_Nd2FeSbO7
_symmetry_space_group_name_H-M   'P 1'
_cell_length_a   7.45942667
_cell_length_b   7.45942667
_cell_length_c   7.45942667
_cell_angle_alpha   120.27430201
_cell_angle_beta   119.64465149
_cell_angle_gamma   90.07106655
_symmetry_Int_Tables_number   1
_chemical_formula_structural   Nd2FeSbO7
_chemical_formula_sum   'Nd4 Fe2 Sb2 O14'
_cell_volume   293.66389147
_cell_formula_units_Z   2
loop_
 _symmetry_equiv_pos_site_id
 _symmetry_equiv_pos_as_xyz
  1  'x, y, z'
loop_
 _atom_site_type_symbol
 _atom_site_label
 _atom_site_symmetry_multiplicity
 _atom_site_fract_x
 _atom_site_fract_y
 _atom_site_fract_z
 _atom_site_occupancy
  Nd  Nd0  1  0.00000000  0.00000000  0.50000000  1
  Nd  Nd1  1  0.00000000  0.50000000  0.00000000  1
  Nd  Nd2  1  0.00000000  0.00000000  0.00000000  1
  Nd  Nd3  1  0.50000000  0.00000000  0.50000000  1
  Fe  Fe0  1  0.50000000  0.50000000  0.50000000  1
  Fe  Fe1  1  0.50000000  0.00000000  0.00000000  1
  Sb  Sb0  1  0.50000000  0.50000000  0.00000000  1
  Sb  Sb1  1  0.00000000  0.50000000  0.50000000  1
  O  O0  1  0.12383300  0.87383300  0.25000000  1
  O  O1  1  0.87616700  0.12616700  0.75000000  1
  O  O2  1  0.41660600  0.16660600  0.25000000  1
  O  O3  1  0.82707600  0.57707600  0.25000000  1
  O  O4  1  0.41531200  0.57518100  0.23999100  1
  O  O5  1  0.83518900  0.17532100  0.26000900  1
  O  O6  1  0.41531200  0.17532100  0.84013100  1
  O  O7  1  0.83518900  0.57518100  0.65986900  1
  O  O8  1  0.58339400  0.83339400  0.75000000  1
  O  O9  1  0.17292400  0.42292400  0.75000000  1
  O  O10  1  0.58468800  0.42481900  0.76000900  1
  O  O11  1  0.16481100  0.82467900  0.73999100  1
  O  O12  1  0.58468800  0.82467900  0.15986900  1
  O  O13  1  0.16481100  0.42481900  0.34013100  1
loop_
_geom_bond_atom_site_label_1
_geom_bond_atom_site_label_2
_geom_bond_distance
_geom_bond_site_symmetry_2
Nd0 O1 2.270089 1_455
Nd0 O0 2.270089 1_545
Nd0 O6 2.571758 1_555
Nd0 O12 2.571758 1_445
Nd0 O11 2.571759 1_545
Nd0 O5 2.571759 1_455
Nd0 O3 2.602407 1_445
Nd0 O9 2.602407 1_555
Nd1 O1 2.270089 1_454
Nd1 O0 2.270089 1_555
Nd1 O7 2.571758 1_454
Nd1 O13 2.571758 1_555
Nd1 O10 2.571758 1_454
Nd1 O4 2.571758 1_555
Nd1 O3 2.602407 1_455
Nd1 O9 2.602407 1_554
Nd2 O1 2.298778 1_454
Nd2 O0 2.298778 1_545
Nd2 O2 2.569108 1_555
Nd2 O8 2.569108 1_444
Nd2 O13 2.605514 1_555
Nd2 O7 2.605514 1_444
Nd2 O11 2.605521 1_544
Nd2 O5 2.605521 1_455
Nd3 O1 2.298778 1_555
Nd3 O0 2.298778 1_545
Nd3 O2 2.569108 1_555
Nd3 O8 2.569108 1_545
Nd3 O10 2.605515 1_555
Nd3 O4 2.605515 1_545
Nd3 O6 2.605515 1_555
Nd3 O12 2.605515 1_545
Fe0 O8 2.054721 1_555
Fe0 O2 2.054721 1_555
Fe0 O7 2.088255 1_555
Fe0 O13 2.088255 1_555
Fe0 O10 2.088262 1_555
Fe0 O4 2.088262 1_555
Fe1 O2 2.054721 1_555
Fe1 O8 2.054721 1_544
Fe1 O5 2.088256 1_555
Fe1 O11 2.088256 1_544
Fe1 O12 2.088262 1_545
Fe1 O6 2.088262 1_554
O3 Sb0 2.043383 1_555
O3 Sb1 2.043383 1_655
O4 Sb0 2.006422 1_555
O5 Sb1 2.006423 1_655
O6 Sb0 2.006422 1_556
O7 Sb1 2.006429 1_655
O9 Sb1 2.043383 1_555
O9 Sb0 2.043383 1_556
O10 Sb0 2.006422 1_556
O11 Sb1 2.006423 1_555
O12 Sb0 2.006422 1_555
O13 Sb1 2.006429 1_555
