# generated using pymatgen
data_LiNi9O13
_symmetry_space_group_name_H-M   'P 1'
_cell_length_a   3.00226464
_cell_length_b   5.78894693
_cell_length_c   14.43982223
_cell_angle_alpha   85.32768909
_cell_angle_beta   88.59274651
_cell_angle_gamma   115.77037554
_symmetry_Int_Tables_number   1
_chemical_formula_structural   LiNi9O13
_chemical_formula_sum   'Li1 Ni9 O13'
_cell_volume   224.74905217
_cell_formula_units_Z   1
loop_
 _symmetry_equiv_pos_site_id
 _symmetry_equiv_pos_as_xyz
  1  'x, y, z'
loop_
 _atom_site_type_symbol
 _atom_site_label
 _atom_site_symmetry_multiplicity
 _atom_site_fract_x
 _atom_site_fract_y
 _atom_site_fract_z
 _atom_site_occupancy
  Li  Li0  1  0.45509900  0.48604000  0.49903500  1
  Ni  Ni0  1  0.48998300  0.99994100  0.49891200  1
  Ni  Ni1  1  0.61090900  0.27296000  0.04709400  1
  Ni  Ni2  1  0.34176000  0.76167900  0.95444800  1
  Ni  Ni3  1  0.95952800  0.40286100  0.32604200  1
  Ni  Ni4  1  0.02412600  0.60378100  0.67117000  1
  Ni  Ni5  1  0.84702900  0.76087200  0.13219200  1
  Ni  Ni6  1  0.14980100  0.26024600  0.86631400  1
  Ni  Ni7  1  0.89390100  0.87509800  0.33679600  1
  Ni  Ni8  1  0.09012400  0.13074600  0.66195300  1
  O  O0  1  0.00574100  0.99711200  0.00080400  1
  O  O1  1  0.64932100  0.59594700  0.26073500  1
  O  O2  1  0.33612200  0.41130900  0.73543300  1
  O  O3  1  0.22334000  0.55063900  0.07850400  1
  O  O4  1  0.78835500  0.45628100  0.91851900  1
  O  O5  1  0.53328000  0.01726000  0.16389800  1
  O  O6  1  0.45091800  0.00488900  0.83469100  1
  O  O7  1  0.56169900  0.06489900  0.25969700  1
  O  O8  1  0.41227100  0.94654500  0.73989300  1
  O  O9  1  0.23824700  0.70263200  0.41388700  1
  O  O10  1  0.76281300  0.30135800  0.58361100  1
  O  O11  1  0.16300000  0.17176000  0.41071800  1
  O  O12  1  0.82513300  0.83764500  0.58898500  1
loop_
_geom_bond_atom_site_label_1
_geom_bond_atom_site_label_2
_geom_bond_distance
_geom_bond_site_symmetry_2
Li0 O9 2.001417 1_555
Li0 O10 2.046826 1_555
Li0 O10 2.164438 1_455
Li0 O11 2.179684 1_555
Li0 O12 2.366334 1_555
Li0 O9 2.378129 1_655
Ni0 O12 2.067375 1_555
Ni0 O11 2.068562 1_565
Ni0 O9 2.073531 1_555
Ni0 O10 2.089375 1_565
Ni0 O12 2.145074 1_455
Ni0 O11 2.147921 1_665
Ni1 O3 1.939110 1_655
Ni1 O4 1.998957 1_554
Ni1 O0 2.002141 1_545
Ni1 O5 2.089046 1_555
Ni1 O3 2.421332 1_555
Ni1 O0 2.486533 1_645
Ni2 O4 1.947527 1_455
Ni2 O3 2.015534 1_556
Ni2 O0 2.032525 1_656
Ni2 O6 2.062608 1_565
Ni2 O0 2.152741 1_556
Ni3 O1 1.944903 1_555
Ni3 O11 2.034403 1_655
Ni3 O1 2.036425 1_655
Ni3 O9 2.113946 1_655
Ni3 O7 2.121719 1_555
Ni3 O11 2.410719 1_555
Ni4 O2 1.939512 1_555
Ni4 O12 2.018535 1_455
Ni4 O2 2.026163 1_455
Ni4 O10 2.119920 1_455
Ni4 O8 2.155674 1_555
Ni4 O12 2.406563 1_555
Ni5 O3 1.957501 1_555
Ni5 O1 1.968126 1_555
Ni5 O5 2.038487 1_665
Ni5 O5 2.145921 1_565
Ni5 O0 2.159408 1_655
Ni5 O3 2.159827 1_655
Ni6 O4 1.962145 1_555
Ni6 O2 1.975560 1_555
Ni6 O4 2.050286 1_455
Ni6 O6 2.063081 1_455
Ni6 O6 2.112516 1_555
Ni6 O0 2.276568 1_546
Ni7 O1 1.911506 1_555
Ni7 O11 1.968752 1_665
Ni7 O9 2.019333 1_655
Ni7 O9 2.028097 1_555
Ni7 O7 2.059595 1_665
Ni7 O7 2.061438 1_565
Ni8 O2 1.893510 1_555
Ni8 O12 1.944405 1_445
Ni8 O10 1.984275 1_455
Ni8 O8 2.023317 1_545
Ni8 O10 2.074914 1_555
Ni8 O8 2.085742 1_445
O5 O7 1.429824 1_555
O6 O8 1.431914 1_545
