# generated using pymatgen
data_FeNi35S32
_symmetry_space_group_name_H-M   'P 1'
_cell_length_a   11.85003332
_cell_length_b   11.85003332
_cell_length_c   11.85003332
_cell_angle_alpha   134.01093463
_cell_angle_beta   123.79552171
_cell_angle_gamma   75.46174814
_symmetry_Int_Tables_number   1
_chemical_formula_structural   FeNi35S32
_chemical_formula_sum   'Fe1 Ni35 S32'
_cell_volume   968.68136408
_cell_formula_units_Z   1
loop_
 _symmetry_equiv_pos_site_id
 _symmetry_equiv_pos_as_xyz
  1  'x, y, z'
loop_
 _atom_site_type_symbol
 _atom_site_label
 _atom_site_symmetry_multiplicity
 _atom_site_fract_x
 _atom_site_fract_y
 _atom_site_fract_z
 _atom_site_occupancy
  Fe  Fe0  1  0.00000000  0.50000000  0.50000000  1
  Ni  Ni0  1  0.40012800  0.68710300  0.46122500  1
  Ni  Ni1  1  0.89982100  0.18731600  0.46121800  1
  Ni  Ni2  1  0.22587800  0.93890300  0.53877500  1
  Ni  Ni3  1  0.72609800  0.43860300  0.53878200  1
  Ni  Ni4  1  0.10017900  0.56139700  0.28749500  1
  Ni  Ni5  1  0.59987200  0.06109700  0.28697500  1
  Ni  Ni6  1  0.27390200  0.81268400  0.71250500  1
  Ni  Ni7  1  0.77412200  0.31289700  0.71302500  1
  Ni  Ni8  1  0.98649400  0.75012700  0.23646700  1
  Ni  Ni9  1  0.48634000  0.24987300  0.23636700  1
  Ni  Ni10  1  0.51366000  0.75002700  0.76353300  1
  Ni  Ni11  1  0.01350600  0.24997300  0.76363300  1
  Ni  Ni12  1  0.11416800  0.61430500  0.99999700  1
  Ni  Ni13  1  0.61430800  0.11417100  0.00000300  1
  Ni  Ni14  1  0.88583200  0.88582900  0.50013700  1
  Ni  Ni15  1  0.38569200  0.38569500  0.49986300  1
  Ni  Ni16  1  0.00000000  0.77688000  0.77688000  1
  Ni  Ni17  1  0.50000000  0.27814400  0.77814400  1
  Ni  Ni18  1  0.50000000  0.72185600  0.22185600  1
  Ni  Ni19  1  0.00000000  0.22312000  0.22312000  1
  Ni  Ni20  1  0.39207700  0.39207700  0.00000000  1
  Ni  Ni21  1  0.89202500  0.89202500  0.00000000  1
  Ni  Ni22  1  0.10797500  0.10797500  0.00000000  1
  Ni  Ni23  1  0.60792300  0.60792300  0.00000000  1
  Ni  Ni24  1  0.25004300  0.25004300  0.00000000  1
  Ni  Ni25  1  0.74995700  0.74995700  0.00000000  1
  Ni  Ni26  1  0.50000000  0.00000000  0.50000000  1
  Ni  Ni27  1  0.62376400  0.56644500  0.31218800  1
  Ni  Ni28  1  0.12419300  0.06569600  0.31185600  1
  Ni  Ni29  1  0.25425700  0.31157600  0.68781200  1
  Ni  Ni30  1  0.75383900  0.81233700  0.68814400  1
  Ni  Ni31  1  0.87580700  0.18766300  0.94150300  1
  Ni  Ni32  1  0.37623600  0.68842400  0.94268100  1
  Ni  Ni33  1  0.24616100  0.93430400  0.05849700  1
  Ni  Ni34  1  0.74574300  0.43355500  0.05731900  1
  S  S0  1  0.43606300  0.45265900  0.24939200  1
  S  S1  1  0.93607300  0.95290300  0.24948100  1
  S  S2  1  0.20326700  0.18667100  0.75060800  1
  S  S3  1  0.70342200  0.68659200  0.75051900  1
  S  S4  1  0.06392700  0.31340800  0.01683000  1
  S  S5  1  0.56393700  0.81332900  0.01659600  1
  S  S6  1  0.29657800  0.04709700  0.98317000  1
  S  S7  1  0.79673300  0.54734100  0.98340400  1
  S  S8  1  0.18675600  0.68745100  0.25989400  1
  S  S9  1  0.68703000  0.18768200  0.26026800  1
  S  S10  1  0.42755800  0.92686200  0.74010600  1
  S  S11  1  0.92741300  0.42676100  0.73973200  1
  S  S12  1  0.31297000  0.57323900  0.50065200  1
  S  S13  1  0.81324400  0.07313800  0.50069500  1
  S  S14  1  0.07258700  0.81231800  0.49934800  1
  S  S15  1  0.57244200  0.31254900  0.49930500  1
  S  S16  1  0.78863900  0.05766600  0.96582400  1
  S  S17  1  0.28815900  0.55764200  0.96532900  1
  S  S18  1  0.09184200  0.82281500  0.03417600  1
  S  S19  1  0.59231300  0.32283000  0.03467100  1
  S  S20  1  0.71184100  0.67717000  0.26948400  1
  S  S21  1  0.21136100  0.17718500  0.26902700  1
  S  S22  1  0.40768700  0.44235800  0.73051600  1
  S  S23  1  0.90815800  0.94233400  0.73097300  1
  S  S24  1  0.54889900  0.79932900  0.48322000  1
  S  S25  1  0.04789600  0.30420800  0.48452700  1
  S  S26  1  0.31610900  0.06567900  0.51678000  1
  S  S27  1  0.81968200  0.56336900  0.51547300  1
  S  S28  1  0.95210400  0.43663100  0.25631200  1
  S  S29  1  0.45110100  0.93432100  0.25043000  1
  S  S30  1  0.18031800  0.69579200  0.74368800  1
  S  S31  1  0.68389100  0.20067100  0.74957000  1
loop_
_geom_bond_atom_site_label_1
_geom_bond_atom_site_label_2
_geom_bond_distance
_geom_bond_site_symmetry_2
Fe0 S27 2.145289 1_455
Fe0 S30 2.145294 1_555
Fe0 S28 2.145300 1_455
Fe0 S25 2.145300 1_555
Ni0 S0 2.259473 1_555
Ni0 S24 2.264666 1_555
Ni0 S12 2.284311 1_555
Ni0 S10 2.306628 1_555
Ni0 S8 2.320079 1_555
Ni1 S1 2.260783 1_545
Ni1 S13 2.283066 1_555
Ni1 S25 2.285472 1_655
Ni1 S11 2.302784 1_555
Ni1 S9 2.314700 1_555
Ni2 S2 2.259473 1_565
Ni2 S26 2.264666 1_565
Ni2 S14 2.284311 1_555
Ni2 S8 2.306632 1_555
Ni2 S10 2.320084 1_555
Ni3 S3 2.260783 1_555
Ni3 S15 2.283076 1_555
Ni3 S27 2.285480 1_555
Ni3 S9 2.302783 1_555
Ni3 S11 2.314701 1_555
Ni4 S4 2.260783 1_555
Ni4 S8 2.283066 1_555
Ni4 S28 2.285472 1_455
Ni4 S14 2.302778 1_555
Ni4 S12 2.314695 1_555
Ni5 S5 2.259473 1_545
Ni5 S29 2.264666 1_545
Ni5 S9 2.284321 1_555
Ni5 S15 2.306637 1_555
Ni5 S13 2.320079 1_555
Ni6 S6 2.260783 1_565
Ni6 S10 2.283076 1_555
Ni6 S30 2.285481 1_555
Ni6 S12 2.302778 1_555
Ni6 S14 2.314695 1_555
Ni7 S7 2.259473 1_555
Ni7 S31 2.264666 1_555
Ni7 S11 2.284302 1_555
Ni7 S13 2.306632 1_555
Ni7 S15 2.320084 1_555
Ni8 S8 2.220154 1_655
Ni8 S14 2.222587 1_655
Ni8 S7 2.240851 1_554
Ni8 S1 2.240867 1_555
Ni9 S15 2.220156 1_555
Ni9 S9 2.222590 1_555
Ni9 S0 2.240851 1_555
Ni9 S6 2.240867 1_554
Ni10 S10 2.220152 1_555
Ni10 S12 2.222587 1_555
Ni10 S5 2.240851 1_556
Ni10 S3 2.240867 1_555
Ni11 S13 2.220154 1_455
Ni11 S11 2.222581 1_455
Ni11 S2 2.240851 1_555
Ni11 S4 2.240867 1_556
Ni12 S8 2.166571 1_556
Ni12 S11 2.168030 1_455
Ni12 S17 2.175904 1_555
Ni12 S18 2.177044 1_556
Ni13 S10 2.166565 1_544
Ni13 S9 2.168020 1_555
Ni13 S19 2.175904 1_555
Ni13 S16 2.177044 1_554
Ni14 S13 2.166571 1_565
Ni14 S14 2.168031 1_655
Ni14 S20 2.175905 1_555
Ni14 S23 2.177044 1_555
Ni15 S15 2.166560 1_555
Ni15 S12 2.168031 1_555
Ni15 S22 2.175893 1_555
Ni15 S21 2.177044 1_555
Ni16 S30 2.241157 1_555
Ni16 S27 2.241163 1_455
Ni16 S18 2.253150 1_556
Ni16 S23 2.253150 1_455
Ni17 S19 2.252210 1_556
Ni17 S22 2.252217 1_555
Ni17 S31 2.256216 1_555
Ni17 S26 2.256216 1_555
Ni18 S20 2.252208 1_555
Ni18 S17 2.252210 1_554
Ni18 S24 2.256216 1_555
Ni18 S29 2.256216 1_555
Ni19 S25 2.241168 1_555
Ni19 S28 2.241168 1_455
Ni19 S21 2.253150 1_555
Ni19 S16 2.253150 1_454
Ni20 S19 2.208798 1_555
Ni20 S17 2.208798 1_554
Ni20 S2 2.246538 1_554
Ni20 S0 2.246538 1_555
Ni21 S16 2.205243 1_564
Ni21 S18 2.205243 1_655
Ni21 S1 2.245368 1_555
Ni21 S3 2.245368 1_554
Ni22 S21 2.205243 1_555
Ni22 S23 2.205243 1_444
Ni22 S4 2.245368 1_555
Ni22 S6 2.245368 1_554
Ni23 S22 2.208800 1_554
Ni23 S20 2.208808 1_555
Ni23 S7 2.246538 1_554
Ni23 S5 2.246538 1_555
Ni24 S0 2.215334 1_555
Ni24 S2 2.215334 1_554
Ni24 S4 2.217553 1_555
Ni24 S6 2.217553 1_554
Ni25 S5 2.215334 1_555
Ni25 S7 2.215334 1_554
Ni25 S1 2.217553 1_555
Ni25 S3 2.217553 1_554
Ni26 S31 2.193017 1_555
Ni26 S29 2.193017 1_545
Ni26 S26 2.193017 1_555
Ni26 S24 2.193017 1_545
Ni27 S27 2.247707 1_555
Ni27 S20 2.294510 1_555
Ni27 S19 2.296080 1_555
Ni27 S24 2.347218 1_555
Ni27 S0 2.364177 1_555
Ni28 S26 2.219398 1_555
Ni28 S18 2.290977 1_545
Ni28 S21 2.295663 1_555
Ni28 S1 2.364813 1_445
Ni28 S25 2.394031 1_555
Ni29 S25 2.247702 1_555
Ni29 S22 2.294528 1_555
Ni29 S17 2.296080 1_555
Ni29 S26 2.347218 1_555
Ni29 S2 2.364177 1_555
Ni30 S24 2.219392 1_555
Ni30 S16 2.290974 1_565
Ni30 S23 2.295673 1_555
Ni30 S3 2.364806 1_555
Ni30 S27 2.394043 1_555
Ni31 S31 2.219398 1_555
Ni31 S23 2.290977 1_545
Ni31 S16 2.295663 1_555
Ni31 S4 2.364813 1_656
Ni31 S28 2.394031 1_556
Ni32 S30 2.247707 1_555
Ni32 S17 2.294520 1_555
Ni32 S22 2.296084 1_555
Ni32 S29 2.347218 1_556
Ni32 S5 2.364177 1_556
Ni33 S29 2.219392 1_555
Ni33 S21 2.290983 1_565
Ni33 S18 2.295674 1_555
Ni33 S6 2.364806 1_564
Ni33 S30 2.394025 1_554
Ni34 S28 2.247702 1_555
Ni34 S19 2.294520 1_555
Ni34 S20 2.296084 1_555
Ni34 S31 2.347218 1_554
Ni34 S7 2.364177 1_554
