# generated using pymatgen
data_ZrTiCr4
_symmetry_space_group_name_H-M   'P 1'
_cell_length_a   4.93226404
_cell_length_b   4.93226404
_cell_length_c   4.93225462
_cell_angle_alpha   60.00005340
_cell_angle_beta   60.00005340
_cell_angle_gamma   60.00012634
_symmetry_Int_Tables_number   1
_chemical_formula_structural   ZrTiCr4
_chemical_formula_sum   'Zr1 Ti1 Cr4'
_cell_volume   84.84453845
_cell_formula_units_Z   1
loop_
 _symmetry_equiv_pos_site_id
 _symmetry_equiv_pos_as_xyz
  1  'x, y, z'
loop_
 _atom_site_type_symbol
 _atom_site_label
 _atom_site_symmetry_multiplicity
 _atom_site_fract_x
 _atom_site_fract_y
 _atom_site_fract_z
 _atom_site_occupancy
  Zr  Zr0  1  0.99999900  0.99999900  0.00000100  1
  Ti  Ti0  1  0.25000000  0.25000000  0.25000000  1
  Cr  Cr0  1  0.62479605  0.62479605  0.12561384  1
  Cr  Cr1  1  0.62479605  0.12561384  0.62479605  1
  Cr  Cr2  1  0.12561384  0.62479605  0.62479605  1
  Cr  Cr3  1  0.62479605  0.62479605  0.62479605  1
loop_
_geom_bond_atom_site_label_1
_geom_bond_atom_site_label_2
_geom_bond_distance
_geom_bond_site_symmetry_2
Ti0 Zr0 3.020382 1_455
Ti0 Zr0 3.020382 1_545
Ti0 Zr0 3.020382 1_446
Ti0 Zr0 3.020383 1_445
Cr0 Cr3 2.462094 1_555
Cr0 Cr1 2.462098 1_555
Cr0 Cr2 2.462098 1_555
Cr0 Cr3 2.470161 1_554
Cr0 Cr2 2.470165 1_654
Cr0 Cr1 2.470165 1_564
Cr0 Ti0 2.891367 1_565
Cr0 Ti0 2.891367 1_655
Cr0 Ti0 2.891371 1_555
Cr0 Zr0 2.892214 1_555
Cr0 Zr0 2.892235 1_455
Cr0 Zr0 2.892235 1_545
Cr1 Cr3 2.462098 1_555
Cr1 Cr2 2.462103 1_555
Cr1 Cr3 2.470166 1_545
Cr1 Cr2 2.470170 1_645
Cr1 Ti0 2.891361 1_556
Cr1 Ti0 2.891365 1_655
Cr1 Ti0 2.891370 1_555
Cr1 Zr0 2.892217 1_546
Cr1 Zr0 2.892225 1_545
Cr1 Zr0 2.892237 1_446
Cr2 Cr3 2.462098 1_555
Cr2 Cr3 2.470166 1_455
Cr2 Ti0 2.891361 1_556
Cr2 Ti0 2.891365 1_565
Cr2 Ti0 2.891370 1_555
Cr2 Zr0 2.892217 1_456
Cr2 Zr0 2.892225 1_455
Cr2 Zr0 2.892237 1_446
Cr3 Ti0 2.891367 1_556
Cr3 Ti0 2.891371 1_565
Cr3 Ti0 2.891371 1_655
Cr3 Zr0 2.892218 1_555
Cr3 Zr0 2.892231 1_456
Cr3 Zr0 2.892231 1_546
