# generated using pymatgen
data_BaNdCuBO5
_symmetry_space_group_name_H-M   'P 1'
_cell_length_a   5.55492700
_cell_length_b   5.55492700
_cell_length_c   7.65796200
_cell_angle_alpha   90.00000000
_cell_angle_beta   90.00000000
_cell_angle_gamma   90.00000000
_symmetry_Int_Tables_number   1
_chemical_formula_structural   BaNdCuBO5
_chemical_formula_sum   'Ba2 Nd2 Cu2 B2 O10'
_cell_volume   236.30337205
_cell_formula_units_Z   2
loop_
 _symmetry_equiv_pos_site_id
 _symmetry_equiv_pos_as_xyz
  1  'x, y, z'
loop_
 _atom_site_type_symbol
 _atom_site_label
 _atom_site_symmetry_multiplicity
 _atom_site_fract_x
 _atom_site_fract_y
 _atom_site_fract_z
 _atom_site_occupancy
  Ba  Ba0  1  0.50000000  0.50000000  0.51241100  1
  Ba  Ba1  1  0.00000000  0.00000000  0.51241100  1
  Nd  Nd0  1  0.50000000  0.50000000  0.00475200  1
  Nd  Nd1  1  0.00000000  0.00000000  0.00475200  1
  Cu  Cu0  1  0.00000000  0.50000000  0.78398300  1
  Cu  Cu1  1  0.50000000  0.00000000  0.78398300  1
  B  B0  1  0.50000000  0.00000000  0.26387600  1
  B  B1  1  0.00000000  0.50000000  0.26387600  1
  O  O0  1  0.34484700  0.15515300  0.17612700  1
  O  O1  1  0.15515300  0.65515300  0.17612700  1
  O  O2  1  0.00000000  0.50000000  0.44607100  1
  O  O3  1  0.50000000  0.00000000  0.44607100  1
  O  O4  1  0.84484700  0.34484700  0.17612700  1
  O  O5  1  0.65515300  0.84484700  0.17612700  1
  O  O6  1  0.25241600  0.75241600  0.79902600  1
  O  O7  1  0.24758400  0.25241600  0.79902600  1
  O  O8  1  0.75241600  0.74758400  0.79902600  1
  O  O9  1  0.74758400  0.24758400  0.79902600  1
loop_
_geom_bond_atom_site_label_1
_geom_bond_atom_site_label_2
_geom_bond_distance
_geom_bond_site_symmetry_2
Ba0 O3 2.823543 1_555
Ba0 O2 2.823543 1_655
Ba0 O3 2.823543 1_565
Ba0 O2 2.823543 1_555
Ba0 O9 2.945342 1_555
Ba0 O6 2.945342 1_555
Ba0 O7 2.945342 1_555
Ba0 O8 2.945342 1_555
Ba1 O3 2.823543 1_555
Ba1 O2 2.823543 1_545
Ba1 O2 2.823543 1_555
Ba1 O3 2.823543 1_455
Ba1 O8 2.945342 1_445
Ba1 O7 2.945342 1_555
Ba1 O6 2.945342 1_545
Ba1 O9 2.945342 1_455
Nd0 O5 2.476829 1_555
Nd0 O0 2.476829 1_555
Nd0 O1 2.476829 1_555
Nd0 O4 2.476829 1_555
Nd0 O7 2.517842 1_554
Nd0 O8 2.517842 1_554
Nd0 O9 2.517842 1_554
Nd0 O6 2.517842 1_554
Nd1 O5 2.476829 1_445
Nd1 O1 2.476829 1_545
Nd1 O0 2.476829 1_555
Nd1 O4 2.476829 1_455
Nd1 O6 2.517842 1_544
Nd1 O7 2.517842 1_554
Nd1 O8 2.517842 1_444
Nd1 O9 2.517842 1_454
Cu0 O7 1.948392 1_555
Cu0 O8 1.948392 1_455
Cu0 O9 1.986286 1_455
Cu0 O6 1.986286 1_555
Cu0 O2 2.587717 1_555
Cu1 O9 1.948392 1_555
Cu1 O6 1.948392 1_545
Cu1 O8 1.986286 1_545
Cu1 O7 1.986286 1_555
Cu1 O3 2.587717 1_555
B0 O5 1.391824 1_545
B0 O0 1.391824 1_555
B0 O3 1.395242 1_555
B1 O4 1.391824 1_455
B1 O1 1.391824 1_555
B1 O2 1.395242 1_555
