# generated using pymatgen
data_Ce4MgRh
_symmetry_space_group_name_H-M   'P 1'
_cell_length_a   9.77482494
_cell_length_b   9.77482494
_cell_length_c   9.77482494
_cell_angle_alpha   60.00000000
_cell_angle_beta   60.00000000
_cell_angle_gamma   60.00000000
_symmetry_Int_Tables_number   1
_chemical_formula_structural   Ce4MgRh
_chemical_formula_sum   'Ce16 Mg4 Rh4'
_cell_volume   660.40745461
_cell_formula_units_Z   4
loop_
 _symmetry_equiv_pos_site_id
 _symmetry_equiv_pos_as_xyz
  1  'x, y, z'
loop_
 _atom_site_type_symbol
 _atom_site_label
 _atom_site_symmetry_multiplicity
 _atom_site_fract_x
 _atom_site_fract_y
 _atom_site_fract_z
 _atom_site_occupancy
  Ce  Ce0  1  0.34882400  0.34882400  0.34882400  1
  Ce  Ce1  1  0.34882400  0.34882400  0.95352900  1
  Ce  Ce2  1  0.34882400  0.95352900  0.34882400  1
  Ce  Ce3  1  0.95352900  0.34882400  0.34882400  1
  Ce  Ce4  1  0.80936300  0.19063700  0.19063700  1
  Ce  Ce5  1  0.19063700  0.80936300  0.80936300  1
  Ce  Ce6  1  0.19063700  0.80936300  0.19063700  1
  Ce  Ce7  1  0.80936300  0.19063700  0.80936300  1
  Ce  Ce8  1  0.19063700  0.19063700  0.80936300  1
  Ce  Ce9  1  0.80936300  0.80936300  0.19063700  1
  Ce  Ce10  1  0.93719800  0.56280200  0.56280200  1
  Ce  Ce11  1  0.56280200  0.93719800  0.93719800  1
  Ce  Ce12  1  0.56280200  0.93719800  0.56280200  1
  Ce  Ce13  1  0.93719800  0.56280200  0.93719800  1
  Ce  Ce14  1  0.56280200  0.56280200  0.93719800  1
  Ce  Ce15  1  0.93719800  0.93719800  0.56280200  1
  Mg  Mg0  1  0.58063700  0.58063700  0.58063700  1
  Mg  Mg1  1  0.58063700  0.58063700  0.25808900  1
  Mg  Mg2  1  0.58063700  0.25808900  0.58063700  1
  Mg  Mg3  1  0.25808900  0.58063700  0.58063700  1
  Rh  Rh0  1  0.14138700  0.14138700  0.14138700  1
  Rh  Rh1  1  0.14138700  0.14138700  0.57583900  1
  Rh  Rh2  1  0.14138700  0.57583900  0.14138700  1
  Rh  Rh3  1  0.57583900  0.14138700  0.14138700  1
loop_
_geom_bond_atom_site_label_1
_geom_bond_atom_site_label_2
_geom_bond_distance
_geom_bond_site_symmetry_2
Ce0 Rh3 2.873923 1_555
Ce0 Rh1 2.873923 1_555
Ce0 Rh2 2.873923 1_555
Ce0 Mg2 3.488634 1_555
Ce0 Mg3 3.488634 1_555
Ce0 Mg1 3.488634 1_555
Ce0 Ce10 3.533000 1_455
Ce0 Ce14 3.533000 1_554
Ce0 Ce12 3.533000 1_545
Ce1 Rh2 2.873917 1_556
Ce1 Rh3 2.873917 1_556
Ce1 Rh0 2.873924 1_556
Ce1 Mg0 3.488638 1_555
Ce1 Mg3 3.488642 1_555
Ce1 Mg2 3.488642 1_555
Ce1 Ce14 3.532994 1_555
Ce1 Ce13 3.533003 1_455
Ce1 Ce11 3.533003 1_545
Ce2 Rh1 2.873917 1_565
Ce2 Rh3 2.873917 1_565
Ce2 Rh0 2.873924 1_565
Ce2 Mg0 3.488638 1_555
Ce2 Mg1 3.488642 1_555
Ce2 Mg3 3.488642 1_555
Ce3 Rh1 2.873917 1_655
Ce3 Rh2 2.873917 1_655
Ce3 Rh0 2.873924 1_655
Ce3 Mg0 3.488638 1_555
Ce3 Mg1 3.488642 1_555
Ce3 Mg2 3.488642 1_555
Ce4 Rh0 2.846678 1_655
Ce4 Rh3 2.846678 1_555
Ce4 Mg1 3.533034 1_555
Ce4 Mg2 3.533034 1_555
Ce5 Rh2 2.846678 1_556
Ce5 Rh1 2.846678 1_565
Ce5 Mg3 3.533034 1_555
Ce5 Mg0 3.533034 1_555
Ce6 Rh0 2.846678 1_565
Ce6 Rh2 2.846678 1_555
Ce6 Mg1 3.533034 1_555
Ce6 Mg3 3.533034 1_555
Ce7 Rh1 2.846678 1_655
Ce7 Rh3 2.846678 1_556
Ce7 Mg2 3.533034 1_555
Ce7 Mg0 3.533034 1_555
Ce8 Rh0 2.846678 1_556
Ce8 Rh1 2.846678 1_555
Ce8 Mg2 3.533034 1_555
Ce8 Mg3 3.533034 1_555
Ce9 Rh3 2.846678 1_565
Ce9 Rh2 2.846678 1_655
Ce9 Mg1 3.533034 1_555
Ce9 Mg0 3.533034 1_555
Ce10 Mg3 3.320154 1_655
Ce10 Mg0 3.320154 1_555
Ce10 Rh1 3.532128 1_655
Ce10 Rh2 3.532128 1_655
Ce10 Ce3 3.532994 1_555
Ce10 Ce6 3.656570 1_655
Ce10 Ce8 3.656570 1_655
Ce10 Ce7 3.656570 1_555
Ce10 Ce9 3.656570 1_555
Ce10 Ce15 3.659655 1_555
Ce10 Ce13 3.659655 1_555
Ce10 Ce12 3.659655 1_555
Ce10 Ce14 3.659655 1_555
Ce11 Mg2 3.320154 1_565
Ce11 Mg1 3.320154 1_556
Ce11 Rh3 3.532128 1_566
Ce11 Rh0 3.532128 1_566
Ce11 Ce2 3.533003 1_556
Ce11 Ce7 3.656570 1_565
Ce11 Ce9 3.656570 1_556
Ce11 Ce6 3.656570 1_556
Ce11 Ce8 3.656570 1_565
Ce11 Ce15 3.659655 1_555
Ce11 Ce13 3.659655 1_555
Ce11 Ce12 3.659655 1_555
Ce11 Ce14 3.659655 1_555
Ce12 Mg2 3.320154 1_565
Ce12 Mg0 3.320154 1_555
Ce12 Rh1 3.532128 1_565
Ce12 Rh3 3.532128 1_565
Ce12 Ce2 3.532994 1_555
Ce12 Ce4 3.656570 1_565
Ce12 Ce8 3.656570 1_565
Ce12 Ce5 3.656570 1_555
Ce12 Ce9 3.656570 1_555
Ce12 Ce15 3.659655 1_555
Ce12 Ce14 3.659655 1_555
Ce13 Mg3 3.320154 1_655
Ce13 Mg1 3.320154 1_556
Ce13 Rh2 3.532128 1_656
Ce13 Rh0 3.532128 1_656
Ce13 Ce3 3.533003 1_556
Ce13 Ce5 3.656570 1_655
Ce13 Ce9 3.656570 1_556
Ce13 Ce4 3.656570 1_556
Ce13 Ce8 3.656570 1_655
Ce13 Ce15 3.659655 1_555
Ce13 Ce14 3.659655 1_555
Ce14 Mg1 3.320154 1_556
Ce14 Mg0 3.320154 1_555
Ce14 Rh2 3.532128 1_556
Ce14 Rh3 3.532128 1_556
Ce14 Ce6 3.656570 1_556
Ce14 Ce4 3.656570 1_556
Ce14 Ce7 3.656570 1_555
Ce14 Ce5 3.656570 1_555
Ce15 Mg3 3.320154 1_655
Ce15 Mg2 3.320154 1_565
Ce15 Rh1 3.532128 1_665
Ce15 Rh0 3.532128 1_665
Ce15 Ce2 3.533003 1_655
Ce15 Ce3 3.533003 1_565
Ce15 Ce7 3.656570 1_565
Ce15 Ce5 3.656570 1_655
Ce15 Ce4 3.656570 1_565
Ce15 Ce6 3.656570 1_655
Mg0 Mg1 3.152850 1_555
Mg0 Mg2 3.152850 1_555
Mg0 Mg3 3.152850 1_555
Mg1 Mg2 3.152850 1_555
Mg1 Mg3 3.152850 1_555
Mg2 Mg3 3.152850 1_555
