# generated using pymatgen
data_PH11(C2Cl)2
_symmetry_space_group_name_H-M   'P 1'
_cell_length_a   10.81784100
_cell_length_b   12.75878000
_cell_length_c   13.75408300
_cell_angle_alpha   90.00000000
_cell_angle_beta   90.00000000
_cell_angle_gamma   90.00000000
_symmetry_Int_Tables_number   1
_chemical_formula_structural   PH11(C2Cl)2
_chemical_formula_sum   'P8 H88 C32 Cl16'
_cell_volume   1898.37227984
_cell_formula_units_Z   8
loop_
 _symmetry_equiv_pos_site_id
 _symmetry_equiv_pos_as_xyz
  1  'x, y, z'
loop_
 _atom_site_type_symbol
 _atom_site_label
 _atom_site_symmetry_multiplicity
 _atom_site_fract_x
 _atom_site_fract_y
 _atom_site_fract_z
 _atom_site_occupancy
  P  P0  1  0.80141100  0.40276800  0.13165600  1
  P  P1  1  0.69858900  0.90276800  0.86834400  1
  P  P2  1  0.30141100  0.59723200  0.36834400  1
  P  P3  1  0.19858900  0.09723200  0.63165600  1
  P  P4  1  0.19858900  0.59723200  0.86834400  1
  P  P5  1  0.30141100  0.09723200  0.13165600  1
  P  P6  1  0.69858900  0.40276800  0.63165600  1
  P  P7  1  0.80141100  0.90276800  0.36834400  1
  H  H0  1  0.86385700  0.36792000  0.97097000  1
  H  H1  1  0.63614300  0.86792000  0.02903000  1
  H  H2  1  0.36385700  0.63208000  0.52903000  1
  H  H3  1  0.13614300  0.13208000  0.47097000  1
  H  H4  1  0.13614300  0.63208000  0.02903000  1
  H  H5  1  0.36385700  0.13208000  0.97097000  1
  H  H6  1  0.63614300  0.36792000  0.47097000  1
  H  H7  1  0.86385700  0.86792000  0.52903000  1
  H  H8  1  0.83650800  0.24805000  0.03947300  1
  H  H9  1  0.66349200  0.74805000  0.96052700  1
  H  H10  1  0.33650800  0.75195000  0.46052700  1
  H  H11  1  0.16349200  0.25195000  0.53947300  1
  H  H12  1  0.16349200  0.75195000  0.96052700  1
  H  H13  1  0.33650800  0.25195000  0.03947300  1
  H  H14  1  0.66349200  0.24805000  0.53947300  1
  H  H15  1  0.83650800  0.74805000  0.46052700  1
  H  H16  1  0.97670300  0.32466700  0.05758700  1
  H  H17  1  0.52329700  0.82466700  0.94241300  1
  H  H18  1  0.47670300  0.67533300  0.44241300  1
  H  H19  1  0.02329700  0.17533300  0.55758700  1
  H  H20  1  0.02329700  0.67533300  0.94241300  1
  H  H21  1  0.47670300  0.17533300  0.05758700  1
  H  H22  1  0.52329700  0.32466700  0.55758700  1
  H  H23  1  0.97670300  0.82466700  0.44241300  1
  H  H24  1  0.97648400  0.50997900  0.15933200  1
  H  H25  1  0.52351600  0.00997900  0.84066800  1
  H  H26  1  0.47648400  0.49002100  0.34066800  1
  H  H27  1  0.02351600  0.99002100  0.65933200  1
  H  H28  1  0.02351600  0.49002100  0.84066800  1
  H  H29  1  0.47648400  0.99002100  0.15933200  1
  H  H30  1  0.52351600  0.50997900  0.65933200  1
  H  H31  1  0.97648400  0.00997900  0.34066800  1
  H  H32  1  0.83666300  0.56213700  0.21463800  1
  H  H33  1  0.66333700  0.06213700  0.78536200  1
  H  H34  1  0.33666300  0.43786300  0.28536200  1
  H  H35  1  0.16333700  0.93786300  0.71463800  1
  H  H36  1  0.16333700  0.43786300  0.78536200  1
  H  H37  1  0.33666300  0.93786300  0.21463800  1
  H  H38  1  0.66333700  0.56213700  0.71463800  1
  H  H39  1  0.83666300  0.06213700  0.28536200  1
  H  H40  1  0.86178500  0.57227600  0.08386700  1
  H  H41  1  0.63821500  0.07227600  0.91613300  1
  H  H42  1  0.36178500  0.42772400  0.41613300  1
  H  H43  1  0.13821500  0.92772400  0.58386700  1
  H  H44  1  0.13821500  0.42772400  0.91613300  1
  H  H45  1  0.36178500  0.92772400  0.08386700  1
  H  H46  1  0.63821500  0.57227600  0.58386700  1
  H  H47  1  0.86178500  0.07227600  0.41613300  1
  H  H48  1  0.59775300  0.47203500  0.15572300  1
  H  H49  1  0.90224700  0.97203500  0.84427700  1
  H  H50  1  0.09775300  0.52796500  0.34427700  1
  H  H51  1  0.40224700  0.02796500  0.65572300  1
  H  H52  1  0.40224700  0.52796500  0.84427700  1
  H  H53  1  0.09775300  0.02796500  0.15572300  1
  H  H54  1  0.90224700  0.47203500  0.65572300  1
  H  H55  1  0.59775300  0.97203500  0.34427700  1
  H  H56  1  0.59439400  0.34578600  0.09837800  1
  H  H57  1  0.90560600  0.84578600  0.90162200  1
  H  H58  1  0.09439400  0.65421400  0.40162200  1
  H  H59  1  0.40560600  0.15421400  0.59837800  1
  H  H60  1  0.40560600  0.65421400  0.90162200  1
  H  H61  1  0.09439400  0.15421400  0.09837800  1
  H  H62  1  0.90560600  0.34578600  0.59837800  1
  H  H63  1  0.59439400  0.84578600  0.40162200  1
  H  H64  1  0.63842400  0.46017700  0.02940000  1
  H  H65  1  0.86157600  0.96017700  0.97060000  1
  H  H66  1  0.13842400  0.53982300  0.47060000  1
  H  H67  1  0.36157600  0.03982300  0.52940000  1
  H  H68  1  0.36157600  0.53982300  0.97060000  1
  H  H69  1  0.13842400  0.03982300  0.02940000  1
  H  H70  1  0.86157600  0.46017700  0.52940000  1
  H  H71  1  0.63842400  0.96017700  0.47060000  1
  H  H72  1  0.74791900  0.37722700  0.29858800  1
  H  H73  1  0.75208100  0.87722700  0.70141200  1
  H  H74  1  0.24791900  0.62277300  0.20141200  1
  H  H75  1  0.25208100  0.12277300  0.79858800  1
  H  H76  1  0.25208100  0.62277300  0.70141200  1
  H  H77  1  0.24791900  0.12277300  0.29858800  1
  H  H78  1  0.75208100  0.37722700  0.79858800  1
  H  H79  1  0.74791900  0.87722700  0.20141200  1
  H  H80  1  0.75801700  0.25316000  0.23156600  1
  H  H81  1  0.74198300  0.75316000  0.76843400  1
  H  H82  1  0.25801700  0.74684000  0.26843400  1
  H  H83  1  0.24198300  0.24684000  0.73156600  1
  H  H84  1  0.24198300  0.74684000  0.76843400  1
  H  H85  1  0.25801700  0.24684000  0.23156600  1
  H  H86  1  0.74198300  0.25316000  0.73156600  1
  H  H87  1  0.75801700  0.75316000  0.26843400  1
  C  C0  1  0.80033200  0.33000200  0.24587700  1
  C  C1  1  0.69966800  0.83000200  0.75412300  1
  C  C2  1  0.30033200  0.66999800  0.25412300  1
  C  C3  1  0.19966800  0.16999800  0.74587700  1
  C  C4  1  0.19966800  0.66999800  0.75412300  1
  C  C5  1  0.30033200  0.16999800  0.24587700  1
  C  C6  1  0.69966800  0.33000200  0.74587700  1
  C  C7  1  0.80033200  0.83000200  0.25412300  1
  C  C8  1  0.87748200  0.32703800  0.04036500  1
  C  C9  1  0.62251800  0.82703800  0.95963500  1
  C  C10  1  0.37748200  0.67296200  0.45963500  1
  C  C11  1  0.12251800  0.17296200  0.54036500  1
  C  C12  1  0.12251800  0.67296200  0.95963500  1
  C  C13  1  0.37748200  0.17296200  0.04036500  1
  C  C14  1  0.62251800  0.32703800  0.54036500  1
  C  C15  1  0.87748200  0.82703800  0.45963500  1
  C  C16  1  0.87700700  0.52516500  0.14972400  1
  C  C17  1  0.62299300  0.02516500  0.85027600  1
  C  C18  1  0.37700700  0.47483500  0.35027600  1
  C  C19  1  0.12299300  0.97483500  0.64972400  1
  C  C20  1  0.12299300  0.47483500  0.85027600  1
  C  C21  1  0.37700700  0.97483500  0.14972400  1
  C  C22  1  0.62299300  0.52516500  0.64972400  1
  C  C23  1  0.87700700  0.02516500  0.35027600  1
  C  C24  1  0.64173100  0.42174300  0.10113800  1
  C  C25  1  0.85826900  0.92174300  0.89886200  1
  C  C26  1  0.14173100  0.57825700  0.39886200  1
  C  C27  1  0.35826900  0.07825700  0.60113800  1
  C  C28  1  0.35826900  0.57825700  0.89886200  1
  C  C29  1  0.14173100  0.07825700  0.10113800  1
  C  C30  1  0.85826900  0.42174300  0.60113800  1
  C  C31  1  0.64173100  0.92174300  0.39886200  1
  Cl  Cl0  1  0.95185500  0.31033600  0.29344600  1
  Cl  Cl1  1  0.54814500  0.81033600  0.70655400  1
  Cl  Cl2  1  0.45185500  0.68966400  0.20655400  1
  Cl  Cl3  1  0.04814500  0.18966400  0.79344600  1
  Cl  Cl4  1  0.04814500  0.68966400  0.70655400  1
  Cl  Cl5  1  0.45185500  0.18966400  0.29344600  1
  Cl  Cl6  1  0.54814500  0.31033600  0.79344600  1
  Cl  Cl7  1  0.95185500  0.81033600  0.20655400  1
  Cl  Cl8  1  0.71408100  0.57506200  0.38598500  1
  Cl  Cl9  1  0.78591900  0.07506200  0.61401500  1
  Cl  Cl10  1  0.21408100  0.42493800  0.11401500  1
  Cl  Cl11  1  0.28591900  0.92493800  0.88598500  1
  Cl  Cl12  1  0.28591900  0.42493800  0.61401500  1
  Cl  Cl13  1  0.21408100  0.92493800  0.38598500  1
  Cl  Cl14  1  0.78591900  0.57506200  0.88598500  1
  Cl  Cl15  1  0.71408100  0.07506200  0.11401500  1
loop_
_geom_bond_atom_site_label_1
_geom_bond_atom_site_label_2
_geom_bond_distance
_geom_bond_site_symmetry_2
C0 H80 1.099768 1_555
C0 H72 1.100065 1_555
C0 Cl0 1.782651 1_555
C0 P0 1.824864 1_555
C1 H81 1.099768 1_555
C1 H73 1.100065 1_555
C1 Cl1 1.782651 1_555
C1 P1 1.824864 1_555
C2 H82 1.099768 1_555
C2 H74 1.100065 1_555
C2 Cl2 1.782651 1_555
C2 P2 1.824864 1_555
C3 H83 1.099768 1_555
C3 H75 1.100065 1_555
C3 Cl3 1.782651 1_555
C3 P3 1.824864 1_555
C4 H84 1.099768 1_555
C4 H76 1.100065 1_555
C4 Cl4 1.782651 1_555
C4 P4 1.824864 1_555
C5 H85 1.099768 1_555
C5 H77 1.100065 1_555
C5 Cl5 1.782651 1_555
C5 P5 1.824864 1_555
C6 H86 1.099768 1_555
C6 H78 1.100065 1_555
C6 Cl6 1.782651 1_555
C6 P6 1.824864 1_555
C7 H87 1.099768 1_555
C7 H79 1.100065 1_555
C7 Cl7 1.782651 1_555
C7 P7 1.824864 1_555
C8 H0 1.097633 1_554
C8 H16 1.099600 1_555
C8 H8 1.101028 1_555
C8 P0 1.785324 1_555
C9 H1 1.097633 1_556
C9 H17 1.099600 1_555
C9 H9 1.101028 1_555
C9 P1 1.785324 1_555
C10 H2 1.097633 1_555
C10 H18 1.099600 1_555
C10 H10 1.101028 1_555
C10 P2 1.785324 1_555
C11 H3 1.097633 1_555
C11 H19 1.099600 1_555
C11 H11 1.101028 1_555
C11 P3 1.785324 1_555
C12 H4 1.097633 1_556
C12 H20 1.099600 1_555
C12 H12 1.101028 1_555
C12 P4 1.785324 1_555
C13 H5 1.097633 1_554
C13 H21 1.099600 1_555
C13 H13 1.101028 1_555
C13 P5 1.785324 1_555
C14 H6 1.097633 1_555
C14 H22 1.099600 1_555
C14 H14 1.101028 1_555
C14 P6 1.785324 1_555
C15 H7 1.097633 1_555
C15 H23 1.099600 1_555
C15 H15 1.101028 1_555
C15 P7 1.785324 1_555
C16 H40 1.099495 1_555
C16 H32 1.100065 1_555
C16 H24 1.101387 1_555
C16 P0 1.780235 1_555
C17 H41 1.099495 1_555
C17 H33 1.100065 1_555
C17 H25 1.101387 1_555
C17 P1 1.780235 1_545
C18 H42 1.099495 1_555
C18 H34 1.100065 1_555
C18 H26 1.101387 1_555
C18 P2 1.780235 1_555
C19 H43 1.099495 1_555
C19 H35 1.100065 1_555
C19 H27 1.101387 1_555
C19 P3 1.780235 1_565
C20 H44 1.099495 1_555
C20 H36 1.100065 1_555
C20 H28 1.101387 1_555
C20 P4 1.780235 1_555
C21 H45 1.099495 1_555
C21 H37 1.100065 1_555
C21 H29 1.101387 1_555
C21 P5 1.780235 1_565
C22 H46 1.099495 1_555
C22 H38 1.100065 1_555
C22 H30 1.101387 1_555
C22 P6 1.780235 1_555
C23 H47 1.099495 1_555
C23 H39 1.100065 1_555
C23 H31 1.101387 1_555
C23 P7 1.780235 1_545
C24 H48 1.096230 1_555
C24 H56 1.096751 1_555
C24 H64 1.102407 1_555
C24 P0 1.794069 1_555
C25 H49 1.096230 1_555
C25 H57 1.096751 1_555
C25 H65 1.102407 1_555
C25 P1 1.794069 1_555
C26 H50 1.096230 1_555
C26 H58 1.096751 1_555
C26 H66 1.102407 1_555
C26 P2 1.794069 1_555
C27 H51 1.096230 1_555
C27 H59 1.096751 1_555
C27 H67 1.102407 1_555
C27 P3 1.794069 1_555
C28 H52 1.096230 1_555
C28 H60 1.096751 1_555
C28 H68 1.102407 1_555
C28 P4 1.794069 1_555
C29 H53 1.096230 1_555
C29 H61 1.096751 1_555
C29 H69 1.102407 1_555
C29 P5 1.794069 1_555
C30 H54 1.096230 1_555
C30 H62 1.096751 1_555
C30 H70 1.102407 1_555
C30 P6 1.794069 1_555
C31 H55 1.096230 1_555
C31 H63 1.096751 1_555
C31 H71 1.102407 1_555
C31 P7 1.794069 1_555
