# generated using pymatgen
data_BaLaMnSnO6
_symmetry_space_group_name_H-M   'P 1'
_cell_length_a   5.69835700
_cell_length_b   5.71437012
_cell_length_c   5.80684984
_cell_angle_alpha   61.73662792
_cell_angle_beta   60.61432437
_cell_angle_gamma   89.99826962
_symmetry_Int_Tables_number   1
_chemical_formula_structural   BaLaMnSnO6
_chemical_formula_sum   'Ba1 La1 Mn1 Sn1 O6'
_cell_volume   138.30620850
_cell_formula_units_Z   1
loop_
 _symmetry_equiv_pos_site_id
 _symmetry_equiv_pos_as_xyz
  1  'x, y, z'
loop_
 _atom_site_type_symbol
 _atom_site_label
 _atom_site_symmetry_multiplicity
 _atom_site_fract_x
 _atom_site_fract_y
 _atom_site_fract_z
 _atom_site_occupancy
  Ba  Ba0  1  0.75231400  0.25585000  0.49538300  1
  La  La0  1  0.24681700  0.72713500  0.50638500  1
  Mn  Mn0  1  0.50420400  0.50929000  0.99159400  1
  Sn  Sn0  1  0.00018900  0.99914500  0.99962900  1
  O  O0  1  0.76120000  0.80699300  0.47759400  1
  O  O1  1  0.23571200  0.13647000  0.52857800  1
  O  O2  1  0.28320400  0.31775900  0.91586400  1
  O  O3  1  0.23011700  0.71479700  0.08454900  1
  O  O4  1  0.80091900  0.31776600  0.91586800  1
  O  O5  1  0.68532400  0.71479400  0.08455600  1
loop_
_geom_bond_atom_site_label_1
_geom_bond_atom_site_label_2
_geom_bond_distance
_geom_bond_site_symmetry_2
Ba0 O0 2.614940 1_545
Ba0 O2 2.765011 1_555
Ba0 O4 2.765067 1_555
Ba0 O3 2.771841 1_655
Ba0 O5 2.771865 1_555
Ba0 O1 2.913183 1_655
Ba0 O1 2.913263 1_555
Ba0 O2 3.079501 1_654
Ba0 O4 3.079596 1_554
Ba0 O0 3.101443 1_555
Ba0 O5 3.179703 1_546
Ba0 O3 3.179720 1_546
La0 O1 2.401964 1_565
La0 O2 2.526899 1_555
La0 O4 2.526984 1_455
La0 O5 2.530955 1_555
La0 O3 2.531123 1_555
La0 O0 2.876574 1_555
La0 O0 2.876697 1_455
Mn0 O3 1.970448 1_556
Mn0 O5 1.970490 1_556
Mn0 O4 1.993978 1_555
Mn0 O2 1.994135 1_555
Mn0 O0 2.202066 1_555
Mn0 O1 2.372684 1_556
O0 Sn0 2.041589 1_654
O1 Sn0 2.064840 1_545
O2 Sn0 2.131660 1_545
O3 Sn0 2.115448 1_554
O4 Sn0 2.131707 1_645
O5 Sn0 2.115560 1_654
