# generated using pymatgen
data_V2HgO6
_symmetry_space_group_name_H-M   'P 1'
_cell_length_a   4.89777298
_cell_length_b   5.95794785
_cell_length_c   14.50718182
_cell_angle_alpha   90.00000000
_cell_angle_beta   90.00000000
_cell_angle_gamma   90.00000000
_symmetry_Int_Tables_number   1
_chemical_formula_structural   V2HgO6
_chemical_formula_sum   'V8 Hg4 O24'
_cell_volume   423.32937230
_cell_formula_units_Z   4
loop_
 _symmetry_equiv_pos_site_id
 _symmetry_equiv_pos_as_xyz
  1  'x, y, z'
loop_
 _atom_site_type_symbol
 _atom_site_label
 _atom_site_symmetry_multiplicity
 _atom_site_fract_x
 _atom_site_fract_y
 _atom_site_fract_z
 _atom_site_occupancy
  V  V0  1  0.03236466  0.43941607  0.82925738  1
  V  V1  1  0.53236466  0.06058393  0.82925738  1
  V  V2  1  0.96763534  0.56058393  0.17074262  1
  V  V3  1  0.46763534  0.43941607  0.32925738  1
  V  V4  1  0.53236466  0.56058393  0.67074262  1
  V  V5  1  0.03236466  0.93941607  0.67074262  1
  V  V6  1  0.96763534  0.06058393  0.32925738  1
  V  V7  1  0.46763534  0.93941607  0.17074262  1
  Hg  Hg0  1  0.50000000  0.00000000  0.50000000  1
  Hg  Hg1  1  -0.00000000  0.00000000  0.00000000  1
  Hg  Hg2  1  0.50000000  0.50000000  0.00000000  1
  Hg  Hg3  1  -0.00000000  0.50000000  0.50000000  1
  O  O0  1  0.93262972  0.62561729  0.90387459  1
  O  O1  1  0.66628766  0.17709545  0.39037951  1
  O  O2  1  0.43262972  0.87438271  0.90387459  1
  O  O3  1  0.27824545  0.59985757  0.24727430  1
  O  O4  1  0.33371234  0.32290455  0.89037951  1
  O  O5  1  0.33371234  0.82290455  0.60962049  1
  O  O6  1  0.72175455  0.90014243  0.74727430  1
  O  O7  1  0.56737028  0.12561729  0.09612541  1
  O  O8  1  0.16628766  0.82290455  0.10962049  1
  O  O9  1  0.77824545  0.90014243  0.24727430  1
  O  O10  1  0.22175455  0.59985757  0.74727430  1
  O  O11  1  0.66628766  0.67709545  0.10962049  1
  O  O12  1  0.06737028  0.37438271  0.09612541  1
  O  O13  1  0.56737028  0.62561729  0.40387459  1
  O  O14  1  0.22175455  0.09985757  0.75272570  1
  O  O15  1  0.16628766  0.32290455  0.39037951  1
  O  O16  1  0.93262972  0.12561729  0.59612541  1
  O  O17  1  0.83371234  0.17709545  0.89037951  1
  O  O18  1  0.06737028  0.87438271  0.40387459  1
  O  O19  1  0.72175455  0.40014243  0.75272570  1
  O  O20  1  0.43262972  0.37438271  0.59612541  1
  O  O21  1  0.83371234  0.67709545  0.60962049  1
  O  O22  1  0.27824545  0.09985757  0.25272570  1
  O  O23  1  0.77824545  0.40014243  0.25272570  1
loop_
_geom_bond_atom_site_label_1
_geom_bond_atom_site_label_2
_geom_bond_distance
_geom_bond_site_symmetry_2
Hg0 O5 2.074995 1_545
Hg0 O1 2.074995 1_555
Hg1 O17 2.074995 1_454
Hg1 O8 2.074995 1_545
Hg2 O4 2.074995 1_554
Hg2 O11 2.074995 1_555
Hg3 O21 2.074995 1_455
Hg3 O15 2.074995 1_555
O0 V0 1.625147 1_655
O1 V6 1.856476 1_555
O1 V3 2.043411 1_555
O2 V1 1.625147 1_565
O3 V3 1.785695 1_555
O3 V2 1.897834 1_455
O3 V7 2.487150 1_555
O4 V0 1.856476 1_555
O4 V1 2.043411 1_555
O5 V5 1.856476 1_555
O5 V4 2.043411 1_555
O6 V1 1.785695 1_565
O6 V5 1.897834 1_655
O6 V4 2.487150 1_555
O7 V7 1.625147 1_545
O8 V7 1.856476 1_555
O8 V2 2.043411 1_455
O9 V6 1.785695 1_565
O9 V7 1.897834 1_555
O9 V2 2.487150 1_555
O10 V0 1.785695 1_555
O10 V4 1.897834 1_555
O10 V5 2.487150 1_555
O11 V2 1.856476 1_555
O11 V7 2.043411 1_555
O12 V2 1.625147 1_455
O13 V3 1.625147 1_555
O14 V5 1.785695 1_545
O14 V1 1.897834 1_555
O14 V0 2.487150 1_555
O15 V3 1.856476 1_555
O15 V6 2.043411 1_455
O16 V5 1.625147 1_645
O17 V1 1.856476 1_555
O17 V0 2.043411 1_655
O18 V6 1.625147 1_465
O19 V4 1.785695 1_555
O19 V0 1.897834 1_655
O19 V1 2.487150 1_555
O20 V4 1.625147 1_555
O21 V4 1.856476 1_555
O21 V5 2.043411 1_655
O22 V7 1.785695 1_545
O22 V6 1.897834 1_455
O22 V3 2.487150 1_555
O23 V2 1.785695 1_555
O23 V3 1.897834 1_555
O23 V6 2.487150 1_555
