# generated using pymatgen
data_CaMnBiO5
_symmetry_space_group_name_H-M   'P 1'
_cell_length_a   5.85472756
_cell_length_b   8.29307631
_cell_length_c   11.74578800
_cell_angle_alpha   90.00000000
_cell_angle_beta   90.00000000
_cell_angle_gamma   111.37593045
_symmetry_Int_Tables_number   1
_chemical_formula_structural   CaMnBiO5
_chemical_formula_sum   'Ca4 Mn4 Bi4 O20'
_cell_volume   531.06989402
_cell_formula_units_Z   4
loop_
 _symmetry_equiv_pos_site_id
 _symmetry_equiv_pos_as_xyz
  1  'x, y, z'
loop_
 _atom_site_type_symbol
 _atom_site_label
 _atom_site_symmetry_multiplicity
 _atom_site_fract_x
 _atom_site_fract_y
 _atom_site_fract_z
 _atom_site_occupancy
  Ca  Ca0  1  0.63913100  0.19161100  0.91317600  1
  Ca  Ca1  1  0.36086900  0.80838900  0.08682400  1
  Ca  Ca2  1  0.86086900  0.30838900  0.41317600  1
  Ca  Ca3  1  0.13913100  0.69161100  0.58682400  1
  Mn  Mn0  1  0.79832100  0.97240200  0.64671200  1
  Mn  Mn1  1  0.20167900  0.02759800  0.35328800  1
  Mn  Mn2  1  0.70167900  0.52759800  0.14671200  1
  Mn  Mn3  1  0.29832100  0.47240200  0.85328800  1
  Bi  Bi0  1  0.13204600  0.16383100  0.09707900  1
  Bi  Bi1  1  0.86795400  0.83616900  0.90292100  1
  Bi  Bi2  1  0.63204600  0.66383100  0.40292100  1
  Bi  Bi3  1  0.36795400  0.33616900  0.59707900  1
  O  O0  1  0.56282600  0.33303300  0.07936900  1
  O  O1  1  0.07084900  0.33256500  0.93627300  1
  O  O2  1  0.49293000  0.61767400  0.18558500  1
  O  O3  1  0.74130600  0.51137700  0.52595200  1
  O  O4  1  0.80449800  0.50310700  0.28177500  1
  O  O5  1  0.30449800  0.00310700  0.21822500  1
  O  O6  1  0.57084900  0.83256500  0.56372700  1
  O  O7  1  0.42915100  0.16743500  0.43627300  1
  O  O8  1  0.25869400  0.48862300  0.47404800  1
  O  O9  1  0.93717400  0.16696700  0.57936900  1
  O  O10  1  0.19550200  0.49689300  0.71822500  1
  O  O11  1  0.43717400  0.66696700  0.92063100  1
  O  O12  1  0.06282600  0.83303300  0.42063100  1
  O  O13  1  0.69550200  0.99689300  0.78177500  1
  O  O14  1  0.75869400  0.98862300  0.02595200  1
  O  O15  1  0.24130600  0.01137700  0.97404800  1
  O  O16  1  0.50707000  0.38232600  0.81441500  1
  O  O17  1  0.92915100  0.66743500  0.06372700  1
  O  O18  1  0.00707000  0.88232600  0.68558500  1
  O  O19  1  0.99293000  0.11767400  0.31441500  1
loop_
_geom_bond_atom_site_label_1
_geom_bond_atom_site_label_2
_geom_bond_distance
_geom_bond_site_symmetry_2
Ca0 O16 2.310068 1_555
Ca0 O13 2.342467 1_545
Ca0 O15 2.373282 1_555
Ca0 O1 2.382209 1_655
Ca0 O0 2.401585 1_556
Ca0 O14 2.436703 1_546
Ca1 O2 2.310068 1_555
Ca1 O5 2.342467 1_565
Ca1 O14 2.373282 1_555
Ca1 O17 2.382209 1_455
Ca1 O11 2.401585 1_554
Ca1 O15 2.436703 1_564
Ca2 O19 2.310068 1_555
Ca2 O4 2.342467 1_555
Ca2 O8 2.373282 1_655
Ca2 O7 2.382209 1_555
Ca2 O9 2.401585 1_555
Ca2 O3 2.436703 1_555
Ca3 O18 2.310068 1_555
Ca3 O10 2.342467 1_555
Ca3 O3 2.373282 1_455
Ca3 O6 2.382209 1_555
Ca3 O12 2.401585 1_555
Ca3 O8 2.436703 1_555
Mn0 O18 1.710474 1_655
Mn0 O9 1.712854 1_565
Mn0 O6 1.715442 1_555
Mn0 O13 1.734788 1_555
Mn1 O19 1.710474 1_455
Mn1 O12 1.712854 1_545
Mn1 O7 1.715442 1_555
Mn1 O5 1.734788 1_555
Mn2 O2 1.710474 1_555
Mn2 O0 1.712854 1_555
Mn2 O17 1.715442 1_555
Mn2 O4 1.734788 1_555
Mn3 O16 1.710474 1_555
Mn3 O11 1.712854 1_555
Mn3 O1 1.715442 1_555
Mn3 O10 1.734788 1_555
Bi0 O15 2.164614 1_554
Bi0 O14 2.296077 1_445
Bi0 O0 2.406947 1_555
Bi0 O5 2.408704 1_555
Bi0 O1 2.453467 1_554
Bi0 O19 2.664458 1_455
Bi1 O14 2.164614 1_556
Bi1 O15 2.296077 1_665
Bi1 O11 2.406947 1_555
Bi1 O13 2.408704 1_555
Bi1 O17 2.453467 1_556
Bi1 O18 2.664458 1_655
Bi2 O3 2.164614 1_555
Bi2 O8 2.296077 1_555
Bi2 O12 2.406947 1_655
Bi2 O4 2.408704 1_555
Bi2 O6 2.453467 1_555
Bi2 O2 2.664458 1_555
Bi3 O8 2.164614 1_555
Bi3 O3 2.296077 1_555
Bi3 O9 2.406947 1_455
Bi3 O10 2.408704 1_555
Bi3 O7 2.453467 1_555
Bi3 O16 2.664458 1_555
