# generated using pymatgen
data_Er2TiO5
_symmetry_space_group_name_H-M   'P 1'
_cell_length_a   6.36720242
_cell_length_b   6.36720242
_cell_length_c   7.50825314
_cell_angle_alpha   68.69631759
_cell_angle_beta   68.69631759
_cell_angle_gamma   48.74412791
_symmetry_Int_Tables_number   1
_chemical_formula_structural   Er2TiO5
_chemical_formula_sum   'Er4 Ti2 O10'
_cell_volume   209.84491463
_cell_formula_units_Z   2
loop_
 _symmetry_equiv_pos_site_id
 _symmetry_equiv_pos_as_xyz
  1  'x, y, z'
loop_
 _atom_site_type_symbol
 _atom_site_label
 _atom_site_symmetry_multiplicity
 _atom_site_fract_x
 _atom_site_fract_y
 _atom_site_fract_z
 _atom_site_occupancy
  Er  Er0  1  0.37060500  0.35324700  0.25007600  1
  Er  Er1  1  0.64675300  0.62939500  0.24992400  1
  Er  Er2  1  0.35324700  0.37060500  0.75007600  1
  Er  Er3  1  0.62939500  0.64675300  0.74992400  1
  Ti  Ti0  1  0.00000000  0.00000000  0.00000000  1
  Ti  Ti1  1  0.00000000  0.00000000  0.50000000  1
  O  O0  1  0.97348600  0.68703400  0.14008300  1
  O  O1  1  0.24785500  0.60931800  0.45516200  1
  O  O2  1  0.60931800  0.24785500  0.95516200  1
  O  O3  1  0.31296600  0.02651400  0.35991700  1
  O  O4  1  0.68703400  0.97348600  0.64008300  1
  O  O5  1  0.83149600  0.16850400  0.25000000  1
  O  O6  1  0.39068200  0.75214500  0.04483800  1
  O  O7  1  0.75214500  0.39068200  0.54483800  1
  O  O8  1  0.02651400  0.31296600  0.85991700  1
  O  O9  1  0.16850400  0.83149600  0.75000000  1
loop_
_geom_bond_atom_site_label_1
_geom_bond_atom_site_label_2
_geom_bond_distance
_geom_bond_site_symmetry_2
Er0 O3 2.164055 1_555
Er0 O0 2.178776 1_455
Er0 O1 2.215741 1_555
Er0 O2 2.225447 1_554
Er0 O5 2.332844 1_555
Er0 O6 2.506596 1_555
Er1 O0 2.164055 1_555
Er1 O3 2.178776 1_565
Er1 O6 2.215741 1_555
Er1 O7 2.225447 1_555
Er1 O5 2.332844 1_555
Er1 O1 2.506596 1_555
Er2 O8 2.164055 1_555
Er2 O4 2.178776 1_545
Er2 O2 2.215741 1_555
Er2 O1 2.225447 1_555
Er2 O9 2.332844 1_555
Er2 O7 2.506596 1_555
Er3 O4 2.164055 1_555
Er3 O8 2.178776 1_655
Er3 O7 2.215741 1_555
Er3 O6 2.225447 1_556
Er3 O9 2.332844 1_555
Er3 O2 2.506596 1_555
O0 Ti0 1.974181 1_665
O1 Ti1 1.958784 1_565
O2 Ti0 1.958784 1_656
O3 Ti1 1.974181 1_555
O4 Ti1 1.974181 1_665
O5 Ti0 2.075440 1_655
O5 Ti1 2.075440 1_655
O6 Ti0 1.958784 1_565
O7 Ti1 1.958784 1_655
O8 Ti0 1.974181 1_556
O9 Ti1 2.075440 1_565
O9 Ti0 2.075440 1_566
