# generated using pymatgen
data_LiTi4O6
_symmetry_space_group_name_H-M   'P 1'
_cell_length_a   5.15500046
_cell_length_b   2.91392400
_cell_length_c   8.04677925
_cell_angle_alpha   90.00000000
_cell_angle_beta   108.45375819
_cell_angle_gamma   90.00000000
_symmetry_Int_Tables_number   1
_chemical_formula_structural   LiTi4O6
_chemical_formula_sum   'Li1 Ti4 O6'
_cell_volume   114.65756672
_cell_formula_units_Z   1
loop_
 _symmetry_equiv_pos_site_id
 _symmetry_equiv_pos_as_xyz
  1  'x, y, z'
loop_
 _atom_site_type_symbol
 _atom_site_label
 _atom_site_symmetry_multiplicity
 _atom_site_fract_x
 _atom_site_fract_y
 _atom_site_fract_z
 _atom_site_occupancy
  Li  Li0  1  0.43286200  0.25000000  0.44596900  1
  Ti  Ti0  1  0.17629500  0.25000000  0.69822900  1
  Ti  Ti1  1  0.26481200  0.25000000  0.04236400  1
  Ti  Ti2  1  0.80863200  0.75000000  0.01307600  1
  Ti  Ti3  1  0.89534500  0.75000000  0.36083700  1
  O  O0  1  0.06792400  0.75000000  0.85413100  1
  O  O1  1  0.27075100  0.75000000  0.54288100  1
  O  O2  1  0.53849000  0.25000000  0.88471900  1
  O  O3  1  0.52873200  0.75000000  0.18333500  1
  O  O4  1  0.81457000  0.25000000  0.50811800  1
  O  O5  1  0.01408800  0.25000000  0.20741100  1
loop_
_geom_bond_atom_site_label_1
_geom_bond_atom_site_label_2
_geom_bond_distance
_geom_bond_site_symmetry_2
Li0 O4 1.870557 1_555
Li0 O1 1.960053 1_545
Li0 O1 1.960053 1_555
Li0 O5 2.392024 1_555
O0 Ti0 2.110049 1_565
O0 Ti0 2.110049 1_555
O0 Ti1 2.115149 1_556
O0 Ti1 2.115149 1_566
O0 Ti2 2.122441 1_456
O1 Ti3 2.023915 1_455
O1 Ti0 2.075523 1_555
O1 Ti0 2.075523 1_565
O2 Ti0 1.991041 1_555
O2 Ti2 2.053835 1_556
O2 Ti2 2.053835 1_546
O2 Ti1 2.175445 1_556
O3 Ti3 1.975568 1_555
O3 Ti1 2.069653 1_555
O3 Ti1 2.069653 1_565
O3 Ti2 2.282628 1_555
O4 Ti0 2.002850 1_655
O4 Ti3 2.003270 1_555
O4 Ti3 2.003270 1_545
O5 Ti3 2.121334 1_455
O5 Ti3 2.121334 1_445
O5 Ti1 2.126278 1_555
O5 Ti2 2.154377 1_445
O5 Ti2 2.154377 1_455
