# generated using pymatgen
data_PbAu2
_symmetry_space_group_name_H-M   'P 1'
_cell_length_a   5.69126265
_cell_length_b   7.99194602
_cell_length_c   11.43004968
_cell_angle_alpha   90.00000000
_cell_angle_beta   90.00000000
_cell_angle_gamma   90.00000000
_symmetry_Int_Tables_number   1
_chemical_formula_structural   PbAu2
_chemical_formula_sum   'Pb8 Au16'
_cell_volume   519.88739586
_cell_formula_units_Z   8
loop_
 _symmetry_equiv_pos_site_id
 _symmetry_equiv_pos_as_xyz
  1  'x, y, z'
loop_
 _atom_site_type_symbol
 _atom_site_label
 _atom_site_symmetry_multiplicity
 _atom_site_fract_x
 _atom_site_fract_y
 _atom_site_fract_z
 _atom_site_occupancy
  Pb  Pb0  1  0.98723602  0.62648173  0.37516947  1
  Pb  Pb1  1  0.51276398  0.87351827  0.87516847  1
  Pb  Pb2  1  0.51276398  0.12648173  0.62483153  1
  Pb  Pb3  1  0.98723602  0.37351827  0.12483053  1
  Pb  Pb4  1  0.01276398  0.37351827  0.62483153  1
  Pb  Pb5  1  0.48723602  0.12648173  0.12483053  1
  Pb  Pb6  1  0.48723602  0.87351827  0.37516947  1
  Pb  Pb7  1  0.01276398  0.62648173  0.87516847  1
  Au  Au0  1  0.03023242  -0.00000000  0.25000000  1
  Au  Au1  1  0.46976758  0.50000000  0.75000000  1
  Au  Au2  1  0.96976758  -0.00000000  0.75000000  1
  Au  Au3  1  0.53023242  0.50000000  0.25000000  1
  Au  Au4  1  0.21120497  0.72135905  0.12670799  1
  Au  Au5  1  0.28879503  0.77864095  0.62670799  1
  Au  Au6  1  0.28879503  0.22135905  0.87329201  1
  Au  Au7  1  0.21120497  0.27864095  0.37329201  1
  Au  Au8  1  0.78879503  0.27864095  0.87329201  1
  Au  Au9  1  0.71120497  0.22135905  0.37329201  1
  Au  Au10  1  0.71120497  0.77864095  0.12670799  1
  Au  Au11  1  0.78879503  0.72135905  0.62670799  1
  Au  Au12  1  0.00000000  0.00000000  0.50000000  1
  Au  Au13  1  0.50000000  0.50000000  -0.00000000  1
  Au  Au14  1  0.50000000  0.50000000  0.50000000  1
  Au  Au15  1  0.00000000  -0.00000000  0.00000000  1
loop_
_geom_bond_atom_site_label_1
_geom_bond_atom_site_label_2
_geom_bond_distance
_geom_bond_site_symmetry_2
Pb0 Pb6 3.463450 1_555
Pb0 Pb6 3.463450 1_655
Pb0 Pb4 3.500225 1_655
Pb0 Pb3 3.503524 1_555
Pb1 Pb7 3.463450 1_655
Pb1 Pb7 3.463450 1_555
Pb1 Pb5 3.500225 1_566
Pb1 Pb2 3.503506 1_565
Pb2 Pb4 3.463450 1_655
Pb2 Pb4 3.463450 1_555
Pb2 Pb6 3.500225 1_545
Pb3 Pb5 3.463450 1_555
Pb3 Pb5 3.463450 1_655
Pb3 Pb7 3.500225 1_654
Pb4 Pb7 3.503506 1_555
Pb5 Pb6 3.503524 1_545
Au0 Au4 2.829447 1_545
Au0 Au7 2.829447 1_555
Au0 Au12 2.862688 1_555
Au0 Au15 2.862688 1_555
Au0 Au9 2.900392 1_455
Au0 Au10 2.900392 1_445
Au0 Pb5 3.135840 1_555
Au0 Pb6 3.135840 1_545
Au0 Pb0 3.319309 1_445
Au0 Pb3 3.319309 1_455
Au1 Au5 2.829447 1_555
Au1 Au6 2.829447 1_555
Au1 Au14 2.862688 1_555
Au1 Au13 2.862688 1_556
Au1 Au11 2.900392 1_555
Au1 Au8 2.900392 1_555
Au1 Pb7 3.135835 1_555
Au1 Pb4 3.135835 1_555
Au1 Pb2 3.319304 1_555
Au1 Pb1 3.319304 1_555
Au2 Au8 2.829447 1_555
Au2 Au6 2.900392 1_655
Au2 Au5 2.900392 1_645
Au2 Pb1 3.135835 1_545
Au2 Pb2 3.135835 1_555
Au2 Pb7 3.319304 1_645
Au2 Pb4 3.319304 1_655
Au3 Au9 2.829447 1_555
Au3 Au7 2.900392 1_555
Au3 Au4 2.900392 1_555
Au3 Pb3 3.135840 1_555
Au3 Pb0 3.135840 1_555
Au3 Pb6 3.319309 1_555
Au3 Pb5 3.319309 1_555
Au4 Pb3 3.058303 1_455
Au4 Pb7 3.180676 1_554
Au4 Pb0 3.203890 1_455
Au4 Pb6 3.465817 1_555
Au5 Pb2 3.058303 1_565
Au5 Pb6 3.180666 1_555
Au5 Pb1 3.203880 1_555
Au5 Pb7 3.465808 1_555
Au6 Au8 2.882220 1_455
Au6 Au8 2.882220 1_555
Au6 Pb1 3.058303 1_545
Au6 Pb5 3.180666 1_556
Au6 Pb2 3.203880 1_555
Au6 Pb4 3.465808 1_555
Au7 Au9 2.882220 1_455
Au7 Au9 2.882220 1_555
Au7 Pb0 3.058303 1_455
Au7 Pb4 3.180676 1_555
Au7 Pb3 3.203890 1_455
Au7 Pb5 3.465817 1_555
Au8 Pb7 3.058303 1_655
Au8 Pb3 3.180666 1_556
Au8 Pb4 3.203880 1_655
Au8 Pb2 3.465808 1_555
Au9 Pb6 3.058303 1_545
Au9 Pb2 3.180676 1_555
Au9 Pb5 3.203890 1_555
Au9 Pb3 3.465817 1_555
Au10 Au15 2.815784 1_665
Au10 Au3 2.829447 1_555
Au10 Au4 2.882220 1_555
Au10 Au4 2.882220 1_655
Au10 Au13 2.915713 1_555
Au10 Pb5 3.058303 1_565
Au10 Pb1 3.180676 1_554
Au10 Pb6 3.203890 1_555
Au10 Pb0 3.465817 1_555
Au11 Au14 2.815784 1_555
Au11 Au2 2.829447 1_565
Au11 Au5 2.882220 1_655
Au11 Au5 2.882220 1_555
Au11 Au12 2.915713 1_665
Au11 Pb4 3.058303 1_655
Au11 Pb0 3.180666 1_555
Au11 Pb7 3.203880 1_655
Au11 Pb1 3.465808 1_555
Au12 Au5 2.815784 1_545
Au12 Au9 2.815784 1_455
Au12 Au2 2.862688 1_455
Au12 Au7 2.915713 1_555
Au12 Pb6 3.278271 1_545
Au12 Pb2 3.278276 1_455
Au12 Pb0 3.309401 1_445
Au12 Pb4 3.309406 1_555
Au12 Pb6 3.402047 1_445
Au12 Pb2 3.402052 1_555
Au13 Au4 2.815784 1_555
Au13 Au8 2.815784 1_554
Au13 Au3 2.862688 1_555
Au13 Au6 2.915713 1_554
Au13 Pb3 3.278271 1_555
Au13 Pb7 3.278276 1_554
Au13 Pb5 3.309401 1_555
Au13 Pb1 3.309406 1_554
Au13 Pb3 3.402047 1_455
Au13 Pb7 3.402052 1_654
Au14 Au7 2.815784 1_555
Au14 Au3 2.862688 1_555
Au14 Au5 2.915713 1_555
Au14 Au9 2.915713 1_555
Au14 Pb0 3.278271 1_555
Au14 Pb4 3.278276 1_555
Au14 Pb6 3.309401 1_555
Au14 Pb2 3.309406 1_555
Au14 Pb0 3.402047 1_455
Au14 Pb4 3.402052 1_655
Au15 Au6 2.815784 1_554
Au15 Au2 2.862688 1_454
Au15 Au8 2.915713 1_454
Au15 Au4 2.915713 1_545
Au15 Pb5 3.278271 1_555
Au15 Pb1 3.278276 1_444
Au15 Pb3 3.309401 1_455
Au15 Pb7 3.309406 1_544
Au15 Pb5 3.402047 1_455
Au15 Pb1 3.402052 1_544
