# generated using pymatgen
data_TmB2Ru
_symmetry_space_group_name_H-M   'P 1'
_cell_length_a   5.85784700
_cell_length_b   5.28656400
_cell_length_c   6.31439000
_cell_angle_alpha   90.00000000
_cell_angle_beta   90.00000000
_cell_angle_gamma   90.00000000
_symmetry_Int_Tables_number   1
_chemical_formula_structural   TmB2Ru
_chemical_formula_sum   'Tm4 B8 Ru4'
_cell_volume   195.54329116
_cell_formula_units_Z   4
loop_
 _symmetry_equiv_pos_site_id
 _symmetry_equiv_pos_as_xyz
  1  'x, y, z'
loop_
 _atom_site_type_symbol
 _atom_site_label
 _atom_site_symmetry_multiplicity
 _atom_site_fract_x
 _atom_site_fract_y
 _atom_site_fract_z
 _atom_site_occupancy
  Tm  Tm0  1  0.01130700  0.25000000  0.33559100  1
  Tm  Tm1  1  0.51130700  0.25000000  0.16440900  1
  Tm  Tm2  1  0.98869300  0.75000000  0.66440900  1
  Tm  Tm3  1  0.48869300  0.75000000  0.83559100  1
  B  B0  1  0.36693900  0.08385100  0.53665200  1
  B  B1  1  0.86693900  0.41614900  0.96334800  1
  B  B2  1  0.63306100  0.58385100  0.46334800  1
  B  B3  1  0.13306100  0.91614900  0.03665200  1
  B  B4  1  0.63306100  0.91614900  0.46334800  1
  B  B5  1  0.13306100  0.58385100  0.03665200  1
  B  B6  1  0.36693900  0.41614900  0.53665200  1
  B  B7  1  0.86693900  0.08385100  0.96334800  1
  Ru  Ru0  1  0.18191100  0.25000000  0.81816200  1
  Ru  Ru1  1  0.68191100  0.25000000  0.68183800  1
  Ru  Ru2  1  0.81808900  0.75000000  0.18183800  1
  Ru  Ru3  1  0.31808900  0.75000000  0.31816200  1
loop_
_geom_bond_atom_site_label_1
_geom_bond_atom_site_label_2
_geom_bond_distance
_geom_bond_site_symmetry_2
B0 B6 1.756715 1_555
B0 B4 1.852141 1_545
B0 Ru1 2.239688 1_555
B0 Ru3 2.258368 1_545
B0 Ru0 2.259648 1_555
B0 Tm0 2.592917 1_555
B0 Tm1 2.647921 1_555
B0 Tm3 2.680809 1_545
B0 Tm2 2.945351 1_445
B1 B7 1.756715 1_555
B1 B5 1.852141 1_656
B1 Ru0 2.239688 1_655
B1 Ru2 2.258368 1_556
B1 Ru1 2.259648 1_555
B1 Tm1 2.592917 1_556
B1 Tm0 2.647921 1_656
B1 Tm2 2.680809 1_555
B1 Tm3 2.945351 1_555
B2 B4 1.756715 1_555
B2 B6 1.852141 1_555
B2 Ru3 2.239688 1_555
B2 Ru1 2.258368 1_555
B2 Ru2 2.259648 1_555
B2 Tm2 2.592917 1_555
B2 Tm3 2.647921 1_555
B2 Tm1 2.680809 1_555
B2 Tm0 2.945351 1_655
B3 B5 1.756715 1_555
B3 B7 1.852141 1_464
B3 Ru2 2.239688 1_455
B3 Ru0 2.258368 1_564
B3 Ru3 2.259648 1_555
B3 Tm3 2.592917 1_554
B3 Tm2 2.647921 1_454
B3 Tm0 2.680809 1_565
B3 Tm1 2.945351 1_565
B4 Ru3 2.239688 1_555
B4 Ru1 2.258368 1_565
B4 Ru2 2.259648 1_555
B4 Tm2 2.592917 1_555
B4 Tm3 2.647921 1_555
B4 Tm1 2.680809 1_565
B4 Tm0 2.945351 1_665
B5 Ru2 2.239688 1_455
B5 Ru0 2.258368 1_554
B5 Ru3 2.259648 1_555
B5 Tm3 2.592917 1_554
B5 Tm2 2.647921 1_454
B5 Tm0 2.680809 1_555
B5 Tm1 2.945351 1_555
B6 Ru1 2.239688 1_555
B6 Ru3 2.258368 1_555
B6 Ru0 2.259648 1_555
B6 Tm0 2.592917 1_555
B6 Tm1 2.647921 1_555
B6 Tm3 2.680809 1_555
B6 Tm2 2.945351 1_455
B7 Ru0 2.239688 1_655
B7 Ru2 2.258368 1_546
B7 Ru1 2.259648 1_555
B7 Tm1 2.592917 1_556
B7 Tm0 2.647921 1_656
B7 Tm2 2.680809 1_545
B7 Tm3 2.945351 1_545
Ru0 Tm1 2.916032 1_556
Ru1 Tm0 2.916032 1_655
Ru2 Tm3 2.916032 1_554
Ru3 Tm2 2.916032 1_455
