# generated using pymatgen
data_BaMg6B
_symmetry_space_group_name_H-M   'P 1'
_cell_length_a   7.94049340
_cell_length_b   7.94049340
_cell_length_c   4.72342600
_cell_angle_alpha   90.00000000
_cell_angle_beta   90.00000000
_cell_angle_gamma   136.24727972
_symmetry_Int_Tables_number   1
_chemical_formula_structural   BaMg6B
_chemical_formula_sum   'Ba1 Mg6 B1'
_cell_volume   205.95579483
_cell_formula_units_Z   1
loop_
 _symmetry_equiv_pos_site_id
 _symmetry_equiv_pos_as_xyz
  1  'x, y, z'
loop_
 _atom_site_type_symbol
 _atom_site_label
 _atom_site_symmetry_multiplicity
 _atom_site_fract_x
 _atom_site_fract_y
 _atom_site_fract_z
 _atom_site_occupancy
  Ba  Ba0  1  0.79556300  0.20443700  0.50000000  1
  Mg  Mg0  1  0.29995100  0.19063700  0.50000000  1
  Mg  Mg1  1  0.80936300  0.70004900  0.50000000  1
  Mg  Mg2  1  0.19060800  0.34480400  0.00000000  1
  Mg  Mg3  1  0.65519600  0.80939200  0.00000000  1
  Mg  Mg4  1  0.62458300  0.37541700  0.00000000  1
  Mg  Mg5  1  0.19662500  0.80337500  0.00000000  1
  B  B0  1  0.42811500  0.57188500  0.50000000  1
loop_
_geom_bond_atom_site_label_1
_geom_bond_atom_site_label_2
_geom_bond_distance
_geom_bond_site_symmetry_2
Ba0 Mg3 3.407180 1_545
Ba0 Mg3 3.407180 1_546
Ba0 Mg2 3.407180 1_655
Ba0 Mg2 3.407180 1_656
Ba0 Mg4 3.453561 1_556
Ba0 Mg4 3.453561 1_555
Ba0 Mg5 4.056775 1_545
Ba0 Mg5 4.056775 1_656
Ba0 Mg5 4.056775 1_546
Ba0 Mg5 4.056775 1_655
Mg0 Mg4 2.985175 1_556
Mg0 Mg4 2.985175 1_555
Mg0 Mg5 3.473034 1_545
Mg0 Mg5 3.473034 1_546
Mg1 Mg4 2.985175 1_556
Mg1 Mg4 2.985175 1_555
Mg1 Mg5 3.473034 1_655
Mg1 Mg5 3.473034 1_656
Mg2 Mg4 3.274707 1_555
Mg3 Mg4 3.274707 1_555
Mg4 Mg5 3.143397 1_545
Mg4 Mg5 3.143397 1_655
B0 Mg1 2.397800 1_555
B0 Mg0 2.397800 1_555
B0 Mg2 2.733680 1_556
B0 Mg2 2.733680 1_555
B0 Mg3 2.733680 1_555
B0 Mg3 2.733680 1_556
B0 Ba0 3.545386 1_455
B0 Ba0 3.545386 1_565
