# generated using pymatgen
data_Ba3Sr5Ti7MnO24
_symmetry_space_group_name_H-M   'P 1'
_cell_length_a   7.94834976
_cell_length_b   7.94834976
_cell_length_c   7.94593013
_cell_angle_alpha   89.99280513
_cell_angle_beta   89.99280513
_cell_angle_gamma   89.99125323
_symmetry_Int_Tables_number   1
_chemical_formula_structural   Ba3Sr5Ti7MnO24
_chemical_formula_sum   'Ba3 Sr5 Ti7 Mn1 O24'
_cell_volume   501.99416515
_cell_formula_units_Z   1
loop_
 _symmetry_equiv_pos_site_id
 _symmetry_equiv_pos_as_xyz
  1  'x, y, z'
loop_
 _atom_site_type_symbol
 _atom_site_label
 _atom_site_symmetry_multiplicity
 _atom_site_fract_x
 _atom_site_fract_y
 _atom_site_fract_z
 _atom_site_occupancy
  Ba  Ba0  1  0.75150900  0.24837500  0.75155500  1
  Ba  Ba1  1  0.24841400  0.24841400  0.75155800  1
  Ba  Ba2  1  0.24837500  0.75150900  0.75155500  1
  Sr  Sr0  1  0.75193700  0.24801900  0.24842200  1
  Sr  Sr1  1  0.24808500  0.24808500  0.24848600  1
  Sr  Sr2  1  0.75194000  0.75194000  0.24829500  1
  Sr  Sr3  1  0.24801900  0.75193700  0.24842200  1
  Sr  Sr4  1  0.75175600  0.75175600  0.75172900  1
  Ti  Ti0  1  0.50237400  0.99860300  0.00401900  1
  Ti  Ti1  1  0.99868200  0.99868200  0.49334700  1
  Ti  Ti2  1  0.50137900  0.99857200  0.49590800  1
  Ti  Ti3  1  0.99860300  0.50237400  0.00401900  1
  Ti  Ti4  1  0.50135300  0.50135300  0.00422300  1
  Ti  Ti5  1  0.99857200  0.50137900  0.49590800  1
  Ti  Ti6  1  0.50135700  0.50135700  0.49595400  1
  Mn  Mn0  1  0.99918000  0.99918000  0.00259200  1
  O  O0  1  0.99913400  0.24648900  0.00893600  1
  O  O1  1  0.50093400  0.24915100  0.00842300  1
  O  O2  1  0.99896100  0.24930100  0.49173100  1
  O  O3  1  0.50100100  0.24948300  0.49173900  1
  O  O4  1  0.99616500  0.75313200  0.00571200  1
  O  O5  1  0.50347300  0.75072600  0.00575800  1
  O  O6  1  0.99649400  0.75059000  0.49446100  1
  O  O7  1  0.50344500  0.75046400  0.49440200  1
  O  O8  1  0.99902400  0.99902400  0.24728200  1
  O  O9  1  0.50104600  0.99882900  0.24941400  1
  O  O10  1  0.99576300  0.99576300  0.75346300  1
  O  O11  1  0.50381600  0.99613300  0.75096500  1
  O  O12  1  0.99882900  0.50104600  0.24941400  1
  O  O13  1  0.50110800  0.50110800  0.24955300  1
  O  O14  1  0.99613300  0.50381600  0.75096500  1
  O  O15  1  0.50380200  0.50380200  0.75063000  1
  O  O16  1  0.75313200  0.99616500  0.00571200  1
  O  O17  1  0.24648900  0.99913400  0.00893600  1
  O  O18  1  0.75059000  0.99649400  0.49446100  1
  O  O19  1  0.24930100  0.99896100  0.49173100  1
  O  O20  1  0.75072600  0.50347300  0.00575800  1
  O  O21  1  0.24915100  0.50093400  0.00842300  1
  O  O22  1  0.75046400  0.50344500  0.49440200  1
  O  O23  1  0.24948300  0.50100100  0.49173900  1
loop_
_geom_bond_atom_site_label_1
_geom_bond_atom_site_label_2
_geom_bond_distance
_geom_bond_site_symmetry_2
Ba0 O10 2.792775 1_545
Ba0 O11 2.810136 1_545
Ba0 O14 2.811406 1_555
Ba0 O15 2.827907 1_555
Ba0 O0 2.838597 1_556
Ba0 O16 2.845386 1_546
Ba0 O2 2.851283 1_555
Ba0 O1 2.851600 1_556
Ba0 O18 2.860505 1_545
Ba0 O20 2.862196 1_556
Ba0 O3 2.868407 1_555
Ba0 O22 2.878277 1_555
Ba1 O10 2.840219 1_445
Ba1 O17 2.847365 1_546
Ba1 O0 2.847365 1_456
Ba1 O14 2.853187 1_455
Ba1 O11 2.853187 1_545
Ba1 O19 2.862650 1_545
Ba1 O2 2.862650 1_455
Ba1 O1 2.862761 1_556
Ba1 O21 2.862761 1_556
Ba1 O15 2.870958 1_555
Ba1 O3 2.879560 1_555
Ba1 O23 2.879560 1_555
Ba2 O10 2.792775 1_455
Ba2 O14 2.810136 1_455
Ba2 O11 2.811406 1_555
Ba2 O15 2.827907 1_555
Ba2 O17 2.838597 1_556
Ba2 O4 2.845386 1_456
Ba2 O19 2.851283 1_555
Ba2 O21 2.851600 1_556
Ba2 O6 2.860505 1_455
Ba2 O5 2.862196 1_556
Ba2 O23 2.868407 1_555
Ba2 O7 2.878277 1_555
Mn0 O8 1.944290 1_555
Mn0 O16 1.955980 1_555
Mn0 O4 1.955980 1_555
Mn0 O17 1.966351 1_655
Mn0 O0 1.966351 1_565
Mn0 O10 1.979941 1_554
O0 Ti3 2.034238 1_555
O0 Sr0 2.735115 1_555
O0 Sr1 2.745848 1_655
O1 Ti0 1.991786 1_545
O1 Ti4 2.004867 1_555
O1 Sr0 2.760072 1_555
O1 Sr1 2.770700 1_555
O2 Ti1 1.992049 1_545
O2 Ti5 2.003885 1_555
O2 Sr0 2.755694 1_555
O2 Sr1 2.766906 1_655
O3 Ti2 1.994601 1_545
O3 Ti6 2.002269 1_555
O3 Sr0 2.777636 1_555
O3 Sr1 2.788955 1_555
O4 Ti3 1.993251 1_555
O4 Sr2 2.735469 1_555
O4 Sr3 2.779870 1_655
O4 Sr4 2.801402 1_554
O5 Ti0 1.970278 1_555
O5 Ti4 1.982217 1_555
O5 Sr2 2.759589 1_555
O5 Sr3 2.799948 1_555
O5 Sr4 2.822740 1_554
O6 Ti1 1.972020 1_555
O6 Ti5 1.980914 1_555
O6 Sr2 2.757794 1_555
O6 Sr3 2.796074 1_655
O6 Sr4 2.821706 1_555
O7 Ti2 1.972153 1_555
O7 Ti6 1.980098 1_555
O7 Sr2 2.779291 1_555
O7 Sr3 2.818354 1_555
O7 Sr4 2.842056 1_555
O8 Ti1 1.955218 1_555
O8 Sr2 2.777610 1_555
O8 Sr0 2.787968 1_565
O8 Sr3 2.787968 1_655
O8 Sr1 2.799843 1_665
O9 Ti0 1.949920 1_555
O9 Ti2 1.958627 1_555
O9 Sr2 2.797597 1_555
O9 Sr3 2.810149 1_555
O9 Sr0 2.810862 1_565
O9 Sr1 2.822497 1_565
O10 Ti1 2.067118 1_555
O10 Sr4 2.743047 1_555
O11 Ti0 2.010879 1_556
O11 Ti2 2.026850 1_555
O11 Sr4 2.766853 1_555
O12 Ti3 1.949920 1_555
O12 Ti5 1.958627 1_555
O12 Sr2 2.797597 1_555
O12 Sr0 2.810149 1_555
O12 Sr3 2.810862 1_655
O12 Sr1 2.822497 1_655
O13 Ti4 1.949376 1_555
O13 Ti6 1.957888 1_555
O13 Sr2 2.819749 1_555
O13 Sr0 2.832013 1_555
O13 Sr3 2.832013 1_555
O13 Sr1 2.844378 1_555
O14 Ti3 2.010879 1_556
O14 Ti5 2.026850 1_555
O14 Sr4 2.766853 1_555
O15 Ti4 2.015215 1_556
O15 Ti6 2.023829 1_555
O15 Sr4 2.787396 1_555
O16 Ti0 1.993251 1_555
O16 Sr2 2.735469 1_555
O16 Sr0 2.779870 1_565
O16 Sr4 2.801402 1_554
O17 Ti0 2.034238 1_555
O17 Sr3 2.735115 1_555
O17 Sr1 2.745848 1_565
O18 Ti1 1.972020 1_555
O18 Ti2 1.980914 1_555
O18 Sr2 2.757794 1_555
O18 Sr0 2.796074 1_565
O18 Sr4 2.821706 1_555
O19 Ti1 1.992049 1_455
O19 Ti2 2.003885 1_555
O19 Sr3 2.755694 1_555
O19 Sr1 2.766906 1_565
O20 Ti3 1.970278 1_555
O20 Ti4 1.982217 1_555
O20 Sr2 2.759589 1_555
O20 Sr0 2.799948 1_555
O20 Sr4 2.822740 1_554
O21 Ti3 1.991786 1_455
O21 Ti4 2.004867 1_555
O21 Sr3 2.760072 1_555
O21 Sr1 2.770700 1_555
O22 Ti5 1.972153 1_555
O22 Ti6 1.980098 1_555
O22 Sr2 2.779291 1_555
O22 Sr0 2.818354 1_555
O22 Sr4 2.842056 1_555
O23 Ti5 1.994601 1_455
O23 Ti6 2.002269 1_555
O23 Sr3 2.777636 1_555
O23 Sr1 2.788955 1_555
