# generated using pymatgen
data_Ba2MgCd
_symmetry_space_group_name_H-M   'P 1'
_cell_length_a   14.41016637
_cell_length_b   14.02782702
_cell_length_c   14.02782752
_cell_angle_alpha   59.40729137
_cell_angle_beta   59.09421430
_cell_angle_gamma   59.09421395
_symmetry_Int_Tables_number   1
_chemical_formula_structural   Ba2MgCd
_chemical_formula_sum   'Ba2 Mg1 Cd1'
_cell_volume   1968.44195279
_cell_formula_units_Z   1
loop_
 _symmetry_equiv_pos_site_id
 _symmetry_equiv_pos_as_xyz
  1  'x, y, z'
loop_
 _atom_site_type_symbol
 _atom_site_label
 _atom_site_symmetry_multiplicity
 _atom_site_fract_x
 _atom_site_fract_y
 _atom_site_fract_z
 _atom_site_occupancy
  Ba  Ba0  1  0.73946177  1.00000000  1.00000000  1
  Ba  Ba1  1  0.26053823  0.00000000  0.00000000  1
  Mg  Mg0  1  0.00000000  0.00000000  0.00000000  1
  Cd  Cd0  1  0.50000000  0.00000000  0.00000000  1
loop_
_geom_bond_atom_site_label_1
_geom_bond_atom_site_label_2
_geom_bond_distance
_geom_bond_site_symmetry_2
Ba0 Cd0 3.450684 1_566
Ba0 Mg0 3.754399 1_666
Ba1 Cd0 3.450684 1_555
Ba1 Mg0 3.754399 1_555
