# generated using pymatgen
data_La3NdZr4O14
_symmetry_space_group_name_H-M   'P 1'
_cell_length_a   7.68734891
_cell_length_b   7.68734891
_cell_length_c   7.68734854
_cell_angle_alpha   59.96645773
_cell_angle_beta   59.96645773
_cell_angle_gamma   59.96646497
_symmetry_Int_Tables_number   1
_chemical_formula_structural   La3NdZr4O14
_chemical_formula_sum   'La3 Nd1 Zr4 O14'
_cell_volume   320.98468627
_cell_formula_units_Z   1
loop_
 _symmetry_equiv_pos_site_id
 _symmetry_equiv_pos_as_xyz
  1  'x, y, z'
loop_
 _atom_site_type_symbol
 _atom_site_label
 _atom_site_symmetry_multiplicity
 _atom_site_fract_x
 _atom_site_fract_y
 _atom_site_fract_z
 _atom_site_occupancy
  La  La0  1  0.00000000  0.50000000  0.50000000  1
  La  La1  1  0.50000000  0.50000000  0.00000000  1
  La  La2  1  0.50000000  0.00000000  0.50000000  1
  Nd  Nd0  1  0.50000000  0.50000000  0.50000000  1
  Zr  Zr0  1  0.00000000  0.00000000  0.00000000  1
  Zr  Zr1  1  0.50000000  0.00000000  0.00000000  1
  Zr  Zr2  1  0.00000000  0.00000000  0.50000000  1
  Zr  Zr3  1  0.00000000  0.50000000  0.00000000  1
  O  O0  1  0.37606800  0.37606800  0.37606800  1
  O  O1  1  0.62393200  0.62393200  0.62393200  1
  O  O2  1  0.91468100  0.33395400  0.33395400  1
  O  O3  1  0.33330900  0.91676500  0.91676500  1
  O  O4  1  0.33395400  0.33395400  0.91468100  1
  O  O5  1  0.91676500  0.91676500  0.33330900  1
  O  O6  1  0.91676500  0.33330900  0.91676500  1
  O  O7  1  0.33395400  0.91468100  0.33395400  1
  O  O8  1  0.08531900  0.66604600  0.66604600  1
  O  O9  1  0.66669100  0.08323500  0.08323500  1
  O  O10  1  0.66604600  0.66604600  0.08531900  1
  O  O11  1  0.08323500  0.08323500  0.66669100  1
  O  O12  1  0.08323500  0.66669100  0.08323500  1
  O  O13  1  0.66604600  0.08531900  0.66604600  1
loop_
_geom_bond_atom_site_label_1
_geom_bond_atom_site_label_2
_geom_bond_distance
_geom_bond_site_symmetry_2
La0 O1 2.359552 1_455
La0 O0 2.359552 1_555
La0 O12 2.641022 1_555
La0 O6 2.641022 1_455
La0 O11 2.641022 1_555
La0 O5 2.641022 1_455
La0 O8 2.644980 1_555
La0 O2 2.644980 1_455
La1 O1 2.359552 1_554
La1 O0 2.359552 1_555
La1 O9 2.641022 1_555
La1 O12 2.641022 1_555
La1 O6 2.641022 1_554
La1 O3 2.641022 1_554
La1 O4 2.644980 1_554
La1 O10 2.644980 1_555
La2 O1 2.359552 1_545
La2 O0 2.359552 1_555
La2 O9 2.641022 1_555
La2 O3 2.641022 1_545
La2 O11 2.641022 1_555
La2 O5 2.641022 1_545
La2 O7 2.644980 1_545
La2 O13 2.644980 1_555
Nd0 O0 2.334241 1_555
Nd0 O1 2.334241 1_555
Nd0 O4 2.627794 1_555
Nd0 O10 2.627794 1_555
Nd0 O13 2.627795 1_555
Nd0 O8 2.627795 1_555
Nd0 O2 2.627795 1_555
Nd0 O7 2.627795 1_555
O2 Zr3 2.126600 1_655
O2 Zr2 2.126600 1_655
O3 Zr0 2.124045 1_566
O3 Zr1 2.124190 1_566
O4 Zr3 2.126600 1_556
O4 Zr1 2.126600 1_556
O5 Zr0 2.124045 1_665
O5 Zr2 2.124190 1_665
O6 Zr0 2.124045 1_656
O6 Zr3 2.124190 1_656
O7 Zr1 2.126600 1_565
O7 Zr2 2.126600 1_565
O8 Zr3 2.126600 1_556
O8 Zr2 2.126600 1_565
O9 Zr0 2.124045 1_655
O9 Zr1 2.124190 1_555
O10 Zr3 2.126600 1_655
O10 Zr1 2.126600 1_565
O11 Zr0 2.124045 1_556
O11 Zr2 2.124190 1_555
O12 Zr0 2.124045 1_565
O12 Zr3 2.124190 1_555
O13 Zr1 2.126600 1_556
O13 Zr2 2.126600 1_655
