# generated using pymatgen
data_Li2YAl
_symmetry_space_group_name_H-M   'P 1'
_cell_length_a   13.37006625
_cell_length_b   13.37006625
_cell_length_c   13.37006625
_cell_angle_alpha   151.27260934
_cell_angle_beta   135.79113172
_cell_angle_gamma   53.57862086
_symmetry_Int_Tables_number   1
_chemical_formula_structural   Li2YAl
_chemical_formula_sum   'Li16 Y8 Al8'
_cell_volume   796.64727289
_cell_formula_units_Z   8
loop_
 _symmetry_equiv_pos_site_id
 _symmetry_equiv_pos_as_xyz
  1  'x, y, z'
loop_
 _atom_site_type_symbol
 _atom_site_label
 _atom_site_symmetry_multiplicity
 _atom_site_fract_x
 _atom_site_fract_y
 _atom_site_fract_z
 _atom_site_occupancy
  Li  Li0_0  1  0.11002850  0.11002850  0.00000000  1
  Li  Li0_1  1  0.11002850  0.11002850  0.50000000  1
  Li  Li0_2  1  0.11002850  0.61002850  0.00000000  1
  Li  Li0_3  1  0.11002850  0.61002850  0.50000000  1
  Li  Li0_4  1  0.61002850  0.11002850  0.00000000  1
  Li  Li0_5  1  0.61002850  0.11002850  0.50000000  1
  Li  Li0_6  1  0.61002850  0.61002850  0.00000000  1
  Li  Li0_7  1  0.61002850  0.61002850  0.50000000  1
  Li  Li1_0  1  0.38997150  0.38997150  0.00000000  1
  Li  Li1_1  1  0.38997150  0.38997150  0.50000000  1
  Li  Li1_2  1  0.38997150  0.88997150  0.00000000  1
  Li  Li1_3  1  0.38997150  0.88997150  0.50000000  1
  Li  Li1_4  1  0.88997150  0.38997150  0.00000000  1
  Li  Li1_5  1  0.88997150  0.38997150  0.50000000  1
  Li  Li1_6  1  0.88997150  0.88997150  0.00000000  1
  Li  Li1_7  1  0.88997150  0.88997150  0.50000000  1
  Y  Y0_0  1  0.25000000  0.25000000  0.00000000  1
  Y  Y0_1  1  0.25000000  0.25000000  0.50000000  1
  Y  Y0_2  1  0.25000000  0.75000000  0.00000000  1
  Y  Y0_3  1  0.25000000  0.75000000  0.50000000  1
  Y  Y0_4  1  0.75000000  0.25000000  0.00000000  1
  Y  Y0_5  1  0.75000000  0.25000000  0.50000000  1
  Y  Y0_6  1  0.75000000  0.75000000  0.00000000  1
  Y  Y0_7  1  0.75000000  0.75000000  0.50000000  1
  Al  Al0_0  1  0.00000000  0.00000000  0.00000000  1
  Al  Al0_1  1  0.00000000  0.00000000  0.50000000  1
  Al  Al0_2  1  0.00000000  0.50000000  0.00000000  1
  Al  Al0_3  1  0.00000000  0.50000000  0.50000000  1
  Al  Al0_4  1  0.50000000  0.00000000  0.00000000  1
  Al  Al0_5  1  0.50000000  0.00000000  0.50000000  1
  Al  Al0_6  1  0.50000000  0.50000000  0.00000000  1
  Al  Al0_7  1  0.50000000  0.50000000  0.50000000  1
loop_
_geom_bond_atom_site_label_1
_geom_bond_atom_site_label_2
_geom_bond_distance
_geom_bond_site_symmetry_2
Li0_0 Li1_4 3.096633 1_455
Li0_0 Li1_1 3.096633 1_555
Li0_0 Li1_2 3.096633 1_545
Li0_0 Li1_7 3.096633 1_444
Li0_0 Y0_0 3.341135 1_555
Li0_1 Li1_3 3.096633 1_545
Li0_1 Li1_0 3.096633 1_556
Li0_1 Li1_5 3.096633 1_455
Li0_1 Li1_6 3.096633 1_445
Li0_1 Y0_1 3.341135 1_555
Li0_2 Li1_0 3.096633 1_555
Li0_2 Li1_3 3.096633 1_555
Li0_2 Li1_6 3.096633 1_455
Li0_2 Li1_5 3.096633 1_454
Li0_2 Y0_2 3.341135 1_555
Li0_3 Li1_1 3.096633 1_555
Li0_3 Li1_2 3.096633 1_556
Li0_3 Li1_4 3.096633 1_455
Li0_3 Li1_7 3.096633 1_455
Li0_3 Y0_3 3.341135 1_555
Li0_4 Li1_0 3.096633 1_555
Li0_4 Li1_5 3.096633 1_555
Li0_4 Li1_6 3.096633 1_545
Li0_4 Li1_3 3.096633 1_544
Li0_4 Y0_4 3.341135 1_555
Li0_5 Li1_1 3.096633 1_555
Li0_5 Li1_7 3.096633 1_545
Li0_5 Li1_2 3.096633 1_545
Li0_5 Li1_4 3.096633 1_556
Li0_5 Y0_5 3.341135 1_555
Li0_6 Li1_1 3.096633 1_554
Li0_6 Li1_7 3.096633 1_555
Li0_6 Li1_4 3.096633 1_555
Li0_6 Li1_2 3.096633 1_555
Li0_6 Y0_6 3.341135 1_555
Li0_7 Li1_6 3.096633 1_556
Li0_7 Li1_0 3.096633 1_555
Li0_7 Li1_3 3.096633 1_555
Li0_7 Li1_5 3.096633 1_555
Li0_7 Y0_7 3.341135 1_555
Li1_0 Y0_0 3.341135 1_555
Li1_1 Y0_1 3.341135 1_555
Li1_2 Y0_2 3.341135 1_555
Li1_3 Y0_3 3.341135 1_555
Li1_4 Y0_4 3.341135 1_555
Li1_5 Y0_5 3.341135 1_555
Li1_6 Y0_6 3.341135 1_555
Li1_7 Y0_7 3.341135 1_555
Y0_0 Y0_3 3.316794 1_544
Y0_0 Y0_3 3.316794 1_555
Y0_1 Y0_2 3.316794 1_556
Y0_1 Y0_2 3.316794 1_545
Y0_4 Y0_7 3.316794 1_555
Y0_4 Y0_7 3.316794 1_544
Y0_5 Y0_6 3.316794 1_556
Y0_5 Y0_6 3.316794 1_545
Al0_0 Li0_0 2.626393 1_555
Al0_0 Li1_6 2.626393 1_445
Al0_0 Y0_2 3.013018 1_545
Al0_0 Y0_7 3.013018 1_444
Al0_0 Y0_4 3.013018 1_455
Al0_0 Y0_1 3.013018 1_555
Al0_1 Li0_1 2.626393 1_555
Al0_1 Li1_7 2.626393 1_445
Al0_1 Y0_0 3.013018 1_556
Al0_1 Y0_6 3.013018 1_445
Al0_1 Y0_3 3.013018 1_545
Al0_1 Y0_5 3.013018 1_455
Al0_2 Li0_2 2.626393 1_555
Al0_2 Li1_4 2.626393 1_455
Al0_2 Y0_3 3.013018 1_555
Al0_2 Y0_5 3.013018 1_454
Al0_2 Y0_0 3.013018 1_555
Al0_2 Y0_6 3.013018 1_455
Al0_3 Li0_3 2.626393 1_555
Al0_3 Li1_5 2.626393 1_455
Al0_3 Y0_7 3.013018 1_455
Al0_3 Y0_4 3.013018 1_455
Al0_3 Y0_1 3.013018 1_555
Al0_3 Y0_2 3.013018 1_556
Al0_4 Li0_4 2.626393 1_555
Al0_4 Li1_2 2.626393 1_545
Al0_4 Y0_3 3.013018 1_544
Al0_4 Y0_5 3.013018 1_555
Al0_4 Y0_6 3.013018 1_545
Al0_4 Y0_0 3.013018 1_555
Al0_5 Li0_5 2.626393 1_555
Al0_5 Li1_3 2.626393 1_545
Al0_5 Y0_2 3.013018 1_545
Al0_5 Y0_4 3.013018 1_556
Al0_5 Y0_1 3.013018 1_555
Al0_5 Y0_7 3.013018 1_545
Al0_6 Li0_6 2.626393 1_555
Al0_6 Li1_0 2.626393 1_555
Al0_6 Y0_2 3.013018 1_555
Al0_6 Y0_1 3.013018 1_554
Al0_6 Y0_7 3.013018 1_555
Al0_6 Y0_4 3.013018 1_555
Al0_7 Li0_7 2.626393 1_555
Al0_7 Li1_1 2.626393 1_555
Al0_7 Y0_6 3.013018 1_556
Al0_7 Y0_5 3.013018 1_555
Al0_7 Y0_3 3.013018 1_555
Al0_7 Y0_0 3.013018 1_555
