# generated using pymatgen
data_K2Sb9PbSe15
_symmetry_space_group_name_H-M   'P 1'
_cell_length_a   4.22534600
_cell_length_b   17.32086000
_cell_length_c   22.29872675
_cell_angle_alpha   80.88690417
_cell_angle_beta   90.00000000
_cell_angle_gamma   90.00000000
_symmetry_Int_Tables_number   1
_chemical_formula_structural   K2Sb9PbSe15
_chemical_formula_sum   'K4 Sb18 Pb2 Se30'
_cell_volume   1611.36927731
_cell_formula_units_Z   2
loop_
 _symmetry_equiv_pos_site_id
 _symmetry_equiv_pos_as_xyz
  1  'x, y, z'
loop_
 _atom_site_type_symbol
 _atom_site_label
 _atom_site_symmetry_multiplicity
 _atom_site_fract_x
 _atom_site_fract_y
 _atom_site_fract_z
 _atom_site_occupancy
  K  K0  1  0.25000000  0.49589700  0.62660300  1
  K  K1  1  0.75000000  0.50410300  0.37339700  1
  K  K2  1  0.25000000  0.21580000  0.69439400  1
  K  K3  1  0.75000000  0.78420000  0.30560600  1
  Sb  Sb0  1  0.25000000  0.94466400  0.70624900  1
  Sb  Sb1  1  0.75000000  0.05533600  0.29375100  1
  Sb  Sb2  1  0.25000000  0.67116600  0.46796600  1
  Sb  Sb3  1  0.75000000  0.32883400  0.53203400  1
  Sb  Sb4  1  0.25000000  0.38978500  0.03369200  1
  Sb  Sb5  1  0.75000000  0.61021500  0.96630800  1
  Sb  Sb6  1  0.25000000  0.81622100  0.94722600  1
  Sb  Sb7  1  0.75000000  0.18377900  0.05277400  1
  Sb  Sb8  1  0.25000000  0.92681300  0.43860200  1
  Sb  Sb9  1  0.75000000  0.07318700  0.56139800  1
  Sb  Sb10  1  0.25000000  0.19570500  0.38907100  1
  Sb  Sb11  1  0.75000000  0.80429500  0.61092900  1
  Sb  Sb12  1  0.25000000  0.96536400  0.09062600  1
  Sb  Sb13  1  0.75000000  0.03463600  0.90937400  1
  Sb  Sb14  1  0.25000000  0.54433900  0.16102500  1
  Sb  Sb15  1  0.75000000  0.45566100  0.83897500  1
  Sb  Sb16  1  0.25000000  0.24287700  0.89121400  1
  Sb  Sb17  1  0.75000000  0.75712300  0.10878600  1
  Pb  Pb0  1  0.25000000  0.67379800  0.76764000  1
  Pb  Pb1  1  0.75000000  0.32620200  0.23236000  1
  Se  Se0  1  0.25000000  0.82503000  0.16969500  1
  Se  Se1  1  0.75000000  0.17497000  0.83030500  1
  Se  Se2  1  0.25000000  0.17638700  0.54308000  1
  Se  Se3  1  0.75000000  0.82361300  0.45692000  1
  Se  Se4  1  0.25000000  0.25630200  0.11373700  1
  Se  Se5  1  0.75000000  0.74369800  0.88626300  1
  Se  Se6  1  0.25000000  0.42403100  0.49366000  1
  Se  Se7  1  0.75000000  0.57596900  0.50634000  1
  Se  Se8  1  0.25000000  0.43595400  0.25831500  1
  Se  Se9  1  0.75000000  0.56404600  0.74168500  1
  Se  Se10  1  0.25000000  0.97017100  0.85414000  1
  Se  Se11  1  0.75000000  0.02982900  0.14586000  1
  Se  Se12  1  0.25000000  0.65180400  0.35809100  1
  Se  Se13  1  0.75000000  0.34819600  0.64190900  1
  Se  Se14  1  0.25000000  0.11009900  0.98773700  1
  Se  Se15  1  0.75000000  0.88990100  0.01226300  1
  Se  Se16  1  0.25000000  0.93515200  0.58855800  1
  Se  Se17  1  0.75000000  0.06484800  0.41144200  1
  Se  Se18  1  0.25000000  0.17414200  0.27211000  1
  Se  Se19  1  0.75000000  0.82585800  0.72789000  1
  Se  Se20  1  0.25000000  0.54152000  0.91186600  1
  Se  Se21  1  0.75000000  0.45848000  0.08813400  1
  Se  Se22  1  0.25000000  0.93711500  0.31808000  1
  Se  Se23  1  0.75000000  0.06288500  0.68192000  1
  Se  Se24  1  0.25000000  0.37781500  0.79514700  1
  Se  Se25  1  0.75000000  0.62218500  0.20485300  1
  Se  Se26  1  0.25000000  0.68487100  0.04035000  1
  Se  Se27  1  0.75000000  0.31512900  0.95965000  1
  Se  Se28  1  0.25000000  0.69819600  0.63387300  1
  Se  Se29  1  0.75000000  0.30180400  0.36612700  1
loop_
_geom_bond_atom_site_label_1
_geom_bond_atom_site_label_2
_geom_bond_distance
_geom_bond_site_symmetry_2
K0 Se13 3.293665 1_555
K0 Se13 3.293665 1_455
K0 Se6 3.392109 1_555
K0 Se7 3.521412 1_555
K0 Se7 3.521412 1_455
K0 Se28 3.533296 1_555
K0 Se9 3.660812 1_455
K0 Se9 3.660812 1_555
K1 Se12 3.293665 1_555
K1 Se12 3.293665 1_655
K1 Se7 3.392109 1_555
K1 Se6 3.521412 1_555
K1 Se6 3.521412 1_655
K1 Se29 3.533296 1_555
K1 Se8 3.660812 1_555
K1 Se8 3.660812 1_655
K2 Se13 3.200276 1_455
K2 Se13 3.200276 1_555
K2 Se23 3.433557 1_455
K2 Se23 3.433557 1_555
K2 Se2 3.546870 1_555
K2 Se1 3.670068 1_555
K2 Se1 3.670068 1_455
K2 Se24 3.862589 1_555
K3 Se12 3.200276 1_655
K3 Se12 3.200276 1_555
K3 Se22 3.433557 1_555
K3 Se22 3.433557 1_655
K3 Se3 3.546870 1_555
K3 Se0 3.670068 1_655
K3 Se0 3.670068 1_555
K3 Se25 3.862589 1_555
Sb0 Se16 2.655442 1_555
Sb0 Se23 2.932378 1_465
Sb0 Se23 2.932378 1_565
Sb0 Se19 2.935358 1_455
Sb0 Se19 2.935358 1_555
Sb1 Se17 2.655442 1_555
Sb1 Se22 2.932378 1_645
Sb1 Se22 2.932378 1_545
Sb1 Se18 2.935358 1_655
Sb1 Se18 2.935358 1_555
Sb2 Se12 2.524996 1_555
Sb2 Se7 2.732674 1_555
Sb2 Se7 2.732674 1_455
Sb3 Se13 2.524996 1_555
Sb3 Se6 2.732674 1_555
Sb3 Se6 2.732674 1_655
Sb4 Se4 2.687783 1_555
Sb4 Se21 2.794722 1_455
Sb4 Se21 2.794722 1_555
Sb4 Se27 3.088323 1_554
Sb4 Se27 3.088323 1_454
Sb5 Se5 2.687783 1_555
Sb5 Se20 2.794722 1_555
Sb5 Se20 2.794722 1_655
Sb5 Se26 3.088323 1_656
Sb5 Se26 3.088323 1_556
Sb6 Se26 2.826939 1_556
Sb6 Se5 2.903482 1_555
Sb6 Se5 2.903482 1_455
Sb6 Se15 2.963368 1_556
Sb6 Se15 2.963368 1_456
Sb6 Se10 3.108972 1_555
Sb7 Se27 2.826939 1_554
Sb7 Se4 2.903482 1_655
Sb7 Se4 2.903482 1_555
Sb7 Se14 2.963368 1_554
Sb7 Se14 2.963368 1_654
Sb7 Se11 3.108972 1_555
Sb8 Se22 2.665055 1_555
Sb8 Se3 2.755749 1_455
Sb8 Se3 2.755749 1_555
Sb8 Se17 3.176135 1_565
Sb8 Se17 3.176135 1_465
Sb9 Se23 2.665055 1_555
Sb9 Se2 2.755749 1_555
Sb9 Se2 2.755749 1_655
Sb9 Se16 3.176135 1_645
Sb9 Se16 3.176135 1_545
Sb10 Se18 2.692609 1_555
Sb10 Se29 2.793662 1_455
Sb10 Se29 2.793662 1_555
Sb10 Se17 3.080804 1_555
Sb10 Se17 3.080804 1_455
Sb11 Se19 2.692609 1_555
Sb11 Se28 2.793662 1_655
Sb11 Se28 2.793662 1_555
Sb11 Se16 3.080804 1_555
Sb11 Se16 3.080804 1_655
Sb12 Se0 2.767567 1_555
Sb12 Se11 2.768167 1_465
Sb12 Se11 2.768167 1_565
Sb12 Se14 3.118745 1_564
Sb12 Se15 3.154162 1_455
Sb12 Se15 3.154162 1_555
Sb13 Se1 2.767567 1_555
Sb13 Se10 2.768167 1_545
Sb13 Se10 2.768167 1_645
Sb13 Se15 3.118745 1_546
Sb13 Se14 3.154162 1_655
Sb13 Se14 3.154162 1_555
Sb14 Se8 2.634522 1_555
Sb14 Se25 2.766590 1_455
Sb14 Se25 2.766590 1_555
Sb14 Se21 3.175302 1_455
Sb14 Se21 3.175302 1_555
Sb14 Se26 3.330333 1_555
Sb15 Se9 2.634522 1_555
Sb15 Se24 2.766590 1_655
Sb15 Se24 2.766590 1_555
Sb15 Se20 3.175302 1_555
Sb15 Se20 3.175302 1_655
Sb15 Se27 3.330333 1_555
Sb16 Se1 2.863142 1_455
Sb16 Se1 2.863142 1_555
Sb16 Se14 2.890290 1_555
Sb16 Se24 2.909573 1_555
Sb16 Se27 2.993877 1_455
Sb16 Se27 2.993877 1_555
Sb17 Se0 2.863142 1_555
Sb17 Se0 2.863142 1_655
Sb17 Se15 2.890290 1_555
Sb17 Se25 2.909573 1_555
Sb17 Se26 2.993877 1_655
Sb17 Se26 2.993877 1_555
Pb0 Se28 2.945605 1_555
Pb0 Se9 2.959843 1_555
Pb0 Se9 2.959843 1_455
Pb1 Se29 2.945605 1_555
Pb1 Se8 2.959843 1_555
Pb1 Se8 2.959843 1_655
