# generated using pymatgen
data_Ta3C2
_symmetry_space_group_name_H-M   'P 1'
_cell_length_a   3.12887742
_cell_length_b   3.12887654
_cell_length_c   30.19391157
_cell_angle_alpha   89.99999808
_cell_angle_beta   90.00002953
_cell_angle_gamma   119.99992141
_symmetry_Int_Tables_number   1
_chemical_formula_structural   Ta3C2
_chemical_formula_sum   'Ta12 C8'
_cell_volume   255.99255220
_cell_formula_units_Z   4
loop_
 _symmetry_equiv_pos_site_id
 _symmetry_equiv_pos_as_xyz
  1  'x, y, z'
loop_
 _atom_site_type_symbol
 _atom_site_label
 _atom_site_symmetry_multiplicity
 _atom_site_fract_x
 _atom_site_fract_y
 _atom_site_fract_z
 _atom_site_occupancy
  Ta  Ta0  1  0.00000100  0.00000100  0.87662922  1
  Ta  Ta1  1  0.66666500  0.33333400  0.20533188  1
  Ta  Ta2  1  0.33333300  0.66666700  0.54100770  1
  Ta  Ta3  1  0.33333500  0.66666600  0.79464537  1
  Ta  Ta4  1  -0.00000000  0.99999900  0.12337402  1
  Ta  Ta5  1  0.66666700  0.33333300  0.45901776  1
  Ta  Ta6  1  0.99999900  -0.00000000  0.71183680  1
  Ta  Ta7  1  0.66666500  0.33333300  0.04162708  1
  Ta  Ta8  1  0.33333400  0.66666700  0.37653929  1
  Ta  Ta9  1  0.33333600  0.66666800  0.95839558  1
  Ta  Ta10  1  0.99999900  0.00000000  0.28814089  1
  Ta  Ta11  1  0.66666600  0.33333200  0.62346444  1
  C  C0  1  0.66666900  0.33333500  0.91660037  1
  C  C1  1  0.33333300  0.66666600  0.24546716  1
  C  C2  1  -0.00000000  -0.00000000  0.58087961  1
  C  C3  1  0.66666700  0.33333300  0.75451573  1
  C  C4  1  0.33333200  0.66666600  0.08341346  1
  C  C5  1  0.00000000  0.00000000  0.41912527  1
  C  C6  1  0.66666600  0.33333300  0.33220742  1
  C  C7  1  0.33333300  0.66666700  0.66778094  1
loop_
_geom_bond_atom_site_label_1
_geom_bond_atom_site_label_2
_geom_bond_distance
_geom_bond_site_symmetry_2
C0 Ta0 2.172523 1_655
C0 Ta0 2.172524 1_665
C0 Ta0 2.172528 1_555
C0 Ta9 2.203594 1_555
C0 Ta9 2.203598 1_655
C0 Ta9 2.203598 1_545
C1 Ta1 2.175275 1_555
C1 Ta1 2.175285 1_455
C1 Ta1 2.175286 1_565
C1 Ta10 2.218893 1_565
C1 Ta10 2.218893 1_455
C1 Ta10 2.218896 1_465
C2 Ta2 2.170860 1_545
C2 Ta2 2.170863 1_445
C2 Ta2 2.170863 1_555
C2 Ta11 2.217334 1_455
C2 Ta11 2.217335 1_555
C2 Ta11 2.217340 1_445
C3 Ta3 2.175183 1_555
C3 Ta3 2.175189 1_545
C3 Ta3 2.175190 1_655
C3 Ta6 2.218981 1_555
C3 Ta6 2.218987 1_565
C3 Ta6 2.218988 1_455
C4 Ta4 2.172343 1_555
C4 Ta4 2.172349 1_545
C4 Ta4 2.172351 1_655
C4 Ta7 2.203442 1_555
C4 Ta7 2.203445 1_455
C4 Ta7 2.203445 1_565
C5 Ta5 2.171204 1_455
C5 Ta5 2.171208 1_555
C5 Ta5 2.171208 1_445
C5 Ta8 2.217355 1_445
C5 Ta8 2.217357 1_545
C5 Ta8 2.217358 1_555
C6 Ta10 2.243573 1_555
C6 Ta10 2.243577 1_455
C6 Ta10 2.243577 1_565
C6 Ta8 2.248334 1_555
C6 Ta8 2.248335 1_545
C6 Ta8 2.248339 1_655
C7 Ta6 2.243383 1_565
C7 Ta6 2.243385 1_465
C7 Ta6 2.243386 1_455
C7 Ta11 2.248057 1_565
C7 Ta11 2.248061 1_455
C7 Ta11 2.248062 1_555
