# generated using pymatgen
data_Sm5Co19
_symmetry_space_group_name_H-M   'P 1'
_cell_length_a   4.99022400
_cell_length_b   4.99022335
_cell_length_c   31.91102400
_cell_angle_alpha   90.00000000
_cell_angle_beta   90.00000000
_cell_angle_gamma   120.00000433
_symmetry_Int_Tables_number   1
_chemical_formula_structural   Sm5Co19
_chemical_formula_sum   'Sm10 Co38'
_cell_volume   688.19478546
_cell_formula_units_Z   2
loop_
 _symmetry_equiv_pos_site_id
 _symmetry_equiv_pos_as_xyz
  1  'x, y, z'
loop_
 _atom_site_type_symbol
 _atom_site_label
 _atom_site_symmetry_multiplicity
 _atom_site_fract_x
 _atom_site_fract_y
 _atom_site_fract_z
 _atom_site_occupancy
  Sm  Sm0  1  0.33333300  0.66666700  0.97934500  1
  Sm  Sm1  1  0.66666700  0.33333300  0.02065500  1
  Sm  Sm2  1  0.66666700  0.33333300  0.47934500  1
  Sm  Sm3  1  0.33333300  0.66666700  0.52065500  1
  Sm  Sm4  1  0.33333300  0.66666700  0.86942900  1
  Sm  Sm5  1  0.66666700  0.33333300  0.13057100  1
  Sm  Sm6  1  0.66666700  0.33333300  0.36942900  1
  Sm  Sm7  1  0.33333300  0.66666700  0.63057100  1
  Sm  Sm8  1  0.33333300  0.66666700  0.75000000  1
  Sm  Sm9  1  0.66666700  0.33333300  0.25000000  1
  Co  Co0  1  0.16567200  0.83432800  0.43423500  1
  Co  Co1  1  0.16567200  0.33134400  0.43423500  1
  Co  Co2  1  0.66865600  0.83432800  0.43423500  1
  Co  Co3  1  0.83432800  0.16567200  0.56576500  1
  Co  Co4  1  0.83432800  0.66865600  0.56576500  1
  Co  Co5  1  0.33134400  0.16567200  0.56576500  1
  Co  Co6  1  0.83432800  0.16567200  0.93423500  1
  Co  Co7  1  0.83432800  0.66865600  0.93423500  1
  Co  Co8  1  0.33134400  0.16567200  0.93423500  1
  Co  Co9  1  0.16567200  0.83432800  0.06576500  1
  Co  Co10  1  0.16567200  0.33134400  0.06576500  1
  Co  Co11  1  0.66865600  0.83432800  0.06576500  1
  Co  Co12  1  0.16646900  0.83353100  0.31158600  1
  Co  Co13  1  0.16646900  0.33293700  0.31158600  1
  Co  Co14  1  0.66706300  0.83353100  0.31158600  1
  Co  Co15  1  0.83353100  0.16646900  0.68841400  1
  Co  Co16  1  0.83353100  0.66706300  0.68841400  1
  Co  Co17  1  0.33293700  0.16646900  0.68841400  1
  Co  Co18  1  0.83353100  0.16646900  0.81158600  1
  Co  Co19  1  0.83353100  0.66706300  0.81158600  1
  Co  Co20  1  0.33293700  0.16646900  0.81158600  1
  Co  Co21  1  0.16646900  0.83353100  0.18841400  1
  Co  Co22  1  0.16646900  0.33293700  0.18841400  1
  Co  Co23  1  0.66706300  0.83353100  0.18841400  1
  Co  Co24  1  0.33333300  0.66666700  0.37369700  1
  Co  Co25  1  0.66666700  0.33333300  0.62630300  1
  Co  Co26  1  0.66666700  0.33333300  0.87369700  1
  Co  Co27  1  0.33333300  0.66666700  0.12630300  1
  Co  Co28  1  0.00000000  0.00000000  0.37352800  1
  Co  Co29  1  0.00000000  0.00000000  0.62647200  1
  Co  Co30  1  0.00000000  0.00000000  0.87352800  1
  Co  Co31  1  0.00000000  0.00000000  0.12647200  1
  Co  Co32  1  0.33333300  0.66666700  0.25000000  1
  Co  Co33  1  0.66666700  0.33333300  0.75000000  1
  Co  Co34  1  0.00000000  0.00000000  0.25000000  1
  Co  Co35  1  0.00000000  0.00000000  0.75000000  1
  Co  Co36  1  0.00000000  0.00000000  0.50000000  1
  Co  Co37  1  0.00000000  0.00000000  0.00000000  1
loop_
_geom_bond_atom_site_label_1
_geom_bond_atom_site_label_2
_geom_bond_distance
_geom_bond_site_symmetry_2
Sm0 Sm1 3.168364 1_566
Sm0 Sm1 3.168364 1_456
Sm0 Sm1 3.168372 1_556
Sm0 Sm4 3.507532 1_555
Sm1 Sm5 3.507532 1_555
Sm2 Sm3 3.168364 1_545
Sm2 Sm3 3.168364 1_655
Sm2 Sm3 3.168372 1_555
Sm2 Sm6 3.507532 1_555
Sm3 Sm7 3.507532 1_555
Co0 Co28 2.409010 1_565
Co0 Co24 2.414952 1_555
Co0 Co1 2.480221 1_565
Co0 Co2 2.480221 1_455
Co0 Co1 2.510002 1_555
Co0 Co2 2.510003 1_555
Co0 Co36 2.540618 1_565
Co0 Sm2 2.880596 1_455
Co0 Sm2 2.880596 1_565
Co0 Sm3 3.115320 1_555
Co0 Sm6 3.240739 1_455
Co0 Sm6 3.240739 1_565
Co1 Co28 2.409010 1_555
Co1 Co24 2.414955 1_555
Co1 Co2 2.480221 1_445
Co1 Co2 2.510002 1_555
Co1 Co36 2.540618 1_555
Co1 Sm2 2.880594 1_455
Co1 Sm2 2.880599 1_555
Co1 Sm3 3.115322 1_555
Co1 Sm6 3.240737 1_455
Co1 Sm6 3.240741 1_555
Co2 Co28 2.409010 1_665
Co2 Co24 2.414955 1_555
Co2 Co36 2.540618 1_665
Co2 Sm2 2.880594 1_565
Co2 Sm2 2.880598 1_555
Co2 Sm3 3.115322 1_555
Co2 Sm6 3.240737 1_565
Co2 Sm6 3.240741 1_555
Co3 Co4 2.480221 1_545
Co3 Co5 2.480221 1_655
Co3 Co4 2.510002 1_555
Co3 Co5 2.510003 1_555
Co3 Co36 2.540618 1_655
Co3 Sm3 2.880596 1_655
Co3 Sm3 2.880596 1_545
Co3 Sm2 3.115320 1_555
Co3 Sm7 3.240739 1_655
Co3 Sm7 3.240739 1_545
Co4 Co5 2.480221 1_665
Co4 Co5 2.510002 1_555
Co4 Sm3 2.880594 1_655
Co4 Sm3 2.880599 1_555
Co4 Sm2 3.115322 1_555
Co4 Sm7 3.240737 1_655
Co4 Sm7 3.240741 1_555
Co5 Sm3 2.880594 1_545
Co5 Sm3 2.880598 1_555
Co5 Sm2 3.115322 1_555
Co5 Sm7 3.240737 1_545
Co5 Sm7 3.240741 1_555
Co6 Co7 2.480221 1_545
Co6 Co8 2.480221 1_655
Co6 Co7 2.510002 1_555
Co6 Co8 2.510003 1_555
Co6 Sm0 2.880596 1_655
Co6 Sm0 2.880596 1_545
Co6 Sm1 3.115320 1_556
Co6 Sm4 3.240739 1_655
Co6 Sm4 3.240739 1_545
Co7 Co8 2.480221 1_665
Co7 Co8 2.510002 1_555
Co7 Sm0 2.880594 1_655
Co7 Sm0 2.880599 1_555
Co7 Sm1 3.115322 1_556
Co7 Sm4 3.240737 1_655
Co7 Sm4 3.240741 1_555
Co8 Sm0 2.880594 1_545
Co8 Sm0 2.880598 1_555
Co8 Sm1 3.115322 1_556
Co8 Sm4 3.240737 1_545
Co8 Sm4 3.240741 1_555
Co9 Sm1 2.880596 1_455
Co9 Sm1 2.880596 1_565
Co9 Sm0 3.115320 1_554
Co9 Sm5 3.240739 1_455
Co9 Sm5 3.240739 1_565
Co10 Co31 2.409010 1_555
Co10 Co27 2.414955 1_555
Co10 Co9 2.480221 1_545
Co10 Co11 2.480221 1_445
Co10 Co11 2.510002 1_555
Co10 Co9 2.510002 1_555
Co10 Co37 2.540618 1_555
Co10 Sm1 2.880594 1_455
Co10 Sm1 2.880599 1_555
Co10 Sm0 3.115322 1_554
Co10 Sm5 3.240737 1_455
Co10 Sm5 3.240741 1_555
Co11 Co31 2.409010 1_665
Co11 Co27 2.414955 1_555
Co11 Co9 2.480221 1_655
Co11 Co9 2.510003 1_555
Co11 Co37 2.540618 1_665
Co11 Sm1 2.880594 1_565
Co11 Sm1 2.880598 1_555
Co11 Sm0 3.115322 1_554
Co11 Sm5 3.240737 1_565
Co11 Sm5 3.240741 1_555
Co12 Co34 2.435687 1_565
Co12 Co32 2.437705 1_555
Co12 Co28 2.444862 1_565
Co12 Co24 2.451232 1_555
Co12 Co13 2.492147 1_565
Co12 Co14 2.492148 1_455
Co12 Co13 2.498076 1_555
Co12 Co14 2.498076 1_555
Co12 Sm9 3.176142 1_455
Co12 Sm9 3.176142 1_565
Co13 Co34 2.435684 1_555
Co13 Co32 2.437710 1_555
Co13 Co28 2.444860 1_555
Co13 Co24 2.451237 1_555
Co13 Co14 2.492147 1_445
Co13 Co14 2.498076 1_555
Co13 Sm9 3.176143 1_555
Co13 Sm9 3.176143 1_455
Co14 Co34 2.435684 1_665
Co14 Co32 2.437710 1_555
Co14 Co28 2.444860 1_665
Co14 Co24 2.451237 1_555
Co14 Sm9 3.176142 1_555
Co14 Sm9 3.176142 1_565
Co15 Co35 2.435687 1_655
Co15 Co33 2.437705 1_555
Co15 Co29 2.444862 1_655
Co15 Co25 2.451232 1_555
Co15 Co16 2.492147 1_545
Co15 Co17 2.492148 1_655
Co15 Co16 2.498076 1_555
Co15 Co17 2.498076 1_555
Co15 Sm8 3.176142 1_655
Co15 Sm8 3.176142 1_545
Co16 Co35 2.435684 1_665
Co16 Co33 2.437710 1_555
Co16 Co29 2.444860 1_665
Co16 Co25 2.451237 1_555
Co16 Co17 2.492147 1_665
Co16 Co17 2.498076 1_555
Co16 Sm8 3.176143 1_555
Co16 Sm8 3.176143 1_655
Co17 Co35 2.435684 1_555
Co17 Co33 2.437710 1_555
Co17 Co29 2.444860 1_555
Co17 Co25 2.451237 1_555
Co17 Sm8 3.176142 1_555
Co17 Sm8 3.176142 1_545
Co18 Co35 2.435687 1_655
Co18 Co33 2.437705 1_555
Co18 Co30 2.444862 1_655
Co18 Co26 2.451232 1_555
Co18 Co19 2.492147 1_545
Co18 Co20 2.492148 1_655
Co18 Co19 2.498076 1_555
Co18 Co20 2.498076 1_555
Co18 Sm8 3.176142 1_655
Co18 Sm8 3.176142 1_545
Co19 Co35 2.435684 1_665
Co19 Co33 2.437710 1_555
Co19 Co30 2.444860 1_665
Co19 Co26 2.451237 1_555
Co19 Co20 2.492147 1_665
Co19 Co20 2.498076 1_555
Co19 Sm8 3.176143 1_555
Co19 Sm8 3.176143 1_655
Co20 Co35 2.435684 1_555
Co20 Co33 2.437710 1_555
Co20 Co30 2.444860 1_555
Co20 Co26 2.451237 1_555
Co20 Sm8 3.176142 1_555
Co20 Sm8 3.176142 1_545
Co21 Co34 2.435687 1_565
Co21 Co32 2.437705 1_555
Co21 Co31 2.444862 1_565
Co21 Co27 2.451232 1_555
Co21 Co22 2.492147 1_565
Co21 Co23 2.492148 1_455
Co21 Co22 2.498076 1_555
Co21 Co23 2.498076 1_555
Co21 Sm9 3.176142 1_455
Co21 Sm9 3.176142 1_565
Co22 Co34 2.435684 1_555
Co22 Co32 2.437710 1_555
Co22 Co31 2.444860 1_555
Co22 Co27 2.451237 1_555
Co22 Co23 2.492147 1_445
Co22 Co23 2.498076 1_555
Co22 Sm9 3.176143 1_555
Co22 Sm9 3.176143 1_455
Co23 Co34 2.435684 1_665
Co23 Co32 2.437710 1_555
Co23 Co31 2.444860 1_665
Co23 Co27 2.451237 1_555
Co23 Sm9 3.176142 1_555
Co23 Sm9 3.176142 1_565
Co24 Co28 2.881109 1_565
Co24 Co28 2.881113 1_555
Co24 Co28 2.881114 1_665
Co24 Sm6 2.884321 1_565
Co24 Sm6 2.884322 1_455
Co24 Sm6 2.884330 1_555
Co25 Co3 2.414952 1_555
Co25 Co4 2.414955 1_555
Co25 Co5 2.414955 1_555
Co25 Co29 2.881109 1_655
Co25 Co29 2.881113 1_665
Co25 Co29 2.881114 1_555
Co25 Sm7 2.884321 1_545
Co25 Sm7 2.884322 1_655
Co25 Sm7 2.884330 1_555
Co26 Co6 2.414952 1_555
Co26 Co7 2.414955 1_555
Co26 Co8 2.414955 1_555
Co26 Co30 2.881109 1_655
Co26 Co30 2.881113 1_665
Co26 Co30 2.881114 1_555
Co26 Sm4 2.884321 1_545
Co26 Sm4 2.884322 1_655
Co26 Sm4 2.884330 1_555
Co27 Co9 2.414952 1_555
Co27 Co31 2.881109 1_565
Co27 Co31 2.881113 1_555
Co27 Co31 2.881114 1_665
Co27 Sm5 2.884321 1_565
Co27 Sm5 2.884322 1_455
Co27 Sm5 2.884330 1_555
Co28 Sm6 2.884072 1_455
Co28 Sm6 2.884076 1_445
Co28 Sm6 2.884076 1_555
Co29 Co4 2.409010 1_445
Co29 Co3 2.409010 1_455
Co29 Co5 2.409010 1_555
Co29 Sm7 2.884072 1_545
Co29 Sm7 2.884076 1_555
Co29 Sm7 2.884076 1_445
Co30 Co7 2.409010 1_445
Co30 Co6 2.409010 1_455
Co30 Co8 2.409010 1_555
Co30 Sm4 2.884072 1_545
Co30 Sm4 2.884076 1_555
Co30 Sm4 2.884076 1_445
Co31 Co9 2.409010 1_545
Co31 Sm5 2.884072 1_455
Co31 Sm5 2.884076 1_445
Co31 Sm5 2.884076 1_555
Co32 Sm9 2.881104 1_565
Co32 Co34 2.881104 1_565
Co32 Sm9 2.881104 1_455
Co32 Co34 2.881108 1_555
Co32 Co34 2.881108 1_665
Co32 Sm9 2.881113 1_555
Co33 Sm8 2.881104 1_545
Co33 Co35 2.881104 1_655
Co33 Sm8 2.881104 1_655
Co33 Co35 2.881108 1_665
Co33 Co35 2.881108 1_555
Co33 Sm8 2.881113 1_555
Co34 Sm9 2.881104 1_455
Co34 Sm9 2.881108 1_445
Co34 Sm9 2.881108 1_555
Co35 Sm8 2.881104 1_545
Co35 Sm8 2.881108 1_555
Co35 Sm8 2.881108 1_445
Co36 Co4 2.540618 1_445
Co36 Co5 2.540618 1_555
Co36 Sm3 2.955538 1_545
Co36 Sm2 2.955538 1_455
Co36 Sm3 2.955542 1_555
Co36 Sm2 2.955542 1_445
Co36 Sm3 2.955542 1_445
Co36 Sm2 2.955542 1_555
Co37 Co7 2.540618 1_444
Co37 Co9 2.540618 1_545
Co37 Co6 2.540618 1_454
Co37 Co8 2.540618 1_554
Co37 Sm1 2.955538 1_455
Co37 Sm0 2.955538 1_544
Co37 Sm1 2.955542 1_445
Co37 Sm0 2.955542 1_554
Co37 Sm1 2.955542 1_555
Co37 Sm0 2.955542 1_444
