# generated using pymatgen
data_V4CoCuO12
_symmetry_space_group_name_H-M   'P 1'
_cell_length_a   6.58614316
_cell_length_b   6.58614278
_cell_length_c   6.00305659
_cell_angle_alpha   76.58155178
_cell_angle_beta   103.41846051
_cell_angle_gamma   95.83297135
_symmetry_Int_Tables_number   1
_chemical_formula_structural   V4CoCuO12
_chemical_formula_sum   'V4 Co1 Cu1 O12'
_cell_volume   246.05899284
_cell_formula_units_Z   1
loop_
 _symmetry_equiv_pos_site_id
 _symmetry_equiv_pos_as_xyz
  1  'x, y, z'
loop_
 _atom_site_type_symbol
 _atom_site_label
 _atom_site_symmetry_multiplicity
 _atom_site_fract_x
 _atom_site_fract_y
 _atom_site_fract_z
 _atom_site_occupancy
  V  V0  1  0.20534600  0.61456300  0.75705800  1
  V  V1  1  0.39047200  0.78681100  0.26791100  1
  V  V2  1  0.61456300  0.20534600  0.74294200  1
  V  V3  1  0.78681100  0.39047200  0.23208900  1
  Co  Co0  1  0.91883300  0.91883300  0.25000000  1
  Cu  Cu0  1  0.08441300  0.08441300  0.75000000  1
  O  O0  1  0.03450800  0.81515200  0.64194200  1
  O  O1  1  0.07913100  0.37636900  0.76638100  1
  O  O2  1  0.20224300  0.96459400  0.18281000  1
  O  O3  1  0.37424200  0.63833000  0.55716700  1
  O  O4  1  0.37636900  0.07913100  0.73361900  1
  O  O5  1  0.34355000  0.63205800  0.04693700  1
  O  O6  1  0.63833000  0.37424200  0.94283300  1
  O  O7  1  0.62949800  0.90988700  0.28011600  1
  O  O8  1  0.63205800  0.34355000  0.45306300  1
  O  O9  1  0.81515200  0.03450800  0.85805800  1
  O  O10  1  0.90988700  0.62949800  0.21988400  1
  O  O11  1  0.96459400  0.20224300  0.31719000  1
loop_
_geom_bond_atom_site_label_1
_geom_bond_atom_site_label_2
_geom_bond_distance
_geom_bond_site_symmetry_2
Co0 O10 1.949257 1_555
Co0 O7 1.949257 1_555
Co0 O11 1.978964 1_565
Co0 O2 1.978964 1_655
Co0 O0 2.260690 1_655
Co0 O9 2.260690 1_564
Cu0 O1 1.952237 1_555
Cu0 O4 1.952237 1_555
Cu0 O0 1.997551 1_545
Cu0 O9 1.997551 1_455
Cu0 O11 2.492510 1_455
Cu0 O2 2.492510 1_546
O0 V0 1.733899 1_555
O1 V0 1.694400 1_555
O2 V1 1.700689 1_555
O3 V0 1.788495 1_555
O3 V1 1.805461 1_555
O4 V2 1.694400 1_555
O5 V0 1.790685 1_554
O5 V1 1.807539 1_555
O6 V2 1.788495 1_555
O6 V3 1.805460 1_556
O7 V1 1.689788 1_555
O8 V2 1.790685 1_555
O8 V3 1.807539 1_555
O9 V2 1.733899 1_555
O10 V3 1.689788 1_555
O11 V3 1.700689 1_555
