# generated using pymatgen
data_BaSrCe2O6
_symmetry_space_group_name_H-M   'P 1'
_cell_length_a   4.45786164
_cell_length_b   4.45786164
_cell_length_c   8.91285109
_cell_angle_alpha   90.00000000
_cell_angle_beta   90.00000000
_cell_angle_gamma   90.00000000
_symmetry_Int_Tables_number   1
_chemical_formula_structural   BaSrCe2O6
_chemical_formula_sum   'Ba1 Sr1 Ce2 O6'
_cell_volume   177.12090425
_cell_formula_units_Z   1
loop_
 _symmetry_equiv_pos_site_id
 _symmetry_equiv_pos_as_xyz
  1  'x, y, z'
loop_
 _atom_site_type_symbol
 _atom_site_label
 _atom_site_symmetry_multiplicity
 _atom_site_fract_x
 _atom_site_fract_y
 _atom_site_fract_z
 _atom_site_occupancy
  Ba  Ba0  1  0.50000000  0.50000000  0.00000000  1
  Sr  Sr0  1  0.50000000  0.50000000  0.50000000  1
  Ce  Ce0  1  -0.00000000  0.00000000  0.74899968  1
  Ce  Ce1  1  0.00000000  0.00000000  0.25100032  1
  O  O0  1  0.50000000  0.00000000  0.74875600  1
  O  O1  1  0.50000000  0.00000000  0.25124400  1
  O  O2  1  -0.00000000  0.00000000  0.50000000  1
  O  O3  1  0.00000000  0.00000000  0.00000000  1
  O  O4  1  -0.00000000  0.50000000  0.74875600  1
  O  O5  1  0.00000000  0.50000000  0.25124400  1
loop_
_geom_bond_atom_site_label_1
_geom_bond_atom_site_label_2
_geom_bond_distance
_geom_bond_site_symmetry_2
Ba0 O3 3.152184 1_665
Ba0 O3 3.152184 1_655
Ba0 O3 3.152184 1_555
Ba0 O3 3.152184 1_565
Ba0 O1 3.159525 1_555
Ba0 O5 3.159525 1_555
Ba0 O5 3.159525 1_655
Ba0 O1 3.159525 1_565
Ba0 O0 3.159525 1_554
Ba0 O4 3.159525 1_554
Ba0 O0 3.159525 1_564
Ba0 O4 3.159525 1_654
Ce0 O2 2.219297 1_555
Ce0 O4 2.228932 1_555
Ce0 O4 2.228932 1_545
Ce0 O0 2.228932 1_555
Ce0 O0 2.228932 1_455
Ce0 O3 2.237128 1_556
Ce1 O2 2.219297 1_555
Ce1 O1 2.228932 1_555
Ce1 O5 2.228932 1_555
Ce1 O1 2.228932 1_455
Ce1 O5 2.228932 1_545
Ce1 O3 2.237128 1_555
O0 Sr0 3.143847 1_555
O0 Sr0 3.143847 1_545
O1 Sr0 3.143847 1_555
O1 Sr0 3.143847 1_545
O2 Sr0 3.152184 1_455
O2 Sr0 3.152184 1_555
O2 Sr0 3.152184 1_445
O2 Sr0 3.152184 1_545
O4 Sr0 3.143847 1_455
O4 Sr0 3.143847 1_555
O5 Sr0 3.143847 1_455
O5 Sr0 3.143847 1_555
