# generated using pymatgen
data_NbTl3S4
_symmetry_space_group_name_H-M   'P 1'
_cell_length_a   6.70374611
_cell_length_b   6.70374611
_cell_length_c   6.70374611
_cell_angle_alpha   109.47122063
_cell_angle_beta   109.47122063
_cell_angle_gamma   109.47122063
_symmetry_Int_Tables_number   1
_chemical_formula_structural   NbTl3S4
_chemical_formula_sum   'Nb1 Tl3 S4'
_cell_volume   231.91603785
_cell_formula_units_Z   1
loop_
 _symmetry_equiv_pos_site_id
 _symmetry_equiv_pos_as_xyz
  1  'x, y, z'
loop_
 _atom_site_type_symbol
 _atom_site_label
 _atom_site_symmetry_multiplicity
 _atom_site_fract_x
 _atom_site_fract_y
 _atom_site_fract_z
 _atom_site_occupancy
  Nb  Nb0  1  0.00000000  -0.00000000  -0.00000000  1
  Tl  Tl0  1  0.00000000  0.50000000  0.50000000  1
  Tl  Tl1  1  0.50000000  -0.00000000  0.50000000  1
  Tl  Tl2  1  0.50000000  0.50000000  -0.00000000  1
  S  S0  1  0.34217077  0.00000000  0.00000000  1
  S  S1  1  0.00000000  0.34217077  0.00000000  1
  S  S2  1  0.00000000  0.00000000  0.34217077  1
  S  S3  1  0.65782923  0.65782923  0.65782923  1
loop_
_geom_bond_atom_site_label_1
_geom_bond_atom_site_label_2
_geom_bond_distance
_geom_bond_site_symmetry_2
Nb0 S3 2.293826 1_444
Nb0 S2 2.293826 1_555
Nb0 S0 2.293826 1_555
Nb0 S1 2.293826 1_555
S0 Tl1 3.160731 1_555
S0 Tl2 3.160731 1_555
S0 Tl0 3.160731 1_544
S1 Tl2 3.160731 1_555
S1 Tl1 3.160731 1_454
S1 Tl0 3.160731 1_555
S2 Tl1 3.160731 1_555
S2 Tl0 3.160731 1_555
S2 Tl2 3.160731 1_445
S3 Tl2 3.160731 1_556
S3 Tl1 3.160731 1_565
S3 Tl0 3.160731 1_655
