# generated using pymatgen
data_Sm5Rh4
_symmetry_space_group_name_H-M   'P 1'
_cell_length_a   7.43086532
_cell_length_b   7.58279641
_cell_length_c   14.71722919
_cell_angle_alpha   90.00000000
_cell_angle_beta   90.00000000
_cell_angle_gamma   90.00000000
_symmetry_Int_Tables_number   1
_chemical_formula_structural   Sm5Rh4
_chemical_formula_sum   'Sm20 Rh16'
_cell_volume   829.26787008
_cell_formula_units_Z   4
loop_
 _symmetry_equiv_pos_site_id
 _symmetry_equiv_pos_as_xyz
  1  'x, y, z'
loop_
 _atom_site_type_symbol
 _atom_site_label
 _atom_site_symmetry_multiplicity
 _atom_site_fract_x
 _atom_site_fract_y
 _atom_site_fract_z
 _atom_site_occupancy
  Sm  Sm0  1  0.33900862  0.83132909  0.87803213  1
  Sm  Sm1  1  0.83900862  0.66867091  0.62196787  1
  Sm  Sm2  1  0.66099138  0.16867091  0.37803213  1
  Sm  Sm3  1  0.16099138  0.33132909  0.12196787  1
  Sm  Sm4  1  0.66099138  0.16867091  0.12196787  1
  Sm  Sm5  1  0.16099138  0.33132909  0.37803213  1
  Sm  Sm6  1  0.33900862  0.83132909  0.62196787  1
  Sm  Sm7  1  0.83900862  0.66867091  0.87803213  1
  Sm  Sm8  1  0.49011967  0.31990681  0.90758712  1
  Sm  Sm9  1  0.99011967  0.18009319  0.59241288  1
  Sm  Sm10  1  0.50988033  0.68009319  0.40758712  1
  Sm  Sm11  1  0.00988033  0.81990681  0.09241288  1
  Sm  Sm12  1  0.50988033  0.68009319  0.09241288  1
  Sm  Sm13  1  0.00988033  0.81990681  0.40758712  1
  Sm  Sm14  1  0.49011967  0.31990681  0.59241288  1
  Sm  Sm15  1  0.99011967  0.18009319  0.90758712  1
  Sm  Sm16  1  0.17744725  0.48699058  0.75000000  1
  Sm  Sm17  1  0.67744725  0.01300942  0.75000000  1
  Sm  Sm18  1  0.82255275  0.51300942  0.25000000  1
  Sm  Sm19  1  0.32255275  0.98699058  0.25000000  1
  Rh  Rh0  1  0.32051897  0.03310567  0.03896406  1
  Rh  Rh1  1  0.82051897  0.46689433  0.46103594  1
  Rh  Rh2  1  0.67948103  0.96689433  0.53896406  1
  Rh  Rh3  1  0.17948103  0.53310567  0.96103594  1
  Rh  Rh4  1  0.67948103  0.96689433  0.96103594  1
  Rh  Rh5  1  0.17948103  0.53310567  0.53896406  1
  Rh  Rh6  1  0.32051897  0.03310567  0.46103594  1
  Rh  Rh7  1  0.82051897  0.46689433  0.03896406  1
  Rh  Rh8  1  0.54414939  0.59977021  0.75000000  1
  Rh  Rh9  1  0.04414939  0.90022979  0.75000000  1
  Rh  Rh10  1  0.45585061  0.40022979  0.25000000  1
  Rh  Rh11  1  0.95585061  0.09977021  0.25000000  1
  Rh  Rh12  1  0.30427443  0.14584498  0.75000000  1
  Rh  Rh13  1  0.80427443  0.35415502  0.75000000  1
  Rh  Rh14  1  0.69572557  0.85415502  0.25000000  1
  Rh  Rh15  1  0.19572557  0.64584498  0.25000000  1
loop_
_geom_bond_atom_site_label_1
_geom_bond_atom_site_label_2
_geom_bond_distance
_geom_bond_site_symmetry_2
Rh0 Sm0 2.823036 1_544
Rh0 Sm3 2.830423 1_555
Rh0 Sm11 2.925853 1_545
Rh0 Sm4 2.991639 1_555
Rh0 Sm12 3.124760 1_545
Rh0 Sm19 3.125524 1_545
Rh0 Sm8 3.171167 1_554
Rh0 Sm15 3.317905 1_454
Rh1 Sm1 2.823036 1_555
Rh1 Sm2 2.830423 1_555
Rh1 Sm10 2.925853 1_555
Rh1 Sm5 2.991639 1_655
Rh1 Sm13 3.124760 1_655
Rh1 Sm18 3.125524 1_555
Rh1 Sm9 3.171167 1_555
Rh1 Sm14 3.317905 1_555
Rh2 Sm2 2.823036 1_565
Rh2 Sm1 2.830423 1_555
Rh2 Sm9 2.925853 1_565
Rh2 Sm6 2.991639 1_555
Rh2 Sm14 3.124760 1_565
Rh2 Sm17 3.125524 1_565
Rh2 Sm10 3.171167 1_555
Rh2 Sm13 3.317905 1_655
Rh3 Sm3 2.823036 1_556
Rh3 Sm0 2.830423 1_555
Rh3 Sm8 2.925853 1_555
Rh3 Sm7 2.991639 1_455
Rh3 Sm15 3.124760 1_455
Rh3 Sm16 3.125524 1_555
Rh3 Sm11 3.171167 1_556
Rh3 Sm12 3.317905 1_556
Rh4 Sm4 2.823036 1_566
Rh4 Sm7 2.830423 1_555
Rh4 Sm15 2.925853 1_565
Rh4 Sm0 2.991639 1_555
Rh4 Sm8 3.124760 1_565
Rh4 Sm17 3.125524 1_565
Rh4 Sm12 3.171167 1_556
Rh4 Sm11 3.317905 1_656
Rh5 Sm5 2.823036 1_555
Rh5 Sm6 2.830423 1_555
Rh5 Sm14 2.925853 1_555
Rh5 Sm1 2.991639 1_455
Rh5 Sm9 3.124760 1_455
Rh5 Sm16 3.125524 1_555
Rh5 Sm13 3.171167 1_555
Rh5 Sm10 3.317905 1_555
Rh6 Sm6 2.823036 1_545
Rh6 Sm5 2.830423 1_555
Rh6 Sm13 2.925853 1_545
Rh6 Sm2 2.991639 1_555
Rh6 Sm10 3.124760 1_545
Rh6 Sm19 3.125524 1_545
Rh6 Sm14 3.171167 1_555
Rh6 Sm9 3.317905 1_455
Rh7 Sm7 2.823036 1_554
Rh7 Sm4 2.830423 1_555
Rh7 Sm12 2.925853 1_555
Rh7 Sm3 2.991639 1_655
Rh7 Sm11 3.124760 1_655
Rh7 Sm18 3.125524 1_555
Rh7 Sm15 3.171167 1_554
Rh7 Sm8 3.317905 1_554
Rh8 Sm16 2.855958 1_555
Rh8 Sm1 2.936700 1_555
Rh8 Sm7 2.936700 1_555
Rh8 Sm0 2.992871 1_555
Rh8 Sm6 2.992871 1_555
Rh8 Sm14 3.169164 1_555
Rh8 Sm8 3.169164 1_555
Rh8 Sm17 3.286336 1_565
Rh9 Sm17 2.855958 1_465
Rh9 Sm6 2.936700 1_555
Rh9 Sm0 2.936700 1_555
Rh9 Sm7 2.992871 1_455
Rh9 Sm1 2.992871 1_455
Rh9 Sm9 3.169164 1_465
Rh9 Sm15 3.169164 1_465
Rh9 Sm16 3.286336 1_555
Rh10 Rh15 2.684219 1_555
Rh10 Sm18 2.855958 1_555
Rh10 Sm3 2.936700 1_555
Rh10 Sm5 2.936700 1_555
Rh10 Sm4 2.992871 1_555
Rh10 Sm2 2.992871 1_555
Rh10 Sm12 3.169164 1_555
Rh10 Sm10 3.169164 1_555
Rh10 Sm19 3.286336 1_545
Rh11 Rh14 2.684219 1_545
Rh11 Sm19 2.855958 1_645
Rh11 Sm4 2.936700 1_555
Rh11 Sm2 2.936700 1_555
Rh11 Sm3 2.992871 1_655
Rh11 Sm5 2.992871 1_655
Rh11 Sm11 3.169164 1_645
Rh11 Sm13 3.169164 1_645
Rh11 Sm18 3.286336 1_555
Rh12 Rh9 2.684219 1_545
Rh12 Sm16 2.753164 1_555
Rh12 Sm17 2.950270 1_555
Rh12 Sm8 3.004681 1_555
Rh12 Sm14 3.004681 1_555
Rh12 Sm6 3.050396 1_545
Rh12 Sm0 3.050396 1_545
Rh12 Sm15 3.300903 1_455
Rh12 Sm9 3.300903 1_455
Rh13 Rh8 2.684219 1_555
Rh13 Sm17 2.753164 1_555
Rh13 Sm16 2.950270 1_655
Rh13 Sm9 3.004681 1_555
Rh13 Sm15 3.004681 1_555
Rh13 Sm7 3.050396 1_555
Rh13 Sm1 3.050396 1_555
Rh13 Sm8 3.300903 1_555
Rh13 Sm14 3.300903 1_555
Rh14 Sm18 2.753164 1_555
Rh14 Sm19 2.950270 1_555
Rh14 Sm12 3.004681 1_555
Rh14 Sm10 3.004681 1_555
Rh14 Sm4 3.050396 1_565
Rh14 Sm2 3.050396 1_565
Rh14 Sm11 3.300903 1_655
Rh14 Sm13 3.300903 1_655
Rh15 Sm19 2.753164 1_555
Rh15 Sm18 2.950270 1_455
Rh15 Sm11 3.004681 1_555
Rh15 Sm13 3.004681 1_555
Rh15 Sm3 3.050396 1_555
Rh15 Sm5 3.050396 1_555
Rh15 Sm12 3.300903 1_555
Rh15 Sm10 3.300903 1_555
