# generated using pymatgen
data_B
_symmetry_space_group_name_H-M   'P 1'
_cell_length_a   10.08982112
_cell_length_b   10.08982478
_cell_length_c   10.08982502
_cell_angle_alpha   65.39704281
_cell_angle_beta   65.39708834
_cell_angle_gamma   65.39706952
_symmetry_Int_Tables_number   1
_chemical_formula_structural   B
_chemical_formula_sum   B105
_cell_volume   811.63431082
_cell_formula_units_Z   105
loop_
 _symmetry_equiv_pos_site_id
 _symmetry_equiv_pos_as_xyz
  1  'x, y, z'
loop_
 _atom_site_type_symbol
 _atom_site_label
 _atom_site_symmetry_multiplicity
 _atom_site_fract_x
 _atom_site_fract_y
 _atom_site_fract_z
 _atom_site_occupancy
  B  B0  1  0.00285368  0.16311934  0.00285468  1
  B  B1  1  0.00285368  0.00285468  0.16311934  1
  B  B2  1  0.16311734  0.00285468  0.00285468  1
  B  B3  1  0.83688266  0.99714532  0.99714532  1
  B  B4  1  0.99714632  0.83688066  0.99714532  1
  B  B5  1  0.99714632  0.99714532  0.83688066  1
  B  B6  1  0.10006616  0.84087079  0.10006716  1
  B  B7  1  0.10006616  0.10006716  0.84087079  1
  B  B8  1  0.84087179  0.10006616  0.10006616  1
  B  B9  1  0.15912821  0.89993384  0.89993384  1
  B  B10  1  0.89993384  0.15912921  0.89993284  1
  B  B11  1  0.89993384  0.89993284  0.15912921  1
  B  B12  1  0.99553840  0.66231468  0.99553740  1
  B  B13  1  0.99553840  0.99553740  0.66231468  1
  B  B14  1  0.66231468  0.99553740  0.99553740  1
  B  B15  1  0.33768532  0.00446260  0.00446260  1
  B  B16  1  0.00446160  0.33768532  0.00446260  1
  B  B17  1  0.00446160  0.00446260  0.33768532  1
  B  B18  1  0.10400861  0.49047598  0.10400861  1
  B  B19  1  0.10400861  0.10400861  0.49047598  1
  B  B20  1  0.49047598  0.10400861  0.10400861  1
  B  B21  1  0.50952402  0.89599139  0.89599139  1
  B  B22  1  0.89599139  0.50952402  0.89599139  1
  B  B23  1  0.89599139  0.89599139  0.50952402  1
  B  B24  1  0.34784772  0.00387909  0.17617542  1
  B  B25  1  0.17617342  0.34784872  0.00388009  1
  B  B26  1  0.00387909  0.17617342  0.34784972  1
  B  B27  1  0.99612091  0.65215028  0.82382658  1
  B  B28  1  0.82382658  0.99611991  0.65215128  1
  B  B29  1  0.65215228  0.82382458  0.99612091  1
  B  B30  1  0.65215228  0.99612091  0.82382458  1
  B  B31  1  0.82382658  0.65215128  0.99611991  1
  B  B32  1  0.99612091  0.82382658  0.65215028  1
  B  B33  1  0.00387909  0.34784972  0.17617342  1
  B  B34  1  0.17617342  0.00388009  0.34784872  1
  B  B35  1  0.34784772  0.17617542  0.00387909  1
  B  B36  1  0.55106540  0.89493514  0.16598748  1
  B  B37  1  0.16598748  0.55106540  0.89493614  1
  B  B38  1  0.89493514  0.16598748  0.55106540  1
  B  B39  1  0.10506486  0.44893460  0.83401252  1
  B  B40  1  0.83401252  0.10506386  0.44893460  1
  B  B41  1  0.44893460  0.83401252  0.10506486  1
  B  B42  1  0.44893460  0.10506486  0.83401252  1
  B  B43  1  0.83401252  0.44893460  0.10506386  1
  B  B44  1  0.10506486  0.83401252  0.44893460  1
  B  B45  1  0.89493514  0.55106540  0.16598748  1
  B  B46  1  0.16598748  0.89493614  0.55106540  1
  B  B47  1  0.55106540  0.16598748  0.89493514  1
  B  B48  1  0.19898408  0.68653831  0.19898308  1
  B  B49  1  0.19898408  0.19898308  0.68653831  1
  B  B50  1  0.68653931  0.19898308  0.19898308  1
  B  B51  1  0.31346069  0.80101692  0.80101692  1
  B  B52  1  0.80101592  0.31346169  0.80101692  1
  B  B53  1  0.80101592  0.80101692  0.31346169  1
  B  B54  1  0.68401806  0.20036544  0.37589705  1
  B  B55  1  0.37589805  0.68401606  0.20036544  1
  B  B56  1  0.20036544  0.37589805  0.68401706  1
  B  B57  1  0.79963456  0.31598294  0.62410195  1
  B  B58  1  0.62410195  0.79963456  0.31598394  1
  B  B59  1  0.31598194  0.62410295  0.79963456  1
  B  B60  1  0.31598194  0.79963456  0.62410295  1
  B  B61  1  0.62410195  0.31598394  0.79963456  1
  B  B62  1  0.79963456  0.62410195  0.31598294  1
  B  B63  1  0.20036544  0.68401706  0.37589805  1
  B  B64  1  0.37589805  0.20036544  0.68401606  1
  B  B65  1  0.68401806  0.37589705  0.20036544  1
  B  B66  1  0.58019891  0.09595670  0.36350030  1
  B  B67  1  0.36350130  0.58019891  0.09595570  1
  B  B68  1  0.09595670  0.36350030  0.58019891  1
  B  B69  1  0.90404330  0.41980109  0.63649970  1
  B  B70  1  0.63649870  0.90404430  0.41980109  1
  B  B71  1  0.41980109  0.63649970  0.90404330  1
  B  B72  1  0.41980109  0.90404330  0.63649970  1
  B  B73  1  0.63649870  0.41980109  0.90404430  1
  B  B74  1  0.90404330  0.63649970  0.41980109  1
  B  B75  1  0.09595670  0.58019891  0.36350030  1
  B  B76  1  0.36350130  0.09595570  0.58019891  1
  B  B77  1  0.58019891  0.36350030  0.09595670  1
  B  B78  1  0.19914099  0.50556512  0.19914099  1
  B  B79  1  0.19914099  0.19914099  0.50556512  1
  B  B80  1  0.50556412  0.19914099  0.19914099  1
  B  B81  1  0.49443588  0.80085901  0.80085901  1
  B  B82  1  0.80085901  0.49443488  0.80085901  1
  B  B83  1  0.80085901  0.80085901  0.49443488  1
  B  B84  1  0.38473687  0.56737535  0.38473587  1
  B  B85  1  0.38473687  0.38473587  0.56737535  1
  B  B86  1  0.56737635  0.38473587  0.38473587  1
  B  B87  1  0.43262365  0.61526413  0.61526413  1
  B  B88  1  0.61526313  0.43262465  0.61526413  1
  B  B89  1  0.61526313  0.61526413  0.43262465  1
  B  B90  1  0.48923735  0.22112897  0.48923635  1
  B  B91  1  0.48923735  0.48923635  0.22112897  1
  B  B92  1  0.22112897  0.48923635  0.48923635  1
  B  B93  1  0.77887103  0.51076365  0.51076365  1
  B  B94  1  0.51076265  0.77887103  0.51076365  1
  B  B95  1  0.51076265  0.51076365  0.77887103  1
  B  B96  1  0.38137709  0.21367680  0.38137709  1
  B  B97  1  0.38137709  0.38137709  0.21367680  1
  B  B98  1  0.21367680  0.38137709  0.38137709  1
  B  B99  1  0.78632320  0.61862291  0.61862291  1
  B  B100  1  0.61862291  0.78632320  0.61862291  1
  B  B101  1  0.61862291  0.61862291  0.78632320  1
  B  B102  1  0.38475557  0.38475557  0.38475557  1
  B  B103  1  0.61524443  0.61524443  0.61524443  1
  B  B104  1  0.50000000  0.50000000  0.50000000  1
loop_
_geom_bond_atom_site_label_1
_geom_bond_atom_site_label_2
_geom_bond_distance
_geom_bond_site_symmetry_2
B0 B8 1.746241 1_455
B0 B7 1.746254 1_554
B0 B2 1.747108 1_555
B0 B1 1.747113 1_555
B0 B10 1.768031 1_454
B0 B16 1.775007 1_555
B1 B8 1.746240 1_455
B1 B6 1.746254 1_545
B1 B2 1.747108 1_555
B1 B11 1.768031 1_445
B1 B17 1.775007 1_555
B2 B7 1.746247 1_554
B2 B6 1.746248 1_545
B2 B9 1.768027 1_544
B3 B4 1.747108 1_555
B3 B5 1.747108 1_555
B3 B8 1.768027 1_566
B4 B9 1.746241 1_655
B4 B5 1.747113 1_555
B4 B6 1.768031 1_656
B5 B9 1.746240 1_655
B5 B7 1.768031 1_665
B6 B9 1.754880 1_554
B7 B9 1.754879 1_545
B10 B52 1.630436 1_555
B10 B3 1.746248 1_545
B10 B5 1.746254 1_545
B10 B7 1.754870 1_655
B10 B8 1.754880 1_556
B11 B53 1.630436 1_555
B11 B3 1.746247 1_554
B11 B4 1.746254 1_554
B11 B6 1.754870 1_655
B11 B8 1.754879 1_565
B12 B37 1.770812 1_655
B12 B45 1.770825 1_556
B12 B4 1.775007 1_555
B12 B27 1.775159 1_555
B12 B31 1.775163 1_555
B12 B18 1.799747 1_656
B13 B46 1.770812 1_655
B13 B38 1.770824 1_565
B13 B5 1.775007 1_555
B13 B32 1.775159 1_555
B13 B28 1.775163 1_555
B13 B19 1.799748 1_665
B14 B47 1.770820 1_565
B14 B36 1.770820 1_556
B14 B3 1.775027 1_555
B14 B29 1.775165 1_555
B14 B30 1.775165 1_555
B14 B20 1.799753 1_566
B15 B41 1.770820 1_545
B15 B42 1.770820 1_554
B15 B2 1.775027 1_555
B15 B35 1.775165 1_555
B15 B24 1.775165 1_555
B15 B21 1.799753 1_544
B16 B43 1.770812 1_455
B16 B39 1.770825 1_554
B16 B33 1.775159 1_555
B16 B25 1.775163 1_555
B16 B22 1.799747 1_454
B17 B40 1.770812 1_455
B17 B44 1.770824 1_545
B17 B26 1.775159 1_555
B17 B34 1.775163 1_555
B17 B23 1.799748 1_445
B18 B78 1.695996 1_555
B18 B33 1.829582 1_555
B18 B25 1.829584 1_555
B18 B37 1.833276 1_554
B18 B45 1.833285 1_455
B19 B79 1.695996 1_555
B19 B26 1.829581 1_555
B19 B34 1.829584 1_555
B19 B46 1.833276 1_545
B19 B38 1.833285 1_455
B20 B80 1.695991 1_555
B20 B35 1.829595 1_555
B20 B24 1.829596 1_555
B20 B36 1.833285 1_545
B20 B47 1.833285 1_554
B21 B81 1.695991 1_555
B21 B29 1.829595 1_555
B21 B30 1.829596 1_555
B21 B42 1.833285 1_565
B21 B41 1.833285 1_556
B22 B82 1.695996 1_555
B22 B27 1.829582 1_555
B22 B31 1.829584 1_555
B22 B43 1.833276 1_556
B22 B39 1.833285 1_655
B23 B83 1.695996 1_555
B23 B32 1.829581 1_555
B23 B28 1.829584 1_555
B23 B40 1.833276 1_565
B23 B44 1.833285 1_655
B24 B41 1.857862 1_545
B24 B36 1.861452 1_545
B24 B34 1.871489 1_555
B24 B35 1.878275 1_555
B25 B39 1.857858 1_554
B25 B37 1.861447 1_554
B25 B35 1.871489 1_555
B25 B33 1.878249 1_555
B26 B40 1.857855 1_455
B26 B38 1.861439 1_455
B26 B33 1.871516 1_555
B26 B34 1.878248 1_555
B27 B37 1.857855 1_655
B27 B39 1.861439 1_655
B27 B32 1.871516 1_555
B27 B31 1.878249 1_555
B28 B38 1.857859 1_565
B28 B40 1.861447 1_565
B28 B30 1.871489 1_555
B28 B32 1.878248 1_555
B29 B36 1.857862 1_556
B29 B41 1.861452 1_556
B29 B31 1.871489 1_555
B29 B30 1.878275 1_555
B30 B47 1.857862 1_565
B30 B42 1.861452 1_565
B31 B45 1.857858 1_556
B31 B43 1.861447 1_556
B32 B46 1.857855 1_655
B32 B44 1.861439 1_655
B33 B43 1.857855 1_455
B33 B45 1.861439 1_455
B34 B44 1.857859 1_545
B34 B46 1.861447 1_545
B35 B42 1.857862 1_554
B35 B47 1.861452 1_554
B36 B58 1.698545 1_555
B36 B41 1.785242 1_555
B37 B59 1.698534 1_555
B37 B39 1.785250 1_555
B38 B57 1.698538 1_555
B38 B40 1.785250 1_555
B39 B56 1.698538 1_555
B40 B54 1.698534 1_555
B41 B55 1.698545 1_555
B42 B64 1.698545 1_555
B42 B47 1.785242 1_555
B43 B65 1.698534 1_555
B43 B45 1.785250 1_555
B44 B63 1.698538 1_555
B44 B46 1.785250 1_555
B45 B62 1.698538 1_555
B46 B60 1.698534 1_555
B47 B61 1.698545 1_555
B48 B6 1.630436 1_555
B48 B75 1.730949 1_555
B48 B67 1.730950 1_555
B48 B55 1.780389 1_555
B48 B63 1.780400 1_555
B48 B78 1.824667 1_555
B49 B7 1.630436 1_555
B49 B68 1.730949 1_555
B49 B76 1.730950 1_555
B49 B64 1.780389 1_555
B49 B56 1.780400 1_555
B49 B79 1.824667 1_555
B50 B8 1.630437 1_555
B50 B77 1.730949 1_555
B50 B66 1.730949 1_555
B50 B65 1.780394 1_555
B50 B54 1.780394 1_555
B50 B80 1.824682 1_555
B51 B9 1.630437 1_555
B51 B71 1.730949 1_555
B51 B72 1.730949 1_555
B51 B59 1.780394 1_555
B51 B60 1.780394 1_555
B51 B81 1.824682 1_555
B52 B69 1.730949 1_555
B52 B73 1.730950 1_555
B52 B61 1.780389 1_555
B52 B57 1.780400 1_555
B52 B82 1.824667 1_555
B53 B74 1.730949 1_555
B53 B70 1.730950 1_555
B53 B58 1.780389 1_555
B53 B62 1.780400 1_555
B53 B83 1.824667 1_555
B54 B86 1.755393 1_555
B54 B90 1.788675 1_555
B54 B66 1.833138 1_555
B54 B65 1.913544 1_555
B55 B84 1.755391 1_555
B55 B91 1.788667 1_555
B55 B67 1.833130 1_555
B55 B63 1.913556 1_555
B56 B85 1.755399 1_555
B56 B92 1.788672 1_555
B56 B68 1.833135 1_555
B56 B64 1.913555 1_555
B57 B88 1.755399 1_555
B57 B93 1.788672 1_555
B57 B69 1.833135 1_555
B57 B61 1.913556 1_555
B58 B89 1.755391 1_555
B58 B94 1.788667 1_555
B58 B70 1.833130 1_555
B58 B62 1.913555 1_555
B59 B87 1.755394 1_555
B59 B95 1.788675 1_555
B59 B71 1.833138 1_555
B59 B60 1.913544 1_555
B60 B87 1.755393 1_555
B60 B94 1.788675 1_555
B60 B72 1.833138 1_555
B61 B88 1.755391 1_555
B61 B95 1.788667 1_555
B61 B73 1.833130 1_555
B62 B89 1.755399 1_555
B62 B93 1.788672 1_555
B62 B74 1.833135 1_555
B63 B84 1.755399 1_555
B63 B92 1.788672 1_555
B63 B75 1.833135 1_555
B64 B85 1.755391 1_555
B64 B90 1.788667 1_555
B64 B76 1.833130 1_555
B65 B86 1.755394 1_555
B65 B91 1.788675 1_555
B65 B77 1.833138 1_555
B66 B70 1.682790 1_545
B66 B80 1.830456 1_555
B66 B96 1.833239 1_555
B66 B90 1.856442 1_555
B67 B71 1.682791 1_554
B67 B78 1.830460 1_555
B67 B97 1.833242 1_555
B67 B91 1.856447 1_555
B68 B69 1.682799 1_455
B68 B79 1.830452 1_555
B68 B98 1.833240 1_555
B68 B92 1.856440 1_555
B69 B82 1.830452 1_555
B69 B99 1.833239 1_555
B69 B93 1.856440 1_555
B70 B83 1.830459 1_555
B70 B94 1.856448 1_555
B71 B81 1.830457 1_555
B71 B95 1.856442 1_555
B72 B76 1.682790 1_565
B72 B81 1.830456 1_555
B72 B94 1.856442 1_555
B73 B77 1.682791 1_556
B73 B82 1.830460 1_555
B73 B95 1.856447 1_555
B74 B75 1.682799 1_655
B74 B83 1.830452 1_555
B74 B99 1.833240 1_555
B74 B93 1.856440 1_555
B75 B78 1.830452 1_555
B75 B98 1.833239 1_555
B75 B92 1.856440 1_555
B76 B79 1.830459 1_555
B76 B96 1.833242 1_555
B76 B90 1.856448 1_555
B77 B80 1.830457 1_555
B77 B97 1.833239 1_555
B77 B91 1.856442 1_555
B78 B97 1.767945 1_555
B78 B98 1.767945 1_555
B79 B98 1.767945 1_555
B79 B96 1.767945 1_555
B80 B97 1.767943 1_555
B80 B96 1.767943 1_555
B82 B99 1.767945 1_555
B83 B99 1.767945 1_555
B84 B91 1.844066 1_555
B84 B92 1.844074 1_555
B84 B85 1.991030 1_555
B84 B86 1.991030 1_555
B85 B90 1.844066 1_555
B85 B92 1.844073 1_555
B85 B86 1.991031 1_555
B86 B91 1.844065 1_555
B86 B90 1.844065 1_555
B87 B95 1.844065 1_555
B87 B94 1.844065 1_555
B87 B88 1.991030 1_555
B87 B89 1.991031 1_555
B88 B95 1.844066 1_555
B88 B93 1.844074 1_555
B88 B89 1.991030 1_555
B89 B94 1.844066 1_555
B89 B93 1.844073 1_555
B90 B96 1.869980 1_555
B91 B97 1.869980 1_555
B92 B98 1.869972 1_555
B93 B99 1.869972 1_555
B96 B97 1.828172 1_555
B96 B98 1.828172 1_555
B97 B98 1.828172 1_555
B100 B103 1.755247 1_555
B100 B81 1.767943 1_555
B100 B83 1.767945 1_555
B100 B101 1.828172 1_555
B100 B99 1.828172 1_555
B100 B72 1.833239 1_555
B100 B70 1.833242 1_555
B100 B94 1.869980 1_555
B101 B103 1.755247 1_555
B101 B81 1.767943 1_555
B101 B82 1.767945 1_555
B101 B99 1.828172 1_555
B101 B71 1.833239 1_555
B101 B73 1.833242 1_555
B101 B95 1.869980 1_555
B102 B92 1.724910 1_555
B102 B90 1.724913 1_555
B102 B91 1.724914 1_555
B102 B98 1.755246 1_555
B102 B96 1.755247 1_555
B102 B97 1.755247 1_555
B102 B84 1.842440 1_555
B102 B85 1.842440 1_555
B102 B86 1.842446 1_555
B103 B93 1.724910 1_555
B103 B94 1.724913 1_555
B103 B95 1.724914 1_555
B103 B99 1.755246 1_555
B103 B88 1.842440 1_555
B103 B89 1.842440 1_555
B103 B87 1.842446 1_555
B104 B88 1.725347 1_555
B104 B84 1.725347 1_555
B104 B89 1.725347 1_555
B104 B85 1.725347 1_555
B104 B86 1.725354 1_555
B104 B87 1.725354 1_555
