# generated using pymatgen
data_Ce3BeCrS7
_symmetry_space_group_name_H-M   'P 1'
_cell_length_a   9.93435766
_cell_length_b   9.93435766
_cell_length_c   5.83577000
_cell_angle_alpha   90.00000000
_cell_angle_beta   90.00000000
_cell_angle_gamma   119.99999770
_symmetry_Int_Tables_number   1
_chemical_formula_structural   Ce3BeCrS7
_chemical_formula_sum   'Ce6 Be2 Cr2 S14'
_cell_volume   498.77926570
_cell_formula_units_Z   2
loop_
 _symmetry_equiv_pos_site_id
 _symmetry_equiv_pos_as_xyz
  1  'x, y, z'
loop_
 _atom_site_type_symbol
 _atom_site_label
 _atom_site_symmetry_multiplicity
 _atom_site_fract_x
 _atom_site_fract_y
 _atom_site_fract_z
 _atom_site_occupancy
  Ce  Ce0  1  0.61773200  0.86416800  0.25018500  1
  Ce  Ce1  1  0.13583200  0.75356400  0.25018500  1
  Ce  Ce2  1  0.24643600  0.38226800  0.25018500  1
  Ce  Ce3  1  0.38226800  0.13583200  0.75018500  1
  Ce  Ce4  1  0.86416800  0.24643600  0.75018500  1
  Ce  Ce5  1  0.75356400  0.61773200  0.75018500  1
  Be  Be0  1  0.33333300  0.66666700  0.84002900  1
  Be  Be1  1  0.66666700  0.33333300  0.34002900  1
  Cr  Cr0  1  0.00000000  0.00000000  0.48285600  1
  Cr  Cr1  1  0.00000000  0.00000000  0.98285600  1
  S  S0  1  0.77122400  0.91963900  0.73127100  1
  S  S1  1  0.08036100  0.85158400  0.73127100  1
  S  S2  1  0.14841600  0.22877600  0.73127100  1
  S  S3  1  0.22877600  0.08036100  0.23127100  1
  S  S4  1  0.91963900  0.14841600  0.23127100  1
  S  S5  1  0.85158400  0.77122400  0.23127100  1
  S  S6  1  0.48175800  0.59059200  0.97338400  1
  S  S7  1  0.40940800  0.89116600  0.97338400  1
  S  S8  1  0.10883400  0.51824200  0.97338400  1
  S  S9  1  0.51824200  0.40940800  0.47338400  1
  S  S10  1  0.59059200  0.10883400  0.47338400  1
  S  S11  1  0.89116600  0.48175800  0.47338400  1
  S  S12  1  0.33333300  0.66666700  0.48099500  1
  S  S13  1  0.66666700  0.33333300  0.98099500  1
loop_
_geom_bond_atom_site_label_1
_geom_bond_atom_site_label_2
_geom_bond_distance
_geom_bond_site_symmetry_2
Ce0 S7 2.742162 1_554
Ce0 S12 2.846566 1_555
Ce0 S6 2.854689 1_554
Ce0 S10 2.886598 1_565
Ce0 S5 2.899470 1_555
Ce0 S4 2.917587 1_565
Ce0 S0 3.109764 1_555
Ce0 S0 3.310424 1_554
Ce1 S8 2.742162 1_554
Ce1 S12 2.846560 1_555
Ce1 S7 2.854689 1_554
Ce1 S11 2.886598 1_455
Ce1 S3 2.899480 1_565
Ce1 S5 2.917592 1_455
Ce1 S1 3.109760 1_555
Ce1 S1 3.310420 1_554
Ce2 S6 2.742162 1_554
Ce2 S12 2.846568 1_555
Ce2 S8 2.854688 1_554
Ce2 S9 2.886598 1_555
Ce2 S4 2.899477 1_455
Ce2 S3 2.917582 1_555
Ce2 S2 3.109763 1_555
Ce2 S2 3.310424 1_554
Ce3 S10 2.742162 1_555
Ce3 S13 2.846566 1_555
Ce3 S9 2.854689 1_555
Ce3 S7 2.886598 1_545
Ce3 S2 2.899470 1_555
Ce3 S1 2.917587 1_545
Ce3 S3 3.109764 1_556
Ce3 S3 3.310424 1_555
Ce4 S11 2.742162 1_555
Ce4 S13 2.846560 1_555
Ce4 S10 2.854689 1_555
Ce4 S8 2.886598 1_655
Ce4 S0 2.899480 1_545
Ce4 S2 2.917592 1_655
Ce4 S4 3.109760 1_556
Ce4 S4 3.310420 1_555
Ce5 S9 2.742162 1_555
Ce5 S13 2.846568 1_555
Ce5 S11 2.854688 1_555
Ce5 S6 2.886598 1_555
Ce5 S1 2.899477 1_655
Ce5 S0 2.917582 1_555
Ce5 S5 3.109763 1_556
Ce5 S5 3.310424 1_555
Be0 S12 2.095240 1_555
Be0 S7 2.113128 1_555
Be0 S8 2.113130 1_555
Be0 S6 2.113137 1_555
Be1 S13 2.095240 1_554
Be1 S10 2.113128 1_555
Be1 S11 2.113130 1_555
Be1 S9 2.113137 1_555
Cr0 S0 2.467772 1_445
Cr0 S2 2.467773 1_555
Cr0 S1 2.467779 1_545
Cr0 S3 2.478684 1_555
Cr0 S5 2.478686 1_445
Cr0 S4 2.478692 1_455
Cr1 S3 2.467772 1_556
Cr1 S5 2.467773 1_446
Cr1 S4 2.467779 1_456
Cr1 S0 2.478684 1_445
Cr1 S2 2.478686 1_555
Cr1 S1 2.478692 1_545
