# generated using pymatgen
data_In5Pt11
_symmetry_space_group_name_H-M   'P 1'
_cell_length_a   4.08094755
_cell_length_b   5.69941538
_cell_length_c   11.41419930
_cell_angle_alpha   87.99687492
_cell_angle_beta   90.00000000
_cell_angle_gamma   90.00000000
_symmetry_Int_Tables_number   1
_chemical_formula_structural   In5Pt11
_chemical_formula_sum   'In5 Pt11'
_cell_volume   265.32080429
_cell_formula_units_Z   1
loop_
 _symmetry_equiv_pos_site_id
 _symmetry_equiv_pos_as_xyz
  1  'x, y, z'
loop_
 _atom_site_type_symbol
 _atom_site_label
 _atom_site_symmetry_multiplicity
 _atom_site_fract_x
 _atom_site_fract_y
 _atom_site_fract_z
 _atom_site_occupancy
  In  In0  1  0.50000000  0.75612940  0.37406532  1
  In  In1  1  0.50000000  0.71412357  0.86090349  1
  In  In2  1  0.50000000  0.28587643  0.13909651  1
  In  In3  1  0.50000000  0.24387060  0.62593468  1
  In  In4  1  0.00000000  -0.00000000  -0.00000000  1
  Pt  Pt0  1  0.00000000  0.01472267  0.24750736  1
  Pt  Pt1  1  0.00000000  0.98527733  0.75249264  1
  Pt  Pt2  1  0.00000000  0.50000000  -0.00000000  1
  Pt  Pt3  1  0.00000000  0.50000000  0.50000000  1
  Pt  Pt4  1  0.00000000  0.51848089  0.25308748  1
  Pt  Pt5  1  0.00000000  0.48151911  0.74691252  1
  Pt  Pt6  1  0.50000000  0.25130326  0.37963185  1
  Pt  Pt7  1  0.50000000  0.22642856  0.88217717  1
  Pt  Pt8  1  0.50000000  0.77357144  0.11782283  1
  Pt  Pt9  1  0.50000000  0.74869674  0.62036815  1
  Pt  Pt10  1  0.00000000  -0.00000000  0.50000000  1
loop_
_geom_bond_atom_site_label_1
_geom_bond_atom_site_label_2
_geom_bond_distance
_geom_bond_site_symmetry_2
In0 Pt9 2.810188 1_555
In0 Pt6 2.825136 1_565
In0 Pt4 2.834718 1_555
In0 Pt4 2.834718 1_655
In0 Pt3 2.866019 1_555
In0 Pt3 2.866019 1_655
In0 Pt6 2.875694 1_555
In0 Pt0 2.876390 1_665
In0 Pt0 2.876390 1_565
In0 Pt10 2.881202 1_565
In0 Pt10 2.881202 1_665
In0 Pt8 2.923017 1_555
In1 Pt9 2.745702 1_555
In1 Pt5 2.781101 1_555
In1 Pt5 2.781101 1_655
In1 Pt7 2.781694 1_555
In1 Pt1 2.819464 1_555
In1 Pt1 2.819464 1_655
In1 Pt2 2.835158 1_556
In1 Pt2 2.835158 1_656
In1 Pt7 2.938365 1_565
In1 Pt8 2.963778 1_556
In2 Pt6 2.745702 1_555
In2 Pt4 2.781101 1_655
In2 Pt4 2.781101 1_555
In2 Pt8 2.781694 1_555
In2 Pt0 2.819464 1_555
In2 Pt0 2.819464 1_655
In2 Pt2 2.835158 1_555
In2 Pt2 2.835158 1_655
In2 Pt8 2.938365 1_545
In2 Pt7 2.963778 1_554
In3 Pt6 2.810188 1_555
In3 Pt9 2.825136 1_545
In3 Pt5 2.834718 1_655
In3 Pt5 2.834718 1_555
In3 Pt3 2.866019 1_555
In3 Pt3 2.866019 1_655
In3 Pt9 2.875694 1_555
In3 Pt1 2.876390 1_545
In3 Pt1 2.876390 1_645
In3 Pt10 2.881202 1_655
In3 Pt10 2.881202 1_555
In3 Pt7 2.923017 1_555
In4 Pt7 2.741578 1_454
In4 Pt7 2.741578 1_554
In4 Pt8 2.741578 1_445
In4 Pt8 2.741578 1_545
In4 Pt1 2.829274 1_544
In4 Pt0 2.829274 1_555
In4 Pt2 2.849708 1_555
In4 Pt2 2.849708 1_545
Pt0 Pt4 2.826778 1_545
Pt0 Pt4 2.874059 1_555
Pt0 Pt10 2.880289 1_555
Pt0 Pt8 2.895845 1_445
Pt0 Pt8 2.895845 1_545
Pt0 Pt6 2.897955 1_555
Pt0 Pt6 2.897955 1_455
Pt1 Pt5 2.826778 1_565
Pt1 Pt5 2.874059 1_555
Pt1 Pt10 2.880289 1_565
Pt1 Pt7 2.895845 1_465
Pt1 Pt7 2.895845 1_565
Pt1 Pt9 2.897955 1_455
Pt1 Pt9 2.897955 1_555
Pt2 Pt4 2.894387 1_555
Pt2 Pt5 2.894387 1_554
Pt2 Pt7 2.924013 1_554
Pt2 Pt7 2.924013 1_454
Pt2 Pt8 2.924013 1_455
Pt2 Pt8 2.924013 1_555
Pt3 Pt4 2.816595 1_555
Pt3 Pt5 2.816595 1_555
Pt3 Pt6 2.862933 1_555
Pt3 Pt9 2.862933 1_555
Pt3 Pt9 2.862933 1_455
Pt3 Pt6 2.862933 1_455
Pt4 Pt6 2.900837 1_455
Pt4 Pt6 2.900837 1_555
Pt4 Pt8 2.916176 1_555
Pt4 Pt8 2.916176 1_455
Pt5 Pt9 2.900837 1_455
Pt5 Pt9 2.900837 1_555
Pt5 Pt7 2.916176 1_555
Pt5 Pt7 2.916176 1_455
Pt10 Pt9 2.822236 1_445
Pt10 Pt6 2.822236 1_455
Pt10 Pt9 2.822236 1_545
Pt10 Pt6 2.822236 1_555
Pt10 Pt3 2.849708 1_545
Pt10 Pt3 2.849708 1_555
