# generated using pymatgen
data_CeSm3S4
_symmetry_space_group_name_H-M   'P 1'
_cell_length_a   6.95054769
_cell_length_b   6.95054769
_cell_length_c   6.98017254
_cell_angle_alpha   80.39728670
_cell_angle_beta   80.39728670
_cell_angle_gamma   33.73857948
_symmetry_Int_Tables_number   1
_chemical_formula_structural   CeSm3S4
_chemical_formula_sum   'Ce1 Sm3 S4'
_cell_volume   184.42211164
_cell_formula_units_Z   1
loop_
 _symmetry_equiv_pos_site_id
 _symmetry_equiv_pos_as_xyz
  1  'x, y, z'
loop_
 _atom_site_type_symbol
 _atom_site_label
 _atom_site_symmetry_multiplicity
 _atom_site_fract_x
 _atom_site_fract_y
 _atom_site_fract_z
 _atom_site_occupancy
  Ce  Ce0  1  -0.00000000  -0.00000000  0.00000000  1
  Sm  Sm0  1  0.75037499  0.75037499  0.74994418  1
  Sm  Sm1  1  0.50000000  0.50000000  0.50000000  1
  Sm  Sm2  1  0.24962501  0.24962501  0.25005582  1
  S  S0  1  0.37292036  0.37292036  0.87225269  1
  S  S1  1  0.12579408  0.12579408  0.62212232  1
  S  S2  1  0.87420592  0.87420592  0.37787768  1
  S  S3  1  0.62707964  0.62707964  0.12774731  1
loop_
_geom_bond_atom_site_label_1
_geom_bond_atom_site_label_2
_geom_bond_distance
_geom_bond_site_symmetry_2
Ce0 S1 2.866833 1_554
Ce0 S2 2.866833 1_445
Ce0 S0 2.871715 1_454
Ce0 S0 2.871715 1_544
Ce0 S3 2.871715 1_455
Ce0 S3 2.871715 1_545
S0 Sm0 2.817775 1_455
S0 Sm0 2.817775 1_545
S0 Sm1 2.842198 1_555
S0 Sm2 2.852491 1_556
S1 Sm2 2.822584 1_555
S1 Sm1 2.844735 1_455
S1 Sm1 2.844735 1_545
S1 Sm0 2.850677 1_545
S1 Sm0 2.850677 1_455
S2 Sm0 2.822584 1_555
S2 Sm1 2.844735 1_655
S2 Sm1 2.844735 1_565
S2 Sm2 2.850677 1_655
S2 Sm2 2.850677 1_565
S3 Sm2 2.817775 1_565
S3 Sm2 2.817775 1_655
S3 Sm1 2.842198 1_555
S3 Sm0 2.852491 1_554
