# generated using pymatgen
data_NaTl2Sn
_symmetry_space_group_name_H-M   'P 1'
_cell_length_a   11.78132228
_cell_length_b   12.77385003
_cell_length_c   12.77385050
_cell_angle_alpha   61.94095647
_cell_angle_beta   62.53865867
_cell_angle_gamma   62.53865833
_symmetry_Int_Tables_number   1
_chemical_formula_structural   NaTl2Sn
_chemical_formula_sum   'Na1 Tl2 Sn1'
_cell_volume   1430.17937103
_cell_formula_units_Z   1
loop_
 _symmetry_equiv_pos_site_id
 _symmetry_equiv_pos_as_xyz
  1  'x, y, z'
loop_
 _atom_site_type_symbol
 _atom_site_label
 _atom_site_symmetry_multiplicity
 _atom_site_fract_x
 _atom_site_fract_y
 _atom_site_fract_z
 _atom_site_occupancy
  Na  Na0  1  0.00000000  0.00000000  0.00000000  1
  Tl  Tl0  1  0.73639042  0.00000000  1.00000000  1
  Tl  Tl1  1  0.26360958  1.00000000  0.00000000  1
  Sn  Sn0  1  0.50000000  0.00000000  0.00000000  1
loop_
_geom_bond_atom_site_label_1
_geom_bond_atom_site_label_2
_geom_bond_distance
_geom_bond_site_symmetry_2
Na0 Tl0 3.105669 1_454
Na0 Tl1 3.105669 1_545
Sn0 Tl1 2.784992 1_545
Sn0 Tl0 2.784992 1_554
