# generated using pymatgen
data_NbAl2Ni9
_symmetry_space_group_name_H-M   'P 1'
_cell_length_a   3.58375176
_cell_length_b   3.58375276
_cell_length_c   10.57366944
_cell_angle_alpha   90.00000000
_cell_angle_beta   90.00000000
_cell_angle_gamma   90.00000000
_symmetry_Int_Tables_number   1
_chemical_formula_structural   NbAl2Ni9
_chemical_formula_sum   'Nb1 Al2 Ni9'
_cell_volume   135.80060001
_cell_formula_units_Z   1
loop_
 _symmetry_equiv_pos_site_id
 _symmetry_equiv_pos_as_xyz
  1  'x, y, z'
loop_
 _atom_site_type_symbol
 _atom_site_label
 _atom_site_symmetry_multiplicity
 _atom_site_fract_x
 _atom_site_fract_y
 _atom_site_fract_z
 _atom_site_occupancy
  Nb  Nb0  1  0.00000000  -0.00000000  -0.00000000  1
  Al  Al0  1  0.00000000  -0.00000000  0.33966664  1
  Al  Al1  1  0.00000000  0.00000000  0.66033336  1
  Ni  Ni0  1  0.50000000  0.50000000  -0.00000000  1
  Ni  Ni1  1  0.50000000  0.50000000  0.33722413  1
  Ni  Ni2  1  0.50000000  0.50000000  0.66277587  1
  Ni  Ni3  1  0.50000000  0.00000000  0.17287619  1
  Ni  Ni4  1  0.50000000  -0.00000000  0.50000000  1
  Ni  Ni5  1  0.50000000  -0.00000000  0.82712381  1
  Ni  Ni6  1  0.00000000  0.50000000  0.17287619  1
  Ni  Ni7  1  0.00000000  0.50000000  0.50000000  1
  Ni  Ni8  1  0.00000000  0.50000000  0.82712381  1
loop_
_geom_bond_atom_site_label_1
_geom_bond_atom_site_label_2
_geom_bond_distance
_geom_bond_site_symmetry_2
Nb0 Ni0 2.534096 1_455
Nb0 Ni0 2.534096 1_545
Nb0 Ni0 2.534096 1_555
Nb0 Ni0 2.534096 1_445
Nb0 Ni5 2.559720 1_554
Nb0 Ni5 2.559720 1_454
Nb0 Ni3 2.559720 1_455
Nb0 Ni3 2.559720 1_555
Nb0 Ni8 2.559721 1_554
Nb0 Ni8 2.559721 1_544
Nb0 Ni6 2.559721 1_545
Nb0 Ni6 2.559721 1_555
Al0 Ni4 2.466759 1_455
Al0 Ni4 2.466759 1_555
Al0 Ni7 2.466760 1_545
Al0 Ni7 2.466760 1_555
Al0 Ni3 2.514172 1_455
Al0 Ni3 2.514172 1_555
Al0 Ni6 2.514172 1_555
Al0 Ni6 2.514172 1_545
Al0 Ni1 2.534227 1_555
Al0 Ni1 2.534227 1_545
Al0 Ni1 2.534227 1_445
Al0 Ni1 2.534227 1_455
Al1 Ni4 2.466759 1_455
Al1 Ni4 2.466759 1_555
Al1 Ni7 2.466760 1_545
Al1 Ni7 2.466760 1_555
Al1 Ni5 2.514172 1_455
Al1 Ni5 2.514172 1_555
Al1 Ni8 2.514172 1_545
Al1 Ni8 2.514172 1_555
Al1 Ni2 2.534227 1_445
Al1 Ni2 2.534227 1_555
Al1 Ni2 2.534227 1_455
Al1 Ni2 2.534227 1_545
Ni0 Ni8 2.559720 1_654
Ni0 Ni8 2.559720 1_554
Ni0 Ni6 2.559720 1_555
Ni0 Ni6 2.559720 1_655
Ni0 Ni5 2.559721 1_564
Ni0 Ni5 2.559721 1_554
Ni0 Ni3 2.559721 1_565
Ni0 Ni3 2.559721 1_555
Ni1 Ni7 2.484580 1_555
Ni1 Ni7 2.484580 1_655
Ni1 Ni4 2.484580 1_555
Ni1 Ni4 2.484580 1_565
Ni1 Ni6 2.496123 1_555
Ni1 Ni6 2.496123 1_655
Ni1 Ni3 2.496124 1_555
Ni1 Ni3 2.496124 1_565
Ni2 Ni7 2.484580 1_655
Ni2 Ni7 2.484580 1_555
Ni2 Ni4 2.484580 1_555
Ni2 Ni4 2.484580 1_565
Ni2 Ni8 2.496123 1_555
Ni2 Ni8 2.496123 1_655
Ni2 Ni5 2.496124 1_565
Ni2 Ni5 2.496124 1_555
Ni3 Ni6 2.534096 1_645
Ni3 Ni6 2.534096 1_555
Ni3 Ni6 2.534096 1_545
Ni3 Ni6 2.534096 1_655
Ni4 Ni7 2.534096 1_545
Ni4 Ni7 2.534096 1_555
Ni4 Ni7 2.534096 1_655
Ni4 Ni7 2.534096 1_645
Ni5 Ni8 2.534096 1_555
Ni5 Ni8 2.534096 1_545
Ni5 Ni8 2.534096 1_645
Ni5 Ni8 2.534096 1_655
