# generated using pymatgen
data_Sm2Cu2O5
_symmetry_space_group_name_H-M   'P 1'
_cell_length_a   8.70138947
_cell_length_b   8.70138947
_cell_length_c   8.70138947
_cell_angle_alpha   144.79613400
_cell_angle_beta   142.65806210
_cell_angle_gamma   52.25591029
_symmetry_Int_Tables_number   1
_chemical_formula_structural   Sm2Cu2O5
_chemical_formula_sum   'Sm4 Cu4 O10'
_cell_volume   229.04815766
_cell_formula_units_Z   2
loop_
 _symmetry_equiv_pos_site_id
 _symmetry_equiv_pos_as_xyz
  1  'x, y, z'
loop_
 _atom_site_type_symbol
 _atom_site_label
 _atom_site_symmetry_multiplicity
 _atom_site_fract_x
 _atom_site_fract_y
 _atom_site_fract_z
 _atom_site_occupancy
  Sm  Sm0  1  0.90338500  0.38817000  0.51894200  1
  Sm  Sm1  1  0.09661500  0.61555700  0.48478600  1
  Sm  Sm2  1  0.36922900  0.88817000  0.48478600  1
  Sm  Sm3  1  0.63077100  0.11555700  0.51894200  1
  Cu  Cu0  1  0.00000000  0.01187700  0.01187700  1
  Cu  Cu1  1  0.50000000  0.51187700  0.01187700  1
  Cu  Cu2  1  0.71590800  0.72884700  0.94475500  1
  Cu  Cu3  1  0.28409200  0.22884700  0.01293800  1
  O  O0  1  0.27432800  0.27360100  0.51171200  1
  O  O1  1  0.72567200  0.23738500  0.99927300  1
  O  O2  1  0.26188900  0.77360100  0.99927300  1
  O  O3  1  0.73811100  0.73738500  0.51171200  1
  O  O4  1  0.94021900  0.90705800  0.11671500  1
  O  O5  1  0.05978100  0.17649600  0.96683900  1
  O  O6  1  0.29034300  0.40705800  0.96683900  1
  O  O7  1  0.70965700  0.67649600  0.11671500  1
  O  O8  1  0.66226700  0.32500900  0.48727600  1
  O  O9  1  0.33773300  0.82500900  0.66274300  1
loop_
_geom_bond_atom_site_label_1
_geom_bond_atom_site_label_2
_geom_bond_distance
_geom_bond_site_symmetry_2
Cu0 O3 1.935231 1_444
Cu0 O2 1.935232 1_544
Cu0 O0 1.939419 1_555
Cu0 O1 1.939422 1_454
Cu0 O5 2.151674 1_554
Cu0 O4 2.151674 1_445
Cu1 O1 1.935227 1_554
Cu1 O0 1.935232 1_554
Cu1 O3 1.939418 1_555
Cu1 O2 1.939419 1_554
Cu1 O7 2.151674 1_555
Cu1 O6 2.151674 1_554
Cu2 O7 1.929501 1_556
Cu2 O4 1.929501 1_556
Cu2 O8 2.146161 1_555
Cu2 O9 2.166813 1_555
Cu3 O6 1.929493 1_554
Cu3 O5 1.929507 1_554
Cu3 O9 2.146156 1_544
Cu3 O8 2.166819 1_555
O0 Sm3 2.474681 1_555
O0 Sm1 2.495953 1_555
O0 Sm2 2.760003 1_545
O0 Sm0 2.774338 1_455
O1 Sm2 2.474690 1_545
O1 Sm0 2.495963 1_556
O1 Sm3 2.759989 1_555
O1 Sm1 2.774329 1_656
O2 Sm1 2.474681 1_555
O2 Sm3 2.495953 1_566
O2 Sm0 2.760000 1_455
O2 Sm2 2.774341 1_556
O3 Sm0 2.474696 1_555
O3 Sm2 2.495956 1_555
O3 Sm1 2.759991 1_655
O3 Sm3 2.774326 1_565
O4 Sm2 2.306168 1_655
O4 Sm0 2.464623 1_565
O4 Sm0 2.878402 1_554
O5 Sm3 2.306166 1_455
O5 Sm1 2.464627 1_556
O5 Sm1 2.878401 1_545
O6 Sm0 2.306162 1_455
O6 Sm2 2.464623 1_556
O6 Sm2 2.878403 1_545
O7 Sm1 2.306166 1_655
O7 Sm3 2.464627 1_565
O7 Sm3 2.878401 1_554
O8 Sm0 2.241612 1_555
O8 Sm3 2.241618 1_555
O9 Sm1 2.241612 1_555
O9 Sm2 2.241619 1_555
