# generated using pymatgen
data_Gd2TiCuO6
_symmetry_space_group_name_H-M   'P 1'
_cell_length_a   5.40091472
_cell_length_b   5.76107500
_cell_length_c   7.55100638
_cell_angle_alpha   90.00000000
_cell_angle_beta   89.60412040
_cell_angle_gamma   90.00000000
_symmetry_Int_Tables_number   1
_chemical_formula_structural   Gd2TiCuO6
_chemical_formula_sum   'Gd4 Ti2 Cu2 O12'
_cell_volume   234.94451989
_cell_formula_units_Z   2
loop_
 _symmetry_equiv_pos_site_id
 _symmetry_equiv_pos_as_xyz
  1  'x, y, z'
loop_
 _atom_site_type_symbol
 _atom_site_label
 _atom_site_symmetry_multiplicity
 _atom_site_fract_x
 _atom_site_fract_y
 _atom_site_fract_z
 _atom_site_occupancy
  Gd  Gd0  1  0.48133500  0.07122100  0.24948800  1
  Gd  Gd1  1  0.01866500  0.57122100  0.25051200  1
  Gd  Gd2  1  0.51866500  0.92877900  0.75051200  1
  Gd  Gd3  1  0.98133500  0.42877900  0.74948800  1
  Ti  Ti0  1  0.50000000  0.50000000  0.50000000  1
  Ti  Ti1  1  0.00000000  0.00000000  0.00000000  1
  Cu  Cu0  1  0.50000000  0.50000000  0.00000000  1
  Cu  Cu1  1  0.00000000  0.00000000  0.50000000  1
  O  O0  1  0.61077600  0.45988600  0.25101000  1
  O  O1  1  0.88922400  0.95988600  0.24899000  1
  O  O2  1  0.38922400  0.54011400  0.74899000  1
  O  O3  1  0.11077600  0.04011400  0.75101000  1
  O  O4  1  0.29378500  0.82062900  0.05480500  1
  O  O5  1  0.20621500  0.32062900  0.44519500  1
  O  O6  1  0.68137800  0.20906100  0.55910700  1
  O  O7  1  0.81862200  0.70906100  0.94089300  1
  O  O8  1  0.70621500  0.17937100  0.94519500  1
  O  O9  1  0.79378500  0.67937100  0.55480500  1
  O  O10  1  0.31862200  0.79093900  0.44089300  1
  O  O11  1  0.18137800  0.29093900  0.05910700  1
loop_
_geom_bond_atom_site_label_1
_geom_bond_atom_site_label_2
_geom_bond_distance
_geom_bond_site_symmetry_2
Gd0 O1 2.294428 1_545
Gd0 O4 2.300411 1_545
Gd0 O10 2.334731 1_545
Gd0 O0 2.345779 1_555
Gd0 O11 2.515075 1_555
Gd0 O5 2.534948 1_555
Gd0 O8 2.665389 1_554
Gd0 O6 2.701619 1_555
Gd1 O0 2.294428 1_455
Gd1 O5 2.300411 1_555
Gd1 O11 2.334731 1_555
Gd1 O1 2.345779 1_455
Gd1 O10 2.515075 1_555
Gd1 O4 2.534948 1_555
Gd1 O9 2.665389 1_455
Gd1 O7 2.701619 1_454
Gd2 O3 2.294428 1_565
Gd2 O8 2.300411 1_565
Gd2 O6 2.334731 1_565
Gd2 O2 2.345779 1_555
Gd2 O7 2.515075 1_555
Gd2 O9 2.534948 1_555
Gd2 O4 2.665389 1_556
Gd2 O10 2.701619 1_555
Gd3 O2 2.294428 1_655
Gd3 O9 2.300411 1_555
Gd3 O7 2.334731 1_555
Gd3 O3 2.345779 1_655
Gd3 O6 2.515075 1_555
Gd3 O8 2.534948 1_555
Gd3 O5 2.665389 1_655
Gd3 O11 2.701619 1_656
Cu0 O0 2.004866 1_555
Cu0 O2 2.004866 1_554
Cu0 O7 2.144884 1_554
Cu0 O11 2.144884 1_555
Cu0 O8 2.194847 1_554
Cu0 O4 2.194847 1_555
Cu1 O1 2.004866 1_445
Cu1 O3 2.004866 1_555
Cu1 O10 2.144884 1_545
Cu1 O6 2.144884 1_455
Cu1 O5 2.194847 1_555
Cu1 O9 2.194847 1_445
O0 Ti0 1.982596 1_555
O1 Ti1 1.982596 1_665
O2 Ti0 1.982596 1_555
O3 Ti1 1.982596 1_556
O4 Ti1 1.940574 1_565
O5 Ti0 1.940574 1_555
O6 Ti0 1.993553 1_555
O7 Ti1 1.993553 1_666
O8 Ti1 1.940574 1_656
O9 Ti0 1.940574 1_555
O10 Ti0 1.993553 1_555
O11 Ti1 1.993553 1_555
