# generated using pymatgen
data_NaTi3AlO8
_symmetry_space_group_name_H-M   'P 1'
_cell_length_a   3.80016200
_cell_length_b   6.40278301
_cell_length_c   6.50988333
_cell_angle_alpha   107.37253102
_cell_angle_beta   90.00000000
_cell_angle_gamma   72.73697855
_symmetry_Int_Tables_number   1
_chemical_formula_structural   NaTi3AlO8
_chemical_formula_sum   'Na1 Ti3 Al1 O8'
_cell_volume   143.67677958
_cell_formula_units_Z   1
loop_
 _symmetry_equiv_pos_site_id
 _symmetry_equiv_pos_as_xyz
  1  'x, y, z'
loop_
 _atom_site_type_symbol
 _atom_site_label
 _atom_site_symmetry_multiplicity
 _atom_site_fract_x
 _atom_site_fract_y
 _atom_site_fract_z
 _atom_site_occupancy
  Na  Na0  1  0.00710700  0.98578700  0.98205500  1
  Ti  Ti0  1  0.60427800  0.79144300  0.28066000  1
  Ti  Ti1  1  0.39821400  0.20357200  0.70390600  1
  Ti  Ti2  1  0.29707800  0.40584400  0.30224400  1
  Al  Al0  1  0.70271600  0.59456900  0.69558900  1
  O  O0  1  0.55613600  0.88772800  0.64479700  1
  O  O1  1  0.44288800  0.11422400  0.36715300  1
  O  O2  1  0.63084900  0.73830100  0.99283500  1
  O  O3  1  0.37070100  0.25859800  0.01403600  1
  O  O4  1  0.76380200  0.47239500  0.35879800  1
  O  O5  1  0.23093100  0.53813900  0.65474600  1
  O  O6  1  0.85828700  0.28342500  0.71080400  1
  O  O7  1  0.13701300  0.72597500  0.29237600  1
loop_
_geom_bond_atom_site_label_1
_geom_bond_atom_site_label_2
_geom_bond_distance
_geom_bond_site_symmetry_2
Na0 O2 2.443655 1_555
Na0 O2 2.443661 1_455
Na0 O3 2.493775 1_566
Na0 O3 2.493778 1_466
Na0 O0 2.822566 1_555
Na0 O0 2.822569 1_455
Al0 O2 1.858301 1_555
Al0 O0 1.921700 1_555
Al0 O5 1.934601 1_655
Al0 O5 1.934601 1_555
Al0 O6 1.935701 1_555
Al0 O4 2.083453 1_555
O0 Ti1 1.847387 1_565
O0 Ti0 2.256794 1_555
O1 Ti0 1.875424 1_545
O1 Ti2 1.956791 1_555
O1 Ti1 2.086953 1_555
O2 Ti0 1.798788 1_556
O3 Ti2 1.809529 1_555
O3 Ti1 1.940214 1_554
O4 Ti2 1.953904 1_555
O4 Ti2 1.953908 1_655
O4 Ti0 2.164435 1_555
O5 Ti1 2.167148 1_555
O5 Ti2 2.181609 1_555
O6 Ti1 1.958825 1_555
O6 Ti1 1.958828 1_655
O7 Ti0 1.948188 1_555
O7 Ti0 1.948196 1_455
O7 Ti2 1.978421 1_555
