# generated using pymatgen
data_Zr2N2O
_symmetry_space_group_name_H-M   'P 1'
_cell_length_a   5.53503900
_cell_length_b   5.53503900
_cell_length_c   5.92697456
_cell_angle_alpha   61.68925089
_cell_angle_beta   61.68925089
_cell_angle_gamma   61.00750554
_symmetry_Int_Tables_number   1
_chemical_formula_structural   Zr2N2O
_chemical_formula_sum   'Zr4 N4 O2'
_cell_volume   132.60134179
_cell_formula_units_Z   2
loop_
 _symmetry_equiv_pos_site_id
 _symmetry_equiv_pos_as_xyz
  1  'x, y, z'
loop_
 _atom_site_type_symbol
 _atom_site_label
 _atom_site_symmetry_multiplicity
 _atom_site_fract_x
 _atom_site_fract_y
 _atom_site_fract_z
 _atom_site_occupancy
  Zr  Zr0  1  0.86565200  0.33009700  0.42592000  1
  Zr  Zr1  1  0.33009700  0.86565200  0.92592000  1
  Zr  Zr2  1  0.62729300  0.14936000  0.07399200  1
  Zr  Zr3  1  0.14936000  0.62729300  0.57399200  1
  N  N0  1  0.05230300  0.95929400  0.73536600  1
  N  N1  1  0.95929400  0.05230300  0.23536600  1
  N  N2  1  0.25562700  0.45451500  0.25328300  1
  N  N3  1  0.45451500  0.25562700  0.75328300  1
  O  O0  1  0.55741300  0.74844600  0.26144000  1
  O  O1  1  0.74844600  0.55741300  0.76144000  1
loop_
_geom_bond_atom_site_label_1
_geom_bond_atom_site_label_2
_geom_bond_distance
_geom_bond_site_symmetry_2
N0 Zr1 2.056157 1_555
N0 Zr3 2.191597 1_555
N0 Zr0 2.194286 1_465
N0 Zr2 2.407126 1_466
N1 Zr0 2.056157 1_555
N1 Zr2 2.191597 1_555
N1 Zr1 2.194286 1_644
N1 Zr3 2.407126 1_645
N2 Zr2 2.115357 1_555
N2 Zr0 2.204127 1_455
N2 Zr3 2.234315 1_555
N2 Zr1 2.252968 1_554
N3 Zr3 2.115357 1_555
N3 Zr1 2.204127 1_545
N3 Zr2 2.234315 1_556
N3 Zr0 2.252968 1_555
O0 Zr2 2.096240 1_565
O0 Zr0 2.197688 1_555
O0 Zr3 2.303040 1_555
O0 Zr1 2.513337 1_554
O1 Zr3 2.096240 1_655
O1 Zr1 2.197688 1_555
O1 Zr2 2.303040 1_556
O1 Zr0 2.513337 1_555
