# generated using pymatgen
data_K2RbYV2O8
_symmetry_space_group_name_H-M   'P 1'
_cell_length_a   6.04134814
_cell_length_b   6.04134814
_cell_length_c   7.85456200
_cell_angle_alpha   90.00000000
_cell_angle_beta   90.00000000
_cell_angle_gamma   120.00000151
_symmetry_Int_Tables_number   1
_chemical_formula_structural   K2RbYV2O8
_chemical_formula_sum   'K2 Rb1 Y1 V2 O8'
_cell_volume   248.26775856
_cell_formula_units_Z   1
loop_
 _symmetry_equiv_pos_site_id
 _symmetry_equiv_pos_as_xyz
  1  'x, y, z'
loop_
 _atom_site_type_symbol
 _atom_site_label
 _atom_site_symmetry_multiplicity
 _atom_site_fract_x
 _atom_site_fract_y
 _atom_site_fract_z
 _atom_site_occupancy
  K  K0  1  0.33333300  0.66666700  0.70204200  1
  K  K1  1  0.66666700  0.33333300  0.29795800  1
  Rb  Rb0  1  0.00000000  0.00000000  0.00000000  1
  Y  Y0  1  0.00000000  0.00000000  0.50000000  1
  V  V0  1  0.33333300  0.66666700  0.25272500  1
  V  V1  1  0.66666700  0.33333300  0.74727500  1
  O  O0  1  0.33333300  0.66666700  0.03854500  1
  O  O1  1  0.66666700  0.33333300  0.96145500  1
  O  O2  1  0.17448300  0.82551700  0.32913900  1
  O  O3  1  0.82551700  0.17448300  0.67086100  1
  O  O4  1  0.17448300  0.34896600  0.32913900  1
  O  O5  1  0.82551700  0.65103400  0.67086100  1
  O  O6  1  0.65103400  0.82551700  0.32913900  1
  O  O7  1  0.34896600  0.17448300  0.67086100  1
loop_
_geom_bond_atom_site_label_1
_geom_bond_atom_site_label_2
_geom_bond_distance
_geom_bond_site_symmetry_2
K0 O0 2.643084 1_556
K0 O7 3.031687 1_565
K0 O5 3.031687 1_455
K0 O3 3.031690 1_565
K0 O3 3.031690 1_455
K0 O5 3.031693 1_555
K0 O7 3.031693 1_555
K1 O1 2.643084 1_554
K1 O4 3.031687 1_655
K1 O6 3.031687 1_545
K1 O2 3.031690 1_655
K1 O2 3.031690 1_545
K1 O6 3.031693 1_555
K1 O4 3.031693 1_555
O0 V0 1.682290 1_555
O0 Rb0 3.501085 1_565
O0 Rb0 3.501090 1_665
O0 Rb0 3.501090 1_555
O1 V1 1.682290 1_555
O1 Rb0 3.501085 1_656
O1 Rb0 3.501090 1_666
O1 Rb0 3.501090 1_556
O2 V0 1.767237 1_555
O2 Y0 2.265949 1_565
O2 Rb0 3.164955 1_565
O3 V1 1.767237 1_555
O3 Y0 2.265949 1_655
O3 Rb0 3.164955 1_656
O4 V0 1.767242 1_555
O4 Y0 2.265949 1_555
O4 Rb0 3.164955 1_555
O5 V1 1.767242 1_555
O5 Y0 2.265949 1_665
O5 Rb0 3.164955 1_666
O6 V0 1.767242 1_555
O6 Y0 2.265949 1_665
O6 Rb0 3.164955 1_665
O7 V1 1.767242 1_555
O7 Y0 2.265949 1_555
O7 Rb0 3.164955 1_556
