# generated using pymatgen
data_LiMnBO3
_symmetry_space_group_name_H-M   'P 1'
_cell_length_a   3.23522495
_cell_length_b   9.03332533
_cell_length_c   9.80068019
_cell_angle_alpha   89.97931774
_cell_angle_beta   89.99970286
_cell_angle_gamma   90.20852441
_symmetry_Int_Tables_number   1
_chemical_formula_structural   LiMnBO3
_chemical_formula_sum   'Li4 Mn4 B4 O12'
_cell_volume   286.42138978
_cell_formula_units_Z   4
loop_
 _symmetry_equiv_pos_site_id
 _symmetry_equiv_pos_as_xyz
  1  'x, y, z'
loop_
 _atom_site_type_symbol
 _atom_site_label
 _atom_site_symmetry_multiplicity
 _atom_site_fract_x
 _atom_site_fract_y
 _atom_site_fract_z
 _atom_site_occupancy
  Li  Li0  1  0.25020500  0.12661100  0.71711900  1
  Li  Li1  1  0.24973200  0.37339000  0.21733200  1
  Li  Li2  1  0.75026000  0.62659100  0.78268100  1
  Li  Li3  1  0.74979000  0.87338300  0.28288300  1
  Mn  Mn0  1  0.75073800  0.21787400  0.94723800  1
  Mn  Mn1  1  0.24926200  0.78214000  0.05273900  1
  Mn  Mn2  1  0.74919900  0.28196500  0.44733600  1
  Mn  Mn3  1  0.25081100  0.71803300  0.55268200  1
  B  B0  1  0.24957500  0.10761900  0.20879100  1
  B  B1  1  0.25039300  0.39235900  0.70861000  1
  B  B2  1  0.74960700  0.60764900  0.29138300  1
  B  B3  1  0.75042400  0.89238100  0.79121100  1
  O  O0  1  0.74929600  0.04415000  0.79886000  1
  O  O1  1  0.75063300  0.45588000  0.29912100  1
  O  O2  1  0.24935900  0.54411300  0.70086600  1
  O  O3  1  0.25069500  0.95586200  0.20115700  1
  O  O4  1  0.24793600  0.17845500  0.33503200  1
  O  O5  1  0.25199500  0.32139700  0.83487300  1
  O  O6  1  0.74800100  0.67860200  0.16511900  1
  O  O7  1  0.75207600  0.82156700  0.66496800  1
  O  O8  1  0.25038400  0.19865300  0.09247400  1
  O  O9  1  0.24954000  0.30132400  0.59236500  1
  O  O10  1  0.75047500  0.69865600  0.40764100  1
  O  O11  1  0.74961400  0.80134700  0.90752100  1
loop_
_geom_bond_atom_site_label_1
_geom_bond_atom_site_label_2
_geom_bond_distance
_geom_bond_site_symmetry_2
Li0 O0 1.952476 1_555
Li0 O0 1.952850 1_455
Li0 O9 1.996098 1_555
Li0 O5 2.104607 1_555
Li1 O1 1.953005 1_455
Li1 O1 1.953348 1_555
Li1 O8 1.997592 1_555
Li1 O4 2.104746 1_555
Li2 O2 1.953068 1_655
Li2 O2 1.953412 1_555
Li2 O11 1.997619 1_555
Li2 O7 2.105126 1_555
Li3 O3 1.952489 1_555
Li3 O3 1.952840 1_655
Li3 O10 1.996222 1_555
Li3 O6 2.104623 1_555
Mn0 O0 2.139871 1_555
Mn0 O8 2.161273 1_656
Mn0 O8 2.162031 1_556
Mn0 O5 2.168194 1_555
Mn0 O5 2.169175 1_655
Mn1 O3 2.140124 1_555
Mn1 O11 2.161152 1_454
Mn1 O11 2.161900 1_554
Mn1 O6 2.168318 1_555
Mn1 O6 2.169317 1_455
Mn2 O1 2.139282 1_555
Mn2 O9 2.160145 1_555
Mn2 O9 2.160855 1_655
Mn2 O4 2.168159 1_655
Mn2 O4 2.169187 1_555
Mn3 O2 2.139109 1_555
Mn3 O10 2.160248 1_555
Mn3 O10 2.160933 1_455
Mn3 O7 2.168159 1_455
Mn3 O7 2.169195 1_555
B0 O3 1.372955 1_545
B0 O4 1.393147 1_555
B0 O8 1.405391 1_555
B1 O2 1.372932 1_555
B1 O5 1.393450 1_555
B1 O9 1.405306 1_555
B2 O1 1.373063 1_555
B2 O6 1.393422 1_555
B2 O10 1.405261 1_555
B3 O0 1.373072 1_565
B3 O7 1.393073 1_555
B3 O11 1.405336 1_555
