# generated using pymatgen
data_Cs2S3
_symmetry_space_group_name_H-M   'P 1'
_cell_length_a   6.74983851
_cell_length_b   6.74983851
_cell_length_c   8.21402104
_cell_angle_alpha   90.00000000
_cell_angle_beta   90.00000000
_cell_angle_gamma   109.90637093
_symmetry_Int_Tables_number   1
_chemical_formula_structural   Cs2S3
_chemical_formula_sum   'Cs4 S6'
_cell_volume   351.87308114
_cell_formula_units_Z   2
loop_
 _symmetry_equiv_pos_site_id
 _symmetry_equiv_pos_as_xyz
  1  'x, y, z'
loop_
 _atom_site_type_symbol
 _atom_site_label
 _atom_site_symmetry_multiplicity
 _atom_site_fract_x
 _atom_site_fract_y
 _atom_site_fract_z
 _atom_site_occupancy
  Cs  Cs0  1  0.10282726  0.89717274  0.53018758  1
  Cs  Cs1  1  0.89717274  0.10282726  0.03018758  1
  Cs  Cs2  1  0.57003123  0.42996877  0.80968158  1
  Cs  Cs3  1  0.42996877  0.57003123  0.30968158  1
  S  S0  1  0.61775897  0.94794923  0.64641169  1
  S  S1  1  0.05205077  0.38224103  0.64641169  1
  S  S2  1  0.38224103  0.05205077  0.14641169  1
  S  S3  1  0.94794923  0.61775897  0.14641169  1
  S  S4  1  0.79412801  0.20587199  0.50780546  1
  S  S5  1  0.20587199  0.79412801  0.00780546  1
loop_
_geom_bond_atom_site_label_1
_geom_bond_atom_site_label_2
_geom_bond_distance
_geom_bond_site_symmetry_2
Cs0 S4 3.416681 1_465
Cs0 S0 3.506878 1_555
Cs0 S1 3.506878 1_555
Cs0 S1 3.537365 1_565
Cs0 S0 3.537365 1_455
Cs0 S2 3.639300 1_565
Cs0 S3 3.639300 1_455
Cs0 S5 4.085117 1_556
Cs1 S5 3.416681 1_645
Cs1 S2 3.506878 1_555
Cs1 S3 3.506878 1_555
Cs1 S2 3.537365 1_655
Cs1 S3 3.537365 1_545
Cs1 S1 3.639300 1_654
Cs1 S0 3.639300 1_544
Cs1 S4 4.085117 1_555
Cs2 S4 3.504652 1_555
Cs2 S1 3.633415 1_655
Cs2 S0 3.633415 1_545
Cs2 S0 3.655043 1_555
Cs2 S1 3.655043 1_555
Cs2 S3 3.682679 1_556
Cs2 S2 3.682679 1_556
Cs3 S5 3.504652 1_555
Cs3 S2 3.633415 1_565
Cs3 S3 3.633415 1_455
Cs3 S2 3.655043 1_555
Cs3 S3 3.655043 1_555
Cs3 S0 3.682679 1_555
Cs3 S1 3.682679 1_555
S0 S4 2.081576 1_565
S1 S4 2.081576 1_455
S2 S5 2.081576 1_545
S3 S5 2.081576 1_655
