# generated using pymatgen
data_Pu4Ir
_symmetry_space_group_name_H-M   'P 1'
_cell_length_a   7.43116901
_cell_length_b   7.43116901
_cell_length_c   7.43116901
_cell_angle_alpha   60.00000000
_cell_angle_beta   60.00000000
_cell_angle_gamma   60.00000000
_symmetry_Int_Tables_number   1
_chemical_formula_structural   Pu4Ir
_chemical_formula_sum   'Pu8 Ir2'
_cell_volume   290.17261171
_cell_formula_units_Z   2
loop_
 _symmetry_equiv_pos_site_id
 _symmetry_equiv_pos_as_xyz
  1  'x, y, z'
loop_
 _atom_site_type_symbol
 _atom_site_label
 _atom_site_symmetry_multiplicity
 _atom_site_fract_x
 _atom_site_fract_y
 _atom_site_fract_z
 _atom_site_occupancy
  Pu  Pu0  1  0.60716100  0.60716100  0.60716100  1
  Pu  Pu1  1  0.17851800  0.60716100  0.60716100  1
  Pu  Pu2  1  0.60716100  0.17851800  0.60716100  1
  Pu  Pu3  1  0.57148200  0.14283900  0.14283900  1
  Pu  Pu4  1  0.14283900  0.14283900  0.14283900  1
  Pu  Pu5  1  0.60716100  0.60716100  0.17851800  1
  Pu  Pu6  1  0.14283900  0.57148200  0.14283900  1
  Pu  Pu7  1  0.14283900  0.14283900  0.57148200  1
  Ir  Ir0  1  0.00000000  0.00000000  0.00000000  1
  Ir  Ir1  1  0.75000000  0.75000000  0.75000000  1
loop_
_geom_bond_atom_site_label_1
_geom_bond_atom_site_label_2
_geom_bond_distance
_geom_bond_site_symmetry_2
Ir0 Pu4 2.600037 1_555
Ir0 Pu6 2.600043 1_545
Ir0 Pu3 2.600043 1_455
Ir0 Pu7 2.600043 1_554
Ir1 Pu0 2.600037 1_555
Ir1 Pu2 2.600043 1_565
Ir1 Pu5 2.600043 1_556
Ir1 Pu1 2.600043 1_655
