# generated using pymatgen
data_Dy2Fe17CN
_symmetry_space_group_name_H-M   'P 1'
_cell_length_a   6.43700600
_cell_length_b   6.45877368
_cell_length_c   6.51130658
_cell_angle_alpha   83.63300186
_cell_angle_beta   83.51402678
_cell_angle_gamma   82.80840485
_symmetry_Int_Tables_number   1
_chemical_formula_structural   Dy2Fe17CN
_chemical_formula_sum   'Dy2 Fe17 C1 N1'
_cell_volume   265.57145434
_cell_formula_units_Z   1
loop_
 _symmetry_equiv_pos_site_id
 _symmetry_equiv_pos_as_xyz
  1  'x, y, z'
loop_
 _atom_site_type_symbol
 _atom_site_label
 _atom_site_symmetry_multiplicity
 _atom_site_fract_x
 _atom_site_fract_y
 _atom_site_fract_z
 _atom_site_occupancy
  Dy  Dy0  1  0.66188300  0.65198600  0.66011900  1
  Dy  Dy1  1  0.33811700  0.34801400  0.33988100  1
  Fe  Fe0  1  0.90340700  0.90438900  0.90440400  1
  Fe  Fe1  1  0.09659300  0.09561100  0.09559600  1
  Fe  Fe2  1  0.34605500  0.85273300  0.34064600  1
  Fe  Fe3  1  0.85076900  0.34456700  0.34097100  1
  Fe  Fe4  1  0.34413600  0.34279400  0.85255500  1
  Fe  Fe5  1  0.65394500  0.14726700  0.65935400  1
  Fe  Fe6  1  0.14923100  0.65543300  0.65902900  1
  Fe  Fe7  1  0.65586400  0.65720600  0.14744500  1
  Fe  Fe8  1  0.00000000  0.50000000  0.00000000  1
  Fe  Fe9  1  0.50000000  0.00000000  0.00000000  1
  Fe  Fe10  1  0.00000000  0.00000000  0.50000000  1
  Fe  Fe11  1  0.71340700  0.00346900  0.28463800  1
  Fe  Fe12  1  0.99992300  0.28199400  0.71806600  1
  Fe  Fe13  1  0.29405100  0.70754200  0.99790900  1
  Fe  Fe14  1  0.00007700  0.71800600  0.28193400  1
  Fe  Fe15  1  0.70594900  0.29245800  0.00209100  1
  Fe  Fe16  1  0.28659300  0.99653100  0.71536200  1
  C  C0  1  0.50000000  0.00000000  0.50000000  1
  N  N0  1  0.00000000  0.50000000  0.50000000  1
loop_
_geom_bond_atom_site_label_1
_geom_bond_atom_site_label_2
_geom_bond_distance
_geom_bond_site_symmetry_2
Dy0 N0 2.442746 1_655
Dy0 Fe15 3.043312 1_556
Dy0 Fe13 3.059138 1_555
Dy0 Fe0 3.061550 1_555
Dy0 Fe4 3.103248 1_555
Dy0 Fe7 3.172855 1_556
Dy0 Fe8 3.266451 1_656
Dy0 Fe9 3.321405 1_566
Dy0 Fe10 3.326977 1_665
Dy0 Fe7 3.339161 1_555
Dy1 N0 2.442746 1_555
Dy1 Fe13 3.043312 1_554
Dy1 Fe15 3.059138 1_555
Dy1 Fe1 3.061550 1_555
Dy1 Fe7 3.103248 1_555
Dy1 Fe4 3.172855 1_554
Dy1 Fe8 3.266451 1_555
Dy1 Fe9 3.321405 1_555
Dy1 Fe10 3.326977 1_555
Dy1 Fe4 3.339161 1_555
Fe0 Fe1 2.386810 1_666
Fe0 Fe9 2.613506 1_566
Fe0 Fe8 2.629847 1_656
Fe0 Fe5 2.641646 1_565
Fe0 Fe6 2.646444 1_655
Fe0 Fe10 2.658434 1_665
Fe0 Fe7 2.664412 1_556
Fe0 Fe12 2.712733 1_565
Fe0 Fe14 2.716776 1_656
Fe0 Fe16 2.733573 1_655
Fe0 Fe11 2.739774 1_566
Fe0 Fe15 2.770509 1_566
Fe0 Fe13 2.771996 1_655
Fe1 Fe9 2.613506 1_555
Fe1 Fe8 2.629847 1_555
Fe1 Fe2 2.641646 1_545
Fe1 Fe3 2.646444 1_455
Fe1 Fe10 2.658434 1_555
Fe1 Fe4 2.664412 1_554
Fe1 Fe14 2.712733 1_545
Fe1 Fe12 2.716776 1_454
Fe1 Fe11 2.733573 1_455
Fe1 Fe16 2.739774 1_544
Fe1 Fe13 2.770509 1_544
Fe1 Fe15 2.771996 1_455
Fe2 Fe9 2.465347 1_565
Fe2 Fe7 2.511851 1_555
Fe3 N0 1.923420 1_655
Fe3 Fe8 2.474877 1_655
Fe3 Fe7 2.529397 1_555
Fe4 Fe9 2.453619 1_556
Fe4 Fe8 2.456091 1_556
Fe4 Fe5 2.511851 1_555
Fe4 Fe6 2.529397 1_555
Fe5 Fe9 2.465347 1_556
Fe6 N0 1.923420 1_555
Fe6 Fe8 2.474877 1_556
Fe7 Fe9 2.453619 1_565
Fe7 Fe8 2.456091 1_655
Fe10 Fe14 2.430341 1_545
Fe10 Fe12 2.430341 1_455
Fe10 Fe11 2.436663 1_455
Fe10 Fe16 2.436663 1_545
Fe10 Fe5 2.471756 1_455
Fe10 Fe2 2.471756 1_545
Fe10 Fe6 2.475097 1_545
Fe10 Fe3 2.475097 1_455
Fe11 Fe9 2.432000 1_555
Fe11 Fe15 2.471186 1_555
Fe11 Fe7 2.581104 1_545
Fe12 N0 1.885550 1_655
Fe12 Fe8 2.434399 1_656
Fe12 Fe15 2.492122 1_556
Fe12 Fe4 2.561808 1_655
Fe13 Fe9 2.441808 1_566
Fe13 Fe8 2.450541 1_556
Fe13 Fe16 2.471186 1_555
Fe13 Fe14 2.492122 1_556
Fe13 Fe6 2.561079 1_555
Fe13 Fe2 2.585209 1_556
Fe13 Fe7 2.594315 1_556
Fe13 Fe4 2.604809 1_555
Fe14 N0 1.885550 1_555
Fe14 Fe8 2.434399 1_555
Fe14 Fe7 2.561808 1_455
Fe15 Fe9 2.441808 1_555
Fe15 Fe8 2.450541 1_655
Fe15 Fe3 2.561079 1_555
Fe15 Fe5 2.585209 1_554
Fe15 Fe4 2.594315 1_554
Fe15 Fe7 2.604809 1_555
Fe16 Fe9 2.432000 1_566
Fe16 Fe4 2.581104 1_565
C0 Fe11 1.849193 1_555
C0 Fe16 1.849193 1_545
C0 Fe5 1.910624 1_555
C0 Fe2 1.910624 1_545
C0 Dy0 2.522781 1_545
C0 Dy1 2.522781 1_555
