# generated using pymatgen
data_SiO2
_symmetry_space_group_name_H-M   'P 1'
_cell_length_a   13.93269900
_cell_length_b   13.93269851
_cell_length_c   8.61933200
_cell_angle_alpha   90.00000000
_cell_angle_beta   90.00000000
_cell_angle_gamma   119.99999879
_symmetry_Int_Tables_number   1
_chemical_formula_structural   SiO2
_chemical_formula_sum   'Si24 O48'
_cell_volume   1449.02120332
_cell_formula_units_Z   24
loop_
 _symmetry_equiv_pos_site_id
 _symmetry_equiv_pos_as_xyz
  1  'x, y, z'
loop_
 _atom_site_type_symbol
 _atom_site_label
 _atom_site_symmetry_multiplicity
 _atom_site_fract_x
 _atom_site_fract_y
 _atom_site_fract_z
 _atom_site_occupancy
  Si  Si0  1  0.45496400  0.12230200  0.68728100  1
  Si  Si1  1  0.87769800  0.33266200  0.68728100  1
  Si  Si2  1  0.66733800  0.54503600  0.68728100  1
  Si  Si3  1  0.45496400  0.12230200  0.31271900  1
  Si  Si4  1  0.87769800  0.33266200  0.31271900  1
  Si  Si5  1  0.66733800  0.54503600  0.31271900  1
  Si  Si6  1  0.12230200  0.45496400  0.18728100  1
  Si  Si7  1  0.33266200  0.87769800  0.18728100  1
  Si  Si8  1  0.54503600  0.66733800  0.18728100  1
  Si  Si9  1  0.12230200  0.45496400  0.81271900  1
  Si  Si10  1  0.33266200  0.87769800  0.81271900  1
  Si  Si11  1  0.54503600  0.66733800  0.81271900  1
  Si  Si12  1  0.54503600  0.87769800  0.31271900  1
  Si  Si13  1  0.12230200  0.66733800  0.31271900  1
  Si  Si14  1  0.33266200  0.45496400  0.31271900  1
  Si  Si15  1  0.54503600  0.87769800  0.68728100  1
  Si  Si16  1  0.12230200  0.66733800  0.68728100  1
  Si  Si17  1  0.33266200  0.45496400  0.68728100  1
  Si  Si18  1  0.87769800  0.54503600  0.81271900  1
  Si  Si19  1  0.66733800  0.12230200  0.81271900  1
  Si  Si20  1  0.45496400  0.33266200  0.81271900  1
  Si  Si21  1  0.87769800  0.54503600  0.18728100  1
  Si  Si22  1  0.66733800  0.12230200  0.18728100  1
  Si  Si23  1  0.45496400  0.33266200  0.18728100  1
  O  O0  1  0.21005300  0.78994700  0.75000000  1
  O  O1  1  0.21005300  0.42010500  0.75000000  1
  O  O2  1  0.57989500  0.78994700  0.75000000  1
  O  O3  1  0.21005300  0.78994700  0.25000000  1
  O  O4  1  0.21005300  0.42010500  0.25000000  1
  O  O5  1  0.57989500  0.78994700  0.25000000  1
  O  O6  1  0.78994700  0.21005300  0.25000000  1
  O  O7  1  0.42010500  0.21005300  0.25000000  1
  O  O8  1  0.78994700  0.57989500  0.25000000  1
  O  O9  1  0.78994700  0.21005300  0.75000000  1
  O  O10  1  0.42010500  0.21005300  0.75000000  1
  O  O11  1  0.78994700  0.57989500  0.75000000  1
  O  O12  1  0.36527900  0.36527900  0.75000000  1
  O  O13  1  0.63472100  0.00000000  0.75000000  1
  O  O14  1  0.00000000  0.63472100  0.75000000  1
  O  O15  1  0.36527900  0.36527900  0.25000000  1
  O  O16  1  0.63472100  0.00000000  0.25000000  1
  O  O17  1  0.00000000  0.63472100  0.25000000  1
  O  O18  1  0.63472100  0.63472100  0.25000000  1
  O  O19  1  0.36527900  0.00000000  0.25000000  1
  O  O20  1  0.00000000  0.36527900  0.25000000  1
  O  O21  1  0.63472100  0.63472100  0.75000000  1
  O  O22  1  0.36527900  0.00000000  0.75000000  1
  O  O23  1  0.00000000  0.36527900  0.75000000  1
  O  O24  1  0.57845500  0.15690900  0.75000000  1
  O  O25  1  0.84309100  0.42154500  0.75000000  1
  O  O26  1  0.57845500  0.42154500  0.75000000  1
  O  O27  1  0.57845500  0.15690900  0.25000000  1
  O  O28  1  0.84309100  0.42154500  0.25000000  1
  O  O29  1  0.57845500  0.42154500  0.25000000  1
  O  O30  1  0.15690900  0.57845500  0.25000000  1
  O  O31  1  0.42154500  0.84309100  0.25000000  1
  O  O32  1  0.42154500  0.57845500  0.25000000  1
  O  O33  1  0.15690900  0.57845500  0.75000000  1
  O  O34  1  0.42154500  0.84309100  0.75000000  1
  O  O35  1  0.42154500  0.57845500  0.75000000  1
  O  O36  1  0.45449700  0.12261000  0.50000000  1
  O  O37  1  0.87739000  0.33188700  0.50000000  1
  O  O38  1  0.66811300  0.54550300  0.50000000  1
  O  O39  1  0.12261000  0.45449700  0.00000000  1
  O  O40  1  0.33188700  0.87739000  0.00000000  1
  O  O41  1  0.54550300  0.66811300  0.00000000  1
  O  O42  1  0.54550300  0.87739000  0.50000000  1
  O  O43  1  0.12261000  0.66811300  0.50000000  1
  O  O44  1  0.33188700  0.45449700  0.50000000  1
  O  O45  1  0.87739000  0.54550300  0.00000000  1
  O  O46  1  0.66811300  0.12261000  0.00000000  1
  O  O47  1  0.45449700  0.33188700  0.00000000  1
loop_
_geom_bond_atom_site_label_1
_geom_bond_atom_site_label_2
_geom_bond_distance
_geom_bond_site_symmetry_2
O0 Si16 1.617611 1_555
O0 Si10 1.617611 1_555
O1 Si17 1.617608 1_555
O1 Si9 1.617621 1_555
O2 Si11 1.617608 1_555
O2 Si15 1.617621 1_555
O3 Si13 1.617611 1_555
O3 Si7 1.617611 1_555
O4 Si14 1.617608 1_555
O4 Si6 1.617621 1_555
O5 Si8 1.617608 1_555
O5 Si12 1.617621 1_555
O6 Si4 1.617611 1_555
O6 Si22 1.617611 1_555
O7 Si23 1.617608 1_555
O7 Si3 1.617621 1_555
O8 Si5 1.617608 1_555
O8 Si21 1.617621 1_555
O9 Si1 1.617611 1_555
O9 Si19 1.617611 1_555
O10 Si20 1.617608 1_555
O10 Si0 1.617621 1_555
O11 Si2 1.617608 1_555
O11 Si18 1.617621 1_555
O12 Si17 1.621110 1_555
O12 Si20 1.621110 1_555
O13 Si19 1.621110 1_555
O13 Si15 1.621110 1_545
O14 Si16 1.621110 1_555
O14 Si18 1.621110 1_455
O15 Si14 1.621110 1_555
O15 Si23 1.621110 1_555
O16 Si22 1.621110 1_555
O16 Si12 1.621110 1_545
O17 Si13 1.621110 1_555
O17 Si21 1.621110 1_455
O18 Si5 1.621110 1_555
O18 Si8 1.621110 1_555
O19 Si7 1.621110 1_545
O19 Si3 1.621110 1_555
O20 Si4 1.621110 1_455
O20 Si6 1.621110 1_555
O21 Si2 1.621110 1_555
O21 Si11 1.621110 1_555
O22 Si10 1.621110 1_545
O22 Si0 1.621110 1_555
O23 Si1 1.621110 1_455
O23 Si9 1.621110 1_555
O24 Si19 1.629547 1_555
O24 Si0 1.629560 1_555
O25 Si1 1.629547 1_555
O25 Si18 1.629560 1_555
O26 Si2 1.629557 1_555
O26 Si20 1.629557 1_555
O27 Si22 1.629547 1_555
O27 Si3 1.629560 1_555
O28 Si4 1.629547 1_555
O28 Si21 1.629560 1_555
O29 Si5 1.629557 1_555
O29 Si23 1.629557 1_555
O30 Si13 1.629547 1_555
O30 Si6 1.629560 1_555
O31 Si7 1.629547 1_555
O31 Si12 1.629560 1_555
O32 Si14 1.629557 1_555
O32 Si8 1.629557 1_555
O33 Si16 1.629547 1_555
O33 Si9 1.629560 1_555
O34 Si10 1.629547 1_555
O34 Si15 1.629560 1_555
O35 Si17 1.629557 1_555
O35 Si11 1.629557 1_555
O36 Si3 1.614265 1_555
O36 Si0 1.614265 1_555
O37 Si4 1.614265 1_555
O37 Si1 1.614265 1_555
O38 Si5 1.614265 1_555
O38 Si2 1.614265 1_555
O39 Si6 1.614265 1_555
O39 Si9 1.614265 1_554
O40 Si7 1.614265 1_555
O40 Si10 1.614265 1_554
O41 Si8 1.614265 1_555
O41 Si11 1.614265 1_554
O42 Si12 1.614265 1_555
O42 Si15 1.614265 1_555
O43 Si13 1.614265 1_555
O43 Si16 1.614265 1_555
O44 Si14 1.614265 1_555
O44 Si17 1.614265 1_555
O45 Si21 1.614265 1_555
O45 Si18 1.614265 1_554
O46 Si22 1.614265 1_555
O46 Si19 1.614265 1_554
O47 Si23 1.614265 1_555
O47 Si20 1.614265 1_554
