# generated using pymatgen
data_Li2MnV3O8
_symmetry_space_group_name_H-M   'P 1'
_cell_length_a   5.95184067
_cell_length_b   10.36554420
_cell_length_c   5.93935504
_cell_angle_alpha   106.67285092
_cell_angle_beta   60.07382084
_cell_angle_gamma   90.06650191
_symmetry_Int_Tables_number   1
_chemical_formula_structural   Li2MnV3O8
_chemical_formula_sum   'Li4 Mn2 V6 O16'
_cell_volume   299.73543912
_cell_formula_units_Z   2
loop_
 _symmetry_equiv_pos_site_id
 _symmetry_equiv_pos_as_xyz
  1  'x, y, z'
loop_
 _atom_site_type_symbol
 _atom_site_label
 _atom_site_symmetry_multiplicity
 _atom_site_fract_x
 _atom_site_fract_y
 _atom_site_fract_z
 _atom_site_occupancy
  Li  Li0  1  0.30630700  0.56371400  0.38094300  1
  Li  Li1  1  0.81395500  0.06506900  0.38099900  1
  Li  Li2  1  0.19422800  0.93601600  0.61690400  1
  Li  Li3  1  0.68584700  0.43483100  0.61938700  1
  Mn  Mn0  1  0.75066400  0.74928500  0.49947600  1
  Mn  Mn1  1  0.24886300  0.25035700  0.50113300  1
  V  V0  1  0.24955600  0.75023800  0.00104500  1
  V  V1  1  0.75132500  0.74927100  0.99941000  1
  V  V2  1  0.99390700  0.50102700  0.00117200  1
  V  V3  1  0.75017500  0.25044500  0.00107300  1
  V  V4  1  0.25023000  0.24969700  0.99978500  1
  V  V5  1  0.50698400  0.99959100  0.99656000  1
  O  O0  1  0.09182400  0.63646700  0.78933600  1
  O  O1  1  0.61653700  0.13615900  0.79124000  1
  O  O2  1  0.41101800  0.86525600  0.20754500  1
  O  O3  1  0.88232900  0.36279500  0.20995400  1
  O  O4  1  0.87015800  0.85754800  0.24914700  1
  O  O5  1  0.38495300  0.35692900  0.25070200  1
  O  O6  1  0.09577900  0.63254300  0.24704800  1
  O  O7  1  0.60171300  0.13492300  0.24543000  1
  O  O8  1  0.64382600  0.63888900  0.25217000  1
  O  O9  1  0.15378500  0.13714900  0.24707700  1
  O  O10  1  0.85507200  0.86043500  0.74653100  1
  O  O11  1  0.34511400  0.36347100  0.75569400  1
  O  O12  1  0.40829300  0.86759200  0.75190400  1
  O  O13  1  0.89342600  0.36494300  0.75710000  1
  O  O14  1  0.62958500  0.64245800  0.75093300  1
  O  O15  1  0.11454300  0.14290000  0.75030700  1
loop_
_geom_bond_atom_site_label_1
_geom_bond_atom_site_label_2
_geom_bond_distance
_geom_bond_site_symmetry_2
Li0 O0 1.986182 1_555
Li0 O8 2.008238 1_555
Li0 O6 2.008333 1_555
Li0 O5 2.025204 1_555
Li1 O1 1.993904 1_555
Li1 O9 2.003538 1_655
Li1 O7 2.029756 1_555
Li1 O4 2.031243 1_545
Li2 O2 1.990724 1_555
Li2 O10 2.018182 1_455
Li2 O15 2.025807 1_565
Li2 O12 2.029023 1_555
Li3 O3 1.990298 1_555
Li3 O11 2.004314 1_555
Li3 O13 2.017561 1_555
Li3 O14 2.032278 1_555
Mn0 O10 1.950575 1_555
Mn0 O12 1.951034 1_555
Mn0 O6 1.955334 1_655
Mn0 O8 1.958839 1_555
Mn0 O14 1.961947 1_555
Mn0 O4 1.968807 1_555
Mn1 O9 1.951542 1_555
Mn1 O5 1.956377 1_555
Mn1 O15 1.957885 1_555
Mn1 O11 1.958130 1_555
Mn1 O7 1.982271 1_555
Mn1 O13 1.989489 1_455
O0 V1 1.917413 1_455
O0 V2 2.042950 1_456
O0 V0 2.043902 1_556
O1 V3 1.931040 1_556
O1 V5 2.027620 1_545
O1 V4 2.036565 1_555
O2 V1 1.931481 1_554
O2 V5 2.029957 1_554
O2 V0 2.045350 1_555
O3 V3 1.912200 1_555
O3 V4 2.041149 1_654
O3 V2 2.056071 1_555
O4 V1 2.012376 1_554
O4 V0 2.062281 1_655
O5 V3 1.998130 1_555
O5 V4 2.083056 1_554
O6 V2 2.024316 1_455
O6 V0 2.036363 1_555
O7 V3 2.009034 1_555
O7 V5 2.027424 1_544
O8 V1 1.999434 1_554
O8 V2 2.071522 1_555
O9 V4 1.997046 1_554
O9 V5 2.082029 1_544
O10 V1 2.007712 1_555
O10 V5 2.070303 1_555
O11 V4 1.993520 1_555
O11 V2 2.073981 1_456
O12 V5 2.009361 1_555
O12 V0 2.048718 1_556
O13 V3 1.996750 1_556
O13 V2 2.034341 1_556
O14 V1 2.014026 1_555
O14 V0 2.066873 1_556
O15 V3 1.998548 1_456
O15 V4 2.079393 1_555
