# generated using pymatgen
data_Li5SbS
_symmetry_space_group_name_H-M   'P 1'
_cell_length_a   8.02812100
_cell_length_b   11.44258200
_cell_length_c   15.88089580
_cell_angle_alpha   48.34634720
_cell_angle_beta   90.00000000
_cell_angle_gamma   90.00000000
_symmetry_Int_Tables_number   1
_chemical_formula_structural   Li5SbS
_chemical_formula_sum   'Li40 Sb8 S8'
_cell_volume   1090.02355225
_cell_formula_units_Z   8
loop_
 _symmetry_equiv_pos_site_id
 _symmetry_equiv_pos_as_xyz
  1  'x, y, z'
loop_
 _atom_site_type_symbol
 _atom_site_label
 _atom_site_symmetry_multiplicity
 _atom_site_fract_x
 _atom_site_fract_y
 _atom_site_fract_z
 _atom_site_occupancy
  Li  Li0  1  0.26029300  0.42542200  0.08684100  1
  Li  Li1  1  0.74728100  0.97767400  0.51213700  1
  Li  Li2  1  0.74920600  0.26691800  0.12581200  1
  Li  Li3  1  0.09563600  0.01694100  0.32222400  1
  Li  Li4  1  0.07508100  0.73449600  0.71039700  1
  Li  Li5  1  0.43063100  0.73324900  0.71005900  1
  Li  Li6  1  0.41045900  0.01350100  0.32415400  1
  Li  Li7  1  0.08169700  0.28782700  0.98366800  1
  Li  Li8  1  0.42768700  0.28341100  0.98320100  1
  Li  Li9  1  0.75426900  0.53299600  0.74036600  1
  Li  Li10  1  0.91045900  0.98649900  0.17584600  1
  Li  Li11  1  0.25426900  0.46700400  0.75963400  1
  Li  Li12  1  0.92768700  0.71658900  0.51679900  1
  Li  Li13  1  0.58169700  0.71217300  0.51633200  1
  Li  Li14  1  0.59563600  0.98305900  0.17777600  1
  Li  Li15  1  0.24920600  0.73308200  0.37418800  1
  Li  Li16  1  0.93063100  0.26675100  0.78994100  1
  Li  Li17  1  0.57508100  0.26550400  0.78960300  1
  Li  Li18  1  0.76029300  0.57457800  0.41315900  1
  Li  Li19  1  0.24728100  0.02232600  0.98786300  1
  Li  Li20  1  0.75271900  0.97767400  0.01213700  1
  Li  Li21  1  0.23970700  0.42542200  0.58684100  1
  Li  Li22  1  0.42491900  0.73449600  0.21039700  1
  Li  Li23  1  0.06936900  0.73324900  0.21005900  1
  Li  Li24  1  0.75079400  0.26691800  0.62581200  1
  Li  Li25  1  0.40436400  0.01694100  0.82222400  1
  Li  Li26  1  0.41830300  0.28782700  0.48366800  1
  Li  Li27  1  0.07231300  0.28341100  0.48320100  1
  Li  Li28  1  0.74573100  0.53299600  0.24036600  1
  Li  Li29  1  0.08954100  0.01350100  0.82415400  1
  Li  Li30  1  0.24573100  0.46700400  0.25963400  1
  Li  Li31  1  0.57231300  0.71658900  0.01679900  1
  Li  Li32  1  0.91830300  0.71217300  0.01633200  1
  Li  Li33  1  0.58954100  0.98649900  0.67584600  1
  Li  Li34  1  0.56936900  0.26675100  0.28994100  1
  Li  Li35  1  0.92491900  0.26550400  0.28960300  1
  Li  Li36  1  0.90436400  0.98305900  0.67777600  1
  Li  Li37  1  0.25079400  0.73308200  0.87418800  1
  Li  Li38  1  0.25271900  0.02232600  0.48786300  1
  Li  Li39  1  0.73970700  0.57457800  0.91315900  1
  Sb  Sb0  1  0.75345100  0.98900900  0.33785600  1
  Sb  Sb1  1  0.75485400  0.26261200  0.95685800  1
  Sb  Sb2  1  0.25345100  0.01099100  0.16214400  1
  Sb  Sb3  1  0.25485400  0.73738800  0.54314200  1
  Sb  Sb4  1  0.74514600  0.26261200  0.45685800  1
  Sb  Sb5  1  0.74654900  0.98900900  0.83785600  1
  Sb  Sb6  1  0.24514600  0.73738800  0.04314200  1
  Sb  Sb7  1  0.24654900  0.01099100  0.66214400  1
  S  S0  1  0.24992400  0.23477400  0.29109400  1
  S  S1  1  0.25846600  0.51438100  0.88860700  1
  S  S2  1  0.75846600  0.48561900  0.61139300  1
  S  S3  1  0.74992400  0.76522600  0.20890600  1
  S  S4  1  0.25007600  0.23477400  0.79109400  1
  S  S5  1  0.24153400  0.51438100  0.38860700  1
  S  S6  1  0.74153400  0.48561900  0.11139300  1
  S  S7  1  0.75007600  0.76522600  0.70890600  1
loop_
_geom_bond_atom_site_label_1
_geom_bond_atom_site_label_2
_geom_bond_distance
_geom_bond_site_symmetry_2
Li0 S0 2.425195 1_555
Li0 S1 2.586014 1_554
Li0 Sb6 3.153756 1_555
Li1 S7 2.361630 1_555
Li1 Sb0 2.683743 1_555
Li1 Sb4 2.756207 1_565
Li1 Li33 2.953308 1_555
Li1 Li36 2.954502 1_555
Li2 S6 2.357338 1_555
Li2 Sb0 2.686817 1_545
Li2 Sb1 2.716516 1_554
Li3 S0 2.520629 1_555
Li3 Li6 2.527612 1_555
Li3 Sb0 2.757696 1_445
Li3 Li35 2.877092 1_455
Li3 Sb2 2.881447 1_555
Li3 Li38 2.954502 1_555
Li3 Sb3 3.042569 1_545
Li4 S7 2.630771 1_455
Li4 S1 2.654377 1_555
Li4 Sb3 3.003728 1_555
Li4 Sb7 3.044536 1_565
Li5 S7 2.588859 1_555
Li5 S1 2.604449 1_555
Li5 Sb3 2.975471 1_555
Li5 Sb7 3.106234 1_565
Li6 S0 2.565215 1_555
Li6 Sb0 2.761709 1_545
Li6 Sb2 2.882271 1_555
Li6 Sb3 3.005296 1_545
Li7 S1 2.410640 1_555
Li7 Sb1 2.704228 1_455
Li7 Sb2 2.834548 1_556
Li8 S1 2.410338 1_555
Li8 Sb1 2.694939 1_555
Li8 Sb2 2.823858 1_556
Li9 S7 2.355270 1_555
Li9 S2 2.442566 1_555
Li9 Sb1 2.693191 1_555
Li10 Li14 2.527612 1_555
Li10 S3 2.565215 1_555
Li10 Sb2 2.761709 1_665
Li10 Li23 2.868326 1_655
Li10 Sb0 2.882271 1_555
Li10 Li20 2.953308 1_555
Li10 Li3 2.968429 1_665
Li10 Sb1 3.005296 1_564
Li10 Li7 3.017449 1_664
Li10 Li2 3.035466 1_565
Li11 S4 2.355270 1_555
Li11 S1 2.442566 1_555
Li11 Sb3 2.693191 1_555
Li12 S2 2.410338 1_555
Li12 Sb3 2.694939 1_655
Li12 Sb0 2.823858 1_555
Li12 Li3 3.010219 1_665
Li13 S2 2.410640 1_555
Li13 Sb3 2.704228 1_555
Li13 Sb0 2.834548 1_555
Li13 Li6 3.017449 1_565
Li14 S3 2.520629 1_555
Li14 Sb2 2.757696 1_565
Li14 Li22 2.877092 1_555
Li14 Sb0 2.881447 1_555
Li14 Li20 2.954502 1_555
Li14 Li6 2.968429 1_565
Li14 Li8 3.010219 1_564
Li14 Li2 3.031181 1_565
Li14 Sb1 3.042569 1_564
Li15 S5 2.357338 1_555
Li15 Sb2 2.686817 1_565
Li15 Sb3 2.716516 1_555
Li15 Li3 3.031181 1_565
Li15 Li6 3.035466 1_565
Li16 S4 2.588859 1_655
Li16 S2 2.604449 1_555
Li16 Li29 2.868326 1_655
Li16 Sb1 2.975471 1_555
Li16 Sb5 3.106234 1_545
Li17 S4 2.630771 1_555
Li17 S2 2.654377 1_555
Li17 Li25 2.877092 1_555
Li17 Sb1 3.003728 1_555
Li17 Sb5 3.044536 1_545
Li18 S3 2.425195 1_555
Li18 S2 2.586014 1_555
Li18 Sb4 3.153756 1_555
Li19 S4 2.361630 1_555
Li19 Sb2 2.683743 1_556
Li19 Sb6 2.756207 1_546
Li19 Li29 2.953308 1_555
Li19 Li25 2.954502 1_555
Li20 S3 2.361630 1_555
Li20 Sb5 2.683743 1_554
Li20 Sb1 2.756207 1_564
Li21 S4 2.425195 1_555
Li21 S5 2.586014 1_555
Li21 Sb3 3.153756 1_555
Li22 S3 2.630771 1_555
Li22 S5 2.654377 1_555
Li22 Sb6 3.003728 1_555
Li22 Sb2 3.044536 1_565
Li23 S3 2.588859 1_455
Li23 S5 2.604449 1_555
Li23 Sb6 2.975471 1_555
Li23 Sb2 3.106234 1_565
Li24 S2 2.357338 1_555
Li24 Sb5 2.686817 1_545
Li24 Sb4 2.716516 1_555
Li24 Li36 3.031181 1_545
Li24 Li33 3.035466 1_545
Li25 S4 2.520629 1_555
Li25 Li29 2.527612 1_555
Li25 Sb5 2.757696 1_545
Li25 Sb7 2.881447 1_555
Li25 Li33 2.968429 1_545
Li25 Li31 3.010219 1_546
Li25 Li37 3.031181 1_545
Li25 Sb6 3.042569 1_546
Li26 S5 2.410640 1_555
Li26 Sb4 2.704228 1_555
Li26 Sb7 2.834548 1_555
Li26 Li33 3.017449 1_545
Li27 S5 2.410338 1_555
Li27 Sb4 2.694939 1_455
Li27 Sb7 2.823858 1_555
Li27 Li36 3.010219 1_445
Li28 S3 2.355270 1_555
Li28 S6 2.442566 1_555
Li28 Sb4 2.693191 1_555
Li29 S4 2.565215 1_555
Li29 Sb5 2.761709 1_445
Li29 Sb7 2.882271 1_555
Li29 Li36 2.968429 1_445
Li29 Sb6 3.005296 1_546
Li29 Li32 3.017449 1_446
Li29 Li37 3.035466 1_545
Li30 S0 2.355270 1_555
Li30 S5 2.442566 1_555
Li30 Sb6 2.693191 1_555
Li31 S6 2.410338 1_555
Li31 Sb6 2.694939 1_555
Li31 Sb5 2.823858 1_554
Li32 S6 2.410640 1_555
Li32 Sb6 2.704228 1_655
Li32 Sb5 2.834548 1_554
Li33 Li36 2.527612 1_555
Li33 S7 2.565215 1_555
Li33 Sb7 2.761709 1_565
Li33 Li5 2.868326 1_555
Li33 Sb5 2.882271 1_555
Li33 Sb4 3.005296 1_565
Li34 S0 2.588859 1_555
Li34 S6 2.604449 1_555
Li34 Li6 2.868326 1_555
Li34 Sb4 2.975471 1_555
Li34 Sb0 3.106234 1_545
Li35 S0 2.630771 1_655
Li35 S6 2.654377 1_555
Li35 Sb4 3.003728 1_555
Li35 Sb0 3.044536 1_545
Li36 S7 2.520629 1_555
Li36 Sb7 2.757696 1_665
Li36 Li4 2.877092 1_655
Li36 Sb5 2.881447 1_555
Li36 Sb4 3.042569 1_565
Li37 S1 2.357338 1_555
Li37 Sb7 2.686817 1_565
Li37 Sb6 2.716516 1_556
Li38 S0 2.361630 1_555
Li38 Sb7 2.683743 1_555
Li38 Sb3 2.756207 1_545
Li38 Li6 2.953308 1_555
Li39 S7 2.425195 1_555
Li39 S6 2.586014 1_556
Li39 Sb1 3.153756 1_555
