# generated using pymatgen
data_Eu2LuTaO6
_symmetry_space_group_name_H-M   'P 1'
_cell_length_a   5.86683951
_cell_length_b   5.86683951
_cell_length_c   5.86683951
_cell_angle_alpha   60.00000000
_cell_angle_beta   60.00000000
_cell_angle_gamma   60.00000000
_symmetry_Int_Tables_number   1
_chemical_formula_structural   Eu2LuTaO6
_chemical_formula_sum   'Eu2 Lu1 Ta1 O6'
_cell_volume   142.78994484
_cell_formula_units_Z   1
loop_
 _symmetry_equiv_pos_site_id
 _symmetry_equiv_pos_as_xyz
  1  'x, y, z'
loop_
 _atom_site_type_symbol
 _atom_site_label
 _atom_site_symmetry_multiplicity
 _atom_site_fract_x
 _atom_site_fract_y
 _atom_site_fract_z
 _atom_site_occupancy
  Eu  Eu0  1  0.25000000  0.25000000  0.25000000  1
  Eu  Eu1  1  0.75000000  0.75000000  0.75000000  1
  Lu  Lu0  1  0.50000000  0.50000000  0.50000000  1
  Ta  Ta0  1  0.00000000  0.00000000  0.00000000  1
  O  O0  1  0.75955100  0.24044900  0.24044900  1
  O  O1  1  0.24044900  0.75955100  0.75955100  1
  O  O2  1  0.24044900  0.75955100  0.24044900  1
  O  O3  1  0.75955100  0.24044900  0.75955100  1
  O  O4  1  0.24044900  0.24044900  0.75955100  1
  O  O5  1  0.75955100  0.75955100  0.24044900  1
loop_
_geom_bond_atom_site_label_1
_geom_bond_atom_site_label_2
_geom_bond_distance
_geom_bond_site_symmetry_2
Eu0 O2 2.934490 1_555
Eu0 O3 2.934490 1_554
Eu0 O0 2.934490 1_555
Eu0 O4 2.934490 1_554
Eu0 O5 2.934490 1_545
Eu0 O4 2.934490 1_555
Eu0 O1 2.934490 1_554
Eu0 O5 2.934490 1_455
Eu0 O3 2.934490 1_455
Eu0 O1 2.934490 1_545
Eu0 O0 2.934490 1_455
Eu0 O2 2.934490 1_545
Eu1 O3 2.934490 1_565
Eu1 O5 2.934490 1_556
Eu1 O1 2.934490 1_655
Eu1 O4 2.934490 1_655
Eu1 O0 2.934490 1_565
Eu1 O2 2.934490 1_655
Eu1 O2 2.934490 1_556
Eu1 O4 2.934490 1_565
Eu1 O0 2.934490 1_556
Eu1 O1 2.934490 1_555
Eu1 O5 2.934490 1_555
Eu1 O3 2.934490 1_555
Lu0 O3 2.153485 1_555
Lu0 O0 2.153485 1_555
Lu0 O2 2.153485 1_555
Lu0 O1 2.153485 1_555
Lu0 O4 2.153485 1_555
Lu0 O5 2.153485 1_555
O0 Ta0 1.994997 1_655
O1 Ta0 1.994997 1_566
O2 Ta0 1.994997 1_565
O3 Ta0 1.994997 1_656
O4 Ta0 1.994997 1_556
O5 Ta0 1.994997 1_665
