# generated using pymatgen
data_Li2O
_symmetry_space_group_name_H-M   'P 1'
_cell_length_a   9.59822986
_cell_length_b   10.08017171
_cell_length_c   10.38069533
_cell_angle_alpha   88.35489624
_cell_angle_beta   91.68455038
_cell_angle_gamma   86.99374115
_symmetry_Int_Tables_number   1
_chemical_formula_structural   Li2O
_chemical_formula_sum   'Li68 O34'
_cell_volume   1002.07490754
_cell_formula_units_Z   34
loop_
 _symmetry_equiv_pos_site_id
 _symmetry_equiv_pos_as_xyz
  1  'x, y, z'
loop_
 _atom_site_type_symbol
 _atom_site_label
 _atom_site_symmetry_multiplicity
 _atom_site_fract_x
 _atom_site_fract_y
 _atom_site_fract_z
 _atom_site_occupancy
  Li  Li0  1  0.59273100  0.72558500  0.32875000  1
  Li  Li1  1  0.27368200  0.25075500  0.33860800  1
  Li  Li2  1  0.89773400  0.17038500  0.04598800  1
  Li  Li3  1  0.02541700  0.37496500  0.59328400  1
  Li  Li4  1  0.64646200  0.30562900  0.99417000  1
  Li  Li5  1  0.81239800  0.64752200  0.58199200  1
  Li  Li6  1  0.65617500  0.98677200  0.88274800  1
  Li  Li7  1  0.16768900  0.54382700  0.08125000  1
  Li  Li8  1  0.97677200  0.45461100  0.05329600  1
  Li  Li9  1  0.93447100  0.62469300  0.80107900  1
  Li  Li10  1  0.08746200  0.07864000  0.35463200  1
  Li  Li11  1  0.55797200  0.92557500  0.42161500  1
  Li  Li12  1  0.80879800  0.66050400  0.36532000  1
  Li  Li13  1  0.48079000  0.33576700  0.81304600  1
  Li  Li14  1  0.42740900  0.33602600  0.19980800  1
  Li  Li15  1  0.81312600  0.43584400  0.23024800  1
  Li  Li16  1  0.39262200  0.56615800  0.95127000  1
  Li  Li17  1  0.30770100  0.85035400  0.98277400  1
  Li  Li18  1  0.56636900  0.18133900  0.33067000  1
  Li  Li19  1  0.06633400  0.13201400  0.57907700  1
  Li  Li20  1  0.21081500  0.42510300  0.79865400  1
  Li  Li21  1  0.62514300  0.52108200  0.74289100  1
  Li  Li22  1  0.26979400  0.49722600  0.29409000  1
  Li  Li23  1  0.60227500  0.76754400  0.61894700  1
  Li  Li24  1  0.55975700  0.51698100  0.10444000  1
  Li  Li25  1  0.71491300  0.29014800  0.74164100  1
  Li  Li26  1  0.16385100  0.64076000  0.75868300  1
  Li  Li27  1  0.59907500  0.09303800  0.67165700  1
  Li  Li28  1  0.02945700  0.39913300  0.38037900  1
  Li  Li29  1  0.91343000  0.85910200  0.07669600  1
  Li  Li30  1  0.06364700  0.93690100  0.88785700  1
  Li  Li31  1  0.02386700  0.61145200  0.29973200  1
  Li  Li32  1  0.32060300  0.64565800  0.50823700  1
  Li  Li33  1  0.76585800  0.71394000  0.14595800  1
  Li  Li34  1  0.82506600  0.82722100  0.79728500  1
  Li  Li35  1  0.05372900  0.92176500  0.64444100  1
  Li  Li36  1  0.10844400  0.59152700  0.52069300  1
  Li  Li37  1  0.08790100  0.03957200  0.10763500  1
  Li  Li38  1  0.76161200  0.49493400  0.93439300  1
  Li  Li39  1  0.59321300  0.44400200  0.34622700  1
  Li  Li40  1  0.63113600  0.70226500  0.89584200  1
  Li  Li41  1  0.06764700  0.26318600  0.19832800  1
  Li  Li42  1  0.51104600  0.14420700  0.00200900  1
  Li  Li43  1  0.75293500  0.22107000  0.20304000  1
  Li  Li44  1  0.89791000  0.18360500  0.38455300  1
  Li  Li45  1  0.37182000  0.69376900  0.19839100  1
  Li  Li46  1  0.86587100  0.95438600  0.30200200  1
  Li  Li47  1  0.39921800  0.42521000  0.56057900  1
  Li  Li48  1  0.01611400  0.81399300  0.41665300  1
  Li  Li49  1  0.28129800  0.85272800  0.73680100  1
  Li  Li50  1  0.14688100  0.16465200  0.79331100  1
  Li  Li51  1  0.80448100  0.90295300  0.55578700  1
  Li  Li52  1  0.55691900  0.88766800  0.08679100  1
  Li  Li53  1  0.33393100  0.82494900  0.39360800  1
  Li  Li54  1  0.97044900  0.31431500  0.87542900  1
  Li  Li55  1  0.86839100  0.10865800  0.80897900  1
  Li  Li56  1  0.77716000  0.39501300  0.52981700  1
  Li  Li57  1  0.24977700  0.12109200  0.99216600  1
  Li  Li58  1  0.83507900  0.11574800  0.59213600  1
  Li  Li59  1  0.38203000  0.96966200  0.58363900  1
  Li  Li60  1  0.38919200  0.03423600  0.17356000  1
  Li  Li61  1  0.38837200  0.64555600  0.71486900  1
  Li  Li62  1  0.29908500  0.17741800  0.55225800  1
  Li  Li63  1  0.11150000  0.79058200  0.21270500  1
  Li  Li64  1  0.39224500  0.10178500  0.82155900  1
  Li  Li65  1  0.55942600  0.27719000  0.49915000  1
  Li  Li66  1  0.12095500  0.71987500  0.92990800  1
  Li  Li67  1  0.27111200  0.33363800  0.03560600  1
  O  O0  1  0.24288200  0.17788200  0.16944200  1
  O  O1  1  0.19558000  0.69385900  0.36698400  1
  O  O2  1  0.06097000  0.45590000  0.21425100  1
  O  O3  1  0.56729000  0.21510200  0.15007100  1
  O  O4  1  0.49127200  0.09503600  0.50340500  1
  O  O5  1  0.11704200  0.24172700  0.44699100  1
  O  O6  1  0.57182400  0.49464000  0.91728800  1
  O  O7  1  0.73489000  0.29122100  0.38113300  1
  O  O8  1  0.35598400  0.51598300  0.12438200  1
  O  O9  1  0.06811300  0.51741300  0.90813500  1
  O  O10  1  0.67533900  0.57941900  0.23999400  1
  O  O11  1  0.83251300  0.34813500  0.03583900  1
  O  O12  1  0.12000400  0.85542600  0.05102300  1
  O  O13  1  0.96095000  0.99328700  0.48271700  1
  O  O14  1  0.02864700  0.78808000  0.76520800  1
  O  O15  1  0.93737300  0.10967500  0.21876200  1
  O  O16  1  0.58808500  0.39203100  0.63175900  1
  O  O17  1  0.41613100  0.99363600  0.98276800  1
  O  O18  1  0.74314200  0.65737600  0.75052400  1
  O  O19  1  0.60586700  0.17797400  0.84636300  1
  O  O20  1  0.02770500  0.11613300  0.92816500  1
  O  O21  1  0.29546000  0.26759200  0.86687000  1
  O  O22  1  0.41136800  0.37446400  0.38260700  1
  O  O23  1  0.91492400  0.25723500  0.68848000  1
  O  O24  1  0.45888100  0.85468900  0.25813700  1
  O  O25  1  0.76243600  0.98814800  0.70908700  1
  O  O26  1  0.22564200  0.03891500  0.67658200  1
  O  O27  1  0.92019400  0.77624100  0.25366100  1
  O  O28  1  0.93405700  0.53036200  0.48297000  1
  O  O29  1  0.72797100  0.83014500  0.99639500  1
  O  O30  1  0.31383500  0.71278800  0.86276600  1
  O  O31  1  0.70586800  0.78214100  0.46864500  1
  O  O32  1  0.24989700  0.52570000  0.63811800  1
  O  O33  1  0.40397500  0.78733800  0.58172300  1
loop_
_geom_bond_atom_site_label_1
_geom_bond_atom_site_label_2
_geom_bond_distance
_geom_bond_site_symmetry_2
Li0 O24 1.896294 1_555
Li0 O31 1.906011 1_555
Li0 O10 1.909650 1_555
Li1 O5 1.908520 1_555
Li1 O22 1.918381 1_555
Li1 O0 1.943466 1_555
Li2 O20 1.846020 1_654
Li2 O11 1.865740 1_555
Li2 O15 1.899576 1_555
Li3 O23 1.906810 1_455
Li3 O28 2.056179 1_455
Li3 O5 2.226024 1_555
Li4 O11 1.898713 1_556
Li4 O3 2.022254 1_556
Li4 O19 2.071867 1_555
Li4 O6 2.125113 1_555
Li5 O18 1.893104 1_555
Li5 O28 1.952058 1_555
Li5 O31 1.990828 1_555
Li6 O19 1.985033 1_565
Li6 O29 2.022495 1_555
Li6 O25 2.097231 1_555
Li7 O8 1.854071 1_555
Li7 O2 1.961904 1_555
Li7 O9 2.041310 1_554
Li8 O11 1.803968 1_555
Li8 O2 1.835182 1_655
Li8 O9 1.876475 1_654
Li9 O18 1.904294 1_555
Li9 O9 1.936886 1_655
Li9 O14 1.951658 1_655
Li10 O5 1.955969 1_555
Li10 O15 1.992586 1_455
Li10 O13 2.030132 1_445
Li11 O31 2.011799 1_555
Li11 O4 2.012257 1_565
Li11 O24 2.083515 1_555
Li12 O31 1.908037 1_555
Li12 O27 1.993448 1_555
Li12 O10 2.018506 1_555
Li12 O28 2.077064 1_555
Li13 O19 1.958192 1_555
Li13 O21 2.028134 1_555
Li13 O6 2.165594 1_555
Li13 O16 2.244472 1_555
Li14 O3 1.860163 1_555
Li14 O22 1.956471 1_555
Li14 O8 2.032257 1_555
Li15 O10 1.915554 1_555
Li15 O11 2.235240 1_555
Li15 O7 2.279317 1_555
Li15 O2 2.408149 1_655
Li16 O30 1.834264 1_555
Li16 O6 1.876923 1_555
Li16 O8 1.900628 1_556
Li17 O17 1.823957 1_555
Li17 O30 1.890302 1_555
Li17 O12 1.953873 1_556
Li18 O3 1.896108 1_555
Li18 O7 2.070987 1_555
Li18 O4 2.131619 1_555
Li19 O5 1.829924 1_555
Li19 O26 1.986758 1_555
Li19 O13 2.036760 1_445
Li19 O23 2.232031 1_455
Li20 O21 1.857078 1_555
Li20 O32 1.981349 1_555
Li20 O9 2.012967 1_555
Li21 O16 1.805595 1_555
Li21 O18 1.827762 1_555
Li21 O6 1.910873 1_555
Li22 O8 1.976521 1_555
Li22 O22 1.976628 1_555
Li22 O2 2.210777 1_555
Li22 O1 2.231232 1_555
Li23 O31 1.880963 1_555
Li23 O33 1.929841 1_555
Li23 O18 2.138635 1_555
Li24 O10 1.907674 1_555
Li24 O6 1.968271 1_554
Li24 O8 1.973346 1_555
Li25 O16 1.886176 1_555
Li25 O19 1.917353 1_555
Li25 O23 2.026338 1_555
Li26 O32 1.907172 1_555
Li26 O14 1.924247 1_555
Li26 O30 1.957079 1_555
Li26 O9 2.211366 1_555
Li27 O25 1.869258 1_545
Li27 O4 2.002774 1_555
Li27 O19 2.028390 1_555
Li28 O2 1.839856 1_555
Li28 O5 1.861538 1_555
Li28 O28 1.932254 1_455
Li29 O29 1.982414 1_554
Li29 O27 1.993917 1_555
Li29 O12 2.006889 1_655
Li30 O20 1.882746 1_565
Li30 O12 1.911975 1_556
Li30 O14 2.030184 1_555
Li31 O2 1.847352 1_555
Li31 O27 1.931629 1_455
Li31 O1 2.000754 1_555
Li31 O28 2.260616 1_455
Li32 O33 1.846199 1_555
Li32 O1 1.902790 1_555
Li32 O32 1.945966 1_555
Li33 O10 1.908899 1_555
Li33 O29 1.931971 1_554
Li33 O27 1.969596 1_555
Li34 O25 1.900298 1_555
Li34 O18 1.987860 1_555
Li34 O14 2.012377 1_655
Li34 O29 2.292449 1_555
Li35 O14 1.843989 1_555
Li35 O13 1.976475 1_455
Li35 O26 2.103132 1_565
Li36 O28 1.848968 1_455
Li36 O32 1.879162 1_555
Li36 O1 2.093784 1_555
Li37 O12 1.974628 1_545
Li37 O15 1.988781 1_455
Li37 O20 2.051260 1_554
Li37 O0 2.186545 1_555
Li38 O6 1.825226 1_555
Li38 O11 1.877377 1_556
Li39 O10 1.943786 1_555
Li39 O22 1.957607 1_555
Li39 O7 2.017818 1_555
Li40 O18 1.928624 1_555
Li40 O29 1.939317 1_555
Li40 O6 2.204436 1_555
Li41 O0 1.884411 1_555
Li41 O2 1.952200 1_555
Li41 O15 2.050047 1_455
Li42 O3 1.794215 1_555
Li42 O17 1.823526 1_544
Li42 O19 1.908420 1_554
Li43 O3 1.853790 1_555
Li43 O7 2.007206 1_555
Li43 O15 2.045818 1_555
Li43 O11 2.299866 1_555
Li44 O7 1.855480 1_555
Li44 O15 1.934715 1_555
Li44 O13 2.194231 1_545
Li44 O5 2.293042 1_655
Li45 O24 1.970689 1_555
Li45 O8 1.981354 1_555
Li45 O1 2.469487 1_555
Li46 O27 1.928016 1_555
Li46 O15 1.933345 1_565
Li46 O13 2.117754 1_555
Li47 O32 1.921050 1_555
Li47 O22 1.936256 1_555
Li47 O16 1.946149 1_555
Li48 O27 1.958911 1_455
Li48 O13 2.002294 1_455
Li48 O1 2.137466 1_555
Li49 O30 1.902914 1_555
Li49 O26 2.001586 1_565
Li49 O33 2.122123 1_555
Li50 O20 1.902848 1_555
Li50 O26 1.920348 1_555
Li50 O21 1.957098 1_555
Li50 O23 2.567730 1_455
Li51 O31 1.825113 1_555
Li51 O25 1.874210 1_555
Li51 O13 1.957229 1_555
Li52 O17 1.956953 1_554
Li52 O29 1.983487 1_554
Li52 O24 2.063246 1_555
Li53 O24 1.902231 1_555
Li53 O1 1.941478 1_555
Li53 O33 2.064602 1_555
Li54 O20 2.096880 1_655
Li54 O23 2.101599 1_555
Li54 O11 2.180984 1_556
Li54 O9 2.325461 1_655
Li55 O25 1.930042 1_545
Li55 O20 1.944448 1_655
Li55 O23 2.000659 1_555
Li56 O7 1.934391 1_555
Li56 O16 2.128615 1_555
Li56 O28 2.141547 1_555
Li56 O23 2.436801 1_555
Li57 O0 1.944805 1_556
Li57 O17 2.002703 1_545
Li57 O21 2.013931 1_555
Li57 O20 2.217431 1_555
Li58 O25 1.915356 1_545
Li58 O23 1.942453 1_555
Li58 O13 2.068408 1_545
Li59 O33 1.839625 1_555
Li59 O4 1.876214 1_565
Li59 O26 1.919697 1_565
Li60 O0 1.962193 1_555
Li60 O17 2.054869 1_544
Li60 O24 2.059395 1_545
Li61 O30 1.844356 1_555
Li61 O33 1.973965 1_555
Li61 O32 2.005601 1_555
Li62 O26 2.040818 1_555
Li62 O4 2.065924 1_555
Li62 O5 2.096569 1_555
Li63 O12 1.789273 1_555
Li63 O27 1.908793 1_455
Li63 O1 1.979540 1_555
Li64 O21 1.945672 1_555
Li64 O17 1.971792 1_545
Li64 O19 2.237346 1_555
Li64 O26 2.289805 1_555
Li65 O16 1.847521 1_555
Li65 O4 1.980991 1_555
Li65 O22 2.032050 1_555
Li65 O7 2.119800 1_555
Li66 O12 1.883022 1_556
Li66 O14 1.990050 1_555
Li66 O30 1.995763 1_555
Li66 O9 2.145162 1_555
Li67 O21 1.908046 1_554
Li67 O0 2.100039 1_555
Li67 O8 2.258660 1_555
