# generated using pymatgen
data_Li3MnCo3O8
_symmetry_space_group_name_H-M   'P 1'
_cell_length_a   5.76447934
_cell_length_b   5.91546564
_cell_length_c   10.17031775
_cell_angle_alpha   106.08474291
_cell_angle_beta   91.65052866
_cell_angle_gamma   119.50597974
_symmetry_Int_Tables_number   1
_chemical_formula_structural   Li3MnCo3O8
_chemical_formula_sum   'Li6 Mn2 Co6 O16'
_cell_volume   284.28959546
_cell_formula_units_Z   2
loop_
 _symmetry_equiv_pos_site_id
 _symmetry_equiv_pos_as_xyz
  1  'x, y, z'
loop_
 _atom_site_type_symbol
 _atom_site_label
 _atom_site_symmetry_multiplicity
 _atom_site_fract_x
 _atom_site_fract_y
 _atom_site_fract_z
 _atom_site_occupancy
  Li  Li0  1  0.74839300  0.49535500  0.24537600  1
  Li  Li1  1  0.25071000  0.50381600  0.75382300  1
  Li  Li2  1  0.99579700  0.50197400  0.00002800  1
  Li  Li3  1  0.50560700  0.49901700  0.50070300  1
  Li  Li4  1  0.00305600  0.49652100  0.49613900  1
  Li  Li5  1  0.49702500  0.50287800  0.00392700  1
  Mn  Mn0  1  0.99540000  0.99720800  0.00036200  1
  Mn  Mn1  1  0.50599400  0.00424600  0.50038800  1
  Co  Co0  1  0.49736800  0.00081900  0.99771800  1
  Co  Co1  1  0.75059400  0.99982800  0.75054400  1
  Co  Co2  1  0.74228300  0.99608800  0.24483700  1
  Co  Co3  1  0.00361000  0.00074800  0.50145100  1
  Co  Co4  1  0.24973000  0.99978000  0.24875800  1
  Co  Co5  1  0.25306400  0.99982600  0.75434400  1
  O  O0  1  0.87798300  0.76852000  0.11616200  1
  O  O1  1  0.40657200  0.78226800  0.62674000  1
  O  O2  1  0.09452000  0.21801800  0.87335000  1
  O  O3  1  0.62138600  0.23124200  0.38527400  1
  O  O4  1  0.09234100  0.20398300  0.38050600  1
  O  O5  1  0.59650400  0.21056000  0.87276400  1
  O  O6  1  0.90737400  0.79406200  0.62318700  1
  O  O7  1  0.40288800  0.79036000  0.12305200  1
  O  O8  1  0.13752900  0.78374800  0.39402400  1
  O  O9  1  0.63158700  0.78732600  0.88430400  1
  O  O10  1  0.64650800  0.78508900  0.39267500  1
  O  O11  1  0.13334400  0.77964600  0.88665900  1
  O  O12  1  0.35867700  0.21655400  0.61006100  1
  O  O13  1  0.86097900  0.21808800  0.11129000  1
  O  O14  1  0.87042900  0.21468400  0.61488300  1
  O  O15  1  0.36274500  0.21774500  0.10666900  1
loop_
_geom_bond_atom_site_label_1
_geom_bond_atom_site_label_2
_geom_bond_distance
_geom_bond_site_symmetry_2
Li0 O15 2.137398 1_555
Li0 O13 2.197984 1_555
Li0 O8 2.198570 1_655
Li0 O0 2.222690 1_555
Li0 O10 2.268512 1_555
Li0 O3 2.272968 1_555
Li1 O9 2.089508 1_555
Li1 O14 2.125236 1_455
Li1 O2 2.202066 1_555
Li1 O11 2.205396 1_555
Li1 O1 2.231526 1_555
Li1 O12 2.264980 1_555
Li2 O0 2.100344 1_555
Li2 O11 2.115491 1_654
Li2 O13 2.126642 1_555
Li2 O2 2.142404 1_654
Li2 O5 2.151379 1_554
Li2 O7 2.165027 1_655
Li3 O3 2.094938 1_555
Li3 O12 2.106248 1_555
Li3 O10 2.111456 1_555
Li3 O1 2.137938 1_555
Li3 O6 2.146890 1_555
Li3 O4 2.184055 1_555
Li4 O3 2.012518 1_455
Li4 O8 2.071987 1_555
Li4 O4 2.104057 1_555
Li4 O14 2.176194 1_455
Li4 O1 2.176466 1_555
Li4 O6 2.192903 1_455
Li5 O0 2.014267 1_555
Li5 O15 2.067150 1_555
Li5 O7 2.111758 1_555
Li5 O2 2.172057 1_554
Li5 O9 2.194571 1_554
Li5 O5 2.200244 1_554
Mn0 O0 1.924067 1_555
Mn0 O15 1.928803 1_665
Mn0 O13 1.952243 1_565
Mn0 O9 1.952807 1_554
Mn0 O11 1.965255 1_654
Mn0 O2 1.985838 1_664
Mn1 O3 1.911108 1_555
Mn1 O8 1.933844 1_545
Mn1 O14 1.949030 1_555
Mn1 O10 1.958410 1_545
Mn1 O12 1.967602 1_555
Mn1 O1 1.984987 1_545
Co0 O5 1.923032 1_555
Co0 O15 1.928532 1_556
Co0 O7 1.929464 1_546
Co0 O9 1.931509 1_545
Co0 O11 1.931612 1_545
Co0 O13 1.940027 1_556
Co1 O2 1.897337 1_665
Co1 O1 1.902275 1_555
Co1 O9 2.013286 1_555
Co1 O14 2.039103 1_565
Co1 O5 2.045413 1_565
Co1 O6 2.062390 1_555
Co2 O7 1.876874 1_555
Co2 O4 1.985712 1_665
Co2 O13 2.047996 1_565
Co2 O0 2.063185 1_555
Co2 O3 2.090939 1_565
Co2 O10 2.128927 1_555
Co3 O4 1.862780 1_555
Co3 O6 1.883012 1_445
Co3 O12 1.885132 1_555
Co3 O10 1.894413 1_445
Co3 O8 1.919630 1_545
Co3 O14 1.928963 1_455
Co4 O0 2.050800 1_455
Co4 O7 2.052653 1_555
Co4 O3 2.068354 1_565
Co4 O4 2.080951 1_565
Co4 O15 2.105812 1_565
Co4 O8 2.126313 1_555
Co5 O5 1.877136 1_565
Co5 O6 1.946740 1_455
Co5 O11 2.030483 1_555
Co5 O2 2.079931 1_565
Co5 O1 2.094268 1_555
Co5 O12 2.119586 1_565
