# generated using pymatgen
data_Zn3Cu(WO4)4
_symmetry_space_group_name_H-M   'P 1'
_cell_length_a   5.82615400
_cell_length_b   6.76529900
_cell_length_c   7.02924194
_cell_angle_alpha   86.74158530
_cell_angle_beta   90.00000000
_cell_angle_gamma   90.00000000
_symmetry_Int_Tables_number   1
_chemical_formula_structural   Zn3Cu(WO4)4
_chemical_formula_sum   'Zn3 Cu1 W4 O16'
_cell_volume   276.61439023
_cell_formula_units_Z   1
loop_
 _symmetry_equiv_pos_site_id
 _symmetry_equiv_pos_as_xyz
  1  'x, y, z'
loop_
 _atom_site_type_symbol
 _atom_site_label
 _atom_site_symmetry_multiplicity
 _atom_site_fract_x
 _atom_site_fract_y
 _atom_site_fract_z
 _atom_site_occupancy
  Zn  Zn0  1  0.32616300  0.24807400  0.25191800  1
  Zn  Zn1  1  0.32616300  0.75192600  0.74808200  1
  Zn  Zn2  1  0.67241700  0.50000000  0.50000000  1
  Cu  Cu0  1  0.66459900  0.00000000  0.00000000  1
  W  W0  1  0.82767600  0.50000000  0.00000000  1
  W  W1  1  0.82500300  0.00000000  0.50000000  1
  W  W2  1  0.17412300  0.24760300  0.74929100  1
  W  W3  1  0.17412300  0.75239700  0.25070900  1
  O  O0  1  0.10777000  0.20062600  0.48326400  1
  O  O1  1  0.10660400  0.69852500  0.98368700  1
  O  O2  1  0.89310200  0.54637300  0.26353200  1
  O  O3  1  0.89718200  0.04850700  0.76103900  1
  O  O4  1  0.10660400  0.30147500  0.01631300  1
  O  O5  1  0.10777000  0.79937400  0.51673600  1
  O  O6  1  0.89310200  0.45362700  0.73646800  1
  O  O7  1  0.89718200  0.95149300  0.23896100  1
  O  O8  1  0.62546300  0.20631100  0.44573100  1
  O  O9  1  0.63062200  0.71200300  0.95015100  1
  O  O10  1  0.37478100  0.54216800  0.30097800  1
  O  O11  1  0.37618300  0.04160300  0.80357000  1
  O  O12  1  0.63062200  0.28799700  0.04984900  1
  O  O13  1  0.62546300  0.79368900  0.55426900  1
  O  O14  1  0.37478100  0.45783200  0.69902200  1
  O  O15  1  0.37618300  0.95839700  0.19643000  1
loop_
_geom_bond_atom_site_label_1
_geom_bond_atom_site_label_2
_geom_bond_distance
_geom_bond_site_symmetry_2
Cu0 O12 2.008926 1_555
Cu0 O9 2.008926 1_544
Cu0 O7 2.168564 1_545
Cu0 O3 2.168564 1_554
Cu0 O11 2.182915 1_554
Cu0 O15 2.182915 1_545
O0 W2 1.953149 1_555
O0 Zn0 2.075371 1_555
O0 W1 2.133544 1_455
O1 W3 1.971884 1_556
O1 W0 2.107222 1_456
O1 Zn1 2.107502 1_555
O2 W0 1.934241 1_555
O2 Zn2 2.110725 1_555
O2 W3 2.148771 1_655
O3 W1 1.928696 1_555
O3 W2 2.100433 1_655
O4 W2 1.971884 1_554
O4 W0 2.107222 1_455
O4 Zn0 2.107502 1_555
O5 W3 1.953149 1_555
O5 Zn1 2.075371 1_555
O5 W1 2.133544 1_465
O6 W0 1.934241 1_556
O6 Zn2 2.110725 1_555
O6 W2 2.148771 1_655
O7 W1 1.928696 1_565
O7 W3 2.100433 1_655
O8 W1 1.839742 1_555
O8 Zn2 2.062587 1_555
O8 Zn0 2.220995 1_555
O9 W0 1.854945 1_556
O9 Zn1 2.278883 1_555
O10 W3 1.859373 1_555
O10 Zn0 2.058106 1_555
O10 Zn2 2.236102 1_555
O11 W2 1.847503 1_555
O11 Zn1 2.040730 1_545
O12 W0 1.854945 1_555
O12 Zn0 2.278883 1_555
O13 W1 1.839742 1_565
O13 Zn2 2.062587 1_555
O13 Zn1 2.220995 1_555
O14 W2 1.859373 1_555
O14 Zn1 2.058106 1_555
O14 Zn2 2.236102 1_555
O15 W3 1.847503 1_555
O15 Zn0 2.040730 1_565
