# generated using pymatgen
data_Dy5SbPd2
_symmetry_space_group_name_H-M   'P 1'
_cell_length_a   8.71519854
_cell_length_b   8.71519854
_cell_length_c   8.71519854
_cell_angle_alpha   127.31313317
_cell_angle_beta   127.31313317
_cell_angle_gamma   77.74039795
_symmetry_Int_Tables_number   1
_chemical_formula_structural   Dy5SbPd2
_chemical_formula_sum   'Dy10 Sb2 Pd4'
_cell_volume   405.94512408
_cell_formula_units_Z   2
loop_
 _symmetry_equiv_pos_site_id
 _symmetry_equiv_pos_as_xyz
  1  'x, y, z'
loop_
 _atom_site_type_symbol
 _atom_site_label
 _atom_site_symmetry_multiplicity
 _atom_site_fract_x
 _atom_site_fract_y
 _atom_site_fract_z
 _atom_site_occupancy
  Dy  Dy0  1  -0.00000000  0.00000000  -0.00000000  1
  Dy  Dy1  1  0.50000000  0.50000000  -0.00000000  1
  Dy  Dy2  1  0.79777854  0.29777854  0.81138470  1
  Dy  Dy3  1  0.20222146  0.70222146  0.18861530  1
  Dy  Dy4  1  0.48639484  0.98639484  0.18861530  1
  Dy  Dy5  1  0.29777854  0.48639484  0.50000000  1
  Dy  Dy6  1  0.01360516  0.20222146  0.50000000  1
  Dy  Dy7  1  0.51360516  0.01360516  0.81138470  1
  Dy  Dy8  1  0.70222146  0.51360516  0.50000000  1
  Dy  Dy9  1  0.98639484  0.79777854  0.50000000  1
  Sb  Sb0  1  0.25000000  0.25000000  -0.00000000  1
  Sb  Sb1  1  0.75000000  0.75000000  -0.00000000  1
  Pd  Pd0  1  0.13624678  0.63624678  0.77249455  1
  Pd  Pd1  1  0.86375322  0.36375322  0.22750545  1
  Pd  Pd2  1  0.63624678  0.86375322  0.50000000  1
  Pd  Pd3  1  0.36375322  0.13624678  0.50000000  1
loop_
_geom_bond_atom_site_label_1
_geom_bond_atom_site_label_2
_geom_bond_distance
_geom_bond_site_symmetry_2
Dy0 Pd0 3.004424 1_544
Dy0 Pd1 3.004424 1_455
Dy0 Pd2 3.004426 1_444
Dy0 Pd3 3.004426 1_555
Dy0 Sb0 3.392695 1_555
Dy0 Sb1 3.392695 1_445
Dy1 Pd1 3.004424 1_555
Dy1 Pd0 3.004424 1_554
Dy1 Pd2 3.004426 1_555
Dy1 Pd3 3.004426 1_554
Dy1 Sb0 3.392695 1_555
Dy1 Sb1 3.392695 1_555
Dy2 Pd2 2.973140 1_545
Dy2 Pd3 2.973140 1_555
Dy2 Pd1 2.982896 1_556
Dy2 Sb0 3.269123 1_656
Dy2 Sb1 3.269123 1_556
Dy3 Pd2 2.973140 1_555
Dy3 Pd3 2.973140 1_565
Dy3 Pd0 2.982896 1_554
Dy3 Sb0 3.269123 1_555
Dy3 Sb1 3.269123 1_455
Dy4 Pd2 2.973149 1_555
Dy4 Pd3 2.973149 1_565
Dy4 Pd0 2.982913 1_554
Dy4 Sb1 3.269117 1_555
Dy4 Sb0 3.269117 1_565
Dy5 Pd1 2.973140 1_455
Dy5 Pd0 2.973149 1_555
Dy5 Pd3 2.982913 1_555
Dy5 Sb1 3.269121 1_556
Dy5 Sb0 3.269121 1_555
Dy6 Pd0 2.973140 1_555
Dy6 Pd1 2.973149 1_455
Dy6 Pd3 2.982913 1_555
Dy6 Sb1 3.269121 1_445
Dy6 Sb0 3.269121 1_556
Dy7 Pd2 2.973149 1_545
Dy7 Pd3 2.973149 1_555
Dy7 Pd1 2.982913 1_556
Dy7 Sb1 3.269117 1_546
Dy7 Sb0 3.269117 1_556
Dy8 Pd0 2.973140 1_655
Dy8 Pd1 2.973149 1_555
Dy8 Pd2 2.982913 1_555
Dy8 Sb0 3.269121 1_555
Dy8 Sb1 3.269121 1_556
Dy9 Pd1 2.973140 1_555
Dy9 Pd0 2.973149 1_655
Dy9 Pd2 2.982913 1_555
Dy9 Sb0 3.269121 1_666
Dy9 Sb1 3.269121 1_555
