# generated using pymatgen
data_Pr4Mg3Co2
_symmetry_space_group_name_H-M   'P 1'
_cell_length_a   3.75421002
_cell_length_b   7.87187383
_cell_length_c   8.57272434
_cell_angle_alpha   109.39415953
_cell_angle_beta   90.00000000
_cell_angle_gamma   90.00000000
_symmetry_Int_Tables_number   1
_chemical_formula_structural   Pr4Mg3Co2
_chemical_formula_sum   'Pr4 Mg3 Co2'
_cell_volume   238.97108776
_cell_formula_units_Z   1
loop_
 _symmetry_equiv_pos_site_id
 _symmetry_equiv_pos_as_xyz
  1  'x, y, z'
loop_
 _atom_site_type_symbol
 _atom_site_label
 _atom_site_symmetry_multiplicity
 _atom_site_fract_x
 _atom_site_fract_y
 _atom_site_fract_z
 _atom_site_occupancy
  Pr  Pr0  1  0.50000000  0.90722506  0.78025891  1
  Pr  Pr1  1  0.50000000  0.09277494  0.21974109  1
  Pr  Pr2  1  0.50000000  0.39237844  0.68400488  1
  Pr  Pr3  1  0.50000000  0.60762156  0.31599512  1
  Mg  Mg0  1  0.00000000  0.70126306  0.99788785  1
  Mg  Mg1  1  0.00000000  0.29873694  0.00211215  1
  Mg  Mg2  1  0.00000000  0.00000000  0.50000000  1
  Co  Co0  1  0.00000000  0.64545675  0.59849112  1
  Co  Co1  1  -0.00000000  0.35454325  0.40150888  1
loop_
_geom_bond_atom_site_label_1
_geom_bond_atom_site_label_2
_geom_bond_distance
_geom_bond_site_symmetry_2
Mg0 Mg1 3.180844 1_556
Mg0 Pr0 3.412004 1_555
Mg0 Pr0 3.412004 1_455
Mg0 Pr2 3.511560 1_455
Mg0 Pr2 3.511560 1_555
Mg0 Pr1 3.570184 1_566
Mg0 Pr1 3.570184 1_466
Mg0 Pr3 3.583114 1_556
Mg0 Pr3 3.583114 1_456
Mg1 Pr1 3.412004 1_455
Mg1 Pr1 3.412004 1_555
Mg1 Pr3 3.511560 1_455
Mg1 Pr3 3.511560 1_555
Mg1 Pr0 3.570184 1_444
Mg1 Pr0 3.570184 1_544
Mg1 Pr2 3.583114 1_454
Mg1 Pr2 3.583114 1_554
Mg2 Pr0 3.315809 1_545
Mg2 Pr1 3.315809 1_455
Mg2 Pr0 3.315809 1_445
Mg2 Pr1 3.315809 1_555
Mg2 Pr3 3.509468 1_545
Mg2 Pr2 3.509468 1_455
Mg2 Pr3 3.509468 1_445
Mg2 Pr2 3.509468 1_555
Co0 Co1 2.351086 1_555
Co0 Pr0 2.839943 1_455
Co0 Pr0 2.839943 1_555
Co0 Pr3 2.999688 1_455
Co0 Pr3 2.999688 1_555
Co0 Pr2 2.999955 1_455
Co0 Pr2 2.999955 1_555
Co0 Mg2 3.172877 1_565
Co0 Mg0 3.304128 1_555
Co1 Pr1 2.839943 1_555
Co1 Pr1 2.839943 1_455
Co1 Pr2 2.999688 1_555
Co1 Pr2 2.999688 1_455
Co1 Pr3 2.999955 1_455
Co1 Pr3 2.999955 1_555
Co1 Mg2 3.172877 1_555
Co1 Mg1 3.304128 1_555
