# generated using pymatgen
data_Al2O3
_symmetry_space_group_name_H-M   'P 1'
_cell_length_a   9.88322072
_cell_length_b   9.97501478
_cell_length_c   11.32433137
_cell_angle_alpha   91.24755559
_cell_angle_beta   94.38257828
_cell_angle_gamma   86.93746292
_symmetry_Int_Tables_number   1
_chemical_formula_structural   Al2O3
_chemical_formula_sum   'Al40 O60'
_cell_volume   1111.38271313
_cell_formula_units_Z   20
loop_
 _symmetry_equiv_pos_site_id
 _symmetry_equiv_pos_as_xyz
  1  'x, y, z'
loop_
 _atom_site_type_symbol
 _atom_site_label
 _atom_site_symmetry_multiplicity
 _atom_site_fract_x
 _atom_site_fract_y
 _atom_site_fract_z
 _atom_site_occupancy
  Al  Al0  1  0.27381900  0.62085100  0.34115900  1
  Al  Al1  1  0.61036400  0.96141700  0.96096400  1
  Al  Al2  1  0.93220400  0.68083700  0.67225100  1
  Al  Al3  1  0.17102100  0.36912000  0.92269300  1
  Al  Al4  1  0.31887800  0.93317000  0.91645100  1
  Al  Al5  1  0.84678100  0.17290200  0.61370800  1
  Al  Al6  1  0.28190100  0.24973500  0.64191400  1
  Al  Al7  1  0.85709900  0.03986800  0.08060000  1
  Al  Al8  1  0.32082000  0.88739900  0.20535000  1
  Al  Al9  1  0.01285900  0.41495600  0.55693900  1
  Al  Al10  1  0.88972400  0.53367400  0.02719100  1
  Al  Al11  1  0.67099300  0.29402800  0.96250700  1
  Al  Al12  1  0.76882800  0.30999400  0.38742400  1
  Al  Al13  1  0.48618300  0.80333200  0.65312100  1
  Al  Al14  1  0.03946100  0.92404500  0.76041000  1
  Al  Al15  1  0.91581000  0.30956200  0.15329800  1
  Al  Al16  1  0.87867600  0.40976500  0.78529800  1
  Al  Al17  1  0.97835900  0.10391400  0.33990200  1
  Al  Al18  1  0.54597000  0.00110600  0.30413800  1
  Al  Al19  1  0.39796700  0.18470000  0.06085600  1
  Al  Al20  1  0.49681500  0.27247800  0.28913400  1
  Al  Al21  1  0.86880400  0.79796700  0.93921200  1
  Al  Al22  1  0.71436100  0.80015800  0.47658400  1
  Al  Al23  1  0.02716600  0.81097600  0.46068600  1
  Al  Al24  1  0.21681500  0.69631200  0.60888700  1
  Al  Al25  1  0.27559200  0.96829300  0.48253500  1
  Al  Al26  1  0.72111200  0.98479600  0.70516800  1
  Al  Al27  1  0.41559900  0.45284400  0.07438100  1
  Al  Al28  1  0.60017100  0.57326900  0.28508000  1
  Al  Al29  1  0.66590600  0.56343900  0.80526500  1
  Al  Al30  1  0.17534900  0.67413300  0.04973600  1
  Al  Al31  1  0.57428400  0.53826700  0.51594600  1
  Al  Al32  1  0.39884900  0.69943900  0.86181100  1
  Al  Al33  1  0.21659000  0.31466700  0.37827500  1
  Al  Al34  1  0.10650500  0.07175900  0.00228200  1
  Al  Al35  1  0.99143300  0.54511100  0.31666700  1
  Al  Al36  1  0.38835700  0.45234100  0.75854600  1
  Al  Al37  1  0.81799000  0.82521900  0.23858000  1
  Al  Al38  1  0.58589100  0.73857100  0.10484600  1
  Al  Al39  1  0.54126000  0.23933000  0.53424600  1
  O  O0  1  0.49837800  0.85809800  0.19587900  1
  O  O1  1  0.21996000  0.21941000  0.99700200  1
  O  O2  1  0.87896800  0.78249300  0.54461000  1
  O  O3  1  0.56115500  0.62662500  0.65891400  1
  O  O4  1  0.99565100  0.42706700  0.90966100  1
  O  O5  1  0.93941200  0.31368800  0.66762100  1
  O  O6  1  0.32656100  0.09204400  0.58775300  1
  O  O7  1  0.71301300  0.37604600  0.82610100  1
  O  O8  1  0.91199400  0.97768000  0.22906000  1
  O  O9  1  0.49749700  0.58830500  0.14004200  1
  O  O10  1  0.44675700  0.05130300  0.95302400  1
  O  O11  1  0.09249300  0.96911700  0.42894400  1
  O  O12  1  0.67116300  0.14502800  0.64104000  1
  O  O13  1  0.65938300  0.37465400  0.51917700  1
  O  O14  1  0.62997900  0.87753900  0.59882600  1
  O  O15  1  0.49937900  0.54108800  0.86609600  1
  O  O16  1  0.99511700  0.68250300  0.03335000  1
  O  O17  1  0.70829900  0.11976300  0.99579100  1
  O  O18  1  0.81707500  0.56198400  0.71515800  1
  O  O19  1  0.37105300  0.33843100  0.17786800  1
  O  O20  1  0.78389300  0.38875100  0.05223200  1
  O  O21  1  0.89792600  0.02946500  0.70023600  1
  O  O22  1  0.24362900  0.72203200  0.20428100  1
  O  O23  1  0.49469100  0.31890500  0.98893500  1
  O  O24  1  0.70614000  0.90751800  0.83913200  1
  O  O25  1  0.40211800  0.85335000  0.77958100  1
  O  O26  1  0.67438600  0.63777900  0.43237400  1
  O  O27  1  0.16947900  0.48173200  0.32907900  1
  O  O28  1  0.16498100  0.32389400  0.53274200  1
  O  O29  1  0.25949700  0.76099600  0.94343700  1
  O  O30  1  0.50365600  0.12332600  0.18956000  1
  O  O31  1  0.25051300  0.50767400  0.00391500  1
  O  O32  1  0.91137700  0.44329400  0.42047700  1
  O  O33  1  0.06133100  0.56884900  0.62442100  1
  O  O34  1  0.95174600  0.78106300  0.80095600  1
  O  O35  1  0.16886200  0.68930400  0.45221800  1
  O  O36  1  0.84090900  0.22677000  0.26153400  1
  O  O37  1  0.44360000  0.57499500  0.38927900  1
  O  O38  1  0.24606300  0.97667700  0.08163200  1
  O  O39  1  0.76618900  0.63762300  0.93245200  1
  O  O40  1  0.94950600  0.72492200  0.32530600  1
  O  O41  1  0.11042600  0.20475700  0.30356800  1
  O  O42  1  0.16032100  0.01118300  0.85198600  1
  O  O43  1  0.44154700  0.33598800  0.64850400  1
  O  O44  1  0.88257300  0.17407300  0.46736800  1
  O  O45  1  0.36373900  0.96784200  0.34831400  1
  O  O46  1  0.70289800  0.89962600  0.35034700  1
  O  O47  1  0.63098700  0.39501000  0.29153400  1
  O  O48  1  0.30748500  0.61165000  0.72687000  1
  O  O49  1  0.34990000  0.81161700  0.54835300  1
  O  O50  1  0.10597600  0.83540500  0.63730600  1
  O  O51  1  0.96217500  0.95009700  0.97879000  1
  O  O52  1  0.97006500  0.47706800  0.17142600  1
  O  O53  1  0.52041300  0.79244900  0.96590600  1
  O  O54  1  0.24967600  0.34413500  0.78304200  1
  O  O55  1  0.97650900  0.17434800  0.06749400  1
  O  O56  1  0.72120200  0.67163100  0.20465300  1
  O  O57  1  0.59925300  0.15140100  0.39852600  1
  O  O58  1  0.39337400  0.29283300  0.41558800  1
  O  O59  1  0.74458200  0.87532100  0.07424400  1
loop_
_geom_bond_atom_site_label_1
_geom_bond_atom_site_label_2
_geom_bond_distance
_geom_bond_site_symmetry_2
Al0 O37 1.763773 1_555
Al0 O27 1.769449 1_555
Al0 O35 1.791731 1_555
Al0 O22 1.864296 1_555
Al1 O24 1.789261 1_555
Al1 O10 1.803594 1_565
Al1 O17 1.914451 1_565
Al1 O53 1.950910 1_555
Al1 O59 1.951660 1_556
Al2 O34 1.753646 1_555
Al2 O33 1.759795 1_655
Al2 O18 1.786074 1_555
Al2 O2 1.812449 1_555
Al2 O50 2.428320 1_655
Al3 O1 1.757135 1_555
Al3 O4 1.793744 1_455
Al3 O54 1.821381 1_555
Al3 O31 1.823074 1_556
Al4 O10 1.793133 1_565
Al4 O42 1.820373 1_565
Al4 O29 1.882915 1_555
Al4 O25 1.945321 1_555
Al4 O38 2.083808 1_556
Al4 O53 2.411708 1_555
Al5 O44 1.721182 1_555
Al5 O21 1.780696 1_555
Al5 O5 1.788202 1_555
Al5 O12 1.822932 1_555
Al6 O6 1.723490 1_555
Al6 O28 1.772311 1_555
Al6 O43 1.832916 1_555
Al6 O54 1.876837 1_555
Al7 O51 1.802286 1_544
Al7 O8 1.837300 1_545
Al7 O17 1.847291 1_554
Al7 O55 1.849014 1_555
Al7 O59 2.028177 1_545
Al8 O38 1.768517 1_555
Al8 O0 1.774544 1_555
Al8 O45 1.822010 1_555
Al8 O22 1.853461 1_555
Al9 O28 1.751215 1_555
Al9 O33 1.772432 1_555
Al9 O32 1.796045 1_455
Al9 O5 1.841431 1_455
Al10 O52 1.846951 1_555
Al10 O39 1.851972 1_554
Al10 O16 1.855644 1_555
Al10 O20 1.867875 1_555
Al10 O4 2.007641 1_554
Al11 O20 1.751512 1_556
Al11 O23 1.793733 1_555
Al11 O17 1.799581 1_555
Al11 O7 1.848595 1_555
Al12 O36 1.808190 1_555
Al12 O47 1.856013 1_555
Al12 O44 1.912230 1_555
Al12 O13 1.985528 1_555
Al12 O32 1.997714 1_555
Al12 O57 2.377264 1_555
Al13 O49 1.725331 1_555
Al13 O25 1.759684 1_555
Al13 O14 1.792053 1_555
Al13 O3 1.875723 1_555
Al14 O42 1.772041 1_565
Al14 O50 1.783717 1_555
Al14 O34 1.793878 1_455
Al14 O21 1.804214 1_465
Al15 O36 1.726393 1_555
Al15 O55 1.751785 1_555
Al15 O52 1.784787 1_555
Al15 O20 1.826179 1_555
Al16 O5 1.749235 1_555
Al16 O4 1.763978 1_555
Al16 O18 1.785185 1_555
Al16 O7 1.785656 1_555
Al17 O41 1.767829 1_655
Al17 O8 1.866791 1_545
Al17 O44 1.887757 1_555
Al17 O36 1.954489 1_555
Al17 O11 1.954548 1_645
Al18 O30 1.810038 1_555
Al18 O46 1.853440 1_545
Al18 O57 1.896302 1_555
Al18 O0 1.914825 1_545
Al18 O45 1.952652 1_545
Al19 O30 1.824280 1_555
Al19 O10 1.856055 1_554
Al19 O1 1.867946 1_554
Al19 O23 1.916374 1_554
Al19 O19 2.024828 1_555
Al20 O19 1.809612 1_555
Al20 O58 1.823714 1_555
Al20 O30 1.848636 1_555
Al20 O47 1.849134 1_555
Al20 O57 1.939345 1_555
Al21 O34 1.822515 1_555
Al21 O51 1.847175 1_555
Al21 O16 1.928183 1_556
Al21 O39 1.936158 1_555
Al21 O59 2.138988 1_556
Al21 O24 2.156590 1_555
Al22 O26 1.741583 1_555
Al22 O2 1.747817 1_555
Al22 O46 1.750971 1_555
Al22 O14 1.807964 1_555
Al23 O11 1.789811 1_555
Al23 O35 1.810308 1_555
Al23 O2 1.843417 1_455
Al23 O40 1.873380 1_455
Al23 O50 2.104148 1_555
Al24 O48 1.756872 1_555
Al24 O50 1.760863 1_555
Al24 O35 1.801892 1_555
Al24 O49 1.963830 1_555
Al24 O33 2.066091 1_555
Al25 O6 1.762933 1_565
Al25 O45 1.808566 1_555
Al25 O49 1.838966 1_555
Al25 O11 1.863824 1_555
Al26 O24 1.736367 1_555
Al26 O12 1.799204 1_565
Al26 O14 1.813069 1_555
Al26 O21 1.831552 1_565
Al27 O9 1.736372 1_555
Al27 O19 1.749431 1_555
Al27 O23 1.811088 1_554
Al27 O31 1.822810 1_555
Al28 O47 1.790044 1_555
Al28 O9 1.868054 1_555
Al28 O26 1.884418 1_555
Al28 O56 1.885169 1_555
Al28 O37 2.015568 1_555
Al29 O39 1.848829 1_555
Al29 O15 1.857997 1_555
Al29 O18 1.871793 1_555
Al29 O7 1.917275 1_555
Al29 O3 1.982252 1_555
Al30 O16 1.774430 1_455
Al30 O29 1.779569 1_554
Al30 O31 1.862182 1_555
Al30 O22 1.887892 1_555
Al31 O26 1.774457 1_555
Al31 O13 1.795410 1_555
Al31 O3 1.836470 1_555
Al31 O37 1.883914 1_555
Al32 O29 1.791026 1_555
Al32 O25 1.815865 1_555
Al32 O15 1.820105 1_555
Al32 O53 1.883839 1_555
Al32 O48 1.932014 1_555
Al33 O41 1.722061 1_555
Al33 O58 1.768951 1_555
Al33 O27 1.795043 1_555
Al33 O28 1.858169 1_555
Al34 O55 1.792994 1_455
Al34 O38 1.821355 1_545
Al34 O42 1.898432 1_554
Al34 O1 1.902797 1_554
Al34 O51 1.921253 1_444
Al35 O52 1.767518 1_555
Al35 O40 1.821395 1_555
Al35 O32 1.821951 1_555
Al35 O27 1.833868 1_655
Al36 O48 1.771460 1_555
Al36 O43 1.774327 1_555
Al36 O15 1.823074 1_555
Al36 O54 1.830237 1_555
Al37 O8 1.833312 1_555
Al37 O40 1.834039 1_555
Al37 O56 1.866708 1_555
Al37 O46 1.880323 1_555
Al37 O59 2.008691 1_555
Al38 O53 1.739902 1_554
Al38 O0 1.790223 1_555
Al38 O56 1.793923 1_555
Al38 O9 1.840634 1_555
Al38 O59 2.184692 1_555
Al39 O13 1.850137 1_555
Al39 O57 1.866064 1_555
Al39 O43 1.901049 1_555
Al39 O12 1.918051 1_555
Al39 O58 1.968346 1_555
