# generated using pymatgen
data_K2ZnI4
_symmetry_space_group_name_H-M   'P 1'
_cell_length_a   7.83996601
_cell_length_b   8.21811606
_cell_length_c   9.68425426
_cell_angle_alpha   90.00000000
_cell_angle_beta   108.29502806
_cell_angle_gamma   90.00000000
_symmetry_Int_Tables_number   1
_chemical_formula_structural   K2ZnI4
_chemical_formula_sum   'K4 Zn2 I8'
_cell_volume   592.41490514
_cell_formula_units_Z   2
loop_
 _symmetry_equiv_pos_site_id
 _symmetry_equiv_pos_as_xyz
  1  'x, y, z'
loop_
 _atom_site_type_symbol
 _atom_site_label
 _atom_site_symmetry_multiplicity
 _atom_site_fract_x
 _atom_site_fract_y
 _atom_site_fract_z
 _atom_site_occupancy
  K  K0  1  0.21581811  0.25000000  0.55179328  1
  K  K1  1  0.78418189  0.75000000  0.44820672  1
  K  K2  1  0.26096362  0.25000000  0.06677833  1
  K  K3  1  0.73903638  0.75000000  0.93322167  1
  Zn  Zn0  1  0.77856349  0.25000000  0.70012634  1
  Zn  Zn1  1  0.22143651  0.75000000  0.29987366  1
  I  I0  1  0.59772610  0.25000000  0.42333696  1
  I  I1  1  0.40227390  0.75000000  0.57666304  1
  I  I2  1  0.00293395  0.00077738  0.24005601  1
  I  I3  1  0.99706605  -0.00077738  0.75994399  1
  I  I4  1  0.99706605  0.50077738  0.75994399  1
  I  I5  1  0.00293395  0.49922262  0.24005601  1
  I  I6  1  0.58041823  0.25000000  0.87257539  1
  I  I7  1  0.41958177  0.75000000  0.12742461  1
loop_
_geom_bond_atom_site_label_1
_geom_bond_atom_site_label_2
_geom_bond_distance
_geom_bond_site_symmetry_2
I0 Zn0 2.609446 1_555
I0 K0 3.584817 1_555
I0 K2 3.629093 1_555
I1 Zn1 2.609446 1_555
I1 K1 3.584817 1_555
I1 K3 3.629093 1_555
I2 Zn1 2.625736 1_545
I2 K0 3.595987 1_555
I2 K2 3.637898 1_555
I2 K1 3.663667 1_445
I2 K3 3.673935 1_444
I3 Zn0 2.625736 1_555
I3 K1 3.595987 1_545
I3 K3 3.637898 1_545
I3 K0 3.663667 1_655
I3 K2 3.673935 1_656
I4 Zn0 2.625736 1_555
I4 K1 3.595987 1_555
I4 K3 3.637898 1_555
I4 K0 3.663667 1_655
I4 K2 3.673935 1_656
I5 Zn1 2.625736 1_555
I5 K0 3.595987 1_555
I5 K2 3.637898 1_555
I5 K1 3.663667 1_455
I5 K3 3.673935 1_454
I6 Zn0 2.613622 1_555
I6 K0 3.499478 1_555
I6 K2 3.573074 1_556
I7 Zn1 2.613622 1_555
I7 K1 3.499478 1_555
I7 K3 3.573074 1_554
