# generated using pymatgen
data_Re4Pb4O13
_symmetry_space_group_name_H-M   'P 1'
_cell_length_a   7.45085062
_cell_length_b   7.45085062
_cell_length_c   7.45085062
_cell_angle_alpha   60.00000000
_cell_angle_beta   60.00000000
_cell_angle_gamma   60.00000000
_symmetry_Int_Tables_number   1
_chemical_formula_structural   Re4Pb4O13
_chemical_formula_sum   'Re4 Pb4 O13'
_cell_volume   292.48430861
_cell_formula_units_Z   1
loop_
 _symmetry_equiv_pos_site_id
 _symmetry_equiv_pos_as_xyz
  1  'x, y, z'
loop_
 _atom_site_type_symbol
 _atom_site_label
 _atom_site_symmetry_multiplicity
 _atom_site_fract_x
 _atom_site_fract_y
 _atom_site_fract_z
 _atom_site_occupancy
  Re  Re0  1  0.12491300  0.62502900  0.62502900  1
  Re  Re1  1  0.62502900  0.12491300  0.62502900  1
  Re  Re2  1  0.62502900  0.62502900  0.12491300  1
  Re  Re3  1  0.62502900  0.62502900  0.62502900  1
  Pb  Pb0  1  0.61807700  0.12730800  0.12730800  1
  Pb  Pb1  1  0.12730800  0.61807700  0.12730800  1
  Pb  Pb2  1  0.12730800  0.12730800  0.61807700  1
  Pb  Pb3  1  0.12730800  0.12730800  0.12730800  1
  O  O0  1  0.30469900  0.30469900  0.69530100  1
  O  O1  1  0.69530100  0.69530100  0.30469900  1
  O  O2  1  0.30469900  0.69530100  0.30469900  1
  O  O3  1  0.69530100  0.30469900  0.69530100  1
  O  O4  1  0.69530100  0.30469900  0.30469900  1
  O  O5  1  0.30469900  0.69530100  0.69530100  1
  O  O6  1  0.94188700  0.94188700  0.55811300  1
  O  O7  1  0.55811300  0.55811300  0.94188700  1
  O  O8  1  0.94188700  0.55811300  0.94188700  1
  O  O9  1  0.55811300  0.94188700  0.55811300  1
  O  O10  1  0.55811300  0.94188700  0.94188700  1
  O  O11  1  0.94188700  0.55811300  0.55811300  1
  O  O12  1  0.00000000  0.00000000  0.00000000  1
loop_
_geom_bond_atom_site_label_1
_geom_bond_atom_site_label_2
_geom_bond_distance
_geom_bond_site_symmetry_2
O0 Re0 2.004892 1_555
O0 Re1 2.004892 1_555
O0 Pb2 2.663238 1_555
O0 Pb3 2.663243 1_556
O1 Re3 2.004892 1_555
O1 Re2 2.004892 1_555
O1 Pb1 2.663244 1_655
O1 Pb0 2.663244 1_565
O2 Re0 2.004892 1_555
O2 Re2 2.004892 1_555
O2 Pb1 2.663238 1_555
O2 Pb3 2.663243 1_565
O3 Re3 2.004892 1_555
O3 Re1 2.004892 1_555
O3 Pb0 2.663244 1_556
O3 Pb2 2.663244 1_655
O4 Re2 2.004892 1_555
O4 Re1 2.004892 1_555
O4 Pb0 2.663238 1_555
O4 Pb3 2.663243 1_655
O5 Re3 2.004892 1_555
O5 Re0 2.004892 1_555
O5 Pb1 2.663244 1_556
O5 Pb2 2.663244 1_565
O6 Re0 1.991295 1_655
O6 Re1 1.991295 1_565
O6 Pb3 2.675833 1_665
O6 Pb2 2.675838 1_665
O7 Re2 1.991295 1_556
O7 Re3 1.991295 1_555
O7 Pb1 2.675831 1_556
O7 Pb0 2.675831 1_556
O8 Re0 1.991295 1_655
O8 Re2 1.991295 1_556
O8 Pb3 2.675833 1_656
O8 Pb1 2.675838 1_656
O9 Re1 1.991295 1_565
O9 Re3 1.991295 1_555
O9 Pb2 2.675831 1_565
O9 Pb0 2.675831 1_565
O10 Re1 1.991295 1_565
O10 Re2 1.991295 1_556
O10 Pb3 2.675833 1_566
O10 Pb0 2.675838 1_566
O11 Re0 1.991295 1_655
O11 Re3 1.991295 1_555
O11 Pb2 2.675831 1_655
O11 Pb1 2.675831 1_655
O12 Pb1 2.323464 1_545
O12 Pb0 2.323464 1_455
O12 Pb2 2.323464 1_554
O12 Pb3 2.323471 1_555
