# generated using pymatgen
data_Mg14CdGa
_symmetry_space_group_name_H-M   'P 1'
_cell_length_a   6.29401974
_cell_length_b   6.35791000
_cell_length_c   10.37648314
_cell_angle_alpha   90.00000000
_cell_angle_beta   90.00000000
_cell_angle_gamma   120.33636785
_symmetry_Int_Tables_number   1
_chemical_formula_structural   Mg14CdGa
_chemical_formula_sum   'Mg14 Cd1 Ga1'
_cell_volume   358.37793729
_cell_formula_units_Z   1
loop_
 _symmetry_equiv_pos_site_id
 _symmetry_equiv_pos_as_xyz
  1  'x, y, z'
loop_
 _atom_site_type_symbol
 _atom_site_label
 _atom_site_symmetry_multiplicity
 _atom_site_fract_x
 _atom_site_fract_y
 _atom_site_fract_z
 _atom_site_occupancy
  Mg  Mg0  1  0.16752675  0.33376288  0.62500000  1
  Mg  Mg1  1  0.16700282  0.83350091  0.62500000  1
  Mg  Mg2  1  0.66713189  0.33395736  0.12500000  1
  Mg  Mg3  1  0.66620093  0.33327031  0.62500000  1
  Mg  Mg4  1  0.66713189  0.83317353  0.12500000  1
  Mg  Mg5  1  0.66620093  0.83292962  0.62500000  1
  Mg  Mg6  1  0.33151749  0.16476729  0.37327546  1
  Mg  Mg7  1  0.33151749  0.16476729  0.87672454  1
  Mg  Mg8  1  0.33151749  0.66675121  0.37327546  1
  Mg  Mg9  1  0.33151749  0.66675121  0.87672454  1
  Mg  Mg10  1  0.83431407  0.16715754  0.37529959  1
  Mg  Mg11  1  0.83431407  0.16715754  0.87470041  1
  Mg  Mg12  1  0.83575173  0.66787637  0.37453781  1
  Mg  Mg13  1  0.83575173  0.66787637  0.87546219  1
  Cd  Cd0  1  0.16679523  0.33339711  0.12500000  1
  Ga  Ga0  1  0.16580797  0.83290348  0.12500000  1
loop_
_geom_bond_atom_site_label_1
_geom_bond_atom_site_label_2
_geom_bond_distance
_geom_bond_site_symmetry_2
Mg0 Mg5 3.140248 1_555
Mg0 Mg3 3.140248 1_555
Mg0 Mg5 3.153774 1_445
Mg0 Mg3 3.153774 1_455
Mg0 Mg10 3.160655 1_455
Mg0 Mg11 3.160655 1_455
Mg0 Mg1 3.178956 1_555
Mg0 Mg1 3.178956 1_545
Mg0 Mg6 3.187901 1_555
Mg0 Mg7 3.187901 1_555
Mg0 Mg8 3.187908 1_555
Mg0 Mg9 3.187908 1_555
Mg1 Mg3 3.143799 1_565
Mg1 Mg5 3.143799 1_555
Mg1 Mg3 3.150224 1_455
Mg1 Mg5 3.150224 1_455
Mg1 Mg12 3.161060 1_455
Mg1 Mg13 3.161060 1_455
Mg1 Mg9 3.182404 1_555
Mg1 Mg8 3.182404 1_555
Mg1 Mg6 3.182410 1_565
Mg1 Mg7 3.182410 1_565
Mg2 Mg6 3.156076 1_555
Mg2 Mg7 3.156076 1_554
Mg2 Mg4 3.173971 1_555
Mg2 Mg4 3.183939 1_545
Mg3 Mg5 3.176789 1_555
Mg3 Mg5 3.181121 1_545
Mg3 Mg6 3.182462 1_555
Mg3 Mg7 3.182462 1_555
Mg4 Mg8 3.156076 1_555
Mg4 Mg9 3.156076 1_554
Mg5 Mg8 3.182462 1_555
Mg5 Mg9 3.182462 1_555
Mg6 Mg8 3.166341 1_545
Mg6 Mg8 3.191569 1_555
Mg7 Mg9 3.166341 1_545
Mg7 Mg9 3.191569 1_555
Mg10 Mg8 3.137181 1_655
Mg10 Mg6 3.137181 1_655
Mg10 Mg8 3.157033 1_545
Mg10 Mg6 3.157033 1_555
Mg10 Mg3 3.174459 1_555
Mg10 Mg5 3.174465 1_545
Mg10 Mg2 3.178792 1_555
Mg10 Mg4 3.178798 1_545
Mg10 Mg12 3.178974 1_555
Mg10 Mg12 3.178974 1_545
Mg11 Mg9 3.137181 1_655
Mg11 Mg7 3.137181 1_655
Mg11 Mg9 3.157033 1_545
Mg11 Mg7 3.157033 1_555
Mg11 Mg3 3.174459 1_555
Mg11 Mg5 3.174465 1_545
Mg11 Mg2 3.178792 1_556
Mg11 Mg4 3.178798 1_546
Mg11 Mg13 3.178974 1_555
Mg11 Mg13 3.178974 1_545
Mg12 Mg6 3.124006 1_665
Mg12 Mg8 3.124006 1_655
Mg12 Mg6 3.170080 1_555
Mg12 Mg8 3.170080 1_555
Mg12 Mg4 3.172085 1_555
Mg12 Mg2 3.172091 1_555
Mg12 Mg5 3.182083 1_555
Mg12 Mg3 3.182089 1_555
Mg13 Mg7 3.124006 1_665
Mg13 Mg9 3.124006 1_655
Mg13 Mg7 3.170080 1_555
Mg13 Mg9 3.170080 1_555
Mg13 Mg4 3.172085 1_556
Mg13 Mg2 3.172091 1_556
Mg13 Mg5 3.182083 1_555
Mg13 Mg3 3.182089 1_555
Cd0 Mg4 3.146691 1_445
Cd0 Mg2 3.146692 1_455
Cd0 Mg4 3.147331 1_555
Cd0 Mg2 3.147331 1_555
Cd0 Mg7 3.159767 1_554
Cd0 Mg6 3.159767 1_555
Cd0 Mg8 3.159773 1_555
Cd0 Mg9 3.159773 1_554
Cd0 Mg11 3.163483 1_454
Cd0 Mg10 3.163483 1_455
Cd0 Ga0 3.178960 1_545
Cd0 Ga0 3.178960 1_555
Ga0 Mg2 3.139544 1_455
Ga0 Mg4 3.139545 1_455
Ga0 Mg13 3.149479 1_454
Ga0 Mg12 3.149479 1_455
Ga0 Mg2 3.154476 1_565
Ga0 Mg4 3.154476 1_555
Ga0 Mg9 3.154941 1_554
Ga0 Mg8 3.154941 1_555
Ga0 Mg7 3.154948 1_564
Ga0 Mg6 3.154948 1_565
