# generated using pymatgen
data_Mo3P3O13
_symmetry_space_group_name_H-M   'P 1'
_cell_length_a   6.59412700
_cell_length_b   7.67918900
_cell_length_c   10.99056031
_cell_angle_alpha   81.03796080
_cell_angle_beta   90.00000000
_cell_angle_gamma   90.00000000
_symmetry_Int_Tables_number   1
_chemical_formula_structural   Mo3P3O13
_chemical_formula_sum   'Mo6 P6 O26'
_cell_volume   549.74071137
_cell_formula_units_Z   2
loop_
 _symmetry_equiv_pos_site_id
 _symmetry_equiv_pos_as_xyz
  1  'x, y, z'
loop_
 _atom_site_type_symbol
 _atom_site_label
 _atom_site_symmetry_multiplicity
 _atom_site_fract_x
 _atom_site_fract_y
 _atom_site_fract_z
 _atom_site_occupancy
  Mo  Mo0  1  0.25000000  0.63021300  0.20321600  1
  Mo  Mo1  1  0.75000000  0.36978700  0.79678400  1
  Mo  Mo2  1  0.25000000  0.22973000  0.44982600  1
  Mo  Mo3  1  0.50000000  0.00000000  0.00000000  1
  Mo  Mo4  1  0.75000000  0.77027000  0.55017400  1
  Mo  Mo5  1  0.00000000  0.00000000  0.00000000  1
  P  P0  1  0.25000000  0.78854100  0.47943600  1
  P  P1  1  0.75000000  0.21145900  0.52056400  1
  P  P2  1  0.25000000  0.25618700  0.76888100  1
  P  P3  1  0.75000000  0.74381300  0.23111900  1
  P  P4  1  0.75000000  0.69191100  0.88149600  1
  P  P5  1  0.25000000  0.30808900  0.11850400  1
  O  O0  1  0.75000000  0.65899500  0.74401700  1
  O  O1  1  0.56319100  0.25562000  0.44023100  1
  O  O2  1  0.25000000  0.19376200  0.64542800  1
  O  O3  1  0.55826100  0.79386100  0.90952200  1
  O  O4  1  0.75000000  0.34016700  0.62088500  1
  O  O5  1  0.75000000  0.12379400  0.91340200  1
  O  O6  1  0.25000000  0.65983300  0.37911500  1
  O  O7  1  0.05826100  0.20613900  0.09047800  1
  O  O8  1  0.25000000  0.97752700  0.40602900  1
  O  O9  1  0.75000000  0.02247300  0.59397100  1
  O  O10  1  0.05942300  0.36221500  0.79207800  1
  O  O11  1  0.25000000  0.87620600  0.08659800  1
  O  O12  1  0.55942300  0.63778500  0.20792200  1
  O  O13  1  0.75000000  0.49752900  0.94900400  1
  O  O14  1  0.75000000  0.80623800  0.35457200  1
  O  O15  1  0.44173900  0.20613900  0.09047800  1
  O  O16  1  0.93680900  0.25562000  0.44023100  1
  O  O17  1  0.43680900  0.74438000  0.55976900  1
  O  O18  1  0.44057700  0.36221500  0.79207800  1
  O  O19  1  0.25000000  0.34100500  0.25598300  1
  O  O20  1  0.75000000  0.91290000  0.12343000  1
  O  O21  1  0.25000000  0.08710000  0.87657000  1
  O  O22  1  0.94057700  0.63778500  0.20792200  1
  O  O23  1  0.94173900  0.79386100  0.90952200  1
  O  O24  1  0.06319100  0.74438000  0.55976900  1
  O  O25  1  0.25000000  0.50247100  0.05099600  1
loop_
_geom_bond_atom_site_label_1
_geom_bond_atom_site_label_2
_geom_bond_distance
_geom_bond_site_symmetry_2
Mo0 O6 1.981442 1_555
Mo0 O22 2.042088 1_455
Mo0 O12 2.042088 1_555
Mo0 O25 2.066991 1_555
Mo0 O11 2.111121 1_555
Mo0 O19 2.206211 1_555
Mo1 O4 1.981442 1_555
Mo1 O18 2.042088 1_555
Mo1 O10 2.042088 1_655
Mo1 O13 2.066991 1_555
Mo1 O5 2.111121 1_555
Mo1 O0 2.206211 1_555
Mo2 O8 2.067127 1_545
Mo2 O1 2.075874 1_555
Mo2 O16 2.075874 1_455
Mo2 O2 2.124341 1_555
Mo2 O19 2.168358 1_555
Mo3 O15 2.032903 1_555
Mo3 O3 2.032903 1_544
Mo3 O11 2.060418 1_545
Mo3 O5 2.060418 1_554
Mo3 O21 2.173155 1_554
Mo3 O20 2.173155 1_545
Mo4 O9 2.067127 1_565
Mo4 O24 2.075874 1_655
Mo4 O17 2.075874 1_555
Mo4 O14 2.124341 1_555
Mo4 O0 2.168358 1_555
Mo5 O7 2.032903 1_555
Mo5 O23 2.032903 1_444
Mo5 O11 2.060418 1_545
Mo5 O5 2.060418 1_454
Mo5 O21 2.173155 1_554
Mo5 O20 2.173155 1_445
O0 P4 1.570324 1_555
O1 P1 1.522719 1_555
O2 P2 1.507779 1_555
O3 P4 1.543216 1_555
O4 P1 1.591257 1_555
O6 P0 1.591257 1_555
O7 P5 1.543216 1_555
O8 P0 1.546694 1_555
O9 P1 1.546694 1_555
O10 P2 1.540090 1_555
O12 P3 1.540090 1_555
O13 P4 1.559993 1_555
O14 P3 1.507779 1_555
O15 P5 1.543216 1_555
O16 P1 1.522719 1_555
O17 P0 1.522719 1_555
O18 P2 1.540090 1_555
O19 P5 1.570324 1_555
O20 P3 1.614927 1_555
O21 P2 1.614927 1_555
O22 P3 1.540090 1_555
O23 P4 1.543216 1_555
O24 P0 1.522719 1_555
O25 P5 1.559993 1_555
