# generated using pymatgen
data_Sr3N2
_symmetry_space_group_name_H-M   'P 1'
_cell_length_a   4.97900100
_cell_length_b   4.97900100
_cell_length_c   4.97900100
_cell_angle_alpha   90.00000000
_cell_angle_beta   90.00000000
_cell_angle_gamma   90.00000000
_symmetry_Int_Tables_number   1
_chemical_formula_structural   Sr3N2
_chemical_formula_sum   'Sr3 N2'
_cell_volume   123.43168011
_cell_formula_units_Z   1
loop_
 _symmetry_equiv_pos_site_id
 _symmetry_equiv_pos_as_xyz
  1  'x, y, z'
loop_
 _atom_site_type_symbol
 _atom_site_label
 _atom_site_symmetry_multiplicity
 _atom_site_fract_x
 _atom_site_fract_y
 _atom_site_fract_z
 _atom_site_occupancy
  Sr  Sr0  1  0.00000000  0.50000000  0.50000000  1
  Sr  Sr1  1  0.50000000  0.00000000  0.50000000  1
  Sr  Sr2  1  0.50000000  0.50000000  0.00000000  1
  N  N0  1  0.00000000  0.00000000  0.00000000  1
  N  N1  1  0.50000000  0.50000000  0.50000000  1
loop_
_geom_bond_atom_site_label_1
_geom_bond_atom_site_label_2
_geom_bond_distance
_geom_bond_site_symmetry_2
N1 Sr1 2.489501 1_555
N1 Sr1 2.489501 1_565
N1 Sr2 2.489501 1_555
N1 Sr0 2.489501 1_655
N1 Sr2 2.489501 1_556
N1 Sr0 2.489501 1_555
