# generated using pymatgen
data_Ca8TiMn7O24
_symmetry_space_group_name_H-M   'P 1'
_cell_length_a   10.83644522
_cell_length_b   15.17831508
_cell_length_c   10.69197158
_cell_angle_alpha   90.00000000
_cell_angle_beta   90.02142782
_cell_angle_gamma   90.00000000
_symmetry_Int_Tables_number   1
_chemical_formula_structural   Ca8TiMn7O24
_chemical_formula_sum   'Ca32 Ti4 Mn28 O96'
_cell_volume   1758.60445498
_cell_formula_units_Z   4
loop_
 _symmetry_equiv_pos_site_id
 _symmetry_equiv_pos_as_xyz
  1  'x, y, z'
loop_
 _atom_site_type_symbol
 _atom_site_label
 _atom_site_symmetry_multiplicity
 _atom_site_fract_x
 _atom_site_fract_y
 _atom_site_fract_z
 _atom_site_occupancy
  Ca  Ca0  1  0.02234095  0.12500000  0.49686532  1
  Ca  Ca1  1  0.01968719  0.12500000  0.99467072  1
  Ca  Ca2  1  0.02243848  0.62500000  0.49570498  1
  Ca  Ca3  1  0.02264273  0.62500000  0.99624538  1
  Ca  Ca4  1  0.52305679  0.12500000  0.49564245  1
  Ca  Ca5  1  0.52366768  0.12500000  0.99552886  1
  Ca  Ca6  1  0.52255349  0.62500000  0.49561200  1
  Ca  Ca7  1  0.52248834  0.62500000  0.99557728  1
  Ca  Ca8  1  0.47881210  0.37600155  0.00420852  1
  Ca  Ca9  1  0.47775838  0.37482860  0.50499698  1
  Ca  Ca10  1  0.47881210  0.87399845  0.00420852  1
  Ca  Ca11  1  0.47775838  0.87517140  0.50499698  1
  Ca  Ca12  1  0.97704377  0.37560266  0.00369531  1
  Ca  Ca13  1  0.97733876  0.37549157  0.50494652  1
  Ca  Ca14  1  0.97704377  0.87439734  0.00369531  1
  Ca  Ca15  1  0.97733876  0.87450843  0.50494652  1
  Ca  Ca16  1  0.22874548  0.37642788  0.24614047  1
  Ca  Ca17  1  0.22766513  0.37535624  0.74491390  1
  Ca  Ca18  1  0.22874548  0.87357212  0.24614047  1
  Ca  Ca19  1  0.22766513  0.87464376  0.74491490  1
  Ca  Ca20  1  0.72704418  0.37511817  0.24572349  1
  Ca  Ca21  1  0.72743305  0.37481495  0.74534058  1
  Ca  Ca22  1  0.72704418  0.87488183  0.24572349  1
  Ca  Ca23  1  0.72743305  0.87518505  0.74534158  1
  Ca  Ca24  1  0.27383863  0.12500000  0.25552918  1
  Ca  Ca25  1  0.27264499  0.12500000  0.75267005  1
  Ca  Ca26  1  0.27227175  0.62500000  0.25380856  1
  Ca  Ca27  1  0.27254128  0.62500000  0.75431945  1
  Ca  Ca28  1  0.76944168  0.12500000  0.25433189  1
  Ca  Ca29  1  0.77244004  0.12500000  0.75505831  1
  Ca  Ca30  1  0.77281567  0.62500000  0.25435224  1
  Ca  Ca31  1  0.77243919  0.62500000  0.75441740  1
  Ti  Ti0  1  0.99898629  0.99918679  0.24994122  1
  Ti  Ti1  1  0.25004634  0.99936048  0.99972995  1
  Ti  Ti2  1  0.25004634  0.25063952  0.99972995  1
  Ti  Ti3  1  0.99898629  0.25081321  0.24994122  1
  Mn  Mn0  1  0.00025979  0.00034754  0.74906849  1
  Mn  Mn1  1  0.00048924  0.50072662  0.25068988  1
  Mn  Mn2  1  0.99984703  0.49987316  0.74997242  1
  Mn  Mn3  1  0.50006355  0.99963044  0.25117488  1
  Mn  Mn4  1  0.50132987  0.00042742  0.74992597  1
  Mn  Mn5  1  0.49980479  0.50015009  0.25005531  1
  Mn  Mn6  1  0.50032579  0.49993215  0.74992195  1
  Mn  Mn7  1  0.25120471  0.00023131  0.50012238  1
  Mn  Mn8  1  0.25020874  0.50074015  0.99902300  1
  Mn  Mn9  1  0.25027083  0.49994344  0.50016385  1
  Mn  Mn10  1  0.74891930  0.99945160  0.00020981  1
  Mn  Mn11  1  0.74999631  0.00028864  0.50124872  1
  Mn  Mn12  1  0.75012169  0.50009061  0.00027507  1
  Mn  Mn13  1  0.74989580  0.49987551  0.49998902  1
  Mn  Mn14  1  0.25120471  0.24976869  0.50012238  1
  Mn  Mn15  1  0.25020874  0.74925985  0.99902300  1
  Mn  Mn16  1  0.25027083  0.75005656  0.50016385  1
  Mn  Mn17  1  0.74891930  0.25054840  0.00020981  1
  Mn  Mn18  1  0.74999631  0.24971136  0.50124872  1
  Mn  Mn19  1  0.75012169  0.74990939  0.00027507  1
  Mn  Mn20  1  0.74989580  0.75012449  0.49998902  1
  Mn  Mn21  1  0.00025979  0.24965246  0.74906849  1
  Mn  Mn22  1  0.00048924  0.74927338  0.25068988  1
  Mn  Mn23  1  0.99984703  0.75012684  0.74997242  1
  Mn  Mn24  1  0.50006355  0.25036956  0.25117488  1
  Mn  Mn25  1  0.50132987  0.24957258  0.74992597  1
  Mn  Mn26  1  0.49980479  0.74984991  0.25005531  1
  Mn  Mn27  1  0.50032579  0.75006785  0.74992195  1
  O  O0  1  0.10511178  0.26969104  0.10453487  1
  O  O1  1  0.10384302  0.27003611  0.60223326  1
  O  O2  1  0.10429778  0.77055010  0.10325579  1
  O  O3  1  0.10397136  0.77026230  0.60299535  1
  O  O4  1  0.60272599  0.27036997  0.10270085  1
  O  O5  1  0.60373106  0.27033839  0.60279944  1
  O  O6  1  0.60395458  0.77020635  0.10306884  1
  O  O7  1  0.60389456  0.77023925  0.60298660  1
  O  O8  1  0.39682711  0.22943277  0.39755916  1
  O  O9  1  0.39663102  0.23078666  0.89351416  1
  O  O10  1  0.39602720  0.72976469  0.39695579  1
  O  O11  1  0.39650629  0.72932701  0.89678152  1
  O  O12  1  0.89292904  0.23073799  0.39751156  1
  O  O13  1  0.89618371  0.22998835  0.89711134  1
  O  O14  1  0.89608508  0.72941423  0.39728213  1
  O  O15  1  0.89609228  0.72977411  0.89703577  1
  O  O16  1  0.14634372  0.23081659  0.35560006  1
  O  O17  1  0.14358357  0.23053061  0.85247660  1
  O  O18  1  0.14653698  0.72938194  0.35315331  1
  O  O19  1  0.14611042  0.72943377  0.85273297  1
  O  O20  1  0.64649397  0.22970467  0.35300132  1
  O  O21  1  0.64666729  0.22954459  0.85259434  1
  O  O22  1  0.64607461  0.72973621  0.35298178  1
  O  O23  1  0.64601262  0.72972366  0.85300891  1
  O  O24  1  0.35638910  0.26930798  0.14750218  1
  O  O25  1  0.35384285  0.27006791  0.64742306  1
  O  O26  1  0.35428975  0.77034251  0.14669504  1
  O  O27  1  0.35385328  0.77021638  0.64692711  1
  O  O28  1  0.85265790  0.26941653  0.14411595  1
  O  O29  1  0.85365046  0.27043390  0.64729090  1
  O  O30  1  0.85395854  0.77046017  0.14705475  1
  O  O31  1  0.85398608  0.77031456  0.64707620  1
  O  O32  1  0.35428975  0.47965649  0.14669504  1
  O  O33  1  0.35385328  0.47978262  0.64692711  1
  O  O34  1  0.35638910  0.98069102  0.14750218  1
  O  O35  1  0.35384285  0.97993109  0.64742306  1
  O  O36  1  0.85395954  0.47953883  0.14705475  1
  O  O37  1  0.85398708  0.47968444  0.64707520  1
  O  O38  1  0.85265790  0.98058247  0.14411595  1
  O  O39  1  0.85365046  0.97956510  0.64729090  1
  O  O40  1  0.14634372  0.01918241  0.35560006  1
  O  O41  1  0.14358357  0.01946839  0.85247660  1
  O  O42  1  0.14653698  0.52061706  0.35315331  1
  O  O43  1  0.14611042  0.52056523  0.85273297  1
  O  O44  1  0.64649297  0.02029433  0.35300132  1
  O  O45  1  0.64666629  0.02045441  0.85259434  1
  O  O46  1  0.64607361  0.52026279  0.35298178  1
  O  O47  1  0.64601162  0.52027534  0.85300891  1
  O  O48  1  0.39682711  0.02056623  0.39755916  1
  O  O49  1  0.39663102  0.01921234  0.89351416  1
  O  O50  1  0.39602720  0.52023431  0.39695579  1
  O  O51  1  0.39650629  0.52067199  0.89678152  1
  O  O52  1  0.89292804  0.01926101  0.39751256  1
  O  O53  1  0.89618271  0.02001065  0.89711134  1
  O  O54  1  0.89608508  0.52058477  0.39728213  1
  O  O55  1  0.89609228  0.52022489  0.89703577  1
  O  O56  1  0.10429778  0.47944890  0.10325679  1
  O  O57  1  0.10397136  0.47973670  0.60299535  1
  O  O58  1  0.10511178  0.98030796  0.10453487  1
  O  O59  1  0.10384302  0.97996289  0.60223326  1
  O  O60  1  0.60395458  0.47979265  0.10306784  1
  O  O61  1  0.60389456  0.47975975  0.60298560  1
  O  O62  1  0.60272599  0.97962903  0.10270185  1
  O  O63  1  0.60373106  0.97966061  0.60279944  1
  O  O64  1  0.00830084  0.37726100  0.28710705  1
  O  O65  1  0.00996784  0.37485680  0.78892505  1
  O  O66  1  0.00830184  0.87273900  0.28710705  1
  O  O67  1  0.00996884  0.87514320  0.78892505  1
  O  O68  1  0.51003238  0.37525063  0.28970386  1
  O  O69  1  0.50959371  0.37482800  0.78943893  1
  O  O70  1  0.51003238  0.87474937  0.28970386  1
  O  O71  1  0.50959371  0.87517200  0.78943893  1
  O  O72  1  0.49004359  0.12500000  0.21106410  1
  O  O73  1  0.49034508  0.12500000  0.71016346  1
  O  O74  1  0.49027529  0.62500000  0.21078980  1
  O  O75  1  0.49023738  0.62500000  0.71077823  1
  O  O76  1  0.99199367  0.12500000  0.21313457  1
  O  O77  1  0.98942042  0.12500000  0.71001723  1
  O  O78  1  0.99021516  0.62500000  0.21052849  1
  O  O79  1  0.99031694  0.62500000  0.71074721  1
  O  O80  1  0.24100435  0.12500000  0.03681928  1
  O  O81  1  0.24039636  0.12500000  0.53941197  1
  O  O82  1  0.24035258  0.62500000  0.03948231  1
  O  O83  1  0.24025298  0.62500000  0.53928534  1
  O  O84  1  0.74052647  0.12500000  0.03952826  1
  O  O85  1  0.73946451  0.12500000  0.54029851  1
  O  O86  1  0.74016541  0.62500000  0.03917407  1
  O  O87  1  0.74031852  0.62500000  0.53917491  1
  O  O88  1  0.25956755  0.37481513  0.46067117  1
  O  O89  1  0.25893771  0.37728941  0.96298030  1
  O  O90  1  0.25956855  0.87518487  0.46067217  1
  O  O91  1  0.25893871  0.87271059  0.96298130  1
  O  O92  1  0.75995318  0.37486572  0.46087152  1
  O  O93  1  0.75944013  0.37521182  0.96050659  1
  O  O94  1  0.75995318  0.87513428  0.46087152  1
  O  O95  1  0.75944013  0.87478818  0.96050759  1
loop_
_geom_bond_atom_site_label_1
_geom_bond_atom_site_label_2
_geom_bond_distance
_geom_bond_site_symmetry_2
Ca0 O77 2.306898 1_455
Ca0 O12 2.381124 1_455
Ca0 O52 2.381136 1_455
Ca0 O81 2.406169 1_555
Ca0 O16 2.582269 1_555
Ca0 O40 2.582279 1_555
Ca0 O1 2.625771 1_555
Ca0 O59 2.625783 1_545
Ca1 O13 2.327565 1_455
Ca1 O53 2.327581 1_455
Ca1 O76 2.355120 1_456
Ca1 O80 2.440098 1_556
Ca1 O17 2.584802 1_555
Ca1 O41 2.584811 1_555
Ca1 O0 2.656894 1_556
Ca1 O58 2.656907 1_546
Ca2 O79 2.325553 1_455
Ca2 O14 2.343670 1_455
Ca2 O54 2.343681 1_455
Ca2 O83 2.405718 1_555
Ca2 O18 2.577437 1_555
Ca2 O42 2.577447 1_555
Ca2 O3 2.637633 1_555
Ca2 O57 2.637646 1_555
Ca3 O78 2.318030 1_456
Ca3 O15 2.352393 1_455
Ca3 O55 2.352403 1_455
Ca3 O82 2.403897 1_556
Ca3 O19 2.580457 1_555
Ca3 O43 2.580466 1_555
Ca3 O2 2.640431 1_556
Ca3 O56 2.640448 1_556
Ca4 O73 2.321014 1_555
Ca4 O8 2.341450 1_555
Ca4 O48 2.341461 1_555
Ca4 O85 2.393028 1_555
Ca4 O20 2.577288 1_555
Ca4 O44 2.577292 1_555
Ca4 O5 2.634879 1_555
Ca4 O63 2.634892 1_545
Ca5 O72 2.333258 1_556
Ca5 O9 2.379462 1_555
Ca5 O49 2.379472 1_555
Ca5 O84 2.396432 1_556
Ca5 O21 2.575191 1_555
Ca5 O45 2.575195 1_555
Ca5 O4 2.629596 1_556
Ca5 O62 2.629613 1_546
Ca6 O75 2.327181 1_555
Ca6 O10 2.349482 1_555
Ca6 O50 2.349493 1_555
Ca6 O87 2.405156 1_555
Ca6 O22 2.577987 1_555
Ca6 O46 2.577990 1_555
Ca6 O7 2.637038 1_555
Ca6 O61 2.637046 1_555
Ca7 O74 2.327502 1_556
Ca7 O11 2.342221 1_555
Ca7 O51 2.342231 1_555
Ca7 O86 2.404290 1_556
Ca7 O23 2.577496 1_555
Ca7 O47 2.577500 1_555
Ca7 O6 2.637618 1_556
Ca7 O60 2.637626 1_556
Ca8 O69 2.320602 1_554
Ca8 O60 2.331735 1_555
Ca8 O4 2.341279 1_555
Ca8 O89 2.423007 1_554
Ca8 O32 2.572663 1_555
Ca8 O24 2.594479 1_555
Ca8 O51 2.633589 1_554
Ca8 O9 2.655409 1_554
Ca9 O68 2.328463 1_555
Ca9 O5 2.339072 1_555
Ca9 O61 2.345536 1_555
Ca9 O88 2.411269 1_555
Ca9 O33 2.577774 1_555
Ca9 O25 2.579149 1_555
Ca9 O8 2.637840 1_555
Ca9 O50 2.643670 1_555
Ca10 O71 2.320602 1_554
Ca10 O6 2.331750 1_555
Ca10 O62 2.341274 1_555
Ca10 O91 2.422995 1_554
Ca10 O26 2.572672 1_555
Ca10 O34 2.594470 1_555
Ca10 O11 2.633602 1_554
Ca10 O49 2.655396 1_564
Ca11 O70 2.328463 1_555
Ca11 O63 2.339062 1_555
Ca11 O7 2.345551 1_555
Ca11 O90 2.411257 1_555
Ca11 O27 2.577783 1_555
Ca11 O35 2.579139 1_555
Ca11 O48 2.637827 1_565
Ca11 O10 2.643683 1_555
Ca12 O65 2.324028 1_654
Ca12 O56 2.349066 1_655
Ca12 O0 2.381508 1_655
Ca12 O93 2.402676 1_554
Ca12 O36 2.572692 1_555
Ca12 O28 2.582660 1_555
Ca12 O55 2.624472 1_554
Ca12 O13 2.636401 1_554
Ca13 O57 2.341913 1_655
Ca13 O1 2.349938 1_655
Ca13 O64 2.353453 1_655
Ca13 O92 2.402207 1_555
Ca13 O37 2.568777 1_555
Ca13 O29 2.580134 1_555
Ca13 O54 2.636219 1_555
Ca13 O12 2.642480 1_555
Ca14 O67 2.324030 1_654
Ca14 O2 2.349071 1_655
Ca14 O58 2.381498 1_655
Ca14 O95 2.402674 1_554
Ca14 O30 2.572707 1_555
Ca14 O38 2.582651 1_555
Ca14 O15 2.624484 1_554
Ca14 O53 2.636392 1_564
Ca15 O3 2.341923 1_655
Ca15 O59 2.349927 1_655
Ca15 O66 2.353455 1_655
Ca15 O94 2.402207 1_555
Ca15 O31 2.568799 1_555
Ca15 O39 2.580125 1_555
Ca15 O14 2.636232 1_555
Ca15 O52 2.642467 1_565
Ca16 O88 2.317952 1_555
Ca16 O32 2.331830 1_555
Ca16 O24 2.381208 1_555
Ca16 O64 2.428855 1_555
Ca16 O56 2.568289 1_555
Ca16 O0 2.590447 1_555
Ca16 O42 2.625502 1_555
Ca16 O16 2.655657 1_555
Ca17 O33 2.341118 1_555
Ca17 O25 2.347569 1_555
Ca17 O89 2.356116 1_555
Ca17 O65 2.405724 1_555
Ca17 O57 2.570543 1_555
Ca17 O1 2.584880 1_555
Ca17 O43 2.639788 1_555
Ca17 O17 2.643052 1_555
Ca18 O90 2.317964 1_555
Ca18 O26 2.331840 1_555
Ca18 O34 2.381198 1_555
Ca18 O66 2.428844 1_555
Ca18 O2 2.568304 1_555
Ca18 O58 2.590437 1_555
Ca18 O18 2.625515 1_555
Ca18 O40 2.655644 1_565
Ca19 O27 2.341133 1_555
Ca19 O35 2.347563 1_555
Ca19 O91 2.356118 1_555
Ca19 O67 2.405711 1_555
Ca19 O3 2.570559 1_555
Ca19 O59 2.584876 1_555
Ca19 O19 2.639796 1_555
Ca19 O41 2.643035 1_565
Ca20 O92 2.327706 1_555
Ca20 O36 2.348939 1_555
Ca20 O28 2.368171 1_555
Ca20 O68 2.398364 1_555
Ca20 O60 2.574553 1_555
Ca20 O4 2.584480 1_555
Ca20 O46 2.634242 1_555
Ca20 O20 2.636234 1_555
Ca21 O93 2.326427 1_555
Ca21 O29 2.341139 1_555
Ca21 O37 2.349322 1_555
Ca21 O69 2.407404 1_555
Ca21 O5 2.575421 1_555
Ca21 O61 2.577708 1_555
Ca21 O21 2.635079 1_555
Ca21 O47 2.641789 1_555
Ca22 O94 2.327706 1_555
Ca22 O30 2.348943 1_555
Ca22 O38 2.368160 1_555
Ca22 O70 2.398364 1_555
Ca22 O6 2.574556 1_555
Ca22 O62 2.584465 1_555
Ca22 O22 2.634251 1_555
Ca22 O44 2.636225 1_565
Ca23 O95 2.326427 1_555
Ca23 O39 2.341133 1_555
Ca23 O31 2.349326 1_555
Ca23 O71 2.407402 1_555
Ca23 O63 2.575418 1_555
Ca23 O7 2.577717 1_555
Ca23 O45 2.635065 1_565
Ca23 O23 2.641794 1_555
Ca24 O80 2.365223 1_555
Ca24 O16 2.373672 1_555
Ca24 O40 2.373682 1_555
Ca24 O72 2.390817 1_555
Ca24 O8 2.567762 1_555
Ca24 O48 2.567771 1_555
Ca24 O24 2.633005 1_555
Ca24 O34 2.633018 1_545
Ca25 O81 2.306644 1_555
Ca25 O17 2.379403 1_555
Ca25 O41 2.379413 1_555
Ca25 O73 2.402641 1_555
Ca25 O9 2.578673 1_555
Ca25 O49 2.578682 1_555
Ca25 O25 2.624797 1_555
Ca25 O35 2.624809 1_545
Ca26 O82 2.317400 1_555
Ca26 O18 2.344339 1_555
Ca26 O42 2.344350 1_555
Ca26 O74 2.406912 1_555
Ca26 O10 2.582252 1_555
Ca26 O50 2.582261 1_555
Ca26 O26 2.639883 1_555
Ca26 O32 2.639896 1_555
Ca27 O83 2.325481 1_555
Ca27 O19 2.344776 1_555
Ca27 O43 2.344787 1_555
Ca27 O75 2.404720 1_555
Ca27 O11 2.575009 1_555
Ca27 O51 2.575018 1_555
Ca27 O27 2.637012 1_555
Ca27 O33 2.637024 1_555
Ca28 O84 2.317834 1_555
Ca28 O20 2.326965 1_555
Ca28 O44 2.326982 1_555
Ca28 O76 2.451730 1_555
Ca28 O12 2.590078 1_555
Ca28 O52 2.590088 1_555
Ca28 O28 2.647174 1_555
Ca28 O38 2.647186 1_545
Ca29 O85 2.323712 1_555
Ca29 O21 2.337552 1_555
Ca29 O45 2.337569 1_555
Ca29 O77 2.400283 1_555
Ca29 O13 2.577368 1_555
Ca29 O53 2.577372 1_555
Ca29 O29 2.641152 1_555
Ca29 O39 2.641165 1_545
Ca30 O86 2.327595 1_555
Ca30 O22 2.350881 1_555
Ca30 O46 2.350898 1_555
Ca30 O78 2.402155 1_555
Ca30 O14 2.574866 1_555
Ca30 O54 2.574875 1_555
Ca30 O30 2.639053 1_555
Ca30 O36 2.639069 1_555
Ca31 O87 2.327412 1_555
Ca31 O23 2.348580 1_555
Ca31 O47 2.348597 1_555
Ca31 O79 2.406918 1_555
Ca31 O15 2.578417 1_555
Ca31 O55 2.578426 1_555
Ca31 O31 2.638871 1_555
Ca31 O37 2.638892 1_555
Mn0 O41 1.928097 1_555
Mn0 O77 1.941086 1_455
Mn0 O67 1.950416 1_545
Mn0 O39 1.951010 1_445
Mn0 O59 1.954934 1_545
Mn0 O53 1.966692 1_455
Mn1 O64 1.915888 1_555
Mn1 O78 1.937712 1_455
Mn1 O42 1.948023 1_555
Mn1 O54 1.956730 1_455
Mn1 O36 1.962451 1_455
Mn1 O56 1.963656 1_555
Mn2 O65 1.945790 1_655
Mn2 O79 1.947701 1_555
Mn2 O37 1.949690 1_555
Mn2 O43 1.953626 1_655
Mn2 O55 1.957882 1_555
Mn2 O57 1.958933 1_655
Mn3 O34 1.932367 1_555
Mn3 O70 1.942730 1_555
Mn3 O44 1.949424 1_565
Mn3 O48 1.950248 1_565
Mn3 O72 1.953638 1_565
Mn3 O62 1.962446 1_555
Mn4 O49 1.930491 1_555
Mn4 O73 1.941651 1_555
Mn4 O45 1.943327 1_555
Mn4 O71 1.949591 1_545
Mn4 O63 1.951044 1_545
Mn4 O35 1.962384 1_545
Mn5 O74 1.943696 1_555
Mn5 O68 1.945733 1_555
Mn5 O32 1.950195 1_555
Mn5 O46 1.953278 1_555
Mn5 O50 1.955989 1_555
Mn5 O60 1.959707 1_555
Mn6 O75 1.946971 1_555
Mn6 O69 1.947891 1_555
Mn6 O47 1.949676 1_555
Mn6 O61 1.955205 1_555
Mn6 O33 1.955567 1_555
Mn6 O51 1.957474 1_555
Mn7 O40 1.939170 1_555
Mn7 O81 1.943353 1_555
Mn7 O90 1.946418 1_545
Mn7 O48 1.946606 1_555
Mn7 O35 1.952207 1_545
Mn7 O59 1.959060 1_545
Mn8 O89 1.915336 1_555
Mn8 O82 1.937983 1_556
Mn8 O51 1.949653 1_555
Mn8 O43 1.951470 1_555
Mn8 O56 1.961591 1_556
Mn8 O32 1.966242 1_556
Mn9 O83 1.946727 1_555
Mn9 O88 1.948225 1_555
Mn9 O50 1.951569 1_555
Mn9 O33 1.953101 1_555
Mn9 O57 1.953867 1_555
Mn9 O42 1.957400 1_555
Mn10 O38 1.926623 1_555
Mn10 O95 1.942570 1_554
Mn10 O62 1.949983 1_555
Mn10 O84 1.953559 1_565
Mn10 O45 1.954263 1_564
Mn10 O53 1.964798 1_564
Mn11 O52 1.927022 1_555
Mn11 O85 1.941774 1_555
Mn11 O63 1.946905 1_545
Mn11 O39 1.948722 1_545
Mn11 O94 1.951065 1_545
Mn11 O44 1.965016 1_555
Mn12 O86 1.944002 1_555
Mn12 O93 1.945188 1_554
Mn12 O60 1.952687 1_555
Mn12 O55 1.953265 1_554
Mn12 O36 1.955771 1_555
Mn12 O47 1.960762 1_554
Mn13 O92 1.946050 1_555
Mn13 O87 1.947620 1_555
Mn13 O61 1.952024 1_555
Mn13 O54 1.953360 1_555
Mn13 O46 1.957230 1_555
Mn13 O37 1.959115 1_555
Mn14 O16 1.939173 1_555
Mn14 O81 1.943353 1_555
Mn14 O88 1.946419 1_555
Mn14 O8 1.946608 1_555
Mn14 O25 1.952204 1_555
Mn14 O1 1.959058 1_555
Mn15 O91 1.915335 1_555
Mn15 O82 1.937983 1_556
Mn15 O11 1.949655 1_555
Mn15 O19 1.951473 1_555
Mn15 O2 1.961583 1_556
Mn15 O26 1.966239 1_556
Mn16 O83 1.946727 1_555
Mn16 O90 1.948223 1_555
Mn16 O10 1.951572 1_555
Mn16 O27 1.953099 1_555
Mn16 O3 1.953864 1_555
Mn16 O18 1.957403 1_555
Mn17 O28 1.926621 1_555
Mn17 O93 1.942572 1_554
Mn17 O4 1.949974 1_555
Mn17 O84 1.953559 1_555
Mn17 O21 1.954259 1_554
Mn17 O13 1.964809 1_554
Mn18 O12 1.927040 1_555
Mn18 O85 1.941774 1_555
Mn18 O5 1.946903 1_555
Mn18 O29 1.948720 1_555
Mn18 O92 1.951065 1_555
Mn18 O20 1.965012 1_555
Mn19 O86 1.944002 1_555
Mn19 O95 1.945186 1_554
Mn19 O6 1.952691 1_555
Mn19 O15 1.953267 1_554
Mn19 O30 1.955762 1_555
Mn19 O23 1.960758 1_554
Mn20 O94 1.946050 1_555
Mn20 O87 1.947620 1_555
Mn20 O7 1.952027 1_555
Mn20 O14 1.953363 1_555
Mn20 O22 1.957226 1_555
Mn20 O31 1.959115 1_555
Mn21 O17 1.928100 1_555
Mn21 O77 1.941086 1_455
Mn21 O65 1.950415 1_555
Mn21 O29 1.951008 1_455
Mn21 O1 1.954931 1_555
Mn21 O13 1.966688 1_455
Mn22 O66 1.915889 1_555
Mn22 O78 1.937712 1_455
Mn22 O18 1.948025 1_555
Mn22 O14 1.956732 1_455
Mn22 O30 1.962458 1_455
Mn22 O2 1.963662 1_555
Mn23 O67 1.945791 1_655
Mn23 O79 1.947701 1_555
Mn23 O31 1.949690 1_555
Mn23 O19 1.953628 1_655
Mn23 O15 1.957884 1_555
Mn23 O3 1.958931 1_655
Mn24 O24 1.932365 1_555
Mn24 O68 1.942730 1_555
Mn24 O20 1.949436 1_555
Mn24 O8 1.950250 1_555
Mn24 O72 1.953638 1_555
Mn24 O4 1.962452 1_555
Mn25 O9 1.930494 1_555
Mn25 O73 1.941651 1_555
Mn25 O21 1.943338 1_555
Mn25 O69 1.949591 1_555
Mn25 O5 1.951042 1_555
Mn25 O25 1.962382 1_555
Mn26 O74 1.943696 1_555
Mn26 O70 1.945733 1_555
Mn26 O26 1.950193 1_555
Mn26 O22 1.953289 1_555
Mn26 O10 1.955991 1_555
Mn26 O6 1.959696 1_555
Mn27 O75 1.946971 1_555
Mn27 O71 1.947891 1_555
Mn27 O23 1.949687 1_555
Mn27 O7 1.955194 1_555
Mn27 O27 1.955565 1_555
Mn27 O11 1.957477 1_555
O0 Ti2 1.951236 1_554
O0 Ti3 1.955255 1_455
O9 Ti2 1.976123 1_555
O12 Ti3 1.975997 1_555
O16 Ti3 1.979107 1_455
O17 Ti2 1.975246 1_555
O24 Ti2 1.975659 1_554
O28 Ti3 1.967998 1_555
O34 Ti1 1.975661 1_554
O38 Ti0 1.968001 1_555
O40 Ti0 1.979105 1_445
O41 Ti1 1.975244 1_545
O49 Ti1 1.976120 1_545
O52 Ti0 1.976010 1_545
O58 Ti1 1.951238 1_554
O58 Ti0 1.955258 1_455
O64 Ti3 1.962560 1_455
O66 Ti0 1.962561 1_455
O76 Ti3 1.951227 1_555
O76 Ti0 1.951227 1_545
O80 Ti1 1.950262 1_544
O80 Ti2 1.950262 1_554
O89 Ti2 1.964450 1_555
O91 Ti1 1.964448 1_555
