# generated using pymatgen
data_Ba2CuTeO2
_symmetry_space_group_name_H-M   'P 1'
_cell_length_a   4.14193800
_cell_length_b   4.14193800
_cell_length_c   8.10538500
_cell_angle_alpha   90.00000000
_cell_angle_beta   90.00000000
_cell_angle_gamma   90.00000000
_symmetry_Int_Tables_number   1
_chemical_formula_structural   Ba2CuTeO2
_chemical_formula_sum   'Ba2 Cu1 Te1 O2'
_cell_volume   139.05315138
_cell_formula_units_Z   1
loop_
 _symmetry_equiv_pos_site_id
 _symmetry_equiv_pos_as_xyz
  1  'x, y, z'
loop_
 _atom_site_type_symbol
 _atom_site_label
 _atom_site_symmetry_multiplicity
 _atom_site_fract_x
 _atom_site_fract_y
 _atom_site_fract_z
 _atom_site_occupancy
  Ba  Ba0  1  0.50000000  0.50000000  0.72127600  1
  Ba  Ba1  1  0.50000000  0.50000000  0.27872400  1
  Cu  Cu0  1  0.00000000  0.00000000  0.50000000  1
  Te  Te0  1  0.00000000  0.00000000  0.00000000  1
  O  O0  1  0.00000000  0.50000000  0.50000000  1
  O  O1  1  0.50000000  0.00000000  0.50000000  1
loop_
_geom_bond_atom_site_label_1
_geom_bond_atom_site_label_2
_geom_bond_distance
_geom_bond_site_symmetry_2
Ba0 O1 2.739645 1_565
Ba0 O0 2.739645 1_555
Ba0 O1 2.739645 1_555
Ba0 O0 2.739645 1_655
Ba0 Te0 3.698872 1_556
Ba0 Te0 3.698872 1_566
Ba0 Te0 3.698872 1_666
Ba0 Te0 3.698872 1_656
Ba1 O0 2.739645 1_655
Ba1 O1 2.739645 1_555
Ba1 O0 2.739645 1_555
Ba1 O1 2.739645 1_565
Ba1 Te0 3.698872 1_565
Ba1 Te0 3.698872 1_655
Ba1 Te0 3.698872 1_665
Ba1 Te0 3.698872 1_555
Cu0 O0 2.070969 1_555
Cu0 O1 2.070969 1_555
Cu0 O1 2.070969 1_455
Cu0 O0 2.070969 1_545
