# generated using pymatgen
data_LiAlPd
_symmetry_space_group_name_H-M   'P 1'
_cell_length_a   8.43421604
_cell_length_b   8.43411310
_cell_length_c   5.47121815
_cell_angle_alpha   90.10015598
_cell_angle_beta   89.89987941
_cell_angle_gamma   120.02728479
_symmetry_Int_Tables_number   1
_chemical_formula_structural   LiAlPd
_chemical_formula_sum   'Li8 Al8 Pd8'
_cell_volume   336.96007796
_cell_formula_units_Z   8
loop_
 _symmetry_equiv_pos_site_id
 _symmetry_equiv_pos_as_xyz
  1  'x, y, z'
loop_
 _atom_site_type_symbol
 _atom_site_label
 _atom_site_symmetry_multiplicity
 _atom_site_fract_x
 _atom_site_fract_y
 _atom_site_fract_z
 _atom_site_occupancy
  Li  Li0_0  1  0.16665450  0.33334800  0.49999200  1
  Li  Li0_1  1  0.16665450  0.33334800  0.99999200  1
  Li  Li0_2  1  0.16665450  0.83334800  0.49999200  1
  Li  Li0_3  1  0.16665450  0.83334800  0.99999200  1
  Li  Li0_4  1  0.66665450  0.33334800  0.49999200  1
  Li  Li0_5  1  0.66665450  0.33334800  0.99999200  1
  Li  Li0_6  1  0.66665450  0.83334800  0.49999200  1
  Li  Li0_7  1  0.66665450  0.83334800  0.99999200  1
  Al  Al0_0  1  0.00001150  0.49998700  0.00000200  1
  Al  Al0_1  1  0.00001150  0.49998700  0.50000200  1
  Al  Al0_2  1  0.00001150  0.99998700  0.00000200  1
  Al  Al0_3  1  0.00001150  0.99998700  0.50000200  1
  Al  Al0_4  1  0.50001150  0.49998700  0.00000200  1
  Al  Al0_5  1  0.50001150  0.49998700  0.50000200  1
  Al  Al0_6  1  0.50001150  0.99998700  0.00000200  1
  Al  Al0_7  1  0.50001150  0.99998700  0.50000200  1
  Pd  Pd0_0  1  0.33333400  0.16666500  0.25000600  1
  Pd  Pd0_1  1  0.33333400  0.16666500  0.75000600  1
  Pd  Pd0_2  1  0.33333400  0.66666500  0.25000600  1
  Pd  Pd0_3  1  0.33333400  0.66666500  0.75000600  1
  Pd  Pd0_4  1  0.83333400  0.16666500  0.25000600  1
  Pd  Pd0_5  1  0.83333400  0.16666500  0.75000600  1
  Pd  Pd0_6  1  0.83333400  0.66666500  0.25000600  1
  Pd  Pd0_7  1  0.83333400  0.66666500  0.75000600  1
loop_
_geom_bond_atom_site_label_1
_geom_bond_atom_site_label_2
_geom_bond_distance
_geom_bond_site_symmetry_2
Li0_0 Pd0_0 2.790669 1_555
Li0_0 Pd0_3 2.790769 1_555
Li0_0 Pd0_5 2.790818 1_455
Li0_0 Pd0_2 2.793102 1_555
Li0_0 Pd0_4 2.793149 1_455
Li0_0 Pd0_1 2.795557 1_555
Li0_1 Pd0_1 2.790669 1_555
Li0_1 Pd0_2 2.790769 1_556
Li0_1 Pd0_4 2.790818 1_456
Li0_1 Pd0_3 2.793102 1_555
Li0_1 Pd0_5 2.793149 1_455
Li0_1 Pd0_0 2.795557 1_556
Li0_2 Pd0_2 2.790669 1_555
Li0_2 Pd0_1 2.790769 1_565
Li0_2 Pd0_7 2.790818 1_455
Li0_2 Pd0_0 2.793102 1_565
Li0_2 Pd0_6 2.793149 1_455
Li0_2 Pd0_3 2.795557 1_555
Li0_3 Pd0_3 2.790669 1_555
Li0_3 Pd0_0 2.790769 1_566
Li0_3 Pd0_6 2.790818 1_456
Li0_3 Pd0_1 2.793102 1_565
Li0_3 Pd0_7 2.793149 1_455
Li0_3 Pd0_2 2.795557 1_556
Li0_4 Pd0_4 2.790669 1_555
Li0_4 Pd0_7 2.790769 1_555
Li0_4 Pd0_1 2.790818 1_555
Li0_4 Pd0_6 2.793102 1_555
Li0_4 Pd0_0 2.793149 1_555
Li0_4 Pd0_5 2.795557 1_555
Li0_5 Pd0_5 2.790669 1_555
Li0_5 Pd0_6 2.790769 1_556
Li0_5 Pd0_0 2.790818 1_556
Li0_5 Pd0_7 2.793102 1_555
Li0_5 Pd0_1 2.793149 1_555
Li0_5 Pd0_4 2.795557 1_556
Li0_6 Pd0_6 2.790669 1_555
Li0_6 Pd0_5 2.790769 1_565
Li0_6 Pd0_3 2.790818 1_555
Li0_6 Pd0_4 2.793102 1_565
Li0_6 Pd0_2 2.793149 1_555
Li0_6 Pd0_7 2.795557 1_555
Li0_7 Pd0_7 2.790669 1_555
Li0_7 Pd0_4 2.790769 1_566
Li0_7 Pd0_2 2.790818 1_556
Li0_7 Pd0_5 2.793102 1_565
Li0_7 Pd0_3 2.793149 1_555
Li0_7 Pd0_6 2.795557 1_556
Al0_0 Li0_3 2.434252 1_554
Al0_0 Li0_5 2.434252 1_454
Al0_0 Li0_1 2.434693 1_554
Al0_0 Pd0_6 2.790672 1_455
Al0_0 Pd0_5 2.790752 1_454
Al0_0 Pd0_3 2.790783 1_554
Al0_0 Pd0_4 2.793182 1_455
Al0_0 Pd0_2 2.793210 1_555
Al0_0 Pd0_7 2.795464 1_454
Al0_1 Li0_2 2.434252 1_555
Al0_1 Li0_4 2.434252 1_455
Al0_1 Li0_0 2.434693 1_555
Al0_1 Pd0_7 2.790672 1_455
Al0_1 Pd0_4 2.790752 1_455
Al0_1 Pd0_2 2.790783 1_555
Al0_1 Pd0_5 2.793182 1_455
Al0_1 Pd0_3 2.793210 1_555
Al0_1 Pd0_6 2.795464 1_455
Al0_2 Li0_1 2.434252 1_564
Al0_2 Li0_7 2.434252 1_454
Al0_2 Li0_3 2.434693 1_554
Al0_2 Pd0_4 2.790672 1_465
Al0_2 Pd0_7 2.790752 1_454
Al0_2 Pd0_1 2.790783 1_564
Al0_2 Pd0_6 2.793182 1_455
Al0_2 Pd0_0 2.793210 1_565
Al0_2 Pd0_5 2.795464 1_464
Al0_3 Li0_0 2.434252 1_565
Al0_3 Li0_6 2.434252 1_455
Al0_3 Li0_2 2.434693 1_555
Al0_3 Pd0_5 2.790672 1_465
Al0_3 Pd0_6 2.790752 1_455
Al0_3 Pd0_0 2.790783 1_565
Al0_3 Pd0_7 2.793182 1_455
Al0_3 Pd0_1 2.793210 1_565
Al0_3 Pd0_4 2.795464 1_465
Al0_4 Li0_7 2.434252 1_554
Al0_4 Li0_1 2.434252 1_554
Al0_4 Li0_5 2.434693 1_554
Al0_4 Pd0_2 2.790672 1_555
Al0_4 Pd0_1 2.790752 1_554
Al0_4 Pd0_7 2.790783 1_554
Al0_4 Pd0_0 2.793182 1_555
Al0_4 Pd0_6 2.793210 1_555
Al0_4 Pd0_3 2.795464 1_554
Al0_5 Li0_6 2.434252 1_555
Al0_5 Li0_0 2.434252 1_555
Al0_5 Li0_4 2.434693 1_555
Al0_5 Pd0_3 2.790672 1_555
Al0_5 Pd0_0 2.790752 1_555
Al0_5 Pd0_6 2.790783 1_555
Al0_5 Pd0_1 2.793182 1_555
Al0_5 Pd0_7 2.793210 1_555
Al0_5 Pd0_2 2.795464 1_555
Al0_6 Li0_5 2.434252 1_564
Al0_6 Li0_3 2.434252 1_554
Al0_6 Li0_7 2.434693 1_554
Al0_6 Pd0_0 2.790672 1_565
Al0_6 Pd0_3 2.790752 1_554
Al0_6 Pd0_5 2.790783 1_564
Al0_6 Pd0_2 2.793182 1_555
Al0_6 Pd0_4 2.793210 1_565
Al0_6 Pd0_1 2.795464 1_564
Al0_7 Li0_4 2.434252 1_565
Al0_7 Li0_2 2.434252 1_555
Al0_7 Li0_6 2.434693 1_555
Al0_7 Pd0_1 2.790672 1_565
Al0_7 Pd0_2 2.790752 1_555
Al0_7 Pd0_4 2.790783 1_565
Al0_7 Pd0_3 2.793182 1_555
Al0_7 Pd0_5 2.793210 1_565
Al0_7 Pd0_0 2.795464 1_565
Pd0_0 Pd0_1 2.735609 1_554
Pd0_0 Pd0_1 2.735609 1_555
Pd0_2 Pd0_3 2.735609 1_555
Pd0_2 Pd0_3 2.735609 1_554
Pd0_4 Pd0_5 2.735609 1_555
Pd0_4 Pd0_5 2.735609 1_554
Pd0_6 Pd0_7 2.735609 1_554
Pd0_6 Pd0_7 2.735609 1_555
