# generated using pymatgen
data_YbCu5S4
_symmetry_space_group_name_H-M   'P 1'
_cell_length_a   7.35492226
_cell_length_b   7.35492226
_cell_length_c   6.55657346
_cell_angle_alpha   64.13671311
_cell_angle_beta   64.13671311
_cell_angle_gamma   30.10506743
_symmetry_Int_Tables_number   1
_chemical_formula_structural   YbCu5S4
_chemical_formula_sum   'Yb1 Cu5 S4'
_cell_volume   158.71612005
_cell_formula_units_Z   1
loop_
 _symmetry_equiv_pos_site_id
 _symmetry_equiv_pos_as_xyz
  1  'x, y, z'
loop_
 _atom_site_type_symbol
 _atom_site_label
 _atom_site_symmetry_multiplicity
 _atom_site_fract_x
 _atom_site_fract_y
 _atom_site_fract_z
 _atom_site_occupancy
  Yb  Yb0  1  0.50000000  0.50000000  0.50000000  1
  Cu  Cu0  1  0.00000000  0.00000000  0.00000000  1
  Cu  Cu1  1  0.18646700  0.18646700  0.14638100  1
  Cu  Cu2  1  0.68514100  0.68514100  0.64697300  1
  Cu  Cu3  1  0.81353300  0.81353300  0.85361900  1
  Cu  Cu4  1  0.31485900  0.31485900  0.35302700  1
  S  S0  1  0.87497500  0.87497500  0.45142300  1
  S  S1  1  0.37723100  0.37723100  0.96412600  1
  S  S2  1  0.12502500  0.12502500  0.54857700  1
  S  S3  1  0.62276900  0.62276900  0.03587400  1
loop_
_geom_bond_atom_site_label_1
_geom_bond_atom_site_label_2
_geom_bond_distance
_geom_bond_site_symmetry_2
Cu0 S1 2.667542 1_454
Cu0 S3 2.667542 1_545
Cu0 S1 2.667542 1_544
Cu0 S3 2.667542 1_455
Cu0 S2 2.676837 1_554
Cu0 S0 2.676837 1_445
Cu1 S3 2.363156 1_455
Cu1 S3 2.363156 1_545
Cu1 S2 2.374094 1_555
Cu1 S1 2.417766 1_554
Cu2 S3 2.290354 1_556
Cu2 S2 2.300366 1_565
Cu2 S2 2.300366 1_655
Cu2 S0 2.406656 1_555
Cu3 S1 2.363156 1_565
Cu3 S1 2.363156 1_655
Cu3 S0 2.374094 1_555
Cu3 S3 2.417766 1_556
Cu4 S1 2.290354 1_554
Cu4 S0 2.300366 1_455
Cu4 S0 2.300366 1_545
Cu4 S2 2.406656 1_555
S0 Yb0 2.723077 1_655
S0 Yb0 2.723077 1_565
S1 Yb0 2.739907 1_555
S2 Yb0 2.723077 1_455
S2 Yb0 2.723077 1_545
S3 Yb0 2.739907 1_555
