# generated using pymatgen
data_Tl3Cu4As8Pb3S20
_symmetry_space_group_name_H-M   'P 1'
_cell_length_a   7.77736200
_cell_length_b   9.43509718
_cell_length_c   14.38925908
_cell_angle_alpha   75.21231402
_cell_angle_beta   77.57406628
_cell_angle_gamma   70.49501471
_symmetry_Int_Tables_number   1
_chemical_formula_structural   Tl3Cu4As8Pb3S20
_chemical_formula_sum   'Tl3 Cu4 As8 Pb3 S20'
_cell_volume   952.49237179
_cell_formula_units_Z   1
loop_
 _symmetry_equiv_pos_site_id
 _symmetry_equiv_pos_as_xyz
  1  'x, y, z'
loop_
 _atom_site_type_symbol
 _atom_site_label
 _atom_site_symmetry_multiplicity
 _atom_site_fract_x
 _atom_site_fract_y
 _atom_site_fract_z
 _atom_site_occupancy
  Tl  Tl0  1  0.39227400  0.22596200  0.91321900  1
  Tl  Tl1  1  0.11819200  0.29044300  0.58881100  1
  Tl  Tl2  1  0.50340200  0.19234400  0.22181800  1
  Cu  Cu0  1  0.52216200  0.45963200  0.60138900  1
  Cu  Cu1  1  0.03226600  0.96469600  0.09958900  1
  Cu  Cu2  1  0.95616500  0.04320300  0.90452700  1
  Cu  Cu3  1  0.47970100  0.52575000  0.39717700  1
  As  As0  1  0.11204700  0.66039900  0.96541900  1
  As  As1  1  0.61223000  0.14095200  0.48839500  1
  As  As2  1  0.72549100  0.39020400  0.81183500  1
  As  As3  1  0.76751800  0.10587200  0.70139000  1
  As  As4  1  0.23794200  0.88945500  0.30446900  1
  As  As5  1  0.26679200  0.60655600  0.18772700  1
  As  As6  1  0.39560800  0.84367400  0.51621600  1
  As  As7  1  0.89016600  0.35902200  0.02621100  1
  Pb  Pb0  1  0.48818300  0.79741500  0.76725300  1
  Pb  Pb1  1  0.89665400  0.75146400  0.39534100  1
  Pb  Pb2  1  0.59410700  0.74429000  0.10113000  1
  S  S0  1  0.27313100  0.58202000  0.83306000  1
  S  S1  1  0.21575200  0.86429600  0.96382800  1
  S  S2  1  0.46250100  0.24095600  0.69691600  1
  S  S3  1  0.70501200  0.55782500  0.66441500  1
  S  S4  1  0.78351000  0.06482000  0.34970300  1
  S  S5  1  0.70885500  0.54524500  0.91851000  1
  S  S6  1  0.78538700  0.94731400  0.59538200  1
  S  S7  1  0.71457600  0.35071200  0.47236500  1
  S  S8  1  0.76515300  0.94996300  0.84775000  1
  S  S9  1  0.02737000  0.25727300  0.80976200  1
  S  S10  1  0.96168400  0.75027000  0.19832600  1
  S  S11  1  0.23441200  0.04293400  0.15890100  1
  S  S12  1  0.28412400  0.64045800  0.52599300  1
  S  S13  1  0.23227800  0.04163700  0.40541900  1
  S  S14  1  0.26846000  0.45872900  0.08683600  1
  S  S15  1  0.22554600  0.93728100  0.64456200  1
  S  S16  1  0.28975200  0.44369100  0.33281900  1
  S  S17  1  0.54528700  0.74585400  0.29937400  1
  S  S18  1  0.78441400  0.14682300  0.04207400  1
  S  S19  1  0.74144500  0.44101700  0.16253700  1
loop_
_geom_bond_atom_site_label_1
_geom_bond_atom_site_label_2
_geom_bond_distance
_geom_bond_site_symmetry_2
Cu0 S2 2.297547 1_555
Cu0 S12 2.307691 1_555
Cu0 S7 2.343863 1_555
Cu0 S3 2.359421 1_555
Cu1 S18 2.258798 1_465
Cu1 S10 2.313356 1_455
Cu1 S11 2.327879 1_565
Cu1 S1 2.364778 1_554
Cu2 S9 2.293811 1_655
Cu2 S1 2.320306 1_645
Cu2 S8 2.325986 1_545
Cu2 S18 2.373875 1_556
Cu3 S7 2.271274 1_555
Cu3 S16 2.314738 1_555
Cu3 S17 2.336654 1_555
Cu3 S12 2.373205 1_555
As0 S0 2.194805 1_555
As0 S1 2.314677 1_555
As0 S14 2.413439 1_556
As1 S4 2.285153 1_555
As1 S6 2.309741 1_545
As1 S7 2.311618 1_555
As2 S9 2.260263 1_655
As2 S3 2.300211 1_555
As2 S5 2.333906 1_555
As3 S8 2.240417 1_545
As3 S2 2.293657 1_555
As3 S6 2.349248 1_545
As4 S11 2.221477 1_565
As4 S13 2.273450 1_565
As4 S17 2.316764 1_555
As4 Pb1 3.224175 1_455
As5 S14 2.250898 1_555
As5 S16 2.256425 1_555
As5 S10 2.300843 1_455
As5 Pb2 3.120766 1_555
As6 S15 2.222934 1_555
As6 S12 2.316853 1_555
As6 S13 2.326176 1_565
As7 S19 2.232722 1_555
As7 S5 2.318028 1_554
As7 S18 2.350017 1_555
Pb0 S15 2.755564 1_555
Pb0 S3 2.869084 1_555
Pb0 S0 2.903454 1_555
Pb0 S5 3.095268 1_555
Pb0 S1 3.213631 1_555
Pb1 S4 2.732579 1_565
Pb1 S10 2.772732 1_555
Pb2 S19 2.690171 1_555
Pb2 S17 2.798794 1_555
S0 Tl0 3.142938 1_555
S2 Tl0 3.016762 1_555
S2 Tl1 3.224187 1_555
S4 Tl2 2.902481 1_555
S9 Tl1 3.062385 1_555
S14 Tl2 3.065430 1_555
S15 Tl1 3.083757 1_565
S16 Tl2 3.015972 1_555
S18 Tl2 3.026217 1_555
