# generated using pymatgen
data_SiO2
_symmetry_space_group_name_H-M   'P 1'
_cell_length_a   4.93388100
_cell_length_b   6.78052755
_cell_length_c   7.00450080
_cell_angle_alpha   117.20759694
_cell_angle_beta   96.35381525
_cell_angle_gamma   103.41653066
_symmetry_Int_Tables_number   1
_chemical_formula_structural   SiO2
_chemical_formula_sum   'Si4 O8'
_cell_volume   196.24950238
_cell_formula_units_Z   4
loop_
 _symmetry_equiv_pos_site_id
 _symmetry_equiv_pos_as_xyz
  1  'x, y, z'
loop_
 _atom_site_type_symbol
 _atom_site_label
 _atom_site_symmetry_multiplicity
 _atom_site_fract_x
 _atom_site_fract_y
 _atom_site_fract_z
 _atom_site_occupancy
  Si  Si0  1  0.10374600  0.05092700  0.52647500  1
  Si  Si1  1  0.95551400  0.79916500  0.24166000  1
  Si  Si2  1  0.68997900  0.11090300  0.75277300  1
  Si  Si3  1  0.44344400  0.49690300  0.37289300  1
  O  O0  1  0.60952200  0.37713900  0.64073300  1
  O  O1  1  0.97261400  0.86495300  0.43420700  1
  O  O2  1  0.88983900  0.02700400  0.00296000  1
  O  O3  1  0.69382100  0.59990300  0.23805600  1
  O  O4  1  0.85427800  0.09666200  0.59765800  1
  O  O5  1  0.37917500  0.95547600  0.74405200  1
  O  O6  1  0.26125400  0.70809800  0.29264400  1
  O  O7  1  0.22376700  0.28961400  0.33363900  1
loop_
_geom_bond_atom_site_label_1
_geom_bond_atom_site_label_2
_geom_bond_distance
_geom_bond_site_symmetry_2
O0 Si2 2.364607 1_555
O0 Si3 2.492438 1_555
O1 Si0 1.100010 1_665
O1 Si1 1.196783 1_555
O2 Si2 2.270788 1_554
O3 Si1 1.626427 1_555
O3 Si3 1.834899 1_555
O4 Si2 1.407930 1_555
O4 Si0 1.425245 1_655
O5 Si2 1.623687 1_565
O6 Si1 1.816316 1_455
O6 Si3 2.096720 1_555
O7 Si3 1.448990 1_555
