# generated using pymatgen
data_Ho3(NiRu2)2
_symmetry_space_group_name_H-M   'P 1'
_cell_length_a   5.19524558
_cell_length_b   5.21252523
_cell_length_c   12.69134937
_cell_angle_alpha   89.90245947
_cell_angle_beta   91.59037082
_cell_angle_gamma   119.65239710
_symmetry_Int_Tables_number   1
_chemical_formula_structural   Ho3(NiRu2)2
_chemical_formula_sum   'Ho6 Ni4 Ru8'
_cell_volume   298.53433257
_cell_formula_units_Z   2
loop_
 _symmetry_equiv_pos_site_id
 _symmetry_equiv_pos_as_xyz
  1  'x, y, z'
loop_
 _atom_site_type_symbol
 _atom_site_label
 _atom_site_symmetry_multiplicity
 _atom_site_fract_x
 _atom_site_fract_y
 _atom_site_fract_z
 _atom_site_occupancy
  Ho  Ho0  1  0.66454803  0.33976667  0.20566973  1
  Ho  Ho1  1  0.01061426  0.00312228  0.87526458  1
  Ho  Ho2  1  0.33667514  0.67094746  0.54159596  1
  Ho  Ho3  1  0.66332486  0.32905254  0.45840404  1
  Ho  Ho4  1  0.98938574  0.99687772  0.12473542  1
  Ho  Ho5  1  0.33545197  0.66023333  0.79433027  1
  Ni  Ni0  1  0.50000000  -0.00000000  0.00000000  1
  Ni  Ni1  1  0.83555644  0.66747838  0.66673846  1
  Ni  Ni2  1  0.16444356  0.33252162  0.33326154  1
  Ni  Ni3  1  0.50000000  0.50000000  0.00000000  1
  Ru  Ru0  1  0.83268204  0.16624314  0.66808277  1
  Ru  Ru1  1  0.16731796  0.83375686  0.33191723  1
  Ru  Ru2  1  0.67533775  0.33684800  0.83681108  1
  Ru  Ru3  1  -0.00000000  -0.00000000  0.50000000  1
  Ru  Ru4  1  0.32466225  0.66315200  0.16318892  1
  Ru  Ru5  1  -0.00000000  0.50000000  0.00000000  1
  Ru  Ru6  1  0.33631597  0.16522681  0.66803658  1
  Ru  Ru7  1  0.66368403  0.83477319  0.33196342  1
loop_
_geom_bond_atom_site_label_1
_geom_bond_atom_site_label_2
_geom_bond_distance
_geom_bond_site_symmetry_2
Ho0 Ni3 2.969323 1_555
Ho0 Ni0 3.012388 1_555
Ho0 Ru4 3.023137 1_555
Ho0 Ru1 3.024383 1_655
Ho0 Ni2 3.038392 1_655
Ho0 Ru7 3.041818 1_555
Ho0 Ru4 3.045124 1_655
Ho0 Ru5 3.058249 1_655
Ho0 Ru7 3.077728 1_545
Ho0 Ni2 3.083877 1_555
Ho0 Ru4 3.104670 1_545
Ho0 Ru1 3.109782 1_545
Ho1 Ni0 2.964455 1_556
Ho1 Ni3 2.992189 1_556
Ho1 Ru0 3.021010 1_455
Ho1 Ni1 3.033095 1_445
Ho1 Ru5 3.038822 1_546
Ho1 Ru2 3.040773 1_455
Ho1 Ru2 3.050674 1_445
Ho1 Ru6 3.052675 1_555
Ho1 Ru2 3.055604 1_555
Ho1 Ru5 3.062235 1_556
Ho1 Ni0 3.119906 1_456
Ho1 Ni3 3.123487 1_446
Ho2 Ni1 3.009662 1_555
Ho2 Ru0 3.014023 1_565
Ho2 Ru1 3.029356 1_555
Ho2 Ru3 3.032180 1_565
Ho2 Ni2 3.037470 1_555
Ho2 Ru6 3.038443 1_565
Ho2 Ru3 3.057083 1_665
Ho2 Ru3 3.077597 1_555
Ho2 Ni1 3.079529 1_455
Ho2 Ru7 3.082448 1_555
Ho2 Ru6 3.083001 1_555
Ho2 Ru0 3.123605 1_455
Ho3 Ni2 3.009662 1_555
Ho3 Ru1 3.014023 1_545
Ho3 Ru0 3.029356 1_555
Ho3 Ru3 3.032180 1_655
Ho3 Ni1 3.037470 1_555
Ho3 Ru7 3.038443 1_545
Ho3 Ru3 3.057083 1_555
Ho3 Ru3 3.077597 1_665
Ho3 Ni2 3.079529 1_655
Ho3 Ru6 3.082448 1_555
Ho3 Ru7 3.083001 1_555
Ho3 Ru1 3.123605 1_655
Ho4 Ni0 2.964455 1_565
Ho4 Ni3 2.992189 1_555
Ho4 Ru1 3.021010 1_655
Ho4 Ni2 3.033095 1_665
Ho4 Ru5 3.038822 1_665
Ho4 Ru4 3.040773 1_655
Ho4 Ru4 3.050674 1_665
Ho4 Ru7 3.052675 1_555
Ho4 Ru4 3.055604 1_555
Ho4 Ru5 3.062235 1_655
Ho4 Ni0 3.119906 1_665
Ho4 Ni3 3.123487 1_665
Ho5 Ni3 2.969323 1_556
Ho5 Ni0 3.012388 1_566
Ho5 Ru2 3.023137 1_555
Ho5 Ru0 3.024383 1_455
Ho5 Ni1 3.038392 1_455
Ho5 Ru6 3.041818 1_555
Ho5 Ru2 3.045124 1_455
Ho5 Ru5 3.058249 1_556
Ho5 Ru6 3.077728 1_565
Ho5 Ni1 3.083877 1_555
Ho5 Ru2 3.104670 1_565
Ho5 Ru0 3.109782 1_565
Ni0 Ru2 2.590727 1_554
Ni0 Ru4 2.590727 1_545
Ni0 Ni3 2.606263 1_555
Ni0 Ni3 2.606263 1_545
Ni0 Ru5 2.615612 1_655
Ni0 Ru5 2.615612 1_545
Ni1 Ru0 2.605375 1_555
Ni1 Ru0 2.607332 1_565
Ni1 Ru6 2.611317 1_665
Ni1 Ru3 2.614349 1_665
Ni1 Ru6 2.620078 1_555
Ni1 Ru2 2.643778 1_555
Ni2 Ru1 2.605375 1_555
Ni2 Ru1 2.607332 1_545
Ni2 Ru7 2.611317 1_445
Ni2 Ru3 2.614349 1_555
Ni2 Ru7 2.620078 1_555
Ni2 Ru4 2.643778 1_555
Ni3 Ru2 2.592231 1_554
Ni3 Ru4 2.592231 1_555
Ni3 Ru5 2.597623 1_655
Ni3 Ru5 2.597623 1_555
Ru0 Ru6 2.576111 1_555
Ru0 Ru6 2.619143 1_655
Ru0 Ru2 2.620595 1_555
Ru0 Ru3 2.628990 1_655
Ru1 Ru7 2.576111 1_555
Ru1 Ru7 2.619143 1_455
Ru1 Ru4 2.620595 1_555
Ru1 Ru3 2.628990 1_565
Ru2 Ru5 2.500073 1_656
Ru2 Ru6 2.593953 1_555
Ru3 Ru6 2.579359 1_555
Ru3 Ru7 2.579359 1_445
Ru4 Ru5 2.500073 1_555
Ru4 Ru7 2.593953 1_555
