# generated using pymatgen
data_LiHoO2
_symmetry_space_group_name_H-M   'P 1'
_cell_length_a   6.13272920
_cell_length_b   6.09408225
_cell_length_c   6.21705304
_cell_angle_alpha   90.00000000
_cell_angle_beta   119.33617399
_cell_angle_gamma   90.00000000
_symmetry_Int_Tables_number   1
_chemical_formula_structural   LiHoO2
_chemical_formula_sum   'Li4 Ho4 O8'
_cell_volume   202.55532813
_cell_formula_units_Z   4
loop_
 _symmetry_equiv_pos_site_id
 _symmetry_equiv_pos_as_xyz
  1  'x, y, z'
loop_
 _atom_site_type_symbol
 _atom_site_label
 _atom_site_symmetry_multiplicity
 _atom_site_fract_x
 _atom_site_fract_y
 _atom_site_fract_z
 _atom_site_occupancy
  Li  Li0  1  0.29347076  0.65644590  0.06284651  1
  Li  Li1  1  0.70652924  0.15644590  0.43715349  1
  Li  Li2  1  0.70652924  0.34355410  0.93715349  1
  Li  Li3  1  0.29347076  0.84355410  0.56284651  1
  Ho  Ho0  1  0.23284582  0.13076975  0.97744528  1
  Ho  Ho1  1  0.23284582  0.36923025  0.47744528  1
  Ho  Ho2  1  0.76715418  0.86923025  0.02255472  1
  Ho  Ho3  1  0.76715418  0.63076975  0.52255472  1
  O  O0  1  0.45395118  0.39170778  0.26294919  1
  O  O1  1  0.98787530  0.17294070  0.15330181  1
  O  O2  1  0.54604882  0.89170778  0.23705081  1
  O  O3  1  0.54604882  0.60829222  0.73705081  1
  O  O4  1  0.01212470  0.82705930  0.84669819  1
  O  O5  1  0.01212470  0.67294070  0.34669819  1
  O  O6  1  0.98787530  0.32705930  0.65330181  1
  O  O7  1  0.45395118  0.10829222  0.76294919  1
loop_
_geom_bond_atom_site_label_1
_geom_bond_atom_site_label_2
_geom_bond_distance
_geom_bond_site_symmetry_2
Li0 O4 1.895253 1_554
Li0 O0 1.979749 1_555
Li0 O2 1.996001 1_555
Li1 O6 1.895253 1_555
Li1 O2 1.979749 1_545
Li1 O0 1.996001 1_555
Li2 O1 1.895253 1_556
Li2 O3 1.979749 1_555
Li2 O7 1.996001 1_555
Li3 O5 1.895253 1_555
Li3 O7 1.979749 1_565
Li3 O3 1.996001 1_555
Ho0 O6 2.186880 1_455
Ho0 O4 2.200109 1_545
Ho0 O1 2.264473 1_456
Ho0 O0 2.271465 1_556
Ho0 O2 2.319293 1_546
Ho0 O7 2.325423 1_555
Ho1 O1 2.186880 1_455
Ho1 O5 2.200109 1_555
Ho1 O6 2.264473 1_455
Ho1 O7 2.271465 1_555
Ho1 O3 2.319293 1_555
Ho1 O0 2.325423 1_555
Ho2 O5 2.186880 1_655
Ho2 O1 2.200109 1_565
Ho2 O4 2.264473 1_654
Ho2 O3 2.271465 1_554
Ho2 O7 2.319293 1_564
Ho2 O2 2.325423 1_555
Ho3 O4 2.186880 1_655
Ho3 O6 2.200109 1_555
Ho3 O5 2.264473 1_655
Ho3 O2 2.271465 1_555
Ho3 O0 2.319293 1_555
Ho3 O3 2.325423 1_555
