# generated using pymatgen
data_Cs2Si(S2O7)3
_symmetry_space_group_name_H-M   'P 1'
_cell_length_a   17.15469879
_cell_length_b   17.15469980
_cell_length_c   12.00814495
_cell_angle_alpha   89.99998828
_cell_angle_beta   89.99993637
_cell_angle_gamma   120.00005092
_symmetry_Int_Tables_number   1
_chemical_formula_structural   Cs2Si(S2O7)3
_chemical_formula_sum   'Cs12 Si6 S36 O126'
_cell_volume   3060.36023149
_cell_formula_units_Z   6
loop_
 _symmetry_equiv_pos_site_id
 _symmetry_equiv_pos_as_xyz
  1  'x, y, z'
loop_
 _atom_site_type_symbol
 _atom_site_label
 _atom_site_symmetry_multiplicity
 _atom_site_fract_x
 _atom_site_fract_y
 _atom_site_fract_z
 _atom_site_occupancy
  Cs  Cs0  1  0.69457724  0.00591793  0.41889330  1
  Cs  Cs1  1  0.31133785  0.30542496  0.41889524  1
  Cs  Cs2  1  0.99408559  0.68865336  0.41889770  1
  Cs  Cs3  1  0.30542276  0.99408207  0.58110670  1
  Cs  Cs4  1  0.68866215  0.69457504  0.58110476  1
  Cs  Cs5  1  0.00591441  0.31134664  0.58110230  1
  Cs  Cs6  1  0.64261669  0.99323815  0.92258561  1
  Cs  Cs7  1  0.35061925  0.35738506  0.92258312  1
  Cs  Cs8  1  0.00676361  0.64937687  0.92258392  1
  Cs  Cs9  1  0.35738331  0.00676185  0.07741439  1
  Cs  Cs10  1  0.64938075  0.64261494  0.07741688  1
  Cs  Cs11  1  0.99323639  0.35062313  0.07741608  1
  Si  Si0  1  0.99999996  0.99999995  0.20915687  1
  Si  Si1  1  0.00000004  0.00000005  0.79084313  1
  Si  Si2  1  0.33333568  0.66666799  0.28310887  1
  Si  Si3  1  0.66666432  0.33333201  0.71689113  1
  Si  Si4  1  0.66666389  0.33333173  0.28113843  1
  Si  Si5  1  0.33333611  0.66666827  0.71886157  1
  S  S0  1  0.80892357  0.94257640  0.13076976  1
  S  S1  1  0.13365280  0.19107685  0.13076965  1
  S  S2  1  0.05742304  0.86634665  0.13077153  1
  S  S3  1  0.19107643  0.05742360  0.86923024  1
  S  S4  1  0.86634720  0.80892315  0.86923035  1
  S  S5  1  0.94257696  0.13365335  0.86922847  1
  S  S6  1  0.82717078  0.85005542  0.32248661  1
  S  S7  1  0.02288479  0.17282917  0.32248763  1
  S  S8  1  0.14994345  0.97711430  0.32248709  1
  S  S9  1  0.17282922  0.14994458  0.67751339  1
  S  S10  1  0.97711521  0.82717083  0.67751237  1
  S  S11  1  0.85005655  0.02288570  0.67751291  1
  S  S12  1  0.61899758  0.14530161  0.63406610  1
  S  S13  1  0.52630165  0.38099990  0.63406631  1
  S  S14  1  0.85469425  0.47369483  0.63406513  1
  S  S15  1  0.38100242  0.85469839  0.36593390  1
  S  S16  1  0.47369835  0.61900010  0.36593369  1
  S  S17  1  0.14530575  0.52630517  0.36593487  1
  S  S18  1  0.48291497  0.84568646  0.17871261  1
  S  S19  1  0.36277439  0.51708731  0.17871274  1
  S  S20  1  0.15431745  0.63722931  0.17871345  1
  S  S21  1  0.51708503  0.15431354  0.82128739  1
  S  S22  1  0.63722561  0.48291269  0.82128726  1
  S  S23  1  0.84568255  0.36277069  0.82128655  1
  S  S24  1  0.47796170  0.19266649  0.36071102  1
  S  S25  1  0.71470253  0.52203432  0.36071067  1
  S  S26  1  0.80732966  0.28529571  0.36071120  1
  S  S27  1  0.52203830  0.80733351  0.63928898  1
  S  S28  1  0.28529747  0.47796568  0.63928933  1
  S  S29  1  0.19267034  0.71470429  0.63928880  1
  S  S30  1  0.29875629  0.80772056  0.83496453  1
  S  S31  1  0.50896939  0.70124863  0.83496463  1
  S  S32  1  0.19228150  0.49103453  0.83496287  1
  S  S33  1  0.70124371  0.19227944  0.16503547  1
  S  S34  1  0.49103061  0.29875137  0.16503537  1
  S  S35  1  0.80771850  0.50896547  0.16503713  1
  O  O0  1  0.78716926  0.99882484  0.19644742  1
  O  O1  1  0.21165580  0.21283051  0.19644805  1
  O  O2  1  0.00117588  0.78834540  0.19644760  1
  O  O3  1  0.21283074  0.00117516  0.80355258  1
  O  O4  1  0.78834420  0.78716949  0.80355195  1
  O  O5  1  0.99882412  0.21165460  0.80355240  1
  O  O6  1  0.90975284  0.98107303  0.11882617  1
  O  O7  1  0.07132011  0.09024729  0.11882654  1
  O  O8  1  0.01892734  0.92868038  0.11882626  1
  O  O9  1  0.09024716  0.01892697  0.88117383  1
  O  O10  1  0.92867989  0.90975271  0.88117346  1
  O  O11  1  0.98107266  0.07131962  0.88117374  1
  O  O12  1  0.76578245  0.90893224  0.02563454  1
  O  O13  1  0.14315006  0.23421746  0.02563545  1
  O  O14  1  0.09106823  0.85685077  0.02563439  1
  O  O15  1  0.23421755  0.09106776  0.97436546  1
  O  O16  1  0.85684994  0.76578254  0.97436455  1
  O  O17  1  0.90893177  0.14314923  0.97436561  1
  O  O18  1  0.92709601  0.90778961  0.29703346  1
  O  O19  1  0.98069328  0.07290400  0.29703357  1
  O  O20  1  0.09220991  0.01930641  0.29703346  1
  O  O21  1  0.07290399  0.09221039  0.70296654  1
  O  O22  1  0.01930672  0.92709600  0.70296643  1
  O  O23  1  0.90779009  0.98069359  0.70296654  1
  O  O24  1  0.79806104  0.89087168  0.40482244  1
  O  O25  1  0.09280994  0.20193879  0.40482324  1
  O  O26  1  0.10912845  0.90718966  0.40482142  1
  O  O27  1  0.20193896  0.10912832  0.59517756  1
  O  O28  1  0.90719006  0.79806121  0.59517676  1
  O  O29  1  0.89087155  0.09281034  0.59517858  1
  O  O30  1  0.77904256  0.84826116  0.20206305  1
  O  O31  1  0.06921882  0.22095783  0.20206335  1
  O  O32  1  0.15173934  0.93078205  0.20206243  1
  O  O33  1  0.22095744  0.15173884  0.79793695  1
  O  O34  1  0.93078118  0.77904217  0.79793665  1
  O  O35  1  0.84826066  0.06921795  0.79793757  1
  O  O36  1  0.52145929  0.11266043  0.69773596  1
  O  O37  1  0.59120080  0.47853913  0.69773570  1
  O  O38  1  0.88733327  0.40879601  0.69773458  1
  O  O39  1  0.47854071  0.88733957  0.30226404  1
  O  O40  1  0.40879920  0.52146087  0.30226430  1
  O  O41  1  0.11266673  0.59120399  0.30226542  1
  O  O42  1  0.65790434  0.24661616  0.62656249  1
  O  O43  1  0.58870720  0.34209047  0.62656322  1
  O  O44  1  0.75337905  0.41128885  0.62656336  1
  O  O45  1  0.34209566  0.75338384  0.37343751  1
  O  O46  1  0.41129280  0.65790953  0.37343678  1
  O  O47  1  0.24662095  0.58871115  0.37343664  1
  O  O48  1  0.59147194  0.10595411  0.52569523  1
  O  O49  1  0.51448206  0.40852694  0.52569508  1
  O  O50  1  0.89404132  0.48551687  0.52569541  1
  O  O51  1  0.40852806  0.89404589  0.47430477  1
  O  O52  1  0.48551794  0.59147306  0.47430492  1
  O  O53  1  0.10595868  0.51448313  0.47430459  1
  O  O54  1  0.42190813  0.74488002  0.19438155  1
  O  O55  1  0.32297799  0.57809747  0.19438008  1
  O  O56  1  0.25512419  0.67702809  0.19438063  1
  O  O57  1  0.57809187  0.25511998  0.80561845  1
  O  O58  1  0.67702201  0.42190253  0.80561992  1
  O  O59  1  0.74487581  0.32297191  0.80561937  1
  O  O60  1  0.67189404  0.12122944  0.70303039  1
  O  O61  1  0.44933290  0.32810630  0.70303154  1
  O  O62  1  0.87876785  0.55066407  0.70303145  1
  O  O63  1  0.32810596  0.87877056  0.29696961  1
  O  O64  1  0.55066710  0.67189370  0.29696846  1
  O  O65  1  0.12123215  0.44933593  0.29696855  1
  O  O66  1  0.44785810  0.88049688  0.09597371  1
  O  O67  1  0.43264057  0.55214163  0.09597220  1
  O  O68  1  0.11950632  0.56736198  0.09597421  1
  O  O69  1  0.55214190  0.11950312  0.90402629  1
  O  O70  1  0.56735943  0.44785837  0.90402780  1
  O  O71  1  0.88049368  0.43263802  0.90402579  1
  O  O72  1  0.57540424  0.86907698  0.17264003  1
  O  O73  1  0.29367387  0.42459989  0.17264111  1
  O  O74  1  0.13092819  0.70632826  0.17264269  1
  O  O75  1  0.42459576  0.13092302  0.82735997  1
  O  O76  1  0.70632613  0.57540011  0.82735889  1
  O  O77  1  0.86907181  0.29367174  0.82735731  1
  O  O78  1  0.80355628  0.75796833  0.33624057  1
  O  O79  1  0.95441243  0.19644475  0.33624362  1
  O  O80  1  0.24203196  0.04558787  0.33624056  1
  O  O81  1  0.19644372  0.24203167  0.66375943  1
  O  O82  1  0.04558757  0.80355525  0.66375638  1
  O  O83  1  0.75796804  0.95441213  0.66375944  1
  O  O84  1  0.57800454  0.25881202  0.37191438  1
  O  O85  1  0.68080218  0.42199122  0.37191370  1
  O  O86  1  0.74118408  0.31919258  0.37191496  1
  O  O87  1  0.42199546  0.74118798  0.62808562  1
  O  O88  1  0.31919782  0.57800878  0.62808630  1
  O  O89  1  0.25881592  0.68080742  0.62808504  1
  O  O90  1  0.34875457  0.75790904  0.80587575  1
  O  O91  1  0.40915872  0.65125065  0.80587562  1
  O  O92  1  0.24209624  0.59084550  0.80587677  1
  O  O93  1  0.65124543  0.24209096  0.19412425  1
  O  O94  1  0.59084128  0.34874935  0.19412438  1
  O  O95  1  0.75790376  0.40915450  0.19412323  1
  O  O96  1  0.43417255  0.18424825  0.46535161  1
  O  O97  1  0.75007392  0.56582279  0.46535154  1
  O  O98  1  0.81575038  0.24992625  0.46535189  1
  O  O99  1  0.56582745  0.81575175  0.53464839  1
  O  O100  1  0.24992608  0.43417721  0.53464846  1
  O  O101  1  0.18424962  0.75007375  0.53464811  1
  O  O102  1  0.45922527  0.11357908  0.29937254  1
  O  O103  1  0.65435321  0.54077288  0.29937175  1
  O  O104  1  0.88641693  0.34564759  0.29937308  1
  O  O105  1  0.54077473  0.88642092  0.70062746  1
  O  O106  1  0.34564679  0.45922712  0.70062825  1
  O  O107  1  0.11358307  0.65435241  0.70062692  1
  O  O108  1  0.44331888  0.25116094  0.28577527  1
  O  O109  1  0.80783958  0.55667536  0.28577651  1
  O  O110  1  0.74883555  0.19215989  0.28577575  1
  O  O111  1  0.55668112  0.74883906  0.71422473  1
  O  O112  1  0.19216042  0.44332464  0.71422349  1
  O  O113  1  0.25116445  0.80784011  0.71422425  1
  O  O114  1  0.36138974  0.90150569  0.85052395  1
  O  O115  1  0.54011851  0.63861226  0.85052469  1
  O  O116  1  0.09849763  0.45988669  0.85052274  1
  O  O117  1  0.63861026  0.09849431  0.14947605  1
  O  O118  1  0.45988149  0.36138774  0.14947531  1
  O  O119  1  0.90150237  0.54011331  0.14947726  1
  O  O120  1  0.22898263  0.76023034  0.91538469  1
  O  O121  1  0.53125237  0.77101997  0.91538570  1
  O  O122  1  0.23977010  0.46875016  0.91538538  1
  O  O123  1  0.77101737  0.23976966  0.08461531  1
  O  O124  1  0.46874763  0.22898003  0.08461430  1
  O  O125  1  0.76022990  0.53124984  0.08461462  1
loop_
_geom_bond_atom_site_label_1
_geom_bond_atom_site_label_2
_geom_bond_distance
_geom_bond_site_symmetry_2
Cs0 O0 3.141044 1_545
Cs0 O99 3.201144 1_545
Cs0 O24 3.252478 1_545
Cs0 O110 3.264245 1_555
Cs0 O48 3.279256 1_555
Cs0 O83 3.401465 1_545
Cs0 O39 3.506463 1_545
Cs0 O29 3.608707 1_555
Cs0 O98 3.667789 1_555
Cs0 O72 3.692572 1_545
Cs1 O1 3.141054 1_555
Cs1 O100 3.201120 1_555
Cs1 O25 3.252443 1_555
Cs1 O108 3.264284 1_555
Cs1 O49 3.279283 1_555
Cs1 O81 3.401424 1_555
Cs1 O40 3.506457 1_555
Cs1 O27 3.608706 1_555
Cs1 O96 3.667833 1_555
Cs1 O73 3.692575 1_555
Cs2 O2 3.141162 1_655
Cs2 O101 3.201079 1_655
Cs2 O26 3.252568 1_655
Cs2 O109 3.264292 1_555
Cs2 O50 3.279164 1_555
Cs2 O82 3.401430 1_655
Cs2 O41 3.506400 1_655
Cs2 O28 3.608772 1_555
Cs2 O97 3.667828 1_555
Cs2 O74 3.692574 1_655
Cs3 O3 3.141044 1_565
Cs3 O96 3.201144 1_565
Cs3 O27 3.252478 1_565
Cs3 O113 3.264245 1_555
Cs3 O51 3.279256 1_555
Cs3 O80 3.401465 1_565
Cs3 O36 3.506463 1_565
Cs3 O26 3.608707 1_555
Cs3 O101 3.667789 1_555
Cs3 O75 3.692572 1_565
Cs4 O4 3.141054 1_555
Cs4 O97 3.201120 1_555
Cs4 O28 3.252443 1_555
Cs4 O111 3.264284 1_555
Cs4 O52 3.279283 1_555
Cs4 O78 3.401424 1_555
Cs4 O37 3.506457 1_555
Cs4 O24 3.608706 1_555
Cs4 O99 3.667833 1_555
Cs4 O76 3.692575 1_555
Cs5 O5 3.141162 1_455
Cs5 O98 3.201079 1_455
Cs5 O29 3.252568 1_455
Cs5 O112 3.264292 1_555
Cs5 O53 3.279164 1_555
Cs5 O79 3.401430 1_455
Cs5 O38 3.506400 1_455
Cs5 O25 3.608772 1_555
Cs5 O100 3.667828 1_555
Cs5 O77 3.692574 1_455
Cs6 O105 3.211309 1_555
Cs6 O69 3.242244 1_565
Cs6 O117 3.288196 1_566
Cs6 O121 3.302497 1_555
Cs6 O60 3.304732 1_565
Cs6 O12 3.338084 1_556
Cs6 O35 3.433106 1_565
Cs6 O72 3.525108 1_556
Cs6 O66 3.574391 1_556
Cs7 O106 3.211261 1_555
Cs7 O70 3.242247 1_555
Cs7 O118 3.288229 1_556
Cs7 O122 3.302440 1_555
Cs7 O61 3.304703 1_555
Cs7 O13 3.338065 1_556
Cs7 O33 3.433121 1_555
Cs7 O73 3.525140 1_556
Cs7 O67 3.574371 1_556
Cs8 O107 3.211315 1_555
Cs8 O71 3.242236 1_455
Cs8 O119 3.288250 1_456
Cs8 O120 3.302509 1_555
Cs8 O62 3.304735 1_455
Cs8 O14 3.338124 1_556
Cs8 O34 3.433154 1_455
Cs8 O74 3.525183 1_556
Cs8 O68 3.574402 1_556
Cs9 O102 3.211309 1_555
Cs9 O66 3.242244 1_545
Cs9 O114 3.288196 1_544
Cs9 O124 3.302497 1_555
Cs9 O63 3.304732 1_545
Cs9 O15 3.338084 1_554
Cs9 O32 3.433106 1_545
Cs9 O75 3.525108 1_554
Cs9 O69 3.574391 1_554
Cs10 O103 3.211261 1_555
Cs10 O67 3.242247 1_555
Cs10 O115 3.288229 1_554
Cs10 O125 3.302440 1_555
Cs10 O64 3.304703 1_555
Cs10 O16 3.338065 1_554
Cs10 O30 3.433121 1_555
Cs10 O76 3.525140 1_554
Cs10 O70 3.574371 1_554
Cs11 O104 3.211315 1_555
Cs11 O68 3.242236 1_655
Cs11 O116 3.288250 1_654
Cs11 O123 3.302509 1_555
Cs11 O65 3.304735 1_655
Cs11 O17 3.338124 1_554
Cs11 O31 3.433154 1_655
Cs11 O77 3.525183 1_554
Cs11 O71 3.574402 1_554
O0 S0 1.432636 1_555
O1 S1 1.432647 1_555
O2 S2 1.432604 1_555
O3 S3 1.432636 1_555
O4 S4 1.432647 1_555
O5 S5 1.432604 1_555
O6 S0 1.518635 1_555
O6 Si0 1.782175 1_555
O7 S1 1.518639 1_555
O7 Si0 1.782171 1_445
O8 S2 1.518643 1_555
O8 Si0 1.782169 1_455
O9 S3 1.518635 1_555
O9 Si1 1.782175 1_555
O10 S4 1.518639 1_555
O10 Si1 1.782171 1_665
O11 S5 1.518643 1_555
O11 Si1 1.782169 1_655
O12 S0 1.430921 1_555
O13 S1 1.430904 1_555
O14 S2 1.430942 1_555
O15 S3 1.430921 1_555
O16 S4 1.430904 1_555
O17 S5 1.430942 1_555
O18 S6 1.521518 1_555
O18 Si0 1.789281 1_555
O19 S7 1.521520 1_655
O19 Si0 1.789288 1_545
O20 S8 1.521526 1_545
O20 Si0 1.789278 1_445
O21 S9 1.521518 1_555
O21 Si1 1.789281 1_555
O22 S10 1.521520 1_455
O22 Si1 1.789288 1_565
O23 S11 1.521526 1_565
O23 Si1 1.789278 1_665
O24 S6 1.437643 1_555
O25 S7 1.437633 1_555
O26 S8 1.437615 1_555
O27 S9 1.437643 1_555
O28 S10 1.437633 1_555
O29 S11 1.437615 1_555
O30 S6 1.657798 1_555
O30 S0 1.668551 1_555
O31 S7 1.657806 1_555
O31 S1 1.668551 1_555
O32 S8 1.657802 1_555
O32 S2 1.668553 1_555
O33 S9 1.657798 1_555
O33 S3 1.668551 1_555
O34 S10 1.657806 1_555
O34 S4 1.668551 1_555
O35 S11 1.657802 1_555
O35 S5 1.668553 1_555
O36 S12 1.661592 1_555
O36 S21 1.664622 1_555
O37 S13 1.661607 1_555
O37 S22 1.664606 1_555
O38 S14 1.661591 1_555
O38 S23 1.664609 1_555
O39 S15 1.661592 1_555
O39 S18 1.664622 1_555
O40 S16 1.661607 1_555
O40 S19 1.664606 1_555
O41 S17 1.661591 1_555
O41 S20 1.664609 1_555
O42 S12 1.521278 1_555
O42 Si3 1.785630 1_555
O43 S13 1.521279 1_555
O43 Si3 1.785630 1_555
O44 S14 1.521281 1_555
O44 Si3 1.785618 1_555
O45 S15 1.521278 1_555
O45 Si2 1.785630 1_555
O46 S16 1.521279 1_555
O46 Si2 1.785630 1_555
O47 S17 1.521281 1_555
O47 Si2 1.785618 1_555
O48 S12 1.432943 1_555
O49 S13 1.432944 1_555
O50 S14 1.432926 1_555
O51 S15 1.432943 1_555
O52 S16 1.432944 1_555
O53 S17 1.432926 1_555
O54 S18 1.520315 1_555
O54 Si2 1.790362 1_555
O55 S19 1.520322 1_555
O55 Si2 1.790363 1_555
O56 S20 1.520319 1_555
O56 Si2 1.790361 1_555
O57 S21 1.520315 1_555
O57 Si3 1.790362 1_555
O58 S22 1.520322 1_555
O58 Si3 1.790363 1_555
O59 S23 1.520319 1_555
O59 Si3 1.790361 1_555
O60 S12 1.433343 1_555
O61 S13 1.433340 1_555
O62 S14 1.433360 1_555
O63 S15 1.433343 1_555
O64 S16 1.433340 1_555
O65 S17 1.433360 1_555
O66 S18 1.436846 1_555
O67 S19 1.436845 1_555
O68 S20 1.436848 1_555
O69 S21 1.436846 1_555
O70 S22 1.436845 1_555
O71 S23 1.436848 1_555
O72 S18 1.430755 1_555
O73 S19 1.430740 1_555
O74 S20 1.430743 1_555
O75 S21 1.430755 1_555
O76 S22 1.430740 1_555
O77 S23 1.430743 1_555
O78 S6 1.430724 1_555
O79 S7 1.430736 1_655
O80 S8 1.430744 1_545
O81 S9 1.430724 1_555
O82 S10 1.430736 1_455
O83 S11 1.430744 1_565
O84 S24 1.517770 1_555
O84 Si4 1.786430 1_555
O85 S25 1.517765 1_555
O85 Si4 1.786436 1_555
O86 S26 1.517766 1_555
O86 Si4 1.786440 1_555
O87 S27 1.517770 1_555
O87 Si5 1.786430 1_555
O88 S28 1.517765 1_555
O88 Si5 1.786436 1_555
O89 S29 1.517766 1_555
O89 Si5 1.786440 1_555
O90 S30 1.523402 1_555
O90 Si5 1.788187 1_555
O91 S31 1.523415 1_555
O91 Si5 1.788183 1_555
O92 S32 1.523411 1_555
O92 Si5 1.788186 1_555
O93 S33 1.523402 1_555
O93 Si4 1.788187 1_555
O94 S34 1.523415 1_555
O94 Si4 1.788183 1_555
O95 S35 1.523411 1_555
O95 Si4 1.788186 1_555
O96 S24 1.433718 1_555
O97 S25 1.433720 1_555
O98 S26 1.433722 1_555
O99 S27 1.433718 1_555
O100 S28 1.433720 1_555
O101 S29 1.433722 1_555
O102 S24 1.431939 1_555
O103 S25 1.431940 1_555
O104 S26 1.431937 1_555
O105 S27 1.431939 1_555
O106 S28 1.431940 1_555
O107 S29 1.431937 1_555
O108 S24 1.663175 1_555
O108 S34 1.664424 1_555
O109 S25 1.663164 1_555
O109 S35 1.664405 1_555
O110 S26 1.663156 1_555
O110 S33 1.664435 1_555
O111 S27 1.663175 1_555
O111 S31 1.664424 1_555
O112 S28 1.663164 1_555
O112 S32 1.664405 1_555
O113 S29 1.663156 1_555
O113 S30 1.664435 1_555
O114 S30 1.431480 1_555
O115 S31 1.431496 1_555
O116 S32 1.431473 1_555
O117 S33 1.431480 1_555
O118 S34 1.431496 1_555
O119 S35 1.431473 1_555
O120 S30 1.433116 1_555
O121 S31 1.433099 1_555
O122 S32 1.433127 1_555
O123 S33 1.433116 1_555
O124 S34 1.433099 1_555
O125 S35 1.433127 1_555
