# generated using pymatgen
data_Dy3Al2(Ni2H3)3
_symmetry_space_group_name_H-M   'P 1'
_cell_length_a   7.93408827
_cell_length_b   7.93408827
_cell_length_c   7.93408827
_cell_angle_alpha   109.47122063
_cell_angle_beta   109.47122063
_cell_angle_gamma   109.47122063
_symmetry_Int_Tables_number   1
_chemical_formula_structural   Dy3Al2(Ni2H3)3
_chemical_formula_sum   'Dy6 Al4 Ni12 H18'
_cell_volume   384.47596292
_cell_formula_units_Z   2
loop_
 _symmetry_equiv_pos_site_id
 _symmetry_equiv_pos_as_xyz
  1  'x, y, z'
loop_
 _atom_site_type_symbol
 _atom_site_label
 _atom_site_symmetry_multiplicity
 _atom_site_fract_x
 _atom_site_fract_y
 _atom_site_fract_z
 _atom_site_occupancy
  Dy  Dy0  1  0.73025500  0.73025500  0.00000000  1
  Dy  Dy1  1  0.26974500  0.00000000  0.26974500  1
  Dy  Dy2  1  0.00000000  0.26974500  0.26974500  1
  Dy  Dy3  1  0.26974500  0.26974500  0.00000000  1
  Dy  Dy4  1  0.73025500  0.00000000  0.73025500  1
  Dy  Dy5  1  0.00000000  0.73025500  0.73025500  1
  Al  Al0  1  0.00000000  0.00000000  0.50000000  1
  Al  Al1  1  0.00000000  0.50000000  0.00000000  1
  Al  Al2  1  0.50000000  0.00000000  0.00000000  1
  Al  Al3  1  0.50000000  0.50000000  0.50000000  1
  Ni  Ni0  1  0.33790600  0.33790600  0.67581100  1
  Ni  Ni1  1  0.66209400  0.00000000  0.33790600  1
  Ni  Ni2  1  0.00000000  0.66209400  0.33790600  1
  Ni  Ni3  1  0.66209400  0.33790600  0.00000000  1
  Ni  Ni4  1  0.33790600  0.67581100  0.33790600  1
  Ni  Ni5  1  0.00000000  0.33790600  0.66209400  1
  Ni  Ni6  1  0.33790600  0.66209400  0.00000000  1
  Ni  Ni7  1  0.33790600  0.00000000  0.66209400  1
  Ni  Ni8  1  0.67581100  0.33790600  0.33790600  1
  Ni  Ni9  1  0.66209400  0.66209400  0.32418900  1
  Ni  Ni10  1  0.66209400  0.32418900  0.66209400  1
  Ni  Ni11  1  0.32418900  0.66209400  0.66209400  1
  H  H0  1  0.00000000  0.00000000  0.73619500  1
  H  H1  1  0.00000000  0.73619500  0.00000000  1
  H  H2  1  0.73619500  0.00000000  0.00000000  1
  H  H3  1  0.26380500  0.26380500  0.26380500  1
  H  H4  1  0.00000000  0.00000000  0.26380500  1
  H  H5  1  0.00000000  0.26380500  0.00000000  1
  H  H6  1  0.26380500  0.00000000  0.00000000  1
  H  H7  1  0.73619500  0.73619500  0.73619500  1
  H  H8  1  0.50000000  0.75000000  0.25000000  1
  H  H9  1  0.25000000  0.75000000  0.50000000  1
  H  H10  1  0.25000000  0.50000000  0.75000000  1
  H  H11  1  0.50000000  0.25000000  0.75000000  1
  H  H12  1  0.75000000  0.50000000  0.25000000  1
  H  H13  1  0.75000000  0.25000000  0.50000000  1
  H  H14  1  0.50000000  0.50000000  0.00000000  1
  H  H15  1  0.50000000  0.00000000  0.50000000  1
  H  H16  1  0.00000000  0.50000000  0.50000000  1
  H  H17  1  0.00000000  0.00000000  0.00000000  1
loop_
_geom_bond_atom_site_label_1
_geom_bond_atom_site_label_2
_geom_bond_distance
_geom_bond_site_symmetry_2
Dy0 H14 2.109480 1_555
Dy0 H1 2.124936 1_655
Dy0 H7 2.124936 1_554
Dy0 H4 2.124936 1_665
Dy0 H2 2.124936 1_565
Dy0 H17 2.471268 1_665
Dy1 H15 2.109480 1_555
Dy1 H1 2.124936 1_545
Dy1 H6 2.124936 1_555
Dy1 H3 2.124936 1_555
Dy1 H4 2.124936 1_555
Dy1 H17 2.471268 1_555
Dy2 H16 2.109480 1_555
Dy2 H5 2.124936 1_555
Dy2 H2 2.124936 1_455
Dy2 H3 2.124936 1_555
Dy2 H4 2.124936 1_555
Dy2 H17 2.471268 1_555
Dy3 H14 2.109480 1_555
Dy3 H5 2.124936 1_555
Dy3 H6 2.124936 1_555
Dy3 H3 2.124936 1_555
Dy3 H0 2.124936 1_554
Dy3 H17 2.471268 1_555
Dy4 H15 2.109480 1_555
Dy4 H0 2.124936 1_655
Dy4 H2 2.124936 1_556
Dy4 H7 2.124936 1_545
Dy4 H5 2.124936 1_656
Dy4 H17 2.471268 1_656
Dy5 H16 2.109480 1_555
Dy5 H0 2.124936 1_565
Dy5 H7 2.124936 1_455
Dy5 H1 2.124936 1_556
Dy5 H6 2.124936 1_566
Dy5 H17 2.471268 1_566
Al0 H4 1.873992 1_555
Al0 H0 1.873992 1_555
Al1 H5 1.873992 1_555
Al1 H1 1.873992 1_555
Al2 H6 1.873992 1_555
Al2 H2 1.873992 1_555
Al3 H3 1.873992 1_555
Al3 H7 1.873992 1_555
H8 Ni6 1.689344 1_555
H8 Ni1 1.689344 1_565
H8 Ni4 1.689346 1_555
H8 Ni9 1.689346 1_555
H9 Ni2 1.689344 1_555
H9 Ni7 1.689344 1_565
H9 Ni4 1.689346 1_555
H9 Ni11 1.689346 1_555
H10 Ni5 1.689344 1_555
H10 Ni6 1.689344 1_556
H10 Ni0 1.689346 1_555
H10 Ni11 1.689346 1_555
H11 Ni7 1.689344 1_555
H11 Ni3 1.689344 1_556
H11 Ni0 1.689346 1_555
H11 Ni10 1.689346 1_555
H12 Ni2 1.689344 1_655
H12 Ni3 1.689344 1_555
H12 Ni8 1.689346 1_555
H12 Ni9 1.689346 1_555
H13 Ni1 1.689344 1_555
H13 Ni5 1.689344 1_655
H13 Ni8 1.689346 1_555
H13 Ni10 1.689346 1_555
H14 Ni6 2.100140 1_555
H14 Ni3 2.100140 1_555
H14 Ni0 2.100147 1_554
H14 Ni9 2.100147 1_555
H15 Ni1 2.100140 1_555
H15 Ni7 2.100140 1_555
H15 Ni4 2.100147 1_545
H15 Ni10 2.100147 1_555
H16 Ni2 2.100140 1_555
H16 Ni5 2.100140 1_555
H16 Ni8 2.100147 1_455
H16 Ni11 2.100147 1_555
