# generated using pymatgen
data_SmMg2Mn3S8
_symmetry_space_group_name_H-M   'P 1'
_cell_length_a   7.54994736
_cell_length_b   7.54712831
_cell_length_c   7.55153546
_cell_angle_alpha   58.83088366
_cell_angle_beta   58.83852826
_cell_angle_gamma   58.84015366
_symmetry_Int_Tables_number   1
_chemical_formula_structural   SmMg2Mn3S8
_chemical_formula_sum   'Sm1 Mg2 Mn3 S8'
_cell_volume   296.17815645
_cell_formula_units_Z   1
loop_
 _symmetry_equiv_pos_site_id
 _symmetry_equiv_pos_as_xyz
  1  'x, y, z'
loop_
 _atom_site_type_symbol
 _atom_site_label
 _atom_site_symmetry_multiplicity
 _atom_site_fract_x
 _atom_site_fract_y
 _atom_site_fract_z
 _atom_site_occupancy
  Sm  Sm0  1  0.50001400  0.50000500  0.49997900  1
  Mg  Mg0  1  0.87418800  0.87415900  0.87424000  1
  Mg  Mg1  1  0.12580900  0.12584200  0.12576800  1
  Mn  Mn0  1  0.49994100  0.49999600  0.00001100  1
  Mn  Mn1  1  0.00001000  0.50000800  0.49999300  1
  Mn  Mn2  1  0.50004700  0.00000900  0.49999900  1
  S  S0  1  0.74039200  0.74030200  0.74029800  1
  S  S1  1  0.24154200  0.24171100  0.72152200  1
  S  S2  1  0.24166000  0.72144200  0.24164200  1
  S  S3  1  0.72148200  0.24175400  0.24154000  1
  S  S4  1  0.75831900  0.27857000  0.75835600  1
  S  S5  1  0.27851600  0.75824500  0.75844200  1
  S  S6  1  0.25960300  0.25966600  0.25973200  1
  S  S7  1  0.75848100  0.75828700  0.27848000  1
loop_
_geom_bond_atom_site_label_1
_geom_bond_atom_site_label_2
_geom_bond_distance
_geom_bond_site_symmetry_2
Mg0 S4 2.472055 1_565
Mg0 S7 2.472634 1_556
Mg0 S5 2.472725 1_655
Mg0 S0 2.497045 1_555
Mg1 S2 2.472005 1_545
Mg1 S1 2.472656 1_554
Mg1 S3 2.472740 1_455
Mg1 S6 2.496964 1_555
Mn0 S5 2.454604 1_554
Mn0 S3 2.454968 1_555
Mn0 S2 2.454983 1_555
Mn0 S4 2.455050 1_554
Mn0 S6 2.543540 1_555
Mn0 S0 2.543997 1_554
Mn1 S2 2.454457 1_555
Mn1 S4 2.454694 1_455
Mn1 S7 2.454830 1_455
Mn1 S1 2.454932 1_555
Mn1 S0 2.543778 1_455
Mn1 S6 2.543793 1_555
Mn2 S3 2.454928 1_555
Mn2 S5 2.455494 1_545
Mn2 S1 2.455740 1_555
Mn2 S7 2.455793 1_545
Mn2 S0 2.544164 1_545
Mn2 S6 2.544498 1_555
S1 Sm0 2.754861 1_555
S2 Sm0 2.755582 1_555
S3 Sm0 2.755208 1_555
S4 Sm0 2.755532 1_555
S5 Sm0 2.755254 1_555
S7 Sm0 2.754805 1_555
