# generated using pymatgen
data_Li9Mn2Co5O16
_symmetry_space_group_name_H-M   'P 1'
_cell_length_a   5.18769458
_cell_length_b   10.25830050
_cell_length_c   5.94581323
_cell_angle_alpha   103.79850376
_cell_angle_beta   70.10200849
_cell_angle_gamma   84.76375671
_symmetry_Int_Tables_number   1
_chemical_formula_structural   Li9Mn2Co5O16
_chemical_formula_sum   'Li9 Mn2 Co5 O16'
_cell_volume   283.74285828
_cell_formula_units_Z   1
loop_
 _symmetry_equiv_pos_site_id
 _symmetry_equiv_pos_as_xyz
  1  'x, y, z'
loop_
 _atom_site_type_symbol
 _atom_site_label
 _atom_site_symmetry_multiplicity
 _atom_site_fract_x
 _atom_site_fract_y
 _atom_site_fract_z
 _atom_site_occupancy
  Li  Li0  1  0.49838700  0.12801200  0.93953900  1
  Li  Li1  1  0.49913200  0.37944700  0.31401100  1
  Li  Li2  1  0.48778600  0.62181300  0.67961300  1
  Li  Li3  1  0.50968500  0.86644200  0.04976900  1
  Li  Li4  1  0.50050000  0.13128300  0.44539200  1
  Li  Li5  1  0.50386900  0.37694000  0.81275600  1
  Li  Li6  1  0.49233100  0.62745300  0.19833200  1
  Li  Li7  1  0.50004300  0.86589200  0.55631600  1
  Li  Li8  1  0.00556500  0.74559100  0.62351600  1
  Mn  Mn0  1  0.99502700  0.99803500  0.99378900  1
  Mn  Mn1  1  0.99436200  0.99722600  0.49651500  1
  Co  Co0  1  0.99560500  0.25319800  0.37421900  1
  Co  Co1  1  0.00744000  0.50089000  0.75203100  1
  Co  Co2  1  0.99915500  0.74849300  0.12501400  1
  Co  Co3  1  0.00197900  0.25111300  0.87463500  1
  Co  Co4  1  0.00682500  0.50484200  0.26056000  1
  O  O0  1  0.23642900  0.06721800  0.73882500  1
  O  O1  1  0.22342400  0.32007400  0.11622300  1
  O  O2  1  0.23493000  0.55817000  0.48951700  1
  O  O3  1  0.23092300  0.81986700  0.86936000  1
  O  O4  1  0.20424600  0.06491500  0.21431700  1
  O  O5  1  0.22605000  0.31446500  0.61025100  1
  O  O6  1  0.23420800  0.57236300  0.00043900  1
  O  O7  1  0.21013700  0.81551100  0.32750300  1
  O  O8  1  0.76750900  0.18171300  0.13347400  1
  O  O9  1  0.77122100  0.43318800  0.51167100  1
  O  O10  1  0.79970700  0.68242800  0.92627100  1
  O  O11  1  0.75674100  0.92999500  0.25324400  1
  O  O12  1  0.76927400  0.18450200  0.63335200  1
  O  O13  1  0.78043600  0.43058800  0.00707100  1
  O  O14  1  0.77431800  0.68288500  0.38323700  1
  O  O15  1  0.78275500  0.94544700  0.78923900  1
loop_
_geom_bond_atom_site_label_1
_geom_bond_atom_site_label_2
_geom_bond_distance
_geom_bond_site_symmetry_2
Li0 O15 2.069364 1_545
Li0 O4 2.098653 1_556
Li0 O1 2.121273 1_556
Li0 O8 2.124963 1_556
Li0 O12 2.129643 1_555
Li0 O0 2.136242 1_555
Li1 O2 1.995990 1_555
Li1 O13 2.125811 1_555
Li1 O5 2.141895 1_555
Li1 O8 2.152606 1_555
Li1 O9 2.153989 1_555
Li1 O1 2.182194 1_555
Li2 O2 2.058628 1_555
Li2 O9 2.112537 1_555
Li2 O6 2.121774 1_556
Li2 O3 2.136676 1_555
Li2 O14 2.149636 1_555
Li2 O10 2.553420 1_555
Li3 O7 2.056146 1_555
Li3 O11 2.088797 1_555
Li3 O15 2.092345 1_554
Li3 O3 2.099468 1_554
Li3 O10 2.105837 1_554
Li3 O4 2.240295 1_565
Li4 O5 2.049908 1_555
Li4 O12 2.097555 1_555
Li4 O0 2.106400 1_555
Li4 O8 2.113213 1_555
Li4 O11 2.162385 1_545
Li4 O4 2.428022 1_555
Li5 O9 2.100015 1_555
Li5 O12 2.104817 1_555
Li5 O6 2.139973 1_556
Li5 O1 2.140735 1_556
Li5 O13 2.159951 1_556
Li5 O5 2.217970 1_555
Li6 O10 2.078681 1_554
Li6 O6 2.095318 1_555
Li6 O7 2.113536 1_555
Li6 O2 2.114764 1_555
Li6 O14 2.149508 1_555
Li6 O13 2.191361 1_555
Li7 O14 2.049907 1_555
Li7 O3 2.099323 1_555
Li7 O11 2.131818 1_555
Li7 O0 2.172175 1_565
Li7 O7 2.362008 1_555
Li7 O15 2.407678 1_555
Li8 O2 1.988339 1_555
Li8 O10 2.043249 1_455
Li8 O7 2.051378 1_555
Li8 O15 2.082968 1_455
Li8 O14 2.182444 1_455
Li8 O3 2.208747 1_555
Mn0 O15 1.920927 1_555
Mn0 O3 1.927661 1_655
Mn0 O0 1.937342 1_665
Mn0 O11 1.941165 1_556
Mn0 O8 1.952819 1_566
Mn0 O4 2.010853 1_666
Mn1 O7 1.922901 1_655
Mn1 O15 1.939936 1_555
Mn1 O12 1.978501 1_565
Mn1 O4 1.983230 1_665
Mn1 O11 2.231688 1_555
Mn1 O0 2.251852 1_665
Co0 O1 1.906958 1_655
Co0 O9 1.916349 1_555
Co0 O12 1.920073 1_555
Co0 O4 1.961626 1_655
Co0 O5 2.156881 1_655
Co0 O8 2.190326 1_555
Co1 O2 1.866682 1_555
Co1 O10 1.912096 1_455
Co1 O13 1.915086 1_456
Co1 O5 1.959190 1_555
Co1 O9 2.213693 1_455
Co1 O6 2.219590 1_556
Co2 O10 1.872023 1_554
Co2 O14 1.894180 1_555
Co2 O6 1.909114 1_655
Co2 O3 1.933866 1_654
Co2 O7 1.938972 1_655
Co2 O11 1.967809 1_555
Co3 O5 1.904219 1_555
Co3 O13 1.907044 1_456
Co3 O8 1.939426 1_456
Co3 O0 1.968774 1_555
Co3 O1 2.161105 1_556
Co3 O12 2.200961 1_455
Co4 O6 1.918741 1_555
Co4 O14 1.919960 1_455
Co4 O9 1.925800 1_455
Co4 O1 1.941800 1_555
Co4 O2 2.100536 1_555
Co4 O13 2.247601 1_455
