# generated using pymatgen
data_Y9Lu3Al20O48
_symmetry_space_group_name_H-M   'P 1'
_cell_length_a   10.47071653
_cell_length_b   10.47140159
_cell_length_c   10.47079314
_cell_angle_alpha   70.59340367
_cell_angle_beta   70.53053305
_cell_angle_gamma   109.53501776
_symmetry_Int_Tables_number   1
_chemical_formula_structural   Y9Lu3Al20O48
_chemical_formula_sum   'Y9 Lu3 Al20 O48'
_cell_volume   883.79660733
_cell_formula_units_Z   1
loop_
 _symmetry_equiv_pos_site_id
 _symmetry_equiv_pos_as_xyz
  1  'x, y, z'
loop_
 _atom_site_type_symbol
 _atom_site_label
 _atom_site_symmetry_multiplicity
 _atom_site_fract_x
 _atom_site_fract_y
 _atom_site_fract_z
 _atom_site_occupancy
  Y  Y0  1  0.12536448  0.25001025  0.62462987  1
  Y  Y1  1  0.25016180  0.62558102  0.62505909  1
  Y  Y2  1  0.74934726  0.87441135  0.87542778  1
  Y  Y3  1  0.62489459  0.37495582  0.75003370  1
  Y  Y4  1  0.87501583  0.12503882  0.25006928  1
  Y  Y5  1  0.62488406  0.25000684  0.12512245  1
  Y  Y6  1  0.87512144  0.74999967  0.37488164  1
  Y  Y7  1  0.75007527  0.37508637  0.37488352  1
  Y  Y8  1  0.25002740  0.12491330  0.12501605  1
  Lu  Lu0  1  0.37502008  0.62524823  0.24943953  1
  Lu  Lu1  1  0.12530200  0.87486104  0.75021755  1
  Lu  Lu2  1  0.37460007  0.74998137  0.87525897  1
  Al  Al0  1  0.49912528  0.99837526  0.00030602  1
  Al  Al1  1  0.49964371  0.50019105  0.49927540  1
  Al  Al2  1  0.00131618  0.50161778  0.99925646  1
  Al  Al3  1  0.00053388  0.99980873  0.50054953  1
  Al  Al4  1  0.49925368  0.50078105  0.00056758  1
  Al  Al5  1  0.49865829  0.99922068  0.50152756  1
  Al  Al6  1  0.00114061  0.50055160  0.49914173  1
  Al  Al7  1  0.00030559  0.99944595  0.99941564  1
  Al  Al8  1  0.12648325  0.37669405  0.24926698  1
  Al  Al9  1  0.37403738  0.12330033  0.75021642  1
  Al  Al10  1  0.62393715  0.75000049  0.62606811  1
  Al  Al11  1  0.87514085  0.25000093  0.87486380  1
  Al  Al12  1  0.25000285  0.87466390  0.37541239  1
  Al  Al13  1  0.74992340  0.62533365  0.12466569  1
  Al  Al14  1  0.87613740  0.62605233  0.74999679  1
  Al  Al15  1  0.62395325  0.87394606  0.24991882  1
  Al  Al16  1  0.37462682  0.24999811  0.37537560  1
  Al  Al17  1  0.12636924  0.74999937  0.12363473  1
  Al  Al18  1  0.74927579  0.12426494  0.62550677  1
  Al  Al19  1  0.25022257  0.37572819  0.87499626  1
  O  O0  1  0.57830285  0.87800259  0.09991492  1
  O  O1  1  0.47792253  0.67844791  0.40020707  1
  O  O2  1  0.02208581  0.62199332  0.79969845  1
  O  O3  1  0.92134463  0.82155201  0.70052289  1
  O  O4  1  0.12232511  0.70255436  0.97612068  1
  O  O5  1  0.32132589  0.79744960  0.08023324  1
  O  O6  1  0.38171936  0.40362988  0.41627457  1
  O  O7  1  0.18009472  0.09637750  0.52191502  1
  O  O8  1  0.30002080  0.41807297  0.68002640  1
  O  O9  1  0.20194520  0.52194530  0.88208068  1
  O  O10  1  0.59597678  0.97805268  0.81999952  1
  O  O11  1  0.90189244  0.08192232  0.61805800  1
  O  O12  1  0.41805898  0.11773047  0.90193996  1
  O  O13  1  0.51937085  0.31960913  0.59828224  1
  O  O14  1  0.98031958  0.38226320  0.19967568  1
  O  O15  1  0.08212681  0.18038984  0.30023526  1
  O  O16  1  0.88245499  0.30098547  0.01952603  1
  O  O17  1  0.67948536  0.19901440  0.91852538  1
  O  O18  1  0.61769370  0.59837899  0.58161846  1
  O  O19  1  0.82000110  0.90161191  0.48069824  1
  O  O20  1  0.69985588  0.58179263  0.32021265  1
  O  O21  1  0.80056756  0.48029405  0.11790368  1
  O  O22  1  0.40180057  0.01970807  0.17972955  1
  O  O23  1  0.09800536  0.91821991  0.38191945  1
  O  O24  1  0.41814079  0.30028884  0.17980189  1
  O  O25  1  0.51990661  0.19970523  0.38215739  1
  O  O26  1  0.98031274  0.59828651  0.31970296  1
  O  O27  1  0.08200299  0.90171004  0.11799009  1
  O  O28  1  0.88239128  0.58197210  0.59810552  1
  O  O29  1  0.68002788  0.48086667  0.90168745  1
  O  O30  1  0.61744569  0.01913844  0.30084480  1
  O  O31  1  0.81992902  0.91802003  0.19958701  1
  O  O32  1  0.69926033  0.11789027  0.48014178  1
  O  O33  1  0.80064754  0.32020267  0.58155216  1
  O  O34  1  0.40196241  0.38208813  0.91865202  1
  O  O35  1  0.09826070  0.17980064  0.01954426  1
  O  O36  1  0.57854543  0.70039276  0.82160563  1
  O  O37  1  0.47799247  0.79959495  0.62185853  1
  O  O38  1  0.02005318  0.40223784  0.67980387  1
  O  O39  1  0.91796456  0.09776179  0.88218265  1
  O  O40  1  0.12225490  0.42170573  0.39980972  1
  O  O41  1  0.32154416  0.52393557  0.09813178  1
  O  O42  1  0.37792728  0.97604948  0.70240402  1
  O  O43  1  0.17848156  0.07829073  0.79945519  1
  O  O44  1  0.29806777  0.88172361  0.52190131  1
  O  O45  1  0.20217138  0.68026920  0.41599635  1
  O  O46  1  0.59637756  0.61827414  0.08366142  1
  O  O47  1  0.90373344  0.81972761  0.97810245  1
loop_
_geom_bond_atom_site_label_1
_geom_bond_atom_site_label_2
_geom_bond_distance
_geom_bond_site_symmetry_2
Lu0 O0 2.290003 1_555
Lu0 O40 2.290426 1_555
Lu0 O41 2.293486 1_555
Lu0 O1 2.297886 1_555
Lu0 O46 2.430226 1_555
Lu0 O45 2.431048 1_555
Lu0 O5 2.434242 1_555
Lu0 O6 2.436914 1_555
Lu1 O43 2.289435 1_565
Lu1 O2 2.291066 1_555
Lu1 O42 2.293593 1_555
Lu1 O3 2.297738 1_455
Lu1 O47 2.430611 1_455
Lu1 O44 2.430812 1_555
Lu1 O4 2.434867 1_555
Lu1 O7 2.436201 1_565
Lu2 O4 2.292164 1_555
Lu2 O5 2.293661 1_556
Lu2 O37 2.296728 1_555
Lu2 O36 2.298068 1_555
Lu2 O9 2.426688 1_555
Lu2 O10 2.428348 1_555
Lu2 O42 2.436490 1_555
Lu2 O41 2.437815 1_556
Al0 O5 1.940291 1_555
Al0 O0 1.940500 1_555
Al0 O22 1.942374 1_565
Al0 O10 1.942446 1_554
Al0 O12 1.944274 1_564
Al0 O17 1.945962 1_564
Al1 O20 1.938426 1_555
Al1 O1 1.940726 1_555
Al1 O6 1.940790 1_555
Al1 O8 1.941582 1_555
Al1 O18 1.943702 1_555
Al1 O13 1.947897 1_555
Al2 O4 1.940368 1_555
Al2 O2 1.940554 1_555
Al2 O21 1.942316 1_456
Al2 O9 1.942416 1_555
Al2 O14 1.944225 1_456
Al2 O16 1.945957 1_456
Al3 O23 1.938490 1_555
Al3 O3 1.940700 1_455
Al3 O7 1.940809 1_565
Al3 O11 1.941608 1_465
Al3 O19 1.943667 1_455
Al3 O15 1.947887 1_565
Al4 O34 1.939678 1_554
Al4 O41 1.940089 1_555
Al4 O36 1.941438 1_554
Al4 O46 1.941472 1_555
Al4 O24 1.943642 1_555
Al4 O29 1.949186 1_554
Al5 O32 1.939633 1_565
Al5 O42 1.940160 1_555
Al5 O44 1.941485 1_555
Al5 O37 1.941506 1_555
Al5 O25 1.943595 1_565
Al5 O30 1.949112 1_565
Al6 O40 1.939914 1_555
Al6 O38 1.941491 1_555
Al6 O26 1.941564 1_455
Al6 O45 1.941830 1_555
Al6 O33 1.943269 1_455
Al6 O28 1.945218 1_455
Al7 O43 1.939915 1_565
Al7 O39 1.941473 1_465
Al7 O27 1.941581 1_556
Al7 O47 1.941840 1_455
Al7 O35 1.943265 1_566
Al7 O31 1.945181 1_456
Al8 O40 1.780452 1_555
Al8 O41 1.780744 1_555
Al8 O14 1.784542 1_455
Al8 O15 1.786958 1_555
Al9 O43 1.780461 1_555
Al9 O42 1.780789 1_545
Al9 O12 1.784452 1_555
Al9 O13 1.786951 1_555
Al10 O36 1.779646 1_555
Al10 O37 1.779688 1_555
Al10 O19 1.784176 1_555
Al10 O18 1.784259 1_555
Al11 O38 1.779867 1_655
Al11 O39 1.779896 1_555
Al11 O16 1.781202 1_556
Al11 O17 1.781296 1_555
Al12 O45 1.782278 1_555
Al12 O44 1.782280 1_555
Al12 O22 1.782669 1_565
Al12 O23 1.783092 1_555
Al13 O46 1.782237 1_555
Al13 O47 1.782274 1_554
Al13 O21 1.782668 1_555
Al13 O20 1.783067 1_555
Al14 O2 1.779571 1_655
Al14 O3 1.779611 1_555
Al14 O29 1.784377 1_555
Al14 O28 1.784775 1_555
Al15 O0 1.779596 1_555
Al15 O1 1.779604 1_555
Al15 O30 1.784464 1_565
Al15 O31 1.784825 1_555
Al16 O7 1.782135 1_555
Al16 O6 1.782156 1_555
Al16 O25 1.783059 1_555
Al16 O24 1.783081 1_555
Al17 O5 1.781484 1_555
Al17 O4 1.781532 1_554
Al17 O26 1.786691 1_455
Al17 O27 1.786748 1_555
Al18 O11 1.780460 1_555
Al18 O32 1.780721 1_555
Al18 O10 1.781379 1_545
Al18 O33 1.783308 1_555
Al19 O8 1.780564 1_555
Al19 O34 1.780829 1_555
Al19 O9 1.781397 1_555
Al19 O35 1.783167 1_556
O0 Y2 2.455930 1_554
O1 Y1 2.458662 1_555
O2 Y1 2.455942 1_555
O3 Y2 2.458742 1_555
O6 Y0 2.329974 1_555
O7 Y0 2.329954 1_555
O8 Y1 2.335198 1_555
O8 Y0 2.451754 1_555
O9 Y1 2.337155 1_555
O10 Y2 2.337057 1_555
O11 Y2 2.335236 1_545
O11 Y0 2.451822 1_655
O12 Y3 2.330399 1_555
O12 Y8 2.454143 1_556
O13 Y3 2.331427 1_555
O13 Y7 2.456876 1_555
O14 Y4 2.330375 1_555
O14 Y7 2.454032 1_555
O15 Y4 2.331472 1_455
O15 Y8 2.456701 1_555
O16 Y5 2.331994 1_555
O16 Y4 2.459861 1_555
O17 Y5 2.332142 1_556
O17 Y3 2.459689 1_555
O18 Y6 2.331660 1_555
O18 Y3 2.460459 1_555
O19 Y6 2.331656 1_555
O19 Y4 2.460485 1_565
O20 Y7 2.329741 1_555
O20 Y6 2.450808 1_555
O21 Y7 2.329322 1_555
O21 Y5 2.454423 1_555
O22 Y8 2.329294 1_555
O22 Y5 2.454564 1_555
O23 Y8 2.329566 1_565
O23 Y6 2.450795 1_455
O24 Y5 2.329711 1_555
O24 Y8 2.451822 1_555
O25 Y5 2.329759 1_555
O25 Y7 2.451830 1_555
O26 Y6 2.329530 1_555
O26 Y7 2.452367 1_555
O27 Y6 2.329422 1_455
O27 Y8 2.452344 1_565
O28 Y3 2.332313 1_555
O28 Y6 2.457631 1_555
O29 Y3 2.331945 1_555
O29 Y5 2.461386 1_556
O30 Y4 2.331992 1_555
O30 Y5 2.461397 1_555
O31 Y4 2.332353 1_565
O31 Y6 2.457539 1_555
O32 Y7 2.330103 1_555
O32 Y4 2.455296 1_555
O33 Y7 2.331189 1_555
O33 Y3 2.457863 1_555
O34 Y8 2.329913 1_556
O34 Y3 2.455301 1_555
O35 Y8 2.331118 1_555
O35 Y4 2.458003 1_455
O36 Y2 2.451812 1_555
O37 Y1 2.451808 1_555
O38 Y0 2.335261 1_555
O38 Y1 2.454264 1_555
O39 Y0 2.335352 1_655
O39 Y2 2.454338 1_545
O40 Y0 2.460224 1_555
O43 Y0 2.460426 1_555
O44 Y1 2.329415 1_555
O45 Y1 2.337742 1_555
O46 Y2 2.329376 1_554
O47 Y2 2.337805 1_555
