# generated using pymatgen
data_Mg6CrFe
_symmetry_space_group_name_H-M   'P 1'
_cell_length_a   4.87464700
_cell_length_b   6.05384700
_cell_length_c   10.55684600
_cell_angle_alpha   90.00000000
_cell_angle_beta   90.00000000
_cell_angle_gamma   90.00000000
_symmetry_Int_Tables_number   1
_chemical_formula_structural   Mg6CrFe
_chemical_formula_sum   'Mg12 Cr2 Fe2'
_cell_volume   311.53640106
_cell_formula_units_Z   2
loop_
 _symmetry_equiv_pos_site_id
 _symmetry_equiv_pos_as_xyz
  1  'x, y, z'
loop_
 _atom_site_type_symbol
 _atom_site_label
 _atom_site_symmetry_multiplicity
 _atom_site_fract_x
 _atom_site_fract_y
 _atom_site_fract_z
 _atom_site_occupancy
  Mg  Mg0  1  0.00000000  0.74102600  0.08835300  1
  Mg  Mg1  1  0.00000000  0.25897400  0.08835300  1
  Mg  Mg2  1  0.00000000  0.00000000  0.33340700  1
  Mg  Mg3  1  0.50000000  0.26366400  0.41081800  1
  Mg  Mg4  1  0.50000000  0.73633600  0.41081800  1
  Mg  Mg5  1  0.50000000  0.00000000  0.16658400  1
  Mg  Mg6  1  0.00000000  0.24102600  0.58835300  1
  Mg  Mg7  1  0.00000000  0.75897400  0.58835300  1
  Mg  Mg8  1  0.00000000  0.50000000  0.83340700  1
  Mg  Mg9  1  0.50000000  0.76366400  0.91081800  1
  Mg  Mg10  1  0.50000000  0.23633600  0.91081800  1
  Mg  Mg11  1  0.50000000  0.50000000  0.66658400  1
  Cr  Cr0  1  0.50000000  0.50000000  0.17176900  1
  Cr  Cr1  1  0.50000000  0.00000000  0.67176900  1
  Fe  Fe0  1  0.00000000  0.50000000  0.32989800  1
  Fe  Fe1  1  0.00000000  0.00000000  0.82989800  1
loop_
_geom_bond_atom_site_label_1
_geom_bond_atom_site_label_2
_geom_bond_distance
_geom_bond_site_symmetry_2
Mg0 Mg1 2.918269 1_555
Mg0 Mg5 3.013399 1_465
Mg0 Mg5 3.013399 1_565
Mg0 Mg2 3.024982 1_565
Mg0 Mg8 3.061510 1_554
Mg0 Mg9 3.077660 1_454
Mg0 Mg9 3.077660 1_554
Mg0 Mg1 3.135578 1_565
Mg1 Mg5 3.013399 1_455
Mg1 Mg5 3.013399 1_555
Mg1 Mg2 3.024982 1_555
Mg1 Mg8 3.061510 1_554
Mg1 Mg10 3.077660 1_554
Mg1 Mg10 3.077660 1_454
Mg2 Mg5 3.007009 1_555
Mg2 Mg5 3.007009 1_455
Mg2 Mg3 3.025919 1_455
Mg2 Mg4 3.025919 1_545
Mg2 Mg4 3.025919 1_445
Mg2 Mg3 3.025919 1_555
Mg2 Mg6 3.061510 1_555
Mg2 Mg7 3.061510 1_545
Mg3 Mg4 2.861484 1_555
Mg3 Mg5 3.032431 1_555
Mg3 Mg6 3.077660 1_555
Mg3 Mg6 3.077660 1_655
Mg3 Mg4 3.192363 1_545
Mg4 Mg5 3.032431 1_565
Mg4 Mg7 3.077660 1_555
Mg4 Mg7 3.077660 1_655
Mg5 Mg9 3.055727 1_544
Mg6 Mg7 2.918269 1_545
Mg6 Mg8 3.024982 1_555
Mg6 Mg7 3.135578 1_555
Mg7 Mg8 3.024982 1_555
Mg8 Mg9 3.025919 1_555
Mg8 Mg9 3.025919 1_455
Mg10 Mg9 2.861484 1_545
Mg10 Mg8 3.025919 1_655
Mg10 Mg8 3.025919 1_555
Mg10 Mg11 3.032431 1_555
Mg10 Mg5 3.055727 1_556
Mg10 Mg9 3.192363 1_555
Mg11 Mg8 3.007009 1_655
Mg11 Mg8 3.007009 1_555
Mg11 Mg7 3.013399 1_555
Mg11 Mg7 3.013399 1_655
Mg11 Mg6 3.013399 1_555
Mg11 Mg6 3.013399 1_655
Mg11 Mg9 3.032431 1_555
Mg11 Mg3 3.055727 1_555
Mg11 Mg4 3.055727 1_555
Cr0 Mg3 2.900965 1_555
Cr0 Mg4 2.900965 1_555
Cr0 Fe0 2.954193 1_655
Cr0 Fe0 2.954193 1_555
Cr0 Mg0 2.974070 1_655
Cr0 Mg1 2.974070 1_655
Cr0 Mg1 2.974070 1_555
Cr0 Mg0 2.974070 1_555
Cr0 Mg5 3.027418 1_565
Cr0 Mg5 3.027418 1_555
Cr0 Mg9 3.183838 1_554
Cr0 Mg10 3.183838 1_554
Cr1 Mg9 2.900965 1_545
Cr1 Mg10 2.900965 1_555
Cr1 Fe1 2.954193 1_655
Cr1 Fe1 2.954193 1_555
Cr1 Mg6 2.974070 1_655
Cr1 Mg6 2.974070 1_555
Cr1 Mg7 2.974070 1_645
Cr1 Mg7 2.974070 1_545
Cr1 Mg11 3.027418 1_555
Cr1 Mg11 3.027418 1_545
Cr1 Mg3 3.183838 1_555
Cr1 Mg4 3.183838 1_545
Fe0 Mg0 2.937914 1_555
Fe0 Mg1 2.937914 1_555
Fe0 Mg3 2.952512 1_455
Fe0 Mg4 2.952512 1_455
Fe0 Mg3 2.952512 1_555
Fe0 Mg4 2.952512 1_555
Fe0 Mg2 3.027150 1_555
Fe0 Mg2 3.027150 1_565
Fe0 Mg7 3.146825 1_555
Fe0 Mg6 3.146825 1_555
Fe1 Mg6 2.937914 1_555
Fe1 Mg7 2.937914 1_545
Fe1 Mg9 2.952512 1_545
Fe1 Mg9 2.952512 1_445
Fe1 Mg10 2.952512 1_455
Fe1 Mg10 2.952512 1_555
Fe1 Mg8 3.027150 1_555
Fe1 Mg8 3.027150 1_545
Fe1 Mg1 3.146825 1_556
Fe1 Mg0 3.146825 1_546
