# generated using pymatgen
data_Tb2Ga3Cu
_symmetry_space_group_name_H-M   'P 1'
_cell_length_a   4.34216802
_cell_length_b   4.34221658
_cell_length_c   7.26684522
_cell_angle_alpha   90.00068585
_cell_angle_beta   89.99961233
_cell_angle_gamma   119.99722506
_symmetry_Int_Tables_number   1
_chemical_formula_structural   Tb2Ga3Cu
_chemical_formula_sum   'Tb2 Ga3 Cu1'
_cell_volume   118.66066824
_cell_formula_units_Z   1
loop_
 _symmetry_equiv_pos_site_id
 _symmetry_equiv_pos_as_xyz
  1  'x, y, z'
loop_
 _atom_site_type_symbol
 _atom_site_label
 _atom_site_symmetry_multiplicity
 _atom_site_fract_x
 _atom_site_fract_y
 _atom_site_fract_z
 _atom_site_occupancy
  Tb  Tb0  1  0.00000259  0.00000451  0.73100767  1
  Tb  Tb1  1  0.00000299  -0.00000379  0.26206550  1
  Ga  Ga0  1  0.33333807  0.66666891  0.47894930  1
  Ga  Ga1  1  0.33332023  0.66665788  0.04330059  1
  Ga  Ga2  1  0.66666258  0.33333334  0.95156334  1
  Cu  Cu0  1  0.66667355  0.33333814  0.53311260  1
loop_
_geom_bond_atom_site_label_1
_geom_bond_atom_site_label_2
_geom_bond_distance
_geom_bond_site_symmetry_2
Ga0 Tb1 2.961195 1_565
Ga0 Tb1 2.961264 1_665
Ga0 Tb1 2.961301 1_555
Ga0 Tb0 3.104786 1_565
Ga0 Tb0 3.104857 1_665
Ga0 Tb0 3.104893 1_555
Ga1 Ga2 2.594047 1_554
Ga1 Ga2 2.594109 1_454
Ga1 Ga2 2.594207 1_564
Ga1 Tb1 2.968442 1_565
Ga1 Tb1 2.968590 1_555
Ga1 Tb1 2.968622 1_665
Ga1 Tb0 3.381551 1_564
Ga1 Tb0 3.381574 1_554
Ga1 Tb0 3.381649 1_664
Ga2 Tb0 2.975474 1_655
Ga2 Tb0 2.975538 1_555
Ga2 Tb0 2.975610 1_665
Ga2 Tb1 3.372866 1_556
Ga2 Tb1 3.372868 1_656
Ga2 Tb1 3.372881 1_666
Cu0 Ga0 2.537643 1_555
Cu0 Ga0 2.537722 1_655
Cu0 Ga0 2.537764 1_545
Cu0 Tb0 2.890114 1_655
Cu0 Tb0 2.890203 1_665
Cu0 Tb0 2.890205 1_555
Cu0 Ga2 3.040817 1_555
Cu0 Tb1 3.188140 1_655
Cu0 Tb1 3.188226 1_665
Cu0 Tb1 3.188227 1_555
