# generated using pymatgen
data_TbCdNi4
_symmetry_space_group_name_H-M   'P 1'
_cell_length_a   4.92966067
_cell_length_b   4.92967210
_cell_length_c   4.92966483
_cell_angle_alpha   60.00178978
_cell_angle_beta   60.00171538
_cell_angle_gamma   60.00176112
_symmetry_Int_Tables_number   1
_chemical_formula_structural   TbCdNi4
_chemical_formula_sum   'Tb1 Cd1 Ni4'
_cell_volume   84.71391210
_cell_formula_units_Z   1
loop_
 _symmetry_equiv_pos_site_id
 _symmetry_equiv_pos_as_xyz
  1  'x, y, z'
loop_
 _atom_site_type_symbol
 _atom_site_label
 _atom_site_symmetry_multiplicity
 _atom_site_fract_x
 _atom_site_fract_y
 _atom_site_fract_z
 _atom_site_occupancy
  Tb  Tb0  1  0.24999853  0.25000178  0.24999988  1
  Cd  Cd0  1  0.00000204  0.99999866  0.00000049  1
  Ni  Ni0  1  0.62607747  0.62607775  0.12176569  1
  Ni  Ni1  1  0.62607752  0.12176589  0.62607751  1
  Ni  Ni2  1  0.12176561  0.62607780  0.62607750  1
  Ni  Ni3  1  0.62607784  0.62607812  0.62607792  1
loop_
_geom_bond_atom_site_label_1
_geom_bond_atom_site_label_2
_geom_bond_distance
_geom_bond_site_symmetry_2
Cd0 Ni2 2.888030 1_554
Cd0 Ni0 2.888033 1_455
Cd0 Ni1 2.888035 1_464
Cd0 Ni0 2.888066 1_555
Cd0 Ni1 2.888069 1_564
Cd0 Ni2 2.888072 1_555
Cd0 Ni1 2.888077 1_465
Cd0 Ni2 2.888084 1_564
Cd0 Ni0 2.888086 1_465
Cd0 Ni3 2.888100 1_554
Cd0 Ni3 2.888109 1_455
Cd0 Ni3 2.888120 1_464
Cd0 Tb0 3.018747 1_565
Cd0 Tb0 3.018851 1_555
Cd0 Tb0 3.018860 1_564
Cd0 Tb0 3.018868 1_465
Ni0 Ni3 2.443573 1_554
Ni0 Ni2 2.443639 1_654
Ni0 Ni1 2.443644 1_564
Ni0 Ni3 2.486092 1_555
Ni0 Ni2 2.486152 1_555
Ni0 Ni1 2.486157 1_555
Ni0 Tb0 2.892552 1_555
Ni0 Tb0 2.892607 1_655
Ni0 Tb0 2.892624 1_565
Ni1 Ni3 2.443576 1_545
Ni1 Ni2 2.443642 1_645
Ni1 Ni3 2.486096 1_555
Ni1 Ni2 2.486156 1_555
Ni1 Tb0 2.892554 1_555
Ni1 Tb0 2.892609 1_655
Ni1 Tb0 2.892616 1_556
Ni2 Ni3 2.443571 1_455
Ni2 Ni3 2.486090 1_555
Ni2 Tb0 2.892551 1_555
Ni2 Tb0 2.892612 1_556
Ni2 Tb0 2.892622 1_565
Ni3 Tb0 2.892632 1_655
Ni3 Tb0 2.892639 1_556
Ni3 Tb0 2.892649 1_565
