# generated using pymatgen
data_FeMo6Rh3N2
_symmetry_space_group_name_H-M   'P 1'
_cell_length_a   6.79589400
_cell_length_b   6.79607400
_cell_length_c   6.81124381
_cell_angle_alpha   89.92514212
_cell_angle_beta   90.00000000
_cell_angle_gamma   90.00000000
_symmetry_Int_Tables_number   1
_chemical_formula_structural   FeMo6Rh3N2
_chemical_formula_sum   'Fe2 Mo12 Rh6 N4'
_cell_volume   314.57974145
_cell_formula_units_Z   2
loop_
 _symmetry_equiv_pos_site_id
 _symmetry_equiv_pos_as_xyz
  1  'x, y, z'
loop_
 _atom_site_type_symbol
 _atom_site_label
 _atom_site_symmetry_multiplicity
 _atom_site_fract_x
 _atom_site_fract_y
 _atom_site_fract_z
 _atom_site_occupancy
  Fe  Fe0  1  0.68605600  0.18323800  0.93796400  1
  Fe  Fe1  1  0.18605600  0.81676200  0.06203600  1
  Mo  Mo0  1  0.62496800  0.05033600  0.54874800  1
  Mo  Mo1  1  0.12496800  0.94966400  0.45125200  1
  Mo  Mo2  1  0.87203100  0.54062300  0.94984000  1
  Mo  Mo3  1  0.37203100  0.45937700  0.05016000  1
  Mo  Mo4  1  0.20239300  0.62883100  0.70806800  1
  Mo  Mo5  1  0.30204100  0.12307900  0.79821400  1
  Mo  Mo6  1  0.80204100  0.87692100  0.20178600  1
  Mo  Mo7  1  0.70239300  0.37116900  0.29193200  1
  Mo  Mo8  1  0.04541600  0.19864700  0.12269600  1
  Mo  Mo9  1  0.95294800  0.29658100  0.62644500  1
  Mo  Mo10  1  0.54541600  0.80135300  0.87730400  1
  Mo  Mo11  1  0.45294800  0.70341900  0.37355500  1
  Rh  Rh0  1  0.81205700  0.68786100  0.56377100  1
  Rh  Rh1  1  0.31205700  0.31213900  0.43622900  1
  Rh  Rh2  1  0.06232500  0.56871600  0.30104300  1
  Rh  Rh3  1  0.43768700  0.05881800  0.17889000  1
  Rh  Rh4  1  0.56232500  0.43128400  0.69895700  1
  Rh  Rh5  1  0.93768700  0.94118200  0.82111000  1
  N  N0  1  0.37612100  0.87557300  0.62343600  1
  N  N1  1  0.87612100  0.12442700  0.37656400  1
  N  N2  1  0.12595800  0.37379800  0.87378800  1
  N  N3  1  0.62595800  0.62620200  0.12621200  1
loop_
_geom_bond_atom_site_label_1
_geom_bond_atom_site_label_2
_geom_bond_distance
_geom_bond_site_symmetry_2
Fe0 Rh4 2.488326 1_555
Fe0 Rh3 2.500646 1_556
Fe0 Rh5 2.503464 1_545
Fe0 Mo7 2.732093 1_556
Fe0 Mo2 2.739262 1_555
Fe0 Mo8 2.749313 1_656
Fe0 Mo10 2.796908 1_545
Fe0 Mo5 2.808006 1_555
Fe0 Mo0 2.832390 1_555
Fe0 Mo6 2.859067 1_546
Fe0 Mo9 2.894996 1_555
Fe0 Mo3 2.943450 1_556
Fe1 Rh2 2.488326 1_555
Fe1 Rh5 2.500646 1_454
Fe1 Rh3 2.503464 1_565
Fe1 Mo4 2.732093 1_554
Fe1 Mo3 2.739262 1_555
Fe1 Mo10 2.749313 1_554
Fe1 Mo8 2.796908 1_565
Fe1 Mo6 2.808006 1_455
Fe1 Mo1 2.832390 1_555
Fe1 Mo5 2.859067 1_564
Fe1 Mo11 2.894996 1_555
Fe1 Mo2 2.943450 1_454
Mo0 N0 2.127863 1_545
Mo0 N1 2.130874 1_555
Mo0 Rh0 2.773939 1_545
Mo0 Rh4 2.817370 1_555
Mo0 Rh3 2.822968 1_555
Mo0 Rh1 2.876023 1_555
Mo0 Rh5 2.916279 1_545
Mo1 N1 2.127863 1_465
Mo1 N0 2.130874 1_555
Mo1 Rh1 2.773939 1_565
Mo1 Rh2 2.817370 1_555
Mo1 Rh5 2.822968 1_455
Mo1 Rh0 2.876023 1_455
Mo1 Rh3 2.916279 1_565
Mo2 N2 2.129125 1_655
Mo2 N3 2.140042 1_556
Mo2 Rh2 2.726232 1_656
Mo2 Rh4 2.811663 1_555
Mo2 Rh0 2.841720 1_555
Mo2 Rh5 2.893471 1_555
Mo3 N3 2.129125 1_555
Mo3 N2 2.140042 1_554
Mo3 Rh4 2.726232 1_554
Mo3 Rh2 2.811663 1_555
Mo3 Rh1 2.841720 1_555
Mo3 Rh3 2.893471 1_555
Mo4 N0 2.129692 1_555
Mo4 N2 2.131401 1_555
Mo4 Rh4 2.791004 1_555
Mo4 Rh0 2.857028 1_455
Mo4 Rh5 2.887786 1_455
Mo4 Rh1 2.937064 1_555
Mo4 Rh2 2.960045 1_555
Mo5 N0 2.122552 1_545
Mo5 N2 2.145345 1_555
Mo5 Rh5 2.771840 1_445
Mo5 Rh1 2.779615 1_555
Mo5 Rh3 2.785778 1_556
Mo5 Rh4 2.823034 1_555
Mo6 N1 2.122552 1_565
Mo6 N3 2.145345 1_555
Mo6 Rh3 2.771840 1_565
Mo6 Rh0 2.779615 1_555
Mo6 Rh5 2.785778 1_554
Mo6 Rh2 2.823034 1_655
Mo7 N1 2.129692 1_555
Mo7 N3 2.131401 1_555
Mo7 Rh2 2.791004 1_655
Mo7 Rh1 2.857028 1_555
Mo7 Rh3 2.887786 1_555
Mo7 Rh0 2.937064 1_555
Mo7 Rh4 2.960045 1_555
Mo8 N1 2.136774 1_455
Mo8 N2 2.141383 1_554
Mo8 Rh2 2.796810 1_555
Mo8 Rh5 2.797615 1_444
Mo8 Rh3 2.855741 1_555
Mo8 Rh1 2.905745 1_555
Mo9 N2 2.120934 1_655
Mo9 N1 2.131534 1_555
Mo9 Rh5 2.755755 1_545
Mo9 Rh1 2.765013 1_655
Mo9 Rh4 2.851358 1_555
Mo9 Rh0 2.857833 1_555
Mo9 Rh2 2.979037 1_655
Mo10 N0 2.136774 1_555
Mo10 N3 2.141383 1_556
Mo10 Rh4 2.796810 1_555
Mo10 Rh3 2.797615 1_566
Mo10 Rh5 2.855741 1_555
Mo10 Rh0 2.905745 1_555
Mo11 N3 2.120934 1_555
Mo11 N0 2.131534 1_555
Mo11 Rh3 2.755755 1_565
Mo11 Rh0 2.765013 1_555
Mo11 Rh2 2.851358 1_555
Mo11 Rh1 2.857833 1_555
Mo11 Rh4 2.979037 1_555
Rh0 Rh2 2.598934 1_655
Rh0 Rh4 2.600869 1_555
Rh0 Rh5 2.602494 1_555
Rh1 Rh4 2.598934 1_555
Rh1 Rh2 2.600869 1_555
Rh1 Rh3 2.602494 1_555
