# generated using pymatgen
data_BaMg14AlO16
_symmetry_space_group_name_H-M   'P 1'
_cell_length_a   4.55540800
_cell_length_b   8.64426800
_cell_length_c   8.80333600
_cell_angle_alpha   90.00000000
_cell_angle_beta   90.00000000
_cell_angle_gamma   90.00000000
_symmetry_Int_Tables_number   1
_chemical_formula_structural   BaMg14AlO16
_chemical_formula_sum   'Ba1 Mg14 Al1 O16'
_cell_volume   346.65924046
_cell_formula_units_Z   1
loop_
 _symmetry_equiv_pos_site_id
 _symmetry_equiv_pos_as_xyz
  1  'x, y, z'
loop_
 _atom_site_type_symbol
 _atom_site_label
 _atom_site_symmetry_multiplicity
 _atom_site_fract_x
 _atom_site_fract_y
 _atom_site_fract_z
 _atom_site_occupancy
  Ba  Ba0  1  0.00000000  0.50000000  0.00000000  1
  Mg  Mg0  1  0.00000000  0.00000000  0.50000000  1
  Mg  Mg1  1  0.00000000  0.50000000  0.50000000  1
  Mg  Mg2  1  0.50000000  0.76200200  0.00000000  1
  Mg  Mg3  1  0.50000000  0.23799800  0.00000000  1
  Mg  Mg4  1  0.50000000  0.75144400  0.50000000  1
  Mg  Mg5  1  0.50000000  0.24855600  0.50000000  1
  Mg  Mg6  1  0.50000000  0.00000000  0.74757300  1
  Mg  Mg7  1  0.50000000  0.50000000  0.73499000  1
  Mg  Mg8  1  0.50000000  0.00000000  0.25242700  1
  Mg  Mg9  1  0.50000000  0.50000000  0.26501000  1
  Mg  Mg10  1  0.00000000  0.75619200  0.73795500  1
  Mg  Mg11  1  0.00000000  0.24380800  0.73795500  1
  Mg  Mg12  1  0.00000000  0.75619200  0.26204500  1
  Mg  Mg13  1  0.00000000  0.24380800  0.26204500  1
  Al  Al0  1  0.00000000  0.00000000  0.00000000  1
  O  O0  1  0.00000000  0.00000000  0.76081800  1
  O  O1  1  0.00000000  0.50000000  0.71970400  1
  O  O2  1  0.00000000  0.00000000  0.23918200  1
  O  O3  1  0.00000000  0.50000000  0.28029600  1
  O  O4  1  0.50000000  0.74973200  0.75099700  1
  O  O5  1  0.50000000  0.25026800  0.75099700  1
  O  O6  1  0.50000000  0.74973200  0.24900300  1
  O  O7  1  0.50000000  0.25026800  0.24900300  1
  O  O8  1  0.50000000  0.00000000  0.00000000  1
  O  O9  1  0.50000000  0.50000000  0.00000000  1
  O  O10  1  0.50000000  0.00000000  0.50000000  1
  O  O11  1  0.50000000  0.50000000  0.50000000  1
  O  O12  1  0.00000000  0.79197900  0.00000000  1
  O  O13  1  0.00000000  0.20802100  0.00000000  1
  O  O14  1  0.00000000  0.75968000  0.50000000  1
  O  O15  1  0.00000000  0.24032000  0.50000000  1
loop_
_geom_bond_atom_site_label_1
_geom_bond_atom_site_label_2
_geom_bond_distance
_geom_bond_site_symmetry_2
Ba0 O9 2.277704 1_455
Ba0 O9 2.277704 1_555
Ba0 O1 2.467540 1_554
Ba0 O3 2.467540 1_555
Ba0 O12 2.523945 1_555
Ba0 O13 2.523945 1_555
Mg0 O15 2.077390 1_555
Mg0 O14 2.077390 1_545
Mg0 O10 2.277704 1_555
Mg0 O10 2.277704 1_455
Mg0 O0 2.296068 1_555
Mg0 O2 2.296068 1_555
Mg1 O1 1.934128 1_555
Mg1 O3 1.934128 1_555
Mg1 O15 2.244744 1_555
Mg1 O14 2.244744 1_555
Mg1 O11 2.277704 1_455
Mg1 O11 2.277704 1_555
Mg2 O8 2.057318 1_565
Mg2 O6 2.194622 1_555
Mg2 O4 2.194622 1_554
Mg2 O9 2.264816 1_555
Mg2 O12 2.292397 1_655
Mg2 O12 2.292397 1_555
Mg3 O8 2.057318 1_555
Mg3 O7 2.194622 1_555
Mg3 O5 2.194622 1_554
Mg3 O9 2.264816 1_555
Mg3 O13 2.292397 1_655
Mg3 O13 2.292397 1_555
Mg4 O10 2.148585 1_565
Mg4 O11 2.173549 1_555
Mg4 O4 2.209660 1_555
Mg4 O6 2.209660 1_555
Mg4 O14 2.278816 1_555
Mg4 O14 2.278816 1_655
Mg5 O10 2.148585 1_555
Mg5 O11 2.173549 1_555
Mg5 O5 2.209660 1_555
Mg5 O7 2.209660 1_555
Mg5 O15 2.278816 1_555
Mg5 O15 2.278816 1_655
Mg6 O5 2.163594 1_555
Mg6 O4 2.163594 1_545
Mg6 O10 2.179468 1_555
Mg6 O8 2.222200 1_556
Mg6 O0 2.280687 1_555
Mg6 O0 2.280687 1_655
Mg7 O11 2.068696 1_555
Mg7 O4 2.163345 1_555
Mg7 O5 2.163345 1_555
Mg7 O1 2.281676 1_655
Mg7 O1 2.281676 1_555
Mg7 O9 2.332972 1_556
Mg8 O7 2.163594 1_555
Mg8 O6 2.163594 1_545
Mg8 O10 2.179468 1_555
Mg8 O8 2.222200 1_555
Mg8 O2 2.280687 1_655
Mg8 O2 2.280687 1_555
Mg9 O11 2.068696 1_555
Mg9 O6 2.163345 1_555
Mg9 O7 2.163345 1_555
Mg9 O3 2.281676 1_655
Mg9 O3 2.281676 1_555
Mg9 O9 2.332972 1_555
Mg10 O14 2.095015 1_555
Mg10 O0 2.117131 1_565
Mg10 O1 2.220413 1_555
Mg10 O4 2.281279 1_555
Mg10 O4 2.281279 1_455
Mg10 O12 2.327520 1_556
Mg11 O15 2.095015 1_555
Mg11 O0 2.117131 1_555
Mg11 O1 2.220413 1_555
Mg11 O5 2.281279 1_455
Mg11 O5 2.281279 1_555
Mg11 O13 2.327520 1_556
Mg12 O14 2.095015 1_555
Mg12 O2 2.117131 1_565
Mg12 O3 2.220413 1_555
Mg12 O6 2.281279 1_455
Mg12 O6 2.281279 1_555
Mg12 O12 2.327520 1_555
Mg13 O15 2.095015 1_555
Mg13 O2 2.117131 1_555
Mg13 O3 2.220413 1_555
Mg13 O7 2.281279 1_555
Mg13 O7 2.281279 1_455
Mg13 O13 2.327520 1_555
Al0 O13 1.798189 1_555
Al0 O12 1.798189 1_545
Al0 O2 2.105600 1_555
Al0 O0 2.105600 1_554
Al0 O8 2.277704 1_455
Al0 O8 2.277704 1_555
