# generated using pymatgen
data_Mg14SbMo
_symmetry_space_group_name_H-M   'P 1'
_cell_length_a   6.30041101
_cell_length_b   6.26792608
_cell_length_c   10.22022837
_cell_angle_alpha   90.00000000
_cell_angle_beta   90.00000000
_cell_angle_gamma   119.82959212
_symmetry_Int_Tables_number   1
_chemical_formula_structural   Mg14SbMo
_chemical_formula_sum   'Mg14 Sb1 Mo1'
_cell_volume   350.12826112
_cell_formula_units_Z   1
loop_
 _symmetry_equiv_pos_site_id
 _symmetry_equiv_pos_as_xyz
  1  'x, y, z'
loop_
 _atom_site_type_symbol
 _atom_site_label
 _atom_site_symmetry_multiplicity
 _atom_site_fract_x
 _atom_site_fract_y
 _atom_site_fract_z
 _atom_site_occupancy
  Mg  Mg0  1  0.16611068  0.33305484  0.62500000  1
  Mg  Mg1  1  0.16716759  0.83358329  0.62500000  1
  Mg  Mg2  1  0.66839891  0.33313713  0.12500000  1
  Mg  Mg3  1  0.66627187  0.33216864  0.62500000  1
  Mg  Mg4  1  0.66839891  0.83526078  0.12500000  1
  Mg  Mg5  1  0.66627187  0.83410222  0.62500000  1
  Mg  Mg6  1  0.33050821  0.17231124  0.36994641  1
  Mg  Mg7  1  0.33050821  0.17231124  0.88005359  1
  Mg  Mg8  1  0.33050821  0.65819797  0.36994641  1
  Mg  Mg9  1  0.33050821  0.65819797  0.88005359  1
  Mg  Mg10  1  0.84289102  0.17144601  0.36942933  1
  Mg  Mg11  1  0.84289102  0.17144601  0.88057067  1
  Mg  Mg12  1  0.83173502  0.66586801  0.37847910  1
  Mg  Mg13  1  0.83173502  0.66586801  0.87152090  1
  Sb  Sb0  1  0.15839808  0.82919854  0.12500000  1
  Mo  Mo0  1  0.16769720  0.33384810  0.12500000  1
loop_
_geom_bond_atom_site_label_1
_geom_bond_atom_site_label_2
_geom_bond_distance
_geom_bond_site_symmetry_2
Mg0 Mg1 3.133968 1_555
Mg0 Mg1 3.133968 1_545
Mg0 Mg5 3.146430 1_445
Mg0 Mg3 3.146431 1_455
Mg0 Mg6 3.149769 1_555
Mg0 Mg7 3.149769 1_555
Mg0 Mg8 3.149775 1_555
Mg0 Mg9 3.149775 1_555
Mg0 Mg10 3.153316 1_455
Mg0 Mg11 3.153316 1_455
Mg0 Mg5 3.153987 1_555
Mg0 Mg3 3.153988 1_555
Mg1 Mg13 3.115941 1_455
Mg1 Mg12 3.115941 1_455
Mg1 Mg3 3.142945 1_565
Mg1 Mg5 3.142945 1_555
Mg1 Mg3 3.157468 1_455
Mg1 Mg5 3.157468 1_455
Mg1 Mg8 3.191853 1_555
Mg1 Mg9 3.191853 1_555
Mg1 Mg6 3.191860 1_565
Mg1 Mg7 3.191860 1_565
Mg2 Sb0 3.106272 1_655
Mg2 Mg7 3.111318 1_554
Mg2 Mg6 3.111318 1_555
Mg2 Mg4 3.120652 1_545
Mg2 Mo0 3.143570 1_655
Mg2 Mg4 3.147274 1_555
Mg2 Mo0 3.156846 1_555
Mg2 Sb0 3.194484 1_545
Mg3 Mg5 3.121844 1_545
Mg3 Mg5 3.146083 1_555
Mg3 Mg6 3.188306 1_555
Mg3 Mg7 3.188306 1_555
Mg4 Sb0 3.106272 1_655
Mg4 Mg9 3.111318 1_554
Mg4 Mg8 3.111318 1_555
Mg4 Mo0 3.143570 1_665
Mg4 Mo0 3.156845 1_555
Mg4 Sb0 3.194484 1_555
Mg5 Mg8 3.188306 1_555
Mg5 Mg9 3.188306 1_555
Mg6 Mo0 3.062299 1_555
Mg6 Sb0 3.122176 1_545
Mg7 Mo0 3.062299 1_556
Mg7 Sb0 3.122176 1_546
Mg8 Mo0 3.062305 1_555
Mg8 Sb0 3.122170 1_555
Mg9 Mo0 3.062305 1_556
Mg9 Sb0 3.122170 1_556
Mg10 Mo0 3.064677 1_655
Mg10 Mg2 3.095931 1_555
Mg10 Mg4 3.095938 1_545
Mg10 Mg12 3.135920 1_545
Mg10 Mg12 3.135920 1_555
Mg10 Mg3 3.192309 1_555
Mg10 Mg5 3.192315 1_545
Mg11 Mo0 3.064677 1_656
Mg11 Mg2 3.095931 1_556
Mg11 Mg4 3.095938 1_546
Mg11 Mg13 3.135920 1_545
Mg11 Mg13 3.135920 1_555
Mg11 Mg3 3.192309 1_555
Mg11 Mg5 3.192315 1_545
Mg12 Mg5 3.104867 1_555
Mg12 Mg3 3.104873 1_555
Mg12 Mg6 3.135511 1_555
Mg12 Mg8 3.135512 1_555
Mg12 Sb0 3.146274 1_655
Mg12 Mg4 3.159839 1_555
Mg12 Mg2 3.159845 1_555
Mg12 Mg6 3.167865 1_665
Mg12 Mg8 3.167865 1_655
Mg13 Mg5 3.104867 1_555
Mg13 Mg3 3.104873 1_555
Mg13 Mg7 3.135511 1_555
Mg13 Mg9 3.135512 1_555
Mg13 Sb0 3.146274 1_656
Mg13 Mg4 3.159839 1_556
Mg13 Mg2 3.159845 1_556
Mg13 Mg7 3.167865 1_665
Mg13 Mg9 3.167865 1_655
Mo0 Sb0 3.134375 1_545
Mo0 Sb0 3.134375 1_555
