# generated using pymatgen
data_Sr2LuNbO6
_symmetry_space_group_name_H-M   'P 1'
_cell_length_a   5.85405500
_cell_length_b   5.85254000
_cell_length_c   10.13070780
_cell_angle_alpha   90.00000000
_cell_angle_beta   125.15432326
_cell_angle_gamma   90.00000000
_symmetry_Int_Tables_number   1
_chemical_formula_structural   Sr2LuNbO6
_chemical_formula_sum   'Sr4 Lu2 Nb2 O12'
_cell_volume   283.78149941
_cell_formula_units_Z   2
loop_
 _symmetry_equiv_pos_site_id
 _symmetry_equiv_pos_as_xyz
  1  'x, y, z'
loop_
 _atom_site_type_symbol
 _atom_site_label
 _atom_site_symmetry_multiplicity
 _atom_site_fract_x
 _atom_site_fract_y
 _atom_site_fract_z
 _atom_site_occupancy
  Sr  Sr0  1  0.25564300  0.47441500  0.75272100  1
  Sr  Sr1  1  0.25564300  0.02558500  0.25272100  1
  Sr  Sr2  1  0.74435700  0.52558500  0.24727900  1
  Sr  Sr3  1  0.74435700  0.97441500  0.74727900  1
  Lu  Lu0  1  0.00000000  0.00000000  0.50000000  1
  Lu  Lu1  1  0.00000000  0.50000000  0.00000000  1
  Nb  Nb0  1  0.50000000  0.50000000  0.50000000  1
  Nb  Nb1  1  0.50000000  0.00000000  0.00000000  1
  O  O0  1  0.33504900  0.21979600  0.53450100  1
  O  O1  1  0.33504900  0.28020400  0.03450100  1
  O  O2  1  0.66495100  0.78020400  0.46549900  1
  O  O3  1  0.66495100  0.71979600  0.96549900  1
  O  O4  1  0.73533000  0.20361000  0.96018000  1
  O  O5  1  0.73533000  0.29639000  0.46018000  1
  O  O6  1  0.26467000  0.79639000  0.03982000  1
  O  O7  1  0.26467000  0.70361000  0.53982000  1
  O  O8  1  0.18842600  0.01406200  0.76037600  1
  O  O9  1  0.18842600  0.48593800  0.26037600  1
  O  O10  1  0.81157400  0.98593800  0.23962400  1
  O  O11  1  0.81157400  0.51406200  0.73962400  1
loop_
_geom_bond_atom_site_label_1
_geom_bond_atom_site_label_2
_geom_bond_distance
_geom_bond_site_symmetry_2
Lu0 O10 2.197916 1_445
Lu0 O8 2.197916 1_555
Lu0 O0 2.198755 1_555
Lu0 O2 2.198755 1_445
Lu0 O5 2.202850 1_455
Lu0 O7 2.202850 1_545
Lu1 O9 2.197916 1_555
Lu1 O11 2.197916 1_454
Lu1 O1 2.198755 1_555
Lu1 O3 2.198755 1_454
Lu1 O4 2.202850 1_454
Lu1 O6 2.202850 1_555
Nb0 O7 2.029922 1_555
Nb0 O5 2.029922 1_555
Nb0 O11 2.031701 1_555
Nb0 O9 2.031701 1_555
Nb0 O2 2.032870 1_555
Nb0 O0 2.032870 1_555
Nb1 O4 2.029922 1_554
Nb1 O6 2.029922 1_545
Nb1 O8 2.031701 1_554
Nb1 O10 2.031701 1_545
Nb1 O1 2.032870 1_555
Nb1 O3 2.032870 1_544
O0 Sr3 2.549992 1_545
O0 Sr1 2.851112 1_555
O0 Sr0 2.916741 1_555
O1 Sr2 2.549992 1_555
O1 Sr0 2.851112 1_554
O1 Sr1 2.916741 1_555
O2 Sr1 2.549992 1_565
O2 Sr3 2.851112 1_555
O2 Sr2 2.916741 1_555
O3 Sr0 2.549992 1_555
O3 Sr2 2.851112 1_556
O3 Sr3 2.916741 1_555
O4 Sr3 2.566179 1_545
O4 Sr0 2.831652 1_555
O4 Sr1 2.958253 1_656
O5 Sr2 2.566179 1_555
O5 Sr1 2.831652 1_555
O5 Sr0 2.958253 1_655
O6 Sr1 2.566179 1_565
O6 Sr2 2.831652 1_555
O6 Sr3 2.958253 1_454
O7 Sr0 2.566179 1_555
O7 Sr3 2.831652 1_555
O7 Sr2 2.958253 1_455
O8 Sr3 2.536176 1_445
O8 Sr0 2.730364 1_555
O8 Sr0 3.189183 1_545
O9 Sr2 2.536176 1_455
O9 Sr1 2.730364 1_555
O9 Sr1 3.189183 1_565
O10 Sr1 2.536176 1_665
O10 Sr2 2.730364 1_555
O10 Sr2 3.189183 1_565
O11 Sr0 2.536176 1_655
O11 Sr3 2.730364 1_555
O11 Sr3 3.189183 1_545
