# generated using pymatgen
data_Ni(IN)6
_symmetry_space_group_name_H-M   'P 1'
_cell_length_a   5.56131167
_cell_length_b   11.37319077
_cell_length_c   11.37319077
_cell_angle_alpha   77.40961841
_cell_angle_beta   75.19428178
_cell_angle_gamma   75.19428178
_symmetry_Int_Tables_number   1
_chemical_formula_structural   Ni(IN)6
_chemical_formula_sum   'Ni2 I12 N12'
_cell_volume   663.34703784
_cell_formula_units_Z   2
loop_
 _symmetry_equiv_pos_site_id
 _symmetry_equiv_pos_as_xyz
  1  'x, y, z'
loop_
 _atom_site_type_symbol
 _atom_site_label
 _atom_site_symmetry_multiplicity
 _atom_site_fract_x
 _atom_site_fract_y
 _atom_site_fract_z
 _atom_site_occupancy
  Ni  Ni0  1  0.50000000  0.00000000  0.50000000  1
  Ni  Ni1  1  0.00000000  0.50000000  0.00000000  1
  I  I0  1  0.25000000  0.59900800  0.40099200  1
  I  I1  1  0.75000000  0.40099200  0.59900800  1
  I  I2  1  0.10297700  0.13738100  0.67842200  1
  I  I3  1  0.89702300  0.86261900  0.32157800  1
  I  I4  1  0.39702300  0.32157800  0.86261900  1
  I  I5  1  0.60297700  0.67842200  0.13738100  1
  I  I6  1  0.99408000  0.87234800  0.60609300  1
  I  I7  1  0.00592000  0.12765200  0.39390700  1
  I  I8  1  0.50592000  0.39390700  0.12765200  1
  I  I9  1  0.49408000  0.60609300  0.87234800  1
  I  I10  1  0.00000000  0.00000000  0.00000000  1
  I  I11  1  0.50000000  0.00000000  0.00000000  1
  N  N0  1  0.27821400  0.16512200  0.49746800  1
  N  N1  1  0.72178600  0.83487800  0.50253200  1
  N  N2  1  0.22178600  0.50253200  0.83487800  1
  N  N3  1  0.77821400  0.49746800  0.16512200  1
  N  N4  1  0.26233700  0.96891500  0.41368800  1
  N  N5  1  0.73766300  0.03108500  0.58631200  1
  N  N6  1  0.23766300  0.58631200  0.03108500  1
  N  N7  1  0.76233700  0.41368800  0.96891500  1
  N  N8  1  0.26781900  0.95501900  0.66104500  1
  N  N9  1  0.73218100  0.04498100  0.33895500  1
  N  N10  1  0.23218100  0.33895500  0.04498100  1
  N  N11  1  0.76781900  0.66104500  0.95501900  1
loop_
_geom_bond_atom_site_label_1
_geom_bond_atom_site_label_2
_geom_bond_distance
_geom_bond_site_symmetry_2
I0 I3 3.221104 1_455
I0 I5 3.221104 1_555
I1 I4 3.221104 1_555
I1 I2 3.221104 1_655
I2 N0 2.033167 1_555
I2 N8 2.072547 1_545
I3 N1 2.033167 1_555
I3 N9 2.072547 1_565
I4 N2 2.033167 1_555
I4 N10 2.072547 1_556
I5 N3 2.033167 1_555
I5 N11 2.072547 1_554
I6 N5 2.003632 1_565
I6 N8 2.250816 1_655
I6 N1 2.306991 1_555
I6 N4 2.518236 1_655
I7 N4 2.003632 1_545
I7 N9 2.250816 1_455
I7 N0 2.306991 1_555
I7 N5 2.518236 1_455
I8 N7 2.003632 1_554
I8 N10 2.250816 1_555
I8 N3 2.306991 1_555
I8 N6 2.518236 1_555
I9 N6 2.003632 1_556
I9 N11 2.250816 1_555
I9 N2 2.306991 1_555
I9 N7 2.518236 1_555
I10 I11 2.780656 1_555
I10 I11 2.780656 1_455
N0 Ni0 1.964598 1_555
N1 Ni0 1.964598 1_565
N2 Ni1 1.964598 1_556
N3 Ni1 1.964598 1_655
N4 Ni0 1.971997 1_565
N5 Ni0 1.971997 1_555
N6 Ni1 1.971997 1_555
N7 Ni1 1.971997 1_656
N8 Ni0 2.001030 1_565
N9 Ni0 2.001030 1_555
N10 Ni1 2.001030 1_555
N11 Ni1 2.001030 1_656
