# generated using pymatgen
data_Mg3(FeN2)2
_symmetry_space_group_name_H-M   'P 1'
_cell_length_a   6.12272511
_cell_length_b   7.58398892
_cell_length_c   5.13019357
_cell_angle_alpha   89.99999785
_cell_angle_beta   90.34287323
_cell_angle_gamma   128.26730124
_symmetry_Int_Tables_number   1
_chemical_formula_structural   Mg3(FeN2)2
_chemical_formula_sum   'Mg6 Fe4 N8'
_cell_volume   187.02735536
_cell_formula_units_Z   2
loop_
 _symmetry_equiv_pos_site_id
 _symmetry_equiv_pos_as_xyz
  1  'x, y, z'
loop_
 _atom_site_type_symbol
 _atom_site_label
 _atom_site_symmetry_multiplicity
 _atom_site_fract_x
 _atom_site_fract_y
 _atom_site_fract_z
 _atom_site_occupancy
  Mg  Mg0  1  0.23012500  0.98593000  0.04750900  1
  Mg  Mg1  1  0.76987500  0.75580500  0.45249100  1
  Mg  Mg2  1  0.76987500  0.01407000  0.95249100  1
  Mg  Mg3  1  0.23012500  0.24419500  0.54750900  1
  Mg  Mg4  1  0.00000000  0.60410100  0.75000000  1
  Mg  Mg5  1  0.00000000  0.39589900  0.25000000  1
  Fe  Fe0  1  0.59520400  0.17095000  0.60676500  1
  Fe  Fe1  1  0.40479600  0.57574600  0.89323500  1
  Fe  Fe2  1  0.40479600  0.82905000  0.39323500  1
  Fe  Fe3  1  0.59520400  0.42425400  0.10676500  1
  N  N0  1  0.21247800  0.93670100  0.51798300  1
  N  N1  1  0.78752200  0.72422300  0.98201700  1
  N  N2  1  0.78752200  0.06329900  0.48201700  1
  N  N3  1  0.21247800  0.27577700  0.01798300  1
  N  N4  1  0.68578700  0.25983900  0.94622300  1
  N  N5  1  0.31421300  0.57405200  0.55377700  1
  N  N6  1  0.31421300  0.74016100  0.05377700  1
  N  N7  1  0.68578700  0.42594800  0.44622300  1
loop_
_geom_bond_atom_site_label_1
_geom_bond_atom_site_label_2
_geom_bond_distance
_geom_bond_site_symmetry_2
Mg0 N1 2.173200 1_454
Mg0 N6 2.220072 1_555
Mg0 N3 2.271714 1_565
Mg0 N4 2.281984 1_564
Mg0 N0 2.435117 1_555
Mg0 N0 2.734473 1_554
Mg1 N0 2.173200 1_655
Mg1 N7 2.220072 1_555
Mg1 N2 2.271714 1_565
Mg1 N5 2.281983 1_555
Mg1 N1 2.435117 1_554
Mg1 N1 2.734473 1_555
Mg2 N3 2.173200 1_656
Mg2 N4 2.220072 1_555
Mg2 N1 2.271714 1_545
Mg2 N6 2.281984 1_546
Mg2 N2 2.435117 1_555
Mg2 N2 2.734473 1_556
Mg3 N2 2.173200 1_455
Mg3 N5 2.220072 1_555
Mg3 N0 2.271714 1_545
Mg3 N7 2.281983 1_555
Mg3 N3 2.435117 1_556
Mg3 N3 2.734473 1_555
Mg4 N6 2.167906 1_556
Mg4 N7 2.167906 1_455
Mg4 N5 2.309265 1_555
Mg4 N4 2.309265 1_455
Mg4 N1 2.329320 1_455
Mg4 N0 2.329320 1_555
Mg5 N4 2.167906 1_454
Mg5 N5 2.167906 1_555
Mg5 N7 2.309265 1_455
Mg5 N6 2.309265 1_555
Mg5 N3 2.329320 1_555
Mg5 N2 2.329320 1_455
Fe0 N4 1.822127 1_555
Fe0 N7 1.844675 1_555
Fe0 N2 1.913755 1_555
Fe0 N0 1.919736 1_545
Fe1 N5 1.822127 1_555
Fe1 N6 1.844675 1_556
Fe1 N3 1.913755 1_556
Fe1 N1 1.919735 1_555
Fe2 N6 1.822127 1_555
Fe2 N5 1.844675 1_555
Fe2 N0 1.913755 1_555
Fe2 N2 1.919736 1_565
Fe3 N7 1.822127 1_555
Fe3 N4 1.844675 1_554
Fe3 N1 1.913755 1_554
Fe3 N3 1.919735 1_555
