# generated using pymatgen
data_La2Ti3CuO10
_symmetry_space_group_name_H-M   'P 1'
_cell_length_a   13.60419466
_cell_length_b   13.60419466
_cell_length_c   13.60419466
_cell_angle_alpha   163.75258948
_cell_angle_beta   163.75258948
_cell_angle_gamma   23.05563700
_symmetry_Int_Tables_number   1
_chemical_formula_structural   La2Ti3CuO10
_chemical_formula_sum   'La2 Ti3 Cu1 O10'
_cell_volume   197.05122275
_cell_formula_units_Z   1
loop_
 _symmetry_equiv_pos_site_id
 _symmetry_equiv_pos_as_xyz
  1  'x, y, z'
loop_
 _atom_site_type_symbol
 _atom_site_label
 _atom_site_symmetry_multiplicity
 _atom_site_fract_x
 _atom_site_fract_y
 _atom_site_fract_z
 _atom_site_occupancy
  La  La0  1  0.83247100  0.33247100  0.50000000  1
  La  La1  1  0.66752900  0.16752900  0.50000000  1
  Ti  Ti0  1  0.08956300  0.58956300  0.50000000  1
  Ti  Ti1  1  0.41043700  0.91043700  0.50000000  1
  Ti  Ti2  1  0.25000000  0.75000000  0.50000000  1
  Cu  Cu0  1  0.50000000  0.50000000  0.00000000  1
  O  O0  1  0.02174500  0.52174500  0.50000000  1
  O  O1  1  0.47825500  0.97825500  0.50000000  1
  O  O2  1  0.60493700  0.60493700  0.00000000  1
  O  O3  1  0.10670700  0.10670700  0.00000000  1
  O  O4  1  0.89329300  0.89329300  0.00000000  1
  O  O5  1  0.39506300  0.39506300  0.00000000  1
  O  O6  1  0.17668200  0.67668200  0.50000000  1
  O  O7  1  0.32331800  0.82331800  0.50000000  1
  O  O8  1  0.74981500  0.74981500  0.00000000  1
  O  O9  1  0.25018500  0.25018500  0.00000000  1
loop_
_geom_bond_atom_site_label_1
_geom_bond_atom_site_label_2
_geom_bond_distance
_geom_bond_site_symmetry_2
La0 O4 2.514939 1_556
La0 O4 2.514939 1_545
La0 O5 2.545618 1_555
La0 O5 2.545618 1_656
La0 O7 2.729641 1_555
La0 O7 2.729641 1_656
La0 O7 2.729641 1_544
La0 O7 2.729641 1_645
La0 O9 2.916856 1_555
La0 O9 2.916856 1_656
La0 O8 2.924281 1_556
La0 O8 2.924281 1_545
La1 O3 2.514939 1_656
La1 O3 2.514939 1_555
La1 O2 2.545618 1_556
La1 O2 2.545618 1_545
La1 O6 2.729641 1_544
La1 O6 2.729641 1_645
La1 O6 2.729641 1_555
La1 O6 2.729641 1_656
La1 O8 2.916856 1_545
La1 O8 2.916856 1_556
La1 O9 2.924281 1_555
La1 O9 2.924281 1_656
Cu0 O0 2.007925 1_655
Cu0 O0 2.007925 1_554
Cu0 O1 2.007925 1_544
Cu0 O1 2.007925 1_555
O0 Ti0 1.807996 1_555
O1 Ti1 1.807996 1_555
O2 Ti0 1.965626 1_655
O2 Ti0 1.965626 1_554
O3 Ti0 1.976005 1_555
O3 Ti0 1.976005 1_544
O4 Ti1 1.976005 1_655
O4 Ti1 1.976005 1_554
O5 Ti1 1.965626 1_555
O5 Ti1 1.965626 1_544
O6 Ti2 1.954624 1_555
O6 Ti0 2.322552 1_555
O7 Ti2 1.954624 1_555
O7 Ti1 2.322552 1_555
O8 Ti2 1.922426 1_655
O8 Ti2 1.922426 1_554
O9 Ti2 1.922426 1_544
O9 Ti2 1.922426 1_555
