# generated using pymatgen
data_CuPbSO6
_symmetry_space_group_name_H-M   'P 1'
_cell_length_a   4.75706300
_cell_length_b   5.50072900
_cell_length_c   10.10988367
_cell_angle_alpha   90.00000000
_cell_angle_beta   102.26208854
_cell_angle_gamma   90.00000000
_symmetry_Int_Tables_number   1
_chemical_formula_structural   CuPbSO6
_chemical_formula_sum   'Cu2 Pb2 S2 O12'
_cell_volume   258.51317910
_cell_formula_units_Z   2
loop_
 _symmetry_equiv_pos_site_id
 _symmetry_equiv_pos_as_xyz
  1  'x, y, z'
loop_
 _atom_site_type_symbol
 _atom_site_label
 _atom_site_symmetry_multiplicity
 _atom_site_fract_x
 _atom_site_fract_y
 _atom_site_fract_z
 _atom_site_occupancy
  Cu  Cu0  1  0.00000000  0.50000000  0.00000000  1
  Cu  Cu1  1  0.00000000  0.00000000  0.00000000  1
  Pb  Pb0  1  0.67283400  0.25000000  0.66950100  1
  Pb  Pb1  1  0.32716600  0.75000000  0.33049900  1
  S  S0  1  0.87689200  0.25000000  0.33831900  1
  S  S1  1  0.12310800  0.75000000  0.66168100  1
  O  O0  1  0.06234300  0.25000000  0.47567700  1
  O  O1  1  0.93765700  0.75000000  0.52432300  1
  O  O2  1  0.56749000  0.25000000  0.34743700  1
  O  O3  1  0.43251000  0.75000000  0.65256300  1
  O  O4  1  0.06828400  0.97154400  0.73964600  1
  O  O5  1  0.93171600  0.47154400  0.26035400  1
  O  O6  1  0.93171600  0.02845600  0.26035400  1
  O  O7  1  0.06828400  0.52845600  0.73964600  1
  O  O8  1  0.25285800  0.25000000  0.04182600  1
  O  O9  1  0.74714200  0.75000000  0.95817400  1
  O  O10  1  0.76697000  0.25000000  0.91731400  1
  O  O11  1  0.23303000  0.75000000  0.08268600  1
loop_
_geom_bond_atom_site_label_1
_geom_bond_atom_site_label_2
_geom_bond_distance
_geom_bond_site_symmetry_2
Cu0 O8 1.816798 1_555
Cu0 O9 1.816798 1_454
Cu0 O10 1.850720 1_454
Cu0 O11 1.850720 1_555
Cu1 O8 1.816798 1_555
Cu1 O9 1.816798 1_444
Cu1 O10 1.850720 1_454
Cu1 O11 1.850720 1_545
O0 S0 1.478619 1_455
O1 S1 1.478619 1_655
O2 S0 1.494141 1_555
O3 S1 1.494141 1_555
O4 S1 1.503908 1_555
O4 Pb0 2.412721 1_465
O5 S0 1.503908 1_555
O5 Pb1 2.412721 1_655
O6 S0 1.503908 1_555
O6 Pb1 2.412721 1_645
O7 S1 1.503908 1_555
O7 Pb0 2.412721 1_455
O10 Pb0 2.449655 1_555
O11 Pb1 2.449655 1_555
