# generated using pymatgen
data_BaNaBiWO6
_symmetry_space_group_name_H-M   'P 1'
_cell_length_a   8.50176920
_cell_length_b   8.50165783
_cell_length_c   8.43238702
_cell_angle_alpha   90.00000000
_cell_angle_beta   90.00000000
_cell_angle_gamma   90.00000000
_symmetry_Int_Tables_number   1
_chemical_formula_structural   BaNaBiWO6
_chemical_formula_sum   'Ba4 Na4 Bi4 W4 O24'
_cell_volume   609.48562030
_cell_formula_units_Z   4
loop_
 _symmetry_equiv_pos_site_id
 _symmetry_equiv_pos_as_xyz
  1  'x, y, z'
loop_
 _atom_site_type_symbol
 _atom_site_label
 _atom_site_symmetry_multiplicity
 _atom_site_fract_x
 _atom_site_fract_y
 _atom_site_fract_z
 _atom_site_occupancy
  Ba  Ba0  1  -0.00000000  -0.00000000  0.00000000  1
  Ba  Ba1  1  0.50000000  0.50000000  0.50000000  1
  Ba  Ba2  1  -0.00000000  0.50000000  0.50000000  1
  Ba  Ba3  1  0.50000000  -0.00000000  0.00000000  1
  Na  Na0  1  0.50000000  -0.00000000  0.50000000  1
  Na  Na1  1  0.50000000  0.50000000  0.00000000  1
  Na  Na2  1  -0.00000000  0.50000000  0.00000000  1
  Na  Na3  1  -0.00000000  -0.00000000  0.50000000  1
  Bi  Bi0  1  0.75000000  0.75000000  0.75000000  1
  Bi  Bi1  1  0.25000000  0.25000000  0.75000000  1
  Bi  Bi2  1  0.25000000  0.75000000  0.25000000  1
  Bi  Bi3  1  0.75000000  0.25000000  0.25000000  1
  W  W0  1  0.25000000  0.25000000  0.25000000  1
  W  W1  1  0.75000000  0.75000000  0.25000000  1
  W  W2  1  0.75000000  0.25000000  0.75000000  1
  W  W3  1  0.25000000  0.75000000  0.75000000  1
  O  O0  1  0.02497536  0.22189620  0.29932867  1
  O  O1  1  0.97502464  0.77810380  0.29932867  1
  O  O2  1  0.97502464  0.22189620  0.70067133  1
  O  O3  1  0.02497536  0.77810380  0.70067133  1
  O  O4  1  0.26844316  0.02304558  0.21479776  1
  O  O5  1  0.26844316  0.97695442  0.78520224  1
  O  O6  1  0.73155684  0.97695442  0.21479776  1
  O  O7  1  0.73155684  0.02304558  0.78520224  1
  O  O8  1  0.19699832  0.27374346  0.02542186  1
  O  O9  1  0.80300168  0.27374346  0.97457814  1
  O  O10  1  0.19699832  0.72625654  0.97457814  1
  O  O11  1  0.80300168  0.72625654  0.02542186  1
  O  O12  1  0.47502464  0.27810380  0.20067133  1
  O  O13  1  0.52497536  0.72189620  0.20067133  1
  O  O14  1  0.52497536  0.27810380  0.79932867  1
  O  O15  1  0.47502464  0.72189620  0.79932867  1
  O  O16  1  0.23155684  0.47695442  0.28520224  1
  O  O17  1  0.23155684  0.52304558  0.71479776  1
  O  O18  1  0.76844316  0.52304558  0.28520224  1
  O  O19  1  0.76844316  0.47695442  0.71479776  1
  O  O20  1  0.30300168  0.22625654  0.47457814  1
  O  O21  1  0.69699832  0.22625654  0.52542186  1
  O  O22  1  0.30300168  0.77374346  0.52542186  1
  O  O23  1  0.69699832  0.77374346  0.47457814  1
loop_
_geom_bond_atom_site_label_1
_geom_bond_atom_site_label_2
_geom_bond_distance
_geom_bond_site_symmetry_2
Ba0 O9 2.875278 1_454
Ba0 O8 2.875278 1_555
Ba0 O10 2.875278 1_544
Ba0 O11 2.875278 1_445
Ba0 O7 2.920217 1_454
Ba0 O5 2.920217 1_544
Ba0 O6 2.920217 1_445
Ba0 O4 2.920217 1_555
Ba0 O2 3.158286 1_454
Ba0 O3 3.158286 1_544
Ba0 O0 3.158286 1_555
Ba0 O1 3.158286 1_445
Ba1 O20 2.875278 1_555
Ba1 O21 2.875278 1_555
Ba1 O23 2.875278 1_555
Ba1 O22 2.875278 1_555
Ba1 O19 2.920217 1_555
Ba1 O17 2.920217 1_555
Ba1 O16 2.920217 1_555
Ba1 O18 2.920217 1_555
Ba1 O13 3.158286 1_555
Ba1 O14 3.158286 1_555
Ba1 O15 3.158286 1_555
Ba1 O12 3.158286 1_555
Ba2 O19 2.682274 1_455
Ba2 O17 2.682274 1_555
Ba2 O18 2.682274 1_455
Ba2 O16 2.682274 1_555
Ba2 O1 2.915225 1_455
Ba2 O0 2.915225 1_555
Ba2 O3 2.915225 1_555
Ba2 O2 2.915225 1_455
Ba3 O7 2.682274 1_554
Ba3 O5 2.682274 1_544
Ba3 O4 2.682274 1_555
Ba3 O6 2.682274 1_545
Ba3 O13 2.915225 1_545
Ba3 O12 2.915225 1_555
Ba3 O14 2.915225 1_554
Ba3 O15 2.915225 1_544
Na0 O23 2.559510 1_545
Na0 O22 2.559510 1_545
Na0 O21 2.559510 1_555
Na0 O20 2.559510 1_555
Na1 O13 2.543078 1_555
Na1 O12 2.543078 1_555
Na1 O14 2.543078 1_554
Na1 O15 2.543078 1_554
Na2 O11 2.559510 1_455
Na2 O10 2.559510 1_554
Na2 O9 2.559510 1_454
Na2 O8 2.559510 1_555
Na3 O1 2.543078 1_445
Na3 O0 2.543078 1_555
Na3 O3 2.543078 1_545
Na3 O2 2.543078 1_455
Bi0 O19 2.345489 1_555
Bi0 O7 2.345489 1_565
Bi0 O11 2.374370 1_556
Bi0 O23 2.374370 1_555
Bi0 O3 2.386485 1_655
Bi0 O15 2.386485 1_555
Bi1 O5 2.345489 1_545
Bi1 O17 2.345489 1_555
Bi1 O20 2.374370 1_555
Bi1 O8 2.374370 1_556
Bi1 O2 2.386485 1_455
Bi1 O14 2.386485 1_555
Bi2 O4 2.345489 1_565
Bi2 O16 2.345489 1_555
Bi2 O22 2.374370 1_555
Bi2 O10 2.374370 1_554
Bi2 O13 2.386485 1_555
Bi2 O1 2.386485 1_455
Bi3 O6 2.345489 1_545
Bi3 O18 2.345489 1_555
Bi3 O21 2.374370 1_555
Bi3 O9 2.374370 1_554
Bi3 O12 2.386485 1_555
Bi3 O0 2.386485 1_655
O0 W0 1.972331 1_555
O1 W1 1.972331 1_555
O2 W2 1.972331 1_555
O3 W3 1.972331 1_555
O4 W0 1.958476 1_555
O5 W3 1.958476 1_555
O6 W1 1.958476 1_555
O7 W2 1.958476 1_555
O8 W0 1.957040 1_555
O9 W2 1.957040 1_555
O10 W3 1.957040 1_555
O11 W1 1.957040 1_555
O12 W0 1.972331 1_555
O13 W1 1.972331 1_555
O14 W2 1.972331 1_555
O15 W3 1.972331 1_555
O16 W0 1.958476 1_555
O17 W3 1.958476 1_555
O18 W1 1.958476 1_555
O19 W2 1.958476 1_555
O20 W0 1.957040 1_555
O21 W2 1.957040 1_555
O22 W3 1.957040 1_555
O23 W1 1.957040 1_555
