# generated using pymatgen
data_Ba3V2(SeO4)4
_symmetry_space_group_name_H-M   'P 1'
_cell_length_a   15.68952200
_cell_length_b   9.13866200
_cell_length_c   14.58938887
_cell_angle_alpha   53.63259537
_cell_angle_beta   90.00000000
_cell_angle_gamma   90.00000000
_symmetry_Int_Tables_number   1
_chemical_formula_structural   Ba3V2(SeO4)4
_chemical_formula_sum   'Ba12 V8 Se16 O64'
_cell_volume   1684.41870184
_cell_formula_units_Z   4
loop_
 _symmetry_equiv_pos_site_id
 _symmetry_equiv_pos_as_xyz
  1  'x, y, z'
loop_
 _atom_site_type_symbol
 _atom_site_label
 _atom_site_symmetry_multiplicity
 _atom_site_fract_x
 _atom_site_fract_y
 _atom_site_fract_z
 _atom_site_occupancy
  Ba  Ba0  1  0.67538300  0.66677500  0.58381500  1
  Ba  Ba1  1  0.82461700  0.66677500  0.08381500  1
  Ba  Ba2  1  0.32461700  0.33322500  0.41618500  1
  Ba  Ba3  1  0.17538300  0.33322500  0.91618500  1
  Ba  Ba4  1  0.69237300  0.11498000  0.14501100  1
  Ba  Ba5  1  0.80762700  0.11498000  0.64501100  1
  Ba  Ba6  1  0.30762700  0.88502000  0.85498900  1
  Ba  Ba7  1  0.19237300  0.88502000  0.35498900  1
  Ba  Ba8  1  0.91010400  0.00894300  0.39278900  1
  Ba  Ba9  1  0.58989600  0.00894300  0.89278900  1
  Ba  Ba10  1  0.08989600  0.99105700  0.60721100  1
  Ba  Ba11  1  0.41010400  0.99105700  0.10721100  1
  V  V0  1  0.79096000  0.61890400  0.38268600  1
  V  V1  1  0.70904000  0.61890400  0.88268600  1
  V  V2  1  0.20904000  0.38109600  0.61731400  1
  V  V3  1  0.29096000  0.38109600  0.11731400  1
  V  V4  1  0.50765500  0.03784000  0.34445900  1
  V  V5  1  0.99234500  0.03784000  0.84445900  1
  V  V6  1  0.49234500  0.96216000  0.65554100  1
  V  V7  1  0.00765500  0.96216000  0.15554100  1
  Se  Se0  1  0.62014100  0.66969600  0.22049300  1
  Se  Se1  1  0.87985900  0.66969600  0.72049300  1
  Se  Se2  1  0.37985900  0.33030400  0.77950700  1
  Se  Se3  1  0.12014100  0.33030400  0.27950700  1
  Se  Se4  1  0.95458300  0.46698000  0.39113000  1
  Se  Se5  1  0.54541700  0.46698000  0.89113000  1
  Se  Se6  1  0.04541700  0.53302000  0.60887000  1
  Se  Se7  1  0.45458300  0.53302000  0.10887000  1
  Se  Se8  1  0.43809700  0.67991800  0.44458600  1
  Se  Se9  1  0.06190300  0.67991800  0.94458600  1
  Se  Se10  1  0.56190300  0.32008200  0.55541400  1
  Se  Se11  1  0.93809700  0.32008200  0.05541400  1
  Se  Se12  1  0.69415500  0.20076800  0.36724400  1
  Se  Se13  1  0.80584500  0.20076800  0.86724400  1
  Se  Se14  1  0.30584500  0.79923200  0.63275600  1
  Se  Se15  1  0.19415500  0.79923200  0.13275600  1
  O  O0  1  0.72556400  0.72265600  0.24593100  1
  O  O1  1  0.77443600  0.72265600  0.74593100  1
  O  O2  1  0.27443600  0.27734400  0.75406900  1
  O  O3  1  0.22556400  0.27734400  0.25406900  1
  O  O4  1  0.57862300  0.88300400  0.14763500  1
  O  O5  1  0.92137700  0.88300400  0.64763500  1
  O  O6  1  0.42137700  0.11699600  0.85236500  1
  O  O7  1  0.07862300  0.11699600  0.35236500  1
  O  O8  1  0.64668500  0.65220300  0.11538100  1
  O  O9  1  0.85331500  0.65220300  0.61538100  1
  O  O10  1  0.35331500  0.34779700  0.88461900  1
  O  O11  1  0.14668500  0.34779700  0.38461900  1
  O  O12  1  0.89561000  0.50330000  0.47967400  1
  O  O13  1  0.60439000  0.50330000  0.97967400  1
  O  O14  1  0.10439000  0.49670000  0.52032600  1
  O  O15  1  0.39561000  0.49670000  0.02032600  1
  O  O16  1  0.86197100  0.54128700  0.30348700  1
  O  O17  1  0.63802900  0.54128700  0.80348700  1
  O  O18  1  0.13802900  0.45871300  0.69651300  1
  O  O19  1  0.36197100  0.45871300  0.19651300  1
  O  O20  1  0.94749000  0.23921100  0.46402000  1
  O  O21  1  0.55251000  0.23921100  0.96402000  1
  O  O22  1  0.05251000  0.76078900  0.53598000  1
  O  O23  1  0.44749000  0.76078900  0.03598000  1
  O  O24  1  0.78980900  0.80796700  0.37837500  1
  O  O25  1  0.71019100  0.80796700  0.87837500  1
  O  O26  1  0.21019100  0.19203300  0.62162500  1
  O  O27  1  0.28980900  0.19203300  0.12162500  1
  O  O28  1  0.72398700  0.46568400  0.48538500  1
  O  O29  1  0.77601300  0.46568400  0.98538500  1
  O  O30  1  0.27601300  0.53431600  0.51461500  1
  O  O31  1  0.22398700  0.53431600  0.01461500  1
  O  O32  1  0.39593300  0.90288300  0.37207500  1
  O  O33  1  0.10406700  0.90288300  0.87207500  1
  O  O34  1  0.60406700  0.09711700  0.62792500  1
  O  O35  1  0.89593300  0.09711700  0.12792500  1
  O  O36  1  0.54168200  0.77083500  0.42559100  1
  O  O37  1  0.95831800  0.77083500  0.92559100  1
  O  O38  1  0.45831800  0.22916500  0.57440900  1
  O  O39  1  0.04168200  0.22916500  0.07440900  1
  O  O40  1  0.43162500  0.63719700  0.34707900  1
  O  O41  1  0.06837500  0.63719700  0.84707900  1
  O  O42  1  0.56837500  0.36280300  0.65292100  1
  O  O43  1  0.93162500  0.36280300  0.15292100  1
  O  O44  1  0.63017100  0.03633400  0.36777600  1
  O  O45  1  0.86982900  0.03633400  0.86777600  1
  O  O46  1  0.36982900  0.96366600  0.63222400  1
  O  O47  1  0.13017100  0.96366600  0.13222400  1
  O  O48  1  0.75488800  0.05447500  0.48435200  1
  O  O49  1  0.74511200  0.05447500  0.98435200  1
  O  O50  1  0.24511200  0.94552500  0.51564800  1
  O  O51  1  0.25488800  0.94552500  0.01564800  1
  O  O52  1  0.76023600  0.25883900  0.25787400  1
  O  O53  1  0.73976400  0.25883900  0.75787400  1
  O  O54  1  0.23976400  0.74116100  0.74212600  1
  O  O55  1  0.26023600  0.74116100  0.24212600  1
  O  O56  1  0.50732100  0.15397900  0.20215800  1
  O  O57  1  0.99267900  0.15397900  0.70215800  1
  O  O58  1  0.49267900  0.84602100  0.79784200  1
  O  O59  1  0.00732100  0.84602100  0.29784200  1
  O  O60  1  0.47408300  0.17166300  0.37971700  1
  O  O61  1  0.02591700  0.17166300  0.87971700  1
  O  O62  1  0.52591700  0.82833700  0.62028300  1
  O  O63  1  0.97408300  0.82833700  0.12028300  1
loop_
_geom_bond_atom_site_label_1
_geom_bond_atom_site_label_2
_geom_bond_distance
_geom_bond_site_symmetry_2
Ba0 O17 2.751583 1_555
Ba0 O9 2.819663 1_555
Ba0 O36 2.833731 1_555
Ba0 O42 2.868885 1_555
Ba0 O62 2.982258 1_555
Ba0 O28 3.024981 1_555
Ba0 O44 3.036388 1_565
Ba0 O24 3.047136 1_555
Ba0 O1 3.114876 1_555
Ba0 O48 3.180838 1_565
Ba0 O53 3.184310 1_555
Ba1 O16 2.751583 1_555
Ba1 O8 2.819663 1_555
Ba1 O37 2.833731 1_554
Ba1 O43 2.868885 1_555
Ba1 O63 2.982258 1_555
Ba1 O29 3.024981 1_554
Ba1 O45 3.036388 1_564
Ba1 O25 3.047136 1_554
Ba1 O0 3.114876 1_555
Ba1 O49 3.180838 1_564
Ba1 O52 3.184310 1_555
Ba2 O19 2.751583 1_555
Ba2 O11 2.819663 1_555
Ba2 O38 2.833731 1_555
Ba2 O40 2.868885 1_555
Ba2 O60 2.982258 1_555
Ba2 O30 3.024981 1_555
Ba2 O46 3.036388 1_545
Ba2 O26 3.047136 1_555
Ba2 O3 3.114876 1_555
Ba2 O50 3.180838 1_545
Ba2 O55 3.184310 1_555
Ba3 O18 2.751583 1_555
Ba3 O10 2.819663 1_555
Ba3 O39 2.833731 1_556
Ba3 O41 2.868885 1_555
Ba3 O61 2.982258 1_555
Ba3 O31 3.024981 1_556
Ba3 O47 3.036388 1_546
Ba3 O27 3.047136 1_556
Ba3 O2 3.114876 1_555
Ba3 O51 3.180838 1_546
Ba3 O54 3.184310 1_555
Ba4 O4 2.753998 1_545
Ba4 O49 2.832199 1_554
Ba4 O52 2.853169 1_555
Ba4 O29 2.926742 1_554
Ba4 O0 3.005525 1_545
Ba4 O44 3.043252 1_555
Ba4 O21 3.085700 1_554
Ba4 O56 3.099053 1_555
Ba4 O13 3.188402 1_554
Ba4 O35 3.215143 1_555
Ba4 O24 3.236063 1_545
Ba5 O5 2.753998 1_545
Ba5 O48 2.832199 1_555
Ba5 O53 2.853169 1_555
Ba5 O28 2.926742 1_555
Ba5 O1 3.005525 1_545
Ba5 O45 3.043252 1_555
Ba5 O20 3.085700 1_555
Ba5 O57 3.099053 1_555
Ba5 O12 3.188402 1_555
Ba5 O34 3.215143 1_555
Ba5 O25 3.236063 1_545
Ba6 O6 2.753998 1_565
Ba6 O51 2.832199 1_556
Ba6 O54 2.853169 1_555
Ba6 O31 2.926742 1_556
Ba6 O2 3.005525 1_565
Ba6 O46 3.043252 1_555
Ba6 O23 3.085700 1_556
Ba6 O58 3.099053 1_555
Ba6 O15 3.188402 1_556
Ba6 O33 3.215143 1_555
Ba6 O26 3.236063 1_565
Ba7 O7 2.753998 1_565
Ba7 O50 2.832199 1_555
Ba7 O55 2.853169 1_555
Ba7 O30 2.926742 1_555
Ba7 O3 3.005525 1_565
Ba7 O47 3.043252 1_555
Ba7 O22 3.085700 1_555
Ba7 O59 3.099053 1_555
Ba7 O14 3.188402 1_555
Ba7 O32 3.215143 1_555
Ba7 O27 3.236063 1_565
Ba8 O24 2.727219 1_545
Ba8 O7 2.760960 1_655
Ba8 O20 2.906156 1_555
Ba8 O48 2.923583 1_555
Ba8 O22 2.980054 1_645
Ba8 O59 2.984630 1_645
Ba8 O52 3.047575 1_555
Ba8 O43 3.065514 1_555
Ba8 O9 3.068034 1_545
Ba8 O5 3.178840 1_545
Ba8 O35 3.455162 1_555
Ba9 O25 2.727219 1_545
Ba9 O6 2.760960 1_555
Ba9 O21 2.906156 1_555
Ba9 O49 2.923583 1_555
Ba9 O23 2.980054 1_546
Ba9 O58 2.984630 1_545
Ba9 O53 3.047575 1_555
Ba9 O42 3.065514 1_555
Ba9 O8 3.068034 1_546
Ba9 O4 3.178840 1_546
Ba9 O34 3.455162 1_555
Ba10 O26 2.727219 1_565
Ba10 O5 2.760960 1_455
Ba10 O22 2.906156 1_555
Ba10 O50 2.923583 1_555
Ba10 O20 2.980054 1_465
Ba10 O57 2.984630 1_465
Ba10 O54 3.047575 1_555
Ba10 O41 3.065514 1_555
Ba10 O11 3.068034 1_565
Ba10 O7 3.178840 1_565
Ba10 O33 3.455162 1_555
Ba11 O27 2.727219 1_565
Ba11 O4 2.760960 1_555
Ba11 O23 2.906156 1_555
Ba11 O51 2.923583 1_555
Ba11 O21 2.980054 1_564
Ba11 O56 2.984630 1_565
Ba11 O55 3.047575 1_555
Ba11 O40 3.065514 1_555
Ba11 O10 3.068034 1_564
Ba11 O6 3.178840 1_564
Ba11 O32 3.455162 1_555
O0 Se0 1.822313 1_555
O0 V0 1.920678 1_555
O1 Se1 1.822313 1_555
O1 V1 1.920678 1_555
O2 Se2 1.822313 1_555
O2 V2 1.920678 1_555
O3 Se3 1.822313 1_555
O3 V3 1.920678 1_555
O4 Se0 1.702011 1_555
O5 Se1 1.702011 1_555
O6 Se2 1.702011 1_555
O7 Se3 1.702011 1_555
O8 Se0 1.685649 1_555
O9 Se1 1.685649 1_555
O10 Se2 1.685649 1_555
O11 Se3 1.685649 1_555
O12 Se4 1.772996 1_555
O12 V0 2.010315 1_555
O13 Se5 1.772996 1_555
O13 V1 2.010315 1_555
O14 Se6 1.772996 1_555
O14 V2 2.010315 1_555
O15 Se7 1.772996 1_555
O15 V3 2.010315 1_555
O16 Se4 1.782607 1_555
O16 V0 2.012829 1_555
O17 Se5 1.782607 1_555
O17 V1 2.012829 1_555
O18 Se6 1.782607 1_555
O18 V2 2.012829 1_555
O19 Se7 1.782607 1_555
O19 V3 2.012829 1_555
O20 Se4 1.688447 1_555
O21 Se5 1.688447 1_555
O22 Se6 1.688447 1_555
O23 Se7 1.688447 1_555
O24 V0 1.691344 1_555
O25 V1 1.691344 1_555
O26 V2 1.691344 1_555
O27 V3 1.691344 1_555
O28 V0 1.679782 1_555
O29 V1 1.679782 1_555
O30 V2 1.679782 1_555
O31 V3 1.679782 1_555
O32 Se8 1.775459 1_555
O32 V4 2.041241 1_565
O33 Se9 1.775459 1_555
O33 V5 2.041241 1_465
O34 Se10 1.775459 1_555
O34 V6 2.041241 1_545
O35 Se11 1.775459 1_555
O35 V7 2.041241 1_645
O36 Se8 1.770688 1_555
O36 V4 2.052999 1_565
O37 Se9 1.770688 1_655
O37 V5 2.052999 1_565
O38 Se10 1.770688 1_555
O38 V6 2.052999 1_545
O39 Se11 1.770688 1_455
O39 V7 2.052999 1_545
O40 Se8 1.686736 1_555
O41 Se9 1.686736 1_555
O42 Se10 1.686736 1_555
O43 Se11 1.686736 1_555
O44 Se12 1.803366 1_555
O44 V4 1.950713 1_555
O45 Se13 1.803366 1_555
O45 V5 1.950713 1_555
O46 Se14 1.803366 1_555
O46 V6 1.950713 1_555
O47 Se15 1.803366 1_555
O47 V7 1.950713 1_555
O48 Se12 1.704570 1_555
O49 Se13 1.704570 1_555
O50 Se14 1.704570 1_555
O51 Se15 1.704570 1_555
O52 Se12 1.702465 1_555
O53 Se13 1.702465 1_555
O54 Se14 1.702465 1_555
O55 Se15 1.702465 1_555
O56 V4 1.680326 1_555
O57 V5 1.680326 1_555
O58 V6 1.680326 1_555
O59 V7 1.680326 1_555
O60 V4 1.668450 1_555
O61 V5 1.668450 1_455
O62 V6 1.668450 1_555
O63 V7 1.668450 1_655
