# generated using pymatgen
data_Gd2ZnPtO6
_symmetry_space_group_name_H-M   'P 1'
_cell_length_a   5.76889064
_cell_length_b   5.36561127
_cell_length_c   9.36055181
_cell_angle_alpha   55.27110780
_cell_angle_beta   90.00000000
_cell_angle_gamma   90.00000000
_symmetry_Int_Tables_number   1
_chemical_formula_structural   Gd2ZnPtO6
_chemical_formula_sum   'Gd4 Zn2 Pt2 O12'
_cell_volume   238.12728105
_cell_formula_units_Z   2
loop_
 _symmetry_equiv_pos_site_id
 _symmetry_equiv_pos_as_xyz
  1  'x, y, z'
loop_
 _atom_site_type_symbol
 _atom_site_label
 _atom_site_symmetry_multiplicity
 _atom_site_fract_x
 _atom_site_fract_y
 _atom_site_fract_z
 _atom_site_occupancy
  Gd  Gd0  1  0.42480623  0.22855051  0.74926130  1
  Gd  Gd1  1  0.57519377  0.77144949  0.25073870  1
  Gd  Gd2  1  0.92480623  0.77144949  0.75073870  1
  Gd  Gd3  1  0.07519377  0.22855051  0.24926130  1
  Zn  Zn0  1  0.00000000  0.50000000  0.50000000  1
  Zn  Zn1  1  0.50000000  0.50000000  -0.00000000  1
  Pt  Pt0  1  0.00000000  0.00000000  -0.00000000  1
  Pt  Pt1  1  0.50000000  0.00000000  0.50000000  1
  O  O0  1  0.04205244  0.36498309  0.75191693  1
  O  O1  1  0.95794756  0.63501691  0.24808307  1
  O  O2  1  0.54205244  0.63501691  0.74808307  1
  O  O3  1  0.45794756  0.36498309  0.25191693  1
  O  O4  1  0.69886624  0.87689519  0.94129994  1
  O  O5  1  0.30113376  0.12310481  0.05870006  1
  O  O6  1  0.19886624  0.12310481  0.55870006  1
  O  O7  1  0.80113376  0.87689519  0.44129994  1
  O  O8  1  0.19098995  0.74634297  0.94385117  1
  O  O9  1  0.80901005  0.25365703  0.05614883  1
  O  O10  1  0.69098995  0.25365703  0.55614883  1
  O  O11  1  0.30901005  0.74634297  0.44385117  1
loop_
_geom_bond_atom_site_label_1
_geom_bond_atom_site_label_2
_geom_bond_distance
_geom_bond_site_symmetry_2
Gd0 O2 2.277435 1_555
Gd0 O10 2.316522 1_555
Gd0 O4 2.329506 1_545
Gd0 O0 2.330835 1_555
Gd0 O6 2.520060 1_555
Gd0 O8 2.542014 1_545
Gd0 O11 2.699663 1_555
Gd0 O5 2.711405 1_556
Gd1 O3 2.277435 1_555
Gd1 O11 2.316522 1_555
Gd1 O5 2.329506 1_565
Gd1 O1 2.330835 1_555
Gd1 O7 2.520060 1_555
Gd1 O9 2.542014 1_565
Gd1 O10 2.699663 1_555
Gd1 O4 2.711405 1_554
Gd2 O0 2.277435 1_655
Gd2 O8 2.316522 1_655
Gd2 O6 2.329506 1_665
Gd2 O2 2.330835 1_555
Gd2 O4 2.520060 1_555
Gd2 O10 2.542014 1_565
Gd2 O9 2.699663 1_556
Gd2 O7 2.711405 1_555
Gd3 O1 2.277435 1_455
Gd3 O9 2.316522 1_455
Gd3 O7 2.329506 1_445
Gd3 O3 2.330835 1_555
Gd3 O5 2.520060 1_555
Gd3 O11 2.542014 1_545
Gd3 O8 2.699663 1_554
Gd3 O6 2.711405 1_555
O0 Pt0 2.026086 1_556
O0 Zn0 2.048853 1_555
O1 Pt0 2.026086 1_665
O1 Zn0 2.048853 1_655
O2 Pt1 2.026086 1_565
O2 Zn1 2.048853 1_556
O3 Pt1 2.026086 1_555
O3 Zn1 2.048853 1_555
O4 Pt0 2.041968 1_666
O4 Zn1 2.107511 1_556
O5 Pt0 2.041968 1_555
O5 Zn1 2.107511 1_555
O6 Pt1 2.041968 1_555
O6 Zn0 2.107511 1_555
O7 Pt1 2.041968 1_565
O7 Zn0 2.107511 1_655
O8 Pt0 2.039027 1_566
O8 Zn1 2.099911 1_556
O9 Pt0 2.039027 1_655
O9 Zn1 2.099911 1_555
O10 Pt1 2.039027 1_555
O10 Zn0 2.099911 1_655
O11 Pt1 2.039027 1_565
O11 Zn0 2.099911 1_555
