# generated using pymatgen
data_CeSbSe
_symmetry_space_group_name_H-M   'P 1'
_cell_length_a   4.24471499
_cell_length_b   4.24053156
_cell_length_c   18.24085757
_cell_angle_alpha   90.00000000
_cell_angle_beta   90.00000000
_cell_angle_gamma   90.00000000
_symmetry_Int_Tables_number   1
_chemical_formula_structural   CeSbSe
_chemical_formula_sum   'Ce4 Sb4 Se4'
_cell_volume   328.33266143
_cell_formula_units_Z   4
loop_
 _symmetry_equiv_pos_site_id
 _symmetry_equiv_pos_as_xyz
  1  'x, y, z'
loop_
 _atom_site_type_symbol
 _atom_site_label
 _atom_site_symmetry_multiplicity
 _atom_site_fract_x
 _atom_site_fract_y
 _atom_site_fract_z
 _atom_site_occupancy
  Ce  Ce0  1  0.75000000  0.24366591  0.85186471  1
  Ce  Ce1  1  0.75000000  0.25633409  0.35186471  1
  Ce  Ce2  1  0.25000000  0.75633409  0.14813529  1
  Ce  Ce3  1  0.25000000  0.74366591  0.64813529  1
  Sb  Sb0  1  0.25000000  0.24061731  0.49987745  1
  Sb  Sb1  1  0.25000000  0.25938269  -0.00012255  1
  Sb  Sb2  1  0.75000000  0.75938269  0.50012255  1
  Sb  Sb3  1  0.75000000  0.74061731  0.00012255  1
  Se  Se0  1  0.75000000  0.24388804  0.68530326  1
  Se  Se1  1  0.75000000  0.25611196  0.18530326  1
  Se  Se2  1  0.25000000  0.75611196  0.31469674  1
  Se  Se3  1  0.25000000  0.74388804  0.81469674  1
loop_
_geom_bond_atom_site_label_1
_geom_bond_atom_site_label_2
_geom_bond_distance
_geom_bond_site_symmetry_2
Ce0 Se0 3.038224 1_555
Ce0 Se3 3.074994 1_545
Ce0 Se3 3.074994 1_645
Ce0 Se3 3.076292 1_655
Ce0 Se3 3.076292 1_555
Ce0 Sb3 3.428467 1_556
Ce0 Sb1 3.434850 1_656
Ce0 Sb1 3.434850 1_556
Ce0 Sb3 3.444419 1_546
Ce1 Se1 3.038224 1_555
Ce1 Se2 3.074994 1_655
Ce1 Se2 3.074994 1_555
Ce1 Se2 3.076292 1_545
Ce1 Se2 3.076292 1_645
Ce1 Sb2 3.428467 1_545
Ce1 Sb0 3.434850 1_655
Ce1 Sb0 3.434850 1_555
Ce1 Sb2 3.444419 1_555
Ce2 Se2 3.038224 1_555
Ce2 Se1 3.074994 1_465
Ce2 Se1 3.074994 1_565
Ce2 Se1 3.076292 1_455
Ce2 Se1 3.076292 1_555
Ce2 Sb1 3.428467 1_555
Ce2 Sb3 3.434850 1_555
Ce2 Sb3 3.434850 1_455
Ce2 Sb1 3.444419 1_565
Ce3 Se3 3.038224 1_555
Ce3 Se0 3.074994 1_555
Ce3 Se0 3.074994 1_455
Ce3 Se0 3.076292 1_465
Ce3 Se0 3.076292 1_565
Ce3 Sb0 3.428467 1_565
Ce3 Sb2 3.434850 1_455
Ce3 Sb2 3.434850 1_555
Ce3 Sb0 3.444419 1_555
Sb0 Sb2 2.944289 1_545
Sb0 Sb2 2.944289 1_445
Sb0 Sb2 3.056750 1_455
Sb0 Sb2 3.056750 1_555
Sb1 Sb3 2.944289 1_555
Sb1 Sb3 2.944289 1_455
Sb1 Sb3 3.056750 1_545
Sb1 Sb3 3.056750 1_445
