# generated using pymatgen
data_MgGa
_symmetry_space_group_name_H-M   'P 1'
_cell_length_a   10.79027075
_cell_length_b   10.79027075
_cell_length_c   15.11782396
_cell_angle_alpha   71.32176101
_cell_angle_beta   71.32176101
_cell_angle_gamma   33.33835744
_symmetry_Int_Tables_number   1
_chemical_formula_structural   MgGa
_chemical_formula_sum   'Mg24 Ga24'
_cell_volume   911.70097102
_cell_formula_units_Z   24
loop_
 _symmetry_equiv_pos_site_id
 _symmetry_equiv_pos_as_xyz
  1  'x, y, z'
loop_
 _atom_site_type_symbol
 _atom_site_label
 _atom_site_symmetry_multiplicity
 _atom_site_fract_x
 _atom_site_fract_y
 _atom_site_fract_z
 _atom_site_occupancy
  Mg  Mg0_0  1  0.01588833  0.01588833  0.49029002  1
  Mg  Mg0_1  1  0.01588833  0.01588833  0.99029002  1
  Mg  Mg0_2  1  0.01588833  0.51588833  0.49029002  1
  Mg  Mg0_3  1  0.01588833  0.51588833  0.99029002  1
  Mg  Mg0_4  1  0.51588833  0.01588833  0.49029002  1
  Mg  Mg0_5  1  0.51588833  0.01588833  0.99029002  1
  Mg  Mg0_6  1  0.51588833  0.51588833  0.49029002  1
  Mg  Mg0_7  1  0.51588833  0.51588833  0.99029002  1
  Mg  Mg1_0  1  0.17972633  0.17972633  0.36968788  1
  Mg  Mg1_1  1  0.17972633  0.17972633  0.86968788  1
  Mg  Mg1_2  1  0.17972633  0.67972633  0.36968788  1
  Mg  Mg1_3  1  0.17972633  0.67972633  0.86968789  1
  Mg  Mg1_4  1  0.67972633  0.17972634  0.36968788  1
  Mg  Mg1_5  1  0.67972633  0.17972633  0.86968789  1
  Mg  Mg1_6  1  0.67972633  0.67972633  0.36968788  1
  Mg  Mg1_7  1  0.67972633  0.67972633  0.86968788  1
  Mg  Mg2_0  1  0.16872930  0.16872930  0.16688713  1
  Mg  Mg2_1  1  0.16872930  0.16872930  0.66688713  1
  Mg  Mg2_2  1  0.16872930  0.66872930  0.16688713  1
  Mg  Mg2_3  1  0.16872930  0.66872930  0.66688713  1
  Mg  Mg2_4  1  0.66872930  0.16872930  0.16688713  1
  Mg  Mg2_5  1  0.66872930  0.16872930  0.66688713  1
  Mg  Mg2_6  1  0.66872930  0.66872930  0.16688713  1
  Mg  Mg2_7  1  0.66872930  0.66872930  0.66688713  1
  Ga  Ga0_0  1  0.32411176  0.32411176  0.32169002  1
  Ga  Ga0_1  1  0.32411177  0.32411176  0.82169002  1
  Ga  Ga0_2  1  0.32411176  0.82411176  0.32169002  1
  Ga  Ga0_3  1  0.32411176  0.82411176  0.82169002  1
  Ga  Ga0_4  1  0.82411176  0.32411176  0.32169002  1
  Ga  Ga0_5  1  0.82411176  0.32411176  0.82169002  1
  Ga  Ga0_6  1  0.82411176  0.82411176  0.32169002  1
  Ga  Ga0_7  1  0.82411176  0.82411176  0.82169002  1
  Ga  Ga1_0  1  0.02608856  0.02608856  0.19409767  1
  Ga  Ga1_1  1  0.02608856  0.02608856  0.69409768  1
  Ga  Ga1_2  1  0.02608856  0.52608856  0.19409767  1
  Ga  Ga1_3  1  0.02608856  0.52608856  0.69409767  1
  Ga  Ga1_4  1  0.52608856  0.02608856  0.19409767  1
  Ga  Ga1_5  1  0.52608856  0.02608856  0.69409767  1
  Ga  Ga1_6  1  0.52608856  0.52608856  0.19409767  1
  Ga  Ga1_7  1  0.52608856  0.52608856  0.69409767  1
  Ga  Ga2_0  1  0.36878921  0.36878921  0.04068077  1
  Ga  Ga2_1  1  0.36878921  0.36878921  0.54068076  1
  Ga  Ga2_2  1  0.36878921  0.86878921  0.04068077  1
  Ga  Ga2_3  1  0.36878921  0.86878921  0.54068076  1
  Ga  Ga2_4  1  0.86878921  0.36878921  0.04068077  1
  Ga  Ga2_5  1  0.86878921  0.36878921  0.54068076  1
  Ga  Ga2_6  1  0.86878921  0.86878921  0.04068077  1
  Ga  Ga2_7  1  0.86878921  0.86878921  0.54068077  1
loop_
_geom_bond_atom_site_label_1
_geom_bond_atom_site_label_2
_geom_bond_distance
_geom_bond_site_symmetry_2
Ga0_0 Mg1_0 2.826382 1_555
Ga0_0 Mg0_4 2.879106 1_555
Ga0_0 Mg0_2 2.879106 1_555
Ga0_0 Ga1_4 2.895133 1_555
Ga0_0 Ga1_2 2.895133 1_555
Ga0_0 Mg2_2 2.938954 1_555
Ga0_0 Mg2_4 2.938954 1_555
Ga0_0 Mg1_2 2.957738 1_555
Ga0_0 Mg1_4 2.957738 1_555
Ga0_1 Mg1_1 2.826382 1_555
Ga0_1 Mg0_5 2.879106 1_555
Ga0_1 Mg0_3 2.879106 1_555
Ga0_1 Ga1_5 2.895133 1_555
Ga0_1 Ga1_3 2.895133 1_555
Ga0_1 Mg2_5 2.938954 1_555
Ga0_1 Mg2_3 2.938954 1_555
Ga0_1 Mg1_5 2.957738 1_555
Ga0_1 Mg1_3 2.957738 1_555
Ga0_2 Mg1_2 2.826382 1_555
Ga0_2 Mg0_6 2.879106 1_555
Ga0_2 Mg0_0 2.879106 1_565
Ga0_2 Ga1_0 2.895133 1_565
Ga0_2 Ga1_6 2.895133 1_555
Ga0_2 Mg2_0 2.938954 1_565
Ga0_2 Mg2_6 2.938954 1_555
Ga0_2 Mg1_6 2.957738 1_555
Ga0_2 Mg1_0 2.957738 1_565
Ga0_3 Mg1_3 2.826382 1_555
Ga0_3 Mg0_1 2.879106 1_565
Ga0_3 Mg0_7 2.879106 1_555
Ga0_3 Ga1_1 2.895133 1_565
Ga0_3 Ga1_7 2.895133 1_555
Ga0_3 Mg2_1 2.938954 1_565
Ga0_3 Mg2_7 2.938954 1_555
Ga0_3 Mg1_7 2.957738 1_555
Ga0_3 Mg1_1 2.957738 1_565
Ga0_4 Mg1_4 2.826382 1_555
Ga0_4 Mg0_0 2.879106 1_655
Ga0_4 Mg0_6 2.879106 1_555
Ga0_4 Ga1_0 2.895133 1_655
Ga0_4 Ga1_6 2.895133 1_555
Ga0_4 Mg2_0 2.938954 1_655
Ga0_4 Mg2_6 2.938954 1_555
Ga0_4 Mg1_6 2.957738 1_555
Ga0_4 Mg1_0 2.957738 1_655
Ga0_5 Mg1_5 2.826382 1_555
Ga0_5 Mg0_1 2.879106 1_655
Ga0_5 Mg0_7 2.879106 1_555
Ga0_5 Ga1_1 2.895133 1_655
Ga0_5 Ga1_7 2.895133 1_555
Ga0_5 Mg2_7 2.938954 1_555
Ga0_5 Mg2_1 2.938954 1_655
Ga0_5 Mg1_1 2.957738 1_655
Ga0_5 Mg1_7 2.957738 1_555
Ga0_6 Mg1_6 2.826382 1_555
Ga0_6 Mg0_4 2.879106 1_565
Ga0_6 Mg0_2 2.879106 1_655
Ga0_6 Ga1_4 2.895133 1_565
Ga0_6 Ga1_2 2.895133 1_655
Ga0_6 Mg2_2 2.938954 1_655
Ga0_6 Mg2_4 2.938954 1_565
Ga0_6 Mg1_2 2.957738 1_655
Ga0_6 Mg1_4 2.957738 1_565
Ga0_7 Mg1_7 2.826382 1_555
Ga0_7 Mg0_5 2.879106 1_565
Ga0_7 Mg0_3 2.879106 1_655
Ga0_7 Ga1_5 2.895133 1_565
Ga0_7 Ga1_3 2.895133 1_655
Ga0_7 Mg2_3 2.938954 1_655
Ga0_7 Mg2_5 2.938954 1_565
Ga0_7 Mg1_3 2.957738 1_655
Ga0_7 Mg1_5 2.957738 1_565
Ga1_0 Mg2_0 2.837993 1_555
Ga1_0 Mg2_4 2.846201 1_455
Ga1_0 Mg2_2 2.846201 1_545
Ga1_0 Ga2_2 2.911221 1_545
Ga1_0 Ga2_4 2.911221 1_455
Ga1_0 Ga1_6 3.095138 1_545
Ga1_0 Ga1_6 3.095138 1_455
Ga1_0 Mg1_4 3.142373 1_455
Ga1_0 Mg1_2 3.142373 1_545
Ga1_0 Mg0_1 3.157885 1_554
Ga1_1 Mg2_1 2.837993 1_555
Ga1_1 Mg2_5 2.846201 1_455
Ga1_1 Mg2_3 2.846201 1_545
Ga1_1 Ga2_3 2.911221 1_545
Ga1_1 Ga2_5 2.911221 1_455
Ga1_1 Ga1_7 3.095138 1_545
Ga1_1 Ga1_7 3.095138 1_455
Ga1_1 Mg1_3 3.142373 1_545
Ga1_1 Mg1_5 3.142373 1_455
Ga1_1 Mg0_0 3.157885 1_555
Ga1_2 Mg2_2 2.837993 1_555
Ga1_2 Mg2_0 2.846201 1_555
Ga1_2 Mg2_6 2.846201 1_455
Ga1_2 Ga2_6 2.911221 1_455
Ga1_2 Ga2_0 2.911221 1_555
Ga1_2 Ga1_4 3.095138 1_555
Ga1_2 Ga1_4 3.095138 1_465
Ga1_2 Mg1_0 3.142373 1_555
Ga1_2 Mg1_6 3.142373 1_455
Ga1_2 Mg0_3 3.157885 1_554
Ga1_3 Mg2_3 2.837993 1_555
Ga1_3 Mg2_7 2.846201 1_455
Ga1_3 Mg2_1 2.846201 1_555
Ga1_3 Ga2_7 2.911221 1_455
Ga1_3 Ga2_1 2.911221 1_555
Ga1_3 Ga1_5 3.095138 1_555
Ga1_3 Ga1_5 3.095138 1_465
Ga1_3 Mg1_1 3.142373 1_555
Ga1_3 Mg1_7 3.142373 1_455
Ga1_3 Mg0_2 3.157885 1_555
Ga1_4 Mg2_4 2.837993 1_555
Ga1_4 Mg2_0 2.846201 1_555
Ga1_4 Mg2_6 2.846201 1_545
Ga1_4 Ga2_6 2.911221 1_545
Ga1_4 Ga2_0 2.911221 1_555
Ga1_4 Mg1_0 3.142373 1_555
Ga1_4 Mg1_6 3.142373 1_545
Ga1_4 Mg0_5 3.157885 1_554
Ga1_5 Mg2_5 2.837993 1_555
Ga1_5 Mg2_1 2.846201 1_555
Ga1_5 Mg2_7 2.846201 1_545
Ga1_5 Ga2_7 2.911221 1_545
Ga1_5 Ga2_1 2.911221 1_555
Ga1_5 Mg1_1 3.142373 1_555
Ga1_5 Mg1_7 3.142373 1_545
Ga1_5 Mg0_4 3.157885 1_555
Ga1_6 Mg2_6 2.837993 1_555
Ga1_6 Mg2_4 2.846201 1_555
Ga1_6 Mg2_2 2.846201 1_555
Ga1_6 Ga2_2 2.911221 1_555
Ga1_6 Ga2_4 2.911221 1_555
Ga1_6 Mg1_4 3.142373 1_555
Ga1_6 Mg1_2 3.142373 1_555
Ga1_6 Mg0_7 3.157885 1_554
Ga1_7 Mg2_7 2.837993 1_555
Ga1_7 Mg2_3 2.846201 1_555
Ga1_7 Mg2_5 2.846201 1_555
Ga1_7 Ga2_3 2.911221 1_555
Ga1_7 Ga2_5 2.911221 1_555
Ga1_7 Mg1_5 3.142373 1_555
Ga1_7 Mg1_3 3.142373 1_555
Ga1_7 Mg0_6 3.157885 1_555
Ga2_0 Mg0_7 2.877420 1_554
Ga2_0 Mg2_2 2.901431 1_555
Ga2_0 Mg2_4 2.901431 1_555
Ga2_0 Mg1_3 2.913262 1_554
Ga2_0 Mg1_5 2.913262 1_554
Ga2_0 Mg0_5 2.929917 1_554
Ga2_0 Mg0_3 2.929917 1_554
Ga2_1 Mg0_6 2.877420 1_555
Ga2_1 Mg2_3 2.901431 1_555
Ga2_1 Mg2_5 2.901431 1_555
Ga2_1 Mg1_2 2.913262 1_555
Ga2_1 Mg1_4 2.913262 1_555
Ga2_1 Mg0_2 2.929917 1_555
Ga2_1 Mg0_4 2.929917 1_555
Ga2_2 Mg0_5 2.877420 1_564
Ga2_2 Mg2_6 2.901431 1_555
Ga2_2 Mg2_0 2.901431 1_565
Ga2_2 Mg1_7 2.913262 1_554
Ga2_2 Mg1_1 2.913262 1_564
Ga2_2 Mg0_7 2.929917 1_554
Ga2_2 Mg0_1 2.929917 1_564
Ga2_3 Mg0_4 2.877420 1_565
Ga2_3 Mg2_1 2.901431 1_565
Ga2_3 Mg2_7 2.901431 1_555
Ga2_3 Mg1_6 2.913262 1_555
Ga2_3 Mg1_0 2.913262 1_565
Ga2_3 Mg0_0 2.929917 1_565
Ga2_3 Mg0_6 2.929917 1_555
Ga2_4 Mg0_3 2.877420 1_654
Ga2_4 Mg2_6 2.901431 1_555
Ga2_4 Mg2_0 2.901431 1_655
Ga2_4 Mg1_1 2.913262 1_654
Ga2_4 Mg1_7 2.913262 1_554
Ga2_4 Mg0_7 2.929917 1_554
Ga2_4 Mg0_1 2.929917 1_654
Ga2_5 Mg0_2 2.877420 1_655
Ga2_5 Mg2_7 2.901431 1_555
Ga2_5 Mg2_1 2.901431 1_655
Ga2_5 Mg1_6 2.913262 1_555
Ga2_5 Mg1_0 2.913262 1_655
Ga2_5 Mg0_0 2.929917 1_655
Ga2_5 Mg0_6 2.929917 1_555
Ga2_6 Mg0_1 2.877420 1_664
Ga2_6 Mg2_2 2.901431 1_655
Ga2_6 Mg2_4 2.901431 1_565
Ga2_6 Mg1_5 2.913262 1_564
Ga2_6 Mg1_3 2.913262 1_654
Ga2_6 Mg0_5 2.929917 1_564
Ga2_6 Mg0_3 2.929917 1_654
Ga2_7 Mg0_0 2.877420 1_665
Ga2_7 Mg2_3 2.901431 1_655
Ga2_7 Mg2_5 2.901431 1_565
Ga2_7 Mg1_2 2.913262 1_655
Ga2_7 Mg1_4 2.913262 1_565
Ga2_7 Mg0_2 2.929917 1_655
Ga2_7 Mg0_4 2.929917 1_565
