# generated using pymatgen
data_SrCa7TiMn7O22
_symmetry_space_group_name_H-M   'P 1'
_cell_length_a   10.91666168
_cell_length_b   15.62622307
_cell_length_c   10.88079671
_cell_angle_alpha   90.19321870
_cell_angle_beta   90.86193517
_cell_angle_gamma   90.06562636
_symmetry_Int_Tables_number   1
_chemical_formula_structural   SrCa7TiMn7O22
_chemical_formula_sum   'Sr4 Ca28 Ti4 Mn28 O88'
_cell_volume   1855.89175606
_cell_formula_units_Z   4
loop_
 _symmetry_equiv_pos_site_id
 _symmetry_equiv_pos_as_xyz
  1  'x, y, z'
loop_
 _atom_site_type_symbol
 _atom_site_label
 _atom_site_symmetry_multiplicity
 _atom_site_fract_x
 _atom_site_fract_y
 _atom_site_fract_z
 _atom_site_occupancy
  Sr  Sr0  1  0.99888303  0.11135424  0.50383000  1
  Sr  Sr1  1  0.50142809  0.38749976  0.99863124  1
  Sr  Sr2  1  0.24283975  0.38807691  0.25611316  1
  Sr  Sr3  1  0.23098232  0.11952364  0.25069432  1
  Ca  Ca0  1  0.98892601  0.11481873  0.00886139  1
  Ca  Ca1  1  0.01716085  0.62743075  0.49936315  1
  Ca  Ca2  1  0.01645313  0.62621998  0.99472342  1
  Ca  Ca3  1  0.53944661  0.12728352  0.48098429  1
  Ca  Ca4  1  0.54908980  0.12396288  0.98403571  1
  Ca  Ca5  1  0.52217598  0.62530631  0.49944872  1
  Ca  Ca6  1  0.52207772  0.62402199  0.99873296  1
  Ca  Ca7  1  0.49507641  0.39456642  0.50033830  1
  Ca  Ca8  1  0.49483542  0.85610298  0.00368275  1
  Ca  Ca9  1  0.49595426  0.85565969  0.49711455  1
  Ca  Ca10  1  0.96627178  0.38900491  0.99837163  1
  Ca  Ca11  1  0.96446072  0.39178074  0.50272701  1
  Ca  Ca12  1  0.96770447  0.86530549  0.00441373  1
  Ca  Ca13  1  0.96908010  0.86984811  0.51559603  1
  Ca  Ca14  1  0.23463692  0.40079798  0.74690958  1
  Ca  Ca15  1  0.22903564  0.86014035  0.26009731  1
  Ca  Ca16  1  0.22616318  0.86792280  0.74795301  1
  Ca  Ca17  1  0.73985609  0.39392506  0.25093613  1
  Ca  Ca18  1  0.73450640  0.38907926  0.75064863  1
  Ca  Ca19  1  0.73354809  0.86015093  0.25086149  1
  Ca  Ca20  1  0.73891256  0.86069603  0.74989751  1
  Ca  Ca21  1  0.22266910  0.10864427  0.72770318  1
  Ca  Ca22  1  0.27126411  0.62733479  0.26004658  1
  Ca  Ca23  1  0.27116937  0.62910822  0.75691606  1
  Ca  Ca24  1  0.77339427  0.11479030  0.24577967  1
  Ca  Ca25  1  0.78247679  0.12177643  0.75618148  1
  Ca  Ca26  1  0.76694180  0.62625345  0.25369396  1
  Ca  Ca27  1  0.76893738  0.62492858  0.75572018  1
  Ti  Ti0  1  0.98768310  0.98337952  0.26070557  1
  Ti  Ti1  1  0.23080929  0.98874134  0.01305205  1
  Ti  Ti2  1  0.26325948  0.23294866  0.93483424  1
  Ti  Ti3  1  0.98086671  0.25598661  0.27388426  1
  Mn  Mn0  1  0.99305157  0.99219718  0.75672605  1
  Mn  Mn1  1  0.00196323  0.50410009  0.24955496  1
  Mn  Mn2  1  0.00031937  0.50412057  0.74951945  1
  Mn  Mn3  1  0.50683141  0.98975677  0.23238791  1
  Mn  Mn4  1  0.50824541  0.98354656  0.73585812  1
  Mn  Mn5  1  0.49952141  0.50692419  0.25027632  1
  Mn  Mn6  1  0.49766322  0.50565565  0.75068331  1
  Mn  Mn7  1  0.24462814  0.99282038  0.51057710  1
  Mn  Mn8  1  0.24920513  0.51067505  0.00458979  1
  Mn  Mn9  1  0.25017563  0.50578107  0.50459833  1
  Mn  Mn10  1  0.74676974  0.99438227  0.99145789  1
  Mn  Mn11  1  0.73942717  0.99749338  0.49883997  1
  Mn  Mn12  1  0.75094324  0.50476176  0.00167506  1
  Mn  Mn13  1  0.74841301  0.50546994  0.50160262  1
  Mn  Mn14  1  0.26990948  0.24529121  0.47182236  1
  Mn  Mn15  1  0.25002435  0.74995839  0.00523492  1
  Mn  Mn16  1  0.25162182  0.74955793  0.50590560  1
  Mn  Mn17  1  0.75760671  0.25056927  0.00305938  1
  Mn  Mn18  1  0.74585830  0.25256555  0.50623778  1
  Mn  Mn19  1  0.75013892  0.74610476  0.00109148  1
  Mn  Mn20  1  0.75056047  0.74698197  0.50247604  1
  Mn  Mn21  1  0.99201943  0.25805770  0.75729583  1
  Mn  Mn22  1  0.00047960  0.74477246  0.25186401  1
  Mn  Mn23  1  0.00251657  0.74805748  0.75329360  1
  Mn  Mn24  1  0.52759243  0.25784801  0.25750843  1
  Mn  Mn25  1  0.51637221  0.25364710  0.74918691  1
  Mn  Mn26  1  0.49947975  0.74700298  0.25327178  1
  Mn  Mn27  1  0.49966516  0.74655844  0.75424351  1
  O  O0  1  0.10968014  0.77680008  0.10663686  1
  O  O1  1  0.10865888  0.77395370  0.60658041  1
  O  O2  1  0.59121248  0.25094350  0.09776581  1
  O  O3  1  0.58288796  0.25836826  0.58172102  1
  O  O4  1  0.61139950  0.76392542  0.11329530  1
  O  O5  1  0.60921829  0.76590457  0.61644283  1
  O  O6  1  0.40579019  0.20840905  0.35364405  1
  O  O7  1  0.39762072  0.18279051  0.85434731  1
  O  O8  1  0.39506005  0.72872571  0.39949854  1
  O  O9  1  0.39679440  0.72868978  0.90198912  1
  O  O10  1  0.90252606  0.24307890  0.41769496  1
  O  O11  1  0.91402295  0.24140273  0.92196977  1
  O  O12  1  0.89371435  0.72911033  0.39266731  1
  O  O13  1  0.89458728  0.72992233  0.89416114  1
  O  O14  1  0.14622611  0.24912368  0.33019468  1
  O  O15  1  0.17393650  0.25137185  0.79096390  1
  O  O16  1  0.14874068  0.73352433  0.35445019  1
  O  O17  1  0.14905226  0.73300753  0.85549568  1
  O  O18  1  0.66217382  0.21831837  0.35010008  1
  O  O19  1  0.65980284  0.22628565  0.85675605  1
  O  O20  1  0.64203771  0.72848602  0.35912159  1
  O  O21  1  0.64363633  0.72563742  0.85936683  1
  O  O22  1  0.35743478  0.77403688  0.14599994  1
  O  O23  1  0.35710565  0.77114573  0.64992104  1
  O  O24  1  0.85389388  0.27342885  0.15462362  1
  O  O25  1  0.84761784  0.27791227  0.65152651  1
  O  O26  1  0.85937735  0.76843017  0.14295594  1
  O  O27  1  0.86169627  0.76919082  0.64346258  1
  O  O28  1  0.36068275  0.49003634  0.13949986  1
  O  O29  1  0.35424763  0.49543923  0.64597644  1
  O  O30  1  0.35831314  0.01503441  0.13021213  1
  O  O31  1  0.34867767  0.99149017  0.66668807  1
  O  O32  1  0.86178611  0.48342290  0.14136845  1
  O  O33  1  0.85800064  0.48220762  0.64307929  1
  O  O34  1  0.85490938  0.97729211  0.14258913  1
  O  O35  1  0.84707747  0.97741755  0.64422815  1
  O  O36  1  0.13895638  0.00393805  0.36449684  1
  O  O37  1  0.14784481  0.02001988  0.86999226  1
  O  O38  1  0.14513321  0.52075312  0.35568192  1
  O  O39  1  0.14679754  0.51951544  0.85487068  1
  O  O40  1  0.63017270  0.02892217  0.34790898  1
  O  O41  1  0.63364741  0.02755956  0.84207605  1
  O  O42  1  0.64250509  0.52265251  0.35956263  1
  O  O43  1  0.64106710  0.51797498  0.85959331  1
  O  O44  1  0.39191592  0.51851199  0.39610286  1
  O  O45  1  0.38981822  0.51764405  0.89369208  1
  O  O46  1  0.88003890  0.00968939  0.38824079  1
  O  O47  1  0.89076614  0.01360424  0.89385856  1
  O  O48  1  0.89464693  0.51968766  0.39310924  1
  O  O49  1  0.89483520  0.51804201  0.89257195  1
  O  O50  1  0.10759469  0.47897811  0.10454081  1
  O  O51  1  0.10565113  0.48043260  0.60607546  1
  O  O52  1  0.10423696  0.97479440  0.11575001  1
  O  O53  1  0.09993777  0.98223894  0.62226750  1
  O  O54  1  0.61673199  0.49000540  0.11658912  1
  O  O55  1  0.60899999  0.48807716  0.61204918  1
  O  O56  1  0.59994957  0.98892762  0.08069187  1
  O  O57  1  0.58385897  0.99097795  0.57934302  1
  O  O58  1  0.00288760  0.38042311  0.28320954  1
  O  O59  1  0.01445288  0.37966003  0.78583518  1
  O  O60  1  0.99993862  0.86852428  0.29224124  1
  O  O61  1  0.00775920  0.86954935  0.79374389  1
  O  O62  1  0.50026446  0.37908359  0.27742469  1
  O  O63  1  0.48875711  0.37840002  0.76691963  1
  O  O64  1  0.50555628  0.87086974  0.28412861  1
  O  O65  1  0.51360137  0.87017954  0.79442446  1
  O  O66  1  0.48779722  0.62648251  0.21296651  1
  O  O67  1  0.48955524  0.62771758  0.71399081  1
  O  O68  1  0.99224022  0.13077800  0.22779320  1
  O  O69  1  0.99851038  0.13509836  0.72630968  1
  O  O70  1  0.99150097  0.62552146  0.20889237  1
  O  O71  1  0.99102691  0.62509622  0.71320135  1
  O  O72  1  0.20253318  0.15041795  0.03245947  1
  O  O73  1  0.24874610  0.12286646  0.52021902  1
  O  O74  1  0.23363132  0.63377294  0.04436232  1
  O  O75  1  0.23433381  0.62959590  0.54066039  1
  O  O76  1  0.75889102  0.12364639  0.03269988  1
  O  O77  1  0.74908115  0.12353386  0.54103411  1
  O  O78  1  0.74665169  0.62496442  0.03719820  1
  O  O79  1  0.74446943  0.62623586  0.54033725  1
  O  O80  1  0.27686552  0.36725850  0.49796561  1
  O  O81  1  0.28308740  0.33421613  0.00969068  1
  O  O82  1  0.28049265  0.87826470  0.46765447  1
  O  O83  1  0.27556617  0.88220988  0.96470441  1
  O  O84  1  0.74524406  0.37909199  0.46582926  1
  O  O85  1  0.74847815  0.37661033  0.96853214  1
  O  O86  1  0.74491421  0.87254914  0.46560973  1
  O  O87  1  0.74893937  0.87085599  0.96333245  1
loop_
_geom_bond_atom_site_label_1
_geom_bond_atom_site_label_2
_geom_bond_distance
_geom_bond_site_symmetry_2
Ca0 O47 2.271117 1_554
Ca0 O11 2.338409 1_554
Ca0 O68 2.394062 1_555
Ca0 O72 2.406466 1_655
Ca0 O76 2.532322 1_555
Ca0 O37 2.748989 1_654
Ca0 O52 2.775652 1_645
Ca1 O71 2.348812 1_455
Ca1 O12 2.378789 1_455
Ca1 O75 2.406539 1_555
Ca1 O48 2.427992 1_455
Ca1 O38 2.688505 1_555
Ca1 O16 2.716291 1_555
Ca1 O1 2.746387 1_555
Ca1 O51 2.747186 1_555
Ca2 O70 2.350322 1_456
Ca2 O13 2.359278 1_455
Ca2 O49 2.406944 1_455
Ca2 O74 2.426321 1_556
Ca2 O39 2.678427 1_555
Ca2 O17 2.693014 1_555
Ca2 O50 2.774814 1_556
Ca2 O0 2.827205 1_556
Ca3 O40 2.339143 1_555
Ca3 O3 2.364126 1_555
Ca3 O6 2.368753 1_555
Ca3 O77 2.371330 1_555
Ca3 O18 2.431751 1_555
Ca3 O57 2.432944 1_545
Ca4 O76 2.342982 1_556
Ca4 O7 2.347867 1_555
Ca4 O41 2.353226 1_555
Ca4 O2 2.375749 1_556
Ca4 O56 2.422169 1_546
Ca4 O19 2.448698 1_555
Ca5 O67 2.366866 1_555
Ca5 O8 2.385711 1_555
Ca5 O44 2.450557 1_555
Ca5 O79 2.460574 1_555
Ca5 O42 2.581443 1_555
Ca5 O20 2.591313 1_555
Ca5 O55 2.642958 1_555
Ca5 O5 2.700048 1_555
Ca6 O66 2.366624 1_556
Ca6 O9 2.372150 1_555
Ca6 O45 2.467016 1_555
Ca6 O78 2.480872 1_556
Ca6 O21 2.579487 1_555
Ca6 O43 2.602415 1_555
Ca6 O54 2.661008 1_556
Ca6 O4 2.687772 1_556
Ca7 O55 2.257807 1_555
Ca7 O80 2.419311 1_555
Ca7 O62 2.438215 1_555
Ca7 O3 2.494876 1_555
Ca7 O44 2.507422 1_555
Ca7 O29 2.724203 1_555
Ca7 O84 2.773004 1_555
Ca7 O63 2.914289 1_555
Ca7 O42 3.004996 1_555
Ca8 O4 2.255336 1_555
Ca8 O65 2.300417 1_554
Ca8 O83 2.459452 1_554
Ca8 O9 2.505697 1_554
Ca8 O56 2.506121 1_555
Ca8 O22 2.524118 1_555
Ca9 O5 2.269297 1_555
Ca9 O64 2.334320 1_555
Ca9 O82 2.395826 1_555
Ca9 O57 2.479782 1_555
Ca9 O8 2.494222 1_555
Ca9 O23 2.625278 1_555
Ca9 O86 2.756929 1_555
Ca10 O50 2.371029 1_656
Ca10 O59 2.383365 1_655
Ca10 O85 2.402313 1_555
Ca10 O32 2.437313 1_556
Ca10 O49 2.447725 1_555
Ca10 O11 2.511172 1_555
Ca10 O24 2.781294 1_556
Ca11 O51 2.343441 1_655
Ca11 O33 2.392094 1_555
Ca11 O84 2.428366 1_555
Ca11 O58 2.437208 1_655
Ca11 O48 2.447545 1_555
Ca11 O10 2.583715 1_555
Ca11 O25 2.736919 1_555
Ca12 O61 2.341185 1_654
Ca12 O0 2.348501 1_655
Ca12 O87 2.424742 1_554
Ca12 O26 2.455072 1_555
Ca12 O13 2.549883 1_554
Ca12 O52 2.557755 1_655
Ca12 O34 2.623306 1_555
Ca12 O47 2.741433 1_564
Ca13 O1 2.348848 1_655
Ca13 O27 2.417335 1_555
Ca13 O60 2.458550 1_555
Ca13 O86 2.499291 1_555
Ca13 O53 2.530388 1_655
Ca13 O35 2.569742 1_555
Ca13 O12 2.691722 1_555
Ca13 O46 2.761324 1_565
Ca14 O29 2.268893 1_555
Ca14 O39 2.400859 1_555
Ca14 O51 2.414829 1_555
Ca14 O59 2.468987 1_555
Ca14 O15 2.476792 1_555
Ca14 O63 2.801846 1_555
Ca14 O80 2.802292 1_555
Ca14 O45 2.940447 1_555
Ca14 O81 3.084391 1_556
Ca15 O22 2.315532 1_555
Ca15 O82 2.335215 1_555
Ca15 O16 2.402854 1_555
Ca15 O0 2.469375 1_555
Ca15 O60 2.533993 1_455
Ca15 O36 2.707013 1_565
Ca15 O52 2.737330 1_555
Ca16 O23 2.346912 1_555
Ca16 O83 2.420907 1_555
Ca16 O61 2.443214 1_555
Ca16 O1 2.467568 1_555
Ca16 O31 2.517965 1_555
Ca16 O17 2.562158 1_555
Ca16 O53 2.631612 1_555
Ca16 O37 2.856659 1_565
Ca17 O32 2.281142 1_555
Ca17 O84 2.350309 1_555
Ca17 O54 2.481515 1_555
Ca17 O24 2.494924 1_555
Ca17 O42 2.568911 1_555
Ca17 O62 2.645685 1_555
Ca18 O33 2.315087 1_555
Ca18 O85 2.382010 1_555
Ca18 O25 2.395388 1_555
Ca18 O55 2.550099 1_555
Ca18 O43 2.554892 1_555
Ca18 O63 2.696269 1_555
Ca18 O19 2.917629 1_555
Ca19 O26 2.315441 1_555
Ca19 O86 2.345410 1_555
Ca19 O4 2.489923 1_555
Ca19 O64 2.526143 1_555
Ca19 O34 2.559245 1_555
Ca19 O20 2.581782 1_555
Ca20 O27 2.285238 1_555
Ca20 O87 2.328151 1_555
Ca20 O35 2.468396 1_555
Ca20 O5 2.495201 1_555
Ca20 O65 2.518482 1_555
Ca20 O21 2.646465 1_555
Ca21 O37 2.243203 1_555
Ca21 O73 2.291229 1_555
Ca21 O31 2.389442 1_545
Ca21 O15 2.394661 1_555
Ca21 O69 2.482032 1_455
Ca21 O7 2.606515 1_555
Ca21 O53 2.635376 1_545
Ca22 O16 2.373285 1_555
Ca22 O74 2.378892 1_555
Ca22 O38 2.408752 1_555
Ca22 O66 2.426251 1_555
Ca22 O8 2.560489 1_555
Ca22 O44 2.604129 1_555
Ca22 O28 2.701964 1_555
Ca22 O22 2.780153 1_555
Ca23 O17 2.366404 1_555
Ca23 O75 2.381216 1_555
Ca23 O67 2.436358 1_555
Ca23 O39 2.441854 1_555
Ca23 O29 2.581233 1_555
Ca23 O9 2.589838 1_555
Ca23 O45 2.625053 1_555
Ca23 O23 2.684620 1_555
Ca24 O76 2.326097 1_555
Ca24 O18 2.326651 1_555
Ca24 O40 2.353157 1_555
Ca24 O68 2.412755 1_555
Ca24 O46 2.534296 1_555
Ca24 O34 2.585942 1_545
Ca24 O24 2.817606 1_555
Ca25 O77 2.364024 1_555
Ca25 O19 2.386421 1_555
Ca25 O41 2.393786 1_555
Ca25 O69 2.394423 1_555
Ca25 O47 2.543065 1_555
Ca25 O35 2.660964 1_545
Ca25 O25 2.791812 1_555
Ca25 O11 2.950219 1_555
Ca25 O76 3.023640 1_556
Ca26 O78 2.362733 1_555
Ca26 O20 2.401432 1_555
Ca26 O42 2.418207 1_555
Ca26 O70 2.506648 1_555
Ca26 O12 2.588569 1_555
Ca26 O48 2.641283 1_555
Ca26 O26 2.730471 1_555
Ca26 O32 2.751749 1_555
Ca27 O79 2.354875 1_555
Ca27 O21 2.378824 1_555
Ca27 O43 2.464554 1_555
Ca27 O71 2.475049 1_555
Ca27 O13 2.599682 1_555
Ca27 O49 2.618465 1_555
Ca27 O33 2.728295 1_555
Ca27 O27 2.765799 1_555
Mn0 O53 1.891134 1_655
Mn0 O47 1.905975 1_565
Mn0 O61 1.965970 1_655
Mn0 O35 2.007397 1_555
Mn0 O37 2.120248 1_665
Mn0 O69 2.259352 1_565
Mn1 O32 1.942656 1_455
Mn1 O38 1.945938 1_555
Mn1 O70 1.952793 1_455
Mn1 O58 1.968213 1_555
Mn1 O48 1.981102 1_455
Mn1 O50 2.006269 1_555
Mn2 O71 1.935021 1_455
Mn2 O33 1.953037 1_455
Mn2 O49 1.961719 1_455
Mn2 O39 1.967477 1_555
Mn2 O51 1.986540 1_555
Mn2 O59 1.991586 1_555
Mn3 O40 1.926007 1_565
Mn3 O64 1.943097 1_555
Mn3 O56 1.951482 1_555
Mn3 O30 1.992713 1_565
Mn4 O65 1.885322 1_555
Mn4 O31 1.891537 1_555
Mn4 O41 1.904652 1_565
Mn4 O57 1.907484 1_555
Mn5 O66 1.917192 1_555
Mn5 O28 1.939500 1_555
Mn5 O42 1.962689 1_555
Mn5 O54 1.969073 1_555
Mn5 O44 1.996237 1_555
Mn5 O62 2.020381 1_555
Mn6 O29 1.928517 1_555
Mn6 O67 1.951855 1_555
Mn6 O43 1.958078 1_555
Mn6 O55 1.970092 1_555
Mn6 O45 1.973852 1_555
Mn6 O63 1.999334 1_555
Mn7 O82 1.891358 1_555
Mn7 O36 1.958189 1_565
Mn7 O53 2.014371 1_555
Mn7 O31 2.029327 1_555
Mn7 O73 2.034892 1_565
Mn8 O28 1.920982 1_555
Mn8 O39 1.967185 1_554
Mn8 O50 1.967331 1_555
Mn8 O45 1.969876 1_554
Mn8 O74 1.978281 1_555
Mn9 O29 1.905986 1_555
Mn9 O44 1.970600 1_555
Mn9 O51 1.979695 1_555
Mn9 O75 1.981123 1_555
Mn9 O38 1.985553 1_555
Mn9 O80 2.185532 1_555
Mn10 O56 1.888378 1_556
Mn10 O47 1.933993 1_565
Mn10 O87 1.953565 1_555
Mn10 O34 2.028393 1_556
Mn10 O76 2.071330 1_566
Mn10 O41 2.093433 1_565
Mn11 O57 1.925296 1_555
Mn11 O46 1.974138 1_565
Mn11 O35 1.982488 1_555
Mn11 O86 1.985541 1_555
Mn11 O77 2.023099 1_565
Mn11 O40 2.075704 1_565
Mn12 O78 1.917160 1_555
Mn12 O43 1.954051 1_554
Mn12 O54 1.954349 1_555
Mn12 O32 1.958239 1_555
Mn12 O49 1.994200 1_554
Mn12 O85 2.033613 1_554
Mn13 O79 1.932888 1_555
Mn13 O42 1.935755 1_555
Mn13 O33 1.970379 1_555
Mn13 O55 1.972460 1_555
Mn13 O84 2.011675 1_555
Mn13 O48 2.012220 1_555
Mn14 O80 1.927292 1_555
Mn14 O73 1.999957 1_555
Mn14 O14 2.034603 1_555
Mn14 O6 2.059209 1_555
Mn15 O74 1.875160 1_555
Mn15 O0 1.946736 1_555
Mn15 O22 1.950244 1_555
Mn15 O17 1.970311 1_554
Mn15 O9 1.998124 1_554
Mn15 O83 2.133438 1_554
Mn16 O75 1.923198 1_555
Mn16 O1 1.957287 1_555
Mn16 O23 1.958717 1_555
Mn16 O8 1.987854 1_555
Mn16 O16 1.995197 1_555
Mn16 O82 2.079814 1_555
Mn17 O11 1.939006 1_554
Mn17 O19 1.939576 1_554
Mn17 O24 1.973615 1_555
Mn17 O85 2.008605 1_554
Mn17 O76 2.010480 1_555
Mn17 O2 2.101853 1_555
Mn18 O25 1.957539 1_555
Mn18 O3 1.972760 1_555
Mn18 O10 1.981016 1_555
Mn18 O18 1.988290 1_555
Mn18 O84 2.026872 1_555
Mn18 O77 2.053015 1_555
Mn19 O78 1.935050 1_555
Mn19 O21 1.942661 1_554
Mn19 O26 1.966351 1_555
Mn19 O4 1.978963 1_555
Mn19 O13 1.989565 1_554
Mn19 O87 1.993587 1_554
Mn20 O79 1.933894 1_555
Mn20 O20 1.964854 1_555
Mn20 O27 1.971070 1_555
Mn20 O12 2.000676 1_555
Mn20 O86 2.004881 1_555
Mn20 O5 2.015464 1_555
Mn21 O59 1.939014 1_655
Mn21 O69 1.951178 1_555
Mn21 O25 1.963327 1_555
Mn21 O11 2.012895 1_555
Mn21 O15 2.016896 1_655
Mn22 O70 1.921710 1_455
Mn22 O12 1.954768 1_455
Mn22 O16 1.960626 1_555
Mn22 O26 1.965444 1_455
Mn22 O60 1.981642 1_455
Mn22 O0 2.056507 1_555
Mn23 O61 1.947947 1_555
Mn23 O17 1.949365 1_555
Mn23 O27 1.961887 1_455
Mn23 O13 1.968337 1_455
Mn23 O71 1.972318 1_455
Mn23 O1 2.028218 1_555
Mn24 O6 1.871893 1_555
Mn24 O18 1.875309 1_555
Mn24 O2 1.884226 1_555
Mn24 O62 1.930127 1_555
Mn25 O3 1.973214 1_555
Mn25 O63 1.982144 1_555
Mn25 O19 1.988512 1_555
Mn25 O7 2.065347 1_555
Mn26 O66 1.935855 1_555
Mn26 O20 1.944607 1_555
Mn26 O64 1.964232 1_555
Mn26 O22 1.973759 1_555
Mn26 O4 1.985033 1_555
Mn26 O8 1.992321 1_555
Mn27 O67 1.909234 1_555
Mn27 O23 1.951729 1_555
Mn27 O5 1.956021 1_555
Mn27 O21 1.958320 1_555
Mn27 O65 1.984314 1_555
Mn27 O9 1.995012 1_555
O2 Sr1 2.581871 1_554
O6 Sr3 2.597067 1_555
O7 Ti2 1.889274 1_555
O10 Ti3 1.806266 1_555
O10 Sr0 2.491990 1_555
O14 Ti3 1.900832 1_455
O14 Sr3 2.392111 1_555
O14 Sr2 2.551249 1_555
O15 Ti2 1.855269 1_555
O24 Ti3 1.904901 1_555
O28 Sr2 2.421032 1_555
O28 Sr1 2.708739 1_554
O30 Ti1 1.916537 1_545
O30 Sr3 2.522355 1_555
O34 Ti0 1.924707 1_555
O36 Ti0 2.011452 1_445
O36 Sr3 2.419326 1_555
O36 Sr0 2.740900 1_455
O37 Ti1 1.856320 1_546
O38 Sr2 2.575730 1_555
O43 Sr1 2.975295 1_555
O44 Sr2 3.003296 1_555
O45 Sr1 2.627459 1_555
O46 Ti0 1.876675 1_545
O46 Sr0 2.391964 1_555
O50 Sr2 2.620073 1_555
O52 Ti1 1.803550 1_555
O52 Ti0 2.045470 1_455
O52 Sr3 3.015688 1_565
O53 Sr0 2.632157 1_465
O54 Sr1 2.393808 1_554
O58 Ti3 1.961102 1_455
O58 Sr2 2.643036 1_555
O60 Ti0 1.833058 1_555
O62 Sr2 2.819994 1_555
O62 Sr1 3.037004 1_554
O63 Sr1 2.526437 1_555
O68 Ti3 2.022567 1_555
O68 Ti0 2.332737 1_545
O68 Sr3 2.620582 1_655
O68 Sr0 3.019610 1_555
O69 Sr0 2.447853 1_555
O72 Ti2 1.805402 1_554
O72 Sr3 2.440077 1_555
O72 Ti1 2.553957 1_545
O73 Sr0 2.736489 1_455
O73 Sr3 2.936420 1_555
O77 Sr0 2.769570 1_555
O80 Sr2 2.673104 1_555
O81 Ti2 1.788730 1_554
O81 Sr1 2.528600 1_554
O81 Sr2 2.848105 1_555
O83 Ti1 1.813927 1_556
O85 Sr1 2.727098 1_555
