# generated using pymatgen
data_LiYMg14O16
_symmetry_space_group_name_H-M   'P 1'
_cell_length_a   4.31339800
_cell_length_b   8.59871700
_cell_length_c   8.63909300
_cell_angle_alpha   90.00000000
_cell_angle_beta   90.00000000
_cell_angle_gamma   90.00000000
_symmetry_Int_Tables_number   1
_chemical_formula_structural   LiYMg14O16
_chemical_formula_sum   'Li1 Y1 Mg14 O16'
_cell_volume   320.42127011
_cell_formula_units_Z   1
loop_
 _symmetry_equiv_pos_site_id
 _symmetry_equiv_pos_as_xyz
  1  'x, y, z'
loop_
 _atom_site_type_symbol
 _atom_site_label
 _atom_site_symmetry_multiplicity
 _atom_site_fract_x
 _atom_site_fract_y
 _atom_site_fract_z
 _atom_site_occupancy
  Li  Li0  1  0.00000000  0.00000000  0.50000000  1
  Y  Y0  1  0.00000000  0.00000000  0.00000000  1
  Mg  Mg0  1  0.00000000  0.50000000  0.00000000  1
  Mg  Mg1  1  0.00000000  0.50000000  0.50000000  1
  Mg  Mg2  1  0.50000000  0.00000000  0.26906300  1
  Mg  Mg3  1  0.50000000  0.00000000  0.73093700  1
  Mg  Mg4  1  0.50000000  0.50000000  0.25283900  1
  Mg  Mg5  1  0.50000000  0.50000000  0.74716100  1
  Mg  Mg6  1  0.50000000  0.26133100  0.00000000  1
  Mg  Mg7  1  0.50000000  0.24477000  0.50000000  1
  Mg  Mg8  1  0.50000000  0.73866900  0.00000000  1
  Mg  Mg9  1  0.50000000  0.75523000  0.50000000  1
  Mg  Mg10  1  0.00000000  0.25238000  0.26119300  1
  Mg  Mg11  1  0.00000000  0.25238000  0.73880700  1
  Mg  Mg12  1  0.00000000  0.74762000  0.26119300  1
  Mg  Mg13  1  0.00000000  0.74762000  0.73880700  1
  O  O0  1  0.00000000  0.26004200  0.00000000  1
  O  O1  1  0.00000000  0.25949900  0.50000000  1
  O  O2  1  0.00000000  0.73995800  0.00000000  1
  O  O3  1  0.00000000  0.74050100  0.50000000  1
  O  O4  1  0.50000000  0.24879100  0.24674500  1
  O  O5  1  0.50000000  0.24879100  0.75325500  1
  O  O6  1  0.50000000  0.75120900  0.24674500  1
  O  O7  1  0.50000000  0.75120900  0.75325500  1
  O  O8  1  0.50000000  0.00000000  0.00000000  1
  O  O9  1  0.50000000  0.00000000  0.50000000  1
  O  O10  1  0.50000000  0.50000000  0.00000000  1
  O  O11  1  0.50000000  0.50000000  0.50000000  1
  O  O12  1  0.00000000  0.00000000  0.25586400  1
  O  O13  1  0.00000000  0.00000000  0.74413600  1
  O  O14  1  0.00000000  0.50000000  0.24824100  1
  O  O15  1  0.00000000  0.50000000  0.75175900  1
loop_
_geom_bond_atom_site_label_1
_geom_bond_atom_site_label_2
_geom_bond_distance
_geom_bond_site_symmetry_2
Li0 O13 2.109114 1_555
Li0 O12 2.109114 1_555
Li0 O9 2.156699 1_455
Li0 O9 2.156699 1_555
Li0 O1 2.231358 1_555
Li0 O3 2.231358 1_545
Mg0 O0 2.063331 1_555
Mg0 O2 2.063331 1_555
Mg0 O14 2.144577 1_555
Mg0 O15 2.144577 1_554
Mg0 O10 2.156699 1_555
Mg0 O10 2.156699 1_455
Mg1 O3 2.068000 1_555
Mg1 O1 2.068000 1_555
Mg1 O11 2.156699 1_455
Mg1 O11 2.156699 1_555
Mg1 O15 2.174969 1_555
Mg1 O14 2.174969 1_555
Mg2 O9 1.995086 1_555
Mg2 O4 2.147954 1_555
Mg2 O6 2.147954 1_545
Mg2 O12 2.159711 1_655
Mg2 O12 2.159711 1_555
Mg2 O8 2.324460 1_555
Mg3 O9 1.995086 1_555
Mg3 O5 2.147954 1_555
Mg3 O7 2.147954 1_545
Mg3 O13 2.159711 1_555
Mg3 O13 2.159711 1_655
Mg3 O8 2.324460 1_556
Mg4 O11 2.135247 1_555
Mg4 O14 2.157065 1_555
Mg4 O14 2.157065 1_655
Mg4 O6 2.160717 1_555
Mg4 O4 2.160717 1_555
Mg4 O10 2.184300 1_555
Mg5 O11 2.135247 1_555
Mg5 O15 2.157065 1_555
Mg5 O15 2.157065 1_655
Mg5 O7 2.160717 1_555
Mg5 O5 2.160717 1_555
Mg5 O10 2.184300 1_556
Mg6 O10 2.052247 1_555
Mg6 O4 2.134378 1_555
Mg6 O5 2.134378 1_554
Mg6 O0 2.156727 1_555
Mg6 O0 2.156727 1_655
Mg6 O8 2.247111 1_555
Mg7 O9 2.104708 1_555
Mg7 O1 2.160415 1_555
Mg7 O1 2.160415 1_655
Mg7 O5 2.188167 1_555
Mg7 O4 2.188167 1_555
Mg7 O11 2.194651 1_555
Mg8 O10 2.052247 1_555
Mg8 O7 2.134378 1_554
Mg8 O6 2.134378 1_555
Mg8 O2 2.156727 1_655
Mg8 O2 2.156727 1_555
Mg8 O8 2.247111 1_565
Mg9 O9 2.104708 1_565
Mg9 O3 2.160415 1_555
Mg9 O3 2.160415 1_655
Mg9 O6 2.188167 1_555
Mg9 O7 2.188167 1_555
Mg9 O11 2.194651 1_555
Mg10 O1 2.063984 1_555
Mg10 O14 2.132152 1_555
Mg10 O4 2.160528 1_455
Mg10 O4 2.160528 1_555
Mg10 O12 2.170632 1_555
Mg10 O0 2.257432 1_555
Mg11 O1 2.063984 1_555
Mg11 O15 2.132152 1_555
Mg11 O5 2.160528 1_455
Mg11 O5 2.160528 1_555
Mg11 O13 2.170632 1_555
Mg11 O0 2.257432 1_556
Mg12 O3 2.063984 1_555
Mg12 O14 2.132152 1_555
Mg12 O6 2.160528 1_455
Mg12 O6 2.160528 1_555
Mg12 O12 2.170632 1_565
Mg12 O2 2.257432 1_555
Mg13 O3 2.063984 1_555
Mg13 O15 2.132152 1_555
Mg13 O7 2.160528 1_555
Mg13 O7 2.160528 1_455
Mg13 O13 2.170632 1_565
Mg13 O2 2.257432 1_556
O0 Y0 2.236028 1_555
O2 Y0 2.236028 1_565
O8 Y0 2.156699 1_555
O8 Y0 2.156699 1_655
O12 Y0 2.210433 1_555
O13 Y0 2.210433 1_556
