# generated using pymatgen
data_Mn3Al10
_symmetry_space_group_name_H-M   'P 1'
_cell_length_a   7.49857440
_cell_length_b   7.49857950
_cell_length_c   7.82836780
_cell_angle_alpha   90.00002806
_cell_angle_beta   89.99994183
_cell_angle_gamma   119.99994091
_symmetry_Int_Tables_number   1
_chemical_formula_structural   Mn3Al10
_chemical_formula_sum   'Mn6 Al20'
_cell_volume   381.20607865
_cell_formula_units_Z   2
loop_
 _symmetry_equiv_pos_site_id
 _symmetry_equiv_pos_as_xyz
  1  'x, y, z'
loop_
 _atom_site_type_symbol
 _atom_site_label
 _atom_site_symmetry_multiplicity
 _atom_site_fract_x
 _atom_site_fract_y
 _atom_site_fract_z
 _atom_site_occupancy
  Mn  Mn0  1  0.11852864  0.23705110  0.25000021  1
  Mn  Mn1  1  0.88147389  0.11852290  0.75000003  1
  Mn  Mn2  1  0.23704550  0.11852356  0.74999974  1
  Mn  Mn3  1  0.76295450  0.88147644  0.25000026  1
  Mn  Mn4  1  0.11852611  0.88147710  0.24999997  1
  Mn  Mn5  1  0.88147136  0.76294890  0.74999979  1
  Al  Al0  1  -0.00000000  -0.00000000  -0.00000000  1
  Al  Al1  1  -0.00000000  -0.00000000  0.50000000  1
  Al  Al2  1  0.45647039  0.91294437  0.25000217  1
  Al  Al3  1  0.54352979  0.45647568  0.74999770  1
  Al  Al4  1  0.91294769  0.45647606  0.74999806  1
  Al  Al5  1  0.08705231  0.54352394  0.25000194  1
  Al  Al6  1  0.45647021  0.54352432  0.25000230  1
  Al  Al7  1  0.54352961  0.08705563  0.74999783  1
  Al  Al8  1  0.20248167  0.40496417  0.93725934  1
  Al  Al9  1  0.79751959  0.20248196  0.43725939  1
  Al  Al10  1  0.40496486  0.20248266  0.43725764  1
  Al  Al11  1  0.59503408  0.79751696  0.93725641  1
  Al  Al12  1  0.20248076  0.79751733  0.93725841  1
  Al  Al13  1  0.79751833  0.59503583  0.06274066  1
  Al  Al14  1  0.79751924  0.20248267  0.06274159  1
  Al  Al15  1  0.79751924  0.59503691  0.43726057  1
  Al  Al16  1  0.40496592  0.20248304  0.06274359  1
  Al  Al17  1  0.59503514  0.79751734  0.56274236  1
  Al  Al18  1  0.20248076  0.40496309  0.56273943  1
  Al  Al19  1  0.20248041  0.79751804  0.56274061  1
loop_
_geom_bond_atom_site_label_1
_geom_bond_atom_site_label_2
_geom_bond_distance
_geom_bond_site_symmetry_2
Mn0 Mn4 2.666290 1_545
Mn0 Mn3 2.666304 1_445
Mn1 Mn2 2.666278 1_655
Mn1 Mn5 2.666290 1_545
Mn2 Mn5 2.666304 1_445
Mn3 Mn4 2.666278 1_655
Al0 Mn2 2.489950 1_554
Al0 Mn3 2.489950 1_445
Al0 Mn4 2.489964 1_545
Al0 Mn1 2.489964 1_454
Al0 Mn5 2.489974 1_444
Al0 Mn0 2.489974 1_555
Al0 Al12 2.675288 1_544
Al0 Al14 2.675288 1_455
Al0 Al13 2.675295 1_445
Al0 Al8 2.675295 1_554
Al0 Al11 2.675309 1_444
Al0 Al16 2.675309 1_555
Al1 Mn2 2.489949 1_555
Al1 Mn3 2.489949 1_445
Al1 Mn1 2.489963 1_455
Al1 Mn4 2.489963 1_545
Al1 Mn0 2.489972 1_555
Al1 Mn5 2.489972 1_445
Al1 Al19 2.675281 1_545
Al1 Al9 2.675281 1_455
Al1 Al15 2.675286 1_445
Al1 Al18 2.675286 1_555
Al1 Al10 2.675300 1_555
Al1 Al17 2.675300 1_445
Al2 Mn4 2.424747 1_555
Al2 Mn3 2.424802 1_555
Al2 Al9 2.801877 1_565
Al3 Mn5 2.424726 1_555
Al3 Mn2 2.424807 1_555
Al3 Al8 2.801885 1_555
Al4 Mn5 2.424756 1_555
Al4 Mn1 2.424794 1_555
Al4 Al8 2.801870 1_655
Al4 Al9 2.953301 1_555
Al5 Mn0 2.424756 1_555
Al5 Mn4 2.424794 1_555
Al5 Al9 2.801837 1_455
Al5 Al8 2.953305 1_554
Al6 Mn0 2.424726 1_555
Al6 Mn3 2.424807 1_555
Al6 Al8 2.953309 1_554
Al7 Mn1 2.424747 1_555
Al7 Mn2 2.424802 1_555
Al7 Al9 2.953283 1_555
Al8 Mn0 2.680103 1_556
Al8 Mn2 2.717774 1_555
Al8 Mn1 2.717789 1_455
Al9 Mn1 2.680102 1_555
Al9 Mn3 2.717776 1_545
Al9 Mn0 2.717786 1_655
Al10 Mn2 2.680127 1_555
Al10 Mn0 2.717755 1_555
Al10 Mn4 2.717768 1_545
Al10 Al6 2.801836 1_555
Al10 Al2 2.801848 1_545
Al10 Al18 2.807295 1_555
Al10 Al19 2.807303 1_545
Al10 Al16 2.931834 1_555
Al10 Al15 2.943601 1_555
Al10 Al9 2.943603 1_555
Al10 Al7 2.953302 1_555
Al10 Al3 2.953306 1_555
Al11 Mn3 2.680144 1_556
Al11 Mn5 2.717754 1_555
Al11 Mn1 2.717766 1_565
Al11 Al3 2.801849 1_555
Al11 Al7 2.801860 1_565
Al11 Al13 2.807309 1_556
Al11 Al14 2.807316 1_566
Al11 Al17 2.931834 1_555
Al11 Al8 2.943589 1_555
Al11 Al12 2.943592 1_555
Al11 Al2 2.953334 1_556
Al11 Al6 2.953342 1_556
Al12 Mn4 2.680110 1_556
Al12 Mn2 2.717781 1_565
Al12 Mn5 2.717790 1_455
Al12 Al4 2.801848 1_455
Al12 Al7 2.801890 1_565
Al12 Al13 2.807285 1_456
Al12 Al16 2.807316 1_566
Al12 Al19 2.931863 1_555
Al12 Al8 2.943594 1_555
Al12 Al2 2.953318 1_556
Al12 Al5 2.953330 1_556
Al13 Mn5 2.680103 1_554
Al13 Mn3 2.717774 1_555
Al13 Mn4 2.717789 1_655
Al13 Al5 2.801870 1_655
Al13 Al6 2.801885 1_555
Al13 Al15 2.931880 1_555
Al13 Al16 2.943589 1_555
Al13 Al14 2.943594 1_555
Al13 Al4 2.953305 1_554
Al13 Al3 2.953309 1_554
Al14 Mn1 2.680110 1_554
Al14 Mn3 2.717781 1_545
Al14 Mn0 2.717790 1_655
Al14 Al5 2.801848 1_655
Al14 Al2 2.801890 1_545
Al14 Al8 2.807285 1_654
Al14 Al9 2.931863 1_555
Al14 Al16 2.943592 1_555
Al14 Al7 2.953318 1_554
Al14 Al4 2.953330 1_554
Al15 Mn5 2.680088 1_555
Al15 Mn3 2.717775 1_555
Al15 Mn4 2.717787 1_655
Al15 Al5 2.801855 1_655
Al15 Al6 2.801877 1_555
Al15 Al19 2.807273 1_655
Al15 Al17 2.807295 1_555
Al15 Al9 2.943606 1_555
Al15 Al3 2.953272 1_555
Al15 Al4 2.953275 1_555
Al16 Mn2 2.680144 1_554
Al16 Mn0 2.717754 1_555
Al16 Mn4 2.717766 1_545
Al16 Al6 2.801849 1_555
Al16 Al2 2.801860 1_545
Al16 Al8 2.807309 1_554
Al16 Al7 2.953334 1_554
Al16 Al3 2.953342 1_554
Al17 Mn3 2.680127 1_555
Al17 Mn5 2.717755 1_555
Al17 Mn1 2.717768 1_565
Al17 Al3 2.801836 1_555
Al17 Al7 2.801848 1_565
Al17 Al9 2.807303 1_565
Al17 Al18 2.943601 1_555
Al17 Al19 2.943603 1_555
Al17 Al2 2.953302 1_555
Al17 Al6 2.953306 1_555
Al18 Mn0 2.680088 1_555
Al18 Mn2 2.717775 1_555
Al18 Mn1 2.717787 1_455
Al18 Al4 2.801855 1_455
Al18 Al3 2.801877 1_555
Al18 Al9 2.807273 1_455
Al18 Al8 2.931880 1_555
Al18 Al19 2.943606 1_555
Al18 Al6 2.953272 1_555
Al18 Al5 2.953275 1_555
Al19 Mn4 2.680102 1_555
Al19 Mn2 2.717776 1_565
Al19 Mn5 2.717786 1_455
Al19 Al4 2.801837 1_455
Al19 Al7 2.801877 1_565
Al19 Al2 2.953283 1_555
Al19 Al5 2.953301 1_555
