# generated using pymatgen
data_CsCuNiF6
_symmetry_space_group_name_H-M   'P 1'
_cell_length_a   7.31745212
_cell_length_b   7.31745212
_cell_length_c   7.31745212
_cell_angle_alpha   120.43244771
_cell_angle_beta   119.31843086
_cell_angle_gamma   90.21857853
_symmetry_Int_Tables_number   1
_chemical_formula_structural   CsCuNiF6
_chemical_formula_sum   'Cs2 Cu2 Ni2 F12'
_cell_volume   277.54094891
_cell_formula_units_Z   2
loop_
 _symmetry_equiv_pos_site_id
 _symmetry_equiv_pos_as_xyz
  1  'x, y, z'
loop_
 _atom_site_type_symbol
 _atom_site_label
 _atom_site_symmetry_multiplicity
 _atom_site_fract_x
 _atom_site_fract_y
 _atom_site_fract_z
 _atom_site_occupancy
  Cs  Cs0  1  0.62668600  0.37668600  0.25000000  1
  Cs  Cs1  1  0.37331400  0.62331400  0.75000000  1
  Cu  Cu0  1  0.50000000  0.00000000  0.50000000  1
  Cu  Cu1  1  0.00000000  0.00000000  0.00000000  1
  Ni  Ni0  1  0.00000000  0.00000000  0.50000000  1
  Ni  Ni1  1  0.00000000  0.50000000  0.00000000  1
  F  F0  1  0.07269000  0.32269000  0.75000000  1
  F  F1  1  0.68248100  0.93248100  0.75000000  1
  F  F2  1  0.07305900  0.31505900  0.14268000  1
  F  F3  1  0.67237800  0.93037900  0.35732000  1
  F  F4  1  0.67237800  0.31505900  0.74199900  1
  F  F5  1  0.07305900  0.93037900  0.75800100  1
  F  F6  1  0.92731000  0.67731000  0.25000000  1
  F  F7  1  0.31751900  0.06751900  0.25000000  1
  F  F8  1  0.92694100  0.68494100  0.85732000  1
  F  F9  1  0.32762200  0.06962100  0.64268000  1
  F  F10  1  0.32762200  0.68494100  0.25800100  1
  F  F11  1  0.92694100  0.06962100  0.24199900  1
loop_
_geom_bond_atom_site_label_1
_geom_bond_atom_site_label_2
_geom_bond_distance
_geom_bond_site_symmetry_2
Cs0 F6 3.105050 1_555
Cs0 F10 3.147973 1_555
Cs0 F11 3.147978 1_555
Cs0 F9 3.147978 1_554
Cs0 F8 3.147978 1_555
Cs0 F7 3.193288 1_555
Cs1 F0 3.105050 1_555
Cs1 F4 3.147973 1_555
Cs1 F3 3.147978 1_556
Cs1 F5 3.147978 1_555
Cs1 F2 3.147978 1_555
Cs1 F1 3.193288 1_555
Cu0 F3 1.922607 1_545
Cu0 F9 1.922607 1_555
Cu0 F4 1.922612 1_555
Cu0 F10 1.922612 1_545
Cu0 F7 1.975373 1_555
Cu0 F1 1.975373 1_545
Cu1 F11 1.922607 1_455
Cu1 F5 1.922607 1_544
Cu1 F8 1.922614 1_444
Cu1 F2 1.922614 1_555
Cu1 F7 1.975373 1_555
Cu1 F1 1.975373 1_444
F0 Ni1 1.966368 1_556
F0 Ni0 1.966368 1_555
F2 Ni1 2.024231 1_555
F3 Ni0 2.024238 1_665
F4 Ni1 2.024237 1_656
F5 Ni0 2.024238 1_565
F6 Ni1 1.966368 1_655
F6 Ni0 1.966368 1_665
F8 Ni1 2.024231 1_656
F9 Ni0 2.024238 1_555
F10 Ni1 2.024237 1_555
F11 Ni0 2.024238 1_655
