# generated using pymatgen
data_KTbGeS4
_symmetry_space_group_name_H-M   'P 1'
_cell_length_a   6.73267800
_cell_length_b   6.55904200
_cell_length_c   8.78293291
_cell_angle_alpha   72.70971965
_cell_angle_beta   90.00000000
_cell_angle_gamma   90.00000000
_symmetry_Int_Tables_number   1
_chemical_formula_structural   KTbGeS4
_chemical_formula_sum   'K2 Tb2 Ge2 S8'
_cell_volume   370.32696933
_cell_formula_units_Z   2
loop_
 _symmetry_equiv_pos_site_id
 _symmetry_equiv_pos_as_xyz
  1  'x, y, z'
loop_
 _atom_site_type_symbol
 _atom_site_label
 _atom_site_symmetry_multiplicity
 _atom_site_fract_x
 _atom_site_fract_y
 _atom_site_fract_z
 _atom_site_occupancy
  K  K0  1  0.87986600  0.73060200  0.06599300  1
  K  K1  1  0.37986600  0.26939800  0.93400600  1
  Tb  Tb0  1  0.36171600  0.22790500  0.44969000  1
  Tb  Tb1  1  0.86171600  0.77209500  0.55031000  1
  Ge  Ge0  1  0.89695200  0.22563600  0.67236700  1
  Ge  Ge1  1  0.39695200  0.77436400  0.32763300  1
  S  S0  1  0.63310600  0.02511000  0.28210600  1
  S  S1  1  0.89886800  0.43009200  0.83083200  1
  S  S2  1  0.46896300  0.56536200  0.57203300  1
  S  S3  1  0.96896300  0.43463800  0.42796700  1
  S  S4  1  0.39886800  0.56990800  0.16916800  1
  S  S5  1  0.62625900  0.02019000  0.69835300  1
  S  S6  1  0.13310600  0.97489000  0.71789400  1
  S  S7  1  0.12625900  0.97981000  0.30164700  1
loop_
_geom_bond_atom_site_label_1
_geom_bond_atom_site_label_2
_geom_bond_distance
_geom_bond_site_symmetry_2
K0 S3 3.250688 1_555
K0 S1 3.253806 1_554
K0 S7 3.423231 1_655
K0 S4 3.442615 1_555
K0 S6 3.451035 1_654
K0 S0 3.503403 1_565
K0 S5 3.647419 1_564
K0 S4 3.684329 1_655
K1 S2 3.250681 1_555
K1 S4 3.253813 1_556
K1 S5 3.423224 1_555
K1 S1 3.442613 1_455
K1 S0 3.451042 1_556
K1 S6 3.503396 1_545
K1 S7 3.647425 1_546
K1 S1 3.684327 1_555
Ge0 S1 2.201153 1_555
Ge0 S3 2.229979 1_555
Ge0 S6 2.236470 1_645
Ge0 S5 2.237537 1_555
Ge1 S4 2.201153 1_555
Ge1 S2 2.229979 1_555
Ge1 S0 2.236470 1_565
Ge1 S7 2.237537 1_555
S0 Tb1 2.889334 1_545
S0 Tb0 2.904835 1_555
S1 Tb1 2.807064 1_555
S2 Tb0 2.826457 1_555
S2 Tb1 2.951862 1_555
S3 Tb1 2.826457 1_555
S3 Tb0 2.951862 1_655
S4 Tb0 2.807064 1_555
S5 Tb0 2.833642 1_555
S5 Tb1 2.847701 1_545
S6 Tb0 2.889334 1_565
S6 Tb1 2.904835 1_455
S7 Tb1 2.833642 1_455
S7 Tb0 2.847701 1_565
