# generated using pymatgen
data_Li9Mn2Co5O16
_symmetry_space_group_name_H-M   'P 1'
_cell_length_a   2.89633900
_cell_length_b   5.20576900
_cell_length_c   19.43448813
_cell_angle_alpha   82.94922698
_cell_angle_beta   90.00000000
_cell_angle_gamma   90.00000000
_symmetry_Int_Tables_number   1
_chemical_formula_structural   Li9Mn2Co5O16
_chemical_formula_sum   'Li9 Mn2 Co5 O16'
_cell_volume   290.81089600
_cell_formula_units_Z   1
loop_
 _symmetry_equiv_pos_site_id
 _symmetry_equiv_pos_as_xyz
  1  'x, y, z'
loop_
 _atom_site_type_symbol
 _atom_site_label
 _atom_site_symmetry_multiplicity
 _atom_site_fract_x
 _atom_site_fract_y
 _atom_site_fract_z
 _atom_site_occupancy
  Li  Li0  1  0.50000000  0.88390200  0.87340400  1
  Li  Li1  1  0.50000000  0.60581200  0.61968200  1
  Li  Li2  1  0.50000000  0.38082600  0.37825000  1
  Li  Li3  1  0.50000000  0.12658700  0.12775700  1
  Li  Li4  1  0.00000000  0.36799300  0.87510800  1
  Li  Li5  1  0.00000000  0.11998300  0.61829000  1
  Li  Li6  1  0.00000000  0.88651600  0.38043800  1
  Li  Li7  1  0.00000000  0.62604600  0.12645900  1
  Li  Li8  1  0.00000000  0.50048200  0.49909500  1
  Mn  Mn0  1  0.00000000  0.99980400  0.00105500  1
  Mn  Mn1  1  0.00000000  0.74632400  0.74821500  1
  Co  Co0  1  0.00000000  0.25221600  0.25206200  1
  Co  Co1  1  0.50000000  0.50051300  0.00028700  1
  Co  Co2  1  0.50000000  0.24682900  0.74713400  1
  Co  Co3  1  0.50000000  0.00005800  0.49959200  1
  Co  Co4  1  0.50000000  0.75198700  0.25255500  1
  O  O0  1  0.50000000  0.16510800  0.94296200  1
  O  O1  1  0.50000000  0.92273400  0.69256000  1
  O  O2  1  0.50000000  0.73855100  0.44670000  1
  O  O3  1  0.50000000  0.43875700  0.19448200  1
  O  O4  1  0.00000000  0.65775300  0.94312000  1
  O  O5  1  0.00000000  0.41246300  0.68637700  1
  O  O6  1  0.00000000  0.16926200  0.44468100  1
  O  O7  1  0.00000000  0.93689700  0.19468700  1
  O  O8  1  0.50000000  0.56944600  0.80487700  1
  O  O9  1  0.50000000  0.26308900  0.55207400  1
  O  O10  1  0.50000000  0.06931200  0.30842700  1
  O  O11  1  0.50000000  0.83510600  0.05911500  1
  O  O12  1  0.00000000  0.08359600  0.80826500  1
  O  O13  1  0.00000000  0.83146800  0.55450600  1
  O  O14  1  0.00000000  0.56676500  0.31035600  1
  O  O15  1  0.00000000  0.34381700  0.05742600  1
loop_
_geom_bond_atom_site_label_1
_geom_bond_atom_site_label_2
_geom_bond_distance
_geom_bond_site_symmetry_2
Li0 O0 2.110980 1_565
Li0 O12 2.111259 1_565
Li0 O12 2.111259 1_665
Li0 O4 2.219759 1_555
Li0 O4 2.219759 1_655
Li0 O8 2.233515 1_555
Li1 O5 2.114261 1_555
Li1 O5 2.114261 1_655
Li1 O13 2.171701 1_555
Li1 O13 2.171701 1_655
Li1 O1 2.302523 1_555
Li1 O9 2.342018 1_555
Li2 O14 2.112256 1_555
Li2 O14 2.112256 1_655
Li2 O6 2.151259 1_655
Li2 O6 2.151259 1_555
Li2 O10 2.238621 1_555
Li2 O2 2.417801 1_555
Li3 O7 2.109250 1_545
Li3 O7 2.109250 1_645
Li3 O11 2.139862 1_545
Li3 O3 2.199967 1_555
Li3 O15 2.205634 1_555
Li3 O15 2.205634 1_655
Li4 O12 2.086051 1_555
Li4 O4 2.124127 1_555
Li4 O0 2.147035 1_455
Li4 O0 2.147035 1_555
Li4 O8 2.169922 1_555
Li4 O8 2.169922 1_455
Li5 O9 2.018136 1_555
Li5 O9 2.018136 1_455
Li5 O13 2.061440 1_545
Li5 O5 2.136311 1_555
Li5 O1 2.207062 1_545
Li5 O1 2.207062 1_445
Li6 O2 2.026165 1_555
Li6 O2 2.026165 1_455
Li6 O6 2.043650 1_565
Li6 O10 2.152760 1_565
Li6 O10 2.152760 1_465
Li6 O14 2.276481 1_555
Li7 O15 2.107715 1_555
Li7 O3 2.116370 1_555
Li7 O3 2.116370 1_455
Li7 O11 2.155202 1_455
Li7 O11 2.155202 1_555
Li7 O7 2.214410 1_555
Li8 O2 2.088109 1_555
Li8 O2 2.088109 1_455
Li8 O9 2.090974 1_455
Li8 O9 2.090974 1_555
Li8 O6 2.130498 1_555
Li8 O13 2.141042 1_555
Mn0 O11 1.966724 1_455
Mn0 O11 1.966724 1_555
Mn0 O0 1.968212 1_464
Mn0 O0 1.968212 1_564
Mn0 O15 2.211112 1_565
Mn0 O4 2.220496 1_554
Mn1 O1 1.966373 1_455
Mn1 O1 1.966373 1_555
Mn1 O8 1.977056 1_555
Mn1 O8 1.977056 1_455
Mn1 O12 2.224346 1_565
Mn1 O5 2.231082 1_555
Co0 O10 1.986880 1_555
Co0 O10 1.986880 1_455
Co0 O3 2.006409 1_555
Co0 O3 2.006409 1_455
Co0 O7 2.094550 1_545
Co0 O14 2.102433 1_555
Co1 O15 1.942513 1_555
Co1 O15 1.942513 1_655
Co1 O4 1.943788 1_654
Co1 O4 1.943788 1_554
Co1 O0 2.183435 1_554
Co1 O11 2.197707 1_555
Co2 O12 1.995719 1_555
Co2 O12 1.995719 1_655
Co2 O5 1.996239 1_555
Co2 O5 1.996239 1_655
Co2 O1 2.100175 1_545
Co2 O8 2.131351 1_555
Co3 O2 1.803729 1_545
Co3 O9 1.805023 1_555
Co3 O13 1.943315 1_545
Co3 O13 1.943315 1_645
Co3 O6 1.944517 1_655
Co3 O6 1.944517 1_555
Co4 O7 2.005698 1_655
Co4 O7 2.005698 1_555
Co4 O14 2.005714 1_555
Co4 O14 2.005714 1_655
Co4 O10 2.085247 1_565
Co4 O3 2.093906 1_555
