# generated using pymatgen
data_HfCrAgS4
_symmetry_space_group_name_H-M   'P 1'
_cell_length_a   6.61193000
_cell_length_b   7.74782249
_cell_length_c   12.82190960
_cell_angle_alpha   98.28140300
_cell_angle_beta   94.56902137
_cell_angle_gamma   90.14697001
_symmetry_Int_Tables_number   1
_chemical_formula_structural   HfCrAgS4
_chemical_formula_sum   'Hf4 Cr4 Ag4 S16'
_cell_volume   647.86116178
_cell_formula_units_Z   4
loop_
 _symmetry_equiv_pos_site_id
 _symmetry_equiv_pos_as_xyz
  1  'x, y, z'
loop_
 _atom_site_type_symbol
 _atom_site_label
 _atom_site_symmetry_multiplicity
 _atom_site_fract_x
 _atom_site_fract_y
 _atom_site_fract_z
 _atom_site_occupancy
  Hf  Hf0  1  0.85568500  0.29641700  0.69621400  1
  Hf  Hf1  1  0.14431500  0.70358300  0.30378600  1
  Hf  Hf2  1  0.75849700  0.11888200  0.00116700  1
  Hf  Hf3  1  0.24150300  0.88111800  0.99883300  1
  Cr  Cr0  1  0.63875800  0.44442800  0.29640500  1
  Cr  Cr1  1  0.36124200  0.55557200  0.70359500  1
  Cr  Cr2  1  0.63666400  0.95344600  0.29921400  1
  Cr  Cr3  1  0.36333600  0.04655400  0.70078600  1
  Ag  Ag0  1  0.87854100  0.80104200  0.69537900  1
  Ag  Ag1  1  0.12145900  0.19895800  0.30462100  1
  Ag  Ag2  1  0.73500600  0.62624600  0.99960900  1
  Ag  Ag3  1  0.26499400  0.37375400  0.00039100  1
  S  S0  1  0.87729900  0.33528600  0.88406600  1
  S  S1  1  0.12270100  0.66471400  0.11593400  1
  S  S2  1  0.90575600  0.85916700  0.89559900  1
  S  S3  1  0.09424400  0.14083300  0.10440100  1
  S  S4  1  0.77145500  0.21822400  0.36359500  1
  S  S5  1  0.22854500  0.78177600  0.63640500  1
  S  S6  1  0.79723600  0.71259000  0.36125300  1
  S  S7  1  0.20276400  0.28741000  0.63874700  1
  S  S8  1  0.66745900  0.03748300  0.62404500  1
  S  S9  1  0.33254100  0.96251700  0.37595500  1
  S  S10  1  0.66651700  0.52971400  0.63202000  1
  S  S11  1  0.33348300  0.47028600  0.36798000  1
  S  S12  1  0.58474700  0.92411800  0.11531500  1
  S  S13  1  0.41525300  0.07588200  0.88468500  1
  S  S14  1  0.62488300  0.39115500  0.12133800  1
  S  S15  1  0.37511700  0.60884500  0.87866200  1
loop_
_geom_bond_atom_site_label_1
_geom_bond_atom_site_label_2
_geom_bond_distance
_geom_bond_site_symmetry_2
Hf0 S0 2.376669 1_555
Hf0 S8 2.387218 1_555
Hf0 S10 2.405258 1_555
Hf0 S7 2.463656 1_655
Hf1 S1 2.376669 1_555
Hf1 S9 2.387218 1_555
Hf1 S11 2.405258 1_555
Hf1 S6 2.463656 1_455
Hf2 S3 2.484788 1_655
Hf2 S2 2.502932 1_544
Hf2 S0 2.566892 1_554
Hf2 S12 2.575691 1_545
Hf2 S13 2.608642 1_554
Hf2 S14 2.625792 1_555
Hf3 S2 2.484788 1_455
Hf3 S3 2.502932 1_566
Hf3 S1 2.566892 1_556
Hf3 S13 2.575691 1_565
Hf3 S12 2.608642 1_556
Hf3 S15 2.625792 1_555
Cr0 S4 2.214942 1_555
Cr0 S14 2.217550 1_555
Cr0 S11 2.280518 1_555
Cr0 S6 2.336327 1_555
Cr1 S5 2.214942 1_555
Cr1 S15 2.217550 1_555
Cr1 S10 2.280518 1_555
Cr1 S7 2.336327 1_555
Cr2 S4 2.251611 1_565
Cr2 S9 2.304917 1_555
Cr2 S12 2.333588 1_555
Cr2 S6 2.354896 1_555
Cr3 S5 2.251611 1_545
Cr3 S8 2.304917 1_555
Cr3 S13 2.333588 1_555
Cr3 S7 2.354896 1_555
Ag0 S5 2.489506 1_655
Ag0 S10 2.521107 1_555
Ag0 S2 2.533508 1_555
Ag0 S8 2.536278 1_565
Ag1 S4 2.489506 1_455
Ag1 S11 2.521107 1_555
Ag1 S3 2.533508 1_555
Ag1 S9 2.536278 1_545
Ag2 S2 2.689335 1_555
Ag2 S14 2.697615 1_556
Ag2 S0 2.726302 1_555
Ag2 S15 2.726828 1_555
Ag2 S12 2.788283 1_556
Ag2 S1 2.853664 1_656
Ag3 S3 2.689335 1_555
Ag3 S15 2.697615 1_554
Ag3 S1 2.726302 1_555
Ag3 S14 2.726828 1_555
Ag3 S13 2.788283 1_554
Ag3 S0 2.853664 1_454
