# generated using pymatgen
data_Nd2Mn5Co12
_symmetry_space_group_name_H-M   'P 1'
_cell_length_a   8.38702000
_cell_length_b   8.38701967
_cell_length_c   8.23468200
_cell_angle_alpha   90.00000000
_cell_angle_beta   90.00000000
_cell_angle_gamma   120.00000130
_symmetry_Int_Tables_number   1
_chemical_formula_structural   Nd2Mn5Co12
_chemical_formula_sum   'Nd4 Mn10 Co24'
_cell_volume   501.64073878
_cell_formula_units_Z   2
loop_
 _symmetry_equiv_pos_site_id
 _symmetry_equiv_pos_as_xyz
  1  'x, y, z'
loop_
 _atom_site_type_symbol
 _atom_site_label
 _atom_site_symmetry_multiplicity
 _atom_site_fract_x
 _atom_site_fract_y
 _atom_site_fract_z
 _atom_site_occupancy
  Nd  Nd0  1  0.00000000  0.00000000  0.25000000  1
  Nd  Nd1  1  0.00000000  0.00000000  0.75000000  1
  Nd  Nd2  1  0.33333300  0.66666700  0.75000000  1
  Nd  Nd3  1  0.66666700  0.33333300  0.25000000  1
  Mn  Mn0  1  0.33333300  0.66666700  0.38452300  1
  Mn  Mn1  1  0.66666700  0.33333300  0.61547700  1
  Mn  Mn2  1  0.66666700  0.33333300  0.88452300  1
  Mn  Mn3  1  0.33333300  0.66666700  0.11547700  1
  Mn  Mn4  1  0.50000000  0.00000000  0.00000000  1
  Mn  Mn5  1  0.00000000  0.50000000  0.00000000  1
  Mn  Mn6  1  0.50000000  0.50000000  0.00000000  1
  Mn  Mn7  1  0.50000000  0.00000000  0.50000000  1
  Mn  Mn8  1  0.00000000  0.50000000  0.50000000  1
  Mn  Mn9  1  0.50000000  0.50000000  0.50000000  1
  Co  Co0  1  0.33014000  0.37681100  0.25000000  1
  Co  Co1  1  0.62318900  0.95332800  0.25000000  1
  Co  Co2  1  0.04667200  0.66986000  0.25000000  1
  Co  Co3  1  0.62318900  0.66986000  0.25000000  1
  Co  Co4  1  0.04667200  0.37681100  0.25000000  1
  Co  Co5  1  0.33014000  0.95332800  0.25000000  1
  Co  Co6  1  0.66986000  0.62318900  0.75000000  1
  Co  Co7  1  0.37681100  0.04667200  0.75000000  1
  Co  Co8  1  0.95332800  0.33014000  0.75000000  1
  Co  Co9  1  0.37681100  0.33014000  0.75000000  1
  Co  Co10  1  0.95332800  0.62318900  0.75000000  1
  Co  Co11  1  0.66986000  0.04667200  0.75000000  1
  Co  Co12  1  0.16621900  0.83378100  0.51172200  1
  Co  Co13  1  0.16621900  0.33243800  0.51172200  1
  Co  Co14  1  0.66756200  0.83378100  0.51172200  1
  Co  Co15  1  0.83378100  0.16621900  0.48827800  1
  Co  Co16  1  0.83378100  0.66756200  0.48827800  1
  Co  Co17  1  0.33243800  0.16621900  0.48827800  1
  Co  Co18  1  0.83378100  0.16621900  0.01172200  1
  Co  Co19  1  0.83378100  0.66756200  0.01172200  1
  Co  Co20  1  0.33243800  0.16621900  0.01172200  1
  Co  Co21  1  0.16621900  0.83378100  0.98827800  1
  Co  Co22  1  0.16621900  0.33243800  0.98827800  1
  Co  Co23  1  0.66756200  0.83378100  0.98827800  1
loop_
_geom_bond_atom_site_label_1
_geom_bond_atom_site_label_2
_geom_bond_distance
_geom_bond_site_symmetry_2
Mn0 Mn3 2.215508 1_555
Mn0 Mn7 2.601167 1_565
Mn0 Mn8 2.601167 1_555
Mn0 Mn9 2.601174 1_555
Mn0 Nd2 3.009587 1_555
Mn1 Mn2 2.215508 1_555
Mn1 Mn7 2.601167 1_555
Mn1 Mn8 2.601167 1_655
Mn1 Mn9 2.601174 1_555
Mn1 Nd3 3.009587 1_555
Mn2 Mn4 2.601167 1_556
Mn2 Mn5 2.601167 1_656
Mn2 Mn6 2.601174 1_556
Mn2 Nd3 3.009587 1_556
Mn3 Mn4 2.601167 1_565
Mn3 Mn5 2.601167 1_555
Mn3 Mn6 2.601174 1_555
Mn3 Nd2 3.009587 1_554
Mn4 Nd3 3.178042 1_555
Mn4 Nd2 3.178042 1_544
Mn5 Nd3 3.178043 1_455
Mn5 Nd2 3.178043 1_554
Mn6 Nd3 3.178048 1_555
Mn6 Nd2 3.178048 1_554
Mn7 Nd2 3.178042 1_545
Mn7 Nd3 3.178042 1_555
Mn8 Nd2 3.178043 1_555
Mn8 Nd3 3.178043 1_455
Mn9 Nd2 3.178048 1_555
Mn9 Nd3 3.178048 1_555
Co0 Co4 2.377452 1_555
Co0 Mn9 2.421413 1_555
Co0 Mn6 2.421413 1_555
Co0 Co3 2.457808 1_555
Co0 Co22 2.482304 1_554
Co0 Co13 2.482304 1_555
Co0 Co20 2.646511 1_555
Co0 Co17 2.646511 1_555
Co0 Mn0 2.659442 1_555
Co0 Mn3 2.659442 1_555
Co0 Nd0 2.983924 1_555
Co0 Nd3 3.021333 1_555
Co1 Co3 2.377452 1_555
Co1 Mn4 2.421416 1_565
Co1 Mn7 2.421416 1_565
Co1 Co5 2.457808 1_555
Co1 Co14 2.482300 1_555
Co1 Co23 2.482300 1_554
Co1 Co18 2.646514 1_565
Co1 Co15 2.646514 1_565
Co1 Mn0 2.659434 1_555
Co1 Mn3 2.659434 1_555
Co1 Nd0 2.983921 1_665
Co1 Nd3 3.021333 1_565
Co2 Co5 2.377452 1_555
Co2 Mn5 2.421412 1_555
Co2 Mn8 2.421412 1_555
Co2 Co4 2.457808 1_555
Co2 Co21 2.482302 1_554
Co2 Mn0 2.659427 1_555
Co2 Mn3 2.659427 1_555
Co2 Nd0 2.983929 1_565
Co2 Nd3 3.021333 1_455
Co3 Mn9 2.421413 1_555
Co3 Mn6 2.421413 1_555
Co3 Mn0 2.659442 1_555
Co3 Mn3 2.659442 1_555
Co3 Nd0 2.983924 1_665
Co3 Nd3 3.021333 1_555
Co4 Mn5 2.421416 1_555
Co4 Mn8 2.421416 1_555
Co4 Mn0 2.659434 1_555
Co4 Mn3 2.659434 1_555
Co4 Nd0 2.983921 1_555
Co4 Nd3 3.021333 1_455
Co5 Mn4 2.421412 1_565
Co5 Mn7 2.421412 1_565
Co5 Mn0 2.659427 1_555
Co5 Mn3 2.659427 1_555
Co5 Nd0 2.983929 1_565
Co5 Nd3 3.021333 1_565
Co6 Mn6 2.421413 1_556
Co6 Mn9 2.421413 1_555
Co6 Co9 2.457808 1_555
Co6 Mn2 2.659442 1_555
Co6 Mn1 2.659442 1_555
Co6 Nd1 2.983924 1_665
Co6 Nd2 3.021333 1_555
Co7 Co9 2.377452 1_555
Co7 Mn7 2.421416 1_555
Co7 Mn4 2.421416 1_556
Co7 Mn2 2.659434 1_555
Co7 Mn1 2.659434 1_555
Co7 Nd1 2.983921 1_555
Co7 Nd2 3.021333 1_545
Co8 Mn5 2.421412 1_656
Co8 Mn8 2.421412 1_655
Co8 Mn2 2.659427 1_555
Co8 Mn1 2.659427 1_555
Co8 Nd1 2.983929 1_655
Co8 Nd2 3.021333 1_655
Co9 Mn6 2.421413 1_556
Co9 Mn9 2.421413 1_555
Co9 Mn2 2.659442 1_555
Co9 Mn1 2.659442 1_555
Co9 Nd1 2.983924 1_555
Co9 Nd2 3.021333 1_555
Co10 Co6 2.377452 1_555
Co10 Mn8 2.421416 1_655
Co10 Mn5 2.421416 1_656
Co10 Co8 2.457808 1_555
Co10 Co19 2.482300 1_556
Co10 Co16 2.482300 1_555
Co10 Co12 2.646514 1_655
Co10 Co21 2.646514 1_655
Co10 Mn2 2.659434 1_555
Co10 Mn1 2.659434 1_555
Co10 Nd1 2.983921 1_665
Co10 Nd2 3.021333 1_655
Co11 Co8 2.377452 1_555
Co11 Mn4 2.421412 1_556
Co11 Mn7 2.421412 1_555
Co11 Co7 2.457808 1_555
Co11 Co15 2.482302 1_555
Co11 Co18 2.482302 1_556
Co11 Co14 2.646517 1_545
Co11 Co23 2.646517 1_545
Co11 Mn2 2.659427 1_555
Co11 Mn1 2.659427 1_555
Co11 Nd1 2.983929 1_655
Co11 Nd2 3.021333 1_545
Co12 Co17 2.422326 1_565
Co12 Co16 2.422326 1_455
Co12 Mn8 2.426303 1_555
Co12 Mn7 2.426303 1_565
Co12 Co2 2.482302 1_555
Co12 Co5 2.482302 1_555
Co12 Mn0 2.643953 1_555
Co12 Co7 2.646514 1_565
Co12 Nd1 3.111334 1_565
Co12 Nd2 3.121435 1_555
Co12 Nd0 3.236552 1_565
Co13 Co15 2.422326 1_455
Co13 Co17 2.422326 1_555
Co13 Mn8 2.426303 1_555
Co13 Mn9 2.426303 1_555
Co13 Co4 2.482300 1_555
Co13 Mn0 2.643960 1_555
Co13 Co9 2.646511 1_555
Co13 Co8 2.646517 1_455
Co13 Nd1 3.111334 1_555
Co13 Nd2 3.121441 1_555
Co13 Nd0 3.236552 1_555
Co14 Co15 2.422326 1_565
Co14 Co16 2.422326 1_555
Co14 Mn9 2.426303 1_555
Co14 Mn7 2.426303 1_565
Co14 Co3 2.482304 1_555
Co14 Mn0 2.643960 1_555
Co14 Co6 2.646511 1_555
Co14 Nd1 3.111334 1_665
Co14 Nd2 3.121441 1_555
Co14 Nd0 3.236552 1_665
Co15 Mn8 2.426303 1_655
Co15 Mn7 2.426303 1_555
Co15 Co8 2.482302 1_555
Co15 Mn1 2.643953 1_555
Co15 Co4 2.646514 1_655
Co15 Nd0 3.111334 1_655
Co15 Nd3 3.121435 1_555
Co15 Nd1 3.236552 1_655
Co16 Mn8 2.426303 1_655
Co16 Mn9 2.426303 1_555
Co16 Co6 2.482304 1_555
Co16 Mn1 2.643960 1_555
Co16 Co3 2.646511 1_555
Co16 Co2 2.646517 1_655
Co16 Nd0 3.111334 1_665
Co16 Nd3 3.121441 1_555
Co16 Nd1 3.236552 1_665
Co17 Mn9 2.426303 1_555
Co17 Mn7 2.426303 1_555
Co17 Co7 2.482300 1_555
Co17 Co9 2.482304 1_555
Co17 Mn1 2.643960 1_555
Co17 Co5 2.646517 1_545
Co17 Nd0 3.111334 1_555
Co17 Nd3 3.121441 1_555
Co17 Nd1 3.236552 1_555
Co18 Co23 2.422326 1_544
Co18 Co22 2.422326 1_654
Co18 Mn5 2.426303 1_655
Co18 Mn4 2.426303 1_555
Co18 Co8 2.482302 1_554
Co18 Mn2 2.643953 1_554
Co18 Co4 2.646514 1_655
Co18 Nd0 3.111334 1_655
Co18 Nd3 3.121435 1_555
Co18 Nd1 3.236552 1_654
Co19 Co21 2.422326 1_654
Co19 Co23 2.422326 1_554
Co19 Mn5 2.426303 1_655
Co19 Mn6 2.426303 1_555
Co19 Co6 2.482304 1_554
Co19 Mn2 2.643960 1_554
Co19 Co3 2.646511 1_555
Co19 Co2 2.646517 1_655
Co19 Nd0 3.111334 1_665
Co19 Nd3 3.121441 1_555
Co19 Nd1 3.236552 1_664
Co20 Co21 2.422326 1_544
Co20 Co22 2.422326 1_554
Co20 Mn6 2.426303 1_555
Co20 Mn4 2.426303 1_555
Co20 Co7 2.482300 1_554
Co20 Co9 2.482304 1_554
Co20 Mn2 2.643960 1_554
Co20 Co5 2.646517 1_545
Co20 Nd0 3.111334 1_555
Co20 Nd3 3.121441 1_555
Co20 Nd1 3.236552 1_554
Co21 Mn5 2.426303 1_556
Co21 Mn4 2.426303 1_566
Co21 Co5 2.482302 1_556
Co21 Mn3 2.643953 1_556
Co21 Co7 2.646514 1_565
Co21 Nd1 3.111334 1_565
Co21 Nd2 3.121435 1_555
Co21 Nd0 3.236552 1_566
Co22 Mn5 2.426303 1_556
Co22 Mn6 2.426303 1_556
Co22 Co4 2.482300 1_556
Co22 Mn3 2.643960 1_556
Co22 Co9 2.646511 1_555
Co22 Co8 2.646517 1_455
Co22 Nd1 3.111334 1_555
Co22 Nd2 3.121441 1_555
Co22 Nd0 3.236552 1_556
Co23 Mn6 2.426303 1_556
Co23 Mn4 2.426303 1_566
Co23 Co3 2.482304 1_556
Co23 Mn3 2.643960 1_556
Co23 Co6 2.646511 1_555
Co23 Nd1 3.111334 1_665
Co23 Nd2 3.121441 1_555
Co23 Nd0 3.236552 1_666
