# generated using pymatgen
data_Mg(NiO2)2
_symmetry_space_group_name_H-M   'P 1'
_cell_length_a   5.83532173
_cell_length_b   5.83532173
_cell_length_c   19.44126559
_cell_angle_alpha   80.40051171
_cell_angle_beta   80.40051171
_cell_angle_gamma   60.45523850
_symmetry_Int_Tables_number   1
_chemical_formula_structural   Mg(NiO2)2
_chemical_formula_sum   'Mg8 Ni16 O32'
_cell_volume   565.08737174
_cell_formula_units_Z   8
loop_
 _symmetry_equiv_pos_site_id
 _symmetry_equiv_pos_as_xyz
  1  'x, y, z'
loop_
 _atom_site_type_symbol
 _atom_site_label
 _atom_site_symmetry_multiplicity
 _atom_site_fract_x
 _atom_site_fract_y
 _atom_site_fract_z
 _atom_site_occupancy
  Mg  Mg0  1  0.64766700  0.64766700  0.02705300  1
  Mg  Mg1  1  0.12536000  0.12536000  0.12519900  1
  Mg  Mg2  1  0.89542600  0.89542600  0.28211600  1
  Mg  Mg3  1  0.37357900  0.37357900  0.37506900  1
  Mg  Mg4  1  0.62503900  0.62503900  0.62531100  1
  Mg  Mg5  1  0.50044800  0.50044800  0.49915800  1
  Mg  Mg6  1  0.87703400  0.87703400  0.87488500  1
  Mg  Mg7  1  0.74832800  0.74832800  0.75007100  1
  Ni  Ni0  1  0.62755100  0.12365900  0.12482600  1
  Ni  Ni1  1  0.25019500  0.25019500  0.25058600  1
  Ni  Ni2  1  0.12365900  0.62755100  0.12482600  1
  Ni  Ni3  1  0.14963900  0.14963900  0.53448400  1
  Ni  Ni4  1  0.87631900  0.36982700  0.37448100  1
  Ni  Ni5  1  0.60122600  0.60122600  0.21971000  1
  Ni  Ni6  1  0.39875300  0.39875300  0.78166300  1
  Ni  Ni7  1  0.36982700  0.87631900  0.37448100  1
  Ni  Ni8  1  0.12343500  0.62582000  0.62548300  1
  Ni  Ni9  1  0.84940600  0.84940600  0.46710000  1
  Ni  Ni10  1  0.62582000  0.12343500  0.62548300  1
  Ni  Ni11  1  0.87875600  0.37395900  0.87467200  1
  Ni  Ni12  1  0.37395900  0.87875600  0.87467200  1
  Ni  Ni13  1  0.10203700  0.10203700  0.71605300  1
  Ni  Ni14  1  0.99886700  0.99886700  0.00174600  1
  Ni  Ni15  1  0.35255400  0.35255400  0.96915500  1
  O  O0  1  0.26816500  0.82342300  0.06296300  1
  O  O1  1  0.93113100  0.93113100  0.17760000  1
  O  O2  1  0.82342300  0.26816500  0.06296300  1
  O  O3  1  0.82309200  0.82309200  0.06010600  1
  O  O4  1  0.43719800  0.43719800  0.18567600  1
  O  O5  1  0.51597300  0.07070300  0.31427100  1
  O  O6  1  0.43303500  0.97482400  0.18682400  1
  O  O7  1  0.18090400  0.18090400  0.43491800  1
  O  O8  1  0.07070300  0.51597300  0.31427100  1
  O  O9  1  0.31969600  0.31969600  0.07287500  1
  O  O10  1  0.06825600  0.06825600  0.31803700  1
  O  O11  1  0.97482400  0.43303500  0.18682400  1
  O  O12  1  0.78788200  0.30996900  0.56680000  1
  O  O13  1  0.68545400  0.68545400  0.42937400  1
  O  O14  1  0.68824400  0.21434300  0.43156600  1
  O  O15  1  0.43266300  0.43266300  0.68287900  1
  O  O16  1  0.30996900  0.78788200  0.56680000  1
  O  O17  1  0.56815300  0.56815300  0.31877200  1
  O  O18  1  0.31481300  0.31481300  0.56735300  1
  O  O19  1  0.21434300  0.68824400  0.43156600  1
  O  O20  1  0.93119000  0.93119000  0.68087700  1
  O  O21  1  0.04339600  0.56209200  0.81671800  1
  O  O22  1  0.93892500  0.46747400  0.68261300  1
  O  O23  1  0.68201200  0.68201200  0.92446500  1
  O  O24  1  0.56209200  0.04339600  0.81671800  1
  O  O25  1  0.82006400  0.82006400  0.56716100  1
  O  O26  1  0.55794500  0.55794500  0.81339900  1
  O  O27  1  0.46747400  0.93892500  0.68261300  1
  O  O28  1  0.17088700  0.17088700  0.94469600  1
  O  O29  1  0.17879400  0.73264200  0.93904000  1
  O  O30  1  0.07172100  0.07172100  0.82193200  1
  O  O31  1  0.73264200  0.17879400  0.93904000  1
loop_
_geom_bond_atom_site_label_1
_geom_bond_atom_site_label_2
_geom_bond_distance
_geom_bond_site_symmetry_2
Mg0 O23 1.957323 1_554
Mg0 O0 1.981570 1_555
Mg0 O2 1.981570 1_555
Mg0 O3 1.995218 1_555
Mg1 O1 2.025745 1_445
Mg1 O9 2.026211 1_555
Mg1 O0 2.046810 1_545
Mg1 O2 2.046810 1_455
Mg1 O6 2.059475 1_545
Mg1 O11 2.059475 1_455
Mg2 O5 1.964140 1_565
Mg2 O8 1.964140 1_655
Mg2 O1 1.993979 1_555
Mg2 O10 1.998697 1_665
Mg3 O19 2.022617 1_555
Mg3 O14 2.022617 1_555
Mg3 O8 2.032740 1_555
Mg3 O5 2.032740 1_555
Mg3 O17 2.053926 1_555
Mg3 O7 2.063023 1_555
Mg4 O27 2.029618 1_555
Mg4 O22 2.029618 1_555
Mg4 O15 2.043939 1_555
Mg4 O16 2.047240 1_555
Mg4 O12 2.047240 1_555
Mg4 O25 2.070595 1_555
Mg5 O19 2.040116 1_555
Mg5 O14 2.040116 1_555
Mg5 O16 2.046359 1_555
Mg5 O12 2.046359 1_555
Mg5 O18 2.074562 1_555
Mg5 O13 2.084219 1_555
Mg6 O23 2.016130 1_555
Mg6 O30 2.033171 1_665
Mg6 O24 2.041127 1_565
Mg6 O21 2.041127 1_655
Mg6 O29 2.070030 1_655
Mg6 O31 2.070030 1_565
Mg7 O27 2.018811 1_555
Mg7 O22 2.018811 1_555
Mg7 O20 2.062102 1_555
Mg7 O24 2.062423 1_565
Mg7 O21 2.062423 1_655
Mg7 O26 2.070994 1_555
Ni0 O2 1.902029 1_555
Ni0 O6 1.913696 1_545
Ni0 O1 1.926654 1_545
Ni0 O9 1.936229 1_555
Ni0 O3 2.060300 1_545
Ni0 O4 2.064007 1_555
Ni1 O8 1.908187 1_555
Ni1 O5 1.908187 1_555
Ni1 O11 1.946663 1_455
Ni1 O6 1.946663 1_545
Ni1 O10 2.038832 1_555
Ni1 O4 2.056649 1_555
Ni2 O0 1.902029 1_555
Ni2 O11 1.913696 1_455
Ni2 O1 1.926654 1_455
Ni2 O9 1.936229 1_555
Ni2 O3 2.060300 1_455
Ni2 O4 2.064007 1_555
Ni3 O16 1.879411 1_545
Ni3 O12 1.879411 1_455
Ni3 O18 1.895612 1_555
Ni3 O7 1.900190 1_555
Ni4 O14 1.870634 1_555
Ni4 O8 1.887414 1_655
Ni4 O10 1.961052 1_655
Ni4 O17 1.981201 1_555
Ni4 O13 2.001909 1_555
Ni4 O7 2.021632 1_655
Ni5 O17 1.890067 1_555
Ni5 O4 1.896326 1_555
Ni5 O11 1.938812 1_555
Ni5 O6 1.938812 1_555
Ni6 O26 1.827526 1_555
Ni6 O24 1.862518 1_555
Ni6 O21 1.862518 1_555
Ni6 O15 1.884596 1_555
Ni7 O19 1.870634 1_555
Ni7 O5 1.887414 1_565
Ni7 O10 1.961052 1_565
Ni7 O17 1.981201 1_555
Ni7 O13 2.001909 1_555
Ni7 O7 2.021632 1_565
Ni8 O22 1.867250 1_455
Ni8 O16 1.903120 1_555
Ni8 O20 1.964485 1_455
Ni8 O25 1.991525 1_455
Ni8 O15 2.004456 1_555
Ni8 O18 2.020461 1_555
Ni9 O19 1.909845 1_655
Ni9 O14 1.909845 1_565
Ni9 O25 1.910395 1_555
Ni9 O13 1.933718 1_555
Ni10 O27 1.867250 1_545
Ni10 O12 1.903120 1_555
Ni10 O20 1.964485 1_545
Ni10 O25 1.991525 1_545
Ni10 O15 2.004456 1_555
Ni10 O18 2.020461 1_555
Ni11 O23 1.913348 1_555
Ni11 O21 1.914223 1_655
Ni11 O30 1.920740 1_655
Ni11 O31 1.927791 1_555
Ni11 O28 2.099336 1_655
Ni11 O26 2.100302 1_555
Ni12 O23 1.913348 1_555
Ni12 O24 1.914223 1_565
Ni12 O30 1.920740 1_565
Ni12 O29 1.927791 1_555
Ni12 O28 2.099336 1_565
Ni12 O26 2.100302 1_555
Ni13 O22 1.902164 1_455
Ni13 O27 1.902164 1_545
Ni13 O20 1.972422 1_445
Ni13 O30 2.021795 1_555
Ni14 O28 1.869871 1_664
Ni14 O2 1.888052 1_565
Ni14 O0 1.888052 1_655
Ni14 O29 1.896861 1_654
Ni14 O31 1.896861 1_564
Ni14 O3 1.911209 1_555
Ni15 O31 1.958866 1_555
Ni15 O29 1.958866 1_555
Ni15 O9 1.979381 1_556
Ni15 O28 1.979445 1_555
