# generated using pymatgen
data_NaSi34
_symmetry_space_group_name_H-M   'P 1'
_cell_length_a   10.40935004
_cell_length_b   10.40935004
_cell_length_c   10.40935004
_cell_angle_alpha   60.00000000
_cell_angle_beta   60.00000000
_cell_angle_gamma   60.00000000
_symmetry_Int_Tables_number   1
_chemical_formula_structural   NaSi34
_chemical_formula_sum   'Na1 Si34'
_cell_volume   797.54618322
_cell_formula_units_Z   1
loop_
 _symmetry_equiv_pos_site_id
 _symmetry_equiv_pos_as_xyz
  1  'x, y, z'
loop_
 _atom_site_type_symbol
 _atom_site_label
 _atom_site_symmetry_multiplicity
 _atom_site_fract_x
 _atom_site_fract_y
 _atom_site_fract_z
 _atom_site_occupancy
  Na  Na0  1  0.75000000  0.75000000  0.75000000  1
  Si  Si0  1  0.00000000  0.00000000  0.00000000  1
  Si  Si1  1  0.25000000  0.25000000  0.25000000  1
  Si  Si2  1  0.36110000  0.75435300  0.75435300  1
  Si  Si3  1  0.75435300  0.36110000  0.13019400  1
  Si  Si4  1  0.75435300  0.13019400  0.36110000  1
  Si  Si5  1  0.13019400  0.75435300  0.75435300  1
  Si  Si6  1  0.75435300  0.75435300  0.36110000  1
  Si  Si7  1  0.36110000  0.13019400  0.75435300  1
  Si  Si8  1  0.13019400  0.36110000  0.75435300  1
  Si  Si9  1  0.75435300  0.75435300  0.13019400  1
  Si  Si10  1  0.75435300  0.36110000  0.75435300  1
  Si  Si11  1  0.13019400  0.75435300  0.36110000  1
  Si  Si12  1  0.36110000  0.75435300  0.13019400  1
  Si  Si13  1  0.75435300  0.13019400  0.75435300  1
  Si  Si14  1  0.88912700  0.49574600  0.49574600  1
  Si  Si15  1  0.49574600  0.88912700  0.11938200  1
  Si  Si16  1  0.49574600  0.11938200  0.88912700  1
  Si  Si17  1  0.11938200  0.49574600  0.49574600  1
  Si  Si18  1  0.49574600  0.49574600  0.88912700  1
  Si  Si19  1  0.88912700  0.11938200  0.49574600  1
  Si  Si20  1  0.11938200  0.88912700  0.49574600  1
  Si  Si21  1  0.49574600  0.49574600  0.11938200  1
  Si  Si22  1  0.49574600  0.88912700  0.49574600  1
  Si  Si23  1  0.11938200  0.49574600  0.88912700  1
  Si  Si24  1  0.88912700  0.49574600  0.11938200  1
  Si  Si25  1  0.49574600  0.11938200  0.49574600  1
  Si  Si26  1  0.27684500  0.90771800  0.90771800  1
  Si  Si27  1  0.90771800  0.27684500  0.90771800  1
  Si  Si28  1  0.90771800  0.90771800  0.27684500  1
  Si  Si29  1  0.90771800  0.90771800  0.90771800  1
  Si  Si30  1  0.97349600  0.34216800  0.34216800  1
  Si  Si31  1  0.34216800  0.97349600  0.34216800  1
  Si  Si32  1  0.34216800  0.34216800  0.97349600  1
  Si  Si33  1  0.34216800  0.34216800  0.34216800  1
loop_
_geom_bond_atom_site_label_1
_geom_bond_atom_site_label_2
_geom_bond_distance
_geom_bond_site_symmetry_2
Si0 Si26 2.352961 1_544
Si0 Si28 2.352961 1_445
Si0 Si27 2.352961 1_454
Si0 Si29 2.352969 1_444
Si1 Si32 2.350062 1_554
Si1 Si31 2.350062 1_545
Si1 Si30 2.350062 1_455
Si1 Si33 2.350062 1_555
Si2 Si22 2.365559 1_555
Si2 Si26 2.369536 1_555
Si2 Si5 2.403581 1_555
Si3 Si4 2.403581 1_555
Si6 Si9 2.403581 1_555
Si7 Si8 2.403581 1_555
Si10 Si18 2.365559 1_555
Si10 Si14 2.365559 1_555
Si10 Si27 2.369536 1_555
Si10 Si13 2.403581 1_555
Si11 Si17 2.365555 1_555
Si11 Si20 2.365564 1_555
Si11 Si28 2.369544 1_455
Si11 Si12 2.403581 1_555
Si12 Si21 2.365555 1_555
Si12 Si15 2.365564 1_555
Si12 Si26 2.369544 1_554
Si13 Si16 2.365555 1_555
Si13 Si19 2.365555 1_555
Si13 Si29 2.369539 1_545
Si14 Si6 2.365559 1_555
Si14 Si30 2.372836 1_555
Si14 Si17 2.396805 1_655
Si15 Si9 2.365555 1_555
Si15 Si31 2.372828 1_555
Si15 Si16 2.396805 1_564
Si16 Si7 2.365564 1_555
Si16 Si32 2.372828 1_555
Si17 Si8 2.365555 1_555
Si17 Si33 2.372833 1_555
Si18 Si2 2.365559 1_555
Si18 Si32 2.372836 1_555
Si18 Si21 2.396805 1_556
Si19 Si4 2.365564 1_555
Si19 Si30 2.372828 1_555
Si19 Si20 2.396805 1_645
Si20 Si5 2.365555 1_555
Si20 Si31 2.372828 1_555
Si21 Si3 2.365555 1_555
Si21 Si33 2.372833 1_555
Si22 Si6 2.365559 1_555
Si22 Si31 2.372836 1_555
Si22 Si25 2.396805 1_565
Si23 Si5 2.365555 1_555
Si23 Si8 2.365564 1_555
Si23 Si32 2.372828 1_555
Si23 Si24 2.396805 1_456
Si24 Si9 2.365555 1_555
Si24 Si3 2.365564 1_555
Si24 Si30 2.372828 1_555
Si25 Si4 2.365555 1_555
Si25 Si7 2.365555 1_555
Si25 Si33 2.372833 1_555
Si26 Si7 2.369544 1_565
Si27 Si8 2.369544 1_655
Si27 Si3 2.369544 1_556
Si28 Si6 2.369536 1_555
Si28 Si4 2.369544 1_565
Si29 Si5 2.369539 1_655
Si29 Si9 2.369539 1_556
