# generated using pymatgen
data_Nb5V(FeSe10)2
_symmetry_space_group_name_H-M   'P 1'
_cell_length_a   6.95951200
_cell_length_b   10.26404887
_cell_length_c   10.83946043
_cell_angle_alpha   62.39543966
_cell_angle_beta   71.93003183
_cell_angle_gamma   70.43494674
_symmetry_Int_Tables_number   1
_chemical_formula_structural   Nb5V(FeSe10)2
_chemical_formula_sum   'Nb5 V1 Fe2 Se20'
_cell_volume   635.29739002
_cell_formula_units_Z   1
loop_
 _symmetry_equiv_pos_site_id
 _symmetry_equiv_pos_as_xyz
  1  'x, y, z'
loop_
 _atom_site_type_symbol
 _atom_site_label
 _atom_site_symmetry_multiplicity
 _atom_site_fract_x
 _atom_site_fract_y
 _atom_site_fract_z
 _atom_site_occupancy
  Nb  Nb0  1  0.08583200  0.71650000  0.36345000  1
  Nb  Nb1  1  0.58114700  0.71988600  0.36488400  1
  Nb  Nb2  1  0.41284700  0.28285200  0.63470200  1
  Nb  Nb3  1  0.92328400  0.27974100  0.63212200  1
  Nb  Nb4  1  0.48611900  0.44845100  0.91328800  1
  V  V0  1  0.00851900  0.55185100  0.09291500  1
  Fe  Fe0  1  0.56305700  0.55303000  0.10222300  1
  Fe  Fe1  1  0.93283300  0.44868800  0.89978500  1
  Se  Se0  1  0.21292700  0.73152700  0.09206000  1
  Se  Se1  1  0.69376900  0.75409900  0.08712700  1
  Se  Se2  1  0.28077500  0.26455000  0.90856100  1
  Se  Se3  1  0.81557200  0.24214100  0.91103300  1
  Se  Se4  1  0.27732400  0.94702900  0.24392100  1
  Se  Se5  1  0.78359600  0.94365700  0.24071700  1
  Se  Se6  1  0.22544300  0.05043600  0.75391300  1
  Se  Se7  1  0.71711600  0.05762900  0.75789900  1
  Se  Se8  1  0.44003700  0.51401900  0.35870600  1
  Se  Se9  1  0.93394000  0.51153100  0.36204500  1
  Se  Se10  1  0.06059000  0.48661400  0.63995700  1
  Se  Se11  1  0.56841600  0.48843100  0.63245600  1
  Se  Se12  1  0.21265500  0.82991900  0.49581000  1
  Se  Se13  1  0.71640800  0.83180500  0.49200800  1
  Se  Se14  1  0.28971000  0.16793600  0.50209100  1
  Se  Se15  1  0.78407800  0.16742500  0.50659200  1
  Se  Se16  1  0.36232500  0.36437900  0.17034500  1
  Se  Se17  1  0.86284400  0.34535400  0.15300000  1
  Se  Se18  1  0.12715600  0.63629400  0.84100500  1
  Se  Se19  1  0.64168100  0.66422900  0.84738800  1
loop_
_geom_bond_atom_site_label_1
_geom_bond_atom_site_label_2
_geom_bond_distance
_geom_bond_site_symmetry_2
Nb0 Se8 2.643429 1_555
Nb0 Se9 2.659486 1_455
Nb0 Se5 2.684608 1_455
Nb0 Se12 2.685928 1_555
Nb0 Se13 2.687099 1_455
Nb0 Se4 2.693177 1_555
Nb0 Se0 2.741643 1_555
Nb0 Se10 2.824643 1_555
Nb1 Se8 2.644912 1_555
Nb1 Se9 2.664611 1_555
Nb1 Se13 2.664656 1_555
Nb1 Se12 2.674710 1_555
Nb1 Se5 2.682920 1_555
Nb1 Se4 2.685310 1_555
Nb1 Se1 2.746418 1_555
Nb1 Se11 2.767624 1_555
Nb2 Se10 2.641428 1_555
Nb2 Se11 2.662955 1_555
Nb2 Se14 2.684073 1_555
Nb2 Se7 2.688144 1_555
Nb2 Se6 2.691310 1_555
Nb2 Se15 2.693667 1_555
Nb2 Se2 2.756493 1_555
Nb2 Se8 2.826092 1_555
Nb3 Se10 2.646773 1_655
Nb3 Se14 2.667569 1_655
Nb3 Se15 2.671796 1_555
Nb3 Se11 2.673240 1_555
Nb3 Se7 2.685459 1_555
Nb3 Se6 2.689277 1_655
Nb3 Se3 2.749084 1_555
Nb3 Se9 2.786539 1_555
Nb4 Se16 2.455842 1_556
Nb4 Se19 2.499506 1_555
Nb4 Se3 2.550134 1_555
Nb4 Se18 2.675928 1_555
Nb4 Se2 2.747649 1_555
Nb4 Se11 2.771458 1_555
Fe0 Se19 2.406480 1_554
Fe0 Se17 2.417870 1_555
Fe0 Se1 2.442459 1_555
Fe0 Se16 2.468387 1_555
Fe0 Se0 2.509159 1_555
Fe0 Se8 2.518704 1_555
Fe1 Se17 2.390492 1_556
Fe1 Se19 2.422782 1_555
Fe1 Se18 2.452643 1_655
Fe1 Se3 2.456168 1_555
Fe1 Se2 2.521091 1_655
Fe1 Se10 2.556657 1_655
Se0 V0 2.675445 1_555
Se1 V0 2.455723 1_655
Se9 V0 2.652657 1_655
Se12 Se4 2.379227 1_555
Se13 Se5 2.372230 1_555
Se14 Se6 2.378750 1_555
Se15 Se7 2.372096 1_555
Se16 V0 2.661222 1_555
Se17 V0 2.386329 1_655
Se18 V0 2.403405 1_556
