# generated using pymatgen
data_BaIn2Rh
_symmetry_space_group_name_H-M   'P 1'
_cell_length_a   4.51029818
_cell_length_b   6.32845122
_cell_length_c   8.01276433
_cell_angle_alpha   90.00000000
_cell_angle_beta   90.00000000
_cell_angle_gamma   110.87625358
_symmetry_Int_Tables_number   1
_chemical_formula_structural   BaIn2Rh
_chemical_formula_sum   'Ba2 In4 Rh2'
_cell_volume   213.69565619
_cell_formula_units_Z   2
loop_
 _symmetry_equiv_pos_site_id
 _symmetry_equiv_pos_as_xyz
  1  'x, y, z'
loop_
 _atom_site_type_symbol
 _atom_site_label
 _atom_site_symmetry_multiplicity
 _atom_site_fract_x
 _atom_site_fract_y
 _atom_site_fract_z
 _atom_site_occupancy
  Ba  Ba0  1  0.95128596  0.90256992  0.25000000  1
  Ba  Ba1  1  0.04871404  0.09743008  0.75000000  1
  In  In0  1  0.32958866  0.65917832  0.55609583  1
  In  In1  1  0.67041134  0.34082168  0.44390417  1
  In  In2  1  0.32958866  0.65917832  0.94390417  1
  In  In3  1  0.67041134  0.34082168  0.05609583  1
  Rh  Rh0  1  0.78327186  0.56654472  0.75000000  1
  Rh  Rh1  1  0.21672814  0.43345528  0.25000000  1
loop_
_geom_bond_atom_site_label_1
_geom_bond_atom_site_label_2
_geom_bond_distance
_geom_bond_site_symmetry_2
Ba0 Rh1 3.139127 1_665
Ba0 Rh1 3.574923 1_655
Ba0 Rh1 3.574926 1_555
Ba0 In0 3.629394 1_655
Ba0 In2 3.629394 1_654
Ba0 In0 3.629402 1_555
Ba0 In2 3.629402 1_554
Ba0 In1 3.667037 1_555
Ba0 In3 3.667037 1_555
Ba0 In1 3.770274 1_665
Ba0 In3 3.770274 1_665
Ba0 In3 3.770277 1_565
Ba0 In1 3.770277 1_565
Ba1 Rh0 3.139127 1_445
Ba1 Rh0 3.574923 1_455
Ba1 Rh0 3.574926 1_555
Ba1 In1 3.629394 1_455
Ba1 In3 3.629394 1_456
Ba1 In3 3.629402 1_556
Ba1 In1 3.629402 1_555
Ba1 In0 3.667037 1_555
Ba1 In2 3.667037 1_555
Ba1 In0 3.770274 1_445
Ba1 In2 3.770274 1_445
Ba1 In2 3.770277 1_545
Ba1 In0 3.770277 1_545
In0 Rh1 2.792317 1_555
In0 Rh0 2.792800 1_555
In0 Rh0 2.792800 1_455
In0 In1 3.072037 1_455
In0 In1 3.072043 1_555
In0 In2 3.107417 1_555
In1 Rh0 2.792317 1_555
In1 Rh1 2.792800 1_555
In1 Rh1 2.792800 1_655
In1 In3 3.107417 1_555
In2 Rh1 2.792317 1_556
In2 Rh0 2.792800 1_555
In2 Rh0 2.792800 1_455
In2 In3 3.072037 1_456
In2 In3 3.072043 1_556
In3 Rh0 2.792317 1_554
In3 Rh1 2.792800 1_555
In3 Rh1 2.792800 1_655
