# generated using pymatgen
data_Ba(AlSe2)2
_symmetry_space_group_name_H-M   'P 1'
_cell_length_a   6.53384553
_cell_length_b   6.53384553
_cell_length_c   11.55117180
_cell_angle_alpha   90.00000000
_cell_angle_beta   90.00000000
_cell_angle_gamma   123.28966450
_symmetry_Int_Tables_number   1
_chemical_formula_structural   Ba(AlSe2)2
_chemical_formula_sum   'Ba2 Al4 Se8'
_cell_volume   412.21274074
_cell_formula_units_Z   2
loop_
 _symmetry_equiv_pos_site_id
 _symmetry_equiv_pos_as_xyz
  1  'x, y, z'
loop_
 _atom_site_type_symbol
 _atom_site_label
 _atom_site_symmetry_multiplicity
 _atom_site_fract_x
 _atom_site_fract_y
 _atom_site_fract_z
 _atom_site_occupancy
  Ba  Ba0  1  -0.00000000  0.00000000  0.75000000  1
  Ba  Ba1  1  -0.00000000  0.00000000  0.25000000  1
  Al  Al0  1  0.74370690  0.25715464  0.50000000  1
  Al  Al1  1  0.25715464  0.74370690  0.00000000  1
  Al  Al2  1  0.25629310  0.74284536  0.50000000  1
  Al  Al3  1  0.74284536  0.25629310  0.00000000  1
  Se  Se0  1  -0.00000000  0.50000000  0.65852718  1
  Se  Se1  1  0.50000000  0.00000000  0.84147282  1
  Se  Se2  1  -0.00000000  0.50000000  0.34147282  1
  Se  Se3  1  0.50000000  0.00000000  0.15852718  1
  Se  Se4  1  0.85148851  0.66918410  0.00000000  1
  Se  Se5  1  0.66918410  0.85148851  0.50000000  1
  Se  Se6  1  0.33081590  0.14851149  0.50000000  1
  Se  Se7  1  0.14851149  0.33081590  0.00000000  1
loop_
_geom_bond_atom_site_label_1
_geom_bond_atom_site_label_2
_geom_bond_distance
_geom_bond_site_symmetry_2
Ba0 Se7 3.413296 1_556
Ba0 Se6 3.413296 1_555
Ba0 Se5 3.413296 1_445
Ba0 Se4 3.413296 1_446
Ba0 Se1 3.433544 1_555
Ba0 Se1 3.433544 1_455
Ba0 Se0 3.433544 1_555
Ba0 Se0 3.433544 1_545
Ba1 Se7 3.413296 1_555
Ba1 Se6 3.413296 1_555
Ba1 Se5 3.413296 1_445
Ba1 Se4 3.413296 1_445
Ba1 Se2 3.433544 1_545
Ba1 Se3 3.433544 1_455
Ba1 Se2 3.433544 1_555
Ba1 Se3 3.433544 1_555
Al0 Se6 2.383197 1_555
Al0 Se0 2.399643 1_655
Al0 Se2 2.399643 1_655
Al0 Se5 2.417808 1_545
Al1 Se7 2.383197 1_555
Al1 Se1 2.399643 1_564
Al1 Se3 2.399643 1_565
Al1 Se4 2.417808 1_455
Al2 Se5 2.383197 1_555
Al2 Se2 2.399643 1_555
Al2 Se0 2.399643 1_555
Al2 Se6 2.417808 1_565
Al3 Se4 2.383197 1_555
Al3 Se3 2.399643 1_555
Al3 Se1 2.399643 1_554
Al3 Se7 2.417808 1_655
