# generated using pymatgen
data_CsNd(MoO4)2
_symmetry_space_group_name_H-M   'P 1'
_cell_length_a   5.16498800
_cell_length_b   8.53845700
_cell_length_c   9.72117500
_cell_angle_alpha   90.00000000
_cell_angle_beta   90.00000000
_cell_angle_gamma   90.00000000
_symmetry_Int_Tables_number   1
_chemical_formula_structural   CsNd(MoO4)2
_chemical_formula_sum   'Cs2 Nd2 Mo4 O16'
_cell_volume   428.71381032
_cell_formula_units_Z   2
loop_
 _symmetry_equiv_pos_site_id
 _symmetry_equiv_pos_as_xyz
  1  'x, y, z'
loop_
 _atom_site_type_symbol
 _atom_site_label
 _atom_site_symmetry_multiplicity
 _atom_site_fract_x
 _atom_site_fract_y
 _atom_site_fract_z
 _atom_site_occupancy
  Cs  Cs0  1  0.00000000  0.25000000  0.50000000  1
  Cs  Cs1  1  0.00000000  0.75000000  0.50000000  1
  Nd  Nd0  1  0.00000000  0.25000000  0.00000000  1
  Nd  Nd1  1  0.00000000  0.75000000  0.00000000  1
  Mo  Mo0  1  0.52119700  0.00000000  0.19899000  1
  Mo  Mo1  1  0.47880300  0.00000000  0.80101000  1
  Mo  Mo2  1  0.47880300  0.50000000  0.19899000  1
  Mo  Mo3  1  0.52119700  0.50000000  0.80101000  1
  O  O0  1  0.25403300  0.00000000  0.07112400  1
  O  O1  1  0.74596700  0.00000000  0.92887600  1
  O  O2  1  0.74596700  0.50000000  0.07112400  1
  O  O3  1  0.25403300  0.50000000  0.92887600  1
  O  O4  1  0.26554700  0.33235400  0.18803200  1
  O  O5  1  0.73445300  0.66764600  0.81196800  1
  O  O6  1  0.73445300  0.33235400  0.81196800  1
  O  O7  1  0.73445300  0.16764600  0.18803200  1
  O  O8  1  0.26554700  0.66764600  0.18803200  1
  O  O9  1  0.26554700  0.83235400  0.81196800  1
  O  O10  1  0.26554700  0.16764600  0.81196800  1
  O  O11  1  0.73445300  0.83235400  0.18803200  1
  O  O12  1  0.37646300  0.00000000  0.36175800  1
  O  O13  1  0.62353700  0.00000000  0.63824200  1
  O  O14  1  0.62353700  0.50000000  0.36175800  1
  O  O15  1  0.37646300  0.50000000  0.63824200  1
loop_
_geom_bond_atom_site_label_1
_geom_bond_atom_site_label_2
_geom_bond_distance
_geom_bond_site_symmetry_2
Cs0 O15 3.184866 1_555
Cs0 O13 3.184866 1_455
Cs0 O12 3.184866 1_555
Cs0 O14 3.184866 1_455
Cs0 O10 3.401888 1_555
Cs0 O6 3.401888 1_455
Cs0 O4 3.401888 1_555
Cs0 O7 3.401888 1_455
Cs1 O15 3.184866 1_555
Cs1 O13 3.184866 1_465
Cs1 O12 3.184866 1_565
Cs1 O14 3.184866 1_455
Cs1 O9 3.401888 1_555
Cs1 O5 3.401888 1_455
Cs1 O11 3.401888 1_455
Cs1 O8 3.401888 1_555
Nd0 O4 2.390980 1_555
Nd0 O7 2.390980 1_455
Nd0 O10 2.390980 1_554
Nd0 O6 2.390980 1_454
Nd0 O0 2.599264 1_555
Nd0 O2 2.599264 1_455
Nd0 O3 2.599264 1_554
Nd0 O1 2.599264 1_454
Nd1 O8 2.390980 1_555
Nd1 O11 2.390980 1_455
Nd1 O9 2.390980 1_554
Nd1 O5 2.390980 1_454
Nd1 O0 2.599264 1_565
Nd1 O2 2.599264 1_455
Nd1 O3 2.599264 1_554
Nd1 O1 2.599264 1_464
Mo0 O12 1.749998 1_555
Mo0 O7 1.809306 1_555
Mo0 O11 1.809306 1_545
Mo0 O0 1.857199 1_555
Mo1 O13 1.749998 1_555
Mo1 O10 1.809306 1_555
Mo1 O9 1.809306 1_545
Mo1 O1 1.857199 1_555
Mo2 O14 1.749998 1_555
Mo2 O8 1.809306 1_555
Mo2 O4 1.809306 1_555
Mo2 O2 1.857199 1_555
Mo3 O15 1.749998 1_555
Mo3 O5 1.809306 1_555
Mo3 O6 1.809306 1_555
Mo3 O3 1.857199 1_555
