# generated using pymatgen
data_LuFeB4
_symmetry_space_group_name_H-M   'P 1'
_cell_length_a   3.32248800
_cell_length_b   5.82829100
_cell_length_c   11.27657300
_cell_angle_alpha   90.00000000
_cell_angle_beta   90.00000000
_cell_angle_gamma   90.00000000
_symmetry_Int_Tables_number   1
_chemical_formula_structural   LuFeB4
_chemical_formula_sum   'Lu4 Fe4 B16'
_cell_volume   218.36437363
_cell_formula_units_Z   4
loop_
 _symmetry_equiv_pos_site_id
 _symmetry_equiv_pos_as_xyz
  1  'x, y, z'
loop_
 _atom_site_type_symbol
 _atom_site_label
 _atom_site_symmetry_multiplicity
 _atom_site_fract_x
 _atom_site_fract_y
 _atom_site_fract_z
 _atom_site_occupancy
  Lu  Lu0  1  0.00000000  0.62772700  0.34962300  1
  Lu  Lu1  1  0.00000000  0.37227300  0.65037700  1
  Lu  Lu2  1  0.00000000  0.12772700  0.15037700  1
  Lu  Lu3  1  0.00000000  0.87227300  0.84962300  1
  Fe  Fe0  1  0.00000000  0.63544800  0.08897100  1
  Fe  Fe1  1  0.00000000  0.36455200  0.91102900  1
  Fe  Fe2  1  0.00000000  0.13544800  0.41102900  1
  Fe  Fe3  1  0.00000000  0.86455200  0.58897100  1
  B  B0  1  0.50000000  0.78536200  0.18463000  1
  B  B1  1  0.50000000  0.21463800  0.81537000  1
  B  B2  1  0.50000000  0.28536200  0.31537000  1
  B  B3  1  0.50000000  0.71463800  0.68463000  1
  B  B4  1  0.50000000  0.86304000  0.03188100  1
  B  B5  1  0.50000000  0.13696000  0.96811900  1
  B  B6  1  0.50000000  0.36304000  0.46811900  1
  B  B7  1  0.50000000  0.63696000  0.53188100  1
  B  B8  1  0.50000000  0.88750300  0.45367400  1
  B  B9  1  0.50000000  0.11249700  0.54632600  1
  B  B10  1  0.50000000  0.38750300  0.04632600  1
  B  B11  1  0.50000000  0.61249700  0.95367400  1
  B  B12  1  0.50000000  0.97657200  0.30891200  1
  B  B13  1  0.50000000  0.02342800  0.69108800  1
  B  B14  1  0.50000000  0.47657200  0.19108800  1
  B  B15  1  0.50000000  0.52342800  0.80891200  1
loop_
_geom_bond_atom_site_label_1
_geom_bond_atom_site_label_2
_geom_bond_distance
_geom_bond_site_symmetry_2
B0 B4 1.780988 1_555
B0 B12 1.790553 1_555
B0 B14 1.801191 1_555
B0 Fe0 2.164893 1_555
B0 Fe0 2.164893 1_655
B0 Lu2 2.624987 1_565
B0 Lu2 2.624987 1_665
B0 Lu0 2.658098 1_555
B0 Lu0 2.658098 1_655
B1 B5 1.780988 1_555
B1 B13 1.790553 1_555
B1 B15 1.801191 1_555
B1 Fe1 2.164893 1_555
B1 Fe1 2.164893 1_655
B1 Lu3 2.624987 1_645
B1 Lu3 2.624987 1_545
B1 Lu1 2.658098 1_555
B1 Lu1 2.658098 1_655
B2 B6 1.780988 1_555
B2 Fe2 2.164893 1_655
B2 Fe2 2.164893 1_555
B2 Lu0 2.624987 1_555
B2 Lu0 2.624987 1_655
B2 Lu2 2.658098 1_555
B2 Lu2 2.658098 1_655
B3 B7 1.780988 1_555
B3 Fe3 2.164893 1_555
B3 Fe3 2.164893 1_655
B3 Lu1 2.624987 1_555
B3 Lu1 2.624987 1_655
B3 Lu3 2.658098 1_655
B3 Lu3 2.658098 1_555
B4 B5 1.750929 1_564
B4 Fe0 2.221196 1_655
B4 Fe0 2.221196 1_555
B4 Lu2 2.631554 1_665
B4 Lu2 2.631554 1_565
B4 Lu3 2.643229 1_654
B4 Lu3 2.643229 1_554
B5 Fe1 2.221196 1_555
B5 Fe1 2.221196 1_655
B5 Lu3 2.631554 1_545
B5 Lu3 2.631554 1_645
B5 Lu2 2.643229 1_656
B5 Lu2 2.643229 1_556
B6 B9 1.705888 1_555
B6 B7 1.750929 1_555
B6 Fe2 2.221196 1_555
B6 Fe2 2.221196 1_655
B6 Lu0 2.631554 1_555
B6 Lu0 2.631554 1_655
B6 Lu1 2.643229 1_555
B6 Lu1 2.643229 1_655
B7 B8 1.705888 1_555
B7 Fe3 2.221196 1_555
B7 Fe3 2.221196 1_655
B7 Lu1 2.631554 1_655
B7 Lu1 2.631554 1_555
B7 Lu0 2.643229 1_555
B7 Lu0 2.643229 1_655
B8 B9 1.676660 1_565
B8 Fe2 2.253727 1_565
B8 Fe2 2.253727 1_665
B8 Fe3 2.259501 1_555
B8 Fe3 2.259501 1_655
B8 Lu0 2.535508 1_555
B8 Lu0 2.535508 1_655
B9 Fe3 2.253727 1_645
B9 Fe3 2.253727 1_545
B9 Fe2 2.259501 1_555
B9 Fe2 2.259501 1_655
B9 Lu1 2.535508 1_555
B9 Lu1 2.535508 1_655
B10 B11 1.676660 1_554
B10 B5 1.705888 1_554
B10 B14 1.712974 1_555
B10 Fe0 2.253727 1_655
B10 Fe0 2.253727 1_555
B10 Fe1 2.259501 1_654
B10 Fe1 2.259501 1_554
B10 Lu2 2.535508 1_555
B10 Lu2 2.535508 1_655
B11 B4 1.705888 1_556
B11 B15 1.712974 1_555
B11 Fe1 2.253727 1_555
B11 Fe1 2.253727 1_655
B11 Fe0 2.259501 1_656
B11 Fe0 2.259501 1_556
B11 Lu3 2.535508 1_555
B11 Lu3 2.535508 1_655
B12 B8 1.712974 1_555
B12 B2 1.801191 1_565
B12 Fe2 2.223327 1_565
B12 Fe2 2.223327 1_665
B12 Lu2 2.594578 1_565
B12 Lu2 2.594578 1_665
B12 Lu0 2.665383 1_555
B12 Lu0 2.665383 1_655
B13 B9 1.712974 1_555
B13 B3 1.801191 1_545
B13 Fe3 2.223327 1_645
B13 Fe3 2.223327 1_545
B13 Lu3 2.594578 1_545
B13 Lu3 2.594578 1_645
B13 Lu1 2.665383 1_555
B13 Lu1 2.665383 1_655
B14 B2 1.790553 1_555
B14 Fe0 2.223327 1_555
B14 Fe0 2.223327 1_655
B14 Lu0 2.594578 1_555
B14 Lu0 2.594578 1_655
B14 Lu2 2.665383 1_555
B14 Lu2 2.665383 1_655
B15 B3 1.790553 1_555
B15 Fe1 2.223327 1_555
B15 Fe1 2.223327 1_655
B15 Lu1 2.594578 1_655
B15 Lu1 2.594578 1_555
B15 Lu3 2.665383 1_555
B15 Lu3 2.665383 1_655
