# generated using pymatgen
data_NdAg(WO4)2
_symmetry_space_group_name_H-M   'P 1'
_cell_length_a   7.55678405
_cell_length_b   7.55678405
_cell_length_c   7.44080705
_cell_angle_alpha   65.32607236
_cell_angle_beta   65.32607236
_cell_angle_gamma   93.77175955
_symmetry_Int_Tables_number   1
_chemical_formula_structural   NdAg(WO4)2
_chemical_formula_sum   'Nd2 Ag2 W4 O16'
_cell_volume   335.70633417
_cell_formula_units_Z   2
loop_
 _symmetry_equiv_pos_site_id
 _symmetry_equiv_pos_as_xyz
  1  'x, y, z'
loop_
 _atom_site_type_symbol
 _atom_site_label
 _atom_site_symmetry_multiplicity
 _atom_site_fract_x
 _atom_site_fract_y
 _atom_site_fract_z
 _atom_site_occupancy
  Nd  Nd0  1  0.69854700  0.30145300  0.00000000  1
  Nd  Nd1  1  0.30145300  0.69854700  0.00000000  1
  Ag  Ag0  1  0.68784000  0.68784000  0.48593300  1
  Ag  Ag1  1  0.31216000  0.31216000  0.51406700  1
  W  W0  1  0.21115000  0.21115000  0.03105400  1
  W  W1  1  0.78885000  0.78885000  0.96894600  1
  W  W2  1  0.83764800  0.16235200  0.50000000  1
  W  W3  1  0.16235200  0.83764800  0.50000000  1
  O  O0  1  0.34618400  0.09971200  0.24297800  1
  O  O1  1  0.65381600  0.90028800  0.75702200  1
  O  O2  1  0.90028800  0.65381600  0.75702200  1
  O  O3  1  0.09971200  0.34618400  0.24297800  1
  O  O4  1  0.68548600  0.21260000  0.36036500  1
  O  O5  1  0.31451400  0.78740000  0.63963500  1
  O  O6  1  0.78740000  0.31451400  0.63963500  1
  O  O7  1  0.21260000  0.68548600  0.36036500  1
  O  O8  1  0.69809200  0.95161000  0.09009000  1
  O  O9  1  0.30190800  0.04839000  0.90991000  1
  O  O10  1  0.04839000  0.30190800  0.90991000  1
  O  O11  1  0.95161000  0.69809200  0.09009000  1
  O  O12  1  0.97997000  0.97997000  0.34044300  1
  O  O13  1  0.02003000  0.02003000  0.65955700  1
  O  O14  1  0.55922300  0.55922300  0.13594100  1
  O  O15  1  0.44077700  0.44077700  0.86405900  1
loop_
_geom_bond_atom_site_label_1
_geom_bond_atom_site_label_2
_geom_bond_distance
_geom_bond_site_symmetry_2
Nd0 O2 2.414202 1_554
Nd0 O0 2.414202 1_555
Nd0 O4 2.432624 1_555
Nd0 O6 2.432624 1_554
Nd0 O10 2.440437 1_654
Nd0 O8 2.440437 1_545
Nd0 O15 2.636610 1_554
Nd0 O14 2.636610 1_555
Nd1 O1 2.414202 1_554
Nd1 O3 2.414202 1_555
Nd1 O7 2.432624 1_555
Nd1 O5 2.432624 1_554
Nd1 O9 2.440437 1_564
Nd1 O11 2.440437 1_455
Nd1 O15 2.636610 1_554
Nd1 O14 2.636610 1_555
Ag0 O15 2.378554 1_555
Ag0 O12 2.507367 1_555
Ag0 O8 2.746251 1_555
Ag0 O11 2.746251 1_555
Ag0 O6 2.852492 1_555
Ag0 O5 2.852492 1_555
Ag1 O14 2.378554 1_555
Ag1 O13 2.507367 1_555
Ag1 O9 2.746251 1_555
Ag1 O10 2.746251 1_555
Ag1 O4 2.852492 1_555
Ag1 O7 2.852492 1_555
O0 W3 1.940867 1_545
O0 W0 2.141213 1_555
O1 W2 1.940867 1_565
O1 W1 2.141213 1_555
O2 W3 1.940867 1_655
O2 W1 2.141213 1_555
O3 W2 1.940867 1_455
O3 W0 2.141213 1_555
O4 W2 1.808696 1_555
O5 W3 1.808696 1_555
O6 W2 1.808696 1_555
O7 W3 1.808696 1_555
O8 W1 1.821027 1_554
O9 W0 1.821027 1_556
O10 W0 1.821027 1_556
O11 W1 1.821027 1_554
O12 W0 2.070383 1_665
O12 W3 2.227284 1_655
O12 W2 2.227284 1_565
O13 W1 2.070383 1_445
O13 W3 2.227284 1_545
O13 W2 2.227284 1_455
O14 W1 1.889331 1_554
O15 W0 1.889331 1_556
