# generated using pymatgen
data_SrLaB12
_symmetry_space_group_name_H-M   'P 1'
_cell_length_a   4.16686639
_cell_length_b   4.16686639
_cell_length_c   8.34157370
_cell_angle_alpha   90.00000000
_cell_angle_beta   90.00000000
_cell_angle_gamma   90.00000000
_symmetry_Int_Tables_number   1
_chemical_formula_structural   SrLaB12
_chemical_formula_sum   'Sr1 La1 B12'
_cell_volume   144.83287157
_cell_formula_units_Z   1
loop_
 _symmetry_equiv_pos_site_id
 _symmetry_equiv_pos_as_xyz
  1  'x, y, z'
loop_
 _atom_site_type_symbol
 _atom_site_label
 _atom_site_symmetry_multiplicity
 _atom_site_fract_x
 _atom_site_fract_y
 _atom_site_fract_z
 _atom_site_occupancy
  Sr  Sr0  1  -0.00000000  -0.00000000  0.50000000  1
  La  La0  1  -0.00000000  -0.00000000  -0.00000000  1
  B  B0  1  0.20137147  0.50000000  0.24928251  1
  B  B1  1  0.20137147  0.50000000  0.75071749  1
  B  B2  1  0.50000000  0.50000000  0.39879520  1
  B  B3  1  0.50000000  0.50000000  0.89985568  1
  B  B4  1  0.50000000  0.20137147  0.24928251  1
  B  B5  1  0.50000000  0.20137147  0.75071749  1
  B  B6  1  0.50000000  0.50000000  0.10014432  1
  B  B7  1  0.50000000  0.50000000  0.60120480  1
  B  B8  1  0.50000000  0.79862853  0.24928251  1
  B  B9  1  0.50000000  0.79862853  0.75071749  1
  B  B10  1  0.79862853  0.50000000  0.24928251  1
  B  B11  1  0.79862853  0.50000000  0.75071749  1
loop_
_geom_bond_atom_site_label_1
_geom_bond_atom_site_label_2
_geom_bond_distance
_geom_bond_site_symmetry_2
B0 B10 1.678176 1_455
B0 B6 1.759559 1_555
B0 B4 1.759770 1_555
B0 B8 1.759770 1_555
B0 B2 1.761769 1_555
B0 La0 3.060834 1_565
B0 La0 3.060834 1_555
B0 Sr0 3.068978 1_555
B0 Sr0 3.068978 1_565
B1 B11 1.678176 1_455
B1 B3 1.759559 1_555
B1 B5 1.759770 1_555
B1 B9 1.759770 1_555
B1 B7 1.761769 1_555
B1 La0 3.060834 1_566
B1 La0 3.060834 1_556
B1 Sr0 3.068978 1_555
B1 Sr0 3.068978 1_565
B2 B7 1.688415 1_555
B2 B8 1.761769 1_555
B2 B4 1.761769 1_555
B2 Sr0 3.064975 1_555
B2 Sr0 3.064975 1_565
B2 Sr0 3.064975 1_665
B2 Sr0 3.064975 1_655
B3 B6 1.670722 1_556
B3 B5 1.759559 1_555
B3 B9 1.759559 1_555
B3 La0 3.062551 1_556
B3 La0 3.062551 1_566
B3 La0 3.062551 1_656
B3 La0 3.062551 1_666
B4 B8 1.678176 1_545
B4 B6 1.759559 1_555
B4 La0 3.060834 1_555
B4 La0 3.060834 1_655
B4 Sr0 3.068978 1_555
B4 Sr0 3.068978 1_655
B5 B9 1.678176 1_545
B5 B7 1.761769 1_555
B5 La0 3.060834 1_556
B5 La0 3.060834 1_656
B5 Sr0 3.068978 1_555
B5 Sr0 3.068978 1_655
B6 B8 1.759559 1_555
B6 La0 3.062551 1_555
B6 La0 3.062551 1_565
B6 La0 3.062551 1_655
B6 La0 3.062551 1_665
B7 B9 1.761769 1_555
B7 Sr0 3.064975 1_665
B7 Sr0 3.064975 1_565
B7 Sr0 3.064975 1_655
B7 Sr0 3.064975 1_555
B8 La0 3.060834 1_565
B8 La0 3.060834 1_665
B8 Sr0 3.068978 1_565
B8 Sr0 3.068978 1_665
B9 La0 3.060834 1_566
B9 La0 3.060834 1_666
B9 Sr0 3.068978 1_565
B9 Sr0 3.068978 1_665
B10 B6 1.759559 1_555
B10 B4 1.759770 1_555
B10 B8 1.759770 1_555
B10 B2 1.761769 1_555
B10 La0 3.060834 1_655
B10 La0 3.060834 1_665
B10 Sr0 3.068978 1_665
B10 Sr0 3.068978 1_655
B11 B3 1.759559 1_555
B11 B5 1.759770 1_555
B11 B9 1.759770 1_555
B11 B7 1.761769 1_555
B11 La0 3.060834 1_656
B11 La0 3.060834 1_666
B11 Sr0 3.068978 1_665
B11 Sr0 3.068978 1_655
