# generated using pymatgen
data_Mg17Al11Si
_symmetry_space_group_name_H-M   'P 1'
_cell_length_a   9.11822034
_cell_length_b   9.11822034
_cell_length_c   9.07928668
_cell_angle_alpha   70.56528119
_cell_angle_beta   70.56528119
_cell_angle_gamma   109.47882352
_symmetry_Int_Tables_number   1
_chemical_formula_structural   Mg17Al11Si
_chemical_formula_sum   'Mg17 Al11 Si1'
_cell_volume   581.56729953
_cell_formula_units_Z   1
loop_
 _symmetry_equiv_pos_site_id
 _symmetry_equiv_pos_as_xyz
  1  'x, y, z'
loop_
 _atom_site_type_symbol
 _atom_site_label
 _atom_site_symmetry_multiplicity
 _atom_site_fract_x
 _atom_site_fract_y
 _atom_site_fract_z
 _atom_site_occupancy
  Mg  Mg0  1  0.60392700  0.60392700  0.71640900  1
  Mg  Mg1  1  0.31514000  0.31514000  0.28636600  1
  Mg  Mg2  1  0.00053400  0.00053400  0.99985500  1
  Mg  Mg3  1  0.00105700  0.00105700  0.34297800  1
  Mg  Mg4  1  0.34477200  0.34477200  0.65507300  1
  Mg  Mg5  1  0.39642300  0.68311900  0.00177300  1
  Mg  Mg6  1  0.68578600  0.99934100  0.60305700  1
  Mg  Mg7  1  0.28746200  0.60326000  0.39730900  1
  Mg  Mg8  1  0.65418100  0.99887000  0.00025400  1
  Mg  Mg9  1  0.99881100  0.39637600  0.31725900  1
  Mg  Mg10  1  0.31619300  0.71391800  0.68404800  1
  Mg  Mg11  1  0.71391800  0.31619300  0.68404800  1
  Mg  Mg12  1  0.39637600  0.99881100  0.31725900  1
  Mg  Mg13  1  0.99887000  0.65418100  0.00025400  1
  Mg  Mg14  1  0.60326000  0.28746200  0.39730900  1
  Mg  Mg15  1  0.99934100  0.68578600  0.60305700  1
  Mg  Mg16  1  0.68311900  0.39642300  0.00177300  1
  Al  Al0  1  0.63714900  0.63714900  0.17063700  1
  Al  Al1  1  0.18606500  0.36632400  0.99916400  1
  Al  Al2  1  0.99645000  0.17970000  0.63662400  1
  Al  Al3  1  0.63466200  0.81884500  0.36432800  1
  Al  Al4  1  0.99930300  0.36549000  0.81569500  1
  Al  Al5  1  0.81490900  0.18081400  0.18606300  1
  Al  Al6  1  0.18081400  0.81490900  0.18606300  1
  Al  Al7  1  0.36549000  0.99930300  0.81569500  1
  Al  Al8  1  0.81884500  0.63466200  0.36432800  1
  Al  Al9  1  0.17970000  0.99645000  0.63662400  1
  Al  Al10  1  0.36632400  0.18606500  0.99916400  1
  Si  Si0  1  0.81590300  0.81590300  0.81717000  1
loop_
_geom_bond_atom_site_label_1
_geom_bond_atom_site_label_2
_geom_bond_distance
_geom_bond_site_symmetry_2
Mg0 Si0 2.858422 1_555
Mg0 Mg4 3.083080 1_555
Mg0 Mg16 3.115775 1_556
Mg0 Mg5 3.115775 1_556
Mg0 Mg6 3.136954 1_555
Mg0 Mg15 3.136954 1_555
Mg0 Mg11 3.169749 1_555
Mg0 Mg10 3.169749 1_555
Mg1 Mg3 3.039524 1_555
Mg1 Mg16 3.127559 1_555
Mg1 Mg5 3.127559 1_555
Mg1 Mg9 3.157790 1_455
Mg1 Mg12 3.157790 1_545
Mg1 Mg7 3.164522 1_555
Mg1 Mg14 3.164522 1_555
Mg2 Mg3 3.118489 1_556
Mg2 Mg4 3.139396 1_555
Mg2 Mg8 3.151885 1_446
Mg2 Si0 3.200899 1_445
Mg3 Mg6 3.044377 1_445
Mg4 Mg7 3.044652 1_555
Mg5 Mg8 3.041775 1_555
Mg5 Mg7 3.133196 1_555
Mg5 Mg9 3.157326 1_455
Mg5 Mg6 3.162950 1_554
Mg5 Si0 3.193738 1_554
Mg6 Si0 2.946002 1_555
Mg6 Mg9 3.148778 1_565
Mg7 Mg9 3.144557 1_455
Mg8 Si0 3.094509 1_554
Mg10 Mg13 3.048144 1_456
Mg10 Mg12 3.119139 1_555
Mg10 Mg7 3.144833 1_555
Mg10 Mg6 3.146290 1_555
Mg10 Mg5 3.152441 1_556
Mg10 Mg15 3.162060 1_455
Mg11 Mg8 3.048144 1_546
Mg11 Mg9 3.119139 1_555
Mg11 Mg14 3.144833 1_555
Mg11 Mg15 3.146290 1_555
Mg11 Mg16 3.152441 1_556
Mg11 Mg6 3.162060 1_545
Mg12 Mg8 3.050497 1_555
Mg12 Mg14 3.144557 1_565
Mg12 Mg7 3.147918 1_555
Mg12 Mg15 3.148778 1_455
Mg12 Mg16 3.157326 1_565
Mg13 Mg16 3.041775 1_555
Mg13 Mg9 3.050497 1_555
Mg13 Si0 3.094509 1_554
Mg13 Mg2 3.151885 1_664
Mg14 Mg4 3.044652 1_555
Mg14 Mg16 3.133196 1_555
Mg14 Mg9 3.147918 1_555
Mg14 Mg6 3.153690 1_545
Mg15 Si0 2.946002 1_555
Mg15 Mg3 3.044377 1_665
Mg15 Mg7 3.153690 1_655
Mg15 Mg16 3.162950 1_556
Mg16 Si0 3.193738 1_554
Al0 Si0 2.622757 1_554
Al0 Al3 2.788416 1_555
Al0 Al8 2.788416 1_555
Al0 Mg1 2.913836 1_555
Al0 Mg14 3.008405 1_555
Al0 Mg7 3.008405 1_555
Al0 Mg8 3.065746 1_555
Al0 Mg13 3.065746 1_555
Al0 Mg5 3.125654 1_555
Al0 Mg16 3.125654 1_555
Al0 Mg2 3.194052 1_664
Al1 Al10 2.684181 1_555
Al1 Al4 2.749973 1_455
Al1 Al5 2.764872 1_456
Al1 Mg5 2.899021 1_556
Al1 Mg10 2.972750 1_555
Al1 Mg9 2.981362 1_456
Al1 Mg4 3.079361 1_555
Al1 Mg3 3.084291 1_556
Al1 Mg1 3.162478 1_556
Al1 Mg0 3.175837 1_555
Al1 Mg2 3.194132 1_555
Al2 Si0 2.710087 1_545
Al2 Al4 2.710267 1_555
Al2 Al9 2.728719 1_645
Al2 Mg9 2.903339 1_555
Al2 Mg6 2.936464 1_545
Al2 Mg1 2.987626 1_655
Al2 Mg8 3.073662 1_546
Al2 Mg4 3.116832 1_655
Al2 Mg2 3.175418 1_655
Al2 Mg11 3.182430 1_555
Al2 Mg7 3.228365 1_655
Al3 Al5 2.696558 1_565
Al3 Al8 2.742612 1_555
Al3 Mg10 2.909243 1_555
Al3 Mg7 2.967062 1_555
Al3 Mg0 3.001039 1_555
Al3 Mg8 3.074991 1_555
Al3 Mg3 3.100368 1_665
Al3 Mg12 3.182026 1_555
Al3 Mg2 3.184961 1_664
Al3 Mg6 3.187254 1_555
Al4 Al5 2.747962 1_556
Al4 Mg15 2.916067 1_555
Al4 Mg16 2.977215 1_556
Al4 Mg10 2.987254 1_655
Al4 Mg4 3.099755 1_655
Al4 Mg8 3.103759 1_546
Al4 Mg11 3.170081 1_555
Al4 Mg7 3.179979 1_655
Al4 Mg2 3.194437 1_655
Al5 Mg14 2.894509 1_555
Al5 Mg9 2.963651 1_555
Al5 Mg16 2.972095 1_555
Al5 Mg3 3.083477 1_655
Al5 Mg8 3.103615 1_545
Al5 Mg6 3.165995 1_545
Al5 Mg12 3.189449 1_545
Al5 Mg2 3.197805 1_654
Al6 Al8 2.696558 1_455
Al6 Al7 2.747962 1_554
Al6 Mg7 2.894509 1_555
Al6 Mg12 2.963651 1_555
Al6 Mg5 2.972095 1_555
Al6 Mg3 3.083477 1_565
Al6 Mg13 3.103615 1_455
Al6 Mg15 3.165995 1_455
Al6 Mg9 3.189449 1_455
Al6 Mg2 3.197805 1_564
Al7 Al9 2.710267 1_555
Al7 Mg6 2.916067 1_555
Al7 Mg5 2.977215 1_556
Al7 Mg11 2.987254 1_565
Al7 Mg4 3.099755 1_565
Al7 Mg13 3.103759 1_456
Al7 Mg10 3.170081 1_555
Al7 Mg14 3.179979 1_565
Al7 Mg2 3.194437 1_565
Al8 Mg11 2.909243 1_555
Al8 Mg14 2.967062 1_555
Al8 Mg0 3.001039 1_555
Al8 Mg13 3.074991 1_555
Al8 Mg3 3.100368 1_665
Al8 Mg9 3.182026 1_555
Al8 Mg2 3.184961 1_664
Al8 Mg15 3.187254 1_555
Al9 Si0 2.710087 1_455
Al9 Mg12 2.903339 1_555
Al9 Mg15 2.936464 1_455
Al9 Mg1 2.987626 1_565
Al9 Mg13 3.073662 1_456
Al9 Mg4 3.116832 1_565
Al9 Mg2 3.175418 1_565
Al9 Mg10 3.182430 1_555
Al9 Mg14 3.228365 1_565
Al10 Al7 2.749973 1_545
Al10 Al6 2.764872 1_546
Al10 Mg16 2.899021 1_556
Al10 Mg11 2.972750 1_555
Al10 Mg12 2.981362 1_546
Al10 Mg4 3.079361 1_555
Al10 Mg3 3.084291 1_556
Al10 Mg1 3.162478 1_556
Al10 Mg0 3.175837 1_555
Al10 Mg2 3.194132 1_555
