# generated using pymatgen
data_Ti5Ga3
_symmetry_space_group_name_H-M   'P 1'
_cell_length_a   4.97647800
_cell_length_b   7.67882184
_cell_length_c   7.67882184
_cell_angle_alpha   83.97275885
_cell_angle_beta   71.09263475
_cell_angle_gamma   71.09263475
_symmetry_Int_Tables_number   1
_chemical_formula_structural   Ti5Ga3
_chemical_formula_sum   'Ti10 Ga6'
_cell_volume   262.62355626
_cell_formula_units_Z   2
loop_
 _symmetry_equiv_pos_site_id
 _symmetry_equiv_pos_as_xyz
  1  'x, y, z'
loop_
 _atom_site_type_symbol
 _atom_site_label
 _atom_site_symmetry_multiplicity
 _atom_site_fract_x
 _atom_site_fract_y
 _atom_site_fract_z
 _atom_site_occupancy
  Ti  Ti0  1  0.72274600  0.85460700  0.69990200  1
  Ti  Ti1  1  0.27725400  0.14539300  0.30009800  1
  Ti  Ti2  1  0.77725400  0.30009800  0.14539300  1
  Ti  Ti3  1  0.22274600  0.69990200  0.85460700  1
  Ti  Ti4  1  0.57735200  0.69990200  0.14539300  1
  Ti  Ti5  1  0.42264800  0.30009800  0.85460700  1
  Ti  Ti6  1  0.07735200  0.14539300  0.69990200  1
  Ti  Ti7  1  0.92264800  0.85460700  0.30009800  1
  Ti  Ti8  1  0.75000000  0.50000000  0.50000000  1
  Ti  Ti9  1  0.25000000  0.50000000  0.50000000  1
  Ga  Ga0  1  0.16481100  0.50000000  0.17037800  1
  Ga  Ga1  1  0.83518900  0.50000000  0.82962200  1
  Ga  Ga2  1  0.33518900  0.82962200  0.50000000  1
  Ga  Ga3  1  0.66481100  0.17037800  0.50000000  1
  Ga  Ga4  1  0.25000000  0.00000000  0.00000000  1
  Ga  Ga5  1  0.75000000  0.00000000  0.00000000  1
loop_
_geom_bond_atom_site_label_1
_geom_bond_atom_site_label_2
_geom_bond_distance
_geom_bond_site_symmetry_2
Ti0 Ti7 2.904377 1_555
Ti0 Ti3 2.952530 1_655
Ti0 Ti3 2.952530 1_555
Ti1 Ti6 2.904377 1_555
Ti1 Ti2 2.952530 1_555
Ti1 Ti2 2.952530 1_455
Ti2 Ti4 2.904377 1_555
Ti3 Ti5 2.904377 1_555
Ti4 Ti7 2.952526 1_455
Ti4 Ti7 2.952534 1_555
Ti5 Ti6 2.952526 1_655
Ti5 Ti6 2.952534 1_555
Ti8 Ti9 2.488239 1_655
Ti8 Ti9 2.488239 1_555
Ga0 Ti9 2.698454 1_555
Ga0 Ti8 2.698454 1_455
Ga0 Ti3 2.714943 1_554
Ga0 Ti5 2.714943 1_554
Ga0 Ti7 2.742995 1_455
Ga0 Ti1 2.742995 1_555
Ga0 Ti4 2.886713 1_555
Ga0 Ti2 2.886714 1_555
Ga0 Ti2 2.886718 1_455
Ga0 Ti4 2.886718 1_455
Ga1 Ti8 2.698454 1_555
Ga1 Ti9 2.698454 1_655
Ga1 Ti2 2.714943 1_556
Ga1 Ti4 2.714943 1_556
Ga1 Ti6 2.742995 1_655
Ga1 Ti0 2.742995 1_555
Ga1 Ti5 2.886713 1_555
Ga1 Ti3 2.886714 1_555
Ga1 Ti3 2.886718 1_655
Ga1 Ti5 2.886718 1_655
Ga2 Ti9 2.698454 1_555
Ga2 Ti8 2.698454 1_555
Ga2 Ti1 2.714943 1_565
Ga2 Ti6 2.714943 1_565
Ga2 Ti4 2.742995 1_555
Ga2 Ti3 2.742995 1_555
Ga2 Ti7 2.886713 1_455
Ga2 Ti0 2.886714 1_455
Ga2 Ti0 2.886718 1_555
Ga2 Ti7 2.886718 1_555
Ga3 Ti8 2.698454 1_555
Ga3 Ti9 2.698454 1_555
Ga3 Ti0 2.714943 1_545
Ga3 Ti7 2.714943 1_545
Ga3 Ti5 2.742995 1_555
Ga3 Ti2 2.742995 1_555
Ga3 Ti6 2.886713 1_655
Ga3 Ti1 2.886714 1_655
Ga3 Ti1 2.886718 1_555
Ga3 Ti6 2.886718 1_555
Ga4 Ga5 2.488239 1_455
Ga4 Ga5 2.488239 1_555
Ga4 Ti1 2.723247 1_555
Ga4 Ti3 2.723247 1_544
Ga4 Ti7 2.723247 1_445
Ga4 Ti4 2.723247 1_545
Ga4 Ti5 2.723249 1_554
Ga4 Ti6 2.723249 1_554
Ga4 Ti2 2.723249 1_455
Ga4 Ti0 2.723249 1_544
Ga5 Ti2 2.723247 1_555
Ga5 Ti0 2.723247 1_544
Ga5 Ti5 2.723247 1_554
Ga5 Ti6 2.723247 1_654
Ga5 Ti7 2.723249 1_545
Ga5 Ti4 2.723249 1_545
Ga5 Ti1 2.723249 1_555
Ga5 Ti3 2.723249 1_644
