# generated using pymatgen
data_ZrAlV
_symmetry_space_group_name_H-M   'P 1'
_cell_length_a   5.24193487
_cell_length_b   5.24206147
_cell_length_c   8.76665000
_cell_angle_alpha   90.00000000
_cell_angle_beta   90.00000000
_cell_angle_gamma   60.14892391
_symmetry_Int_Tables_number   1
_chemical_formula_structural   ZrAlV
_chemical_formula_sum   'Zr4 Al4 V4'
_cell_volume   208.93336673
_cell_formula_units_Z   4
loop_
 _symmetry_equiv_pos_site_id
 _symmetry_equiv_pos_as_xyz
  1  'x, y, z'
loop_
 _atom_site_type_symbol
 _atom_site_label
 _atom_site_symmetry_multiplicity
 _atom_site_fract_x
 _atom_site_fract_y
 _atom_site_fract_z
 _atom_site_occupancy
  Zr  Zr0  1  0.33338800  0.33336600  0.56264500  1
  Zr  Zr1  1  0.66935500  0.66936700  0.43553400  1
  Zr  Zr2  1  0.66935500  0.66936700  0.06446600  1
  Zr  Zr3  1  0.33338800  0.33336600  0.93735500  1
  Al  Al0  1  0.99688100  0.99690300  0.49547000  1
  Al  Al1  1  0.99688100  0.99690300  0.00453000  1
  Al  Al2  1  0.83153100  0.34043000  0.75000000  1
  Al  Al3  1  0.34042700  0.83152600  0.75000000  1
  V  V0  1  0.83114200  0.83115100  0.75000000  1
  V  V1  1  0.17816900  0.64627100  0.25000000  1
  V  V2  1  0.64628900  0.17815600  0.25000000  1
  V  V3  1  0.17319500  0.17319400  0.25000000  1
loop_
_geom_bond_atom_site_label_1
_geom_bond_atom_site_label_2
_geom_bond_distance
_geom_bond_site_symmetry_2
Zr0 Zr1 3.218132 1_545
Zr0 Zr1 3.218210 1_455
Zr0 Zr1 3.245542 1_555
Zr0 Zr3 3.284951 1_555
Zr1 Zr2 3.253023 1_555
Zr2 Zr3 3.218132 1_564
Zr2 Zr3 3.218210 1_654
Zr2 Zr3 3.245542 1_554
Al0 V2 2.678210 1_565
Al0 V1 2.678341 1_655
Al0 V3 2.681296 1_665
Al0 V0 2.690775 1_555
Al0 Al2 2.723845 1_565
Al0 Al3 2.723872 1_655
Al0 Zr1 3.017651 1_555
Al0 Zr0 3.073654 1_565
Al0 Zr0 3.073922 1_655
Al0 Zr1 3.102417 1_655
Al0 Zr1 3.102446 1_565
Al0 Zr0 3.109072 1_665
Al1 V2 2.678210 1_565
Al1 V1 2.678341 1_655
Al1 V3 2.681296 1_665
Al1 V0 2.690775 1_554
Al1 Al2 2.723845 1_564
Al1 Al3 2.723872 1_654
Al1 Zr2 3.017651 1_555
Al1 Zr3 3.073654 1_564
Al1 Zr3 3.073922 1_654
Al1 Zr2 3.102417 1_655
Al1 Zr2 3.102446 1_565
Al1 Zr3 3.109072 1_664
Al2 V0 2.571375 1_555
Al2 Al3 2.580138 1_555
Al2 V0 2.670687 1_545
Al2 Al3 2.673655 1_645
Al2 Zr3 3.085889 1_655
Al2 Zr0 3.085889 1_655
Al2 Zr3 3.100628 1_555
Al2 Zr0 3.100628 1_555
Al2 Zr2 3.136351 1_556
Al2 Zr1 3.136351 1_555
Al3 V0 2.571318 1_555
Al3 V0 2.670618 1_455
Al3 Zr3 3.085922 1_565
Al3 Zr0 3.085922 1_565
Al3 Zr3 3.100700 1_555
Al3 Zr0 3.100700 1_555
Al3 Zr2 3.136314 1_556
Al3 Zr1 3.136314 1_555
V0 Zr3 3.098112 1_565
V0 Zr0 3.098112 1_565
V0 Zr3 3.098249 1_655
V0 Zr0 3.098249 1_655
V0 Zr2 3.123219 1_556
V0 Zr1 3.123219 1_555
V1 V2 2.459393 1_555
V1 V3 2.492979 1_555
V1 V3 2.749278 1_565
V1 V2 2.794401 1_465
V1 Zr1 3.074497 1_455
V1 Zr2 3.074497 1_455
V1 Zr0 3.088069 1_555
V1 Zr3 3.088069 1_554
V1 Zr1 3.098377 1_555
V1 Zr2 3.098377 1_555
V2 V3 2.492977 1_555
V2 V3 2.749153 1_655
V2 Zr2 3.074503 1_545
V2 Zr1 3.074503 1_545
V2 Zr0 3.088044 1_555
V2 Zr3 3.088044 1_554
V2 Zr1 3.098468 1_555
V2 Zr2 3.098468 1_555
V3 Zr2 3.089848 1_545
V3 Zr1 3.089848 1_545
V3 Zr1 3.089905 1_455
V3 Zr2 3.089905 1_455
V3 Zr0 3.102297 1_555
V3 Zr3 3.102297 1_554
