# generated using pymatgen
data_NpOs2
_symmetry_space_group_name_H-M   'P 1'
_cell_length_a   5.29024767
_cell_length_b   5.29024767
_cell_length_c   5.29024767
_cell_angle_alpha   60.00000000
_cell_angle_beta   60.00000000
_cell_angle_gamma   60.00000000
_symmetry_Int_Tables_number   1
_chemical_formula_structural   NpOs2
_chemical_formula_sum   'Np2 Os4'
_cell_volume   104.69188402
_cell_formula_units_Z   2
loop_
 _symmetry_equiv_pos_site_id
 _symmetry_equiv_pos_as_xyz
  1  'x, y, z'
loop_
 _atom_site_type_symbol
 _atom_site_label
 _atom_site_symmetry_multiplicity
 _atom_site_fract_x
 _atom_site_fract_y
 _atom_site_fract_z
 _atom_site_occupancy
  Np  Np0  1  0.25000000  0.25000000  0.25000000  1
  Np  Np1  1  0.50000000  0.50000000  0.50000000  1
  Os  Os0  1  0.37500000  0.87500000  0.87500000  1
  Os  Os1  1  0.87500000  0.37500000  0.87500000  1
  Os  Os2  1  0.87500000  0.87500000  0.87500000  1
  Os  Os3  1  0.87500000  0.87500000  0.37500000  1
loop_
_geom_bond_atom_site_label_1
_geom_bond_atom_site_label_2
_geom_bond_distance
_geom_bond_site_symmetry_2
Np0 Os2 3.101683 1_445
Np0 Os1 3.101683 1_554
Np0 Os0 3.101683 1_544
Np0 Os0 3.101683 1_545
Np0 Os3 3.101683 1_545
Np0 Os0 3.101683 1_554
Np0 Os2 3.101683 1_454
Np0 Os3 3.101683 1_455
Np0 Os1 3.101683 1_455
Np0 Os2 3.101683 1_544
Np0 Os3 3.101683 1_445
Np0 Os1 3.101683 1_454
Np0 Np1 3.239602 1_455
Np0 Np1 3.239602 1_554
Np0 Np1 3.239602 1_545
Np0 Np1 3.239602 1_555
Np1 Os1 3.101683 1_554
Np1 Os3 3.101683 1_455
Np1 Os0 3.101683 1_545
Np1 Os2 3.101683 1_455
Np1 Os0 3.101683 1_555
Np1 Os2 3.101683 1_545
Np1 Os2 3.101683 1_554
Np1 Os3 3.101683 1_545
Np1 Os1 3.101683 1_455
Np1 Os0 3.101683 1_554
Np1 Os3 3.101683 1_555
Np1 Os1 3.101683 1_555
Os0 Os3 2.645124 1_456
Os0 Os2 2.645124 1_555
Os0 Os1 2.645124 1_465
Os0 Os3 2.645124 1_555
Os0 Os2 2.645124 1_455
Os0 Os1 2.645124 1_555
Os1 Os2 2.645124 1_555
Os1 Os2 2.645124 1_545
Os1 Os3 2.645124 1_546
Os1 Os3 2.645124 1_555
Os2 Os3 2.645124 1_555
Os2 Os3 2.645124 1_556
