# generated using pymatgen
data_Tc4N3
_symmetry_space_group_name_H-M   'P 1'
_cell_length_a   10.91723389
_cell_length_b   10.91723389
_cell_length_c   10.91723425
_cell_angle_alpha   14.77610045
_cell_angle_beta   14.77610045
_cell_angle_gamma   14.77610410
_symmetry_Int_Tables_number   1
_chemical_formula_structural   Tc4N3
_chemical_formula_sum   'Tc4 N3'
_cell_volume   73.70444272
_cell_formula_units_Z   1
loop_
 _symmetry_equiv_pos_site_id
 _symmetry_equiv_pos_as_xyz
  1  'x, y, z'
loop_
 _atom_site_type_symbol
 _atom_site_label
 _atom_site_symmetry_multiplicity
 _atom_site_fract_x
 _atom_site_fract_y
 _atom_site_fract_z
 _atom_site_occupancy
  Tc  Tc0  1  0.62080100  0.62080100  0.62080100  1
  Tc  Tc1  1  0.37919900  0.37919900  0.37919900  1
  Tc  Tc2  1  0.86565700  0.86565700  0.86565700  1
  Tc  Tc3  1  0.13434300  0.13434300  0.13434300  1
  N  N0  1  0.75718100  0.75718100  0.75718100  1
  N  N1  1  0.00000000  0.00000000  0.00000000  1
  N  N2  1  0.24281900  0.24281900  0.24281900  1
loop_
_geom_bond_atom_site_label_1
_geom_bond_atom_site_label_2
_geom_bond_distance
_geom_bond_site_symmetry_2
N0 Tc3 2.154714 1_665
N0 Tc3 2.154714 1_656
N0 Tc3 2.154714 1_566
N0 Tc1 2.172303 1_556
N0 Tc1 2.172303 1_655
N0 Tc1 2.172303 1_565
N1 Tc1 2.198739 1_554
N1 Tc0 2.198739 1_445
N1 Tc1 2.198740 1_545
N1 Tc1 2.198740 1_455
N1 Tc0 2.198740 1_454
N1 Tc0 2.198740 1_544
N2 Tc2 2.154714 1_445
N2 Tc2 2.154714 1_544
N2 Tc2 2.154714 1_454
N2 Tc0 2.172303 1_554
N2 Tc0 2.172303 1_455
N2 Tc0 2.172303 1_545
