# generated using pymatgen
data_Cr7C3
_symmetry_space_group_name_H-M   'P 1'
_cell_length_a   13.93797934
_cell_length_b   13.93797934
_cell_length_c   4.47658100
_cell_angle_alpha   90.00000000
_cell_angle_beta   90.00000000
_cell_angle_gamma   119.99999689
_symmetry_Int_Tables_number   1
_chemical_formula_structural   Cr7C3
_chemical_formula_sum   'Cr56 C24'
_cell_volume   753.14175416
_cell_formula_units_Z   8
loop_
 _symmetry_equiv_pos_site_id
 _symmetry_equiv_pos_as_xyz
  1  'x, y, z'
loop_
 _atom_site_type_symbol
 _atom_site_label
 _atom_site_symmetry_multiplicity
 _atom_site_fract_x
 _atom_site_fract_y
 _atom_site_fract_z
 _atom_site_occupancy
  Cr  Cr0  1  0.33333300  0.66666700  0.78198300  1
  Cr  Cr1  1  0.66666700  0.33333300  0.28198300  1
  Cr  Cr2  1  0.06129200  0.93870800  0.05607900  1
  Cr  Cr3  1  0.87741700  0.93870800  0.05607900  1
  Cr  Cr4  1  0.06129200  0.12258300  0.05607900  1
  Cr  Cr5  1  0.93870800  0.06129200  0.55607900  1
  Cr  Cr6  1  0.12258300  0.06129200  0.55607900  1
  Cr  Cr7  1  0.93870800  0.87741700  0.55607900  1
  Cr  Cr8  1  0.16679700  0.33359400  0.25822100  1
  Cr  Cr9  1  0.16679700  0.83320300  0.25822100  1
  Cr  Cr10  1  0.66640600  0.83320300  0.25822100  1
  Cr  Cr11  1  0.83320300  0.66640600  0.75822100  1
  Cr  Cr12  1  0.83320300  0.16679700  0.75822100  1
  Cr  Cr13  1  0.33359400  0.16679700  0.75822100  1
  Cr  Cr14  1  0.22756800  0.45513600  0.74902200  1
  Cr  Cr15  1  0.22756800  0.77243200  0.74902200  1
  Cr  Cr16  1  0.54486400  0.77243200  0.74902200  1
  Cr  Cr17  1  0.77243200  0.54486400  0.24902200  1
  Cr  Cr18  1  0.77243200  0.22756800  0.24902200  1
  Cr  Cr19  1  0.45513600  0.22756800  0.24902200  1
  Cr  Cr20  1  0.27294300  0.54588600  0.25275000  1
  Cr  Cr21  1  0.27294300  0.72705700  0.25275000  1
  Cr  Cr22  1  0.45411400  0.72705700  0.25275000  1
  Cr  Cr23  1  0.72705700  0.45411400  0.75275000  1
  Cr  Cr24  1  0.72705700  0.27294300  0.75275000  1
  Cr  Cr25  1  0.54588600  0.27294300  0.75275000  1
  Cr  Cr26  1  0.56174500  0.12349000  0.44797300  1
  Cr  Cr27  1  0.56174500  0.43825500  0.44797300  1
  Cr  Cr28  1  0.87651000  0.43825500  0.44797300  1
  Cr  Cr29  1  0.43825500  0.87651000  0.94797300  1
  Cr  Cr30  1  0.43825500  0.56174500  0.94797300  1
  Cr  Cr31  1  0.12349000  0.56174500  0.94797300  1
  Cr  Cr32  1  0.27159000  0.04451900  0.25683000  1
  Cr  Cr33  1  0.77292900  0.72841000  0.25683000  1
  Cr  Cr34  1  0.95548100  0.22707100  0.25683000  1
  Cr  Cr35  1  0.77292900  0.04451900  0.25683000  1
  Cr  Cr36  1  0.95548100  0.72841000  0.25683000  1
  Cr  Cr37  1  0.27159000  0.22707100  0.25683000  1
  Cr  Cr38  1  0.72841000  0.95548100  0.75683000  1
  Cr  Cr39  1  0.22707100  0.27159000  0.75683000  1
  Cr  Cr40  1  0.04451900  0.77292900  0.75683000  1
  Cr  Cr41  1  0.22707100  0.95548100  0.75683000  1
  Cr  Cr42  1  0.04451900  0.27159000  0.75683000  1
  Cr  Cr43  1  0.72841000  0.77292900  0.75683000  1
  Cr  Cr44  1  0.43741900  0.06215400  0.94744900  1
  Cr  Cr45  1  0.62473600  0.56258100  0.94744900  1
  Cr  Cr46  1  0.93784600  0.37526400  0.94744900  1
  Cr  Cr47  1  0.62473600  0.06215400  0.94744900  1
  Cr  Cr48  1  0.93784600  0.56258100  0.94744900  1
  Cr  Cr49  1  0.43741900  0.37526400  0.94744900  1
  Cr  Cr50  1  0.56258100  0.93784600  0.44744900  1
  Cr  Cr51  1  0.37526400  0.43741900  0.44744900  1
  Cr  Cr52  1  0.06215400  0.62473600  0.44744900  1
  Cr  Cr53  1  0.37526400  0.93784600  0.44744900  1
  Cr  Cr54  1  0.06215400  0.43741900  0.44744900  1
  Cr  Cr55  1  0.56258100  0.62473600  0.44744900  1
  C  C0  1  0.09419900  0.18839700  0.46556700  1
  C  C1  1  0.09419900  0.90580100  0.46556700  1
  C  C2  1  0.81160300  0.90580100  0.46556700  1
  C  C3  1  0.90580100  0.81160300  0.96556700  1
  C  C4  1  0.90580100  0.09419900  0.96556700  1
  C  C5  1  0.18839700  0.09419900  0.96556700  1
  C  C6  1  0.40542300  0.81084700  0.53665600  1
  C  C7  1  0.40542300  0.59457700  0.53665600  1
  C  C8  1  0.18915300  0.59457700  0.53665600  1
  C  C9  1  0.59457700  0.18915300  0.03665600  1
  C  C10  1  0.59457700  0.40542300  0.03665600  1
  C  C11  1  0.81084700  0.40542300  0.03665600  1
  C  C12  1  0.40668200  0.09417000  0.53212500  1
  C  C13  1  0.68748900  0.59331800  0.53212500  1
  C  C14  1  0.90583000  0.31251100  0.53212500  1
  C  C15  1  0.68748900  0.09417000  0.53212500  1
  C  C16  1  0.90583000  0.59331800  0.53212500  1
  C  C17  1  0.40668200  0.31251100  0.53212500  1
  C  C18  1  0.59331800  0.90583000  0.03212500  1
  C  C19  1  0.31251100  0.40668200  0.03212500  1
  C  C20  1  0.09417000  0.68748900  0.03212500  1
  C  C21  1  0.31251100  0.90583000  0.03212500  1
  C  C22  1  0.09417000  0.40668200  0.03212500  1
  C  C23  1  0.59331800  0.68748900  0.03212500  1
loop_
_geom_bond_atom_site_label_1
_geom_bond_atom_site_label_2
_geom_bond_distance
_geom_bond_site_symmetry_2
C0 Cr8 1.983240 1_555
C0 Cr4 1.997843 1_555
C0 Cr6 2.039626 1_555
C0 Cr5 2.039643 1_455
C0 Cr39 2.080131 1_555
C0 Cr42 2.080139 1_555
C1 Cr9 1.983229 1_555
C1 Cr2 1.997843 1_555
C1 Cr7 2.039653 1_455
C1 Cr6 2.039653 1_565
C1 Cr40 2.080129 1_555
C1 Cr41 2.080129 1_555
C2 Cr10 1.983240 1_555
C2 Cr3 1.997843 1_555
C2 Cr7 2.039626 1_555
C2 Cr5 2.039643 1_565
C2 Cr43 2.080131 1_555
C2 Cr38 2.080139 1_555
C3 Cr11 1.983240 1_555
C3 Cr7 1.997843 1_555
C3 Cr3 2.039626 1_556
C3 Cr2 2.039643 1_656
C3 Cr33 2.080131 1_556
C3 Cr36 2.080139 1_556
C4 Cr12 1.983229 1_555
C4 Cr5 1.997843 1_555
C4 Cr3 2.039653 1_546
C4 Cr4 2.039653 1_656
C4 Cr35 2.080129 1_556
C4 Cr34 2.080129 1_556
C5 Cr13 1.983240 1_555
C5 Cr6 1.997843 1_555
C5 Cr4 2.039626 1_556
C5 Cr2 2.039643 1_546
C5 Cr37 2.080131 1_556
C5 Cr32 2.080139 1_556
C6 Cr29 2.004637 1_555
C6 Cr53 2.052690 1_555
C6 Cr50 2.052690 1_555
C6 Cr21 2.057249 1_555
C6 Cr22 2.057258 1_555
C6 Cr0 2.057888 1_555
C7 Cr30 2.004642 1_555
C7 Cr55 2.052690 1_555
C7 Cr51 2.052690 1_555
C7 Cr20 2.057248 1_555
C7 Cr22 2.057248 1_555
C7 Cr0 2.057888 1_555
C8 Cr31 2.004637 1_555
C8 Cr52 2.052690 1_555
C8 Cr54 2.052690 1_555
C8 Cr21 2.057249 1_555
C8 Cr20 2.057258 1_555
C8 Cr0 2.057888 1_555
C9 Cr26 2.004637 1_555
C9 Cr47 2.052690 1_554
C9 Cr44 2.052690 1_554
C9 Cr24 2.057249 1_554
C9 Cr25 2.057258 1_554
C9 Cr1 2.057888 1_555
C10 Cr27 2.004642 1_555
C10 Cr45 2.052690 1_554
C10 Cr49 2.052690 1_554
C10 Cr25 2.057248 1_554
C10 Cr23 2.057248 1_554
C10 Cr1 2.057888 1_555
C11 Cr28 2.004637 1_555
C11 Cr46 2.052690 1_554
C11 Cr48 2.052690 1_554
C11 Cr24 2.057249 1_554
C11 Cr23 2.057258 1_554
C11 Cr1 2.057888 1_555
C12 Cr44 2.007631 1_555
C12 Cr26 2.024045 1_555
C12 Cr13 2.029303 1_555
C12 Cr53 2.031913 1_545
C12 Cr32 2.059122 1_555
C12 Cr19 2.064835 1_555
C13 Cr45 2.007631 1_555
C13 Cr27 2.024049 1_555
C13 Cr11 2.029292 1_555
C13 Cr55 2.031940 1_555
C13 Cr33 2.059120 1_555
C13 Cr17 2.064825 1_555
C14 Cr46 2.007631 1_555
C14 Cr28 2.024058 1_555
C14 Cr12 2.029292 1_555
C14 Cr54 2.031922 1_655
C14 Cr34 2.059111 1_555
C14 Cr18 2.064834 1_555
C15 Cr47 2.007631 1_555
C15 Cr26 2.024058 1_555
C15 Cr12 2.029292 1_555
C15 Cr50 2.031922 1_545
C15 Cr35 2.059111 1_555
C15 Cr18 2.064834 1_555
C16 Cr48 2.007631 1_555
C16 Cr28 2.024045 1_555
C16 Cr11 2.029303 1_555
C16 Cr52 2.031913 1_655
C16 Cr36 2.059122 1_555
C16 Cr17 2.064835 1_555
C17 Cr49 2.007631 1_555
C17 Cr27 2.024049 1_555
C17 Cr13 2.029292 1_555
C17 Cr51 2.031940 1_555
C17 Cr37 2.059120 1_555
C17 Cr19 2.064825 1_555
C18 Cr50 2.007631 1_555
C18 Cr29 2.024045 1_554
C18 Cr10 2.029303 1_555
C18 Cr47 2.031913 1_564
C18 Cr38 2.059122 1_554
C18 Cr16 2.064835 1_554
C19 Cr51 2.007631 1_555
C19 Cr30 2.024049 1_554
C19 Cr8 2.029292 1_555
C19 Cr49 2.031940 1_554
C19 Cr39 2.059120 1_554
C19 Cr14 2.064825 1_554
C20 Cr52 2.007631 1_555
C20 Cr31 2.024058 1_554
C20 Cr9 2.029292 1_555
C20 Cr48 2.031922 1_454
C20 Cr40 2.059111 1_554
C20 Cr15 2.064834 1_554
C21 Cr53 2.007631 1_555
C21 Cr29 2.024058 1_554
C21 Cr9 2.029292 1_555
C21 Cr44 2.031922 1_564
C21 Cr41 2.059111 1_554
C21 Cr15 2.064834 1_554
C22 Cr54 2.007631 1_555
C22 Cr31 2.024045 1_554
C22 Cr8 2.029303 1_555
C22 Cr46 2.031913 1_454
C22 Cr42 2.059122 1_554
C22 Cr14 2.064835 1_554
C23 Cr55 2.007631 1_555
C23 Cr30 2.024049 1_554
C23 Cr10 2.029292 1_555
C23 Cr45 2.031940 1_554
C23 Cr43 2.059120 1_554
C23 Cr16 2.064825 1_554
