# generated using pymatgen
data_Zn3Si4(AgO7)2
_symmetry_space_group_name_H-M   'P 1'
_cell_length_a   9.71705683
_cell_length_b   9.71705683
_cell_length_c   10.30858042
_cell_angle_alpha   58.38933696
_cell_angle_beta   58.38933696
_cell_angle_gamma   46.74509113
_symmetry_Int_Tables_number   1
_chemical_formula_structural   Zn3Si4(AgO7)2
_chemical_formula_sum   'Zn6 Si8 Ag4 O28'
_cell_volume   581.97395098
_cell_formula_units_Z   2
loop_
 _symmetry_equiv_pos_site_id
 _symmetry_equiv_pos_as_xyz
  1  'x, y, z'
loop_
 _atom_site_type_symbol
 _atom_site_label
 _atom_site_symmetry_multiplicity
 _atom_site_fract_x
 _atom_site_fract_y
 _atom_site_fract_z
 _atom_site_occupancy
  Zn  Zn0  1  0.05167200  0.27646000  0.12625600  1
  Zn  Zn1  1  0.72354000  0.94832800  0.37374400  1
  Zn  Zn2  1  0.27646000  0.05167200  0.62625600  1
  Zn  Zn3  1  0.38274400  0.61725600  0.75000000  1
  Zn  Zn4  1  0.94832800  0.72354000  0.87374400  1
  Zn  Zn5  1  0.61725600  0.38274400  0.25000000  1
  Si  Si0  1  0.57390700  0.04212200  0.70581700  1
  Si  Si1  1  0.04212200  0.57390700  0.20581700  1
  Si  Si2  1  0.48627200  0.27852300  0.10856700  1
  Si  Si3  1  0.27852300  0.48627200  0.60856700  1
  Si  Si4  1  0.95787800  0.42609300  0.79418300  1
  Si  Si5  1  0.51372800  0.72147700  0.89143300  1
  Si  Si6  1  0.72147700  0.51372800  0.39143300  1
  Si  Si7  1  0.42609300  0.95787800  0.29418300  1
  Ag  Ag0  1  0.77642200  0.22357800  0.75000000  1
  Ag  Ag1  1  0.22357800  0.77642200  0.25000000  1
  Ag  Ag2  1  0.00000000  0.00000000  0.00000000  1
  Ag  Ag3  1  0.00000000  0.00000000  0.50000000  1
  O  O0  1  0.79742200  0.35360400  0.31287800  1
  O  O1  1  0.96414200  0.89806300  0.40352000  1
  O  O2  1  0.47477800  0.62179000  0.08309400  1
  O  O3  1  0.89806300  0.96414200  0.90352000  1
  O  O4  1  0.20513500  0.05692500  0.29035900  1
  O  O5  1  0.08931000  0.49922800  0.63118700  1
  O  O6  1  0.62179000  0.47477800  0.58309400  1
  O  O7  1  0.94307500  0.79486500  0.20964100  1
  O  O8  1  0.91069000  0.50077200  0.36881300  1
  O  O9  1  0.57000600  0.72801600  0.29043800  1
  O  O10  1  0.03585800  0.10193700  0.59648000  1
  O  O11  1  0.79486500  0.94307500  0.70964100  1
  O  O12  1  0.50077200  0.91069000  0.86881300  1
  O  O13  1  0.35360400  0.79742200  0.81287800  1
  O  O14  1  0.72801600  0.57000600  0.79043800  1
  O  O15  1  0.05692500  0.20513500  0.79035900  1
  O  O16  1  0.95776900  0.44816700  0.93904500  1
  O  O17  1  0.42999400  0.27198400  0.70956200  1
  O  O18  1  0.55183300  0.04223100  0.56095500  1
  O  O19  1  0.27198400  0.42999400  0.20956200  1
  O  O20  1  0.49922800  0.08931000  0.13118700  1
  O  O21  1  0.10193700  0.03585800  0.09648000  1
  O  O22  1  0.44816700  0.95776900  0.43904500  1
  O  O23  1  0.52522200  0.37821000  0.91690600  1
  O  O24  1  0.04223100  0.55183300  0.06095500  1
  O  O25  1  0.37821000  0.52522200  0.41690600  1
  O  O26  1  0.64639600  0.20257800  0.18712200  1
  O  O27  1  0.20257800  0.64639600  0.68712200  1
loop_
_geom_bond_atom_site_label_1
_geom_bond_atom_site_label_2
_geom_bond_distance
_geom_bond_site_symmetry_2
Ag0 O10 1.987915 1_655
Ag0 O3 1.987915 1_545
Ag0 O6 2.111211 1_555
Ag0 O23 2.111211 1_555
Ag1 O21 1.987915 1_565
Ag1 O1 1.987915 1_455
Ag1 O2 2.111211 1_555
Ag1 O25 2.111211 1_555
Ag2 O21 1.990157 1_555
Ag2 O3 1.990157 1_444
Ag2 O15 2.166058 1_554
Ag2 O7 2.166058 1_445
Ag2 O26 2.676713 1_455
Ag2 O13 2.676713 1_544
Ag3 O10 1.990157 1_555
Ag3 O1 1.990157 1_445
Ag3 O4 2.166058 1_555
Ag3 O11 2.166058 1_445
Ag3 O27 2.676713 1_545
Ag3 O0 2.676713 1_455
O0 Si6 1.655906 1_555
O0 Zn5 1.970532 1_555
O0 Zn0 2.087554 1_655
O1 Zn1 2.197474 1_555
O2 Si5 1.642393 1_554
O2 Zn5 2.042746 1_555
O3 Zn4 2.197474 1_555
O4 Si7 1.659716 1_545
O4 Zn0 2.034190 1_555
O5 Si4 1.643759 1_455
O5 Si3 1.647656 1_555
O6 Si6 1.642393 1_555
O6 Zn3 2.042746 1_555
O7 Si1 1.659716 1_655
O7 Zn1 2.034190 1_555
O8 Si1 1.643759 1_655
O8 Si6 1.647656 1_555
O9 Si7 1.642879 1_555
O9 Si6 1.649127 1_555
O10 Zn2 2.197474 1_555
O11 Si0 1.659716 1_565
O11 Zn4 2.034190 1_555
O12 Si0 1.643759 1_565
O12 Si5 1.647656 1_555
O13 Si5 1.655906 1_555
O13 Zn3 1.970532 1_555
O13 Zn2 2.087554 1_565
O14 Si4 1.642879 1_555
O14 Si5 1.649127 1_555
O15 Si4 1.659716 1_455
O15 Zn2 2.034190 1_555
O16 Si4 1.615495 1_555
O16 Zn0 1.930000 1_656
O16 Zn4 2.337013 1_555
O17 Si0 1.642879 1_555
O17 Si3 1.649127 1_555
O18 Si0 1.615495 1_555
O18 Zn1 1.930000 1_545
O18 Zn2 2.337013 1_555
O19 Si1 1.642879 1_555
O19 Si2 1.649127 1_555
O20 Si7 1.643759 1_545
O20 Si2 1.647656 1_555
O21 Zn0 2.197474 1_555
O22 Si7 1.615495 1_555
O22 Zn2 1.930000 1_565
O22 Zn1 2.337013 1_555
O23 Si2 1.642393 1_556
O23 Zn3 2.042746 1_555
O24 Si1 1.615495 1_555
O24 Zn4 1.930000 1_454
O24 Zn0 2.337013 1_555
O25 Si3 1.642393 1_555
O25 Zn5 2.042746 1_555
O26 Si2 1.655906 1_555
O26 Zn5 1.970532 1_555
O26 Zn1 2.087554 1_545
O27 Si3 1.655906 1_555
O27 Zn3 1.970532 1_555
O27 Zn4 2.087554 1_455
