# generated using pymatgen
data_Ca2SbWO6
_symmetry_space_group_name_H-M   'P 1'
_cell_length_a   8.11124600
_cell_length_b   5.70863300
_cell_length_c   5.90241563
_cell_angle_alpha   88.54555372
_cell_angle_beta   90.00000000
_cell_angle_gamma   90.00000000
_symmetry_Int_Tables_number   1
_chemical_formula_structural   Ca2SbWO6
_chemical_formula_sum   'Ca4 Sb2 W2 O12'
_cell_volume   273.21814718
_cell_formula_units_Z   2
loop_
 _symmetry_equiv_pos_site_id
 _symmetry_equiv_pos_as_xyz
  1  'x, y, z'
loop_
 _atom_site_type_symbol
 _atom_site_label
 _atom_site_symmetry_multiplicity
 _atom_site_fract_x
 _atom_site_fract_y
 _atom_site_fract_z
 _atom_site_occupancy
  Ca  Ca0  1  0.75000000  0.48585100  0.55935600  1
  Ca  Ca1  1  0.25000000  0.51414900  0.44064400  1
  Ca  Ca2  1  0.75000000  0.99872800  0.05074700  1
  Ca  Ca3  1  0.25000000  0.00127200  0.94925300  1
  Sb  Sb0  1  0.50000000  0.00000000  0.50000000  1
  Sb  Sb1  1  0.00000000  0.00000000  0.50000000  1
  W  W0  1  0.50000000  0.50000000  0.00000000  1
  W  W1  1  0.00000000  0.50000000  0.00000000  1
  O  O0  1  0.44397100  0.65606400  0.71128900  1
  O  O1  1  0.05841300  0.79449300  0.17427300  1
  O  O2  1  0.94397100  0.34393600  0.28871100  1
  O  O3  1  0.55841300  0.20550700  0.82572700  1
  O  O4  1  0.44158700  0.79449300  0.17427300  1
  O  O5  1  0.94158700  0.20550700  0.82572700  1
  O  O6  1  0.25000000  0.12502100  0.55695700  1
  O  O7  1  0.05602900  0.65606400  0.71128900  1
  O  O8  1  0.75000000  0.60398800  0.95464200  1
  O  O9  1  0.55602900  0.34393600  0.28871100  1
  O  O10  1  0.75000000  0.87497900  0.44304300  1
  O  O11  1  0.25000000  0.39601200  0.04535800  1
loop_
_geom_bond_atom_site_label_1
_geom_bond_atom_site_label_2
_geom_bond_distance
_geom_bond_site_symmetry_2
Ca0 O10 2.308348 1_555
Ca0 O9 2.397774 1_555
Ca0 O2 2.397774 1_555
Ca0 O8 2.445045 1_555
Ca0 O5 2.705614 1_555
Ca0 O3 2.705614 1_555
Ca0 O0 2.820337 1_555
Ca0 O7 2.820337 1_655
Ca1 O6 2.308348 1_555
Ca1 O0 2.397774 1_555
Ca1 O7 2.397774 1_555
Ca1 O11 2.445045 1_555
Ca1 O4 2.705614 1_555
Ca1 O1 2.705614 1_555
Ca1 O9 2.820337 1_555
Ca1 O2 2.820337 1_455
Ca2 O8 2.337647 1_554
Ca2 O5 2.343667 1_564
Ca2 O3 2.343667 1_564
Ca2 O10 2.403649 1_555
Ca2 O4 2.847075 1_555
Ca2 O1 2.847075 1_655
Ca2 O9 2.910713 1_565
Ca2 O2 2.910713 1_565
Ca3 O11 2.337647 1_556
Ca3 O4 2.343667 1_546
Ca3 O1 2.343667 1_546
Ca3 O6 2.403649 1_555
Ca3 O5 2.847075 1_455
Ca3 O3 2.847075 1_555
Ca3 O0 2.910713 1_545
Ca3 O7 2.910713 1_545
O0 W0 1.956303 1_556
O0 Sb0 2.343606 1_565
O1 W1 2.048568 1_555
O1 Sb1 2.326285 1_565
O2 W1 1.956303 1_655
O2 Sb1 2.343606 1_655
O3 W0 2.048568 1_556
O3 Sb0 2.326285 1_555
O4 W0 2.048568 1_555
O4 Sb0 2.326285 1_565
O5 W1 2.048568 1_656
O5 Sb1 2.326285 1_655
O6 Sb0 2.178666 1_555
O6 Sb1 2.178666 1_555
O7 W1 1.956303 1_556
O7 Sb1 2.343606 1_565
O8 W1 2.127915 1_656
O8 W0 2.127915 1_556
O9 W0 1.956303 1_555
O9 Sb0 2.343606 1_555
O10 Sb0 2.178666 1_565
O10 Sb1 2.178666 1_665
O11 W0 2.127915 1_555
O11 W1 2.127915 1_555
