# generated using pymatgen
data_CaHfS3
_symmetry_space_group_name_H-M   'P 1'
_cell_length_a   6.56026900
_cell_length_b   7.01785300
_cell_length_c   9.59823200
_cell_angle_alpha   90.00000000
_cell_angle_beta   90.00000000
_cell_angle_gamma   90.00000000
_symmetry_Int_Tables_number   1
_chemical_formula_structural   CaHfS3
_chemical_formula_sum   'Ca4 Hf4 S12'
_cell_volume   441.89303647
_cell_formula_units_Z   4
loop_
 _symmetry_equiv_pos_site_id
 _symmetry_equiv_pos_as_xyz
  1  'x, y, z'
loop_
 _atom_site_type_symbol
 _atom_site_label
 _atom_site_symmetry_multiplicity
 _atom_site_fract_x
 _atom_site_fract_y
 _atom_site_fract_z
 _atom_site_occupancy
  Ca  Ca0  1  0.47189700  0.58932100  0.25000000  1
  Ca  Ca1  1  0.02810300  0.08932100  0.25000000  1
  Ca  Ca2  1  0.52810300  0.41067900  0.75000000  1
  Ca  Ca3  1  0.97189700  0.91067900  0.75000000  1
  Hf  Hf0  1  0.00000000  0.50000000  0.00000000  1
  Hf  Hf1  1  0.50000000  0.00000000  0.50000000  1
  Hf  Hf2  1  0.00000000  0.50000000  0.50000000  1
  Hf  Hf3  1  0.50000000  0.00000000  0.00000000  1
  S  S0  1  0.88021000  0.46728700  0.25000000  1
  S  S1  1  0.61979000  0.96728700  0.25000000  1
  S  S2  1  0.11979000  0.53271300  0.75000000  1
  S  S3  1  0.38021000  0.03271300  0.75000000  1
  S  S4  1  0.68341200  0.69040400  0.93880400  1
  S  S5  1  0.81658800  0.19040400  0.56119600  1
  S  S6  1  0.31658800  0.30959600  0.43880400  1
  S  S7  1  0.18341200  0.80959600  0.06119600  1
  S  S8  1  0.31658800  0.30959600  0.06119600  1
  S  S9  1  0.18341200  0.80959600  0.43880400  1
  S  S10  1  0.68341200  0.69040400  0.56119600  1
  S  S11  1  0.81658800  0.19040400  0.93880400  1
loop_
_geom_bond_atom_site_label_1
_geom_bond_atom_site_label_2
_geom_bond_distance
_geom_bond_site_symmetry_2
Ca0 S0 2.812219 1_555
Ca0 S1 2.824382 1_555
Ca0 S6 2.859326 1_555
Ca0 S8 2.859326 1_555
Ca0 S9 3.042268 1_555
Ca0 S7 3.042268 1_555
Ca0 S10 3.369037 1_555
Ca0 S4 3.369037 1_554
Ca1 S1 2.812219 1_445
Ca1 S0 2.824382 1_455
Ca1 S9 2.859326 1_545
Ca1 S7 2.859326 1_545
Ca1 S6 3.042268 1_555
Ca1 S8 3.042268 1_555
Ca1 S5 3.369037 1_455
Ca1 S11 3.369037 1_454
Ca2 S2 2.812219 1_555
Ca2 S3 2.824382 1_555
Ca2 S4 2.859326 1_555
Ca2 S10 2.859326 1_555
Ca2 S11 3.042268 1_555
Ca2 S5 3.042268 1_555
Ca2 S8 3.369037 1_556
Ca2 S6 3.369037 1_555
Ca3 S3 2.812219 1_665
Ca3 S2 2.824382 1_655
Ca3 S5 2.859326 1_565
Ca3 S11 2.859326 1_565
Ca3 S4 3.042268 1_555
Ca3 S10 3.042268 1_555
Ca3 S7 3.369037 1_656
Ca3 S9 3.369037 1_655
Hf0 S2 2.535380 1_554
Hf0 S0 2.535380 1_455
Hf0 S4 2.538510 1_454
Hf0 S8 2.538510 1_555
Hf0 S7 2.552136 1_555
Hf0 S11 2.552136 1_454
Hf1 S3 2.535380 1_555
Hf1 S1 2.535380 1_545
Hf1 S5 2.538510 1_555
Hf1 S9 2.538510 1_545
Hf1 S10 2.552136 1_545
Hf1 S6 2.552136 1_555
Hf2 S2 2.535380 1_555
Hf2 S0 2.535380 1_455
Hf2 S10 2.538510 1_455
Hf2 S6 2.538510 1_555
Hf2 S5 2.552136 1_455
Hf2 S9 2.552136 1_555
Hf3 S3 2.535380 1_554
Hf3 S1 2.535380 1_545
Hf3 S11 2.538510 1_554
Hf3 S7 2.538510 1_545
Hf3 S8 2.552136 1_555
Hf3 S4 2.552136 1_544
