# generated using pymatgen
data_BaSrLaSbO6
_symmetry_space_group_name_H-M   'P 1'
_cell_length_a   8.64208565
_cell_length_b   8.64608923
_cell_length_c   8.65676734
_cell_angle_alpha   90.00000000
_cell_angle_beta   90.00000000
_cell_angle_gamma   90.00000000
_symmetry_Int_Tables_number   1
_chemical_formula_structural   BaSrLaSbO6
_chemical_formula_sum   'Ba4 Sr4 La4 Sb4 O24'
_cell_volume   646.83576498
_cell_formula_units_Z   4
loop_
 _symmetry_equiv_pos_site_id
 _symmetry_equiv_pos_as_xyz
  1  'x, y, z'
loop_
 _atom_site_type_symbol
 _atom_site_label
 _atom_site_symmetry_multiplicity
 _atom_site_fract_x
 _atom_site_fract_y
 _atom_site_fract_z
 _atom_site_occupancy
  Ba  Ba0  1  -0.00000000  -0.00000000  -0.00000000  1
  Ba  Ba1  1  0.50000000  0.50000000  0.50000000  1
  Ba  Ba2  1  0.50000000  -0.00000000  -0.00000000  1
  Ba  Ba3  1  -0.00000000  0.00000000  0.50000000  1
  Sr  Sr0  1  -0.00000000  0.50000000  0.50000000  1
  Sr  Sr1  1  0.50000000  -0.00000000  0.50000000  1
  Sr  Sr2  1  0.50000000  0.50000000  -0.00000000  1
  Sr  Sr3  1  -0.00000000  0.50000000  -0.00000000  1
  La  La0  1  0.74924248  0.74796435  0.74951978  1
  La  La1  1  0.25075752  0.25203565  0.74951978  1
  La  La2  1  0.25075752  0.74796435  0.25048022  1
  La  La3  1  0.74924248  0.25203565  0.25048022  1
  Sb  Sb0  1  0.24965297  0.25323557  0.25054679  1
  Sb  Sb1  1  0.75034703  0.74676443  0.25054679  1
  Sb  Sb2  1  0.75034703  0.25323557  0.74945321  1
  Sb  Sb3  1  0.24965297  0.74676443  0.74945321  1
  O  O0  1  0.01884631  0.22499047  0.27729017  1
  O  O1  1  0.98115369  0.77500953  0.27729017  1
  O  O2  1  0.98115369  0.22499047  0.72270983  1
  O  O3  1  0.01884631  0.77500953  0.72270983  1
  O  O4  1  0.27357343  0.02181941  0.22120221  1
  O  O5  1  0.27357343  0.97818059  0.77879779  1
  O  O6  1  0.72642657  0.97818059  0.22120221  1
  O  O7  1  0.72642657  0.02181941  0.77879779  1
  O  O8  1  0.21516740  0.28606876  0.02023688  1
  O  O9  1  0.78483260  0.28606876  0.97976312  1
  O  O10  1  0.21516740  0.71393124  0.97976312  1
  O  O11  1  0.78483260  0.71393124  0.02023688  1
  O  O12  1  0.47854659  0.28997746  0.21440522  1
  O  O13  1  0.52145341  0.71002254  0.21440522  1
  O  O14  1  0.52145341  0.28997746  0.78559478  1
  O  O15  1  0.47854659  0.71002254  0.78559478  1
  O  O16  1  0.21644791  0.48140923  0.29184252  1
  O  O17  1  0.21644791  0.51859077  0.70815748  1
  O  O18  1  0.78355209  0.51859077  0.29184252  1
  O  O19  1  0.78355209  0.48140923  0.70815748  1
  O  O20  1  0.29037118  0.21858736  0.47929632  1
  O  O21  1  0.70962882  0.21858736  0.52070368  1
  O  O22  1  0.29037118  0.78141264  0.52070368  1
  O  O23  1  0.70962882  0.78141264  0.47929632  1
loop_
_geom_bond_atom_site_label_1
_geom_bond_atom_site_label_2
_geom_bond_distance
_geom_bond_site_symmetry_2
Ba0 O5 3.048290 1_544
Ba0 O7 3.048290 1_454
Ba0 O6 3.048290 1_445
Ba0 O4 3.048290 1_555
Ba0 O1 3.093989 1_445
Ba0 O3 3.093989 1_544
Ba0 O2 3.093989 1_454
Ba0 O0 3.093989 1_555
Ba0 O10 3.099355 1_544
Ba0 O8 3.099355 1_555
Ba0 O9 3.099355 1_454
Ba0 O11 3.099355 1_445
Ba1 O23 3.038782 1_555
Ba1 O21 3.038782 1_555
Ba1 O22 3.038782 1_555
Ba1 O20 3.038782 1_555
Ba1 O19 3.045947 1_555
Ba1 O16 3.045947 1_555
Ba1 O17 3.045947 1_555
Ba1 O18 3.045947 1_555
Ba1 O14 3.073138 1_555
Ba1 O15 3.073138 1_555
Ba1 O12 3.073138 1_555
Ba1 O13 3.073138 1_555
Ba2 O5 2.744353 1_544
Ba2 O7 2.744353 1_554
Ba2 O6 2.744353 1_545
Ba2 O4 2.744353 1_555
Ba2 O14 3.124936 1_554
Ba2 O13 3.124936 1_545
Ba2 O15 3.124936 1_544
Ba2 O12 3.124936 1_555
Ba3 O3 2.743657 1_545
Ba3 O1 2.743657 1_445
Ba3 O0 2.743657 1_555
Ba3 O2 2.743657 1_455
Ba3 O23 3.146600 1_445
Ba3 O21 3.146600 1_455
Ba3 O20 3.146600 1_555
Ba3 O22 3.146600 1_545
Ba3 O7 3.383809 1_455
Ba3 O6 3.383809 1_445
Ba3 O4 3.383809 1_555
Ba3 O5 3.383809 1_545
La0 O19 2.351081 1_555
La0 O3 2.353117 1_655
La0 O23 2.381802 1_555
La0 O11 2.381878 1_556
La0 O15 2.382819 1_555
La0 O7 2.389451 1_565
La1 O17 2.351081 1_555
La1 O2 2.353117 1_455
La1 O20 2.381802 1_555
La1 O8 2.381878 1_556
La1 O14 2.382819 1_555
La1 O5 2.389451 1_545
La2 O16 2.351081 1_555
La2 O1 2.353117 1_455
La2 O22 2.381802 1_555
La2 O10 2.381878 1_554
La2 O13 2.382819 1_555
La2 O4 2.389451 1_565
La3 O18 2.351081 1_555
La3 O0 2.353117 1_655
La3 O21 2.381802 1_555
La3 O9 2.381878 1_554
La3 O12 2.382819 1_555
La3 O6 2.389451 1_545
O0 Sb0 2.022837 1_555
O0 Sr0 3.065491 1_555
O1 Sb1 2.022837 1_555
O1 Sr0 3.065491 1_655
O2 Sb2 2.022837 1_555
O2 Sr0 3.065491 1_655
O3 Sb3 2.022837 1_555
O3 Sr0 3.065491 1_555
O4 Sb0 2.027473 1_555
O4 Sr1 3.112807 1_555
O5 Sb3 2.027473 1_555
O5 Sr1 3.112807 1_565
O6 Sb1 2.027473 1_555
O6 Sr1 3.112807 1_565
O7 Sb2 2.027473 1_555
O7 Sr1 3.112807 1_555
O8 Sb0 2.035781 1_555
O8 Sr3 2.628628 1_555
O8 Sr2 3.084020 1_555
O9 Sb2 2.035781 1_555
O9 Sr3 2.628628 1_656
O9 Sr2 3.084020 1_556
O10 Sb3 2.035781 1_555
O10 Sr3 2.628628 1_556
O10 Sr2 3.084020 1_556
O11 Sb1 2.035781 1_555
O11 Sr3 2.628628 1_655
O11 Sr2 3.084020 1_555
O12 Sb0 2.027746 1_555
O12 Sr2 2.603212 1_555
O13 Sb1 2.027746 1_555
O13 Sr2 2.603212 1_555
O14 Sb2 2.027746 1_555
O14 Sr2 2.603212 1_556
O15 Sb3 2.027746 1_555
O15 Sr2 2.603212 1_556
O16 Sb0 2.025370 1_555
O16 Sr0 2.602294 1_555
O16 Sr3 3.147634 1_555
O17 Sb3 2.025370 1_555
O17 Sr0 2.602294 1_555
O17 Sr3 3.147634 1_556
O18 Sb1 2.025370 1_555
O18 Sr0 2.602294 1_655
O18 Sr3 3.147634 1_655
O19 Sb2 2.025370 1_555
O19 Sr0 2.602294 1_655
O19 Sr3 3.147634 1_656
O20 Sb0 2.033442 1_555
O20 Sr1 2.624109 1_555
O21 Sb2 2.033442 1_555
O21 Sr1 2.624109 1_555
O22 Sb3 2.033442 1_555
O22 Sr1 2.624109 1_565
O23 Sb1 2.033442 1_555
O23 Sr1 2.624109 1_565
