# generated using pymatgen
data_Na12Mn3S6(O3F)8
_symmetry_space_group_name_H-M   'P 1'
_cell_length_a   9.67550500
_cell_length_b   9.70788963
_cell_length_c   9.79659811
_cell_angle_alpha   113.80104529
_cell_angle_beta   105.20619997
_cell_angle_gamma   109.00670591
_symmetry_Int_Tables_number   1
_chemical_formula_structural   Na12Mn3S6(O3F)8
_chemical_formula_sum   'Na12 Mn3 S6 O24 F8'
_cell_volume   708.79454825
_cell_formula_units_Z   1
loop_
 _symmetry_equiv_pos_site_id
 _symmetry_equiv_pos_as_xyz
  1  'x, y, z'
loop_
 _atom_site_type_symbol
 _atom_site_label
 _atom_site_symmetry_multiplicity
 _atom_site_fract_x
 _atom_site_fract_y
 _atom_site_fract_z
 _atom_site_occupancy
  Na  Na0  1  0.49152200  0.84614400  0.20416300  1
  Na  Na1  1  0.50847800  0.15385600  0.79583700  1
  Na  Na2  1  0.71379800  0.70398000  0.44080000  1
  Na  Na3  1  0.28620200  0.29602000  0.55920000  1
  Na  Na4  1  0.12695400  0.69449400  0.98490100  1
  Na  Na5  1  0.87304600  0.30550600  0.01509900  1
  Na  Na6  1  0.44591100  0.21068400  0.21452000  1
  Na  Na7  1  0.55408900  0.78931600  0.78548000  1
  Na  Na8  1  0.03797700  0.86634700  0.63376000  1
  Na  Na9  1  0.96202300  0.13365300  0.36624000  1
  Na  Na10  1  0.69856300  0.63422400  0.08255600  1
  Na  Na11  1  0.30143700  0.36577600  0.91744400  1
  Mn  Mn0  1  0.50000000  0.00000000  0.50000000  1
  Mn  Mn1  1  0.00000000  0.00000000  0.00000000  1
  Mn  Mn2  1  0.00000000  0.50000000  0.50000000  1
  S  S0  1  0.73347300  0.40543800  0.35687300  1
  S  S1  1  0.26652700  0.59456200  0.64312700  1
  S  S2  1  0.71928700  0.51812700  0.81645000  1
  S  S3  1  0.28071300  0.48187300  0.18355000  1
  S  S4  1  0.16705800  0.89919900  0.22757700  1
  S  S5  1  0.83294200  0.10080100  0.77242300  1
  O  O0  1  0.70165200  0.41695900  0.97255600  1
  O  O1  1  0.29834800  0.58304100  0.02744400  1
  O  O2  1  0.89881400  0.58669700  0.67035400  1
  O  O3  1  0.10118600  0.41330300  0.32964600  1
  O  O4  1  0.58972900  0.43234500  0.35820000  1
  O  O5  1  0.41027100  0.56765500  0.64180000  1
  O  O6  1  0.05713200  0.92809400  0.36235000  1
  O  O7  1  0.94286800  0.07190600  0.63765000  1
  O  O8  1  0.70461400  0.66375900  0.82777300  1
  O  O9  1  0.29538600  0.33624100  0.17222700  1
  O  O10  1  0.58821100  0.42174600  0.78943200  1
  O  O11  1  0.41178900  0.57825400  0.21056700  1
  O  O12  1  0.81326000  0.50933800  0.42113800  1
  O  O13  1  0.18674000  0.49066200  0.57886200  1
  O  O14  1  0.34279800  0.04443200  0.10793200  1
  O  O15  1  0.65720200  0.95556800  0.89206800  1
  O  O16  1  0.86276600  0.44745100  0.18453800  1
  O  O17  1  0.13723400  0.55254900  0.81546200  1
  O  O18  1  0.66299300  0.22974900  0.47393700  1
  O  O19  1  0.33700700  0.77025100  0.52606300  1
  O  O20  1  0.18722500  0.75654900  0.30069000  1
  O  O21  1  0.81277500  0.24345100  0.69931000  1
  O  O22  1  0.08129200  0.86081200  0.13392200  1
  O  O23  1  0.91870800  0.13918800  0.86607800  1
  F  F0  1  0.32902500  0.06585200  0.50518400  1
  F  F1  1  0.67097500  0.93414800  0.49481600  1
  F  F2  1  0.76325800  0.84263300  0.17458800  1
  F  F3  1  0.23674200  0.15736700  0.82541100  1
  F  F4  1  0.59856000  0.07820800  0.26519800  1
  F  F5  1  0.40144000  0.92179200  0.73480200  1
  F  F6  1  0.99327600  0.85297700  0.90255900  1
  F  F7  1  0.00672400  0.14702300  0.09744100  1
loop_
_geom_bond_atom_site_label_1
_geom_bond_atom_site_label_2
_geom_bond_distance
_geom_bond_site_symmetry_2
Na0 O1 2.153694 1_555
Na1 O0 2.153694 1_555
Na2 O4 2.180792 1_555
Na2 O12 2.349802 1_555
Na2 O11 2.667047 1_555
Na3 O5 2.180792 1_555
Na3 O13 2.349802 1_555
Na3 O10 2.667043 1_555
Na4 O17 1.730260 1_555
Na4 O22 1.958033 1_556
Na4 O1 2.294452 1_556
Na5 O16 1.730260 1_555
Na5 O23 1.958033 1_554
Na5 O0 2.294452 1_554
Na6 O14 1.317195 1_555
Na6 O4 1.767909 1_555
Na6 O9 2.241839 1_555
Na7 O15 1.317195 1_555
Na7 O5 1.767909 1_555
Na7 O8 2.241839 1_555
Na8 O7 2.446141 1_465
Na9 O6 2.446141 1_645
Na10 O0 1.958128 1_554
Na11 O1 1.958128 1_556
Mn0 O18 2.430355 1_555
Mn0 O19 2.430355 1_545
Mn2 O13 1.816750 1_555
Mn2 O12 1.816750 1_455
Mn2 O2 2.170756 1_455
Mn2 O3 2.170756 1_555
O4 S0 1.498696 1_555
O5 S1 1.498696 1_555
O6 S4 1.893466 1_555
O7 S5 1.893466 1_555
O8 S2 1.429563 1_555
O9 S3 1.429563 1_555
O10 S2 1.185332 1_555
O11 S3 1.185336 1_555
O12 S0 0.857326 1_555
O13 S1 0.857326 1_555
O20 S4 1.836336 1_555
O21 S5 1.836336 1_555
O22 S4 0.890225 1_555
O23 S5 0.890225 1_555
F0 Mn0 1.963308 1_555
F0 S4 2.243007 1_545
F0 Na3 2.282136 1_555
F0 Na1 2.515786 1_555
F1 Mn0 1.963308 1_565
F1 S5 2.243007 1_565
F1 Na2 2.282136 1_555
F1 Na0 2.515786 1_555
F2 Na10 1.644636 1_555
F2 Na9 2.343262 1_565
F2 Na0 2.729052 1_555
F3 Na11 1.644636 1_555
F3 Na8 2.343261 1_545
F3 Na1 2.729048 1_555
F4 O18 1.743663 1_555
F4 Na0 1.890401 1_545
F4 Na6 2.334469 1_555
F5 O19 1.743663 1_555
F5 Na1 1.890401 1_565
F5 Na7 2.334469 1_555
F6 Mn1 1.326600 1_666
F7 Mn1 1.326600 1_555
