# generated using pymatgen
data_PuGa
_symmetry_space_group_name_H-M   'P 1'
_cell_length_a   6.17628454
_cell_length_b   6.17628454
_cell_length_c   9.01501086
_cell_angle_alpha   89.94446009
_cell_angle_beta   90.05553991
_cell_angle_gamma   90.16556878
_symmetry_Int_Tables_number   1
_chemical_formula_structural   PuGa
_chemical_formula_sum   'Pu8 Ga8'
_cell_volume   343.88927071
_cell_formula_units_Z   8
loop_
 _symmetry_equiv_pos_site_id
 _symmetry_equiv_pos_as_xyz
  1  'x, y, z'
loop_
 _atom_site_type_symbol
 _atom_site_label
 _atom_site_symmetry_multiplicity
 _atom_site_fract_x
 _atom_site_fract_y
 _atom_site_fract_z
 _atom_site_occupancy
  Pu  Pu0_0  1  0.25000000  0.25000000  0.25000000  1
  Pu  Pu0_1  1  0.25000000  0.25000000  0.75000000  1
  Pu  Pu0_2  1  0.25000000  0.75000000  0.25000000  1
  Pu  Pu0_3  1  0.25000000  0.75000000  0.75000000  1
  Pu  Pu0_4  1  0.75000000  0.25000000  0.25000000  1
  Pu  Pu0_5  1  0.75000000  0.25000000  0.75000000  1
  Pu  Pu0_6  1  0.75000000  0.75000000  0.25000000  1
  Pu  Pu0_7  1  0.75000000  0.75000000  0.75000000  1
  Ga  Ga0_0  1  0.00000000  0.00000000  0.00000000  1
  Ga  Ga0_1  1  0.00000000  0.00000000  0.50000000  1
  Ga  Ga0_2  1  0.00000000  0.50000000  0.00000000  1
  Ga  Ga0_3  1  0.00000000  0.50000000  0.50000000  1
  Ga  Ga0_4  1  0.50000000  0.00000000  0.00000000  1
  Ga  Ga0_5  1  0.50000000  0.00000000  0.50000000  1
  Ga  Ga0_6  1  0.50000000  0.50000000  0.00000000  1
  Ga  Ga0_7  1  0.50000000  0.50000000  0.50000000  1
loop_
_geom_bond_atom_site_label_1
_geom_bond_atom_site_label_2
_geom_bond_distance
_geom_bond_site_symmetry_2
Pu0_0 Pu0_2 3.088142 1_555
Pu0_0 Pu0_4 3.088142 1_555
Pu0_0 Pu0_4 3.088142 1_455
Pu0_0 Pu0_2 3.088142 1_545
Pu0_1 Pu0_5 3.088142 1_455
Pu0_1 Pu0_3 3.088142 1_555
Pu0_1 Pu0_3 3.088142 1_545
Pu0_1 Pu0_5 3.088142 1_555
Pu0_2 Pu0_6 3.088142 1_555
Pu0_2 Pu0_6 3.088142 1_455
Pu0_3 Pu0_7 3.088142 1_455
Pu0_3 Pu0_7 3.088142 1_555
Pu0_4 Pu0_6 3.088142 1_555
Pu0_4 Pu0_6 3.088142 1_545
Pu0_5 Pu0_7 3.088142 1_555
Pu0_5 Pu0_7 3.088142 1_545
Ga0_0 Pu0_0 3.135910 1_555
Ga0_0 Pu0_6 3.135910 1_445
Ga0_0 Pu0_7 3.135910 1_444
Ga0_0 Pu0_1 3.135910 1_554
Ga0_0 Pu0_5 3.138152 1_454
Ga0_0 Pu0_2 3.138152 1_545
Ga0_0 Pu0_3 3.142449 1_544
Ga0_0 Pu0_4 3.142449 1_455
Ga0_1 Pu0_0 3.135910 1_555
Ga0_1 Pu0_1 3.135910 1_555
Ga0_1 Pu0_7 3.135910 1_445
Ga0_1 Pu0_6 3.135910 1_445
Ga0_1 Pu0_3 3.138152 1_545
Ga0_1 Pu0_4 3.138152 1_455
Ga0_1 Pu0_2 3.142449 1_545
Ga0_1 Pu0_5 3.142449 1_455
Ga0_2 Pu0_5 3.135910 1_454
Ga0_2 Pu0_3 3.135910 1_554
Ga0_2 Pu0_2 3.135910 1_555
Ga0_2 Pu0_4 3.135910 1_455
Ga0_2 Pu0_0 3.138152 1_555
Ga0_2 Pu0_7 3.138152 1_454
Ga0_2 Pu0_6 3.142449 1_455
Ga0_2 Pu0_1 3.142449 1_554
Ga0_3 Pu0_4 3.135910 1_455
Ga0_3 Pu0_2 3.135910 1_555
Ga0_3 Pu0_3 3.135910 1_555
Ga0_3 Pu0_5 3.135910 1_455
Ga0_3 Pu0_1 3.138152 1_555
Ga0_3 Pu0_6 3.138152 1_455
Ga0_3 Pu0_0 3.142449 1_555
Ga0_3 Pu0_7 3.142449 1_455
Ga0_4 Pu0_5 3.135910 1_554
Ga0_4 Pu0_4 3.135910 1_555
Ga0_4 Pu0_3 3.135910 1_544
Ga0_4 Pu0_2 3.135910 1_545
Ga0_4 Pu0_1 3.138152 1_554
Ga0_4 Pu0_6 3.138152 1_545
Ga0_4 Pu0_7 3.142449 1_544
Ga0_4 Pu0_0 3.142449 1_555
Ga0_5 Pu0_2 3.135910 1_545
Ga0_5 Pu0_4 3.135910 1_555
Ga0_5 Pu0_3 3.135910 1_545
Ga0_5 Pu0_5 3.135910 1_555
Ga0_5 Pu0_0 3.138152 1_555
Ga0_5 Pu0_7 3.138152 1_545
Ga0_5 Pu0_6 3.142449 1_545
Ga0_5 Pu0_1 3.142449 1_555
Ga0_6 Pu0_1 3.135910 1_554
Ga0_6 Pu0_0 3.135910 1_555
Ga0_6 Pu0_6 3.135910 1_555
Ga0_6 Pu0_7 3.135910 1_554
Ga0_6 Pu0_3 3.138152 1_554
Ga0_6 Pu0_4 3.138152 1_555
Ga0_6 Pu0_5 3.142449 1_554
Ga0_6 Pu0_2 3.142449 1_555
Ga0_7 Pu0_0 3.135910 1_555
Ga0_7 Pu0_6 3.135910 1_555
Ga0_7 Pu0_1 3.135910 1_555
Ga0_7 Pu0_7 3.135910 1_555
Ga0_7 Pu0_2 3.138152 1_555
Ga0_7 Pu0_5 3.138152 1_555
Ga0_7 Pu0_4 3.142449 1_555
Ga0_7 Pu0_3 3.142449 1_555
