# generated using pymatgen
data_Mn7GeN6
_symmetry_space_group_name_H-M   'P 1'
_cell_length_a   8.92174687
_cell_length_b   6.91503709
_cell_length_c   9.93088720
_cell_angle_alpha   90.00000000
_cell_angle_beta   90.00000000
_cell_angle_gamma   90.00000000
_symmetry_Int_Tables_number   1
_chemical_formula_structural   Mn7GeN6
_chemical_formula_sum   'Mn28 Ge4 N24'
_cell_volume   612.67824550
_cell_formula_units_Z   4
loop_
 _symmetry_equiv_pos_site_id
 _symmetry_equiv_pos_as_xyz
  1  'x, y, z'
loop_
 _atom_site_type_symbol
 _atom_site_label
 _atom_site_symmetry_multiplicity
 _atom_site_fract_x
 _atom_site_fract_y
 _atom_site_fract_z
 _atom_site_occupancy
  Mn  Mn0  1  0.08630565  0.63553496  0.97219827  1
  Mn  Mn1  1  0.41369435  0.86446504  0.47219827  1
  Mn  Mn2  1  0.58630565  0.86446504  0.02780173  1
  Mn  Mn3  1  0.91369435  0.63553496  0.52780173  1
  Mn  Mn4  1  0.91369435  0.36446504  0.02780173  1
  Mn  Mn5  1  0.58630565  0.13553496  0.52780173  1
  Mn  Mn6  1  0.41369435  0.13553496  0.97219827  1
  Mn  Mn7  1  0.08630565  0.36446504  0.47219827  1
  Mn  Mn8  1  0.25321958  0.63789597  0.62606041  1
  Mn  Mn9  1  0.24678042  0.86210403  0.12606041  1
  Mn  Mn10  1  0.75321958  0.86210403  0.37393959  1
  Mn  Mn11  1  0.74678042  0.63789597  0.87393959  1
  Mn  Mn12  1  0.74678042  0.36210403  0.37393959  1
  Mn  Mn13  1  0.75321958  0.13789597  0.87393959  1
  Mn  Mn14  1  0.24678042  0.13789597  0.62606041  1
  Mn  Mn15  1  0.25321958  0.36210403  0.12606041  1
  Mn  Mn16  1  0.34707058  0.58111742  0.87792316  1
  Mn  Mn17  1  0.15292942  0.91888258  0.37792316  1
  Mn  Mn18  1  0.84707058  0.91888258  0.12207684  1
  Mn  Mn19  1  0.65292942  0.58111742  0.62207684  1
  Mn  Mn20  1  0.65292942  0.41888258  0.12207684  1
  Mn  Mn21  1  0.84707058  0.08111742  0.62207684  1
  Mn  Mn22  1  0.15292942  0.08111742  0.87792316  1
  Mn  Mn23  1  0.34707058  0.41888258  0.37792316  1
  Mn  Mn24  1  -0.00000000  0.38162905  0.75000000  1
  Mn  Mn25  1  0.50000000  0.11837095  0.25000000  1
  Mn  Mn26  1  -0.00000000  0.61837095  0.25000000  1
  Mn  Mn27  1  0.50000000  0.88162905  0.75000000  1
  Ge  Ge0  1  -0.00000000  0.81605721  0.75000000  1
  Ge  Ge1  1  0.50000000  0.68394279  0.25000000  1
  Ge  Ge2  1  -0.00000000  0.18394279  0.25000000  1
  Ge  Ge3  1  0.50000000  0.31605721  0.75000000  1
  N  N0  1  0.15149006  0.58029816  0.78844585  1
  N  N1  1  0.34850994  0.91970184  0.28844585  1
  N  N2  1  0.65149006  0.91970184  0.21155415  1
  N  N3  1  0.84850994  0.58029816  0.71155415  1
  N  N4  1  0.84850994  0.41970184  0.21155415  1
  N  N5  1  0.65149006  0.08029816  0.71155415  1
  N  N6  1  0.34850994  0.08029816  0.78844585  1
  N  N7  1  0.15149006  0.41970184  0.28844585  1
  N  N8  1  0.27299179  0.39517833  0.54975664  1
  N  N9  1  0.22700821  0.10482167  0.04975664  1
  N  N10  1  0.77299179  0.10482167  0.45024336  1
  N  N11  1  0.72700821  0.39517833  0.95024336  1
  N  N12  1  0.72700821  0.60482167  0.45024336  1
  N  N13  1  0.77299179  0.89517833  0.95024336  1
  N  N14  1  0.22700821  0.89517833  0.54975664  1
  N  N15  1  0.27299179  0.60482167  0.04975664  1
  N  N16  1  0.46360803  0.69612460  0.61172064  1
  N  N17  1  0.03639197  0.80387540  0.11172064  1
  N  N18  1  0.96360803  0.80387540  0.38827936  1
  N  N19  1  0.53639197  0.69612460  0.88827936  1
  N  N20  1  0.53639197  0.30387540  0.38827936  1
  N  N21  1  0.96360803  0.19612460  0.88827936  1
  N  N22  1  0.03639197  0.19612460  0.61172064  1
  N  N23  1  0.46360803  0.30387540  0.11172064  1
loop_
_geom_bond_atom_site_label_1
_geom_bond_atom_site_label_2
_geom_bond_distance
_geom_bond_site_symmetry_2
Mn0 N15 1.847285 1_556
Mn0 N17 1.863659 1_556
Mn0 N0 1.952970 1_555
Mn1 N14 1.847285 1_555
Mn1 N16 1.863659 1_555
Mn1 N1 1.952970 1_555
Mn2 N13 1.847285 1_554
Mn2 N19 1.863659 1_554
Mn2 N2 1.952970 1_555
Mn3 N12 1.847285 1_555
Mn3 N18 1.863659 1_555
Mn3 N3 1.952970 1_555
Mn4 N11 1.847285 1_554
Mn4 N21 1.863659 1_554
Mn4 N4 1.952970 1_555
Mn5 N10 1.847285 1_555
Mn5 N20 1.863659 1_555
Mn5 N5 1.952970 1_555
Mn6 N9 1.847285 1_556
Mn6 N23 1.863659 1_556
Mn6 N6 1.952970 1_555
Mn7 N8 1.847285 1_555
Mn7 N22 1.863659 1_555
Mn7 N7 1.952970 1_555
Mn8 N8 1.849961 1_555
Mn8 N0 1.892872 1_555
Mn8 N16 1.925009 1_555
Mn8 N14 1.947858 1_555
Mn9 N9 1.849961 1_565
Mn9 N1 1.892872 1_555
Mn9 N17 1.925009 1_555
Mn9 N15 1.947858 1_555
Mn10 N10 1.849961 1_565
Mn10 N2 1.892872 1_555
Mn10 N18 1.925009 1_555
Mn10 N12 1.947858 1_555
Mn11 N11 1.849961 1_555
Mn11 N3 1.892872 1_555
Mn11 N19 1.925009 1_555
Mn11 N13 1.947858 1_555
Mn12 N12 1.849961 1_555
Mn12 N4 1.892872 1_555
Mn12 N20 1.925009 1_555
Mn12 N10 1.947858 1_555
Mn13 N13 1.849961 1_545
Mn13 N5 1.892872 1_555
Mn13 N21 1.925009 1_555
Mn13 N11 1.947858 1_555
Mn14 N14 1.849961 1_545
Mn14 N6 1.892872 1_555
Mn14 N22 1.925009 1_555
Mn14 N8 1.947858 1_555
Mn15 N15 1.849961 1_555
Mn15 N7 1.892872 1_555
Mn15 N23 1.925009 1_555
Mn15 N9 1.947858 1_555
Mn16 N15 1.837301 1_556
Mn16 N19 1.869767 1_555
Mn16 N0 1.958154 1_555
Mn17 N14 1.837301 1_555
Mn17 N18 1.869767 1_455
Mn17 N1 1.958154 1_555
Mn18 N13 1.837301 1_554
Mn18 N17 1.869767 1_655
Mn18 N2 1.958154 1_555
Mn19 N12 1.837301 1_555
Mn19 N16 1.869767 1_555
Mn19 N3 1.958154 1_555
Mn20 N11 1.837301 1_554
Mn20 N23 1.869767 1_555
Mn20 N4 1.958154 1_555
Mn21 N10 1.837301 1_555
Mn21 N22 1.869767 1_655
Mn21 N5 1.958154 1_555
Mn22 N9 1.837301 1_556
Mn22 N21 1.869767 1_455
Mn22 N6 1.958154 1_555
Mn23 N8 1.837301 1_555
Mn23 N20 1.869767 1_555
Mn23 N7 1.958154 1_555
Mn24 N22 1.907012 1_555
Mn24 N21 1.907012 1_455
Mn24 N3 1.964641 1_455
Mn24 N0 1.964641 1_555
Mn25 N23 1.907012 1_555
Mn25 N20 1.907012 1_555
Mn25 N1 1.964641 1_545
Mn25 N2 1.964641 1_545
Mn26 N18 1.907012 1_455
Mn26 N17 1.907012 1_555
Mn26 N4 1.964641 1_455
Mn26 N7 1.964641 1_555
Mn27 N16 1.907012 1_555
Mn27 N19 1.907012 1_555
Mn27 N6 1.964641 1_565
Mn27 N5 1.964641 1_565
Ge0 N0 2.151813 1_555
Ge0 N3 2.151813 1_455
Ge1 N1 2.151813 1_555
Ge1 N2 2.151813 1_555
Ge2 N4 2.151813 1_455
Ge2 N7 2.151813 1_555
Ge3 N6 2.151813 1_555
Ge3 N5 2.151813 1_555
