# generated using pymatgen
data_Cr6Co2CuSe12
_symmetry_space_group_name_H-M   'P 1'
_cell_length_a   6.62993150
_cell_length_b   6.62993150
_cell_length_c   17.09676531
_cell_angle_alpha   78.33097976
_cell_angle_beta   78.33097976
_cell_angle_gamma   32.12505987
_symmetry_Int_Tables_number   1
_chemical_formula_structural   Cr6Co2CuSe12
_chemical_formula_sum   'Cr6 Co2 Cu1 Se12'
_cell_volume   390.67531304
_cell_formula_units_Z   1
loop_
 _symmetry_equiv_pos_site_id
 _symmetry_equiv_pos_as_xyz
  1  'x, y, z'
loop_
 _atom_site_type_symbol
 _atom_site_label
 _atom_site_symmetry_multiplicity
 _atom_site_fract_x
 _atom_site_fract_y
 _atom_site_fract_z
 _atom_site_occupancy
  Cr  Cr0  1  0.50092700  0.50092700  0.24080100  1
  Cr  Cr1  1  0.16657500  0.16657500  0.57312700  1
  Cr  Cr2  1  0.83348500  0.83348500  0.90696100  1
  Cr  Cr3  1  0.16651500  0.16651500  0.09303900  1
  Cr  Cr4  1  0.83342500  0.83342500  0.42687300  1
  Cr  Cr5  1  0.49907300  0.49907300  0.75919900  1
  Co  Co0  1  0.66671900  0.66671900  0.33375500  1
  Co  Co1  1  0.33328100  0.33328100  0.66624500  1
  Cu  Cu0  1  0.00000000  0.00000000  0.00000000  1
  Se  Se0  1  0.30383200  0.30383200  0.32449600  1
  Se  Se1  1  0.96976000  0.96976000  0.65633200  1
  Se  Se2  1  0.64488400  0.64488400  0.99296400  1
  Se  Se3  1  0.35511600  0.35511600  0.00703600  1
  Se  Se4  1  0.03024000  0.03024000  0.34366800  1
  Se  Se5  1  0.69616800  0.69616800  0.67550400  1
  Se  Se6  1  0.96721800  0.96721800  0.15176400  1
  Se  Se7  1  0.63478200  0.63478200  0.48111500  1
  Se  Se8  1  0.30153400  0.30153400  0.81418200  1
  Se  Se9  1  0.69846600  0.69846600  0.18581800  1
  Se  Se10  1  0.36521800  0.36521800  0.51888500  1
  Se  Se11  1  0.03278200  0.03278200  0.84823600  1
loop_
_geom_bond_atom_site_label_1
_geom_bond_atom_site_label_2
_geom_bond_distance
_geom_bond_site_symmetry_2
Cr0 Se6 2.478310 1_455
Cr0 Se6 2.478310 1_545
Cr0 Se9 2.494662 1_555
Cr0 Se0 2.615727 1_555
Cr0 Se4 2.621849 1_565
Cr0 Se4 2.621849 1_655
Cr1 Se7 2.504419 1_545
Cr1 Se7 2.504419 1_455
Cr1 Se10 2.505719 1_555
Cr1 Se1 2.609829 1_445
Cr1 Se5 2.617000 1_455
Cr1 Se5 2.617000 1_545
Cr2 Se8 2.513714 1_655
Cr2 Se8 2.513714 1_565
Cr2 Se11 2.526604 1_665
Cr2 Se2 2.539659 1_555
Cr2 Se3 2.562602 1_656
Cr2 Se3 2.562602 1_566
Cr3 Se9 2.513714 1_455
Cr3 Se9 2.513714 1_545
Cr3 Se6 2.526604 1_445
Cr3 Se3 2.539659 1_555
Cr3 Se2 2.562602 1_454
Cr3 Se2 2.562602 1_544
Cr4 Se10 2.504419 1_565
Cr4 Se10 2.504419 1_655
Cr4 Se7 2.505719 1_555
Cr4 Se4 2.609829 1_665
Cr4 Se0 2.617000 1_565
Cr4 Se0 2.617000 1_655
Cr5 Se11 2.478310 1_565
Cr5 Se11 2.478310 1_655
Cr5 Se8 2.494662 1_555
Cr5 Se5 2.615727 1_555
Cr5 Se1 2.621849 1_545
Cr5 Se1 2.621849 1_455
Co0 Se7 2.466029 1_555
Co0 Se9 2.475889 1_555
Co0 Se4 2.508783 1_565
Co0 Se4 2.508783 1_655
Co0 Se0 2.515181 1_565
Co0 Se0 2.515181 1_655
Co1 Se10 2.466029 1_555
Co1 Se8 2.475889 1_555
Co1 Se1 2.508783 1_545
Co1 Se1 2.508783 1_455
Co1 Se5 2.515181 1_455
Co1 Se5 2.515181 1_545
Cu0 Se6 2.539799 1_445
Cu0 Se11 2.539799 1_554
Cu0 Se2 2.587332 1_454
Cu0 Se3 2.587332 1_455
Cu0 Se2 2.587332 1_544
Cu0 Se3 2.587332 1_545
