# generated using pymatgen
data_Ca(BO3)2
_symmetry_space_group_name_H-M   'P 1'
_cell_length_a   7.03699737
_cell_length_b   7.03699737
_cell_length_c   4.50911357
_cell_angle_alpha   87.18463717
_cell_angle_beta   87.18463717
_cell_angle_gamma   93.43011222
_symmetry_Int_Tables_number   1
_chemical_formula_structural   Ca(BO3)2
_chemical_formula_sum   'Ca2 B4 O12'
_cell_volume   222.31559355
_cell_formula_units_Z   2
loop_
 _symmetry_equiv_pos_site_id
 _symmetry_equiv_pos_as_xyz
  1  'x, y, z'
loop_
 _atom_site_type_symbol
 _atom_site_label
 _atom_site_symmetry_multiplicity
 _atom_site_fract_x
 _atom_site_fract_y
 _atom_site_fract_z
 _atom_site_occupancy
  Ca  Ca0  1  0.22366300  0.77633700  0.75000000  1
  Ca  Ca1  1  0.77633700  0.22366300  0.25000000  1
  B  B0  1  0.87000300  0.73649900  0.32314500  1
  B  B1  1  0.26350100  0.12999700  0.17685500  1
  B  B2  1  0.12999700  0.26350100  0.67685500  1
  B  B3  1  0.73649900  0.87000300  0.82314500  1
  O  O0  1  0.88576500  0.79953000  0.62642200  1
  O  O1  1  0.20047000  0.11423500  0.87357800  1
  O  O2  1  0.11423500  0.20047000  0.37357800  1
  O  O3  1  0.79953000  0.88576500  0.12642200  1
  O  O4  1  0.76591500  0.55371500  0.32187600  1
  O  O5  1  0.44628500  0.23408500  0.17812400  1
  O  O6  1  0.23408500  0.44628500  0.67812400  1
  O  O7  1  0.55371500  0.76591500  0.82187600  1
  O  O8  1  0.05480000  0.67997900  0.20794100  1
  O  O9  1  0.32002100  0.94520000  0.29205900  1
  O  O10  1  0.94520000  0.32002100  0.79205900  1
  O  O11  1  0.67997900  0.05480000  0.70794100  1
loop_
_geom_bond_atom_site_label_1
_geom_bond_atom_site_label_2
_geom_bond_distance
_geom_bond_site_symmetry_2
Ca0 O6 2.365748 1_555
Ca0 O7 2.365748 1_555
Ca0 O8 2.379213 1_556
Ca0 O9 2.379213 1_555
Ca0 O1 2.481668 1_565
Ca0 O0 2.481668 1_455
Ca1 O5 2.365748 1_555
Ca1 O4 2.365748 1_555
Ca1 O11 2.379213 1_555
Ca1 O10 2.379213 1_554
Ca1 O2 2.481668 1_655
Ca1 O3 2.481668 1_545
B0 O4 1.442005 1_555
B0 O8 1.461145 1_655
B0 O0 1.465511 1_555
B0 O3 1.466326 1_555
B1 O5 1.442005 1_555
B1 O9 1.461145 1_545
B1 O1 1.465511 1_554
B1 O2 1.466326 1_555
B2 O6 1.442005 1_555
B2 O10 1.461145 1_455
B2 O2 1.465511 1_555
B2 O1 1.466326 1_555
B3 O7 1.442005 1_555
B3 O11 1.461145 1_565
B3 O3 1.465511 1_556
B3 O0 1.466326 1_555
