# generated using pymatgen
data_Y2Mg
_symmetry_space_group_name_H-M   'P 1'
_cell_length_a   13.62508931
_cell_length_b   13.62508931
_cell_length_c   15.68351169
_cell_angle_alpha   75.18019314
_cell_angle_beta   75.18019314
_cell_angle_gamma   31.01733107
_symmetry_Int_Tables_number   1
_chemical_formula_structural   Y2Mg
_chemical_formula_sum   'Y32 Mg16'
_cell_volume   1446.48435472
_cell_formula_units_Z   16
loop_
 _symmetry_equiv_pos_site_id
 _symmetry_equiv_pos_as_xyz
  1  'x, y, z'
loop_
 _atom_site_type_symbol
 _atom_site_label
 _atom_site_symmetry_multiplicity
 _atom_site_fract_x
 _atom_site_fract_y
 _atom_site_fract_z
 _atom_site_occupancy
  Y  Y0_0  1  0.15324053  0.15324053  0.06780749  1
  Y  Y0_1  1  0.15324053  0.15324053  0.56780749  1
  Y  Y0_2  1  0.15324053  0.65324053  0.06780749  1
  Y  Y0_3  1  0.15324053  0.65324053  0.56780749  1
  Y  Y0_4  1  0.65324052  0.15324052  0.06780749  1
  Y  Y0_5  1  0.65324052  0.15324052  0.56780749  1
  Y  Y0_6  1  0.65324053  0.65324053  0.06780749  1
  Y  Y0_7  1  0.65324053  0.65324052  0.56780749  1
  Y  Y1_0  1  0.00958392  0.00958392  0.10958960  1
  Y  Y1_1  1  0.00958391  0.00958391  0.60958960  1
  Y  Y1_2  1  0.00958392  0.50958392  0.10958960  1
  Y  Y1_3  1  0.00958392  0.50958392  0.60958959  1
  Y  Y1_4  1  0.50958391  0.00958391  0.10958960  1
  Y  Y1_5  1  0.50958391  0.00958391  0.60958959  1
  Y  Y1_6  1  0.50958391  0.50958391  0.10958960  1
  Y  Y1_7  1  0.50958391  0.50958391  0.60958960  1
  Y  Y2_0  1  0.49041609  0.49041609  0.39041041  1
  Y  Y2_1  1  0.49041609  0.49041609  0.89041041  1
  Y  Y2_2  1  0.49041609  0.99041609  0.39041041  1
  Y  Y2_3  1  0.49041609  0.99041609  0.89041041  1
  Y  Y2_4  1  0.99041609  0.49041609  0.39041041  1
  Y  Y2_5  1  0.99041609  0.49041608  0.89041041  1
  Y  Y2_6  1  0.99041609  0.99041609  0.39041041  1
  Y  Y2_7  1  0.99041609  0.99041609  0.89041041  1
  Y  Y3_0  1  0.34675948  0.34675948  0.43219251  1
  Y  Y3_1  1  0.34675948  0.34675948  0.93219251  1
  Y  Y3_2  1  0.34675948  0.84675948  0.43219251  1
  Y  Y3_3  1  0.34675948  0.84675948  0.93219251  1
  Y  Y3_4  1  0.84675948  0.34675947  0.43219251  1
  Y  Y3_5  1  0.84675948  0.34675947  0.93219251  1
  Y  Y3_6  1  0.84675948  0.84675948  0.43219251  1
  Y  Y3_7  1  0.84675948  0.84675948  0.93219251  1
  Mg  Mg0_0  1  0.32458942  0.32458942  0.23204983  1
  Mg  Mg0_1  1  0.32458942  0.32458942  0.73204983  1
  Mg  Mg0_2  1  0.32458942  0.82458942  0.23204983  1
  Mg  Mg0_3  1  0.32458942  0.82458942  0.73204983  1
  Mg  Mg0_4  1  0.82458942  0.32458942  0.23204983  1
  Mg  Mg0_5  1  0.82458942  0.32458942  0.73204983  1
  Mg  Mg0_6  1  0.82458942  0.82458942  0.23204983  1
  Mg  Mg0_7  1  0.82458942  0.82458942  0.73204983  1
  Mg  Mg1_0  1  0.17541058  0.17541058  0.26795018  1
  Mg  Mg1_1  1  0.17541058  0.17541058  0.76795018  1
  Mg  Mg1_2  1  0.17541058  0.67541058  0.26795018  1
  Mg  Mg1_3  1  0.17541058  0.67541058  0.76795018  1
  Mg  Mg1_4  1  0.67541058  0.17541058  0.26795018  1
  Mg  Mg1_5  1  0.67541058  0.17541058  0.76795018  1
  Mg  Mg1_6  1  0.67541058  0.67541058  0.26795018  1
  Mg  Mg1_7  1  0.67541058  0.67541058  0.76795018  1
loop_
_geom_bond_atom_site_label_1
_geom_bond_atom_site_label_2
_geom_bond_distance
_geom_bond_site_symmetry_2
Y0_0 Y3_3 3.422871 1_544
Y0_0 Y3_5 3.422871 1_454
Y0_0 Y1_4 3.537829 1_555
Y0_0 Y1_2 3.537829 1_555
Y0_0 Y2_5 3.594096 1_454
Y0_0 Y2_3 3.594096 1_544
Y0_0 Y0_6 3.643132 1_455
Y0_0 Y0_6 3.643132 1_545
Y0_0 Y1_0 3.653236 1_555
Y0_1 Y3_2 3.422871 1_545
Y0_1 Y3_4 3.422871 1_455
Y0_1 Y1_5 3.537829 1_555
Y0_1 Y1_3 3.537829 1_555
Y0_1 Y2_4 3.594096 1_455
Y0_1 Y2_2 3.594096 1_545
Y0_1 Y0_7 3.643132 1_455
Y0_1 Y0_7 3.643132 1_545
Y0_1 Y1_1 3.653236 1_555
Y0_2 Y3_7 3.422871 1_454
Y0_2 Y3_1 3.422871 1_554
Y0_2 Y1_6 3.537829 1_555
Y0_2 Y1_0 3.537829 1_565
Y0_2 Y2_1 3.594096 1_554
Y0_2 Y2_7 3.594096 1_454
Y0_2 Y0_4 3.643132 1_555
Y0_2 Y0_4 3.643132 1_465
Y0_2 Y1_2 3.653236 1_555
Y0_3 Y3_6 3.422871 1_455
Y0_3 Y3_0 3.422871 1_555
Y0_3 Y1_1 3.537829 1_565
Y0_3 Y1_7 3.537829 1_555
Y0_3 Y2_0 3.594096 1_555
Y0_3 Y2_6 3.594096 1_455
Y0_3 Y0_5 3.643132 1_465
Y0_3 Y0_5 3.643132 1_555
Y0_3 Y1_3 3.653236 1_555
Y0_4 Y3_7 3.422871 1_544
Y0_4 Y3_1 3.422871 1_554
Y0_4 Y1_6 3.537829 1_555
Y0_4 Y1_0 3.537829 1_655
Y0_4 Y2_1 3.594096 1_554
Y0_4 Y2_7 3.594096 1_544
Y0_4 Y1_4 3.653236 1_555
Y0_5 Y3_6 3.422871 1_545
Y0_5 Y3_0 3.422871 1_555
Y0_5 Y1_1 3.537829 1_655
Y0_5 Y1_7 3.537829 1_555
Y0_5 Y2_0 3.594096 1_555
Y0_5 Y2_6 3.594096 1_545
Y0_5 Y1_5 3.653236 1_555
Y0_6 Y3_3 3.422871 1_554
Y0_6 Y3_5 3.422871 1_554
Y0_6 Y1_4 3.537829 1_565
Y0_6 Y1_2 3.537829 1_655
Y0_6 Y2_5 3.594096 1_554
Y0_6 Y2_3 3.594096 1_554
Y0_6 Y1_6 3.653236 1_555
Y0_7 Y3_4 3.422871 1_555
Y0_7 Y3_2 3.422871 1_555
Y0_7 Y1_5 3.537829 1_565
Y0_7 Y1_3 3.537829 1_655
Y0_7 Y2_4 3.594096 1_555
Y0_7 Y2_2 3.594096 1_555
Y0_7 Y1_7 3.653236 1_555
Y1_0 Y3_5 3.594096 1_454
Y1_0 Y3_3 3.594096 1_544
Y1_0 Y2_7 3.603918 1_444
Y1_0 Y1_6 3.643132 1_455
Y1_0 Y1_6 3.643132 1_545
Y1_1 Y3_4 3.594096 1_455
Y1_1 Y3_2 3.594096 1_545
Y1_1 Y2_6 3.603918 1_445
Y1_1 Y1_7 3.643132 1_545
Y1_1 Y1_7 3.643132 1_455
Y1_2 Y3_1 3.594096 1_554
Y1_2 Y3_7 3.594096 1_454
Y1_2 Y2_5 3.603918 1_454
Y1_2 Y1_4 3.643132 1_465
Y1_2 Y1_4 3.643132 1_555
Y1_3 Y3_0 3.594096 1_555
Y1_3 Y3_6 3.594096 1_455
Y1_3 Y2_4 3.603918 1_455
Y1_3 Y1_5 3.643132 1_465
Y1_3 Y1_5 3.643132 1_555
Y1_4 Y3_1 3.594096 1_554
Y1_4 Y3_7 3.594096 1_544
Y1_4 Y2_3 3.603918 1_544
Y1_5 Y3_0 3.594096 1_555
Y1_5 Y3_6 3.594096 1_545
Y1_5 Y2_2 3.603918 1_545
Y1_6 Y3_5 3.594096 1_554
Y1_6 Y3_3 3.594096 1_554
Y1_6 Y2_1 3.603918 1_554
Y1_7 Y3_2 3.594096 1_555
Y1_7 Y3_4 3.594096 1_555
Y1_7 Y2_0 3.603918 1_555
Y2_0 Y3_4 3.537829 1_555
Y2_0 Y3_2 3.537829 1_555
Y2_0 Y2_6 3.643132 1_455
Y2_0 Y2_6 3.643132 1_545
Y2_0 Y3_0 3.653236 1_555
Y2_1 Y3_5 3.537829 1_555
Y2_1 Y3_3 3.537829 1_555
Y2_1 Y2_7 3.643132 1_455
Y2_1 Y2_7 3.643132 1_545
Y2_1 Y3_1 3.653236 1_555
Y2_2 Y3_0 3.537829 1_565
Y2_2 Y3_6 3.537829 1_555
Y2_2 Y2_4 3.643132 1_555
Y2_2 Y2_4 3.643132 1_465
Y2_2 Y3_2 3.653236 1_555
Y2_3 Y3_1 3.537829 1_565
Y2_3 Y3_7 3.537829 1_555
Y2_3 Y2_5 3.643132 1_555
Y2_3 Y2_5 3.643132 1_465
Y2_3 Y3_3 3.653236 1_555
Y2_4 Y3_0 3.537829 1_655
Y2_4 Y3_6 3.537829 1_555
Y2_4 Y3_4 3.653236 1_555
Y2_5 Y3_1 3.537829 1_655
Y2_5 Y3_7 3.537829 1_555
Y2_5 Y3_5 3.653236 1_555
Y2_6 Y3_4 3.537829 1_565
Y2_6 Y3_2 3.537829 1_655
Y2_6 Y3_6 3.653236 1_555
Y2_7 Y3_5 3.537829 1_565
Y2_7 Y3_3 3.537829 1_655
Y2_7 Y3_7 3.653236 1_555
Y3_0 Y3_6 3.643132 1_545
Y3_0 Y3_6 3.643132 1_455
Y3_1 Y3_7 3.643132 1_455
Y3_1 Y3_7 3.643132 1_545
Y3_2 Y3_4 3.643132 1_555
Y3_2 Y3_4 3.643132 1_465
Y3_3 Y3_5 3.643132 1_465
Y3_3 Y3_5 3.643132 1_555
Mg0_0 Y3_0 3.340948 1_555
Mg0_0 Y0_4 3.375538 1_555
Mg0_0 Y0_2 3.375538 1_555
Mg0_0 Mg1_4 3.381565 1_555
Mg0_0 Mg1_2 3.381565 1_555
Mg0_0 Y2_2 3.384883 1_545
Mg0_0 Y2_4 3.384883 1_455
Mg0_0 Y1_2 3.414793 1_555
Mg0_0 Y1_4 3.414793 1_555
Mg0_1 Y3_1 3.340948 1_555
Mg0_1 Y0_5 3.375538 1_555
Mg0_1 Y0_3 3.375538 1_555
Mg0_1 Mg1_5 3.381565 1_555
Mg0_1 Mg1_3 3.381565 1_555
Mg0_1 Y2_3 3.384883 1_545
Mg0_1 Y2_5 3.384883 1_455
Mg0_1 Y1_3 3.414793 1_555
Mg0_1 Y1_5 3.414793 1_555
Mg0_2 Y3_2 3.340948 1_555
Mg0_2 Y0_0 3.375538 1_565
Mg0_2 Y0_6 3.375538 1_555
Mg0_2 Mg1_0 3.381565 1_565
Mg0_2 Mg1_6 3.381565 1_555
Mg0_2 Y2_6 3.384883 1_455
Mg0_2 Y2_0 3.384883 1_555
Mg0_2 Y1_0 3.414793 1_565
Mg0_2 Y1_6 3.414793 1_555
Mg0_3 Y3_3 3.340948 1_555
Mg0_3 Y0_1 3.375538 1_565
Mg0_3 Y0_7 3.375538 1_555
Mg0_3 Mg1_1 3.381565 1_565
Mg0_3 Mg1_7 3.381565 1_555
Mg0_3 Y2_7 3.384883 1_455
Mg0_3 Y2_1 3.384883 1_555
Mg0_3 Y1_7 3.414793 1_555
Mg0_3 Y1_1 3.414793 1_565
Mg0_4 Y3_4 3.340948 1_555
Mg0_4 Y0_0 3.375538 1_655
Mg0_4 Y0_6 3.375538 1_555
Mg0_4 Mg1_0 3.381565 1_655
Mg0_4 Mg1_6 3.381565 1_555
Mg0_4 Y2_6 3.384883 1_545
Mg0_4 Y2_0 3.384883 1_555
Mg0_4 Y1_0 3.414793 1_655
Mg0_4 Y1_6 3.414793 1_555
Mg0_5 Y3_5 3.340948 1_555
Mg0_5 Y0_1 3.375538 1_655
Mg0_5 Y0_7 3.375538 1_555
Mg0_5 Mg1_1 3.381565 1_655
Mg0_5 Mg1_7 3.381565 1_555
Mg0_5 Y2_7 3.384883 1_545
Mg0_5 Y2_1 3.384883 1_555
Mg0_5 Y1_7 3.414793 1_555
Mg0_5 Y1_1 3.414793 1_655
Mg0_6 Y3_6 3.340948 1_555
Mg0_6 Y0_4 3.375538 1_565
Mg0_6 Y0_2 3.375538 1_655
Mg0_6 Mg1_4 3.381565 1_565
Mg0_6 Mg1_2 3.381565 1_655
Mg0_6 Y2_2 3.384883 1_555
Mg0_6 Y2_4 3.384883 1_555
Mg0_6 Y1_2 3.414793 1_655
Mg0_6 Y1_4 3.414793 1_565
Mg0_7 Y3_7 3.340948 1_555
Mg0_7 Y0_5 3.375538 1_565
Mg0_7 Y0_3 3.375538 1_655
Mg0_7 Mg1_3 3.381565 1_655
Mg0_7 Mg1_5 3.381565 1_565
Mg0_7 Y2_3 3.384883 1_555
Mg0_7 Y2_5 3.384883 1_555
Mg0_7 Y1_3 3.414793 1_655
Mg0_7 Y1_5 3.414793 1_565
Mg1_0 Y0_0 3.340948 1_555
Mg1_0 Y3_2 3.375538 1_545
Mg1_0 Y3_4 3.375538 1_455
Mg1_0 Y1_4 3.384883 1_555
Mg1_0 Y1_2 3.384883 1_555
Mg1_0 Y2_4 3.414793 1_455
Mg1_0 Y2_2 3.414793 1_545
Mg1_1 Y0_1 3.340948 1_555
Mg1_1 Y3_3 3.375538 1_545
Mg1_1 Y3_5 3.375538 1_455
Mg1_1 Y1_5 3.384883 1_555
Mg1_1 Y1_3 3.384883 1_555
Mg1_1 Y2_5 3.414793 1_455
Mg1_1 Y2_3 3.414793 1_545
Mg1_2 Y0_2 3.340948 1_555
Mg1_2 Y3_6 3.375538 1_455
Mg1_2 Y3_0 3.375538 1_555
Mg1_2 Y1_6 3.384883 1_555
Mg1_2 Y1_0 3.384883 1_565
Mg1_2 Y2_0 3.414793 1_555
Mg1_2 Y2_6 3.414793 1_455
Mg1_3 Y0_3 3.340948 1_555
Mg1_3 Y3_7 3.375538 1_455
Mg1_3 Y3_1 3.375538 1_555
Mg1_3 Y1_1 3.384883 1_565
Mg1_3 Y1_7 3.384883 1_555
Mg1_3 Y2_1 3.414793 1_555
Mg1_3 Y2_7 3.414793 1_455
Mg1_4 Y0_4 3.340948 1_555
Mg1_4 Y3_6 3.375538 1_545
Mg1_4 Y3_0 3.375538 1_555
Mg1_4 Y1_6 3.384883 1_555
Mg1_4 Y1_0 3.384883 1_655
Mg1_4 Y2_0 3.414793 1_555
Mg1_4 Y2_6 3.414793 1_545
Mg1_5 Y0_5 3.340948 1_555
Mg1_5 Y3_7 3.375538 1_545
Mg1_5 Y3_1 3.375538 1_555
Mg1_5 Y1_1 3.384883 1_655
Mg1_5 Y1_7 3.384883 1_555
Mg1_5 Y2_1 3.414793 1_555
Mg1_5 Y2_7 3.414793 1_545
Mg1_6 Y0_6 3.340948 1_555
Mg1_6 Y3_2 3.375538 1_555
Mg1_6 Y3_4 3.375538 1_555
Mg1_6 Y1_4 3.384883 1_565
Mg1_6 Y1_2 3.384883 1_655
Mg1_6 Y2_4 3.414793 1_555
Mg1_6 Y2_2 3.414793 1_555
Mg1_7 Y0_7 3.340948 1_555
Mg1_7 Y3_3 3.375538 1_555
Mg1_7 Y3_5 3.375538 1_555
Mg1_7 Y1_5 3.384883 1_565
Mg1_7 Y1_3 3.384883 1_655
Mg1_7 Y2_5 3.414793 1_555
Mg1_7 Y2_3 3.414793 1_555
