# generated using pymatgen
data_Na2Ti2As2O
_symmetry_space_group_name_H-M   'P 1'
_cell_length_a   8.25643746
_cell_length_b   8.25643746
_cell_length_c   8.25643746
_cell_angle_alpha   151.46368773
_cell_angle_beta   151.46368773
_cell_angle_gamma   40.79701858
_symmetry_Int_Tables_number   1
_chemical_formula_structural   Na2Ti2As2O
_chemical_formula_sum   'Na2 Ti2 As2 O1'
_cell_volume   128.17605520
_cell_formula_units_Z   1
loop_
 _symmetry_equiv_pos_site_id
 _symmetry_equiv_pos_as_xyz
  1  'x, y, z'
loop_
 _atom_site_type_symbol
 _atom_site_label
 _atom_site_symmetry_multiplicity
 _atom_site_fract_x
 _atom_site_fract_y
 _atom_site_fract_z
 _atom_site_occupancy
  Na  Na0  1  0.18196500  0.18196500  0.00000000  1
  Na  Na1  1  0.81803500  0.81803500  0.00000000  1
  Ti  Ti0  1  0.50000000  0.00000000  0.50000000  1
  Ti  Ti1  1  0.00000000  0.50000000  0.50000000  1
  As  As0  1  0.38253800  0.38253800  0.00000000  1
  As  As1  1  0.61746200  0.61746200  0.00000000  1
  O  O0  1  0.00000000  0.00000000  0.00000000  1
loop_
_geom_bond_atom_site_label_1
_geom_bond_atom_site_label_2
_geom_bond_distance
_geom_bond_site_symmetry_2
Na0 O0 2.816340 1_555
Na1 O0 2.816340 1_665
As0 Ti0 2.728716 1_554
As0 Ti1 2.728716 1_655
As0 Ti0 2.728716 1_565
As0 Ti1 2.728716 1_554
As0 Na1 3.046012 1_444
As0 Na1 3.046012 1_545
As0 Na1 3.046012 1_455
As0 Na1 3.046012 1_556
As0 Na0 3.104343 1_555
As1 Ti0 2.728716 1_565
As1 Ti0 2.728716 1_554
As1 Ti1 2.728716 1_554
As1 Ti1 2.728716 1_655
As1 Na0 3.046012 1_666
As1 Na0 3.046012 1_554
As1 Na0 3.046012 1_655
As1 Na0 3.046012 1_565
As1 Na1 3.104343 1_555
O0 Ti1 2.034885 1_555
O0 Ti0 2.034885 1_555
O0 Ti0 2.034885 1_454
O0 Ti1 2.034885 1_544
