# generated using pymatgen
data_Sr2MgTi6N2O11
_symmetry_space_group_name_H-M   'P 1'
_cell_length_a   3.86702500
_cell_length_b   7.93008536
_cell_length_c   9.47938534
_cell_angle_alpha   82.39344641
_cell_angle_beta   89.99922139
_cell_angle_gamma   75.88324941
_symmetry_Int_Tables_number   1
_chemical_formula_structural   Sr2MgTi6N2O11
_chemical_formula_sum   'Sr2 Mg1 Ti6 N2 O11'
_cell_volume   279.27633414
_cell_formula_units_Z   1
loop_
 _symmetry_equiv_pos_site_id
 _symmetry_equiv_pos_as_xyz
  1  'x, y, z'
loop_
 _atom_site_type_symbol
 _atom_site_label
 _atom_site_symmetry_multiplicity
 _atom_site_fract_x
 _atom_site_fract_y
 _atom_site_fract_z
 _atom_site_occupancy
  Sr  Sr0  1  0.54684000  0.90363100  0.79949900  1
  Sr  Sr1  1  0.45902600  0.07880900  0.27994700  1
  Mg  Mg0  1  0.28447400  0.42802700  0.03841700  1
  Ti  Ti0  1  0.11209200  0.77274800  0.11102000  1
  Ti  Ti1  1  0.17293100  0.65101600  0.41468400  1
  Ti  Ti2  1  0.22487200  0.54723500  0.73863900  1
  Ti  Ti3  1  0.76302800  0.47086600  0.25630700  1
  Ti  Ti4  1  0.83443300  0.32816600  0.57552200  1
  Ti  Ti5  1  0.88290500  0.23122200  0.91282500  1
  N  N0  1  0.23265800  0.53158700  0.22904700  1
  N  N1  1  0.83541900  0.32612700  0.08736200  1
  O  O0  1  0.06049200  0.87592700  0.29819500  1
  O  O1  1  0.12486300  0.74703200  0.61613000  1
  O  O2  1  0.17079500  0.65535000  0.90768000  1
  O  O3  1  0.61524600  0.76639700  0.11071800  1
  O  O4  1  0.69655900  0.60379500  0.43544500  1
  O  O5  1  0.75968000  0.47764300  0.74665400  1
  O  O6  1  0.29851900  0.39997200  0.56623000  1
  O  O7  1  0.35945700  0.27807800  0.87667100  1
  O  O8  1  0.87061600  0.25566700  0.38888700  1
  O  O9  1  0.93476200  0.12756100  0.69203600  1
  O  O10  1  0.00099500  0.99482500  0.97278300  1
loop_
_geom_bond_atom_site_label_1
_geom_bond_atom_site_label_2
_geom_bond_distance
_geom_bond_site_symmetry_2
Mg0 O2 2.000206 1_554
Mg0 O7 2.040439 1_554
Mg0 N0 2.071867 1_555
Mg0 N1 2.113842 1_555
Mg0 N1 2.113982 1_455
N0 Ti3 1.997590 1_455
N0 Ti3 1.997595 1_555
N0 Ti0 2.031044 1_555
N0 Ti1 2.093190 1_555
N1 Ti5 1.897299 1_554
N1 Ti3 2.071345 1_555
O0 Ti1 1.920894 1_555
O0 Ti0 2.040133 1_555
O0 Sr1 2.475702 1_465
O0 Sr1 2.475745 1_565
O1 Ti2 1.795146 1_555
O1 Ti1 2.139321 1_555
O1 Sr0 2.962632 1_455
O1 Sr0 2.964185 1_555
O2 Ti2 1.903351 1_555
O2 Ti0 2.237325 1_556
O2 Sr0 2.810372 1_455
O2 Sr0 2.811553 1_555
O3 Ti0 1.934054 1_555
O3 Ti0 1.934228 1_655
O3 Ti3 2.492807 1_555
O3 Sr0 2.994565 1_554
O4 Ti1 1.972161 1_655
O4 Ti1 1.972241 1_555
O4 Ti3 2.098237 1_555
O4 Ti4 2.342685 1_555
O5 Ti2 2.004887 1_655
O5 Ti2 2.004895 1_555
O5 Ti4 2.112389 1_555
O5 Ti5 2.293003 1_555
O6 Ti4 2.009454 1_555
O6 Ti4 2.009456 1_455
O6 Ti2 2.111624 1_555
O6 Ti1 2.243686 1_555
O7 Ti5 1.987929 1_455
O7 Ti5 1.988032 1_555
O7 Ti2 2.292930 1_555
O7 Sr0 3.066435 1_545
O8 Ti4 1.926178 1_555
O8 Ti3 1.936688 1_555
O8 Sr1 2.652840 1_655
O8 Sr1 2.653128 1_555
O9 Ti4 1.770561 1_555
O9 Ti5 2.339110 1_555
O9 Sr0 2.694794 1_545
O9 Sr0 2.695240 1_645
O10 Ti5 1.829268 1_465
O10 Ti0 2.005782 1_556
O10 Sr0 2.690658 1_455
O10 Sr0 2.691922 1_555
