# generated using pymatgen
data_Mg6CuSnO8
_symmetry_space_group_name_H-M   'P 1'
_cell_length_a   8.85858361
_cell_length_b   4.39862310
_cell_length_c   4.39862310
_cell_angle_alpha   90.00000000
_cell_angle_beta   90.00000000
_cell_angle_gamma   90.00000000
_symmetry_Int_Tables_number   1
_chemical_formula_structural   Mg6CuSnO8
_chemical_formula_sum   'Mg6 Cu1 Sn1 O8'
_cell_volume   171.39485851
_cell_formula_units_Z   1
loop_
 _symmetry_equiv_pos_site_id
 _symmetry_equiv_pos_as_xyz
  1  'x, y, z'
loop_
 _atom_site_type_symbol
 _atom_site_label
 _atom_site_symmetry_multiplicity
 _atom_site_fract_x
 _atom_site_fract_y
 _atom_site_fract_z
 _atom_site_occupancy
  Mg  Mg0  1  -0.00000000  0.50000000  0.50000000  1
  Mg  Mg1  1  0.50000000  0.50000000  0.50000000  1
  Mg  Mg2  1  0.23072150  -0.00000000  0.50000000  1
  Mg  Mg3  1  0.76927850  0.00000000  0.50000000  1
  Mg  Mg4  1  0.23072150  0.50000000  0.00000000  1
  Mg  Mg5  1  0.76927850  0.50000000  -0.00000000  1
  Cu  Cu0  1  -0.00000000  -0.00000000  0.00000000  1
  Sn  Sn0  1  0.50000000  0.00000000  0.00000000  1
  O  O0  1  0.24883361  0.00000000  -0.00000000  1
  O  O1  1  0.75116639  -0.00000000  0.00000000  1
  O  O2  1  0.25105673  0.50000000  0.50000000  1
  O  O3  1  0.74894327  0.50000000  0.50000000  1
  O  O4  1  -0.00000000  -0.00000000  0.50000000  1
  O  O5  1  0.50000000  0.00000000  0.50000000  1
  O  O6  1  -0.00000000  0.50000000  0.00000000  1
  O  O7  1  0.50000000  0.50000000  0.00000000  1
loop_
_geom_bond_atom_site_label_1
_geom_bond_atom_site_label_2
_geom_bond_distance
_geom_bond_site_symmetry_2
Mg0 O6 2.199312 1_556
Mg0 O6 2.199312 1_555
Mg0 O4 2.199312 1_555
Mg0 O4 2.199312 1_565
Mg0 O3 2.224007 1_455
Mg0 O2 2.224007 1_555
Mg1 O7 2.199312 1_555
Mg1 O7 2.199312 1_556
Mg1 O5 2.199312 1_555
Mg1 O5 2.199312 1_565
Mg1 O2 2.205285 1_555
Mg1 O3 2.205285 1_555
Mg2 O4 2.043866 1_555
Mg2 O0 2.205156 1_555
Mg2 O0 2.205156 1_556
Mg2 O2 2.206677 1_545
Mg2 O2 2.206677 1_555
Mg2 O5 2.385426 1_555
Mg3 O4 2.043866 1_655
Mg3 O1 2.205156 1_555
Mg3 O1 2.205156 1_556
Mg3 O3 2.206677 1_545
Mg3 O3 2.206677 1_555
Mg3 O5 2.385426 1_555
Mg4 O6 2.043866 1_555
Mg4 O0 2.205156 1_555
Mg4 O0 2.205156 1_565
Mg4 O2 2.206677 1_554
Mg4 O2 2.206677 1_555
Mg4 O7 2.385426 1_555
Mg5 O6 2.043866 1_655
Mg5 O1 2.205156 1_555
Mg5 O1 2.205156 1_565
Mg5 O3 2.206677 1_554
Mg5 O3 2.206677 1_555
Mg5 O7 2.385426 1_555
Cu0 O6 2.199312 1_555
Cu0 O4 2.199312 1_555
Cu0 O4 2.199312 1_554
Cu0 O6 2.199312 1_545
Cu0 O0 2.204313 1_555
Cu0 O1 2.204313 1_455
O0 Sn0 2.224978 1_555
O1 Sn0 2.224978 1_555
O5 Sn0 2.199312 1_555
O5 Sn0 2.199312 1_556
O7 Sn0 2.199312 1_565
O7 Sn0 2.199312 1_555
