# generated using pymatgen
data_Er(Fe5Mo)2
_symmetry_space_group_name_H-M   'P 1'
_cell_length_a   4.73996000
_cell_length_b   6.48342876
_cell_length_c   6.48342876
_cell_angle_alpha   97.51785618
_cell_angle_beta   111.44107964
_cell_angle_gamma   68.55892036
_symmetry_Int_Tables_number   1
_chemical_formula_structural   Er(Fe5Mo)2
_chemical_formula_sum   'Er1 Fe10 Mo2'
_cell_volume   172.61917487
_cell_formula_units_Z   1
loop_
 _symmetry_equiv_pos_site_id
 _symmetry_equiv_pos_as_xyz
  1  'x, y, z'
loop_
 _atom_site_type_symbol
 _atom_site_label
 _atom_site_symmetry_multiplicity
 _atom_site_fract_x
 _atom_site_fract_y
 _atom_site_fract_z
 _atom_site_occupancy
  Er  Er0  1  0.00000000  0.00000000  0.00000000  1
  Fe  Fe0  1  0.71760600  0.78239400  0.21760600  1
  Fe  Fe1  1  0.28239400  0.21760600  0.78239400  1
  Fe  Fe2  1  0.50000000  0.77805700  0.77805700  1
  Fe  Fe3  1  0.50000000  0.22194300  0.22194300  1
  Fe  Fe4  1  0.50000000  0.00000000  0.50000000  1
  Fe  Fe5  1  0.00000000  0.00000000  0.50000000  1
  Fe  Fe6  1  0.50000000  0.50000000  0.00000000  1
  Fe  Fe7  1  0.00000000  0.50000000  0.00000000  1
  Fe  Fe8  1  0.64136600  0.35863400  0.64136600  1
  Fe  Fe9  1  0.35863400  0.64136600  0.35863400  1
  Mo  Mo0  1  0.00000000  0.35712400  0.35712400  1
  Mo  Mo1  1  0.00000000  0.64287600  0.64287600  1
loop_
_geom_bond_atom_site_label_1
_geom_bond_atom_site_label_2
_geom_bond_distance
_geom_bond_site_symmetry_2
Er0 Fe1 3.009098 1_454
Er0 Fe0 3.009098 1_545
Er0 Fe0 3.009098 1_445
Er0 Fe1 3.009098 1_554
Er0 Fe2 3.035813 1_444
Er0 Fe3 3.035813 1_455
Er0 Fe3 3.035813 1_555
Er0 Fe2 3.035813 1_544
Er0 Mo0 3.052740 1_555
Er0 Mo1 3.052740 1_544
Er0 Fe9 3.055801 1_545
Er0 Fe8 3.055801 1_454
Er0 Fe4 3.241714 1_555
Er0 Fe6 3.241714 1_455
Er0 Fe4 3.241714 1_454
Er0 Fe7 3.241714 1_555
Er0 Fe6 3.241714 1_545
Er0 Fe5 3.241714 1_554
Er0 Fe5 3.241714 1_555
Er0 Fe7 3.241714 1_545
Fe0 Fe6 2.459124 1_555
Fe0 Fe7 2.459124 1_655
Fe0 Fe4 2.459124 1_565
Fe0 Fe5 2.459124 1_665
Fe0 Fe2 2.652776 1_554
Fe0 Fe3 2.652776 1_565
Fe0 Fe9 2.657212 1_555
Fe0 Fe9 2.657212 1_655
Fe0 Mo0 2.698398 1_655
Fe0 Mo1 2.698398 1_655
Fe1 Fe4 2.459124 1_555
Fe1 Fe5 2.459124 1_555
Fe1 Fe6 2.459124 1_556
Fe1 Fe7 2.459124 1_556
Fe1 Fe2 2.652776 1_545
Fe1 Fe3 2.652776 1_556
Fe1 Fe8 2.657212 1_555
Fe1 Fe8 2.657212 1_455
Fe1 Mo0 2.698398 1_555
Fe1 Mo1 2.698398 1_555
Fe2 Fe5 2.449353 1_565
Fe2 Fe6 2.449353 1_556
Fe2 Fe4 2.449353 1_565
Fe2 Fe7 2.449353 1_656
Fe2 Mo1 2.636681 1_555
Fe2 Mo1 2.636681 1_655
Fe2 Fe8 2.664656 1_555
Fe2 Fe9 2.664656 1_555
Fe3 Fe5 2.449353 1_655
Fe3 Fe7 2.449353 1_555
Fe3 Fe6 2.449353 1_555
Fe3 Fe4 2.449353 1_555
Fe3 Mo0 2.636681 1_555
Fe3 Mo0 2.636681 1_655
Fe3 Fe8 2.664656 1_555
Fe3 Fe9 2.664656 1_555
Fe4 Fe5 2.369980 1_555
Fe4 Fe5 2.369980 1_655
Fe4 Mo0 2.603907 1_555
Fe4 Mo1 2.603907 1_645
Fe4 Fe9 2.613025 1_545
Fe4 Fe8 2.613025 1_555
Fe5 Mo1 2.603907 1_545
Fe5 Mo0 2.603907 1_555
Fe5 Fe8 2.613025 1_455
Fe5 Fe9 2.613025 1_545
Fe6 Fe7 2.369980 1_655
Fe6 Fe7 2.369980 1_555
Fe6 Mo1 2.603907 1_554
Fe6 Mo0 2.603907 1_655
Fe6 Fe8 2.613025 1_554
Fe6 Fe9 2.613025 1_555
Fe7 Mo1 2.603907 1_554
Fe7 Mo0 2.603907 1_555
Fe7 Fe8 2.613025 1_454
Fe7 Fe9 2.613025 1_555
Fe8 Fe9 2.409065 1_555
Fe8 Mo1 2.925633 1_555
Fe8 Mo1 2.925633 1_655
Fe8 Mo0 2.925633 1_655
Fe8 Mo0 2.925633 1_555
Fe9 Mo0 2.925633 1_555
Fe9 Mo0 2.925633 1_655
Fe9 Mo1 2.925633 1_555
Fe9 Mo1 2.925633 1_655
Mo0 Mo1 2.442644 1_555
