# generated using pymatgen
data_InSnTe2
_symmetry_space_group_name_H-M   'P 1'
_cell_length_a   7.67423609
_cell_length_b   7.67423609
_cell_length_c   7.67423637
_cell_angle_alpha   33.82362051
_cell_angle_beta   33.82362051
_cell_angle_gamma   33.82361933
_symmetry_Int_Tables_number   1
_chemical_formula_structural   InSnTe2
_chemical_formula_sum   'In1 Sn1 Te2'
_cell_volume   124.79156207
_cell_formula_units_Z   1
loop_
 _symmetry_equiv_pos_site_id
 _symmetry_equiv_pos_as_xyz
  1  'x, y, z'
loop_
 _atom_site_type_symbol
 _atom_site_label
 _atom_site_symmetry_multiplicity
 _atom_site_fract_x
 _atom_site_fract_y
 _atom_site_fract_z
 _atom_site_occupancy
  In  In0  1  -0.00000000  -0.00000000  0.00000000  1
  Sn  Sn0  1  0.50000000  0.50000000  0.50000000  1
  Te  Te0  1  0.25087721  0.25087721  0.25087721  1
  Te  Te1  1  0.74912279  0.74912279  0.74912279  1
loop_
_geom_bond_atom_site_label_1
_geom_bond_atom_site_label_2
_geom_bond_distance
_geom_bond_site_symmetry_2
In0 Te0 3.137222 1_455
In0 Te0 3.137222 1_545
In0 Te1 3.137222 1_544
In0 Te1 3.137222 1_454
In0 Te0 3.137223 1_554
In0 Te1 3.137223 1_445
Sn0 Te1 3.159061 1_455
Sn0 Te1 3.159061 1_545
Sn0 Te0 3.159061 1_565
Sn0 Te0 3.159061 1_655
Sn0 Te1 3.159061 1_554
Sn0 Te0 3.159061 1_556
