# generated using pymatgen
data_CaAl2Si3(HO3)4
_symmetry_space_group_name_H-M   'P 1'
_cell_length_a   9.75501796
_cell_length_b   9.75501796
_cell_length_c   10.04224259
_cell_angle_alpha   83.68304496
_cell_angle_beta   83.68304496
_cell_angle_gamma   140.58163677
_symmetry_Int_Tables_number   1
_chemical_formula_structural   CaAl2Si3(HO3)4
_chemical_formula_sum   'Ca2 Al4 Si6 H8 O24'
_cell_volume   573.59694311
_cell_formula_units_Z   2
loop_
 _symmetry_equiv_pos_site_id
 _symmetry_equiv_pos_as_xyz
  1  'x, y, z'
loop_
 _atom_site_type_symbol
 _atom_site_label
 _atom_site_symmetry_multiplicity
 _atom_site_fract_x
 _atom_site_fract_y
 _atom_site_fract_z
 _atom_site_occupancy
  Ca  Ca0  1  0.83016600  0.11923600  0.56994000  1
  Ca  Ca1  1  0.11923600  0.83016600  0.06994000  1
  Al  Al0  1  0.67151700  0.50649000  0.33687300  1
  Al  Al1  1  0.50649000  0.67151700  0.83687300  1
  Al  Al2  1  0.57096100  0.24797500  0.69871100  1
  Al  Al3  1  0.24797500  0.57096100  0.19871100  1
  Si  Si0  1  0.24648400  0.99328200  0.50193200  1
  Si  Si1  1  0.99328200  0.24648400  0.00193200  1
  Si  Si2  1  0.67656600  0.73705900  0.09406700  1
  Si  Si3  1  0.73705900  0.67656600  0.59406700  1
  Si  Si4  1  0.55927500  0.00241700  0.93557700  1
  Si  Si5  1  0.00241700  0.55927500  0.43557700  1
  H  H0  1  0.41438000  0.31284000  0.05500300  1
  H  H1  1  0.31284000  0.41438000  0.55500300  1
  H  H2  1  0.36632600  0.18862500  0.20544700  1
  H  H3  1  0.18862500  0.36632600  0.70544700  1
  H  H4  1  0.83295500  0.11373900  0.28619600  1
  H  H5  1  0.11373900  0.83295500  0.78619600  1
  H  H6  1  0.60628100  0.85046200  0.35684700  1
  H  H7  1  0.85046200  0.60628100  0.85684700  1
  O  O0  1  0.43271300  0.21385800  0.36160200  1
  O  O1  1  0.21385800  0.43271300  0.86160200  1
  O  O2  1  0.33022100  0.05143100  0.64096100  1
  O  O3  1  0.05143100  0.33022100  0.14096100  1
  O  O4  1  0.90207700  0.01431100  0.02685000  1
  O  O5  1  0.01431100  0.90207700  0.52685000  1
  O  O6  1  0.79369300  0.19479300  0.97720700  1
  O  O7  1  0.19479300  0.79369300  0.47720700  1
  O  O8  1  0.79313100  0.33868700  0.57755200  1
  O  O9  1  0.33868700  0.79313100  0.07755200  1
  O  O10  1  0.61902100  0.57385800  0.47079200  1
  O  O11  1  0.57385800  0.61902100  0.97079200  1
  O  O12  1  0.59658800  0.91759700  0.82152800  1
  O  O13  1  0.91759700  0.59658800  0.32152800  1
  O  O14  1  0.48452500  0.66172700  0.21292800  1
  O  O15  1  0.66172700  0.48452500  0.71292800  1
  O  O16  1  0.76011100  0.65949700  0.16376500  1
  O  O17  1  0.65949700  0.76011100  0.66376500  1
  O  O18  1  0.49317300  0.09984900  0.87007900  1
  O  O19  1  0.09984900  0.49317300  0.37007900  1
  O  O20  1  0.33097100  0.16649200  0.11447600  1
  O  O21  1  0.16649200  0.33097100  0.61447600  1
  O  O22  1  0.71380400  0.99427700  0.37870900  1
  O  O23  1  0.99427700  0.71380400  0.87870900  1
loop_
_geom_bond_atom_site_label_1
_geom_bond_atom_site_label_2
_geom_bond_distance
_geom_bond_site_symmetry_2
Ca0 O21 2.299195 1_655
Ca0 O22 2.306348 1_545
Ca0 O17 2.418539 1_545
Ca0 O8 2.438044 1_555
Ca0 O12 2.481711 1_545
Ca0 O19 2.579791 1_655
Ca1 O20 2.299195 1_565
Ca1 O23 2.306348 1_454
Ca1 O16 2.418539 1_455
Ca1 O9 2.438044 1_555
Ca1 O13 2.481711 1_455
Ca1 O18 2.579791 1_564
Al0 O10 1.750899 1_555
Al0 O0 1.754829 1_555
Al0 O16 1.761275 1_555
Al0 O13 1.785406 1_555
Al1 O11 1.750899 1_555
Al1 O1 1.754829 1_555
Al1 O17 1.761275 1_555
Al1 O12 1.785406 1_555
Al2 O15 1.752899 1_555
Al2 O18 1.759721 1_555
Al2 O2 1.764939 1_555
Al2 O8 1.783298 1_555
Al3 O14 1.752899 1_555
Al3 O19 1.759721 1_555
Al3 O3 1.764939 1_555
Al3 O9 1.783298 1_555
H0 O20 0.983641 1_555
H1 O21 0.983641 1_555
H2 O20 0.998915 1_555
H3 O21 0.998915 1_555
H4 O22 1.001734 1_545
H4 O3 1.677294 1_655
H5 O23 1.001734 1_455
H5 O2 1.677294 1_565
H6 O22 0.980527 1_555
H7 O23 0.980527 1_555
O0 Si0 1.626619 1_545
O1 Si1 1.626619 1_456
O2 Si0 1.627151 1_545
O3 Si1 1.627151 1_455
O4 Si2 1.639714 1_545
O4 Si1 1.642152 1_555
O5 Si3 1.639714 1_455
O5 Si0 1.642152 1_555
O6 Si4 1.636555 1_555
O6 Si1 1.650378 1_556
O7 Si5 1.636555 1_555
O7 Si0 1.650378 1_555
O8 Si5 1.651627 1_655
O9 Si4 1.651627 1_564
O10 Si3 1.632905 1_555
O11 Si2 1.632905 1_556
O12 Si4 1.646503 1_565
O13 Si5 1.646503 1_655
O14 Si2 1.631607 1_555
O15 Si3 1.631607 1_555
O16 Si2 1.639599 1_555
O17 Si3 1.639599 1_555
O18 Si4 1.629258 1_555
O19 Si5 1.629258 1_555
