# generated using pymatgen
data_CsSO4
_symmetry_space_group_name_H-M   'P 1'
_cell_length_a   8.54756000
_cell_length_b   6.66896900
_cell_length_c   9.92829299
_cell_angle_alpha   56.67495596
_cell_angle_beta   90.00000000
_cell_angle_gamma   90.00000000
_symmetry_Int_Tables_number   1
_chemical_formula_structural   CsSO4
_chemical_formula_sum   'Cs4 S4 O16'
_cell_volume   472.88645964
_cell_formula_units_Z   4
loop_
 _symmetry_equiv_pos_site_id
 _symmetry_equiv_pos_as_xyz
  1  'x, y, z'
loop_
 _atom_site_type_symbol
 _atom_site_label
 _atom_site_symmetry_multiplicity
 _atom_site_fract_x
 _atom_site_fract_y
 _atom_site_fract_z
 _atom_site_occupancy
  Cs  Cs0  1  0.38043800  0.07738200  0.65308700  1
  Cs  Cs1  1  0.11956200  0.07738200  0.15308700  1
  Cs  Cs2  1  0.61956200  0.92261800  0.34691300  1
  Cs  Cs3  1  0.88043800  0.92261800  0.84691300  1
  S  S0  1  0.14236900  0.56293700  0.64029300  1
  S  S1  1  0.35763100  0.56293700  0.14029300  1
  S  S2  1  0.85763100  0.43706300  0.35970700  1
  S  S3  1  0.64236900  0.43706300  0.85970700  1
  O  O0  1  0.98688700  0.58475500  0.52812000  1
  O  O1  1  0.51311300  0.58475500  0.02812000  1
  O  O2  1  0.01311300  0.41524500  0.47188000  1
  O  O3  1  0.48688700  0.41524500  0.97188000  1
  O  O4  1  0.27828100  0.64721100  0.53371500  1
  O  O5  1  0.22171900  0.64721100  0.03371500  1
  O  O6  1  0.72171900  0.35278900  0.46628500  1
  O  O7  1  0.77828100  0.35278900  0.96628500  1
  O  O8  1  0.08585500  0.72587000  0.68329300  1
  O  O9  1  0.41414500  0.72587000  0.18329300  1
  O  O10  1  0.91414500  0.27413000  0.31670700  1
  O  O11  1  0.58585500  0.27413000  0.81670700  1
  O  O12  1  0.15018600  0.30998000  0.77201800  1
  O  O13  1  0.34981400  0.30998000  0.27201800  1
  O  O14  1  0.84981400  0.69002000  0.22798200  1
  O  O15  1  0.65018600  0.69002000  0.72798200  1
loop_
_geom_bond_atom_site_label_1
_geom_bond_atom_site_label_2
_geom_bond_distance
_geom_bond_site_symmetry_2
Cs0 O12 3.112291 1_555
Cs0 O11 3.128164 1_555
Cs0 O13 3.215611 1_555
Cs0 O15 3.229851 1_545
Cs0 O8 3.339612 1_545
Cs0 O6 3.402910 1_555
Cs0 O4 3.414630 1_555
Cs0 O5 3.526935 1_546
Cs0 O1 3.535871 1_546
Cs0 O2 3.703703 1_555
Cs0 O4 3.759373 1_545
Cs1 O13 3.112291 1_555
Cs1 O10 3.128164 1_455
Cs1 O12 3.215611 1_554
Cs1 O14 3.229851 1_445
Cs1 O9 3.339612 1_545
Cs1 O7 3.402910 1_454
Cs1 O5 3.414630 1_555
Cs1 O4 3.526935 1_545
Cs1 O0 3.535871 1_445
Cs1 O3 3.703703 1_554
Cs1 O5 3.759373 1_545
Cs2 O14 3.112291 1_555
Cs2 O9 3.128164 1_555
Cs2 O15 3.215611 1_555
Cs2 O13 3.229851 1_565
Cs2 O10 3.339612 1_565
Cs2 O4 3.402910 1_555
Cs2 O6 3.414630 1_555
Cs2 O7 3.526935 1_564
Cs2 O3 3.535871 1_564
Cs2 O0 3.703703 1_555
Cs2 O6 3.759373 1_565
Cs3 O15 3.112291 1_555
Cs3 O8 3.128164 1_655
Cs3 O14 3.215611 1_556
Cs3 O12 3.229851 1_665
Cs3 O11 3.339612 1_565
Cs3 O5 3.402910 1_656
Cs3 O7 3.414630 1_555
Cs3 O6 3.526935 1_565
Cs3 O2 3.535871 1_665
Cs3 O1 3.703703 1_556
Cs3 O7 3.759373 1_565
O0 S0 1.688087 1_655
O1 S1 1.688087 1_555
O2 S2 1.688087 1_455
O3 S3 1.688087 1_555
O4 S0 1.460024 1_555
O5 S1 1.460024 1_555
O6 S2 1.460024 1_555
O7 S3 1.460024 1_555
O8 S0 1.451205 1_555
O9 S1 1.451205 1_555
O10 S2 1.451205 1_555
O11 S3 1.451205 1_555
O12 S0 1.461684 1_555
O13 S1 1.461684 1_555
O14 S2 1.461684 1_555
O15 S3 1.461684 1_555
