# generated using pymatgen
data_ReO5
_symmetry_space_group_name_H-M   'P 1'
_cell_length_a   7.25576019
_cell_length_b   7.25576019
_cell_length_c   7.25576019
_cell_angle_alpha   136.27103738
_cell_angle_beta   136.27103738
_cell_angle_gamma   63.56158442
_symmetry_Int_Tables_number   1
_chemical_formula_structural   ReO5
_chemical_formula_sum   'Re2 O10'
_cell_volume   180.14061946
_cell_formula_units_Z   2
loop_
 _symmetry_equiv_pos_site_id
 _symmetry_equiv_pos_as_xyz
  1  'x, y, z'
loop_
 _atom_site_type_symbol
 _atom_site_label
 _atom_site_symmetry_multiplicity
 _atom_site_fract_x
 _atom_site_fract_y
 _atom_site_fract_z
 _atom_site_occupancy
  Re  Re0  1  0.75000000  0.25000000  0.50000000  1
  Re  Re1  1  0.00000000  0.00000000  0.00000000  1
  O  O0  1  0.25000000  0.75000000  0.50000000  1
  O  O1  1  0.50000000  0.50000000  0.00000000  1
  O  O2  1  0.06217800  0.46590000  0.86544900  1
  O  O3  1  0.60045100  0.19672900  0.13455100  1
  O  O4  1  0.94672900  0.31217800  0.09627800  1
  O  O5  1  0.21590000  0.85045100  0.90372200  1
  O  O6  1  0.68782200  0.78410000  0.63455100  1
  O  O7  1  0.14954900  0.05327100  0.36544900  1
  O  O8  1  0.80327100  0.93782200  0.40372200  1
  O  O9  1  0.53410000  0.39954900  0.59627800  1
loop_
_geom_bond_atom_site_label_1
_geom_bond_atom_site_label_2
_geom_bond_distance
_geom_bond_site_symmetry_2
O2 Re0 1.758356 1_455
O3 Re0 1.758356 1_555
O4 Re1 1.758356 1_655
O5 Re1 1.758356 1_566
O6 Re1 1.758356 1_666
O7 Re1 1.758356 1_555
O8 Re0 1.758356 1_565
O9 Re0 1.758356 1_555
