# generated using pymatgen
data_TiV3Sb2(PO4)6
_symmetry_space_group_name_H-M   'P 1'
_cell_length_a   8.90745875
_cell_length_b   8.90745875
_cell_length_c   8.90745834
_cell_angle_alpha   58.60483532
_cell_angle_beta   58.60483532
_cell_angle_gamma   58.60483864
_symmetry_Int_Tables_number   1
_chemical_formula_structural   TiV3Sb2(PO4)6
_chemical_formula_sum   'Ti1 V3 Sb2 P6 O24'
_cell_volume   483.80253110
_cell_formula_units_Z   1
loop_
 _symmetry_equiv_pos_site_id
 _symmetry_equiv_pos_as_xyz
  1  'x, y, z'
loop_
 _atom_site_type_symbol
 _atom_site_label
 _atom_site_symmetry_multiplicity
 _atom_site_fract_x
 _atom_site_fract_y
 _atom_site_fract_z
 _atom_site_occupancy
  Ti  Ti0  1  0.14865700  0.14865700  0.14865700  1
  V  V0  1  0.64524400  0.64524400  0.64524400  1
  V  V1  1  0.85284600  0.85284600  0.85284600  1
  V  V2  1  0.35346100  0.35346100  0.35346100  1
  Sb  Sb0  1  0.99647200  0.99647200  0.99647200  1
  Sb  Sb1  1  0.49420700  0.49420700  0.49420700  1
  P  P0  1  0.54062600  0.95968300  0.25173200  1
  P  P1  1  0.25173200  0.54062600  0.95968300  1
  P  P2  1  0.95968300  0.25173200  0.54062600  1
  P  P3  1  0.03953900  0.75326000  0.45867500  1
  P  P4  1  0.75326000  0.45867500  0.03953900  1
  P  P5  1  0.45867500  0.03953900  0.75326000  1
  O  O0  1  0.30158600  0.50815700  0.11450400  1
  O  O1  1  0.11450400  0.30158600  0.50815700  1
  O  O2  1  0.50815700  0.11450400  0.30158600  1
  O  O3  1  0.73227600  0.93774700  0.08405800  1
  O  O4  1  0.37912600  0.00323700  0.19502000  1
  O  O5  1  0.55670700  0.76855700  0.41374700  1
  O  O6  1  0.08405800  0.73227600  0.93774700  1
  O  O7  1  0.41374700  0.55670700  0.76855700  1
  O  O8  1  0.00923300  0.80476000  0.61279400  1
  O  O9  1  0.76855700  0.41374700  0.55670700  1
  O  O10  1  0.06517900  0.92047000  0.26491800  1
  O  O11  1  0.80476000  0.61279400  0.00923300  1
  O  O12  1  0.19502000  0.37912600  0.00323700  1
  O  O13  1  0.93774700  0.08405800  0.73227600  1
  O  O14  1  0.23467600  0.58762800  0.43499500  1
  O  O15  1  0.00323700  0.19502000  0.37912600  1
  O  O16  1  0.58762800  0.43499500  0.23467600  1
  O  O17  1  0.92047000  0.26491800  0.06517900  1
  O  O18  1  0.43499500  0.23467600  0.58762800  1
  O  O19  1  0.61279400  0.00923300  0.80476000  1
  O  O20  1  0.26491800  0.06517900  0.92047000  1
  O  O21  1  0.48792100  0.88643800  0.70186200  1
  O  O22  1  0.88643800  0.70186200  0.48792100  1
  O  O23  1  0.70186200  0.48792100  0.88643800  1
loop_
_geom_bond_atom_site_label_1
_geom_bond_atom_site_label_2
_geom_bond_distance
_geom_bond_site_symmetry_2
O0 P1 1.507098 1_554
O0 V2 1.987037 1_555
O1 P2 1.507098 1_455
O1 V2 1.987037 1_555
O2 P0 1.507098 1_545
O2 V2 1.987037 1_555
O3 P0 1.575819 1_555
O3 V1 2.106886 1_554
O3 Sb0 2.316219 1_554
O4 P0 1.564166 1_545
O4 Ti0 1.902164 1_555
O5 P0 1.550177 1_555
O5 V0 2.124259 1_555
O5 Sb1 2.443876 1_555
O6 P1 1.575819 1_555
O6 V1 2.106886 1_455
O6 Sb0 2.316219 1_455
O7 P1 1.550177 1_555
O7 V0 2.124259 1_555
O7 Sb1 2.443876 1_555
O8 P3 1.519510 1_555
O8 V1 1.981237 1_455
O9 P2 1.550177 1_555
O9 V0 2.124259 1_555
O9 Sb1 2.443876 1_555
O10 P3 1.585788 1_555
O10 Ti0 2.082307 1_565
O10 Sb0 2.440698 1_454
O11 P4 1.519510 1_555
O11 V1 1.981237 1_554
O12 P1 1.564166 1_554
O12 Ti0 1.902164 1_555
O13 P2 1.575819 1_555
O13 V1 2.106886 1_545
O13 Sb0 2.316219 1_545
O14 P3 1.585198 1_555
O14 V2 2.115649 1_555
O14 Sb1 2.263556 1_555
O15 P2 1.564166 1_455
O15 Ti0 1.902164 1_555
O16 P4 1.585198 1_555
O16 V2 2.115649 1_555
O16 Sb1 2.263555 1_555
O17 P4 1.585788 1_555
O17 Ti0 2.082307 1_655
O17 Sb0 2.440698 1_544
O18 P5 1.585198 1_555
O18 V2 2.115649 1_555
O18 Sb1 2.263556 1_555
O19 P5 1.519510 1_555
O19 V1 1.981237 1_545
O20 P5 1.585788 1_555
O20 Ti0 2.082307 1_556
O20 Sb0 2.440698 1_445
O21 P5 1.514383 1_565
O21 V0 2.022283 1_555
O22 P3 1.514383 1_655
O22 V0 2.022283 1_555
O23 P4 1.514383 1_556
O23 V0 2.022283 1_555
