# generated using pymatgen
data_LaPdO3
_symmetry_space_group_name_H-M   'P 1'
_cell_length_a   5.61986720
_cell_length_b   5.91080386
_cell_length_c   7.82399752
_cell_angle_alpha   90.00083176
_cell_angle_beta   90.00225173
_cell_angle_gamma   89.99945815
_symmetry_Int_Tables_number   1
_chemical_formula_structural   LaPdO3
_chemical_formula_sum   'La4 Pd4 O12'
_cell_volume   259.89702325
_cell_formula_units_Z   4
loop_
 _symmetry_equiv_pos_site_id
 _symmetry_equiv_pos_as_xyz
  1  'x, y, z'
loop_
 _atom_site_type_symbol
 _atom_site_label
 _atom_site_symmetry_multiplicity
 _atom_site_fract_x
 _atom_site_fract_y
 _atom_site_fract_z
 _atom_site_occupancy
  La  La0  1  0.01650694  0.93616313  0.75006905  1
  La  La1  1  0.51652050  0.56381568  0.24994108  1
  La  La2  1  0.48346949  0.43617809  0.75008320  1
  La  La3  1  0.98346909  0.06380060  0.24991432  1
  Pd  Pd0  1  0.50001684  -0.00001488  0.49998954  1
  Pd  Pd1  1  -0.00000656  0.50001168  0.50001209  1
  Pd  Pd2  1  -0.00000718  0.50001052  -0.00001235  1
  Pd  Pd3  1  0.50001174  -0.00001376  0.00000486  1
  O  O0  1  0.69825901  0.29768350  0.45160593  1
  O  O1  1  0.19825936  0.20233334  0.54837493  1
  O  O2  1  0.80172532  0.79767658  0.04837668  1
  O  O3  1  0.30172534  0.70232073  0.95162690  1
  O  O4  1  0.30174822  0.70230885  0.54839835  1
  O  O5  1  0.80175950  0.79769583  0.45161634  1
  O  O6  1  0.19826813  0.20233764  0.95162269  1
  O  O7  1  0.69827121  0.29768484  0.04837389  1
  O  O8  1  0.10191645  0.46616861  0.24994516  1
  O  O9  1  0.60195366  0.03383429  0.75005823  1
  O  O10  1  0.39807190  0.96617491  0.24994412  1
  O  O11  1  0.89806107  0.53382983  0.75005497  1
loop_
_geom_bond_atom_site_label_1
_geom_bond_atom_site_label_2
_geom_bond_distance
_geom_bond_site_symmetry_2
La0 O9 2.400194 1_465
La0 O6 2.450575 1_565
La0 O1 2.451327 1_565
La0 O11 2.469523 1_455
La0 O3 2.639401 1_555
La0 O4 2.640095 1_555
La0 O2 2.752211 1_456
La0 O5 2.752955 1_455
La1 O8 2.400447 1_555
La1 O7 2.450492 1_555
La1 O0 2.450938 1_555
La1 O10 2.469662 1_555
La1 O2 2.639533 1_555
La1 O5 2.640129 1_555
La1 O3 2.752233 1_554
La1 O4 2.753165 1_555
La2 O11 2.400386 1_555
La2 O3 2.450403 1_555
La2 O4 2.450993 1_555
La2 O9 2.469628 1_555
La2 O6 2.639342 1_555
La2 O1 2.640075 1_555
La2 O7 2.752072 1_556
La2 O0 2.753343 1_555
La3 O10 2.400399 1_645
La3 O2 2.450262 1_545
La3 O5 2.451018 1_545
La3 O8 2.469723 1_655
La3 O7 2.639379 1_555
La3 O0 2.640174 1_555
La3 O6 2.752236 1_654
La3 O1 2.753228 1_655
O0 Pd1 2.109281 1_655
O0 Pd0 2.116818 1_555
O1 Pd0 2.109428 1_555
O1 Pd1 2.116728 1_555
O2 Pd3 2.109064 1_565
O2 Pd2 2.116716 1_655
O3 Pd2 2.109178 1_556
O3 Pd3 2.116755 1_566
O4 Pd1 2.109241 1_555
O4 Pd0 2.116823 1_565
O5 Pd0 2.109147 1_565
O5 Pd1 2.116708 1_655
O6 Pd3 2.109354 1_556
O6 Pd2 2.116738 1_556
O7 Pd2 2.109216 1_655
O7 Pd3 2.116826 1_555
O8 Pd2 2.047600 1_555
O8 Pd1 2.048454 1_555
O9 Pd3 2.047595 1_556
O9 Pd0 2.048451 1_555
O10 Pd3 2.047515 1_565
O10 Pd0 2.048267 1_565
O11 Pd2 2.047414 1_656
O11 Pd1 2.048275 1_655
