# generated using pymatgen
data_Ho3Te3N
_symmetry_space_group_name_H-M   'P 1'
_cell_length_a   11.91322313
_cell_length_b   8.06747915
_cell_length_c   8.60340981
_cell_angle_alpha   71.19691715
_cell_angle_beta   90.00000000
_cell_angle_gamma   90.00000000
_symmetry_Int_Tables_number   1
_chemical_formula_structural   Ho3Te3N
_chemical_formula_sum   'Ho12 Te12 N4'
_cell_volume   782.74244045
_cell_formula_units_Z   4
loop_
 _symmetry_equiv_pos_site_id
 _symmetry_equiv_pos_as_xyz
  1  'x, y, z'
loop_
 _atom_site_type_symbol
 _atom_site_label
 _atom_site_symmetry_multiplicity
 _atom_site_fract_x
 _atom_site_fract_y
 _atom_site_fract_z
 _atom_site_occupancy
  Ho  Ho0  1  0.02265684  0.60150107  0.13748254  1
  Ho  Ho1  1  0.52265684  0.39849893  0.36251746  1
  Ho  Ho2  1  0.97734316  0.39849893  0.86251746  1
  Ho  Ho3  1  0.47734316  0.60150107  0.63748254  1
  Ho  Ho4  1  0.41236830  0.83860245  0.20619265  1
  Ho  Ho5  1  0.91236830  0.16139755  0.29380735  1
  Ho  Ho6  1  0.58763170  0.16139755  0.79380735  1
  Ho  Ho7  1  0.08763170  0.83860245  0.70619265  1
  Ho  Ho8  1  0.70862118  0.76579202  0.34738507  1
  Ho  Ho9  1  0.20862118  0.23420798  0.15261493  1
  Ho  Ho10  1  0.29137882  0.23420798  0.65261493  1
  Ho  Ho11  1  0.79137882  0.76579202  0.84738507  1
  Te  Te0  1  0.97976133  0.77731955  0.41383709  1
  Te  Te1  1  0.47976133  0.22268045  0.08616291  1
  Te  Te2  1  0.02023867  0.22268045  0.58616291  1
  Te  Te3  1  0.52023867  0.77731955  0.91383709  1
  Te  Te4  1  0.26632243  0.50814491  0.31143925  1
  Te  Te5  1  0.76632243  0.49185509  0.18856075  1
  Te  Te6  1  0.73367757  0.49185509  0.68856075  1
  Te  Te7  1  0.23367757  0.50814491  0.81143925  1
  Te  Te8  1  0.30762646  0.95423431  0.48252810  1
  Te  Te9  1  0.80762646  0.04576569  0.01747190  1
  Te  Te10  1  0.69237354  0.04576569  0.51747190  1
  Te  Te11  1  0.19237354  0.95423431  0.98252810  1
  N  N0  1  0.53470599  0.67271630  0.37704288  1
  N  N1  1  0.03470599  0.32728370  0.12295712  1
  N  N2  1  0.46529401  0.32728370  0.62295712  1
  N  N3  1  0.96529401  0.67271630  0.87704288  1
loop_
_geom_bond_atom_site_label_1
_geom_bond_atom_site_label_2
_geom_bond_distance
_geom_bond_site_symmetry_2
Ho0 N3 2.233345 1_454
Ho0 N1 2.260189 1_555
Ho0 Te5 3.170252 1_455
Ho0 Te0 3.178041 1_455
Ho0 Te4 3.241448 1_555
Ho0 Te11 3.393748 1_554
Ho1 N2 2.233345 1_555
Ho1 N0 2.260189 1_555
Ho1 Te4 3.170252 1_555
Ho1 Te1 3.178041 1_555
Ho1 Te5 3.241448 1_555
Ho1 Te10 3.393748 1_555
Ho2 N1 2.233345 1_656
Ho2 N3 2.260189 1_555
Ho2 Te7 3.170252 1_655
Ho2 Te2 3.178041 1_655
Ho2 Te6 3.241448 1_555
Ho2 Te9 3.393748 1_556
Ho3 N0 2.233345 1_555
Ho3 N2 2.260189 1_555
Ho3 Te6 3.170252 1_555
Ho3 Te3 3.178041 1_555
Ho3 Te7 3.241448 1_555
Ho3 Te8 3.393748 1_555
Ho4 N0 2.192631 1_555
Ho4 Te3 3.003998 1_554
Ho4 Te1 3.041264 1_565
Ho4 Te4 3.065661 1_555
Ho4 Te8 3.083681 1_555
Ho4 Te11 3.206983 1_554
Ho5 N1 2.192631 1_655
Ho5 Te2 3.003998 1_655
Ho5 Te0 3.041264 1_545
Ho5 Te5 3.065661 1_555
Ho5 Te9 3.083681 1_555
Ho5 Te10 3.206983 1_555
Ho6 N2 2.192631 1_555
Ho6 Te1 3.003998 1_556
Ho6 Te3 3.041264 1_545
Ho6 Te6 3.065661 1_555
Ho6 Te10 3.083681 1_555
Ho6 Te9 3.206983 1_556
Ho7 N3 2.192631 1_455
Ho7 Te0 3.003998 1_455
Ho7 Te2 3.041264 1_565
Ho7 Te7 3.065661 1_555
Ho7 Te11 3.083681 1_555
Ho7 Te8 3.206983 1_555
Ho8 N0 2.190470 1_555
Ho8 Te5 3.028255 1_555
Ho8 Te6 3.067129 1_555
Ho8 Te10 3.067747 1_565
Ho8 Te9 3.227452 1_565
Ho8 Te0 3.286893 1_555
Ho9 N1 2.190470 1_555
Ho9 Te4 3.028255 1_555
Ho9 Te7 3.067129 1_554
Ho9 Te11 3.067747 1_544
Ho9 Te8 3.227452 1_545
Ho9 Te1 3.286893 1_555
Ho10 N2 2.190470 1_555
Ho10 Te7 3.028255 1_555
Ho10 Te4 3.067129 1_555
Ho10 Te8 3.067747 1_545
Ho10 Te11 3.227452 1_545
Ho10 Te2 3.286893 1_555
Ho11 N3 2.190470 1_555
Ho11 Te6 3.028255 1_555
Ho11 Te5 3.067129 1_556
Ho11 Te9 3.067747 1_566
Ho11 Te10 3.227452 1_565
Ho11 Te3 3.286893 1_555
