# generated using pymatgen
data_Ca5P3O13
_symmetry_space_group_name_H-M   'P 1'
_cell_length_a   9.53412436
_cell_length_b   9.53412436
_cell_length_c   6.92464400
_cell_angle_alpha   90.00000000
_cell_angle_beta   90.00000000
_cell_angle_gamma   120.00000248
_symmetry_Int_Tables_number   1
_chemical_formula_structural   Ca5P3O13
_chemical_formula_sum   'Ca10 P6 O26'
_cell_volume   545.11696275
_cell_formula_units_Z   2
loop_
 _symmetry_equiv_pos_site_id
 _symmetry_equiv_pos_as_xyz
  1  'x, y, z'
loop_
 _atom_site_type_symbol
 _atom_site_label
 _atom_site_symmetry_multiplicity
 _atom_site_fract_x
 _atom_site_fract_y
 _atom_site_fract_z
 _atom_site_occupancy
  Ca  Ca0  1  0.33333300  0.66666700  0.50136200  1
  Ca  Ca1  1  0.66666700  0.33333300  0.00136200  1
  Ca  Ca2  1  0.66666700  0.33333300  0.49863800  1
  Ca  Ca3  1  0.33333300  0.66666700  0.99863800  1
  Ca  Ca4  1  0.24618200  0.24978200  0.75000000  1
  Ca  Ca5  1  0.75021800  0.99640000  0.75000000  1
  Ca  Ca6  1  0.00360000  0.75381800  0.75000000  1
  Ca  Ca7  1  0.75381800  0.75021800  0.25000000  1
  Ca  Ca8  1  0.24978200  0.00360000  0.25000000  1
  Ca  Ca9  1  0.99640000  0.24618200  0.25000000  1
  P  P0  1  0.39872500  0.02974100  0.75000000  1
  P  P1  1  0.97025900  0.36898400  0.75000000  1
  P  P2  1  0.63101600  0.60127500  0.75000000  1
  P  P3  1  0.60127500  0.97025900  0.25000000  1
  P  P4  1  0.02974100  0.63101600  0.25000000  1
  P  P5  1  0.36898400  0.39872500  0.25000000  1
  O  O0  1  0.33261200  0.84489300  0.75000000  1
  O  O1  1  0.15510700  0.48771900  0.75000000  1
  O  O2  1  0.51228100  0.66738800  0.75000000  1
  O  O3  1  0.66738800  0.15510700  0.25000000  1
  O  O4  1  0.84489300  0.51228100  0.25000000  1
  O  O5  1  0.48771900  0.33261200  0.25000000  1
  O  O6  1  0.58778100  0.12497400  0.75000000  1
  O  O7  1  0.87502600  0.46280700  0.75000000  1
  O  O8  1  0.53719300  0.41221900  0.75000000  1
  O  O9  1  0.41221900  0.87502600  0.25000000  1
  O  O10  1  0.12497400  0.53719300  0.25000000  1
  O  O11  1  0.46280700  0.58778100  0.25000000  1
  O  O12  1  0.34065400  0.08370100  0.56968500  1
  O  O13  1  0.91629900  0.25695300  0.56968500  1
  O  O14  1  0.74304700  0.65934600  0.56968500  1
  O  O15  1  0.65934600  0.91629900  0.06968500  1
  O  O16  1  0.08370100  0.74304700  0.06968500  1
  O  O17  1  0.25695300  0.34065400  0.06968500  1
  O  O18  1  0.65934600  0.91629900  0.43031500  1
  O  O19  1  0.08370100  0.74304700  0.43031500  1
  O  O20  1  0.25695300  0.34065400  0.43031500  1
  O  O21  1  0.34065400  0.08370100  0.93031500  1
  O  O22  1  0.91629900  0.25695300  0.93031500  1
  O  O23  1  0.74304700  0.65934600  0.93031500  1
  O  O24  1  0.00000000  0.00000000  0.75000000  1
  O  O25  1  0.00000000  0.00000000  0.25000000  1
loop_
_geom_bond_atom_site_label_1
_geom_bond_atom_site_label_2
_geom_bond_distance
_geom_bond_site_symmetry_2
Ca0 O0 2.421458 1_555
Ca0 O1 2.421461 1_555
Ca0 O2 2.421465 1_555
Ca0 O9 2.459169 1_555
Ca0 O10 2.459170 1_555
Ca0 O11 2.459176 1_555
Ca0 O19 2.858324 1_555
Ca0 O18 2.858331 1_555
Ca0 O20 2.858333 1_555
Ca1 O3 2.421458 1_555
Ca1 O4 2.421461 1_555
Ca1 O5 2.421465 1_555
Ca1 O6 2.459169 1_554
Ca1 O7 2.459170 1_554
Ca1 O8 2.459176 1_554
Ca1 O22 2.858324 1_554
Ca1 O21 2.858331 1_554
Ca1 O23 2.858333 1_554
Ca2 O3 2.421458 1_555
Ca2 O4 2.421461 1_555
Ca2 O5 2.421465 1_555
Ca2 O6 2.459169 1_555
Ca2 O7 2.459170 1_555
Ca2 O8 2.459176 1_555
Ca2 O13 2.858324 1_555
Ca2 O12 2.858331 1_555
Ca2 O14 2.858333 1_555
Ca3 O0 2.421458 1_555
Ca3 O1 2.421461 1_555
Ca3 O2 2.421465 1_555
Ca3 O9 2.459169 1_556
Ca3 O10 2.459170 1_556
Ca3 O11 2.459176 1_556
Ca3 O16 2.858324 1_556
Ca3 O15 2.858331 1_556
Ca3 O17 2.858333 1_556
Ca4 O17 2.360654 1_556
Ca4 O20 2.360654 1_555
Ca4 O24 2.364478 1_555
Ca4 O8 2.408234 1_555
Ca4 O21 2.510738 1_555
Ca4 O12 2.510738 1_555
Ca4 O1 2.805347 1_555
Ca5 O18 2.360654 1_555
Ca5 O15 2.360654 1_556
Ca5 O24 2.364478 1_665
Ca5 O6 2.408234 1_565
Ca5 O13 2.510738 1_565
Ca5 O22 2.510738 1_565
Ca5 O2 2.805347 1_555
Ca6 O19 2.360654 1_555
Ca6 O16 2.360654 1_556
Ca6 O24 2.364478 1_565
Ca6 O7 2.408234 1_455
Ca6 O23 2.510738 1_455
Ca6 O14 2.510738 1_455
Ca6 O0 2.805347 1_555
Ca7 O14 2.360654 1_555
Ca7 O23 2.360654 1_554
Ca7 O25 2.364478 1_665
Ca7 O11 2.408234 1_555
Ca7 O18 2.510738 1_555
Ca7 O15 2.510738 1_555
Ca7 O4 2.805347 1_555
Ca8 O12 2.360654 1_555
Ca8 O21 2.360654 1_554
Ca8 O25 2.364478 1_555
Ca8 O9 2.408234 1_545
Ca8 O19 2.510738 1_545
Ca8 O16 2.510738 1_545
Ca8 O5 2.805347 1_555
Ca9 O13 2.360654 1_555
Ca9 O22 2.360654 1_554
Ca9 O25 2.364478 1_655
Ca9 O10 2.408234 1_655
Ca9 O17 2.510738 1_655
Ca9 O20 2.510738 1_655
Ca9 O3 2.805347 1_555
O0 P0 1.546729 1_565
O1 P1 1.546729 1_455
O2 P2 1.546729 1_555
O3 P3 1.546729 1_545
O4 P4 1.546729 1_655
O5 P5 1.546729 1_555
O6 P0 1.561011 1_555
O7 P1 1.561011 1_555
O8 P2 1.561011 1_555
O9 P3 1.561011 1_555
O10 P4 1.561011 1_555
O11 P5 1.561011 1_555
O12 P0 1.554054 1_555
O13 P1 1.554054 1_555
O14 P2 1.554054 1_555
O15 P3 1.554054 1_555
O16 P4 1.554054 1_555
O17 P5 1.554054 1_555
O18 P3 1.554054 1_555
O19 P4 1.554054 1_555
O20 P5 1.554054 1_555
O21 P0 1.554054 1_555
O22 P1 1.554054 1_555
O23 P2 1.554054 1_555
