# generated using pymatgen
data_SiSbPt
_symmetry_space_group_name_H-M   'P 1'
_cell_length_a   6.35479539
_cell_length_b   6.37737788
_cell_length_c   11.55009134
_cell_angle_alpha   90.00000000
_cell_angle_beta   90.00000000
_cell_angle_gamma   90.00000000
_symmetry_Int_Tables_number   1
_chemical_formula_structural   SiSbPt
_chemical_formula_sum   'Si8 Sb8 Pt8'
_cell_volume   468.08976116
_cell_formula_units_Z   8
loop_
 _symmetry_equiv_pos_site_id
 _symmetry_equiv_pos_as_xyz
  1  'x, y, z'
loop_
 _atom_site_type_symbol
 _atom_site_label
 _atom_site_symmetry_multiplicity
 _atom_site_fract_x
 _atom_site_fract_y
 _atom_site_fract_z
 _atom_site_occupancy
  Si  Si0  1  0.85490579  0.26538730  0.42609969  1
  Si  Si1  1  0.35490579  0.23461270  0.57389931  1
  Si  Si2  1  0.14509421  0.76538730  0.07390031  1
  Si  Si3  1  0.64509421  0.73461270  0.92610069  1
  Si  Si4  1  0.14509421  0.73461270  0.57389931  1
  Si  Si5  1  0.64509421  0.76538730  0.42609969  1
  Si  Si6  1  0.85490579  0.23461270  0.92610069  1
  Si  Si7  1  0.35490579  0.26538730  0.07390031  1
  Sb  Sb0  1  0.11608922  0.00591773  0.32715202  1
  Sb  Sb1  1  0.61608922  0.49408227  0.67284798  1
  Sb  Sb2  1  0.88391078  0.50591773  0.17284798  1
  Sb  Sb3  1  0.38391078  0.99408227  0.82715202  1
  Sb  Sb4  1  0.88391078  0.99408227  0.67284798  1
  Sb  Sb5  1  0.38391078  0.50591773  0.32715202  1
  Sb  Sb6  1  0.11608922  0.49408227  0.82715202  1
  Sb  Sb7  1  0.61608922  0.00591773  0.17284798  1
  Pt  Pt0  1  0.51119690  0.11840684  0.39343743  1
  Pt  Pt1  1  0.01119690  0.38159316  0.60656257  1
  Pt  Pt2  1  0.48880310  0.61840684  0.10656257  1
  Pt  Pt3  1  0.98880310  0.88159316  0.89343743  1
  Pt  Pt4  1  0.48880310  0.88159316  0.60656257  1
  Pt  Pt5  1  0.98880310  0.61840684  0.39343743  1
  Pt  Pt6  1  0.51119690  0.38159316  0.89343743  1
  Pt  Pt7  1  0.01119690  0.11840684  0.10656257  1
loop_
_geom_bond_atom_site_label_1
_geom_bond_atom_site_label_2
_geom_bond_distance
_geom_bond_site_symmetry_2
Sb0 Si0 2.607507 1_455
Sb1 Si1 2.607512 1_555
Sb2 Si2 2.607507 1_655
Sb3 Si3 2.607512 1_555
Sb4 Si4 2.607512 1_655
Sb5 Si5 2.607507 1_555
Sb6 Si6 2.607512 1_455
Sb7 Si7 2.607507 1_555
Pt0 Si0 2.406589 1_555
Pt0 Si1 2.424907 1_555
Pt0 Si5 2.436157 1_545
Pt0 Sb5 2.710677 1_555
Pt0 Sb0 2.721222 1_555
Pt0 Sb7 2.729539 1_555
Pt1 Si1 2.406591 1_555
Pt1 Si0 2.424917 1_455
Pt1 Si4 2.436159 1_555
Pt1 Sb4 2.710677 1_445
Pt1 Sb1 2.721222 1_455
Pt1 Sb6 2.729539 1_555
Pt2 Si2 2.406589 1_555
Pt2 Si3 2.424907 1_554
Pt2 Si7 2.436157 1_555
Pt2 Sb7 2.710677 1_565
Pt2 Sb2 2.721222 1_555
Pt2 Sb5 2.729539 1_555
Pt3 Si3 2.406591 1_555
Pt3 Si2 2.424917 1_656
Pt3 Si6 2.436159 1_565
Pt3 Sb6 2.710677 1_655
Pt3 Sb3 2.721222 1_655
Pt3 Sb4 2.729539 1_555
Pt4 Si4 2.406591 1_555
Pt4 Si5 2.424917 1_555
Pt4 Si1 2.436159 1_565
Pt4 Sb1 2.710677 1_555
Pt4 Sb4 2.721222 1_555
Pt4 Sb3 2.729539 1_555
Pt5 Si5 2.406589 1_555
Pt5 Si4 2.424907 1_655
Pt5 Si0 2.436157 1_555
Pt5 Sb0 2.710677 1_665
Pt5 Sb5 2.721222 1_655
Pt5 Sb2 2.729539 1_555
Pt6 Si6 2.406591 1_555
Pt6 Si7 2.424917 1_556
Pt6 Si3 2.436159 1_555
Pt6 Sb3 2.710677 1_545
Pt6 Sb6 2.721222 1_555
Pt6 Sb1 2.729539 1_555
Pt7 Si7 2.406589 1_555
Pt7 Si6 2.424907 1_454
Pt7 Si2 2.436157 1_545
Pt7 Sb2 2.710677 1_455
Pt7 Sb7 2.721222 1_455
Pt7 Sb0 2.729539 1_555
