# generated using pymatgen
data_NdAlSi2
_symmetry_space_group_name_H-M   'P 1'
_cell_length_a   4.18069828
_cell_length_b   4.18069828
_cell_length_c   11.04566800
_cell_angle_alpha   90.00000000
_cell_angle_beta   90.00000000
_cell_angle_gamma   120.00000447
_symmetry_Int_Tables_number   1
_chemical_formula_structural   NdAlSi2
_chemical_formula_sum   'Nd2 Al2 Si4'
_cell_volume   167.19383121
_cell_formula_units_Z   2
loop_
 _symmetry_equiv_pos_site_id
 _symmetry_equiv_pos_as_xyz
  1  'x, y, z'
loop_
 _atom_site_type_symbol
 _atom_site_label
 _atom_site_symmetry_multiplicity
 _atom_site_fract_x
 _atom_site_fract_y
 _atom_site_fract_z
 _atom_site_occupancy
  Nd  Nd0  1  0.00000000  0.00000000  0.18092400  1
  Nd  Nd1  1  0.00000000  0.00000000  0.81907600  1
  Al  Al0  1  0.33333300  0.66666700  0.58661100  1
  Al  Al1  1  0.66666700  0.33333300  0.41338900  1
  Si  Si0  1  0.33333300  0.66666700  0.99484900  1
  Si  Si1  1  0.66666700  0.33333300  0.00515100  1
  Si  Si2  1  0.33333300  0.66666700  0.35430700  1
  Si  Si3  1  0.66666700  0.33333300  0.64569300  1
loop_
_geom_bond_atom_site_label_1
_geom_bond_atom_site_label_2
_geom_bond_distance
_geom_bond_site_symmetry_2
Nd0 Si2 3.081200 1_545
Nd0 Si2 3.081203 1_445
Nd0 Si2 3.081203 1_555
Nd0 Si1 3.097678 1_455
Nd0 Si1 3.097680 1_555
Nd0 Si1 3.097680 1_445
Nd0 Si0 3.170240 1_544
Nd0 Si0 3.170242 1_554
Nd0 Si0 3.170242 1_444
Nd1 Si3 3.081200 1_455
Nd1 Si3 3.081203 1_555
Nd1 Si3 3.081203 1_445
Nd1 Si0 3.097678 1_545
Nd1 Si0 3.097680 1_555
Nd1 Si0 3.097680 1_445
Nd1 Si1 3.170240 1_456
Nd1 Si1 3.170242 1_556
Nd1 Si1 3.170242 1_446
Al0 Si3 2.500391 1_455
Al0 Si3 2.500391 1_565
Al0 Si3 2.500398 1_555
Al0 Si2 2.565953 1_555
Al1 Si2 2.500391 1_545
Al1 Si2 2.500391 1_655
Al1 Si2 2.500398 1_555
Al1 Si3 2.565953 1_555
Si0 Si1 2.416406 1_456
Si0 Si1 2.416406 1_566
Si0 Si1 2.416413 1_556
