# generated using pymatgen
data_BaGeO3
_symmetry_space_group_name_H-M   'P 1'
_cell_length_a   4.64225534
_cell_length_b   5.75213457
_cell_length_c   12.94668869
_cell_angle_alpha   90.00000000
_cell_angle_beta   90.00000000
_cell_angle_gamma   90.00000000
_symmetry_Int_Tables_number   1
_chemical_formula_structural   BaGeO3
_chemical_formula_sum   'Ba4 Ge4 O12'
_cell_volume   345.71384114
_cell_formula_units_Z   4
loop_
 _symmetry_equiv_pos_site_id
 _symmetry_equiv_pos_as_xyz
  1  'x, y, z'
loop_
 _atom_site_type_symbol
 _atom_site_label
 _atom_site_symmetry_multiplicity
 _atom_site_fract_x
 _atom_site_fract_y
 _atom_site_fract_z
 _atom_site_occupancy
  Ba  Ba0  1  0.27407960  0.81894326  0.86055179  1
  Ba  Ba1  1  0.77407960  0.68105674  0.13944821  1
  Ba  Ba2  1  0.72592040  0.31894326  0.63944821  1
  Ba  Ba3  1  0.22592040  0.18105674  0.36055179  1
  Ge  Ge0  1  0.82376347  0.30770402  0.92415108  1
  Ge  Ge1  1  0.32376347  0.19229598  0.07584892  1
  Ge  Ge2  1  0.17623653  0.80770402  0.57584892  1
  Ge  Ge3  1  0.67623653  0.69229598  0.42415108  1
  O  O0  1  0.76157218  0.60271587  0.91226723  1
  O  O1  1  0.26157218  0.89728413  0.08773277  1
  O  O2  1  0.23842782  0.10271587  0.58773277  1
  O  O3  1  0.73842782  0.39728413  0.41226723  1
  O  O4  1  0.75392231  0.11660606  0.82462633  1
  O  O5  1  0.25392231  0.38339394  0.17537367  1
  O  O6  1  0.24607769  0.61660606  0.67537367  1
  O  O7  1  0.74607769  0.88339394  0.32462633  1
  O  O8  1  0.29256747  0.71333875  0.44944893  1
  O  O9  1  0.79256747  0.78666125  0.55055107  1
  O  O10  1  0.70743253  0.21333875  0.05055107  1
  O  O11  1  0.20743253  0.28666125  0.94944893  1
loop_
_geom_bond_atom_site_label_1
_geom_bond_atom_site_label_2
_geom_bond_distance
_geom_bond_site_symmetry_2
Ba0 O0 2.667717 1_555
Ba0 O6 2.668188 1_555
Ba0 O0 2.766911 1_455
Ba0 O4 2.847795 1_565
Ba0 O11 2.942529 1_565
Ba0 O1 2.976128 1_556
Ba0 O4 2.996455 1_465
Ba0 O11 3.285530 1_555
Ba1 O1 2.667717 1_655
Ba1 O7 2.668188 1_555
Ba1 O1 2.766911 1_555
Ba1 O5 2.847795 1_655
Ba1 O10 2.942529 1_555
Ba1 O0 2.976128 1_554
Ba1 O5 2.996455 1_555
Ba1 O10 3.285530 1_565
Ba2 O2 2.667717 1_555
Ba2 O4 2.668188 1_555
Ba2 O2 2.766911 1_655
Ba2 O6 2.847795 1_555
Ba2 O9 2.942529 1_555
Ba2 O3 2.976128 1_555
Ba2 O6 2.996455 1_655
Ba2 O9 3.285530 1_545
Ba3 O3 2.667717 1_455
Ba3 O5 2.668188 1_555
Ba3 O3 2.766911 1_555
Ba3 O7 2.847795 1_445
Ba3 O8 2.942529 1_545
Ba3 O2 2.976128 1_555
Ba3 O7 2.996455 1_545
Ba3 O8 3.285530 1_555
Ge0 O4 1.724436 1_555
Ge0 O0 1.728194 1_555
Ge0 O10 1.806732 1_556
Ge0 O11 1.814994 1_655
Ge1 O5 1.724436 1_555
Ge1 O1 1.728194 1_545
Ge1 O11 1.806732 1_554
Ge1 O10 1.814994 1_555
Ge2 O6 1.724436 1_555
Ge2 O2 1.728194 1_565
Ge2 O8 1.806732 1_555
Ge2 O9 1.814994 1_455
Ge3 O7 1.724436 1_555
Ge3 O3 1.728194 1_555
Ge3 O9 1.806732 1_555
Ge3 O8 1.814994 1_555
