# generated using pymatgen
data_Sr2YTlW2O7
_symmetry_space_group_name_H-M   'P 1'
_cell_length_a   4.11763610
_cell_length_b   4.11763610
_cell_length_c   12.66045500
_cell_angle_alpha   90.00000000
_cell_angle_beta   90.00000000
_cell_angle_gamma   92.97155417
_symmetry_Int_Tables_number   1
_chemical_formula_structural   Sr2YTlW2O7
_chemical_formula_sum   'Sr2 Y1 Tl1 W2 O7'
_cell_volume   214.36846148
_cell_formula_units_Z   1
loop_
 _symmetry_equiv_pos_site_id
 _symmetry_equiv_pos_as_xyz
  1  'x, y, z'
loop_
 _atom_site_type_symbol
 _atom_site_label
 _atom_site_symmetry_multiplicity
 _atom_site_fract_x
 _atom_site_fract_y
 _atom_site_fract_z
 _atom_site_occupancy
  Sr  Sr0  1  0.51899300  0.48100700  0.68313000  1
  Sr  Sr1  1  0.51899300  0.48100700  0.31687000  1
  Y  Y0  1  0.53711200  0.46288800  0.00000000  1
  Tl  Tl0  1  0.01273000  0.98727000  0.50000000  1
  W  W0  1  0.00788100  0.99211900  0.86758900  1
  W  W1  1  0.00788100  0.99211900  0.13241100  1
  O  O0  1  0.49870400  0.98881000  0.88237600  1
  O  O1  1  0.01119000  0.50129600  0.88237600  1
  O  O2  1  0.49870400  0.98881000  0.11762400  1
  O  O3  1  0.01119000  0.50129600  0.11762400  1
  O  O4  1  0.93327900  0.06672100  0.71049700  1
  O  O5  1  0.93327900  0.06672100  0.28950300  1
  O  O6  1  0.51696500  0.48303500  0.50000000  1
loop_
_geom_bond_atom_site_label_1
_geom_bond_atom_site_label_2
_geom_bond_distance
_geom_bond_site_symmetry_2
O0 W0 2.030432 1_555
O0 W0 2.104288 1_655
O0 Y0 2.453825 1_566
O0 Y0 2.639657 1_556
O1 W0 2.030432 1_555
O1 W0 2.104288 1_545
O1 Y0 2.453825 1_456
O1 Y0 2.639657 1_556
O2 W1 2.030432 1_555
O2 W1 2.104288 1_655
O2 Y0 2.453825 1_565
O2 Y0 2.639657 1_555
O3 W1 2.030432 1_555
O3 W1 2.104288 1_545
O3 Y0 2.453825 1_455
O3 Y0 2.639657 1_555
O4 W0 2.038150 1_645
O4 Sr0 2.498361 1_555
O4 Tl0 2.706901 1_645
O4 Sr0 2.901738 1_655
O4 Sr0 2.901738 1_545
O5 W1 2.038150 1_645
O5 Sr1 2.498361 1_555
O5 Tl0 2.706901 1_645
O5 Sr1 2.901738 1_655
O5 Sr1 2.901738 1_545
O6 Sr1 2.318541 1_555
O6 Sr0 2.318541 1_555
O6 Tl0 2.835248 1_545
O6 Tl0 2.835248 1_655
