# generated using pymatgen
data_CaBiO3
_symmetry_space_group_name_H-M   'P 1'
_cell_length_a   5.76338163
_cell_length_b   6.03233610
_cell_length_c   8.32437340
_cell_angle_alpha   90.00000000
_cell_angle_beta   90.00000000
_cell_angle_gamma   90.00000000
_symmetry_Int_Tables_number   1
_chemical_formula_structural   CaBiO3
_chemical_formula_sum   'Ca4 Bi4 O12'
_cell_volume   289.41061863
_cell_formula_units_Z   4
loop_
 _symmetry_equiv_pos_site_id
 _symmetry_equiv_pos_as_xyz
  1  'x, y, z'
loop_
 _atom_site_type_symbol
 _atom_site_label
 _atom_site_symmetry_multiplicity
 _atom_site_fract_x
 _atom_site_fract_y
 _atom_site_fract_z
 _atom_site_occupancy
  Ca  Ca0  1  0.98114897  0.05909135  0.75000000  1
  Ca  Ca1  1  0.48114897  0.44090865  0.25000000  1
  Ca  Ca2  1  0.51885103  0.55909135  0.75000000  1
  Ca  Ca3  1  0.01885103  0.94090865  0.25000000  1
  Bi  Bi0  1  0.50000000  -0.00000000  0.50000000  1
  Bi  Bi1  1  -0.00000000  0.50000000  0.50000000  1
  Bi  Bi2  1  -0.00000000  0.50000000  -0.00000000  1
  Bi  Bi3  1  0.50000000  -0.00000000  -0.00000000  1
  O  O0  1  0.86798618  0.56375090  0.25000000  1
  O  O1  1  0.36798618  0.93624910  0.75000000  1
  O  O2  1  0.63201382  0.06375090  0.25000000  1
  O  O3  1  0.13201382  0.43624910  0.75000000  1
  O  O4  1  0.69329862  0.30285726  0.93030200  1
  O  O5  1  0.19329862  0.19714274  0.06969800  1
  O  O6  1  0.80670138  0.80285726  0.56969800  1
  O  O7  1  0.30670138  0.69714274  0.43030200  1
  O  O8  1  0.69329862  0.30285726  0.56969800  1
  O  O9  1  0.19329862  0.19714274  0.43030200  1
  O  O10  1  0.30670138  0.69714274  0.06969800  1
  O  O11  1  0.80670138  0.80285726  0.93030200  1
loop_
_geom_bond_atom_site_label_1
_geom_bond_atom_site_label_2
_geom_bond_distance
_geom_bond_site_symmetry_2
Ca0 O1 2.349414 1_645
Ca0 O11 2.377542 1_545
Ca0 O6 2.377542 1_545
Ca0 O3 2.435629 1_655
Ca0 O4 2.677174 1_555
Ca0 O8 2.677174 1_555
Ca0 O5 3.044823 1_656
Ca0 O9 3.044823 1_655
Ca1 O0 2.349414 1_555
Ca1 O7 2.377542 1_555
Ca1 O10 2.377542 1_555
Ca1 O2 2.435629 1_555
Ca1 O9 2.677174 1_555
Ca1 O5 2.677174 1_555
Ca1 O8 3.044823 1_555
Ca1 O4 3.044823 1_554
Ca2 O3 2.349414 1_555
Ca2 O4 2.377542 1_555
Ca2 O8 2.377542 1_555
Ca2 O1 2.435629 1_555
Ca2 O11 2.677174 1_555
Ca2 O6 2.677174 1_555
Ca2 O10 3.044823 1_556
Ca2 O7 3.044823 1_555
Ca3 O2 2.349414 1_465
Ca3 O9 2.377542 1_565
Ca3 O5 2.377542 1_565
Ca3 O0 2.435629 1_455
Ca3 O7 2.677174 1_555
Ca3 O10 2.677174 1_555
Ca3 O6 3.044823 1_455
Ca3 O11 3.044823 1_454
Bi0 O6 2.208039 1_545
Bi0 O9 2.208039 1_555
Bi0 O8 2.217078 1_555
Bi0 O7 2.217078 1_545
Bi0 O1 2.248939 1_545
Bi0 O2 2.248939 1_555
Bi1 O8 2.208039 1_455
Bi1 O7 2.208039 1_555
Bi1 O6 2.217078 1_455
Bi1 O9 2.217078 1_555
Bi1 O0 2.248939 1_455
Bi1 O3 2.248939 1_555
Bi2 O4 2.208039 1_454
Bi2 O10 2.208039 1_555
Bi2 O11 2.217078 1_454
Bi2 O5 2.217078 1_555
Bi2 O0 2.248939 1_455
Bi2 O3 2.248939 1_554
Bi3 O5 2.208039 1_555
Bi3 O11 2.208039 1_544
Bi3 O10 2.217078 1_545
Bi3 O4 2.217078 1_554
Bi3 O1 2.248939 1_544
Bi3 O2 2.248939 1_555
