# generated using pymatgen
data_KCaNi2H3(SeO5)2
_symmetry_space_group_name_H-M   'P 1'
_cell_length_a   5.77361809
_cell_length_b   5.77697757
_cell_length_c   8.76212024
_cell_angle_alpha   69.99217340
_cell_angle_beta   69.93086608
_cell_angle_gamma   71.91618196
_symmetry_Int_Tables_number   1
_chemical_formula_structural   KCaNi2H3(SeO5)2
_chemical_formula_sum   'K1 Ca1 Ni2 H3 Se2 O10'
_cell_volume   251.69635071
_cell_formula_units_Z   1
loop_
 _symmetry_equiv_pos_site_id
 _symmetry_equiv_pos_as_xyz
  1  'x, y, z'
loop_
 _atom_site_type_symbol
 _atom_site_label
 _atom_site_symmetry_multiplicity
 _atom_site_fract_x
 _atom_site_fract_y
 _atom_site_fract_z
 _atom_site_occupancy
  K  K0  1  0.68755800  0.31793600  0.49841900  1
  Ca  Ca0  1  0.19769900  0.78973400  0.50322200  1
  Ni  Ni0  1  0.96052500  0.50421700  0.00122900  1
  Ni  Ni1  1  0.49558400  0.02336000  0.99908700  1
  H  H0  1  0.64780300  0.68771000  0.81367900  1
  H  H1  1  0.32061000  0.33349400  0.18974700  1
  H  H2  1  0.45034200  0.51994100  0.00813000  1
  Se  Se0  1  0.93686100  0.92256000  0.21818800  1
  Se  Se1  1  0.07411000  0.05864400  0.78328500  1
  O  O0  1  0.83029400  0.80093800  0.43574700  1
  O  O1  1  0.19452900  0.16427700  0.56574000  1
  O  O2  1  0.26771300  0.89332100  0.22670800  1
  O  O3  1  0.79199100  0.23790200  0.19944200  1
  O  O4  1  0.75718000  0.19691400  0.80157600  1
  O  O5  1  0.11759600  0.72436200  0.77877500  1
  O  O6  1  0.60938400  0.67711700  0.93282100  1
  O  O7  1  0.32068200  0.38558100  0.07148400  1
  O  O8  1  0.76365300  0.78264600  0.14325800  1
  O  O9  1  0.20936100  0.23187200  0.86046100  1
loop_
_geom_bond_atom_site_label_1
_geom_bond_atom_site_label_2
_geom_bond_distance
_geom_bond_site_symmetry_2
K0 O4 2.644581 1_555
K0 O3 2.647965 1_555
K0 O0 2.972353 1_555
K0 O1 2.986167 1_655
K0 O0 3.030625 1_545
K0 O1 3.049074 1_555
Ca0 O2 2.208522 1_555
Ca0 O5 2.214521 1_555
Ca0 O0 2.367016 1_455
Ca0 O1 2.400361 1_565
Ni0 O5 2.011376 1_654
Ni0 O3 2.066702 1_555
Ni0 O6 2.152737 1_554
Ni0 O8 2.166065 1_555
Ni0 O9 2.183864 1_654
Ni0 O7 2.208542 1_655
Ni1 O2 2.015073 1_546
Ni1 O4 2.059198 1_555
Ni1 O6 2.118208 1_545
Ni1 O8 2.174536 1_546
Ni1 O9 2.190403 1_555
Ni1 O7 2.226597 1_556
H0 O6 0.973930 1_555
H1 O7 0.975058 1_555
H2 O7 1.118806 1_555
H2 O6 1.339715 1_554
O0 Se0 1.747287 1_555
O1 Se1 1.745587 1_555
O2 Se0 1.889960 1_455
O3 Se0 1.728824 1_545
O4 Se1 1.729437 1_655
O5 Se1 1.881038 1_565
O8 Se0 1.843909 1_555
O9 Se1 1.838251 1_555
