# generated using pymatgen
data_CsGeBr3
_symmetry_space_group_name_H-M   'P 1'
_cell_length_a   5.66824086
_cell_length_b   5.66824086
_cell_length_c   5.66824140
_cell_angle_alpha   88.89687629
_cell_angle_beta   88.89687629
_cell_angle_gamma   88.89686456
_symmetry_Int_Tables_number   1
_chemical_formula_structural   CsGeBr3
_chemical_formula_sum   'Cs1 Ge1 Br3'
_cell_volume   182.01469343
_cell_formula_units_Z   1
loop_
 _symmetry_equiv_pos_site_id
 _symmetry_equiv_pos_as_xyz
  1  'x, y, z'
loop_
 _atom_site_type_symbol
 _atom_site_label
 _atom_site_symmetry_multiplicity
 _atom_site_fract_x
 _atom_site_fract_y
 _atom_site_fract_z
 _atom_site_occupancy
  Cs  Cs0  1  0.00130404  0.00130404  0.00130404  1
  Ge  Ge0  1  0.47708291  0.47708291  0.47708291  1
  Br  Br0  1  0.50547246  0.02866813  0.50547246  1
  Br  Br1  1  0.02866813  0.50547246  0.50547246  1
  Br  Br2  1  0.50547246  0.50547246  0.02866813  1
loop_
_geom_bond_atom_site_label_1
_geom_bond_atom_site_label_2
_geom_bond_distance
_geom_bond_site_symmetry_2
Br0 Ge0 2.545908 1_555
Br0 Cs0 3.972491 1_655
Br0 Cs0 3.972491 1_556
Br0 Cs0 4.011529 1_656
Br0 Cs0 4.087309 1_555
Br1 Ge0 2.545908 1_555
Br1 Cs0 3.972491 1_565
Br1 Cs0 3.972491 1_556
Br1 Cs0 4.011529 1_566
Br1 Cs0 4.087309 1_555
Br2 Ge0 2.545908 1_555
Br2 Cs0 3.972490 1_565
Br2 Cs0 3.972490 1_655
Br2 Cs0 4.011529 1_665
Br2 Cs0 4.087309 1_555
