# generated using pymatgen
data_Al2Cu3(SiO4)3
_symmetry_space_group_name_H-M   'P 1'
_cell_length_a   10.08344381
_cell_length_b   10.08344381
_cell_length_c   10.08344381
_cell_angle_alpha   109.47122063
_cell_angle_beta   109.47122063
_cell_angle_gamma   109.47122063
_symmetry_Int_Tables_number   1
_chemical_formula_structural   Al2Cu3(SiO4)3
_chemical_formula_sum   'Al8 Cu12 Si12 O48'
_cell_volume   789.23213002
_cell_formula_units_Z   4
loop_
 _symmetry_equiv_pos_site_id
 _symmetry_equiv_pos_as_xyz
  1  'x, y, z'
loop_
 _atom_site_type_symbol
 _atom_site_label
 _atom_site_symmetry_multiplicity
 _atom_site_fract_x
 _atom_site_fract_y
 _atom_site_fract_z
 _atom_site_occupancy
  Al  Al0  1  0.00000000  0.00000000  0.00000000  1
  Al  Al1  1  0.50000000  0.00000000  0.00000000  1
  Al  Al2  1  0.50000000  0.50000000  0.00000000  1
  Al  Al3  1  0.00000000  0.50000000  0.50000000  1
  Al  Al4  1  0.00000000  0.00000000  0.50000000  1
  Al  Al5  1  0.50000000  0.50000000  0.50000000  1
  Al  Al6  1  0.00000000  0.50000000  0.00000000  1
  Al  Al7  1  0.50000000  0.00000000  0.50000000  1
  Cu  Cu0  1  0.87500000  0.75000000  0.62500000  1
  Cu  Cu1  1  0.87500000  0.62500000  0.25000000  1
  Cu  Cu2  1  0.62500000  0.87500000  0.75000000  1
  Cu  Cu3  1  0.25000000  0.87500000  0.62500000  1
  Cu  Cu4  1  0.75000000  0.62500000  0.87500000  1
  Cu  Cu5  1  0.62500000  0.25000000  0.87500000  1
  Cu  Cu6  1  0.12500000  0.25000000  0.37500000  1
  Cu  Cu7  1  0.12500000  0.37500000  0.75000000  1
  Cu  Cu8  1  0.37500000  0.12500000  0.25000000  1
  Cu  Cu9  1  0.75000000  0.12500000  0.37500000  1
  Cu  Cu10  1  0.25000000  0.37500000  0.12500000  1
  Cu  Cu11  1  0.37500000  0.75000000  0.12500000  1
  Si  Si0  1  0.12500000  0.75000000  0.87500000  1
  Si  Si1  1  0.75000000  0.87500000  0.12500000  1
  Si  Si2  1  0.25000000  0.62500000  0.37500000  1
  Si  Si3  1  0.62500000  0.75000000  0.37500000  1
  Si  Si4  1  0.87500000  0.12500000  0.75000000  1
  Si  Si5  1  0.37500000  0.25000000  0.62500000  1
  Si  Si6  1  0.37500000  0.62500000  0.75000000  1
  Si  Si7  1  0.25000000  0.12500000  0.87500000  1
  Si  Si8  1  0.62500000  0.37500000  0.25000000  1
  Si  Si9  1  0.12500000  0.87500000  0.25000000  1
  Si  Si10  1  0.75000000  0.37500000  0.62500000  1
  Si  Si11  1  0.87500000  0.25000000  0.12500000  1
  O  O0  1  0.57555400  0.89094600  0.37792200  1
  O  O1  1  0.37792200  0.57555400  0.89094600  1
  O  O2  1  0.30236800  0.31539200  0.92444600  1
  O  O3  1  0.48697600  0.60905400  0.18460800  1
  O  O4  1  0.31539200  0.89094600  0.01302400  1
  O  O5  1  0.12207800  0.01302400  0.19763200  1
  O  O6  1  0.37792200  0.30236800  0.48697600  1
  O  O7  1  0.89094600  0.37792200  0.57555400  1
  O  O8  1  0.18460800  0.19763200  0.57555400  1
  O  O9  1  0.48697600  0.37792200  0.30236800  1
  O  O10  1  0.89094600  0.01302400  0.31539200  1
  O  O11  1  0.60905400  0.92444600  0.12207800  1
  O  O12  1  0.92444600  0.12207800  0.60905400  1
  O  O13  1  0.30236800  0.48697600  0.37792200  1
  O  O14  1  0.57555400  0.18460800  0.19763200  1
  O  O15  1  0.19763200  0.57555400  0.18460800  1
  O  O16  1  0.01302400  0.31539200  0.89094600  1
  O  O17  1  0.92444600  0.30236800  0.31539200  1
  O  O18  1  0.01302400  0.19763200  0.12207800  1
  O  O19  1  0.81539200  0.80236800  0.42444600  1
  O  O20  1  0.31539200  0.92444600  0.30236800  1
  O  O21  1  0.60905400  0.18460800  0.48697600  1
  O  O22  1  0.19763200  0.12207800  0.01302400  1
  O  O23  1  0.12207800  0.60905400  0.92444600  1
  O  O24  1  0.42444600  0.10905400  0.62207800  1
  O  O25  1  0.62207800  0.42444600  0.10905400  1
  O  O26  1  0.69763200  0.68460800  0.07555400  1
  O  O27  1  0.51302400  0.39094600  0.81539200  1
  O  O28  1  0.68460800  0.10905400  0.98697600  1
  O  O29  1  0.87792200  0.98697600  0.80236800  1
  O  O30  1  0.62207800  0.69763200  0.51302400  1
  O  O31  1  0.10905400  0.62207800  0.42444600  1
  O  O32  1  0.87792200  0.39094600  0.07555400  1
  O  O33  1  0.80236800  0.87792200  0.98697600  1
  O  O34  1  0.39094600  0.81539200  0.51302400  1
  O  O35  1  0.68460800  0.07555400  0.69763200  1
  O  O36  1  0.81539200  0.51302400  0.39094600  1
  O  O37  1  0.98697600  0.80236800  0.87792200  1
  O  O38  1  0.07555400  0.69763200  0.68460800  1
  O  O39  1  0.98697600  0.68460800  0.10905400  1
  O  O40  1  0.80236800  0.42444600  0.81539200  1
  O  O41  1  0.42444600  0.81539200  0.80236800  1
  O  O42  1  0.69763200  0.51302400  0.62207800  1
  O  O43  1  0.07555400  0.87792200  0.39094600  1
  O  O44  1  0.39094600  0.07555400  0.87792200  1
  O  O45  1  0.10905400  0.98697600  0.68460800  1
  O  O46  1  0.51302400  0.62207800  0.69763200  1
  O  O47  1  0.18460800  0.48697600  0.60905400  1
loop_
_geom_bond_atom_site_label_1
_geom_bond_atom_site_label_2
_geom_bond_distance
_geom_bond_site_symmetry_2
Al0 O5 1.893723 1_555
Al0 O18 1.893723 1_555
Al0 O33 1.893723 1_444
Al0 O22 1.893723 1_555
Al0 O37 1.893723 1_444
Al0 O29 1.893723 1_444
Al1 O14 1.893723 1_555
Al1 O44 1.893723 1_554
Al1 O4 1.893723 1_545
Al1 O11 1.893723 1_545
Al1 O41 1.893723 1_544
Al1 O28 1.893723 1_554
Al2 O2 1.893723 1_554
Al2 O3 1.893723 1_555
Al2 O1 1.893723 1_554
Al2 O25 1.893723 1_555
Al2 O26 1.893723 1_555
Al2 O27 1.893723 1_554
Al3 O47 1.893723 1_555
Al3 O17 1.893723 1_455
Al3 O7 1.893723 1_455
Al3 O31 1.893723 1_555
Al3 O38 1.893723 1_555
Al3 O36 1.893723 1_455
Al4 O10 1.893723 1_455
Al4 O43 1.893723 1_545
Al4 O12 1.893723 1_455
Al4 O8 1.893723 1_555
Al4 O19 1.893723 1_445
Al4 O45 1.893723 1_545
Al5 O9 1.893723 1_555
Al5 O6 1.893723 1_555
Al5 O13 1.893723 1_555
Al5 O46 1.893723 1_555
Al5 O30 1.893723 1_555
Al5 O42 1.893723 1_555
Al6 O32 1.893723 1_455
Al6 O16 1.893723 1_554
Al6 O15 1.893723 1_555
Al6 O23 1.893723 1_554
Al6 O39 1.893723 1_455
Al6 O40 1.893723 1_454
Al7 O21 1.893723 1_555
Al7 O20 1.893723 1_545
Al7 O24 1.893723 1_555
Al7 O34 1.893723 1_545
Al7 O0 1.893723 1_545
Al7 O35 1.893723 1_555
Cu0 O38 2.200651 1_655
Cu0 O19 2.200651 1_555
Cu0 O30 2.200651 1_555
Cu0 O37 2.200651 1_555
Cu0 O29 2.445045 1_555
Cu0 O36 2.445045 1_555
Cu0 O42 2.445045 1_555
Cu0 O45 2.445045 1_655
Cu1 O39 2.200651 1_555
Cu1 O36 2.200651 1_555
Cu1 O43 2.200651 1_655
Cu1 O25 2.200651 1_555
Cu1 O32 2.445045 1_555
Cu1 O26 2.445045 1_555
Cu1 O31 2.445045 1_655
Cu1 O19 2.445045 1_555
Cu2 O35 2.200651 1_565
Cu2 O46 2.200651 1_555
Cu2 O41 2.200651 1_555
Cu2 O29 2.200651 1_555
Cu2 O28 2.445045 1_565
Cu2 O30 2.445045 1_555
Cu2 O33 2.445045 1_555
Cu2 O34 2.445045 1_555
Cu3 O31 2.200651 1_555
Cu3 O44 2.200651 1_565
Cu3 O45 2.200651 1_555
Cu3 O34 2.200651 1_555
Cu3 O24 2.445045 1_565
Cu3 O43 2.445045 1_555
Cu3 O38 2.445045 1_555
Cu3 O41 2.445045 1_555
Cu4 O26 2.200651 1_556
Cu4 O33 2.200651 1_555
Cu4 O40 2.200651 1_555
Cu4 O42 2.200651 1_555
Cu4 O27 2.445045 1_555
Cu4 O39 2.445045 1_556
Cu4 O46 2.445045 1_555
Cu4 O37 2.445045 1_555
Cu5 O24 2.200651 1_555
Cu5 O28 2.200651 1_555
Cu5 O32 2.200651 1_556
Cu5 O27 2.200651 1_555
Cu5 O40 2.445045 1_555
Cu5 O35 2.445045 1_555
Cu5 O44 2.445045 1_555
Cu5 O25 2.445045 1_556
Cu6 O6 2.200651 1_555
Cu6 O18 2.200651 1_555
Cu6 O17 2.200651 1_455
Cu6 O8 2.200651 1_555
Cu6 O10 2.445045 1_455
Cu6 O47 2.445045 1_555
Cu6 O13 2.445045 1_555
Cu6 O5 2.445045 1_555
Cu7 O12 2.200651 1_455
Cu7 O16 2.200651 1_555
Cu7 O1 2.200651 1_555
Cu7 O47 2.200651 1_555
Cu7 O23 2.445045 1_555
Cu7 O8 2.445045 1_555
Cu7 O7 2.445045 1_455
Cu7 O2 2.445045 1_555
Cu8 O9 2.200651 1_555
Cu8 O5 2.200651 1_555
Cu8 O14 2.200651 1_555
Cu8 O20 2.200651 1_545
Cu8 O22 2.445045 1_555
Cu8 O21 2.445045 1_555
Cu8 O4 2.445045 1_545
Cu8 O6 2.445045 1_555
Cu9 O7 2.200651 1_555
Cu9 O11 2.200651 1_545
Cu9 O10 2.200651 1_555
Cu9 O21 2.200651 1_555
Cu9 O12 2.445045 1_555
Cu9 O0 2.445045 1_545
Cu9 O17 2.445045 1_555
Cu9 O14 2.445045 1_555
Cu10 O13 2.200651 1_555
Cu10 O22 2.200651 1_555
Cu10 O15 2.200651 1_555
Cu10 O2 2.200651 1_554
Cu10 O16 2.445045 1_554
Cu10 O9 2.445045 1_555
Cu10 O3 2.445045 1_555
Cu10 O18 2.445045 1_555
Cu11 O0 2.200651 1_555
Cu11 O3 2.200651 1_555
Cu11 O4 2.200651 1_555
Cu11 O23 2.200651 1_554
Cu11 O1 2.445045 1_554
Cu11 O11 2.445045 1_555
Cu11 O20 2.445045 1_555
Cu11 O15 2.445045 1_555
O0 Si3 1.650334 1_555
O1 Si6 1.650334 1_555
O2 Si7 1.650334 1_555
O3 Si3 1.650334 1_555
O4 Si0 1.650334 1_554
O5 Si9 1.650334 1_545
O6 Si5 1.650334 1_555
O7 Si10 1.650334 1_555
O8 Si5 1.650334 1_555
O9 Si8 1.650334 1_555
O10 Si1 1.650334 1_545
O11 Si1 1.650334 1_555
O12 Si4 1.650334 1_555
O13 Si2 1.650334 1_555
O14 Si8 1.650334 1_555
O15 Si2 1.650334 1_555
O16 Si4 1.650334 1_455
O17 Si11 1.650334 1_555
O18 Si11 1.650334 1_455
O19 Si3 1.650334 1_555
O20 Si9 1.650334 1_555
O21 Si10 1.650334 1_555
O22 Si7 1.650334 1_554
O23 Si0 1.650334 1_555
O24 Si5 1.650334 1_555
O25 Si8 1.650334 1_555
O26 Si1 1.650334 1_555
O27 Si5 1.650334 1_555
O28 Si11 1.650334 1_556
O29 Si4 1.650334 1_565
O30 Si3 1.650334 1_555
O31 Si2 1.650334 1_555
O32 Si11 1.650334 1_555
O33 Si1 1.650334 1_556
O34 Si2 1.650334 1_555
O35 Si4 1.650334 1_555
O36 Si8 1.650334 1_555
O37 Si0 1.650334 1_655
O38 Si0 1.650334 1_555
O39 Si9 1.650334 1_655
O40 Si10 1.650334 1_555
O41 Si6 1.650334 1_555
O42 Si10 1.650334 1_555
O43 Si9 1.650334 1_555
O44 Si7 1.650334 1_555
O45 Si7 1.650334 1_565
O46 Si6 1.650334 1_555
O47 Si6 1.650334 1_555
