# generated using pymatgen
data_LiLa2ReO6
_symmetry_space_group_name_H-M   'P 1'
_cell_length_a   5.78129100
_cell_length_b   5.56377200
_cell_length_c   9.64934316
_cell_angle_alpha   55.42117760
_cell_angle_beta   90.00000000
_cell_angle_gamma   90.00000000
_symmetry_Int_Tables_number   1
_chemical_formula_structural   LiLa2ReO6
_chemical_formula_sum   'Li2 La4 Re2 O12'
_cell_volume   255.54912030
_cell_formula_units_Z   2
loop_
 _symmetry_equiv_pos_site_id
 _symmetry_equiv_pos_as_xyz
  1  'x, y, z'
loop_
 _atom_site_type_symbol
 _atom_site_label
 _atom_site_symmetry_multiplicity
 _atom_site_fract_x
 _atom_site_fract_y
 _atom_site_fract_z
 _atom_site_occupancy
  Li  Li0  1  0.50000000  0.50000000  0.50000000  1
  Li  Li1  1  0.00000000  0.50000000  0.00000000  1
  La  La0  1  0.55245700  0.73498200  0.75307800  1
  La  La1  1  0.94754300  0.73498200  0.25307800  1
  La  La2  1  0.44754300  0.26501800  0.24692200  1
  La  La3  1  0.05245700  0.26501800  0.74692200  1
  Re  Re0  1  0.50000000  0.00000000  0.00000000  1
  Re  Re1  1  0.00000000  0.00000000  0.50000000  1
  O  O0  1  0.71837900  0.23909500  0.45042500  1
  O  O1  1  0.78162100  0.23909500  0.95042500  1
  O  O2  1  0.28162100  0.76090500  0.54957500  1
  O  O3  1  0.21837900  0.76090500  0.04957500  1
  O  O4  1  0.80565900  0.66614800  0.54453100  1
  O  O5  1  0.69434100  0.66614800  0.04453100  1
  O  O6  1  0.19434100  0.33385200  0.45546900  1
  O  O7  1  0.30565900  0.33385200  0.95546900  1
  O  O8  1  0.97447400  0.84661700  0.74128200  1
  O  O9  1  0.52552600  0.84661700  0.24128200  1
  O  O10  1  0.02552600  0.15338300  0.25871800  1
  O  O11  1  0.47447400  0.15338300  0.75871800  1
loop_
_geom_bond_atom_site_label_1
_geom_bond_atom_site_label_2
_geom_bond_distance
_geom_bond_site_symmetry_2
Li0 O9 2.123310 1_555
Li0 O11 2.123310 1_555
Li0 O4 2.147719 1_555
Li0 O6 2.147719 1_555
Li0 O0 2.172134 1_555
Li0 O2 2.172134 1_555
Li1 O8 2.123310 1_454
Li1 O10 2.123310 1_555
Li1 O5 2.147719 1_455
Li1 O7 2.147719 1_554
Li1 O3 2.172134 1_555
Li1 O1 2.172134 1_454
La0 O11 2.401892 1_565
La0 O7 2.425565 1_555
La0 O2 2.450918 1_555
La0 O8 2.504222 1_555
La0 O1 2.651420 1_555
La0 O4 2.685849 1_555
La0 O5 2.739740 1_556
La0 O0 2.831631 1_565
La1 O10 2.401892 1_665
La1 O6 2.425565 1_655
La1 O3 2.450918 1_655
La1 O9 2.504222 1_555
La1 O0 2.651420 1_555
La1 O5 2.685849 1_555
La1 O4 2.739740 1_555
La1 O1 2.831631 1_564
La2 O9 2.401892 1_545
La2 O5 2.425565 1_555
La2 O0 2.450918 1_555
La2 O10 2.504222 1_555
La2 O3 2.651420 1_555
La2 O6 2.685849 1_555
La2 O7 2.739740 1_554
La2 O2 2.831631 1_545
La3 O8 2.401892 1_445
La3 O4 2.425565 1_455
La3 O1 2.450918 1_455
La3 O11 2.504222 1_555
La3 O2 2.651420 1_555
La3 O7 2.685849 1_555
La3 O6 2.739740 1_555
La3 O3 2.831631 1_546
O0 Re1 1.981655 1_655
O1 Re0 1.981655 1_556
O2 Re1 1.981655 1_565
O3 Re0 1.981655 1_565
O4 Re1 1.997809 1_665
O5 Re0 1.997809 1_565
O6 Re1 1.997809 1_555
O7 Re0 1.997809 1_556
O8 Re1 1.978730 1_665
O9 Re0 1.978730 1_565
O10 Re1 1.978730 1_555
O11 Re0 1.978730 1_556
