# generated using pymatgen
data_RbV5Se8
_symmetry_space_group_name_H-M   'P 1'
_cell_length_a   3.70745400
_cell_length_b   9.02066889
_cell_length_c   9.58468359
_cell_angle_alpha   103.81402101
_cell_angle_beta   101.15157091
_cell_angle_gamma   90.00000000
_symmetry_Int_Tables_number   1
_chemical_formula_structural   RbV5Se8
_chemical_formula_sum   'Rb1 V5 Se8'
_cell_volume   305.03971072
_cell_formula_units_Z   1
loop_
 _symmetry_equiv_pos_site_id
 _symmetry_equiv_pos_as_xyz
  1  'x, y, z'
loop_
 _atom_site_type_symbol
 _atom_site_label
 _atom_site_symmetry_multiplicity
 _atom_site_fract_x
 _atom_site_fract_y
 _atom_site_fract_z
 _atom_site_occupancy
  Rb  Rb0  1  0.50000000  0.50000000  0.00000000  1
  V  V0  1  0.00000000  0.00000000  0.00000000  1
  V  V1  1  0.34871500  0.00966400  0.69742900  1
  V  V2  1  0.65128500  0.99033600  0.30257100  1
  V  V3  1  0.28768600  0.65397900  0.57537200  1
  V  V4  1  0.71231400  0.34602100  0.42462800  1
  Se  Se0  1  0.57203600  0.17108400  0.14407100  1
  Se  Se1  1  0.42796400  0.82891600  0.85592900  1
  Se  Se2  1  0.08782900  0.82348400  0.17565800  1
  Se  Se3  1  0.91217100  0.17651600  0.82434200  1
  Se  Se4  1  0.16357000  0.48700900  0.32713900  1
  Se  Se5  1  0.83643000  0.51299100  0.67286100  1
  Se  Se6  1  0.23926400  0.15481300  0.47852800  1
  Se  Se7  1  0.76073600  0.84518700  0.52147200  1
loop_
_geom_bond_atom_site_label_1
_geom_bond_atom_site_label_2
_geom_bond_distance
_geom_bond_site_symmetry_2
Rb0 Se2 3.511941 1_655
Rb0 Se2 3.511941 1_555
Rb0 Se3 3.511941 1_454
Rb0 Se3 3.511941 1_554
Rb0 Se1 3.548996 1_554
Rb0 Se0 3.548996 1_555
Rb0 Se4 3.617908 1_555
Rb0 Se5 3.617908 1_554
Rb0 Se4 3.617910 1_655
Rb0 Se5 3.617910 1_454
Se0 V2 2.462283 1_545
Se0 V0 2.576014 1_655
Se0 V0 2.576017 1_555
Se0 V4 2.724761 1_555
Se1 V1 2.462283 1_565
Se1 V0 2.576014 1_566
Se1 V0 2.576017 1_666
Se1 V3 2.724761 1_555
Se2 V2 2.500339 1_555
Se2 V2 2.500342 1_455
Se2 V0 2.558158 1_565
Se3 V1 2.500339 1_555
Se3 V1 2.500342 1_655
Se3 V0 2.558158 1_656
Se4 V3 2.450774 1_555
Se4 V4 2.541994 1_555
Se4 V4 2.541997 1_455
Se5 V4 2.450774 1_555
Se5 V3 2.541994 1_555
Se5 V3 2.541997 1_655
Se6 V4 2.663410 1_455
Se6 V4 2.663410 1_555
Se6 V2 2.679661 1_545
Se6 V2 2.679663 1_445
Se6 V1 2.695105 1_555
Se7 V3 2.663410 1_655
Se7 V3 2.663410 1_555
Se7 V1 2.679661 1_565
Se7 V1 2.679663 1_665
Se7 V2 2.695105 1_555
