# generated using pymatgen
data_KCaCoC6(S3O5)2
_symmetry_space_group_name_H-M   'P 1'
_cell_length_a   11.52179400
_cell_length_b   12.60224300
_cell_length_c   13.33450900
_cell_angle_alpha   90.00000000
_cell_angle_beta   90.00000000
_cell_angle_gamma   90.00000000
_symmetry_Int_Tables_number   1
_chemical_formula_structural   KCaCoC6(S3O5)2
_chemical_formula_sum   'K4 Ca4 Co4 C24 S24 O40'
_cell_volume   1936.17667778
_cell_formula_units_Z   4
loop_
 _symmetry_equiv_pos_site_id
 _symmetry_equiv_pos_as_xyz
  1  'x, y, z'
loop_
 _atom_site_type_symbol
 _atom_site_label
 _atom_site_symmetry_multiplicity
 _atom_site_fract_x
 _atom_site_fract_y
 _atom_site_fract_z
 _atom_site_occupancy
  K  K0  1  0.58413000  0.93570500  0.22075700  1
  K  K1  1  0.08413000  0.56429500  0.77924300  1
  K  K2  1  0.41587000  0.43570500  0.27924300  1
  K  K3  1  0.91587000  0.06429500  0.72075700  1
  Ca  Ca0  1  0.71489400  0.94267800  0.95418100  1
  Ca  Ca1  1  0.21489400  0.55732200  0.04581900  1
  Ca  Ca2  1  0.28510600  0.44267800  0.54581900  1
  Ca  Ca3  1  0.78510600  0.05732200  0.45418100  1
  Co  Co0  1  0.28576600  0.92684900  0.48523100  1
  Co  Co1  1  0.78576600  0.57315100  0.51476900  1
  Co  Co2  1  0.71423400  0.42684900  0.01476900  1
  Co  Co3  1  0.21423400  0.07315100  0.98523100  1
  C  C0  1  0.51379400  0.05754600  0.43752300  1
  C  C1  1  0.01379400  0.44245400  0.56247700  1
  C  C2  1  0.48620600  0.55754600  0.06247700  1
  C  C3  1  0.98620600  0.94245400  0.93752300  1
  C  C4  1  0.05429700  0.06276800  0.49379100  1
  C  C5  1  0.55429700  0.43723200  0.50620900  1
  C  C6  1  0.94570300  0.56276800  0.00620900  1
  C  C7  1  0.44570300  0.93723200  0.99379100  1
  C  C8  1  0.53636800  0.01011000  0.54151200  1
  C  C9  1  0.03636800  0.48989000  0.45848800  1
  C  C10  1  0.46363200  0.51011000  0.95848800  1
  C  C11  1  0.96363200  0.98989000  0.04151200  1
  C  C12  1  0.03886100  0.99325600  0.40057000  1
  C  C13  1  0.53886100  0.50674400  0.59943000  1
  C  C14  1  0.96113900  0.49325600  0.09943000  1
  C  C15  1  0.46113900  0.00674400  0.90057000  1
  C  C16  1  0.32746500  0.67680600  0.46975700  1
  C  C17  1  0.82746500  0.82319400  0.53024300  1
  C  C18  1  0.67253500  0.17680600  0.03024300  1
  C  C19  1  0.17253500  0.32319400  0.96975700  1
  C  C20  1  0.24633400  0.68954300  0.55952300  1
  C  C21  1  0.74633400  0.81045700  0.44047700  1
  C  C22  1  0.75366600  0.18954300  0.94047700  1
  C  C23  1  0.25366600  0.31045700  0.05952300  1
  S  S0  1  0.38229700  0.03721400  0.38191400  1
  S  S1  1  0.88229700  0.46278600  0.61808600  1
  S  S2  1  0.61770300  0.53721400  0.11808600  1
  S  S3  1  0.11770300  0.96278600  0.88191400  1
  S  S4  1  0.18275800  0.05937500  0.55663300  1
  S  S5  1  0.68275800  0.44062500  0.44336700  1
  S  S6  1  0.81724200  0.55937500  0.94336700  1
  S  S7  1  0.31724200  0.94062500  0.05663300  1
  S  S8  1  0.42655000  0.94597300  0.60148200  1
  S  S9  1  0.92655000  0.55402700  0.39851800  1
  S  S10  1  0.57345000  0.44597300  0.89851800  1
  S  S11  1  0.07345000  0.05402700  0.10148200  1
  S  S12  1  0.14810400  0.90979300  0.36677800  1
  S  S13  1  0.64810400  0.59020700  0.63322200  1
  S  S14  1  0.85189600  0.40979300  0.13322200  1
  S  S15  1  0.35189600  0.09020700  0.86677800  1
  S  S16  1  0.37692600  0.78890600  0.41261600  1
  S  S17  1  0.87692600  0.71109400  0.58738400  1
  S  S18  1  0.62307400  0.28890600  0.08738400  1
  S  S19  1  0.12307400  0.21109400  0.91261600  1
  S  S20  1  0.19835000  0.81251300  0.58994800  1
  S  S21  1  0.69835000  0.68748700  0.41005200  1
  S  S22  1  0.80165000  0.31251300  0.91005200  1
  S  S23  1  0.30165000  0.18748700  0.08994800  1
  O  O0  1  0.59608500  0.10710300  0.39609800  1
  O  O1  1  0.09608500  0.39289700  0.60390200  1
  O  O2  1  0.40391500  0.60710300  0.10390200  1
  O  O3  1  0.90391500  0.89289700  0.89609800  1
  O  O4  1  0.96837100  0.11887300  0.52060100  1
  O  O5  1  0.46837100  0.38112700  0.47939900  1
  O  O6  1  0.03162900  0.61887300  0.97939900  1
  O  O7  1  0.53162900  0.88112700  0.02060100  1
  O  O8  1  0.63717900  0.02037800  0.57601000  1
  O  O9  1  0.13717900  0.47962200  0.42399000  1
  O  O10  1  0.36282100  0.52037800  0.92399000  1
  O  O11  1  0.86282100  0.97962200  0.07601000  1
  O  O12  1  0.94388300  0.99990700  0.35503900  1
  O  O13  1  0.44388300  0.50009300  0.64496100  1
  O  O14  1  0.05611700  0.49990700  0.14496100  1
  O  O15  1  0.55611700  0.00009300  0.85503900  1
  O  O16  1  0.35519900  0.58424700  0.44303900  1
  O  O17  1  0.85519900  0.91575300  0.55696100  1
  O  O18  1  0.64480100  0.08424700  0.05696100  1
  O  O19  1  0.14480100  0.41575300  0.94303900  1
  O  O20  1  0.21665200  0.60674100  0.60700100  1
  O  O21  1  0.71665200  0.89325900  0.39299900  1
  O  O22  1  0.78334800  0.10674100  0.89299900  1
  O  O23  1  0.28334800  0.39325900  0.10700100  1
  O  O24  1  0.38134500  0.72767700  0.82443200  1
  O  O25  1  0.88134500  0.77232300  0.17556800  1
  O  O26  1  0.61865500  0.22767700  0.67556800  1
  O  O27  1  0.11865500  0.27232300  0.32443200  1
  O  O28  1  0.64681700  0.77362400  0.82597800  1
  O  O29  1  0.14681700  0.72637600  0.17402200  1
  O  O30  1  0.35318300  0.27362400  0.67402200  1
  O  O31  1  0.85318300  0.22637600  0.32597800  1
  O  O32  1  0.28932900  0.72082800  0.87098200  1
  O  O33  1  0.78932900  0.77917200  0.12901800  1
  O  O34  1  0.71067100  0.22082800  0.62901800  1
  O  O35  1  0.21067100  0.27917200  0.37098200  1
  O  O36  1  0.69918900  0.82801400  0.76331500  1
  O  O37  1  0.19918900  0.67198600  0.23668500  1
  O  O38  1  0.30081100  0.32801400  0.73668500  1
  O  O39  1  0.80081100  0.17198600  0.26331500  1
loop_
_geom_bond_atom_site_label_1
_geom_bond_atom_site_label_2
_geom_bond_distance
_geom_bond_site_symmetry_2
K0 O21 2.809386 1_555
K0 O7 2.821782 1_555
K0 O18 2.960298 1_565
K0 O0 3.186097 1_565
K0 O33 3.313245 1_555
K0 S0 3.415010 1_565
K1 O20 2.809386 1_555
K1 O6 2.821782 1_555
K1 O19 2.960298 1_555
K1 O1 3.186097 1_555
K1 O32 3.313245 1_555
K1 S1 3.415010 1_455
K2 O23 2.809386 1_555
K2 O5 2.821782 1_555
K2 O16 2.960298 1_555
K2 O2 3.186097 1_555
K2 O35 3.313245 1_555
K2 S2 3.415010 1_555
K3 O22 2.809386 1_555
K3 O4 2.821782 1_555
K3 O17 2.960298 1_545
K3 O3 3.186097 1_545
K3 O34 3.313245 1_555
K3 S3 3.415010 1_645
Ca0 O22 2.358487 1_565
Ca0 O15 2.370218 1_565
Ca0 O18 2.390294 1_566
Ca0 O3 2.395102 1_555
Ca0 O11 2.400164 1_556
Ca0 O7 2.417584 1_556
Ca0 O28 2.841930 1_555
Ca0 O36 2.932302 1_555
Ca1 O23 2.358487 1_555
Ca1 O14 2.370218 1_555
Ca1 O19 2.390294 1_554
Ca1 O2 2.395102 1_555
Ca1 O10 2.400164 1_554
Ca1 O6 2.417584 1_554
Ca1 O29 2.841930 1_555
Ca1 O37 2.932302 1_555
Ca2 O20 2.358487 1_555
Ca2 O13 2.370218 1_555
Ca2 O16 2.390294 1_555
Ca2 O1 2.395102 1_555
Ca2 O9 2.400164 1_555
Ca2 O5 2.417584 1_555
Ca2 O30 2.841930 1_555
Ca2 O38 2.932302 1_555
Ca3 O21 2.358487 1_545
Ca3 O12 2.370218 1_545
Ca3 O17 2.390294 1_545
Ca3 O0 2.395102 1_555
Ca3 O8 2.400164 1_555
Ca3 O4 2.417584 1_555
Ca3 O31 2.841930 1_555
Ca3 O39 2.932302 1_555
Co0 S20 2.245081 1_555
Co0 S12 2.248737 1_555
Co0 S16 2.250059 1_555
Co0 S0 2.251549 1_565
Co0 S8 2.256592 1_555
Co0 S4 2.259295 1_565
Co1 S21 2.245081 1_555
Co1 S13 2.248737 1_555
Co1 S17 2.250059 1_555
Co1 S1 2.251549 1_555
Co1 S9 2.256592 1_555
Co1 S5 2.259295 1_555
Co2 S22 2.245081 1_554
Co2 S14 2.248737 1_555
Co2 S18 2.250059 1_555
Co2 S2 2.251549 1_555
Co2 S10 2.256592 1_554
Co2 S6 2.259295 1_554
Co3 S23 2.245081 1_556
Co3 S15 2.248737 1_555
Co3 S19 2.250059 1_555
Co3 S3 2.251549 1_545
Co3 S11 2.256592 1_556
Co3 S7 2.259295 1_546
C0 O0 1.262589 1_555
C0 S0 1.706158 1_555
C1 O1 1.262589 1_555
C1 S1 1.706158 1_455
C2 O2 1.262589 1_555
C2 S2 1.706158 1_555
C3 O3 1.262589 1_555
C3 S3 1.706158 1_655
C4 O4 1.268017 1_455
C4 S4 1.701387 1_555
C5 O5 1.268017 1_555
C5 S5 1.701387 1_555
C6 O6 1.268017 1_654
C6 S6 1.701387 1_554
C7 O7 1.268017 1_556
C7 S7 1.701387 1_556
C8 O8 1.255983 1_555
C8 S8 1.701105 1_545
C9 O9 1.255983 1_555
C9 S9 1.701105 1_455
C10 O10 1.255983 1_555
C10 S10 1.701105 1_555
C11 O11 1.255983 1_555
C11 S11 1.701105 1_665
C12 O12 1.254259 1_455
C12 S12 1.701068 1_555
C13 O13 1.254259 1_555
C13 S13 1.701068 1_555
C14 O14 1.254259 1_655
C14 S14 1.701068 1_555
C15 O15 1.254259 1_555
C15 S15 1.701068 1_555
C16 O16 1.260812 1_555
C16 S16 1.703256 1_555
C17 O17 1.260812 1_555
C17 S17 1.703256 1_555
C18 O18 1.260812 1_555
C18 S18 1.703256 1_555
C19 O19 1.260812 1_555
C19 S19 1.703256 1_555
C20 O20 1.267533 1_555
C20 S20 1.694643 1_555
C21 O21 1.267533 1_555
C21 S21 1.694643 1_555
C22 O22 1.267533 1_555
C22 S22 1.694643 1_555
C23 O23 1.267533 1_555
C23 S23 1.694643 1_555
O24 O32 1.231563 1_555
O25 O33 1.231563 1_555
O26 O34 1.231563 1_555
O27 O35 1.231563 1_555
O28 O36 1.237793 1_555
O29 O37 1.237793 1_555
O30 O38 1.237793 1_555
O31 O39 1.237793 1_555
