# generated using pymatgen
data_CeMg6Zr
_symmetry_space_group_name_H-M   'P 1'
_cell_length_a   6.67719538
_cell_length_b   6.11890332
_cell_length_c   5.21321223
_cell_angle_alpha   90.00000000
_cell_angle_beta   90.00000000
_cell_angle_gamma   117.27064427
_symmetry_Int_Tables_number   1
_chemical_formula_structural   CeMg6Zr
_chemical_formula_sum   'Ce1 Mg6 Zr1'
_cell_volume   189.32265538
_cell_formula_units_Z   1
loop_
 _symmetry_equiv_pos_site_id
 _symmetry_equiv_pos_as_xyz
  1  'x, y, z'
loop_
 _atom_site_type_symbol
 _atom_site_label
 _atom_site_symmetry_multiplicity
 _atom_site_fract_x
 _atom_site_fract_y
 _atom_site_fract_z
 _atom_site_occupancy
  Ce  Ce0  1  0.15184001  0.82591951  0.25000000  1
  Mg  Mg0  1  0.65511430  0.32659088  0.25000000  1
  Mg  Mg1  1  0.65511430  0.82852242  0.25000000  1
  Mg  Mg2  1  0.34439455  0.17671758  0.75000000  1
  Mg  Mg3  1  0.34439455  0.66767797  0.75000000  1
  Mg  Mg4  1  0.85564017  0.17782059  0.75000000  1
  Mg  Mg5  1  0.82711190  0.66355645  0.75000000  1
  Zr  Zr0  1  0.16639022  0.33319461  0.25000000  1
loop_
_geom_bond_atom_site_label_1
_geom_bond_atom_site_label_2
_geom_bond_distance
_geom_bond_site_symmetry_2
Ce0 Zr0 3.060670 1_565
Ce0 Zr0 3.060670 1_555
Ce0 Mg5 3.241725 1_454
Ce0 Mg5 3.241725 1_455
Ce0 Mg3 3.244357 1_554
Ce0 Mg3 3.244357 1_555
Ce0 Mg2 3.244362 1_564
Ce0 Mg2 3.244362 1_565
Ce0 Mg0 3.324062 1_455
Ce0 Mg1 3.324062 1_455
Ce0 Mg0 3.353193 1_565
Ce0 Mg1 3.353193 1_555
Mg0 Mg1 3.047633 1_545
Mg0 Mg1 3.071271 1_555
Mg0 Mg5 3.192906 1_555
Mg0 Mg5 3.192906 1_554
Mg0 Mg2 3.193173 1_555
Mg0 Mg2 3.193173 1_554
Mg0 Mg4 3.245428 1_555
Mg0 Mg4 3.245428 1_554
Mg0 Zr0 3.282017 1_555
Mg0 Zr0 3.395565 1_655
Mg1 Mg5 3.192900 1_554
Mg1 Mg5 3.192900 1_555
Mg1 Mg3 3.193173 1_555
Mg1 Mg3 3.193173 1_554
Mg1 Mg4 3.245433 1_565
Mg1 Mg4 3.245433 1_564
Mg1 Zr0 3.282017 1_555
Mg1 Zr0 3.395564 1_665
Mg2 Mg3 3.004139 1_555
Mg2 Mg3 3.114764 1_545
Mg2 Zr0 3.188527 1_555
Mg2 Zr0 3.188527 1_556
Mg2 Mg5 3.234831 1_555
Mg2 Mg4 3.266606 1_455
Mg2 Mg4 3.410600 1_555
Mg2 Mg5 3.442515 1_445
Mg3 Zr0 3.188533 1_555
Mg3 Zr0 3.188533 1_556
Mg3 Mg5 3.234831 1_555
Mg3 Mg4 3.266606 1_455
Mg3 Mg4 3.410599 1_565
Mg3 Mg5 3.442515 1_455
Mg4 Mg5 3.064133 1_555
Mg4 Mg5 3.064133 1_545
Mg4 Zr0 3.193100 1_655
Mg4 Zr0 3.193100 1_656
