# generated using pymatgen
data_C4N3
_symmetry_space_group_name_H-M   'P 1'
_cell_length_a   10.87457000
_cell_length_b   13.11138900
_cell_length_c   13.93991100
_cell_angle_alpha   90.00000000
_cell_angle_beta   90.00000000
_cell_angle_gamma   90.00000000
_symmetry_Int_Tables_number   1
_chemical_formula_structural   C4N3
_chemical_formula_sum   'C64 N48'
_cell_volume   1987.56251196
_cell_formula_units_Z   16
loop_
 _symmetry_equiv_pos_site_id
 _symmetry_equiv_pos_as_xyz
  1  'x, y, z'
loop_
 _atom_site_type_symbol
 _atom_site_label
 _atom_site_symmetry_multiplicity
 _atom_site_fract_x
 _atom_site_fract_y
 _atom_site_fract_z
 _atom_site_occupancy
  C  C0  1  0.09455900  0.08819800  0.18413300  1
  C  C1  1  0.90544100  0.91180200  0.81586700  1
  C  C2  1  0.40544100  0.91180200  0.68413300  1
  C  C3  1  0.90544100  0.58819800  0.31586700  1
  C  C4  1  0.59455900  0.08819800  0.31586700  1
  C  C5  1  0.09455900  0.41180200  0.68413300  1
  C  C6  1  0.59455900  0.41180200  0.81586700  1
  C  C7  1  0.40544100  0.58819800  0.18413300  1
  C  C8  1  0.20094500  0.06854600  0.04462700  1
  C  C9  1  0.79905500  0.93145400  0.95537300  1
  C  C10  1  0.29905500  0.93145400  0.54462700  1
  C  C11  1  0.79905500  0.56854600  0.45537300  1
  C  C12  1  0.70094500  0.06854600  0.45537300  1
  C  C13  1  0.20094500  0.43145400  0.54462700  1
  C  C14  1  0.70094500  0.43145400  0.95537300  1
  C  C15  1  0.29905500  0.56854600  0.04462700  1
  C  C16  1  0.22706400  0.49384300  0.46281800  1
  C  C17  1  0.77293600  0.50615700  0.53718200  1
  C  C18  1  0.27293600  0.50615700  0.96281800  1
  C  C19  1  0.77293600  0.99384300  0.03718200  1
  C  C20  1  0.72706400  0.49384300  0.03718200  1
  C  C21  1  0.22706400  0.00615700  0.96281800  1
  C  C22  1  0.72706400  0.00615700  0.53718200  1
  C  C23  1  0.27293600  0.99384300  0.46281800  1
  C  C24  1  0.12729200  0.24586600  0.28124800  1
  C  C25  1  0.87270800  0.75413400  0.71875200  1
  C  C26  1  0.37270800  0.75413400  0.78124800  1
  C  C27  1  0.87270800  0.74586600  0.21875200  1
  C  C28  1  0.62729200  0.24586600  0.21875200  1
  C  C29  1  0.12729200  0.25413400  0.78124800  1
  C  C30  1  0.62729200  0.25413400  0.71875200  1
  C  C31  1  0.37270800  0.74586600  0.28124800  1
  C  C32  1  0.35413600  0.29952800  0.49645100  1
  C  C33  1  0.64586400  0.70047200  0.50354900  1
  C  C34  1  0.14586400  0.70047200  0.99645100  1
  C  C35  1  0.64586400  0.79952800  0.00354900  1
  C  C36  1  0.85413600  0.29952800  0.00354900  1
  C  C37  1  0.35413600  0.20047200  0.99645100  1
  C  C38  1  0.85413600  0.20047200  0.50354900  1
  C  C39  1  0.14586400  0.79952800  0.49645100  1
  C  C40  1  0.15367900  0.18362200  0.19930500  1
  C  C41  1  0.84632100  0.81637800  0.80069500  1
  C  C42  1  0.34632100  0.81637800  0.69930500  1
  C  C43  1  0.84632100  0.68362200  0.30069500  1
  C  C44  1  0.65367900  0.18362200  0.30069500  1
  C  C45  1  0.15367900  0.31637800  0.69930500  1
  C  C46  1  0.65367900  0.31637800  0.80069500  1
  C  C47  1  0.34632100  0.68362200  0.19930500  1
  C  C48  1  0.50731200  0.04801900  0.24877100  1
  C  C49  1  0.49268800  0.95198100  0.75122900  1
  C  C50  1  0.99268800  0.95198100  0.74877100  1
  C  C51  1  0.49268800  0.54801900  0.25122900  1
  C  C52  1  0.00731200  0.04801900  0.25122900  1
  C  C53  1  0.50731200  0.45198100  0.74877100  1
  C  C54  1  0.00731200  0.45198100  0.75122900  1
  C  C55  1  0.99268800  0.54801900  0.24877100  1
  C  C56  1  0.26199500  0.16288600  0.06080000  1
  C  C57  1  0.73800500  0.83711400  0.93920000  1
  C  C58  1  0.23800500  0.83711400  0.56080000  1
  C  C59  1  0.73800500  0.66288600  0.43920000  1
  C  C60  1  0.76199500  0.16288600  0.43920000  1
  C  C61  1  0.26199500  0.33711400  0.56080000  1
  C  C62  1  0.76199500  0.33711400  0.93920000  1
  C  C63  1  0.23800500  0.66288600  0.06080000  1
  N  N0  1  0.43024600  0.26903800  0.44483700  1
  N  N1  1  0.56975400  0.73096200  0.55516300  1
  N  N2  1  0.06975400  0.73096200  0.94483700  1
  N  N3  1  0.56975400  0.76903800  0.05516300  1
  N  N4  1  0.93024600  0.26903800  0.05516300  1
  N  N5  1  0.43024600  0.23096200  0.94483700  1
  N  N6  1  0.93024600  0.23096200  0.55516300  1
  N  N7  1  0.06975400  0.76903800  0.44483700  1
  N  N8  1  0.11790600  0.03197700  0.10631900  1
  N  N9  1  0.88209400  0.96802300  0.89368100  1
  N  N10  1  0.38209400  0.96802300  0.60631900  1
  N  N11  1  0.88209400  0.53197700  0.39368100  1
  N  N12  1  0.61790600  0.03197700  0.39368100  1
  N  N13  1  0.11790600  0.46802300  0.60631900  1
  N  N14  1  0.61790600  0.46802300  0.89368100  1
  N  N15  1  0.38209400  0.53197700  0.10631900  1
  N  N16  1  0.43571900  0.01585500  0.19417900  1
  N  N17  1  0.56428100  0.98414500  0.80582100  1
  N  N18  1  0.06428100  0.98414500  0.69417900  1
  N  N19  1  0.56428100  0.51585500  0.30582100  1
  N  N20  1  0.93571900  0.01585500  0.30582100  1
  N  N21  1  0.43571900  0.48414500  0.69417900  1
  N  N22  1  0.93571900  0.48414500  0.80582100  1
  N  N23  1  0.06428100  0.51585500  0.19417900  1
  N  N24  1  0.23712700  0.22000600  0.13779100  1
  N  N25  1  0.76287300  0.77999400  0.86220900  1
  N  N26  1  0.26287300  0.77999400  0.63779100  1
  N  N27  1  0.76287300  0.72000600  0.36220900  1
  N  N28  1  0.73712700  0.22000600  0.36220900  1
  N  N29  1  0.23712700  0.27999400  0.63779100  1
  N  N30  1  0.73712700  0.27999400  0.86220900  1
  N  N31  1  0.26287300  0.72000600  0.13779100  1
  N  N32  1  0.10554100  0.29594300  0.34820100  1
  N  N33  1  0.89445900  0.70405700  0.65179900  1
  N  N34  1  0.39445900  0.70405700  0.84820100  1
  N  N35  1  0.89445900  0.79594300  0.15179900  1
  N  N36  1  0.60554100  0.29594300  0.15179900  1
  N  N37  1  0.10554100  0.20405700  0.84820100  1
  N  N38  1  0.60554100  0.20405700  0.65179900  1
  N  N39  1  0.39445900  0.79594300  0.34820100  1
  N  N40  1  0.24920600  0.04534000  0.39710700  1
  N  N41  1  0.75079400  0.95466000  0.60289300  1
  N  N42  1  0.25079400  0.95466000  0.89710700  1
  N  N43  1  0.75079400  0.54534000  0.10289300  1
  N  N44  1  0.74920600  0.04534000  0.10289300  1
  N  N45  1  0.24920600  0.45466000  0.89710700  1
  N  N46  1  0.74920600  0.45466000  0.60289300  1
  N  N47  1  0.25079400  0.54534000  0.39710700  1
loop_
_geom_bond_atom_site_label_1
_geom_bond_atom_site_label_2
_geom_bond_distance
_geom_bond_site_symmetry_2
C0 N8 1.335832 1_555
C0 C40 1.422467 1_555
C0 C52 1.432655 1_555
C1 N9 1.335832 1_555
C1 C41 1.422467 1_555
C1 C50 1.432655 1_555
C2 N10 1.335832 1_555
C2 C42 1.422467 1_555
C2 C49 1.432655 1_555
C3 N11 1.335832 1_555
C3 C43 1.422467 1_555
C3 C55 1.432655 1_555
C4 N12 1.335832 1_555
C4 C44 1.422467 1_555
C4 C48 1.432655 1_555
C5 N13 1.335832 1_555
C5 C54 1.432655 1_555
C6 N14 1.335832 1_555
C7 N15 1.335832 1_555
C8 N8 1.335999 1_555
C9 N9 1.335999 1_555
C10 N10 1.335999 1_555
C10 C58 1.421820 1_555
C10 C23 1.431902 1_555
C11 N11 1.335999 1_555
C11 C59 1.421820 1_555
C11 C17 1.431902 1_555
C12 N12 1.335999 1_555
C12 C60 1.421820 1_555
C12 C22 1.431902 1_555
C13 N13 1.335999 1_555
C13 C61 1.421820 1_555
C13 C16 1.431902 1_555
C14 N14 1.335999 1_555
C14 C62 1.421820 1_555
C14 C20 1.431902 1_556
C15 N15 1.335999 1_555
C15 C63 1.421820 1_555
C15 C18 1.431902 1_554
C16 N47 1.166854 1_555
C17 N46 1.166854 1_555
C18 N45 1.166854 1_555
C19 N44 1.166854 1_565
C19 C9 1.431902 1_554
C20 N43 1.166854 1_555
C21 N42 1.166854 1_545
C21 C8 1.431902 1_556
C22 N41 1.166854 1_545
C23 N40 1.166854 1_565
C24 N32 1.165387 1_555
C24 C40 1.432887 1_555
C25 N33 1.165387 1_555
C25 C41 1.432887 1_555
C26 N34 1.165387 1_555
C26 C42 1.432887 1_555
C27 N35 1.165387 1_555
C27 C43 1.432887 1_555
C28 N36 1.165387 1_555
C28 C44 1.432887 1_555
C29 N37 1.165387 1_555
C29 C45 1.432887 1_555
C30 N38 1.165387 1_555
C30 C46 1.432887 1_555
C31 N39 1.165387 1_555
C31 C47 1.432887 1_555
C32 N0 1.167267 1_555
C32 C61 1.432303 1_555
C33 N1 1.167267 1_555
C33 C59 1.432303 1_555
C34 N2 1.167267 1_555
C34 C63 1.432303 1_556
C35 N3 1.167267 1_555
C35 C57 1.432303 1_554
C36 N4 1.167267 1_555
C36 C62 1.432303 1_554
C37 N5 1.167267 1_555
C37 C56 1.432303 1_556
C38 N6 1.167267 1_555
C38 C60 1.432303 1_555
C39 N7 1.167267 1_555
C39 C58 1.432303 1_555
C40 N24 1.336549 1_555
C41 N25 1.336549 1_555
C42 N26 1.336549 1_555
C43 N27 1.336549 1_555
C44 N28 1.336549 1_555
C45 N29 1.336549 1_555
C45 C5 1.422467 1_555
C46 N30 1.336549 1_555
C46 C6 1.422467 1_555
C47 N31 1.336549 1_555
C47 C7 1.422467 1_555
C48 N16 1.167521 1_555
C49 N17 1.167521 1_555
C50 N18 1.167521 1_655
C51 N19 1.167521 1_555
C51 C7 1.432655 1_555
C52 N20 1.167521 1_455
C53 N21 1.167521 1_555
C53 C6 1.432655 1_555
C54 N22 1.167521 1_455
C55 N23 1.167521 1_655
C56 N24 1.336367 1_555
C56 C8 1.421820 1_555
C57 N25 1.336367 1_555
C57 C9 1.421820 1_555
C58 N26 1.336367 1_555
C59 N27 1.336367 1_555
C60 N28 1.336367 1_555
C61 N29 1.336367 1_555
C62 N30 1.336367 1_555
C63 N31 1.336367 1_555
