# generated using pymatgen
data_Mg5Si6
_symmetry_space_group_name_H-M   'P 1'
_cell_length_a   3.75304500
_cell_length_b   7.20491000
_cell_length_c   14.99909456
_cell_angle_alpha   89.98431911
_cell_angle_beta   90.00000000
_cell_angle_gamma   90.00000000
_symmetry_Int_Tables_number   1
_chemical_formula_structural   Mg5Si6
_chemical_formula_sum   'Mg10 Si12'
_cell_volume   405.58077321
_cell_formula_units_Z   2
loop_
 _symmetry_equiv_pos_site_id
 _symmetry_equiv_pos_as_xyz
  1  'x, y, z'
loop_
 _atom_site_type_symbol
 _atom_site_label
 _atom_site_symmetry_multiplicity
 _atom_site_fract_x
 _atom_site_fract_y
 _atom_site_fract_z
 _atom_site_occupancy
  Mg  Mg0  1  0.50000000  0.88387100  0.06581700  1
  Mg  Mg1  1  0.50000000  0.47855200  0.51527100  1
  Mg  Mg2  1  0.50000000  0.86838300  0.31718000  1
  Mg  Mg3  1  0.00000000  0.17620300  0.61050400  1
  Mg  Mg4  1  0.00000000  0.27902600  0.79730300  1
  Mg  Mg5  1  0.00000000  0.62089200  0.17754400  1
  Mg  Mg6  1  0.00000000  0.21450500  0.35401600  1
  Mg  Mg7  1  0.50000000  0.83647900  0.63078000  1
  Mg  Mg8  1  0.00000000  0.68114900  0.93199600  1
  Mg  Mg9  1  0.00000000  0.21040100  0.01607900  1
  Si  Si0  1  0.50000000  0.49515000  0.05821200  1
  Si  Si1  1  0.50000000  0.38704000  0.90819900  1
  Si  Si2  1  0.50000000  0.08890100  0.47886600  1
  Si  Si3  1  0.00000000  0.86899800  0.48607600  1
  Si  Si4  1  0.00000000  0.01998200  0.19019900  1
  Si  Si5  1  0.50000000  0.01844300  0.88594800  1
  Si  Si6  1  0.00000000  0.53426600  0.66596600  1
  Si  Si7  1  0.00000000  0.59737600  0.38795000  1
  Si  Si8  1  0.50000000  0.48238700  0.29514400  1
  Si  Si9  1  0.50000000  0.60748100  0.77368400  1
  Si  Si10  1  0.00000000  0.90614500  0.78311000  1
  Si  Si11  1  0.50000000  0.24074500  0.17378200  1
loop_
_geom_bond_atom_site_label_1
_geom_bond_atom_site_label_2
_geom_bond_distance
_geom_bond_site_symmetry_2
Mg0 Si0 2.803053 1_555
Mg0 Si4 2.822158 1_565
Mg0 Si4 2.822158 1_665
Mg0 Si5 2.866560 1_564
Mg0 Si11 3.039073 1_565
Mg0 Mg8 3.112090 1_654
Mg0 Mg8 3.112090 1_554
Mg1 Si7 2.810753 1_555
Mg1 Si7 2.810753 1_655
Mg1 Si2 2.860157 1_555
Mg1 Si6 2.965109 1_655
Mg1 Si6 2.965109 1_555
Mg2 Si8 2.800728 1_555
Mg2 Si4 2.888031 1_665
Mg2 Si4 2.888031 1_565
Mg2 Si2 2.899613 1_565
Mg2 Si7 2.908527 1_655
Mg2 Si7 2.908527 1_555
Mg2 Si3 3.152603 1_555
Mg2 Si3 3.152603 1_655
Mg3 Si6 2.710835 1_555
Mg3 Si2 2.795732 1_455
Mg3 Si2 2.795732 1_555
Mg3 Si3 2.895589 1_545
Mg3 Si10 3.238169 1_545
Mg4 Si1 2.625717 1_455
Mg4 Si1 2.625717 1_555
Mg4 Si6 2.694535 1_555
Mg4 Si10 2.695053 1_545
Mg4 Si5 2.968621 1_455
Mg4 Si5 2.968621 1_555
Mg4 Si9 3.040830 1_555
Mg4 Si9 3.040830 1_455
Mg5 Si0 2.747113 1_555
Mg5 Si0 2.747113 1_455
Mg5 Si8 2.761798 1_455
Mg5 Si8 2.761798 1_555
Mg5 Si4 2.881718 1_565
Mg5 Si7 3.160398 1_555
Mg6 Si2 2.801096 1_555
Mg6 Si2 2.801096 1_455
Mg6 Si7 2.805251 1_555
Mg6 Si4 2.829049 1_555
Mg6 Si8 2.832895 1_555
Mg6 Si8 2.832895 1_455
Mg6 Si3 3.180824 1_545
Mg7 Si9 2.704545 1_555
Mg7 Si3 2.878666 1_555
Mg7 Si3 2.878666 1_655
Mg7 Si2 2.914998 1_565
Mg7 Si6 2.922393 1_555
Mg7 Si6 2.922393 1_655
Mg7 Si10 2.999045 1_655
Mg7 Si10 2.999045 1_555
Mg8 Si10 2.759146 1_555
Mg8 Si1 2.852970 1_455
Mg8 Si1 2.852970 1_555
Mg8 Si0 2.983246 1_456
Mg8 Si0 2.983246 1_556
Mg8 Si9 3.072811 1_455
Mg8 Si9 3.072811 1_555
Mg8 Si5 3.146934 1_565
Mg8 Si5 3.146934 1_465
Mg9 Si1 2.785345 1_554
Mg9 Si1 2.785345 1_454
Mg9 Si0 2.851393 1_555
Mg9 Si0 2.851393 1_455
Mg9 Si4 2.949740 1_555
Mg9 Si11 3.027300 1_555
Mg9 Si11 3.027300 1_455
Mg9 Si5 3.040612 1_454
Mg9 Si5 3.040612 1_554
Si0 Si1 2.381270 1_554
Si0 Si11 2.522470 1_555
Si1 Si9 2.567398 1_555
Si1 Si5 2.676688 1_555
Si2 Si3 2.458293 1_645
Si2 Si3 2.458293 1_545
Si3 Si7 2.449014 1_555
Si6 Si9 2.531890 1_555
Si6 Si9 2.531890 1_455
Si7 Si8 2.479120 1_455
Si7 Si8 2.479120 1_555
Si10 Si5 2.560448 1_465
Si10 Si5 2.560448 1_565
Si10 Si9 2.858660 1_455
Si10 Si9 2.858660 1_555
Si11 Si4 2.472184 1_555
Si11 Si4 2.472184 1_655
Si11 Si8 2.519209 1_555
