# generated using pymatgen
data_LiHo2Ta2O8
_symmetry_space_group_name_H-M   'P 1'
_cell_length_a   5.16964322
_cell_length_b   5.45090558
_cell_length_c   6.58099744
_cell_angle_alpha   110.55904814
_cell_angle_beta   109.05860330
_cell_angle_gamma   99.22383329
_symmetry_Int_Tables_number   1
_chemical_formula_structural   LiHo2Ta2O8
_chemical_formula_sum   'Li1 Ho2 Ta2 O8'
_cell_volume   155.99627027
_cell_formula_units_Z   1
loop_
 _symmetry_equiv_pos_site_id
 _symmetry_equiv_pos_as_xyz
  1  'x, y, z'
loop_
 _atom_site_type_symbol
 _atom_site_label
 _atom_site_symmetry_multiplicity
 _atom_site_fract_x
 _atom_site_fract_y
 _atom_site_fract_z
 _atom_site_occupancy
  Li  Li0  1  0.62055700  0.87053500  0.74151600  1
  Ho  Ho0  1  0.37458300  0.62457500  0.24955800  1
  Ho  Ho1  1  0.61385300  0.36381400  0.72804000  1
  Ta  Ta0  1  0.85579500  0.10586800  0.21207400  1
  Ta  Ta1  1  0.16540300  0.91537900  0.83108100  1
  O  O0  1  0.02622600  0.79425300  0.06325600  1
  O  O1  1  0.53670200  0.26875400  0.06326200  1
  O  O2  1  0.96576900  0.20126500  0.93175700  1
  O  O3  1  0.46554500  0.73004300  0.93176800  1
  O  O4  1  0.22934000  0.35933800  0.42510000  1
  O  O5  1  0.69535300  0.06531700  0.42509200  1
  O  O6  1  0.79290900  0.65453300  0.58873500  1
  O  O7  1  0.29546300  0.93382800  0.58876000  1
loop_
_geom_bond_atom_site_label_1
_geom_bond_atom_site_label_2
_geom_bond_distance
_geom_bond_site_symmetry_2
Li0 O7 1.811138 1_555
Li0 O6 1.811357 1_555
Li0 O2 1.981552 1_565
Li0 O3 1.981969 1_555
Ho0 O5 2.319190 1_565
Ho0 O4 2.319525 1_555
Ho0 O1 2.342948 1_555
Ho0 O0 2.343133 1_555
Ho0 O6 2.482772 1_555
Ho0 O7 2.483231 1_555
Ho0 O2 2.515056 1_454
Ho0 O3 2.515059 1_554
Ho1 O4 2.299728 1_555
Ho1 O5 2.299945 1_555
Ho1 O7 2.304755 1_545
Ho1 O6 2.304955 1_555
Ho1 O2 2.377061 1_555
Ho1 O3 2.377541 1_555
Ho1 O1 2.570148 1_556
Ho1 O0 2.570249 1_656
O0 Ta0 2.120273 1_465
O0 Ta1 2.135979 1_554
O1 Ta0 2.119857 1_555
O1 Ta1 2.135784 1_544
O2 Ta1 2.041927 1_645
O2 Ta0 2.293619 1_556
O3 Ta1 2.041678 1_555
O3 Ta0 2.293500 1_566
O4 Ta0 1.902544 1_455
O5 Ta0 1.902701 1_555
O6 Ta1 1.948668 1_655
O7 Ta1 1.948460 1_555
