# generated using pymatgen
data_Mg14CuMo
_symmetry_space_group_name_H-M   'P 1'
_cell_length_a   6.25063286
_cell_length_b   6.25063237
_cell_length_c   9.79468706
_cell_angle_alpha   90.00000000
_cell_angle_beta   90.00000000
_cell_angle_gamma   120.00000260
_symmetry_Int_Tables_number   1
_chemical_formula_structural   Mg14CuMo
_chemical_formula_sum   'Mg14 Cu1 Mo1'
_cell_volume   331.41268905
_cell_formula_units_Z   1
loop_
 _symmetry_equiv_pos_site_id
 _symmetry_equiv_pos_as_xyz
  1  'x, y, z'
loop_
 _atom_site_type_symbol
 _atom_site_label
 _atom_site_symmetry_multiplicity
 _atom_site_fract_x
 _atom_site_fract_y
 _atom_site_fract_z
 _atom_site_occupancy
  Mg  Mg0  1  0.16563993  0.83281946  0.12500000  1
  Mg  Mg1  1  0.16973642  0.83486771  0.62500000  1
  Mg  Mg2  1  0.66718054  0.33436007  0.12500000  1
  Mg  Mg3  1  0.66513229  0.33026358  0.62500000  1
  Mg  Mg4  1  0.66718054  0.83281946  0.12500000  1
  Mg  Mg5  1  0.66513229  0.83486771  0.62500000  1
  Mg  Mg6  1  0.32544268  0.17455732  0.37601069  1
  Mg  Mg7  1  0.32544268  0.17455732  0.87398931  1
  Mg  Mg8  1  0.32544268  0.65088636  0.37601069  1
  Mg  Mg9  1  0.32544268  0.65088636  0.87398931  1
  Mg  Mg10  1  0.84911364  0.17455732  0.37601069  1
  Mg  Mg11  1  0.84911364  0.17455732  0.87398931  1
  Mg  Mg12  1  0.83333300  0.66666700  0.37618250  1
  Mg  Mg13  1  0.83333300  0.66666700  0.87381750  1
  Cu  Cu0  1  0.16666700  0.33333300  0.12500000  1
  Mo  Mo0  1  0.16666700  0.33333300  0.62500000  1
loop_
_geom_bond_atom_site_label_1
_geom_bond_atom_site_label_2
_geom_bond_distance
_geom_bond_site_symmetry_2
Mg0 Mg13 3.047736 1_454
Mg0 Mg12 3.047736 1_455
Mg0 Mg8 3.077570 1_555
Mg0 Mg9 3.077570 1_554
Mg0 Mg6 3.077577 1_565
Mg0 Mg7 3.077577 1_564
Mg0 Mg2 3.115686 1_455
Mg0 Mg4 3.115687 1_455
Mg0 Mg2 3.134946 1_565
Mg0 Mg4 3.134946 1_555
Mg1 Mg12 3.042289 1_455
Mg1 Mg13 3.042289 1_455
Mg1 Mg8 3.055585 1_555
Mg1 Mg9 3.055585 1_555
Mg1 Mg6 3.055592 1_565
Mg1 Mg7 3.055592 1_565
Mg1 Mg3 3.096537 1_565
Mg1 Mg5 3.096538 1_555
Mg1 Mo0 3.125360 1_555
Mg1 Mo0 3.125360 1_565
Mg1 Mg3 3.154095 1_455
Mg1 Mg5 3.154095 1_455
Mg2 Mg7 3.077577 1_554
Mg2 Mg6 3.077577 1_555
Mg2 Mg4 3.115686 1_555
Mg2 Mg4 3.134946 1_545
Mg3 Mg7 3.055592 1_555
Mg3 Mg6 3.055592 1_555
Mg3 Mg5 3.096537 1_545
Mg3 Mo0 3.125361 1_655
Mg3 Mo0 3.125361 1_555
Mg3 Mg5 3.154095 1_555
Mg4 Mg9 3.077576 1_554
Mg4 Mg8 3.077576 1_555
Mg5 Mg8 3.055592 1_555
Mg5 Mg9 3.055592 1_555
Mg5 Mo0 3.125360 1_555
Mg5 Mo0 3.125360 1_665
Mg6 Mo0 2.983701 1_555
Mg7 Mo0 2.983701 1_555
Mg8 Mo0 2.983707 1_555
Mg9 Mo0 2.983707 1_555
Mg10 Mo0 2.983707 1_655
Mg10 Mg3 3.055585 1_555
Mg10 Mg5 3.055592 1_545
Mg10 Mg2 3.077570 1_555
Mg10 Mg4 3.077576 1_545
Mg10 Mg12 3.126484 1_545
Mg10 Mg12 3.126484 1_555
Mg11 Mo0 2.983707 1_655
Mg11 Mg3 3.055585 1_555
Mg11 Mg5 3.055592 1_545
Mg11 Mg2 3.077570 1_556
Mg11 Mg4 3.077576 1_546
Mg11 Mg13 3.126484 1_545
Mg11 Mg13 3.126484 1_555
Mg12 Mg5 3.042283 1_555
Mg12 Mg3 3.042289 1_555
Mg12 Mg4 3.047730 1_555
Mg12 Mg2 3.047736 1_555
Mg12 Mg6 3.126484 1_665
Mg12 Mg6 3.126484 1_555
Mg12 Mg8 3.126484 1_555
Mg12 Mg8 3.126484 1_655
Mg13 Mg5 3.042283 1_555
Mg13 Mg3 3.042289 1_555
Mg13 Mg4 3.047730 1_556
Mg13 Mg2 3.047736 1_556
Mg13 Mg7 3.126484 1_665
Mg13 Mg7 3.126484 1_555
Mg13 Mg9 3.126484 1_555
Mg13 Mg9 3.126484 1_655
Cu0 Mg6 2.999906 1_555
Cu0 Mg7 2.999906 1_554
Cu0 Mg8 2.999912 1_555
Cu0 Mg9 2.999912 1_554
Cu0 Mg11 2.999912 1_454
Cu0 Mg10 2.999912 1_455
Cu0 Mg0 3.125321 1_555
Cu0 Mg4 3.125321 1_445
Cu0 Mg4 3.125321 1_555
Cu0 Mg0 3.125321 1_545
Cu0 Mg2 3.125321 1_455
Cu0 Mg2 3.125321 1_555
