# generated using pymatgen
data_YAl7Cu5
_symmetry_space_group_name_H-M   'P 1'
_cell_length_a   6.61275862
_cell_length_b   6.61275862
_cell_length_c   6.61275862
_cell_angle_alpha   134.86069462
_cell_angle_beta   98.86963364
_cell_angle_gamma   98.07260017
_symmetry_Int_Tables_number   1
_chemical_formula_structural   YAl7Cu5
_chemical_formula_sum   'Y1 Al7 Cu5'
_cell_volume   189.26421722
_cell_formula_units_Z   1
loop_
 _symmetry_equiv_pos_site_id
 _symmetry_equiv_pos_as_xyz
  1  'x, y, z'
loop_
 _atom_site_type_symbol
 _atom_site_label
 _atom_site_symmetry_multiplicity
 _atom_site_fract_x
 _atom_site_fract_y
 _atom_site_fract_z
 _atom_site_occupancy
  Y  Y0  1  0.00030512  -0.00000000  0.00030512  1
  Al  Al0  1  0.35039943  -0.00000000  0.35039943  1
  Al  Al1  1  0.65537913  0.00000000  0.65537913  1
  Al  Al2  1  0.65983882  0.65195711  0.00788172  1
  Al  Al3  1  0.35592361  0.34804289  0.00788172  1
  Al  Al4  1  0.22724903  0.50000000  0.72724903  1
  Al  Al5  1  0.20254073  0.70970293  0.49283780  1
  Al  Al6  1  0.78313387  0.29029707  0.49283780  1
  Cu  Cu0  1  0.49538959  0.99584825  0.99656143  1
  Cu  Cu1  1  0.49538959  0.49882916  0.49954134  1
  Cu  Cu2  1  0.00071317  0.50117084  0.99656143  1
  Cu  Cu3  1  0.00071317  0.00415175  0.49954134  1
  Cu  Cu4  1  0.77302573  0.50000000  0.27302573  1
loop_
_geom_bond_atom_site_label_1
_geom_bond_atom_site_label_2
_geom_bond_distance
_geom_bond_site_symmetry_2
Al0 Al1 2.623046 1_555
Al0 Cu0 2.646407 1_544
Al0 Cu3 2.646407 1_555
Al0 Cu2 2.646411 1_544
Al0 Cu1 2.646414 1_555
Al0 Al4 2.750164 1_555
Al0 Al4 2.750164 1_544
Al0 Al6 2.799287 1_555
Al0 Al5 2.799293 1_545
Al0 Y0 3.011064 1_555
Al1 Cu1 2.650579 1_545
Al1 Cu2 2.650581 1_655
Al1 Cu3 2.650585 1_655
Al1 Cu0 2.650585 1_545
Al1 Cu4 2.732283 1_545
Al1 Cu4 2.732283 1_556
Al1 Al6 2.879159 1_555
Al1 Al5 2.879161 1_545
Al1 Y0 2.966613 1_656
Al2 Cu3 2.580477 1_665
Al2 Cu2 2.580481 1_654
Al2 Cu4 2.633674 1_555
Al2 Al3 2.635060 1_555
Al2 Cu0 2.696140 1_554
Al2 Cu1 2.696144 1_554
Al2 Al4 2.749828 1_554
Al2 Al6 2.810154 1_554
Al2 Al6 2.810159 1_565
Al2 Y0 3.018373 1_665
Al3 Cu1 2.580475 1_555
Al3 Cu0 2.580481 1_544
Al3 Cu4 2.633680 1_555
Al3 Cu2 2.696131 1_554
Al3 Cu3 2.696137 1_554
Al3 Al4 2.749827 1_554
Al3 Al5 2.810154 1_555
Al3 Al5 2.810158 1_544
Al3 Y0 3.018368 1_555
Al4 Cu0 2.494438 1_555
Al4 Cu3 2.494438 1_555
Al4 Cu1 2.494440 1_555
Al4 Cu2 2.494441 1_555
Al4 Al5 2.714877 1_555
Al4 Al6 2.714884 1_455
Al4 Y0 3.201777 1_555
Al4 Y0 3.201777 1_566
Al5 Cu2 2.490143 1_554
Al5 Cu3 2.490146 1_565
Al5 Cu1 2.552611 1_555
Al5 Cu0 2.552615 1_555
Al5 Cu4 2.622981 1_455
Al5 Y0 3.122745 1_566
Al5 Y0 3.122745 1_555
Al6 Cu0 2.490143 1_544
Al6 Cu1 2.490145 1_555
Al6 Cu3 2.552619 1_655
Al6 Cu2 2.552620 1_655
Al6 Cu4 2.622981 1_555
Al6 Y0 3.122746 1_666
Al6 Y0 3.122750 1_655
Cu0 Cu1 2.522890 1_555
Cu0 Cu4 2.544571 1_566
Cu0 Cu1 2.553147 1_566
Cu0 Y0 3.281600 1_566
Cu0 Y0 3.331264 1_666
Cu1 Cu4 2.544569 1_555
Cu1 Y0 3.281601 1_555
Cu1 Y0 3.331263 1_666
Cu2 Cu3 2.522890 1_555
Cu2 Cu4 2.544568 1_456
Cu2 Cu3 2.553147 1_566
Cu2 Y0 3.281606 1_566
Cu2 Y0 3.331258 1_556
Cu3 Cu4 2.544571 1_445
Cu3 Y0 3.281600 1_555
Cu3 Y0 3.331264 1_556
Cu4 Y0 3.203537 1_666
Cu4 Y0 3.203537 1_655
