# generated using pymatgen
data_Nd3InS6
_symmetry_space_group_name_H-M   'P 1'
_cell_length_a   3.99689997
_cell_length_b   13.81468178
_cell_length_c   16.82565321
_cell_angle_alpha   90.00000000
_cell_angle_beta   90.00000000
_cell_angle_gamma   90.00000000
_symmetry_Int_Tables_number   1
_chemical_formula_structural   Nd3InS6
_chemical_formula_sum   'Nd12 In4 S24'
_cell_volume   929.04360513
_cell_formula_units_Z   4
loop_
 _symmetry_equiv_pos_site_id
 _symmetry_equiv_pos_as_xyz
  1  'x, y, z'
loop_
 _atom_site_type_symbol
 _atom_site_label
 _atom_site_symmetry_multiplicity
 _atom_site_fract_x
 _atom_site_fract_y
 _atom_site_fract_z
 _atom_site_occupancy
  Nd  Nd0  1  0.25351020  0.03637947  0.77797964  1
  Nd  Nd1  1  0.25351020  0.96362053  0.22202036  1
  Nd  Nd2  1  0.74648980  0.46362053  0.27797964  1
  Nd  Nd3  1  0.74648980  0.53637947  0.72202036  1
  Nd  Nd4  1  0.25986790  0.24813133  0.60885325  1
  Nd  Nd5  1  0.25986790  0.75186867  0.39114675  1
  Nd  Nd6  1  0.74013210  0.25186867  0.10885325  1
  Nd  Nd7  1  0.74013210  0.74813133  0.89114675  1
  Nd  Nd8  1  0.74647364  0.30828290  0.85658363  1
  Nd  Nd9  1  0.74647364  0.69171710  0.14341637  1
  Nd  Nd10  1  0.25352636  0.19171710  0.35658363  1
  Nd  Nd11  1  0.25352636  0.80828290  0.64341637  1
  In  In0  1  0.75469126  -0.00000000  0.50000000  1
  In  In1  1  0.24530874  0.50000000  0.00000000  1
  In  In2  1  0.40147508  0.50000000  0.50000000  1
  In  In3  1  0.59852492  -0.00000000  0.00000000  1
  S  S0  1  0.76443404  0.39827625  0.58885633  1
  S  S1  1  0.76443404  0.60172375  0.41114367  1
  S  S2  1  0.23556596  0.10172375  0.08885633  1
  S  S3  1  0.23556596  0.89827625  0.91114367  1
  S  S4  1  0.24509975  0.31172537  0.98198537  1
  S  S5  1  0.24509975  0.68827463  0.01801463  1
  S  S6  1  0.75490025  0.18827463  0.48198537  1
  S  S7  1  0.75490025  0.81172537  0.51801463  1
  S  S8  1  0.75223272  0.10660797  0.88980327  1
  S  S9  1  0.75223272  0.89339203  0.11019673  1
  S  S10  1  0.24776728  0.39339203  0.38980327  1
  S  S11  1  0.24776728  0.60660797  0.61019673  1
  S  S12  1  0.75712847  0.17781101  0.71715801  1
  S  S13  1  0.75712847  0.82218899  0.28284199  1
  S  S14  1  0.24287153  0.32218899  0.21715801  1
  S  S15  1  0.24287153  0.67781101  0.78284199  1
  S  S16  1  0.24764723  0.38565964  0.75594865  1
  S  S17  1  0.24764723  0.61434036  0.24405135  1
  S  S18  1  0.75235277  0.11434036  0.25594865  1
  S  S19  1  0.75235277  0.88565964  0.74405135  1
  S  S20  1  0.25461832  0.02007165  0.60247685  1
  S  S21  1  0.25461832  0.97992835  0.39752315  1
  S  S22  1  0.74538168  0.47992835  0.10247685  1
  S  S23  1  0.74538168  0.52007165  0.89752315  1
loop_
_geom_bond_atom_site_label_1
_geom_bond_atom_site_label_2
_geom_bond_distance
_geom_bond_site_symmetry_2
Nd0 S8 2.907704 1_555
Nd0 S8 2.914714 1_455
Nd0 S19 2.938802 1_545
Nd0 S3 2.943672 1_545
Nd0 S19 2.945087 1_445
Nd0 S20 2.961534 1_555
Nd0 S12 2.966638 1_455
Nd0 S12 2.986059 1_555
Nd1 S9 2.907704 1_555
Nd1 S9 2.914714 1_455
Nd1 S18 2.938802 1_565
Nd1 S2 2.943672 1_565
Nd1 S18 2.945087 1_465
Nd1 S21 2.961534 1_555
Nd1 S13 2.966638 1_455
Nd1 S13 2.986059 1_555
Nd2 S10 2.907704 1_555
Nd2 S10 2.914714 1_655
Nd2 S17 2.938802 1_555
Nd2 S1 2.943672 1_555
Nd2 S17 2.945087 1_655
Nd2 S22 2.961534 1_555
Nd2 S14 2.966638 1_655
Nd2 S14 2.986059 1_555
Nd3 S11 2.907704 1_555
Nd3 S11 2.914714 1_655
Nd3 S16 2.938802 1_555
Nd3 S0 2.943672 1_555
Nd3 S16 2.945087 1_655
Nd3 S23 2.961534 1_555
Nd3 S15 2.966638 1_655
Nd3 S15 2.986059 1_555
Nd4 S12 2.866121 1_555
Nd4 S12 2.881350 1_455
Nd4 S0 2.887338 1_455
Nd4 S0 2.912492 1_555
Nd4 S6 3.025768 1_555
Nd4 S6 3.051883 1_455
Nd4 S16 3.120505 1_555
Nd4 S20 3.152468 1_555
Nd5 S13 2.866121 1_555
Nd5 S13 2.881350 1_455
Nd5 S1 2.887338 1_455
Nd5 S1 2.912492 1_555
Nd5 S7 3.025768 1_555
Nd5 S7 3.051883 1_455
Nd5 S17 3.120505 1_555
Nd5 S21 3.152468 1_555
Nd6 S14 2.866121 1_555
Nd6 S14 2.881350 1_655
Nd6 S2 2.887338 1_655
Nd6 S2 2.912492 1_555
Nd6 S4 3.025768 1_554
Nd6 S4 3.051883 1_654
Nd6 S18 3.120505 1_555
Nd6 S22 3.152468 1_555
Nd7 S15 2.866121 1_555
Nd7 S15 2.881350 1_655
Nd7 S3 2.887338 1_655
Nd7 S3 2.912492 1_555
Nd7 S5 3.025768 1_556
Nd7 S5 3.051883 1_656
Nd7 S19 3.120505 1_555
Nd7 S23 3.152468 1_555
Nd8 S16 2.825737 1_555
Nd8 S16 2.832364 1_655
Nd8 S8 2.841683 1_555
Nd8 S4 2.902775 1_655
Nd8 S4 2.910326 1_555
Nd8 S12 2.958705 1_555
Nd8 S23 3.005792 1_555
Nd9 S17 2.825737 1_555
Nd9 S17 2.832364 1_655
Nd9 S9 2.841683 1_555
Nd9 S5 2.902775 1_655
Nd9 S5 2.910326 1_555
Nd9 S13 2.958705 1_555
Nd9 S22 3.005792 1_555
Nd10 S18 2.825737 1_555
Nd10 S18 2.832364 1_455
Nd10 S10 2.841683 1_555
Nd10 S6 2.902775 1_455
Nd10 S6 2.910326 1_555
Nd10 S14 2.958705 1_555
Nd10 S21 3.005792 1_545
Nd11 S19 2.825737 1_555
Nd11 S19 2.832364 1_455
Nd11 S11 2.841683 1_555
Nd11 S7 2.902775 1_455
Nd11 S7 2.910326 1_555
Nd11 S15 2.958705 1_555
Nd11 S20 3.005792 1_565
In0 S6 2.618556 1_555
In0 S7 2.618556 1_545
In0 S20 2.653776 1_655
In0 S21 2.653776 1_645
In0 S20 2.654215 1_555
In0 S21 2.654215 1_545
In1 S5 2.618556 1_555
In1 S4 2.618556 1_554
In1 S23 2.653776 1_454
In1 S22 2.653776 1_455
In1 S23 2.654215 1_554
In1 S22 2.654215 1_555
In2 S11 2.446272 1_555
In2 S10 2.446272 1_555
In2 S1 2.512886 1_555
In2 S0 2.512886 1_555
In3 S8 2.446272 1_554
In3 S9 2.446272 1_545
In3 S2 2.512886 1_555
In3 S3 2.512886 1_544
