# generated using pymatgen
data_LiMg14Zr
_symmetry_space_group_name_H-M   'P 1'
_cell_length_a   6.42106346
_cell_length_b   6.42158425
_cell_length_c   10.18945468
_cell_angle_alpha   90.00000000
_cell_angle_beta   90.00000000
_cell_angle_gamma   120.00268849
_symmetry_Int_Tables_number   1
_chemical_formula_structural   LiMg14Zr
_chemical_formula_sum   'Li1 Mg14 Zr1'
_cell_volume   363.84713059
_cell_formula_units_Z   1
loop_
 _symmetry_equiv_pos_site_id
 _symmetry_equiv_pos_as_xyz
  1  'x, y, z'
loop_
 _atom_site_type_symbol
 _atom_site_label
 _atom_site_symmetry_multiplicity
 _atom_site_fract_x
 _atom_site_fract_y
 _atom_site_fract_z
 _atom_site_occupancy
  Li  Li0  1  0.17383895  0.83691897  0.12500000  1
  Mg  Mg0  1  0.16670668  0.33335284  0.62500000  1
  Mg  Mg1  1  0.16693927  0.83346913  0.62500000  1
  Mg  Mg2  1  0.66033843  0.32307806  0.12500000  1
  Mg  Mg3  1  0.66677545  0.33328113  0.62500000  1
  Mg  Mg4  1  0.66033843  0.83725938  0.12500000  1
  Mg  Mg5  1  0.66677545  0.83349331  0.62500000  1
  Mg  Mg6  1  0.33054947  0.16723131  0.37234489  1
  Mg  Mg7  1  0.33054947  0.16723131  0.87765511  1
  Mg  Mg8  1  0.33054947  0.66331916  0.37234489  1
  Mg  Mg9  1  0.33054947  0.66331916  0.87765511  1
  Mg  Mg10  1  0.83906393  0.16953247  0.37419519  1
  Mg  Mg11  1  0.83906393  0.16953247  0.87580481  1
  Mg  Mg12  1  0.83566539  0.66783319  0.37012650  1
  Mg  Mg13  1  0.83566539  0.66783319  0.87987350  1
  Zr  Zr0  1  0.16663083  0.33331492  0.12500000  1
loop_
_geom_bond_atom_site_label_1
_geom_bond_atom_site_label_2
_geom_bond_distance
_geom_bond_site_symmetry_2
Li0 Mg9 3.119148 1_554
Li0 Mg8 3.119148 1_555
Li0 Mg7 3.119155 1_564
Li0 Mg6 3.119155 1_565
Li0 Mg2 3.122751 1_565
Li0 Mg4 3.122752 1_555
Li0 Mg12 3.126449 1_455
Li0 Mg13 3.126449 1_454
Li0 Zr0 3.211042 1_555
Li0 Zr0 3.211042 1_565
Li0 Mg2 3.298313 1_455
Li0 Mg4 3.298313 1_455
Mg0 Mg11 3.138512 1_455
Mg0 Mg10 3.138512 1_455
Mg0 Mg6 3.161453 1_555
Mg0 Mg7 3.161453 1_555
Mg0 Mg9 3.161459 1_555
Mg0 Mg8 3.161459 1_555
Mg0 Mg5 3.209860 1_445
Mg0 Mg3 3.209860 1_455
Mg0 Mg1 3.210792 1_555
Mg0 Mg1 3.210792 1_545
Mg0 Mg5 3.211203 1_555
Mg0 Mg3 3.211204 1_555
Mg1 Mg8 3.173813 1_555
Mg1 Mg9 3.173813 1_555
Mg1 Mg6 3.173820 1_565
Mg1 Mg7 3.173820 1_565
Mg1 Mg13 3.183999 1_455
Mg1 Mg12 3.183999 1_455
Mg1 Mg3 3.209402 1_565
Mg1 Mg5 3.209402 1_555
Mg1 Mg3 3.211661 1_455
Mg1 Mg5 3.211661 1_455
Mg2 Mg7 3.117421 1_554
Mg2 Mg6 3.117421 1_555
Mg2 Mg4 3.119726 1_545
Mg2 Zr0 3.203505 1_555
Mg2 Zr0 3.218568 1_655
Mg2 Mg4 3.301859 1_555
Mg3 Mg6 3.181720 1_555
Mg3 Mg7 3.181720 1_555
Mg3 Mg5 3.209430 1_545
Mg3 Mg5 3.212155 1_555
Mg4 Mg9 3.117421 1_554
Mg4 Mg8 3.117421 1_555
Mg4 Zr0 3.203505 1_555
Mg4 Zr0 3.218568 1_665
Mg5 Mg8 3.181720 1_555
Mg5 Mg9 3.181720 1_555
Mg6 Zr0 3.117673 1_555
Mg6 Mg8 3.185670 1_555
Mg6 Mg8 3.235914 1_545
Mg7 Zr0 3.117673 1_556
Mg7 Mg9 3.185670 1_555
Mg7 Mg9 3.235914 1_545
Mg8 Zr0 3.117680 1_555
Mg9 Zr0 3.117680 1_556
Mg10 Zr0 3.124926 1_655
Mg10 Mg2 3.141369 1_555
Mg10 Mg4 3.141376 1_545
Mg10 Mg8 3.163331 1_655
Mg10 Mg6 3.163331 1_655
Mg10 Mg3 3.166044 1_555
Mg10 Mg5 3.166050 1_545
Mg10 Mg12 3.211115 1_555
Mg10 Mg12 3.211115 1_545
Mg10 Mg8 3.257894 1_545
Mg10 Mg6 3.257894 1_555
Mg11 Zr0 3.124926 1_656
Mg11 Mg2 3.141369 1_556
Mg11 Mg4 3.141376 1_546
Mg11 Mg9 3.163331 1_655
Mg11 Mg7 3.163331 1_655
Mg11 Mg3 3.166044 1_555
Mg11 Mg5 3.166050 1_545
Mg11 Mg13 3.211115 1_555
Mg11 Mg13 3.211115 1_545
Mg11 Mg9 3.257894 1_545
Mg11 Mg7 3.257894 1_555
Mg12 Mg4 3.148741 1_555
Mg12 Mg2 3.148748 1_555
Mg12 Mg6 3.192355 1_665
Mg12 Mg8 3.192356 1_655
Mg12 Mg5 3.194678 1_555
Mg12 Mg3 3.194684 1_555
Mg12 Mg6 3.229063 1_555
Mg12 Mg8 3.229063 1_555
Mg13 Mg4 3.148741 1_556
Mg13 Mg2 3.148748 1_556
Mg13 Mg7 3.192355 1_665
Mg13 Mg9 3.192356 1_655
Mg13 Mg5 3.194678 1_555
Mg13 Mg3 3.194684 1_555
Mg13 Mg7 3.229063 1_555
Mg13 Mg9 3.229063 1_555
