# generated using pymatgen
data_Ba7Hg31
_symmetry_space_group_name_H-M   'P 1'
_cell_length_a   10.96998198
_cell_length_b   10.97000728
_cell_length_c   10.44401680
_cell_angle_alpha   90.00000000
_cell_angle_beta   90.00000000
_cell_angle_gamma   120.00007175
_symmetry_Int_Tables_number   1
_chemical_formula_structural   Ba7Hg31
_chemical_formula_sum   'Ba7 Hg31'
_cell_volume   1088.45557751
_cell_formula_units_Z   1
loop_
 _symmetry_equiv_pos_site_id
 _symmetry_equiv_pos_as_xyz
  1  'x, y, z'
loop_
 _atom_site_type_symbol
 _atom_site_label
 _atom_site_symmetry_multiplicity
 _atom_site_fract_x
 _atom_site_fract_y
 _atom_site_fract_z
 _atom_site_occupancy
  Ba  Ba0  1  0.66666700  0.33333300  -0.00000000  1
  Ba  Ba1  1  0.99999900  0.99999900  -0.00000000  1
  Ba  Ba2  1  0.83361255  0.66722410  0.50000000  1
  Ba  Ba3  1  0.33277490  0.16638645  0.50000000  1
  Ba  Ba4  1  0.83361255  0.16638745  0.50000000  1
  Ba  Ba5  1  0.33333300  0.66666700  0.79195735  1
  Ba  Ba6  1  0.33333300  0.66666700  0.20804265  1
  Hg  Hg0  1  0.06287280  0.66831750  -0.00000000  1
  Hg  Hg1  1  0.33168250  0.39455430  -0.00000000  1
  Hg  Hg2  1  0.60544570  0.93712720  -0.00000000  1
  Hg  Hg3  1  0.60544570  0.66831750  -0.00000000  1
  Hg  Hg4  1  0.33168250  0.93712720  -0.00000000  1
  Hg  Hg5  1  0.06287280  0.39455430  -0.00000000  1
  Hg  Hg6  1  0.83684887  0.67369874  0.83395022  1
  Hg  Hg7  1  0.32630026  0.16315113  0.83395022  1
  Hg  Hg8  1  0.83684887  0.16315113  0.83395022  1
  Hg  Hg9  1  0.83684887  0.67369874  0.16604978  1
  Hg  Hg10  1  0.32630026  0.16315113  0.16604978  1
  Hg  Hg11  1  0.83684887  0.16315113  0.16604978  1
  Hg  Hg12  1  0.66666700  0.33333300  0.64530354  1
  Hg  Hg13  1  -0.00000000  0.00000000  0.64890044  1
  Hg  Hg14  1  -0.00000000  0.00000000  0.35109956  1
  Hg  Hg15  1  0.66666700  0.33333300  0.35469646  1
  Hg  Hg16  1  0.95718419  0.47859159  0.73262671  1
  Hg  Hg17  1  0.52140741  0.47859059  0.73262671  1
  Hg  Hg18  1  0.52140741  0.04281581  0.73262671  1
  Hg  Hg19  1  0.15314940  0.84684960  0.69982020  1
  Hg  Hg20  1  0.69370120  0.84685060  0.69982120  1
  Hg  Hg21  1  0.15314940  0.30629980  0.69982020  1
  Hg  Hg22  1  0.69370120  0.84685060  0.30017880  1
  Hg  Hg23  1  0.15314940  0.84684960  0.30017980  1
  Hg  Hg24  1  0.15314940  0.30629980  0.30017980  1
  Hg  Hg25  1  0.52140741  0.47859059  0.26737329  1
  Hg  Hg26  1  0.95718419  0.47859159  0.26737329  1
  Hg  Hg27  1  0.52140741  0.04281581  0.26737329  1
  Hg  Hg28  1  0.13743063  0.56871581  0.50000000  1
  Hg  Hg29  1  0.43128819  0.56871781  0.50000000  1
  Hg  Hg30  1  0.43128819  0.86257137  0.50000000  1
loop_
_geom_bond_atom_site_label_1
_geom_bond_atom_site_label_2
_geom_bond_distance
_geom_bond_site_symmetry_2
Ba0 Hg8 3.669255 1_554
Ba0 Hg11 3.669255 1_555
Ba0 Hg9 3.669272 1_555
Ba0 Hg6 3.669272 1_554
Ba0 Hg10 3.669274 1_555
Ba0 Hg7 3.669274 1_554
Ba0 Hg12 3.704456 1_554
Ba0 Hg15 3.704456 1_555
Ba0 Hg26 3.926238 1_555
Ba0 Hg16 3.926238 1_554
Ba0 Hg17 3.926243 1_554
Ba0 Hg25 3.926243 1_555
Ba0 Hg27 3.926243 1_555
Ba0 Hg18 3.926243 1_554
Ba0 Hg5 4.052525 1_655
Ba0 Hg0 4.052525 1_655
Ba0 Hg1 4.052528 1_555
Ba0 Hg4 4.052528 1_545
Ba0 Hg3 4.052536 1_555
Ba0 Hg2 4.052536 1_545
Ba1 Hg9 3.552074 1_555
Ba1 Hg6 3.552074 1_554
Ba1 Hg10 3.552076 1_665
Ba1 Hg7 3.552076 1_664
Ba1 Hg11 3.552091 1_565
Ba1 Hg8 3.552091 1_564
Ba1 Hg13 3.666890 1_664
Ba1 Hg14 3.666890 1_665
Ba2 Hg9 3.488324 1_555
Ba2 Hg6 3.488324 1_555
Ba2 Hg12 3.516385 1_555
Ba2 Hg15 3.516385 1_555
Ba2 Hg14 3.523250 1_665
Ba2 Hg13 3.523250 1_665
Ba2 Hg23 3.690273 1_655
Ba2 Hg19 3.690273 1_655
Ba2 Hg20 3.690293 1_555
Ba2 Hg22 3.690293 1_555
Ba2 Hg16 3.850643 1_555
Ba2 Hg26 3.850643 1_555
Ba2 Hg25 3.850645 1_555
Ba2 Hg17 3.850645 1_555
Ba2 Hg29 3.984638 1_555
Ba2 Hg28 3.984658 1_655
Ba3 Hg10 3.488324 1_555
Ba3 Hg7 3.488324 1_555
Ba3 Hg15 3.516387 1_555
Ba3 Hg12 3.516387 1_555
Ba3 Hg14 3.523235 1_555
Ba3 Hg13 3.523235 1_555
Ba3 Hg23 3.690278 1_545
Ba3 Hg19 3.690278 1_545
Ba3 Hg24 3.690293 1_555
Ba3 Hg21 3.690293 1_555
Ba3 Hg27 3.850634 1_555
Ba3 Hg18 3.850634 1_555
Ba3 Hg25 3.850641 1_555
Ba3 Hg17 3.850641 1_555
Ba3 Hg30 3.984669 1_545
Ba3 Hg29 3.984701 1_555
Ba4 Hg11 3.488324 1_555
Ba4 Hg8 3.488324 1_555
Ba4 Hg15 3.516385 1_555
Ba4 Hg12 3.516385 1_555
Ba4 Hg14 3.523241 1_655
Ba4 Hg13 3.523241 1_655
Ba4 Hg24 3.690272 1_655
Ba4 Hg21 3.690272 1_655
Ba4 Hg20 3.690285 1_545
Ba4 Hg22 3.690285 1_545
Ba4 Hg26 3.850643 1_555
Ba4 Hg16 3.850643 1_555
Ba4 Hg18 3.850645 1_555
Ba4 Hg27 3.850645 1_555
Ba4 Hg30 3.984632 1_545
Ba4 Hg28 3.984673 1_655
Ba5 Hg19 3.556252 1_555
Ba5 Hg20 3.556260 1_555
Ba5 Hg21 3.556261 1_555
Ba5 Hg28 3.572318 1_555
Ba5 Hg29 3.572330 1_555
Ba5 Hg30 3.572330 1_555
Ba5 Hg16 3.626844 1_455
Ba5 Hg18 3.626852 1_565
Ba5 Hg17 3.626870 1_555
Ba5 Hg0 3.684815 1_556
Ba5 Hg4 3.684821 1_556
Ba5 Hg2 3.684825 1_556
Ba5 Hg5 3.684825 1_556
Ba5 Hg3 3.684833 1_556
Ba5 Hg1 3.684839 1_556
Ba6 Hg23 3.556252 1_555
Ba6 Hg22 3.556260 1_555
Ba6 Hg24 3.556261 1_555
Ba6 Hg28 3.572318 1_555
Ba6 Hg29 3.572330 1_555
Ba6 Hg30 3.572330 1_555
Ba6 Hg26 3.626844 1_455
Ba6 Hg27 3.626852 1_565
Ba6 Hg25 3.626870 1_555
Ba6 Hg0 3.684815 1_555
Ba6 Hg4 3.684821 1_555
Ba6 Hg2 3.684825 1_555
Ba6 Hg5 3.684825 1_555
Ba6 Hg3 3.684833 1_555
Ba6 Hg1 3.684839 1_555
Hg0 Hg4 2.948838 1_555
Hg0 Hg5 3.003184 1_555
Hg0 Hg6 3.050444 1_454
Hg0 Hg9 3.050444 1_455
Hg1 Hg5 2.948838 1_555
Hg1 Hg3 3.003178 1_555
Hg1 Hg10 3.050426 1_555
Hg1 Hg7 3.050426 1_554
Hg2 Hg3 2.948844 1_555
Hg2 Hg4 3.003177 1_555
Hg2 Hg8 3.050435 1_564
Hg3 Hg9 3.050426 1_555
Hg3 Hg6 3.050426 1_554
Hg4 Hg7 3.050454 1_564
Hg5 Hg8 3.050435 1_454
Hg10 Hg4 3.050454 1_545
Hg10 Hg25 3.204477 1_555
Hg10 Hg27 3.204501 1_555
Hg10 Hg24 3.319509 1_555
Hg10 Hg23 3.319526 1_545
Hg11 Hg2 3.050435 1_545
Hg11 Hg5 3.050435 1_655
Hg11 Hg26 3.204484 1_555
Hg11 Hg27 3.204486 1_555
Hg11 Hg24 3.319512 1_655
Hg11 Hg22 3.319515 1_545
Hg12 Hg16 2.906771 1_555
Hg12 Hg17 2.906777 1_555
Hg12 Hg18 2.906777 1_555
Hg12 Hg15 3.035105 1_555
Hg13 Hg20 2.958121 1_445
Hg13 Hg19 2.958135 1_545
Hg13 Hg21 2.958136 1_555
Hg13 Hg14 3.110237 1_555
Hg14 Hg22 2.958121 1_445
Hg14 Hg23 2.958135 1_545
Hg14 Hg24 2.958136 1_555
Hg15 Hg26 2.906771 1_555
Hg15 Hg25 2.906777 1_555
Hg15 Hg27 2.906777 1_555
Hg16 Hg28 2.972378 1_655
Hg16 Hg8 3.204484 1_555
Hg16 Hg6 3.204503 1_555
Hg17 Hg29 2.972380 1_555
Hg17 Hg7 3.204477 1_555
Hg17 Hg6 3.204489 1_555
Hg18 Hg30 2.972369 1_545
Hg18 Hg8 3.204486 1_555
Hg18 Hg7 3.204501 1_555
Hg19 Hg6 3.319511 1_455
Hg19 Hg7 3.319526 1_565
Hg20 Hg6 3.319506 1_555
Hg20 Hg8 3.319515 1_565
Hg21 Hg7 3.319509 1_555
Hg21 Hg8 3.319512 1_455
Hg22 Hg9 3.319506 1_555
Hg23 Hg9 3.319511 1_455
Hg25 Hg29 2.972380 1_555
Hg25 Hg9 3.204489 1_555
Hg26 Hg28 2.972378 1_655
Hg26 Hg9 3.204503 1_555
Hg27 Hg30 2.972369 1_545
Hg28 Hg29 3.223601 1_555
Hg28 Hg30 3.223601 1_555
Hg29 Hg30 3.223576 1_555
