# generated using pymatgen
data_Ta2WO8
_symmetry_space_group_name_H-M   'P 1'
_cell_length_a   10.45747920
_cell_length_b   10.45747920
_cell_length_c   5.17231983
_cell_angle_alpha   88.41009206
_cell_angle_beta   88.41009206
_cell_angle_gamma   34.12182388
_symmetry_Int_Tables_number   1
_chemical_formula_structural   Ta2WO8
_chemical_formula_sum   'Ta4 W2 O16'
_cell_volume   317.16403509
_cell_formula_units_Z   2
loop_
 _symmetry_equiv_pos_site_id
 _symmetry_equiv_pos_as_xyz
  1  'x, y, z'
loop_
 _atom_site_type_symbol
 _atom_site_label
 _atom_site_symmetry_multiplicity
 _atom_site_fract_x
 _atom_site_fract_y
 _atom_site_fract_z
 _atom_site_occupancy
  Ta  Ta0  1  0.68985500  0.04429300  0.24517000  1
  Ta  Ta1  1  0.95570700  0.31014500  0.25483000  1
  Ta  Ta2  1  0.31014500  0.95570700  0.75483000  1
  Ta  Ta3  1  0.04429300  0.68985500  0.74517000  1
  W  W0  1  0.34486600  0.65513400  0.25000000  1
  W  W1  1  0.65513400  0.34486600  0.75000000  1
  O  O0  1  0.78455600  0.09989900  0.92056000  1
  O  O1  1  0.90010100  0.21544400  0.57944000  1
  O  O2  1  0.21544400  0.90010100  0.07944000  1
  O  O3  1  0.09989900  0.78455600  0.42056000  1
  O  O4  1  0.56234400  0.33441900  0.43109700  1
  O  O5  1  0.66558100  0.43765600  0.06890300  1
  O  O6  1  0.43765600  0.66558100  0.56890300  1
  O  O7  1  0.33441900  0.56234400  0.93109700  1
  O  O8  1  0.75828800  0.91579300  0.57578300  1
  O  O9  1  0.08420700  0.24171200  0.92421700  1
  O  O10  1  0.20300900  0.42685500  0.64625500  1
  O  O11  1  0.57314500  0.79699100  0.85374500  1
  O  O12  1  0.79699100  0.57314500  0.35374500  1
  O  O13  1  0.42685500  0.20300900  0.14625500  1
  O  O14  1  0.91579300  0.75828800  0.07578300  1
  O  O15  1  0.24171200  0.08420700  0.42421700  1
loop_
_geom_bond_atom_site_label_1
_geom_bond_atom_site_label_2
_geom_bond_distance
_geom_bond_site_symmetry_2
O0 W1 1.836539 1_555
O0 Ta0 2.223720 1_556
O1 W1 1.836539 1_555
O1 Ta1 2.223720 1_555
O2 W0 1.836539 1_555
O2 Ta2 2.223720 1_554
O3 W0 1.836539 1_555
O3 Ta3 2.223720 1_555
O4 W1 1.987107 1_555
O4 W0 2.147800 1_555
O4 Ta0 2.302250 1_555
O5 W1 1.987107 1_554
O5 W0 2.147800 1_555
O5 Ta1 2.302250 1_555
O6 W0 1.987107 1_555
O6 W1 2.147800 1_555
O6 Ta2 2.302250 1_555
O7 W0 1.987107 1_556
O7 W1 2.147800 1_555
O7 Ta3 2.302250 1_555
O8 Ta0 1.894808 1_565
O8 Ta3 1.904158 1_655
O9 Ta1 1.894808 1_456
O9 Ta2 1.904158 1_545
O10 Ta3 1.747493 1_555
O11 Ta2 1.747493 1_555
O12 Ta1 1.747493 1_555
O13 Ta0 1.747493 1_555
O14 Ta3 1.894808 1_654
O14 Ta0 1.904158 1_565
O15 Ta2 1.894808 1_545
O15 Ta1 1.904158 1_455
