# generated using pymatgen
data_YB2Pd7
_symmetry_space_group_name_H-M   'P 1'
_cell_length_a   5.99418520
_cell_length_b   5.99418520
_cell_length_c   5.99418520
_cell_angle_alpha   60.00000000
_cell_angle_beta   60.00000000
_cell_angle_gamma   60.00000000
_symmetry_Int_Tables_number   1
_chemical_formula_structural   YB2Pd7
_chemical_formula_sum   'Y1 B2 Pd7'
_cell_volume   152.29143274
_cell_formula_units_Z   1
loop_
 _symmetry_equiv_pos_site_id
 _symmetry_equiv_pos_as_xyz
  1  'x, y, z'
loop_
 _atom_site_type_symbol
 _atom_site_label
 _atom_site_symmetry_multiplicity
 _atom_site_fract_x
 _atom_site_fract_y
 _atom_site_fract_z
 _atom_site_occupancy
  Y  Y0  1  0.00000000  0.00000000  0.00000000  1
  B  B0  1  0.75000000  0.75000000  0.75000000  1
  B  B1  1  0.25000000  0.25000000  0.25000000  1
  Pd  Pd0  1  0.50000000  0.00000000  0.50000000  1
  Pd  Pd1  1  0.00000000  0.00000000  0.50000000  1
  Pd  Pd2  1  0.50000000  0.50000000  0.00000000  1
  Pd  Pd3  1  0.50000000  0.50000000  0.50000000  1
  Pd  Pd4  1  0.00000000  0.50000000  0.50000000  1
  Pd  Pd5  1  0.50000000  0.00000000  0.00000000  1
  Pd  Pd6  1  0.00000000  0.50000000  0.00000000  1
loop_
_geom_bond_atom_site_label_1
_geom_bond_atom_site_label_2
_geom_bond_distance
_geom_bond_site_symmetry_2
B0 Pd4 2.119264 1_655
B0 Pd2 2.119264 1_556
B0 Pd1 2.119264 1_665
B0 Pd5 2.119264 1_566
B0 Pd0 2.119264 1_565
B0 Pd6 2.119264 1_656
B1 Pd1 2.119264 1_555
B1 Pd6 2.119264 1_555
B1 Pd2 2.119264 1_555
B1 Pd5 2.119264 1_555
B1 Pd0 2.119264 1_555
B1 Pd4 2.119264 1_555
Pd0 Pd3 2.997093 1_545
Pd0 Pd3 2.997093 1_555
Pd0 Y0 2.997093 1_655
Pd0 Y0 2.997093 1_556
Pd1 Y0 2.997093 1_555
Pd1 Pd3 2.997093 1_455
Pd1 Pd3 2.997093 1_545
Pd1 Y0 2.997093 1_556
Pd2 Y0 2.997093 1_565
Pd2 Pd3 2.997093 1_555
Pd2 Pd3 2.997093 1_554
Pd2 Y0 2.997093 1_655
Pd3 Pd6 2.997093 1_655
Pd3 Pd4 2.997093 1_555
Pd3 Pd4 2.997093 1_655
Pd3 Pd6 2.997093 1_556
Pd3 Pd5 2.997093 1_556
Pd3 Pd5 2.997093 1_565
Pd4 Y0 2.997093 1_565
Pd4 Y0 2.997093 1_556
Pd5 Y0 2.997093 1_555
Pd5 Y0 2.997093 1_655
Pd6 Y0 2.997093 1_555
Pd6 Y0 2.997093 1_565
