# generated using pymatgen
data_Na2MnCrF7
_symmetry_space_group_name_H-M   'P 1'
_cell_length_a   7.55120357
_cell_length_b   7.55120357
_cell_length_c   18.49240000
_cell_angle_alpha   90.00000000
_cell_angle_beta   90.00000000
_cell_angle_gamma   119.99999626
_symmetry_Int_Tables_number   1
_chemical_formula_structural   Na2MnCrF7
_chemical_formula_sum   'Na12 Mn6 Cr6 F42'
_cell_volume   913.17977473
_cell_formula_units_Z   6
loop_
 _symmetry_equiv_pos_site_id
 _symmetry_equiv_pos_as_xyz
  1  'x, y, z'
loop_
 _atom_site_type_symbol
 _atom_site_label
 _atom_site_symmetry_multiplicity
 _atom_site_fract_x
 _atom_site_fract_y
 _atom_site_fract_z
 _atom_site_occupancy
  Na  Na0  1  0.50638700  0.88744400  0.66310400  1
  Na  Na1  1  0.11255600  0.61894300  0.99643700  1
  Na  Na2  1  0.38105700  0.49361300  0.32977000  1
  Na  Na3  1  0.61894300  0.11255600  0.00356300  1
  Na  Na4  1  0.49361300  0.38105700  0.67023000  1
  Na  Na5  1  0.88744400  0.50638700  0.33689600  1
  Na  Na6  1  0.86132900  0.00000000  0.33333300  1
  Na  Na7  1  0.00000000  0.86132900  0.66666700  1
  Na  Na8  1  0.13867100  0.13867100  0.00000000  1
  Na  Na9  1  0.83220800  0.00000000  0.83333300  1
  Na  Na10  1  0.00000000  0.83220800  0.16666700  1
  Na  Na11  1  0.16779200  0.16779200  0.50000000  1
  Mn  Mn0  1  0.83460100  0.49603600  0.82806900  1
  Mn  Mn1  1  0.50396400  0.33856500  0.16140200  1
  Mn  Mn2  1  0.66143500  0.16539900  0.49473500  1
  Mn  Mn3  1  0.33856500  0.50396400  0.83859800  1
  Mn  Mn4  1  0.16539900  0.66143500  0.50526500  1
  Mn  Mn5  1  0.49603600  0.83460100  0.17193100  1
  Cr  Cr0  1  0.66727100  0.66727100  0.50000000  1
  Cr  Cr1  1  0.00000000  0.33272900  0.16666700  1
  Cr  Cr2  1  0.33272900  0.00000000  0.83333300  1
  Cr  Cr3  1  0.68479300  0.68479300  0.00000000  1
  Cr  Cr4  1  0.00000000  0.31520700  0.66666700  1
  Cr  Cr5  1  0.31520700  0.00000000  0.33333300  1
  F  F0  1  0.43164500  0.04778200  0.12298700  1
  F  F1  1  0.95221800  0.38386300  0.45632000  1
  F  F2  1  0.61613700  0.56835500  0.78965300  1
  F  F3  1  0.38386300  0.95221800  0.54368000  1
  F  F4  1  0.56835500  0.61613700  0.21034700  1
  F  F5  1  0.04778200  0.43164500  0.87701300  1
  F  F6  1  0.23598700  0.18890500  0.85965200  1
  F  F7  1  0.81109500  0.04708200  0.19298600  1
  F  F8  1  0.95291800  0.76401300  0.52631900  1
  F  F9  1  0.04708200  0.81109500  0.80701400  1
  F  F10  1  0.76401300  0.95291800  0.47368100  1
  F  F11  1  0.18890500  0.23598700  0.14034800  1
  F  F12  1  0.36717400  0.06658600  0.72940900  1
  F  F13  1  0.93341400  0.30058700  0.06274200  1
  F  F14  1  0.69941300  0.63282600  0.39607500  1
  F  F15  1  0.30058700  0.93341400  0.93725800  1
  F  F16  1  0.63282600  0.69941300  0.60392500  1
  F  F17  1  0.06658600  0.36717400  0.27059100  1
  F  F18  1  0.43014000  0.81089500  0.81060900  1
  F  F19  1  0.18910500  0.61924500  0.14394200  1
  F  F20  1  0.38075500  0.56986000  0.47727500  1
  F  F21  1  0.61924500  0.18910500  0.85605800  1
  F  F22  1  0.56986000  0.38075500  0.52272500  1
  F  F23  1  0.81089500  0.43014000  0.18939100  1
  F  F24  1  0.76963300  0.19873700  0.60141900  1
  F  F25  1  0.80126300  0.57089600  0.93475200  1
  F  F26  1  0.42910400  0.23036700  0.26808600  1
  F  F27  1  0.57089600  0.80126300  0.06524800  1
  F  F28  1  0.23036700  0.42910400  0.73191400  1
  F  F29  1  0.19873700  0.76963300  0.39858100  1
  F  F30  1  0.80043900  0.94662800  0.94970900  1
  F  F31  1  0.05337200  0.85381100  0.28304200  1
  F  F32  1  0.14618900  0.19956100  0.61637500  1
  F  F33  1  0.85381100  0.05337200  0.71695800  1
  F  F34  1  0.19956100  0.14618900  0.38362500  1
  F  F35  1  0.94662800  0.80043900  0.05029100  1
  F  F36  1  0.56624200  0.42205900  0.05095700  1
  F  F37  1  0.57794100  0.14418400  0.38429000  1
  F  F38  1  0.85581600  0.43375800  0.71762400  1
  F  F39  1  0.14418400  0.57794100  0.61571000  1
  F  F40  1  0.43375800  0.85581600  0.28237600  1
  F  F41  1  0.42205900  0.56624200  0.94904300  1
loop_
_geom_bond_atom_site_label_1
_geom_bond_atom_site_label_2
_geom_bond_distance
_geom_bond_site_symmetry_2
Cr0 F22 1.951189 1_555
Cr0 F20 1.951189 1_555
Cr0 F8 1.961474 1_555
Cr0 F10 1.961474 1_555
Cr0 F16 1.970556 1_555
Cr0 F14 1.970556 1_555
Cr1 F23 1.951185 1_455
Cr1 F19 1.951189 1_555
Cr1 F11 1.961474 1_555
Cr1 F7 1.961474 1_455
Cr1 F17 1.970537 1_555
Cr1 F13 1.970555 1_455
Cr2 F18 1.951185 1_545
Cr2 F21 1.951189 1_555
Cr2 F6 1.961474 1_555
Cr2 F9 1.961474 1_545
Cr2 F12 1.970537 1_555
Cr2 F15 1.970555 1_545
Cr3 F27 1.930150 1_555
Cr3 F25 1.930150 1_554
Cr3 F35 1.951948 1_555
Cr3 F30 1.951948 1_554
Cr3 F36 1.961987 1_555
Cr3 F41 1.961987 1_554
Cr4 F28 1.930139 1_555
Cr4 F24 1.930150 1_455
Cr4 F33 1.951948 1_455
Cr4 F32 1.951956 1_555
Cr4 F39 1.961988 1_555
Cr4 F38 1.961993 1_455
Cr5 F26 1.930139 1_555
Cr5 F29 1.930150 1_545
Cr5 F31 1.951948 1_545
Cr5 F34 1.951956 1_555
Cr5 F37 1.961988 1_555
Cr5 F40 1.961993 1_545
F0 Mn1 2.103602 1_555
F0 Mn5 2.104685 1_545
F0 Na3 2.534753 1_555
F1 Mn2 2.103602 1_555
F1 Mn4 2.104693 1_655
F1 Na5 2.534752 1_555
F2 Mn0 2.103608 1_555
F2 Mn3 2.104693 1_555
F2 Na4 2.534736 1_555
F3 Mn4 2.103602 1_555
F3 Mn2 2.104693 1_565
F3 Na0 2.534752 1_555
F4 Mn5 2.103608 1_555
F4 Mn1 2.104693 1_555
F4 Na2 2.534736 1_555
F5 Mn3 2.103602 1_555
F5 Mn0 2.104685 1_455
F5 Na1 2.534753 1_555
F6 Mn3 2.137467 1_555
F6 Na8 2.672284 1_556
F6 Na9 2.686796 1_455
F7 Mn5 2.137471 1_545
F7 Na6 2.672266 1_555
F7 Na10 2.686796 1_645
F8 Mn4 2.137467 1_655
F8 Na7 2.672284 1_655
F8 Na11 2.686796 1_665
F9 Mn0 2.137471 1_455
F9 Na7 2.672266 1_555
F9 Na9 2.686796 1_465
F10 Mn2 2.137467 1_565
F10 Na6 2.672284 1_565
F10 Na11 2.686796 1_665
F11 Mn1 2.137467 1_555
F11 Na8 2.672284 1_555
F11 Na10 2.686796 1_545
F12 Na4 2.341127 1_555
F12 Na0 2.420831 1_545
F12 Na7 2.671790 1_545
F13 Na3 2.341126 1_555
F13 Na1 2.420837 1_654
F13 Na8 2.671785 1_655
F14 Na5 2.341121 1_555
F14 Na2 2.420837 1_555
F14 Na6 2.671791 1_565
F15 Na1 2.341126 1_555
F15 Na3 2.420837 1_566
F15 Na8 2.671785 1_566
F16 Na0 2.341121 1_555
F16 Na4 2.420837 1_555
F16 Na7 2.671791 1_655
F17 Na2 2.341127 1_555
F17 Na5 2.420831 1_455
F17 Na6 2.671790 1_455
F18 Mn3 2.124877 1_555
F18 Na9 2.664229 1_565
F18 Na0 2.788060 1_555
F19 Mn5 2.124877 1_555
F19 Na10 2.664232 1_555
F19 Na1 2.788060 1_554
F20 Mn4 2.124881 1_555
F20 Na11 2.664232 1_555
F20 Na2 2.788060 1_555
F21 Mn0 2.124877 1_555
F21 Na9 2.664232 1_555
F21 Na3 2.788060 1_556
F22 Mn2 2.124881 1_555
F22 Na11 2.664232 1_555
F22 Na4 2.788060 1_555
F23 Mn1 2.124877 1_555
F23 Na10 2.664229 1_655
F23 Na5 2.788060 1_555
F24 Mn2 2.101746 1_555
F24 Na0 2.470929 1_545
F25 Mn0 2.101728 1_555
F25 Na1 2.470929 1_655
F26 Mn1 2.101746 1_555
F26 Na2 2.470921 1_555
F27 Mn5 2.101728 1_555
F27 Na3 2.470929 1_565
F28 Mn3 2.101746 1_555
F28 Na4 2.470921 1_555
F29 Mn4 2.101746 1_555
F29 Na5 2.470929 1_455
F30 Na9 2.180529 1_565
F30 Na8 2.405678 1_666
F30 Na3 2.481370 1_566
F31 Na10 2.180511 1_555
F31 Na6 2.405678 1_465
F31 Na5 2.481370 1_455
F32 Na11 2.180511 1_555
F32 Na7 2.405685 1_545
F32 Na4 2.481377 1_555
F33 Na9 2.180511 1_555
F33 Na7 2.405678 1_645
F33 Na0 2.481370 1_545
F34 Na11 2.180511 1_555
F34 Na6 2.405685 1_455
F34 Na2 2.481377 1_555
F35 Na10 2.180529 1_655
F35 Na8 2.405678 1_665
F35 Na1 2.481370 1_654
F36 Mn1 2.119796 1_555
F36 Na3 2.705309 1_555
F37 Mn2 2.119796 1_555
F37 Na5 2.705305 1_555
F38 Mn0 2.119794 1_555
F38 Na4 2.705302 1_555
F39 Mn4 2.119796 1_555
F39 Na0 2.705305 1_555
F40 Mn5 2.119794 1_555
F40 Na2 2.705302 1_555
F41 Mn3 2.119796 1_555
F41 Na1 2.705309 1_555
