# generated using pymatgen
data_ZnOF
_symmetry_space_group_name_H-M   'P 1'
_cell_length_a   3.15301500
_cell_length_b   4.49662200
_cell_length_c   10.31837900
_cell_angle_alpha   90.00000000
_cell_angle_beta   90.00000000
_cell_angle_gamma   90.00000000
_symmetry_Int_Tables_number   1
_chemical_formula_structural   ZnOF
_chemical_formula_sum   'Zn4 O4 F4'
_cell_volume   146.29311707
_cell_formula_units_Z   4
loop_
 _symmetry_equiv_pos_site_id
 _symmetry_equiv_pos_as_xyz
  1  'x, y, z'
loop_
 _atom_site_type_symbol
 _atom_site_label
 _atom_site_symmetry_multiplicity
 _atom_site_fract_x
 _atom_site_fract_y
 _atom_site_fract_z
 _atom_site_occupancy
  Zn  Zn0  1  0.25000000  0.05820900  0.13869700  1
  Zn  Zn1  1  0.75000000  0.94179100  0.86130300  1
  Zn  Zn2  1  0.75000000  0.55820900  0.36130300  1
  Zn  Zn3  1  0.25000000  0.44179100  0.63869700  1
  O  O0  1  0.25000000  0.79966700  0.29808900  1
  O  O1  1  0.75000000  0.20033300  0.70191100  1
  O  O2  1  0.75000000  0.29966700  0.20191100  1
  O  O3  1  0.25000000  0.70033300  0.79808900  1
  F  F0  1  0.25000000  0.19889300  0.94404200  1
  F  F1  1  0.75000000  0.80110700  0.05595800  1
  F  F2  1  0.75000000  0.69889300  0.55595800  1
  F  F3  1  0.25000000  0.30110700  0.44404200  1
loop_
_geom_bond_atom_site_label_1
_geom_bond_atom_site_label_2
_geom_bond_distance
_geom_bond_site_symmetry_2
O0 Zn0 2.014073 1_565
O0 Zn2 2.022293 1_555
O0 Zn2 2.022293 1_455
O1 Zn1 2.014073 1_545
O1 Zn3 2.022293 1_555
O1 Zn3 2.022293 1_655
O2 Zn2 2.014073 1_555
O2 Zn0 2.022293 1_655
O2 Zn0 2.022293 1_555
O3 Zn3 2.014073 1_555
O3 Zn1 2.022293 1_555
O3 Zn1 2.022293 1_455
F0 Zn0 2.105791 1_556
F0 Zn1 2.133256 1_445
F0 Zn1 2.133256 1_545
F1 Zn1 2.105791 1_554
F1 Zn0 2.133256 1_665
F1 Zn0 2.133256 1_565
F2 Zn2 2.105791 1_555
F2 Zn3 2.133256 1_655
F2 Zn3 2.133256 1_555
F3 Zn3 2.105791 1_555
F3 Zn2 2.133256 1_555
F3 Zn2 2.133256 1_455
