# generated using pymatgen
data_TbCu5Sn
_symmetry_space_group_name_H-M   'P 1'
_cell_length_a   5.01793400
_cell_length_b   8.22701900
_cell_length_c   10.56021900
_cell_angle_alpha   90.00000000
_cell_angle_beta   90.00000000
_cell_angle_gamma   90.00000000
_symmetry_Int_Tables_number   1
_chemical_formula_structural   TbCu5Sn
_chemical_formula_sum   'Tb4 Cu20 Sn4'
_cell_volume   435.95370197
_cell_formula_units_Z   4
loop_
 _symmetry_equiv_pos_site_id
 _symmetry_equiv_pos_as_xyz
  1  'x, y, z'
loop_
 _atom_site_type_symbol
 _atom_site_label
 _atom_site_symmetry_multiplicity
 _atom_site_fract_x
 _atom_site_fract_y
 _atom_site_fract_z
 _atom_site_occupancy
  Tb  Tb0  1  0.25000000  0.75320700  0.06288000  1
  Tb  Tb1  1  0.75000000  0.24679300  0.93712000  1
  Tb  Tb2  1  0.75000000  0.74679300  0.56288000  1
  Tb  Tb3  1  0.25000000  0.25320700  0.43712000  1
  Cu  Cu0  1  0.25000000  0.81378000  0.74554700  1
  Cu  Cu1  1  0.75000000  0.18622000  0.25445300  1
  Cu  Cu2  1  0.75000000  0.68622000  0.24554700  1
  Cu  Cu3  1  0.25000000  0.31378000  0.75445300  1
  Cu  Cu4  1  0.50125300  0.56507800  0.81315600  1
  Cu  Cu5  1  0.49874700  0.43492200  0.18684400  1
  Cu  Cu6  1  0.49874700  0.93492200  0.31315600  1
  Cu  Cu7  1  0.00125300  0.43492200  0.18684400  1
  Cu  Cu8  1  0.50125300  0.06507800  0.68684400  1
  Cu  Cu9  1  0.99874700  0.56507800  0.81315600  1
  Cu  Cu10  1  0.99874700  0.06507800  0.68684400  1
  Cu  Cu11  1  0.00125300  0.93492200  0.31315600  1
  Cu  Cu12  1  0.25000000  0.91304000  0.51799100  1
  Cu  Cu13  1  0.75000000  0.08696000  0.48200900  1
  Cu  Cu14  1  0.75000000  0.58696000  0.01799100  1
  Cu  Cu15  1  0.25000000  0.41304000  0.98200900  1
  Cu  Cu16  1  0.25000000  0.55877500  0.60224700  1
  Cu  Cu17  1  0.75000000  0.44122500  0.39775300  1
  Cu  Cu18  1  0.75000000  0.94122500  0.10224700  1
  Cu  Cu19  1  0.25000000  0.05877500  0.89775300  1
  Sn  Sn0  1  0.25000000  0.64054200  0.36098300  1
  Sn  Sn1  1  0.75000000  0.35945800  0.63901700  1
  Sn  Sn2  1  0.75000000  0.85945800  0.86098300  1
  Sn  Sn3  1  0.25000000  0.14054200  0.13901700  1
loop_
_geom_bond_atom_site_label_1
_geom_bond_atom_site_label_2
_geom_bond_distance
_geom_bond_site_symmetry_2
Cu0 Cu10 2.499624 1_465
Cu0 Cu8 2.499624 1_565
Cu0 Cu9 2.507133 1_455
Cu0 Cu4 2.507133 1_555
Cu0 Cu12 2.538004 1_555
Cu0 Cu19 2.577996 1_565
Cu0 Cu16 2.586760 1_555
Cu0 Sn2 2.814635 1_555
Cu0 Sn2 2.814635 1_455
Cu0 Tb2 3.212427 1_455
Cu0 Tb2 3.212427 1_555
Cu0 Tb0 3.387957 1_556
Cu1 Cu11 2.499624 1_645
Cu1 Cu6 2.499624 1_545
Cu1 Cu7 2.507133 1_655
Cu1 Cu5 2.507133 1_555
Cu1 Cu13 2.538004 1_555
Cu1 Cu18 2.577996 1_545
Cu1 Cu17 2.586760 1_555
Cu1 Sn3 2.814635 1_655
Cu1 Sn3 2.814635 1_555
Cu1 Tb3 3.212427 1_555
Cu1 Tb3 3.212427 1_655
Cu1 Tb1 3.387957 1_554
Cu2 Cu7 2.499624 1_655
Cu2 Cu5 2.499624 1_555
Cu2 Cu6 2.507133 1_555
Cu2 Sn0 2.814635 1_655
Cu2 Sn0 2.814635 1_555
Cu2 Tb0 3.212427 1_655
Cu2 Tb0 3.212427 1_555
Cu2 Tb2 3.387957 1_555
Cu3 Cu9 2.499624 1_455
Cu3 Cu4 2.499624 1_555
Cu3 Cu8 2.507133 1_555
Cu3 Sn1 2.814635 1_455
Cu3 Sn1 2.814635 1_555
Cu3 Tb1 3.212427 1_555
Cu3 Tb1 3.212427 1_455
Cu3 Tb3 3.387957 1_555
Cu4 Cu9 2.496392 1_555
Cu4 Cu9 2.521542 1_455
Cu4 Sn2 2.771017 1_555
Cu4 Sn1 2.793092 1_555
Cu4 Tb1 3.182521 1_555
Cu4 Tb2 3.283021 1_555
Cu4 Tb0 3.307500 1_556
Cu5 Cu7 2.496392 1_555
Cu5 Cu7 2.521542 1_655
Cu5 Sn3 2.771017 1_555
Cu5 Sn0 2.793092 1_555
Cu5 Tb0 3.182521 1_555
Cu5 Tb3 3.283021 1_555
Cu5 Tb1 3.307500 1_554
Cu6 Sn0 2.771017 1_555
Cu6 Sn3 2.793092 1_565
Cu6 Tb3 3.182521 1_565
Cu6 Tb0 3.283021 1_555
Cu6 Tb2 3.307500 1_555
Cu7 Sn3 2.771017 1_555
Cu7 Sn0 2.793092 1_555
Cu7 Tb0 3.182521 1_555
Cu7 Tb3 3.283021 1_555
Cu7 Tb1 3.307500 1_454
Cu8 Sn1 2.771017 1_555
Cu8 Sn2 2.793092 1_545
Cu8 Tb2 3.182521 1_545
Cu8 Tb1 3.283021 1_555
Cu8 Tb3 3.307500 1_555
Cu9 Sn2 2.771017 1_555
Cu9 Sn1 2.793092 1_555
Cu9 Tb1 3.182521 1_555
Cu9 Tb2 3.283021 1_555
Cu9 Tb0 3.307500 1_656
Cu10 Cu8 2.496392 1_555
Cu10 Cu13 2.503880 1_555
Cu10 Cu3 2.507133 1_655
Cu10 Cu12 2.516670 1_645
Cu10 Cu8 2.521542 1_655
Cu10 Cu19 2.559854 1_655
Cu10 Sn1 2.771017 1_555
Cu10 Sn2 2.793092 1_545
Cu10 Tb2 3.182521 1_545
Cu10 Tb1 3.283021 1_555
Cu10 Tb3 3.307500 1_655
Cu11 Cu6 2.496392 1_555
Cu11 Cu12 2.503880 1_555
Cu11 Cu2 2.507133 1_455
Cu11 Cu13 2.516670 1_465
Cu11 Cu6 2.521542 1_455
Cu11 Cu18 2.559854 1_455
Cu11 Sn0 2.771017 1_555
Cu11 Sn3 2.793092 1_565
Cu11 Tb3 3.182521 1_565
Cu11 Tb0 3.283021 1_555
Cu11 Tb2 3.307500 1_455
Cu12 Cu6 2.503880 1_555
Cu12 Cu8 2.516670 1_565
Cu12 Sn0 2.788363 1_555
Cu12 Tb2 2.896598 1_455
Cu12 Tb2 2.896598 1_555
Cu12 Tb3 2.925967 1_565
Cu13 Cu8 2.503880 1_555
Cu13 Cu6 2.516670 1_545
Cu13 Sn1 2.788363 1_555
Cu13 Tb3 2.896598 1_555
Cu13 Tb3 2.896598 1_655
Cu13 Tb2 2.925967 1_545
Cu14 Cu4 2.503880 1_554
Cu14 Cu9 2.503880 1_554
Cu14 Cu5 2.516670 1_555
Cu14 Cu7 2.516670 1_655
Cu14 Cu2 2.538004 1_555
Cu14 Sn2 2.788363 1_554
Cu14 Tb0 2.896598 1_555
Cu14 Tb0 2.896598 1_655
Cu14 Tb1 2.925967 1_554
Cu15 Cu5 2.503880 1_556
Cu15 Cu7 2.503880 1_556
Cu15 Cu9 2.516670 1_455
Cu15 Cu4 2.516670 1_555
Cu15 Cu3 2.538004 1_555
Cu15 Sn3 2.788363 1_556
Cu15 Tb1 2.896598 1_455
Cu15 Tb1 2.896598 1_555
Cu15 Tb0 2.925967 1_556
Cu16 Cu9 2.559854 1_455
Cu16 Cu4 2.559854 1_555
Cu16 Cu3 2.577996 1_555
Cu16 Sn0 2.635111 1_555
Cu16 Tb2 2.976645 1_455
Cu16 Tb2 2.976645 1_555
Cu16 Sn1 3.022348 1_455
Cu16 Sn1 3.022348 1_555
Cu16 Tb3 3.059497 1_555
Cu17 Cu7 2.559854 1_655
Cu17 Cu5 2.559854 1_555
Cu17 Cu2 2.577996 1_555
Cu17 Sn1 2.635111 1_555
Cu17 Tb3 2.976645 1_655
Cu17 Tb3 2.976645 1_555
Cu17 Sn0 3.022348 1_655
Cu17 Sn0 3.022348 1_555
Cu17 Tb2 3.059497 1_555
Cu18 Cu6 2.559854 1_555
Cu18 Cu2 2.586760 1_555
Cu18 Sn2 2.635111 1_554
Cu18 Tb0 2.976645 1_555
Cu18 Tb0 2.976645 1_655
Cu18 Sn3 3.022348 1_565
Cu18 Sn3 3.022348 1_665
Cu18 Tb1 3.059497 1_564
Cu19 Cu8 2.559854 1_555
Cu19 Cu3 2.586760 1_555
Cu19 Sn3 2.635111 1_556
Cu19 Tb1 2.976645 1_455
Cu19 Tb1 2.976645 1_555
Cu19 Sn2 3.022348 1_545
Cu19 Sn2 3.022348 1_445
Cu19 Tb0 3.059497 1_546
Sn0 Tb0 3.281654 1_555
Sn0 Tb3 3.286480 1_555
Sn0 Tb2 3.406577 1_455
Sn0 Tb2 3.406577 1_555
Sn1 Tb1 3.281654 1_555
Sn1 Tb2 3.286480 1_555
Sn1 Tb3 3.406577 1_655
Sn1 Tb3 3.406577 1_555
Sn2 Tb2 3.281654 1_555
Sn2 Tb1 3.286480 1_565
Sn2 Tb0 3.406577 1_556
Sn2 Tb0 3.406577 1_656
Sn3 Tb3 3.281654 1_555
Sn3 Tb0 3.286480 1_545
Sn3 Tb1 3.406577 1_554
Sn3 Tb1 3.406577 1_454
