# generated using pymatgen
data_NaBi3(IO2)2
_symmetry_space_group_name_H-M   'P 1'
_cell_length_a   7.32330296
_cell_length_b   7.32330296
_cell_length_c   5.71098600
_cell_angle_alpha   90.00000000
_cell_angle_beta   90.00000000
_cell_angle_gamma   134.06756925
_symmetry_Int_Tables_number   1
_chemical_formula_structural   NaBi3(IO2)2
_chemical_formula_sum   'Na1 Bi3 I2 O4'
_cell_volume   220.07160453
_cell_formula_units_Z   1
loop_
 _symmetry_equiv_pos_site_id
 _symmetry_equiv_pos_as_xyz
  1  'x, y, z'
loop_
 _atom_site_type_symbol
 _atom_site_label
 _atom_site_symmetry_multiplicity
 _atom_site_fract_x
 _atom_site_fract_y
 _atom_site_fract_z
 _atom_site_occupancy
  Na  Na0  1  0.33825800  0.66174200  0.50000000  1
  Bi  Bi0  1  0.83321200  0.16678800  0.00000000  1
  Bi  Bi1  1  0.16839400  0.83160600  0.00000000  1
  Bi  Bi2  1  0.66764200  0.33235800  0.50000000  1
  I  I0  1  0.49744000  0.50256000  0.00000000  1
  I  I1  1  0.00249700  0.99750300  0.50000000  1
  O  O0  1  0.50679300  0.01051500  0.75814600  1
  O  O1  1  0.98948500  0.49320700  0.24185400  1
  O  O2  1  0.98948500  0.49320700  0.75814600  1
  O  O3  1  0.50679300  0.01051500  0.24185400  1
loop_
_geom_bond_atom_site_label_1
_geom_bond_atom_site_label_2
_geom_bond_distance
_geom_bond_site_symmetry_2
Na0 O3 2.415678 1_565
Na0 O0 2.415678 1_565
Na0 O2 2.415678 1_455
Na0 O1 2.415678 1_455
Bi0 O0 2.264156 1_554
Bi0 O3 2.264156 1_555
Bi0 O2 2.264156 1_554
Bi0 O1 2.264156 1_555
Bi1 O2 2.291144 1_454
Bi1 O1 2.291144 1_455
Bi1 O0 2.291144 1_564
Bi1 O3 2.291144 1_565
Bi2 O0 2.292225 1_555
Bi2 O3 2.292225 1_555
Bi2 O2 2.292225 1_555
Bi2 O1 2.292225 1_555
I0 Na0 3.572400 1_554
I0 Na0 3.572400 1_555
I1 Na0 3.615351 1_565
I1 Na0 3.615351 1_455
