# generated using pymatgen
data_KH3(SeO3)2
_symmetry_space_group_name_H-M   'P 1'
_cell_length_a   6.43851900
_cell_length_b   6.47697700
_cell_length_c   16.20575400
_cell_angle_alpha   90.00000000
_cell_angle_beta   90.00000000
_cell_angle_gamma   90.00000000
_symmetry_Int_Tables_number   1
_chemical_formula_structural   KH3(SeO3)2
_chemical_formula_sum   'K4 H12 Se8 O24'
_cell_volume   675.81461364
_cell_formula_units_Z   4
loop_
 _symmetry_equiv_pos_site_id
 _symmetry_equiv_pos_as_xyz
  1  'x, y, z'
loop_
 _atom_site_type_symbol
 _atom_site_label
 _atom_site_symmetry_multiplicity
 _atom_site_fract_x
 _atom_site_fract_y
 _atom_site_fract_z
 _atom_site_occupancy
  K  K0  1  0.56139200  0.74809700  0.50480100  1
  K  K1  1  0.43860800  0.25190300  0.00480100  1
  K  K2  1  0.93860800  0.24809700  0.50480100  1
  K  K3  1  0.06139200  0.75190300  0.00480100  1
  H  H0  1  0.31193000  0.96447100  0.82592500  1
  H  H1  1  0.68995900  0.46851300  0.67503400  1
  H  H2  1  0.68807000  0.03552900  0.32592500  1
  H  H3  1  0.31004100  0.53148700  0.17503400  1
  H  H4  1  0.18995900  0.03148700  0.17503400  1
  H  H5  1  0.81193000  0.53552900  0.32592500  1
  H  H6  1  0.81004100  0.96851300  0.67503400  1
  H  H7  1  0.18807000  0.46447100  0.82592500  1
  H  H8  1  0.62395600  0.76653200  0.98979300  1
  H  H9  1  0.37604400  0.23346800  0.48979300  1
  H  H10  1  0.12395600  0.73346800  0.48979300  1
  H  H11  1  0.87604400  0.26653200  0.98979300  1
  Se  Se0  1  0.55614600  0.70605400  0.84715100  1
  Se  Se1  1  0.44050500  0.21244600  0.64900800  1
  Se  Se2  1  0.44385400  0.29394600  0.34715100  1
  Se  Se3  1  0.55949500  0.78755400  0.14900800  1
  Se  Se4  1  0.94050500  0.28755400  0.14900800  1
  Se  Se5  1  0.05614600  0.79394600  0.34715100  1
  Se  Se6  1  0.05949500  0.71244600  0.64900800  1
  Se  Se7  1  0.94385400  0.20605400  0.84715100  1
  O  O0  1  0.35700300  0.57133500  0.88807300  1
  O  O1  1  0.64326800  0.07334100  0.61130600  1
  O  O2  1  0.64299700  0.42866500  0.38807300  1
  O  O3  1  0.35673200  0.92665900  0.11130600  1
  O  O4  1  0.14326800  0.42665900  0.11130600  1
  O  O5  1  0.85700300  0.92866500  0.38807300  1
  O  O6  1  0.85673200  0.57334100  0.61130600  1
  O  O7  1  0.14299700  0.07133500  0.88807300  1
  O  O8  1  0.43261100  0.90928900  0.79177000  1
  O  O9  1  0.57261600  0.40792700  0.70968900  1
  O  O10  1  0.56738900  0.09071100  0.29177000  1
  O  O11  1  0.42738400  0.59207300  0.20968900  1
  O  O12  1  0.07261600  0.09207300  0.20968900  1
  O  O13  1  0.93261100  0.59071100  0.29177000  1
  O  O14  1  0.92738400  0.90792700  0.70968900  1
  O  O15  1  0.06738900  0.40928900  0.79177000  1
  O  O16  1  0.63472900  0.85754500  0.93383300  1
  O  O17  1  0.36433100  0.35230100  0.56361700  1
  O  O18  1  0.36527100  0.14245500  0.43383300  1
  O  O19  1  0.63566900  0.64769900  0.06361700  1
  O  O20  1  0.86433100  0.14769900  0.06361700  1
  O  O21  1  0.13472900  0.64245500  0.43383300  1
  O  O22  1  0.13566900  0.85230100  0.56361700  1
  O  O23  1  0.86527100  0.35754500  0.93383300  1
loop_
_geom_bond_atom_site_label_1
_geom_bond_atom_site_label_2
_geom_bond_distance
_geom_bond_site_symmetry_2
K0 O1 2.773934 1_565
K0 O6 2.806445 1_555
K0 O2 2.852197 1_555
K0 O5 2.927243 1_555
K0 O22 2.979473 1_555
K0 O17 3.014990 1_555
K0 O21 3.055704 1_555
K0 O18 3.072682 1_565
K1 O3 2.773934 1_545
K1 O4 2.806445 1_555
K1 O0 2.852197 1_554
K1 O7 2.927243 1_554
K1 O20 2.979473 1_555
K1 O19 3.014990 1_555
K1 O23 3.055704 1_554
K1 O16 3.072682 1_544
K2 O6 2.773934 1_555
K2 O1 2.806445 1_555
K2 O5 2.852197 1_545
K2 O2 2.927243 1_555
K2 O17 2.979473 1_655
K2 O22 3.014990 1_645
K2 O18 3.055704 1_655
K2 O21 3.072682 1_655
K3 O4 2.773934 1_555
K3 O3 2.806445 1_555
K3 O7 2.852197 1_564
K3 O0 2.927243 1_554
K3 O19 2.979473 1_455
K3 O20 3.014990 1_465
K3 O16 3.055704 1_454
K3 O23 3.072682 1_454
H0 O8 1.018751 1_555
H0 O7 1.635997 1_565
H1 O9 1.019901 1_555
H1 O6 1.637247 1_555
H2 O10 1.018751 1_555
H2 O5 1.635997 1_545
H3 O11 1.019901 1_555
H3 O4 1.637247 1_555
H4 O12 1.019901 1_555
H4 O3 1.637247 1_545
H5 O13 1.018751 1_555
H5 O2 1.635997 1_555
H6 O14 1.019901 1_555
H6 O1 1.637247 1_565
H7 O15 1.018751 1_555
H7 O0 1.635997 1_555
H8 O16 1.083849 1_555
H8 O19 1.424571 1_556
H8 K3 2.828510 1_656
H9 O18 1.083849 1_555
H9 O17 1.424571 1_555
H9 K2 2.828510 1_455
H10 O21 1.083849 1_555
H10 O22 1.424571 1_555
H10 K0 2.828510 1_555
H11 O23 1.083849 1_555
H11 O20 1.424571 1_556
H11 K1 2.828510 1_556
O0 Se0 1.686766 1_555
O1 Se1 1.699819 1_555
O2 Se2 1.686766 1_555
O3 Se3 1.699819 1_555
O4 Se4 1.699819 1_455
O5 Se5 1.686766 1_655
O6 Se6 1.699819 1_655
O7 Se7 1.686766 1_455
O8 Se0 1.780701 1_555
O9 Se1 1.814837 1_555
O10 Se2 1.780701 1_555
O11 Se3 1.814837 1_555
O12 Se4 1.814837 1_455
O13 Se5 1.780701 1_655
O14 Se6 1.814837 1_655
O15 Se7 1.780701 1_455
O16 Se0 1.786636 1_555
O17 Se1 1.725124 1_555
O18 Se2 1.786636 1_555
O19 Se3 1.725124 1_555
O20 Se4 1.725124 1_555
O21 Se5 1.786636 1_555
O22 Se6 1.725124 1_555
O23 Se7 1.786636 1_555
