# generated using pymatgen
data_Co11B4SbO20
_symmetry_space_group_name_H-M   'P 1'
_cell_length_a   6.26380767
_cell_length_b   6.26380767
_cell_length_c   11.70759299
_cell_angle_alpha   69.89434423
_cell_angle_beta   69.89434423
_cell_angle_gamma   59.66780466
_symmetry_Int_Tables_number   1
_chemical_formula_structural   Co11B4SbO20
_chemical_formula_sum   'Co11 B4 Sb1 O20'
_cell_volume   364.01370922
_cell_formula_units_Z   1
loop_
 _symmetry_equiv_pos_site_id
 _symmetry_equiv_pos_as_xyz
  1  'x, y, z'
loop_
 _atom_site_type_symbol
 _atom_site_label
 _atom_site_symmetry_multiplicity
 _atom_site_fract_x
 _atom_site_fract_y
 _atom_site_fract_z
 _atom_site_occupancy
  Co  Co0  1  0.50000000  0.50000000  0.00000000  1
  Co  Co1  1  0.00000000  0.00000000  0.00000000  1
  Co  Co2  1  0.74973400  0.74973400  0.99854900  1
  Co  Co3  1  0.25026600  0.25026600  0.00145100  1
  Co  Co4  1  0.21983600  0.71795400  0.78174300  1
  Co  Co5  1  0.71795400  0.21983600  0.78174300  1
  Co  Co6  1  0.28204600  0.78016400  0.21825700  1
  Co  Co7  1  0.78016400  0.28204600  0.21825700  1
  Co  Co8  1  0.50000000  0.00000000  0.50000000  1
  Co  Co9  1  0.00000000  0.50000000  0.50000000  1
  Co  Co10  1  0.00000000  0.00000000  0.50000000  1
  B  B0  1  0.23617600  0.23617600  0.74226200  1
  B  B1  1  0.73590800  0.73590800  0.73747700  1
  B  B2  1  0.76382400  0.76382400  0.25773800  1
  B  B3  1  0.26409200  0.26409200  0.26252300  1
  Sb  Sb0  1  0.50000000  0.50000000  0.50000000  1
  O  O0  1  0.13591400  0.63885300  0.97126100  1
  O  O1  1  0.63885300  0.13591400  0.97126100  1
  O  O2  1  0.36114700  0.86408600  0.02873900  1
  O  O3  1  0.86408600  0.36114700  0.02873900  1
  O  O4  1  0.59773800  0.59773800  0.80211900  1
  O  O5  1  0.09925800  0.09925800  0.79866800  1
  O  O6  1  0.40226200  0.40226200  0.19788100  1
  O  O7  1  0.90074200  0.90074200  0.20133200  1
  O  O8  1  0.30936200  0.78233300  0.59146700  1
  O  O9  1  0.78233300  0.30936200  0.59146700  1
  O  O10  1  0.21766700  0.69063800  0.40853300  1
  O  O11  1  0.69063800  0.21766700  0.40853300  1
  O  O12  1  0.32161300  0.32161300  0.80225200  1
  O  O13  1  0.82228100  0.82228100  0.79871500  1
  O  O14  1  0.67838700  0.67838700  0.19774800  1
  O  O15  1  0.17771900  0.17771900  0.20128500  1
  O  O16  1  0.29425400  0.29425400  0.60881400  1
  O  O17  1  0.78878400  0.78878400  0.60651900  1
  O  O18  1  0.70574600  0.70574600  0.39118600  1
  O  O19  1  0.21121600  0.21121600  0.39348100  1
loop_
_geom_bond_atom_site_label_1
_geom_bond_atom_site_label_2
_geom_bond_distance
_geom_bond_site_symmetry_2
Co0 O2 2.096090 1_555
Co0 O0 2.096090 1_554
Co0 O3 2.096090 1_555
Co0 O1 2.096090 1_554
Co0 O6 2.131927 1_555
Co0 O4 2.131927 1_554
Co1 O1 2.082430 1_454
Co1 O3 2.082430 1_455
Co1 O2 2.082430 1_545
Co1 O0 2.082430 1_544
Co1 O5 2.168973 1_554
Co1 O7 2.168973 1_445
Co2 O0 2.088097 1_655
Co2 O1 2.088097 1_565
Co2 O2 2.093840 1_556
Co2 O3 2.093840 1_556
Co2 O14 2.146383 1_556
Co2 O13 2.152518 1_555
Co3 O3 2.088097 1_455
Co3 O2 2.088097 1_545
Co3 O0 2.093840 1_554
Co3 O1 2.093840 1_554
Co3 O12 2.146383 1_554
Co3 O15 2.152518 1_555
Co4 O0 2.037222 1_555
Co4 O8 2.047332 1_555
Co4 O4 2.165992 1_555
Co4 O5 2.171339 1_565
Co4 O12 2.173536 1_555
Co4 O13 2.184748 1_455
Co5 O1 2.037222 1_555
Co5 O9 2.047332 1_555
Co5 O4 2.165992 1_555
Co5 O5 2.171339 1_655
Co5 O12 2.173536 1_555
Co5 O13 2.184748 1_545
Co6 O2 2.037222 1_555
Co6 O10 2.047332 1_555
Co6 O6 2.165992 1_555
Co6 O7 2.171339 1_455
Co6 O14 2.173536 1_555
Co6 O15 2.184748 1_565
Co7 O3 2.037222 1_555
Co7 O11 2.047332 1_555
Co7 O6 2.165992 1_555
Co7 O7 2.171339 1_545
Co7 O14 2.173536 1_555
Co7 O15 2.184748 1_655
Co8 O8 2.047702 1_545
Co8 O11 2.047702 1_555
Co8 O19 2.139404 1_555
Co8 O17 2.139404 1_545
Co8 O18 2.183443 1_545
Co8 O16 2.183443 1_555
Co9 O10 2.047702 1_555
Co9 O9 2.047702 1_455
Co9 O19 2.139404 1_555
Co9 O17 2.139404 1_455
Co9 O18 2.183443 1_455
Co9 O16 2.183443 1_555
Co10 O8 2.124857 1_545
Co10 O9 2.124857 1_455
Co10 O10 2.124857 1_545
Co10 O11 2.124857 1_455
Co10 O19 2.134300 1_555
Co10 O17 2.134300 1_445
B0 O5 1.367955 1_555
B0 O12 1.368269 1_555
B0 O16 1.434502 1_555
B1 O4 1.388077 1_555
B1 O13 1.388676 1_555
B1 O17 1.408071 1_555
B2 O7 1.367955 1_555
B2 O14 1.368269 1_555
B2 O18 1.434502 1_555
B3 O6 1.388077 1_555
B3 O15 1.388676 1_555
B3 O19 1.408071 1_555
O8 Sb0 1.997520 1_555
O9 Sb0 1.997520 1_555
O10 Sb0 1.997520 1_555
O11 Sb0 1.997520 1_555
O16 Sb0 2.089200 1_555
O18 Sb0 2.089200 1_555
