# generated using pymatgen
data_LiVFe(P2O7)2
_symmetry_space_group_name_H-M   'P 1'
_cell_length_a   4.95542432
_cell_length_b   8.09513375
_cell_length_c   7.03187219
_cell_angle_alpha   90.22278202
_cell_angle_beta   106.54715880
_cell_angle_gamma   90.23443855
_symmetry_Int_Tables_number   1
_chemical_formula_structural   LiVFe(P2O7)2
_chemical_formula_sum   'Li1 V1 Fe1 P4 O14'
_cell_volume   270.39402757
_cell_formula_units_Z   1
loop_
 _symmetry_equiv_pos_site_id
 _symmetry_equiv_pos_as_xyz
  1  'x, y, z'
loop_
 _atom_site_type_symbol
 _atom_site_label
 _atom_site_symmetry_multiplicity
 _atom_site_fract_x
 _atom_site_fract_y
 _atom_site_fract_z
 _atom_site_occupancy
  Li  Li0  1  0.69182500  0.69800900  0.93183400  1
  V  V0  1  0.19997900  0.49414000  0.71851400  1
  Fe  Fe0  1  0.78731100  0.01237200  0.27662600  1
  P  P0  1  0.38757200  0.18819400  0.50492800  1
  P  P1  1  0.23784900  0.76790700  0.10579600  1
  P  P2  1  0.76244500  0.27683500  0.89691400  1
  P  P3  1  0.61277400  0.68948900  0.49452500  1
  O  O0  1  0.02467400  0.32984000  0.83091900  1
  O  O1  1  0.14341600  0.65732500  0.91862500  1
  O  O2  1  0.15897700  0.05795100  0.46593700  1
  O  O3  1  0.26505600  0.36418200  0.51313000  1
  O  O4  1  0.43875900  0.67513400  0.64606300  1
  O  O5  1  0.58121700  0.43153100  0.90377600  1
  O  O6  1  0.58120700  0.15347600  0.73023800  1
  O  O7  1  0.40657100  0.64198700  0.27859200  1
  O  O8  1  0.44041500  0.90222900  0.08237900  1
  O  O9  1  0.57350500  0.18736800  0.36765400  1
  O  O10  1  0.72080800  0.86342700  0.48900100  1
  O  O11  1  0.84451500  0.55788000  0.53476900  1
  O  O12  1  0.85340200  0.17867000  0.08443600  1
  O  O13  1  0.96833200  0.82195700  0.15112100  1
loop_
_geom_bond_atom_site_label_1
_geom_bond_atom_site_label_2
_geom_bond_distance
_geom_bond_site_symmetry_2
Li0 O13 2.008783 1_556
Li0 O4 2.050566 1_555
Li0 O5 2.217695 1_555
Li0 O1 2.291101 1_655
Li0 O8 2.481995 1_556
Fe0 O2 1.973428 1_655
Fe0 O9 1.982573 1_555
Fe0 O12 2.002153 1_555
Fe0 O10 2.020816 1_545
Fe0 O8 2.063073 1_545
Fe0 O13 2.100295 1_545
O0 P2 1.558377 1_455
O0 V0 1.881020 1_555
O1 P1 1.545701 1_556
O1 V0 2.004231 1_555
O2 P0 1.510319 1_555
O3 P0 1.558179 1_555
O3 V0 1.884893 1_555
O4 P3 1.554393 1_555
O4 V0 2.035036 1_555
O5 P2 1.552571 1_555
O5 V0 2.033262 1_555
O6 P2 1.600463 1_555
O6 P0 1.627759 1_555
O7 P3 1.614322 1_555
O7 P1 1.628634 1_555
O8 P1 1.517788 1_555
O9 P0 1.512409 1_555
O10 P3 1.508915 1_555
O11 P3 1.536605 1_555
O11 V0 1.937705 1_655
O12 P2 1.498653 1_554
O13 P1 1.524119 1_655
