# generated using pymatgen
data_Sr9Fe(PO4)7
_symmetry_space_group_name_H-M   'P 1'
_cell_length_a   9.09304281
_cell_length_b   9.09304281
_cell_length_c   18.18835805
_cell_angle_alpha   71.85739036
_cell_angle_beta   71.85739036
_cell_angle_gamma   72.42557270
_symmetry_Int_Tables_number   1
_chemical_formula_structural   Sr9Fe(PO4)7
_chemical_formula_sum   'Sr18 Fe2 P14 O56'
_cell_volume   1322.61007027
_cell_formula_units_Z   2
loop_
 _symmetry_equiv_pos_site_id
 _symmetry_equiv_pos_as_xyz
  1  'x, y, z'
loop_
 _atom_site_type_symbol
 _atom_site_label
 _atom_site_symmetry_multiplicity
 _atom_site_fract_x
 _atom_site_fract_y
 _atom_site_fract_z
 _atom_site_occupancy
  Sr  Sr0  1  0.27810400  0.83736800  0.63455800  1
  Sr  Sr1  1  0.15890300  0.72320500  0.86473800  1
  Sr  Sr2  1  0.72320500  0.15890300  0.36473800  1
  Sr  Sr3  1  0.83736800  0.27810400  0.13455800  1
  Sr  Sr4  1  0.71921500  0.71341700  0.58739300  1
  Sr  Sr5  1  0.28510000  0.27857500  0.91264900  1
  Sr  Sr6  1  0.27857500  0.28510000  0.41264900  1
  Sr  Sr7  1  0.71341700  0.71921500  0.08739300  1
  Sr  Sr8  1  0.27166600  0.83817700  0.13976200  1
  Sr  Sr9  1  0.15849300  0.72980500  0.35978800  1
  Sr  Sr10  1  0.72980500  0.15849300  0.85978800  1
  Sr  Sr11  1  0.83817700  0.27166600  0.63976200  1
  Sr  Sr12  1  0.49610800  0.03908200  0.74845600  1
  Sr  Sr13  1  0.96458900  0.50337300  0.74954500  1
  Sr  Sr14  1  0.50337300  0.96458900  0.24954500  1
  Sr  Sr15  1  0.03908200  0.49610800  0.24845600  1
  Sr  Sr16  1  0.50801500  0.50496300  0.48348200  1
  Sr  Sr17  1  0.50496300  0.50801500  0.98348200  1
  Fe  Fe0  1  0.99944400  0.99896200  0.50025800  1
  Fe  Fe1  1  0.99896200  0.99944400  0.00025800  1
  P  P0  1  0.10529200  0.59316400  0.05721500  1
  P  P1  1  0.40733300  0.89509700  0.44244800  1
  P  P2  1  0.89509700  0.40733300  0.94244800  1
  P  P3  1  0.59316400  0.10529200  0.55721500  1
  P  P4  1  0.88491900  0.89344700  0.20427900  1
  P  P5  1  0.10631100  0.11505000  0.29561600  1
  P  P6  1  0.11505000  0.10631100  0.79561600  1
  P  P7  1  0.89344700  0.88491900  0.70427900  1
  P  P8  1  0.11467500  0.59277000  0.55253700  1
  P  P9  1  0.40701600  0.88650800  0.94723000  1
  P  P10  1  0.88650800  0.40701600  0.44723000  1
  P  P11  1  0.59277000  0.11467500  0.05253700  1
  P  P12  1  0.47474400  0.52581300  0.25102200  1
  P  P13  1  0.52581300  0.47474400  0.75102200  1
  O  O0  1  0.49920100  0.78785000  0.50579200  1
  O  O1  1  0.21179500  0.50285500  0.99280100  1
  O  O2  1  0.50285500  0.21179500  0.49280100  1
  O  O3  1  0.78785000  0.49920100  0.00579200  1
  O  O4  1  0.41641300  0.52462500  0.82834600  1
  O  O5  1  0.47249500  0.58825300  0.67609100  1
  O  O6  1  0.58825300  0.47249500  0.17609100  1
  O  O7  1  0.52462500  0.41641300  0.32834600  1
  O  O8  1  0.02298200  0.76202000  0.50923600  1
  O  O9  1  0.23808500  0.97716500  0.99027400  1
  O  O10  1  0.97716500  0.23808500  0.49027400  1
  O  O11  1  0.76202000  0.02298200  0.00923600  1
  O  O12  1  0.02786100  0.48993700  0.88432400  1
  O  O13  1  0.50955700  0.97282900  0.61478500  1
  O  O14  1  0.97282900  0.50955700  0.11478500  1
  O  O15  1  0.48993700  0.02786100  0.38432400  1
  O  O16  1  0.01513700  0.49879000  0.39387200  1
  O  O17  1  0.50084700  0.98538400  0.10531700  1
  O  O18  1  0.98538400  0.50084700  0.60531700  1
  O  O19  1  0.49879000  0.01513700  0.89387200  1
  O  O20  1  0.78709300  0.01304500  0.74942400  1
  O  O21  1  0.98695800  0.21272700  0.75056300  1
  O  O22  1  0.21272700  0.98695800  0.25056300  1
  O  O23  1  0.01304500  0.78709300  0.24942400  1
  O  O24  1  0.52483400  0.29641500  0.76478300  1
  O  O25  1  0.70513900  0.47368700  0.73601900  1
  O  O26  1  0.47368700  0.70513900  0.23601900  1
  O  O27  1  0.29641500  0.52483400  0.26478300  1
  O  O28  1  0.97768100  0.97906600  0.11915400  1
  O  O29  1  0.02064600  0.02220900  0.38076200  1
  O  O30  1  0.02220900  0.02064600  0.88076200  1
  O  O31  1  0.97906600  0.97768100  0.61915400  1
  O  O32  1  0.48921000  0.77307600  0.01389800  1
  O  O33  1  0.22604900  0.51177300  0.48480300  1
  O  O34  1  0.51177300  0.22604900  0.98480300  1
  O  O35  1  0.77307600  0.48921000  0.51389800  1
  O  O36  1  0.21322100  0.20783700  0.80460100  1
  O  O37  1  0.79206400  0.78652200  0.69544800  1
  O  O38  1  0.78652200  0.79206400  0.19544800  1
  O  O39  1  0.20783700  0.21322100  0.30460100  1
  O  O40  1  0.79159100  0.38819400  0.89423500  1
  O  O41  1  0.61390800  0.20691400  0.60531000  1
  O  O42  1  0.20691400  0.61390800  0.10531000  1
  O  O43  1  0.38819400  0.79159100  0.39423500  1
  O  O44  1  0.77375900  0.02637100  0.24566100  1
  O  O45  1  0.97323500  0.22647400  0.25449600  1
  O  O46  1  0.22647400  0.97323500  0.75449600  1
  O  O47  1  0.02637100  0.77375900  0.74566100  1
  O  O48  1  0.78818300  0.38866900  0.39692400  1
  O  O49  1  0.61214100  0.21144800  0.10265600  1
  O  O50  1  0.21144800  0.61214100  0.60265600  1
  O  O51  1  0.38866900  0.78818300  0.89692400  1
  O  O52  1  0.01789900  0.76164600  0.01144300  1
  O  O53  1  0.23887000  0.98146200  0.48790700  1
  O  O54  1  0.98146200  0.23887000  0.98790700  1
  O  O55  1  0.76164600  0.01789900  0.51144300  1
loop_
_geom_bond_atom_site_label_1
_geom_bond_atom_site_label_2
_geom_bond_distance
_geom_bond_site_symmetry_2
Fe0 O8 2.058794 1_655
Fe0 O31 2.063924 1_555
Fe0 O55 2.066307 1_565
Fe0 O29 2.069593 1_665
Fe0 O10 2.076739 1_565
Fe0 O53 2.079440 1_655
Fe1 O11 2.058794 1_565
Fe1 O28 2.063924 1_555
Fe1 O52 2.066307 1_655
Fe1 O30 2.069593 1_664
Fe1 O9 2.076739 1_654
Fe1 O54 2.079440 1_564
O0 P1 1.544001 1_555
O0 Sr0 2.628220 1_555
O0 Sr4 2.658790 1_555
O0 Sr16 2.700577 1_555
O1 P0 1.548268 1_556
O1 Sr1 2.623093 1_555
O1 Sr17 2.631834 1_555
O1 Sr5 2.674723 1_555
O2 P3 1.548268 1_555
O2 Sr2 2.623093 1_555
O2 Sr16 2.631834 1_555
O2 Sr6 2.674723 1_555
O3 P2 1.544001 1_554
O3 Sr3 2.628220 1_555
O3 Sr7 2.658790 1_555
O3 Sr17 2.700577 1_554
O4 P13 1.557808 1_555
O4 Sr1 2.531267 1_555
O4 Sr5 2.668174 1_555
O4 Sr17 3.115930 1_555
O5 P13 1.546306 1_555
O5 Sr0 2.484795 1_555
O5 Sr4 2.659973 1_555
O6 P12 1.546306 1_555
O6 Sr3 2.484795 1_555
O6 Sr7 2.659973 1_555
O7 P12 1.557808 1_555
O7 Sr2 2.531267 1_555
O7 Sr6 2.668174 1_555
O7 Sr16 3.115930 1_555
O8 P8 1.600990 1_555
O8 Sr9 2.680455 1_555
O8 Sr4 2.783216 1_455
O9 P9 1.593851 1_555
O9 Sr8 2.688334 1_556
O9 Sr5 2.758552 1_565
O10 P10 1.593851 1_555
O10 Sr11 2.688334 1_555
O10 Sr6 2.758552 1_655
O11 P11 1.600990 1_555
O11 Sr10 2.680455 1_554
O11 Sr7 2.783216 1_545
O12 P2 1.548378 1_455
O12 Sr1 2.614814 1_555
O12 Sr5 2.617166 1_555
O12 Sr13 2.646642 1_455
O13 P3 1.548216 1_565
O13 Sr4 2.621362 1_555
O13 Sr0 2.625680 1_555
O13 Sr12 2.640341 1_565
O14 P0 1.548216 1_655
O14 Sr7 2.621362 1_555
O14 Sr3 2.625680 1_555
O14 Sr15 2.640341 1_655
O15 P1 1.548378 1_545
O15 Sr2 2.614814 1_555
O15 Sr6 2.617166 1_555
O15 Sr14 2.646642 1_545
O16 P10 1.544164 1_455
O16 Sr15 2.592626 1_555
O16 Sr9 2.614484 1_555
O16 Sr6 2.629791 1_555
O17 P11 1.547008 1_565
O17 Sr14 2.577561 1_555
O17 Sr8 2.622272 1_555
O17 Sr7 2.640841 1_555
O18 P8 1.547008 1_655
O18 Sr13 2.577561 1_555
O18 Sr11 2.622272 1_555
O18 Sr4 2.640841 1_555
O19 P9 1.544164 1_545
O19 Sr12 2.592626 1_555
O19 Sr10 2.614484 1_555
O19 Sr5 2.629791 1_555
O20 P7 1.545206 1_545
O20 Sr10 2.576051 1_555
O20 Sr12 2.589493 1_555
O20 Sr11 2.624103 1_555
O21 P6 1.544156 1_655
O21 Sr13 2.583341 1_555
O21 Sr11 2.601216 1_555
O21 Sr10 2.617407 1_555
O22 P5 1.544156 1_565
O22 Sr14 2.583341 1_555
O22 Sr8 2.601216 1_555
O22 Sr9 2.617407 1_555
O23 P4 1.545206 1_455
O23 Sr9 2.576051 1_555
O23 Sr15 2.589493 1_555
O23 Sr8 2.624103 1_555
O24 P13 1.564204 1_555
O24 Sr12 2.545955 1_555
O24 Sr10 2.697609 1_555
O24 Sr5 2.881345 1_555
O24 Sr11 3.039104 1_555
O25 P13 1.564780 1_555
O25 Sr13 2.546871 1_555
O25 Sr11 2.691657 1_555
O25 Sr4 2.891204 1_555
O25 Sr10 3.039827 1_555
O26 P12 1.564780 1_555
O26 Sr14 2.546871 1_555
O26 Sr8 2.691657 1_555
O26 Sr7 2.891204 1_555
O26 Sr9 3.039827 1_555
O27 P12 1.564204 1_555
O27 Sr15 2.545955 1_555
O27 Sr9 2.697609 1_555
O27 Sr6 2.881345 1_555
O27 Sr8 3.039104 1_555
O28 P4 1.596043 1_555
O28 Sr8 2.680422 1_655
O28 Sr3 2.693875 1_565
O29 P5 1.596706 1_555
O29 Sr9 2.665970 1_545
O29 Sr2 2.679583 1_455
O30 P6 1.596706 1_555
O30 Sr10 2.665970 1_455
O30 Sr1 2.679583 1_545
O31 P7 1.596043 1_555
O31 Sr11 2.680422 1_565
O31 Sr0 2.693875 1_655
O32 P9 1.553316 1_554
O32 Sr17 2.590024 1_554
O32 Sr8 2.611663 1_555
O32 Sr7 2.621008 1_555
O33 P8 1.556747 1_555
O33 Sr16 2.538666 1_555
O33 Sr9 2.608672 1_555
O33 Sr6 2.626492 1_555
O34 P11 1.556747 1_556
O34 Sr17 2.538666 1_555
O34 Sr10 2.608672 1_555
O34 Sr5 2.626492 1_555
O35 P10 1.553316 1_555
O35 Sr16 2.590024 1_555
O35 Sr11 2.611663 1_555
O35 Sr4 2.621008 1_555
O36 P6 1.535677 1_555
O36 Sr5 2.558129 1_555
O36 Sr12 2.640185 1_555
O36 Sr13 3.066078 1_455
O37 P7 1.534934 1_555
O37 Sr4 2.575570 1_555
O37 Sr13 2.646251 1_555
O37 Sr12 3.078429 1_565
O38 P4 1.534934 1_555
O38 Sr7 2.575570 1_555
O38 Sr14 2.646251 1_555
O38 Sr15 3.078429 1_655
O39 P5 1.535677 1_555
O39 Sr6 2.558129 1_555
O39 Sr15 2.640185 1_555
O39 Sr14 3.066078 1_545
O40 P2 1.546947 1_555
O40 Sr10 2.610289 1_555
O40 Sr13 2.682810 1_555
O40 Sr17 2.714181 1_555
O41 P3 1.538212 1_555
O41 Sr11 2.578510 1_555
O41 Sr12 2.651596 1_555
O41 Sr16 3.032343 1_555
O42 P0 1.538212 1_555
O42 Sr8 2.578510 1_555
O42 Sr15 2.651596 1_555
O42 Sr17 3.032343 1_554
O43 P1 1.546947 1_555
O43 Sr9 2.610289 1_555
O43 Sr14 2.682810 1_555
O43 Sr16 2.714181 1_555
O44 P4 1.550514 1_545
O44 Sr3 2.616996 1_555
O44 Sr2 2.650523 1_555
O44 Sr14 2.658324 1_545
O45 P5 1.549673 1_655
O45 Sr2 2.608507 1_555
O45 Sr15 2.657004 1_655
O45 Sr3 2.682520 1_555
O46 P6 1.549673 1_565
O46 Sr1 2.608507 1_555
O46 Sr12 2.657004 1_565
O46 Sr0 2.682520 1_555
O47 P7 1.550514 1_455
O47 Sr0 2.616996 1_555
O47 Sr1 2.650523 1_555
O47 Sr13 2.658324 1_455
O48 P10 1.535902 1_555
O48 Sr2 2.603734 1_555
O48 Sr16 2.645585 1_555
O48 Sr15 3.052505 1_655
O49 P11 1.526268 1_555
O49 Sr3 2.570416 1_555
O49 Sr17 3.001430 1_554
O49 Sr14 3.019105 1_545
O50 P8 1.526268 1_555
O50 Sr0 2.570416 1_555
O50 Sr16 3.001430 1_555
O50 Sr13 3.019105 1_455
O51 P9 1.535902 1_555
O51 Sr1 2.603734 1_555
O51 Sr17 2.645585 1_555
O51 Sr12 3.052505 1_565
O52 P0 1.598175 1_555
O52 Sr1 2.658129 1_554
O52 Sr7 2.766580 1_455
O53 P1 1.592494 1_555
O53 Sr0 2.663190 1_555
O53 Sr6 2.750942 1_565
O54 P2 1.592494 1_555
O54 Sr3 2.663190 1_556
O54 Sr5 2.750942 1_655
O55 P3 1.598175 1_555
O55 Sr2 2.658129 1_555
O55 Sr4 2.766580 1_545
