# generated using pymatgen
data_K2LiNd4Nb2O12
_symmetry_space_group_name_H-M   'P 1'
_cell_length_a   5.82971243
_cell_length_b   7.09749184
_cell_length_c   8.80079251
_cell_angle_alpha   103.95324736
_cell_angle_beta   89.46527156
_cell_angle_gamma   114.72046259
_symmetry_Int_Tables_number   1
_chemical_formula_structural   K2LiNd4Nb2O12
_chemical_formula_sum   'K2 Li1 Nd4 Nb2 O12'
_cell_volume   319.27965712
_cell_formula_units_Z   1
loop_
 _symmetry_equiv_pos_site_id
 _symmetry_equiv_pos_as_xyz
  1  'x, y, z'
loop_
 _atom_site_type_symbol
 _atom_site_label
 _atom_site_symmetry_multiplicity
 _atom_site_fract_x
 _atom_site_fract_y
 _atom_site_fract_z
 _atom_site_occupancy
  K  K0  1  0.07560600  0.22038200  0.46587000  1
  K  K1  1  0.93507700  0.80448500  0.54793600  1
  Li  Li0  1  0.52642700  0.48977000  0.41259600  1
  Nd  Nd0  1  0.14608000  0.27389800  0.93819100  1
  Nd  Nd1  1  0.58356400  0.15574700  0.18739700  1
  Nd  Nd2  1  0.42000000  0.82382500  0.79484700  1
  Nd  Nd3  1  0.86947000  0.74485000  0.06562300  1
  Nb  Nb0  1  0.66777900  0.32526100  0.70440000  1
  Nb  Nb1  1  0.32169800  0.68562100  0.28579300  1
  O  O0  1  0.00474100  0.54156000  0.82500200  1
  O  O1  1  0.20751900  0.90816600  0.28978900  1
  O  O2  1  0.25003700  0.99765700  0.99170900  1
  O  O3  1  0.79582100  0.11337900  0.70998100  1
  O  O4  1  0.67631100  0.89698400  0.28428800  1
  O  O5  1  0.76005000  0.99954200  0.98967600  1
  O  O6  1  0.32927500  0.10607600  0.71144200  1
  O  O7  1  0.98888000  0.46804500  0.16329500  1
  O  O8  1  0.68327100  0.35810300  0.49590700  1
  O  O9  1  0.35289700  0.64551400  0.49958000  1
  O  O10  1  0.45134700  0.43917800  0.19881200  1
  O  O11  1  0.53748200  0.52973700  0.83786400  1
loop_
_geom_bond_atom_site_label_1
_geom_bond_atom_site_label_2
_geom_bond_distance
_geom_bond_site_symmetry_2
K0 O4 2.659421 1_445
K0 O9 2.702471 1_555
K0 O3 2.745549 1_455
K0 O1 2.765903 1_545
K0 O8 2.826766 1_455
K0 O6 3.069963 1_555
K1 O6 2.528970 1_665
K1 Li0 2.530355 1_555
K1 O3 2.731035 1_565
K1 O8 2.797341 1_555
K1 O1 2.826124 1_655
K1 O9 3.071617 1_655
K1 O9 3.092827 1_555
K1 O4 3.117501 1_555
Li0 O8 1.817841 1_555
Li0 O9 1.828676 1_555
Li0 O10 1.848931 1_555
Nd0 O5 2.408912 1_445
Nd0 O2 2.424381 1_545
Nd0 O7 2.523715 1_456
Nd0 O6 2.533670 1_555
Nd0 O3 2.555095 1_455
Nd0 O11 2.559976 1_555
Nd0 O10 2.614693 1_556
Nd0 O0 2.741782 1_555
Nd1 O5 2.303452 1_544
Nd1 O2 2.304654 1_544
Nd1 O10 2.418447 1_555
Nd1 O4 2.446805 1_545
Nd1 O1 2.492097 1_545
Nd1 O7 2.525493 1_555
Nd1 O8 2.687597 1_555
Nd2 O5 2.321559 1_555
Nd2 O2 2.337775 1_555
Nd2 O0 2.476386 1_555
Nd2 O6 2.536575 1_565
Nd2 O3 2.554462 1_565
Nd2 O9 2.554647 1_555
Nd2 O11 2.559442 1_555
Nd3 O5 2.382521 1_554
Nd3 O2 2.402349 1_654
Nd3 O4 2.472190 1_555
Nd3 O1 2.485682 1_655
Nd3 O11 2.493939 1_554
Nd3 O0 2.575871 1_654
Nd3 O7 2.655688 1_555
Nd3 O10 2.961821 1_555
Nb0 O8 1.901296 1_555
Nb0 O6 1.948012 1_555
Nb0 O3 1.948404 1_555
Nb0 O0 2.018167 1_655
Nb0 O11 2.036195 1_555
Nb1 O1 1.947121 1_555
Nb1 O4 1.984832 1_555
Nb1 O9 1.990507 1_555
Nb1 O7 2.010386 1_455
Nb1 O10 2.160066 1_555
