# generated using pymatgen
data_LaMgFeSbO6
_symmetry_space_group_name_H-M   'P 1'
_cell_length_a   5.64940300
_cell_length_b   5.42761900
_cell_length_c   9.75177998
_cell_angle_alpha   56.15609158
_cell_angle_beta   90.00000000
_cell_angle_gamma   90.00000000
_symmetry_Int_Tables_number   1
_chemical_formula_structural   LaMgFeSbO6
_chemical_formula_sum   'La2 Mg2 Fe2 Sb2 O12'
_cell_volume   248.35089144
_cell_formula_units_Z   2
loop_
 _symmetry_equiv_pos_site_id
 _symmetry_equiv_pos_as_xyz
  1  'x, y, z'
loop_
 _atom_site_type_symbol
 _atom_site_label
 _atom_site_symmetry_multiplicity
 _atom_site_fract_x
 _atom_site_fract_y
 _atom_site_fract_z
 _atom_site_occupancy
  La  La0  1  0.20524700  0.73417300  0.25085200  1
  La  La1  1  0.79475300  0.73417300  0.75085200  1
  Mg  Mg0  1  0.69263400  0.27410100  0.25598100  1
  Mg  Mg1  1  0.30736600  0.27410100  0.75598100  1
  Fe  Fe0  1  0.75116200  0.00201600  0.99836200  1
  Fe  Fe1  1  0.24883800  0.00201600  0.49836200  1
  Sb  Sb0  1  0.74605700  0.50343000  0.49827700  1
  Sb  Sb1  1  0.25394300  0.50343000  0.99827700  1
  O  O0  1  0.20950100  0.87983000  0.76924500  1
  O  O1  1  0.06170500  0.25628800  0.93850200  1
  O  O2  1  0.04577100  0.60125200  0.57315200  1
  O  O3  1  0.95422900  0.60125200  0.07315200  1
  O  O4  1  0.93829500  0.25628800  0.43850200  1
  O  O5  1  0.79049900  0.87983000  0.26924500  1
  O  O6  1  0.68014300  0.16507000  0.73329900  1
  O  O7  1  0.53115500  0.72074900  0.55948600  1
  O  O8  1  0.51749200  0.36309100  0.92284400  1
  O  O9  1  0.48250800  0.36309100  0.42284400  1
  O  O10  1  0.46884500  0.72074900  0.05948600  1
  O  O11  1  0.31985700  0.16507000  0.23329900  1
loop_
_geom_bond_atom_site_label_1
_geom_bond_atom_site_label_2
_geom_bond_distance
_geom_bond_site_symmetry_2
La0 O11 2.339304 1_565
La0 O9 2.358051 1_555
La0 O10 2.420112 1_555
La0 O5 2.511003 1_455
La0 O3 2.631909 1_455
La0 O4 2.657793 1_455
La0 O1 2.889902 1_564
La0 O2 2.947022 1_555
La1 O6 2.339304 1_565
La1 O8 2.358051 1_555
La1 O7 2.420112 1_555
La1 O0 2.511003 1_655
La1 O2 2.631909 1_655
La1 O1 2.657793 1_655
La1 O4 2.889902 1_565
La1 O3 2.947022 1_556
Mg0 O5 2.143243 1_545
Mg0 O4 2.216263 1_555
Mg0 O11 2.231597 1_555
Mg0 O3 2.233709 1_555
Mg0 O9 2.272823 1_555
Mg0 O10 2.443940 1_555
Mg1 O0 2.143243 1_545
Mg1 O1 2.216263 1_555
Mg1 O6 2.231597 1_555
Mg1 O2 2.233709 1_555
Mg1 O8 2.272823 1_555
Mg1 O7 2.443940 1_555
Fe0 O10 2.053299 1_546
Fe0 O1 2.103786 1_655
Fe0 O8 2.125590 1_555
Fe0 O3 2.193718 1_546
Fe0 O6 2.253337 1_555
Fe0 O5 2.348590 1_546
Fe1 O7 2.053299 1_545
Fe1 O4 2.103786 1_455
Fe1 O9 2.125590 1_555
Fe1 O2 2.193718 1_545
Fe1 O11 2.253337 1_555
Fe1 O0 2.348590 1_545
O0 Sb1 2.035353 1_555
O1 Sb1 2.046834 1_555
O2 Sb0 2.028250 1_455
O3 Sb1 2.028250 1_654
O4 Sb0 2.046834 1_555
O5 Sb0 2.035353 1_555
O6 Sb0 2.018863 1_555
O7 Sb0 2.001436 1_555
O8 Sb1 1.990537 1_555
O9 Sb0 1.990537 1_555
O10 Sb1 2.001436 1_554
O11 Sb1 2.018863 1_554
