# generated using pymatgen
data_Li3MnCoO5
_symmetry_space_group_name_H-M   'P 1'
_cell_length_a   7.86494065
_cell_length_b   7.86494065
_cell_length_c   8.26068378
_cell_angle_alpha   75.56761688
_cell_angle_beta   75.56761688
_cell_angle_gamma   21.34730584
_symmetry_Int_Tables_number   1
_chemical_formula_structural   Li3MnCoO5
_chemical_formula_sum   'Li6 Mn2 Co2 O10'
_cell_volume   179.92639030
_cell_formula_units_Z   2
loop_
 _symmetry_equiv_pos_site_id
 _symmetry_equiv_pos_as_xyz
  1  'x, y, z'
loop_
 _atom_site_type_symbol
 _atom_site_label
 _atom_site_symmetry_multiplicity
 _atom_site_fract_x
 _atom_site_fract_y
 _atom_site_fract_z
 _atom_site_occupancy
  Li  Li0  1  0.69763200  0.69763200  0.90668700  1
  Li  Li1  1  0.91136600  0.91136600  0.27836400  1
  Li  Li2  1  0.08863400  0.08863400  0.72163600  1
  Li  Li3  1  0.30236800  0.30236800  0.09331300  1
  Li  Li4  1  0.50000000  0.50000000  0.50000000  1
  Li  Li5  1  0.50000000  0.50000000  0.00000000  1
  Mn  Mn0  1  0.30091900  0.30091900  0.60351100  1
  Mn  Mn1  1  0.69908100  0.69908100  0.39648900  1
  Co  Co0  1  0.90717700  0.90717700  0.82037800  1
  Co  Co1  1  0.09282300  0.09282300  0.17962200  1
  O  O0  1  0.88521300  0.88521300  0.55466100  1
  O  O1  1  0.10352400  0.10352400  0.95947400  1
  O  O2  1  0.28850200  0.28850200  0.36550300  1
  O  O3  1  0.49531100  0.49531100  0.74334000  1
  O  O4  1  0.69590400  0.69590400  0.17173200  1
  O  O5  1  0.50468900  0.50468900  0.25666000  1
  O  O6  1  0.71149800  0.71149800  0.63449700  1
  O  O7  1  0.89647600  0.89647600  0.04052600  1
  O  O8  1  0.11478700  0.11478700  0.44533900  1
  O  O9  1  0.30409600  0.30409600  0.82826800  1
loop_
_geom_bond_atom_site_label_1
_geom_bond_atom_site_label_2
_geom_bond_distance
_geom_bond_site_symmetry_2
Li0 O1 2.026451 1_565
Li0 O1 2.026451 1_655
Li0 O9 2.170059 1_565
Li0 O9 2.170059 1_655
Li0 O4 2.182831 1_556
Li0 O6 2.203888 1_555
Li1 O5 2.025813 1_655
Li1 O5 2.025813 1_565
Li1 O7 2.035294 1_555
Li1 O0 2.214667 1_555
Li1 O2 2.356614 1_655
Li1 O2 2.356614 1_565
Li2 O3 2.025813 1_545
Li2 O3 2.025813 1_455
Li2 O1 2.035294 1_555
Li2 O8 2.214667 1_555
Li2 O6 2.356614 1_545
Li2 O6 2.356614 1_455
Li3 O7 2.026451 1_545
Li3 O7 2.026451 1_455
Li3 O4 2.170059 1_545
Li3 O4 2.170059 1_455
Li3 O9 2.182831 1_554
Li3 O2 2.203888 1_555
Li4 O3 1.993005 1_555
Li4 O5 1.993005 1_555
Li4 O8 2.251171 1_655
Li4 O8 2.251171 1_565
Li4 O0 2.251171 1_455
Li4 O0 2.251171 1_545
Li5 O1 2.126758 1_654
Li5 O1 2.126758 1_564
Li5 O7 2.126758 1_455
Li5 O7 2.126758 1_545
Li5 O5 2.139719 1_555
Li5 O3 2.139719 1_554
Mn0 O9 1.869705 1_555
Mn0 O0 1.927667 1_545
Mn0 O0 1.927667 1_455
Mn0 O6 1.979554 1_545
Mn0 O6 1.979554 1_455
Mn0 O2 2.023326 1_555
Mn1 O4 1.869705 1_555
Mn1 O8 1.927667 1_655
Mn1 O8 1.927667 1_565
Mn1 O2 1.979554 1_655
Mn1 O2 1.979554 1_565
Mn1 O6 2.023326 1_555
Co0 O7 1.783811 1_556
Co0 O3 1.985748 1_565
Co0 O3 1.985748 1_655
Co0 O9 2.147666 1_655
Co0 O9 2.147666 1_565
Co0 O0 2.304633 1_555
Co1 O1 1.783811 1_554
Co1 O5 1.985748 1_455
Co1 O5 1.985748 1_545
Co1 O4 2.147666 1_545
Co1 O4 2.147666 1_455
Co1 O8 2.304633 1_555
