# generated using pymatgen
data_KMg6Si
_symmetry_space_group_name_H-M   'P 1'
_cell_length_a   7.70922651
_cell_length_b   7.70922651
_cell_length_c   4.89725700
_cell_angle_alpha   90.00000000
_cell_angle_beta   90.00000000
_cell_angle_gamma   132.66363411
_symmetry_Int_Tables_number   1
_chemical_formula_structural   KMg6Si
_chemical_formula_sum   'K1 Mg6 Si1'
_cell_volume   214.02552930
_cell_formula_units_Z   1
loop_
 _symmetry_equiv_pos_site_id
 _symmetry_equiv_pos_as_xyz
  1  'x, y, z'
loop_
 _atom_site_type_symbol
 _atom_site_label
 _atom_site_symmetry_multiplicity
 _atom_site_fract_x
 _atom_site_fract_y
 _atom_site_fract_z
 _atom_site_occupancy
  K  K0  1  0.79994600  0.20005400  0.50000000  1
  Mg  Mg0  1  0.30790300  0.17366800  0.50000000  1
  Mg  Mg1  1  0.82633200  0.69209700  0.50000000  1
  Mg  Mg2  1  0.18355100  0.33115900  0.00000000  1
  Mg  Mg3  1  0.66884100  0.81644900  0.00000000  1
  Mg  Mg4  1  0.63022300  0.36977700  0.00000000  1
  Mg  Mg5  1  0.17442300  0.82557700  0.00000000  1
  Si  Si0  1  0.40879000  0.59121000  0.50000000  1
loop_
_geom_bond_atom_site_label_1
_geom_bond_atom_site_label_2
_geom_bond_distance
_geom_bond_site_symmetry_2
K0 Mg3 3.422236 1_545
K0 Mg3 3.422236 1_546
K0 Mg2 3.422236 1_655
K0 Mg2 3.422236 1_656
K0 Mg4 3.426396 1_556
K0 Mg4 3.426396 1_555
K0 Si0 3.455461 1_545
K0 Si0 3.455461 1_655
K0 Mg0 3.658477 1_555
K0 Mg1 3.658477 1_555
Mg0 Si0 2.751929 1_555
Mg0 Mg4 3.060083 1_556
Mg0 Mg4 3.060083 1_555
Mg0 Mg2 3.156979 1_555
Mg0 Mg2 3.156979 1_556
Mg0 Mg5 3.242398 1_546
Mg0 Mg5 3.242398 1_545
Mg1 Si0 2.751929 1_555
Mg1 Mg4 3.060083 1_556
Mg1 Mg4 3.060083 1_555
Mg1 Mg3 3.156979 1_556
Mg1 Mg3 3.156979 1_555
Mg1 Mg5 3.242398 1_656
Mg1 Mg5 3.242398 1_655
Mg2 Si0 2.883021 1_555
Mg2 Si0 2.883021 1_554
Mg2 Mg3 3.003737 1_555
Mg2 Mg3 3.185835 1_445
Mg2 Mg4 3.249120 1_555
Mg3 Si0 2.883021 1_554
Mg3 Si0 2.883021 1_555
Mg3 Mg4 3.249120 1_555
Mg4 Mg5 3.157102 1_545
Mg4 Mg5 3.157102 1_655
