# generated using pymatgen
data_Li6Mn3CoO10
_symmetry_space_group_name_H-M   'P 1'
_cell_length_a   5.02170200
_cell_length_b   5.08062080
_cell_length_c   7.67803481
_cell_angle_alpha   83.23289861
_cell_angle_beta   72.88959905
_cell_angle_gamma   72.11110905
_symmetry_Int_Tables_number   1
_chemical_formula_structural   Li6Mn3CoO10
_chemical_formula_sum   'Li6 Mn3 Co1 O10'
_cell_volume   178.08955060
_cell_formula_units_Z   1
loop_
 _symmetry_equiv_pos_site_id
 _symmetry_equiv_pos_as_xyz
  1  'x, y, z'
loop_
 _atom_site_type_symbol
 _atom_site_label
 _atom_site_symmetry_multiplicity
 _atom_site_fract_x
 _atom_site_fract_y
 _atom_site_fract_z
 _atom_site_occupancy
  Li  Li0  1  0.08482100  0.50724800  0.80970800  1
  Li  Li1  1  0.71708400  0.49009800  0.59142700  1
  Li  Li2  1  0.30635700  0.50127400  0.39484500  1
  Li  Li3  1  0.90085300  0.50033500  0.19662700  1
  Li  Li4  1  0.49026100  0.49745200  0.00933500  1
  Li  Li5  1  0.39858300  0.00096000  0.20017000  1
  Mn  Mn0  1  0.99090900  0.01400200  0.00542300  1
  Mn  Mn1  1  0.80973800  0.98906300  0.39476000  1
  Mn  Mn2  1  0.59398300  0.00573700  0.80580900  1
  Co  Co0  1  0.21478200  0.98876000  0.58784900  1
  O  O0  1  0.75139400  0.77949800  0.98866400  1
  O  O1  1  0.31870000  0.79125600  0.81100800  1
  O  O2  1  0.97125900  0.76529100  0.58118000  1
  O  O3  1  0.56574300  0.76012500  0.40729500  1
  O  O4  1  0.11706400  0.77933300  0.20071100  1
  O  O5  1  0.47754500  0.20691000  0.58796500  1
  O  O6  1  0.04616700  0.22096100  0.41552500  1
  O  O7  1  0.67963400  0.22169900  0.19920900  1
  O  O8  1  0.22441900  0.24440200  0.00101000  1
  O  O9  1  0.84070400  0.23559400  0.81147900  1
loop_
_geom_bond_atom_site_label_1
_geom_bond_atom_site_label_2
_geom_bond_distance
_geom_bond_site_symmetry_2
Li0 O8 2.000181 1_556
Li0 O0 2.067860 1_455
Li0 O9 2.105479 1_455
Li0 O1 2.124373 1_555
Li0 O2 2.170284 1_455
Li0 O5 2.429848 1_555
Li1 O3 1.998266 1_555
Li1 O6 2.039224 1_655
Li1 O9 2.126298 1_555
Li1 O2 2.145117 1_555
Li1 O5 2.146808 1_555
Li1 O1 2.434861 1_555
Li2 O2 2.080083 1_455
Li2 O3 2.142576 1_555
Li2 O5 2.147541 1_555
Li2 O4 2.152586 1_555
Li2 O6 2.174502 1_555
Li2 O7 2.235591 1_555
Li3 O4 2.040855 1_655
Li3 O7 2.045751 1_555
Li3 O8 2.076784 1_655
Li3 O0 2.154539 1_554
Li3 O3 2.174228 1_555
Li3 O6 2.212488 1_655
Li4 O7 2.123310 1_555
Li4 O8 2.136151 1_555
Li4 O9 2.153968 1_554
Li4 O1 2.176105 1_554
Li4 O0 2.185527 1_554
Li4 O4 2.224631 1_555
Li5 O7 2.052812 1_555
Li5 O4 2.059086 1_545
Li5 O8 2.075980 1_555
Li5 O3 2.104007 1_545
Li5 O0 2.134269 1_544
Li5 O6 2.147975 1_555
Mn0 O8 1.885993 1_655
Mn0 O4 1.935133 1_645
Mn0 O7 1.938775 1_555
Mn0 O9 1.948849 1_554
Mn0 O0 1.972379 1_544
Mn0 O1 2.006573 1_644
Mn1 O3 1.908726 1_555
Mn1 O2 1.931918 1_555
Mn1 O4 1.935945 1_655
Mn1 O7 1.939788 1_565
Mn1 O6 1.959128 1_665
Mn1 O5 2.001224 1_565
Mn2 O0 1.905702 1_545
Mn2 O9 1.957884 1_555
Mn2 O1 1.995683 1_545
Mn2 O5 1.997407 1_555
Mn2 O8 2.137725 1_556
Mn2 O2 2.282169 1_545
Co0 O6 1.880698 1_565
Co0 O2 1.921113 1_455
Co0 O5 1.966958 1_565
Co0 O1 2.003569 1_555
Co0 O3 2.015294 1_555
Co0 O9 2.282970 1_465
