# generated using pymatgen
data_CeSe2
_symmetry_space_group_name_H-M   'P 1'
_cell_length_a   7.64286000
_cell_length_b   7.72798059
_cell_length_c   7.79338496
_cell_angle_alpha   98.64055668
_cell_angle_beta   109.82645180
_cell_angle_gamma   90.10745216
_symmetry_Int_Tables_number   1
_chemical_formula_structural   CeSe2
_chemical_formula_sum   'Ce4 Se8'
_cell_volume   427.41650629
_cell_formula_units_Z   4
loop_
 _symmetry_equiv_pos_site_id
 _symmetry_equiv_pos_as_xyz
  1  'x, y, z'
loop_
 _atom_site_type_symbol
 _atom_site_label
 _atom_site_symmetry_multiplicity
 _atom_site_fract_x
 _atom_site_fract_y
 _atom_site_fract_z
 _atom_site_occupancy
  Ce  Ce0  1  0.96640800  0.99888500  0.95340300  1
  Ce  Ce1  1  0.70580500  0.50818400  0.58604300  1
  Ce  Ce2  1  0.55454200  0.85683900  0.18258400  1
  Ce  Ce3  1  0.11473100  0.09256700  0.53662500  1
  Se  Se0  1  0.74380000  0.70233400  0.94153200  1
  Se  Se1  1  0.51415300  0.51626800  0.21983400  1
  Se  Se2  1  0.99540500  0.31361800  0.79656600  1
  Se  Se3  1  0.21773000  0.87867000  0.26632300  1
  Se  Se4  1  0.81019200  0.16088600  0.22321900  1
  Se  Se5  1  0.28987200  0.93066800  0.84847700  1
  Se  Se6  1  0.80858200  0.86255100  0.55603100  1
  Se  Se7  1  0.41406100  0.31245900  0.58444300  1
loop_
_geom_bond_atom_site_label_1
_geom_bond_atom_site_label_2
_geom_bond_distance
_geom_bond_site_symmetry_2
Ce0 Se0 2.823147 1_555
Ce0 Se3 2.830154 1_656
Ce0 Se5 2.881841 1_655
Ce0 Se4 2.886550 1_566
Ce0 Se2 2.921294 1_565
Ce0 Se6 2.938797 1_555
Ce1 Se7 2.687496 1_555
Ce1 Se1 2.740973 1_555
Ce1 Se2 2.853426 1_555
Ce1 Se0 2.866111 1_555
Ce1 Se6 2.912106 1_555
Ce2 Se1 2.719176 1_555
Ce2 Se5 2.841670 1_554
Ce2 Se3 2.861650 1_555
Ce2 Se0 2.867565 1_554
Ce2 Se6 2.893114 1_555
Ce2 Se4 2.962838 1_565
Ce3 Se7 2.734433 1_555
Ce3 Se3 2.805923 1_545
Ce3 Se5 2.824367 1_545
Ce3 Se2 2.841332 1_455
Ce3 Se4 2.863160 1_455
Ce3 Se6 2.993782 1_445
