# generated using pymatgen
data_EuTh3
_symmetry_space_group_name_H-M   'P 1'
_cell_length_a   7.17656423
_cell_length_b   7.17656423
_cell_length_c   5.93923000
_cell_angle_alpha   90.00000000
_cell_angle_beta   90.00000000
_cell_angle_gamma   120.00000211
_symmetry_Int_Tables_number   1
_chemical_formula_structural   EuTh3
_chemical_formula_sum   'Eu2 Th6'
_cell_volume   264.90729526
_cell_formula_units_Z   2
loop_
 _symmetry_equiv_pos_site_id
 _symmetry_equiv_pos_as_xyz
  1  'x, y, z'
loop_
 _atom_site_type_symbol
 _atom_site_label
 _atom_site_symmetry_multiplicity
 _atom_site_fract_x
 _atom_site_fract_y
 _atom_site_fract_z
 _atom_site_occupancy
  Eu  Eu0  1  0.33333300  0.66666700  0.75000000  1
  Eu  Eu1  1  0.66666700  0.33333300  0.25000000  1
  Th  Th0  1  0.16594500  0.33189000  0.25000000  1
  Th  Th1  1  0.66811000  0.83405500  0.25000000  1
  Th  Th2  1  0.16594500  0.83405500  0.25000000  1
  Th  Th3  1  0.83405500  0.66811000  0.75000000  1
  Th  Th4  1  0.33189000  0.16594500  0.75000000  1
  Th  Th5  1  0.83405500  0.16594500  0.75000000  1
loop_
_geom_bond_atom_site_label_1
_geom_bond_atom_site_label_2
_geom_bond_distance
_geom_bond_site_symmetry_2
Eu0 Th4 3.588290 1_565
Eu0 Th3 3.588290 1_455
Eu0 Th5 3.588293 1_565
Eu0 Th5 3.588293 1_455
Eu0 Th3 3.588297 1_555
Eu0 Th4 3.588297 1_555
Eu0 Th2 3.625985 1_556
Eu0 Th2 3.625985 1_555
Eu0 Th0 3.625989 1_555
Eu0 Th0 3.625989 1_556
Eu0 Th1 3.625989 1_555
Eu0 Th1 3.625989 1_556
Eu1 Th0 3.588290 1_655
Eu1 Th1 3.588290 1_545
Eu1 Th2 3.588293 1_655
Eu1 Th2 3.588293 1_545
Eu1 Th1 3.588297 1_555
Eu1 Th0 3.588297 1_555
Eu1 Th5 3.625985 1_555
Eu1 Th5 3.625985 1_554
Eu1 Th4 3.625989 1_555
Eu1 Th4 3.625989 1_554
Eu1 Th3 3.625989 1_555
Eu1 Th3 3.625989 1_554
Th0 Th1 3.572745 1_445
Th0 Th2 3.572745 1_545
Th0 Th1 3.603819 1_555
Th0 Th2 3.603819 1_555
Th0 Th5 3.615722 1_455
Th0 Th5 3.615722 1_454
Th0 Th4 3.615722 1_555
Th0 Th4 3.615722 1_554
Th1 Th2 3.572745 1_655
Th1 Th2 3.603819 1_555
Th1 Th5 3.615722 1_564
Th1 Th5 3.615722 1_565
Th1 Th3 3.615722 1_555
Th1 Th3 3.615722 1_554
Th2 Th4 3.615722 1_564
Th2 Th4 3.615722 1_565
Th2 Th3 3.615722 1_455
Th2 Th3 3.615722 1_454
Th3 Th4 3.572745 1_665
Th3 Th5 3.572745 1_565
Th3 Th4 3.603819 1_555
Th3 Th5 3.603819 1_555
Th4 Th5 3.572745 1_455
Th4 Th5 3.603819 1_555
