# generated using pymatgen
data_MgSi2
_symmetry_space_group_name_H-M   'P 1'
_cell_length_a   3.42995318
_cell_length_b   10.20966438
_cell_length_c   6.36153331
_cell_angle_alpha   91.27145472
_cell_angle_beta   87.81097575
_cell_angle_gamma   111.30136228
_symmetry_Int_Tables_number   1
_chemical_formula_structural   MgSi2
_chemical_formula_sum   'Mg4 Si8'
_cell_volume   207.39347371
_cell_formula_units_Z   4
loop_
 _symmetry_equiv_pos_site_id
 _symmetry_equiv_pos_as_xyz
  1  'x, y, z'
loop_
 _atom_site_type_symbol
 _atom_site_label
 _atom_site_symmetry_multiplicity
 _atom_site_fract_x
 _atom_site_fract_y
 _atom_site_fract_z
 _atom_site_occupancy
  Mg  Mg0  1  0.25105800  0.99984500  0.04174400  1
  Mg  Mg1  1  0.25144800  0.50015500  0.79158100  1
  Mg  Mg2  1  0.25109700  0.99985700  0.54164000  1
  Mg  Mg3  1  0.25142700  0.50015300  0.29168300  1
  Si  Si0  1  0.94453900  0.19757300  0.29114700  1
  Si  Si1  1  0.55771300  0.80203000  0.29118300  1
  Si  Si2  1  0.94490900  0.69793900  0.54226500  1
  Si  Si3  1  0.94411400  0.19698200  0.79228400  1
  Si  Si4  1  0.55818500  0.30244000  0.54215100  1
  Si  Si5  1  0.55825100  0.80272000  0.79238000  1
  Si  Si6  1  0.94447400  0.69729500  0.04095600  1
  Si  Si7  1  0.55853700  0.30301100  0.04098700  1
loop_
_geom_bond_atom_site_label_1
_geom_bond_atom_site_label_2
_geom_bond_distance
_geom_bond_site_symmetry_2
Mg0 Si6 2.878726 1_455
Mg0 Si7 2.884661 1_565
Mg0 Si3 2.932170 1_564
Mg0 Si1 2.935437 1_455
Mg0 Si5 2.980824 1_454
Mg0 Si0 2.984587 1_565
Mg0 Si5 2.991398 1_554
Mg0 Si0 2.995051 1_465
Mg0 Si3 3.080047 1_464
Mg0 Si1 3.084846 1_555
Mg1 Si5 2.878851 1_555
Mg1 Si3 2.884736 1_455
Mg1 Si7 2.931749 1_456
Mg1 Si2 2.935113 1_555
Mg1 Si6 2.981350 1_556
Mg1 Si4 2.984204 1_455
Mg1 Si6 2.991121 1_456
Mg1 Si4 2.995462 1_555
Mg1 Si7 3.080215 1_556
Mg1 Si2 3.083934 1_455
Mg2 Si2 2.872779 1_455
Mg2 Si4 2.879016 1_565
Mg2 Si5 2.936068 1_455
Mg2 Si0 2.938732 1_565
Mg2 Si3 2.985703 1_565
Mg2 Si1 2.988449 1_455
Mg2 Si3 2.995079 1_465
Mg2 Si1 2.999407 1_555
Mg2 Si5 3.084905 1_555
Mg2 Si0 3.087489 1_465
Mg3 Si1 2.872368 1_555
Mg3 Si0 2.879002 1_455
Mg3 Si6 2.936417 1_555
Mg3 Si4 2.938266 1_455
Mg3 Si7 2.985701 1_455
Mg3 Si2 2.988920 1_555
Mg3 Si7 2.995633 1_555
Mg3 Si2 2.999283 1_455
Mg3 Si6 3.084488 1_455
Mg3 Si4 3.087788 1_555
Si0 Si4 2.499077 1_555
Si0 Si7 2.509865 1_655
Si0 Si4 2.582571 1_655
Si0 Si7 2.591671 1_555
Si1 Si6 2.496176 1_555
Si1 Si2 2.508892 1_455
Si1 Si6 2.578307 1_455
Si1 Si2 2.589833 1_555
Si2 Si5 2.495794 1_555
Si2 Si5 2.578144 1_655
Si3 Si7 2.495664 1_556
Si3 Si4 2.509953 1_655
Si3 Si7 2.576336 1_656
Si3 Si4 2.591514 1_555
Si5 Si6 2.503196 1_456
Si5 Si6 2.585644 1_556
