# generated using pymatgen
data_Na3V5H18O23
_symmetry_space_group_name_H-M   'P 1'
_cell_length_a   8.65585700
_cell_length_b   10.94144171
_cell_length_c   11.83168834
_cell_angle_alpha   105.55435643
_cell_angle_beta   99.06465177
_cell_angle_gamma   101.73005368
_symmetry_Int_Tables_number   1
_chemical_formula_structural   Na3V5H18O23
_chemical_formula_sum   'Na6 V10 H36 O46'
_cell_volume   1029.90921524
_cell_formula_units_Z   2
loop_
 _symmetry_equiv_pos_site_id
 _symmetry_equiv_pos_as_xyz
  1  'x, y, z'
loop_
 _atom_site_type_symbol
 _atom_site_label
 _atom_site_symmetry_multiplicity
 _atom_site_fract_x
 _atom_site_fract_y
 _atom_site_fract_z
 _atom_site_occupancy
  Na  Na0  1  0.02406800  0.25555500  0.30415300  1
  Na  Na1  1  0.97593200  0.74444500  0.69584700  1
  Na  Na2  1  0.77848900  0.14276000  0.48803500  1
  Na  Na3  1  0.22151100  0.85724000  0.51196500  1
  Na  Na4  1  0.95946900  0.76437000  0.97267600  1
  Na  Na5  1  0.04053100  0.23563000  0.02732400  1
  V  V0  1  0.68331400  0.49519900  0.98642200  1
  V  V1  1  0.31668600  0.50480100  0.01357800  1
  V  V2  1  0.45095800  0.57827200  0.79782300  1
  V  V3  1  0.54904200  0.42172800  0.20217700  1
  V  V4  1  0.54314400  0.30795400  0.72544900  1
  V  V5  1  0.45685600  0.69204600  0.27455100  1
  V  V6  1  0.18820000  0.31242000  0.75203400  1
  V  V7  1  0.81180000  0.68758000  0.24796600  1
  V  V8  1  0.41457400  0.22890000  0.93941700  1
  V  V9  1  0.58542600  0.77110000  0.06058300  1
  H  H0  1  0.88368700  0.98083700  0.28606600  1
  H  H1  1  0.11631300  0.01916300  0.71393400  1
  H  H2  1  0.04895000  0.04386200  0.38277500  1
  H  H3  1  0.95105000  0.95613800  0.61722500  1
  H  H4  1  0.16070700  0.04988200  0.16393300  1
  H  H5  1  0.83929300  0.95011800  0.83606700  1
  H  H6  1  0.28332600  0.18199200  0.17912500  1
  H  H7  1  0.71667400  0.81800800  0.82087500  1
  H  H8  1  0.73233000  0.07088300  0.07928200  1
  H  H9  1  0.26767000  0.92911700  0.92071800  1
  H  H10  1  0.73404100  0.21764800  0.09755900  1
  H  H11  1  0.26595900  0.78235200  0.90244100  1
  H  H12  1  0.33579100  0.44831600  0.39879600  1
  H  H13  1  0.66420900  0.55168400  0.60120400  1
  H  H14  1  0.32947900  0.40485100  0.51487300  1
  H  H15  1  0.67052100  0.59514900  0.48512700  1
  H  H16  1  0.92468700  0.41179200  0.52320700  1
  H  H17  1  0.07531300  0.58820800  0.47679300  1
  H  H18  1  0.78272900  0.38157000  0.41505300  1
  H  H19  1  0.21727100  0.61843000  0.58494700  1
  H  H20  1  0.12334400  0.48591000  0.19726800  1
  H  H21  1  0.87665600  0.51409000  0.80273200  1
  H  H22  1  0.94228000  0.45012400  0.20486800  1
  H  H23  1  0.05772000  0.54987600  0.79513200  1
  H  H24  1  0.71428500  0.87946000  0.47955900  1
  H  H25  1  0.28571500  0.12054000  0.52044100  1
  H  H26  1  0.65316300  0.94391600  0.59524700  1
  H  H27  1  0.34683700  0.05608400  0.40475300  1
  H  H28  1  0.51840200  0.98594000  0.27122100  1
  H  H29  1  0.48159800  0.01406000  0.72877900  1
  H  H30  1  0.53270000  0.13784500  0.28894200  1
  H  H31  1  0.46730000  0.86215500  0.71105800  1
  H  H32  1  0.12066200  0.84422200  0.22081800  1
  H  H33  1  0.87933800  0.15577800  0.77918200  1
  H  H34  1  0.26088300  0.85026600  0.15267000  1
  H  H35  1  0.73911700  0.14973400  0.84733000  1
  O  O0  1  0.44331900  0.42018100  0.88858900  1
  O  O1  1  0.55668100  0.57981900  0.11141100  1
  O  O2  1  0.65420300  0.64455700  0.93063500  1
  O  O3  1  0.34579700  0.35544300  0.06936500  1
  O  O4  1  0.62750800  0.35100100  0.04805200  1
  O  O5  1  0.37249200  0.64899900  0.95194800  1
  O  O6  1  0.24194000  0.47785800  0.72769300  1
  O  O7  1  0.75806000  0.52214200  0.27230700  1
  O  O8  1  0.52325200  0.18807800  0.81689600  1
  O  O9  1  0.47674800  0.81192200  0.18310400  1
  O  O10  1  0.73754600  0.41175200  0.85717700  1
  O  O11  1  0.26245400  0.58824800  0.14282300  1
  O  O12  1  0.14092000  0.41469100  0.90758600  1
  O  O13  1  0.85908000  0.58530900  0.09241400  1
  O  O14  1  0.21570300  0.19159600  0.83855900  1
  O  O15  1  0.78429700  0.80840400  0.16144100  1
  O  O16  1  0.32232300  0.25002800  0.65572500  1
  O  O17  1  0.67767700  0.74997200  0.34427500  1
  O  O18  1  0.54501600  0.47305600  0.69821800  1
  O  O19  1  0.45498400  0.52694400  0.30178200  1
  O  O20  1  0.46445000  0.70730900  0.74873000  1
  O  O21  1  0.53555000  0.29269100  0.25127000  1
  O  O22  1  0.62503300  0.23612800  0.62030700  1
  O  O23  1  0.37496700  0.76387200  0.37969300  1
  O  O24  1  0.00390400  0.24295000  0.66975600  1
  O  O25  1  0.99609600  0.75705000  0.33024400  1
  O  O26  1  0.39881500  0.10162800  0.98886600  1
  O  O27  1  0.60118500  0.89837200  0.01113400  1
  O  O28  1  0.94291700  0.05956100  0.35379900  1
  O  O29  1  0.05708300  0.94043900  0.64620100  1
  O  O30  1  0.16754900  0.14193700  0.16688400  1
  O  O31  1  0.83245100  0.85806300  0.83311600  1
  O  O32  1  0.80394700  0.16051100  0.11213000  1
  O  O33  1  0.19605300  0.83948900  0.88787000  1
  O  O34  1  0.26176300  0.41124200  0.44354500  1
  O  O35  1  0.73823700  0.58875800  0.55645500  1
  O  O36  1  0.87051700  0.34672200  0.44573000  1
  O  O37  1  0.12948300  0.65327800  0.55427000  1
  O  O38  1  0.03746300  0.41459700  0.20288600  1
  O  O39  1  0.96253700  0.58540300  0.79711400  1
  O  O40  1  0.74383600  0.95526300  0.55424500  1
  O  O41  1  0.25616400  0.04473700  0.44575500  1
  O  O42  1  0.53089700  0.07175400  0.33167500  1
  O  O43  1  0.46910300  0.92824600  0.66832500  1
  O  O44  1  0.15629100  0.87247400  0.15503200  1
  O  O45  1  0.84370900  0.12752600  0.84496800  1
loop_
_geom_bond_atom_site_label_1
_geom_bond_atom_site_label_2
_geom_bond_distance
_geom_bond_site_symmetry_2
Na0 O38 2.357343 1_555
Na0 O28 2.372810 1_455
Na0 O34 2.419483 1_555
Na0 O30 2.430259 1_555
Na0 O36 2.431456 1_455
Na0 O32 2.537080 1_455
Na1 O39 2.357343 1_555
Na1 O29 2.372810 1_655
Na1 O35 2.419483 1_555
Na1 O31 2.430259 1_555
Na1 O37 2.431456 1_655
Na1 O33 2.537080 1_655
Na2 O40 2.366004 1_545
Na2 O22 2.367815 1_555
Na2 O28 2.416723 1_555
Na2 O36 2.422227 1_555
Na2 O42 2.433507 1_555
Na2 O24 2.485138 1_655
Na3 O41 2.366004 1_565
Na3 O23 2.367815 1_555
Na3 O29 2.416723 1_555
Na3 O37 2.422227 1_555
Na3 O43 2.433507 1_555
Na3 O25 2.485138 1_455
Na4 O44 2.368633 1_656
Na4 O31 2.404228 1_555
Na4 O39 2.450906 1_555
Na4 O33 2.506266 1_655
Na4 O2 2.603001 1_555
Na4 O13 2.790121 1_556
Na4 O15 2.882065 1_556
Na5 O45 2.368633 1_454
Na5 O30 2.404228 1_555
Na5 O38 2.450906 1_555
Na5 O32 2.506266 1_455
Na5 O3 2.603001 1_555
Na5 O12 2.790121 1_554
Na5 O14 2.882065 1_554
H0 O28 0.983763 1_565
H1 O29 0.983763 1_545
H2 O28 0.992948 1_455
H3 O29 0.992948 1_655
H4 O30 0.987644 1_555
H5 O31 0.987644 1_555
H6 O30 0.979283 1_555
H7 O31 0.979283 1_555
H8 O32 0.984645 1_555
H9 O33 0.984645 1_555
H10 O32 0.982564 1_555
H11 O33 0.982564 1_555
H12 O34 0.985830 1_555
H13 O35 0.985830 1_555
H14 O34 0.976277 1_555
H15 O35 0.976277 1_555
H16 O36 0.972556 1_555
H17 O37 0.972556 1_555
H18 O36 0.979622 1_555
H19 O37 0.979622 1_555
H20 O38 0.986602 1_555
H21 O39 0.986602 1_555
H22 O38 0.980746 1_655
H23 O39 0.980746 1_455
H24 O40 0.991785 1_555
H25 O41 0.991785 1_555
H26 O40 0.989650 1_555
H27 O41 0.989650 1_555
H28 O42 0.989473 1_565
H29 O43 0.989473 1_545
H30 O42 0.986294 1_555
H31 O43 0.986294 1_555
H32 O44 0.981030 1_555
H33 O45 0.981030 1_555
H34 O44 0.986524 1_555
H35 O45 0.986524 1_555
O0 V0 2.090095 1_555
O0 V1 2.105882 1_556
O0 V2 2.263137 1_555
O0 V8 2.305250 1_555
O0 V4 2.380333 1_555
O0 V6 2.381707 1_555
O1 V1 2.090095 1_555
O1 V0 2.105882 1_554
O1 V3 2.263137 1_555
O1 V9 2.305250 1_555
O1 V5 2.380333 1_555
O1 V7 2.381707 1_555
O2 V0 1.965518 1_555
O2 V2 2.022173 1_555
O2 V9 2.029097 1_556
O3 V1 1.965518 1_555
O3 V3 2.022173 1_555
O3 V8 2.029097 1_554
O4 V0 1.916351 1_554
O4 V8 2.040932 1_554
O4 V3 2.057346 1_555
O5 V1 1.916351 1_556
O5 V9 2.040932 1_556
O5 V2 2.057346 1_555
O6 V2 1.843563 1_555
O6 V6 1.885556 1_555
O7 V3 1.843563 1_555
O7 V7 1.885556 1_555
O8 V8 1.854488 1_555
O8 V4 1.910134 1_555
O9 V9 1.854488 1_555
O9 V5 1.910134 1_555
O10 V0 1.744726 1_555
O10 V4 1.999439 1_555
O11 V1 1.744726 1_555
O11 V5 1.999439 1_555
O12 V1 1.727780 1_556
O12 V6 2.031232 1_555
O13 V0 1.727780 1_554
O13 V7 2.031232 1_555
O14 V8 1.832937 1_555
O14 V6 1.905086 1_555
O15 V9 1.832937 1_555
O15 V7 1.905086 1_555
O16 V6 1.853155 1_555
O16 V4 1.861678 1_555
O17 V7 1.853155 1_555
O17 V5 1.861678 1_555
O18 V2 1.825598 1_555
O18 V4 1.915523 1_555
O19 V3 1.825598 1_555
O19 V5 1.915523 1_555
O20 V2 1.654840 1_555
O21 V3 1.654840 1_555
O22 V4 1.627150 1_555
O23 V5 1.627150 1_555
O24 V6 1.640436 1_555
O25 V7 1.640436 1_555
O26 V8 1.638575 1_555
O27 V9 1.638575 1_555
