# generated using pymatgen
data_Mg14GaCo
_symmetry_space_group_name_H-M   'P 1'
_cell_length_a   6.23812275
_cell_length_b   6.27555393
_cell_length_c   9.92582884
_cell_angle_alpha   90.00000000
_cell_angle_beta   90.00000000
_cell_angle_gamma   120.19869581
_symmetry_Int_Tables_number   1
_chemical_formula_structural   Mg14GaCo
_chemical_formula_sum   'Mg14 Ga1 Co1'
_cell_volume   335.83841327
_cell_formula_units_Z   1
loop_
 _symmetry_equiv_pos_site_id
 _symmetry_equiv_pos_as_xyz
  1  'x, y, z'
loop_
 _atom_site_type_symbol
 _atom_site_label
 _atom_site_symmetry_multiplicity
 _atom_site_fract_x
 _atom_site_fract_y
 _atom_site_fract_z
 _atom_site_occupancy
  Mg  Mg0  1  0.17031014  0.33515457  0.62500000  1
  Mg  Mg1  1  0.17189890  0.83594895  0.62500000  1
  Mg  Mg2  1  0.69818380  0.34773498  0.12500000  1
  Mg  Mg3  1  0.66317742  0.32940771  0.62500000  1
  Mg  Mg4  1  0.69818380  0.85044782  0.12500000  1
  Mg  Mg5  1  0.66317742  0.83376871  0.62500000  1
  Mg  Mg6  1  0.32085041  0.16773015  0.34870018  1
  Mg  Mg7  1  0.32085041  0.16773015  0.90129982  1
  Mg  Mg8  1  0.32085041  0.65312126  0.34870018  1
  Mg  Mg9  1  0.32085041  0.65312126  0.90129982  1
  Mg  Mg10  1  0.84058936  0.17029518  0.36758286  1
  Mg  Mg11  1  0.84058936  0.17029518  0.88241714  1
  Mg  Mg12  1  0.83221979  0.66611040  0.37705714  1
  Mg  Mg13  1  0.83221979  0.66611040  0.87294286  1
  Ga  Ga0  1  0.15910337  0.82955119  0.12500000  1
  Co  Co0  1  0.14694518  0.32347209  0.12500000  1
loop_
_geom_bond_atom_site_label_1
_geom_bond_atom_site_label_2
_geom_bond_distance
_geom_bond_site_symmetry_2
Mg0 Mg5 3.092864 1_555
Mg0 Mg3 3.092864 1_555
Mg0 Mg10 3.112657 1_455
Mg0 Mg11 3.112657 1_455
Mg0 Mg1 3.137789 1_555
Mg0 Mg1 3.137789 1_545
Mg0 Mg5 3.145570 1_445
Mg0 Mg3 3.145570 1_455
Mg0 Mg7 3.240332 1_555
Mg0 Mg6 3.240332 1_555
Mg0 Mg8 3.240338 1_555
Mg0 Mg9 3.240338 1_555
Mg1 Mg12 3.067685 1_455
Mg1 Mg13 3.067685 1_455
Mg1 Mg3 3.071560 1_565
Mg1 Mg5 3.071561 1_555
Mg1 Mg3 3.166607 1_455
Mg1 Mg5 3.166607 1_455
Mg1 Mg8 3.282315 1_555
Mg1 Mg9 3.282315 1_555
Mg1 Mg6 3.282321 1_565
Mg1 Mg7 3.282321 1_565
Mg3 Mg5 3.110409 1_545
Mg3 Mg5 3.165145 1_555
Mg3 Mg6 3.306260 1_555
Mg3 Mg7 3.306260 1_555
Mg5 Mg8 3.306259 1_555
Mg5 Mg9 3.306259 1_555
Mg10 Mg12 3.139510 1_545
Mg10 Mg12 3.139510 1_555
Mg10 Mg3 3.140382 1_555
Mg10 Mg5 3.140388 1_545
Mg11 Mg13 3.139510 1_545
Mg11 Mg13 3.139510 1_555
Mg11 Mg3 3.140382 1_555
Mg11 Mg5 3.140388 1_545
Mg12 Mg4 3.044633 1_555
Mg12 Mg2 3.044640 1_555
Mg12 Mg5 3.064615 1_555
Mg12 Mg3 3.064622 1_555
Mg12 Mg6 3.102735 1_665
Mg12 Mg8 3.102736 1_655
Mg12 Mg6 3.162322 1_555
Mg12 Mg8 3.162322 1_555
Mg13 Mg4 3.044633 1_556
Mg13 Mg2 3.044640 1_556
Mg13 Mg5 3.064615 1_555
Mg13 Mg3 3.064622 1_555
Mg13 Mg7 3.102735 1_665
Mg13 Mg9 3.102736 1_655
Mg13 Mg7 3.162322 1_555
Mg13 Mg9 3.162322 1_555
Ga0 Mg9 2.880632 1_554
Ga0 Mg8 2.880632 1_555
Ga0 Mg7 2.880639 1_564
Ga0 Mg6 2.880639 1_565
Ga0 Mg2 2.943418 1_455
Ga0 Mg4 2.943418 1_455
Ga0 Mg13 3.060301 1_454
Ga0 Mg12 3.060301 1_455
Ga0 Mg2 3.298835 1_565
Ga0 Mg4 3.298835 1_555
Co0 Mg7 2.851140 1_554
Co0 Mg6 2.851140 1_555
Co0 Mg9 2.851147 1_554
Co0 Mg8 2.851147 1_555
Co0 Mg4 2.879026 1_445
Co0 Mg2 2.879026 1_455
Co0 Mg11 2.919909 1_454
Co0 Mg10 2.919909 1_455
Co0 Ga0 3.138462 1_545
Co0 Ga0 3.138462 1_555
Co0 Mg4 3.364680 1_555
Co0 Mg2 3.364680 1_555
