# generated using pymatgen
data_Tb2CuPt
_symmetry_space_group_name_H-M   'P 1'
_cell_length_a   4.43791562
_cell_length_b   5.50957609
_cell_length_c   7.14214447
_cell_angle_alpha   90.00000000
_cell_angle_beta   90.00000000
_cell_angle_gamma   90.00000000
_symmetry_Int_Tables_number   1
_chemical_formula_structural   Tb2CuPt
_chemical_formula_sum   'Tb4 Cu2 Pt2'
_cell_volume   174.63281576
_cell_formula_units_Z   2
loop_
 _symmetry_equiv_pos_site_id
 _symmetry_equiv_pos_as_xyz
  1  'x, y, z'
loop_
 _atom_site_type_symbol
 _atom_site_label
 _atom_site_symmetry_multiplicity
 _atom_site_fract_x
 _atom_site_fract_y
 _atom_site_fract_z
 _atom_site_occupancy
  Tb  Tb0  1  -0.00000000  0.11692304  0.68403453  1
  Tb  Tb1  1  -0.00000000  0.88307696  0.18403453  1
  Tb  Tb2  1  0.50000000  0.39280807  0.31599492  1
  Tb  Tb3  1  0.50000000  0.60719193  0.81599492  1
  Cu  Cu0  1  0.50000000  0.89007044  0.46323979  1
  Cu  Cu1  1  0.50000000  0.10992956  0.96323979  1
  Pt  Pt0  1  -0.00000000  0.61719448  0.53673176  1
  Pt  Pt1  1  -0.00000000  0.38280552  0.03673176  1
loop_
_geom_bond_atom_site_label_1
_geom_bond_atom_site_label_2
_geom_bond_distance
_geom_bond_site_symmetry_2
Cu0 Pt0 2.731225 1_555
Cu0 Pt0 2.731225 1_655
Cu0 Tb2 2.934610 1_555
Cu0 Tb3 2.962527 1_555
Cu0 Tb2 2.962793 1_565
Cu0 Tb1 2.983587 1_655
Cu0 Tb1 2.983587 1_555
Cu0 Tb0 2.995445 1_565
Cu0 Tb0 2.995445 1_665
Cu1 Pt1 2.731225 1_556
Cu1 Pt1 2.731225 1_656
Cu1 Tb3 2.934610 1_555
Cu1 Tb2 2.962527 1_556
Cu1 Tb3 2.962793 1_545
Cu1 Tb0 2.983587 1_555
Cu1 Tb0 2.983587 1_655
Cu1 Tb1 2.995445 1_546
Cu1 Tb1 2.995445 1_646
Pt0 Tb1 2.913995 1_555
Pt0 Tb0 2.947447 1_565
Pt0 Tb0 2.950241 1_555
Pt0 Tb3 2.984123 1_455
Pt0 Tb3 2.984123 1_555
Pt0 Tb2 2.989583 1_455
Pt0 Tb2 2.989583 1_555
Pt1 Tb0 2.913995 1_554
Pt1 Tb1 2.947447 1_545
Pt1 Tb1 2.950241 1_555
Pt1 Tb2 2.984123 1_455
Pt1 Tb2 2.984123 1_555
Pt1 Tb3 2.989583 1_554
Pt1 Tb3 2.989583 1_454
