# generated using pymatgen
data_BaSr7Fe6(CoO10)2
_symmetry_space_group_name_H-M   'P 1'
_cell_length_a   11.08007514
_cell_length_b   11.46336449
_cell_length_c   17.94244339
_cell_angle_alpha   108.61192448
_cell_angle_beta   107.76847170
_cell_angle_gamma   90.28652315
_symmetry_Int_Tables_number   1
_chemical_formula_structural   BaSr7Fe6(CoO10)2
_chemical_formula_sum   'Ba4 Sr28 Fe24 Co8 O80'
_cell_volume   2043.46513528
_cell_formula_units_Z   4
loop_
 _symmetry_equiv_pos_site_id
 _symmetry_equiv_pos_as_xyz
  1  'x, y, z'
loop_
 _atom_site_type_symbol
 _atom_site_label
 _atom_site_symmetry_multiplicity
 _atom_site_fract_x
 _atom_site_fract_y
 _atom_site_fract_z
 _atom_site_occupancy
  Ba  Ba0  1  0.30867400  0.06293100  0.11477800  1
  Ba  Ba1  1  0.30972700  0.56175900  0.11357900  1
  Ba  Ba2  1  0.80825100  0.06121100  0.11424000  1
  Ba  Ba3  1  0.05613200  0.79977100  0.11373600  1
  Sr  Sr0  1  0.30932800  0.06299300  0.60818400  1
  Sr  Sr1  1  0.30578100  0.56406200  0.60888500  1
  Sr  Sr2  1  0.80252700  0.06227600  0.60823900  1
  Sr  Sr3  1  0.80679700  0.56329800  0.10920000  1
  Sr  Sr4  1  0.80586900  0.56409900  0.60891900  1
  Sr  Sr5  1  0.19837200  0.43801400  0.39196000  1
  Sr  Sr6  1  0.19795400  0.43619300  0.88919300  1
  Sr  Sr7  1  0.20287000  0.93748200  0.39447100  1
  Sr  Sr8  1  0.19951500  0.93575500  0.88881800  1
  Sr  Sr9  1  0.69711600  0.43659500  0.39135700  1
  Sr  Sr10  1  0.69642000  0.43547800  0.88846800  1
  Sr  Sr11  1  0.69537600  0.93868100  0.39314500  1
  Sr  Sr12  1  0.69215300  0.93335000  0.88832300  1
  Sr  Sr13  1  0.05699700  0.29553400  0.10872600  1
  Sr  Sr14  1  0.05561300  0.29396300  0.60924800  1
  Sr  Sr15  1  0.05532600  0.79653500  0.60913300  1
  Sr  Sr16  1  0.55640700  0.29771900  0.10812500  1
  Sr  Sr17  1  0.55634600  0.29084300  0.60820400  1
  Sr  Sr18  1  0.55849500  0.79405100  0.10943100  1
  Sr  Sr19  1  0.55705900  0.79813800  0.60888400  1
  Sr  Sr20  1  0.44804100  0.20480500  0.39527900  1
  Sr  Sr21  1  0.45026200  0.20785900  0.88868200  1
  Sr  Sr22  1  0.44803200  0.70781000  0.39461500  1
  Sr  Sr23  1  0.44721600  0.70436700  0.88853500  1
  Sr  Sr24  1  0.94954900  0.20688100  0.39392900  1
  Sr  Sr25  1  0.94423800  0.20577100  0.88763800  1
  Sr  Sr26  1  0.94911700  0.70431700  0.39279800  1
  Sr  Sr27  1  0.94239000  0.69923300  0.88805600  1
  Fe  Fe0  1  0.00365400  0.99898800  0.49928500  1
  Fe  Fe1  1  0.00470200  0.50077900  0.50128400  1
  Fe  Fe2  1  0.50486900  0.50051100  0.50148300  1
  Fe  Fe3  1  0.25151900  0.24699700  0.99213200  1
  Fe  Fe4  1  0.25589200  0.24955300  0.50085400  1
  Fe  Fe5  1  0.25647300  0.75230500  0.50196800  1
  Fe  Fe6  1  0.75295900  0.24848400  0.49968800  1
  Fe  Fe7  1  0.75254400  0.75106200  0.49877700  1
  Fe  Fe8  1  0.11488900  0.09720100  0.25891800  1
  Fe  Fe9  1  0.10715600  0.08984000  0.74806500  1
  Fe  Fe10  1  0.10611100  0.58895500  0.25242000  1
  Fe  Fe11  1  0.10671500  0.58878700  0.74776400  1
  Fe  Fe12  1  0.61483200  0.09510600  0.25600900  1
  Fe  Fe13  1  0.60643200  0.08882500  0.74715300  1
  Fe  Fe14  1  0.61507400  0.59312900  0.25525000  1
  Fe  Fe15  1  0.60519600  0.58769900  0.74620400  1
  Fe  Fe16  1  0.36056700  0.41020800  0.25380100  1
  Fe  Fe17  1  0.35636400  0.40810100  0.74658000  1
  Fe  Fe18  1  0.36821200  0.91348000  0.25854300  1
  Fe  Fe19  1  0.35620800  0.90910000  0.74720100  1
  Fe  Fe20  1  0.85864800  0.41170700  0.25143000  1
  Fe  Fe21  1  0.85577800  0.40737400  0.74676100  1
  Fe  Fe22  1  0.85920400  0.90724200  0.25633800  1
  Fe  Fe23  1  0.85642100  0.90889800  0.74762500  1
  Co  Co0  1  0.99817700  0.99452600  0.98526600  1
  Co  Co1  1  0.00112800  0.49582700  0.99620100  1
  Co  Co2  1  0.50004500  0.99759100  0.99332000  1
  Co  Co3  1  0.50482400  0.99915200  0.50001300  1
  Co  Co4  1  0.50362000  0.49835800  0.99557200  1
  Co  Co5  1  0.25271500  0.74149500  0.98929400  1
  Co  Co6  1  0.75141800  0.25341600  0.99856200  1
  Co  Co7  1  0.74682500  0.74417500  0.99173000  1
  O  O0  1  0.12537200  0.12280300  0.49321400  1
  O  O1  1  0.12400600  0.12404000  0.98768300  1
  O  O2  1  0.12488900  0.62241400  0.49315700  1
  O  O3  1  0.12966300  0.63032200  0.98830100  1
  O  O4  1  0.62358100  0.12118100  0.49329700  1
  O  O5  1  0.63274900  0.13218700  0.98989800  1
  O  O6  1  0.62516900  0.62227800  0.49251400  1
  O  O7  1  0.62874500  0.62744600  0.99096100  1
  O  O8  1  0.12773000  0.37189000  0.00113500  1
  O  O9  1  0.13210200  0.37951000  0.50903600  1
  O  O10  1  0.11453500  0.88477700  0.99925500  1
  O  O11  1  0.13356700  0.87738000  0.50883500  1
  O  O12  1  0.62991500  0.38497700  0.00682700  1
  O  O13  1  0.63327300  0.37795400  0.50877200  1
  O  O14  1  0.62395400  0.87439000  0.00302700  1
  O  O15  1  0.63125100  0.87894900  0.50865300  1
  O  O16  1  0.37707300  0.11850400  0.49358200  1
  O  O17  1  0.37501700  0.12163500  0.98903400  1
  O  O18  1  0.37466400  0.62045000  0.49311800  1
  O  O19  1  0.37961300  0.61503700  0.98838600  1
  O  O20  1  0.87517300  0.12034600  0.49365400  1
  O  O21  1  0.88195400  0.10636100  0.98823200  1
  O  O22  1  0.87560500  0.61954400  0.49345600  1
  O  O23  1  0.87038100  0.61202600  0.98729500  1
  O  O24  1  0.38021300  0.37425700  0.00133400  1
  O  O25  1  0.38374800  0.38198000  0.51064400  1
  O  O26  1  0.36961200  0.86778600  0.00184600  1
  O  O27  1  0.38447600  0.88131700  0.50879400  1
  O  O28  1  0.87487500  0.36625300  0.00328600  1
  O  O29  1  0.88372300  0.38196200  0.50942200  1
  O  O30  1  0.86676200  0.86445100  0.99919100  1
  O  O31  1  0.88313300  0.88087300  0.51025300  1
  O  O32  1  0.08473200  0.10681700  0.15300100  1
  O  O33  1  0.08214800  0.09329700  0.63969100  1
  O  O34  1  0.07435100  0.58703200  0.14304100  1
  O  O35  1  0.08096800  0.59464900  0.63938500  1
  O  O36  1  0.58307700  0.10630500  0.14966400  1
  O  O37  1  0.57765500  0.08837800  0.63667400  1
  O  O38  1  0.58995200  0.60220700  0.14909100  1
  O  O39  1  0.58027400  0.59437400  0.63801200  1
  O  O40  1  0.44067700  0.40357900  0.36246200  1
  O  O41  1  0.44162400  0.40063000  0.85230100  1
  O  O42  1  0.44560800  0.91015900  0.36866500  1
  O  O43  1  0.43937600  0.90103000  0.85358000  1
  O  O44  1  0.94225300  0.40642600  0.36041800  1
  O  O45  1  0.93945600  0.40062700  0.85277000  1
  O  O46  1  0.94148100  0.90579700  0.36607000  1
  O  O47  1  0.93870700  0.90047200  0.85475400  1
  O  O48  1  0.33418300  0.30807700  0.14242000  1
  O  O49  1  0.32963100  0.29524200  0.63757200  1
  O  O50  1  0.34226500  0.80722200  0.14989000  1
  O  O51  1  0.32991500  0.79656100  0.63782500  1
  O  O52  1  0.83487300  0.30548200  0.14153400  1
  O  O53  1  0.82942300  0.29425200  0.63799700  1
  O  O54  1  0.82923400  0.79630000  0.14798000  1
  O  O55  1  0.82957400  0.79598300  0.63917200  1
  O  O56  1  0.19611000  0.21064900  0.36792600  1
  O  O57  1  0.19128300  0.20281900  0.85661700  1
  O  O58  1  0.19205200  0.70394200  0.36081000  1
  O  O59  1  0.19066400  0.70312700  0.85569000  1
  O  O60  1  0.69912100  0.20687700  0.36592000  1
  O  O61  1  0.68948000  0.20405600  0.85339600  1
  O  O62  1  0.69757000  0.70656200  0.36526600  1
  O  O63  1  0.68749900  0.70198800  0.85383300  1
  O  O64  1  0.44768200  0.06528000  0.26231700  1
  O  O65  1  0.43357100  0.06118100  0.74822500  1
  O  O66  1  0.44602600  0.56265800  0.26108500  1
  O  O67  1  0.43230400  0.56115900  0.74731000  1
  O  O68  1  0.94585300  0.05713600  0.26079700  1
  O  O69  1  0.93354300  0.06074000  0.74821800  1
  O  O70  1  0.93210900  0.56584200  0.25313300  1
  O  O71  1  0.93334200  0.56033900  0.74767500  1
  O  O72  1  0.18556400  0.43830100  0.25161700  1
  O  O73  1  0.18318100  0.43774700  0.74817100  1
  O  O74  1  0.19904500  0.95051700  0.26039900  1
  O  O75  1  0.18332800  0.93813000  0.74854100  1
  O  O76  1  0.68540000  0.43776500  0.25164300  1
  O  O77  1  0.68221000  0.43718300  0.74731300  1
  O  O78  1  0.68612700  0.94078300  0.25285700  1
  O  O79  1  0.68385600  0.93839900  0.74890900  1
loop_
_geom_bond_atom_site_label_1
_geom_bond_atom_site_label_2
_geom_bond_distance
_geom_bond_site_symmetry_2
Ba0 O64 2.616537 1_555
Ba0 O48 2.690710 1_555
Ba0 O26 2.742758 1_545
Ba0 O10 2.761692 1_544
Ba0 O32 2.776892 1_555
Ba0 O17 2.838989 1_554
Ba0 O1 2.839673 1_554
Ba0 O36 2.916806 1_555
Ba0 O50 3.189737 1_545
Ba1 O66 2.613110 1_555
Ba1 O50 2.673650 1_555
Ba1 O24 2.738528 1_555
Ba1 O8 2.746662 1_555
Ba1 O34 2.813573 1_555
Ba1 O19 2.819738 1_554
Ba1 O3 2.838494 1_554
Ba1 O38 2.975065 1_555
Ba1 O48 3.111402 1_555
Ba2 O68 2.621756 1_555
Ba2 O52 2.682541 1_555
Ba2 O14 2.734879 1_545
Ba2 O30 2.761944 1_544
Ba2 O36 2.768932 1_555
Ba2 O21 2.813539 1_554
Ba2 O5 2.819100 1_554
Ba2 O32 2.931408 1_655
Ba2 O54 3.276758 1_545
Ba3 O74 2.635354 1_555
Ba3 O34 2.650120 1_555
Ba3 O30 2.744541 1_454
Ba3 O54 2.767114 1_455
Ba3 O10 2.769499 1_554
Ba3 O3 2.801182 1_554
Ba3 O23 2.829120 1_454
Ba3 O50 3.030853 1_555
Ba3 O32 3.354900 1_565
Fe0 O31 1.991901 1_455
Fe0 O20 1.998470 1_465
Fe0 O0 2.003604 1_565
Fe0 O11 2.016607 1_555
Fe0 O46 2.164867 1_455
Fe0 O33 2.277399 1_565
Fe1 O29 1.975209 1_455
Fe1 O22 1.984499 1_455
Fe1 O9 1.991908 1_555
Fe1 O2 1.992127 1_555
Fe1 O35 2.241158 1_555
Fe1 O44 2.284061 1_455
Fe2 O25 1.983245 1_555
Fe2 O6 2.001681 1_555
Fe2 O18 2.003402 1_555
Fe2 O13 2.009664 1_555
Fe2 O39 2.217209 1_555
Fe2 O40 2.258885 1_555
Fe3 O1 1.956693 1_555
Fe3 O24 1.967358 1_556
Fe3 O17 1.988917 1_555
Fe3 O8 1.991068 1_556
Fe3 O57 2.198663 1_555
Fe3 O48 2.425168 1_556
Fe4 O0 1.988017 1_555
Fe4 O25 1.999667 1_555
Fe4 O16 2.019562 1_555
Fe4 O9 2.031235 1_555
Fe4 O56 2.163327 1_555
Fe4 O49 2.216234 1_555
Fe5 O11 1.983583 1_555
Fe5 O27 1.992760 1_555
Fe5 O18 2.004576 1_555
Fe5 O2 2.013723 1_555
Fe5 O51 2.203931 1_555
Fe5 O58 2.286457 1_555
Fe6 O4 1.992404 1_555
Fe6 O13 1.996277 1_555
Fe6 O20 2.002730 1_555
Fe6 O29 2.030707 1_555
Fe6 O60 2.176355 1_555
Fe6 O53 2.243357 1_555
Fe7 O31 1.987817 1_555
Fe7 O6 1.990073 1_555
Fe7 O15 1.996497 1_555
Fe7 O22 2.037014 1_555
Fe7 O62 2.167031 1_555
Fe7 O55 2.279148 1_555
Fe8 O32 1.865978 1_555
Fe8 O56 1.901836 1_555
Fe8 O74 1.930459 1_545
Fe8 O68 1.939012 1_455
Fe9 O33 1.892050 1_555
Fe9 O57 1.899843 1_555
Fe9 O75 1.938208 1_545
Fe9 O69 1.951688 1_455
Fe10 O34 1.877931 1_555
Fe10 O58 1.909781 1_555
Fe10 O72 1.940313 1_555
Fe10 O70 1.949226 1_455
Fe11 O59 1.897726 1_555
Fe11 O35 1.900611 1_555
Fe11 O73 1.932534 1_555
Fe11 O71 1.946296 1_455
Fe12 O36 1.878333 1_555
Fe12 O60 1.911544 1_555
Fe12 O64 1.925110 1_555
Fe12 O78 1.932404 1_545
Fe13 O61 1.880256 1_555
Fe13 O37 1.907562 1_555
Fe13 O79 1.934791 1_545
Fe13 O65 1.946669 1_555
Fe14 O38 1.876061 1_555
Fe14 O62 1.916064 1_555
Fe14 O76 1.937626 1_555
Fe14 O66 1.943664 1_555
Fe15 O63 1.890918 1_555
Fe15 O39 1.902191 1_555
Fe15 O77 1.931813 1_555
Fe15 O67 1.945230 1_555
Fe16 O48 1.896438 1_555
Fe16 O40 1.906247 1_555
Fe16 O66 1.931291 1_555
Fe16 O72 1.957823 1_555
Fe17 O41 1.873169 1_555
Fe17 O49 1.901138 1_555
Fe17 O67 1.936615 1_555
Fe17 O73 1.957594 1_555
Fe18 O50 1.872316 1_555
Fe18 O42 1.911815 1_555
Fe18 O64 1.918613 1_565
Fe18 O74 1.931764 1_555
Fe19 O43 1.881730 1_555
Fe19 O51 1.905707 1_555
Fe19 O65 1.931168 1_565
Fe19 O75 1.951904 1_555
Fe20 O52 1.894022 1_555
Fe20 O44 1.912148 1_555
Fe20 O70 1.929089 1_555
Fe20 O76 1.945147 1_555
Fe21 O45 1.871286 1_555
Fe21 O53 1.899540 1_555
Fe21 O71 1.942054 1_555
Fe21 O77 1.957395 1_555
Fe22 O54 1.879111 1_555
Fe22 O46 1.906106 1_555
Fe22 O68 1.931201 1_565
Fe22 O78 1.943947 1_555
Fe23 O47 1.893421 1_555
Fe23 O55 1.893566 1_555
Fe23 O69 1.930758 1_565
Fe23 O79 1.949140 1_555
Co0 O21 1.821945 1_565
Co0 O10 1.824351 1_655
Co0 O1 2.012757 1_665
Co0 O47 2.125973 1_555
Co0 O30 2.200936 1_555
Co0 O32 2.717986 1_666
Co1 O23 1.977982 1_455
Co1 O8 2.004615 1_556
Co1 O28 2.094665 1_456
Co1 O3 2.160129 1_555
Co1 O45 2.325369 1_455
Co1 O34 2.370950 1_556
Co2 O14 1.985017 1_556
Co2 O17 1.992857 1_565
Co2 O26 2.141239 1_556
Co2 O5 2.153892 1_565
Co2 O43 2.270661 1_555
Co2 O36 2.539780 1_566
Co3 O27 1.968154 1_555
Co3 O4 1.971986 1_565
Co3 O15 1.976901 1_555
Co3 O16 1.977191 1_565
Co3 O42 2.130769 1_555
Co3 O37 2.212012 1_565
Co4 O12 1.923936 1_556
Co4 O19 1.927135 1_555
Co4 O24 2.016159 1_556
Co4 O7 2.060661 1_555
Co4 O41 2.326233 1_555
Co4 O38 2.491354 1_556
Co5 O26 1.849139 1_556
Co5 O3 1.853830 1_555
Co5 O19 2.024338 1_555
Co5 O59 2.175011 1_555
Co5 O10 2.253577 1_555
Co5 O50 2.591687 1_556
Co6 O28 1.842022 1_556
Co6 O5 1.844816 1_555
Co6 O12 2.026888 1_556
Co6 O21 2.226337 1_555
Co6 O52 2.315441 1_556
Co6 O61 2.353645 1_555
Co7 O30 1.854779 1_555
Co7 O7 1.860685 1_555
Co7 O14 2.029367 1_556
Co7 O23 2.045885 1_555
Co7 O63 2.242337 1_555
Co7 O54 2.532448 1_556
O0 Sr24 2.625678 1_455
O0 Sr7 2.633175 1_545
O0 Sr14 2.677962 1_555
O0 Sr0 2.688936 1_555
O1 Sr25 2.641473 1_455
O1 Sr8 2.642951 1_545
O1 Sr13 2.721436 1_556
O2 Sr26 2.621829 1_455
O2 Sr5 2.626342 1_555
O2 Sr1 2.671354 1_555
O2 Sr15 2.692830 1_555
O3 Sr27 2.609632 1_455
O3 Sr6 2.645578 1_555
O4 Sr11 2.593859 1_545
O4 Sr20 2.608051 1_555
O4 Sr17 2.642095 1_555
O4 Sr2 2.654621 1_555
O5 Sr21 2.630749 1_555
O5 Sr12 2.654370 1_545
O5 Sr16 2.712544 1_556
O6 Sr9 2.625741 1_555
O6 Sr22 2.629328 1_555
O6 Sr4 2.676918 1_555
O6 Sr19 2.698756 1_555
O7 Sr23 2.645095 1_555
O7 Sr10 2.657387 1_555
O7 Sr18 2.684238 1_556
O7 Sr3 2.718337 1_556
O8 Sr25 2.620264 1_454
O8 Sr6 2.660085 1_554
O8 Sr13 2.664978 1_555
O9 Sr1 2.612336 1_555
O9 Sr14 2.638220 1_555
O9 Sr24 2.659760 1_455
O9 Sr5 2.690228 1_555
O10 Sr8 2.650820 1_555
O10 Sr27 2.659085 1_455
O11 Sr15 2.618716 1_555
O11 Sr0 2.629858 1_565
O11 Sr7 2.670904 1_555
O11 Sr26 2.678283 1_455
O12 Sr3 2.599924 1_555
O12 Sr16 2.650126 1_555
O12 Sr10 2.669009 1_554
O12 Sr21 2.686115 1_554
O13 Sr4 2.617951 1_555
O13 Sr17 2.638808 1_555
O13 Sr20 2.669666 1_555
O13 Sr9 2.683150 1_555
O14 Sr23 2.608525 1_554
O14 Sr18 2.641933 1_555
O14 Sr12 2.663730 1_554
O15 Sr2 2.589252 1_565
O15 Sr19 2.593498 1_555
O15 Sr22 2.649389 1_555
O15 Sr11 2.658689 1_555
O16 Sr20 2.580801 1_555
O16 Sr7 2.589122 1_545
O16 Sr17 2.636686 1_555
O16 Sr0 2.639879 1_555
O17 Sr8 2.633200 1_545
O17 Sr21 2.637815 1_555
O17 Sr16 2.695322 1_556
O18 Sr22 2.604977 1_555
O18 Sr5 2.618362 1_555
O18 Sr1 2.671061 1_555
O18 Sr19 2.691426 1_555
O19 Sr23 2.608038 1_555
O19 Sr6 2.620165 1_555
O19 Sr18 2.709908 1_556
O20 Sr24 2.624800 1_555
O20 Sr11 2.631775 1_545
O20 Sr14 2.656000 1_655
O20 Sr2 2.682567 1_555
O21 Sr12 2.637713 1_545
O21 Sr25 2.664172 1_555
O21 Sr13 2.746710 1_656
O22 Sr26 2.622948 1_555
O22 Sr9 2.638244 1_555
O22 Sr4 2.665611 1_555
O22 Sr15 2.671836 1_655
O23 Sr10 2.557272 1_555
O23 Sr27 2.608025 1_555
O23 Sr3 2.703514 1_556
O24 Sr21 2.614888 1_554
O24 Sr16 2.656990 1_555
O24 Sr6 2.660252 1_554
O25 Sr1 2.609406 1_555
O25 Sr17 2.637614 1_555
O25 Sr20 2.673588 1_555
O25 Sr5 2.717139 1_555
O26 Sr8 2.638634 1_554
O26 Sr23 2.652191 1_554
O26 Sr18 2.722882 1_555
O27 Sr0 2.600715 1_565
O27 Sr19 2.608872 1_555
O27 Sr22 2.634859 1_555
O27 Sr7 2.647231 1_555
O28 Sr25 2.613718 1_554
O28 Sr13 2.640757 1_655
O28 Sr10 2.712287 1_554
O28 Sr3 2.726623 1_555
O29 Sr4 2.620912 1_555
O29 Sr14 2.635058 1_655
O29 Sr24 2.671436 1_555
O29 Sr9 2.709481 1_555
O30 Sr27 2.624970 1_555
O30 Sr12 2.644448 1_555
O31 Sr15 2.601879 1_655
O31 Sr2 2.618428 1_565
O31 Sr26 2.702713 1_555
O31 Sr11 2.723364 1_555
O32 Sr13 2.521932 1_555
O33 Sr14 2.527249 1_555
O33 Sr0 2.743777 1_555
O33 Sr2 2.972819 1_455
O34 Sr3 2.831770 1_455
O34 Sr13 3.192188 1_555
O35 Sr15 2.538817 1_555
O35 Sr1 2.710253 1_555
O35 Sr4 2.926200 1_455
O36 Sr16 2.524578 1_555
O37 Sr17 2.528249 1_555
O37 Sr2 2.691425 1_555
O37 Sr0 2.855524 1_555
O38 Sr18 2.513849 1_555
O38 Sr3 2.709342 1_555
O39 Sr19 2.549226 1_555
O39 Sr4 2.707469 1_555
O39 Sr1 2.923592 1_555
O40 Sr20 2.524762 1_555
O40 Sr9 2.729520 1_555
O40 Sr5 2.896269 1_555
O41 Sr21 2.490629 1_555
O41 Sr10 2.693697 1_555
O41 Sr6 2.970394 1_555
O42 Sr22 2.506080 1_555
O42 Sr11 2.667579 1_555
O42 Sr7 2.867426 1_555
O43 Sr23 2.520821 1_555
O43 Sr12 2.673360 1_555
O43 Sr8 2.914955 1_555
O44 Sr24 2.539808 1_555
O44 Sr5 2.717223 1_655
O44 Sr9 2.934668 1_555
O45 Sr25 2.501320 1_555
O45 Sr6 2.733612 1_655
O45 Sr10 2.953215 1_555
O46 Sr26 2.501154 1_555
O46 Sr7 2.783916 1_655
O46 Sr11 2.918180 1_555
O47 Sr27 2.558571 1_555
O47 Sr8 2.764137 1_655
O47 Sr12 2.972780 1_555
O48 Sr16 2.708594 1_555
O48 Sr13 2.936927 1_555
O49 Sr0 2.538169 1_555
O49 Sr17 2.717101 1_555
O49 Sr14 2.920563 1_555
O50 Sr18 2.699079 1_555
O51 Sr1 2.543478 1_555
O51 Sr19 2.721636 1_555
O51 Sr15 2.926697 1_555
O52 Sr13 2.694622 1_655
O52 Sr16 2.953210 1_555
O52 Sr3 3.187705 1_555
O53 Sr2 2.536538 1_555
O53 Sr14 2.708350 1_655
O53 Sr17 2.905258 1_555
O54 Sr3 2.526184 1_555
O54 Sr18 2.863457 1_555
O55 Sr4 2.532684 1_555
O55 Sr15 2.715168 1_655
O55 Sr19 2.901902 1_555
O56 Sr5 2.501013 1_555
O56 Sr20 2.687760 1_555
O56 Sr24 2.910759 1_455
O57 Sr6 2.545115 1_555
O57 Sr21 2.745527 1_555
O57 Sr25 2.953374 1_455
O58 Sr7 2.542992 1_555
O58 Sr22 2.710335 1_555
O58 Sr26 2.918278 1_455
O59 Sr8 2.534609 1_555
O59 Sr23 2.720250 1_555
O59 Sr27 2.982785 1_455
O60 Sr9 2.526438 1_555
O60 Sr24 2.664722 1_555
O60 Sr20 2.986513 1_555
O61 Sr10 2.518428 1_555
O61 Sr25 2.697954 1_555
O61 Sr21 2.904467 1_555
O62 Sr11 2.547445 1_555
O62 Sr26 2.679821 1_555
O62 Sr22 2.967559 1_555
O63 Sr12 2.520164 1_555
O63 Sr27 2.703523 1_555
O63 Sr23 2.911734 1_555
O64 Sr20 2.410001 1_555
O65 Sr0 2.476185 1_555
O65 Sr21 2.494018 1_555
O66 Sr22 2.435518 1_555
O67 Sr1 2.462352 1_555
O67 Sr23 2.495908 1_555
O68 Sr24 2.444692 1_555
O69 Sr25 2.489616 1_555
O69 Sr2 2.493754 1_555
O70 Sr26 2.450439 1_555
O70 Sr3 2.522111 1_555
O71 Sr4 2.473438 1_555
O71 Sr27 2.484709 1_555
O72 Sr5 2.479545 1_555
O72 Sr13 2.519945 1_555
O73 Sr14 2.476205 1_555
O73 Sr6 2.491072 1_555
O74 Sr7 2.445039 1_555
O75 Sr15 2.474452 1_555
O75 Sr8 2.477100 1_555
O76 Sr9 2.474670 1_555
O76 Sr16 2.518525 1_555
O77 Sr17 2.483599 1_555
O77 Sr10 2.495559 1_555
O78 Sr11 2.495641 1_555
O78 Sr18 2.538430 1_555
O79 Sr19 2.472992 1_555
O79 Sr12 2.494204 1_555
