# generated using pymatgen
data_K3Lu(PO4)2
_symmetry_space_group_name_H-M   'P 1'
_cell_length_a   5.64772400
_cell_length_b   7.78535200
_cell_length_c   9.45486395
_cell_angle_alpha   88.05827032
_cell_angle_beta   90.00000000
_cell_angle_gamma   90.00000000
_symmetry_Int_Tables_number   1
_chemical_formula_structural   K3Lu(PO4)2
_chemical_formula_sum   'K6 Lu2 P4 O16'
_cell_volume   415.48711497
_cell_formula_units_Z   2
loop_
 _symmetry_equiv_pos_site_id
 _symmetry_equiv_pos_as_xyz
  1  'x, y, z'
loop_
 _atom_site_type_symbol
 _atom_site_label
 _atom_site_symmetry_multiplicity
 _atom_site_fract_x
 _atom_site_fract_y
 _atom_site_fract_z
 _atom_site_occupancy
  K  K0  1  0.25000000  0.22333600  0.92299000  1
  K  K1  1  0.75000000  0.77666400  0.07701000  1
  K  K2  1  0.25000000  0.68577900  0.57698500  1
  K  K3  1  0.75000000  0.31422100  0.42301500  1
  K  K4  1  0.25000000  0.49971900  0.20716000  1
  K  K5  1  0.75000000  0.50028100  0.79284000  1
  Lu  Lu0  1  0.25000000  0.97554100  0.26574500  1
  Lu  Lu1  1  0.75000000  0.02445900  0.73425500  1
  P  P0  1  0.25000000  0.21574900  0.57165800  1
  P  P1  1  0.75000000  0.78425100  0.42834200  1
  P  P2  1  0.75000000  0.22504400  0.09823200  1
  P  P3  1  0.25000000  0.77495600  0.90176800  1
  O  O0  1  0.25000000  0.05148400  0.48288800  1
  O  O1  1  0.75000000  0.94851600  0.51711200  1
  O  O2  1  0.25000000  0.37470900  0.47208600  1
  O  O3  1  0.75000000  0.62529100  0.52791400  1
  O  O4  1  0.02547800  0.21531300  0.67032700  1
  O  O5  1  0.52547800  0.78468700  0.32967300  1
  O  O6  1  0.97452200  0.78468700  0.32967300  1
  O  O7  1  0.47452200  0.21531300  0.67032700  1
  O  O8  1  0.97646300  0.15299300  0.17565300  1
  O  O9  1  0.47646300  0.84700700  0.82434700  1
  O  O10  1  0.02353700  0.84700700  0.82434700  1
  O  O11  1  0.52353700  0.15299300  0.17565300  1
  O  O12  1  0.75000000  0.16190600  0.94265200  1
  O  O13  1  0.25000000  0.83809400  0.05734800  1
  O  O14  1  0.75000000  0.42227700  0.10054000  1
  O  O15  1  0.25000000  0.57772300  0.89946000  1
loop_
_geom_bond_atom_site_label_1
_geom_bond_atom_site_label_2
_geom_bond_distance
_geom_bond_site_symmetry_2
K0 O4 2.707166 1_555
K0 O7 2.707166 1_555
K0 O15 2.760459 1_555
K0 O12 2.869052 1_455
K0 O12 2.869052 1_555
K0 O11 2.881783 1_556
K0 O8 2.881783 1_456
K1 O5 2.707166 1_555
K1 O6 2.707166 1_555
K1 O14 2.760459 1_555
K1 O13 2.869052 1_555
K1 O13 2.869052 1_655
K1 O10 2.881783 1_654
K1 O9 2.881783 1_554
K2 O2 2.647926 1_555
K2 O5 2.891224 1_555
K2 O6 2.891224 1_455
K2 O3 2.902762 1_455
K2 O3 2.902762 1_555
K2 O0 2.953995 1_565
K2 O10 2.979969 1_555
K2 O9 2.979969 1_555
K2 O15 3.135288 1_555
K3 O3 2.647926 1_555
K3 O7 2.891224 1_555
K3 O4 2.891224 1_655
K3 O2 2.902762 1_555
K3 O2 2.902762 1_655
K3 O1 2.953995 1_545
K3 O11 2.979969 1_555
K3 O8 2.979969 1_555
K3 O14 3.135288 1_555
K4 O2 2.656356 1_555
K4 O13 2.948452 1_555
K4 O15 2.951758 1_554
K4 O6 2.976336 1_455
K4 O5 2.976336 1_555
K4 O14 3.065144 1_455
K4 O14 3.065144 1_555
K4 O11 3.133130 1_555
K4 O8 3.133130 1_455
K5 O3 2.656356 1_555
K5 O12 2.948452 1_555
K5 O14 2.951758 1_556
K5 O7 2.976336 1_555
K5 O4 2.976336 1_655
K5 O15 3.065144 1_555
K5 O15 3.065144 1_655
K5 O9 3.133130 1_555
K5 O10 3.133130 1_655
Lu0 O0 2.155660 1_565
Lu0 O6 2.221004 1_455
Lu0 O5 2.221004 1_555
Lu0 O8 2.222845 1_465
Lu0 O11 2.222845 1_565
Lu0 O13 2.273824 1_555
Lu1 O1 2.155660 1_545
Lu1 O7 2.221004 1_555
Lu1 O4 2.221004 1_655
Lu1 O10 2.222845 1_645
Lu1 O9 2.222845 1_545
Lu1 O12 2.273824 1_555
O0 P0 1.553274 1_555
O1 P1 1.553274 1_555
O2 P0 1.529349 1_555
O3 P1 1.529349 1_555
O4 P0 1.574174 1_555
O5 P1 1.574174 1_555
O6 P1 1.574174 1_555
O7 P0 1.574174 1_555
O8 P2 1.567962 1_555
O9 P3 1.567962 1_555
O10 P3 1.567962 1_555
O11 P2 1.567962 1_555
O12 P2 1.566661 1_556
O13 P3 1.566661 1_554
O14 P2 1.536423 1_555
O15 P3 1.536423 1_555
