# generated using pymatgen
data_Li3Fe(CoO2)4
_symmetry_space_group_name_H-M   'P 1'
_cell_length_a   5.87448225
_cell_length_b   5.87448225
_cell_length_c   5.96575970
_cell_angle_alpha   60.35990012
_cell_angle_beta   60.35990012
_cell_angle_gamma   60.99039884
_symmetry_Int_Tables_number   1
_chemical_formula_structural   Li3Fe(CoO2)4
_chemical_formula_sum   'Li3 Fe1 Co4 O8'
_cell_volume   147.43896521
_cell_formula_units_Z   1
loop_
 _symmetry_equiv_pos_site_id
 _symmetry_equiv_pos_as_xyz
  1  'x, y, z'
loop_
 _atom_site_type_symbol
 _atom_site_label
 _atom_site_symmetry_multiplicity
 _atom_site_fract_x
 _atom_site_fract_y
 _atom_site_fract_z
 _atom_site_occupancy
  Li  Li0  1  0.50000000  0.00000000  0.50000000  1
  Li  Li1  1  0.00000000  0.00000000  0.50000000  1
  Li  Li2  1  0.00000000  0.50000000  0.50000000  1
  Fe  Fe0  1  0.50000000  0.50000000  0.00000000  1
  Co  Co0  1  0.50000000  0.50000000  0.50000000  1
  Co  Co1  1  0.00000000  0.00000000  0.00000000  1
  Co  Co2  1  0.50000000  0.00000000  0.00000000  1
  Co  Co3  1  0.00000000  0.50000000  0.00000000  1
  O  O0  1  0.26205400  0.26205400  0.22675200  1
  O  O1  1  0.74692400  0.27105200  0.22997900  1
  O  O2  1  0.27105200  0.74692400  0.22997900  1
  O  O3  1  0.75162300  0.75162300  0.23352300  1
  O  O4  1  0.24837700  0.24837700  0.76647700  1
  O  O5  1  0.72894800  0.25307600  0.77002100  1
  O  O6  1  0.25307600  0.72894800  0.77002100  1
  O  O7  1  0.73794600  0.73794600  0.77324800  1
loop_
_geom_bond_atom_site_label_1
_geom_bond_atom_site_label_2
_geom_bond_distance
_geom_bond_site_symmetry_2
Li0 O1 2.150906 1_555
Li0 O6 2.150906 1_545
Li0 O7 2.160004 1_545
Li0 O0 2.160004 1_555
Li0 O4 2.172393 1_555
Li0 O3 2.172393 1_545
Li1 O7 2.175161 1_445
Li1 O0 2.175161 1_555
Li1 O5 2.208235 1_455
Li1 O6 2.208235 1_545
Li1 O2 2.208235 1_545
Li1 O1 2.208235 1_455
Li2 O2 2.150906 1_555
Li2 O5 2.150906 1_455
Li2 O7 2.160004 1_455
Li2 O0 2.160004 1_555
Li2 O4 2.172393 1_555
Li2 O3 2.172393 1_455
Fe0 O7 1.972867 1_554
Fe0 O0 1.972867 1_555
Fe0 O1 2.011580 1_555
Fe0 O2 2.011580 1_555
Fe0 O5 2.011580 1_554
Fe0 O6 2.011580 1_554
Co0 O3 2.089933 1_555
Co0 O4 2.089933 1_555
Co0 O5 2.108898 1_555
Co0 O6 2.108898 1_555
Co0 O1 2.108898 1_555
Co0 O2 2.108898 1_555
Co1 O4 2.059726 1_554
Co1 O3 2.059726 1_445
Co1 O2 2.115492 1_545
Co1 O1 2.115492 1_455
Co1 O5 2.115492 1_454
Co1 O6 2.115492 1_544
Co2 O5 1.999556 1_554
Co2 O2 1.999556 1_545
Co2 O3 2.046737 1_545
Co2 O4 2.046737 1_554
Co2 O0 2.063020 1_555
Co2 O7 2.063020 1_544
Co3 O6 1.999556 1_554
Co3 O1 1.999556 1_455
Co3 O3 2.046737 1_455
Co3 O4 2.046737 1_554
Co3 O0 2.063020 1_555
Co3 O7 2.063020 1_454
