# generated using pymatgen
data_CaCuGe
_symmetry_space_group_name_H-M   'P 1'
_cell_length_a   4.25306534
_cell_length_b   4.26160670
_cell_length_c   3.84048000
_cell_angle_alpha   90.00000000
_cell_angle_beta   90.00000000
_cell_angle_gamma   60.06255069
_symmetry_Int_Tables_number   1
_chemical_formula_structural   CaCuGe
_chemical_formula_sum   'Ca1 Cu1 Ge1'
_cell_volume   60.32050275
_cell_formula_units_Z   1
loop_
 _symmetry_equiv_pos_site_id
 _symmetry_equiv_pos_as_xyz
  1  'x, y, z'
loop_
 _atom_site_type_symbol
 _atom_site_label
 _atom_site_symmetry_multiplicity
 _atom_site_fract_x
 _atom_site_fract_y
 _atom_site_fract_z
 _atom_site_occupancy
  Ca  Ca0  1  0.00019400  0.99964500  0.00000000  1
  Cu  Cu0  1  0.66604600  0.66756700  0.50000000  1
  Ge  Ge0  1  0.33365900  0.33278800  0.50000000  1
loop_
_geom_bond_atom_site_label_1
_geom_bond_atom_site_label_2
_geom_bond_distance
_geom_bond_site_symmetry_2
Ca0 Cu0 3.116039 1_554
Ca0 Cu0 3.116039 1_555
Ca0 Cu0 3.117233 1_454
Ca0 Cu0 3.117233 1_455
Ca0 Ge0 3.118025 1_464
Ca0 Ge0 3.118025 1_465
Ca0 Ge0 3.118346 1_564
Ca0 Ge0 3.118346 1_565
Ca0 Ge0 3.122847 1_555
Ca0 Ge0 3.122847 1_554
Ca0 Cu0 3.125950 1_465
Ca0 Cu0 3.125950 1_464
Cu0 Ge0 2.456651 1_565
Cu0 Ge0 2.459057 1_555
Cu0 Ge0 2.460562 1_655
