# generated using pymatgen
data_Na8Al3Ga3Si6(ClO12)2
_symmetry_space_group_name_H-M   'P 1'
_cell_length_a   9.01574726
_cell_length_b   9.01574726
_cell_length_c   9.01574632
_cell_angle_alpha   90.01074797
_cell_angle_beta   90.01074797
_cell_angle_gamma   90.01074898
_symmetry_Int_Tables_number   1
_chemical_formula_structural   Na8Al3Ga3Si6(ClO12)2
_chemical_formula_sum   'Na8 Al3 Ga3 Si6 Cl2 O24'
_cell_volume   732.83316883
_cell_formula_units_Z   1
loop_
 _symmetry_equiv_pos_site_id
 _symmetry_equiv_pos_as_xyz
  1  'x, y, z'
loop_
 _atom_site_type_symbol
 _atom_site_label
 _atom_site_symmetry_multiplicity
 _atom_site_fract_x
 _atom_site_fract_y
 _atom_site_fract_z
 _atom_site_occupancy
  Na  Na0  1  0.32434400  0.32434400  0.32434400  1
  Na  Na1  1  0.32346400  0.67635100  0.67512800  1
  Na  Na2  1  0.67512800  0.32346400  0.67635100  1
  Na  Na3  1  0.67635100  0.67512800  0.32346400  1
  Na  Na4  1  0.17554300  0.82476000  0.17666100  1
  Na  Na5  1  0.82476000  0.17666100  0.17554300  1
  Na  Na6  1  0.82375600  0.82375600  0.82375600  1
  Na  Na7  1  0.17666100  0.17554300  0.82476000  1
  Al  Al0  1  0.50046500  0.99961300  0.75000300  1
  Al  Al1  1  0.99961300  0.75000300  0.50046500  1
  Al  Al2  1  0.75000300  0.50046500  0.99961300  1
  Ga  Ga0  1  0.25000400  0.50041900  0.99981600  1
  Ga  Ga1  1  0.50041900  0.99981600  0.25000400  1
  Ga  Ga2  1  0.99981600  0.25000400  0.50041900  1
  Si  Si0  1  0.25001900  0.99822000  0.50244000  1
  Si  Si1  1  0.99822000  0.50244000  0.25001900  1
  Si  Si2  1  0.50244000  0.25001900  0.99822000  1
  Si  Si3  1  0.99758200  0.50174300  0.75001600  1
  Si  Si4  1  0.50174300  0.75001600  0.99758200  1
  Si  Si5  1  0.75001600  0.99758200  0.50174300  1
  Cl  Cl0  1  0.50010400  0.50010400  0.50010400  1
  Cl  Cl1  1  0.99988400  0.99988400  0.99988400  1
  O  O0  1  0.34500400  0.06854000  0.36335800  1
  O  O1  1  0.06854000  0.36335800  0.34500400  1
  O  O2  1  0.36335800  0.34500400  0.06854000  1
  O  O3  1  0.35351100  0.93461100  0.63823700  1
  O  O4  1  0.06161500  0.63911500  0.64903300  1
  O  O5  1  0.36467900  0.65244300  0.92720000  1
  O  O6  1  0.64903300  0.06161500  0.63911500  1
  O  O7  1  0.92720000  0.36467900  0.65244300  1
  O  O8  1  0.63823700  0.35351100  0.93461100  1
  O  O9  1  0.65244300  0.92720000  0.36467900  1
  O  O10  1  0.93461100  0.63823700  0.35351100  1
  O  O11  1  0.63911500  0.64903300  0.06161500  1
  O  O12  1  0.13549300  0.57262600  0.15243000  1
  O  O13  1  0.14891400  0.86055000  0.43855600  1
  O  O14  1  0.43129900  0.84496100  0.13643800  1
  O  O15  1  0.86055000  0.43855600  0.14891400  1
  O  O16  1  0.84496100  0.13643800  0.43129900  1
  O  O17  1  0.57262600  0.15243000  0.13549300  1
  O  O18  1  0.86207200  0.56556800  0.85341100  1
  O  O19  1  0.85341100  0.86207200  0.56556800  1
  O  O20  1  0.56556800  0.85341100  0.86207200  1
  O  O21  1  0.13643800  0.43129900  0.84496100  1
  O  O22  1  0.15243000  0.13549300  0.57262600  1
  O  O23  1  0.43855600  0.14891400  0.86055000  1
loop_
_geom_bond_atom_site_label_1
_geom_bond_atom_site_label_2
_geom_bond_distance
_geom_bond_site_symmetry_2
Na0 O2 2.340451 1_555
Na0 O0 2.340451 1_555
Na0 O1 2.340451 1_555
Na1 O5 2.312838 1_555
Na1 O3 2.367609 1_555
Na1 O4 2.395981 1_555
Na2 O7 2.312839 1_555
Na2 O8 2.367609 1_555
Na2 O6 2.395981 1_555
Na3 O9 2.312839 1_555
Na3 O10 2.367609 1_555
Na3 O11 2.395981 1_555
Na4 O12 2.311906 1_555
Na4 O14 2.341307 1_555
Na4 O13 2.395178 1_555
Na5 O17 2.311906 1_555
Na5 O16 2.341307 1_555
Na5 O15 2.395178 1_555
Na6 O19 2.368496 1_555
Na6 O20 2.368496 1_555
Na6 O18 2.368496 1_555
Na7 O22 2.311906 1_555
Na7 O21 2.341307 1_555
Na7 O23 2.395178 1_555
Al0 O20 1.761647 1_555
Al0 O6 1.762530 1_565
Al0 O3 1.764414 1_555
Al0 O23 1.765430 1_565
Al1 O19 1.761647 1_555
Al1 O4 1.762530 1_655
Al1 O10 1.764414 1_555
Al1 O13 1.765430 1_655
Al2 O18 1.761647 1_555
Al2 O11 1.762530 1_556
Al2 O8 1.764414 1_555
Al2 O15 1.765430 1_556
Ga0 O5 1.837432 1_555
Ga0 O12 1.839371 1_556
Ga0 O21 1.839772 1_555
Ga0 O2 1.841810 1_556
Ga1 O9 1.837432 1_555
Ga1 O17 1.839371 1_565
Ga1 O14 1.839772 1_555
Ga1 O0 1.841810 1_565
Ga2 O7 1.837432 1_555
Ga2 O22 1.839371 1_655
Ga2 O16 1.839772 1_555
Ga2 O1 1.841810 1_655
Cl0 Na0 2.744106 1_555
Cl0 Na3 2.748100 1_555
Cl0 Na2 2.748100 1_555
Cl0 Na1 2.748100 1_555
Cl1 Na7 2.746270 1_665
Cl1 Na4 2.746270 1_656
Cl1 Na5 2.746270 1_566
Cl1 Na6 2.749852 1_555
O0 Si0 1.645639 1_545
O1 Si1 1.645639 1_455
O2 Si2 1.645639 1_554
O3 Si0 1.642697 1_555
O4 Si3 1.642084 1_455
O5 Si4 1.643970 1_555
O6 Si5 1.642084 1_545
O7 Si3 1.643970 1_555
O8 Si2 1.642697 1_555
O9 Si5 1.643970 1_555
O10 Si1 1.642697 1_555
O11 Si4 1.642084 1_554
O12 Si1 1.645159 1_455
O13 Si0 1.643872 1_555
O14 Si4 1.644210 1_554
O15 Si1 1.643872 1_555
O16 Si5 1.644210 1_545
O17 Si2 1.645159 1_554
O18 Si3 1.641092 1_555
O19 Si5 1.641092 1_555
O20 Si4 1.641092 1_555
O21 Si3 1.644210 1_455
O22 Si0 1.645159 1_545
O23 Si2 1.643872 1_555
