# generated using pymatgen
data_SrNiO3
_symmetry_space_group_name_H-M   'P 1'
_cell_length_a   3.87615556
_cell_length_b   8.72857672
_cell_length_c   7.75437803
_cell_angle_alpha   116.36409367
_cell_angle_beta   89.99240568
_cell_angle_gamma   90.00969472
_symmetry_Int_Tables_number   1
_chemical_formula_structural   SrNiO3
_chemical_formula_sum   'Sr4 Ni4 O12'
_cell_volume   235.06873344
_cell_formula_units_Z   4
loop_
 _symmetry_equiv_pos_site_id
 _symmetry_equiv_pos_as_xyz
  1  'x, y, z'
loop_
 _atom_site_type_symbol
 _atom_site_label
 _atom_site_symmetry_multiplicity
 _atom_site_fract_x
 _atom_site_fract_y
 _atom_site_fract_z
 _atom_site_occupancy
  Sr  Sr0  1  0.50004300  0.00001600  0.99722100  1
  Sr  Sr1  1  0.50000500  0.49996600  0.25015700  1
  Sr  Sr2  1  0.49996000  0.00003500  0.50279500  1
  Sr  Sr3  1  0.49999500  0.49997400  0.74981300  1
  Ni  Ni0  1  0.00000900  0.24726000  0.37363200  1
  Ni  Ni1  1  0.99999800  0.75261500  0.12630000  1
  Ni  Ni2  1  0.99992200  0.75314500  0.62658100  1
  Ni  Ni3  1  0.00005300  0.24676000  0.87339900  1
  O  O0  1  0.50001500  0.24540600  0.37261900  1
  O  O1  1  0.49995100  0.74816800  0.62410600  1
  O  O2  1  0.50004300  0.25186000  0.87589400  1
  O  O3  1  0.49998800  0.75464800  0.12741900  1
  O  O4  1  0.00000600  0.99983900  0.24992700  1
  O  O5  1  0.00005000  0.49651500  0.49819200  1
  O  O6  1  0.99999800  0.99943800  0.74969800  1
  O  O7  1  0.99995200  0.50424800  0.00218400  1
  O  O8  1  0.00000000  0.25632900  0.63994700  1
  O  O9  1  0.00000700  0.74374700  0.86000600  1
  O  O10  1  0.99998500  0.25627700  0.11632800  1
  O  O11  1  0.00002200  0.74375200  0.38378200  1
loop_
_geom_bond_atom_site_label_1
_geom_bond_atom_site_label_2
_geom_bond_distance
_geom_bond_site_symmetry_2
Ni0 O4 1.935010 1_545
Ni0 O0 1.938107 1_455
Ni0 O0 1.938157 1_555
Ni0 O5 1.949353 1_555
Ni0 O8 2.031193 1_555
Ni0 O10 2.031408 1_455
Ni1 O4 1.933470 1_655
Ni1 O3 1.938103 1_655
Ni1 O3 1.938184 1_555
Ni1 O7 1.942409 1_555
Ni1 O9 2.031755 1_654
Ni1 O11 2.032149 1_655
Ni2 O11 1.847808 1_655
Ni2 O9 1.847956 1_655
Ni2 O6 1.926188 1_555
Ni2 O1 1.938351 1_555
Ni2 O1 1.938586 1_655
Ni2 O5 2.007032 1_655
Ni3 O10 1.848373 1_456
Ni3 O8 1.848881 1_555
Ni3 O6 1.934236 1_445
Ni3 O2 1.938444 1_555
Ni3 O2 1.938532 1_455
Ni3 O7 2.013742 1_456
O0 Sr0 2.742976 1_554
O0 Sr2 2.743379 1_555
O0 Sr1 2.777194 1_555
O0 Sr3 2.778523 1_555
O1 Sr3 2.742068 1_555
O1 Sr1 2.742724 1_555
O1 Sr0 2.748571 1_565
O1 Sr2 2.748596 1_565
O2 Sr3 2.743456 1_555
O2 Sr1 2.744177 1_556
O2 Sr2 2.748418 1_555
O2 Sr0 2.748491 1_555
O3 Sr2 2.742846 1_565
O3 Sr0 2.743477 1_564
O3 Sr1 2.779700 1_555
O3 Sr3 2.781059 1_554
O4 Sr2 2.756397 1_465
O4 Sr0 2.756507 1_564
O4 Sr2 2.756511 1_565
O4 Sr0 2.756671 1_464
O5 Sr1 2.739731 1_555
O5 Sr1 2.740346 1_455
O5 Sr3 2.740734 1_455
O5 Sr3 2.740791 1_555
O6 Sr2 2.725636 1_665
O6 Sr0 2.725795 1_565
O6 Sr2 2.726207 1_565
O6 Sr0 2.726403 1_665
O7 Sr1 2.741718 1_555
O7 Sr1 2.742378 1_655
O7 Sr3 2.742651 1_654
O7 Sr3 2.742773 1_554
O8 Sr3 2.719285 1_555
O8 Sr3 2.719665 1_455
O8 Sr2 2.788973 1_455
O8 Sr2 2.789088 1_555
O9 Sr3 2.719965 1_455
O9 Sr3 2.720251 1_555
O9 Sr0 2.788837 1_565
O9 Sr0 2.788973 1_465
O10 Sr1 2.719638 1_655
O10 Sr1 2.719844 1_555
O10 Sr0 2.788501 1_554
O10 Sr0 2.789170 1_654
O11 Sr1 2.720095 1_455
O11 Sr1 2.720318 1_555
O11 Sr2 2.788634 1_565
O11 Sr2 2.789324 1_465
