# generated using pymatgen
data_GdCo5P3
_symmetry_space_group_name_H-M   'P 1'
_cell_length_a   3.65231700
_cell_length_b   10.30404600
_cell_length_c   11.73597100
_cell_angle_alpha   90.00000000
_cell_angle_beta   90.00000000
_cell_angle_gamma   90.00000000
_symmetry_Int_Tables_number   1
_chemical_formula_structural   GdCo5P3
_chemical_formula_sum   'Gd4 Co20 P12'
_cell_volume   441.66733553
_cell_formula_units_Z   4
loop_
 _symmetry_equiv_pos_site_id
 _symmetry_equiv_pos_as_xyz
  1  'x, y, z'
loop_
 _atom_site_type_symbol
 _atom_site_label
 _atom_site_symmetry_multiplicity
 _atom_site_fract_x
 _atom_site_fract_y
 _atom_site_fract_z
 _atom_site_occupancy
  Gd  Gd0  1  0.25000000  0.58307900  0.70273500  1
  Gd  Gd1  1  0.25000000  0.91692100  0.20273500  1
  Gd  Gd2  1  0.75000000  0.41692100  0.29726500  1
  Gd  Gd3  1  0.75000000  0.08307900  0.79726500  1
  Co  Co0  1  0.25000000  0.71565500  0.99072700  1
  Co  Co1  1  0.25000000  0.78434500  0.49072700  1
  Co  Co2  1  0.75000000  0.28434500  0.00927300  1
  Co  Co3  1  0.75000000  0.21565500  0.50927300  1
  Co  Co4  1  0.25000000  0.40634200  0.48814700  1
  Co  Co5  1  0.25000000  0.09365800  0.98814700  1
  Co  Co6  1  0.75000000  0.59365800  0.51185300  1
  Co  Co7  1  0.75000000  0.90634200  0.01185300  1
  Co  Co8  1  0.25000000  0.22086100  0.17573000  1
  Co  Co9  1  0.25000000  0.27913900  0.67573000  1
  Co  Co10  1  0.75000000  0.77913900  0.82427000  1
  Co  Co11  1  0.75000000  0.72086100  0.32427000  1
  Co  Co12  1  0.25000000  0.88222400  0.69773900  1
  Co  Co13  1  0.25000000  0.61777600  0.19773900  1
  Co  Co14  1  0.75000000  0.11777600  0.30226100  1
  Co  Co15  1  0.75000000  0.38222400  0.80226100  1
  Co  Co16  1  0.25000000  0.46774600  0.93229100  1
  Co  Co17  1  0.25000000  0.03225400  0.43229100  1
  Co  Co18  1  0.75000000  0.53225400  0.06770900  1
  Co  Co19  1  0.75000000  0.96774600  0.56770900  1
  P  P0  1  0.25000000  0.41844200  0.11155500  1
  P  P1  1  0.25000000  0.08155800  0.61155500  1
  P  P2  1  0.75000000  0.58155800  0.88844500  1
  P  P3  1  0.75000000  0.91844200  0.38844500  1
  P  P4  1  0.25000000  0.27165600  0.86991600  1
  P  P5  1  0.25000000  0.22834400  0.36991600  1
  P  P6  1  0.75000000  0.72834400  0.13008400  1
  P  P7  1  0.75000000  0.77165600  0.63008400  1
  P  P8  1  0.25000000  0.60273100  0.39146200  1
  P  P9  1  0.25000000  0.89726900  0.89146200  1
  P  P10  1  0.75000000  0.39726900  0.60853800  1
  P  P11  1  0.75000000  0.10273100  0.10853800  1
loop_
_geom_bond_atom_site_label_1
_geom_bond_atom_site_label_2
_geom_bond_distance
_geom_bond_site_symmetry_2
Gd0 P7 2.799552 1_555
Gd0 P7 2.799552 1_455
Gd0 P2 2.843460 1_555
Gd0 P2 2.843460 1_455
Gd0 P10 2.867515 1_555
Gd0 P10 2.867515 1_455
Gd1 P6 2.799552 1_455
Gd1 P6 2.799552 1_555
Gd1 P3 2.843460 1_555
Gd1 P3 2.843460 1_455
Gd1 P11 2.867515 1_565
Gd1 P11 2.867515 1_465
Gd2 P5 2.799552 1_655
Gd2 P5 2.799552 1_555
Gd2 P0 2.843460 1_555
Gd2 P0 2.843460 1_655
Gd2 P8 2.867515 1_555
Gd2 P8 2.867515 1_655
Gd3 P4 2.799552 1_655
Gd3 P4 2.799552 1_555
Gd3 P1 2.843460 1_555
Gd3 P1 2.843460 1_655
Gd3 P9 2.867515 1_545
Gd3 P9 2.867515 1_645
Co0 P9 2.204346 1_555
Co0 P6 2.454949 1_556
Co0 P6 2.454949 1_456
Co0 P2 2.585532 1_455
Co0 P2 2.585532 1_555
Co0 Gd1 3.239076 1_556
Co1 P8 2.204346 1_555
Co1 P7 2.454949 1_455
Co1 P7 2.454949 1_555
Co1 P3 2.585532 1_555
Co1 P3 2.585532 1_455
Co1 Gd0 3.239076 1_555
Co2 P11 2.204346 1_555
Co2 P4 2.454949 1_654
Co2 P4 2.454949 1_554
Co2 P0 2.585532 1_555
Co2 P0 2.585532 1_655
Co2 Gd3 3.239076 1_554
Co3 P10 2.204346 1_555
Co3 P5 2.454949 1_555
Co3 P5 2.454949 1_655
Co3 P1 2.585532 1_555
Co3 P1 2.585532 1_655
Co3 Gd2 3.239076 1_555
Co4 P5 2.299833 1_555
Co4 P10 2.310822 1_555
Co4 P10 2.310822 1_455
Co4 P8 2.320019 1_555
Co4 Gd2 2.892260 1_455
Co4 Gd2 2.892260 1_555
Co4 Gd0 3.107854 1_555
Co5 P4 2.299833 1_555
Co5 P11 2.310822 1_556
Co5 P11 2.310822 1_456
Co5 P9 2.320019 1_545
Co5 Gd3 2.892260 1_455
Co5 Gd3 2.892260 1_555
Co5 Gd1 3.107854 1_546
Co6 P7 2.299833 1_555
Co6 P8 2.310822 1_555
Co6 P8 2.310822 1_655
Co6 P10 2.320019 1_555
Co6 Gd0 2.892260 1_655
Co6 Gd0 2.892260 1_555
Co6 Gd2 3.107854 1_555
Co7 P6 2.299833 1_555
Co7 P9 2.310822 1_654
Co7 P9 2.310822 1_554
Co7 P11 2.320019 1_565
Co7 Gd1 2.892260 1_655
Co7 Gd1 2.892260 1_555
Co7 Gd3 3.107854 1_564
Co8 P0 2.170729 1_555
Co8 P5 2.280265 1_555
Co8 P11 2.332017 1_455
Co8 P11 2.332017 1_555
Co8 Gd2 3.074171 1_455
Co8 Gd2 3.074171 1_555
Co8 Gd1 3.147807 1_545
Co9 P1 2.170729 1_555
Co9 P4 2.280265 1_555
Co9 P10 2.332017 1_455
Co9 P10 2.332017 1_555
Co9 Gd3 3.074171 1_455
Co9 Gd3 3.074171 1_555
Co9 Gd0 3.147807 1_555
Co10 P2 2.170729 1_555
Co10 P7 2.280265 1_555
Co10 P9 2.332017 1_555
Co10 P9 2.332017 1_655
Co10 Gd0 3.074171 1_655
Co10 Gd0 3.074171 1_555
Co10 Gd3 3.147807 1_565
Co11 P3 2.170729 1_555
Co11 P6 2.280265 1_555
Co11 P8 2.332017 1_655
Co11 P8 2.332017 1_555
Co11 Gd1 3.074171 1_655
Co11 Gd1 3.074171 1_555
Co11 Gd2 3.147807 1_555
Co12 P9 2.278807 1_555
Co12 P1 2.289483 1_565
Co12 P7 2.294185 1_455
Co12 P7 2.294185 1_555
Co12 Gd3 2.997079 1_565
Co12 Gd3 2.997079 1_465
Co12 Gd0 3.082961 1_555
Co13 P8 2.278807 1_555
Co13 P0 2.289483 1_555
Co13 P6 2.294185 1_555
Co13 P6 2.294185 1_455
Co13 Gd2 2.997079 1_455
Co13 Gd2 2.997079 1_555
Co13 Gd1 3.082961 1_555
Co14 P11 2.278807 1_555
Co14 P3 2.289483 1_545
Co14 P5 2.294185 1_655
Co14 P5 2.294185 1_555
Co14 Gd1 2.997079 1_545
Co14 Gd1 2.997079 1_645
Co14 Gd2 3.082961 1_555
Co15 P10 2.278807 1_555
Co15 P2 2.289483 1_555
Co15 P4 2.294185 1_555
Co15 P4 2.294185 1_655
Co15 Gd0 2.997079 1_655
Co15 Gd0 2.997079 1_555
Co15 Gd3 3.082961 1_555
Co16 P4 2.149040 1_555
Co16 P0 2.164307 1_556
Co16 P2 2.230454 1_555
Co16 P2 2.230454 1_455
Co16 Gd0 2.944530 1_555
Co17 P5 2.149040 1_555
Co17 P1 2.164307 1_555
Co17 P3 2.230454 1_545
Co17 P3 2.230454 1_445
Co17 Gd1 2.944530 1_545
Co18 P6 2.149040 1_555
Co18 P2 2.164307 1_554
Co18 P0 2.230454 1_555
Co18 P0 2.230454 1_655
Co18 Gd2 2.944530 1_555
Co19 P7 2.149040 1_555
Co19 P3 2.164307 1_555
Co19 P1 2.230454 1_665
Co19 P1 2.230454 1_565
Co19 Gd3 2.944530 1_565
