# generated using pymatgen
data_Cs2CeO3
_symmetry_space_group_name_H-M   'P 1'
_cell_length_a   14.61778800
_cell_length_b   6.89643300
_cell_length_c   7.48297832
_cell_angle_alpha   62.64551859
_cell_angle_beta   90.00000000
_cell_angle_gamma   90.00000000
_symmetry_Int_Tables_number   1
_chemical_formula_structural   Cs2CeO3
_chemical_formula_sum   'Cs8 Ce4 O12'
_cell_volume   670.01111014
_cell_formula_units_Z   4
loop_
 _symmetry_equiv_pos_site_id
 _symmetry_equiv_pos_as_xyz
  1  'x, y, z'
loop_
 _atom_site_type_symbol
 _atom_site_label
 _atom_site_symmetry_multiplicity
 _atom_site_fract_x
 _atom_site_fract_y
 _atom_site_fract_z
 _atom_site_occupancy
  Cs  Cs0  1  0.08291300  0.87573800  0.24448400  1
  Cs  Cs1  1  0.13269600  0.19454900  0.61028500  1
  Cs  Cs2  1  0.58291300  0.12426200  0.75551600  1
  Cs  Cs3  1  0.63269600  0.80545100  0.38971500  1
  Cs  Cs4  1  0.36379300  0.69342900  0.60506100  1
  Cs  Cs5  1  0.41725100  0.37007100  0.24922300  1
  Cs  Cs6  1  0.86379300  0.30657100  0.39493900  1
  Cs  Cs7  1  0.91725100  0.62992900  0.75077700  1
  Ce  Ce0  1  0.34106100  0.01049400  0.97840600  1
  Ce  Ce1  1  0.84106100  0.98950600  0.02159400  1
  Ce  Ce2  1  0.66010000  0.48995700  0.02276300  1
  Ce  Ce3  1  0.16010000  0.51004300  0.97723700  1
  O  O0  1  0.25117600  0.22517500  0.04736900  1
  O  O1  1  0.44566900  0.90798600  0.18413600  1
  O  O2  1  0.36862200  0.16584400  0.67813100  1
  O  O3  1  0.94566900  0.09201400  0.81586400  1
  O  O4  1  0.86862200  0.83415600  0.32186900  1
  O  O5  1  0.75117600  0.77482500  0.95263100  1
  O  O6  1  0.25068100  0.73091700  0.03754900  1
  O  O7  1  0.05551400  0.41029500  0.18233300  1
  O  O8  1  0.13133600  0.65332500  0.67959100  1
  O  O9  1  0.63133600  0.34667500  0.32040900  1
  O  O10  1  0.55551400  0.58970500  0.81766700  1
  O  O11  1  0.75068100  0.26908300  0.96245100  1
loop_
_geom_bond_atom_site_label_1
_geom_bond_atom_site_label_2
_geom_bond_distance
_geom_bond_site_symmetry_2
Cs0 O8 2.977433 1_555
Cs0 O4 3.174470 1_455
Cs0 O0 3.281203 1_565
Cs0 O6 3.291023 1_555
Cs0 O7 3.471605 1_555
Cs0 O3 3.484296 1_464
Cs0 O7 3.520176 1_565
Cs1 O3 3.056333 1_455
Cs1 O7 3.059910 1_555
Cs1 O8 3.433316 1_555
Cs1 O2 3.478250 1_555
Cs1 O8 3.524500 1_545
Cs2 O9 2.977433 1_555
Cs2 O2 3.174470 1_555
Cs2 O5 3.281203 1_545
Cs2 O11 3.291023 1_555
Cs2 O10 3.471605 1_555
Cs2 O1 3.484296 1_546
Cs2 O10 3.520176 1_545
Cs3 O1 3.056333 1_555
Cs3 O10 3.059910 1_555
Cs3 O9 3.433316 1_555
Cs3 O4 3.478250 1_555
Cs3 O9 3.524500 1_565
Cs4 O1 3.043004 1_555
Cs4 O10 3.138648 1_555
Cs4 O2 3.422577 1_555
Cs4 O8 3.433982 1_555
Cs4 O2 3.543369 1_565
Cs5 O2 2.938667 1_555
Cs5 O9 3.166110 1_555
Cs5 O0 3.249710 1_555
Cs5 O6 3.317836 1_555
Cs5 O1 3.462864 1_545
Cs5 O10 3.508917 1_554
Cs5 O1 3.537117 1_555
Cs6 O3 3.043004 1_555
Cs6 O7 3.138648 1_655
Cs6 O4 3.422577 1_555
Cs6 O9 3.433982 1_555
Cs6 O4 3.543369 1_545
Cs7 O4 2.938667 1_555
Cs7 O8 3.166110 1_655
Cs7 O5 3.249710 1_555
Cs7 O11 3.317836 1_555
Cs7 O3 3.462864 1_565
Cs7 O7 3.508917 1_656
Cs7 O3 3.537117 1_555
Ce0 O2 2.036330 1_555
Ce0 O1 2.051305 1_546
Ce0 O6 2.207861 1_546
Ce0 O0 2.210611 1_556
Ce1 O4 2.036330 1_555
Ce1 O3 2.051305 1_564
Ce1 O11 2.207861 1_564
Ce1 O5 2.210611 1_554
Ce2 O9 2.022725 1_555
Ce2 O10 2.048332 1_554
Ce2 O11 2.215614 1_554
Ce2 O5 2.227088 1_554
Ce3 O8 2.022725 1_555
Ce3 O7 2.048332 1_556
Ce3 O6 2.215614 1_556
Ce3 O0 2.227088 1_556
