# generated using pymatgen
data_Fe3SiNi
_symmetry_space_group_name_H-M   'P 1'
_cell_length_a   6.10996700
_cell_length_b   6.10996700
_cell_length_c   6.10996700
_cell_angle_alpha   90.00000000
_cell_angle_beta   90.00000000
_cell_angle_gamma   90.00000000
_symmetry_Int_Tables_number   1
_chemical_formula_structural   Fe3SiNi
_chemical_formula_sum   'Fe12 Si4 Ni4'
_cell_volume   228.09543514
_cell_formula_units_Z   4
loop_
 _symmetry_equiv_pos_site_id
 _symmetry_equiv_pos_as_xyz
  1  'x, y, z'
loop_
 _atom_site_type_symbol
 _atom_site_label
 _atom_site_symmetry_multiplicity
 _atom_site_fract_x
 _atom_site_fract_y
 _atom_site_fract_z
 _atom_site_occupancy
  Fe  Fe0  1  0.12229000  0.20648300  0.45367100  1
  Fe  Fe1  1  0.37771000  0.79351700  0.95367100  1
  Fe  Fe2  1  0.87771000  0.70648300  0.04632900  1
  Fe  Fe3  1  0.45367100  0.12229000  0.20648300  1
  Fe  Fe4  1  0.62229000  0.29351700  0.54632900  1
  Fe  Fe5  1  0.95367100  0.37771000  0.79351700  1
  Fe  Fe6  1  0.04632900  0.87771000  0.70648300  1
  Fe  Fe7  1  0.54632900  0.62229000  0.29351700  1
  Fe  Fe8  1  0.20648300  0.45367100  0.12229000  1
  Fe  Fe9  1  0.70648300  0.04632900  0.87771000  1
  Fe  Fe10  1  0.29351700  0.54632900  0.62229000  1
  Fe  Fe11  1  0.79351700  0.95367100  0.37771000  1
  Si  Si0  1  0.06484700  0.06484700  0.06484700  1
  Si  Si1  1  0.43515300  0.93515300  0.56484700  1
  Si  Si2  1  0.93515300  0.56484700  0.43515300  1
  Si  Si3  1  0.56484700  0.43515300  0.93515300  1
  Ni  Ni0  1  0.68496700  0.68496700  0.68496700  1
  Ni  Ni1  1  0.81503300  0.31503300  0.18496700  1
  Ni  Ni2  1  0.31503300  0.18496700  0.81503300  1
  Ni  Ni3  1  0.18496700  0.81503300  0.31503300  1
loop_
_geom_bond_atom_site_label_1
_geom_bond_atom_site_label_2
_geom_bond_distance
_geom_bond_site_symmetry_2
Fe0 Si2 2.472748 1_455
Fe0 Ni2 2.505796 1_555
Fe0 Fe5 2.543144 1_455
Fe0 Fe10 2.543144 1_555
Fe0 Si0 2.552654 1_555
Fe0 Ni3 2.566055 1_545
Fe0 Fe6 2.576173 1_545
Fe0 Fe11 2.576173 1_445
Fe0 Fe3 2.577825 1_555
Fe0 Fe8 2.577825 1_555
Fe0 Ni1 2.580633 1_455
Fe0 Si1 2.619910 1_545
Fe1 Si3 2.472748 1_555
Fe1 Ni3 2.505796 1_556
Fe1 Fe8 2.543144 1_556
Fe1 Fe7 2.543144 1_556
Fe1 Si1 2.552654 1_555
Fe1 Ni2 2.566055 1_565
Fe1 Fe9 2.576173 1_565
Fe1 Fe3 2.576173 1_566
Fe1 Fe10 2.577825 1_555
Fe1 Fe6 2.577825 1_555
Fe1 Ni0 2.580633 1_555
Fe1 Si0 2.619910 1_566
Fe2 Si0 2.472748 1_665
Fe2 Ni0 2.505796 1_554
Fe2 Fe9 2.543144 1_564
Fe2 Fe6 2.543144 1_654
Fe2 Si2 2.552654 1_555
Fe2 Ni1 2.566055 1_555
Fe2 Fe5 2.576173 1_554
Fe2 Fe8 2.576173 1_655
Fe2 Fe7 2.577825 1_555
Fe2 Ni3 2.580633 1_655
Fe2 Si3 2.619910 1_554
Fe3 Si1 2.472748 1_545
Fe3 Ni1 2.505796 1_555
Fe3 Fe4 2.543144 1_555
Fe3 Si0 2.552654 1_555
Fe3 Ni2 2.566055 1_554
Fe3 Fe9 2.576173 1_554
Fe3 Fe8 2.577825 1_555
Fe3 Ni3 2.580633 1_545
Fe3 Si3 2.619910 1_554
Fe4 Si1 2.472748 1_545
Fe4 Ni1 2.505796 1_555
Fe4 Si3 2.552654 1_555
Fe4 Ni0 2.566055 1_555
Fe4 Fe7 2.576173 1_555
Fe4 Fe5 2.577825 1_555
Fe4 Fe9 2.577825 1_555
Fe4 Ni2 2.580633 1_555
Fe4 Si2 2.619910 1_555
Fe5 Si2 2.472748 1_555
Fe5 Ni2 2.505796 1_655
Fe5 Si3 2.552654 1_555
Fe5 Ni1 2.566055 1_556
Fe5 Fe8 2.576173 1_656
Fe5 Fe9 2.577825 1_555
Fe5 Ni0 2.580633 1_555
Fe5 Si0 2.619910 1_656
Fe6 Si0 2.472748 1_566
Fe6 Ni0 2.505796 1_455
Fe6 Fe9 2.543144 1_465
Fe6 Si1 2.552654 1_555
Fe6 Ni3 2.566055 1_555
Fe6 Ni2 2.580633 1_565
Fe6 Si2 2.619910 1_455
Fe7 Si3 2.472748 1_554
Fe7 Ni3 2.505796 1_555
Fe7 Fe8 2.543144 1_555
Fe7 Si2 2.552654 1_555
Fe7 Ni0 2.566055 1_555
Fe7 Ni1 2.580633 1_555
Fe7 Si1 2.619910 1_555
Fe8 Si3 2.472748 1_554
Fe8 Ni3 2.505796 1_555
Fe8 Si0 2.552654 1_555
Fe8 Ni1 2.566055 1_455
Fe8 Ni2 2.580633 1_554
Fe8 Si2 2.619910 1_455
Fe9 Si0 2.472748 1_656
Fe9 Ni0 2.505796 1_545
Fe9 Si3 2.552654 1_555
Fe9 Ni2 2.566055 1_555
Fe9 Ni1 2.580633 1_556
Fe9 Si1 2.619910 1_545
Fe10 Si2 2.472748 1_455
Fe10 Ni2 2.505796 1_555
Fe10 Fe5 2.543144 1_455
Fe10 Si1 2.552654 1_555
Fe10 Ni0 2.566055 1_555
Fe10 Fe7 2.576173 1_555
Fe10 Fe4 2.576173 1_555
Fe10 Fe6 2.577825 1_555
Fe10 Ni3 2.580633 1_555
Fe10 Si3 2.619910 1_555
Fe11 Si1 2.472748 1_555
Fe11 Ni1 2.505796 1_565
Fe11 Fe3 2.543144 1_565
Fe11 Fe4 2.543144 1_565
Fe11 Si2 2.552654 1_555
Fe11 Ni3 2.566055 1_655
Fe11 Fe6 2.576173 1_655
Fe11 Fe7 2.577825 1_555
Fe11 Fe2 2.577825 1_555
Fe11 Ni0 2.580633 1_555
Fe11 Si0 2.619910 1_665
Ni0 Si3 2.281473 1_555
Ni0 Si2 2.281473 1_555
Ni0 Si1 2.281473 1_555
Ni1 Si2 2.281473 1_555
Ni1 Si3 2.281473 1_554
Ni1 Si0 2.281473 1_655
Ni2 Si3 2.281473 1_555
Ni2 Si1 2.281473 1_545
Ni2 Si0 2.281473 1_556
Ni3 Si1 2.281473 1_555
Ni3 Si2 2.281473 1_455
Ni3 Si0 2.281473 1_565
