# generated using pymatgen
data_LiV4O8
_symmetry_space_group_name_H-M   'P 1'
_cell_length_a   5.24327728
_cell_length_b   5.24519498
_cell_length_c   6.39463159
_cell_angle_alpha   93.56777336
_cell_angle_beta   93.69843415
_cell_angle_gamma   64.87634492
_symmetry_Int_Tables_number   1
_chemical_formula_structural   LiV4O8
_chemical_formula_sum   'Li1 V4 O8'
_cell_volume   158.77745266
_cell_formula_units_Z   1
loop_
 _symmetry_equiv_pos_site_id
 _symmetry_equiv_pos_as_xyz
  1  'x, y, z'
loop_
 _atom_site_type_symbol
 _atom_site_label
 _atom_site_symmetry_multiplicity
 _atom_site_fract_x
 _atom_site_fract_y
 _atom_site_fract_z
 _atom_site_occupancy
  Li  Li0  1  0.50000000  0.50000000  0.00000000  1
  V  V0  1  0.00000000  0.00000000  0.00000000  1
  V  V1  1  0.00000000  0.00000000  0.50000000  1
  V  V2  1  0.33990000  0.33968400  0.28881300  1
  V  V3  1  0.66010000  0.66031600  0.71118700  1
  O  O0  1  0.22997600  0.22979300  0.06082800  1
  O  O1  1  0.22408700  0.22440200  0.49204000  1
  O  O2  1  0.21732300  0.71734200  0.25473400  1
  O  O3  1  0.28131600  0.78360900  0.74493900  1
  O  O4  1  0.71868400  0.21639100  0.25506100  1
  O  O5  1  0.78267700  0.28265800  0.74526600  1
  O  O6  1  0.77002400  0.77020700  0.93917200  1
  O  O7  1  0.77591300  0.77559800  0.50796000  1
loop_
_geom_bond_atom_site_label_1
_geom_bond_atom_site_label_2
_geom_bond_distance
_geom_bond_site_symmetry_2
Li0 O5 2.189837 1_554
Li0 O2 2.189837 1_555
Li0 O4 2.190934 1_555
Li0 O3 2.190934 1_554
Li0 O0 2.451141 1_555
Li0 O6 2.451141 1_554
O0 V2 1.690845 1_555
O0 V0 2.042884 1_555
O1 V2 1.713078 1_555
O1 V1 1.989474 1_555
O2 V2 1.827312 1_555
O2 V1 2.112573 1_565
O2 V0 2.185520 1_565
O3 V3 1.832095 1_555
O3 V1 2.102095 1_565
O3 V0 2.186897 1_566
O4 V2 1.832095 1_555
O4 V1 2.102095 1_655
O4 V0 2.186897 1_655
O5 V3 1.827312 1_555
O5 V1 2.112573 1_655
O5 V0 2.185520 1_656
O6 V3 1.690845 1_555
O6 V0 2.042884 1_666
O7 V3 1.713078 1_555
O7 V1 1.989474 1_665
