# generated using pymatgen
data_Sr11(CN5)2
_symmetry_space_group_name_H-M   'P 1'
_cell_length_a   15.50727200
_cell_length_b   15.50727200
_cell_length_c   3.88755600
_cell_angle_alpha   90.00000000
_cell_angle_beta   90.00000000
_cell_angle_gamma   90.00000000
_symmetry_Int_Tables_number   1
_chemical_formula_structural   Sr11(CN5)2
_chemical_formula_sum   'Sr22 C4 N20'
_cell_volume   934.86191411
_cell_formula_units_Z   2
loop_
 _symmetry_equiv_pos_site_id
 _symmetry_equiv_pos_as_xyz
  1  'x, y, z'
loop_
 _atom_site_type_symbol
 _atom_site_label
 _atom_site_symmetry_multiplicity
 _atom_site_fract_x
 _atom_site_fract_y
 _atom_site_fract_z
 _atom_site_occupancy
  Sr  Sr0  1  0.50000000  0.50000000  0.50000000  1
  Sr  Sr1  1  0.00000000  0.00000000  0.00000000  1
  Sr  Sr2  1  0.97977200  0.79485700  0.50000000  1
  Sr  Sr3  1  0.02022800  0.20514300  0.50000000  1
  Sr  Sr4  1  0.52022800  0.29485700  0.00000000  1
  Sr  Sr5  1  0.47977200  0.70514300  0.00000000  1
  Sr  Sr6  1  0.79485700  0.97977200  0.50000000  1
  Sr  Sr7  1  0.20514300  0.02022800  0.50000000  1
  Sr  Sr8  1  0.29485700  0.52022800  0.00000000  1
  Sr  Sr9  1  0.70514300  0.47977200  0.00000000  1
  Sr  Sr10  1  0.67063400  0.67063400  0.50000000  1
  Sr  Sr11  1  0.32936600  0.32936600  0.50000000  1
  Sr  Sr12  1  0.82936600  0.17063400  0.00000000  1
  Sr  Sr13  1  0.17063400  0.82936600  0.00000000  1
  Sr  Sr14  1  0.38186800  0.88940500  0.50000000  1
  Sr  Sr15  1  0.61813200  0.11059500  0.50000000  1
  Sr  Sr16  1  0.11813300  0.38940500  0.00000000  1
  Sr  Sr17  1  0.88186800  0.61059500  0.00000000  1
  Sr  Sr18  1  0.88940500  0.38186800  0.50000000  1
  Sr  Sr19  1  0.11059500  0.61813200  0.50000000  1
  Sr  Sr20  1  0.38940500  0.11813300  0.00000000  1
  Sr  Sr21  1  0.61059500  0.88186800  0.00000000  1
  C  C0  1  0.31820500  0.68179500  0.50000000  1
  C  C1  1  0.68179500  0.31820500  0.50000000  1
  C  C2  1  0.18179500  0.18179500  0.00000000  1
  C  C3  1  0.81820500  0.81820500  0.00000000  1
  N  N0  1  0.09141200  0.90858800  0.50000000  1
  N  N1  1  0.90858800  0.09141200  0.50000000  1
  N  N2  1  0.40858800  0.40858800  0.00000000  1
  N  N3  1  0.59141200  0.59141200  0.00000000  1
  N  N4  1  0.46787300  0.18969200  0.50000000  1
  N  N5  1  0.53212700  0.81030800  0.50000000  1
  N  N6  1  0.03212700  0.68969200  0.00000000  1
  N  N7  1  0.96787300  0.31030800  0.00000000  1
  N  N8  1  0.18969200  0.46787300  0.50000000  1
  N  N9  1  0.81030800  0.53212700  0.50000000  1
  N  N10  1  0.68969200  0.03212700  0.00000000  1
  N  N11  1  0.31030800  0.96787300  0.00000000  1
  N  N12  1  0.26171100  0.73828900  0.50000000  1
  N  N13  1  0.73828900  0.26171100  0.50000000  1
  N  N14  1  0.23828900  0.23828900  0.00000000  1
  N  N15  1  0.76171100  0.76171100  0.00000000  1
  N  N16  1  0.37514100  0.62485900  0.50000000  1
  N  N17  1  0.62485900  0.37514100  0.50000000  1
  N  N18  1  0.12485900  0.12485900  0.00000000  1
  N  N19  1  0.87514100  0.87514100  0.00000000  1
loop_
_geom_bond_atom_site_label_1
_geom_bond_atom_site_label_2
_geom_bond_distance
_geom_bond_site_symmetry_2
C0 N12 1.238947 1_555
C0 N16 1.248640 1_555
C1 N13 1.238947 1_555
C1 N17 1.248640 1_555
C2 N14 1.238947 1_555
C2 N18 1.248640 1_555
C3 N15 1.238947 1_555
C3 N19 1.248640 1_555
N0 Sr7 2.471366 1_565
N0 Sr2 2.471366 1_455
N0 Sr13 2.607064 1_555
N0 Sr13 2.607064 1_556
N0 Sr1 2.792342 1_566
N0 Sr1 2.792342 1_565
N1 Sr3 2.471366 1_655
N1 Sr6 2.471366 1_545
N1 Sr12 2.607064 1_555
N1 Sr12 2.607064 1_556
N1 Sr1 2.792342 1_655
N1 Sr1 2.792342 1_656
N2 Sr4 2.471366 1_555
N2 Sr8 2.471366 1_555
N2 Sr11 2.607064 1_554
N2 Sr11 2.607064 1_555
N2 Sr0 2.792342 1_555
N2 Sr0 2.792342 1_554
N3 Sr9 2.471366 1_555
N3 Sr5 2.471366 1_555
N3 Sr10 2.607064 1_554
N3 Sr10 2.607064 1_555
N3 Sr0 2.792342 1_555
N3 Sr0 2.792342 1_554
N4 Sr20 2.547614 1_555
N4 Sr20 2.547614 1_556
N4 Sr15 2.633229 1_555
N4 Sr4 2.664021 1_556
N4 Sr4 2.664021 1_555
N4 Sr11 3.050364 1_555
N5 Sr21 2.547620 1_556
N5 Sr21 2.547620 1_555
N5 Sr14 2.633229 1_555
N5 Sr5 2.664021 1_555
N5 Sr5 2.664021 1_556
N5 Sr10 3.050364 1_555
N6 Sr19 2.547620 1_554
N6 Sr19 2.547620 1_555
N6 Sr17 2.633229 1_455
N6 Sr2 2.664021 1_455
N6 Sr2 2.664021 1_454
N6 Sr13 3.050364 1_555
N7 Sr18 2.547620 1_554
N7 Sr18 2.547620 1_555
N7 Sr16 2.633243 1_655
N7 Sr3 2.664021 1_655
N7 Sr3 2.664021 1_654
N7 Sr12 3.050364 1_555
N8 Sr16 2.547614 1_555
N8 Sr16 2.547614 1_556
N8 Sr19 2.633229 1_555
N8 Sr8 2.664021 1_556
N8 Sr8 2.664021 1_555
N8 Sr11 3.050364 1_555
N9 Sr17 2.547620 1_556
N9 Sr17 2.547620 1_555
N9 Sr18 2.633229 1_555
N9 Sr9 2.664021 1_555
N9 Sr9 2.664021 1_556
N9 Sr10 3.050364 1_555
N10 Sr15 2.547620 1_555
N10 Sr15 2.547620 1_554
N10 Sr21 2.633229 1_545
N10 Sr6 2.664021 1_544
N10 Sr6 2.664021 1_545
N10 Sr12 3.050364 1_555
N11 Sr14 2.547620 1_554
N11 Sr14 2.547620 1_555
N11 Sr20 2.633243 1_565
N11 Sr7 2.664021 1_565
N11 Sr7 2.664021 1_564
N11 Sr13 3.050364 1_555
N12 Sr13 2.787072 1_555
N12 Sr13 2.787072 1_556
N12 Sr19 2.993898 1_555
N12 Sr14 2.993898 1_555
N13 Sr12 2.787072 1_555
N13 Sr12 2.787072 1_556
N13 Sr15 2.993898 1_555
N13 Sr18 2.993898 1_555
N14 Sr11 2.787072 1_555
N14 Sr11 2.787072 1_554
N14 Sr16 2.993888 1_555
N14 Sr20 2.993888 1_555
N15 Sr10 2.787072 1_555
N15 Sr10 2.787072 1_554
N15 Sr17 2.993898 1_555
N15 Sr21 2.993898 1_555
N16 Sr0 2.738232 1_555
N16 Sr8 2.821507 1_556
N16 Sr8 2.821507 1_555
N16 Sr5 2.821507 1_555
N16 Sr5 2.821507 1_556
N17 Sr0 2.738232 1_555
N17 Sr4 2.821507 1_556
N17 Sr4 2.821507 1_555
N17 Sr9 2.821507 1_555
N17 Sr9 2.821507 1_556
N18 Sr1 2.738232 1_555
N18 Sr7 2.821507 1_555
N18 Sr3 2.821507 1_554
N18 Sr3 2.821507 1_555
N18 Sr7 2.821507 1_554
N19 Sr1 2.738232 1_665
N19 Sr2 2.821507 1_555
N19 Sr2 2.821507 1_554
N19 Sr6 2.821507 1_554
N19 Sr6 2.821507 1_555
