# generated using pymatgen
data_Li(Mo3S4)2
_symmetry_space_group_name_H-M   'P 1'
_cell_length_a   6.52044706
_cell_length_b   6.52044706
_cell_length_c   6.52044764
_cell_angle_alpha   92.02069997
_cell_angle_beta   92.02069997
_cell_angle_gamma   92.02069439
_symmetry_Int_Tables_number   1
_chemical_formula_structural   Li(Mo3S4)2
_chemical_formula_sum   'Li1 Mo6 S8'
_cell_volume   276.69517877
_cell_formula_units_Z   1
loop_
 _symmetry_equiv_pos_site_id
 _symmetry_equiv_pos_as_xyz
  1  'x, y, z'
loop_
 _atom_site_type_symbol
 _atom_site_label
 _atom_site_symmetry_multiplicity
 _atom_site_fract_x
 _atom_site_fract_y
 _atom_site_fract_z
 _atom_site_occupancy
  Li  Li0  1  0.00000000  0.00000000  0.00000000  1
  Mo  Mo0  1  0.78352700  0.59223900  0.44929900  1
  Mo  Mo1  1  0.44929900  0.78352700  0.59223900  1
  Mo  Mo2  1  0.59223900  0.44929900  0.78352700  1
  Mo  Mo3  1  0.21647300  0.40776100  0.55070100  1
  Mo  Mo4  1  0.55070100  0.21647300  0.40776100  1
  Mo  Mo5  1  0.40776100  0.55070100  0.21647300  1
  S  S0  1  0.77905300  0.77905300  0.77905300  1
  S  S1  1  0.22094700  0.22094700  0.22094700  1
  S  S2  1  0.26959800  0.61649900  0.86728000  1
  S  S3  1  0.86728000  0.26959800  0.61649900  1
  S  S4  1  0.61649900  0.86728000  0.26959800  1
  S  S5  1  0.73040200  0.38350100  0.13272000  1
  S  S6  1  0.13272000  0.73040200  0.38350100  1
  S  S7  1  0.38350100  0.13272000  0.73040200  1
loop_
_geom_bond_atom_site_label_1
_geom_bond_atom_site_label_2
_geom_bond_distance
_geom_bond_site_symmetry_2
Li0 S1 2.405725 1_555
Li0 S0 2.405725 1_444
Mo0 S0 2.435157 1_555
Mo0 S5 2.439622 1_555
Mo0 S4 2.443619 1_555
Mo0 S3 2.472531 1_555
Mo0 S6 2.476167 1_655
Mo1 S0 2.435157 1_555
Mo1 S6 2.439622 1_555
Mo1 S2 2.443619 1_555
Mo1 S4 2.472531 1_555
Mo1 S7 2.476167 1_565
Mo2 S0 2.435157 1_555
Mo2 S7 2.439622 1_555
Mo2 S3 2.443619 1_555
Mo2 S2 2.472531 1_555
Mo2 S5 2.476167 1_556
Mo3 S1 2.435157 1_555
Mo3 S2 2.439622 1_555
Mo3 S7 2.443619 1_555
Mo3 S6 2.472531 1_555
Mo3 S3 2.476167 1_455
Mo4 S1 2.435157 1_555
Mo4 S3 2.439622 1_555
Mo4 S5 2.443619 1_555
Mo4 S7 2.472531 1_555
Mo4 S4 2.476167 1_545
Mo5 S1 2.435157 1_555
Mo5 S4 2.439622 1_555
Mo5 S6 2.443619 1_555
Mo5 S5 2.472531 1_555
Mo5 S2 2.476167 1_554
