# generated using pymatgen
data_Fe4OF6
_symmetry_space_group_name_H-M   'P 1'
_cell_length_a   5.18163590
_cell_length_b   7.10874785
_cell_length_c   7.10792453
_cell_angle_alpha   90.02447579
_cell_angle_beta   89.69845967
_cell_angle_gamma   90.51390528
_symmetry_Int_Tables_number   1
_chemical_formula_structural   Fe4OF6
_chemical_formula_sum   'Fe8 O2 F12'
_cell_volume   261.80581943
_cell_formula_units_Z   2
loop_
 _symmetry_equiv_pos_site_id
 _symmetry_equiv_pos_as_xyz
  1  'x, y, z'
loop_
 _atom_site_type_symbol
 _atom_site_label
 _atom_site_symmetry_multiplicity
 _atom_site_fract_x
 _atom_site_fract_y
 _atom_site_fract_z
 _atom_site_occupancy
  Fe  Fe0  1  0.04792900  0.24766100  0.99953400  1
  Fe  Fe1  1  0.54511600  0.50676700  0.24422100  1
  Fe  Fe2  1  0.95074300  0.74898300  0.50241500  1
  Fe  Fe3  1  0.94959800  0.74970300  0.99857200  1
  Fe  Fe4  1  0.54855100  0.00289600  0.25009100  1
  Fe  Fe5  1  0.04961000  0.24956100  0.49993900  1
  Fe  Fe6  1  0.45115200  0.50073300  0.74856700  1
  Fe  Fe7  1  0.45109300  0.99900300  0.75034800  1
  O  O0  1  0.24988900  0.24844900  0.75015400  1
  O  O1  1  0.74211000  0.74980500  0.25193100  1
  F  F0  1  0.82517000  0.23668800  0.25129600  1
  F  F1  1  0.32703000  0.25806900  0.24573500  1
  F  F2  1  0.18385700  0.75747500  0.74926900  1
  F  F3  1  0.68465900  0.74779700  0.75277000  1
  F  F4  1  0.74847800  0.03967400  0.95683500  1
  F  F5  1  0.74978500  0.03889100  0.54543300  1
  F  F6  1  0.75399200  0.45610000  0.54376600  1
  F  F7  1  0.74761800  0.45351300  0.96037200  1
  F  F8  1  0.24774800  0.54561300  0.03341300  1
  F  F9  1  0.25191100  0.54380800  0.46490300  1
  F  F10  1  0.24695300  0.95807600  0.04654400  1
  F  F11  1  0.24700900  0.96072800  0.45389400  1
loop_
_geom_bond_atom_site_label_1
_geom_bond_atom_site_label_2
_geom_bond_distance
_geom_bond_site_symmetry_2
Fe0 O0 2.053669 1_555
Fe1 O1 1.999685 1_555
Fe2 O1 2.087824 1_555
Fe3 O1 2.092515 1_556
Fe4 O1 2.067750 1_545
Fe5 O0 2.063908 1_555
Fe6 O0 2.066499 1_555
Fe7 O0 2.065076 1_565
F0 Fe5 2.122246 1_655
F0 Fe0 2.125437 1_654
F0 Fe4 2.184962 1_555
F0 Fe1 2.417698 1_555
F1 Fe1 2.089675 1_555
F1 Fe4 2.155626 1_555
F1 Fe0 2.276840 1_554
F1 Fe5 2.303472 1_555
F2 Fe2 2.135953 1_455
F2 Fe3 2.143080 1_455
F2 Fe7 2.196114 1_555
F2 Fe6 2.301006 1_555
F3 Fe6 2.124083 1_555
F3 Fe7 2.166325 1_555
F3 Fe3 2.227602 1_555
F3 Fe2 2.245360 1_555
F4 Fe7 2.151201 1_545
F4 Fe0 2.156196 1_655
F4 Fe4 2.336518 1_556
F4 Fe3 2.337828 1_545
F5 Fe7 2.136825 1_545
F5 Fe5 2.171263 1_655
F5 Fe2 2.336584 1_545
F5 Fe4 2.361666 1_555
F6 Fe5 2.152684 1_655
F6 Fe6 2.160246 1_555
F6 Fe2 2.328068 1_555
F6 Fe1 2.422044 1_555
F7 Fe0 2.164737 1_655
F7 Fe6 2.184733 1_555
F7 Fe1 2.301985 1_556
F7 Fe3 2.359097 1_555
F8 Fe3 2.144176 1_454
F8 Fe1 2.174396 1_555
F8 Fe6 2.301068 1_554
F8 Fe0 2.362006 1_554
F9 Fe2 2.160980 1_455
F9 Fe1 2.195397 1_555
F9 Fe6 2.291948 1_555
F9 Fe5 2.344043 1_555
F10 Fe3 2.156063 1_454
F10 Fe4 2.156725 1_565
F10 Fe0 2.335647 1_564
F10 Fe7 2.368028 1_554
F11 Fe4 2.144257 1_565
F11 Fe2 2.166744 1_455
F11 Fe5 2.324373 1_565
F11 Fe7 2.377035 1_555
