# generated using pymatgen
data_Ce(Co2B)6
_symmetry_space_group_name_H-M   'P 1'
_cell_length_a   5.94845764
_cell_length_b   5.94844403
_cell_length_c   5.94845341
_cell_angle_alpha   104.25127265
_cell_angle_beta   104.25153423
_cell_angle_gamma   104.25136231
_symmetry_Int_Tables_number   1
_chemical_formula_structural   Ce(Co2B)6
_chemical_formula_sum   'Ce1 Co12 B6'
_cell_volume   186.88400538
_cell_formula_units_Z   1
loop_
 _symmetry_equiv_pos_site_id
 _symmetry_equiv_pos_as_xyz
  1  'x, y, z'
loop_
 _atom_site_type_symbol
 _atom_site_label
 _atom_site_symmetry_multiplicity
 _atom_site_fract_x
 _atom_site_fract_y
 _atom_site_fract_z
 _atom_site_occupancy
  Ce  Ce0  1  0.00000099  -0.00000082  0.00000600  1
  Co  Co0  1  0.13384744  0.86615927  0.49999921  1
  Co  Co1  1  0.49999629  0.13383806  0.86615215  1
  Co  Co2  1  0.86615709  0.49999883  0.13384030  1
  Co  Co3  1  0.50000326  0.86616271  0.13384786  1
  Co  Co4  1  0.13384361  0.49999967  0.86615799  1
  Co  Co5  1  0.86615297  0.13384335  0.50000037  1
  Co  Co6  1  0.54261834  0.81495090  0.54261777  1
  Co  Co7  1  0.54261518  0.54261598  0.81494374  1
  Co  Co8  1  0.81494549  0.54261569  0.54261952  1
  Co  Co9  1  0.45738277  0.18505420  0.45737857  1
  Co  Co10  1  0.45738050  0.45738235  0.18505872  1
  Co  Co11  1  0.18505845  0.45738099  0.45738034  1
  B  B0  1  0.77021786  0.32656344  0.77021531  1
  B  B1  1  0.77021795  0.77022383  0.32657513  1
  B  B2  1  0.32657244  0.77022307  0.77022159  1
  B  B3  1  0.22978610  0.67343254  0.22978223  1
  B  B4  1  0.22978052  0.22977888  0.67342170  1
  B  B5  1  0.67342276  0.22977706  0.22978150  1
loop_
_geom_bond_atom_site_label_1
_geom_bond_atom_site_label_2
_geom_bond_distance
_geom_bond_site_symmetry_2
Ce0 Co9 3.069597 1_555
Ce0 Co11 3.069604 1_555
Ce0 Co10 3.069628 1_555
Ce0 Co7 3.069646 1_444
Ce0 Co8 3.069653 1_444
Ce0 Co6 3.069657 1_444
Ce0 Co0 3.228859 1_545
Ce0 Co2 3.228878 1_445
Ce0 Co3 3.228893 1_445
Ce0 Co5 3.228897 1_455
Ce0 Co3 3.228898 1_545
Ce0 Co2 3.228903 1_455
Ce0 Co4 3.228905 1_544
Ce0 Co1 3.228919 1_554
Ce0 Co4 3.228922 1_554
Ce0 Co1 3.228925 1_454
Ce0 Co5 3.228941 1_454
Ce0 Co0 3.228959 1_544
B0 Co2 2.017993 1_556
B0 Co4 2.017995 1_655
B0 Co5 2.022365 1_555
B0 Co1 2.022412 1_555
B0 Co9 2.094500 1_555
B0 Co8 2.102618 1_555
B0 Co7 2.102656 1_555
B0 Ce0 3.033960 1_656
B1 Co5 2.017954 1_565
B1 Co0 2.018006 1_655
B1 Co3 2.022391 1_555
B1 Co2 2.022460 1_555
B1 Co10 2.094524 1_555
B1 Co6 2.102600 1_555
B1 Co8 2.102643 1_555
B1 Ce0 3.033945 1_665
B2 Co1 2.017932 1_565
B2 Co3 2.017993 1_556
B2 Co0 2.022408 1_555
B2 Co4 2.022425 1_555
B2 Co11 2.094540 1_555
B2 Co7 2.102628 1_555
B2 Co6 2.102634 1_555
B2 Ce0 3.033966 1_566
B3 Co4 2.017984 1_554
B3 Co2 2.018010 1_455
B3 Co3 2.022397 1_555
B3 Co0 2.022404 1_555
B3 Co6 2.094485 1_555
B3 Co10 2.102601 1_555
B3 Co11 2.102626 1_555
B3 Ce0 3.033935 1_565
B4 Co0 2.017953 1_545
B4 Co5 2.017993 1_455
B4 Co1 2.022411 1_555
B4 Co4 2.022438 1_555
B4 Co7 2.094498 1_555
B4 Co11 2.102595 1_555
B4 Co9 2.102613 1_555
B4 Ce0 3.034025 1_556
B5 Co3 2.017922 1_545
B5 Co1 2.018004 1_554
B5 Co5 2.022397 1_555
B5 Co2 2.022450 1_555
B5 Co8 2.094515 1_555
B5 Co9 2.102571 1_555
B5 Co10 2.102617 1_555
B5 Ce0 3.033980 1_655
