# generated using pymatgen
data_ErNiC2
_symmetry_space_group_name_H-M   'P 1'
_cell_length_a   3.52330956
_cell_length_b   3.72118575
_cell_length_c   3.72118611
_cell_angle_alpha   106.16552330
_cell_angle_beta   90.00000000
_cell_angle_gamma   90.00000000
_symmetry_Int_Tables_number   1
_chemical_formula_structural   ErNiC2
_chemical_formula_sum   'Er1 Ni1 C2'
_cell_volume   46.85904720
_cell_formula_units_Z   1
loop_
 _symmetry_equiv_pos_site_id
 _symmetry_equiv_pos_as_xyz
  1  'x, y, z'
loop_
 _atom_site_type_symbol
 _atom_site_label
 _atom_site_symmetry_multiplicity
 _atom_site_fract_x
 _atom_site_fract_y
 _atom_site_fract_z
 _atom_site_occupancy
  Er  Er0  1  0.00000000  0.00291914  0.99708086  1
  Ni  Ni0  1  0.50000000  0.61272729  0.38727271  1
  C  C0  1  0.50000000  0.45605443  0.85069985  1
  C  C1  1  0.50000000  0.14930015  0.54394557  1
loop_
_geom_bond_atom_site_label_1
_geom_bond_atom_site_label_2
_geom_bond_distance
_geom_bond_site_symmetry_2
C0 C1 1.371296 1_555
C0 Ni0 1.917933 1_556
C0 Ni0 1.968153 1_555
C0 Er0 2.599010 1_655
C0 Er0 2.599010 1_555
C0 Er0 2.631363 1_665
C0 Er0 2.631363 1_565
C1 Ni0 1.917933 1_545
C1 Ni0 1.968153 1_555
C1 Er0 2.599010 1_555
C1 Er0 2.599010 1_655
C1 Er0 2.631363 1_654
C1 Er0 2.631363 1_554
