# generated using pymatgen
data_Li7Mn2(CoO4)3
_symmetry_space_group_name_H-M   'P 1'
_cell_length_a   5.15539500
_cell_length_b   5.78801572
_cell_length_c   7.68244519
_cell_angle_alpha   100.48256457
_cell_angle_beta   108.57875172
_cell_angle_gamma   89.97142148
_symmetry_Int_Tables_number   1
_chemical_formula_structural   Li7Mn2(CoO4)3
_chemical_formula_sum   'Li7 Mn2 Co3 O12'
_cell_volume   213.26081356
_cell_formula_units_Z   1
loop_
 _symmetry_equiv_pos_site_id
 _symmetry_equiv_pos_as_xyz
  1  'x, y, z'
loop_
 _atom_site_type_symbol
 _atom_site_label
 _atom_site_symmetry_multiplicity
 _atom_site_fract_x
 _atom_site_fract_y
 _atom_site_fract_z
 _atom_site_occupancy
  Li  Li0  1  0.50606400  0.24930200  0.99697400  1
  Li  Li1  1  0.17293700  0.41934600  0.66636300  1
  Li  Li2  1  0.82689800  0.58639200  0.34369500  1
  Li  Li3  1  0.50365500  0.74174100  0.99229200  1
  Li  Li4  1  0.16424700  0.91398100  0.66508100  1
  Li  Li5  1  0.83035800  0.08493100  0.33736500  1
  Li  Li6  1  0.66313600  0.66639100  0.66721600  1
  Mn  Mn0  1  0.00635900  0.00039100  0.99561800  1
  Mn  Mn1  1  0.32729700  0.83565000  0.33729800  1
  Co  Co0  1  0.65952800  0.16492300  0.66629800  1
  Co  Co1  1  0.34453700  0.34215300  0.34670300  1
  Co  Co2  1  0.00067400  0.49950400  0.99042000  1
  O  O0  1  0.94514500  0.28701900  0.15536000  1
  O  O1  1  0.60977500  0.43674800  0.82773600  1
  O  O2  1  0.23615300  0.63335700  0.48383600  1
  O  O3  1  0.94023900  0.80088600  0.16028800  1
  O  O4  1  0.63168700  0.97080800  0.84166300  1
  O  O5  1  0.23433200  0.11116200  0.48567500  1
  O  O6  1  0.09457700  0.19799600  0.84606000  1
  O  O7  1  0.71460900  0.35964300  0.49730700  1
  O  O8  1  0.41274900  0.55997800  0.18248800  1
  O  O9  1  0.08667800  0.71378100  0.84942800  1
  O  O10  1  0.69955300  0.88973300  0.49606300  1
  O  O11  1  0.38881400  0.03418200  0.16877400  1
loop_
_geom_bond_atom_site_label_1
_geom_bond_atom_site_label_2
_geom_bond_distance
_geom_bond_site_symmetry_2
Li0 O1 2.027366 1_555
Li0 O4 2.057405 1_545
Li0 O6 2.059303 1_555
Li0 O11 2.182840 1_556
Li0 O0 2.191117 1_556
Li0 O8 2.235989 1_556
Li1 O2 2.128509 1_555
Li1 O5 2.141809 1_555
Li1 O9 2.146070 1_555
Li1 O6 2.170228 1_555
Li1 O1 2.189663 1_555
Li1 O7 2.295939 1_455
Li2 O2 2.032533 1_655
Li2 O8 2.088612 1_555
Li2 O7 2.109480 1_555
Li2 O10 2.150479 1_555
Li2 O3 2.242749 1_555
Li2 O0 2.261924 1_555
Li3 O9 2.069834 1_555
Li3 O8 2.111317 1_556
Li3 O4 2.139745 1_555
Li3 O1 2.154413 1_555
Li3 O11 2.174688 1_566
Li3 O3 2.199498 1_556
Li4 O2 2.054212 1_555
Li4 O5 2.054957 1_565
Li4 O6 2.061656 1_565
Li4 O9 2.113495 1_555
Li4 O10 2.323109 1_455
Li4 O4 2.347573 1_555
Li5 O5 2.020881 1_655
Li5 O7 2.037029 1_555
Li5 O10 2.059978 1_545
Li5 O3 2.133255 1_545
Li5 O0 2.190095 1_555
Li5 O11 2.220143 1_555
Li6 O1 2.043553 1_555
Li6 O4 2.050816 1_555
Li6 O10 2.052137 1_555
Li6 O7 2.074487 1_555
Li6 O9 2.171577 1_655
Li6 O2 2.189330 1_555
Mn0 O4 1.905281 1_445
Mn0 O6 1.909657 1_555
Mn0 O9 1.949995 1_545
Mn0 O3 1.963860 1_446
Mn0 O0 1.965547 1_456
Mn0 O11 1.982384 1_556
Mn1 O10 1.907567 1_555
Mn1 O2 1.917382 1_555
Mn1 O5 1.938547 1_565
Mn1 O8 1.948622 1_555
Mn1 O11 1.974983 1_565
Mn1 O3 2.010779 1_455
Co0 O1 1.889874 1_555
Co0 O10 1.924486 1_545
Co0 O4 1.942200 1_545
Co0 O7 1.950385 1_555
Co0 O5 2.175487 1_555
Co0 O6 2.214663 1_655
Co1 O7 1.881447 1_555
Co1 O2 1.997759 1_555
Co1 O5 2.038837 1_555
Co1 O8 2.041245 1_555
Co1 O0 2.098463 1_455
Co1 O11 2.099967 1_555
Co2 O9 1.924427 1_555
Co2 O1 1.996437 1_455
Co2 O0 1.999685 1_456
Co2 O6 2.036380 1_555
Co2 O3 2.067185 1_456
Co2 O8 2.151332 1_556
