# generated using pymatgen
data_Fe3(PO8)2
_symmetry_space_group_name_H-M   'P 1'
_cell_length_a   7.80586800
_cell_length_b   9.36965943
_cell_length_c   10.42938449
_cell_angle_alpha   114.73694244
_cell_angle_beta   89.19056062
_cell_angle_gamma   97.69105308
_symmetry_Int_Tables_number   1
_chemical_formula_structural   Fe3(PO8)2
_chemical_formula_sum   'Fe6 P4 O32'
_cell_volume   685.81747674
_cell_formula_units_Z   2
loop_
 _symmetry_equiv_pos_site_id
 _symmetry_equiv_pos_as_xyz
  1  'x, y, z'
loop_
 _atom_site_type_symbol
 _atom_site_label
 _atom_site_symmetry_multiplicity
 _atom_site_fract_x
 _atom_site_fract_y
 _atom_site_fract_z
 _atom_site_occupancy
  Fe  Fe0  1  0.67596300  0.48500200  0.60578900  1
  Fe  Fe1  1  0.32403700  0.51499800  0.39421100  1
  Fe  Fe2  1  0.86684200  0.01259000  0.72566000  1
  Fe  Fe3  1  0.13315800  0.98741000  0.27434000  1
  Fe  Fe4  1  0.63584300  0.97651300  0.20963300  1
  Fe  Fe5  1  0.36415700  0.02348700  0.79036700  1
  P  P0  1  0.88473500  0.17886600  0.49732400  1
  P  P1  1  0.11526500  0.82113400  0.50267600  1
  P  P2  1  0.59248700  0.80910400  0.85576800  1
  P  P3  1  0.40751300  0.19089600  0.14423200  1
  O  O0  1  0.84631800  0.35332100  0.56510700  1
  O  O1  1  0.15368200  0.64667900  0.43489300  1
  O  O2  1  0.92518800  0.13217700  0.61710900  1
  O  O3  1  0.07481200  0.86782300  0.38289100  1
  O  O4  1  0.72707900  0.06761100  0.40353500  1
  O  O5  1  0.27292100  0.93238900  0.59646500  1
  O  O6  1  0.04490000  0.17445500  0.40632000  1
  O  O7  1  0.95510000  0.82554500  0.59368000  1
  O  O8  1  0.75447300  0.91173300  0.83604000  1
  O  O9  1  0.24552700  0.08826700  0.16396000  1
  O  O10  1  0.56875800  0.85310500  0.01310700  1
  O  O11  1  0.43124200  0.14689500  0.98689300  1
  O  O12  1  0.61856600  0.63140300  0.78237200  1
  O  O13  1  0.38143400  0.36859700  0.21762800  1
  O  O14  1  0.42905200  0.83057600  0.78575100  1
  O  O15  1  0.57094800  0.16942400  0.21424900  1
  O  O16  1  0.59970700  0.10457100  0.73423200  1
  O  O17  1  0.40029300  0.89542900  0.26576800  1
  O  O18  1  0.90383900  0.90680600  0.15284500  1
  O  O19  1  0.09616100  0.09319400  0.84715500  1
  O  O20  1  0.00287100  0.63571500  0.82424900  1
  O  O21  1  0.99712900  0.36428500  0.17575100  1
  O  O22  1  0.54135400  0.65042800  0.47665700  1
  O  O23  1  0.45864600  0.34957200  0.52334300  1
  O  O24  1  0.67123300  0.56367900  0.46163700  1
  O  O25  1  0.32876700  0.43632100  0.53836300  1
  O  O26  1  0.98143300  0.57590800  0.90914300  1
  O  O27  1  0.01856700  0.42409200  0.09085700  1
  O  O28  1  0.79723600  0.79582900  0.17323900  1
  O  O29  1  0.20276400  0.20417100  0.82676100  1
  O  O30  1  0.71419000  0.19848500  0.83714600  1
  O  O31  1  0.28581000  0.80151500  0.16285400  1
loop_
_geom_bond_atom_site_label_1
_geom_bond_atom_site_label_2
_geom_bond_distance
_geom_bond_site_symmetry_2
Fe0 O0 1.858946 1_555
Fe0 O12 1.871099 1_555
Fe0 O24 1.934279 1_555
Fe0 O23 1.943978 1_555
Fe1 O1 1.858946 1_555
Fe1 O13 1.871099 1_555
Fe1 O25 1.934279 1_555
Fe1 O22 1.943978 1_555
Fe2 O8 1.909894 1_545
Fe2 O2 1.911831 1_555
Fe2 O7 1.928265 1_545
Fe2 O19 2.069185 1_655
Fe2 O30 2.151058 1_555
Fe2 O16 2.347373 1_555
Fe3 O9 1.909894 1_565
Fe3 O3 1.911831 1_555
Fe3 O6 1.928265 1_565
Fe3 O18 2.069185 1_455
Fe3 O31 2.151058 1_555
Fe3 O17 2.347373 1_555
Fe4 O10 1.922777 1_555
Fe4 O15 1.922909 1_565
Fe4 O4 1.938747 1_565
Fe4 O17 2.066058 1_555
Fe4 O28 2.148685 1_555
Fe4 O18 2.271683 1_555
Fe5 O11 1.922777 1_555
Fe5 O14 1.922909 1_545
Fe5 O5 1.938747 1_545
Fe5 O16 2.066058 1_555
Fe5 O29 2.148685 1_555
Fe5 O19 2.271683 1_555
O0 P0 1.555532 1_555
O1 P1 1.555532 1_555
O2 P0 1.535347 1_555
O3 P1 1.535347 1_555
O4 P0 1.547645 1_555
O5 P1 1.547645 1_555
O6 P0 1.553406 1_455
O7 P1 1.553406 1_655
O8 P2 1.548742 1_555
O9 P3 1.548742 1_555
O10 P2 1.530575 1_554
O11 P3 1.530575 1_556
O12 P2 1.555404 1_555
O13 P3 1.555404 1_555
O14 P2 1.555388 1_555
O15 P3 1.555388 1_555
O16 O30 1.323298 1_555
O17 O31 1.323298 1_555
O18 O28 1.329433 1_555
O19 O29 1.329433 1_555
O20 O26 1.229586 1_455
O21 O27 1.229586 1_655
O22 O24 1.350016 1_555
O23 O25 1.350016 1_555
