# generated using pymatgen
data_Ba2MgCuSb2F14
_symmetry_space_group_name_H-M   'P 1'
_cell_length_a   5.35212400
_cell_length_b   7.71330208
_cell_length_c   16.22368985
_cell_angle_alpha   89.88107926
_cell_angle_beta   90.67065080
_cell_angle_gamma   109.62270041
_symmetry_Int_Tables_number   1
_chemical_formula_structural   Ba2MgCuSb2F14
_chemical_formula_sum   'Ba4 Mg2 Cu2 Sb4 F28'
_cell_volume   630.81444414
_cell_formula_units_Z   2
loop_
 _symmetry_equiv_pos_site_id
 _symmetry_equiv_pos_as_xyz
  1  'x, y, z'
loop_
 _atom_site_type_symbol
 _atom_site_label
 _atom_site_symmetry_multiplicity
 _atom_site_fract_x
 _atom_site_fract_y
 _atom_site_fract_z
 _atom_site_occupancy
  Ba  Ba0  1  0.73580200  0.64602600  0.37280000  1
  Ba  Ba1  1  0.90940400  0.64820400  0.87259000  1
  Ba  Ba2  1  0.26419800  0.35397400  0.62720000  1
  Ba  Ba3  1  0.09059600  0.35179600  0.12741000  1
  Mg  Mg0  1  0.45017700  0.00114200  0.25256700  1
  Mg  Mg1  1  0.54982300  0.99885800  0.74743300  1
  Cu  Cu0  1  0.50000000  0.00000000  0.00000000  1
  Cu  Cu1  1  0.50000000  0.00000000  0.50000000  1
  Sb  Sb0  1  0.84564100  0.77341700  0.12477100  1
  Sb  Sb1  1  0.15435900  0.22658300  0.87522900  1
  Sb  Sb2  1  0.93232500  0.77433000  0.62312600  1
  Sb  Sb3  1  0.06767500  0.22567000  0.37687400  1
  F  F0  1  0.84532700  0.02167500  0.67126700  1
  F  F1  1  0.58696800  0.69913500  0.54895700  1
  F  F2  1  0.41303200  0.30086500  0.45104300  1
  F  F3  1  0.11909600  0.50332700  0.39522700  1
  F  F4  1  0.59359000  0.93954600  0.39188000  1
  F  F5  1  0.66270200  0.06414000  0.10648400  1
  F  F6  1  0.11200200  0.69681200  0.05181800  1
  F  F7  1  0.81020400  0.97605500  0.82995300  1
  F  F8  1  0.99151200  0.64591700  0.21762700  1
  F  F9  1  0.88090400  0.49667300  0.60477300  1
  F  F10  1  0.56236400  0.78752000  0.23836400  1
  F  F11  1  0.61634700  0.49822300  0.10405700  1
  F  F12  1  0.22713500  0.78753300  0.73654800  1
  F  F13  1  0.43763600  0.21248000  0.76163600  1
  F  F14  1  0.33729800  0.93586000  0.89351600  1
  F  F15  1  0.00848800  0.35408300  0.78237300  1
  F  F16  1  0.29153900  0.16354600  0.01209400  1
  F  F17  1  0.15467300  0.97832500  0.32873300  1
  F  F18  1  0.70846100  0.83645400  0.98790600  1
  F  F19  1  0.86690900  0.15807400  0.51397700  1
  F  F20  1  0.88799800  0.30318800  0.94818200  1
  F  F21  1  0.77286500  0.21246700  0.26345200  1
  F  F22  1  0.66499000  0.65198900  0.71500600  1
  F  F23  1  0.13309100  0.84192600  0.48602300  1
  F  F24  1  0.40641000  0.06045400  0.60812000  1
  F  F25  1  0.18979600  0.02394500  0.17004700  1
  F  F26  1  0.33501000  0.34801100  0.28499400  1
  F  F27  1  0.38365300  0.50177700  0.89594300  1
loop_
_geom_bond_atom_site_label_1
_geom_bond_atom_site_label_2
_geom_bond_distance
_geom_bond_site_symmetry_2
Ba0 F4 2.639452 1_555
Ba0 F3 2.655129 1_655
Ba0 F10 2.726340 1_555
Ba0 F23 2.817947 1_655
Ba0 F17 2.877001 1_655
Ba0 F8 2.879614 1_555
Ba0 F26 2.923163 1_555
Ba0 F2 2.938008 1_555
Ba0 F1 3.040946 1_555
Ba0 F3 3.134448 1_555
Ba1 F14 2.618214 1_655
Ba1 F27 2.688071 1_555
Ba1 F12 2.787225 1_655
Ba1 F18 2.805771 1_555
Ba1 F7 2.835699 1_555
Ba1 F22 2.862742 1_555
Ba1 F20 2.895540 1_555
Ba1 F15 2.900045 1_655
Ba1 F6 3.070660 1_656
Ba1 F27 3.124582 1_655
Ba2 F24 2.639452 1_555
Ba2 F9 2.655129 1_455
Ba2 F13 2.726340 1_555
Ba2 F19 2.817947 1_455
Ba2 F0 2.877001 1_455
Ba2 F15 2.879614 1_555
Ba2 F22 2.923163 1_555
Ba2 F1 2.938008 1_555
Ba2 F2 3.040946 1_555
Ba2 F9 3.134448 1_555
Ba3 F5 2.618214 1_455
Ba3 F11 2.688071 1_555
Ba3 F21 2.787225 1_455
Ba3 F16 2.805771 1_555
Ba3 F25 2.835699 1_555
Ba3 F26 2.862742 1_555
Ba3 F6 2.895540 1_555
Ba3 F8 2.900045 1_455
Ba3 F20 3.070660 1_454
Ba3 F11 3.124582 1_455
Cu0 F5 1.914812 1_555
Cu0 F14 1.914812 1_544
Cu0 F18 1.956041 1_544
Cu0 F16 1.956041 1_555
Cu1 F24 1.930303 1_555
Cu1 F4 1.930303 1_545
Cu1 F19 1.943424 1_555
Cu1 F23 1.943424 1_545
F0 Mg1 1.979188 1_545
F0 Sb2 2.253450 1_545
F1 Sb2 2.105149 1_555
F2 Sb3 2.105149 1_555
F3 Sb3 2.087086 1_555
F4 Mg0 2.474494 1_565
F6 Sb0 2.095343 1_455
F7 Mg1 1.971126 1_555
F7 Sb1 2.291306 1_665
F8 Sb0 2.080418 1_555
F9 Sb2 2.087086 1_555
F10 Mg0 1.948835 1_565
F10 Sb0 2.425650 1_555
F11 Sb0 2.090057 1_555
F12 Mg1 1.942718 1_555
F12 Sb2 2.389759 1_455
F13 Mg1 1.948835 1_545
F13 Sb1 2.425650 1_555
F15 Sb1 2.080418 1_555
F16 Sb1 2.429612 1_554
F17 Mg0 1.979188 1_565
F17 Sb3 2.253450 1_565
F18 Sb0 2.429612 1_556
F19 Sb3 2.459447 1_655
F20 Sb1 2.095343 1_655
F21 Mg0 1.942718 1_555
F21 Sb3 2.389759 1_655
F22 Sb2 2.072901 1_555
F23 Sb2 2.459447 1_455
F24 Mg1 2.474494 1_545
F25 Mg0 1.971126 1_555
F25 Sb0 2.291306 1_445
F26 Sb3 2.072901 1_555
F27 Sb1 2.090057 1_555
