# generated using pymatgen
data_K2Mg2(MoO4)3
_symmetry_space_group_name_H-M   'P 1'
_cell_length_a   10.78546879
_cell_length_b   10.79603590
_cell_length_c   32.36289867
_cell_angle_alpha   90.00000000
_cell_angle_beta   90.00000000
_cell_angle_gamma   90.00000000
_symmetry_Int_Tables_number   1
_chemical_formula_structural   K2Mg2(MoO4)3
_chemical_formula_sum   'K24 Mg24 Mo36 O144'
_cell_volume   3768.34589717
_cell_formula_units_Z   12
loop_
 _symmetry_equiv_pos_site_id
 _symmetry_equiv_pos_as_xyz
  1  'x, y, z'
loop_
 _atom_site_type_symbol
 _atom_site_label
 _atom_site_symmetry_multiplicity
 _atom_site_fract_x
 _atom_site_fract_y
 _atom_site_fract_z
 _atom_site_occupancy
  K  K0  1  0.30975818  0.31903049  0.93841035  1
  K  K1  1  0.69024182  0.81903049  0.56158965  1
  K  K2  1  0.19024182  0.68096951  0.43841035  1
  K  K3  1  0.80975818  0.18096951  0.06158965  1
  K  K4  1  0.67933353  0.82562277  0.89548101  1
  K  K5  1  0.32066647  0.32562277  0.60451899  1
  K  K6  1  0.82066647  0.17437723  0.39548101  1
  K  K7  1  0.17933353  0.67437723  0.10451899  1
  K  K8  1  0.18530827  0.68778069  0.77483853  1
  K  K9  1  0.81469173  0.18778069  0.72516147  1
  K  K10  1  0.31469173  0.31221931  0.27483853  1
  K  K11  1  0.68530827  0.81221931  0.22516147  1
  K  K12  1  0.46604625  0.04691799  0.81501061  1
  K  K13  1  0.53395375  0.54691799  0.68498939  1
  K  K14  1  0.03395375  0.95308201  0.31501061  1
  K  K15  1  0.96604625  0.45308201  0.18498939  1
  K  K16  1  0.03799125  0.96759555  0.97728017  1
  K  K17  1  0.96200875  0.46759555  0.52271983  1
  K  K18  1  0.46200875  0.03240445  0.47728017  1
  K  K19  1  0.53799125  0.53240445  0.02271983  1
  K  K20  1  0.92627973  0.46019402  0.84424584  1
  K  K21  1  0.07372027  0.96019402  0.65575416  1
  K  K22  1  0.57372027  0.53980598  0.34424584  1
  K  K23  1  0.42627973  0.03980598  0.15575416  1
  Mg  Mg0  1  0.60118613  0.37172288  0.79296698  1
  Mg  Mg1  1  0.39881387  0.87172288  0.70703302  1
  Mg  Mg2  1  0.89881387  0.62827712  0.29296698  1
  Mg  Mg3  1  0.10118613  0.12827712  0.20703302  1
  Mg  Mg4  1  0.12177136  0.12576506  0.86676958  1
  Mg  Mg5  1  0.87822864  0.62576506  0.63323042  1
  Mg  Mg6  1  0.37822864  0.87423494  0.36676958  1
  Mg  Mg7  1  0.62177136  0.37423494  0.13323042  1
  Mg  Mg8  1  0.86904785  0.60335188  0.96529301  1
  Mg  Mg9  1  0.13095215  0.10335188  0.53470699  1
  Mg  Mg10  1  0.63095215  0.39664812  0.46529301  1
  Mg  Mg11  1  0.36904785  0.89664812  0.03470699  1
  Mg  Mg12  1  0.85314032  0.81699914  0.78546595  1
  Mg  Mg13  1  0.14685968  0.31699914  0.71453405  1
  Mg  Mg14  1  0.64685968  0.18300086  0.28546595  1
  Mg  Mg15  1  0.35314032  0.68300086  0.21453405  1
  Mg  Mg16  1  0.33533910  0.65647663  0.88931853  1
  Mg  Mg17  1  0.66466090  0.15647663  0.61068147  1
  Mg  Mg18  1  0.16466090  0.34352337  0.38931853  1
  Mg  Mg19  1  0.83533910  0.84352337  0.11068147  1
  Mg  Mg20  1  0.68645733  0.14754942  0.94919201  1
  Mg  Mg21  1  0.31354267  0.64754942  0.55080799  1
  Mg  Mg22  1  0.81354267  0.85245058  0.44919201  1
  Mg  Mg23  1  0.18645733  0.35245058  0.05080799  1
  Mo  Mo0  1  0.13079164  0.02273225  0.76620036  1
  Mo  Mo1  1  0.86920836  0.52273225  0.73379964  1
  Mo  Mo2  1  0.36920836  0.97726775  0.26620036  1
  Mo  Mo3  1  0.63079164  0.47726775  0.23379964  1
  Mo  Mo4  1  0.61473946  0.46818352  0.90440753  1
  Mo  Mo5  1  0.38526054  0.96818352  0.59559247  1
  Mo  Mo6  1  0.88526054  0.53181648  0.40440753  1
  Mo  Mo7  1  0.11473946  0.03181648  0.09559247  1
  Mo  Mo8  1  0.38360778  0.98279208  0.93294651  1
  Mo  Mo9  1  0.61639222  0.48279208  0.56705349  1
  Mo  Mo10  1  0.11639222  0.01720792  0.43294651  1
  Mo  Mo11  1  0.88360778  0.51720792  0.06705349  1
  Mo  Mo12  1  0.97870339  0.30588345  0.95689291  1
  Mo  Mo13  1  0.02129661  0.80588345  0.54310709  1
  Mo  Mo14  1  0.52129661  0.69411655  0.45689291  1
  Mo  Mo15  1  0.47870339  0.19411655  0.04310709  1
  Mo  Mo16  1  0.01958604  0.79682295  0.88017537  1
  Mo  Mo17  1  0.98041396  0.29682295  0.61982463  1
  Mo  Mo18  1  0.48041396  0.20317705  0.38017537  1
  Mo  Mo19  1  0.51958604  0.70317705  0.11982463  1
  Mo  Mo20  1  0.52819736  0.69155412  0.79532906  1
  Mo  Mo21  1  0.47180264  0.19155412  0.70467094  1
  Mo  Mo22  1  0.97180264  0.30844588  0.29532906  1
  Mo  Mo23  1  0.02819736  0.80844588  0.20467094  1
  Mo  Mo24  1  0.80449883  0.11763303  0.83950553  1
  Mo  Mo25  1  0.19550117  0.61763303  0.66049447  1
  Mo  Mo26  1  0.69550117  0.88236697  0.33950553  1
  Mo  Mo27  1  0.30449883  0.38236697  0.16049447  1
  Mo  Mo28  1  0.19080385  0.62444628  0.99190195  1
  Mo  Mo29  1  0.80919615  0.12444628  0.50809805  1
  Mo  Mo30  1  0.30919615  0.37555372  0.49190195  1
  Mo  Mo31  1  0.69080385  0.87555372  0.00809805  1
  Mo  Mo32  1  0.28345416  0.38278550  0.81907769  1
  Mo  Mo33  1  0.71654584  0.88278550  0.68092231  1
  Mo  Mo34  1  0.21654584  0.61721450  0.31907769  1
  Mo  Mo35  1  0.78345416  0.11721450  0.18092231  1
  O  O0  1  0.01892228  0.90919870  0.78160539  1
  O  O1  1  0.98107772  0.40919870  0.71839461  1
  O  O2  1  0.48107772  0.09080130  0.28160539  1
  O  O3  1  0.51892228  0.59080130  0.21839461  1
  O  O4  1  0.06078568  0.14832654  0.73808506  1
  O  O5  1  0.93921432  0.64832654  0.76191494  1
  O  O6  1  0.43921432  0.85167346  0.23808506  1
  O  O7  1  0.56078568  0.35167346  0.26191494  1
  O  O8  1  0.21429656  0.07566935  0.81095946  1
  O  O9  1  0.78570344  0.57566935  0.68904054  1
  O  O10  1  0.28570344  0.92433065  0.31095946  1
  O  O11  1  0.71429656  0.42433065  0.18904054  1
  O  O12  1  0.23378673  0.94218905  0.73211186  1
  O  O13  1  0.76621327  0.44218905  0.76788814  1
  O  O14  1  0.26621327  0.05781095  0.23211186  1
  O  O15  1  0.73378673  0.55781095  0.26788814  1
  O  O16  1  0.71541237  0.58518372  0.92581673  1
  O  O17  1  0.28458763  0.08518372  0.57418327  1
  O  O18  1  0.78458763  0.41481628  0.42581673  1
  O  O19  1  0.21541237  0.91481628  0.07418327  1
  O  O20  1  0.65361316  0.44502907  0.85097708  1
  O  O21  1  0.34638684  0.94502907  0.64902292  1
  O  O22  1  0.84638684  0.55497093  0.35097708  1
  O  O23  1  0.15361316  0.05497093  0.14902292  1
  O  O24  1  0.62221333  0.32644452  0.93301261  1
  O  O25  1  0.37778667  0.82644452  0.56698739  1
  O  O26  1  0.87778667  0.67355548  0.43301261  1
  O  O27  1  0.12221333  0.17355548  0.06698739  1
  O  O28  1  0.45813748  0.52069344  0.91077524  1
  O  O29  1  0.54186252  0.02069344  0.58922476  1
  O  O30  1  0.04186252  0.47930656  0.41077524  1
  O  O31  1  0.95813748  0.97930656  0.08922476  1
  O  O32  1  0.32241932  0.01672863  0.98376161  1
  O  O33  1  0.67758068  0.51672863  0.51623839  1
  O  O34  1  0.17758068  0.98327137  0.48376161  1
  O  O35  1  0.82241932  0.48327137  0.01623839  1
  O  O36  1  0.38036459  0.82130584  0.91994452  1
  O  O37  1  0.61963541  0.32130584  0.58005548  1
  O  O38  1  0.11963541  0.17869416  0.41994452  1
  O  O39  1  0.88036459  0.67869416  0.08005548  1
  O  O40  1  0.53620131  0.04531429  0.92329259  1
  O  O41  1  0.46379869  0.54531429  0.57670741  1
  O  O42  1  0.96379869  0.95468571  0.42329259  1
  O  O43  1  0.03620131  0.45468571  0.07670741  1
  O  O44  1  0.28312863  0.06458281  0.89788709  1
  O  O45  1  0.71687137  0.56458281  0.60211291  1
  O  O46  1  0.21687137  0.93541719  0.39788709  1
  O  O47  1  0.78312863  0.43541719  0.10211291  1
  O  O48  1  0.09039996  0.34177362  0.99595833  1
  O  O49  1  0.90960004  0.84177362  0.50404167  1
  O  O50  1  0.40960004  0.65822638  0.49595833  1
  O  O51  1  0.59039996  0.15822638  0.00404167  1
  O  O52  1  0.05621316  0.20464345  0.92148795  1
  O  O53  1  0.94378684  0.70464345  0.57851205  1
  O  O54  1  0.44378684  0.79535655  0.42148795  1
  O  O55  1  0.55621316  0.29535655  0.07851205  1
  O  O56  1  0.93336158  0.44575963  0.93033178  1
  O  O57  1  0.06663842  0.94575963  0.56966822  1
  O  O58  1  0.56663842  0.55424037  0.43033178  1
  O  O59  1  0.43336158  0.05424037  0.06966822  1
  O  O60  1  0.85053738  0.22060096  0.97813314  1
  O  O61  1  0.14946262  0.72060096  0.52186686  1
  O  O62  1  0.64946262  0.77939904  0.47813314  1
  O  O63  1  0.35053738  0.27939904  0.02186686  1
  O  O64  1  0.16995199  0.73747644  0.86714272  1
  O  O65  1  0.83004801  0.23747644  0.63285728  1
  O  O66  1  0.33004801  0.26252356  0.36714272  1
  O  O67  1  0.66995199  0.76252356  0.13285728  1
  O  O68  1  0.02595978  0.96306819  0.88214770  1
  O  O69  1  0.97404022  0.46306819  0.61785230  1
  O  O70  1  0.47404022  0.03693181  0.38214770  1
  O  O71  1  0.52595978  0.53693181  0.11785230  1
  O  O72  1  0.90981571  0.73983660  0.84312750  1
  O  O73  1  0.09018429  0.23983660  0.65687250  1
  O  O74  1  0.59018429  0.26016340  0.34312750  1
  O  O75  1  0.40981571  0.76016340  0.15687250  1
  O  O76  1  0.96258738  0.74675596  0.92977625  1
  O  O77  1  0.03741262  0.24675596  0.57022375  1
  O  O78  1  0.53741262  0.25324404  0.42977625  1
  O  O79  1  0.46258738  0.75324404  0.07022375  1
  O  O80  1  0.68642307  0.73163878  0.78864466  1
  O  O81  1  0.31357693  0.23163878  0.71135534  1
  O  O82  1  0.81357693  0.26836122  0.28864466  1
  O  O83  1  0.18642307  0.76836122  0.21135534  1
  O  O84  1  0.50613285  0.53679382  0.77565428  1
  O  O85  1  0.49386715  0.03679382  0.72434572  1
  O  O86  1  0.99386715  0.46320618  0.27565428  1
  O  O87  1  0.00613285  0.96320618  0.22434572  1
  O  O88  1  0.43227184  0.79770561  0.76655748  1
  O  O89  1  0.56772816  0.29770561  0.73344252  1
  O  O90  1  0.06772816  0.20229439  0.26655748  1
  O  O91  1  0.93227184  0.70229439  0.23344252  1
  O  O92  1  0.49031149  0.71305818  0.84914479  1
  O  O93  1  0.50968851  0.21305818  0.65085521  1
  O  O94  1  0.00968851  0.28694182  0.34914479  1
  O  O95  1  0.99031149  0.78694182  0.15085521  1
  O  O96  1  0.77087546  0.13290147  0.89310441  1
  O  O97  1  0.22912454  0.63290147  0.60689559  1
  O  O98  1  0.72912454  0.86709853  0.39310441  1
  O  O99  1  0.27087546  0.36709853  0.10689559  1
  O  O100  1  0.69767116  0.20932337  0.80955880  1
  O  O101  1  0.30232884  0.70932337  0.69044120  1
  O  O102  1  0.80232884  0.79067663  0.30955880  1
  O  O103  1  0.19767116  0.29067663  0.19044120  1
  O  O104  1  0.77724422  0.96027642  0.82349820  1
  O  O105  1  0.22275578  0.46027642  0.67650180  1
  O  O106  1  0.72275578  0.03972358  0.32349820  1
  O  O107  1  0.27724422  0.53972358  0.17650180  1
  O  O108  1  0.95919030  0.17363892  0.82963940  1
  O  O109  1  0.04080970  0.67363892  0.67036060  1
  O  O110  1  0.54080970  0.82636108  0.32963940  1
  O  O111  1  0.45919030  0.32636108  0.17036060  1
  O  O112  1  0.26445235  0.52340653  0.02888253  1
  O  O113  1  0.73554765  0.02340653  0.47111747  1
  O  O114  1  0.23554765  0.47659347  0.52888253  1
  O  O115  1  0.76445235  0.97659347  0.97111747  1
  O  O116  1  0.22925329  0.57892124  0.93996805  1
  O  O117  1  0.77074671  0.07892124  0.56003195  1
  O  O118  1  0.27074671  0.42107876  0.43996805  1
  O  O119  1  0.72925329  0.92107876  0.06003195  1
  O  O120  1  0.24981247  0.77537439  0.00292592  1
  O  O121  1  0.75018753  0.27537439  0.49707408  1
  O  O122  1  0.25018753  0.22462561  0.50292592  1
  O  O123  1  0.74981247  0.72462561  0.99707408  1
  O  O124  1  0.02665166  0.62762982  0.00146965  1
  O  O125  1  0.97334834  0.12762982  0.49853035  1
  O  O126  1  0.47334834  0.37237018  0.50146965  1
  O  O127  1  0.52665166  0.87237018  0.99853035  1
  O  O128  1  0.43110570  0.30454630  0.81431107  1
  O  O129  1  0.56889430  0.80454630  0.68568893  1
  O  O130  1  0.06889430  0.69545370  0.31431107  1
  O  O131  1  0.93110570  0.19545370  0.18568893  1
  O  O132  1  0.19105689  0.30272001  0.85659084  1
  O  O133  1  0.80894311  0.80272001  0.64340916  1
  O  O134  1  0.30894311  0.69727999  0.35659084  1
  O  O135  1  0.69105689  0.19727999  0.14340916  1
  O  O136  1  0.29673832  0.53720229  0.83876033  1
  O  O137  1  0.70326168  0.03720229  0.66123967  1
  O  O138  1  0.20326168  0.46279771  0.33876033  1
  O  O139  1  0.79673832  0.96279771  0.16123967  1
  O  O140  1  0.19790739  0.39572788  0.77158631  1
  O  O141  1  0.80209261  0.89572788  0.72841369  1
  O  O142  1  0.30209261  0.60427212  0.27158631  1
  O  O143  1  0.69790739  0.10427212  0.22841369  1
loop_
_geom_bond_atom_site_label_1
_geom_bond_atom_site_label_2
_geom_bond_distance
_geom_bond_site_symmetry_2
K0 O63 2.769719 1_556
K0 O28 2.846223 1_555
K0 O116 2.937501 1_555
K0 O132 2.946440 1_555
K0 O48 3.020975 1_555
K0 O52 3.050085 1_555
K0 O44 3.057539 1_555
K0 O24 3.375449 1_555
K1 O62 2.769719 1_555
K1 O29 2.846223 1_565
K1 O117 2.937501 1_565
K1 O133 2.946440 1_555
K1 O49 3.020975 1_555
K1 O53 3.050085 1_555
K1 O45 3.057539 1_555
K1 O25 3.375449 1_555
K2 O61 2.769719 1_555
K2 O30 2.846223 1_555
K2 O118 2.937501 1_555
K2 O134 2.946440 1_555
K2 O50 3.020975 1_555
K2 O54 3.050085 1_555
K2 O46 3.057539 1_555
K2 O26 3.375449 1_455
K3 O60 2.769719 1_554
K3 O31 2.846223 1_545
K3 O119 2.937501 1_545
K3 O135 2.946440 1_555
K3 O51 3.020975 1_555
K3 O55 3.050085 1_555
K3 O47 3.057539 1_555
K3 O27 3.375449 1_655
K4 O16 2.802387 1_555
K4 O92 2.807458 1_555
K4 O104 2.942004 1_555
K4 O40 2.969629 1_565
K4 O115 3.080768 1_555
K4 O72 3.147688 1_555
K5 O17 2.802387 1_555
K5 O93 2.807458 1_555
K5 O105 2.942004 1_555
K5 O41 2.969629 1_555
K5 O114 3.080768 1_555
K5 O73 3.147688 1_555
K6 O18 2.802387 1_555
K6 O94 2.807458 1_655
K6 O106 2.942004 1_555
K6 O42 2.969629 1_545
K6 O113 3.080768 1_555
K6 O74 3.147688 1_555
K7 O19 2.802387 1_555
K7 O95 2.807458 1_455
K7 O107 2.942004 1_555
K7 O43 2.969629 1_555
K7 O112 3.080768 1_555
K7 O75 3.147688 1_555
K8 O5 2.720541 1_455
K8 O136 2.892511 1_555
K8 O88 2.928322 1_555
K8 O0 2.997092 1_555
K8 O101 3.017826 1_555
K8 O64 3.039545 1_555
K8 O12 3.119171 1_555
K8 O140 3.157694 1_555
K9 O4 2.720541 1_655
K9 O137 2.892511 1_555
K9 O89 2.928322 1_555
K9 O1 2.997092 1_555
K9 O100 3.017826 1_555
K9 O65 3.039545 1_555
K9 O13 3.119171 1_555
K9 O141 3.157694 1_545
K10 O7 2.720541 1_555
K10 O138 2.892511 1_555
K10 O90 2.928322 1_555
K10 O2 2.997092 1_555
K10 O103 3.017826 1_555
K10 O66 3.039545 1_555
K10 O14 3.119171 1_555
K10 O142 3.157694 1_555
K11 O6 2.720541 1_555
K11 O139 2.892511 1_555
K11 O91 2.928322 1_555
K11 O3 2.997092 1_555
K11 O102 3.017826 1_555
K11 O67 3.039545 1_555
K11 O15 3.119171 1_555
K11 O143 3.157694 1_565
K12 O8 2.736066 1_555
K12 O128 2.806870 1_555
K12 O85 2.951506 1_555
K12 O100 3.057161 1_555
K12 O88 3.135347 1_545
K13 O9 2.736066 1_555
K13 O129 2.806870 1_555
K13 O84 2.951506 1_555
K13 O101 3.057161 1_555
K13 O89 3.135347 1_555
K14 O10 2.736066 1_555
K14 O130 2.806870 1_555
K14 O87 2.951506 1_555
K14 O102 3.057161 1_455
K14 O90 3.135347 1_565
K15 O11 2.736066 1_555
K15 O131 2.806870 1_555
K15 O86 2.951506 1_555
K15 O103 3.057161 1_655
K15 O91 3.135347 1_555
K16 O76 2.951146 1_455
K16 O115 2.958574 1_455
K16 O68 3.081884 1_555
K16 O32 3.120271 1_565
K16 O52 3.138184 1_565
K16 O120 3.196056 1_556
K17 O77 2.951146 1_655
K17 O114 2.958574 1_655
K17 O69 3.081884 1_555
K17 O33 3.120271 1_555
K17 O53 3.138184 1_555
K17 O121 3.196056 1_555
K18 O78 2.951146 1_555
K18 O113 2.958574 1_555
K18 O70 3.081884 1_555
K18 O34 3.120271 1_545
K18 O54 3.138184 1_545
K18 O122 3.196056 1_555
K19 O79 2.951146 1_555
K19 O112 2.958574 1_555
K19 O71 3.081884 1_555
K19 O35 3.120271 1_555
K19 O55 3.138184 1_555
K19 O123 3.196056 1_554
K20 O56 2.791391 1_555
K20 O20 2.953435 1_555
K20 O13 3.020733 1_555
K20 O72 3.024466 1_555
K20 O108 3.149630 1_555
K20 O132 3.347420 1_655
K20 O5 3.353230 1_555
K21 O57 2.791391 1_555
K21 O21 2.953435 1_555
K21 O12 3.020733 1_555
K21 O73 3.024466 1_565
K21 O109 3.149630 1_555
K21 O133 3.347420 1_455
K21 O4 3.353230 1_565
K22 O58 2.791391 1_555
K22 O22 2.953435 1_555
K22 O15 3.020733 1_555
K22 O74 3.024466 1_555
K22 O110 3.149630 1_555
K22 O134 3.347420 1_555
K22 O7 3.353230 1_555
K23 O59 2.791391 1_555
K23 O23 2.953435 1_555
K23 O14 3.020733 1_555
K23 O75 3.024466 1_545
K23 O111 3.149630 1_555
K23 O135 3.347420 1_555
K23 O6 3.353230 1_545
Mg0 O128 2.090008 1_555
Mg0 O13 2.098930 1_555
Mg0 O100 2.108366 1_555
Mg0 O20 2.114382 1_555
Mg0 O89 2.116536 1_555
Mg0 O84 2.130932 1_555
Mg1 O129 2.090008 1_555
Mg1 O12 2.098930 1_555
Mg1 O101 2.108366 1_555
Mg1 O21 2.114382 1_555
Mg1 O88 2.116536 1_555
Mg1 O85 2.130932 1_565
Mg2 O130 2.090008 1_655
Mg2 O15 2.098930 1_555
Mg2 O102 2.108366 1_555
Mg2 O22 2.114382 1_555
Mg2 O91 2.116536 1_555
Mg2 O86 2.130932 1_555
Mg3 O131 2.090008 1_455
Mg3 O14 2.098930 1_555
Mg3 O103 2.108366 1_555
Mg3 O23 2.114382 1_555
Mg3 O90 2.116536 1_555
Mg3 O87 2.130932 1_545
Mg4 O132 2.077645 1_555
Mg4 O52 2.088307 1_555
Mg4 O68 2.097802 1_545
Mg4 O44 2.116398 1_555
Mg4 O8 2.133223 1_555
Mg4 O108 2.187665 1_455
Mg5 O133 2.077645 1_555
Mg5 O53 2.088307 1_555
Mg5 O69 2.097802 1_555
Mg5 O45 2.116398 1_555
Mg5 O9 2.133223 1_555
Mg5 O109 2.187665 1_655
Mg6 O134 2.077645 1_555
Mg6 O54 2.088307 1_555
Mg6 O70 2.097802 1_565
Mg6 O46 2.116398 1_555
Mg6 O10 2.133223 1_555
Mg6 O110 2.187665 1_555
Mg7 O135 2.077645 1_555
Mg7 O55 2.088307 1_555
Mg7 O71 2.097802 1_555
Mg7 O47 2.116398 1_555
Mg7 O11 2.133223 1_555
Mg7 O111 2.187665 1_555
Mg8 O124 2.080589 1_656
Mg8 O16 2.101523 1_555
Mg8 O123 2.103780 1_555
Mg8 O35 2.156826 1_556
Mg8 O56 2.157775 1_555
Mg8 O76 2.176213 1_555
Mg9 O125 2.080589 1_455
Mg9 O17 2.101523 1_555
Mg9 O122 2.103780 1_555
Mg9 O34 2.156826 1_545
Mg9 O57 2.157775 1_545
Mg9 O77 2.176213 1_555
Mg10 O126 2.080589 1_555
Mg10 O18 2.101523 1_555
Mg10 O121 2.103780 1_555
Mg10 O33 2.156826 1_555
Mg10 O58 2.157775 1_555
Mg10 O78 2.176213 1_555
Mg11 O127 2.080589 1_554
Mg11 O19 2.101523 1_555
Mg11 O120 2.103780 1_555
Mg11 O32 2.156826 1_564
Mg11 O59 2.157775 1_565
Mg11 O79 2.176213 1_555
Mg12 O80 2.023139 1_555
Mg12 O0 2.050240 1_655
Mg12 O141 2.105865 1_555
Mg12 O72 2.133057 1_555
Mg12 O104 2.139554 1_555
Mg12 O5 2.181461 1_555
Mg13 O81 2.023139 1_555
Mg13 O1 2.050240 1_455
Mg13 O140 2.105865 1_555
Mg13 O73 2.133057 1_555
Mg13 O105 2.139554 1_555
Mg13 O4 2.181461 1_555
Mg14 O82 2.023139 1_555
Mg14 O2 2.050240 1_555
Mg14 O143 2.105865 1_555
Mg14 O74 2.133057 1_555
Mg14 O106 2.139554 1_555
Mg14 O7 2.181461 1_555
Mg15 O83 2.023139 1_555
Mg15 O3 2.050240 1_555
Mg15 O142 2.105865 1_555
Mg15 O75 2.133057 1_555
Mg15 O107 2.139554 1_555
Mg15 O6 2.181461 1_555
Mg16 O36 2.093997 1_555
Mg16 O28 2.094099 1_555
Mg16 O64 2.112256 1_555
Mg16 O136 2.123360 1_555
Mg16 O116 2.167274 1_555
Mg16 O92 2.203917 1_555
Mg17 O37 2.093997 1_555
Mg17 O29 2.094099 1_555
Mg17 O65 2.112256 1_555
Mg17 O137 2.123360 1_555
Mg17 O117 2.167274 1_555
Mg17 O93 2.203917 1_555
Mg18 O38 2.093997 1_555
Mg18 O30 2.094099 1_555
Mg18 O66 2.112256 1_555
Mg18 O138 2.123360 1_555
Mg18 O118 2.167274 1_555
Mg18 O94 2.203917 1_555
Mg19 O39 2.093997 1_555
Mg19 O31 2.094099 1_555
Mg19 O67 2.112256 1_555
Mg19 O139 2.123360 1_555
Mg19 O119 2.167274 1_555
Mg19 O95 2.203917 1_555
Mg20 O96 2.036859 1_555
Mg20 O51 2.058541 1_556
Mg20 O24 2.117646 1_555
Mg20 O40 2.132384 1_555
Mg20 O115 2.148847 1_545
Mg20 O60 2.151980 1_555
Mg21 O97 2.036859 1_555
Mg21 O50 2.058541 1_555
Mg21 O25 2.117646 1_555
Mg21 O41 2.132384 1_555
Mg21 O114 2.148847 1_555
Mg21 O61 2.151980 1_555
Mg22 O98 2.036859 1_555
Mg22 O49 2.058541 1_555
Mg22 O26 2.117646 1_555
Mg22 O42 2.132384 1_555
Mg22 O113 2.148847 1_565
Mg22 O62 2.151980 1_555
Mg23 O99 2.036859 1_555
Mg23 O48 2.058541 1_554
Mg23 O27 2.117646 1_555
Mg23 O43 2.132384 1_555
Mg23 O112 2.148847 1_555
Mg23 O63 2.151980 1_555
Mo0 O0 1.790732 1_545
Mo0 O12 1.790854 1_545
Mo0 O8 1.798896 1_555
Mo0 O4 1.799033 1_555
Mo1 O1 1.790732 1_555
Mo1 O13 1.790854 1_555
Mo1 O9 1.798896 1_555
Mo1 O5 1.799033 1_555
Mo2 O2 1.790732 1_565
Mo2 O14 1.790854 1_565
Mo2 O10 1.798896 1_555
Mo2 O6 1.799033 1_555
Mo3 O3 1.790732 1_555
Mo3 O15 1.790854 1_555
Mo3 O11 1.798896 1_555
Mo3 O7 1.799033 1_555
Mo4 O24 1.790271 1_555
Mo4 O28 1.793502 1_555
Mo4 O20 1.796743 1_555
Mo4 O16 1.804037 1_555
Mo5 O25 1.790271 1_555
Mo5 O29 1.793502 1_565
Mo5 O21 1.796743 1_555
Mo5 O17 1.804037 1_565
Mo6 O26 1.790271 1_555
Mo6 O30 1.793502 1_655
Mo6 O22 1.796743 1_555
Mo6 O18 1.804037 1_555
Mo7 O27 1.790271 1_555
Mo7 O31 1.793502 1_445
Mo7 O23 1.796743 1_555
Mo7 O19 1.804037 1_545
Mo8 O36 1.793813 1_555
Mo8 O44 1.800424 1_565
Mo8 O40 1.806062 1_565
Mo8 O32 1.809481 1_565
Mo9 O37 1.793813 1_555
Mo9 O45 1.800424 1_555
Mo9 O41 1.806062 1_555
Mo9 O33 1.809481 1_555
Mo10 O38 1.793813 1_555
Mo10 O46 1.800424 1_545
Mo10 O42 1.806062 1_445
Mo10 O34 1.809481 1_545
Mo11 O39 1.793813 1_555
Mo11 O47 1.800424 1_555
Mo11 O43 1.806062 1_655
Mo11 O35 1.809481 1_555
Mo12 O48 1.788803 1_655
Mo12 O52 1.790632 1_655
Mo12 O60 1.797516 1_555
Mo12 O56 1.805127 1_555
Mo13 O49 1.788803 1_455
Mo13 O53 1.790632 1_455
Mo13 O61 1.797516 1_555
Mo13 O57 1.805127 1_555
Mo14 O50 1.788803 1_555
Mo14 O54 1.790632 1_555
Mo14 O62 1.797516 1_555
Mo14 O58 1.805127 1_555
Mo15 O51 1.788803 1_555
Mo15 O55 1.790632 1_555
Mo15 O63 1.797516 1_555
Mo15 O59 1.805127 1_555
Mo16 O72 1.793802 1_455
Mo16 O64 1.794026 1_555
Mo16 O68 1.797239 1_555
Mo16 O76 1.801902 1_455
Mo17 O73 1.793802 1_655
Mo17 O65 1.794026 1_555
Mo17 O69 1.797239 1_555
Mo17 O77 1.801902 1_655
Mo18 O74 1.793802 1_555
Mo18 O66 1.794026 1_555
Mo18 O70 1.797239 1_555
Mo18 O78 1.801902 1_555
Mo19 O75 1.793802 1_555
Mo19 O67 1.794026 1_555
Mo19 O71 1.797239 1_555
Mo19 O79 1.801902 1_555
Mo20 O80 1.773795 1_555
Mo20 O88 1.802986 1_555
Mo20 O84 1.803781 1_555
Mo20 O92 1.803927 1_555
Mo21 O81 1.773795 1_555
Mo21 O89 1.802986 1_555
Mo21 O85 1.803781 1_555
Mo21 O93 1.803927 1_555
Mo22 O82 1.773795 1_555
Mo22 O90 1.802986 1_655
Mo22 O86 1.803781 1_555
Mo22 O94 1.803927 1_655
Mo23 O83 1.773795 1_555
Mo23 O91 1.802986 1_455
Mo23 O87 1.803781 1_555
Mo23 O95 1.803927 1_455
Mo24 O96 1.779767 1_555
Mo24 O104 1.800220 1_545
Mo24 O100 1.801859 1_555
Mo24 O108 1.803099 1_555
Mo25 O97 1.779767 1_555
Mo25 O105 1.800220 1_555
Mo25 O101 1.801859 1_555
Mo25 O109 1.803099 1_555
Mo26 O98 1.779767 1_555
Mo26 O106 1.800220 1_565
Mo26 O102 1.801859 1_555
Mo26 O110 1.803099 1_555
Mo27 O99 1.779767 1_555
Mo27 O107 1.800220 1_555
Mo27 O103 1.801859 1_555
Mo27 O111 1.803099 1_555
Mo28 O120 1.785318 1_556
Mo28 O124 1.797660 1_556
Mo28 O116 1.799554 1_555
Mo28 O112 1.803663 1_556
Mo29 O121 1.785318 1_555
Mo29 O125 1.797660 1_555
Mo29 O117 1.799554 1_555
Mo29 O113 1.803663 1_555
Mo30 O122 1.785318 1_555
Mo30 O126 1.797660 1_555
Mo30 O118 1.799554 1_555
Mo30 O114 1.803663 1_555
Mo31 O123 1.785318 1_554
Mo31 O127 1.797660 1_554
Mo31 O119 1.799554 1_555
Mo31 O115 1.803663 1_554
Mo32 O136 1.790382 1_555
Mo32 O132 1.792807 1_555
Mo32 O140 1.798074 1_555
Mo32 O128 1.809226 1_555
Mo33 O137 1.790382 1_565
Mo33 O133 1.792807 1_555
Mo33 O141 1.798074 1_555
Mo33 O129 1.809226 1_555
Mo34 O138 1.790382 1_555
Mo34 O134 1.792807 1_555
Mo34 O142 1.798074 1_555
Mo34 O130 1.809226 1_555
Mo35 O139 1.790382 1_545
Mo35 O135 1.792807 1_555
Mo35 O143 1.798074 1_555
Mo35 O131 1.809226 1_555
