# generated using pymatgen
data_Te2H18N4O11
_symmetry_space_group_name_H-M   'P 1'
_cell_length_a   6.83687336
_cell_length_b   6.83687336
_cell_length_c   16.77183033
_cell_angle_alpha   79.04124883
_cell_angle_beta   79.04124883
_cell_angle_gamma   61.90661290
_symmetry_Int_Tables_number   1
_chemical_formula_structural   Te2H18N4O11
_chemical_formula_sum   'Te4 H36 N8 O22'
_cell_volume   674.39146221
_cell_formula_units_Z   2
loop_
 _symmetry_equiv_pos_site_id
 _symmetry_equiv_pos_as_xyz
  1  'x, y, z'
loop_
 _atom_site_type_symbol
 _atom_site_label
 _atom_site_symmetry_multiplicity
 _atom_site_fract_x
 _atom_site_fract_y
 _atom_site_fract_z
 _atom_site_occupancy
  Te  Te0  1  0.95962200  0.98076100  0.85208500  1
  Te  Te1  1  0.01923900  0.04037800  0.64791500  1
  Te  Te2  1  0.04037800  0.01923900  0.14791500  1
  Te  Te3  1  0.98076100  0.95962200  0.35208500  1
  H  H0  1  0.77483700  0.14065500  0.98538200  1
  H  H1  1  0.85934500  0.22516300  0.51461800  1
  H  H2  1  0.22516300  0.85934500  0.01461800  1
  H  H3  1  0.14065500  0.77483700  0.48538200  1
  H  H4  1  0.66907100  0.53195000  0.81647400  1
  H  H5  1  0.46805000  0.33092900  0.68352600  1
  H  H6  1  0.33092900  0.46805000  0.18352600  1
  H  H7  1  0.53195000  0.66907100  0.31647400  1
  H  H8  1  0.62470100  0.78104400  0.76324600  1
  H  H9  1  0.21895600  0.37529900  0.73675400  1
  H  H10  1  0.37529900  0.21895600  0.23675400  1
  H  H11  1  0.78104400  0.62470100  0.26324600  1
  H  H12  1  0.45100300  0.77753000  0.85020000  1
  H  H13  1  0.22247000  0.54899700  0.64980000  1
  H  H14  1  0.54899700  0.22247000  0.14980000  1
  H  H15  1  0.77753000  0.45100300  0.35020000  1
  H  H16  1  0.72948500  0.70897400  0.85202900  1
  H  H17  1  0.29102600  0.27051500  0.64797100  1
  H  H18  1  0.27051500  0.29102600  0.14797100  1
  H  H19  1  0.70897400  0.72948500  0.35202900  1
  H  H20  1  0.84819200  0.53458000  0.08556100  1
  H  H21  1  0.46542000  0.15180800  0.41443900  1
  H  H22  1  0.15180800  0.46542000  0.91443900  1
  H  H23  1  0.53458000  0.84819200  0.58556100  1
  H  H24  1  0.80127300  0.71636900  0.99876400  1
  H  H25  1  0.28363100  0.19872700  0.50123600  1
  H  H26  1  0.19872700  0.28363100  0.00123600  1
  H  H27  1  0.71636900  0.80127300  0.49876400  1
  H  H28  1  0.57683000  0.73495700  0.06890200  1
  H  H29  1  0.26504300  0.42317000  0.43109800  1
  H  H30  1  0.42317000  0.26504300  0.93109800  1
  H  H31  1  0.73495700  0.57683000  0.56890200  1
  H  H32  1  0.76400900  0.81595900  0.08741600  1
  H  H33  1  0.18404100  0.23599100  0.41258400  1
  H  H34  1  0.23599100  0.18404100  0.91258400  1
  H  H35  1  0.81595900  0.76400900  0.58741600  1
  N  N0  1  0.61518400  0.69762300  0.82070800  1
  N  N1  1  0.30237700  0.38481600  0.67929200  1
  N  N2  1  0.38481600  0.30237700  0.17929200  1
  N  N3  1  0.69762300  0.61518400  0.32070800  1
  N  N4  1  0.74459200  0.69958700  0.06143800  1
  N  N5  1  0.30041300  0.25540800  0.43856200  1
  N  N6  1  0.25540800  0.30041300  0.93856200  1
  N  N7  1  0.69958700  0.74459200  0.56143800  1
  O  O0  1  0.98056500  0.26743800  0.78708700  1
  O  O1  1  0.73256200  0.01943500  0.71291300  1
  O  O2  1  0.01943500  0.73256200  0.21291300  1
  O  O3  1  0.26743800  0.98056500  0.28708700  1
  O  O4  1  0.67837500  0.10318800  0.79149900  1
  O  O5  1  0.89681200  0.32162500  0.70850100  1
  O  O6  1  0.32162500  0.89681200  0.20850100  1
  O  O7  1  0.10318800  0.67837500  0.29149900  1
  O  O8  1  0.14786200  0.85213800  0.75000000  1
  O  O9  1  0.85213800  0.14786200  0.25000000  1
  O  O10  1  0.92920400  0.72075100  0.89739900  1
  O  O11  1  0.27924900  0.07079600  0.60260100  1
  O  O12  1  0.07079500  0.27924900  0.10260100  1
  O  O13  1  0.72075100  0.92920400  0.39739900  1
  O  O14  1  0.72246700  0.18129700  0.93003700  1
  O  O15  1  0.81870300  0.27753300  0.56996300  1
  O  O16  1  0.27753300  0.81870300  0.06996300  1
  O  O17  1  0.18129700  0.72246700  0.43003700  1
  O  O18  1  0.19849000  0.93627200  0.90493700  1
  O  O19  1  0.06372800  0.80151000  0.59506300  1
  O  O20  1  0.80150900  0.06372800  0.09506300  1
  O  O21  1  0.93627200  0.19849000  0.40493700  1
loop_
_geom_bond_atom_site_label_1
_geom_bond_atom_site_label_2
_geom_bond_distance
_geom_bond_site_symmetry_2
H0 O14 1.000814 1_555
H1 O15 1.000814 1_555
H2 O16 1.000814 1_555
H3 O17 1.000814 1_555
H4 N0 1.025359 1_555
H5 N1 1.025359 1_555
H6 N2 1.025359 1_555
H7 N3 1.025359 1_555
H8 N0 1.029780 1_555
H9 N1 1.029780 1_555
H10 N2 1.029780 1_555
H11 N3 1.029780 1_555
H12 N0 1.056971 1_555
H13 N1 1.056971 1_555
H14 N2 1.056971 1_555
H15 N3 1.056971 1_555
H16 N0 1.058938 1_555
H16 O10 1.723907 1_555
H17 N1 1.058938 1_555
H17 O11 1.723907 1_555
H18 N2 1.058938 1_555
H18 O12 1.723914 1_555
H19 N3 1.058938 1_555
H19 O13 1.723907 1_555
H20 N4 1.058732 1_555
H20 O12 1.708433 1_655
H21 N5 1.058732 1_555
H21 O13 1.708436 1_545
H22 N6 1.058732 1_555
H22 O10 1.708436 1_455
H23 N7 1.058732 1_555
H23 O11 1.708436 1_565
H24 N4 1.053288 1_556
H24 O10 1.759582 1_555
H25 N5 1.053288 1_555
H25 O11 1.759582 1_555
H26 N6 1.053288 1_554
H26 O12 1.759584 1_555
H27 N7 1.053288 1_555
H27 O13 1.759582 1_555
H28 N4 1.041815 1_555
H29 N5 1.041815 1_555
H30 N6 1.041815 1_555
H31 N7 1.041815 1_555
H32 N4 1.045817 1_555
H33 N5 1.045817 1_555
H34 N6 1.045817 1_555
H35 N7 1.045817 1_555
O0 O5 1.450461 1_555
O0 Te0 2.107843 1_545
O1 O4 1.450461 1_555
O1 Te1 2.107843 1_655
O2 O7 1.450461 1_555
O2 Te2 2.107843 1_565
O3 O6 1.450461 1_555
O3 Te3 2.107843 1_455
O4 Te0 2.081866 1_545
O5 Te1 2.081866 1_655
O6 Te2 2.081866 1_565
O7 Te3 2.081866 1_455
O8 Te1 2.007448 1_565
O8 Te0 2.007448 1_455
O9 Te3 2.007448 1_545
O9 Te2 2.007448 1_655
O10 Te0 1.885559 1_555
O11 Te1 1.885559 1_555
O12 Te2 1.885555 1_555
O13 Te3 1.885559 1_555
O14 Te0 1.999964 1_545
O15 Te1 1.999964 1_655
O16 Te2 1.999964 1_565
O17 Te3 1.999964 1_455
O18 Te0 1.877595 1_455
O19 Te1 1.877595 1_565
O20 Te2 1.877601 1_655
O21 Te3 1.877595 1_545
