# generated using pymatgen
data_Ce4B14O27
_symmetry_space_group_name_H-M   'P 1'
_cell_length_a   6.47971480
_cell_length_b   6.49306476
_cell_length_c   25.34102501
_cell_angle_alpha   84.31081711
_cell_angle_beta   82.65461359
_cell_angle_gamma   60.06798975
_symmetry_Int_Tables_number   1
_chemical_formula_structural   Ce4B14O27
_chemical_formula_sum   'Ce8 B28 O54'
_cell_volume   915.61191935
_cell_formula_units_Z   2
loop_
 _symmetry_equiv_pos_site_id
 _symmetry_equiv_pos_as_xyz
  1  'x, y, z'
loop_
 _atom_site_type_symbol
 _atom_site_label
 _atom_site_symmetry_multiplicity
 _atom_site_fract_x
 _atom_site_fract_y
 _atom_site_fract_z
 _atom_site_occupancy
  Ce  Ce0  1  0.26213799  0.34655851  0.31556215  1
  Ce  Ce1  1  0.92425865  0.15344149  0.18443785  1
  Ce  Ce2  1  0.73786201  0.65344149  0.68443785  1
  Ce  Ce3  1  0.07574135  0.84655851  0.81556215  1
  Ce  Ce4  1  0.34992331  0.74310554  0.05625838  1
  Ce  Ce5  1  0.14928724  0.75689446  0.44374162  1
  Ce  Ce6  1  0.65007669  0.25689446  0.94374162  1
  Ce  Ce7  1  0.85071276  0.24310554  0.55625838  1
  B  B0  1  0.35997715  0.61145297  0.20530883  1
  B  B1  1  0.17673896  0.88854703  0.29469117  1
  B  B2  1  0.64002285  0.38854703  0.79469117  1
  B  B3  1  0.82326104  0.11145297  0.70530883  1
  B  B4  1  0.35984149  0.26086365  0.17488087  1
  B  B5  1  0.79558602  0.23913635  0.32511913  1
  B  B6  1  0.64015851  0.73913635  0.82511913  1
  B  B7  1  0.20441398  0.76086365  0.67488087  1
  B  B8  1  0.83498713  0.84743065  0.35098041  1
  B  B9  1  0.03339820  0.65256935  0.14901959  1
  B  B10  1  0.16501287  0.15256935  0.64901959  1
  B  B11  1  0.96660180  0.34743065  0.85098041  1
  B  B12  1  0.63294936  0.76644395  0.44545955  1
  B  B13  1  0.84485286  0.73355605  0.05454045  1
  B  B14  1  0.36705064  0.23355605  0.55454045  1
  B  B15  1  0.15514714  0.26644395  0.94545955  1
  B  B16  1  0.54848550  0.16409153  0.07743633  1
  B  B17  1  0.79001336  0.33590847  0.42256367  1
  B  B18  1  0.45151450  0.83590847  0.92256367  1
  B  B19  1  0.20998664  0.66409153  0.57743633  1
  B  B20  1  0.31064222  0.21176824  0.45310254  1
  B  B21  1  0.97551300  0.28823176  0.04689746  1
  B  B22  1  0.68935778  0.78823176  0.54689746  1
  B  B23  1  0.02448700  0.71176824  0.95310254  1
  B  B24  1  0.60397595  0.67977123  0.31352424  1
  B  B25  1  0.59727143  0.82022877  0.18647576  1
  B  B26  1  0.39602405  0.32022877  0.68647576  1
  B  B27  1  0.40272857  0.17977123  0.81352424  1
  O  O0  1  0.20387569  0.75000000  0.25000000  1
  O  O1  1  0.79612431  0.25000000  0.75000000  1
  O  O2  1  0.21870755  0.71681884  0.15786634  1
  O  O3  1  0.09339273  0.78318116  0.34213366  1
  O  O4  1  0.78129245  0.28318116  0.84213366  1
  O  O5  1  0.90660727  0.21681884  0.65786634  1
  O  O6  1  0.59391592  0.60846527  0.19279555  1
  O  O7  1  0.39517674  0.89153473  0.30720445  1
  O  O8  1  0.40608408  0.39153473  0.80720445  1
  O  O9  1  0.60482326  0.10846527  0.69279555  1
  O  O10  1  0.43046763  0.35402325  0.21666654  1
  O  O11  1  0.00115743  0.14597675  0.28333346  1
  O  O12  1  0.56953237  0.64597675  0.78333346  1
  O  O13  1  0.99884257  0.85402325  0.71666654  1
  O  O14  1  0.68354999  0.08836329  0.33094807  1
  O  O15  1  0.10286135  0.41163671  0.16905193  1
  O  O16  1  0.31645001  0.91163671  0.66905193  1
  O  O17  1  0.89713865  0.58836329  0.83094807  1
  O  O18  1  0.60081417  0.47218956  0.30937665  1
  O  O19  1  0.38238038  0.02781044  0.19062335  1
  O  O20  1  0.39918583  0.52781044  0.69062335  1
  O  O21  1  0.61761962  0.97218956  0.80937665  1
  O  O22  1  0.51184352  0.25969837  0.12641476  1
  O  O23  1  0.89795665  0.24030163  0.37358524  1
  O  O24  1  0.48815648  0.74030163  0.87358524  1
  O  O25  1  0.10204335  0.75969837  0.62641476  1
  O  O26  1  0.81301345  0.67196639  0.32205833  1
  O  O27  1  0.80703817  0.82803361  0.17794167  1
  O  O28  1  0.18698655  0.32803361  0.67794167  1
  O  O29  1  0.19296183  0.17196639  0.82205833  1
  O  O30  1  0.79676730  0.81649722  0.40925729  1
  O  O31  1  0.02252181  0.68350278  0.09074271  1
  O  O32  1  0.20323270  0.18350278  0.59074271  1
  O  O33  1  0.97747819  0.31649722  0.90925729  1
  O  O34  1  0.60093397  0.57268351  0.42644061  1
  O  O35  1  0.60005808  0.92731649  0.07355939  1
  O  O36  1  0.39906603  0.42731649  0.57355939  1
  O  O37  1  0.39994192  0.07268351  0.92644061  1
  O  O38  1  0.38888287  0.96951913  0.44969712  1
  O  O39  1  0.80809912  0.53048087  0.05030288  1
  O  O40  1  0.61111713  0.03048087  0.55030288  1
  O  O41  1  0.19190088  0.46951913  0.94969712  1
  O  O42  1  0.73750164  0.68474804  0.49786619  1
  O  O43  1  0.92011586  0.81525196  0.00213381  1
  O  O44  1  0.26249836  0.31525196  0.50213381  1
  O  O45  1  0.07988414  0.18474804  0.99786619  1
  O  O46  1  0.26546695  0.36187902  0.40942390  1
  O  O47  1  0.03676987  0.13812098  0.09057610  1
  O  O48  1  0.73453305  0.63812098  0.59057610  1
  O  O49  1  0.96323013  0.86187902  0.90942390  1
  O  O50  1  0.53627193  0.30729567  0.03403726  1
  O  O51  1  0.87760486  0.19270433  0.46596274  1
  O  O52  1  0.46372807  0.69270433  0.96596274  1
  O  O53  1  0.12239514  0.80729567  0.53403726  1
loop_
_geom_bond_atom_site_label_1
_geom_bond_atom_site_label_2
_geom_bond_distance
_geom_bond_site_symmetry_2
Ce0 O46 2.393752 1_555
Ce0 O14 2.448090 1_555
Ce0 O26 2.602084 1_455
Ce0 O3 2.604424 1_555
Ce0 O10 2.608136 1_555
Ce0 O7 2.655698 1_545
Ce0 O18 2.679380 1_555
Ce0 O11 2.825764 1_555
Ce0 O0 2.841752 1_555
Ce0 O23 2.956856 1_455
Ce1 O47 2.393752 1_655
Ce1 O15 2.448090 1_655
Ce1 O27 2.602084 1_545
Ce1 O2 2.604424 1_645
Ce1 O11 2.608136 1_655
Ce1 O6 2.655698 1_555
Ce1 O19 2.679380 1_655
Ce1 O10 2.825764 1_555
Ce1 O0 2.841752 1_645
Ce1 O22 2.956856 1_555
Ce2 O48 2.393752 1_555
Ce2 O16 2.448090 1_555
Ce2 O28 2.602084 1_655
Ce2 O5 2.604424 1_555
Ce2 O12 2.608136 1_555
Ce2 O9 2.655698 1_565
Ce2 O20 2.679380 1_555
Ce2 O13 2.825764 1_555
Ce2 O1 2.841752 1_555
Ce2 O25 2.956856 1_655
Ce3 O49 2.393752 1_455
Ce3 O17 2.448090 1_455
Ce3 O29 2.602084 1_565
Ce3 O4 2.604424 1_465
Ce3 O13 2.608136 1_455
Ce3 O8 2.655698 1_555
Ce3 O21 2.679380 1_455
Ce3 O12 2.825764 1_555
Ce3 O1 2.841752 1_465
Ce3 O24 2.956856 1_555
Ce4 O52 2.315783 1_554
Ce4 O31 2.385851 1_555
Ce4 O47 2.499893 1_565
Ce4 O35 2.543653 1_555
Ce4 O50 2.552403 1_555
Ce4 O39 2.565010 1_555
Ce4 O2 2.622936 1_555
Ce5 O53 2.315783 1_555
Ce5 O30 2.385851 1_455
Ce5 O46 2.499893 1_555
Ce5 O34 2.543653 1_555
Ce5 O51 2.552403 1_465
Ce5 O38 2.565010 1_555
Ce5 O3 2.622936 1_555
Ce6 O50 2.315783 1_556
Ce6 O33 2.385851 1_555
Ce6 O49 2.499893 1_545
Ce6 O37 2.543653 1_555
Ce6 O52 2.552403 1_555
Ce6 O41 2.565010 1_555
Ce6 O4 2.622936 1_555
Ce7 O51 2.315783 1_555
Ce7 O32 2.385851 1_655
Ce7 O48 2.499893 1_555
Ce7 O36 2.543653 1_555
Ce7 O53 2.552403 1_645
Ce7 O40 2.565010 1_555
Ce7 O5 2.622936 1_555
B0 O0 1.454650 1_555
B0 O2 1.498243 1_555
B0 O6 1.499238 1_555
B0 O10 1.503906 1_555
B1 O0 1.454650 1_555
B1 O3 1.498243 1_555
B1 O7 1.499238 1_555
B1 O11 1.503906 1_565
B2 O1 1.454650 1_555
B2 O4 1.498243 1_555
B2 O8 1.499238 1_555
B2 O12 1.503906 1_555
B3 O1 1.454650 1_555
B3 O5 1.498243 1_555
B3 O9 1.499238 1_555
B3 O13 1.503906 1_545
B4 O19 1.464583 1_555
B4 O15 1.469826 1_555
B4 O22 1.470940 1_555
B4 O10 1.491217 1_555
B5 O18 1.464583 1_555
B5 O14 1.469826 1_555
B5 O23 1.470940 1_555
B5 O11 1.491217 1_655
B6 O21 1.464583 1_555
B6 O17 1.469826 1_555
B6 O24 1.470940 1_555
B6 O12 1.491217 1_555
B7 O20 1.464583 1_555
B7 O16 1.469826 1_555
B7 O25 1.470940 1_555
B7 O13 1.491217 1_455
B8 O14 1.451171 1_565
B8 O30 1.476453 1_555
B8 O26 1.486460 1_555
B8 O3 1.501123 1_655
B9 O15 1.451171 1_555
B9 O31 1.476453 1_555
B9 O27 1.486460 1_455
B9 O2 1.501123 1_555
B10 O16 1.451171 1_545
B10 O32 1.476453 1_555
B10 O28 1.486460 1_555
B10 O5 1.501123 1_455
B11 O17 1.451171 1_555
B11 O33 1.476453 1_555
B11 O29 1.486460 1_655
B11 O4 1.501123 1_555
B12 O30 1.452645 1_555
B12 O38 1.467956 1_555
B12 O42 1.495256 1_555
B12 O34 1.504784 1_555
B13 O31 1.452645 1_655
B13 O39 1.467956 1_555
B13 O43 1.495255 1_555
B13 O35 1.504784 1_555
B14 O32 1.452645 1_555
B14 O40 1.467956 1_555
B14 O44 1.495256 1_555
B14 O36 1.504784 1_555
B15 O33 1.452645 1_455
B15 O41 1.467956 1_555
B15 O45 1.495255 1_555
B15 O37 1.504784 1_555
B16 O50 1.351457 1_555
B16 O22 1.382949 1_555
B16 O35 1.412005 1_545
B17 O51 1.351457 1_555
B17 O23 1.382949 1_555
B17 O34 1.412005 1_555
B18 O52 1.351457 1_555
B18 O24 1.382949 1_555
B18 O37 1.412005 1_565
B19 O53 1.351457 1_555
B19 O25 1.382949 1_555
B19 O36 1.412005 1_555
B20 O46 1.358329 1_555
B20 O44 1.396369 1_555
B20 O38 1.399475 1_545
B21 O47 1.358329 1_655
B21 O45 1.396369 1_654
B21 O39 1.399475 1_555
B22 O48 1.358329 1_555
B22 O42 1.396369 1_555
B22 O40 1.399475 1_565
B23 O49 1.358329 1_455
B23 O43 1.396369 1_456
B23 O41 1.399475 1_555
B24 O18 1.372712 1_555
B24 O26 1.374134 1_555
B24 O7 1.379136 1_555
B25 O19 1.372712 1_565
B25 O27 1.374134 1_555
B25 O6 1.379136 1_555
B26 O20 1.372712 1_555
B26 O28 1.374134 1_555
B26 O9 1.379136 1_555
B27 O21 1.372712 1_545
B27 O29 1.374134 1_555
B27 O8 1.379136 1_555
