# generated using pymatgen
data_PrPt
_symmetry_space_group_name_H-M   'P 1'
_cell_length_a   4.61913110
_cell_length_b   5.74409185
_cell_length_c   7.41845162
_cell_angle_alpha   90.00000000
_cell_angle_beta   90.00000000
_cell_angle_gamma   90.00000000
_symmetry_Int_Tables_number   1
_chemical_formula_structural   PrPt
_chemical_formula_sum   'Pr4 Pt4'
_cell_volume   196.83165000
_cell_formula_units_Z   4
loop_
 _symmetry_equiv_pos_site_id
 _symmetry_equiv_pos_as_xyz
  1  'x, y, z'
loop_
 _atom_site_type_symbol
 _atom_site_label
 _atom_site_symmetry_multiplicity
 _atom_site_fract_x
 _atom_site_fract_y
 _atom_site_fract_z
 _atom_site_occupancy
  Pr  Pr0  1  0.25000000  0.36194675  0.68312850  1
  Pr  Pr1  1  0.25000000  0.13805325  0.18312850  1
  Pr  Pr2  1  0.75000000  0.63805325  0.31687150  1
  Pr  Pr3  1  0.75000000  0.86194675  0.81687150  1
  Pt  Pt0  1  0.25000000  0.84745973  0.54441954  1
  Pt  Pt1  1  0.25000000  0.65254027  0.04441954  1
  Pt  Pt2  1  0.75000000  0.15254027  0.45558046  1
  Pt  Pt3  1  0.75000000  0.34745973  0.95558046  1
loop_
_geom_bond_atom_site_label_1
_geom_bond_atom_site_label_2
_geom_bond_distance
_geom_bond_site_symmetry_2
Pr0 Pt0 2.972614 1_555
Pr0 Pt3 3.070204 1_455
Pr0 Pt3 3.070204 1_555
Pr0 Pt2 3.103300 1_455
Pr0 Pt2 3.103300 1_555
Pr0 Pt0 3.129284 1_545
Pr0 Pt1 3.157498 1_556
Pr1 Pt1 2.972614 1_545
Pr1 Pt2 3.070204 1_555
Pr1 Pt2 3.070204 1_455
Pr1 Pt3 3.103300 1_554
Pr1 Pt3 3.103300 1_454
Pr1 Pt1 3.129284 1_555
Pr1 Pt0 3.157498 1_545
Pr2 Pt2 2.972614 1_555
Pr2 Pt1 3.070204 1_555
Pr2 Pt1 3.070204 1_655
Pr2 Pt0 3.103300 1_655
Pr2 Pt0 3.103300 1_555
Pr2 Pt2 3.129284 1_565
Pr2 Pt3 3.157498 1_554
Pr3 Pt3 2.972614 1_565
Pr3 Pt0 3.070204 1_555
Pr3 Pt0 3.070204 1_655
Pr3 Pt1 3.103300 1_656
Pr3 Pt1 3.103300 1_556
Pr3 Pt3 3.129284 1_555
Pr3 Pt2 3.157498 1_565
