# generated using pymatgen
data_BaYSi4N7
_symmetry_space_group_name_H-M   'P 1'
_cell_length_a   6.10545377
_cell_length_b   6.10545377
_cell_length_c   9.94432100
_cell_angle_alpha   90.00000000
_cell_angle_beta   90.00000000
_cell_angle_gamma   119.99999751
_symmetry_Int_Tables_number   1
_chemical_formula_structural   BaYSi4N7
_chemical_formula_sum   'Ba2 Y2 Si8 N14'
_cell_volume   321.02708231
_cell_formula_units_Z   2
loop_
 _symmetry_equiv_pos_site_id
 _symmetry_equiv_pos_as_xyz
  1  'x, y, z'
loop_
 _atom_site_type_symbol
 _atom_site_label
 _atom_site_symmetry_multiplicity
 _atom_site_fract_x
 _atom_site_fract_y
 _atom_site_fract_z
 _atom_site_occupancy
  Ba  Ba0  1  0.33333300  0.66666700  0.36290600  1
  Ba  Ba1  1  0.66666700  0.33333300  0.86290600  1
  Y  Y0  1  0.33333300  0.66666700  0.73624300  1
  Y  Y1  1  0.66666700  0.33333300  0.23624300  1
  Si  Si0  1  0.82561200  0.65122300  0.54607200  1
  Si  Si1  1  0.17438800  0.82561200  0.04607200  1
  Si  Si2  1  0.65122300  0.82561200  0.04607200  1
  Si  Si3  1  0.34877700  0.17438800  0.54607200  1
  Si  Si4  1  0.82561200  0.17438800  0.54607200  1
  Si  Si5  1  0.17438800  0.34877700  0.04607200  1
  Si  Si6  1  0.00000000  0.00000000  0.81483400  1
  Si  Si7  1  0.00000000  0.00000000  0.31483400  1
  N  N0  1  0.00000000  0.00000000  0.62371200  1
  N  N1  1  0.00000000  0.00000000  0.12371200  1
  N  N2  1  0.15255200  0.30510400  0.87413000  1
  N  N3  1  0.84744800  0.15255200  0.37413000  1
  N  N4  1  0.30510400  0.15255200  0.37413000  1
  N  N5  1  0.69489600  0.84744800  0.87413000  1
  N  N6  1  0.15255200  0.84744800  0.87413000  1
  N  N7  1  0.84744800  0.69489600  0.37413000  1
  N  N8  1  0.97505700  0.48752900  0.59853300  1
  N  N9  1  0.48752900  0.97505700  0.09853300  1
  N  N10  1  0.48752900  0.51247100  0.09853300  1
  N  N11  1  0.51247100  0.48752900  0.59853300  1
  N  N12  1  0.02494300  0.51247100  0.09853300  1
  N  N13  1  0.51247100  0.02494300  0.59853300  1
loop_
_geom_bond_atom_site_label_1
_geom_bond_atom_site_label_2
_geom_bond_distance
_geom_bond_site_symmetry_2
Ba0 N11 3.013141 1_555
Ba0 N13 3.013141 1_565
Ba0 N8 3.013141 1_455
Ba0 N4 3.058408 1_565
Ba0 N7 3.058408 1_455
Ba0 N3 3.058411 1_455
Ba0 N3 3.058411 1_565
Ba0 N7 3.058414 1_555
Ba0 N4 3.058414 1_555
Ba0 N9 3.093633 1_555
Ba0 N12 3.093633 1_555
Ba0 N10 3.093639 1_555
Ba1 N10 3.013141 1_556
Ba1 N12 3.013141 1_656
Ba1 N9 3.013141 1_546
Ba1 N2 3.058408 1_655
Ba1 N5 3.058408 1_545
Ba1 N6 3.058411 1_545
Ba1 N6 3.058411 1_655
Ba1 N5 3.058414 1_555
Ba1 N2 3.058414 1_555
Ba1 N13 3.093633 1_555
Ba1 N8 3.093633 1_555
Ba1 N11 3.093639 1_555
N0 Si6 1.900579 1_555
N0 Si4 1.999244 1_455
N0 Si3 1.999249 1_555
N0 Si0 1.999249 1_445
N1 Si7 1.900579 1_555
N1 Si1 1.999244 1_545
N1 Si5 1.999249 1_555
N1 Si2 1.999249 1_445
N2 Si6 1.717618 1_555
N2 Si5 1.725369 1_556
N2 Y0 2.352654 1_555
N3 Si7 1.717618 1_655
N3 Si4 1.725369 1_555
N3 Y1 2.352650 1_555
N4 Si7 1.717618 1_555
N4 Si3 1.725369 1_555
N4 Y1 2.352654 1_555
N5 Si6 1.717618 1_665
N5 Si2 1.725369 1_556
N5 Y0 2.352654 1_555
N6 Si6 1.717618 1_565
N6 Si1 1.725369 1_556
N6 Y0 2.352650 1_555
N7 Si7 1.717618 1_665
N7 Si0 1.725369 1_555
N7 Y1 2.352654 1_555
N8 Si0 1.736504 1_555
N8 Si4 1.736514 1_555
N8 Y0 2.337522 1_655
N9 Si2 1.736504 1_555
N9 Si1 1.736514 1_555
N9 Y1 2.337522 1_565
N10 Si5 1.736514 1_555
N10 Si2 1.736514 1_555
N10 Y1 2.337522 1_555
N11 Si3 1.736514 1_555
N11 Si0 1.736514 1_555
N11 Y0 2.337522 1_555
N12 Si5 1.736504 1_555
N12 Si1 1.736514 1_555
N12 Y1 2.337522 1_455
N13 Si3 1.736504 1_555
N13 Si4 1.736514 1_555
N13 Y0 2.337522 1_545
