# generated using pymatgen
data_Na3Zn2(MoO4)3
_symmetry_space_group_name_H-M   'P 1'
_cell_length_a   9.33079417
_cell_length_b   9.33079417
_cell_length_c   7.31467846
_cell_angle_alpha   74.50425564
_cell_angle_beta   74.50425564
_cell_angle_gamma   97.93368531
_symmetry_Int_Tables_number   1
_chemical_formula_structural   Na3Zn2(MoO4)3
_chemical_formula_sum   'Na6 Zn4 Mo6 O24'
_cell_volume   576.15411617
_cell_formula_units_Z   2
loop_
 _symmetry_equiv_pos_site_id
 _symmetry_equiv_pos_as_xyz
  1  'x, y, z'
loop_
 _atom_site_type_symbol
 _atom_site_label
 _atom_site_symmetry_multiplicity
 _atom_site_fract_x
 _atom_site_fract_y
 _atom_site_fract_z
 _atom_site_occupancy
  Na  Na0  1  0.23488700  0.76511300  0.25000000  1
  Na  Na1  1  0.76511300  0.23488700  0.75000000  1
  Na  Na2  1  0.00000000  0.00000000  0.00000000  1
  Na  Na3  1  0.00000000  0.00000000  0.50000000  1
  Na  Na4  1  0.52252400  0.47747600  0.25000000  1
  Na  Na5  1  0.47747600  0.52252400  0.75000000  1
  Zn  Zn0  1  0.55731700  0.86692900  0.37324400  1
  Zn  Zn1  1  0.44268300  0.13307100  0.62675600  1
  Zn  Zn2  1  0.13307100  0.44268300  0.12675600  1
  Zn  Zn3  1  0.86692900  0.55731700  0.87324400  1
  Mo  Mo0  1  0.77780600  0.22219400  0.25000000  1
  Mo  Mo1  1  0.22219400  0.77780600  0.75000000  1
  Mo  Mo2  1  0.37524200  0.16914700  0.12047800  1
  Mo  Mo3  1  0.62475800  0.83085300  0.87952200  1
  Mo  Mo4  1  0.83085300  0.62475800  0.37952200  1
  Mo  Mo5  1  0.16914700  0.37524200  0.62047800  1
  O  O0  1  0.45775700  0.11643900  0.31894500  1
  O  O1  1  0.54224400  0.88356100  0.68105500  1
  O  O2  1  0.88356100  0.54224300  0.18105500  1
  O  O3  1  0.11643900  0.45775600  0.81894500  1
  O  O4  1  0.50806800  0.83801700  0.11515700  1
  O  O5  1  0.49193200  0.16198300  0.88484300  1
  O  O6  1  0.16198300  0.49193200  0.38484300  1
  O  O7  1  0.83801700  0.50806800  0.61515700  1
  O  O8  1  0.19716200  0.03934100  0.19395100  1
  O  O9  1  0.80283800  0.96065900  0.80604900  1
  O  O10  1  0.96065900  0.80283800  0.30604900  1
  O  O11  1  0.03934100  0.19716200  0.69395100  1
  O  O12  1  0.75087200  0.02247300  0.23695200  1
  O  O13  1  0.24912800  0.97752700  0.76304800  1
  O  O14  1  0.97752700  0.24912800  0.26304800  1
  O  O15  1  0.02247300  0.75087200  0.73695200  1
  O  O16  1  0.65650300  0.25389300  0.47979400  1
  O  O17  1  0.34349700  0.74610700  0.52020600  1
  O  O18  1  0.74610700  0.34349700  0.02020600  1
  O  O19  1  0.25389300  0.65650300  0.97979400  1
  O  O20  1  0.63791400  0.65545200  0.41339900  1
  O  O21  1  0.36208600  0.34454800  0.58660100  1
  O  O22  1  0.34454800  0.36208600  0.08660100  1
  O  O23  1  0.65545200  0.63791400  0.91339900  1
loop_
_geom_bond_atom_site_label_1
_geom_bond_atom_site_label_2
_geom_bond_distance
_geom_bond_site_symmetry_2
Na0 O4 2.398415 1_555
Na0 O6 2.398415 1_555
Na0 O17 2.428474 1_555
Na0 O19 2.428474 1_554
Na0 O10 2.569919 1_455
Na0 O8 2.569919 1_565
Na1 O7 2.398415 1_555
Na1 O5 2.398415 1_555
Na1 O18 2.428474 1_556
Na1 O16 2.428474 1_555
Na1 O9 2.569919 1_545
Na1 O11 2.569919 1_655
Na2 O10 2.388430 1_445
Na2 O11 2.388430 1_554
Na2 O12 2.574406 1_455
Na2 O13 2.574406 1_544
Na2 O9 2.649201 1_444
Na2 O8 2.649201 1_555
Na3 O9 2.388430 1_445
Na3 O8 2.388430 1_555
Na3 O14 2.574406 1_455
Na3 O15 2.574406 1_545
Na3 O10 2.649201 1_445
Na3 O11 2.649201 1_555
Na4 O21 2.393266 1_555
Na4 O23 2.393266 1_554
Na4 O22 2.569075 1_555
Na4 O20 2.569075 1_555
Na5 O22 2.393266 1_556
Na5 O20 2.393266 1_555
Na5 O21 2.569075 1_555
Na5 O23 2.569075 1_555
Mo0 O12 1.877145 1_555
Mo0 O14 1.877145 1_555
Mo0 O18 1.880265 1_555
Mo0 O16 1.880265 1_555
Mo1 O15 1.877145 1_555
Mo1 O13 1.877145 1_555
Mo1 O19 1.880265 1_555
Mo1 O17 1.880265 1_555
Mo2 O8 1.770953 1_555
Mo2 O5 1.799901 1_554
Mo2 O0 1.806222 1_555
Mo2 O22 1.823815 1_555
Mo3 O9 1.770953 1_555
Mo3 O4 1.799901 1_556
Mo3 O1 1.806215 1_555
Mo3 O23 1.823815 1_555
Mo4 O10 1.770953 1_555
Mo4 O7 1.799901 1_555
Mo4 O2 1.806222 1_555
Mo4 O20 1.823815 1_555
Mo5 O11 1.770953 1_555
Mo5 O6 1.799901 1_555
Mo5 O3 1.806215 1_555
Mo5 O21 1.823815 1_555
O0 Zn1 2.266453 1_555
O1 Zn0 2.266454 1_555
O2 Zn3 2.266453 1_554
O3 Zn2 2.266454 1_556
O4 Zn0 2.132902 1_555
O5 Zn1 2.132902 1_555
O6 Zn2 2.132902 1_555
O7 Zn3 2.132902 1_555
O12 Zn0 1.975661 1_545
O13 Zn1 1.975661 1_565
O14 Zn2 1.975661 1_655
O15 Zn3 1.975661 1_455
O16 Zn1 1.998137 1_555
O17 Zn0 1.998137 1_555
O18 Zn3 1.998137 1_554
O19 Zn2 1.998137 1_556
O20 Zn0 2.182550 1_555
O21 Zn1 2.182550 1_555
O22 Zn2 2.182550 1_555
O23 Zn3 2.182550 1_555
