# generated using pymatgen
data_CsGeSbO5
_symmetry_space_group_name_H-M   'P 1'
_cell_length_a   10.41890565
_cell_length_b   10.41890565
_cell_length_c   21.64037867
_cell_angle_alpha   103.92953397
_cell_angle_beta   103.92953397
_cell_angle_gamma   90.00000000
_symmetry_Int_Tables_number   1
_chemical_formula_structural   CsGeSbO5
_chemical_formula_sum   'Cs16 Ge16 Sb16 O80'
_cell_volume   2208.81674697
_cell_formula_units_Z   16
loop_
 _symmetry_equiv_pos_site_id
 _symmetry_equiv_pos_as_xyz
  1  'x, y, z'
loop_
 _atom_site_type_symbol
 _atom_site_label
 _atom_site_symmetry_multiplicity
 _atom_site_fract_x
 _atom_site_fract_y
 _atom_site_fract_z
 _atom_site_occupancy
  Cs  Cs0  1  0.51886673  0.01886673  0.50000000  1
  Cs  Cs1  1  0.98113327  0.48113327  0.50000000  1
  Cs  Cs2  1  0.26886673  0.73113327  -0.00000000  1
  Cs  Cs3  1  0.73113327  0.26886673  -0.00000000  1
  Cs  Cs4  1  0.67839642  0.17839642  0.35679283  1
  Cs  Cs5  1  0.57160358  0.57160358  0.14320717  1
  Cs  Cs6  1  0.82160358  0.32160358  0.64320717  1
  Cs  Cs7  1  0.42839642  0.42839642  0.85679283  1
  Cs  Cs8  1  0.31699831  0.81699831  0.63399662  1
  Cs  Cs9  1  0.93300169  0.93300169  0.86600338  1
  Cs  Cs10  1  0.18300169  0.68300169  0.36600338  1
  Cs  Cs11  1  0.06699831  0.06699831  0.13399662  1
  Cs  Cs12  1  0.12500000  0.12845783  0.75000000  1
  Cs  Cs13  1  0.62500000  0.62154217  0.75000000  1
  Cs  Cs14  1  0.37845783  0.37500000  0.25000000  1
  Cs  Cs15  1  0.87154217  0.87500000  0.25000000  1
  Ge  Ge0  1  0.16159653  0.14993013  0.57854207  1
  Ge  Ge1  1  0.41694554  0.42861194  0.57854207  1
  Ge  Ge2  1  0.83305446  0.60006987  0.92145793  1
  Ge  Ge3  1  0.08840347  0.32138806  0.92145793  1
  Ge  Ge4  1  0.57138806  0.58305446  0.42145793  1
  Ge  Ge5  1  0.85006987  0.83840347  0.42145793  1
  Ge  Ge6  1  0.67861194  0.91159653  0.07854207  1
  Ge  Ge7  1  0.39993013  0.16694554  0.07854207  1
  Ge  Ge8  1  0.65199397  0.66279190  0.58586772  1
  Ge  Ge9  1  0.93387374  0.92307581  0.58586772  1
  Ge  Ge10  1  0.31612626  0.08720810  0.91413228  1
  Ge  Ge11  1  0.59800603  0.82692419  0.91413228  1
  Ge  Ge12  1  0.07692419  0.06612626  0.41413228  1
  Ge  Ge13  1  0.33720810  0.34800603  0.41413228  1
  Ge  Ge14  1  0.17307581  0.40199397  0.08586772  1
  Ge  Ge15  1  0.91279190  0.68387374  0.08586772  1
  Sb  Sb0  1  0.47625810  0.22227993  0.68164476  1
  Sb  Sb1  1  0.20538666  0.45936483  0.68164476  1
  Sb  Sb2  1  0.04461334  0.52772007  0.81835524  1
  Sb  Sb3  1  0.77374190  0.29063517  0.81835524  1
  Sb  Sb4  1  0.54063517  0.79461334  0.31835524  1
  Sb  Sb5  1  0.77772007  0.52374190  0.31835524  1
  Sb  Sb6  1  0.70936483  0.22625810  0.18164476  1
  Sb  Sb7  1  0.47227993  0.95538666  0.18164476  1
  Sb  Sb8  1  0.96303995  0.70965103  0.69032537  1
  Sb  Sb9  1  0.72728543  0.98067434  0.69032537  1
  Sb  Sb10  1  0.52271457  0.04034897  0.80967463  1
  Sb  Sb11  1  0.28696005  0.76932566  0.80967463  1
  Sb  Sb12  1  0.01932566  0.27271457  0.30967463  1
  Sb  Sb13  1  0.29034897  0.03696005  0.30967463  1
  Sb  Sb14  1  0.23067434  0.71303995  0.19032537  1
  Sb  Sb15  1  0.95965103  0.47728543  0.19032537  1
  O  O0  1  0.42026220  0.11642901  0.73730361  1
  O  O1  1  0.31704141  0.62087460  0.73730361  1
  O  O2  1  0.93295859  0.63357099  0.76269639  1
  O  O3  1  0.82973780  0.12912540  0.76269639  1
  O  O4  1  0.37912540  0.68295859  0.26269639  1
  O  O5  1  0.88357099  0.57973780  0.26269639  1
  O  O6  1  0.87087460  0.17026220  0.23730361  1
  O  O7  1  0.36642901  0.06704141  0.23730361  1
  O  O8  1  0.67094079  0.37500000  0.25000000  1
  O  O9  1  0.57905921  0.87500000  0.25000000  1
  O  O10  1  0.12500000  0.42094079  0.75000000  1
  O  O11  1  0.62500000  0.32905921  0.75000000  1
  O  O12  1  0.18311991  0.87500000  0.25000000  1
  O  O13  1  0.06688009  0.37500000  0.25000000  1
  O  O14  1  0.62500000  0.93311991  0.75000000  1
  O  O15  1  0.12500000  0.81688009  0.75000000  1
  O  O16  1  0.84611729  0.02987872  0.63464152  1
  O  O17  1  0.78852423  0.60476280  0.63464152  1
  O  O18  1  0.46147577  0.72012128  0.86535848  1
  O  O19  1  0.40388271  0.14523720  0.86535848  1
  O  O20  1  0.39523720  0.21147577  0.36535848  1
  O  O21  1  0.97012128  0.15388271  0.36535848  1
  O  O22  1  0.85476280  0.59611729  0.13464152  1
  O  O23  1  0.27987872  0.53852423  0.13464152  1
  O  O24  1  0.52401653  0.33496602  0.62350673  1
  O  O25  1  0.09949020  0.28854071  0.62350673  1
  O  O26  1  0.15050980  0.41503398  0.87649327  1
  O  O27  1  0.72598347  0.46145929  0.87649327  1
  O  O28  1  0.71145929  0.90050980  0.37649327  1
  O  O29  1  0.66503398  0.47598347  0.37649327  1
  O  O30  1  0.53854071  0.27401653  0.12350673  1
  O  O31  1  0.58496602  0.84949020  0.12350673  1
  O  O32  1  0.33270531  0.12636397  0.60005013  1
  O  O33  1  0.26734483  0.47368617  0.60005013  1
  O  O34  1  0.98265517  0.62363603  0.89994987  1
  O  O35  1  0.91729469  0.27631383  0.89994987  1
  O  O36  1  0.52631383  0.73265517  0.39994987  1
  O  O37  1  0.87363603  0.66729469  0.39994987  1
  O  O38  1  0.72368617  0.08270531  0.10005013  1
  O  O39  1  0.37636397  0.01734483  0.10005013  1
  O  O40  1  0.62967509  0.83319358  0.61074375  1
  O  O41  1  0.98106866  0.77755018  0.61074375  1
  O  O42  1  0.26893134  0.91680642  0.88925625  1
  O  O43  1  0.62032491  0.97244982  0.88925625  1
  O  O44  1  0.22244982  0.01893134  0.38925625  1
  O  O45  1  0.16680642  0.37032491  0.38925625  1
  O  O46  1  0.02755018  0.37967509  0.11074375  1
  O  O47  1  0.08319358  0.73106866  0.11074375  1
  O  O48  1  0.10818388  0.16384921  0.49616842  1
  O  O49  1  0.38798454  0.33231921  0.49616842  1
  O  O50  1  0.86201546  0.58615079  0.00383158  1
  O  O51  1  0.14181612  0.41768079  0.00383158  1
  O  O52  1  0.66768079  0.61201546  0.50383158  1
  O  O53  1  0.83615079  0.89181612  0.50383158  1
  O  O54  1  0.58231921  0.85818388  0.99616842  1
  O  O55  1  0.41384921  0.13798454  0.99616842  1
  O  O56  1  0.08898487  0.00325394  0.58942046  1
  O  O57  1  0.50043558  0.58616652  0.58942046  1
  O  O58  1  0.74956442  0.74674606  0.91057954  1
  O  O59  1  0.16101513  0.16383348  0.91057954  1
  O  O60  1  0.41383348  0.49956442  0.41057954  1
  O  O61  1  0.99674606  0.91101513  0.41057954  1
  O  O62  1  0.83616652  0.83898487  0.08942046  1
  O  O63  1  0.25325394  0.25043558  0.08942046  1
  O  O64  1  0.86102780  0.86102780  0.72205560  1
  O  O65  1  0.38897220  0.88897220  0.77794440  1
  O  O66  1  0.13897220  0.13897220  0.27794440  1
  O  O67  1  0.11102780  0.61102780  0.22205560  1
  O  O68  1  0.35600432  0.35600432  0.71200864  1
  O  O69  1  0.89399568  0.39399568  0.78799136  1
  O  O70  1  0.64399568  0.64399568  0.28799136  1
  O  O71  1  0.60600432  0.10600432  0.21200864  1
  O  O72  1  0.59629370  0.09103322  0.64726165  1
  O  O73  1  0.05096795  0.55622843  0.64726165  1
  O  O74  1  0.19903205  0.65896678  0.85273835  1
  O  O75  1  0.65370630  0.19377157  0.85273835  1
  O  O76  1  0.44377157  0.94903205  0.35273835  1
  O  O77  1  0.90896678  0.40370630  0.35273835  1
  O  O78  1  0.80622843  0.34629370  0.14726165  1
  O  O79  1  0.34103322  0.80096795  0.14726165  1
loop_
_geom_bond_atom_site_label_1
_geom_bond_atom_site_label_2
_geom_bond_distance
_geom_bond_site_symmetry_2
Cs0 O72 2.996737 1_555
Cs0 O76 2.996737 1_545
Cs0 O32 3.249394 1_555
Cs0 O36 3.249394 1_545
Cs0 O40 3.423243 1_545
Cs0 O44 3.423243 1_555
Cs0 O53 3.550776 1_545
Cs0 O49 3.550776 1_555
Cs1 O77 2.996737 1_555
Cs1 O73 2.996737 1_655
Cs1 O37 3.249394 1_555
Cs1 O33 3.249394 1_655
Cs1 O45 3.423243 1_655
Cs1 O41 3.423243 1_555
Cs1 O48 3.550776 1_655
Cs1 O52 3.550776 1_555
Cs2 O79 2.996737 1_555
Cs2 O74 2.996737 1_554
Cs2 O39 3.249394 1_565
Cs2 O34 3.249394 1_454
Cs2 O47 3.423243 1_555
Cs2 O42 3.423243 1_554
Cs2 O54 3.550776 1_554
Cs2 O51 3.550776 1_555
Cs3 O78 2.996737 1_555
Cs3 O75 2.996737 1_554
Cs3 O35 3.249394 1_554
Cs3 O38 3.249394 1_555
Cs3 O46 3.423243 1_655
Cs3 O43 3.423243 1_544
Cs3 O50 3.550776 1_555
Cs3 O55 3.550776 1_554
Cs4 O71 2.946026 1_555
Cs4 O21 3.014865 1_555
Cs4 O20 3.014865 1_555
Cs4 O29 3.034238 1_555
Cs4 O28 3.034238 1_545
Cs5 O70 2.946026 1_555
Cs5 O23 3.014865 1_555
Cs5 O22 3.014865 1_555
Cs5 O30 3.034238 1_555
Cs5 O31 3.034238 1_555
Cs6 O69 2.946026 1_555
Cs6 O16 3.014865 1_555
Cs6 O17 3.014865 1_555
Cs6 O24 3.034238 1_555
Cs6 O25 3.034238 1_655
Cs7 O68 2.946026 1_555
Cs7 O18 3.014865 1_555
Cs7 O19 3.014865 1_555
Cs7 O27 3.034238 1_555
Cs7 O26 3.034238 1_555
Cs8 O65 2.929007 1_555
Cs8 O57 3.184029 1_555
Cs8 O56 3.184029 1_565
Cs8 O0 3.372283 1_565
Cs8 O1 3.372283 1_555
Cs8 O41 3.424142 1_455
Cs8 O40 3.424142 1_555
Cs8 O33 3.486214 1_555
Cs8 O32 3.486214 1_565
Cs8 O14 3.566902 1_555
Cs8 O15 3.566902 1_555
Cs9 O64 2.929007 1_555
Cs9 O58 3.184029 1_555
Cs9 O59 3.184029 1_665
Cs9 O2 3.372283 1_555
Cs9 O3 3.372283 1_565
Cs9 O42 3.424142 1_655
Cs9 O43 3.424142 1_555
Cs9 O35 3.486214 1_565
Cs9 O34 3.486214 1_555
Cs9 O14 3.566902 1_555
Cs9 O15 3.566902 1_655
Cs10 O67 2.929007 1_555
Cs10 O60 3.184029 1_555
Cs10 O61 3.184029 1_455
Cs10 O5 3.372283 1_455
Cs10 O4 3.372283 1_555
Cs10 O44 3.424142 1_565
Cs10 O45 3.424142 1_555
Cs10 O36 3.486214 1_555
Cs10 O37 3.486214 1_455
Cs10 O13 3.566902 1_555
Cs10 O12 3.566902 1_555
Cs11 O66 2.929007 1_555
Cs11 O63 3.184029 1_555
Cs11 O62 3.184029 1_445
Cs11 O7 3.372283 1_555
Cs11 O6 3.372283 1_455
Cs11 O47 3.424142 1_545
Cs11 O46 3.424142 1_555
Cs11 O38 3.486214 1_455
Cs11 O39 3.486214 1_555
Cs11 O13 3.566902 1_555
Cs11 O12 3.566902 1_545
Cs12 O10 3.047352 1_555
Cs12 O0 3.153607 1_555
Cs12 O3 3.153607 1_455
Cs12 O15 3.246299 1_545
Cs12 O16 3.317069 1_455
Cs12 O19 3.317069 1_555
Cs12 O56 3.332843 1_555
Cs12 O59 3.332843 1_555
Cs12 O26 3.491920 1_555
Cs12 O25 3.491920 1_555
Cs13 O11 3.047352 1_555
Cs13 O2 3.153607 1_555
Cs13 O1 3.153607 1_555
Cs13 O14 3.246299 1_555
Cs13 O18 3.317069 1_555
Cs13 O17 3.317069 1_555
Cs13 O58 3.332843 1_555
Cs13 O57 3.332843 1_555
Cs13 O24 3.491920 1_555
Cs13 O27 3.491920 1_555
Cs14 O8 3.047352 1_555
Cs14 O7 3.153607 1_555
Cs14 O4 3.153607 1_555
Cs14 O13 3.246299 1_555
Cs14 O23 3.317069 1_555
Cs14 O20 3.317069 1_555
Cs14 O63 3.332843 1_555
Cs14 O60 3.332843 1_555
Cs14 O29 3.491920 1_555
Cs14 O30 3.491920 1_555
Cs15 O9 3.047352 1_555
Cs15 O5 3.153607 1_555
Cs15 O6 3.153607 1_565
Cs15 O12 3.246299 1_655
Cs15 O21 3.317069 1_565
Cs15 O22 3.317069 1_555
Cs15 O61 3.332843 1_555
Cs15 O62 3.332843 1_555
Cs15 O31 3.491920 1_555
Cs15 O28 3.491920 1_555
Ge0 O25 1.754351 1_555
Ge0 O32 1.763718 1_555
Ge0 O48 1.776296 1_555
Ge0 O56 1.795029 1_555
Ge1 O24 1.754351 1_555
Ge1 O33 1.763718 1_555
Ge1 O49 1.776296 1_555
Ge1 O57 1.795029 1_555
Ge2 O27 1.754351 1_555
Ge2 O34 1.763718 1_555
Ge2 O50 1.776296 1_556
Ge2 O58 1.795029 1_555
Ge3 O26 1.754351 1_555
Ge3 O35 1.763718 1_455
Ge3 O51 1.776296 1_556
Ge3 O59 1.795029 1_555
Ge4 O29 1.754351 1_555
Ge4 O36 1.763718 1_555
Ge4 O52 1.776296 1_555
Ge4 O60 1.795029 1_555
Ge5 O28 1.754351 1_555
Ge5 O37 1.763718 1_555
Ge5 O53 1.776296 1_555
Ge5 O61 1.795029 1_555
Ge6 O31 1.754351 1_555
Ge6 O38 1.763718 1_565
Ge6 O54 1.776296 1_554
Ge6 O62 1.795029 1_555
Ge7 O30 1.754351 1_555
Ge7 O39 1.763718 1_555
Ge7 O55 1.776296 1_554
Ge7 O63 1.795029 1_555
Ge8 O17 1.757114 1_555
Ge8 O40 1.759554 1_555
Ge8 O52 1.773632 1_555
Ge8 O57 1.795759 1_555
Ge9 O16 1.757114 1_565
Ge9 O41 1.759554 1_555
Ge9 O53 1.773632 1_555
Ge9 O56 1.795759 1_665
Ge10 O19 1.757114 1_555
Ge10 O42 1.759554 1_545
Ge10 O55 1.773632 1_555
Ge10 O59 1.795759 1_555
Ge11 O18 1.757114 1_555
Ge11 O43 1.759554 1_555
Ge11 O54 1.773632 1_555
Ge11 O58 1.795759 1_555
Ge12 O21 1.757114 1_455
Ge12 O44 1.759554 1_555
Ge12 O48 1.773632 1_555
Ge12 O61 1.795759 1_445
Ge13 O20 1.757114 1_555
Ge13 O45 1.759554 1_555
Ge13 O49 1.773632 1_555
Ge13 O60 1.795759 1_555
Ge14 O23 1.757114 1_555
Ge14 O46 1.759554 1_555
Ge14 O51 1.773632 1_555
Ge14 O63 1.795759 1_555
Ge15 O22 1.757114 1_555
Ge15 O47 1.759554 1_655
Ge15 O50 1.773632 1_555
Ge15 O62 1.795759 1_555
O0 Sb0 1.996321 1_555
O0 Sb10 2.003336 1_555
O1 Sb1 1.996321 1_555
O1 Sb11 2.003336 1_555
O2 Sb2 1.996321 1_655
O2 Sb8 2.003336 1_555
O3 Sb3 1.996321 1_555
O3 Sb9 2.003336 1_545
O4 Sb4 1.996321 1_555
O4 Sb14 2.003336 1_555
O5 Sb5 1.996321 1_555
O5 Sb15 2.003336 1_555
O6 Sb6 1.996321 1_555
O6 Sb12 2.003336 1_655
O7 Sb7 1.996321 1_545
O7 Sb13 2.003336 1_555
O8 Sb5 1.982795 1_555
O8 Sb6 1.982795 1_555
O9 Sb7 1.982795 1_555
O9 Sb4 1.982795 1_555
O10 Sb2 1.982795 1_555
O10 Sb1 1.982795 1_555
O11 Sb0 1.982795 1_555
O11 Sb3 1.982795 1_555
O12 Sb13 2.004874 1_565
O12 Sb14 2.004874 1_555
O13 Sb15 2.004874 1_455
O13 Sb12 2.004874 1_555
O14 Sb10 2.004874 1_565
O14 Sb9 2.004874 1_555
O15 Sb8 2.004874 1_455
O15 Sb11 2.004874 1_555
O16 Sb9 2.064825 1_545
O17 Sb8 2.064825 1_555
O18 Sb11 2.064825 1_555
O19 Sb10 2.064825 1_555
O20 Sb13 2.064825 1_555
O21 Sb12 2.064825 1_655
O22 Sb15 2.064825 1_555
O23 Sb14 2.064825 1_555
O24 Sb0 2.054628 1_555
O25 Sb1 2.054628 1_555
O26 Sb2 2.054628 1_555
O27 Sb3 2.054628 1_555
O28 Sb4 2.054628 1_555
O29 Sb5 2.054628 1_555
O30 Sb6 2.054628 1_555
O31 Sb7 2.054628 1_555
O32 Sb0 2.057292 1_555
O33 Sb1 2.057292 1_555
O34 Sb2 2.057292 1_655
O35 Sb3 2.057292 1_555
O36 Sb4 2.057292 1_555
O37 Sb5 2.057292 1_555
O38 Sb6 2.057292 1_555
O39 Sb7 2.057292 1_545
O40 Sb9 2.060087 1_555
O41 Sb8 2.060087 1_555
O42 Sb11 2.060087 1_555
O43 Sb10 2.060087 1_565
O44 Sb13 2.060087 1_555
O45 Sb12 2.060087 1_555
O46 Sb15 2.060087 1_455
O47 Sb14 2.060087 1_555
O64 Sb9 1.979550 1_555
O64 Sb8 1.979550 1_555
O65 Sb10 1.979550 1_565
O65 Sb11 1.979550 1_555
O66 Sb12 1.979550 1_555
O66 Sb13 1.979550 1_555
O67 Sb15 1.979550 1_455
O67 Sb14 1.979550 1_555
O68 Sb1 1.974419 1_555
O68 Sb0 1.974419 1_555
O69 Sb2 1.974419 1_655
O69 Sb3 1.974419 1_555
O70 Sb4 1.974419 1_555
O70 Sb5 1.974419 1_555
O71 Sb7 1.974419 1_545
O71 Sb6 1.974419 1_555
O72 Sb0 1.986403 1_555
O72 Sb9 1.989158 1_545
O73 Sb1 1.986403 1_555
O73 Sb8 1.989158 1_455
O74 Sb2 1.986403 1_555
O74 Sb11 1.989158 1_555
O75 Sb3 1.986403 1_555
O75 Sb10 1.989158 1_555
O76 Sb4 1.986403 1_555
O76 Sb13 1.989158 1_565
O77 Sb5 1.986403 1_555
O77 Sb12 1.989158 1_655
O78 Sb6 1.986403 1_555
O78 Sb15 1.989158 1_555
O79 Sb7 1.986403 1_555
O79 Sb14 1.989158 1_555
