# generated using pymatgen
data_Sm4Ge7
_symmetry_space_group_name_H-M   'P 1'
_cell_length_a   7.51896403
_cell_length_b   7.51896403
_cell_length_c   11.91937743
_cell_angle_alpha   90.00000000
_cell_angle_beta   90.00000000
_cell_angle_gamma   133.33792964
_symmetry_Int_Tables_number   1
_chemical_formula_structural   Sm4Ge7
_chemical_formula_sum   'Sm8 Ge14'
_cell_volume   490.11080162
_cell_formula_units_Z   2
loop_
 _symmetry_equiv_pos_site_id
 _symmetry_equiv_pos_as_xyz
  1  'x, y, z'
loop_
 _atom_site_type_symbol
 _atom_site_label
 _atom_site_symmetry_multiplicity
 _atom_site_fract_x
 _atom_site_fract_y
 _atom_site_fract_z
 _atom_site_occupancy
  Sm  Sm0  1  0.49205424  0.98200917  0.38079007  1
  Sm  Sm1  1  0.98200917  0.49205424  0.61920993  1
  Sm  Sm2  1  0.50794576  0.01799083  0.88079007  1
  Sm  Sm3  1  0.01799083  0.50794576  0.11920993  1
  Sm  Sm4  1  0.99617230  0.00382770  0.25000000  1
  Sm  Sm5  1  0.00382770  0.99617230  0.75000000  1
  Sm  Sm6  1  0.48816167  0.48816167  0.50000000  1
  Sm  Sm7  1  0.51183833  0.51183833  0.00000000  1
  Ge  Ge0  1  0.92855057  0.10564440  0.98974547  1
  Ge  Ge1  1  0.10564440  0.92855057  0.01025453  1
  Ge  Ge2  1  0.07144943  0.89435560  0.48974547  1
  Ge  Ge3  1  0.89435560  0.07144943  0.51025453  1
  Ge  Ge4  1  0.57382675  0.91800452  0.12873878  1
  Ge  Ge5  1  0.91800452  0.57382675  0.87126122  1
  Ge  Ge6  1  0.42617325  0.08199548  0.62873878  1
  Ge  Ge7  1  0.08199548  0.42617325  0.37126122  1
  Ge  Ge8  1  0.47701042  0.18097383  0.16440091  1
  Ge  Ge9  1  0.18097383  0.47701042  0.83559909  1
  Ge  Ge10  1  0.52298958  0.81902617  0.66440091  1
  Ge  Ge11  1  0.81902617  0.52298958  0.33559909  1
  Ge  Ge12  1  0.43791601  0.56208399  0.25000000  1
  Ge  Ge13  1  0.56208399  0.43791601  0.75000000  1
loop_
_geom_bond_atom_site_label_1
_geom_bond_atom_site_label_2
_geom_bond_distance
_geom_bond_site_symmetry_2
Ge0 Ge1 2.457554 1_646
Ge0 Ge4 2.585320 1_546
Ge0 Ge9 2.738722 1_655
Ge0 Sm3 3.031714 1_656
Ge0 Sm2 3.043274 1_555
Ge0 Sm5 3.131028 1_645
Ge0 Sm7 3.192463 1_656
Ge0 Sm7 3.250370 1_546
Ge0 Sm4 3.316884 1_556
Ge1 Ge5 2.585320 1_454
Ge1 Ge8 2.738722 1_565
Ge1 Sm2 3.031714 1_564
Ge1 Sm3 3.043274 1_555
Ge1 Sm4 3.131028 1_465
Ge1 Sm7 3.192463 1_565
Ge1 Sm7 3.250370 1_455
Ge1 Sm5 3.316884 1_554
Ge2 Ge3 2.457554 1_465
Ge2 Ge6 2.585320 1_565
Ge2 Sm1 3.031714 1_455
Ge2 Sm0 3.043274 1_555
Ge2 Sm4 3.131028 1_465
Ge2 Sm6 3.192463 1_455
Ge2 Sm6 3.250370 1_565
Ge2 Sm5 3.316884 1_555
Ge3 Ge7 2.585320 1_655
Ge3 Sm0 3.031714 1_545
Ge3 Sm1 3.043274 1_555
Ge3 Sm5 3.131028 1_645
Ge3 Sm6 3.192463 1_545
Ge3 Sm6 3.250370 1_655
Ge3 Sm4 3.316884 1_555
Ge4 Ge8 2.568233 1_565
Ge4 Sm3 3.049397 1_555
Ge4 Sm4 3.126845 1_565
Ge4 Sm7 3.153524 1_555
Ge4 Sm0 3.168842 1_555
Ge4 Sm2 3.171134 1_564
Ge4 Sm3 3.241687 1_665
Ge5 Ge9 2.568233 1_655
Ge5 Sm2 3.049397 1_555
Ge5 Sm5 3.126845 1_655
Ge5 Sm7 3.153524 1_556
Ge5 Sm1 3.168842 1_555
Ge5 Sm3 3.171134 1_656
Ge5 Sm2 3.241687 1_665
Ge6 Sm1 3.049397 1_555
Ge6 Sm5 3.126845 1_545
Ge6 Sm6 3.153524 1_555
Ge6 Sm2 3.168842 1_555
Ge6 Sm0 3.171134 1_545
Ge6 Sm1 3.241687 1_445
Ge7 Sm0 3.049397 1_555
Ge7 Sm4 3.126845 1_455
Ge7 Sm6 3.153524 1_555
Ge7 Sm3 3.168842 1_555
Ge7 Sm1 3.171134 1_455
Ge7 Sm0 3.241687 1_445
Ge8 Sm0 3.022499 1_545
Ge8 Sm3 3.025480 1_655
Ge8 Sm7 3.033673 1_555
Ge8 Sm4 3.045720 1_455
Ge9 Sm1 3.022499 1_455
Ge9 Sm2 3.025480 1_565
Ge9 Sm7 3.033673 1_556
Ge9 Sm5 3.045720 1_545
Ge10 Ge6 2.568233 1_565
Ge10 Ge3 2.738722 1_565
Ge10 Sm2 3.022499 1_565
Ge10 Sm1 3.025480 1_455
Ge10 Sm6 3.033673 1_555
Ge10 Sm5 3.045720 1_655
Ge11 Ge7 2.568233 1_655
Ge11 Ge2 2.738722 1_655
Ge11 Sm3 3.022499 1_655
Ge11 Sm0 3.025480 1_545
Ge11 Sm6 3.033673 1_555
Ge11 Sm4 3.045720 1_565
Ge12 Ge4 2.557615 1_555
Ge12 Ge7 2.557615 1_555
Ge12 Sm4 3.084571 1_455
Ge12 Sm4 3.084571 1_565
Ge12 Sm6 3.101510 1_555
Ge12 Sm7 3.101510 1_555
Ge12 Sm3 3.286491 1_555
Ge12 Sm0 3.286491 1_555
Ge13 Ge5 2.557615 1_555
Ge13 Ge6 2.557615 1_555
Ge13 Sm5 3.084571 1_655
Ge13 Sm5 3.084571 1_545
Ge13 Sm6 3.101510 1_555
Ge13 Sm7 3.101510 1_556
Ge13 Sm2 3.286491 1_555
Ge13 Sm1 3.286491 1_555
