# generated using pymatgen
data_MgCoBi2O7
_symmetry_space_group_name_H-M   'P 1'
_cell_length_a   15.01808500
_cell_length_b   7.17368800
_cell_length_c   11.58337929
_cell_angle_alpha   77.75889542
_cell_angle_beta   90.00000000
_cell_angle_gamma   90.00000000
_symmetry_Int_Tables_number   1
_chemical_formula_structural   MgCoBi2O7
_chemical_formula_sum   'Mg8 Co8 Bi16 O56'
_cell_volume   1219.56299029
_cell_formula_units_Z   8
loop_
 _symmetry_equiv_pos_site_id
 _symmetry_equiv_pos_as_xyz
  1  'x, y, z'
loop_
 _atom_site_type_symbol
 _atom_site_label
 _atom_site_symmetry_multiplicity
 _atom_site_fract_x
 _atom_site_fract_y
 _atom_site_fract_z
 _atom_site_occupancy
  Mg  Mg0  1  0.49064500  0.94870700  0.86444500  1
  Mg  Mg1  1  0.89152400  0.79269500  0.88780000  1
  Mg  Mg2  1  0.39152400  0.20730500  0.61220000  1
  Mg  Mg3  1  0.10847600  0.20730500  0.11220000  1
  Mg  Mg4  1  0.60847600  0.79269500  0.38780000  1
  Mg  Mg5  1  0.00935500  0.94870700  0.36444500  1
  Mg  Mg6  1  0.50935500  0.05129300  0.13555500  1
  Mg  Mg7  1  0.99064500  0.05129300  0.63555500  1
  Co  Co0  1  0.67545300  0.34451400  0.08825000  1
  Co  Co1  1  0.17545300  0.65548600  0.41175000  1
  Co  Co2  1  0.32454700  0.65548600  0.91175000  1
  Co  Co3  1  0.82454700  0.34451400  0.58825000  1
  Co  Co4  1  0.74940900  0.00426400  0.25698900  1
  Co  Co5  1  0.24940900  0.99573600  0.24301100  1
  Co  Co6  1  0.25059100  0.99573600  0.74301100  1
  Co  Co7  1  0.75059100  0.00426400  0.75698900  1
  Bi  Bi0  1  0.90236700  0.12628600  0.03407100  1
  Bi  Bi1  1  0.99400100  0.58592300  0.66339100  1
  Bi  Bi2  1  0.50599900  0.58592300  0.16339100  1
  Bi  Bi3  1  0.00599900  0.41407700  0.33660900  1
  Bi  Bi4  1  0.71617900  0.47822300  0.80807700  1
  Bi  Bi5  1  0.21617900  0.52177700  0.69192300  1
  Bi  Bi6  1  0.28382100  0.52177700  0.19192300  1
  Bi  Bi7  1  0.78382100  0.47822300  0.30807700  1
  Bi  Bi8  1  0.49400100  0.41407700  0.83660900  1
  Bi  Bi9  1  0.19777800  0.12535900  0.48462800  1
  Bi  Bi10  1  0.69777800  0.87464100  0.01537200  1
  Bi  Bi11  1  0.80222200  0.87464100  0.51537200  1
  Bi  Bi12  1  0.40236700  0.87371400  0.46592900  1
  Bi  Bi13  1  0.59763300  0.12628600  0.53407100  1
  Bi  Bi14  1  0.09763300  0.87371400  0.96592900  1
  Bi  Bi15  1  0.30222200  0.12535900  0.98462800  1
  O  O0  1  0.04403000  0.16280300  0.97576700  1
  O  O1  1  0.54403000  0.83719700  0.52423300  1
  O  O2  1  0.95597000  0.83719700  0.02423300  1
  O  O3  1  0.45597000  0.16280300  0.47576700  1
  O  O4  1  0.81721400  0.02719300  0.89487000  1
  O  O5  1  0.31721400  0.97280700  0.60513000  1
  O  O6  1  0.18278600  0.97280700  0.10513000  1
  O  O7  1  0.68278600  0.02719300  0.39487000  1
  O  O8  1  0.80886000  0.91772900  0.14046000  1
  O  O9  1  0.30886000  0.08227100  0.35954000  1
  O  O10  1  0.19114000  0.08227100  0.85954000  1
  O  O11  1  0.69114000  0.91772900  0.64046000  1
  O  O12  1  0.31512300  0.41809900  0.87104300  1
  O  O13  1  0.81512300  0.58190100  0.62895700  1
  O  O14  1  0.68487700  0.58190100  0.12895700  1
  O  O15  1  0.18487700  0.41809900  0.37104300  1
  O  O16  1  0.35528600  0.99641800  0.15309500  1
  O  O17  1  0.85528600  0.00358200  0.34690500  1
  O  O18  1  0.64471400  0.00358200  0.84690500  1
  O  O19  1  0.14471400  0.99641800  0.65309500  1
  O  O20  1  0.34704100  0.93927100  0.87068000  1
  O  O21  1  0.43361200  0.68572000  0.81998100  1
  O  O22  1  0.84704100  0.06072900  0.62932000  1
  O  O23  1  0.15295900  0.93927100  0.37068000  1
  O  O24  1  0.48262400  0.20138100  0.73085700  1
  O  O25  1  0.98262400  0.79861900  0.76914300  1
  O  O26  1  0.51737600  0.79861900  0.26914300  1
  O  O27  1  0.01737600  0.20138100  0.23085700  1
  O  O28  1  0.45748000  0.17088400  0.97094100  1
  O  O29  1  0.95748000  0.82911600  0.52905900  1
  O  O30  1  0.54252000  0.82911600  0.02905900  1
  O  O31  1  0.04252000  0.17088400  0.47094100  1
  O  O32  1  0.90533700  0.53897700  0.21425100  1
  O  O33  1  0.40533700  0.46102300  0.28574900  1
  O  O34  1  0.09466300  0.46102300  0.78574900  1
  O  O35  1  0.59466300  0.53897700  0.71425100  1
  O  O36  1  0.76404000  0.26227400  0.20032300  1
  O  O37  1  0.26404000  0.73772600  0.29967700  1
  O  O38  1  0.23596000  0.73772600  0.79967700  1
  O  O39  1  0.73596000  0.26227400  0.70032300  1
  O  O40  1  0.72543200  0.36102400  0.47864600  1
  O  O41  1  0.22543200  0.63897600  0.02135400  1
  O  O42  1  0.27456800  0.63897600  0.52135400  1
  O  O43  1  0.77456800  0.36102400  0.97864600  1
  O  O44  1  0.73087000  0.74039600  0.34012600  1
  O  O45  1  0.23087000  0.25960400  0.15987400  1
  O  O46  1  0.26913000  0.25960400  0.65987400  1
  O  O47  1  0.76913000  0.74039600  0.84012600  1
  O  O48  1  0.89017700  0.43824900  0.44727100  1
  O  O49  1  0.39017700  0.56175100  0.05272900  1
  O  O50  1  0.10982300  0.56175100  0.55272900  1
  O  O51  1  0.60982300  0.43824900  0.94727100  1
  O  O52  1  0.06638800  0.68572000  0.31998100  1
  O  O53  1  0.56638800  0.31428000  0.18001900  1
  O  O54  1  0.93361200  0.31428000  0.68001900  1
  O  O55  1  0.65295900  0.06072900  0.12932000  1
loop_
_geom_bond_atom_site_label_1
_geom_bond_atom_site_label_2
_geom_bond_distance
_geom_bond_site_symmetry_2
Mg0 O30 2.070047 1_556
Mg0 O24 2.122523 1_565
Mg0 O20 2.158447 1_555
Mg0 O21 2.229385 1_555
Mg0 O28 2.268002 1_565
Mg0 O18 2.348637 1_565
Mg1 O25 1.933384 1_555
Mg1 O2 1.936524 1_556
Mg1 O47 1.977945 1_555
Mg1 O4 2.034802 1_565
Mg2 O24 1.933384 1_555
Mg2 O3 1.936524 1_555
Mg2 O46 1.977945 1_555
Mg2 O5 2.034802 1_545
Mg3 O27 1.933384 1_555
Mg3 O0 1.936524 1_554
Mg3 O45 1.977945 1_555
Mg3 O6 2.034802 1_545
Mg4 O26 1.933384 1_555
Mg4 O1 1.936524 1_555
Mg4 O44 1.977945 1_555
Mg4 O7 2.034802 1_565
Mg5 O29 2.070047 1_455
Mg5 O27 2.122523 1_565
Mg5 O23 2.158447 1_555
Mg5 O52 2.229385 1_555
Mg5 O31 2.268002 1_565
Mg5 O17 2.348637 1_465
Mg6 O28 2.070047 1_554
Mg6 O26 2.122523 1_545
Mg6 O55 2.158447 1_555
Mg6 O53 2.229385 1_555
Mg6 O30 2.268002 1_545
Mg6 O16 2.348637 1_545
Mg7 O31 2.070047 1_655
Mg7 O25 2.122523 1_545
Mg7 O22 2.158447 1_555
Mg7 O54 2.229385 1_555
Mg7 O29 2.268002 1_545
Mg7 O19 2.348637 1_645
Co0 O36 1.865087 1_555
Co0 O14 1.866247 1_555
Co0 O51 1.903871 1_554
Co0 O53 1.939615 1_555
Co0 O43 1.943655 1_554
Co0 O55 2.018458 1_555
Co1 O37 1.865087 1_555
Co1 O15 1.866247 1_555
Co1 O50 1.903871 1_555
Co1 O52 1.939615 1_555
Co1 O42 1.943655 1_555
Co1 O23 2.018458 1_555
Co2 O38 1.865087 1_555
Co2 O12 1.866247 1_555
Co2 O49 1.903871 1_556
Co2 O21 1.939615 1_555
Co2 O41 1.943655 1_556
Co2 O20 2.018458 1_555
Co3 O39 1.865087 1_555
Co3 O13 1.866247 1_555
Co3 O48 1.903871 1_555
Co3 O54 1.939615 1_555
Co3 O40 1.943655 1_555
Co3 O22 2.018458 1_555
Co4 O8 1.832978 1_545
Co4 O36 1.841117 1_555
Co4 O17 1.900256 1_555
Co4 O7 1.921034 1_555
Co4 O44 1.953202 1_545
Co4 O55 2.048209 1_555
Co5 O9 1.832978 1_565
Co5 O37 1.841117 1_555
Co5 O16 1.900256 1_555
Co5 O6 1.921034 1_555
Co5 O45 1.953202 1_565
Co5 O23 2.048209 1_555
Co6 O10 1.832978 1_565
Co6 O38 1.841117 1_555
Co6 O19 1.900256 1_555
Co6 O5 1.921034 1_555
Co6 O46 1.953202 1_565
Co6 O20 2.048209 1_555
Co7 O11 1.832978 1_545
Co7 O39 1.841117 1_555
Co7 O18 1.900256 1_555
Co7 O4 1.921034 1_555
Co7 O47 1.953202 1_545
Co7 O22 2.048209 1_555
Bi0 O8 2.224244 1_545
Bi0 O0 2.230694 1_654
Bi0 O2 2.249897 1_545
Bi0 O4 2.286195 1_554
Bi0 O43 2.544224 1_554
Bi1 O54 2.120806 1_555
Bi1 O34 2.135060 1_655
Bi1 O29 2.148134 1_555
Bi1 O25 2.156485 1_555
Bi1 O50 2.189300 1_655
Bi1 O13 2.716905 1_555
Bi2 O53 2.120806 1_555
Bi2 O33 2.135060 1_555
Bi2 O30 2.148134 1_555
Bi2 O26 2.156485 1_555
Bi2 O49 2.189300 1_555
Bi2 O14 2.716905 1_555
Bi3 O52 2.120806 1_555
Bi3 O32 2.135060 1_455
Bi3 O31 2.148134 1_555
Bi3 O27 2.156485 1_555
Bi3 O48 2.189300 1_455
Bi3 O15 2.716905 1_555
Bi4 O35 2.121478 1_555
Bi4 O47 2.145572 1_555
Bi4 O43 2.162185 1_555
Bi4 O39 2.205890 1_555
Bi4 O51 2.244337 1_555
Bi4 O13 2.532133 1_555
Bi5 O34 2.121478 1_555
Bi5 O46 2.145572 1_555
Bi5 O42 2.162185 1_555
Bi5 O38 2.205890 1_555
Bi5 O50 2.244337 1_555
Bi5 O12 2.532133 1_555
Bi6 O33 2.121478 1_555
Bi6 O45 2.145572 1_555
Bi6 O41 2.162185 1_555
Bi6 O37 2.205890 1_555
Bi6 O49 2.244337 1_555
Bi6 O15 2.532133 1_555
Bi7 O32 2.121478 1_555
Bi7 O44 2.145572 1_555
Bi7 O40 2.162185 1_555
Bi7 O36 2.205890 1_555
Bi7 O48 2.244337 1_555
Bi7 O14 2.532133 1_555
Bi8 O21 2.120806 1_555
Bi8 O35 2.135060 1_555
Bi8 O28 2.148134 1_555
Bi8 O24 2.156485 1_555
Bi8 O51 2.189300 1_555
Bi8 O12 2.716905 1_555
Bi9 O19 2.129149 1_545
Bi9 O23 2.173576 1_545
Bi9 O15 2.237644 1_555
Bi9 O9 2.273305 1_555
Bi9 O31 2.355113 1_555
Bi9 O5 2.390721 1_545
Bi9 O46 2.650534 1_555
Bi10 O18 2.129149 1_564
Bi10 O55 2.173576 1_565
Bi10 O14 2.237644 1_555
Bi10 O8 2.273305 1_555
Bi10 O30 2.355113 1_555
Bi10 O4 2.390721 1_564
Bi10 O47 2.650534 1_554
Bi11 O17 2.129149 1_565
Bi11 O22 2.173576 1_565
Bi11 O13 2.237644 1_555
Bi11 O11 2.273305 1_555
Bi11 O29 2.355113 1_555
Bi11 O7 2.390721 1_565
Bi11 O44 2.650534 1_555
Bi12 O9 2.224244 1_565
Bi12 O1 2.230694 1_555
Bi12 O3 2.249897 1_565
Bi12 O5 2.286195 1_555
Bi12 O42 2.544224 1_555
Bi13 O11 2.224244 1_545
Bi13 O3 2.230694 1_555
Bi13 O1 2.249897 1_545
Bi13 O7 2.286195 1_555
Bi13 O40 2.544224 1_555
Bi14 O10 2.224244 1_565
Bi14 O2 2.230694 1_456
Bi14 O0 2.249897 1_565
Bi14 O6 2.286195 1_556
Bi14 O41 2.544224 1_556
Bi15 O16 2.129149 1_546
Bi15 O20 2.173576 1_545
Bi15 O12 2.237644 1_555
Bi15 O10 2.273305 1_555
Bi15 O28 2.355113 1_555
Bi15 O6 2.390721 1_546
Bi15 O45 2.650534 1_556
