# generated using pymatgen
data_Np2H2SeO10
_symmetry_space_group_name_H-M   'P 1'
_cell_length_a   10.53965900
_cell_length_b   6.01151100
_cell_length_c   13.54054603
_cell_angle_alpha   90.00000000
_cell_angle_beta   96.32336584
_cell_angle_gamma   90.00000000
_symmetry_Int_Tables_number   1
_chemical_formula_structural   Np2H2SeO10
_chemical_formula_sum   'Np8 H8 Se4 O40'
_cell_volume   852.69971761
_cell_formula_units_Z   4
loop_
 _symmetry_equiv_pos_site_id
 _symmetry_equiv_pos_as_xyz
  1  'x, y, z'
loop_
 _atom_site_type_symbol
 _atom_site_label
 _atom_site_symmetry_multiplicity
 _atom_site_fract_x
 _atom_site_fract_y
 _atom_site_fract_z
 _atom_site_occupancy
  Np  Np0  1  0.10222400  0.20787400  0.18748000  1
  Np  Np1  1  0.89777600  0.70787400  0.31252000  1
  Np  Np2  1  0.89777600  0.79212600  0.81252000  1
  Np  Np3  1  0.10222400  0.29212600  0.68748000  1
  Np  Np4  1  0.38669700  0.72011600  0.17274400  1
  Np  Np5  1  0.61330300  0.22011600  0.32725600  1
  Np  Np6  1  0.61330300  0.27988400  0.82725600  1
  Np  Np7  1  0.38669700  0.77988400  0.67274400  1
  H  H0  1  0.04601200  0.29224600  0.45670000  1
  H  H1  1  0.95398800  0.79224600  0.04330000  1
  H  H2  1  0.95398800  0.70775400  0.54330000  1
  H  H3  1  0.04601200  0.20775400  0.95670000  1
  H  H4  1  0.14472000  0.48244200  0.48397400  1
  H  H5  1  0.85528000  0.98244200  0.01602600  1
  H  H6  1  0.85528000  0.51755800  0.51602600  1
  H  H7  1  0.14472000  0.01755800  0.98397400  1
  Se  Se0  1  0.24164000  0.89955200  0.40014800  1
  Se  Se1  1  0.75836000  0.39955200  0.09985200  1
  Se  Se2  1  0.75836000  0.10044800  0.59985200  1
  Se  Se3  1  0.24164000  0.60044800  0.90014800  1
  O  O0  1  0.01711800  0.93911600  0.20602400  1
  O  O1  1  0.98288200  0.43911600  0.29397600  1
  O  O2  1  0.98288200  0.06088400  0.79397600  1
  O  O3  1  0.01711800  0.56088400  0.70602400  1
  O  O4  1  0.09562700  0.80626900  0.42058900  1
  O  O5  1  0.90437300  0.30626900  0.07941100  1
  O  O6  1  0.90437300  0.19373100  0.57941100  1
  O  O7  1  0.09562700  0.69373100  0.92058900  1
  O  O8  1  0.11230200  0.34229200  0.50755700  1
  O  O9  1  0.88769800  0.84229200  0.99244300  1
  O  O10  1  0.88769800  0.65770800  0.49244300  1
  O  O11  1  0.11230200  0.15770800  0.00755700  1
  O  O12  1  0.18803200  0.46849300  0.17013900  1
  O  O13  1  0.81196800  0.96849300  0.32986100  1
  O  O14  1  0.81196800  0.53150700  0.82986100  1
  O  O15  1  0.18803200  0.03150700  0.67013900  1
  O  O16  1  0.27299100  0.95715400  0.14503400  1
  O  O17  1  0.72700900  0.45715400  0.35496600  1
  O  O18  1  0.72700900  0.04284600  0.85496600  1
  O  O19  1  0.27299100  0.54284600  0.64503400  1
  O  O20  1  0.31012700  0.70829500  0.33291600  1
  O  O21  1  0.68987300  0.20829500  0.16708400  1
  O  O22  1  0.68987300  0.29170500  0.66708400  1
  O  O23  1  0.31012700  0.79170500  0.83291600  1
  O  O24  1  0.32650500  0.54993300  0.00715300  1
  O  O25  1  0.67349500  0.04993300  0.49284700  1
  O  O26  1  0.67349500  0.45006700  0.99284700  1
  O  O27  1  0.32650500  0.95006700  0.50715300  1
  O  O28  1  0.52253900  0.96479000  0.28688900  1
  O  O29  1  0.47746100  0.46479000  0.21311100  1
  O  O30  1  0.47746100  0.03521000  0.71311100  1
  O  O31  1  0.52253900  0.53521000  0.78688900  1
  O  O32  1  0.50776300  0.82227500  0.09594200  1
  O  O33  1  0.49223700  0.32227500  0.40405800  1
  O  O34  1  0.49223700  0.17772500  0.90405800  1
  O  O35  1  0.50776300  0.67772500  0.59594200  1
  O  O36  1  0.77617300  0.63927000  0.16541700  1
  O  O37  1  0.22382700  0.13927000  0.33458300  1
  O  O38  1  0.22382700  0.36073000  0.83458300  1
  O  O39  1  0.77617300  0.86073000  0.66541700  1
loop_
_geom_bond_atom_site_label_1
_geom_bond_atom_site_label_2
_geom_bond_distance
_geom_bond_site_symmetry_2
Np0 O12 1.836960 1_555
Np0 O0 1.878177 1_545
Np0 O37 2.284265 1_555
Np0 O1 2.448159 1_455
Np0 O16 2.463582 1_545
Np0 O11 2.468719 1_555
Np0 O5 2.483425 1_455
Np1 O13 1.836960 1_555
Np1 O1 1.878177 1_555
Np1 O36 2.284265 1_555
Np1 O0 2.448159 1_655
Np1 O17 2.463582 1_555
Np1 O10 2.468719 1_555
Np1 O4 2.483425 1_655
Np2 O14 1.836960 1_555
Np2 O2 1.878177 1_565
Np2 O39 2.284265 1_555
Np2 O3 2.448159 1_655
Np2 O18 2.463582 1_565
Np2 O9 2.468719 1_555
Np2 O7 2.483425 1_655
Np3 O15 1.836960 1_555
Np3 O3 1.878177 1_555
Np3 O38 2.284265 1_555
Np3 O2 2.448159 1_455
Np3 O19 2.463582 1_555
Np3 O8 2.468719 1_555
Np3 O6 2.483425 1_455
Np4 O32 1.838232 1_555
Np4 O29 1.858658 1_555
Np4 O16 1.873085 1_555
Np4 O20 2.397008 1_555
Np4 O28 2.472785 1_555
Np4 O24 2.482580 1_555
Np4 O12 2.580173 1_555
Np5 O33 1.838232 1_555
Np5 O28 1.858658 1_545
Np5 O17 1.873085 1_555
Np5 O21 2.397008 1_555
Np5 O29 2.472785 1_555
Np5 O25 2.482580 1_555
Np5 O13 2.580173 1_545
Np6 O34 1.838232 1_555
Np6 O31 1.858658 1_555
Np6 O18 1.873085 1_555
Np6 O22 2.397008 1_555
Np6 O30 2.472785 1_555
Np6 O26 2.482580 1_555
Np6 O14 2.580173 1_555
Np7 O35 1.838232 1_555
Np7 O30 1.858658 1_565
Np7 O19 1.873085 1_555
Np7 O23 2.397008 1_555
Np7 O31 2.472785 1_555
Np7 O27 2.482580 1_555
Np7 O15 2.580173 1_565
H0 O8 0.973082 1_555
H1 O9 0.973082 1_554
H2 O10 0.973082 1_555
H3 O11 0.973082 1_556
H4 O8 0.975999 1_555
H5 O9 0.975999 1_554
H6 O10 0.975999 1_555
H7 O11 0.975999 1_556
O4 Se0 1.689141 1_555
O5 Se1 1.689141 1_555
O6 Se2 1.689141 1_555
O7 Se3 1.689141 1_555
O20 Se0 1.678228 1_555
O21 Se1 1.678228 1_555
O22 Se2 1.678228 1_555
O23 Se3 1.678228 1_555
O24 Se3 1.645025 1_554
O25 Se2 1.645025 1_555
O26 Se1 1.645025 1_556
O27 Se0 1.645025 1_555
O36 Se1 1.692150 1_555
O37 Se0 1.692150 1_545
O38 Se3 1.692150 1_555
O39 Se2 1.692150 1_565
