# generated using pymatgen
data_Ba3YIrRuO9
_symmetry_space_group_name_H-M   'P 1'
_cell_length_a   5.94652860
_cell_length_b   5.94652860
_cell_length_c   14.73417900
_cell_angle_alpha   90.00000000
_cell_angle_beta   90.00000000
_cell_angle_gamma   120.00000663
_symmetry_Int_Tables_number   1
_chemical_formula_structural   Ba3YIrRuO9
_chemical_formula_sum   'Ba6 Y2 Ir2 Ru2 O18'
_cell_volume   451.21504043
_cell_formula_units_Z   2
loop_
 _symmetry_equiv_pos_site_id
 _symmetry_equiv_pos_as_xyz
  1  'x, y, z'
loop_
 _atom_site_type_symbol
 _atom_site_label
 _atom_site_symmetry_multiplicity
 _atom_site_fract_x
 _atom_site_fract_y
 _atom_site_fract_z
 _atom_site_occupancy
  Ba  Ba0  1  0.66666700  0.33333300  0.40456200  1
  Ba  Ba1  1  0.33333300  0.66666700  0.59601200  1
  Ba  Ba2  1  0.33333300  0.66666700  0.90456200  1
  Ba  Ba3  1  0.66666700  0.33333300  0.09601200  1
  Ba  Ba4  1  0.00000000  0.00000000  0.74981300  1
  Ba  Ba5  1  0.00000000  0.00000000  0.24981300  1
  Y  Y0  1  0.00000000  0.00000000  0.50123700  1
  Y  Y1  1  0.00000000  0.00000000  0.00123700  1
  Ir  Ir0  1  0.66666700  0.33333300  0.66489500  1
  Ir  Ir1  1  0.33333300  0.66666700  0.16489500  1
  Ru  Ru0  1  0.33333300  0.66666700  0.33638200  1
  Ru  Ru1  1  0.66666700  0.33333300  0.83638200  1
  O  O0  1  0.50973000  0.01946000  0.75049300  1
  O  O1  1  0.50973000  0.49027000  0.75049300  1
  O  O2  1  0.98054000  0.49027000  0.75049300  1
  O  O3  1  0.49027000  0.98054000  0.25049300  1
  O  O4  1  0.49027000  0.50973000  0.25049300  1
  O  O5  1  0.01946000  0.50973000  0.25049300  1
  O  O6  1  0.82401500  0.64803000  0.91063300  1
  O  O7  1  0.82401500  0.17598500  0.91063300  1
  O  O8  1  0.35197000  0.17598500  0.91063300  1
  O  O9  1  0.17530000  0.35060000  0.08787200  1
  O  O10  1  0.17530000  0.82470000  0.08787200  1
  O  O11  1  0.64940000  0.82470000  0.08787200  1
  O  O12  1  0.17598500  0.35197000  0.41063300  1
  O  O13  1  0.17598500  0.82401500  0.41063300  1
  O  O14  1  0.64803000  0.82401500  0.41063300  1
  O  O15  1  0.82470000  0.64940000  0.58787200  1
  O  O16  1  0.82470000  0.17530000  0.58787200  1
  O  O17  1  0.35060000  0.17530000  0.58787200  1
loop_
_geom_bond_atom_site_label_1
_geom_bond_atom_site_label_2
_geom_bond_distance
_geom_bond_site_symmetry_2
Ba0 O3 2.907599 1_545
Ba0 O5 2.907599 1_655
Ba0 O4 2.907602 1_555
Ba0 O12 2.976155 1_655
Ba0 O14 2.976155 1_545
Ba0 O13 2.976157 1_655
Ba0 O13 2.976157 1_545
Ba0 O14 2.976161 1_555
Ba0 O12 2.976161 1_555
Ba0 O16 3.153468 1_555
Ba0 O15 3.153470 1_555
Ba0 O17 3.153470 1_555
Ba1 O2 2.912341 1_455
Ba1 O0 2.912341 1_565
Ba1 O1 2.912344 1_555
Ba1 O17 2.977008 1_565
Ba1 O15 2.977008 1_455
Ba1 O16 2.977010 1_565
Ba1 O16 2.977010 1_455
Ba1 O15 2.977014 1_555
Ba1 O17 2.977014 1_555
Ba1 O13 3.176011 1_555
Ba1 O12 3.176014 1_555
Ba1 O14 3.176014 1_555
Ba2 O2 2.907599 1_455
Ba2 O0 2.907599 1_565
Ba2 O1 2.907602 1_555
Ba2 O8 2.976155 1_565
Ba2 O6 2.976155 1_455
Ba2 O7 2.976157 1_565
Ba2 O7 2.976157 1_455
Ba2 O6 2.976161 1_555
Ba2 O8 2.976161 1_555
Ba2 O10 3.153468 1_556
Ba2 O9 3.153470 1_556
Ba2 O11 3.153470 1_556
Ba3 O3 2.912341 1_545
Ba3 O5 2.912341 1_655
Ba3 O4 2.912344 1_555
Ba3 O11 2.977008 1_545
Ba3 O9 2.977008 1_655
Ba3 O10 2.977010 1_545
Ba3 O10 2.977010 1_655
Ba3 O11 2.977014 1_555
Ba3 O9 2.977014 1_555
Ba3 O7 3.176011 1_554
Ba3 O8 3.176014 1_554
Ba3 O6 3.176014 1_554
Ba4 O1 2.974969 1_555
Ba4 O1 2.974969 1_445
Ba4 O0 2.974970 1_555
Ba4 O2 2.974970 1_445
Ba4 O2 2.974970 1_455
Ba4 O0 2.974970 1_455
Ba4 O8 2.983330 1_555
Ba4 O6 2.983330 1_445
Ba4 O7 2.983330 1_455
Ba4 O15 2.992203 1_445
Ba4 O17 2.992203 1_555
Ba4 O16 2.992203 1_455
Ba5 O4 2.974969 1_555
Ba5 O4 2.974969 1_445
Ba5 O5 2.974970 1_555
Ba5 O3 2.974970 1_445
Ba5 O3 2.974970 1_545
Ba5 O5 2.974970 1_545
Ba5 O14 2.983330 1_445
Ba5 O12 2.983330 1_555
Ba5 O13 2.983330 1_545
Ba5 O11 2.992203 1_445
Ba5 O9 2.992203 1_555
Ba5 O10 2.992203 1_545
Ir0 O16 1.984265 1_555
Ir0 O15 1.984269 1_555
Ir0 O17 1.984269 1_555
Ir0 O0 2.050221 1_555
Ir0 O2 2.050221 1_555
Ir0 O1 2.050225 1_555
Ir1 O10 1.984265 1_555
Ir1 O9 1.984269 1_555
Ir1 O11 1.984269 1_555
Ir1 O5 2.050221 1_555
Ir1 O3 2.050221 1_555
Ir1 O4 2.050225 1_555
O0 Ru1 2.052861 1_555
O1 Ru1 2.052866 1_555
O2 Ru1 2.052861 1_555
O3 Ru0 2.052861 1_555
O4 Ru0 2.052866 1_555
O5 Ru0 2.052861 1_555
O6 Ru1 1.955345 1_555
O6 Y1 2.251143 1_666
O7 Ru1 1.955340 1_555
O7 Y1 2.251143 1_656
O8 Ru1 1.955345 1_555
O8 Y1 2.251143 1_556
O9 Y1 2.211199 1_555
O10 Y1 2.211199 1_565
O11 Y1 2.211199 1_665
O12 Ru0 1.955345 1_555
O12 Y0 2.251143 1_555
O13 Ru0 1.955340 1_555
O13 Y0 2.251143 1_565
O14 Ru0 1.955345 1_555
O14 Y0 2.251143 1_665
O15 Y0 2.211199 1_665
O16 Y0 2.211199 1_655
O17 Y0 2.211199 1_555
