# generated using pymatgen
data_Ca3Ni2O7
_symmetry_space_group_name_H-M   'P 1'
_cell_length_a   5.37138300
_cell_length_b   5.34304568
_cell_length_c   9.99144272
_cell_angle_alpha   105.50848464
_cell_angle_beta   90.00000000
_cell_angle_gamma   90.00000000
_symmetry_Int_Tables_number   1
_chemical_formula_structural   Ca3Ni2O7
_chemical_formula_sum   'Ca6 Ni4 O14'
_cell_volume   276.30954417
_cell_formula_units_Z   2
loop_
 _symmetry_equiv_pos_site_id
 _symmetry_equiv_pos_as_xyz
  1  'x, y, z'
loop_
 _atom_site_type_symbol
 _atom_site_label
 _atom_site_symmetry_multiplicity
 _atom_site_fract_x
 _atom_site_fract_y
 _atom_site_fract_z
 _atom_site_occupancy
  Ca  Ca0  1  0.70166200  0.76245400  0.00000000  1
  Ca  Ca1  1  0.20166200  0.23754600  0.00000000  1
  Ca  Ca2  1  0.79089200  0.57263200  0.63054200  1
  Ca  Ca3  1  0.29089200  0.42736800  0.36945800  1
  Ca  Ca4  1  0.79089200  0.94208900  0.36945800  1
  Ca  Ca5  1  0.29089200  0.05791100  0.63054200  1
  Ni  Ni0  1  0.74905600  0.34703300  0.19546200  1
  Ni  Ni1  1  0.24905600  0.65296700  0.80453800  1
  Ni  Ni2  1  0.24905600  0.84842800  0.19546200  1
  Ni  Ni3  1  0.74905600  0.15157200  0.80453800  1
  O  O0  1  0.74713000  0.00588900  0.60678900  1
  O  O1  1  0.24713000  0.99411100  0.39321100  1
  O  O2  1  0.24713000  0.60090000  0.60678900  1
  O  O3  1  0.74713000  0.39910000  0.39321100  1
  O  O4  1  0.03360200  0.34945700  0.77509200  1
  O  O5  1  0.53360200  0.65054300  0.22490800  1
  O  O6  1  0.53360200  0.42563500  0.77509200  1
  O  O7  1  0.03360200  0.57436500  0.22490800  1
  O  O8  1  0.95872000  0.87448000  0.83384600  1
  O  O9  1  0.45872000  0.12552000  0.16615400  1
  O  O10  1  0.75953700  0.32755600  0.00000000  1
  O  O11  1  0.25953700  0.67244400  0.00000000  1
  O  O12  1  0.95872000  0.04063300  0.16615400  1
  O  O13  1  0.45872000  0.95936700  0.83384600  1
loop_
_geom_bond_atom_site_label_1
_geom_bond_atom_site_label_2
_geom_bond_distance
_geom_bond_site_symmetry_2
Ca0 O10 2.344382 1_555
Ca0 O12 2.356295 1_565
Ca0 O8 2.356298 1_554
Ca0 O11 2.423030 1_555
Ca0 O9 2.549473 1_565
Ca0 O13 2.549476 1_554
Ca0 O5 2.634518 1_555
Ca0 O6 2.634518 1_554
Ca1 O11 2.344382 1_555
Ca1 O13 2.356295 1_544
Ca1 O9 2.356298 1_555
Ca1 O10 2.423030 1_455
Ca1 O8 2.549473 1_444
Ca1 O12 2.549476 1_455
Ca1 O4 2.634518 1_554
Ca1 O7 2.634518 1_555
Ca2 O6 2.284579 1_555
Ca2 O3 2.315633 1_555
Ca2 O0 2.400873 1_565
Ca2 O8 2.405826 1_555
Ca2 O2 2.470605 1_655
Ca2 O4 2.475552 1_655
Ca3 O7 2.284579 1_555
Ca3 O2 2.315633 1_555
Ca3 O1 2.400873 1_545
Ca3 O9 2.405826 1_555
Ca3 O3 2.470605 1_555
Ca3 O5 2.475552 1_555
Ca4 O5 2.284577 1_555
Ca4 O0 2.315633 1_565
Ca4 O3 2.400878 1_565
Ca4 O12 2.405826 1_565
Ca4 O1 2.470605 1_655
Ca4 O7 2.475549 1_655
Ca5 O4 2.284577 1_555
Ca5 O1 2.315633 1_545
Ca5 O2 2.400878 1_545
Ca5 O13 2.405826 1_545
Ca5 O0 2.470605 1_555
Ca5 O6 2.475549 1_555
Ni0 O3 1.920245 1_555
Ni0 O7 1.925316 1_655
Ni0 O10 1.928554 1_555
Ni0 O9 1.932167 1_555
Ni0 O12 1.943658 1_555
Ni0 O5 1.949496 1_555
Ni1 O2 1.920245 1_555
Ni1 O6 1.925316 1_555
Ni1 O11 1.928554 1_556
Ni1 O8 1.932167 1_455
Ni1 O13 1.943658 1_555
Ni1 O4 1.949496 1_555
Ni2 O1 1.920245 1_555
Ni2 O5 1.925313 1_555
Ni2 O11 1.928553 1_555
Ni2 O12 1.932167 1_465
Ni2 O9 1.943658 1_565
Ni2 O7 1.949492 1_555
Ni3 O0 1.920245 1_555
Ni3 O4 1.925313 1_655
Ni3 O10 1.928553 1_556
Ni3 O13 1.932167 1_545
Ni3 O8 1.943658 1_545
Ni3 O6 1.949492 1_555
