# generated using pymatgen
data_Ce2ZrO6
_symmetry_space_group_name_H-M   'P 1'
_cell_length_a   8.48868616
_cell_length_b   8.48868616
_cell_length_c   8.48868616
_cell_angle_alpha   154.23667279
_cell_angle_beta   154.23667279
_cell_angle_gamma   36.75569640
_symmetry_Int_Tables_number   1
_chemical_formula_structural   Ce2ZrO6
_chemical_formula_sum   'Ce2 Zr1 O6'
_cell_volume   115.40257554
_cell_formula_units_Z   1
loop_
 _symmetry_equiv_pos_site_id
 _symmetry_equiv_pos_as_xyz
  1  'x, y, z'
loop_
 _atom_site_type_symbol
 _atom_site_label
 _atom_site_symmetry_multiplicity
 _atom_site_fract_x
 _atom_site_fract_y
 _atom_site_fract_z
 _atom_site_occupancy
  Ce  Ce0  1  0.33578100  0.33578100  0.00000000  1
  Ce  Ce1  1  0.66421900  0.66421900  0.00000000  1
  Zr  Zr0  1  0.00000000  0.00000000  0.00000000  1
  O  O0  1  0.42180800  0.92180800  0.50000000  1
  O  O1  1  0.75000000  0.25000000  0.50000000  1
  O  O2  1  0.07819200  0.57819200  0.50000000  1
  O  O3  1  0.92180800  0.42180800  0.50000000  1
  O  O4  1  0.25000000  0.75000000  0.50000000  1
  O  O5  1  0.57819200  0.07819200  0.50000000  1
loop_
_geom_bond_atom_site_label_1
_geom_bond_atom_site_label_2
_geom_bond_distance
_geom_bond_site_symmetry_2
Ce0 O4 2.343387 1_555
Ce0 O1 2.343387 1_555
Ce0 O4 2.343387 1_544
Ce0 O1 2.343387 1_454
Ce0 O3 2.345727 1_454
Ce0 O0 2.345727 1_555
Ce0 O0 2.345727 1_544
Ce0 O3 2.345727 1_555
Ce1 O1 2.343387 1_554
Ce1 O4 2.343387 1_554
Ce1 O1 2.343387 1_565
Ce1 O4 2.343387 1_655
Ce1 O5 2.345727 1_554
Ce1 O2 2.345727 1_655
Ce1 O5 2.345727 1_565
Ce1 O2 2.345727 1_554
O0 Zr0 2.273421 1_666
O0 Zr0 2.273421 1_565
O2 Zr0 2.273421 1_555
O2 Zr0 2.273421 1_566
O3 Zr0 2.273421 1_655
O3 Zr0 2.273421 1_666
O5 Zr0 2.273421 1_555
O5 Zr0 2.273421 1_656
