# generated using pymatgen
data_Mg6ZrNi
_symmetry_space_group_name_H-M   'P 1'
_cell_length_a   4.83960900
_cell_length_b   6.08654900
_cell_length_c   11.08331100
_cell_angle_alpha   90.00000000
_cell_angle_beta   90.00000000
_cell_angle_gamma   90.00000000
_symmetry_Int_Tables_number   1
_chemical_formula_structural   Mg6ZrNi
_chemical_formula_sum   'Mg12 Zr2 Ni2'
_cell_volume   326.47574243
_cell_formula_units_Z   2
loop_
 _symmetry_equiv_pos_site_id
 _symmetry_equiv_pos_as_xyz
  1  'x, y, z'
loop_
 _atom_site_type_symbol
 _atom_site_label
 _atom_site_symmetry_multiplicity
 _atom_site_fract_x
 _atom_site_fract_y
 _atom_site_fract_z
 _atom_site_occupancy
  Mg  Mg0  1  0.00000000  0.25543200  0.07440300  1
  Mg  Mg1  1  0.00000000  0.74456800  0.07440300  1
  Mg  Mg2  1  0.00000000  0.00000000  0.33311000  1
  Mg  Mg3  1  0.50000000  0.74482600  0.42059100  1
  Mg  Mg4  1  0.50000000  0.25517400  0.42059100  1
  Mg  Mg5  1  0.50000000  0.00000000  0.17417900  1
  Mg  Mg6  1  0.00000000  0.75543200  0.57440300  1
  Mg  Mg7  1  0.00000000  0.24456800  0.57440300  1
  Mg  Mg8  1  0.00000000  0.50000000  0.83311000  1
  Mg  Mg9  1  0.50000000  0.24482600  0.92059100  1
  Mg  Mg10  1  0.50000000  0.75517400  0.92059100  1
  Mg  Mg11  1  0.50000000  0.50000000  0.67417900  1
  Zr  Zr0  1  0.00000000  0.50000000  0.30987000  1
  Zr  Zr1  1  0.00000000  0.00000000  0.80987000  1
  Ni  Ni0  1  0.50000000  0.50000000  0.19285200  1
  Ni  Ni1  1  0.50000000  0.00000000  0.69285200  1
loop_
_geom_bond_atom_site_label_1
_geom_bond_atom_site_label_2
_geom_bond_distance
_geom_bond_site_symmetry_2
Mg0 Mg9 2.960706 1_454
Mg0 Mg9 2.960706 1_554
Mg0 Mg1 2.977150 1_555
Mg0 Zr0 3.004442 1_555
Mg0 Mg8 3.060698 1_554
Mg0 Mg5 3.081468 1_555
Mg0 Mg5 3.081468 1_455
Mg0 Mg1 3.109399 1_545
Mg0 Ni0 3.129660 1_455
Mg0 Ni0 3.129660 1_555
Mg0 Mg2 3.261698 1_555
Mg0 Zr1 3.318605 1_554
Mg1 Mg10 2.960706 1_554
Mg1 Mg10 2.960706 1_454
Mg1 Zr0 3.004442 1_555
Mg1 Mg8 3.060698 1_554
Mg1 Mg5 3.081468 1_465
Mg1 Mg5 3.081468 1_565
Mg1 Ni0 3.129660 1_455
Mg1 Ni0 3.129660 1_555
Mg1 Mg2 3.261698 1_565
Mg1 Zr1 3.318605 1_564
Mg2 Mg5 2.993037 1_455
Mg2 Mg5 2.993037 1_555
Mg2 Mg4 3.034427 1_555
Mg2 Mg4 3.034427 1_455
Mg2 Mg3 3.034427 1_545
Mg2 Mg3 3.034427 1_445
Mg2 Zr0 3.054155 1_545
Mg2 Zr0 3.054155 1_555
Mg2 Mg7 3.060698 1_555
Mg2 Mg6 3.060698 1_545
Mg3 Ni0 2.931147 1_555
Mg3 Mg6 2.960706 1_555
Mg3 Mg6 2.960706 1_655
Mg3 Mg4 2.980291 1_555
Mg3 Zr0 3.095464 1_555
Mg3 Zr0 3.095464 1_655
Mg3 Mg4 3.106258 1_565
Mg3 Mg5 3.141799 1_565
Mg4 Ni0 2.931147 1_555
Mg4 Mg7 2.960706 1_555
Mg4 Mg7 2.960706 1_655
Mg4 Zr0 3.095464 1_555
Mg4 Zr0 3.095464 1_655
Mg4 Mg5 3.141799 1_555
Mg5 Ni0 3.050304 1_555
Mg5 Ni0 3.050304 1_545
Mg5 Mg9 3.181191 1_554
Mg6 Mg7 2.977150 1_565
Mg6 Zr1 3.004442 1_565
Mg6 Mg7 3.109399 1_555
Mg6 Ni1 3.129660 1_465
Mg6 Ni1 3.129660 1_565
Mg6 Mg8 3.261698 1_555
Mg6 Zr0 3.318605 1_555
Mg7 Zr1 3.004442 1_555
Mg7 Ni1 3.129660 1_455
Mg7 Ni1 3.129660 1_555
Mg7 Mg8 3.261698 1_555
Mg7 Zr0 3.318605 1_555
Mg8 Mg9 3.034427 1_455
Mg8 Mg9 3.034427 1_555
Mg8 Zr1 3.054155 1_555
Mg8 Zr1 3.054155 1_565
Mg9 Ni1 2.931147 1_555
Mg9 Zr1 3.095464 1_555
Mg9 Zr1 3.095464 1_655
Mg10 Ni1 2.931147 1_565
Mg10 Mg9 2.980291 1_565
Mg10 Mg8 3.034427 1_555
Mg10 Mg8 3.034427 1_655
Mg10 Zr1 3.095464 1_565
Mg10 Zr1 3.095464 1_665
Mg10 Mg9 3.106258 1_555
Mg10 Mg11 3.141799 1_555
Mg10 Mg5 3.181191 1_566
Mg11 Mg8 2.993037 1_655
Mg11 Mg8 2.993037 1_555
Mg11 Ni1 3.050304 1_565
Mg11 Ni1 3.050304 1_555
Mg11 Mg6 3.081468 1_655
Mg11 Mg6 3.081468 1_555
Mg11 Mg7 3.081468 1_555
Mg11 Mg7 3.081468 1_655
Mg11 Mg9 3.141799 1_555
Mg11 Mg4 3.181191 1_555
Mg11 Mg3 3.181191 1_555
Ni0 Zr0 2.745455 1_555
Ni0 Zr0 2.745455 1_655
Ni1 Zr1 2.745455 1_655
Ni1 Zr1 2.745455 1_555
