# generated using pymatgen
data_ZnP2W2O9
_symmetry_space_group_name_H-M   'P 1'
_cell_length_a   6.69889200
_cell_length_b   7.33506800
_cell_length_c   14.98845800
_cell_angle_alpha   90.00000000
_cell_angle_beta   90.00000000
_cell_angle_gamma   90.00000000
_symmetry_Int_Tables_number   1
_chemical_formula_structural   ZnP2W2O9
_chemical_formula_sum   'Zn4 P8 W8 O36'
_cell_volume   736.48528790
_cell_formula_units_Z   4
loop_
 _symmetry_equiv_pos_site_id
 _symmetry_equiv_pos_as_xyz
  1  'x, y, z'
loop_
 _atom_site_type_symbol
 _atom_site_label
 _atom_site_symmetry_multiplicity
 _atom_site_fract_x
 _atom_site_fract_y
 _atom_site_fract_z
 _atom_site_occupancy
  Zn  Zn0  1  0.75000000  0.44580500  0.76656900  1
  Zn  Zn1  1  0.75000000  0.05419500  0.26656900  1
  Zn  Zn2  1  0.25000000  0.94580500  0.73343100  1
  Zn  Zn3  1  0.25000000  0.55419500  0.23343100  1
  P  P0  1  0.25000000  0.87644600  0.92241800  1
  P  P1  1  0.75000000  0.12355400  0.07758200  1
  P  P2  1  0.75000000  0.37644600  0.57758200  1
  P  P3  1  0.25000000  0.62355400  0.42241800  1
  P  P4  1  0.75000000  0.90079600  0.69038700  1
  P  P5  1  0.75000000  0.59920400  0.19038700  1
  P  P6  1  0.25000000  0.40079600  0.80961300  1
  P  P7  1  0.25000000  0.09920400  0.30961300  1
  W  W0  1  0.75000000  0.87291100  0.87524700  1
  W  W1  1  0.25000000  0.12708900  0.12475300  1
  W  W2  1  0.25000000  0.37291100  0.62475300  1
  W  W3  1  0.75000000  0.62708900  0.37524700  1
  W  W4  1  0.50000000  0.50000000  0.00000000  1
  W  W5  1  0.50000000  0.00000000  0.50000000  1
  W  W6  1  0.00000000  0.00000000  0.50000000  1
  W  W7  1  0.00000000  0.50000000  0.00000000  1
  O  O0  1  0.05322700  0.10016300  0.36476800  1
  O  O1  1  0.55322700  0.89983700  0.63523200  1
  O  O2  1  0.94677300  0.60016300  0.13523200  1
  O  O3  1  0.44677300  0.39983700  0.86476800  1
  O  O4  1  0.94677300  0.89983700  0.63523200  1
  O  O5  1  0.44677300  0.10016300  0.36476800  1
  O  O6  1  0.05322700  0.39983700  0.86476800  1
  O  O7  1  0.55322700  0.60016300  0.13523200  1
  O  O8  1  0.25000000  0.81459400  0.47085500  1
  O  O9  1  0.75000000  0.18540600  0.52914500  1
  O  O10  1  0.75000000  0.31459400  0.02914500  1
  O  O11  1  0.25000000  0.68540600  0.97085500  1
  O  O12  1  0.75000000  0.61682500  0.93626400  1
  O  O13  1  0.25000000  0.38317500  0.06373600  1
  O  O14  1  0.25000000  0.11682500  0.56373600  1
  O  O15  1  0.75000000  0.88317500  0.43626400  1
  O  O16  1  0.75000000  0.72357900  0.75095700  1
  O  O17  1  0.25000000  0.27642100  0.24904300  1
  O  O18  1  0.25000000  0.22357900  0.74904300  1
  O  O19  1  0.75000000  0.77642100  0.25095700  1
  O  O20  1  0.42902800  0.61323800  0.35664000  1
  O  O21  1  0.92902800  0.38676200  0.64336000  1
  O  O22  1  0.57097200  0.11323800  0.14336000  1
  O  O23  1  0.07097200  0.88676200  0.85664000  1
  O  O24  1  0.57097200  0.38676200  0.64336000  1
  O  O25  1  0.07097200  0.61323800  0.35664000  1
  O  O26  1  0.42902800  0.88676200  0.85664000  1
  O  O27  1  0.92902800  0.11323800  0.14336000  1
  O  O28  1  0.75000000  0.97425700  0.00853900  1
  O  O29  1  0.25000000  0.56057500  0.74104000  1
  O  O30  1  0.25000000  0.93942500  0.24104000  1
  O  O31  1  0.75000000  0.06057500  0.75896000  1
  O  O32  1  0.75000000  0.52574300  0.50853900  1
  O  O33  1  0.25000000  0.47425700  0.49146100  1
  O  O34  1  0.25000000  0.02574300  0.99146100  1
  O  O35  1  0.75000000  0.43942500  0.25896000  1
loop_
_geom_bond_atom_site_label_1
_geom_bond_atom_site_label_2
_geom_bond_distance
_geom_bond_site_symmetry_2
O0 P7 1.555960 1_555
O0 W6 2.185252 1_555
O0 Zn1 2.531038 1_455
O1 P4 1.555960 1_555
O1 W5 2.185252 1_565
O1 Zn2 2.531038 1_555
O2 P5 1.555960 1_555
O2 W7 2.185252 1_655
O2 Zn3 2.531038 1_655
O3 P6 1.555960 1_555
O3 W4 2.185252 1_556
O3 Zn0 2.531038 1_555
O4 P4 1.555960 1_555
O4 W6 2.185252 1_665
O4 Zn2 2.531038 1_655
O5 P7 1.555960 1_555
O5 W5 2.185252 1_555
O5 Zn1 2.531038 1_555
O6 P6 1.555960 1_555
O6 W7 2.185252 1_556
O6 Zn0 2.531038 1_455
O7 P5 1.555960 1_555
O7 W4 2.185252 1_555
O7 Zn3 2.531038 1_555
O8 P3 1.578191 1_555
O8 W6 2.201143 1_565
O8 W5 2.201143 1_565
O9 P2 1.578191 1_555
O9 W5 2.201143 1_555
O9 W6 2.201143 1_655
O10 P1 1.578191 1_555
O10 W7 2.201143 1_655
O10 W4 2.201143 1_555
O11 P0 1.578191 1_555
O11 W7 2.201143 1_556
O11 W4 2.201143 1_556
O12 W0 2.089215 1_555
O12 W7 2.109885 1_656
O12 W4 2.109885 1_556
O13 W1 2.089215 1_555
O13 W7 2.109885 1_555
O13 W4 2.109885 1_555
O14 W2 2.089215 1_555
O14 W5 2.109885 1_555
O14 W6 2.109885 1_555
O15 W3 2.089215 1_555
O15 W6 2.109885 1_665
O15 W5 2.109885 1_565
O16 P4 1.585538 1_555
O16 Zn0 2.050884 1_555
O16 W0 2.161080 1_555
O17 P7 1.585538 1_555
O17 Zn3 2.050884 1_555
O17 W1 2.161080 1_555
O18 P6 1.585538 1_555
O18 Zn2 2.050884 1_545
O18 W2 2.161080 1_555
O19 P5 1.585538 1_555
O19 Zn1 2.050884 1_565
O19 W3 2.161080 1_555
O20 P3 1.554362 1_555
O20 W3 2.170547 1_555
O20 Zn3 2.244149 1_555
O21 P2 1.554362 1_555
O21 W2 2.170547 1_655
O21 Zn0 2.244149 1_555
O22 P1 1.554362 1_555
O22 W1 2.170547 1_555
O22 Zn1 2.244149 1_555
O23 P0 1.554362 1_555
O23 W0 2.170547 1_455
O23 Zn2 2.244149 1_555
O24 P2 1.554362 1_555
O24 W2 2.170547 1_555
O24 Zn0 2.244149 1_555
O25 P3 1.554362 1_555
O25 W3 2.170547 1_455
O25 Zn3 2.244149 1_555
O26 P0 1.554362 1_555
O26 W0 2.170547 1_555
O26 Zn2 2.244149 1_555
O27 P1 1.554362 1_555
O27 W1 2.170547 1_655
O27 Zn1 2.244149 1_555
O28 P1 1.506706 1_565
O28 W0 2.131662 1_554
O29 P6 1.558827 1_555
O29 W2 2.220979 1_555
O30 P7 1.558827 1_565
O30 W1 2.220979 1_565
O31 P4 1.558827 1_545
O31 W0 2.220979 1_545
O32 P2 1.506706 1_555
O32 W3 2.131662 1_555
O33 P3 1.506706 1_555
O33 W2 2.131662 1_555
O34 P0 1.506706 1_545
O34 W1 2.131662 1_556
O35 P5 1.558827 1_555
O35 W3 2.220979 1_555
