# generated using pymatgen
data_PrZn(BiO3)2
_symmetry_space_group_name_H-M   'P 1'
_cell_length_a   6.02018358
_cell_length_b   6.02018358
_cell_length_c   8.18575497
_cell_angle_alpha   90.00000000
_cell_angle_beta   90.00000000
_cell_angle_gamma   90.00000000
_symmetry_Int_Tables_number   1
_chemical_formula_structural   PrZn(BiO3)2
_chemical_formula_sum   'Pr2 Zn2 Bi4 O12'
_cell_volume   296.67312769
_cell_formula_units_Z   2
loop_
 _symmetry_equiv_pos_site_id
 _symmetry_equiv_pos_as_xyz
  1  'x, y, z'
loop_
 _atom_site_type_symbol
 _atom_site_label
 _atom_site_symmetry_multiplicity
 _atom_site_fract_x
 _atom_site_fract_y
 _atom_site_fract_z
 _atom_site_occupancy
  Pr  Pr0  1  0.50000000  0.50000000  0.50000000  1
  Pr  Pr1  1  0.00000000  -0.00000000  -0.00000000  1
  Zn  Zn0  1  0.50000000  0.50000000  -0.00000000  1
  Zn  Zn1  1  0.00000000  -0.00000000  0.50000000  1
  Bi  Bi0  1  0.50000000  -0.00000000  0.75000000  1
  Bi  Bi1  1  0.00000000  0.50000000  0.75000000  1
  Bi  Bi2  1  0.50000000  -0.00000000  0.25000000  1
  Bi  Bi3  1  0.00000000  0.50000000  0.25000000  1
  O  O0  1  0.50000000  0.50000000  0.77049316  1
  O  O1  1  0.00000000  -0.00000000  0.72950684  1
  O  O2  1  0.50000000  0.50000000  0.22950684  1
  O  O3  1  0.00000000  -0.00000000  0.27049316  1
  O  O4  1  0.67336323  0.14623927  0.50000000  1
  O  O5  1  0.32663677  0.85376073  0.50000000  1
  O  O6  1  0.85376073  0.67336323  0.50000000  1
  O  O7  1  0.14623927  0.32663677  0.50000000  1
  O  O8  1  0.82663677  0.64623927  -0.00000000  1
  O  O9  1  0.17336323  0.35376073  -0.00000000  1
  O  O10  1  0.64623927  0.17336323  -0.00000000  1
  O  O11  1  0.35376073  0.82663677  -0.00000000  1
loop_
_geom_bond_atom_site_label_1
_geom_bond_atom_site_label_2
_geom_bond_distance
_geom_bond_site_symmetry_2
Bi0 O5 2.460134 1_545
Bi0 O11 2.460134 1_546
Bi0 O4 2.460134 1_555
Bi0 O10 2.460134 1_556
Bi1 O8 2.460134 1_456
Bi1 O9 2.460134 1_556
Bi1 O6 2.460134 1_455
Bi1 O7 2.460134 1_555
Bi2 O11 2.460134 1_545
Bi2 O5 2.460134 1_545
Bi2 O4 2.460134 1_555
Bi2 O10 2.460134 1_555
Bi3 O9 2.460134 1_555
Bi3 O6 2.460134 1_455
Bi3 O8 2.460134 1_455
Bi3 O7 2.460134 1_555
O0 Zn0 1.878687 1_556
O0 Pr0 2.214191 1_555
O1 Zn1 1.878687 1_555
O1 Pr1 2.214191 1_556
O2 Zn0 1.878687 1_555
O2 Pr0 2.214191 1_555
O3 Zn1 1.878687 1_555
O3 Pr1 2.214191 1_555
O4 Zn1 2.154498 1_655
O4 Pr0 2.371688 1_555
O5 Zn1 2.154498 1_565
O5 Pr0 2.371688 1_555
O6 Zn1 2.154498 1_665
O6 Pr0 2.371688 1_555
O7 Zn1 2.154498 1_555
O7 Pr0 2.371688 1_555
O8 Zn0 2.154498 1_555
O8 Pr1 2.371688 1_665
O9 Zn0 2.154498 1_555
O9 Pr1 2.371688 1_555
O10 Zn0 2.154498 1_555
O10 Pr1 2.371688 1_655
O11 Zn0 2.154498 1_555
O11 Pr1 2.371688 1_565
