# generated using pymatgen
data_Li4MnCo2O7
_symmetry_space_group_name_H-M   'P 1'
_cell_length_a   6.55301200
_cell_length_b   6.57472251
_cell_length_c   6.61814684
_cell_angle_alpha   72.10238376
_cell_angle_beta   71.38729844
_cell_angle_gamma   72.07364610
_symmetry_Int_Tables_number   1
_chemical_formula_structural   Li4MnCo2O7
_chemical_formula_sum   'Li8 Mn2 Co4 O14'
_cell_volume   250.09861116
_cell_formula_units_Z   2
loop_
 _symmetry_equiv_pos_site_id
 _symmetry_equiv_pos_as_xyz
  1  'x, y, z'
loop_
 _atom_site_type_symbol
 _atom_site_label
 _atom_site_symmetry_multiplicity
 _atom_site_fract_x
 _atom_site_fract_y
 _atom_site_fract_z
 _atom_site_occupancy
  Li  Li0  1  0.92583400  0.21817700  0.35513300  1
  Li  Li1  1  0.20491600  0.36662900  0.91839900  1
  Li  Li2  1  0.50354500  0.49954900  0.50189000  1
  Li  Li3  1  0.64640900  0.07542500  0.78369100  1
  Li  Li4  1  0.35980200  0.92472200  0.21883500  1
  Li  Li5  1  0.06620000  0.77568500  0.65261100  1
  Li  Li6  1  0.78671400  0.64121900  0.06756100  1
  Li  Li7  1  0.85868300  0.42937400  0.71603000  1
  Mn  Mn0  1  0.99960600  0.00404600  0.99734200  1
  Mn  Mn1  1  0.28269500  0.14472100  0.57332200  1
  Co  Co0  1  0.57321600  0.29178700  0.12619600  1
  Co  Co1  1  0.14173000  0.56838400  0.29321300  1
  Co  Co2  1  0.44258000  0.70946000  0.85497500  1
  Co  Co3  1  0.71674300  0.84926500  0.42948100  1
  O  O0  1  0.89211300  0.29872000  0.04076800  1
  O  O1  1  0.18825200  0.44574200  0.59624300  1
  O  O2  1  0.45220500  0.60243300  0.17763300  1
  O  O3  1  0.59171800  0.16609100  0.45830300  1
  O  O4  1  0.30322800  0.03985300  0.87972200  1
  O  O5  1  0.02976300  0.89549900  0.30024400  1
  O  O6  1  0.73210500  0.75411700  0.74923700  1
  O  O7  1  0.98476400  0.10094300  0.69292500  1
  O  O8  1  0.25174300  0.24462800  0.27672500  1
  O  O9  1  0.52712700  0.39216400  0.84208000  1
  O  O10  1  0.69827200  0.97080700  0.10125900  1
  O  O11  1  0.39390400  0.83757500  0.54188500  1
  O  O12  1  0.11691500  0.69729800  0.96748000  1
  O  O13  1  0.82921900  0.55568700  0.38681900  1
loop_
_geom_bond_atom_site_label_1
_geom_bond_atom_site_label_2
_geom_bond_distance
_geom_bond_site_symmetry_2
Li0 O0 2.049893 1_555
Li0 O8 2.080002 1_655
Li0 O5 2.126722 1_645
Li0 O13 2.169180 1_555
Li0 O3 2.177337 1_555
Li0 O7 2.247154 1_555
Li1 O9 2.055932 1_555
Li1 O1 2.064038 1_555
Li1 O0 2.082876 1_456
Li1 O4 2.115927 1_555
Li1 O12 2.169628 1_555
Li1 O8 2.346317 1_556
Li2 O1 2.067494 1_555
Li2 O13 2.132002 1_555
Li2 O2 2.145820 1_555
Li2 O3 2.173975 1_555
Li2 O9 2.183851 1_555
Li2 O11 2.186932 1_555
Li3 O6 2.077041 1_545
Li3 O9 2.096844 1_555
Li3 O10 2.104598 1_546
Li3 O7 2.149886 1_555
Li3 O3 2.166413 1_555
Li3 O4 2.199111 1_555
Li4 O2 2.095447 1_555
Li4 O11 2.102969 1_555
Li4 O5 2.110222 1_555
Li4 O8 2.115968 1_565
Li4 O10 2.187212 1_555
Li4 O4 2.249780 1_564
Li5 O12 2.096433 1_555
Li5 O6 2.112791 1_455
Li5 O7 2.118101 1_465
Li5 O11 2.159681 1_555
Li5 O1 2.173369 1_555
Li5 O5 2.286133 1_555
Li6 O13 2.099310 1_555
Li6 O6 2.115151 1_554
Li6 O10 2.126669 1_555
Li6 O2 2.147405 1_555
Li6 O12 2.163996 1_654
Li6 O0 2.188393 1_555
Li7 O1 2.074116 1_655
Li7 O6 2.092076 1_555
Li7 O7 2.095904 1_555
Li7 O0 2.110635 1_556
Li7 O9 2.126297 1_555
Li7 O13 2.128777 1_555
Mn0 O0 1.924891 1_556
Mn0 O10 1.930375 1_546
Mn0 O7 1.942241 1_555
Mn0 O4 1.951176 1_655
Mn0 O5 1.963092 1_646
Mn0 O12 1.972570 1_645
Mn1 O1 1.921868 1_555
Mn1 O8 1.924919 1_555
Mn1 O7 1.934028 1_455
Mn1 O3 1.955854 1_555
Mn1 O4 1.965498 1_555
Mn1 O11 1.976832 1_545
Co0 O9 1.881346 1_554
Co0 O0 1.994325 1_555
Co0 O2 2.043078 1_555
Co0 O10 2.053175 1_545
Co0 O8 2.097381 1_555
Co0 O3 2.126164 1_555
Co1 O13 1.961685 1_455
Co1 O2 1.989045 1_555
Co1 O1 2.002539 1_555
Co1 O8 2.051947 1_555
Co1 O5 2.057740 1_555
Co1 O12 2.099517 1_554
Co2 O6 1.882718 1_555
Co2 O9 2.008467 1_555
Co2 O12 2.041875 1_555
Co2 O2 2.047962 1_556
Co2 O11 2.070870 1_555
Co2 O4 2.116942 1_565
Co3 O13 1.917020 1_555
Co3 O11 2.023679 1_555
Co3 O5 2.033614 1_655
Co3 O3 2.034840 1_565
Co3 O6 2.040415 1_555
Co3 O10 2.100752 1_555
