# generated using pymatgen
data_SrMg14Zn
_symmetry_space_group_name_H-M   'P 1'
_cell_length_a   6.51344529
_cell_length_b   6.47635107
_cell_length_c   10.57126018
_cell_angle_alpha   90.00000000
_cell_angle_beta   90.00000000
_cell_angle_gamma   119.81179392
_symmetry_Int_Tables_number   1
_chemical_formula_structural   SrMg14Zn
_chemical_formula_sum   'Sr1 Mg14 Zn1'
_cell_volume   386.91811279
_cell_formula_units_Z   1
loop_
 _symmetry_equiv_pos_site_id
 _symmetry_equiv_pos_as_xyz
  1  'x, y, z'
loop_
 _atom_site_type_symbol
 _atom_site_label
 _atom_site_symmetry_multiplicity
 _atom_site_fract_x
 _atom_site_fract_y
 _atom_site_fract_z
 _atom_site_occupancy
  Sr  Sr0  1  0.15777595  0.82888747  0.12500000  1
  Mg  Mg0  1  0.16335791  0.33167846  0.62500000  1
  Mg  Mg1  1  0.16779177  0.83389539  0.62500000  1
  Mg  Mg2  1  0.65108487  0.33769783  0.12500000  1
  Mg  Mg3  1  0.66627487  0.32975004  0.62500000  1
  Mg  Mg4  1  0.65108487  0.81338604  0.12500000  1
  Mg  Mg5  1  0.66627487  0.83652382  0.62500000  1
  Mg  Mg6  1  0.33630227  0.17531636  0.38469043  1
  Mg  Mg7  1  0.33630227  0.17531636  0.86530957  1
  Mg  Mg8  1  0.33630227  0.66098692  0.38469043  1
  Mg  Mg9  1  0.33630227  0.66098692  0.86530957  1
  Mg  Mg10  1  0.83961267  0.16980683  0.36184776  1
  Mg  Mg11  1  0.83961267  0.16980683  0.88815224  1
  Mg  Mg12  1  0.82516483  0.66258292  0.38844323  1
  Mg  Mg13  1  0.82516483  0.66258292  0.86155677  1
  Zn  Zn0  1  0.20159081  0.35079490  0.12500000  1
loop_
_geom_bond_atom_site_label_1
_geom_bond_atom_site_label_2
_geom_bond_distance
_geom_bond_site_symmetry_2
Sr0 Zn0 3.247629 1_565
Sr0 Zn0 3.247629 1_555
Mg0 Mg6 3.143584 1_555
Mg0 Mg7 3.143584 1_555
Mg0 Mg9 3.143590 1_555
Mg0 Mg8 3.143590 1_555
Mg0 Mg5 3.231532 1_445
Mg0 Mg3 3.231532 1_455
Mg0 Mg1 3.238272 1_555
Mg0 Mg1 3.238272 1_545
Mg0 Mg5 3.281949 1_555
Mg0 Mg3 3.281949 1_555
Mg0 Mg11 3.329605 1_455
Mg0 Mg10 3.329605 1_455
Mg1 Mg13 3.162746 1_455
Mg1 Mg12 3.162746 1_455
Mg1 Mg8 3.183438 1_555
Mg1 Mg9 3.183438 1_555
Mg1 Mg7 3.183444 1_565
Mg1 Mg6 3.183444 1_565
Mg1 Mg3 3.238413 1_565
Mg1 Mg5 3.238413 1_555
Mg1 Mg3 3.275099 1_455
Mg1 Mg5 3.275099 1_455
Mg2 Zn0 2.970836 1_555
Mg2 Mg4 3.080724 1_555
Mg2 Sr0 3.251561 1_655
Mg2 Sr0 3.264213 1_545
Mg2 Mg7 3.271431 1_554
Mg2 Mg6 3.271431 1_555
Mg2 Mg4 3.395627 1_545
Mg3 Mg6 3.152107 1_555
Mg3 Mg7 3.152107 1_555
Mg3 Mg5 3.194306 1_545
Mg3 Mg5 3.282045 1_555
Mg4 Zn0 2.970836 1_555
Mg4 Sr0 3.251561 1_655
Mg4 Sr0 3.264214 1_555
Mg4 Mg9 3.271431 1_554
Mg4 Mg8 3.271431 1_555
Mg5 Mg9 3.152106 1_555
Mg5 Mg8 3.152106 1_555
Mg6 Mg8 3.145373 1_555
Mg6 Zn0 3.254129 1_555
Mg6 Mg8 3.330978 1_545
Mg6 Sr0 3.365747 1_545
Mg7 Mg9 3.145373 1_555
Mg7 Zn0 3.254129 1_556
Mg7 Mg9 3.330978 1_545
Mg7 Sr0 3.365747 1_546
Mg8 Zn0 3.254135 1_555
Mg8 Sr0 3.365741 1_555
Mg9 Zn0 3.254135 1_556
Mg9 Sr0 3.365741 1_556
Mg10 Mg2 3.207283 1_555
Mg10 Mg4 3.207290 1_545
Mg10 Mg8 3.226619 1_655
Mg10 Mg6 3.226619 1_655
Mg10 Zn0 3.233240 1_655
Mg10 Mg12 3.251383 1_545
Mg10 Mg12 3.251383 1_555
Mg10 Mg8 3.305002 1_545
Mg10 Mg6 3.305003 1_555
Mg10 Mg3 3.353985 1_555
Mg10 Mg5 3.353991 1_545
Mg11 Mg2 3.207283 1_556
Mg11 Mg4 3.207290 1_546
Mg11 Mg9 3.226619 1_655
Mg11 Mg7 3.226619 1_655
Mg11 Zn0 3.233240 1_656
Mg11 Mg13 3.251383 1_545
Mg11 Mg13 3.251383 1_555
Mg11 Mg9 3.305002 1_545
Mg11 Mg7 3.305003 1_555
Mg11 Mg3 3.353985 1_555
Mg11 Mg5 3.353991 1_545
Mg12 Mg5 3.122945 1_555
Mg12 Mg3 3.122952 1_555
Mg12 Mg6 3.179301 1_555
Mg12 Mg8 3.179301 1_555
Mg12 Mg4 3.331125 1_555
Mg12 Mg2 3.331131 1_555
Mg12 Mg6 3.334652 1_665
Mg12 Mg8 3.334653 1_655
Mg12 Sr0 3.359949 1_655
Mg13 Mg5 3.122945 1_555
Mg13 Mg3 3.122952 1_555
Mg13 Mg7 3.179301 1_555
Mg13 Mg9 3.179301 1_555
Mg13 Mg4 3.331125 1_556
Mg13 Mg2 3.331131 1_556
Mg13 Mg7 3.334652 1_665
Mg13 Mg9 3.334653 1_655
Mg13 Sr0 3.359949 1_656
