# generated using pymatgen
data_NbCr3(CuS4)2
_symmetry_space_group_name_H-M   'P 1'
_cell_length_a   11.40804900
_cell_length_b   3.42410200
_cell_length_c   12.04546600
_cell_angle_alpha   90.00000000
_cell_angle_beta   90.00000000
_cell_angle_gamma   90.00000000
_symmetry_Int_Tables_number   1
_chemical_formula_structural   NbCr3(CuS4)2
_chemical_formula_sum   'Nb2 Cr6 Cu4 S16'
_cell_volume   470.52388836
_cell_formula_units_Z   2
loop_
 _symmetry_equiv_pos_site_id
 _symmetry_equiv_pos_as_xyz
  1  'x, y, z'
loop_
 _atom_site_type_symbol
 _atom_site_label
 _atom_site_symmetry_multiplicity
 _atom_site_fract_x
 _atom_site_fract_y
 _atom_site_fract_z
 _atom_site_occupancy
  Nb  Nb0  1  0.14672800  0.25000000  0.71366300  1
  Nb  Nb1  1  0.64672800  0.25000000  0.78633700  1
  Cr  Cr0  1  0.11246600  0.25000000  0.07891700  1
  Cr  Cr1  1  0.88398700  0.75000000  0.93637300  1
  Cr  Cr2  1  0.38398700  0.75000000  0.56362700  1
  Cr  Cr3  1  0.61246600  0.25000000  0.42108300  1
  Cr  Cr4  1  0.85300900  0.75000000  0.29516600  1
  Cr  Cr5  1  0.35300900  0.75000000  0.20483400  1
  Cu  Cu0  1  0.11709400  0.75000000  0.41362500  1
  Cu  Cu1  1  0.87491300  0.25000000  0.55485000  1
  Cu  Cu2  1  0.37491300  0.25000000  0.94515000  1
  Cu  Cu3  1  0.61709400  0.75000000  0.08637500  1
  S  S0  1  0.03212600  0.75000000  0.61240100  1
  S  S1  1  0.97183100  0.25000000  0.38264900  1
  S  S2  1  0.47183100  0.25000000  0.11735100  1
  S  S3  1  0.53212600  0.75000000  0.88759900  1
  S  S4  1  0.02561700  0.25000000  0.88296700  1
  S  S5  1  0.97080800  0.75000000  0.11956500  1
  S  S6  1  0.47080800  0.75000000  0.38043500  1
  S  S7  1  0.52561700  0.25000000  0.61703300  1
  S  S8  1  0.21560900  0.25000000  0.24929700  1
  S  S9  1  0.79687000  0.75000000  0.74715900  1
  S  S10  1  0.29687000  0.75000000  0.75284100  1
  S  S11  1  0.71560900  0.25000000  0.25070300  1
  S  S12  1  0.24925000  0.75000000  0.03009300  1
  S  S13  1  0.74969200  0.25000000  0.97934700  1
  S  S14  1  0.24969200  0.25000000  0.52065300  1
  S  S15  1  0.74925000  0.75000000  0.46990700  1
loop_
_geom_bond_atom_site_label_1
_geom_bond_atom_site_label_2
_geom_bond_distance
_geom_bond_site_symmetry_2
Nb0 S4 2.463303 1_555
Nb0 S10 2.467307 1_545
Nb0 S10 2.467307 1_555
Nb0 S0 2.475512 1_555
Nb0 S0 2.475512 1_545
Nb0 S14 2.604778 1_555
Nb1 S7 2.463303 1_555
Nb1 S9 2.467307 1_545
Nb1 S9 2.467307 1_555
Nb1 S3 2.475512 1_555
Nb1 S3 2.475512 1_545
Nb1 S13 2.604778 1_555
Cr0 S8 2.365691 1_555
Cr0 S12 2.389970 1_555
Cr0 S12 2.389970 1_545
Cr0 S5 2.404670 1_455
Cr0 S5 2.404670 1_445
Cr0 S4 2.559824 1_554
Cr1 S13 2.355044 1_565
Cr1 S13 2.355044 1_555
Cr1 S5 2.418726 1_556
Cr1 S4 2.440392 1_655
Cr1 S4 2.440392 1_665
Cr1 S9 2.486429 1_555
Cr2 S14 2.355044 1_555
Cr2 S14 2.355044 1_565
Cr2 S6 2.418726 1_555
Cr2 S7 2.440392 1_555
Cr2 S7 2.440392 1_565
Cr2 S10 2.486429 1_555
Cr3 S11 2.365691 1_555
Cr3 S15 2.389970 1_555
Cr3 S15 2.389970 1_545
Cr3 S6 2.404670 1_555
Cr3 S6 2.404670 1_545
Cr3 S7 2.559824 1_555
Cr4 S11 2.382207 1_555
Cr4 S11 2.382207 1_565
Cr4 S15 2.414840 1_555
Cr4 S1 2.424667 1_555
Cr4 S1 2.424667 1_565
Cr4 S5 2.505994 1_555
Cr5 S8 2.382207 1_565
Cr5 S8 2.382207 1_555
Cr5 S12 2.414840 1_555
Cr5 S2 2.424667 1_555
Cr5 S2 2.424667 1_565
Cr5 S6 2.505994 1_555
Cu0 S1 2.411751 1_455
Cu0 S1 2.411751 1_465
Cu0 S0 2.583116 1_555
Cu0 S14 2.623238 1_565
Cu0 S14 2.623238 1_555
Cu0 S8 2.848200 1_565
Cu0 S8 2.848200 1_555
Cu1 S1 2.350517 1_555
Cu1 S15 2.456244 1_545
Cu1 S15 2.456244 1_555
Cu1 S0 2.574549 1_655
Cu1 S0 2.574549 1_645
Cu1 S9 3.014918 1_555
Cu1 S9 3.014918 1_545
Cu2 S2 2.350517 1_556
Cu2 S12 2.456244 1_546
Cu2 S12 2.456244 1_556
Cu2 S3 2.574549 1_555
Cu2 S3 2.574549 1_545
Cu2 S10 3.014918 1_545
Cu2 S10 3.014918 1_555
Cu3 S2 2.411751 1_555
Cu3 S2 2.411751 1_565
Cu3 S3 2.583116 1_554
Cu3 S13 2.623238 1_554
Cu3 S13 2.623238 1_564
Cu3 S11 2.848200 1_555
Cu3 S11 2.848200 1_565
