# generated using pymatgen
data_BaMg14W
_symmetry_space_group_name_H-M   'P 1'
_cell_length_a   6.51443709
_cell_length_b   6.51443654
_cell_length_c   10.42318718
_cell_angle_alpha   90.00000000
_cell_angle_beta   90.00000000
_cell_angle_gamma   120.00000274
_symmetry_Int_Tables_number   1
_chemical_formula_structural   BaMg14W
_chemical_formula_sum   'Ba1 Mg14 W1'
_cell_volume   383.07596909
_cell_formula_units_Z   1
loop_
 _symmetry_equiv_pos_site_id
 _symmetry_equiv_pos_as_xyz
  1  'x, y, z'
loop_
 _atom_site_type_symbol
 _atom_site_label
 _atom_site_symmetry_multiplicity
 _atom_site_fract_x
 _atom_site_fract_y
 _atom_site_fract_z
 _atom_site_occupancy
  Ba  Ba0  1  0.16666700  0.33333300  0.12500000  1
  Mg  Mg0  1  0.18257357  0.84128629  0.12500000  1
  Mg  Mg1  1  0.15719105  0.82859502  0.62500000  1
  Mg  Mg2  1  0.65871371  0.31742643  0.12500000  1
  Mg  Mg3  1  0.67140498  0.34280895  0.62500000  1
  Mg  Mg4  1  0.65871371  0.84128629  0.12500000  1
  Mg  Mg5  1  0.67140498  0.82859502  0.62500000  1
  Mg  Mg6  1  0.33142357  0.16857643  0.40324057  1
  Mg  Mg7  1  0.33142357  0.16857643  0.84675943  1
  Mg  Mg8  1  0.33142357  0.66284814  0.40324057  1
  Mg  Mg9  1  0.33142357  0.66284814  0.84675943  1
  Mg  Mg10  1  0.83715186  0.16857643  0.40324057  1
  Mg  Mg11  1  0.83715186  0.16857643  0.84675943  1
  Mg  Mg12  1  0.83333300  0.66666700  0.36440786  1
  Mg  Mg13  1  0.83333300  0.66666700  0.88559214  1
  W  W0  1  0.16666700  0.33333300  0.62500000  1
loop_
_geom_bond_atom_site_label_1
_geom_bond_atom_site_label_2
_geom_bond_distance
_geom_bond_site_symmetry_2
Ba0 Mg0 3.258454 1_545
Ba0 Mg4 3.258454 1_555
Ba0 Mg4 3.258454 1_445
Ba0 Mg0 3.258454 1_555
Ba0 Mg2 3.258454 1_555
Ba0 Mg2 3.258455 1_455
Ba0 Mg6 3.444820 1_555
Ba0 Mg7 3.444820 1_554
Ba0 Mg9 3.444826 1_554
Ba0 Mg8 3.444826 1_555
Ba0 Mg10 3.444826 1_455
Ba0 Mg11 3.444826 1_454
Mg0 Mg2 3.101785 1_565
Mg0 Mg4 3.101785 1_555
Mg0 Mg12 3.179476 1_455
Mg0 Mg13 3.179476 1_454
Mg0 Mg2 3.412652 1_455
Mg0 Mg4 3.412652 1_455
Mg0 Mg9 3.439413 1_554
Mg0 Mg8 3.439413 1_555
Mg0 Mg6 3.439419 1_565
Mg0 Mg7 3.439419 1_564
Mg1 Mg8 3.003737 1_555
Mg1 Mg9 3.003737 1_555
Mg1 Mg6 3.003744 1_565
Mg1 Mg7 3.003744 1_565
Mg1 Mg3 3.164623 1_455
Mg1 Mg5 3.164623 1_455
Mg1 W0 3.257657 1_555
Mg1 W0 3.257657 1_565
Mg1 Mg12 3.273536 1_455
Mg1 Mg13 3.273536 1_455
Mg1 Mg3 3.349814 1_565
Mg1 Mg5 3.349814 1_555
Mg2 Mg4 3.101785 1_545
Mg2 Mg4 3.412652 1_555
Mg2 Mg7 3.439419 1_554
Mg2 Mg6 3.439419 1_555
Mg3 Mg6 3.003745 1_555
Mg3 Mg7 3.003745 1_555
Mg3 Mg5 3.164623 1_555
Mg3 W0 3.257657 1_655
Mg3 W0 3.257657 1_555
Mg3 Mg5 3.349814 1_545
Mg4 Mg9 3.439419 1_554
Mg4 Mg8 3.439419 1_555
Mg5 Mg8 3.003745 1_555
Mg5 Mg9 3.003745 1_555
Mg5 W0 3.257657 1_665
Mg5 W0 3.257657 1_555
Mg6 W0 2.966252 1_555
Mg6 Mg8 3.219902 1_555
Mg6 Mg8 3.294535 1_545
Mg7 W0 2.966252 1_555
Mg7 Mg9 3.219902 1_555
Mg7 Mg9 3.294535 1_545
Mg8 W0 2.966259 1_555
Mg9 W0 2.966259 1_555
Mg10 W0 2.966259 1_655
Mg10 Mg3 3.003737 1_555
Mg10 Mg5 3.003745 1_545
Mg10 Mg8 3.219902 1_655
Mg10 Mg6 3.219902 1_655
Mg10 Mg12 3.282342 1_545
Mg10 Mg12 3.282342 1_555
Mg10 Mg8 3.294535 1_545
Mg10 Mg6 3.294535 1_555
Mg10 Mg2 3.439413 1_555
Mg10 Mg4 3.439419 1_545
Mg11 W0 2.966259 1_655
Mg11 Mg3 3.003737 1_555
Mg11 Mg5 3.003745 1_545
Mg11 Mg9 3.219902 1_655
Mg11 Mg7 3.219902 1_655
Mg11 Mg13 3.282342 1_545
Mg11 Mg13 3.282342 1_555
Mg11 Mg9 3.294535 1_545
Mg11 Mg7 3.294535 1_555
Mg11 Mg2 3.439413 1_556
Mg11 Mg4 3.439419 1_546
Mg12 Mg4 3.179469 1_555
Mg12 Mg2 3.179476 1_555
Mg12 Mg5 3.273530 1_555
Mg12 Mg3 3.273536 1_555
Mg12 Mg6 3.282342 1_665
Mg12 Mg6 3.282342 1_555
Mg12 Mg8 3.282342 1_655
Mg12 Mg8 3.282342 1_555
Mg13 Mg4 3.179469 1_556
Mg13 Mg2 3.179476 1_556
Mg13 Mg5 3.273530 1_555
Mg13 Mg3 3.273536 1_555
Mg13 Mg7 3.282342 1_665
Mg13 Mg7 3.282342 1_555
Mg13 Mg9 3.282342 1_655
Mg13 Mg9 3.282342 1_555
