# generated using pymatgen
data_AlRe(WO4)2
_symmetry_space_group_name_H-M   'P 1'
_cell_length_a   5.03292900
_cell_length_b   5.64577460
_cell_length_c   6.02864456
_cell_angle_alpha   115.65460083
_cell_angle_beta   109.72563776
_cell_angle_gamma   90.77359815
_symmetry_Int_Tables_number   1
_chemical_formula_structural   AlRe(WO4)2
_chemical_formula_sum   'Al1 Re1 W2 O8'
_cell_volume   142.75925029
_cell_formula_units_Z   1
loop_
 _symmetry_equiv_pos_site_id
 _symmetry_equiv_pos_as_xyz
  1  'x, y, z'
loop_
 _atom_site_type_symbol
 _atom_site_label
 _atom_site_symmetry_multiplicity
 _atom_site_fract_x
 _atom_site_fract_y
 _atom_site_fract_z
 _atom_site_occupancy
  Al  Al0  1  0.56767600  0.23286100  0.93327800  1
  Re  Re0  1  0.02234700  0.77725300  0.89706200  1
  W  W0  1  0.26193200  0.59816700  0.38999500  1
  W  W1  1  0.77945300  0.96375700  0.40751700  1
  O  O0  1  0.33270400  0.30890800  0.12062900  1
  O  O1  1  0.21281600  0.53883600  0.66643000  1
  O  O2  1  0.35662300  0.82000400  0.20874800  1
  O  O3  1  0.22115700  0.99021900  0.62082800  1
  O  O4  1  0.79324400  0.03939700  0.10362200  1
  O  O5  1  0.72653000  0.24154900  0.69097500  1
  O  O6  1  0.69288400  0.73917400  0.58614100  1
  O  O7  1  0.83253600  0.57137900  0.17867700  1
loop_
_geom_bond_atom_site_label_1
_geom_bond_atom_site_label_2
_geom_bond_distance
_geom_bond_site_symmetry_2
Al0 O0 1.831405 1_556
Al0 O5 1.903881 1_555
Al0 O4 1.937579 1_556
Al0 O7 1.941650 1_556
Al0 O3 1.987437 1_545
O0 W0 1.881694 1_555
O1 W0 1.926097 1_555
O1 Re0 1.994497 1_555
O2 Re0 1.970241 1_554
O2 W1 2.003293 1_555
O2 W0 2.123687 1_555
O3 W0 2.101402 1_555
O3 W1 2.124372 1_455
O4 W1 2.075134 1_545
O4 Re0 2.119003 1_644
O5 W1 1.857084 1_545
O6 Re0 1.962800 1_655
O6 W0 2.035521 1_555
O6 W1 2.107422 1_555
O7 W0 2.069333 1_655
O7 W1 2.121456 1_555
