# generated using pymatgen
data_NaHfMg6O7
_symmetry_space_group_name_H-M   'P 1'
_cell_length_a   8.92524739
_cell_length_b   4.39492505
_cell_length_c   4.39492505
_cell_angle_alpha   90.00000000
_cell_angle_beta   90.00000000
_cell_angle_gamma   90.00000000
_symmetry_Int_Tables_number   1
_chemical_formula_structural   NaHfMg6O7
_chemical_formula_sum   'Na1 Hf1 Mg6 O7'
_cell_volume   172.39442172
_cell_formula_units_Z   1
loop_
 _symmetry_equiv_pos_site_id
 _symmetry_equiv_pos_as_xyz
  1  'x, y, z'
loop_
 _atom_site_type_symbol
 _atom_site_label
 _atom_site_symmetry_multiplicity
 _atom_site_fract_x
 _atom_site_fract_y
 _atom_site_fract_z
 _atom_site_occupancy
  Na  Na0  1  0.99699514  0.00000000  0.00000000  1
  Hf  Hf0  1  0.49988082  0.00000000  -0.00000000  1
  Mg  Mg0  1  0.98916828  0.50000000  0.50000000  1
  Mg  Mg1  1  0.51115407  0.50000000  0.50000000  1
  Mg  Mg2  1  0.22396136  0.00000000  0.50000000  1
  Mg  Mg3  1  0.76522896  0.00000000  0.50000000  1
  Mg  Mg4  1  0.22396136  0.50000000  -0.00000000  1
  Mg  Mg5  1  0.76522896  0.50000000  0.00000000  1
  O  O0  1  0.26707857  0.00000000  -0.00000000  1
  O  O1  1  0.73369789  0.00000000  0.00000000  1
  O  O2  1  0.75111811  0.50000000  0.50000000  1
  O  O3  1  0.99442714  0.00000000  0.50000000  1
  O  O4  1  0.51683610  0.00000000  0.50000000  1
  O  O5  1  0.99442714  0.50000000  0.00000000  1
  O  O6  1  0.51683610  0.50000000  0.00000000  1
loop_
_geom_bond_atom_site_label_1
_geom_bond_atom_site_label_2
_geom_bond_distance
_geom_bond_site_symmetry_2
Na0 O3 2.197582 1_554
Na0 O5 2.197582 1_545
Na0 O5 2.197582 1_555
Na0 O3 2.197582 1_555
Na0 O1 2.349993 1_555
Na0 O0 2.410561 1_655
Hf0 O0 2.077818 1_555
Hf0 O1 2.086875 1_555
Hf0 O6 2.202667 1_555
Hf0 O4 2.202667 1_555
Hf0 O4 2.202667 1_554
Hf0 O6 2.202667 1_545
Mg0 O2 2.124657 1_555
Mg0 O5 2.197964 1_556
Mg0 O5 2.197964 1_555
Mg0 O3 2.197964 1_555
Mg0 O3 2.197964 1_565
Mg1 O2 2.141738 1_555
Mg1 O6 2.198048 1_556
Mg1 O6 2.198048 1_555
Mg1 O4 2.198048 1_555
Mg1 O4 2.198048 1_565
Mg2 O3 2.048650 1_455
Mg2 O0 2.230905 1_555
Mg2 O0 2.230905 1_556
Mg2 O4 2.613980 1_555
Mg3 O3 2.045650 1_555
Mg3 O2 2.201069 1_555
Mg3 O2 2.201069 1_545
Mg3 O1 2.215410 1_555
Mg3 O1 2.215410 1_556
Mg3 O4 2.216968 1_555
Mg4 O5 2.048650 1_455
Mg4 O0 2.230905 1_565
Mg4 O0 2.230905 1_555
Mg4 O6 2.613980 1_555
Mg5 O5 2.045650 1_555
Mg5 O2 2.201069 1_554
Mg5 O2 2.201069 1_555
Mg5 O1 2.215410 1_555
Mg5 O1 2.215410 1_565
Mg5 O6 2.216968 1_555
