# generated using pymatgen
data_RbMg6Fe
_symmetry_space_group_name_H-M   'P 1'
_cell_length_a   5.03383500
_cell_length_b   6.74186700
_cell_length_c   11.74621000
_cell_angle_alpha   90.00000000
_cell_angle_beta   90.00000000
_cell_angle_gamma   90.00000000
_symmetry_Int_Tables_number   1
_chemical_formula_structural   RbMg6Fe
_chemical_formula_sum   'Rb2 Mg12 Fe2'
_cell_volume   398.63636840
_cell_formula_units_Z   2
loop_
 _symmetry_equiv_pos_site_id
 _symmetry_equiv_pos_as_xyz
  1  'x, y, z'
loop_
 _atom_site_type_symbol
 _atom_site_label
 _atom_site_symmetry_multiplicity
 _atom_site_fract_x
 _atom_site_fract_y
 _atom_site_fract_z
 _atom_site_occupancy
  Rb  Rb0  1  0.50000000  0.50000000  0.17025400  1
  Rb  Rb1  1  0.50000000  0.00000000  0.67025400  1
  Mg  Mg0  1  0.00000000  0.77921600  0.06613100  1
  Mg  Mg1  1  0.00000000  0.22078400  0.06613100  1
  Mg  Mg2  1  0.00000000  0.00000000  0.33407600  1
  Mg  Mg3  1  0.50000000  0.27179600  0.41282200  1
  Mg  Mg4  1  0.50000000  0.72820400  0.41282200  1
  Mg  Mg5  1  0.50000000  0.00000000  0.16601300  1
  Mg  Mg6  1  0.00000000  0.27921600  0.56613100  1
  Mg  Mg7  1  0.00000000  0.72078400  0.56613100  1
  Mg  Mg8  1  0.00000000  0.50000000  0.83407600  1
  Mg  Mg9  1  0.50000000  0.77179600  0.91282200  1
  Mg  Mg10  1  0.50000000  0.22820400  0.91282200  1
  Mg  Mg11  1  0.50000000  0.50000000  0.66601300  1
  Fe  Fe0  1  0.00000000  0.50000000  0.37175200  1
  Fe  Fe1  1  0.00000000  0.00000000  0.87175200  1
loop_
_geom_bond_atom_site_label_1
_geom_bond_atom_site_label_2
_geom_bond_distance
_geom_bond_site_symmetry_2
Mg0 Mg9 3.095199 1_554
Mg0 Mg9 3.095199 1_454
Mg0 Mg5 3.150710 1_565
Mg0 Mg5 3.150710 1_465
Mg0 Mg8 3.312608 1_554
Mg0 Rb0 3.372580 1_455
Mg0 Rb0 3.372580 1_555
Mg0 Mg2 3.481574 1_565
Mg1 Mg10 3.095199 1_554
Mg1 Mg10 3.095199 1_454
Mg1 Mg5 3.150710 1_455
Mg1 Mg5 3.150710 1_555
Mg1 Mg8 3.312608 1_554
Mg1 Rb0 3.372580 1_455
Mg1 Rb0 3.372580 1_555
Mg1 Mg2 3.481574 1_555
Mg2 Mg5 3.198743 1_455
Mg2 Mg5 3.198743 1_555
Mg2 Mg3 3.247795 1_455
Mg2 Mg3 3.247795 1_555
Mg2 Mg4 3.247795 1_545
Mg2 Mg4 3.247795 1_445
Mg2 Mg6 3.312608 1_555
Mg2 Mg7 3.312608 1_545
Mg3 Mg4 3.077042 1_555
Mg3 Mg6 3.095199 1_555
Mg3 Mg6 3.095199 1_655
Mg3 Rb0 3.238101 1_555
Mg3 Mg5 3.429627 1_555
Mg3 Rb1 3.535733 1_555
Mg4 Mg7 3.095199 1_555
Mg4 Mg7 3.095199 1_655
Mg4 Rb0 3.238101 1_555
Mg4 Mg5 3.429627 1_565
Mg4 Rb1 3.535733 1_565
Mg5 Mg9 3.348422 1_544
Mg5 Rb0 3.371302 1_555
Mg5 Rb0 3.371302 1_545
Mg6 Rb1 3.372580 1_455
Mg6 Rb1 3.372580 1_555
Mg6 Mg8 3.481574 1_555
Mg7 Rb1 3.372580 1_465
Mg7 Rb1 3.372580 1_565
Mg7 Mg8 3.481574 1_555
Mg8 Mg9 3.247795 1_455
Mg8 Mg9 3.247795 1_555
Mg9 Rb1 3.238101 1_565
Mg9 Rb0 3.535733 1_556
Mg10 Mg9 3.077042 1_545
Mg10 Rb1 3.238101 1_555
Mg10 Mg8 3.247795 1_655
Mg10 Mg8 3.247795 1_555
Mg10 Mg5 3.348422 1_556
Mg10 Mg11 3.429627 1_555
Mg10 Rb0 3.535733 1_556
Mg11 Mg7 3.150710 1_655
Mg11 Mg7 3.150710 1_555
Mg11 Mg6 3.150710 1_555
Mg11 Mg6 3.150710 1_655
Mg11 Mg8 3.198743 1_555
Mg11 Mg8 3.198743 1_655
Mg11 Mg4 3.348422 1_555
Mg11 Mg3 3.348422 1_555
Mg11 Rb1 3.371302 1_555
Mg11 Rb1 3.371302 1_565
Mg11 Mg9 3.429627 1_555
Fe0 Mg7 2.725564 1_555
Fe0 Mg6 2.725564 1_555
Fe0 Mg3 2.989088 1_555
Fe0 Mg4 2.989088 1_455
Fe0 Mg3 2.989088 1_455
Fe0 Mg4 2.989088 1_555
Fe0 Mg2 3.399859 1_565
Fe0 Mg2 3.399859 1_555
Fe0 Rb0 3.454967 1_455
Fe0 Rb0 3.454967 1_555
Fe1 Mg1 2.725564 1_556
Fe1 Mg0 2.725564 1_546
Fe1 Mg10 2.989088 1_555
Fe1 Mg10 2.989088 1_455
Fe1 Mg9 2.989088 1_545
Fe1 Mg9 2.989088 1_445
Fe1 Mg8 3.399859 1_545
Fe1 Mg8 3.399859 1_555
Fe1 Rb1 3.454967 1_555
Fe1 Rb1 3.454967 1_455
