# generated using pymatgen
data_Sr2FeMoO6
_symmetry_space_group_name_H-M   'P 1'
_cell_length_a   5.64449782
_cell_length_b   9.74214301
_cell_length_c   5.64450656
_cell_angle_alpha   74.28632175
_cell_angle_beta   60.71813735
_cell_angle_gamma   74.28639129
_symmetry_Int_Tables_number   1
_chemical_formula_structural   Sr2FeMoO6
_chemical_formula_sum   'Sr4 Fe2 Mo2 O12'
_cell_volume   257.04754167
_cell_formula_units_Z   2
loop_
 _symmetry_equiv_pos_site_id
 _symmetry_equiv_pos_as_xyz
  1  'x, y, z'
loop_
 _atom_site_type_symbol
 _atom_site_label
 _atom_site_symmetry_multiplicity
 _atom_site_fract_x
 _atom_site_fract_y
 _atom_site_fract_z
 _atom_site_occupancy
  Sr  Sr0  1  0.62499700  0.12499100  0.62499600  1
  Sr  Sr1  1  0.12500100  0.62497200  0.12500100  1
  Sr  Sr2  1  0.37501600  0.87500400  0.37501600  1
  Sr  Sr3  1  0.87502000  0.37498800  0.87502100  1
  Fe  Fe0  1  0.49930200  0.50062600  0.49930200  1
  Fe  Fe1  1  0.99931300  0.00065300  0.99931400  1
  Mo  Mo0  1  0.25032400  0.24967000  0.25032400  1
  Mo  Mo1  1  0.75032100  0.74967300  0.75032100  1
  O  O0  1  0.12796900  0.12792100  0.12796600  1
  O  O1  1  0.62796500  0.62791000  0.62796600  1
  O  O2  1  0.87207500  0.87208300  0.87207400  1
  O  O3  1  0.37207100  0.37206800  0.37207300  1
  O  O4  1  0.37410100  0.87530700  0.87529100  1
  O  O5  1  0.87411300  0.37529900  0.37528600  1
  O  O6  1  0.12610400  0.62455600  0.62481400  1
  O  O7  1  0.62610000  0.12455800  0.12481700  1
  O  O8  1  0.87529200  0.87530700  0.37410100  1
  O  O9  1  0.37528600  0.37529900  0.87411200  1
  O  O10  1  0.62481400  0.62455600  0.12610400  1
  O  O11  1  0.12481700  0.12455900  0.62610100  1
loop_
_geom_bond_atom_site_label_1
_geom_bond_atom_site_label_2
_geom_bond_distance
_geom_bond_site_symmetry_2
Fe0 O6 2.005705 1_555
Fe0 O10 2.005706 1_555
Fe0 O9 2.017843 1_555
Fe0 O5 2.017846 1_555
Fe0 O3 2.019638 1_555
Fe0 O1 2.020896 1_555
Fe1 O7 2.005665 1_556
Fe1 O11 2.005669 1_655
Fe1 O8 2.017826 1_546
Fe1 O4 2.017830 1_645
Fe1 O2 2.019804 1_545
Fe1 O0 2.020695 1_656
Mo0 O0 1.927384 1_555
Mo0 O3 1.927705 1_555
Mo0 O7 2.020866 1_555
Mo0 O11 2.020866 1_555
Mo0 O5 2.024708 1_455
Mo0 O9 2.024712 1_554
Mo1 O1 1.927486 1_555
Mo1 O2 1.927843 1_555
Mo1 O6 2.020914 1_655
Mo1 O10 2.020914 1_556
Mo1 O4 2.024764 1_555
Mo1 O8 2.024765 1_555
O0 Sr2 2.853092 1_545
O0 Sr0 2.853205 1_554
O0 Sr0 2.853216 1_455
O0 Sr3 2.853358 1_454
O1 Sr3 2.853157 1_555
O1 Sr1 2.853208 1_556
O1 Sr1 2.853214 1_655
O1 Sr2 2.853524 1_555
O2 Sr2 2.853203 1_655
O2 Sr0 2.853204 1_565
O2 Sr2 2.853208 1_556
O2 Sr1 2.853484 1_656
O3 Sr1 2.853141 1_555
O3 Sr3 2.853204 1_455
O3 Sr3 2.853209 1_554
O3 Sr0 2.853283 1_555
O4 Sr2 2.822083 1_555
O4 Sr0 2.822354 1_565
O4 Sr2 2.822432 1_556
O4 Sr1 2.822796 1_556
O5 Sr3 2.822070 1_554
O5 Sr1 2.822238 1_655
O5 Sr3 2.822445 1_555
O5 Sr0 2.822613 1_555
O6 Sr1 2.821368 1_556
O6 Sr3 2.821889 1_455
O6 Sr1 2.823152 1_555
O6 Sr2 2.823240 1_555
O7 Sr0 2.821368 1_555
O7 Sr2 2.821771 1_545
O7 Sr3 2.823111 1_554
O7 Sr0 2.823152 1_554
O8 Sr2 2.822084 1_555
O8 Sr0 2.822355 1_565
O8 Sr2 2.822422 1_655
O8 Sr1 2.822800 1_655
O9 Sr3 2.822066 1_455
O9 Sr1 2.822244 1_556
O9 Sr3 2.822441 1_555
O9 Sr0 2.822617 1_555
O10 Sr1 2.821364 1_655
O10 Sr3 2.821890 1_554
O10 Sr1 2.823148 1_555
O10 Sr2 2.823244 1_555
O11 Sr0 2.821361 1_555
O11 Sr2 2.821786 1_545
O11 Sr3 2.823106 1_455
O11 Sr0 2.823151 1_455
