# generated using pymatgen
data_Tb5Ni2Sb
_symmetry_space_group_name_H-M   'P 1'
_cell_length_a   8.59308277
_cell_length_b   8.59308277
_cell_length_c   8.59308277
_cell_angle_alpha   127.08968204
_cell_angle_beta   127.08968204
_cell_angle_gamma   78.10442028
_symmetry_Int_Tables_number   1
_chemical_formula_structural   Tb5Ni2Sb
_chemical_formula_sum   'Tb10 Ni4 Sb2'
_cell_volume   391.18204859
_cell_formula_units_Z   2
loop_
 _symmetry_equiv_pos_site_id
 _symmetry_equiv_pos_as_xyz
  1  'x, y, z'
loop_
 _atom_site_type_symbol
 _atom_site_label
 _atom_site_symmetry_multiplicity
 _atom_site_fract_x
 _atom_site_fract_y
 _atom_site_fract_z
 _atom_site_occupancy
  Tb  Tb0  1  0.00000000  0.00000000  0.00000000  1
  Tb  Tb1  1  0.50000000  0.50000000  0.00000000  1
  Tb  Tb2  1  0.79927000  0.29927000  0.82263600  1
  Tb  Tb3  1  0.20073000  0.70073000  0.17736400  1
  Tb  Tb4  1  0.47663400  0.97663400  0.17736400  1
  Tb  Tb5  1  0.29927000  0.47663400  0.50000000  1
  Tb  Tb6  1  0.02336600  0.20073000  0.50000000  1
  Tb  Tb7  1  0.52336600  0.02336600  0.82263600  1
  Tb  Tb8  1  0.70073000  0.52336600  0.50000000  1
  Tb  Tb9  1  0.97663400  0.79927000  0.50000000  1
  Ni  Ni0  1  0.12380900  0.62380900  0.74761700  1
  Ni  Ni1  1  0.87619100  0.37619100  0.25238300  1
  Ni  Ni2  1  0.62380900  0.87619100  0.50000000  1
  Ni  Ni3  1  0.37619100  0.12380900  0.50000000  1
  Sb  Sb0  1  0.25000000  0.25000000  0.00000000  1
  Sb  Sb1  1  0.75000000  0.75000000  0.00000000  1
loop_
_geom_bond_atom_site_label_1
_geom_bond_atom_site_label_2
_geom_bond_distance
_geom_bond_site_symmetry_2
Ni0 Ni1 2.681140 1_455
Ni0 Tb9 2.870182 1_455
Ni0 Tb5 2.870182 1_555
Ni0 Tb8 2.870190 1_455
Ni0 Tb6 2.870190 1_555
Ni0 Tb4 2.966964 1_556
Ni0 Tb3 2.966972 1_556
Ni0 Tb0 3.032245 1_566
Ni0 Tb1 3.032245 1_556
Ni1 Tb8 2.870182 1_555
Ni1 Tb6 2.870182 1_655
Ni1 Tb9 2.870190 1_555
Ni1 Tb5 2.870190 1_655
Ni1 Tb7 2.966964 1_554
Ni1 Tb2 2.966972 1_554
Ni1 Tb1 3.032245 1_555
Ni1 Tb0 3.032245 1_655
Ni2 Ni3 2.681151 1_565
Ni2 Tb7 2.870188 1_565
Ni2 Tb3 2.870188 1_555
Ni2 Tb4 2.870188 1_555
Ni2 Tb2 2.870188 1_565
Ni2 Tb8 2.966964 1_555
Ni2 Tb9 2.966964 1_555
Ni2 Tb0 3.032243 1_666
Ni2 Tb1 3.032243 1_555
Ni3 Tb7 2.870188 1_555
Ni3 Tb3 2.870188 1_545
Ni3 Tb4 2.870188 1_545
Ni3 Tb2 2.870188 1_555
Ni3 Tb5 2.966964 1_555
Ni3 Tb6 2.966964 1_555
Ni3 Tb0 3.032243 1_555
Ni3 Tb1 3.032243 1_556
Sb0 Tb2 3.238190 1_454
Sb0 Tb6 3.238190 1_554
Sb0 Tb4 3.238190 1_545
Sb0 Tb5 3.238190 1_555
Sb0 Tb9 3.238190 1_444
Sb0 Tb8 3.238190 1_555
Sb0 Tb3 3.238190 1_555
Sb0 Tb7 3.238190 1_554
Sb0 Tb0 3.336575 1_555
Sb0 Tb1 3.336575 1_555
Sb1 Tb7 3.238190 1_564
Sb1 Tb2 3.238190 1_554
Sb1 Tb6 3.238190 1_665
Sb1 Tb5 3.238190 1_554
Sb1 Tb9 3.238190 1_555
Sb1 Tb4 3.238190 1_555
Sb1 Tb8 3.238190 1_554
Sb1 Tb3 3.238190 1_655
Sb1 Tb0 3.336575 1_665
Sb1 Tb1 3.336575 1_555
