# generated using pymatgen
data_PrRe3O16
_symmetry_space_group_name_H-M   'P 1'
_cell_length_a   7.49623700
_cell_length_b   11.44428500
_cell_length_c   16.17909865
_cell_angle_alpha   86.30998817
_cell_angle_beta   90.00000000
_cell_angle_gamma   90.00000000
_symmetry_Int_Tables_number   1
_chemical_formula_structural   PrRe3O16
_chemical_formula_sum   'Pr4 Re12 O64'
_cell_volume   1385.11236254
_cell_formula_units_Z   4
loop_
 _symmetry_equiv_pos_site_id
 _symmetry_equiv_pos_as_xyz
  1  'x, y, z'
loop_
 _atom_site_type_symbol
 _atom_site_label
 _atom_site_symmetry_multiplicity
 _atom_site_fract_x
 _atom_site_fract_y
 _atom_site_fract_z
 _atom_site_occupancy
  Pr  Pr0  1  0.89650700  0.79416900  0.65810900  1
  Pr  Pr1  1  0.10349300  0.20583100  0.34189100  1
  Pr  Pr2  1  0.39650700  0.20583100  0.84189100  1
  Pr  Pr3  1  0.60349300  0.79416900  0.15810900  1
  Re  Re0  1  0.37079500  0.85713200  0.92171200  1
  Re  Re1  1  0.62920500  0.14286800  0.07828800  1
  Re  Re2  1  0.87079500  0.14286800  0.57828800  1
  Re  Re3  1  0.12920500  0.85713200  0.42171200  1
  Re  Re4  1  0.38056000  0.94267500  0.66359000  1
  Re  Re5  1  0.61944000  0.05732500  0.33641000  1
  Re  Re6  1  0.88056000  0.05732500  0.83641000  1
  Re  Re7  1  0.11944000  0.94267500  0.16359000  1
  Re  Re8  1  0.22341700  0.56329000  0.57047900  1
  Re  Re9  1  0.77658300  0.43671000  0.42952100  1
  Re  Re10  1  0.72341700  0.43671000  0.92952100  1
  Re  Re11  1  0.27658300  0.56329000  0.07047900  1
  O  O0  1  0.34524200  0.57347100  0.96758200  1
  O  O1  1  0.65475800  0.42652900  0.03241800  1
  O  O2  1  0.84524200  0.42652900  0.53241800  1
  O  O3  1  0.15475800  0.57347100  0.46758200  1
  O  O4  1  0.27462800  0.41717600  0.59904600  1
  O  O5  1  0.72537200  0.58282400  0.40095400  1
  O  O6  1  0.77462800  0.58282400  0.90095400  1
  O  O7  1  0.22537200  0.41717600  0.09904600  1
  O  O8  1  0.33135000  0.00228600  0.56590300  1
  O  O9  1  0.66865000  0.99771400  0.43409700  1
  O  O10  1  0.83135000  0.99771400  0.93409700  1
  O  O11  1  0.16865000  0.00228600  0.06590300  1
  O  O12  1  0.49550500  0.80084100  0.84350900  1
  O  O13  1  0.50449500  0.19915900  0.15649100  1
  O  O14  1  0.99550500  0.19915900  0.65649100  1
  O  O15  1  0.00449500  0.80084100  0.34350900  1
  O  O16  1  0.05224400  0.80170400  0.52156400  1
  O  O17  1  0.94775600  0.19829600  0.47843600  1
  O  O18  1  0.55224400  0.19829600  0.97843600  1
  O  O19  1  0.44775600  0.80170400  0.02156400  1
  O  O20  1  0.89366400  0.98922000  0.58891400  1
  O  O21  1  0.10633600  0.01078000  0.41108600  1
  O  O22  1  0.39366400  0.01078000  0.91108600  1
  O  O23  1  0.60633600  0.98922000  0.08891400  1
  O  O24  1  0.28556100  0.51785900  0.78022500  1
  O  O25  1  0.71443900  0.48214100  0.21977500  1
  O  O26  1  0.78556100  0.48214100  0.71977500  1
  O  O27  1  0.21443900  0.51785900  0.28022500  1
  O  O28  1  0.14832700  0.82303800  0.90703800  1
  O  O29  1  0.85167300  0.17696200  0.09296200  1
  O  O30  1  0.64832700  0.17696200  0.59296200  1
  O  O31  1  0.35167300  0.82303800  0.40703800  1
  O  O32  1  0.05301800  0.61407600  0.63797600  1
  O  O33  1  0.94698200  0.38592400  0.36202400  1
  O  O34  1  0.55301800  0.38592400  0.86202400  1
  O  O35  1  0.44698200  0.61407600  0.13797600  1
  O  O36  1  0.91479100  0.86663100  0.16195400  1
  O  O37  1  0.08520900  0.13336900  0.83804600  1
  O  O38  1  0.41479100  0.13336900  0.33804600  1
  O  O39  1  0.58520900  0.86663100  0.66195400  1
  O  O40  1  0.98678800  0.67534900  0.79894400  1
  O  O41  1  0.01321200  0.32465100  0.20105600  1
  O  O42  1  0.48678800  0.32465100  0.70105600  1
  O  O43  1  0.51321200  0.67534900  0.29894400  1
  O  O44  1  0.71407600  0.74096400  0.53003000  1
  O  O45  1  0.28592400  0.25903600  0.46997000  1
  O  O46  1  0.21407600  0.25903600  0.96997000  1
  O  O47  1  0.78592400  0.74096400  0.03003000  1
  O  O48  1  0.88765500  0.94372300  0.76800000  1
  O  O49  1  0.11234500  0.05627700  0.23200000  1
  O  O50  1  0.38765500  0.05627700  0.73200000  1
  O  O51  1  0.61234500  0.94372300  0.26800000  1
  O  O52  1  0.20547000  0.84562100  0.69334600  1
  O  O53  1  0.79453000  0.15437900  0.30665400  1
  O  O54  1  0.70547000  0.15437900  0.80665400  1
  O  O55  1  0.29453000  0.84562100  0.19334600  1
  O  O56  1  0.20712400  0.42304000  0.78525900  1
  O  O57  1  0.79287600  0.57696000  0.21474100  1
  O  O58  1  0.70712400  0.57696000  0.71474100  1
  O  O59  1  0.29287600  0.42304000  0.28525900  1
  O  O60  1  0.41411900  0.64910300  0.57986100  1
  O  O61  1  0.58588100  0.35089700  0.42013900  1
  O  O62  1  0.91411900  0.35089700  0.92013900  1
  O  O63  1  0.08588100  0.64910300  0.07986100  1
loop_
_geom_bond_atom_site_label_1
_geom_bond_atom_site_label_2
_geom_bond_distance
_geom_bond_site_symmetry_2
O0 Re11 1.739254 1_556
O1 Re10 1.739254 1_554
O2 Re9 1.739254 1_555
O3 Re8 1.739254 1_555
O4 Re8 1.748617 1_555
O5 Re9 1.748617 1_555
O6 Re10 1.748617 1_555
O7 Re11 1.748617 1_555
O8 Re4 1.720651 1_545
O9 Re5 1.720651 1_565
O10 Re6 1.720651 1_565
O11 Re7 1.720651 1_545
O12 Re0 1.730533 1_555
O13 Re1 1.730533 1_555
O14 Re2 1.730533 1_555
O15 Re3 1.730533 1_555
O16 Re3 1.792539 1_555
O16 Pr0 2.495253 1_455
O17 Re2 1.792539 1_555
O17 Pr1 2.495253 1_655
O18 Re1 1.792539 1_556
O18 Pr2 2.495253 1_555
O19 Re0 1.792539 1_554
O19 Pr3 2.495253 1_555
O20 Re2 1.764079 1_565
O20 Pr0 2.432057 1_555
O21 Re3 1.764079 1_545
O21 Pr1 2.432057 1_555
O22 Re0 1.764079 1_545
O22 Pr2 2.432057 1_555
O23 Re1 1.764079 1_565
O23 Pr3 2.432057 1_555
O24 O56 1.232274 1_555
O25 O57 1.232274 1_555
O26 O58 1.232274 1_555
O27 O59 1.232274 1_555
O28 Re0 1.732531 1_555
O29 Re1 1.732531 1_555
O30 Re2 1.732531 1_555
O31 Re3 1.732531 1_555
O32 Re8 1.801022 1_555
O32 Pr0 2.411822 1_455
O33 Re9 1.801022 1_555
O33 Pr1 2.411822 1_655
O34 Re10 1.801022 1_555
O34 Pr2 2.411822 1_555
O35 Re11 1.801022 1_555
O35 Pr3 2.411822 1_555
O36 Re7 1.764791 1_655
O36 Pr3 2.478654 1_555
O37 Re6 1.764791 1_455
O37 Pr2 2.478654 1_555
O38 Re5 1.764791 1_555
O38 Pr1 2.478654 1_555
O39 Re4 1.764791 1_555
O39 Pr0 2.478654 1_555
O40 Pr0 2.664624 1_555
O41 Pr1 2.664624 1_555
O42 Pr2 2.664624 1_555
O43 Pr3 2.664624 1_555
O44 Pr0 2.587927 1_555
O45 Pr1 2.587927 1_555
O46 Pr2 2.587927 1_555
O47 Pr3 2.587927 1_555
O48 Re6 1.761625 1_565
O48 Pr0 2.546864 1_555
O49 Re7 1.761625 1_545
O49 Pr1 2.546864 1_555
O50 Re4 1.761625 1_545
O50 Pr2 2.546864 1_555
O51 Re5 1.761625 1_565
O51 Pr3 2.546864 1_555
O52 Re4 1.766161 1_555
O52 Pr0 2.465580 1_455
O53 Re5 1.766161 1_555
O53 Pr1 2.465580 1_655
O54 Re6 1.766161 1_555
O54 Pr2 2.465580 1_555
O55 Re7 1.766161 1_555
O55 Pr3 2.465580 1_555
O56 Pr2 2.956518 1_555
O57 Pr3 2.956518 1_555
O58 Pr0 2.956518 1_555
O59 Pr1 2.956518 1_555
O60 Re8 1.746509 1_555
O61 Re9 1.746509 1_555
O62 Re10 1.746509 1_555
O63 Re11 1.746509 1_555
