# generated using pymatgen
data_Mg2InGa
_symmetry_space_group_name_H-M   'P 1'
_cell_length_a   11.73928734
_cell_length_b   11.73928734
_cell_length_c   11.73928734
_cell_angle_alpha   124.78159653
_cell_angle_beta   120.31787914
_cell_angle_gamma   85.68459669
_symmetry_Int_Tables_number   1
_chemical_formula_structural   Mg2InGa
_chemical_formula_sum   'Mg2 In1 Ga1'
_cell_volume   1094.19032787
_cell_formula_units_Z   1
loop_
 _symmetry_equiv_pos_site_id
 _symmetry_equiv_pos_as_xyz
  1  'x, y, z'
loop_
 _atom_site_type_symbol
 _atom_site_label
 _atom_site_symmetry_multiplicity
 _atom_site_fract_x
 _atom_site_fract_y
 _atom_site_fract_z
 _atom_site_occupancy
  Mg  Mg0  1  0.00000000  0.24346900  0.24346900  1
  Mg  Mg1  1  0.00000000  0.75653100  0.75653100  1
  In  In0  1  0.00000000  0.50000000  0.50000000  1
  Ga  Ga0  1  0.00000000  0.00000000  0.00000000  1
loop_
_geom_bond_atom_site_label_1
_geom_bond_atom_site_label_2
_geom_bond_distance
_geom_bond_site_symmetry_2
In0 Mg1 2.791281 1_555
In0 Mg0 2.791281 1_555
Ga0 Mg0 2.649155 1_555
Ga0 Mg1 2.649155 1_544
