# generated using pymatgen
data_Ho6H40N8O49
_symmetry_space_group_name_H-M   'P 1'
_cell_length_a   10.19685600
_cell_length_b   10.23852384
_cell_length_c   11.43104112
_cell_angle_alpha   95.44303240
_cell_angle_beta   108.94895304
_cell_angle_gamma   111.33455650
_symmetry_Int_Tables_number   1
_chemical_formula_structural   Ho6H40N8O49
_chemical_formula_sum   'Ho6 H40 N8 O49'
_cell_volume   1020.19616692
_cell_formula_units_Z   1
loop_
 _symmetry_equiv_pos_site_id
 _symmetry_equiv_pos_as_xyz
  1  'x, y, z'
loop_
 _atom_site_type_symbol
 _atom_site_label
 _atom_site_symmetry_multiplicity
 _atom_site_fract_x
 _atom_site_fract_y
 _atom_site_fract_z
 _atom_site_occupancy
  Ho  Ho0  1  0.73752000  0.47691600  0.61660600  1
  Ho  Ho1  1  0.26248000  0.52308400  0.38339400  1
  Ho  Ho2  1  0.65247700  0.76074200  0.52190000  1
  Ho  Ho3  1  0.34752300  0.23925800  0.47810000  1
  Ho  Ho4  1  0.48139100  0.56676800  0.70674000  1
  Ho  Ho5  1  0.51860900  0.43323200  0.29326000  1
  H  H0  1  0.80749200  0.74127300  0.78940000  1
  H  H1  1  0.19250800  0.25872700  0.21060000  1
  H  H2  1  0.84444000  0.64747600  0.44619300  1
  H  H3  1  0.15556000  0.35252400  0.55380700  1
  H  H4  1  0.41025200  0.79019100  0.59168600  1
  H  H5  1  0.58974800  0.20980900  0.40831400  1
  H  H6  1  0.55602300  0.32300800  0.75497100  1
  H  H7  1  0.44397700  0.67699200  0.24502900  1
  H  H8  1  0.96810100  0.54579300  0.87154300  1
  H  H9  1  0.03189900  0.45420700  0.12845700  1
  H  H10  1  0.83648800  0.40237700  0.87450300  1
  H  H11  1  0.16351200  0.59762300  0.12549700  1
  H  H12  1  0.01157600  0.75999200  0.70127200  1
  H  H13  1  0.98842400  0.24000800  0.29872800  1
  H  H14  1  0.08971400  0.64905600  0.70741200  1
  H  H15  1  0.91028600  0.35094400  0.29258800  1
  H  H16  1  0.95724100  0.98595300  0.69183900  1
  H  H17  1  0.04275900  0.01404700  0.30816100  1
  H  H18  1  0.01900000  0.93958000  0.59520900  1
  H  H19  1  0.98100000  0.06042000  0.40479100  1
  H  H20  1  0.73905800  0.06397100  0.68879100  1
  H  H21  1  0.26094200  0.93602900  0.31120900  1
  H  H22  1  0.68339800  0.93947200  0.76024700  1
  H  H23  1  0.31660200  0.06052800  0.23975300  1
  H  H24  1  0.48787500  0.84180000  0.85677700  1
  H  H25  1  0.51212500  0.15820000  0.14322300  1
  H  H26  1  0.64468200  0.83951400  0.93379500  1
  H  H27  1  0.35531800  0.16048600  0.06620500  1
  H  H28  1  0.64334300  0.57866900  0.99416800  1
  H  H29  1  0.35665700  0.42133100  0.00583200  1
  H  H30  1  0.75130900  0.58503600  0.92007900  1
  H  H31  1  0.24869100  0.41496400  0.07992100  1
  H  H32  1  0.72885600  0.99220100  0.11115600  1
  H  H33  1  0.27114400  0.00779900  0.88884400  1
  H  H34  1  0.73908400  0.85332600  0.14905500  1
  H  H35  1  0.26091600  0.14667400  0.85094500  1
  H  H36  1  0.02907600  0.80365200  0.99150900  1
  H  H37  1  0.97092400  0.19634800  0.00849100  1
  H  H38  1  0.03593900  0.92515200  0.92084600  1
  H  H39  1  0.96406100  0.07484800  0.07915400  1
  N  N0  1  0.89065600  0.28043100  0.60213200  1
  N  N1  1  0.10934400  0.71956900  0.39786800  1
  N  N2  1  0.68017200  0.97993600  0.37097400  1
  N  N3  1  0.31982800  0.02006400  0.62902600  1
  N  N4  1  0.24489200  0.50438700  0.81529100  1
  N  N5  1  0.75510800  0.49561300  0.18470900  1
  N  N6  1  0.67786100  0.21575500  0.95910700  1
  N  N7  1  0.32213900  0.78424500  0.04089300  1
  O  O0  1  0.50000000  0.50000000  0.50000000  1
  O  O1  1  0.72171900  0.68114600  0.70686600  1
  O  O2  1  0.27828100  0.31885400  0.29313400  1
  O  O3  1  0.74750100  0.60621300  0.45712000  1
  O  O4  1  0.25249900  0.39378700  0.54288000  1
  O  O5  1  0.43281900  0.70982000  0.56563800  1
  O  O6  1  0.56718100  0.29018000  0.43436200  1
  O  O7  1  0.53709200  0.36567000  0.68063200  1
  O  O8  1  0.46290800  0.63433000  0.31936800  1
  O  O9  1  0.85764000  0.49570600  0.84713300  1
  O  O10  1  0.14236000  0.50429400  0.15286700  1
  O  O11  1  0.99813800  0.66117100  0.70694500  1
  O  O12  1  0.00186200  0.33882900  0.29305500  1
  O  O13  1  0.94353900  0.90149700  0.63309700  1
  O  O14  1  0.05646100  0.09850300  0.36690300  1
  O  O15  1  0.73212800  0.96723200  0.69915700  1
  O  O16  1  0.26787200  0.03276800  0.30084300  1
  O  O17  1  0.56860800  0.81839500  0.84479600  1
  O  O18  1  0.43139200  0.18160500  0.15520400  1
  O  O19  1  0.65864300  0.59707100  0.91572100  1
  O  O20  1  0.34135700  0.40292900  0.08427900  1
  O  O21  1  0.76569600  0.91875300  0.09529100  1
  O  O22  1  0.23430400  0.08124700  0.90470900  1
  O  O23  1  0.96340600  0.84232300  0.93666900  1
  O  O24  1  0.03659400  0.15767700  0.06333100  1
  O  O25  1  0.91027800  0.39142900  0.55610000  1
  O  O26  1  0.08972200  0.60857100  0.44390000  1
  O  O27  1  0.79059100  0.24673200  0.65197500  1
  O  O28  1  0.20940900  0.75326800  0.34802500  1
  O  O29  1  0.96651000  0.20885900  0.59907700  1
  O  O30  1  0.03349000  0.79114100  0.40092300  1
  O  O31  1  0.58994700  0.95234200  0.42966600  1
  O  O32  1  0.41005300  0.04765800  0.57033400  1
  O  O33  1  0.75825200  0.90388700  0.37764300  1
  O  O34  1  0.24174800  0.09611300  0.62235700  1
  O  O35  1  0.69403000  0.07626100  0.31137800  1
  O  O36  1  0.30597000  0.92373900  0.68862200  1
  O  O37  1  0.34490700  0.45106700  0.84133100  1
  O  O38  1  0.65509300  0.54893300  0.15866900  1
  O  O39  1  0.25555000  0.59069900  0.74169200  1
  O  O40  1  0.74445000  0.40930100  0.25830800  1
  O  O41  1  0.14471500  0.47247800  0.85998400  1
  O  O42  1  0.85528500  0.52752200  0.14001600  1
  O  O43  1  0.57419000  0.25407200  0.90202500  1
  O  O44  1  0.42581000  0.74592800  0.09797500  1
  O  O45  1  0.66557200  0.14541900  0.04236200  1
  O  O46  1  0.33442800  0.85458100  0.95763800  1
  O  O47  1  0.79720500  0.25034500  0.93168500  1
  O  O48  1  0.20279500  0.74965500  0.06831500  1
loop_
_geom_bond_atom_site_label_1
_geom_bond_atom_site_label_2
_geom_bond_distance
_geom_bond_site_symmetry_2
Ho0 O1 2.325221 1_555
Ho0 O7 2.333587 1_555
Ho0 O6 2.343123 1_555
Ho0 O3 2.359410 1_555
Ho0 O11 2.426478 1_555
Ho0 O0 2.465378 1_555
Ho0 O9 2.473358 1_555
Ho0 O25 2.479109 1_555
Ho0 O27 2.641443 1_555
Ho1 O2 2.325221 1_555
Ho1 O8 2.333587 1_555
Ho1 O5 2.343123 1_555
Ho1 O4 2.359410 1_555
Ho1 O12 2.426478 1_555
Ho1 O0 2.465378 1_555
Ho1 O10 2.473358 1_555
Ho1 O26 2.479109 1_555
Ho1 O28 2.641443 1_555
Ho2 O3 2.312916 1_555
Ho2 O1 2.325762 1_555
Ho2 O5 2.337869 1_555
Ho2 O8 2.340149 1_555
Ho2 O15 2.470635 1_555
Ho2 O0 2.491416 1_555
Ho2 O31 2.496463 1_555
Ho2 O33 2.548314 1_555
Ho2 O13 2.567357 1_555
Ho3 O4 2.312916 1_555
Ho3 O2 2.325762 1_555
Ho3 O6 2.337869 1_555
Ho3 O7 2.340149 1_555
Ho3 O16 2.470635 1_555
Ho3 O0 2.491416 1_555
Ho3 O32 2.496463 1_555
Ho3 O34 2.548314 1_555
Ho3 O14 2.567357 1_555
Ho4 O1 2.299137 1_555
Ho4 O5 2.334361 1_555
Ho4 O7 2.344215 1_555
Ho4 O4 2.369870 1_555
Ho4 O19 2.391014 1_555
Ho4 O0 2.483430 1_555
Ho4 O37 2.498785 1_555
Ho4 O39 2.551941 1_555
Ho4 O17 2.562952 1_555
Ho5 O2 2.299137 1_555
Ho5 O6 2.334361 1_555
Ho5 O8 2.344215 1_555
Ho5 O3 2.369870 1_555
Ho5 O20 2.391014 1_555
Ho5 O0 2.483430 1_555
Ho5 O38 2.498785 1_555
Ho5 O40 2.551941 1_555
Ho5 O18 2.562952 1_555
H0 O1 0.998085 1_555
H1 O2 0.998085 1_555
H2 O3 0.978520 1_555
H3 O4 0.978520 1_555
H4 O5 0.977005 1_555
H5 O6 0.977005 1_555
H6 O7 0.987624 1_555
H7 O8 0.987624 1_555
H8 O9 0.978758 1_555
H9 O10 0.978758 1_555
H10 O9 1.004024 1_555
H10 O47 1.708815 1_555
H11 O10 1.004024 1_555
H11 O48 1.708815 1_555
H12 O11 0.981847 1_455
H13 O12 0.981847 1_655
H14 O11 0.984144 1_455
H15 O12 0.984144 1_655
H16 O13 0.979353 1_555
H17 O14 0.979353 1_555
H18 O13 0.980738 1_455
H19 O14 0.980738 1_655
H20 O15 0.988348 1_545
H21 O16 0.988348 1_565
H22 O15 0.987717 1_555
H23 O16 0.987717 1_555
H24 O17 0.982045 1_555
H25 O18 0.982045 1_555
H26 O17 1.003585 1_555
H27 O18 1.003585 1_555
H28 O19 0.982592 1_555
H29 O20 0.982592 1_555
H30 O19 0.982760 1_555
H31 O20 0.982760 1_555
H32 O21 0.981542 1_555
H33 O22 0.981542 1_555
H34 O21 0.976843 1_555
H35 O22 0.976843 1_555
H36 O23 0.982608 1_455
H37 O24 0.982608 1_655
H38 O23 0.979038 1_455
H39 O24 0.979038 1_655
N0 O29 1.249626 1_555
N0 O25 1.274683 1_555
N0 O27 1.281980 1_555
N1 O30 1.249626 1_555
N1 O26 1.274683 1_555
N1 O28 1.281980 1_555
N2 O35 1.243093 1_565
N2 O31 1.274388 1_555
N2 O33 1.291850 1_555
N3 O36 1.243093 1_545
N3 O32 1.274388 1_555
N3 O34 1.291850 1_555
N4 O41 1.240544 1_555
N4 O39 1.277147 1_555
N4 O37 1.290535 1_555
N5 O42 1.240544 1_555
N5 O40 1.277147 1_555
N5 O38 1.290535 1_555
N6 O45 1.257706 1_556
N6 O43 1.264720 1_555
N6 O47 1.288340 1_555
N7 O46 1.257706 1_554
N7 O44 1.264720 1_555
N7 O48 1.288340 1_555
