# generated using pymatgen
data_TbV(SeO4)2
_symmetry_space_group_name_H-M   'P 1'
_cell_length_a   7.04509500
_cell_length_b   6.79133800
_cell_length_c   13.58009424
_cell_angle_alpha   88.72386558
_cell_angle_beta   90.00000000
_cell_angle_gamma   90.00000000
_symmetry_Int_Tables_number   1
_chemical_formula_structural   TbV(SeO4)2
_chemical_formula_sum   'Tb4 V4 Se8 O32'
_cell_volume   649.58689187
_cell_formula_units_Z   4
loop_
 _symmetry_equiv_pos_site_id
 _symmetry_equiv_pos_as_xyz
  1  'x, y, z'
loop_
 _atom_site_type_symbol
 _atom_site_label
 _atom_site_symmetry_multiplicity
 _atom_site_fract_x
 _atom_site_fract_y
 _atom_site_fract_z
 _atom_site_occupancy
  Tb  Tb0  1  0.75000000  0.37499400  0.86475400  1
  Tb  Tb1  1  0.25000000  0.62500600  0.13524600  1
  Tb  Tb2  1  0.75000000  0.92236200  0.06808700  1
  Tb  Tb3  1  0.25000000  0.07763800  0.93191300  1
  V  V0  1  0.50901000  0.62730400  0.61450600  1
  V  V1  1  0.00901000  0.37269600  0.38549400  1
  V  V2  1  0.49099000  0.37269600  0.38549400  1
  V  V3  1  0.99099000  0.62730400  0.61450600  1
  Se  Se0  1  0.25000000  0.04083200  0.65066100  1
  Se  Se1  1  0.75000000  0.95916800  0.34933900  1
  Se  Se2  1  0.75000000  0.45199400  0.13810400  1
  Se  Se3  1  0.25000000  0.54800600  0.86189600  1
  Se  Se4  1  0.75000000  0.20463500  0.59386200  1
  Se  Se5  1  0.25000000  0.79536500  0.40613800  1
  Se  Se6  1  0.75000000  0.89171500  0.84009200  1
  Se  Se7  1  0.25000000  0.10828500  0.15990800  1
  O  O0  1  0.25000000  0.98077900  0.77245500  1
  O  O1  1  0.75000000  0.01922100  0.22754500  1
  O  O2  1  0.44597200  0.90861000  0.60594300  1
  O  O3  1  0.94597200  0.09139000  0.39405700  1
  O  O4  1  0.55402800  0.09139000  0.39405700  1
  O  O5  1  0.05402800  0.90861000  0.60594300  1
  O  O6  1  0.75000000  0.29120700  0.04008400  1
  O  O7  1  0.25000000  0.70879300  0.95991600  1
  O  O8  1  0.57427400  0.62451400  0.10803300  1
  O  O9  1  0.07427400  0.37548600  0.89196700  1
  O  O10  1  0.42572600  0.37548600  0.89196700  1
  O  O11  1  0.92572600  0.62451400  0.10803300  1
  O  O12  1  0.75000000  0.21168400  0.71869000  1
  O  O13  1  0.25000000  0.78831600  0.28131000  1
  O  O14  1  0.55417700  0.35956300  0.56325900  1
  O  O15  1  0.05417700  0.64043700  0.43674100  1
  O  O16  1  0.44582300  0.64043700  0.43674100  1
  O  O17  1  0.94582300  0.35956300  0.56325900  1
  O  O18  1  0.75000000  0.69088500  0.91981200  1
  O  O19  1  0.25000000  0.30911500  0.08018800  1
  O  O20  1  0.57676100  0.02642700  0.90263800  1
  O  O21  1  0.07676100  0.97357300  0.09736200  1
  O  O22  1  0.42323900  0.97357300  0.09736200  1
  O  O23  1  0.92323900  0.02642700  0.90263800  1
  O  O24  1  0.56287900  0.58697300  0.73272300  1
  O  O25  1  0.06287900  0.41302700  0.26727700  1
  O  O26  1  0.43712100  0.41302700  0.26727700  1
  O  O27  1  0.93712100  0.58697300  0.73272300  1
  O  O28  1  0.75000000  0.69960100  0.57183600  1
  O  O29  1  0.25000000  0.30039900  0.42816400  1
  O  O30  1  0.25000000  0.57695300  0.61713900  1
  O  O31  1  0.75000000  0.42304700  0.38286100  1
loop_
_geom_bond_atom_site_label_1
_geom_bond_atom_site_label_2
_geom_bond_distance
_geom_bond_site_symmetry_2
O0 Se0 1.694673 1_565
O0 Tb3 2.277135 1_565
O1 Se1 1.694673 1_545
O1 Tb2 2.277135 1_545
O2 Se0 1.762266 1_565
O2 V0 1.962309 1_555
O3 Se1 1.762266 1_545
O3 V1 1.962309 1_655
O4 Se1 1.762266 1_545
O4 V2 1.962309 1_555
O5 Se0 1.762266 1_565
O5 V3 1.962309 1_455
O6 Se2 1.740402 1_555
O6 Tb0 2.435692 1_554
O6 Tb2 2.525265 1_545
O7 Se3 1.740402 1_555
O7 Tb1 2.435692 1_556
O7 Tb3 2.525265 1_565
O8 Se2 1.746670 1_555
O8 Tb1 2.314253 1_555
O8 Tb2 2.422751 1_555
O9 Se3 1.746670 1_555
O9 Tb0 2.314253 1_455
O9 Tb3 2.422751 1_555
O10 Se3 1.746670 1_555
O10 Tb0 2.314253 1_555
O10 Tb3 2.422751 1_555
O11 Se2 1.746670 1_555
O11 Tb1 2.314253 1_655
O11 Tb2 2.422751 1_555
O12 Se4 1.696917 1_555
O12 Tb0 2.294036 1_555
O13 Se5 1.696917 1_555
O13 Tb1 2.294036 1_555
O14 Se4 1.778643 1_555
O14 V0 1.987017 1_555
O14 V2 2.454433 1_555
O15 Se5 1.778643 1_555
O15 V1 1.987017 1_555
O15 V3 2.454433 1_455
O16 Se5 1.778643 1_555
O16 V2 1.987017 1_555
O16 V0 2.454433 1_555
O17 Se4 1.778643 1_555
O17 V3 1.987017 1_555
O17 V1 2.454433 1_655
O18 Se6 1.722353 1_555
O18 Tb0 2.287553 1_555
O18 Tb2 2.582022 1_556
O19 Se7 1.722353 1_555
O19 Tb1 2.287553 1_555
O19 Tb3 2.582022 1_554
O20 Se6 1.755745 1_545
O20 Tb3 2.363189 1_555
O20 Tb2 2.639414 1_546
O20 Tb0 2.702559 1_555
O21 Se7 1.755745 1_565
O21 Tb2 2.363189 1_455
O21 Tb3 2.639414 1_564
O21 Tb1 2.702559 1_555
O22 Se7 1.755745 1_565
O22 Tb2 2.363189 1_555
O22 Tb3 2.639414 1_564
O22 Tb1 2.702559 1_555
O23 Se6 1.755745 1_545
O23 Tb3 2.363189 1_655
O23 Tb2 2.639414 1_546
O23 Tb0 2.702559 1_555
O24 V0 1.666364 1_555
O24 Tb0 2.628733 1_555
O25 V1 1.666364 1_555
O25 Tb1 2.628733 1_555
O26 V2 1.666364 1_555
O26 Tb1 2.628733 1_555
O27 V3 1.666364 1_555
O27 Tb0 2.628733 1_555
O28 V0 1.856528 1_555
O28 V3 1.856528 1_555
O29 V1 1.856528 1_555
O29 V2 1.856528 1_555
O30 V3 1.856711 1_455
O30 V0 1.856711 1_555
O31 V1 1.856711 1_655
O31 V2 1.856711 1_555
