# generated using pymatgen
data_NaIn(C2O5)2
_symmetry_space_group_name_H-M   'P 1'
_cell_length_a   8.09416785
_cell_length_b   8.09158746
_cell_length_c   12.99685692
_cell_angle_alpha   90.00051228
_cell_angle_beta   89.99424065
_cell_angle_gamma   120.03160551
_symmetry_Int_Tables_number   1
_chemical_formula_structural   NaIn(C2O5)2
_chemical_formula_sum   'Na3 In3 C12 O30'
_cell_volume   736.94742202
_cell_formula_units_Z   3
loop_
 _symmetry_equiv_pos_site_id
 _symmetry_equiv_pos_as_xyz
  1  'x, y, z'
loop_
 _atom_site_type_symbol
 _atom_site_label
 _atom_site_symmetry_multiplicity
 _atom_site_fract_x
 _atom_site_fract_y
 _atom_site_fract_z
 _atom_site_occupancy
  Na  Na0  1  0.99990678  0.00001018  0.00003979  1
  Na  Na1  1  0.00003488  0.00010672  0.33315233  1
  Na  Na2  1  0.00009858  0.00013029  0.66680068  1
  In  In0  1  0.49994724  0.49994950  -0.00000671  1
  In  In1  1  -0.00001973  0.49998455  0.33338043  1
  In  In2  1  0.50000915  0.00002044  0.66664531  1
  C  C0  1  0.69322670  0.30691505  0.49991762  1
  C  C1  1  0.61374022  0.30698654  0.83343190  1
  C  C2  1  0.30681183  0.69310180  0.49995986  1
  C  C3  1  0.38627714  0.69298000  0.83343251  1
  C  C4  1  0.69305084  0.38626331  0.16657754  1
  C  C5  1  0.30691065  0.61371889  0.16655554  1
  C  C6  1  0.80433073  0.19561022  0.50001341  1
  C  C7  1  0.39123200  0.19567661  0.83340092  1
  C  C8  1  0.19566890  0.80447137  0.50004854  1
  C  C9  1  0.60877959  0.80428138  0.83342069  1
  C  C10  1  0.80435243  0.60878385  0.16661382  1
  C  C11  1  0.19561825  0.39119701  0.16655167  1
  O  O0  1  0.69127586  0.77529322  0.90765457  1
  O  O1  1  0.08376504  0.30850831  0.24103269  1
  O  O2  1  0.30862821  0.22465676  0.90760974  1
  O  O3  1  0.91606004  0.22471343  0.42566786  1
  O  O4  1  0.22470365  0.91611571  0.57428619  1
  O  O5  1  0.91617264  0.69145574  0.24100693  1
  O  O6  1  0.77528792  0.69140371  0.09240299  1
  O  O7  1  0.08392317  0.77533142  0.42563093  1
  O  O8  1  0.77531160  0.08390490  0.57435110  1
  O  O9  1  0.22465341  0.30858967  0.09240322  1
  O  O10  1  0.30858165  0.08381427  0.75897811  1
  O  O11  1  0.69147454  0.91621357  0.75899232  1
  O  O12  1  0.79677887  0.79668982  0.49997162  1
  O  O13  1  0.00010328  0.20297437  0.83334446  1
  O  O14  1  0.20316029  0.20311410  0.50001745  1
  O  O15  1  0.20294149  0.00006975  0.16667236  1
  O  O16  1  0.00008117  0.79694613  0.83332623  1
  O  O17  1  0.79715831  0.99991217  0.16664939  1
  O  O18  1  0.69428736  0.25183787  0.76980583  1
  O  O19  1  0.55766143  0.30576987  0.10318016  1
  O  O20  1  0.30575674  0.74820247  0.76977434  1
  O  O21  1  0.44237733  0.74814563  0.56354713  1
  O  O22  1  0.74808782  0.44228188  0.43644305  1
  O  O23  1  0.44232673  0.69418202  0.10317622  1
  O  O24  1  0.25182746  0.69428475  0.23021761  1
  O  O25  1  0.55759581  0.25183238  0.56356082  1
  O  O26  1  0.25189369  0.55766231  0.43647159  1
  O  O27  1  0.74816413  0.30570817  0.23019225  1
  O  O28  1  0.30577923  0.55770655  0.89683245  1
  O  O29  1  0.69420499  0.44229136  0.89686452  1
loop_
_geom_bond_atom_site_label_1
_geom_bond_atom_site_label_2
_geom_bond_distance
_geom_bond_site_symmetry_2
Na0 O6 2.537200 1_545
Na0 O9 2.537449 1_655
Na0 O0 2.538193 1_544
Na0 O2 2.538577 1_654
Na0 O17 2.716632 1_545
Na0 O13 2.718161 1_654
Na0 O15 2.718627 1_655
Na0 O16 2.719722 1_644
Na1 O1 2.535174 1_555
Na1 O5 2.536851 1_445
Na1 O3 2.539118 1_455
Na1 O7 2.539691 1_545
Na1 O17 2.716181 1_445
Na1 O15 2.716393 1_555
Na1 O14 2.720692 1_555
Na1 O12 2.721297 1_445
Na2 O10 2.537037 1_555
Na2 O11 2.537439 1_445
Na2 O8 2.539425 1_455
Na2 O4 2.539609 1_545
Na2 O13 2.716450 1_555
Na2 O16 2.717917 1_545
Na2 O14 2.719391 1_555
Na2 O12 2.721851 1_445
In0 O23 2.284637 1_555
In0 O29 2.284807 1_554
In0 O19 2.284816 1_555
In0 O28 2.285107 1_554
In0 O0 2.312674 1_554
In0 O2 2.312844 1_554
In0 O9 2.313263 1_555
In0 O6 2.313861 1_555
In1 O22 2.283808 1_455
In1 O24 2.283965 1_555
In1 O27 2.284198 1_455
In1 O26 2.284444 1_555
In1 O3 2.312305 1_455
In1 O7 2.312572 1_555
In1 O1 2.313539 1_555
In1 O5 2.313881 1_455
In2 O25 2.283239 1_555
In2 O20 2.283279 1_545
In2 O21 2.283691 1_545
In2 O18 2.283732 1_555
In2 O8 2.313145 1_555
In2 O10 2.313389 1_555
In2 O4 2.313798 1_545
In2 O11 2.313969 1_545
C0 O22 1.261191 1_555
C0 O25 1.264163 1_555
C1 O29 1.260503 1_555
C1 O18 1.264558 1_555
C2 O26 1.261722 1_555
C2 O21 1.263486 1_555
C3 O28 1.260020 1_555
C3 O20 1.265137 1_555
C4 O19 1.260869 1_555
C4 O27 1.264353 1_555
C5 O23 1.260691 1_555
C5 O24 1.264601 1_555
C6 O8 1.262171 1_555
C6 O3 1.262390 1_555
C7 O2 1.260576 1_555
C7 O10 1.263500 1_555
C8 O4 1.260871 1_555
C8 O7 1.263274 1_555
C9 O0 1.260418 1_555
C9 O11 1.263782 1_555
C10 O6 1.260962 1_555
C10 O5 1.263194 1_555
C11 O9 1.260126 1_555
C11 O1 1.264082 1_555
