# generated using pymatgen
data_SrLa3Mn2Cr2O12
_symmetry_space_group_name_H-M   'P 1'
_cell_length_a   5.46755873
_cell_length_b   7.98574869
_cell_length_c   5.54126463
_cell_angle_alpha   90.00051804
_cell_angle_beta   89.99987304
_cell_angle_gamma   90.96148663
_symmetry_Int_Tables_number   1
_chemical_formula_structural   SrLa3Mn2Cr2O12
_chemical_formula_sum   'Sr1 La3 Mn2 Cr2 O12'
_cell_volume   241.91167835
_cell_formula_units_Z   1
loop_
 _symmetry_equiv_pos_site_id
 _symmetry_equiv_pos_as_xyz
  1  'x, y, z'
loop_
 _atom_site_type_symbol
 _atom_site_label
 _atom_site_symmetry_multiplicity
 _atom_site_fract_x
 _atom_site_fract_y
 _atom_site_fract_z
 _atom_site_occupancy
  Sr  Sr0  1  0.99999900  0.75000000  0.49485100  1
  La  La0  1  0.49999300  0.25000800  0.00405900  1
  La  La1  1  0.49998900  0.75000100  0.99823500  1
  La  La2  1  0.99999700  0.25000600  0.50161800  1
  Mn  Mn0  1  0.00025000  0.50100200  0.00006600  1
  Mn  Mn1  1  0.99975300  0.99899000  0.00006900  1
  Cr  Cr0  1  0.50017600  0.99905300  0.49984100  1
  Cr  Cr1  1  0.49982800  0.50094000  0.49983800  1
  O  O0  1  0.99998500  0.75006600  0.94997200  1
  O  O1  1  0.50000500  0.24999000  0.44218900  1
  O  O2  1  0.00001000  0.24994000  0.06235800  1
  O  O3  1  0.49999700  0.75000300  0.56484300  1
  O  O4  1  0.27740000  0.46706900  0.78474600  1
  O  O5  1  0.72261400  0.03293200  0.78475300  1
  O  O6  1  0.78013400  0.97697500  0.27159100  1
  O  O7  1  0.21986800  0.52301900  0.27160400  1
  O  O8  1  0.78153900  0.46222200  0.72631100  1
  O  O9  1  0.21846500  0.03777600  0.72632400  1
  O  O10  1  0.28386200  0.97495000  0.20836500  1
  O  O11  1  0.71613400  0.52505500  0.20836900  1
loop_
_geom_bond_atom_site_label_1
_geom_bond_atom_site_label_2
_geom_bond_distance
_geom_bond_site_symmetry_2
La0 O1 2.427794 1_555
La0 O4 2.456333 1_554
La0 O5 2.456459 1_554
La0 O11 2.723153 1_555
La0 O10 2.723206 1_545
La0 O9 2.742763 1_554
La0 O8 2.742784 1_554
La0 O2 2.752699 1_555
La0 O2 2.752903 1_655
La1 O3 2.401540 1_555
La1 O10 2.459752 1_556
La1 O11 2.459811 1_556
La1 O0 2.746799 1_555
La1 O0 2.746861 1_455
La1 O6 2.798699 1_556
La1 O7 2.798722 1_556
La1 O4 2.809500 1_555
La1 O5 2.809575 1_565
La2 O8 2.432449 1_555
La2 O9 2.432611 1_655
La2 O2 2.434056 1_655
La2 O1 2.753498 1_555
La2 O1 2.753587 1_655
La2 O4 2.770971 1_655
La2 O5 2.771002 1_555
La2 O7 2.781208 1_655
La2 O6 2.781319 1_545
Mn0 O7 1.931244 1_555
Mn0 O11 1.947392 1_455
Mn0 O4 1.951161 1_554
Mn0 O8 1.953096 1_454
Mn0 O0 2.008266 1_454
Mn0 O2 2.034396 1_555
Mn1 O6 1.931175 1_555
Mn1 O10 1.947333 1_655
Mn1 O5 1.951119 1_564
Mn1 O9 1.953064 1_664
Mn1 O0 2.007153 1_554
Mn1 O2 2.033505 1_665
Cr0 O6 1.995704 1_555
Cr0 O5 2.008433 1_565
Cr0 O10 2.009206 1_555
Cr0 O9 2.014711 1_565
Cr0 O3 2.021191 1_555
Cr0 O1 2.029243 1_565
Cr1 O7 1.995663 1_555
Cr1 O4 2.008374 1_555
Cr1 O11 2.009156 1_555
Cr1 O8 2.014678 1_555
Cr1 O3 2.021291 1_555
Cr1 O1 2.029338 1_555
O0 Sr0 2.521946 1_555
O0 Sr0 3.019319 1_556
O3 Sr0 2.761144 1_455
O3 Sr0 2.761165 1_555
O4 Sr0 3.178194 1_455
O5 Sr0 3.178152 1_545
O6 Sr0 2.516782 1_555
O7 Sr0 2.516774 1_455
O8 Sr0 2.874196 1_555
O9 Sr0 2.874212 1_445
O10 Sr0 2.839448 1_455
O11 Sr0 2.839402 1_555
