# generated using pymatgen
data_Pr(CuO2)2
_symmetry_space_group_name_H-M   'P 1'
_cell_length_a   6.36470682
_cell_length_b   6.36467561
_cell_length_c   6.36432180
_cell_angle_alpha   125.56486225
_cell_angle_beta   125.57855573
_cell_angle_gamma   80.59732687
_symmetry_Int_Tables_number   1
_chemical_formula_structural   Pr(CuO2)2
_chemical_formula_sum   'Pr2 Cu4 O8'
_cell_volume   164.49273812
_cell_formula_units_Z   2
loop_
 _symmetry_equiv_pos_site_id
 _symmetry_equiv_pos_as_xyz
  1  'x, y, z'
loop_
 _atom_site_type_symbol
 _atom_site_label
 _atom_site_symmetry_multiplicity
 _atom_site_fract_x
 _atom_site_fract_y
 _atom_site_fract_z
 _atom_site_occupancy
  Pr  Pr0  1  0.00000040  0.00000140  -0.00000000  1
  Pr  Pr1  1  0.74999960  0.24999860  0.50000000  1
  Cu  Cu0  1  0.87500000  0.62500000  0.25000000  1
  Cu  Cu1  1  0.37500000  0.12500000  0.75000000  1
  Cu  Cu2  1  0.37500000  0.62500000  0.25000000  1
  Cu  Cu3  1  0.37500000  0.62500000  0.75000000  1
  O  O0  1  0.34230073  0.97847959  0.92044155  1
  O  O1  1  0.69196196  0.82814182  0.42044255  1
  O  O2  1  0.72838634  0.30795575  0.13608963  1
  O  O3  1  0.57813488  0.65770429  0.63609063  1
  O  O4  1  0.17186512  0.59229571  0.86390937  1
  O  O5  1  0.02161366  0.94204425  0.36391037  1
  O  O6  1  0.05803804  0.42185818  0.07955745  1
  O  O7  1  0.40769927  0.27152041  0.57955845  1
loop_
_geom_bond_atom_site_label_1
_geom_bond_atom_site_label_2
_geom_bond_distance
_geom_bond_site_symmetry_2
Cu0 O6 1.884789 1_655
Cu0 O1 1.884789 1_555
Cu0 O2 1.895930 1_555
Cu0 O5 1.895930 1_655
Cu1 O5 1.883864 1_545
Cu1 O2 1.883864 1_556
Cu1 O7 1.895385 1_555
Cu1 O0 1.895385 1_545
Cu2 O3 1.883867 1_555
Cu2 O4 1.883867 1_554
Cu2 O6 1.895386 1_555
Cu2 O1 1.895386 1_555
Cu3 O7 1.884776 1_555
Cu3 O0 1.884776 1_555
Cu3 O4 1.895943 1_555
Cu3 O3 1.895943 1_555
O0 Pr0 2.475290 1_566
O0 Pr1 2.497573 1_566
O1 Pr1 2.475269 1_565
O1 Pr0 2.497570 1_666
O2 Pr1 2.474983 1_555
O2 Pr0 2.498170 1_655
O3 Pr0 2.474970 1_666
O3 Pr1 2.498175 1_555
O4 Pr1 2.474970 1_455
O4 Pr0 2.498175 1_566
O5 Pr0 2.474983 1_565
O5 Pr1 2.498170 1_465
O6 Pr0 2.475269 1_555
O6 Pr1 2.497570 1_454
O7 Pr1 2.475290 1_555
O7 Pr0 2.497573 1_555
