# generated using pymatgen
data_Mg16Al12Br
_symmetry_space_group_name_H-M   'P 1'
_cell_length_a   9.17361658
_cell_length_b   9.17361658
_cell_length_c   9.17361658
_cell_angle_alpha   109.47122063
_cell_angle_beta   109.47122063
_cell_angle_gamma   109.47122063
_symmetry_Int_Tables_number   1
_chemical_formula_structural   Mg16Al12Br
_chemical_formula_sum   'Mg16 Al12 Br1'
_cell_volume   594.29196985
_cell_formula_units_Z   1
loop_
 _symmetry_equiv_pos_site_id
 _symmetry_equiv_pos_as_xyz
  1  'x, y, z'
loop_
 _atom_site_type_symbol
 _atom_site_label
 _atom_site_symmetry_multiplicity
 _atom_site_fract_x
 _atom_site_fract_y
 _atom_site_fract_z
 _atom_site_occupancy
  Mg  Mg0  1  0.59100500  0.31066800  0.00000000  1
  Mg  Mg1  1  0.31672600  0.00000000  0.00000000  1
  Mg  Mg2  1  0.31066800  0.59100500  0.00000000  1
  Mg  Mg3  1  0.00000000  0.31672600  0.00000000  1
  Mg  Mg4  1  0.40899500  0.40899500  0.71966400  1
  Mg  Mg5  1  0.28033600  0.68933200  0.68933200  1
  Mg  Mg6  1  0.68933200  0.28033600  0.68933200  1
  Mg  Mg7  1  0.68327400  0.68327400  0.68327400  1
  Mg  Mg8  1  0.00000000  0.31066800  0.59100500  1
  Mg  Mg9  1  0.31066800  0.00000000  0.59100500  1
  Mg  Mg10  1  0.71966400  0.40899500  0.40899500  1
  Mg  Mg11  1  0.40899500  0.71966400  0.40899500  1
  Mg  Mg12  1  0.00000000  0.00000000  0.31672600  1
  Mg  Mg13  1  0.00000000  0.59100500  0.31066800  1
  Mg  Mg14  1  0.59100500  0.00000000  0.31066800  1
  Mg  Mg15  1  0.68933200  0.68933200  0.28033600  1
  Al  Al0  1  0.81163000  0.62175600  0.00000000  1
  Al  Al1  1  0.62175600  0.81163000  0.00000000  1
  Al  Al2  1  0.00000000  0.62175600  0.81163000  1
  Al  Al3  1  0.62175600  0.00000000  0.81163000  1
  Al  Al4  1  0.18837000  0.18837000  0.81012600  1
  Al  Al5  1  0.00000000  0.81163000  0.62175600  1
  Al  Al6  1  0.81163000  0.00000000  0.62175600  1
  Al  Al7  1  0.18987400  0.37824400  0.37824400  1
  Al  Al8  1  0.37824400  0.18987400  0.37824400  1
  Al  Al9  1  0.37824400  0.37824400  0.18987400  1
  Al  Al10  1  0.81012600  0.18837000  0.18837000  1
  Al  Al11  1  0.18837000  0.81012600  0.18837000  1
  Br  Br0  1  0.00000000  0.00000000  0.00000000  1
loop_
_geom_bond_atom_site_label_1
_geom_bond_atom_site_label_2
_geom_bond_distance
_geom_bond_site_symmetry_2
Mg0 Mg1 3.110074 1_555
Mg0 Mg4 3.146905 1_554
Mg0 Mg15 3.146909 1_555
Mg0 Mg10 3.219583 1_555
Mg0 Mg6 3.219583 1_554
Mg0 Mg9 3.219584 1_554
Mg0 Mg13 3.219584 1_655
Mg1 Mg5 3.110069 1_544
Mg1 Mg14 3.110074 1_555
Mg2 Mg3 3.110074 1_555
Mg2 Mg4 3.146905 1_554
Mg2 Mg5 3.219583 1_554
Mg2 Mg8 3.219584 1_554
Mg3 Mg6 3.110069 1_454
Mg4 Mg7 3.110080 1_555
Mg4 Mg9 3.219583 1_555
Mg4 Mg8 3.219583 1_555
Mg4 Mg6 3.219592 1_555
Mg4 Mg5 3.219592 1_555
Mg5 Mg8 3.146909 1_555
Mg5 Mg9 3.219583 1_565
Mg6 Mg9 3.146909 1_555
Mg6 Mg8 3.219583 1_655
Mg10 Mg7 3.110080 1_555
Mg10 Mg13 3.146905 1_655
Mg10 Mg8 3.146905 1_655
Mg10 Mg14 3.219583 1_555
Mg10 Mg15 3.219592 1_555
Mg10 Mg6 3.219592 1_555
Mg11 Mg7 3.110080 1_555
Mg11 Mg14 3.146905 1_565
Mg11 Mg9 3.146905 1_565
Mg11 Mg2 3.219583 1_555
Mg11 Mg13 3.219583 1_555
Mg11 Mg5 3.219592 1_555
Mg11 Mg15 3.219592 1_555
Mg12 Mg15 3.110069 1_445
Mg12 Mg9 3.110074 1_555
Mg12 Mg8 3.110074 1_555
Mg13 Mg3 3.110074 1_555
Mg13 Mg5 3.146909 1_555
Mg13 Mg15 3.219583 1_455
Mg13 Mg9 3.219584 1_565
Mg14 Mg6 3.146909 1_555
Mg14 Mg15 3.219583 1_545
Mg14 Mg2 3.219584 1_545
Mg14 Mg8 3.219584 1_655
Mg15 Mg2 3.146909 1_555
Al0 Al11 2.821868 1_655
Al0 Al2 2.821868 1_654
Al0 Al1 2.844399 1_555
Al0 Mg0 2.896529 1_555
Al0 Mg13 2.960683 1_655
Al0 Mg6 2.960689 1_554
Al0 Mg7 3.066326 1_554
Al0 Mg12 3.066326 1_665
Al0 Mg15 3.095307 1_555
Al0 Mg4 3.095313 1_554
Al1 Al10 2.821868 1_565
Al1 Al3 2.821868 1_564
Al1 Mg2 2.896529 1_555
Al1 Mg14 2.960683 1_565
Al1 Mg5 2.960689 1_554
Al1 Mg7 3.066326 1_554
Al1 Mg12 3.066326 1_665
Al1 Mg15 3.095307 1_555
Al1 Mg4 3.095313 1_554
Al2 Al5 2.844399 1_555
Al2 Mg8 2.896529 1_555
Al2 Mg2 2.960683 1_556
Al2 Mg6 2.960689 1_455
Al2 Mg7 3.066326 1_455
Al2 Mg1 3.066326 1_566
Al2 Mg5 3.095307 1_555
Al2 Mg10 3.095313 1_455
Al3 Al6 2.844399 1_555
Al3 Mg9 2.896529 1_555
Al3 Mg0 2.960683 1_556
Al3 Mg5 2.960689 1_545
Al3 Mg7 3.066326 1_545
Al3 Mg3 3.066326 1_656
Al3 Mg6 3.095307 1_555
Al3 Mg11 3.095313 1_545
Al4 Al5 2.821868 1_545
Al4 Al6 2.821868 1_455
Al4 Al9 2.844399 1_556
Al4 Mg4 2.896522 1_555
Al4 Mg8 2.960683 1_555
Al4 Mg9 2.960683 1_555
Al4 Mg1 3.066326 1_556
Al4 Mg3 3.066326 1_556
Al4 Mg0 3.095315 1_556
Al4 Mg2 3.095315 1_556
Al5 Al6 2.821868 1_465
Al5 Mg13 2.896529 1_555
Al5 Mg9 2.960683 1_565
Al5 Mg15 2.960689 1_455
Al5 Mg1 3.066326 1_566
Al5 Mg7 3.066326 1_455
Al5 Mg5 3.095307 1_555
Al5 Mg10 3.095313 1_455
Al6 Mg14 2.896529 1_555
Al6 Mg8 2.960683 1_655
Al6 Mg15 2.960689 1_545
Al6 Mg3 3.066326 1_656
Al6 Mg7 3.066326 1_545
Al6 Mg6 3.095307 1_555
Al6 Mg11 3.095313 1_545
Al7 Al8 2.821868 1_555
Al7 Al9 2.821868 1_555
Al7 Mg5 2.896532 1_555
Al7 Mg4 2.960690 1_555
Al7 Mg11 2.960690 1_555
Al7 Mg12 3.066326 1_555
Al7 Mg3 3.066326 1_555
Al7 Mg8 3.095315 1_555
Al7 Mg13 3.095315 1_555
Al8 Al9 2.821868 1_555
Al8 Mg6 2.896532 1_555
Al8 Mg4 2.960690 1_555
Al8 Mg10 2.960690 1_555
Al8 Mg1 3.066326 1_555
Al8 Mg12 3.066326 1_555
Al8 Mg14 3.095315 1_555
Al8 Mg9 3.095315 1_555
Al9 Mg15 2.896532 1_555
Al9 Mg11 2.960690 1_555
Al9 Mg10 2.960690 1_555
Al9 Mg1 3.066326 1_555
Al9 Mg3 3.066326 1_555
Al9 Mg2 3.095315 1_555
Al9 Mg0 3.095315 1_555
Al10 Al3 2.821868 1_554
Al10 Al7 2.844399 1_655
Al10 Mg10 2.896522 1_555
Al10 Mg14 2.960683 1_555
Al10 Mg0 2.960683 1_555
Al10 Mg3 3.066326 1_655
Al10 Mg12 3.066326 1_655
Al10 Mg13 3.095315 1_655
Al10 Mg8 3.095315 1_655
Al11 Al2 2.821868 1_554
Al11 Al8 2.844399 1_565
Al11 Mg11 2.896522 1_555
Al11 Mg13 2.960683 1_555
Al11 Mg2 2.960683 1_555
Al11 Mg12 3.066326 1_565
Al11 Mg1 3.066326 1_565
Al11 Mg9 3.095315 1_565
Al11 Mg14 3.095315 1_565
Br0 Mg7 2.905523 1_444
Br0 Mg3 2.905523 1_555
Br0 Mg12 2.905523 1_555
Br0 Mg1 2.905523 1_555
