# generated using pymatgen
data_Yb2CrS4
_symmetry_space_group_name_H-M   'P 1'
_cell_length_a   7.60960700
_cell_length_b   12.64519900
_cell_length_c   12.12907300
_cell_angle_alpha   90.00000000
_cell_angle_beta   90.00000000
_cell_angle_gamma   90.00000000
_symmetry_Int_Tables_number   1
_chemical_formula_structural   Yb2CrS4
_chemical_formula_sum   'Yb16 Cr8 S32'
_cell_volume   1167.11998668
_cell_formula_units_Z   8
loop_
 _symmetry_equiv_pos_site_id
 _symmetry_equiv_pos_as_xyz
  1  'x, y, z'
loop_
 _atom_site_type_symbol
 _atom_site_label
 _atom_site_symmetry_multiplicity
 _atom_site_fract_x
 _atom_site_fract_y
 _atom_site_fract_z
 _atom_site_occupancy
  Yb  Yb0  1  0.88071500  0.05912500  0.87375800  1
  Yb  Yb1  1  0.11928500  0.55912500  0.12624200  1
  Yb  Yb2  1  0.88071500  0.55912500  0.62624200  1
  Yb  Yb3  1  0.11928500  0.05912500  0.37375800  1
  Yb  Yb4  1  0.87589100  0.22697200  0.13828000  1
  Yb  Yb5  1  0.12410900  0.72697200  0.86172000  1
  Yb  Yb6  1  0.87589100  0.72697200  0.36172000  1
  Yb  Yb7  1  0.12410900  0.22697200  0.63828000  1
  Yb  Yb8  1  0.37904800  0.42174500  0.89083100  1
  Yb  Yb9  1  0.62095200  0.92174500  0.10916900  1
  Yb  Yb10  1  0.37904800  0.92174500  0.60916900  1
  Yb  Yb11  1  0.62095200  0.42174500  0.39083100  1
  Yb  Yb12  1  0.62236100  0.22860900  0.64084000  1
  Yb  Yb13  1  0.37763900  0.72860900  0.35916000  1
  Yb  Yb14  1  0.62236100  0.72860900  0.85916000  1
  Yb  Yb15  1  0.37763900  0.22860900  0.14084000  1
  Cr  Cr0  1  0.85922800  0.41825300  0.90853700  1
  Cr  Cr1  1  0.14077200  0.91825300  0.09146300  1
  Cr  Cr2  1  0.85922800  0.91825300  0.59146300  1
  Cr  Cr3  1  0.14077200  0.41825300  0.40853700  1
  Cr  Cr4  1  0.36201500  0.06498600  0.88675900  1
  Cr  Cr5  1  0.63798500  0.56498600  0.11324100  1
  Cr  Cr6  1  0.36201500  0.56498600  0.61324100  1
  Cr  Cr7  1  0.63798500  0.06498600  0.38675900  1
  S  S0  1  0.35044800  0.38280700  0.54270000  1
  S  S1  1  0.64955200  0.88280700  0.45730000  1
  S  S2  1  0.35044800  0.88280700  0.95730000  1
  S  S3  1  0.64955200  0.38280700  0.04270000  1
  S  S4  1  0.40519500  0.11374100  0.50019300  1
  S  S5  1  0.59480500  0.61374100  0.49980700  1
  S  S6  1  0.40519500  0.61374100  0.99980700  1
  S  S7  1  0.59480500  0.11374100  0.00019300  1
  S  S8  1  0.86956400  0.27101000  0.80466300  1
  S  S9  1  0.13043600  0.77101000  0.19533700  1
  S  S10  1  0.86956400  0.77101000  0.69533700  1
  S  S11  1  0.13043600  0.27101000  0.30466300  1
  S  S12  1  0.85310500  0.02049800  0.23720700  1
  S  S13  1  0.14689500  0.52049800  0.76279300  1
  S  S14  1  0.85310500  0.52049800  0.26279300  1
  S  S15  1  0.14689500  0.02049800  0.73720700  1
  S  S16  1  0.90679200  0.36819900  0.52032900  1
  S  S17  1  0.09320800  0.86819900  0.47967100  1
  S  S18  1  0.90679200  0.86819900  0.97967100  1
  S  S19  1  0.09320800  0.36819900  0.02032900  1
  S  S20  1  0.84964400  0.09742600  0.51953600  1
  S  S21  1  0.15035600  0.59742600  0.48046400  1
  S  S22  1  0.84964400  0.59742600  0.98046400  1
  S  S23  1  0.15035600  0.09742600  0.01953600  1
  S  S24  1  0.36978900  0.22608900  0.80161200  1
  S  S25  1  0.63021100  0.72608900  0.19838800  1
  S  S26  1  0.36978900  0.72608900  0.69838800  1
  S  S27  1  0.63021100  0.22608900  0.30161200  1
  S  S28  1  0.64287500  0.00453900  0.72568100  1
  S  S29  1  0.35712500  0.50453900  0.27431900  1
  S  S30  1  0.64287500  0.50453900  0.77431900  1
  S  S31  1  0.35712500  0.00453900  0.22568100  1
loop_
_geom_bond_atom_site_label_1
_geom_bond_atom_site_label_2
_geom_bond_distance
_geom_bond_site_symmetry_2
Cr0 S8 2.249502 1_555
Cr0 S3 2.322651 1_556
Cr0 S19 2.325798 1_656
Cr0 S22 2.428932 1_555
Cr0 S30 2.559531 1_555
Cr0 S13 3.096511 1_655
Cr1 S9 2.249502 1_555
Cr1 S2 2.322651 1_554
Cr1 S18 2.325798 1_454
Cr1 S23 2.428932 1_565
Cr1 S31 2.559531 1_565
Cr1 S12 3.096511 1_465
Cr2 S10 2.249502 1_555
Cr2 S1 2.322651 1_555
Cr2 S17 2.325798 1_655
Cr2 S20 2.428932 1_565
Cr2 S28 2.559531 1_565
Cr2 S15 3.096511 1_665
Cr3 S11 2.249502 1_555
Cr3 S0 2.322651 1_555
Cr3 S16 2.325798 1_455
Cr3 S21 2.428932 1_555
Cr3 S29 2.559531 1_555
Cr3 S14 3.096511 1_455
Cr4 S24 2.284772 1_555
Cr4 S23 2.314309 1_556
Cr4 S7 2.326167 1_556
Cr4 S2 2.459020 1_545
Cr4 S15 2.507290 1_555
Cr4 S28 2.994841 1_555
Cr5 S25 2.284772 1_555
Cr5 S22 2.314309 1_554
Cr5 S6 2.326167 1_554
Cr5 S3 2.459020 1_555
Cr5 S14 2.507290 1_555
Cr5 S29 2.994841 1_555
Cr6 S26 2.284772 1_555
Cr6 S21 2.314309 1_555
Cr6 S5 2.326167 1_555
Cr6 S0 2.459020 1_555
Cr6 S13 2.507290 1_555
Cr6 S30 2.994841 1_555
Cr7 S27 2.284772 1_555
Cr7 S20 2.314309 1_555
Cr7 S4 2.326167 1_555
Cr7 S1 2.459020 1_545
Cr7 S12 2.507290 1_555
Cr7 S31 2.994841 1_555
S0 Yb11 2.805823 1_555
S0 Yb7 2.862444 1_555
S0 Yb12 3.082253 1_555
S1 Yb10 2.805823 1_555
S1 Yb6 2.862444 1_555
S1 Yb13 3.082253 1_555
S2 Yb9 2.805823 1_556
S2 Yb5 2.862444 1_555
S2 Yb14 3.082253 1_555
S3 Yb8 2.805823 1_554
S3 Yb4 2.862444 1_555
S3 Yb15 3.082253 1_555
S4 Yb3 2.749949 1_555
S4 Yb10 2.771468 1_545
S4 Yb12 2.784046 1_555
S4 Yb7 3.070902 1_555
S5 Yb2 2.749949 1_555
S5 Yb11 2.771468 1_555
S5 Yb13 2.784046 1_555
S5 Yb6 3.070902 1_555
S6 Yb1 2.749949 1_556
S6 Yb8 2.771468 1_555
S6 Yb14 2.784046 1_555
S6 Yb5 3.070902 1_555
S7 Yb0 2.749949 1_554
S7 Yb9 2.771468 1_545
S7 Yb15 2.784046 1_555
S7 Yb4 3.070902 1_555
S8 Yb12 2.788249 1_555
S8 Yb0 2.808619 1_555
S8 Yb7 2.852128 1_655
S9 Yb13 2.788249 1_555
S9 Yb1 2.808619 1_555
S9 Yb6 2.852128 1_455
S10 Yb14 2.788249 1_555
S10 Yb2 2.808619 1_555
S10 Yb5 2.852128 1_655
S11 Yb15 2.788249 1_555
S11 Yb3 2.808619 1_555
S11 Yb4 2.852128 1_455
S12 Yb3 2.661664 1_655
S12 Yb9 2.663078 1_545
S12 Yb4 2.878651 1_555
S13 Yb2 2.661664 1_455
S13 Yb8 2.663078 1_555
S13 Yb5 2.878651 1_555
S14 Yb1 2.661664 1_655
S14 Yb11 2.663078 1_555
S14 Yb6 2.878651 1_555
S15 Yb0 2.661664 1_455
S15 Yb10 2.663078 1_545
S15 Yb7 2.878651 1_555
S16 Yb2 2.741983 1_555
S16 Yb11 2.767079 1_555
S16 Yb7 2.823238 1_655
S16 Yb12 3.152288 1_555
S17 Yb3 2.741983 1_565
S17 Yb10 2.767079 1_555
S17 Yb6 2.823238 1_455
S17 Yb13 3.152288 1_555
S18 Yb0 2.741983 1_565
S18 Yb9 2.767079 1_556
S18 Yb5 2.823238 1_655
S18 Yb14 3.152288 1_555
S19 Yb1 2.741983 1_555
S19 Yb8 2.767079 1_554
S19 Yb4 2.823238 1_455
S19 Yb15 3.152288 1_555
S20 Yb3 2.751558 1_655
S20 Yb12 2.812074 1_555
S20 Yb7 3.019925 1_655
S21 Yb2 2.751558 1_455
S21 Yb13 2.812074 1_555
S21 Yb6 3.019925 1_455
S22 Yb1 2.751558 1_656
S22 Yb14 2.812074 1_555
S22 Yb5 3.019925 1_655
S23 Yb0 2.751558 1_454
S23 Yb15 2.812074 1_555
S23 Yb4 3.019925 1_455
S24 Yb8 2.701336 1_555
S24 Yb7 2.723946 1_555
S24 Yb12 2.738167 1_555
S25 Yb9 2.701336 1_555
S25 Yb6 2.723946 1_555
S25 Yb13 2.738167 1_555
S26 Yb10 2.701336 1_555
S26 Yb5 2.723946 1_555
S26 Yb14 2.738167 1_555
S27 Yb11 2.701336 1_555
S27 Yb4 2.723946 1_555
S27 Yb15 2.738167 1_555
S28 Yb0 2.641556 1_555
S28 Yb10 2.669030 1_545
S28 Yb12 3.018527 1_555
S29 Yb1 2.641556 1_555
S29 Yb11 2.669030 1_555
S29 Yb13 3.018527 1_555
S30 Yb2 2.641556 1_555
S30 Yb8 2.669030 1_555
S30 Yb14 3.018527 1_555
S31 Yb3 2.641556 1_555
S31 Yb9 2.669030 1_545
S31 Yb15 3.018527 1_555
