# generated using pymatgen
data_Zn4Te3W5O18
_symmetry_space_group_name_H-M   'P 1'
_cell_length_a   9.46481531
_cell_length_b   9.46481531
_cell_length_c   10.26287259
_cell_angle_alpha   87.92461953
_cell_angle_beta   87.92461953
_cell_angle_gamma   67.43510401
_symmetry_Int_Tables_number   1
_chemical_formula_structural   Zn4Te3W5O18
_chemical_formula_sum   'Zn8 Te6 W10 O36'
_cell_volume   848.18870406
_cell_formula_units_Z   2
loop_
 _symmetry_equiv_pos_site_id
 _symmetry_equiv_pos_as_xyz
  1  'x, y, z'
loop_
 _atom_site_type_symbol
 _atom_site_label
 _atom_site_symmetry_multiplicity
 _atom_site_fract_x
 _atom_site_fract_y
 _atom_site_fract_z
 _atom_site_occupancy
  Zn  Zn0  1  0.11229300  0.46093000  0.68270400  1
  Zn  Zn1  1  0.46998700  0.45906100  0.76732000  1
  Zn  Zn2  1  0.53907000  0.88770700  0.31729600  1
  Zn  Zn3  1  0.54093900  0.53001300  0.23268000  1
  Zn  Zn4  1  0.84458600  0.07574500  0.26165200  1
  Zn  Zn5  1  0.85259100  0.71899600  0.18033400  1
  Zn  Zn6  1  0.28100400  0.14740900  0.81966600  1
  Zn  Zn7  1  0.92425500  0.15541400  0.73834800  1
  Te  Te0  1  0.66574500  0.16811900  0.05661800  1
  Te  Te1  1  0.19390300  0.80680100  0.75269200  1
  Te  Te2  1  0.19319900  0.80609700  0.24730800  1
  Te  Te3  1  0.57272800  0.26719400  0.56786000  1
  Te  Te4  1  0.73280600  0.42727200  0.43214000  1
  Te  Te5  1  0.83188100  0.33425500  0.94338200  1
  W  W0  1  0.19654300  0.48032000  0.01710200  1
  W  W1  1  0.87076100  0.80431200  0.51482300  1
  W  W2  1  0.66912900  0.65464200  0.70254800  1
  W  W3  1  0.04832400  0.28192600  0.20595900  1
  W  W4  1  0.34535800  0.33087100  0.29745200  1
  W  W5  1  0.07643400  0.92356600  0.00000000  1
  W  W6  1  0.31472400  0.68527600  0.50000000  1
  W  W7  1  0.71807400  0.95167600  0.79404100  1
  W  W8  1  0.19568800  0.12923900  0.48517700  1
  W  W9  1  0.51968000  0.80345700  0.98289800  1
  O  O0  1  0.62952900  0.85590900  0.12189900  1
  O  O1  1  0.26405900  0.53144500  0.18316500  1
  O  O2  1  0.36527400  0.45852000  0.42828200  1
  O  O3  1  0.29348600  0.92435300  0.52409800  1
  O  O4  1  0.46855500  0.73594100  0.81683500  1
  O  O5  1  0.07564700  0.70651400  0.47590200  1
  O  O6  1  0.71557700  0.15850600  0.71294900  1
  O  O7  1  0.96311500  0.86975200  0.17358000  1
  O  O8  1  0.42595200  0.73851700  0.32182200  1
  O  O9  1  0.88915800  0.59477300  0.63383200  1
  O  O10  1  0.38387100  0.44175900  0.93750500  1
  O  O11  1  0.49814500  0.00930800  0.86816600  1
  O  O12  1  0.13026700  0.08167600  0.31913800  1
  O  O13  1  0.26626900  0.27456400  0.13104900  1
  O  O14  1  0.55824100  0.61612900  0.06249500  1
  O  O15  1  0.68429500  0.45587100  0.78856900  1
  O  O16  1  0.00868400  0.16753600  0.56476400  1
  O  O17  1  0.72543600  0.73373100  0.86895100  1
  O  O18  1  0.54148000  0.63472600  0.57171800  1
  O  O19  1  0.83246400  0.99131600  0.43523600  1
  O  O20  1  0.24871900  0.23684100  0.62593400  1
  O  O21  1  0.13586400  0.33729100  0.37516800  1
  O  O22  1  0.13024800  0.03688500  0.82642000  1
  O  O23  1  0.54412900  0.31570500  0.21143100  1
  O  O24  1  0.01144700  0.14978300  0.06817700  1
  O  O25  1  0.31539500  0.90119200  0.02258900  1
  O  O26  1  0.99069200  0.50185500  0.13183400  1
  O  O27  1  0.84149400  0.28442300  0.28705100  1
  O  O28  1  0.91832400  0.86973300  0.68086200  1
  O  O29  1  0.66270900  0.86413600  0.62483200  1
  O  O30  1  0.76315900  0.75128100  0.37406600  1
  O  O31  1  0.09880800  0.68460500  0.97741100  1
  O  O32  1  0.26148300  0.57404800  0.67817800  1
  O  O33  1  0.40522700  0.11084200  0.36616800  1
  O  O34  1  0.85021700  0.98855300  0.93182300  1
  O  O35  1  0.14409100  0.37047100  0.87810100  1
loop_
_geom_bond_atom_site_label_1
_geom_bond_atom_site_label_2
_geom_bond_distance
_geom_bond_site_symmetry_2
O0 W9 1.979225 1_554
O0 Zn5 2.105228 1_555
O0 Zn2 2.136957 1_555
O1 W0 1.980659 1_555
O1 W4 2.086801 1_555
O1 Te2 2.528766 1_555
O2 W4 1.899644 1_555
O2 W6 2.162797 1_555
O2 Te3 2.544329 1_555
O3 W8 1.835748 1_565
O3 W6 2.215800 1_555
O4 W9 1.980659 1_555
O4 W2 2.086801 1_555
O4 Te1 2.528766 1_555
O5 W1 1.835748 1_455
O5 W6 2.215800 1_555
O6 Zn7 1.990526 1_555
O6 Te3 2.017650 1_555
O6 W7 2.091249 1_545
O7 Zn4 2.062129 1_565
O7 Zn5 2.065965 1_555
O7 Te2 2.181126 1_655
O7 W5 2.190529 1_655
O8 Zn2 2.072252 1_555
O8 Zn3 2.079966 1_555
O8 Te2 2.202762 1_555
O8 W6 2.215181 1_555
O9 W2 2.042620 1_555
O9 Zn0 2.072209 1_655
O9 W1 2.242828 1_555
O10 W0 1.834176 1_556
O10 Zn1 1.928818 1_555
O11 Zn6 2.036029 1_555
O11 W7 2.062332 1_545
O11 W9 2.184144 1_545
O12 W8 1.958498 1_555
O12 W3 2.078611 1_555
O12 Te2 2.572276 1_545
O13 W4 2.055610 1_555
O13 W0 2.121372 1_555
O13 W3 2.151693 1_555
O14 W9 1.834176 1_554
O14 Zn3 1.928818 1_555
O15 W2 2.005247 1_555
O15 Zn1 2.036511 1_555
O15 Te5 2.143567 1_555
O16 W8 1.831843 1_555
O16 Zn7 1.943662 1_455
O17 W2 2.055610 1_555
O17 W9 2.121372 1_555
O17 W7 2.151693 1_555
O18 W2 1.899644 1_555
O18 W6 2.162797 1_555
O18 Te4 2.544329 1_555
O19 W1 1.831843 1_555
O19 Zn4 1.943662 1_565
O20 W8 1.981743 1_555
O20 Zn0 2.106758 1_555
O20 Zn6 2.118158 1_555
O21 W4 2.089958 1_555
O21 W3 2.116625 1_555
O21 W8 2.121905 1_555
O22 Zn7 2.062129 1_455
O22 Zn6 2.065965 1_555
O22 Te1 2.181126 1_545
O22 W5 2.190529 1_546
O23 W4 2.005247 1_555
O23 Zn3 2.036511 1_555
O23 Te0 2.143567 1_555
O24 W3 2.045598 1_555
O24 W5 2.125755 1_545
O24 Te5 2.301227 1_454
O25 W9 1.832406 1_554
O25 W5 2.209257 1_555
O26 Zn5 2.036029 1_555
O26 W3 2.062332 1_655
O26 W0 2.184144 1_655
O27 Zn4 1.990526 1_555
O27 Te4 2.017650 1_555
O27 W3 2.091249 1_655
O28 W1 1.958498 1_555
O28 W7 2.078611 1_555
O28 Te1 2.572276 1_655
O29 W2 2.089958 1_555
O29 W7 2.116625 1_555
O29 W1 2.121905 1_555
O30 W1 1.981743 1_555
O30 Zn2 2.106758 1_555
O30 Zn5 2.118158 1_555
O31 W0 1.832406 1_556
O31 W5 2.209257 1_556
O32 Zn0 2.072252 1_555
O32 Zn1 2.079966 1_555
O32 Te1 2.202762 1_555
O32 W6 2.215181 1_555
O33 W4 2.042620 1_555
O33 Zn2 2.072209 1_545
O33 W8 2.242828 1_555
O34 W7 2.045598 1_555
O34 W5 2.125755 1_656
O34 Te0 2.301227 1_566
O35 W0 1.979225 1_556
O35 Zn6 2.105228 1_555
O35 Zn0 2.136957 1_555
