# generated using pymatgen
data_Sc3(FeSi3)2
_symmetry_space_group_name_H-M   'P 1'
_cell_length_a   5.07051700
_cell_length_b   9.55855565
_cell_length_c   14.42804900
_cell_angle_alpha   90.00000000
_cell_angle_beta   90.00000000
_cell_angle_gamma   74.61911725
_symmetry_Int_Tables_number   1
_chemical_formula_structural   Sc3(FeSi3)2
_chemical_formula_sum   'Sc12 Fe8 Si24'
_cell_volume   674.23613629
_cell_formula_units_Z   4
loop_
 _symmetry_equiv_pos_site_id
 _symmetry_equiv_pos_as_xyz
  1  'x, y, z'
loop_
 _atom_site_type_symbol
 _atom_site_label
 _atom_site_symmetry_multiplicity
 _atom_site_fract_x
 _atom_site_fract_y
 _atom_site_fract_z
 _atom_site_occupancy
  Sc  Sc0  1  0.53462700  0.93074700  0.82277800  1
  Sc  Sc1  1  0.46537300  0.06925300  0.17722200  1
  Sc  Sc2  1  0.96537300  0.06925300  0.32277800  1
  Sc  Sc3  1  0.03462700  0.93074700  0.67722200  1
  Sc  Sc4  1  0.78920100  0.42159800  0.81922600  1
  Sc  Sc5  1  0.21079900  0.57840200  0.18077400  1
  Sc  Sc6  1  0.71079900  0.57840200  0.31922600  1
  Sc  Sc7  1  0.28920100  0.42159800  0.68077400  1
  Sc  Sc8  1  0.87522800  0.24954400  0.59004800  1
  Sc  Sc9  1  0.12477200  0.75045600  0.40995200  1
  Sc  Sc10  1  0.62477200  0.75045600  0.09004800  1
  Sc  Sc11  1  0.37522800  0.24954400  0.90995200  1
  Fe  Fe0  1  0.95569300  0.08861400  0.87854100  1
  Fe  Fe1  1  0.04430700  0.91138600  0.12145900  1
  Fe  Fe2  1  0.54430700  0.91138600  0.37854100  1
  Fe  Fe3  1  0.45569300  0.08861400  0.62145900  1
  Fe  Fe4  1  0.50000000  0.50000000  0.50000000  1
  Fe  Fe5  1  0.00000000  0.50000000  0.50000000  1
  Fe  Fe6  1  0.50000000  0.50000000  0.00000000  1
  Fe  Fe7  1  0.00000000  0.50000000  0.00000000  1
  Si  Si0  1  0.64141200  0.71717700  0.49025700  1
  Si  Si1  1  0.35858800  0.28282300  0.50974300  1
  Si  Si2  1  0.85858800  0.28282300  0.99025700  1
  Si  Si3  1  0.14141200  0.71717700  0.00974300  1
  Si  Si4  1  0.66202000  0.17596100  0.75000000  1
  Si  Si5  1  0.83798000  0.82403900  0.25000000  1
  Si  Si6  1  0.33798000  0.82403900  0.25000000  1
  Si  Si7  1  0.16202000  0.17596100  0.75000000  1
  Si  Si8  1  0.24885400  0.00000000  0.50000000  1
  Si  Si9  1  0.74885400  0.00000000  0.00000000  1
  Si  Si10  1  0.75114600  0.00000000  0.50000000  1
  Si  Si11  1  0.25114600  0.00000000  0.00000000  1
  Si  Si12  1  0.72699900  0.54600100  0.63527400  1
  Si  Si13  1  0.27300100  0.45399900  0.36472600  1
  Si  Si14  1  0.77300100  0.45399900  0.13527400  1
  Si  Si15  1  0.22699900  0.54600100  0.86472600  1
  Si  Si16  1  0.58739200  0.82521600  0.64384700  1
  Si  Si17  1  0.41260800  0.17478400  0.35615300  1
  Si  Si18  1  0.91260800  0.17478400  0.14384700  1
  Si  Si19  1  0.08739200  0.82521600  0.85615300  1
  Si  Si20  1  0.66340500  0.67319000  0.91321000  1
  Si  Si21  1  0.33659500  0.32681000  0.08679000  1
  Si  Si22  1  0.83659500  0.32681000  0.41321000  1
  Si  Si23  1  0.16340500  0.67319000  0.58679000  1
loop_
_geom_bond_atom_site_label_1
_geom_bond_atom_site_label_2
_geom_bond_distance
_geom_bond_site_symmetry_2
Sc0 Si20 2.708659 1_555
Sc0 Si19 2.757778 1_655
Sc0 Si19 2.757783 1_555
Sc0 Si16 2.758755 1_555
Sc0 Si4 2.795857 1_565
Sc0 Si7 2.795857 1_565
Sc0 Si9 2.921922 1_566
Sc0 Si11 2.921924 1_566
Sc1 Si21 2.708659 1_555
Sc1 Si18 2.757778 1_455
Sc1 Si18 2.757783 1_555
Sc1 Si17 2.758755 1_555
Sc1 Si6 2.795857 1_545
Sc1 Si5 2.795857 1_545
Sc1 Si11 2.921922 1_555
Sc1 Si9 2.921924 1_555
Sc2 Si22 2.708659 1_555
Sc2 Si17 2.757778 1_555
Sc2 Si17 2.757783 1_655
Sc2 Si18 2.758755 1_555
Sc2 Si5 2.795857 1_545
Sc2 Si6 2.795857 1_645
Sc2 Si10 2.921922 1_555
Sc2 Si8 2.921924 1_655
Sc3 Si23 2.708659 1_555
Sc3 Si16 2.757778 1_555
Sc3 Si16 2.757783 1_455
Sc3 Si19 2.758755 1_555
Sc3 Si7 2.795857 1_565
Sc3 Si4 2.795857 1_465
Sc3 Si8 2.921922 1_565
Sc3 Si10 2.921924 1_465
Sc4 Si20 2.686118 1_555
Sc4 Si2 2.779398 1_555
Sc4 Si4 2.780188 1_555
Sc4 Si7 2.780191 1_655
Sc4 Si15 2.858846 1_655
Sc4 Si15 2.858851 1_555
Sc4 Si12 2.891124 1_555
Sc5 Si21 2.686118 1_555
Sc5 Si3 2.779398 1_555
Sc5 Si6 2.780188 1_555
Sc5 Si5 2.780191 1_455
Sc5 Si14 2.858846 1_455
Sc5 Si14 2.858851 1_555
Sc5 Si13 2.891124 1_555
Sc6 Si22 2.686118 1_555
Sc6 Si0 2.779398 1_555
Sc6 Si5 2.780188 1_555
Sc6 Si6 2.780191 1_555
Sc6 Si13 2.858846 1_555
Sc6 Si13 2.858851 1_655
Sc6 Si14 2.891124 1_555
Sc7 Si23 2.686118 1_555
Sc7 Si1 2.779398 1_555
Sc7 Si7 2.780188 1_555
Sc7 Si4 2.780191 1_555
Sc7 Si12 2.858846 1_555
Sc7 Si12 2.858851 1_455
Sc7 Si15 2.891124 1_555
Sc8 Si22 2.648937 1_555
Sc8 Si4 2.718951 1_555
Sc8 Si7 2.718953 1_655
Sc8 Si1 2.804291 1_655
Sc8 Si1 2.804296 1_555
Sc8 Si12 2.809048 1_555
Sc8 Si10 2.927363 1_555
Sc8 Si8 2.927363 1_655
Sc9 Si23 2.648937 1_555
Sc9 Si6 2.718951 1_555
Sc9 Si5 2.718953 1_455
Sc9 Si0 2.804291 1_455
Sc9 Si0 2.804296 1_555
Sc9 Si13 2.809048 1_555
Sc9 Si8 2.927363 1_565
Sc9 Si10 2.927363 1_465
Sc10 Si20 2.648937 1_554
Sc10 Si5 2.718951 1_555
Sc10 Si6 2.718953 1_555
Sc10 Si3 2.804291 1_555
Sc10 Si3 2.804296 1_655
Sc10 Si14 2.809048 1_555
Sc10 Si9 2.927363 1_565
Sc10 Si11 2.927363 1_565
Sc11 Si21 2.648937 1_556
Sc11 Si7 2.718951 1_555
Sc11 Si4 2.718953 1_555
Sc11 Si2 2.804291 1_555
Sc11 Si2 2.804296 1_455
Sc11 Si15 2.809048 1_555
Sc11 Si11 2.927363 1_556
Sc11 Si9 2.927363 1_556
Fe0 Si9 2.315078 1_556
Fe0 Si11 2.315078 1_656
Fe0 Si4 2.386303 1_555
Fe0 Si7 2.386305 1_655
Fe0 Si2 2.408667 1_555
Fe0 Si19 2.448927 1_645
Fe0 Sc11 2.971986 1_655
Fe0 Sc11 2.971986 1_555
Fe1 Si11 2.315078 1_565
Fe1 Si9 2.315078 1_465
Fe1 Si6 2.386303 1_555
Fe1 Si5 2.386305 1_455
Fe1 Si3 2.408667 1_555
Fe1 Si18 2.448927 1_465
Fe1 Sc10 2.971986 1_455
Fe1 Sc10 2.971986 1_555
Fe2 Si10 2.315078 1_565
Fe2 Si8 2.315078 1_565
Fe2 Si5 2.386303 1_555
Fe2 Si6 2.386305 1_555
Fe2 Si0 2.408667 1_555
Fe2 Si17 2.448927 1_565
Fe2 Sc9 2.971986 1_555
Fe2 Sc9 2.971986 1_655
Fe3 Si8 2.315078 1_555
Fe3 Si10 2.315078 1_555
Fe3 Si7 2.386303 1_555
Fe3 Si4 2.386305 1_555
Fe3 Si1 2.408667 1_555
Fe3 Si16 2.448927 1_545
Fe3 Sc8 2.971986 1_555
Fe3 Sc8 2.971986 1_455
Fe4 Si12 2.365566 1_555
Fe4 Si13 2.365566 1_555
Fe4 Si0 2.373362 1_555
Fe4 Si1 2.373362 1_555
Fe4 Si22 2.392201 1_555
Fe4 Si23 2.392201 1_555
Fe4 Fe5 2.535258 1_655
Fe4 Fe5 2.535258 1_555
Fe4 Sc8 2.936475 1_555
Fe4 Sc9 2.936475 1_555
Fe4 Sc6 2.988609 1_555
Fe4 Sc7 2.988609 1_555
Fe5 Si13 2.365569 1_555
Fe5 Si12 2.365569 1_455
Fe5 Si0 2.373359 1_455
Fe5 Si1 2.373359 1_555
Fe5 Si23 2.392201 1_555
Fe5 Si22 2.392201 1_455
Fe5 Sc9 2.936475 1_555
Fe5 Sc8 2.936475 1_455
Fe5 Sc7 2.988609 1_555
Fe5 Sc6 2.988609 1_455
Fe6 Si15 2.365569 1_554
Fe6 Si14 2.365569 1_555
Fe6 Si3 2.373359 1_555
Fe6 Si2 2.373359 1_554
Fe6 Si20 2.392201 1_554
Fe6 Si21 2.392201 1_555
Fe6 Fe7 2.535258 1_555
Fe6 Fe7 2.535258 1_655
Fe6 Sc10 2.936475 1_555
Fe6 Sc11 2.936475 1_554
Fe6 Sc4 2.988609 1_554
Fe6 Sc5 2.988609 1_555
Fe7 Si15 2.365566 1_554
Fe7 Si14 2.365566 1_455
Fe7 Si3 2.373362 1_555
Fe7 Si2 2.373362 1_454
Fe7 Si21 2.392201 1_555
Fe7 Si20 2.392201 1_454
Fe7 Sc11 2.936475 1_554
Fe7 Sc10 2.936475 1_455
Fe7 Sc5 2.988609 1_555
Fe7 Sc4 2.988609 1_454
Si0 Si16 2.429426 1_555
Si1 Si17 2.429426 1_555
Si4 Si7 2.535258 1_555
Si4 Si7 2.535258 1_655
Si5 Si6 2.535258 1_555
Si5 Si6 2.535258 1_655
Si10 Si8 2.523637 1_655
Si10 Si8 2.546880 1_555
Si11 Si9 2.523637 1_555
Si11 Si9 2.546880 1_455
Si12 Si16 2.576274 1_555
Si13 Si17 2.576274 1_555
Si14 Si18 2.576274 1_555
Si15 Si19 2.576274 1_555
Si18 Si2 2.429426 1_554
Si19 Si3 2.429426 1_556
