# generated using pymatgen
data_TaNi2
_symmetry_space_group_name_H-M   'P 1'
_cell_length_a   3.14716957
_cell_length_b   3.14716861
_cell_length_c   4.50134202
_cell_angle_alpha   110.46169014
_cell_angle_beta   110.46170508
_cell_angle_gamma   90.00002311
_symmetry_Int_Tables_number   1
_chemical_formula_structural   TaNi2
_chemical_formula_sum   'Ta1 Ni2'
_cell_volume   38.75467578
_cell_formula_units_Z   1
loop_
 _symmetry_equiv_pos_site_id
 _symmetry_equiv_pos_as_xyz
  1  'x, y, z'
loop_
 _atom_site_type_symbol
 _atom_site_label
 _atom_site_symmetry_multiplicity
 _atom_site_fract_x
 _atom_site_fract_y
 _atom_site_fract_z
 _atom_site_occupancy
  Ta  Ta0  1  0.00000000  0.00000000  0.00000000  1
  Ni  Ni0  1  0.33349657  0.33349657  0.66699214  1
  Ni  Ni1  1  0.66650343  0.66650343  0.33300786  1
loop_
_geom_bond_atom_site_label_1
_geom_bond_atom_site_label_2
_geom_bond_distance
_geom_bond_site_symmetry_2
Ni0 Ta0 2.578776 1_666
Ni0 Ta0 2.578779 1_656
Ni0 Ta0 2.578779 1_566
Ni0 Ta0 2.578780 1_556
Ni0 Ni1 2.580707 1_555
Ni0 Ni1 2.580711 1_455
Ni0 Ni1 2.580712 1_545
Ni0 Ni1 2.580714 1_445
Ni0 Ni1 2.605964 1_556
Ni0 Ta0 2.609785 1_555
Ni1 Ta0 2.578776 1_555
Ni1 Ta0 2.578779 1_565
Ni1 Ta0 2.578779 1_655
Ni1 Ta0 2.578780 1_665
Ni1 Ta0 2.609785 1_666
