# generated using pymatgen
data_La23Cd4Rh7
_symmetry_space_group_name_H-M   'P 1'
_cell_length_a   10.13802595
_cell_length_b   10.13802595
_cell_length_c   23.06958900
_cell_angle_alpha   90.00000000
_cell_angle_beta   90.00000000
_cell_angle_gamma   119.99999966
_symmetry_Int_Tables_number   1
_chemical_formula_structural   La23Cd4Rh7
_chemical_formula_sum   'La46 Cd8 Rh14'
_cell_volume   2053.41763476
_cell_formula_units_Z   2
loop_
 _symmetry_equiv_pos_site_id
 _symmetry_equiv_pos_as_xyz
  1  'x, y, z'
loop_
 _atom_site_type_symbol
 _atom_site_label
 _atom_site_symmetry_multiplicity
 _atom_site_fract_x
 _atom_site_fract_y
 _atom_site_fract_z
 _atom_site_occupancy
  La  La0  1  0.20708800  0.41417600  0.71926900  1
  La  La1  1  0.20708800  0.79291200  0.71926900  1
  La  La2  1  0.79291200  0.58582400  0.21926900  1
  La  La3  1  0.58582400  0.79291200  0.71926900  1
  La  La4  1  0.79291200  0.20708800  0.21926900  1
  La  La5  1  0.41417600  0.20708800  0.21926900  1
  La  La6  1  0.79350700  0.58701400  0.94783900  1
  La  La7  1  0.79350700  0.20649300  0.94783900  1
  La  La8  1  0.20649300  0.41298600  0.44783900  1
  La  La9  1  0.41298600  0.20649300  0.94783900  1
  La  La10  1  0.20649300  0.79350700  0.44783900  1
  La  La11  1  0.58701400  0.79350700  0.44783900  1
  La  La12  1  0.20962900  0.41925800  0.99027300  1
  La  La13  1  0.20962900  0.79037100  0.99027300  1
  La  La14  1  0.79037100  0.58074200  0.49027300  1
  La  La15  1  0.58074200  0.79037100  0.99027300  1
  La  La16  1  0.79037100  0.20962900  0.49027300  1
  La  La17  1  0.41925800  0.20962900  0.49027300  1
  La  La18  1  0.87239500  0.74478900  0.63487300  1
  La  La19  1  0.87239500  0.12760500  0.63487300  1
  La  La20  1  0.12760500  0.25521100  0.13487300  1
  La  La21  1  0.25521100  0.12760500  0.63487300  1
  La  La22  1  0.12760500  0.87239500  0.13487300  1
  La  La23  1  0.74478900  0.87239500  0.13487300  1
  La  La24  1  0.45921700  0.91843500  0.85609700  1
  La  La25  1  0.45921700  0.54078300  0.85609700  1
  La  La26  1  0.54078300  0.08156500  0.35609700  1
  La  La27  1  0.08156500  0.54078300  0.85609700  1
  La  La28  1  0.54078300  0.45921700  0.35609700  1
  La  La29  1  0.91843500  0.45921700  0.35609700  1
  La  La30  1  0.00000000  0.00000000  0.99926100  1
  La  La31  1  0.00000000  0.00000000  0.49926100  1
  La  La32  1  0.45941400  0.91882700  0.58527900  1
  La  La33  1  0.45941400  0.54058600  0.58527900  1
  La  La34  1  0.54058600  0.08117300  0.08527900  1
  La  La35  1  0.08117300  0.54058600  0.58527900  1
  La  La36  1  0.54058600  0.45941400  0.08527900  1
  La  La37  1  0.91882700  0.45941400  0.08527900  1
  La  La38  1  0.79664000  0.59328000  0.78174400  1
  La  La39  1  0.79664000  0.20336000  0.78174400  1
  La  La40  1  0.20336000  0.40672000  0.28174400  1
  La  La41  1  0.40672000  0.20336000  0.78174400  1
  La  La42  1  0.20336000  0.79664000  0.28174400  1
  La  La43  1  0.59328000  0.79664000  0.28174400  1
  La  La44  1  0.66666700  0.33333300  0.64554100  1
  La  La45  1  0.33333300  0.66666700  0.14554100  1
  Cd  Cd0  1  0.00000000  0.00000000  0.74939800  1
  Cd  Cd1  1  0.00000000  0.00000000  0.24939800  1
  Cd  Cd2  1  0.10625100  0.21250200  0.86310300  1
  Cd  Cd3  1  0.10625100  0.89374900  0.86310300  1
  Cd  Cd4  1  0.89374900  0.78749800  0.36310300  1
  Cd  Cd5  1  0.78749800  0.89374900  0.86310300  1
  Cd  Cd6  1  0.89374900  0.10625100  0.36310300  1
  Cd  Cd7  1  0.21250200  0.10625100  0.36310300  1
  Rh  Rh0  1  0.52024600  0.04049100  0.71067500  1
  Rh  Rh1  1  0.52024600  0.47975400  0.71067500  1
  Rh  Rh2  1  0.47975400  0.95950900  0.21067500  1
  Rh  Rh3  1  0.95950900  0.47975400  0.71067500  1
  Rh  Rh4  1  0.47975400  0.52024600  0.21067500  1
  Rh  Rh5  1  0.04049100  0.52024600  0.21067500  1
  Rh  Rh6  1  0.66666700  0.33333300  0.86554000  1
  Rh  Rh7  1  0.33333300  0.66666700  0.36554000  1
  Rh  Rh8  1  0.14417600  0.28835300  0.56317500  1
  Rh  Rh9  1  0.14417600  0.85582400  0.56317500  1
  Rh  Rh10  1  0.85582400  0.71164700  0.06317500  1
  Rh  Rh11  1  0.71164700  0.85582400  0.56317500  1
  Rh  Rh12  1  0.85582400  0.14417600  0.06317500  1
  Rh  Rh13  1  0.28835300  0.14417600  0.06317500  1
loop_
_geom_bond_atom_site_label_1
_geom_bond_atom_site_label_2
_geom_bond_distance
_geom_bond_site_symmetry_2
La0 Rh3 2.906875 1_455
La0 Rh1 2.906885 1_555
La1 Rh3 2.906881 1_455
La1 Rh0 2.906881 1_565
La2 Rh5 2.906875 1_655
La2 Rh4 2.906885 1_555
La3 Rh0 2.906875 1_565
La3 Rh1 2.906885 1_555
La4 Rh2 2.906881 1_545
La4 Rh5 2.906881 1_655
La5 Rh2 2.906875 1_545
La5 Rh4 2.906885 1_555
La6 Rh10 2.876977 1_556
La6 Rh6 2.926672 1_555
La7 Rh12 2.876981 1_556
La7 Rh6 2.926665 1_555
La8 Rh8 2.876977 1_555
La8 Rh7 2.926672 1_555
La9 Rh13 2.876977 1_556
La9 Rh6 2.926672 1_555
La10 Rh9 2.876981 1_555
La10 Rh7 2.926665 1_555
La11 Rh11 2.876977 1_555
La11 Rh7 2.926672 1_555
La12 Rh12 3.669950 1_456
La12 Rh13 3.669956 1_556
La13 Rh10 3.669947 1_456
La13 Rh13 3.669947 1_566
La14 Rh9 3.669950 1_655
La14 Rh11 3.669956 1_555
La15 Rh12 3.669950 1_566
La15 Rh10 3.669956 1_556
La16 Rh11 3.669947 1_545
La16 Rh8 3.669947 1_655
La17 Rh9 3.669950 1_545
La17 Rh8 3.669956 1_555
La18 Rh9 2.914311 1_655
La18 Rh11 2.914326 1_555
La18 Rh3 3.664779 1_555
La18 Rh1 3.664779 1_555
La19 Rh11 2.914313 1_545
La19 Rh8 2.914313 1_655
La19 Rh0 3.664779 1_555
La19 Rh3 3.664779 1_555
La20 Rh12 2.914311 1_455
La20 Rh13 2.914326 1_555
La20 Rh5 3.664779 1_555
La20 Rh4 3.664779 1_555
La21 Rh9 2.914311 1_545
La21 Rh8 2.914326 1_555
La21 Rh0 3.664779 1_555
La21 Rh1 3.664779 1_555
La22 Rh10 2.914313 1_455
La22 Rh13 2.914313 1_565
La22 Rh5 3.664779 1_555
La22 Rh2 3.664779 1_555
La23 Rh12 2.914311 1_565
La23 Rh10 2.914326 1_555
La23 Rh2 3.664779 1_555
La23 Rh4 3.664779 1_555
La24 Rh0 3.521823 1_565
La24 Rh6 3.649225 1_565
La25 Rh1 3.521828 1_555
La25 Rh6 3.649242 1_555
La26 Rh2 3.521823 1_545
La26 Rh7 3.649225 1_545
La27 Rh3 3.521823 1_455
La27 Rh6 3.649225 1_455
La28 Rh4 3.521828 1_555
La28 Rh7 3.649242 1_555
La29 Rh5 3.521823 1_655
La29 Rh7 3.649225 1_655
La30 Rh12 2.929746 1_456
La30 Rh10 2.929753 1_446
La30 Rh13 2.929753 1_556
La31 Rh9 2.929746 1_545
La31 Rh11 2.929753 1_445
La31 Rh8 2.929753 1_555
La32 Rh11 2.973265 1_555
La32 Rh9 2.973284 1_555
La32 Rh0 3.083749 1_565
La33 Rh8 2.973278 1_555
La33 Rh11 2.973278 1_555
La33 Rh1 3.083749 1_555
La34 Rh13 2.973265 1_555
La34 Rh12 2.973284 1_555
La34 Rh2 3.083749 1_545
La35 Rh8 2.973265 1_555
La35 Rh9 2.973284 1_555
La35 Rh3 3.083749 1_455
La36 Rh13 2.973278 1_555
La36 Rh10 2.973278 1_555
La36 Rh4 3.083749 1_555
La37 Rh10 2.973265 1_555
La37 Rh12 2.973284 1_555
La37 Rh5 3.083749 1_655
La38 Rh1 2.939286 1_555
La38 Rh3 2.939294 1_555
La38 Rh6 2.990958 1_555
La39 Rh3 2.939287 1_555
La39 Rh0 2.939287 1_555
La39 Rh6 2.990951 1_555
La40 Rh4 2.939286 1_555
La40 Rh5 2.939294 1_555
La40 Rh7 2.990958 1_555
La41 Rh1 2.939286 1_555
La41 Rh0 2.939294 1_555
La41 Rh6 2.990958 1_555
La42 Rh5 2.939287 1_555
La42 Rh2 2.939287 1_555
La42 Rh7 2.990951 1_555
La43 Rh4 2.939286 1_555
La43 Rh2 2.939294 1_555
La43 Rh7 2.990958 1_555
La44 Rh1 2.977979 1_555
La44 Rh3 2.977979 1_555
La44 Rh0 2.977979 1_555
La45 Rh4 2.977979 1_555
La45 Rh2 2.977979 1_555
La45 Rh5 2.977979 1_555
Cd0 Cd3 3.218962 1_545
Cd0 Cd2 3.218962 1_555
Cd0 Cd5 3.218962 1_445
Cd0 La19 3.464259 1_455
Cd0 La21 3.464265 1_555
Cd0 La18 3.464265 1_445
Cd0 La39 3.648049 1_455
Cd0 La38 3.648049 1_445
Cd0 La41 3.648049 1_555
Cd0 La1 3.702209 1_545
Cd0 La3 3.702209 1_445
Cd0 La0 3.702209 1_555
Cd1 Cd6 3.218962 1_455
Cd1 Cd4 3.218962 1_445
Cd1 Cd7 3.218962 1_555
Cd1 La22 3.464259 1_545
Cd1 La23 3.464265 1_445
Cd1 La20 3.464265 1_555
Cd1 La42 3.648049 1_545
Cd1 La43 3.648049 1_445
Cd1 La40 3.648049 1_555
Cd1 La4 3.702209 1_455
Cd1 La5 3.702209 1_555
Cd1 La2 3.702209 1_445
Cd2 Cd3 3.231526 1_545
Cd2 Cd5 3.231526 1_445
Cd2 La12 3.449951 1_555
Cd2 La25 3.463817 1_555
Cd2 La27 3.463823 1_555
Cd2 La41 3.618403 1_555
Cd2 La39 3.618403 1_455
Cd2 La30 3.653421 1_555
Cd2 La9 3.699277 1_555
Cd2 La7 3.699277 1_455
Cd2 La0 3.761065 1_555
Cd3 Cd5 3.231526 1_455
Cd3 La13 3.449951 1_555
Cd3 La24 3.463813 1_555
Cd3 La27 3.463813 1_555
Cd3 La38 3.618403 1_455
Cd3 La41 3.618403 1_565
Cd3 La30 3.653421 1_565
Cd3 La6 3.699277 1_455
Cd3 La9 3.699277 1_565
Cd3 La1 3.761065 1_555
Cd4 Cd6 3.231526 1_565
Cd4 Cd7 3.231526 1_665
Cd4 La14 3.449951 1_555
Cd4 La28 3.463817 1_555
Cd4 La29 3.463823 1_555
Cd4 La43 3.618403 1_555
Cd4 La42 3.618403 1_655
Cd4 La31 3.653421 1_665
Cd4 La11 3.699277 1_555
Cd4 La10 3.699277 1_655
Cd4 La2 3.761065 1_555
Cd5 La15 3.449951 1_555
Cd5 La25 3.463817 1_555
Cd5 La24 3.463823 1_555
Cd5 La38 3.618403 1_555
Cd5 La39 3.618403 1_565
Cd5 La30 3.653421 1_665
Cd5 La6 3.699277 1_555
Cd5 La7 3.699277 1_565
Cd5 La3 3.761065 1_555
Cd6 Cd7 3.231526 1_655
Cd6 La16 3.449951 1_555
Cd6 La29 3.463813 1_555
Cd6 La26 3.463813 1_555
Cd6 La43 3.618403 1_545
Cd6 La40 3.618403 1_655
Cd6 La31 3.653421 1_655
Cd6 La8 3.699277 1_655
Cd6 La11 3.699277 1_545
Cd6 La4 3.761065 1_555
Cd7 La17 3.449951 1_555
Cd7 La28 3.463817 1_555
Cd7 La26 3.463823 1_555
Cd7 La40 3.618403 1_555
Cd7 La42 3.618403 1_545
Cd7 La31 3.653421 1_555
Cd7 La8 3.699277 1_555
Cd7 La10 3.699277 1_545
Cd7 La5 3.761065 1_555
