# generated using pymatgen
data_BaLa2ZnS5
_symmetry_space_group_name_H-M   'P 1'
_cell_length_a   8.91471465
_cell_length_b   8.91471465
_cell_length_c   8.91471465
_cell_angle_alpha   126.55322796
_cell_angle_beta   126.55322796
_cell_angle_gamma   78.98075914
_symmetry_Int_Tables_number   1
_chemical_formula_structural   BaLa2ZnS5
_chemical_formula_sum   'Ba2 La4 Zn2 S10'
_cell_volume   442.24465354
_cell_formula_units_Z   2
loop_
 _symmetry_equiv_pos_site_id
 _symmetry_equiv_pos_as_xyz
  1  'x, y, z'
loop_
 _atom_site_type_symbol
 _atom_site_label
 _atom_site_symmetry_multiplicity
 _atom_site_fract_x
 _atom_site_fract_y
 _atom_site_fract_z
 _atom_site_occupancy
  Ba  Ba0  1  0.25000000  0.25000000  0.00000000  1
  Ba  Ba1  1  0.75000000  0.75000000  0.00000000  1
  La  La0  1  0.33651800  0.16348200  0.50000000  1
  La  La1  1  0.16348200  0.66348200  0.82696400  1
  La  La2  1  0.83651800  0.33651800  0.17303600  1
  La  La3  1  0.66348200  0.83651800  0.50000000  1
  Zn  Zn0  1  0.75000000  0.25000000  0.50000000  1
  Zn  Zn1  1  0.25000000  0.75000000  0.50000000  1
  S  S0  1  0.48595700  0.98595700  0.20104200  1
  S  S1  1  0.21508500  0.71508500  0.20104200  1
  S  S2  1  0.51404300  0.01404300  0.79895800  1
  S  S3  1  0.01404300  0.21508500  0.50000000  1
  S  S4  1  0.71508500  0.51404300  0.50000000  1
  S  S5  1  0.98595700  0.78491500  0.50000000  1
  S  S6  1  0.28491500  0.48595700  0.50000000  1
  S  S7  1  0.78491500  0.28491500  0.79895800  1
  S  S8  1  0.50000000  0.50000000  0.00000000  1
  S  S9  1  0.00000000  0.00000000  0.00000000  1
loop_
_geom_bond_atom_site_label_1
_geom_bond_atom_site_label_2
_geom_bond_distance
_geom_bond_site_symmetry_2
Ba0 S1 3.437904 1_555
Ba0 S7 3.437904 1_454
Ba0 S4 3.437904 1_555
Ba0 S0 3.437904 1_545
Ba0 S2 3.437904 1_554
Ba0 S3 3.437904 1_554
Ba0 S6 3.437904 1_555
Ba0 S5 3.437904 1_444
Ba0 S9 3.439882 1_555
Ba0 S8 3.439882 1_555
Ba1 S1 3.437904 1_655
Ba1 S4 3.437904 1_554
Ba1 S5 3.437904 1_555
Ba1 S3 3.437904 1_665
Ba1 S0 3.437904 1_555
Ba1 S6 3.437904 1_554
Ba1 S2 3.437904 1_564
Ba1 S7 3.437904 1_554
Ba1 S8 3.439882 1_555
Ba1 S9 3.439882 1_665
La0 S3 2.823188 1_555
La0 S6 2.823188 1_555
La0 S8 2.999598 1_556
La0 S9 2.999598 1_555
La0 S2 3.127529 1_555
La0 S0 3.127529 1_545
La0 S1 3.127529 1_545
La0 S7 3.127529 1_555
La1 S1 2.823188 1_556
La1 S0 2.823188 1_556
La1 S8 2.999598 1_556
La1 S9 2.999598 1_566
La1 S6 3.127529 1_555
La1 S3 3.127529 1_555
La1 S5 3.127529 1_455
La1 S4 3.127529 1_455
La2 S2 2.823188 1_554
La2 S7 2.823188 1_554
La2 S8 2.999598 1_555
La2 S9 2.999598 1_655
La2 S3 3.127529 1_655
La2 S4 3.127529 1_555
La2 S5 3.127529 1_555
La2 S6 3.127529 1_655
La3 S5 2.823188 1_555
La3 S4 2.823188 1_555
La3 S9 2.999598 1_666
La3 S8 2.999598 1_555
La3 S2 3.127529 1_565
La3 S0 3.127529 1_555
La3 S1 3.127529 1_555
La3 S7 3.127529 1_565
S0 Zn0 2.314627 1_565
S1 Zn1 2.314627 1_555
S2 Zn1 2.314627 1_545
S3 Zn0 2.314627 1_455
S4 Zn0 2.314627 1_555
S5 Zn1 2.314627 1_655
S6 Zn1 2.314627 1_555
S7 Zn0 2.314627 1_555
