# generated using pymatgen
data_Sr2FeWO6
_symmetry_space_group_name_H-M   'P 1'
_cell_length_a   5.67717081
_cell_length_b   5.69436254
_cell_length_c   9.90868180
_cell_angle_alpha   72.63355111
_cell_angle_beta   90.28396719
_cell_angle_gamma   119.51118049
_symmetry_Int_Tables_number   1
_chemical_formula_structural   Sr2FeWO6
_chemical_formula_sum   'Sr4 Fe2 W2 O12'
_cell_volume   262.13853852
_cell_formula_units_Z   2
loop_
 _symmetry_equiv_pos_site_id
 _symmetry_equiv_pos_as_xyz
  1  'x, y, z'
loop_
 _atom_site_type_symbol
 _atom_site_label
 _atom_site_symmetry_multiplicity
 _atom_site_fract_x
 _atom_site_fract_y
 _atom_site_fract_z
 _atom_site_occupancy
  Sr  Sr0  1  0.62308900  0.25160900  0.11734100  1
  Sr  Sr1  1  0.12156300  0.23997100  0.63390100  1
  Sr  Sr2  1  0.37954700  0.74676600  0.87767800  1
  Sr  Sr3  1  0.87586700  0.75799300  0.37157600  1
  Fe  Fe0  1  0.74904100  0.49737800  0.75119500  1
  Fe  Fe1  1  0.25173400  0.50234700  0.24668400  1
  W  W0  1  0.50128700  0.00473300  0.49763200  1
  W  W1  1  0.99936400  0.99500800  0.00158000  1
  O  O0  1  0.12524300  0.23905700  0.13452800  1
  O  O1  1  0.62841500  0.23615800  0.62167100  1
  O  O2  1  0.86942700  0.75406600  0.87392300  1
  O  O3  1  0.38137700  0.77771200  0.36867000  1
  O  O4  1  0.59906400  0.78610300  0.10864700  1
  O  O5  1  0.12694500  0.81179800  0.59274800  1
  O  O6  1  0.38364000  0.18485400  0.90045300  1
  O  O7  1  0.88823400  0.21399400  0.39844000  1
  O  O8  1  0.94608900  0.28144800  0.86715500  1
  O  O9  1  0.44202800  0.29795500  0.36186800  1
  O  O10  1  0.05264300  0.70426700  0.14515100  1
  O  O11  1  0.55540200  0.71678100  0.62915900  1
loop_
_geom_bond_atom_site_label_1
_geom_bond_atom_site_label_2
_geom_bond_distance
_geom_bond_site_symmetry_2
Fe0 O2 2.037428 1_555
Fe0 O1 2.110943 1_555
Fe0 O6 2.116565 1_555
Fe0 O8 2.140685 1_555
Fe0 O11 2.160944 1_555
Fe0 O5 2.200998 1_655
Fe1 O0 1.981049 1_555
Fe1 O4 1.984514 1_555
Fe1 O10 2.047009 1_555
Fe1 O9 2.063468 1_555
Fe1 O7 2.105807 1_455
Fe1 O3 2.108803 1_555
O0 W1 2.069415 1_445
O0 Sr3 2.719661 1_445
O0 Sr0 2.796585 1_555
O0 Sr0 2.889623 1_455
O0 Sr2 2.907206 1_554
O1 W0 1.946590 1_555
O1 Sr1 2.791364 1_655
O1 Sr2 2.851942 1_545
O1 Sr1 2.891653 1_555
O1 Sr3 2.910408 1_555
O2 W1 2.014012 1_556
O2 Sr1 2.750373 1_665
O2 Sr2 2.761162 1_555
O2 Sr0 2.816261 1_556
O2 Sr2 2.916635 1_655
O3 W0 1.969263 1_565
O3 Sr0 2.782242 1_565
O3 Sr3 2.816201 1_455
O3 Sr3 2.863951 1_555
O3 Sr1 3.040328 1_555
O4 W1 2.076616 1_555
O4 Sr0 2.613917 1_565
O4 Sr2 2.616046 1_554
O4 Sr3 3.039880 1_555
O4 Sr0 3.088994 1_555
O5 W0 1.926978 1_565
O5 Sr1 2.603637 1_565
O5 Sr3 2.620698 1_455
O5 Sr1 3.143160 1_555
O5 Sr2 3.165994 1_555
O6 W1 1.995908 1_446
O6 Sr2 2.559993 1_545
O6 Sr0 2.561365 1_556
O6 Sr1 3.035506 1_555
O6 Sr2 3.151489 1_555
O7 W0 1.988733 1_555
O7 Sr3 2.655395 1_545
O7 Sr1 2.683713 1_655
O7 Sr3 3.064889 1_555
O7 Sr0 3.160645 1_555
O8 W1 1.926441 1_546
O8 Sr2 2.612645 1_655
O8 Sr1 2.640173 1_655
O8 Sr0 3.003927 1_556
O8 Sr2 3.129212 1_545
O9 W0 1.979606 1_555
O9 Sr3 2.594132 1_555
O9 Sr0 2.769579 1_555
O9 Sr1 3.100025 1_555
O9 Sr3 3.143947 1_445
O10 W1 1.984777 1_455
O10 Sr3 2.620870 1_455
O10 Sr0 2.625180 1_455
O10 Sr2 3.122563 1_554
O10 Sr0 3.135302 1_565
O11 W0 1.923051 1_565
O11 Sr1 2.603294 1_555
O11 Sr2 2.744643 1_555
O11 Sr3 3.024428 1_555
O11 Sr1 3.139612 1_665
