# generated using pymatgen
data_K6Sb14Se6O25
_symmetry_space_group_name_H-M   'P 1'
_cell_length_a   14.91884545
_cell_length_b   14.91884545
_cell_length_c   5.62320100
_cell_angle_alpha   90.00000000
_cell_angle_beta   90.00000000
_cell_angle_gamma   119.99999758
_symmetry_Int_Tables_number   1
_chemical_formula_structural   K6Sb14Se6O25
_chemical_formula_sum   'K6 Sb14 Se6 O25'
_cell_volume   1083.88867839
_cell_formula_units_Z   1
loop_
 _symmetry_equiv_pos_site_id
 _symmetry_equiv_pos_as_xyz
  1  'x, y, z'
loop_
 _atom_site_type_symbol
 _atom_site_label
 _atom_site_symmetry_multiplicity
 _atom_site_fract_x
 _atom_site_fract_y
 _atom_site_fract_z
 _atom_site_occupancy
  K  K0  1  0.08791300  0.84971200  0.75236200  1
  K  K1  1  0.76179900  0.91208700  0.75236200  1
  K  K2  1  0.15028800  0.23820100  0.75236200  1
  K  K3  1  0.91208700  0.15028800  0.24763800  1
  K  K4  1  0.23820100  0.08791300  0.24763800  1
  K  K5  1  0.84971200  0.76179900  0.24763800  1
  Sb  Sb0  1  0.84572400  0.56414100  0.74340000  1
  Sb  Sb1  1  0.71841700  0.15427600  0.74340000  1
  Sb  Sb2  1  0.43585900  0.28158300  0.74340000  1
  Sb  Sb3  1  0.15427600  0.43585900  0.25660000  1
  Sb  Sb4  1  0.28158300  0.84572400  0.25660000  1
  Sb  Sb5  1  0.56414100  0.71841700  0.25660000  1
  Sb  Sb6  1  0.62666800  0.60343200  0.75205500  1
  Sb  Sb7  1  0.97676400  0.37333200  0.75205500  1
  Sb  Sb8  1  0.39656800  0.02323600  0.75205500  1
  Sb  Sb9  1  0.37333200  0.39656800  0.24794500  1
  Sb  Sb10  1  0.02323600  0.62666800  0.24794500  1
  Sb  Sb11  1  0.60343200  0.97676400  0.24794500  1
  Sb  Sb12  1  0.33333300  0.66666700  0.88528600  1
  Sb  Sb13  1  0.66666700  0.33333300  0.11471400  1
  Se  Se0  1  0.15647300  0.62646100  0.73412500  1
  Se  Se1  1  0.46998800  0.84352700  0.73412500  1
  Se  Se2  1  0.37353900  0.53001200  0.73412500  1
  Se  Se3  1  0.84352700  0.37353900  0.26587500  1
  Se  Se4  1  0.53001200  0.15647300  0.26587500  1
  Se  Se5  1  0.62646100  0.46998800  0.26587500  1
  O  O0  1  0.77843200  0.65002200  0.75483200  1
  O  O1  1  0.87159000  0.22156800  0.75483200  1
  O  O2  1  0.34997800  0.12841000  0.75483200  1
  O  O3  1  0.22156800  0.34997800  0.24516800  1
  O  O4  1  0.12841000  0.77843200  0.24516800  1
  O  O5  1  0.65002200  0.87159000  0.24516800  1
  O  O6  1  0.29287600  0.94491500  0.00342900  1
  O  O7  1  0.65203900  0.70712400  0.00342900  1
  O  O8  1  0.05508500  0.34796100  0.00342900  1
  O  O9  1  0.71019200  0.05626700  0.49579300  1
  O  O10  1  0.34607500  0.28980800  0.49579300  1
  O  O11  1  0.94373300  0.65392500  0.49579300  1
  O  O12  1  0.70712400  0.05508500  0.99657100  1
  O  O13  1  0.34796100  0.29287600  0.99657100  1
  O  O14  1  0.94491500  0.65203900  0.99657100  1
  O  O15  1  0.28980800  0.94373300  0.50420700  1
  O  O16  1  0.65392500  0.71019200  0.50420700  1
  O  O17  1  0.05626700  0.34607500  0.50420700  1
  O  O18  1  0.93109300  0.89109800  0.64573400  1
  O  O19  1  0.96000500  0.06890700  0.64573400  1
  O  O20  1  0.10890200  0.03999500  0.64573400  1
  O  O21  1  0.06890700  0.10890200  0.35426600  1
  O  O22  1  0.03999500  0.93109300  0.35426600  1
  O  O23  1  0.89109800  0.96000500  0.35426600  1
  O  O24  1  0.00000000  0.00000000  0.00000000  1
loop_
_geom_bond_atom_site_label_1
_geom_bond_atom_site_label_2
_geom_bond_distance
_geom_bond_site_symmetry_2
K0 O20 2.761782 1_565
K0 O18 2.767464 1_455
K0 O22 2.804332 1_555
K0 O15 2.960098 1_555
K0 O14 2.973639 1_455
K0 O11 2.992851 1_455
K0 O6 3.002937 1_556
K0 O4 3.133307 1_556
K0 O4 3.205084 1_555
K0 O24 3.409853 1_566
K1 O18 2.761782 1_555
K1 O19 2.767465 1_565
K1 O23 2.804332 1_555
K1 O16 2.960098 1_555
K1 O12 2.973639 1_565
K1 O9 2.992851 1_565
K1 O7 3.002937 1_556
K1 O5 3.133307 1_556
K1 O5 3.205084 1_555
K1 O24 3.409853 1_666
K2 O19 2.761782 1_455
K2 O20 2.767465 1_555
K2 O21 2.804332 1_555
K2 O17 2.960098 1_555
K2 O13 2.973639 1_555
K2 O10 2.992851 1_555
K2 O8 3.002937 1_556
K2 O3 3.133307 1_556
K2 O3 3.205084 1_555
K2 O24 3.409853 1_556
K3 O23 2.761782 1_545
K3 O21 2.767464 1_655
K3 O19 2.804332 1_555
K3 O9 2.960098 1_555
K3 O8 2.973639 1_655
K3 O17 2.992851 1_655
K3 O12 3.002937 1_554
K3 O1 3.133307 1_554
K3 O1 3.205084 1_555
K3 O24 3.409853 1_655
K4 O21 2.761782 1_555
K4 O22 2.767465 1_545
K4 O20 2.804332 1_555
K4 O10 2.960098 1_555
K4 O6 2.973639 1_545
K4 O15 2.992851 1_545
K4 O13 3.002937 1_554
K4 O2 3.133307 1_554
K4 O2 3.205084 1_555
K4 O24 3.409853 1_555
K5 O22 2.761782 1_655
K5 O23 2.767465 1_555
K5 O18 2.804332 1_555
K5 O11 2.960098 1_555
K5 O7 2.973639 1_555
K5 O16 2.992851 1_555
K5 O14 3.002937 1_554
K5 O0 3.133307 1_554
K5 O0 3.205084 1_555
K5 O24 3.409853 1_665
Sb12 Se0 2.541961 1_555
Sb12 Se1 2.541965 1_555
Sb12 Se2 2.541975 1_555
Sb13 Se3 2.541961 1_555
Sb13 Se4 2.541965 1_555
Sb13 Se5 2.541975 1_555
O0 Sb0 1.984903 1_555
O0 Sb6 2.008974 1_555
O1 Sb1 1.984904 1_555
O1 Sb7 2.008974 1_555
O2 Sb2 1.984904 1_555
O2 Sb8 2.008974 1_555
O3 Sb3 1.984903 1_555
O3 Sb9 2.008974 1_555
O4 Sb4 1.984904 1_555
O4 Sb10 2.008974 1_555
O5 Sb5 1.984904 1_555
O5 Sb11 2.008974 1_555
O6 Sb8 1.987181 1_564
O6 Sb4 1.998912 1_555
O7 Sb6 1.987181 1_554
O7 Sb5 1.998912 1_555
O8 Sb7 1.987181 1_454
O8 Sb3 1.998912 1_555
O9 Sb1 1.977936 1_555
O9 Sb11 1.999222 1_545
O10 Sb2 1.977936 1_555
O10 Sb9 1.999222 1_555
O11 Sb0 1.977936 1_555
O11 Sb10 1.999222 1_655
O12 Sb11 1.987181 1_546
O12 Sb1 1.998912 1_555
O13 Sb9 1.987181 1_556
O13 Sb2 1.998912 1_555
O14 Sb10 1.987181 1_656
O14 Sb0 1.998912 1_555
O15 Sb4 1.977936 1_555
O15 Sb8 1.999222 1_565
O16 Sb5 1.977936 1_555
O16 Sb6 1.999222 1_555
O17 Sb3 1.977936 1_555
O17 Sb7 1.999222 1_455
