# generated using pymatgen
data_Y2ZnPb
_symmetry_space_group_name_H-M   'P 1'
_cell_length_a   12.85520697
_cell_length_b   12.85520697
_cell_length_c   12.85520697
_cell_angle_alpha   124.13679548
_cell_angle_beta   118.61312277
_cell_angle_gamma   87.70391053
_symmetry_Int_Tables_number   1
_chemical_formula_structural   Y2ZnPb
_chemical_formula_sum   'Y2 Zn1 Pb1'
_cell_volume   1465.18840553
_cell_formula_units_Z   1
loop_
 _symmetry_equiv_pos_site_id
 _symmetry_equiv_pos_as_xyz
  1  'x, y, z'
loop_
 _atom_site_type_symbol
 _atom_site_label
 _atom_site_symmetry_multiplicity
 _atom_site_fract_x
 _atom_site_fract_y
 _atom_site_fract_z
 _atom_site_occupancy
  Y  Y0  1  0.00000000  0.26392500  0.26392500  1
  Y  Y1  1  0.00000000  0.73607500  0.73607500  1
  Zn  Zn0  1  0.00000000  0.00000000  0.00000000  1
  Pb  Pb0  1  0.00000000  0.50000000  0.50000000  1
loop_
_geom_bond_atom_site_label_1
_geom_bond_atom_site_label_2
_geom_bond_distance
_geom_bond_site_symmetry_2
Y0 Zn0 3.178502 1_555
Y1 Zn0 3.178502 1_566
Pb0 Y1 2.843098 1_555
Pb0 Y0 2.843098 1_555
