# generated using pymatgen
data_Pr3(AgSn)4
_symmetry_space_group_name_H-M   'P 1'
_cell_length_a   8.95165074
_cell_length_b   8.95165074
_cell_length_c   8.95165074
_cell_angle_alpha   149.60186821
_cell_angle_beta   131.09875037
_cell_angle_gamma   58.67519528
_symmetry_Int_Tables_number   1
_chemical_formula_structural   Pr3(AgSn)4
_chemical_formula_sum   'Pr3 Ag4 Sn4'
_cell_volume   271.42747309
_cell_formula_units_Z   1
loop_
 _symmetry_equiv_pos_site_id
 _symmetry_equiv_pos_as_xyz
  1  'x, y, z'
loop_
 _atom_site_type_symbol
 _atom_site_label
 _atom_site_symmetry_multiplicity
 _atom_site_fract_x
 _atom_site_fract_y
 _atom_site_fract_z
 _atom_site_occupancy
  Pr  Pr0  1  0.50000000  -0.00000000  0.50000000  1
  Pr  Pr1  1  0.86952623  0.86952623  -0.00000000  1
  Pr  Pr2  1  0.13047377  0.13047377  0.00000000  1
  Ag  Ag0  1  0.47629597  0.66991534  0.80638162  1
  Ag  Ag1  1  0.86353372  0.66991534  0.19361838  1
  Ag  Ag2  1  0.13646628  0.33008466  0.80638162  1
  Ag  Ag3  1  0.52370403  0.33008466  0.19361838  1
  Sn  Sn0  1  0.28438258  0.78438258  0.50000000  1
  Sn  Sn1  1  0.71561742  0.21561742  0.50000000  1
  Sn  Sn2  1  0.80645370  0.50000000  0.30645370  1
  Sn  Sn3  1  0.19354630  0.50000000  0.69354630  1
loop_
_geom_bond_atom_site_label_1
_geom_bond_atom_site_label_2
_geom_bond_distance
_geom_bond_site_symmetry_2
Pr0 Sn2 3.265727 1_545
Pr0 Sn2 3.265727 1_556
Pr0 Sn3 3.265727 1_544
Pr0 Sn3 3.265727 1_555
Pr0 Sn0 3.365177 1_545
Pr0 Sn1 3.365177 1_555
Pr1 Sn1 3.358253 1_565
Pr1 Sn1 3.358253 1_554
Pr1 Sn2 3.422214 1_554
Pr1 Sn2 3.422214 1_565
Pr1 Sn3 3.422214 1_665
Pr1 Sn3 3.422214 1_654
Pr2 Sn0 3.358253 1_544
Pr2 Sn0 3.358253 1_555
Pr2 Sn3 3.422214 1_555
Pr2 Sn3 3.422214 1_544
Pr2 Sn2 3.422214 1_444
Pr2 Sn2 3.422214 1_455
Ag0 Sn3 2.780585 1_555
Ag0 Sn1 2.841696 1_566
Ag0 Sn1 2.841700 1_555
Ag0 Ag1 2.869558 1_556
Ag0 Sn0 2.888996 1_555
Ag0 Pr2 3.322865 1_566
Ag0 Pr2 3.322869 1_555
Ag0 Pr1 3.429886 1_556
Ag1 Sn2 2.780594 1_555
Ag1 Sn1 2.841694 1_554
Ag1 Sn1 2.841694 1_565
Ag1 Sn0 2.888995 1_655
Ag1 Pr2 3.322871 1_655
Ag1 Pr2 3.322871 1_666
Ag1 Pr1 3.429877 1_555
Ag2 Sn3 2.780594 1_555
Ag2 Sn0 2.841694 1_545
Ag2 Sn0 2.841694 1_556
Ag2 Ag3 2.869558 1_556
Ag2 Sn1 2.888995 1_455
Ag2 Pr1 3.322871 1_456
Ag2 Pr1 3.322871 1_445
Ag2 Pr2 3.429877 1_556
Ag3 Sn2 2.780585 1_555
Ag3 Sn0 2.841696 1_544
Ag3 Sn0 2.841700 1_555
Ag3 Sn1 2.888996 1_555
Ag3 Pr1 3.322865 1_545
Ag3 Pr1 3.322869 1_556
Ag3 Pr2 3.429886 1_555
Sn2 Sn3 2.868486 1_655
