# generated using pymatgen
data_VCrGeC
_symmetry_space_group_name_H-M   'P 1'
_cell_length_a   2.96622457
_cell_length_b   2.96622457
_cell_length_c   12.15834800
_cell_angle_alpha   90.00000000
_cell_angle_beta   90.00000000
_cell_angle_gamma   120.00001280
_symmetry_Int_Tables_number   1
_chemical_formula_structural   VCrGeC
_chemical_formula_sum   'V2 Cr2 Ge2 C2'
_cell_volume   92.64312636
_cell_formula_units_Z   2
loop_
 _symmetry_equiv_pos_site_id
 _symmetry_equiv_pos_as_xyz
  1  'x, y, z'
loop_
 _atom_site_type_symbol
 _atom_site_label
 _atom_site_symmetry_multiplicity
 _atom_site_fract_x
 _atom_site_fract_y
 _atom_site_fract_z
 _atom_site_occupancy
  V  V0  1  0.66666700  0.33333300  0.91060400  1
  V  V1  1  0.33333300  0.66666700  0.08939600  1
  Cr  Cr0  1  0.33333300  0.66666700  0.41630400  1
  Cr  Cr1  1  0.66666700  0.33333300  0.58369600  1
  Ge  Ge0  1  0.33333300  0.66666700  0.74335300  1
  Ge  Ge1  1  0.66666700  0.33333300  0.25664700  1
  C  C0  1  0.00000000  0.00000000  0.50000000  1
  C  C1  1  0.00000000  0.00000000  0.00000000  1
loop_
_geom_bond_atom_site_label_1
_geom_bond_atom_site_label_2
_geom_bond_distance
_geom_bond_site_symmetry_2
Cr0 Ge1 2.588619 1_565
Cr0 Ge1 2.588619 1_455
Cr0 Ge1 2.588622 1_555
Cr1 Ge0 2.588619 1_545
Cr1 Ge0 2.588619 1_655
Cr1 Ge0 2.588622 1_555
Ge0 V0 2.658558 1_565
Ge0 V0 2.658558 1_455
Ge0 V0 2.658561 1_555
Ge1 V1 2.658558 1_655
Ge1 V1 2.658558 1_545
Ge1 V1 2.658561 1_555
C0 Cr1 1.992070 1_455
C0 Cr0 1.992070 1_545
C0 Cr1 1.992072 1_555
C0 Cr0 1.992072 1_555
C0 Cr1 1.992072 1_445
C0 Cr0 1.992072 1_445
C1 V1 2.028347 1_545
C1 V0 2.028347 1_454
C1 V1 2.028349 1_445
C1 V1 2.028349 1_555
C1 V0 2.028349 1_554
C1 V0 2.028349 1_444
