# generated using pymatgen
data_MgHg5
_symmetry_space_group_name_H-M   'P 1'
_cell_length_a   3.70806000
_cell_length_b   3.70805986
_cell_length_c   13.15808600
_cell_angle_alpha   90.00000000
_cell_angle_beta   90.00000000
_cell_angle_gamma   120.00000123
_symmetry_Int_Tables_number   1
_chemical_formula_structural   MgHg5
_chemical_formula_sum   'Mg1 Hg5'
_cell_volume   156.68118102
_cell_formula_units_Z   1
loop_
 _symmetry_equiv_pos_site_id
 _symmetry_equiv_pos_as_xyz
  1  'x, y, z'
loop_
 _atom_site_type_symbol
 _atom_site_label
 _atom_site_symmetry_multiplicity
 _atom_site_fract_x
 _atom_site_fract_y
 _atom_site_fract_z
 _atom_site_occupancy
  Mg  Mg0  1  0.66666800  0.33333400  0.83333400  1
  Hg  Hg0  1  0.66666800  0.33333400  0.15966700  1
  Hg  Hg1  1  0.00000000  0.00000000  0.33333300  1
  Hg  Hg2  1  0.66666800  0.33333400  0.50700000  1
  Hg  Hg3  1  0.00000000  0.00000000  0.68185300  1
  Hg  Hg4  1  0.00000000  0.00000000  0.98481300  1
loop_
_geom_bond_atom_site_label_1
_geom_bond_atom_site_label_2
_geom_bond_distance
_geom_bond_site_symmetry_2
Hg0 Hg1 3.131288 1_665
Hg0 Hg1 3.131288 1_655
Hg0 Hg1 3.131292 1_555
Hg0 Hg4 3.142714 1_664
Hg0 Hg4 3.142714 1_654
Hg0 Hg4 3.142718 1_554
Hg1 Hg2 3.131298 1_445
Hg1 Hg2 3.131298 1_455
Hg1 Hg2 3.131302 1_555
Hg2 Hg3 3.142704 1_665
Hg2 Hg3 3.142704 1_655
Hg2 Hg3 3.142709 1_555
Hg3 Mg0 2.925077 1_445
Hg3 Mg0 2.925077 1_455
Hg3 Mg0 2.925081 1_555
Hg4 Mg0 2.925059 1_445
Hg4 Mg0 2.925059 1_455
Hg4 Mg0 2.925063 1_555
