# generated using pymatgen
data_NaMg14Fe
_symmetry_space_group_name_H-M   'P 1'
_cell_length_a   6.33918944
_cell_length_b   6.43354309
_cell_length_c   9.95999833
_cell_angle_alpha   90.00000000
_cell_angle_beta   90.00000000
_cell_angle_gamma   120.49360378
_symmetry_Int_Tables_number   1
_chemical_formula_structural   NaMg14Fe
_chemical_formula_sum   'Na1 Mg14 Fe1'
_cell_volume   350.01942976
_cell_formula_units_Z   1
loop_
 _symmetry_equiv_pos_site_id
 _symmetry_equiv_pos_as_xyz
  1  'x, y, z'
loop_
 _atom_site_type_symbol
 _atom_site_label
 _atom_site_symmetry_multiplicity
 _atom_site_fract_x
 _atom_site_fract_y
 _atom_site_fract_z
 _atom_site_occupancy
  Na  Na0  1  0.16440682  0.83220291  0.12500000  1
  Mg  Mg0  1  0.16715855  0.33357878  0.62500000  1
  Mg  Mg1  1  0.17267289  0.83633595  0.62500000  1
  Mg  Mg2  1  0.66663576  0.33926323  0.12500000  1
  Mg  Mg3  1  0.66467435  0.32814669  0.62500000  1
  Mg  Mg4  1  0.66663576  0.82737153  0.12500000  1
  Mg  Mg5  1  0.66467435  0.83652666  0.62500000  1
  Mg  Mg6  1  0.32566429  0.17662109  0.36218291  1
  Mg  Mg7  1  0.32566429  0.17662109  0.88781709  1
  Mg  Mg8  1  0.32566429  0.64904420  0.36218291  1
  Mg  Mg9  1  0.32566429  0.64904420  0.88781709  1
  Mg  Mg10  1  0.84757472  0.17378786  0.35741813  1
  Mg  Mg11  1  0.84757472  0.17378786  0.89258187  1
  Mg  Mg12  1  0.82928016  0.66464058  0.38215921  1
  Mg  Mg13  1  0.82928016  0.66464058  0.86784079  1
  Fe  Fe0  1  0.17677461  0.33838681  0.12500000  1
loop_
_geom_bond_atom_site_label_1
_geom_bond_atom_site_label_2
_geom_bond_distance
_geom_bond_site_symmetry_2
Mg0 Mg6 3.148202 1_555
Mg0 Mg7 3.148202 1_555
Mg0 Mg8 3.148208 1_555
Mg0 Mg9 3.148208 1_555
Mg0 Mg5 3.167752 1_445
Mg0 Mg3 3.167752 1_455
Mg0 Mg5 3.171723 1_555
Mg0 Mg3 3.171724 1_555
Mg0 Mg10 3.185950 1_455
Mg0 Mg11 3.185950 1_455
Mg0 Mg1 3.216913 1_555
Mg0 Mg1 3.216913 1_545
Mg1 Mg12 3.060800 1_455
Mg1 Mg13 3.060800 1_455
Mg1 Mg3 3.118268 1_565
Mg1 Mg5 3.118268 1_555
Mg1 Mg3 3.220922 1_455
Mg1 Mg5 3.220922 1_455
Mg1 Mg9 3.229649 1_555
Mg1 Mg8 3.229649 1_555
Mg1 Mg7 3.229656 1_565
Mg1 Mg6 3.229656 1_565
Mg2 Mg7 3.008684 1_554
Mg2 Mg6 3.008684 1_555
Mg2 Na0 3.139806 1_655
Mg2 Mg4 3.140266 1_555
Mg2 Na0 3.199609 1_545
Mg2 Mg4 3.293277 1_545
Mg3 Mg5 3.162859 1_545
Mg3 Mg7 3.208535 1_555
Mg3 Mg6 3.208535 1_555
Mg3 Mg5 3.270684 1_555
Mg4 Mg9 3.008684 1_554
Mg4 Mg8 3.008684 1_555
Mg4 Na0 3.139807 1_655
Mg4 Na0 3.199609 1_555
Mg5 Mg8 3.208534 1_555
Mg5 Mg9 3.208534 1_555
Mg6 Na0 3.039195 1_545
Mg6 Mg8 3.039354 1_555
Mg6 Mg8 3.394189 1_545
Mg7 Na0 3.039195 1_546
Mg7 Mg9 3.039354 1_555
Mg7 Mg9 3.394189 1_545
Mg8 Na0 3.039188 1_555
Mg9 Na0 3.039188 1_556
Mg10 Mg2 3.007813 1_555
Mg10 Mg4 3.007820 1_545
Mg10 Mg8 3.021864 1_655
Mg10 Mg6 3.021864 1_655
Mg10 Mg12 3.227744 1_545
Mg10 Mg12 3.227744 1_555
Mg10 Mg3 3.256053 1_555
Mg10 Mg5 3.256060 1_545
Mg10 Mg8 3.318115 1_545
Mg10 Mg6 3.318115 1_555
Mg11 Mg2 3.007813 1_556
Mg11 Mg4 3.007820 1_546
Mg11 Mg9 3.021864 1_655
Mg11 Mg7 3.021864 1_655
Mg11 Mg13 3.227744 1_545
Mg11 Mg13 3.227744 1_555
Mg11 Mg3 3.256053 1_555
Mg11 Mg5 3.256060 1_545
Mg11 Mg9 3.318115 1_545
Mg11 Mg7 3.318115 1_555
Mg12 Mg5 3.054973 1_555
Mg12 Mg3 3.054979 1_555
Mg12 Mg4 3.132872 1_555
Mg12 Mg2 3.132878 1_555
Mg12 Na0 3.148230 1_655
Mg12 Mg6 3.149081 1_555
Mg12 Mg8 3.149081 1_555
Mg12 Mg6 3.204940 1_665
Mg12 Mg8 3.204940 1_655
Mg13 Mg5 3.054973 1_555
Mg13 Mg3 3.054979 1_555
Mg13 Mg4 3.132872 1_556
Mg13 Mg2 3.132878 1_556
Mg13 Na0 3.148230 1_656
Mg13 Mg7 3.149081 1_555
Mg13 Mg9 3.149081 1_555
Mg13 Mg7 3.204940 1_665
Mg13 Mg9 3.204940 1_655
Fe0 Mg7 2.924295 1_554
Fe0 Mg6 2.924295 1_555
Fe0 Mg8 2.924302 1_555
Fe0 Mg9 2.924302 1_554
Fe0 Mg10 2.931259 1_455
Fe0 Mg11 2.931259 1_454
Fe0 Mg4 3.102465 1_555
Fe0 Mg2 3.102465 1_555
Fe0 Na0 3.217481 1_555
Fe0 Na0 3.217481 1_545
Fe0 Mg4 3.236731 1_445
Fe0 Mg2 3.236732 1_455
