# generated using pymatgen
data_BaSr7Co5Cu3O20
_symmetry_space_group_name_H-M   'P 1'
_cell_length_a   11.01918170
_cell_length_b   11.07945014
_cell_length_c   17.98106346
_cell_angle_alpha   108.25479262
_cell_angle_beta   107.98706559
_cell_angle_gamma   89.23116537
_symmetry_Int_Tables_number   1
_chemical_formula_structural   BaSr7Co5Cu3O20
_chemical_formula_sum   'Ba4 Sr28 Co20 Cu12 O80'
_cell_volume   1974.42172095
_cell_formula_units_Z   4
loop_
 _symmetry_equiv_pos_site_id
 _symmetry_equiv_pos_as_xyz
  1  'x, y, z'
loop_
 _atom_site_type_symbol
 _atom_site_label
 _atom_site_symmetry_multiplicity
 _atom_site_fract_x
 _atom_site_fract_y
 _atom_site_fract_z
 _atom_site_occupancy
  Ba  Ba0  1  0.30930700  0.06337700  0.11871500  1
  Ba  Ba1  1  0.31099200  0.56105400  0.11731100  1
  Ba  Ba2  1  0.80937900  0.05824000  0.11907200  1
  Ba  Ba3  1  0.05549900  0.80476300  0.11487700  1
  Sr  Sr0  1  0.30838300  0.06099200  0.61438200  1
  Sr  Sr1  1  0.30992000  0.55873700  0.61386200  1
  Sr  Sr2  1  0.80629700  0.06209200  0.61319600  1
  Sr  Sr3  1  0.80562900  0.55883200  0.11161500  1
  Sr  Sr4  1  0.80738500  0.55757400  0.61369700  1
  Sr  Sr5  1  0.19840200  0.44169100  0.39136900  1
  Sr  Sr6  1  0.19292100  0.44016200  0.88392200  1
  Sr  Sr7  1  0.19630000  0.93881900  0.39199000  1
  Sr  Sr8  1  0.19523500  0.94165300  0.88468400  1
  Sr  Sr9  1  0.69188000  0.43959000  0.38744300  1
  Sr  Sr10  1  0.69195500  0.43804500  0.88371900  1
  Sr  Sr11  1  0.69417200  0.94314000  0.38638000  1
  Sr  Sr12  1  0.69087300  0.93941200  0.88524500  1
  Sr  Sr13  1  0.05663400  0.30136700  0.10840600  1
  Sr  Sr14  1  0.05603100  0.30272200  0.61381900  1
  Sr  Sr15  1  0.05684700  0.80536400  0.61436500  1
  Sr  Sr16  1  0.55445600  0.30337000  0.11158200  1
  Sr  Sr17  1  0.55974600  0.30479400  0.61367600  1
  Sr  Sr18  1  0.55938000  0.80393600  0.11267500  1
  Sr  Sr19  1  0.55780100  0.80570000  0.61440500  1
  Sr  Sr20  1  0.44480600  0.20242700  0.39148700  1
  Sr  Sr21  1  0.44425700  0.19264100  0.88410100  1
  Sr  Sr22  1  0.44596100  0.69851600  0.39040800  1
  Sr  Sr23  1  0.44207900  0.69699700  0.88388700  1
  Sr  Sr24  1  0.94634100  0.19648000  0.39027200  1
  Sr  Sr25  1  0.94375000  0.19333900  0.88349700  1
  Sr  Sr26  1  0.94488300  0.70159200  0.39061800  1
  Sr  Sr27  1  0.94162000  0.69432300  0.88315000  1
  Co  Co0  1  0.99104500  0.99196900  0.98200100  1
  Co  Co1  1  0.00384800  0.00355700  0.50288300  1
  Co  Co2  1  0.99327400  0.49305200  0.98637700  1
  Co  Co3  1  0.00701600  0.50375600  0.50836000  1
  Co  Co4  1  0.49686900  0.99782100  0.99340600  1
  Co  Co5  1  0.50202500  0.00257500  0.50175800  1
  Co  Co6  1  0.49588100  0.49406900  0.98727200  1
  Co  Co7  1  0.50052300  0.50088300  0.50296200  1
  Co  Co8  1  0.24363600  0.24492500  0.99061400  1
  Co  Co9  1  0.25675200  0.25636800  0.51096900  1
  Co  Co10  1  0.24643700  0.74821000  0.98997100  1
  Co  Co11  1  0.25631000  0.75536700  0.51045000  1
  Co  Co12  1  0.74846500  0.24572000  0.99060300  1
  Co  Co13  1  0.75175800  0.25147500  0.50094000  1
  Co  Co14  1  0.74531700  0.74567800  0.98968900  1
  Co  Co15  1  0.75582900  0.75479200  0.50772600  1
  Co  Co16  1  0.11844500  0.09498100  0.25747900  1
  Co  Co17  1  0.10752500  0.58665100  0.25089300  1
  Co  Co18  1  0.62195000  0.59510800  0.25325700  1
  Co  Co19  1  0.86321300  0.40657800  0.25044300  1
  Cu  Cu0  1  0.11359800  0.09848300  0.74860000  1
  Cu  Cu1  1  0.11473400  0.59870300  0.74843300  1
  Cu  Cu2  1  0.61807900  0.10367600  0.25336200  1
  Cu  Cu3  1  0.61517000  0.09824400  0.74906800  1
  Cu  Cu4  1  0.61281200  0.59865700  0.74872600  1
  Cu  Cu5  1  0.35734900  0.40751200  0.25347300  1
  Cu  Cu6  1  0.36353500  0.40068500  0.74926800  1
  Cu  Cu7  1  0.37148300  0.90315100  0.25566200  1
  Cu  Cu8  1  0.36295100  0.89998900  0.74872800  1
  Cu  Cu9  1  0.86244300  0.39994500  0.74877900  1
  Cu  Cu10  1  0.86207000  0.88772700  0.25340700  1
  Cu  Cu11  1  0.86242800  0.90010100  0.74732400  1
  O  O0  1  0.12844100  0.12814500  0.49566100  1
  O  O1  1  0.11564000  0.11853500  0.99023000  1
  O  O2  1  0.13326000  0.63222900  0.49600000  1
  O  O3  1  0.11045900  0.61293800  0.98917900  1
  O  O4  1  0.63159200  0.13422800  0.49681200  1
  O  O5  1  0.61392700  0.11460400  0.99320500  1
  O  O6  1  0.63354400  0.63403100  0.49585800  1
  O  O7  1  0.61289800  0.61264800  0.99189000  1
  O  O8  1  0.13189800  0.36716700  0.99697400  1
  O  O9  1  0.12374100  0.38385900  0.50667500  1
  O  O10  1  0.12947700  0.86762300  0.99669600  1
  O  O11  1  0.12106100  0.88378800  0.50647800  1
  O  O12  1  0.63620500  0.36809100  0.00321600  1
  O  O13  1  0.62297900  0.38714200  0.50491900  1
  O  O14  1  0.62860300  0.86290700  0.99903300  1
  O  O15  1  0.62184300  0.88629300  0.50664700  1
  O  O16  1  0.38016100  0.11769300  0.49728800  1
  O  O17  1  0.36665600  0.13272200  0.99327200  1
  O  O18  1  0.38405600  0.61929100  0.49803100  1
  O  O19  1  0.36494400  0.63044800  0.99166000  1
  O  O20  1  0.88011100  0.11436300  0.49779500  1
  O  O21  1  0.86648400  0.12718700  0.99140400  1
  O  O22  1  0.88192200  0.61259800  0.49474200  1
  O  O23  1  0.85997400  0.62457200  0.99113000  1
  O  O24  1  0.38705600  0.38482500  0.99924800  1
  O  O25  1  0.37760200  0.37710500  0.50927400  1
  O  O26  1  0.38347100  0.88431600  0.99867800  1
  O  O27  1  0.37032000  0.87208300  0.50707800  1
  O  O28  1  0.88514300  0.38400400  0.00078400  1
  O  O29  1  0.87258300  0.36990100  0.50583300  1
  O  O30  1  0.87719600  0.87825800  0.99676800  1
  O  O31  1  0.87131800  0.87157500  0.50792000  1
  O  O32  1  0.08483700  0.10724300  0.15642600  1
  O  O33  1  0.07629200  0.08520500  0.63764400  1
  O  O34  1  0.07438300  0.58281800  0.14504900  1
  O  O35  1  0.07496000  0.58505600  0.63512100  1
  O  O36  1  0.57190100  0.08802400  0.14097800  1
  O  O37  1  0.57530100  0.08673500  0.63687500  1
  O  O38  1  0.58756500  0.59763800  0.14909900  1
  O  O39  1  0.57587400  0.58630700  0.63778300  1
  O  O40  1  0.43577900  0.41850000  0.36496700  1
  O  O41  1  0.43940600  0.41164500  0.86074800  1
  O  O42  1  0.43949200  0.91484400  0.36740900  1
  O  O43  1  0.43733500  0.91595400  0.86091500  1
  O  O44  1  0.93917500  0.40202200  0.35414300  1
  O  O45  1  0.93585800  0.41229300  0.86052200  1
  O  O46  1  0.93771900  0.91398000  0.36578300  1
  O  O47  1  0.93620600  0.91346700  0.85821700  1
  O  O48  1  0.32629400  0.31961300  0.14038500  1
  O  O49  1  0.32371000  0.30223300  0.63811800  1
  O  O50  1  0.33199900  0.81649600  0.14214300  1
  O  O51  1  0.32485900  0.80030100  0.63660600  1
  O  O52  1  0.83337100  0.31222800  0.14278300  1
  O  O53  1  0.82376400  0.30372100  0.63731500  1
  O  O54  1  0.81867500  0.80126200  0.14076300  1
  O  O55  1  0.82465500  0.79866200  0.63598200  1
  O  O56  1  0.19636200  0.20822000  0.35669400  1
  O  O57  1  0.18929400  0.19650800  0.86026700  1
  O  O58  1  0.19066200  0.69735800  0.35271200  1
  O  O59  1  0.18885800  0.69869100  0.86114100  1
  O  O60  1  0.69427600  0.19864600  0.36522200  1
  O  O61  1  0.68848400  0.19754000  0.86301000  1
  O  O62  1  0.69559900  0.70388200  0.35680100  1
  O  O63  1  0.68582000  0.69547200  0.86059100  1
  O  O64  1  0.46457200  0.05224800  0.26270400  1
  O  O65  1  0.45053500  0.04993600  0.74836000  1
  O  O66  1  0.46349100  0.54876700  0.26034200  1
  O  O67  1  0.44976800  0.55198700  0.74890500  1
  O  O68  1  0.96630000  0.04628300  0.26051100  1
  O  O69  1  0.94979200  0.05180200  0.74755400  1
  O  O70  1  0.93480800  0.56653900  0.25304500  1
  O  O71  1  0.95058600  0.55074600  0.74886100  1
  O  O72  1  0.17885300  0.42812200  0.25063200  1
  O  O73  1  0.19889600  0.44494200  0.74834500  1
  O  O74  1  0.20537700  0.95443600  0.25912300  1
  O  O75  1  0.19606200  0.93916800  0.74882500  1
  O  O76  1  0.69004000  0.43302400  0.25037900  1
  O  O77  1  0.69677900  0.44091300  0.74919700  1
  O  O78  1  0.70181500  0.94679400  0.24969600  1
  O  O79  1  0.69910200  0.94441300  0.75022800  1
loop_
_geom_bond_atom_site_label_1
_geom_bond_atom_site_label_2
_geom_bond_distance
_geom_bond_site_symmetry_2
Ba0 O64 2.665380 1_555
Ba0 O48 2.742758 1_555
Ba0 O32 2.758845 1_555
Ba0 O26 2.761452 1_544
Ba0 O36 2.800875 1_555
Ba0 O10 2.809518 1_544
Ba0 O17 2.838383 1_554
Ba0 O1 2.840715 1_554
Ba0 O50 2.891428 1_545
Ba1 O66 2.645901 1_555
Ba1 O50 2.724850 1_555
Ba1 O24 2.734917 1_554
Ba1 O8 2.784894 1_554
Ba1 O34 2.795621 1_555
Ba1 O19 2.824759 1_554
Ba1 O48 2.827786 1_555
Ba1 O3 2.858816 1_554
Ba1 O38 2.931054 1_555
Ba2 O68 2.639019 1_555
Ba2 O52 2.714635 1_555
Ba2 O30 2.756591 1_544
Ba2 O36 2.764732 1_555
Ba2 O14 2.800778 1_544
Ba2 O5 2.826587 1_554
Ba2 O21 2.872794 1_554
Ba2 O32 2.918172 1_655
Ba2 O54 2.988681 1_545
Ba3 O74 2.634031 1_555
Ba3 O34 2.671476 1_555
Ba3 O30 2.738059 1_454
Ba3 O10 2.770840 1_554
Ba3 O54 2.791489 1_455
Ba3 O3 2.791703 1_554
Ba3 O23 2.819638 1_454
Ba3 O50 2.930602 1_555
Ba3 O32 3.194573 1_565
Co0 O1 1.915581 1_665
Co0 O30 1.920752 1_555
Co0 O47 2.011544 1_555
Co0 O21 2.021482 1_565
Co0 O10 2.053639 1_655
Co1 O20 1.822916 1_455
Co1 O11 1.841040 1_545
Co1 O0 2.020008 1_555
Co1 O31 2.121590 1_445
Co1 O33 2.186016 1_555
Co1 O46 2.229437 1_445
Co2 O28 1.836271 1_556
Co2 O3 1.843414 1_655
Co2 O45 2.045598 1_555
Co2 O23 2.056759 1_555
Co2 O8 2.060214 1_655
Co2 O34 2.568922 1_656
Co3 O22 1.829256 1_455
Co3 O9 1.836544 1_555
Co3 O35 2.060346 1_555
Co3 O29 2.090697 1_455
Co3 O2 2.110198 1_555
Co3 O44 2.510573 1_455
Co4 O26 1.828079 1_555
Co4 O5 1.840806 1_565
Co4 O17 2.057974 1_565
Co4 O14 2.073051 1_555
Co4 O43 2.150712 1_555
Co4 O36 2.393593 1_566
Co5 O15 1.834218 1_545
Co5 O16 1.840664 1_555
Co5 O4 2.095117 1_555
Co5 O27 2.105788 1_545
Co5 O42 2.185005 1_545
Co5 O37 2.193969 1_555
Co6 O7 1.818396 1_555
Co6 O24 1.819633 1_555
Co6 O41 2.058226 1_555
Co6 O19 2.075620 1_555
Co6 O12 2.083327 1_556
Co6 O38 2.632137 1_556
Co7 O18 1.825756 1_555
Co7 O13 1.833826 1_555
Co7 O25 1.992622 1_555
Co7 O6 2.152392 1_555
Co7 O39 2.191477 1_555
Co7 O40 2.237015 1_555
Co8 O8 1.818953 1_555
Co8 O17 1.826823 1_555
Co8 O1 1.997791 1_555
Co8 O57 2.119855 1_555
Co8 O24 2.165104 1_555
Co8 O48 2.424051 1_556
Co9 O0 1.913535 1_555
Co9 O25 1.913668 1_555
Co9 O9 2.022937 1_555
Co9 O16 2.045520 1_555
Co9 O49 2.066412 1_555
Co9 O56 2.522893 1_555
Co10 O19 1.833880 1_555
Co10 O10 1.837474 1_555
Co10 O26 2.084662 1_555
Co10 O59 2.091681 1_555
Co10 O3 2.127261 1_555
Co10 O50 2.465185 1_556
Co11 O2 1.837744 1_555
Co11 O27 1.842269 1_555
Co11 O11 2.047357 1_555
Co11 O51 2.051458 1_555
Co11 O18 2.056849 1_555
Co11 O58 2.565975 1_555
Co12 O12 1.831792 1_556
Co12 O21 1.835917 1_555
Co12 O61 2.071500 1_555
Co12 O28 2.089278 1_556
Co12 O5 2.110337 1_555
Co12 O52 2.465790 1_556
Co13 O4 1.836129 1_555
Co13 O29 1.845035 1_555
Co13 O13 2.053347 1_555
Co13 O20 2.061366 1_555
Co13 O60 2.204442 1_555
Co13 O53 2.213406 1_555
Co14 O14 1.822400 1_555
Co14 O23 1.831224 1_555
Co14 O30 2.027709 1_555
Co14 O63 2.094919 1_555
Co14 O7 2.105466 1_555
Co14 O54 2.453780 1_556
Co15 O31 1.825454 1_555
Co15 O6 1.828472 1_555
Co15 O15 2.060388 1_555
Co15 O55 2.087423 1_555
Co15 O22 2.092417 1_555
Co15 O62 2.462113 1_555
Co16 O56 1.781731 1_555
Co16 O32 1.787442 1_555
Co16 O68 1.789954 1_455
Co16 O74 1.820592 1_545
Co17 O34 1.810474 1_555
Co17 O58 1.811919 1_555
Co17 O72 1.913854 1_555
Co17 O70 1.932767 1_455
Co18 O38 1.801759 1_555
Co18 O62 1.806873 1_555
Co18 O66 1.879119 1_555
Co18 O76 1.928763 1_555
Co19 O44 1.809404 1_555
Co19 O52 1.815672 1_555
Co19 O76 1.926402 1_555
Co19 O70 1.930890 1_555
Cu0 O33 1.866092 1_555
Cu0 O69 1.877204 1_455
Cu0 O57 1.879007 1_555
Cu0 O75 1.974979 1_545
Cu1 O71 1.894994 1_455
Cu1 O59 1.896567 1_555
Cu1 O35 1.903551 1_555
Cu1 O73 1.928495 1_555
Cu2 O64 1.864254 1_555
Cu2 O60 1.874173 1_555
Cu2 O36 1.876254 1_555
Cu2 O78 1.949279 1_545
Cu3 O37 1.889959 1_555
Cu3 O65 1.893481 1_555
Cu3 O61 1.910517 1_555
Cu3 O79 1.930987 1_545
Cu4 O39 1.868937 1_555
Cu4 O63 1.875042 1_555
Cu4 O67 1.877428 1_555
Cu4 O77 1.967665 1_555
Cu5 O48 1.881213 1_555
Cu5 O40 1.886989 1_555
Cu5 O66 1.916072 1_555
Cu5 O72 1.963815 1_555
Cu6 O49 1.866062 1_555
Cu6 O73 1.869389 1_555
Cu6 O41 1.883362 1_555
Cu6 O67 1.940751 1_555
Cu7 O50 1.874171 1_555
Cu7 O42 1.877586 1_555
Cu7 O64 1.905586 1_565
Cu7 O74 1.922813 1_555
Cu8 O43 1.879245 1_555
Cu8 O75 1.884240 1_555
Cu8 O51 1.885581 1_555
Cu8 O65 1.935290 1_565
Cu9 O53 1.865799 1_555
Cu9 O77 1.876851 1_555
Cu9 O45 1.880732 1_555
Cu9 O71 1.943199 1_555
Cu10 O54 1.856715 1_555
Cu10 O46 1.860235 1_555
Cu10 O78 1.864036 1_555
Cu10 O68 2.060202 1_565
Cu11 O47 1.864366 1_555
Cu11 O79 1.871100 1_555
Cu11 O55 1.879580 1_555
Cu11 O69 1.946367 1_565
O0 Sr24 2.588496 1_455
O0 Sr7 2.608291 1_545
O0 Sr14 2.706074 1_555
O0 Sr0 2.717250 1_555
O1 Sr25 2.582051 1_455
O1 Sr8 2.619822 1_545
O1 Sr13 2.676330 1_556
O2 Sr5 2.610856 1_555
O2 Sr26 2.632529 1_455
O2 Sr15 2.724726 1_555
O2 Sr1 2.726615 1_555
O3 Sr27 2.598178 1_455
O3 Sr6 2.611097 1_555
O4 Sr20 2.615587 1_555
O4 Sr11 2.659614 1_545
O4 Sr17 2.667044 1_555
O4 Sr2 2.691213 1_555
O5 Sr21 2.616431 1_555
O5 Sr12 2.620434 1_545
O5 Sr16 2.714771 1_556
O6 Sr22 2.601288 1_555
O6 Sr9 2.638219 1_555
O6 Sr19 2.715534 1_555
O6 Sr4 2.729618 1_555
O7 Sr10 2.632171 1_555
O7 Sr23 2.649520 1_555
O7 Sr18 2.725838 1_556
O7 Sr3 2.728878 1_556
O8 Sr6 2.669686 1_555
O8 Sr13 2.681720 1_556
O8 Sr25 2.683923 1_455
O9 Sr1 2.646264 1_555
O9 Sr14 2.658422 1_555
O9 Sr5 2.699251 1_555
O9 Sr24 2.715113 1_455
O10 Sr27 2.679677 1_455
O10 Sr8 2.684512 1_555
O11 Sr15 2.634239 1_555
O11 Sr0 2.669948 1_565
O11 Sr7 2.674138 1_555
O11 Sr26 2.675160 1_455
O12 Sr3 2.651127 1_555
O12 Sr16 2.664429 1_555
O12 Sr10 2.732444 1_554
O12 Sr21 2.746617 1_554
O13 Sr4 2.618178 1_555
O13 Sr17 2.668059 1_555
O13 Sr9 2.673467 1_555
O13 Sr20 2.687497 1_555
O14 Sr23 2.641778 1_555
O14 Sr18 2.645119 1_556
O14 Sr12 2.710114 1_555
O15 Sr2 2.637975 1_565
O15 Sr19 2.644791 1_555
O15 Sr22 2.708362 1_555
O15 Sr11 2.763997 1_555
O16 Sr20 2.642302 1_555
O16 Sr7 2.646698 1_545
O16 Sr0 2.706240 1_555
O16 Sr17 2.725328 1_555
O17 Sr21 2.625582 1_555
O17 Sr8 2.664918 1_545
O17 Sr16 2.692395 1_556
O18 Sr22 2.622256 1_555
O18 Sr5 2.656290 1_555
O18 Sr19 2.689602 1_555
O18 Sr1 2.719618 1_555
O19 Sr23 2.636415 1_555
O19 Sr6 2.659213 1_555
O19 Sr18 2.762397 1_556
O20 Sr11 2.645475 1_545
O20 Sr24 2.662622 1_555
O20 Sr2 2.666572 1_555
O20 Sr14 2.710836 1_655
O21 Sr25 2.637178 1_555
O21 Sr12 2.656186 1_545
O21 Sr13 2.717174 1_656
O22 Sr26 2.633630 1_555
O22 Sr9 2.660351 1_555
O22 Sr4 2.745298 1_555
O22 Sr15 2.752313 1_655
O23 Sr10 2.612007 1_555
O23 Sr27 2.685878 1_555
O23 Sr3 2.717378 1_556
O24 Sr16 2.663306 1_556
O24 Sr21 2.688128 1_555
O24 Sr6 2.697010 1_555
O25 Sr1 2.568576 1_555
O25 Sr17 2.601230 1_555
O25 Sr20 2.672422 1_555
O25 Sr5 2.689402 1_555
O26 Sr8 2.657425 1_555
O26 Sr23 2.662381 1_555
O26 Sr18 2.719455 1_556
O27 Sr0 2.610403 1_565
O27 Sr19 2.630458 1_555
O27 Sr7 2.641200 1_555
O27 Sr22 2.702453 1_555
O28 Sr13 2.638014 1_655
O28 Sr3 2.665643 1_555
O28 Sr10 2.703499 1_554
O28 Sr25 2.709374 1_554
O29 Sr14 2.617510 1_655
O29 Sr4 2.625897 1_555
O29 Sr24 2.677676 1_555
O29 Sr9 2.731902 1_555
O30 Sr12 2.639461 1_555
O30 Sr27 2.660699 1_555
O31 Sr15 2.608398 1_655
O31 Sr2 2.616496 1_565
O31 Sr26 2.679400 1_555
O31 Sr11 2.761241 1_555
O32 Sr13 2.539251 1_555
O33 Sr14 2.571889 1_555
O33 Sr0 2.712829 1_555
O33 Sr2 2.872693 1_455
O33 Sr15 2.997249 1_545
O34 Sr3 2.832612 1_455
O34 Sr13 2.974207 1_555
O35 Sr15 2.578510 1_555
O35 Sr1 2.730488 1_555
O35 Sr4 2.860705 1_455
O35 Sr14 3.031962 1_555
O36 Sr16 2.593058 1_555
O36 Sr18 3.024862 1_545
O37 Sr17 2.572241 1_555
O37 Sr2 2.704196 1_555
O37 Sr0 2.848026 1_555
O37 Sr19 3.012555 1_545
O38 Sr18 2.557899 1_555
O38 Sr3 2.684021 1_555
O38 Sr16 3.117682 1_555
O39 Sr19 2.588508 1_555
O39 Sr4 2.714961 1_555
O39 Sr1 2.833710 1_555
O39 Sr17 3.011310 1_555
O40 Sr20 2.578349 1_555
O40 Sr9 2.726885 1_555
O40 Sr5 2.793877 1_555
O40 Sr22 2.989215 1_555
O41 Sr21 2.586077 1_555
O41 Sr10 2.690139 1_555
O41 Sr6 2.871225 1_555
O41 Sr23 3.056171 1_555
O42 Sr22 2.553214 1_555
O42 Sr11 2.730515 1_555
O42 Sr7 2.843586 1_555
O42 Sr20 3.077053 1_565
O43 Sr23 2.582536 1_555
O43 Sr12 2.693985 1_555
O43 Sr8 2.826331 1_555
O43 Sr21 2.960257 1_565
O44 Sr24 2.550422 1_555
O44 Sr5 2.732974 1_655
O44 Sr9 2.962848 1_555
O44 Sr26 3.172806 1_555
O45 Sr25 2.581311 1_555
O45 Sr6 2.739001 1_655
O45 Sr10 2.841804 1_555
O45 Sr27 3.020998 1_555
O46 Sr26 2.524776 1_555
O46 Sr7 2.743563 1_655
O46 Sr11 2.821231 1_555
O46 Sr24 3.019632 1_565
O47 Sr27 2.600241 1_555
O47 Sr8 2.750063 1_655
O47 Sr12 2.886185 1_555
O47 Sr25 2.988178 1_565
O48 Sr16 2.712058 1_555
O48 Sr13 2.844111 1_555
O49 Sr0 2.570518 1_555
O49 Sr17 2.770295 1_555
O49 Sr14 2.845384 1_555
O49 Sr1 3.002308 1_555
O50 Sr18 2.709668 1_555
O51 Sr1 2.577203 1_555
O51 Sr19 2.720933 1_555
O51 Sr15 2.857460 1_555
O51 Sr0 3.033021 1_565
O52 Sr13 2.708079 1_655
O52 Sr16 2.946005 1_555
O52 Sr3 2.950208 1_555
O53 Sr2 2.574294 1_555
O53 Sr14 2.719049 1_655
O53 Sr17 2.807691 1_555
O53 Sr4 2.968283 1_555
O54 Sr3 2.567449 1_555
O54 Sr18 2.745091 1_555
O55 Sr4 2.574426 1_555
O55 Sr15 2.709290 1_655
O55 Sr19 2.848057 1_555
O55 Sr2 3.067490 1_565
O56 Sr5 2.462301 1_555
O56 Sr20 2.617804 1_555
O56 Sr24 3.009612 1_455
O57 Sr6 2.596756 1_555
O57 Sr21 2.709862 1_555
O57 Sr25 2.864650 1_455
O57 Sr8 2.987308 1_545
O58 Sr7 2.540337 1_555
O58 Sr22 2.681692 1_555
O58 Sr26 2.986333 1_455
O58 Sr5 3.115247 1_555
O59 Sr8 2.589051 1_555
O59 Sr23 2.692939 1_555
O59 Sr27 2.874457 1_455
O59 Sr6 3.015734 1_555
O60 Sr9 2.573541 1_555
O60 Sr24 2.674052 1_555
O60 Sr20 2.927093 1_555
O60 Sr11 2.972139 1_545
O61 Sr10 2.571549 1_555
O61 Sr25 2.723438 1_555
O61 Sr21 2.834849 1_555
O61 Sr12 3.007903 1_545
O62 Sr11 2.535919 1_555
O62 Sr26 2.625279 1_555
O62 Sr22 2.998194 1_555
O62 Sr9 3.147632 1_555
O63 Sr12 2.596633 1_555
O63 Sr27 2.721384 1_555
O63 Sr23 2.842288 1_555
O63 Sr10 3.005465 1_555
O64 Sr20 2.462959 1_555
O65 Sr0 2.474140 1_555
O65 Sr21 2.479046 1_555
O66 Sr22 2.469648 1_555
O67 Sr1 2.464995 1_555
O67 Sr23 2.481880 1_555
O68 Sr24 2.477141 1_555
O69 Sr25 2.476871 1_555
O69 Sr2 2.481575 1_555
O70 Sr26 2.426202 1_555
O70 Sr3 2.476328 1_555
O71 Sr27 2.471344 1_555
O71 Sr4 2.479096 1_555
O72 Sr5 2.428744 1_555
O72 Sr13 2.449444 1_555
O73 Sr6 2.475925 1_555
O73 Sr14 2.477741 1_555
O74 Sr7 2.480870 1_555
O75 Sr15 2.433386 1_555
O75 Sr8 2.437243 1_555
O76 Sr9 2.436513 1_555
O76 Sr16 2.456213 1_555
O77 Sr17 2.445161 1_555
O77 Sr10 2.445868 1_555
O78 Sr11 2.497879 1_555
O78 Sr18 2.504831 1_555
O79 Sr19 2.472865 1_555
O79 Sr12 2.475000 1_555
