# generated using pymatgen
data_CaB2F8
_symmetry_space_group_name_H-M   'P 1'
_cell_length_a   8.80697321
_cell_length_b   9.25183482
_cell_length_c   13.19018197
_cell_angle_alpha   90.00000000
_cell_angle_beta   90.00000000
_cell_angle_gamma   90.00000000
_symmetry_Int_Tables_number   1
_chemical_formula_structural   CaB2F8
_chemical_formula_sum   'Ca8 B16 F64'
_cell_volume   1074.74475094
_cell_formula_units_Z   8
loop_
 _symmetry_equiv_pos_site_id
 _symmetry_equiv_pos_as_xyz
  1  'x, y, z'
loop_
 _atom_site_type_symbol
 _atom_site_label
 _atom_site_symmetry_multiplicity
 _atom_site_fract_x
 _atom_site_fract_y
 _atom_site_fract_z
 _atom_site_occupancy
  Ca  Ca0  1  0.78053030  0.46558132  0.39531039  1
  Ca  Ca1  1  0.28053030  0.53441868  0.10468961  1
  Ca  Ca2  1  0.71946970  0.96558132  0.60468961  1
  Ca  Ca3  1  0.21946970  0.03441868  0.89531039  1
  Ca  Ca4  1  0.21946970  0.53441868  0.60468961  1
  Ca  Ca5  1  0.71946970  0.46558132  0.89531039  1
  Ca  Ca6  1  0.28053030  0.03441868  0.39531039  1
  Ca  Ca7  1  0.78053030  0.96558132  0.10468961  1
  B  B0  1  0.00497859  0.72262566  0.93782813  1
  B  B1  1  0.68316971  0.10430362  0.34398591  1
  B  B2  1  0.18316971  0.89569638  0.15601409  1
  B  B3  1  0.81683029  0.60430362  0.65601409  1
  B  B4  1  0.31683029  0.39569638  0.84398591  1
  B  B5  1  0.31683029  0.89569638  0.65601409  1
  B  B6  1  0.81683029  0.10430362  0.84398591  1
  B  B7  1  0.18316971  0.39569638  0.34398591  1
  B  B8  1  0.68316971  0.60430362  0.15601409  1
  B  B9  1  0.50497859  0.27737434  0.56217187  1
  B  B10  1  0.49502141  0.22262466  0.06217187  1
  B  B11  1  0.99502141  0.77737434  0.43782813  1
  B  B12  1  0.99502141  0.27737434  0.06217187  1
  B  B13  1  0.49502141  0.72262566  0.43782813  1
  B  B14  1  0.50497859  0.77737434  0.93782813  1
  B  B15  1  0.00497859  0.22262466  0.56217187  1
  F  F0  1  0.97466252  0.08397464  0.83640804  1
  F  F1  1  0.75768259  0.50766875  0.22093691  1
  F  F2  1  0.25768259  0.49233125  0.27906309  1
  F  F3  1  0.74231741  0.00766875  0.77906309  1
  F  F4  1  0.24231741  0.99233125  0.72093691  1
  F  F5  1  0.24231741  0.49233125  0.77906309  1
  F  F6  1  0.74231741  0.50766875  0.72093691  1
  F  F7  1  0.25768259  0.99233125  0.22093691  1
  F  F8  1  0.90379422  0.82129319  0.98370171  1
  F  F9  1  0.40379422  0.17870681  0.51629829  1
  F  F10  1  0.59620578  0.32129319  0.01629829  1
  F  F11  1  0.09620578  0.67870681  0.48370171  1
  F  F12  1  0.09620578  0.17870681  0.01629829  1
  F  F13  1  0.59620578  0.82129319  0.48370171  1
  F  F14  1  0.40379422  0.67870681  0.98370171  1
  F  F15  1  0.90379422  0.32129319  0.51629829  1
  F  F16  1  0.57681861  0.12484323  0.12235723  1
  F  F17  1  0.07681861  0.87515677  0.37764277  1
  F  F18  1  0.92318139  0.62484323  0.87764277  1
  F  F19  1  0.42318139  0.37515677  0.62235723  1
  F  F20  1  0.42318139  0.87515677  0.87764277  1
  F  F21  1  0.92318139  0.12484323  0.62235723  1
  F  F22  1  0.07681861  0.37515677  0.12235723  1
  F  F23  1  0.57681861  0.62484323  0.37764277  1
  F  F24  1  0.89276582  0.19889457  0.12211533  1
  F  F25  1  0.39276582  0.80110543  0.37788467  1
  F  F26  1  0.60723418  0.69889457  0.87788467  1
  F  F27  1  0.10723418  0.30110543  0.62211533  1
  F  F28  1  0.10723418  0.80110543  0.87788467  1
  F  F29  1  0.60723418  0.19889457  0.62211533  1
  F  F30  1  0.39276582  0.30110543  0.12211533  1
  F  F31  1  0.89276582  0.69889457  0.37788467  1
  F  F32  1  0.58194901  0.85394635  0.01398731  1
  F  F33  1  0.08194901  0.14605365  0.48601269  1
  F  F34  1  0.91805099  0.35394635  0.98601269  1
  F  F35  1  0.41805099  0.64605365  0.51398731  1
  F  F36  1  0.41805099  0.14605365  0.98601269  1
  F  F37  1  0.91805099  0.85394635  0.51398731  1
  F  F38  1  0.08194901  0.64605365  0.01398731  1
  F  F39  1  0.58194901  0.35394635  0.48601269  1
  F  F40  1  0.52533748  0.58397464  0.16359196  1
  F  F41  1  0.02533748  0.41602536  0.33640804  1
  F  F42  1  0.75768259  0.00766875  0.27906309  1
  F  F43  1  0.47466252  0.91602536  0.66359196  1
  F  F44  1  0.47466252  0.41602536  0.83640804  1
  F  F45  1  0.97466252  0.58397464  0.66359196  1
  F  F46  1  0.02533748  0.91602536  0.16359196  1
  F  F47  1  0.52533748  0.08397464  0.33640804  1
  F  F48  1  0.72919572  0.57953256  0.05525626  1
  F  F49  1  0.22919572  0.42046744  0.44474374  1
  F  F50  1  0.72125633  0.24658807  0.31710770  1
  F  F51  1  0.27080428  0.92046744  0.55525626  1
  F  F52  1  0.27080428  0.42046744  0.94474374  1
  F  F53  1  0.77080428  0.57953256  0.55525626  1
  F  F54  1  0.22919572  0.92046744  0.05525626  1
  F  F55  1  0.72919572  0.07953256  0.44474374  1
  F  F56  1  0.72125633  0.74658807  0.18289230  1
  F  F57  1  0.22125633  0.25341193  0.31710770  1
  F  F58  1  0.77874367  0.24658807  0.81710770  1
  F  F59  1  0.27874367  0.75341193  0.68289230  1
  F  F60  1  0.27874367  0.25341193  0.81710770  1
  F  F61  1  0.77874367  0.74658807  0.68289230  1
  F  F62  1  0.22125633  0.75341193  0.18289230  1
  F  F63  1  0.77080428  0.07953256  0.94474374  1
loop_
_geom_bond_atom_site_label_1
_geom_bond_atom_site_label_2
_geom_bond_distance
_geom_bond_site_symmetry_2
Ca0 F50 2.332714 1_555
Ca0 F23 2.333268 1_555
Ca0 F41 2.337138 1_655
Ca0 F1 2.341408 1_555
Ca0 F15 2.346758 1_555
Ca0 F39 2.357268 1_555
Ca0 F53 2.360020 1_555
Ca0 F31 2.385230 1_555
Ca1 F62 2.332714 1_555
Ca1 F22 2.333268 1_555
Ca1 F40 2.337138 1_555
Ca1 F2 2.341408 1_555
Ca1 F14 2.346758 1_554
Ca1 F38 2.357268 1_555
Ca1 F52 2.360020 1_554
Ca1 F30 2.385230 1_555
Ca2 F61 2.332714 1_555
Ca2 F21 2.333268 1_565
Ca2 F43 2.337138 1_555
Ca2 F3 2.341408 1_565
Ca2 F13 2.346758 1_555
Ca2 F37 2.357268 1_555
Ca2 F55 2.360020 1_565
Ca2 F29 2.385230 1_565
Ca3 F60 2.332714 1_555
Ca3 F20 2.333268 1_545
Ca3 F0 2.337138 1_455
Ca3 F4 2.341408 1_545
Ca3 F12 2.346758 1_556
Ca3 F36 2.357268 1_555
Ca3 F54 2.360020 1_546
Ca3 F28 2.385230 1_545
Ca4 F59 2.332714 1_555
Ca4 F19 2.333268 1_555
Ca4 F45 2.337138 1_455
Ca4 F5 2.341408 1_555
Ca4 F11 2.346758 1_555
Ca4 F35 2.357268 1_555
Ca4 F49 2.360020 1_555
Ca4 F27 2.385230 1_555
Ca5 F58 2.332714 1_555
Ca5 F18 2.333268 1_555
Ca5 F44 2.337138 1_555
Ca5 F6 2.341408 1_555
Ca5 F10 2.346758 1_556
Ca5 F34 2.357268 1_555
Ca5 F48 2.360020 1_556
Ca5 F26 2.385230 1_555
Ca6 F57 2.332714 1_555
Ca6 F17 2.333268 1_545
Ca6 F47 2.337138 1_555
Ca6 F7 2.341408 1_545
Ca6 F9 2.346758 1_555
Ca6 F33 2.357268 1_555
Ca6 F51 2.360020 1_545
Ca6 F25 2.385230 1_545
Ca7 F56 2.332714 1_555
Ca7 F16 2.333268 1_565
Ca7 F46 2.337138 1_655
Ca7 F42 2.341408 1_565
Ca7 F8 2.346758 1_554
Ca7 F32 2.357268 1_555
Ca7 F63 2.360020 1_564
Ca7 F24 2.385230 1_565
B0 F28 1.401199 1_555
B0 F18 1.402706 1_455
B0 F38 1.403752 1_556
B0 F8 1.411927 1_455
B1 F42 1.401175 1_555
B1 F50 1.403955 1_555
B1 F47 1.406248 1_555
B1 F55 1.408229 1_555
B2 F7 1.401175 1_555
B2 F62 1.403955 1_555
B2 F46 1.406248 1_555
B2 F54 1.408229 1_555
B3 F6 1.401175 1_555
B3 F61 1.403955 1_555
B3 F45 1.406248 1_555
B3 F53 1.408229 1_555
B4 F5 1.401175 1_555
B4 F60 1.403955 1_555
B4 F44 1.406248 1_555
B4 F52 1.408229 1_555
B5 F4 1.401175 1_555
B5 F59 1.403955 1_555
B5 F43 1.406248 1_555
B5 F51 1.408229 1_555
B6 F3 1.401175 1_555
B6 F58 1.403955 1_555
B6 F0 1.406248 1_555
B6 F63 1.408229 1_555
B7 F2 1.401175 1_555
B7 F57 1.403955 1_555
B7 F41 1.406248 1_555
B7 F49 1.408229 1_555
B8 F1 1.401175 1_555
B8 F56 1.403955 1_555
B8 F40 1.406248 1_555
B8 F48 1.408229 1_555
B9 F29 1.401199 1_555
B9 F19 1.402706 1_555
B9 F39 1.403752 1_555
B9 F9 1.411927 1_555
B10 F30 1.401204 1_555
B10 F16 1.402700 1_555
B10 F36 1.403747 1_554
B10 F10 1.411933 1_555
B11 F31 1.401199 1_555
B11 F17 1.402706 1_655
B11 F37 1.403752 1_555
B11 F11 1.411927 1_655
B12 F24 1.401199 1_555
B12 F22 1.402706 1_655
B12 F34 1.403752 1_554
B12 F12 1.411927 1_655
B13 F25 1.401199 1_555
B13 F23 1.402706 1_555
B13 F35 1.403752 1_555
B13 F13 1.411927 1_555
B14 F26 1.401199 1_555
B14 F20 1.402706 1_555
B14 F32 1.403752 1_556
B14 F14 1.411927 1_555
B15 F27 1.401204 1_555
B15 F21 1.402700 1_455
B15 F33 1.403747 1_555
B15 F15 1.411933 1_455
