# generated using pymatgen
data_Na4Ca7MnSi12(HO9)4
_symmetry_space_group_name_H-M   'P 1'
_cell_length_a   7.06763300
_cell_length_b   8.04745564
_cell_length_c   14.15240036
_cell_angle_alpha   95.03102860
_cell_angle_beta   90.72080722
_cell_angle_gamma   102.48771814
_symmetry_Int_Tables_number   1
_chemical_formula_structural   Na4Ca7MnSi12(HO9)4
_chemical_formula_sum   'Na4 Ca7 Mn1 Si12 H4 O36'
_cell_volume   782.45594424
_cell_formula_units_Z   1
loop_
 _symmetry_equiv_pos_site_id
 _symmetry_equiv_pos_as_xyz
  1  'x, y, z'
loop_
 _atom_site_type_symbol
 _atom_site_label
 _atom_site_symmetry_multiplicity
 _atom_site_fract_x
 _atom_site_fract_y
 _atom_site_fract_z
 _atom_site_occupancy
  Na  Na0  1  0.25100900  0.55198800  0.17040200  1
  Na  Na1  1  0.25272700  0.55103000  0.67109300  1
  Na  Na2  1  0.74721200  0.44897000  0.32893500  1
  Na  Na3  1  0.74720600  0.44888400  0.82908500  1
  Ca  Ca0  1  0.59502300  0.85303000  0.07179700  1
  Ca  Ca1  1  0.59384200  0.85279500  0.57181500  1
  Ca  Ca2  1  0.40618700  0.14730700  0.42808900  1
  Ca  Ca3  1  0.40509900  0.14625000  0.92890200  1
  Ca  Ca4  1  0.08438100  0.84835600  0.57010400  1
  Ca  Ca5  1  0.91570500  0.15147200  0.42976600  1
  Ca  Ca6  1  0.91636000  0.15061000  0.93057500  1
  Mn  Mn0  1  0.08447100  0.84620400  0.07112700  1
  Si  Si0  1  0.95572000  0.21070000  0.17332500  1
  Si  Si1  1  0.95403600  0.21316400  0.67366600  1
  Si  Si2  1  0.04580200  0.78737800  0.32430200  1
  Si  Si3  1  0.04561000  0.78647500  0.82773600  1
  Si  Si4  1  0.40290100  0.21945200  0.16775100  1
  Si  Si5  1  0.40360200  0.21987700  0.66836300  1
  Si  Si6  1  0.59618200  0.78007600  0.33173000  1
  Si  Si7  1  0.59628700  0.78034000  0.83204300  1
  Si  Si8  1  0.74055300  0.45236400  0.07247000  1
  Si  Si9  1  0.73726700  0.45058300  0.57240700  1
  Si  Si10  1  0.26253500  0.54975500  0.42731800  1
  Si  Si11  1  0.26023400  0.55132400  0.92834400  1
  H  H0  1  0.64757800  0.16970800  0.26619800  1
  H  H1  1  0.64754500  0.16961700  0.76650100  1
  H  H2  1  0.35243500  0.83065200  0.23246500  1
  H  H3  1  0.35221700  0.83044200  0.73382500  1
  O  O0  1  0.79965100  0.65674200  0.06367100  1
  O  O1  1  0.78990500  0.65349400  0.56297500  1
  O  O2  1  0.20986300  0.34685800  0.43695100  1
  O  O3  1  0.21063000  0.34830300  0.93795100  1
  O  O4  1  0.28477400  0.67597500  0.02746500  1
  O  O5  1  0.29264400  0.67055200  0.52710500  1
  O  O6  1  0.70713700  0.32943800  0.47277700  1
  O  O7  1  0.70767000  0.33060100  0.97300900  1
  O  O8  1  0.19335800  0.26505900  0.19443200  1
  O  O9  1  0.19242300  0.26349700  0.69401300  1
  O  O10  1  0.80698900  0.73631000  0.30577300  1
  O  O11  1  0.80737500  0.73671200  0.80617300  1
  O  O12  1  0.53460700  0.40167000  0.13368200  1
  O  O13  1  0.53354800  0.40152200  0.63448600  1
  O  O14  1  0.46664300  0.59848800  0.36558200  1
  O  O15  1  0.46592400  0.59974600  0.86710500  1
  O  O16  1  0.90934400  0.39290400  0.13918900  1
  O  O17  1  0.90925300  0.39571700  0.63954300  1
  O  O18  1  0.09182100  0.60551300  0.35942000  1
  O  O19  1  0.08996800  0.60264600  0.85925300  1
  O  O20  1  0.84581600  0.17481200  0.27157400  1
  O  O21  1  0.84613400  0.17549700  0.77207100  1
  O  O22  1  0.15053200  0.82442800  0.22438700  1
  O  O23  1  0.15387200  0.82580800  0.72920800  1
  O  O24  1  0.38373800  0.06128100  0.08658800  1
  O  O25  1  0.38852000  0.06374000  0.58644200  1
  O  O26  1  0.61138700  0.93631400  0.41352400  1
  O  O27  1  0.61147200  0.93677400  0.91364700  1
  O  O28  1  0.90291400  0.05447800  0.08907600  1
  O  O29  1  0.89651800  0.05953400  0.58871200  1
  O  O30  1  0.10434400  0.94015400  0.40979600  1
  O  O31  1  0.10280400  0.93708800  0.91448200  1
  O  O32  1  0.50172000  0.19127800  0.26998700  1
  O  O33  1  0.50155000  0.19121300  0.77048400  1
  O  O34  1  0.49735600  0.80869400  0.22963100  1
  O  O35  1  0.49807100  0.80835500  0.72970100  1
loop_
_geom_bond_atom_site_label_1
_geom_bond_atom_site_label_2
_geom_bond_distance
_geom_bond_site_symmetry_2
Na0 O8 2.312514 1_555
Na0 O4 2.325474 1_555
Na0 O34 2.470987 1_555
Na0 O16 2.490428 1_455
Na0 O22 2.507592 1_555
Na0 O12 2.591405 1_555
Na0 O18 2.947964 1_555
Na1 O9 2.312936 1_555
Na1 O5 2.323394 1_555
Na1 O35 2.468336 1_555
Na1 O17 2.493441 1_455
Na1 O23 2.533355 1_555
Na1 O13 2.569909 1_555
Na1 O19 2.945607 1_555
Na2 O10 2.312331 1_555
Na2 O6 2.321589 1_555
Na2 O32 2.472042 1_555
Na2 O18 2.501299 1_655
Na2 O20 2.525342 1_555
Na2 O14 2.568495 1_555
Na2 O16 2.969226 1_555
Na3 O11 2.315249 1_555
Na3 O7 2.317831 1_555
Na3 O33 2.471282 1_555
Na3 O19 2.483341 1_655
Na3 O21 2.519585 1_555
Na3 O15 2.582962 1_555
Na3 O17 2.962825 1_555
Ca0 O0 2.358029 1_555
Ca0 O34 2.380209 1_555
Ca0 O4 2.385230 1_555
Ca0 O27 2.390494 1_554
Ca0 O28 2.411355 1_565
Ca0 O24 2.472030 1_565
Ca1 O1 2.332061 1_555
Ca1 O5 2.352887 1_555
Ca1 O35 2.377482 1_555
Ca1 O26 2.391783 1_555
Ca1 O29 2.404070 1_565
Ca1 O25 2.457979 1_565
Ca2 O2 2.335066 1_555
Ca2 O6 2.351116 1_555
Ca2 O32 2.379319 1_555
Ca2 O25 2.392766 1_555
Ca2 O30 2.401990 1_545
Ca2 O26 2.457626 1_545
Ca3 O3 2.341747 1_555
Ca3 O7 2.365503 1_555
Ca3 O33 2.386676 1_555
Ca3 O24 2.387891 1_556
Ca3 O31 2.411041 1_545
Ca3 O27 2.454221 1_545
Ca4 O1 2.314389 1_455
Ca4 O5 2.316228 1_555
Ca4 O23 2.329525 1_555
Ca4 O29 2.372024 1_465
Ca4 O30 2.443312 1_555
Ca4 O25 2.446273 1_565
Ca5 O2 2.314703 1_655
Ca5 O6 2.318885 1_555
Ca5 O20 2.318950 1_555
Ca5 O30 2.378027 1_645
Ca5 O29 2.425301 1_555
Ca5 O26 2.446233 1_545
Ca6 O3 2.324212 1_655
Ca6 O21 2.326420 1_555
Ca6 O7 2.329766 1_555
Ca6 O31 2.378854 1_645
Ca6 O28 2.432542 1_556
Ca6 O27 2.443988 1_545
Mn0 O4 2.230432 1_555
Mn0 O0 2.242123 1_455
Mn0 O22 2.242725 1_555
Mn0 O28 2.320329 1_465
Mn0 O31 2.391024 1_554
Mn0 O24 2.419929 1_565
H0 O32 1.082980 1_555
H0 O20 1.393688 1_555
H0 Na2 2.298845 1_555
H1 O33 1.084145 1_555
H1 O21 1.395083 1_555
H1 Na3 2.298256 1_555
H2 O34 1.077024 1_555
H2 O22 1.419796 1_555
H2 Na0 2.292990 1_555
H3 O35 1.084697 1_555
H3 O23 1.394793 1_555
H3 Na1 2.299792 1_555
O0 Si8 1.623337 1_555
O1 Si9 1.612267 1_555
O2 Si10 1.612660 1_555
O3 Si11 1.613431 1_555
O4 Si11 1.635854 1_554
O5 Si10 1.626916 1_555
O6 Si9 1.626491 1_555
O7 Si8 1.626937 1_556
O8 Si4 1.641765 1_555
O8 Si0 1.657759 1_455
O9 Si5 1.643326 1_555
O9 Si1 1.660678 1_455
O10 Si6 1.642203 1_555
O10 Si2 1.660259 1_655
O11 Si7 1.643403 1_555
O11 Si3 1.662100 1_655
O12 Si4 1.671603 1_555
O12 Si8 1.694828 1_555
O13 Si5 1.662395 1_555
O13 Si9 1.687496 1_555
O14 Si6 1.660852 1_555
O14 Si10 1.686804 1_555
O15 Si7 1.663184 1_555
O15 Si11 1.691831 1_555
O16 Si0 1.678956 1_555
O16 Si8 1.685658 1_555
O17 Si1 1.677284 1_555
O17 Si9 1.688743 1_555
O18 Si2 1.680519 1_555
O18 Si10 1.691460 1_555
O19 Si3 1.672876 1_555
O19 Si11 1.682545 1_555
O20 Si0 1.618869 1_555
O21 Si1 1.616717 1_555
O22 Si2 1.625153 1_555
O23 Si3 1.621587 1_555
O24 Si4 1.619582 1_555
O25 Si5 1.617960 1_555
O26 Si6 1.617269 1_555
O27 Si7 1.616653 1_555
O28 Si0 1.632312 1_555
O29 Si1 1.627558 1_555
O30 Si2 1.628875 1_555
O31 Si3 1.629196 1_555
O32 Si4 1.653257 1_555
O33 Si5 1.650321 1_555
O34 Si6 1.652664 1_555
O35 Si7 1.652317 1_555
