# generated using pymatgen
data_KEuFeSnO6
_symmetry_space_group_name_H-M   'P 1'
_cell_length_a   5.67554949
_cell_length_b   5.67554949
_cell_length_c   5.67554949
_cell_angle_alpha   60.00000000
_cell_angle_beta   60.00000000
_cell_angle_gamma   60.00000000
_symmetry_Int_Tables_number   1
_chemical_formula_structural   KEuFeSnO6
_chemical_formula_sum   'K1 Eu1 Fe1 Sn1 O6'
_cell_volume   129.27327364
_cell_formula_units_Z   1
loop_
 _symmetry_equiv_pos_site_id
 _symmetry_equiv_pos_as_xyz
  1  'x, y, z'
loop_
 _atom_site_type_symbol
 _atom_site_label
 _atom_site_symmetry_multiplicity
 _atom_site_fract_x
 _atom_site_fract_y
 _atom_site_fract_z
 _atom_site_occupancy
  K  K0  1  0.25000000  0.25000000  0.25000000  1
  Eu  Eu0  1  0.75000000  0.75000000  0.75000000  1
  Fe  Fe0  1  -0.00000000  0.00000000  0.00000000  1
  Sn  Sn0  1  0.50000000  0.50000000  0.50000000  1
  O  O0  1  0.75549368  0.24450632  0.24450632  1
  O  O1  1  0.24450632  0.75549368  0.75549368  1
  O  O2  1  0.75549368  0.24450632  0.75549368  1
  O  O3  1  0.24450632  0.75549368  0.24450632  1
  O  O4  1  0.75549368  0.75549368  0.24450632  1
  O  O5  1  0.24450632  0.24450632  0.75549368  1
loop_
_geom_bond_atom_site_label_1
_geom_bond_atom_site_label_2
_geom_bond_distance
_geom_bond_site_symmetry_2
K0 O3 2.838117 1_555
K0 O0 2.838117 1_555
K0 O1 2.838117 1_554
K0 O2 2.838117 1_455
K0 O5 2.838117 1_555
K0 O1 2.838117 1_545
K0 O2 2.838117 1_554
K0 O4 2.838117 1_545
K0 O4 2.838117 1_455
K0 O3 2.838117 1_545
K0 O5 2.838117 1_554
K0 O0 2.838117 1_455
Eu0 O1 2.838117 1_655
Eu0 O2 2.838117 1_565
Eu0 O3 2.838117 1_556
Eu0 O0 2.838117 1_556
Eu0 O3 2.838117 1_655
Eu0 O4 2.838117 1_556
Eu0 O0 2.838117 1_565
Eu0 O5 2.838117 1_655
Eu0 O5 2.838117 1_565
Eu0 O4 2.838117 1_555
Eu0 O1 2.838117 1_555
Eu0 O2 2.838117 1_555
Fe0 O3 1.962515 1_545
Fe0 O5 1.962515 1_554
Fe0 O0 1.962515 1_455
Fe0 O4 1.962515 1_445
Fe0 O2 1.962515 1_454
Fe0 O1 1.962515 1_544
O0 Sn0 2.050704 1_555
O1 Sn0 2.050704 1_555
O2 Sn0 2.050704 1_555
O3 Sn0 2.050704 1_555
O4 Sn0 2.050704 1_555
O5 Sn0 2.050704 1_555
