# generated using pymatgen
data_ZnSi2NiO6
_symmetry_space_group_name_H-M   'P 1'
_cell_length_a   5.33790971
_cell_length_b   6.71289374
_cell_length_c   6.71152043
_cell_angle_alpha   86.24308585
_cell_angle_beta   74.89342102
_cell_angle_gamma   74.89213764
_symmetry_Int_Tables_number   1
_chemical_formula_structural   ZnSi2NiO6
_chemical_formula_sum   'Zn2 Si4 Ni2 O12'
_cell_volume   224.15625438
_cell_formula_units_Z   2
loop_
 _symmetry_equiv_pos_site_id
 _symmetry_equiv_pos_as_xyz
  1  'x, y, z'
loop_
 _atom_site_type_symbol
 _atom_site_label
 _atom_site_symmetry_multiplicity
 _atom_site_fract_x
 _atom_site_fract_y
 _atom_site_fract_z
 _atom_site_occupancy
  Zn  Zn0  1  0.74990100  0.23684700  0.76328400  1
  Zn  Zn1  1  0.25011300  0.76327200  0.23688900  1
  Si  Si0  1  0.23387500  0.21839300  0.38840300  1
  Si  Si1  1  0.26615400  0.61160100  0.78160000  1
  Si  Si2  1  0.73379300  0.38836800  0.21844100  1
  Si  Si3  1  0.76606800  0.78162700  0.61157900  1
  Ni  Ni0  1  0.75035600  0.90110700  0.09845300  1
  Ni  Ni1  1  0.24993400  0.09870200  0.90136700  1
  O  O0  1  0.47470400  0.33050500  0.38412500  1
  O  O1  1  0.02508600  0.61597400  0.66965200  1
  O  O2  1  0.52516100  0.66958100  0.61583400  1
  O  O3  1  0.97477100  0.38399800  0.33041900  1
  O  O4  1  0.12882400  0.13808700  0.62219800  1
  O  O5  1  0.37101400  0.37787000  0.86197500  1
  O  O6  1  0.87105200  0.86196500  0.37773200  1
  O  O7  1  0.62888100  0.62213400  0.13798500  1
  O  O8  1  0.85209200  0.20592100  0.04029900  1
  O  O9  1  0.64784800  0.95981300  0.79402600  1
  O  O10  1  0.35228900  0.04020300  0.20597400  1
  O  O11  1  0.14808100  0.79403400  0.95976800  1
loop_
_geom_bond_atom_site_label_1
_geom_bond_atom_site_label_2
_geom_bond_distance
_geom_bond_site_symmetry_2
Ni0 O11 2.037755 1_654
Ni0 O10 2.040201 1_565
Ni0 O6 2.115206 1_555
Ni0 O7 2.115683 1_555
Ni0 O9 2.234736 1_554
Ni0 O8 2.235669 1_565
Ni1 O8 2.038729 1_456
Ni1 O9 2.039097 1_545
Ni1 O4 2.115591 1_555
Ni1 O5 2.115885 1_555
Ni1 O11 2.235079 1_545
Ni1 O10 2.235474 1_556
O0 Si0 1.643791 1_555
O0 Si2 1.649820 1_555
O1 Si1 1.643954 1_555
O1 Si3 1.650072 1_455
O2 Si3 1.643905 1_555
O2 Si1 1.650068 1_555
O3 Si2 1.643660 1_555
O3 Si0 1.650018 1_655
O4 Si0 1.629508 1_555
O4 Zn0 1.952501 1_455
O5 Si1 1.629343 1_555
O5 Zn0 1.952222 1_555
O6 Si3 1.629818 1_555
O6 Zn1 1.952674 1_655
O7 Si2 1.629787 1_555
O7 Zn1 1.952028 1_555
O8 Si2 1.650288 1_555
O8 Zn0 2.053351 1_554
O9 Si3 1.650479 1_555
O9 Zn0 2.053540 1_565
O10 Si0 1.650414 1_555
O10 Zn1 2.053150 1_545
O11 Si1 1.650341 1_555
O11 Zn1 2.053667 1_556
