# generated using pymatgen
data_Ba6MgSc2C2(O3F7)2
_symmetry_space_group_name_H-M   'P 1'
_cell_length_a   5.96223853
_cell_length_b   8.99678844
_cell_length_c   10.90175636
_cell_angle_alpha   87.22561712
_cell_angle_beta   90.00000000
_cell_angle_gamma   90.00000000
_symmetry_Int_Tables_number   1
_chemical_formula_structural   Ba6MgSc2C2(O3F7)2
_chemical_formula_sum   'Ba6 Mg1 Sc2 C2 O6 F14'
_cell_volume   584.09566408
_cell_formula_units_Z   1
loop_
 _symmetry_equiv_pos_site_id
 _symmetry_equiv_pos_as_xyz
  1  'x, y, z'
loop_
 _atom_site_type_symbol
 _atom_site_label
 _atom_site_symmetry_multiplicity
 _atom_site_fract_x
 _atom_site_fract_y
 _atom_site_fract_z
 _atom_site_occupancy
  Ba  Ba0  1  0.25000000  0.82839360  0.58846852  1
  Ba  Ba1  1  0.75000000  0.55210052  0.77980928  1
  Ba  Ba2  1  0.25000000  0.45172435  0.22423554  1
  Ba  Ba3  1  0.75000000  0.00517738  0.87841817  1
  Ba  Ba4  1  0.25000000  0.96916722  0.17560348  1
  Ba  Ba5  1  0.75000000  0.17310965  0.40489476  1
  Mg  Mg0  1  0.25000000  0.30415884  0.93655902  1
  Sc  Sc0  1  0.25000000  0.24173164  0.65822488  1
  Sc  Sc1  1  0.75000000  0.75957412  0.29624481  1
  C  C0  1  0.25000000  0.47786283  0.52085896  1
  C  C1  1  0.75000000  0.53930899  0.47200928  1
  O  O0  1  0.25000000  0.59033701  0.44770382  1
  O  O1  1  0.75000000  0.67854893  0.50096704  1
  O  O2  1  0.25000000  0.48597997  0.64088760  1
  O  O3  1  0.25000000  0.34057732  0.48074974  1
  O  O4  1  0.75000000  0.43165624  0.55384938  1
  O  O5  1  0.75000000  0.51475312  0.35439620  1
  F  F0  1  0.48218891  0.20725532  0.22835652  1
  F  F1  1  0.25000000  0.07727356  0.94651128  1
  F  F2  1  0.75000000  0.92965097  0.12578050  1
  F  F3  1  0.51745339  0.79749605  0.78129897  1
  F  F4  1  0.47732766  0.08864285  0.61125506  1
  F  F5  1  0.49028122  0.69929086  0.19445563  1
  F  F6  1  0.01636716  0.27294381  0.79502162  1
  F  F7  1  0.48363284  0.27294381  0.79502162  1
  F  F8  1  0.02267234  0.08864285  0.61125506  1
  F  F9  1  0.98145674  0.90882799  0.37152607  1
  F  F10  1  0.98254661  0.79749605  0.78129897  1
  F  F11  1  0.01781109  0.20725532  0.22835652  1
  F  F12  1  0.00971878  0.69929086  0.19445563  1
  F  F13  1  0.51854326  0.90882799  0.37152607  1
loop_
_geom_bond_atom_site_label_1
_geom_bond_atom_site_label_2
_geom_bond_distance
_geom_bond_site_symmetry_2
Ba0 F3 2.642484 1_555
Ba0 F10 2.642484 1_455
Ba0 O0 2.694473 1_555
Ba0 F4 2.727135 1_565
Ba0 F8 2.727135 1_565
Ba0 F13 2.918056 1_555
Ba0 F9 2.918056 1_455
Ba0 O2 3.105862 1_555
Ba0 O1 3.426216 1_455
Ba0 O1 3.426216 1_555
Ba1 F10 2.607752 1_555
Ba1 F3 2.607752 1_555
Ba1 O4 2.738752 1_555
Ba1 F7 2.969358 1_555
Ba1 F6 2.969358 1_655
Ba2 F0 2.597391 1_555
Ba2 F11 2.597391 1_555
Ba2 F5 2.654932 1_555
Ba2 F12 2.654932 1_555
Ba2 O0 2.790044 1_555
Ba2 O3 2.923934 1_555
Ba3 F10 2.593461 1_545
Ba3 F3 2.593461 1_545
Ba3 F2 2.748896 1_546
Ba3 F6 2.990021 1_655
Ba3 F7 2.990021 1_555
Ba3 F1 3.147296 1_555
Ba3 F1 3.147296 1_655
Ba4 F1 2.635974 1_564
Ba4 F0 2.637186 1_565
Ba4 F11 2.637186 1_565
Ba4 F13 2.703350 1_555
Ba4 F9 2.703350 1_455
Ba4 F12 2.818084 1_555
Ba4 F5 2.818084 1_555
Ba4 F2 3.054043 1_555
Ba4 F2 3.054043 1_455
Ba5 F0 2.508138 1_555
Ba5 F11 2.508138 1_655
Ba5 F9 2.788164 1_545
Ba5 F13 2.788164 1_545
Ba5 F8 2.848880 1_655
Ba5 F4 2.848880 1_555
Ba5 O4 2.900568 1_555
Ba5 O5 3.096266 1_555
C0 O0 1.257723 1_555
C0 O2 1.314084 1_555
C0 O3 1.330046 1_555
C1 O4 1.284686 1_555
C1 O1 1.306611 1_555
C1 O5 1.311579 1_555
O1 Sc1 2.314080 1_555
O2 Sc0 2.196430 1_555
O3 Sc0 2.089903 1_555
O5 Sc1 2.262339 1_555
F1 Mg0 2.038869 1_555
F2 Sc1 2.349377 1_555
F4 Sc0 2.016062 1_555
F5 Sc1 1.995413 1_555
F6 Sc0 2.069740 1_555
F6 Mg0 2.107621 1_555
F7 Sc0 2.069740 1_555
F7 Mg0 2.107621 1_555
F8 Sc0 2.016062 1_555
F9 Sc1 2.118433 1_555
F12 Sc1 1.995413 1_455
F13 Sc1 2.118433 1_555
