# generated using pymatgen
data_KLi3GeO4
_symmetry_space_group_name_H-M   'P 1'
_cell_length_a   5.82626560
_cell_length_b   7.44158251
_cell_length_c   9.87719273
_cell_angle_alpha   83.47835182
_cell_angle_beta   76.48495525
_cell_angle_gamma   79.67700123
_symmetry_Int_Tables_number   1
_chemical_formula_structural   KLi3GeO4
_chemical_formula_sum   'K4 Li12 Ge4 O16'
_cell_volume   408.49093952
_cell_formula_units_Z   4
loop_
 _symmetry_equiv_pos_site_id
 _symmetry_equiv_pos_as_xyz
  1  'x, y, z'
loop_
 _atom_site_type_symbol
 _atom_site_label
 _atom_site_symmetry_multiplicity
 _atom_site_fract_x
 _atom_site_fract_y
 _atom_site_fract_z
 _atom_site_occupancy
  K  K0  1  0.49643459  0.11699277  0.61636298  1
  K  K1  1  0.50356541  0.88300723  0.38363702  1
  K  K2  1  0.45802103  0.35932348  0.87205181  1
  K  K3  1  0.54197897  0.64067652  0.12794819  1
  Li  Li0  1  0.97750762  0.82309467  0.11304059  1
  Li  Li1  1  0.02249238  0.17690533  0.88695941  1
  Li  Li2  1  0.30494344  0.32429964  0.35387355  1
  Li  Li3  1  0.69505656  0.67570036  0.64612645  1
  Li  Li4  1  0.92963893  0.54729538  0.87642411  1
  Li  Li5  1  0.07036107  0.45270462  0.12357589  1
  Li  Li6  1  0.03642077  0.92679318  0.62786256  1
  Li  Li7  1  0.31246869  0.05125083  0.10337119  1
  Li  Li8  1  0.69164474  0.44356667  0.39608136  1
  Li  Li9  1  0.30835526  0.55643333  0.60391864  1
  Li  Li10  1  0.96357923  0.07320682  0.37213744  1
  Li  Li11  1  0.68753131  0.94874917  0.89662881  1
  Ge  Ge0  1  0.94176721  0.29074141  0.63437945  1
  Ge  Ge1  1  0.05823279  0.70925859  0.36562055  1
  Ge  Ge2  1  0.33364062  0.79357075  0.85172872  1
  Ge  Ge3  1  0.66635938  0.20642925  0.14827128  1
  O  O0  1  0.67890382  0.21115321  0.32518804  1
  O  O1  1  0.32109618  0.78884679  0.67481196  1
  O  O2  1  0.86395436  0.33840990  0.03407761  1
  O  O3  1  0.13604564  0.66159010  0.96592239  1
  O  O4  1  0.64002690  0.70356860  0.84923179  1
  O  O5  1  0.35997310  0.29643140  0.15076821  1
  O  O6  1  0.68844070  0.43567575  0.59299928  1
  O  O7  1  0.31155930  0.56432425  0.40700072  1
  O  O8  1  0.15334733  0.89123846  0.24250989  1
  O  O9  1  0.84665267  0.10876154  0.75749011  1
  O  O10  1  0.88130599  0.82683156  0.50944828  1
  O  O11  1  0.11869401  0.17316844  0.49055172  1
  O  O12  1  0.89403442  0.60377358  0.27721869  1
  O  O13  1  0.10596558  0.39622642  0.72278131  1
  O  O14  1  0.69382340  0.98569198  0.08984798  1
  O  O15  1  0.30617660  0.01430802  0.91015202  1
loop_
_geom_bond_atom_site_label_1
_geom_bond_atom_site_label_2
_geom_bond_distance
_geom_bond_site_symmetry_2
K0 O9 2.715795 1_555
K0 O11 2.719027 1_555
K0 O6 2.763071 1_555
K0 O1 2.763702 1_545
K0 O0 2.876221 1_555
K0 O13 2.877922 1_555
K0 O10 2.912327 1_545
K0 O15 2.920546 1_555
K1 O8 2.715795 1_555
K1 O10 2.719027 1_555
K1 O7 2.763071 1_555
K1 O0 2.763702 1_565
K1 O1 2.876221 1_555
K1 O12 2.877922 1_555
K1 O11 2.912327 1_565
K1 O14 2.920546 1_555
K2 O5 2.681813 1_556
K2 O13 2.752479 1_555
K2 O3 2.754410 1_555
K2 O9 2.766332 1_555
K2 O6 2.812505 1_555
K2 O15 2.820481 1_555
K2 O4 2.910057 1_555
K2 O2 3.124030 1_556
K3 O4 2.681813 1_554
K3 O12 2.752479 1_555
K3 O2 2.754410 1_555
K3 O8 2.766332 1_555
K3 O7 2.812505 1_555
K3 O14 2.820481 1_555
K3 O5 2.910057 1_555
K3 O3 3.124030 1_554
Li0 O14 1.909347 1_555
Li0 O3 1.944395 1_654
Li0 O8 1.971771 1_655
Li0 O12 2.201037 1_555
Li1 O15 1.909347 1_555
Li1 O2 1.944395 1_456
Li1 O9 1.971771 1_455
Li1 O13 2.201037 1_555
Li2 O11 1.916417 1_555
Li2 O7 1.927242 1_555
Li2 O5 1.985026 1_555
Li2 O0 2.155118 1_555
Li3 O10 1.916417 1_555
Li3 O6 1.927242 1_555
Li3 O4 1.985026 1_555
Li3 O1 2.155118 1_555
Li4 O4 1.925955 1_555
Li4 O13 1.966501 1_655
Li4 O3 1.996321 1_655
Li4 O2 2.091016 1_556
Li5 O5 1.925955 1_555
Li5 O12 1.966501 1_455
Li5 O2 1.996321 1_455
Li5 O3 2.091016 1_554
Li6 O1 1.913352 1_555
Li6 O10 1.915902 1_455
Li6 O9 1.972568 1_465
Li6 O11 2.208365 1_565
Li7 O8 1.895905 1_545
Li7 O15 1.968412 1_554
Li7 O5 2.015007 1_555
Li7 O14 2.163371 1_545
Li8 O12 1.931049 1_555
Li8 O6 1.935016 1_555
Li8 O0 1.957675 1_555
Li8 O7 2.218166 1_555
Li9 O13 1.931049 1_555
Li9 O7 1.935016 1_555
Li9 O1 1.957675 1_555
Li9 O6 2.218166 1_555
Li10 O0 1.913352 1_555
Li10 O11 1.915902 1_655
Li10 O8 1.972568 1_645
Li10 O10 2.208365 1_545
Li11 O9 1.895905 1_565
Li11 O14 1.968412 1_556
Li11 O4 2.015007 1_555
Li11 O15 2.163371 1_565
Ge0 O13 1.763255 1_655
Ge0 O6 1.766361 1_555
Ge0 O11 1.766603 1_655
Ge0 O9 1.788733 1_555
Ge1 O12 1.763255 1_455
Ge1 O7 1.766361 1_555
Ge1 O10 1.766603 1_455
Ge1 O8 1.788733 1_555
Ge2 O3 1.763186 1_555
Ge2 O1 1.770507 1_555
Ge2 O15 1.770540 1_565
Ge2 O4 1.786172 1_555
Ge3 O2 1.763186 1_555
Ge3 O0 1.770507 1_555
Ge3 O14 1.770540 1_545
Ge3 O5 1.786172 1_555
