# generated using pymatgen
data_Ca(VS2)2
_symmetry_space_group_name_H-M   'P 1'
_cell_length_a   7.51047952
_cell_length_b   7.51047952
_cell_length_c   7.51047952
_cell_angle_alpha   60.00000000
_cell_angle_beta   60.00000000
_cell_angle_gamma   60.00000000
_symmetry_Int_Tables_number   1
_chemical_formula_structural   Ca(VS2)2
_chemical_formula_sum   'Ca2 V4 S8'
_cell_volume   299.56288267
_cell_formula_units_Z   2
loop_
 _symmetry_equiv_pos_site_id
 _symmetry_equiv_pos_as_xyz
  1  'x, y, z'
loop_
 _atom_site_type_symbol
 _atom_site_label
 _atom_site_symmetry_multiplicity
 _atom_site_fract_x
 _atom_site_fract_y
 _atom_site_fract_z
 _atom_site_occupancy
  Ca  Ca0  1  0.25000000  0.25000000  0.25000000  1
  Ca  Ca1  1  0.00000000  0.00000000  0.00000000  1
  V  V0  1  0.62500000  0.12500000  0.62500000  1
  V  V1  1  0.62500000  0.62500000  0.12500000  1
  V  V2  1  0.12500000  0.62500000  0.62500000  1
  V  V3  1  0.62500000  0.62500000  0.62500000  1
  S  S0  1  0.39285400  0.82143900  0.39285400  1
  S  S1  1  0.85714600  0.85714600  0.42856100  1
  S  S2  1  0.85714600  0.85714600  0.85714600  1
  S  S3  1  0.42856100  0.85714600  0.85714600  1
  S  S4  1  0.39285400  0.39285400  0.39285400  1
  S  S5  1  0.82143900  0.39285400  0.39285400  1
  S  S6  1  0.85714600  0.42856100  0.85714600  1
  S  S7  1  0.39285400  0.39285400  0.82143900  1
loop_
_geom_bond_atom_site_label_1
_geom_bond_atom_site_label_2
_geom_bond_distance
_geom_bond_site_symmetry_2
Ca0 S7 2.628056 1_554
Ca0 S0 2.628056 1_545
Ca0 S5 2.628056 1_455
Ca0 S4 2.628063 1_555
Ca1 S1 2.628056 1_445
Ca1 S3 2.628056 1_544
Ca1 S6 2.628056 1_454
Ca1 S2 2.628063 1_444
S0 V3 2.480261 1_555
S0 V1 2.480267 1_555
S0 V2 2.480267 1_555
S1 V3 2.480261 1_555
S1 V0 2.480267 1_565
S1 V2 2.480267 1_655
S2 V0 2.480262 1_565
S2 V1 2.480262 1_556
S2 V2 2.480262 1_655
S3 V3 2.480261 1_555
S3 V1 2.480267 1_556
S3 V0 2.480267 1_565
S4 V0 2.480262 1_555
S4 V1 2.480262 1_555
S4 V2 2.480262 1_555
S5 V3 2.480261 1_555
S5 V0 2.480267 1_555
S5 V1 2.480267 1_555
S6 V3 2.480261 1_555
S6 V1 2.480267 1_556
S6 V2 2.480267 1_655
S7 V3 2.480261 1_555
S7 V0 2.480267 1_555
S7 V2 2.480267 1_555
