# generated using pymatgen
data_CaNd2Mn3O9
_symmetry_space_group_name_H-M   'P 1'
_cell_length_a   5.49571000
_cell_length_b   7.69655600
_cell_length_c   16.74955700
_cell_angle_alpha   90.00000000
_cell_angle_beta   90.00000000
_cell_angle_gamma   90.00000000
_symmetry_Int_Tables_number   1
_chemical_formula_structural   CaNd2Mn3O9
_chemical_formula_sum   'Ca4 Nd8 Mn12 O36'
_cell_volume   708.47342820
_cell_formula_units_Z   4
loop_
 _symmetry_equiv_pos_site_id
 _symmetry_equiv_pos_as_xyz
  1  'x, y, z'
loop_
 _atom_site_type_symbol
 _atom_site_label
 _atom_site_symmetry_multiplicity
 _atom_site_fract_x
 _atom_site_fract_y
 _atom_site_fract_z
 _atom_site_occupancy
  Ca  Ca0  1  0.00888900  0.75000000  0.34815400  1
  Ca  Ca1  1  0.49111100  0.75000000  0.84815400  1
  Ca  Ca2  1  0.99111100  0.25000000  0.65184600  1
  Ca  Ca3  1  0.50888900  0.25000000  0.15184600  1
  Nd  Nd0  1  0.01225600  0.75000000  0.68236500  1
  Nd  Nd1  1  0.00820200  0.75000000  0.01391000  1
  Nd  Nd2  1  0.48774400  0.75000000  0.18236500  1
  Nd  Nd3  1  0.49179800  0.75000000  0.51391000  1
  Nd  Nd4  1  0.98774400  0.25000000  0.31763500  1
  Nd  Nd5  1  0.99179800  0.25000000  0.98609000  1
  Nd  Nd6  1  0.50820200  0.25000000  0.48609000  1
  Nd  Nd7  1  0.51225600  0.25000000  0.81763500  1
  Mn  Mn0  1  0.49838400  0.50146600  0.33296200  1
  Mn  Mn1  1  0.50161600  0.49853400  0.66703800  1
  Mn  Mn2  1  0.50000000  0.50000000  0.00000000  1
  Mn  Mn3  1  0.00000000  0.00000000  0.50000000  1
  Mn  Mn4  1  0.00161600  0.99853400  0.83296200  1
  Mn  Mn5  1  0.99838400  0.00146600  0.16703800  1
  Mn  Mn6  1  0.49838400  0.99853400  0.33296200  1
  Mn  Mn7  1  0.50161600  0.00146600  0.66703800  1
  Mn  Mn8  1  0.50000000  0.00000000  0.00000000  1
  Mn  Mn9  1  0.99838400  0.49853400  0.16703800  1
  Mn  Mn10  1  0.00000000  0.50000000  0.50000000  1
  Mn  Mn11  1  0.00161600  0.50146600  0.83296200  1
  O  O0  1  0.29078300  0.53745900  0.43100400  1
  O  O1  1  0.28851300  0.54397400  0.76323600  1
  O  O2  1  0.28208300  0.54624100  0.09560600  1
  O  O3  1  0.21148700  0.95602600  0.26323600  1
  O  O4  1  0.21791700  0.95375900  0.59560600  1
  O  O5  1  0.20921700  0.96254100  0.93100400  1
  O  O6  1  0.71148700  0.04397400  0.23676400  1
  O  O7  1  0.70921700  0.03745900  0.56899600  1
  O  O8  1  0.71791700  0.04624100  0.90439400  1
  O  O9  1  0.78208300  0.45375900  0.40439400  1
  O  O10  1  0.78851300  0.45602600  0.73676400  1
  O  O11  1  0.79078300  0.46254100  0.06899600  1
  O  O12  1  0.71148700  0.45602600  0.23676400  1
  O  O13  1  0.70921700  0.46254100  0.56899600  1
  O  O14  1  0.71791700  0.45375900  0.90439400  1
  O  O15  1  0.78208300  0.04624100  0.40439400  1
  O  O16  1  0.78851300  0.04397400  0.73676400  1
  O  O17  1  0.79078300  0.03745900  0.06899600  1
  O  O18  1  0.29078300  0.96254100  0.43100400  1
  O  O19  1  0.28851300  0.95602600  0.76323600  1
  O  O20  1  0.28208300  0.95375900  0.09560600  1
  O  O21  1  0.21148700  0.54397400  0.26323600  1
  O  O22  1  0.21791700  0.54624100  0.59560600  1
  O  O23  1  0.20921700  0.53745900  0.93100400  1
  O  O24  1  0.92186400  0.75000000  0.49440000  1
  O  O25  1  0.91673500  0.75000000  0.82652500  1
  O  O26  1  0.91667000  0.75000000  0.15865800  1
  O  O27  1  0.58326500  0.75000000  0.32652500  1
  O  O28  1  0.58333000  0.75000000  0.65865800  1
  O  O29  1  0.57813600  0.75000000  0.99440000  1
  O  O30  1  0.08326500  0.25000000  0.17347500  1
  O  O31  1  0.07813600  0.25000000  0.50560000  1
  O  O32  1  0.08333000  0.25000000  0.84134200  1
  O  O33  1  0.41667000  0.25000000  0.34134200  1
  O  O34  1  0.41673500  0.25000000  0.67347500  1
  O  O35  1  0.42186400  0.25000000  0.00560000  1
loop_
_geom_bond_atom_site_label_1
_geom_bond_atom_site_label_2
_geom_bond_distance
_geom_bond_site_symmetry_2
Ca0 O27 2.366994 1_455
Ca0 O3 2.403574 1_555
Ca0 O21 2.403574 1_555
Ca0 O24 2.495808 1_455
Ca0 O18 2.646074 1_555
Ca0 O0 2.646074 1_555
Ca0 O15 2.763979 1_465
Ca0 O9 2.763979 1_455
Ca1 O25 2.366994 1_555
Ca1 O19 2.403574 1_555
Ca1 O1 2.403574 1_555
Ca1 O29 2.495808 1_555
Ca1 O23 2.646074 1_555
Ca1 O5 2.646074 1_555
Ca1 O8 2.763979 1_565
Ca1 O14 2.763979 1_555
Ca2 O34 2.366994 1_655
Ca2 O10 2.403574 1_555
Ca2 O16 2.403574 1_555
Ca2 O31 2.495808 1_655
Ca2 O7 2.646074 1_555
Ca2 O13 2.646074 1_555
Ca2 O22 2.763979 1_655
Ca2 O4 2.763979 1_645
Ca3 O30 2.366994 1_555
Ca3 O12 2.403574 1_555
Ca3 O6 2.403574 1_555
Ca3 O35 2.495808 1_555
Ca3 O17 2.646074 1_555
Ca3 O11 2.646074 1_555
Ca3 O2 2.763979 1_555
Ca3 O20 2.763979 1_545
Nd0 O28 2.390463 1_455
Nd0 O4 2.418383 1_555
Nd0 O22 2.418383 1_555
Nd0 O25 2.471022 1_455
Nd0 O19 2.579583 1_555
Nd0 O1 2.579583 1_555
Nd0 O16 2.731574 1_465
Nd0 O10 2.731574 1_455
Nd1 O29 2.386002 1_454
Nd1 O23 2.413437 1_554
Nd1 O5 2.413437 1_554
Nd1 O26 2.476100 1_455
Nd1 O20 2.568534 1_555
Nd1 O2 2.568534 1_555
Nd1 O17 2.678421 1_465
Nd1 O11 2.678421 1_455
Nd2 O26 2.390463 1_555
Nd2 O20 2.418383 1_555
Nd2 O2 2.418383 1_555
Nd2 O27 2.471022 1_555
Nd2 O3 2.579583 1_555
Nd2 O21 2.579583 1_555
Nd2 O6 2.731574 1_565
Nd2 O12 2.731574 1_555
Nd3 O24 2.386002 1_555
Nd3 O0 2.413437 1_555
Nd3 O18 2.413437 1_555
Nd3 O28 2.476100 1_555
Nd3 O4 2.568534 1_555
Nd3 O22 2.568534 1_555
Nd3 O7 2.678421 1_565
Nd3 O13 2.678421 1_555
Nd4 O33 2.390463 1_655
Nd4 O9 2.418383 1_555
Nd4 O15 2.418383 1_555
Nd4 O30 2.471022 1_655
Nd4 O6 2.579583 1_555
Nd4 O12 2.579583 1_555
Nd4 O21 2.731574 1_655
Nd4 O3 2.731574 1_645
Nd5 O35 2.386002 1_656
Nd5 O17 2.413437 1_556
Nd5 O11 2.413437 1_556
Nd5 O32 2.476100 1_655
Nd5 O14 2.568534 1_555
Nd5 O8 2.568534 1_555
Nd5 O23 2.678421 1_655
Nd5 O5 2.678421 1_645
Nd6 O31 2.386002 1_555
Nd6 O7 2.413437 1_555
Nd6 O13 2.413437 1_555
Nd6 O33 2.476100 1_555
Nd6 O9 2.568534 1_555
Nd6 O15 2.568534 1_555
Nd6 O18 2.678421 1_545
Nd6 O0 2.678421 1_555
Nd7 O32 2.390463 1_555
Nd7 O14 2.418383 1_555
Nd7 O8 2.418383 1_555
Nd7 O34 2.471022 1_555
Nd7 O10 2.579583 1_555
Nd7 O16 2.579583 1_555
Nd7 O1 2.731574 1_555
Nd7 O19 2.731574 1_545
Mn0 O27 1.971864 1_555
Mn0 O21 1.989214 1_555
Mn0 O33 1.991791 1_555
Mn0 O9 1.999300 1_555
Mn0 O0 2.018692 1_555
Mn0 O12 2.022403 1_555
Mn1 O34 1.971864 1_555
Mn1 O10 1.989214 1_555
Mn1 O28 1.991791 1_555
Mn1 O22 1.999300 1_555
Mn1 O13 2.018692 1_555
Mn1 O1 2.022403 1_555
Mn2 O29 1.973703 1_554
Mn2 O35 1.973703 1_555
Mn2 O11 1.993099 1_555
Mn2 O23 1.993099 1_554
Mn2 O2 2.031078 1_555
Mn2 O14 2.031078 1_554
Mn3 O31 1.973703 1_555
Mn3 O24 1.973703 1_445
Mn3 O7 1.993099 1_455
Mn3 O18 1.993099 1_545
Mn3 O15 2.031078 1_455
Mn3 O4 2.031078 1_545
Mn4 O25 1.971864 1_455
Mn4 O19 1.989214 1_555
Mn4 O32 1.991791 1_565
Mn4 O8 1.999300 1_465
Mn4 O5 2.018692 1_555
Mn4 O16 2.022403 1_465
Mn5 O30 1.971864 1_655
Mn5 O6 1.989214 1_555
Mn5 O26 1.991791 1_545
Mn5 O20 1.999300 1_645
Mn5 O17 2.018692 1_555
Mn5 O3 2.022403 1_645
Mn6 O27 1.971864 1_555
Mn6 O3 1.989214 1_555
Mn6 O33 1.991791 1_565
Mn6 O15 1.999300 1_565
Mn6 O18 2.018692 1_555
Mn6 O6 2.022403 1_565
Mn7 O34 1.971864 1_555
Mn7 O16 1.989214 1_555
Mn7 O28 1.991791 1_545
Mn7 O4 1.999300 1_545
Mn7 O7 2.018692 1_555
Mn7 O19 2.022403 1_545
Mn8 O29 1.973703 1_544
Mn8 O35 1.973703 1_555
Mn8 O17 1.993099 1_555
Mn8 O5 1.993099 1_544
Mn8 O20 2.031078 1_545
Mn8 O8 2.031078 1_554
Mn9 O30 1.971864 1_655
Mn9 O12 1.989214 1_555
Mn9 O26 1.991791 1_555
Mn9 O2 1.999300 1_655
Mn9 O11 2.018692 1_555
Mn9 O21 2.022403 1_655
Mn10 O31 1.973703 1_555
Mn10 O24 1.973703 1_455
Mn10 O13 1.993099 1_455
Mn10 O0 1.993099 1_555
Mn10 O22 2.031078 1_555
Mn10 O9 2.031078 1_455
Mn11 O25 1.971864 1_455
Mn11 O1 1.989214 1_555
Mn11 O32 1.991791 1_555
Mn11 O14 1.999300 1_455
Mn11 O23 2.018692 1_555
Mn11 O10 2.022403 1_455
