# generated using pymatgen
data_Zn12SiNi4
_symmetry_space_group_name_H-M   'P 1'
_cell_length_a   22.62294329
_cell_length_b   22.62294329
_cell_length_c   22.62294329
_cell_angle_alpha   60.00000000
_cell_angle_beta   60.00000000
_cell_angle_gamma   60.00000000
_symmetry_Int_Tables_number   1
_chemical_formula_structural   Zn12SiNi4
_chemical_formula_sum   'Zn24 Si2 Ni8'
_cell_volume   8187.14199357
_cell_formula_units_Z   2
loop_
 _symmetry_equiv_pos_site_id
 _symmetry_equiv_pos_as_xyz
  1  'x, y, z'
loop_
 _atom_site_type_symbol
 _atom_site_label
 _atom_site_symmetry_multiplicity
 _atom_site_fract_x
 _atom_site_fract_y
 _atom_site_fract_z
 _atom_site_occupancy
  Zn  Zn0  1  0.56028554  0.56028554  0.18998883  1
  Zn  Zn1  1  0.68944008  0.18998883  0.56028554  1
  Zn  Zn2  1  0.18998883  0.68944008  0.56028554  1
  Zn  Zn3  1  0.56028554  0.18998883  0.56028554  1
  Zn  Zn4  1  0.06055992  0.18971446  0.56001117  1
  Zn  Zn5  1  0.18971446  0.18971446  0.56001117  1
  Zn  Zn6  1  0.56028554  0.56028554  0.68944008  1
  Zn  Zn7  1  0.18998883  0.56028554  0.68944008  1
  Zn  Zn8  1  0.18971446  0.56001117  0.18971446  1
  Zn  Zn9  1  0.06055992  0.56001117  0.18971446  1
  Zn  Zn10  1  0.68944008  0.56028554  0.18998883  1
  Zn  Zn11  1  0.18971446  0.06055992  0.18971446  1
  Zn  Zn12  1  0.56001117  0.06055992  0.18971446  1
  Zn  Zn13  1  0.56028554  0.68944008  0.56028554  1
  Zn  Zn14  1  0.56001117  0.18971446  0.06055992  1
  Zn  Zn15  1  0.18971446  0.18971446  0.06055992  1
  Zn  Zn16  1  0.18998883  0.56028554  0.56028554  1
  Zn  Zn17  1  0.56028554  0.18998883  0.68944008  1
  Zn  Zn18  1  0.68944008  0.56028554  0.56028554  1
  Zn  Zn19  1  0.56028554  0.68944008  0.18998883  1
  Zn  Zn20  1  0.18971446  0.56001117  0.06055992  1
  Zn  Zn21  1  0.56001117  0.18971446  0.18971446  1
  Zn  Zn22  1  0.18971446  0.06055992  0.56001117  1
  Zn  Zn23  1  0.06055992  0.18971446  0.18971446  1
  Si  Si0  1  -0.00000000  -0.00000000  0.00000000  1
  Si  Si1  1  0.75000000  0.75000000  0.75000000  1
  Ni  Ni0  1  0.78786529  0.78786529  0.78786529  1
  Ni  Ni1  1  0.63640414  0.78786529  0.78786529  1
  Ni  Ni2  1  0.78786529  0.63640414  0.78786529  1
  Ni  Ni3  1  0.11359586  0.96213471  0.96213471  1
  Ni  Ni4  1  0.96213471  0.96213471  0.96213471  1
  Ni  Ni5  1  0.78786529  0.78786529  0.63640414  1
  Ni  Ni6  1  0.96213471  0.11359586  0.96213471  1
  Ni  Ni7  1  0.96213471  0.96213471  0.11359586  1
loop_
_geom_bond_atom_site_label_1
_geom_bond_atom_site_label_2
_geom_bond_distance
_geom_bond_site_symmetry_2
Zn0 Zn19 2.921856 1_555
Zn0 Zn10 2.921856 1_555
Zn1 Zn3 2.921856 1_555
Zn1 Zn17 2.921856 1_555
Zn2 Zn7 2.921856 1_555
Zn4 Zn5 2.921856 1_555
Zn8 Zn9 2.921856 1_555
Zn10 Zn19 2.921856 1_555
Zn11 Zn23 2.921856 1_555
Zn11 Zn15 2.921856 1_555
Zn12 Zn21 2.921856 1_555
Zn12 Zn14 2.921856 1_555
Zn13 Zn6 2.921856 1_555
Zn13 Zn18 2.921856 1_555
Zn14 Zn21 2.921856 1_555
Zn15 Zn23 2.921856 1_555
Zn16 Zn7 2.921856 1_555
Zn16 Zn2 2.921856 1_555
Zn17 Zn3 2.921856 1_555
Zn18 Zn6 2.921856 1_555
Zn20 Zn8 2.921856 1_555
Zn20 Zn9 2.921856 1_555
Zn22 Zn5 2.921856 1_555
Zn22 Zn4 2.921856 1_555
Ni0 Si1 2.098292 1_555
Ni1 Si1 2.098292 1_555
Ni2 Si1 2.098292 1_555
Ni3 Si0 2.098292 1_566
Ni4 Si0 2.098292 1_666
Ni5 Si1 2.098292 1_555
Ni6 Si0 2.098292 1_656
Ni7 Si0 2.098292 1_665
