# generated using pymatgen
data_Mg2Zn
_symmetry_space_group_name_H-M   'P 1'
_cell_length_a   5.13246511
_cell_length_b   5.13246511
_cell_length_c   5.92139090
_cell_angle_alpha   61.97817326
_cell_angle_beta   61.97817326
_cell_angle_gamma   60.27139870
_symmetry_Int_Tables_number   1
_chemical_formula_structural   Mg2Zn
_chemical_formula_sum   'Mg4 Zn2'
_cell_volume   113.72373733
_cell_formula_units_Z   2
loop_
 _symmetry_equiv_pos_site_id
 _symmetry_equiv_pos_as_xyz
  1  'x, y, z'
loop_
 _atom_site_type_symbol
 _atom_site_label
 _atom_site_symmetry_multiplicity
 _atom_site_fract_x
 _atom_site_fract_y
 _atom_site_fract_z
 _atom_site_occupancy
  Mg  Mg0  1  0.23912490  0.41954395  0.75024997  1
  Mg  Mg1  1  0.58045605  0.76087510  0.74975003  1
  Mg  Mg2  1  0.41954395  0.23912490  0.25024997  1
  Mg  Mg3  1  0.76087510  0.58045605  0.24975003  1
  Zn  Zn0  1  0.08261507  0.91738493  0.25000000  1
  Zn  Zn1  1  0.91738493  0.08261507  0.75000000  1
loop_
_geom_bond_atom_site_label_1
_geom_bond_atom_site_label_2
_geom_bond_distance
_geom_bond_site_symmetry_2
Mg0 Zn1 2.924736 1_455
Mg0 Mg1 2.937397 1_455
Mg0 Mg1 2.937397 1_545
Mg0 Zn0 2.949276 1_546
Mg0 Zn1 2.955087 1_465
Mg0 Mg3 2.986360 1_456
Mg0 Zn0 3.006145 1_555
Mg0 Mg3 3.012116 1_555
Mg0 Zn1 3.022571 1_555
Mg0 Mg1 3.028563 1_555
Mg0 Mg2 3.103261 1_555
Mg0 Mg2 3.103261 1_556
Mg1 Zn1 2.924736 1_565
Mg1 Zn0 2.949276 1_655
Mg1 Zn1 2.955087 1_465
Mg1 Mg2 2.986360 1_565
Mg1 Zn0 3.006145 1_556
Mg1 Mg2 3.012116 1_556
Mg1 Zn1 3.022571 1_555
Mg1 Mg3 3.103261 1_555
Mg1 Mg3 3.103261 1_556
Mg2 Zn0 2.924736 1_545
Mg2 Mg3 2.937397 1_455
Mg2 Mg3 2.937397 1_545
Mg2 Zn1 2.949276 1_455
Mg2 Zn0 2.955087 1_645
Mg2 Zn1 3.006145 1_554
Mg2 Zn0 3.022571 1_555
Mg2 Mg3 3.028563 1_555
Mg3 Zn0 2.924736 1_655
Mg3 Zn1 2.949276 1_564
Mg3 Zn0 2.955087 1_645
Mg3 Zn1 3.006145 1_555
Mg3 Zn0 3.022571 1_555
