# generated using pymatgen
data_Mg30NbSnO32
_symmetry_space_group_name_H-M   'P 1'
_cell_length_a   8.61866400
_cell_length_b   8.61866400
_cell_length_c   8.67771200
_cell_angle_alpha   90.00000000
_cell_angle_beta   90.00000000
_cell_angle_gamma   90.00000000
_symmetry_Int_Tables_number   1
_chemical_formula_structural   Mg30NbSnO32
_chemical_formula_sum   'Mg30 Nb1 Sn1 O32'
_cell_volume   644.59232841
_cell_formula_units_Z   1
loop_
 _symmetry_equiv_pos_site_id
 _symmetry_equiv_pos_as_xyz
  1  'x, y, z'
loop_
 _atom_site_type_symbol
 _atom_site_label
 _atom_site_symmetry_multiplicity
 _atom_site_fract_x
 _atom_site_fract_y
 _atom_site_fract_z
 _atom_site_occupancy
  Mg  Mg0  1  0.00000000  0.50000000  0.00000000  1
  Mg  Mg1  1  0.00000000  0.50000000  0.50000000  1
  Mg  Mg2  1  0.50000000  0.00000000  0.00000000  1
  Mg  Mg3  1  0.50000000  0.00000000  0.50000000  1
  Mg  Mg4  1  0.50000000  0.50000000  0.00000000  1
  Mg  Mg5  1  0.50000000  0.50000000  0.50000000  1
  Mg  Mg6  1  0.00000000  0.25585800  0.25166400  1
  Mg  Mg7  1  0.00000000  0.25585800  0.74833600  1
  Mg  Mg8  1  0.00000000  0.74414200  0.25166400  1
  Mg  Mg9  1  0.00000000  0.74414200  0.74833600  1
  Mg  Mg10  1  0.50000000  0.25022100  0.25000100  1
  Mg  Mg11  1  0.50000000  0.25022100  0.74999900  1
  Mg  Mg12  1  0.50000000  0.74977900  0.25000100  1
  Mg  Mg13  1  0.50000000  0.74977900  0.74999900  1
  Mg  Mg14  1  0.25585800  0.00000000  0.25166400  1
  Mg  Mg15  1  0.25585800  0.00000000  0.74833600  1
  Mg  Mg16  1  0.25022100  0.50000000  0.25000100  1
  Mg  Mg17  1  0.25022100  0.50000000  0.74999900  1
  Mg  Mg18  1  0.74414200  0.00000000  0.25166400  1
  Mg  Mg19  1  0.74414200  0.00000000  0.74833600  1
  Mg  Mg20  1  0.74977900  0.50000000  0.25000100  1
  Mg  Mg21  1  0.74977900  0.50000000  0.74999900  1
  Mg  Mg22  1  0.25369200  0.25369200  0.00000000  1
  Mg  Mg23  1  0.25187200  0.25187200  0.50000000  1
  Mg  Mg24  1  0.25369200  0.74630800  0.00000000  1
  Mg  Mg25  1  0.25187200  0.74812800  0.50000000  1
  Mg  Mg26  1  0.74630800  0.25369200  0.00000000  1
  Mg  Mg27  1  0.74812800  0.25187200  0.50000000  1
  Mg  Mg28  1  0.74630800  0.74630800  0.00000000  1
  Mg  Mg29  1  0.74812800  0.74812800  0.50000000  1
  Nb  Nb0  1  0.00000000  0.00000000  0.50000000  1
  Sn  Sn0  1  0.00000000  0.00000000  0.00000000  1
  O  O0  1  0.27147800  0.00000000  0.00000000  1
  O  O1  1  0.26276400  0.00000000  0.50000000  1
  O  O2  1  0.25319800  0.50000000  0.00000000  1
  O  O3  1  0.25166600  0.50000000  0.50000000  1
  O  O4  1  0.72852200  0.00000000  0.00000000  1
  O  O5  1  0.73723600  0.00000000  0.50000000  1
  O  O6  1  0.74680200  0.50000000  0.00000000  1
  O  O7  1  0.74833400  0.50000000  0.50000000  1
  O  O8  1  0.24923400  0.24923400  0.25012800  1
  O  O9  1  0.24923400  0.24923400  0.74987200  1
  O  O10  1  0.24923400  0.75076600  0.25012800  1
  O  O11  1  0.24923400  0.75076600  0.74987200  1
  O  O12  1  0.75076600  0.24923400  0.25012800  1
  O  O13  1  0.75076600  0.24923400  0.74987200  1
  O  O14  1  0.75076600  0.75076600  0.25012800  1
  O  O15  1  0.75076600  0.75076600  0.74987200  1
  O  O16  1  0.00000000  0.00000000  0.25455100  1
  O  O17  1  0.00000000  0.00000000  0.74544900  1
  O  O18  1  0.00000000  0.50000000  0.25199900  1
  O  O19  1  0.00000000  0.50000000  0.74800100  1
  O  O20  1  0.50000000  0.00000000  0.25199900  1
  O  O21  1  0.50000000  0.00000000  0.74800100  1
  O  O22  1  0.50000000  0.50000000  0.25044800  1
  O  O23  1  0.50000000  0.50000000  0.74955200  1
  O  O24  1  0.00000000  0.27147800  0.00000000  1
  O  O25  1  0.00000000  0.26276400  0.50000000  1
  O  O26  1  0.00000000  0.72852200  0.00000000  1
  O  O27  1  0.00000000  0.73723600  0.50000000  1
  O  O28  1  0.50000000  0.25319800  0.00000000  1
  O  O29  1  0.50000000  0.25166600  0.50000000  1
  O  O30  1  0.50000000  0.74680200  0.00000000  1
  O  O31  1  0.50000000  0.74833400  0.50000000  1
loop_
_geom_bond_atom_site_label_1
_geom_bond_atom_site_label_2
_geom_bond_distance
_geom_bond_site_symmetry_2
Mg0 O26 1.969554 1_555
Mg0 O24 1.969554 1_555
Mg0 O2 2.182228 1_555
Mg0 O6 2.182228 1_455
Mg0 O18 2.186775 1_555
Mg0 O19 2.186775 1_554
Mg1 O27 2.044657 1_555
Mg1 O25 2.044657 1_555
Mg1 O18 2.152081 1_555
Mg1 O19 2.152081 1_555
Mg1 O7 2.169025 1_455
Mg1 O3 2.169025 1_555
Mg2 O4 1.969554 1_555
Mg2 O0 1.969554 1_555
Mg2 O28 2.182228 1_555
Mg2 O30 2.182228 1_545
Mg2 O21 2.186775 1_554
Mg2 O20 2.186775 1_555
Mg3 O1 2.044657 1_555
Mg3 O5 2.044657 1_555
Mg3 O21 2.152081 1_555
Mg3 O20 2.152081 1_555
Mg3 O31 2.169025 1_545
Mg3 O29 2.169025 1_555
Mg4 O6 2.127104 1_555
Mg4 O30 2.127104 1_555
Mg4 O2 2.127104 1_555
Mg4 O28 2.127104 1_555
Mg4 O23 2.173316 1_554
Mg4 O22 2.173316 1_555
Mg5 O3 2.140307 1_555
Mg5 O29 2.140307 1_555
Mg5 O7 2.140307 1_555
Mg5 O31 2.140307 1_555
Mg5 O22 2.165540 1_555
Mg5 O23 2.165540 1_555
Mg6 O18 2.104180 1_555
Mg6 O12 2.148864 1_455
Mg6 O8 2.148864 1_555
Mg6 O25 2.155810 1_555
Mg6 O24 2.188013 1_555
Mg6 O16 2.205296 1_555
Mg7 O19 2.104180 1_555
Mg7 O13 2.148864 1_455
Mg7 O9 2.148864 1_555
Mg7 O25 2.155810 1_555
Mg7 O24 2.188013 1_556
Mg7 O17 2.205296 1_555
Mg8 O18 2.104180 1_555
Mg8 O14 2.148864 1_455
Mg8 O10 2.148864 1_555
Mg8 O27 2.155810 1_555
Mg8 O26 2.188013 1_555
Mg8 O16 2.205296 1_565
Mg9 O19 2.104180 1_555
Mg9 O15 2.148864 1_455
Mg9 O11 2.148864 1_555
Mg9 O27 2.155810 1_555
Mg9 O26 2.188013 1_556
Mg9 O17 2.205296 1_565
Mg10 O22 2.152765 1_555
Mg10 O20 2.156640 1_555
Mg10 O8 2.161285 1_555
Mg10 O12 2.161285 1_555
Mg10 O29 2.169455 1_555
Mg10 O28 2.169588 1_555
Mg11 O23 2.152765 1_555
Mg11 O21 2.156640 1_555
Mg11 O9 2.161285 1_555
Mg11 O13 2.161285 1_555
Mg11 O29 2.169455 1_555
Mg11 O28 2.169588 1_556
Mg12 O22 2.152765 1_555
Mg12 O20 2.156640 1_565
Mg12 O10 2.161285 1_555
Mg12 O14 2.161285 1_555
Mg12 O31 2.169455 1_555
Mg12 O30 2.169588 1_555
Mg13 O23 2.152765 1_555
Mg13 O21 2.156640 1_565
Mg13 O11 2.161285 1_555
Mg13 O15 2.161285 1_555
Mg13 O31 2.169455 1_555
Mg13 O30 2.169588 1_556
Mg14 O20 2.104180 1_555
Mg14 O10 2.148864 1_545
Mg14 O8 2.148864 1_555
Mg14 O1 2.155810 1_555
Mg14 O0 2.188013 1_555
Mg14 O16 2.205296 1_555
Mg15 O21 2.104180 1_555
Mg15 O11 2.148864 1_545
Mg15 O9 2.148864 1_555
Mg15 O1 2.155810 1_555
Mg15 O0 2.188013 1_556
Mg15 O17 2.205296 1_555
Mg16 O22 2.152765 1_555
Mg16 O18 2.156640 1_555
Mg16 O8 2.161285 1_555
Mg16 O10 2.161285 1_555
Mg16 O3 2.169455 1_555
Mg16 O2 2.169588 1_555
Mg17 O23 2.152765 1_555
Mg17 O19 2.156640 1_555
Mg17 O9 2.161285 1_555
Mg17 O11 2.161285 1_555
Mg17 O3 2.169455 1_555
Mg17 O2 2.169588 1_556
Mg18 O20 2.104180 1_555
Mg18 O14 2.148864 1_545
Mg18 O12 2.148864 1_555
Mg18 O5 2.155810 1_555
Mg18 O4 2.188013 1_555
Mg18 O16 2.205296 1_655
Mg19 O21 2.104180 1_555
Mg19 O15 2.148864 1_545
Mg19 O13 2.148864 1_555
Mg19 O5 2.155810 1_555
Mg19 O4 2.188013 1_556
Mg19 O17 2.205296 1_655
Mg20 O22 2.152765 1_555
Mg20 O18 2.156640 1_655
Mg20 O12 2.161285 1_555
Mg20 O14 2.161285 1_555
Mg20 O7 2.169455 1_555
Mg20 O6 2.169588 1_555
Mg21 O23 2.152765 1_555
Mg21 O19 2.156640 1_655
Mg21 O13 2.161285 1_555
Mg21 O15 2.161285 1_555
Mg21 O7 2.169455 1_555
Mg21 O6 2.169588 1_556
Mg22 O28 2.122850 1_555
Mg22 O2 2.122850 1_555
Mg22 O8 2.171219 1_555
Mg22 O9 2.171219 1_554
Mg22 O24 2.191853 1_555
Mg22 O0 2.191853 1_555
Mg23 O29 2.138533 1_555
Mg23 O3 2.138533 1_555
Mg23 O8 2.168556 1_555
Mg23 O9 2.168556 1_555
Mg23 O25 2.172829 1_555
Mg23 O1 2.172829 1_555
Mg24 O2 2.122850 1_555
Mg24 O30 2.122850 1_555
Mg24 O10 2.171219 1_555
Mg24 O11 2.171219 1_554
Mg24 O26 2.191853 1_555
Mg24 O0 2.191853 1_565
Mg25 O31 2.138533 1_555
Mg25 O3 2.138533 1_555
Mg25 O10 2.168556 1_555
Mg25 O11 2.168556 1_555
Mg25 O27 2.172829 1_555
Mg25 O1 2.172829 1_565
Mg26 O28 2.122850 1_555
Mg26 O6 2.122850 1_555
Mg26 O13 2.171219 1_554
Mg26 O12 2.171219 1_555
Mg26 O4 2.191853 1_555
Mg26 O24 2.191853 1_655
Mg27 O7 2.138533 1_555
Mg27 O29 2.138533 1_555
Mg27 O13 2.168556 1_555
Mg27 O12 2.168556 1_555
Mg27 O25 2.172829 1_655
Mg27 O5 2.172829 1_555
Mg28 O30 2.122850 1_555
Mg28 O6 2.122850 1_555
Mg28 O14 2.171219 1_555
Mg28 O15 2.171219 1_554
Mg28 O26 2.191853 1_655
Mg28 O4 2.191853 1_565
Mg29 O7 2.138533 1_555
Mg29 O31 2.138533 1_555
Mg29 O14 2.168556 1_555
Mg29 O15 2.168556 1_555
Mg29 O27 2.172829 1_655
Mg29 O5 2.172829 1_565
Nb0 O16 2.129936 1_555
Nb0 O17 2.129936 1_555
Nb0 O27 2.264675 1_545
Nb0 O1 2.264675 1_555
Nb0 O5 2.264675 1_455
Nb0 O25 2.264675 1_555
O0 Sn0 2.339778 1_555
O4 Sn0 2.339778 1_655
O16 Sn0 2.208920 1_555
O17 Sn0 2.208920 1_556
O24 Sn0 2.339778 1_555
O26 Sn0 2.339778 1_565
