# generated using pymatgen
data_DySnO3
_symmetry_space_group_name_H-M   'P 1'
_cell_length_a   4.13849100
_cell_length_b   4.13849100
_cell_length_c   4.13849100
_cell_angle_alpha   90.00000000
_cell_angle_beta   90.00000000
_cell_angle_gamma   90.00000000
_symmetry_Int_Tables_number   1
_chemical_formula_structural   DySnO3
_chemical_formula_sum   'Dy1 Sn1 O3'
_cell_volume   70.88038131
_cell_formula_units_Z   1
loop_
 _symmetry_equiv_pos_site_id
 _symmetry_equiv_pos_as_xyz
  1  'x, y, z'
loop_
 _atom_site_type_symbol
 _atom_site_label
 _atom_site_symmetry_multiplicity
 _atom_site_fract_x
 _atom_site_fract_y
 _atom_site_fract_z
 _atom_site_occupancy
  Dy  Dy0  1  0.00000000  0.00000000  0.00000000  1
  Sn  Sn0  1  0.50000000  0.50000000  0.50000000  1
  O  O0  1  0.50000000  0.50000000  0.00000000  1
  O  O1  1  0.50000000  0.00000000  0.50000000  1
  O  O2  1  0.00000000  0.50000000  0.50000000  1
loop_
_geom_bond_atom_site_label_1
_geom_bond_atom_site_label_2
_geom_bond_distance
_geom_bond_site_symmetry_2
Dy0 O2 2.926355 1_545
Dy0 O1 2.926355 1_455
Dy0 O1 2.926355 1_454
Dy0 O1 2.926355 1_555
Dy0 O1 2.926355 1_554
Dy0 O0 2.926355 1_545
Dy0 O0 2.926355 1_555
Dy0 O0 2.926355 1_445
Dy0 O2 2.926355 1_555
Dy0 O0 2.926355 1_455
Dy0 O2 2.926355 1_554
Dy0 O2 2.926355 1_544
O0 Sn0 2.069246 1_554
O0 Sn0 2.069246 1_555
O1 Sn0 2.069246 1_545
O1 Sn0 2.069246 1_555
O2 Sn0 2.069246 1_455
O2 Sn0 2.069246 1_555
