# generated using pymatgen
data_KHg3
_symmetry_space_group_name_H-M   'P 1'
_cell_length_a   5.82182091
_cell_length_b   5.82182091
_cell_length_c   5.82182091
_cell_angle_alpha   128.05152483
_cell_angle_beta   128.05152483
_cell_angle_gamma   76.54157482
_symmetry_Int_Tables_number   1
_chemical_formula_structural   KHg3
_chemical_formula_sum   'K1 Hg3'
_cell_volume   118.86115096
_cell_formula_units_Z   1
loop_
 _symmetry_equiv_pos_site_id
 _symmetry_equiv_pos_as_xyz
  1  'x, y, z'
loop_
 _atom_site_type_symbol
 _atom_site_label
 _atom_site_symmetry_multiplicity
 _atom_site_fract_x
 _atom_site_fract_y
 _atom_site_fract_z
 _atom_site_occupancy
  K  K0  1  -0.00000000  -0.00000000  -0.00000000  1
  Hg  Hg0  1  0.75000000  0.25000000  0.50000000  1
  Hg  Hg1  1  0.25000000  0.75000000  0.50000000  1
  Hg  Hg2  1  0.50000000  0.50000000  -0.00000000  1
loop_
_geom_bond_atom_site_label_1
_geom_bond_atom_site_label_2
_geom_bond_distance
_geom_bond_site_symmetry_2
Hg0 K0 3.424040 1_666
Hg0 K0 3.424040 1_655
Hg0 K0 3.424040 1_656
Hg0 K0 3.424040 1_555
Hg1 K0 3.424040 1_555
Hg1 K0 3.424040 1_566
Hg1 K0 3.424040 1_565
Hg1 K0 3.424040 1_666
Hg2 K0 3.605913 1_666
Hg2 K0 3.605913 1_655
Hg2 K0 3.605913 1_554
Hg2 K0 3.605913 1_565
