# generated using pymatgen
data_SrMg6BiO8
_symmetry_space_group_name_H-M   'P 1'
_cell_length_a   9.25416600
_cell_length_b   4.67819286
_cell_length_c   4.67819286
_cell_angle_alpha   90.00000000
_cell_angle_beta   90.00000000
_cell_angle_gamma   90.00000000
_symmetry_Int_Tables_number   1
_chemical_formula_structural   SrMg6BiO8
_chemical_formula_sum   'Sr1 Mg6 Bi1 O8'
_cell_volume   202.53194297
_cell_formula_units_Z   1
loop_
 _symmetry_equiv_pos_site_id
 _symmetry_equiv_pos_as_xyz
  1  'x, y, z'
loop_
 _atom_site_type_symbol
 _atom_site_label
 _atom_site_symmetry_multiplicity
 _atom_site_fract_x
 _atom_site_fract_y
 _atom_site_fract_z
 _atom_site_occupancy
  Sr  Sr0  1  0.00000000  -0.00000000  0.00000000  1
  Mg  Mg0  1  0.00000000  0.50000000  0.50000000  1
  Mg  Mg1  1  0.50000000  0.50000000  0.50000000  1
  Mg  Mg2  1  0.24548307  0.00000000  0.50000000  1
  Mg  Mg3  1  0.75451693  -0.00000000  0.50000000  1
  Mg  Mg4  1  0.24548307  0.50000000  -0.00000000  1
  Mg  Mg5  1  0.75451693  0.50000000  0.00000000  1
  Bi  Bi0  1  0.50000000  -0.00000000  0.00000000  1
  O  O0  1  0.25167713  0.00000000  -0.00000000  1
  O  O1  1  0.74832287  -0.00000000  0.00000000  1
  O  O2  1  0.25220288  0.50000000  0.50000000  1
  O  O3  1  0.74779712  0.50000000  0.50000000  1
  O  O4  1  0.00000000  -0.00000000  0.50000000  1
  O  O5  1  0.50000000  -0.00000000  0.50000000  1
  O  O6  1  0.00000000  0.50000000  0.00000000  1
  O  O7  1  0.50000000  0.50000000  0.00000000  1
loop_
_geom_bond_atom_site_label_1
_geom_bond_atom_site_label_2
_geom_bond_distance
_geom_bond_site_symmetry_2
Mg0 O2 2.333927 1_555
Mg0 O3 2.333927 1_455
Mg0 O6 2.339096 1_556
Mg0 O6 2.339096 1_555
Mg0 O4 2.339096 1_555
Mg0 O4 2.339096 1_565
Mg1 O3 2.293156 1_555
Mg1 O2 2.293156 1_555
Mg1 O7 2.339096 1_556
Mg1 O5 2.339096 1_555
Mg1 O5 2.339096 1_565
Mg1 O7 2.339096 1_555
Mg2 O4 2.271741 1_555
Mg2 O0 2.339799 1_555
Mg2 O0 2.339799 1_556
Mg2 O2 2.339923 1_555
Mg2 O2 2.339923 1_545
Mg2 O5 2.355342 1_555
Mg3 O4 2.271741 1_655
Mg3 O1 2.339799 1_555
Mg3 O1 2.339799 1_556
Mg3 O3 2.339923 1_555
Mg3 O3 2.339923 1_545
Mg3 O5 2.355342 1_555
Mg4 O6 2.271741 1_555
Mg4 O0 2.339799 1_555
Mg4 O0 2.339799 1_565
Mg4 O2 2.339923 1_555
Mg4 O2 2.339923 1_554
Mg4 O7 2.355342 1_555
Mg5 O6 2.271741 1_655
Mg5 O1 2.339799 1_555
Mg5 O1 2.339799 1_565
Mg5 O3 2.339923 1_555
Mg5 O3 2.339923 1_554
Mg5 O7 2.355342 1_555
Bi0 O0 2.298021 1_555
Bi0 O1 2.298021 1_555
Bi0 O5 2.339096 1_554
Bi0 O5 2.339096 1_555
Bi0 O7 2.339096 1_545
Bi0 O7 2.339096 1_555
O0 Sr0 2.329062 1_555
O1 Sr0 2.329062 1_655
O4 Sr0 2.339096 1_555
O4 Sr0 2.339096 1_556
O6 Sr0 2.339096 1_555
O6 Sr0 2.339096 1_565
