# generated using pymatgen
data_Ge3Pb3O10
_symmetry_space_group_name_H-M   'P 1'
_cell_length_a   9.49778038
_cell_length_b   9.49778038
_cell_length_c   9.49777981
_cell_angle_alpha   113.49127925
_cell_angle_beta   113.49127925
_cell_angle_gamma   113.49128124
_symmetry_Int_Tables_number   1
_chemical_formula_structural   Ge3Pb3O10
_chemical_formula_sum   'Ge6 Pb6 O20'
_cell_volume   539.60561467
_cell_formula_units_Z   2
loop_
 _symmetry_equiv_pos_site_id
 _symmetry_equiv_pos_as_xyz
  1  'x, y, z'
loop_
 _atom_site_type_symbol
 _atom_site_label
 _atom_site_symmetry_multiplicity
 _atom_site_fract_x
 _atom_site_fract_y
 _atom_site_fract_z
 _atom_site_occupancy
  Ge  Ge0  1  0.84589700  0.24221300  0.97752900  1
  Ge  Ge1  1  0.97752900  0.84589700  0.24221300  1
  Ge  Ge2  1  0.24221300  0.97752900  0.84589700  1
  Ge  Ge3  1  0.15410300  0.75778700  0.02247100  1
  Ge  Ge4  1  0.02247100  0.15410300  0.75778700  1
  Ge  Ge5  1  0.75778700  0.02247100  0.15410300  1
  Pb  Pb0  1  0.48910500  0.32756900  0.79338300  1
  Pb  Pb1  1  0.79338300  0.48910500  0.32756900  1
  Pb  Pb2  1  0.32756900  0.79338300  0.48910500  1
  Pb  Pb3  1  0.51089500  0.67243100  0.20661700  1
  Pb  Pb4  1  0.20661700  0.51089500  0.67243100  1
  Pb  Pb5  1  0.67243100  0.20661700  0.51089500  1
  O  O0  1  0.72096900  0.02220400  0.95344900  1
  O  O1  1  0.95344900  0.72096900  0.02220400  1
  O  O2  1  0.02220400  0.95344900  0.72096900  1
  O  O3  1  0.27903100  0.97779600  0.04655100  1
  O  O4  1  0.04655100  0.27903100  0.97779600  1
  O  O5  1  0.97779600  0.04655100  0.27903100  1
  O  O6  1  0.96294100  0.46759200  0.21182600  1
  O  O7  1  0.21182600  0.96294100  0.46759200  1
  O  O8  1  0.46759200  0.21182600  0.96294100  1
  O  O9  1  0.03705900  0.53240800  0.78817400  1
  O  O10  1  0.78817400  0.03705900  0.53240800  1
  O  O11  1  0.53240800  0.78817400  0.03705900  1
  O  O12  1  0.65121400  0.17935100  0.76028800  1
  O  O13  1  0.76028800  0.65121400  0.17935100  1
  O  O14  1  0.17935100  0.76028800  0.65121400  1
  O  O15  1  0.34878600  0.82064900  0.23971200  1
  O  O16  1  0.23971200  0.34878600  0.82064900  1
  O  O17  1  0.82064900  0.23971200  0.34878600  1
  O  O18  1  0.58375900  0.58375900  0.58375900  1
  O  O19  1  0.41624100  0.41624100  0.41624100  1
loop_
_geom_bond_atom_site_label_1
_geom_bond_atom_site_label_2
_geom_bond_distance
_geom_bond_site_symmetry_2
Ge0 O6 1.761581 1_556
Ge0 O12 1.768893 1_555
Ge0 O4 1.793988 1_655
Ge0 O0 1.803510 1_555
Ge1 O7 1.761581 1_655
Ge1 O13 1.768893 1_555
Ge1 O5 1.793988 1_565
Ge1 O1 1.803509 1_555
Ge2 O8 1.761581 1_565
Ge2 O14 1.768893 1_555
Ge2 O3 1.793988 1_556
Ge2 O2 1.803510 1_555
Ge3 O9 1.761581 1_554
Ge3 O15 1.768893 1_555
Ge3 O1 1.793988 1_455
Ge3 O3 1.803510 1_555
Ge4 O10 1.761581 1_455
Ge4 O16 1.768893 1_555
Ge4 O2 1.793988 1_545
Ge4 O4 1.803509 1_555
Ge5 O11 1.761581 1_545
Ge5 O17 1.768893 1_555
Ge5 O0 1.793988 1_554
Ge5 O5 1.803510 1_555
O6 Pb1 2.310474 1_555
O6 Pb2 2.488614 1_655
O7 Pb2 2.310474 1_555
O7 Pb0 2.488614 1_565
O8 Pb0 2.310474 1_555
O8 Pb1 2.488614 1_556
O9 Pb4 2.310474 1_555
O9 Pb5 2.488614 1_455
O10 Pb5 2.310474 1_555
O10 Pb3 2.488614 1_545
O11 Pb3 2.310474 1_555
O11 Pb4 2.488614 1_554
O12 Pb0 2.492418 1_555
O12 Pb5 2.558567 1_555
O12 Pb2 2.588191 1_545
O13 Pb1 2.492418 1_555
O13 Pb3 2.558567 1_555
O13 Pb0 2.588191 1_554
O14 Pb2 2.492418 1_555
O14 Pb4 2.558567 1_555
O14 Pb1 2.588191 1_455
O15 Pb3 2.492418 1_555
O15 Pb2 2.558567 1_555
O15 Pb5 2.588191 1_565
O16 Pb4 2.492418 1_555
O16 Pb0 2.558567 1_555
O16 Pb3 2.588191 1_556
O17 Pb5 2.492418 1_555
O17 Pb1 2.558567 1_555
O17 Pb4 2.588191 1_655
O18 O19 1.240960 1_555
