# generated using pymatgen
data_Li3Gd3(TeO6)2
_symmetry_space_group_name_H-M   'P 1'
_cell_length_a   10.84189391
_cell_length_b   10.84189391
_cell_length_c   10.84189391
_cell_angle_alpha   109.47122063
_cell_angle_beta   109.47122063
_cell_angle_gamma   109.47122063
_symmetry_Int_Tables_number   1
_chemical_formula_structural   Li3Gd3(TeO6)2
_chemical_formula_sum   'Li12 Gd12 Te8 O48'
_cell_volume   981.05548384
_cell_formula_units_Z   4
loop_
 _symmetry_equiv_pos_site_id
 _symmetry_equiv_pos_as_xyz
  1  'x, y, z'
loop_
 _atom_site_type_symbol
 _atom_site_label
 _atom_site_symmetry_multiplicity
 _atom_site_fract_x
 _atom_site_fract_y
 _atom_site_fract_z
 _atom_site_occupancy
  Li  Li0  1  0.62500000  0.37500000  0.75000000  1
  Li  Li1  1  0.37500000  0.62500000  0.25000000  1
  Li  Li2  1  0.87500000  0.12500000  0.25000000  1
  Li  Li3  1  0.37500000  0.75000000  0.62500000  1
  Li  Li4  1  0.62500000  0.25000000  0.37500000  1
  Li  Li5  1  0.12500000  0.87500000  0.75000000  1
  Li  Li6  1  0.12500000  0.25000000  0.87500000  1
  Li  Li7  1  0.87500000  0.75000000  0.12500000  1
  Li  Li8  1  0.75000000  0.62500000  0.37500000  1
  Li  Li9  1  0.25000000  0.37500000  0.62500000  1
  Li  Li10  1  0.25000000  0.87500000  0.12500000  1
  Li  Li11  1  0.75000000  0.12500000  0.87500000  1
  Gd  Gd0  1  0.87500000  0.62500000  0.75000000  1
  Gd  Gd1  1  0.12500000  0.37500000  0.25000000  1
  Gd  Gd2  1  0.62500000  0.87500000  0.25000000  1
  Gd  Gd3  1  0.62500000  0.75000000  0.87500000  1
  Gd  Gd4  1  0.87500000  0.25000000  0.62500000  1
  Gd  Gd5  1  0.37500000  0.12500000  0.75000000  1
  Gd  Gd6  1  0.37500000  0.25000000  0.12500000  1
  Gd  Gd7  1  0.12500000  0.75000000  0.37500000  1
  Gd  Gd8  1  0.75000000  0.87500000  0.62500000  1
  Gd  Gd9  1  0.25000000  0.12500000  0.37500000  1
  Gd  Gd10  1  0.25000000  0.62500000  0.87500000  1
  Gd  Gd11  1  0.75000000  0.37500000  0.12500000  1
  Te  Te0  1  0.00000000  -0.00000000  0.00000000  1
  Te  Te1  1  0.50000000  0.00000000  0.50000000  1
  Te  Te2  1  0.50000000  0.50000000  0.00000000  1
  Te  Te3  1  0.00000000  0.00000000  0.50000000  1
  Te  Te4  1  0.00000000  0.50000000  0.50000000  1
  Te  Te5  1  0.50000000  0.50000000  0.50000000  1
  Te  Te6  1  0.50000000  0.00000000  0.00000000  1
  Te  Te7  1  0.00000000  0.50000000  0.00000000  1
  O  O0  1  0.69745014  0.61876327  0.52601307  1
  O  O1  1  0.30254986  0.38123673  0.47398693  1
  O  O2  1  0.80254986  0.82856293  0.42131313  1
  O  O3  1  0.40724980  0.88123673  0.07868687  1
  O  O4  1  0.61876327  0.52601307  0.69745014  1
  O  O5  1  0.69745014  0.07868687  0.67143707  1
  O  O6  1  0.19745014  0.17143707  0.57868687  1
  O  O7  1  0.59275020  0.11876327  0.92131313  1
  O  O8  1  0.38123673  0.47398693  0.30254986  1
  O  O9  1  0.30254986  0.92131313  0.32856293  1
  O  O10  1  0.09275020  0.67143707  0.97398693  1
  O  O11  1  0.82856293  0.42131313  0.80254986  1
  O  O12  1  0.80254986  0.97398693  0.88123673  1
  O  O13  1  0.90724980  0.32856293  0.02601307  1
  O  O14  1  0.17143707  0.57868687  0.19745014  1
  O  O15  1  0.19745014  0.02601307  0.11876327  1
  O  O16  1  0.88123673  0.07868687  0.40724980  1
  O  O17  1  0.40724980  0.52601307  0.82856293  1
  O  O18  1  0.11876327  0.92131313  0.59275020  1
  O  O19  1  0.59275020  0.47398693  0.17143707  1
  O  O20  1  0.67143707  0.97398693  0.09275020  1
  O  O21  1  0.09275020  0.42131313  0.61876327  1
  O  O22  1  0.32856293  0.02601307  0.90724980  1
  O  O23  1  0.90724980  0.57868687  0.38123673  1
  O  O24  1  0.52601307  0.69745014  0.61876327  1
  O  O25  1  0.61876327  0.09275020  0.42131313  1
  O  O26  1  0.47398693  0.30254986  0.38123673  1
  O  O27  1  0.38123673  0.90724980  0.57868687  1
  O  O28  1  0.07868687  0.40724980  0.88123673  1
  O  O29  1  0.88123673  0.80254986  0.97398693  1
  O  O30  1  0.92131313  0.59275020  0.11876327  1
  O  O31  1  0.11876327  0.19745014  0.02601307  1
  O  O32  1  0.97398693  0.09275020  0.67143707  1
  O  O33  1  0.67143707  0.69745014  0.07868687  1
  O  O34  1  0.02601307  0.90724980  0.32856293  1
  O  O35  1  0.32856293  0.30254986  0.92131313  1
  O  O36  1  0.42131313  0.80254986  0.82856293  1
  O  O37  1  0.82856293  0.40724980  0.52601307  1
  O  O38  1  0.57868687  0.19745014  0.17143707  1
  O  O39  1  0.17143707  0.59275020  0.47398693  1
  O  O40  1  0.07868687  0.67143707  0.69745014  1
  O  O41  1  0.92131313  0.32856293  0.30254986  1
  O  O42  1  0.97398693  0.88123673  0.80254986  1
  O  O43  1  0.02601307  0.11876327  0.19745014  1
  O  O44  1  0.42131313  0.61876327  0.09275020  1
  O  O45  1  0.57868687  0.38123673  0.90724980  1
  O  O46  1  0.52601307  0.82856293  0.40724980  1
  O  O47  1  0.47398693  0.17143707  0.59275020  1
loop_
_geom_bond_atom_site_label_1
_geom_bond_atom_site_label_2
_geom_bond_distance
_geom_bond_site_symmetry_2
Li0 O4 1.918286 1_555
Li0 O47 1.918286 1_555
Li0 O11 1.918286 1_555
Li0 O45 1.918286 1_555
Li1 O8 1.918286 1_555
Li1 O14 1.918286 1_555
Li1 O46 1.918286 1_555
Li1 O44 1.918286 1_555
Li2 O16 1.918286 1_555
Li2 O41 1.918286 1_555
Li2 O43 1.918286 1_655
Li2 O20 1.918286 1_545
Li3 O24 1.918286 1_555
Li3 O36 1.918286 1_555
Li3 O39 1.918286 1_555
Li3 O27 1.918286 1_555
Li4 O38 1.918286 1_555
Li4 O26 1.918286 1_555
Li4 O37 1.918286 1_555
Li4 O25 1.918286 1_555
Li5 O18 1.918286 1_555
Li5 O22 1.918286 1_565
Li5 O42 1.918286 1_455
Li5 O40 1.918286 1_555
Li6 O28 1.918286 1_555
Li6 O35 1.918286 1_555
Li6 O31 1.918286 1_556
Li6 O32 1.918286 1_455
Li7 O30 1.918286 1_555
Li7 O29 1.918286 1_554
Li7 O33 1.918286 1_555
Li7 O34 1.918286 1_655
Li8 O0 1.918286 1_555
Li8 O19 1.918286 1_555
Li8 O23 1.918286 1_555
Li8 O2 1.918286 1_555
Li9 O6 1.918286 1_555
Li9 O1 1.918286 1_555
Li9 O17 1.918286 1_555
Li9 O21 1.918286 1_555
Li10 O3 1.918286 1_555
Li10 O9 1.918286 1_555
Li10 O15 1.918286 1_565
Li10 O10 1.918286 1_554
Li11 O7 1.918286 1_555
Li11 O12 1.918286 1_545
Li11 O13 1.918286 1_556
Li11 O5 1.918286 1_555
Gd0 O42 2.396601 1_555
Gd0 O11 2.396601 1_555
Gd0 O40 2.396601 1_655
Gd0 O4 2.396601 1_555
Gd0 O10 2.508930 1_655
Gd0 O0 2.508930 1_555
Gd0 O29 2.508930 1_555
Gd0 O37 2.508930 1_555
Gd1 O14 2.396601 1_555
Gd1 O41 2.396601 1_455
Gd1 O8 2.396601 1_555
Gd1 O43 2.396601 1_555
Gd1 O13 2.508930 1_455
Gd1 O1 2.508930 1_555
Gd1 O39 2.508930 1_555
Gd1 O31 2.508930 1_555
Gd2 O46 2.396601 1_555
Gd2 O44 2.396601 1_555
Gd2 O16 2.396601 1_565
Gd2 O20 2.396601 1_555
Gd2 O25 2.508930 1_565
Gd2 O33 2.508930 1_555
Gd2 O3 2.508930 1_555
Gd2 O2 2.508930 1_555
Gd3 O36 2.396601 1_555
Gd3 O29 2.396601 1_555
Gd3 O33 2.396601 1_556
Gd3 O24 2.396601 1_555
Gd3 O20 2.508930 1_556
Gd3 O4 2.508930 1_555
Gd3 O12 2.508930 1_555
Gd3 O17 2.508930 1_555
Gd4 O25 2.396601 1_555
Gd4 O37 2.396601 1_555
Gd4 O28 2.396601 1_655
Gd4 O32 2.396601 1_555
Gd4 O21 2.508930 1_655
Gd4 O5 2.508930 1_555
Gd4 O16 2.508930 1_555
Gd4 O11 2.508930 1_555
Gd5 O22 2.396601 1_555
Gd5 O18 2.396601 1_545
Gd5 O47 2.396601 1_555
Gd5 O45 2.396601 1_555
Gd5 O6 2.508930 1_555
Gd5 O35 2.508930 1_555
Gd5 O27 2.508930 1_545
Gd5 O7 2.508930 1_555
Gd6 O38 2.396601 1_555
Gd6 O35 2.396601 1_554
Gd6 O31 2.396601 1_555
Gd6 O26 2.396601 1_555
Gd6 O15 2.508930 1_555
Gd6 O19 2.508930 1_555
Gd6 O22 2.508930 1_554
Gd6 O8 2.508930 1_555
Gd7 O34 2.396601 1_555
Gd7 O30 2.396601 1_455
Gd7 O39 2.396601 1_555
Gd7 O27 2.396601 1_555
Gd7 O9 2.508930 1_555
Gd7 O18 2.508930 1_555
Gd7 O14 2.508930 1_555
Gd7 O23 2.508930 1_455
Gd8 O5 2.396601 1_565
Gd8 O12 2.396601 1_555
Gd8 O2 2.396601 1_555
Gd8 O0 2.396601 1_555
Gd8 O32 2.508930 1_565
Gd8 O24 2.508930 1_555
Gd8 O46 2.508930 1_555
Gd8 O42 2.508930 1_555
Gd9 O6 2.396601 1_555
Gd9 O9 2.396601 1_545
Gd9 O1 2.396601 1_555
Gd9 O15 2.396601 1_555
Gd9 O43 2.508930 1_555
Gd9 O47 2.508930 1_555
Gd9 O34 2.508930 1_545
Gd9 O26 2.508930 1_555
Gd10 O17 2.396601 1_555
Gd10 O21 2.396601 1_555
Gd10 O3 2.396601 1_556
Gd10 O10 2.396601 1_555
Gd10 O44 2.508930 1_556
Gd10 O40 2.508930 1_555
Gd10 O28 2.508930 1_555
Gd10 O36 2.508930 1_555
Gd11 O13 2.396601 1_555
Gd11 O19 2.396601 1_555
Gd11 O7 2.396601 1_554
Gd11 O23 2.396601 1_555
Gd11 O41 2.508930 1_555
Gd11 O30 2.508930 1_555
Gd11 O38 2.508930 1_555
Gd11 O45 2.508930 1_554
O0 Te5 1.959084 1_555
O1 Te5 1.959084 1_555
O2 Te3 1.959084 1_665
O3 Te6 1.959084 1_565
O4 Te5 1.959084 1_555
O5 Te1 1.959084 1_555
O6 Te3 1.959084 1_555
O7 Te6 1.959084 1_556
O8 Te5 1.959084 1_555
O9 Te1 1.959084 1_565
O10 Te7 1.959084 1_556
O11 Te7 1.959084 1_656
O12 Te0 1.959084 1_666
O13 Te7 1.959084 1_655
O14 Te7 1.959084 1_555
O15 Te0 1.959084 1_555
O16 Te3 1.959084 1_655
O17 Te2 1.959084 1_556
O18 Te3 1.959084 1_565
O19 Te2 1.959084 1_555
O20 Te6 1.959084 1_565
O21 Te4 1.959084 1_555
O22 Te6 1.959084 1_556
O23 Te4 1.959084 1_655
O24 Te5 1.959084 1_555
O25 Te1 1.959084 1_555
O26 Te5 1.959084 1_555
O27 Te1 1.959084 1_565
O28 Te7 1.959084 1_556
O29 Te0 1.959084 1_666
O30 Te7 1.959084 1_655
O31 Te0 1.959084 1_555
O32 Te3 1.959084 1_655
O33 Te2 1.959084 1_555
O34 Te3 1.959084 1_565
O35 Te2 1.959084 1_556
O36 Te6 1.959084 1_566
O37 Te4 1.959084 1_655
O38 Te6 1.959084 1_555
O39 Te4 1.959084 1_555
O40 Te4 1.959084 1_555
O41 Te4 1.959084 1_655
O42 Te0 1.959084 1_666
O43 Te0 1.959084 1_555
O44 Te2 1.959084 1_555
O45 Te2 1.959084 1_556
O46 Te1 1.959084 1_565
O47 Te1 1.959084 1_555
