# generated using pymatgen
data_Li9Co7O16
_symmetry_space_group_name_H-M   'P 1'
_cell_length_a   5.79653500
_cell_length_b   5.87997031
_cell_length_c   9.71164409
_cell_angle_alpha   98.09342876
_cell_angle_beta   91.15522169
_cell_angle_gamma   119.09438406
_symmetry_Int_Tables_number   1
_chemical_formula_structural   Li9Co7O16
_chemical_formula_sum   'Li9 Co7 O16'
_cell_volume   284.85270343
_cell_formula_units_Z   1
loop_
 _symmetry_equiv_pos_site_id
 _symmetry_equiv_pos_as_xyz
  1  'x, y, z'
loop_
 _atom_site_type_symbol
 _atom_site_label
 _atom_site_symmetry_multiplicity
 _atom_site_fract_x
 _atom_site_fract_y
 _atom_site_fract_z
 _atom_site_occupancy
  Li  Li0  1  0.50000000  0.50000000  0.00000000  1
  Li  Li1  1  0.37639800  0.75192800  0.24902600  1
  Li  Li2  1  0.24893800  0.99969200  0.49973500  1
  Li  Li3  1  0.12334900  0.24611800  0.75066300  1
  Li  Li4  1  0.00000000  0.50000000  0.00000000  1
  Li  Li5  1  0.87665100  0.75388200  0.24933700  1
  Li  Li6  1  0.75106200  0.00030800  0.50026500  1
  Li  Li7  1  0.62360200  0.24807200  0.75097400  1
  Li  Li8  1  0.00000000  0.00000000  0.00000000  1
  Co  Co0  1  0.63176400  0.75706200  0.75688500  1
  Co  Co1  1  0.50000000  0.00000000  0.00000000  1
  Co  Co2  1  0.36823600  0.24293800  0.24311500  1
  Co  Co3  1  0.75298000  0.50548300  0.49994600  1
  Co  Co4  1  0.12408400  0.75701200  0.75592700  1
  Co  Co5  1  0.87591600  0.24298800  0.24407300  1
  Co  Co6  1  0.24702000  0.49451700  0.50005400  1
  O  O0  1  0.81390500  0.63115300  0.86068200  1
  O  O1  1  0.67991000  0.89789200  0.12001100  1
  O  O2  1  0.57172000  0.14363900  0.36579500  1
  O  O3  1  0.43743100  0.39147200  0.62056700  1
  O  O4  1  0.32546000  0.65316800  0.88275300  1
  O  O5  1  0.22158700  0.89876700  0.11767500  1
  O  O6  1  0.06798400  0.13333800  0.37132800  1
  O  O7  1  0.93666800  0.39020500  0.62033700  1
  O  O8  1  0.18609500  0.36884700  0.13931800  1
  O  O9  1  0.06333200  0.60979500  0.37966300  1
  O  O10  1  0.93201600  0.86666200  0.62867200  1
  O  O11  1  0.77841300  0.10123300  0.88232500  1
  O  O12  1  0.67454000  0.34683200  0.11724700  1
  O  O13  1  0.56256900  0.60852800  0.37943300  1
  O  O14  1  0.42828000  0.85636100  0.63420500  1
  O  O15  1  0.32009000  0.10210800  0.87998900  1
loop_
_geom_bond_atom_site_label_1
_geom_bond_atom_site_label_2
_geom_bond_distance
_geom_bond_site_symmetry_2
Li0 O4 2.063903 1_554
Li0 O12 2.063903 1_555
Li0 O15 2.174873 1_554
Li0 O1 2.174873 1_555
Li0 O8 2.182795 1_555
Li0 O0 2.182795 1_554
Li1 O5 2.048278 1_555
Li1 O8 2.070320 1_555
Li1 O1 2.079649 1_555
Li1 O9 2.125481 1_555
Li1 O2 2.132975 1_565
Li1 O13 2.147076 1_555
Li2 O6 2.073077 1_565
Li2 O10 2.127368 1_455
Li2 O9 2.138032 1_555
Li2 O14 2.145601 1_555
Li2 O3 2.148724 1_565
Li2 O2 2.185678 1_565
Li3 O10 2.099537 1_445
Li3 O3 2.127179 1_555
Li3 O7 2.151505 1_455
Li3 O15 2.185374 1_555
Li3 O4 2.257132 1_555
Li3 O11 2.260919 1_455
Li4 O4 2.095171 1_554
Li4 O12 2.095171 1_455
Li4 O0 2.152415 1_454
Li4 O8 2.152415 1_555
Li4 O11 2.170498 1_454
Li4 O5 2.170498 1_555
Li5 O6 2.099537 1_665
Li5 O13 2.127179 1_555
Li5 O9 2.151505 1_655
Li5 O1 2.185374 1_555
Li5 O12 2.257132 1_555
Li5 O5 2.260919 1_655
Li6 O10 2.073077 1_545
Li6 O6 2.127368 1_655
Li6 O7 2.138032 1_555
Li6 O2 2.145601 1_555
Li6 O13 2.148724 1_545
Li6 O14 2.185678 1_545
Li7 O11 2.048278 1_555
Li7 O0 2.070320 1_555
Li7 O15 2.079649 1_555
Li7 O7 2.125481 1_555
Li7 O14 2.132975 1_545
Li7 O3 2.147076 1_555
Li8 O11 2.045976 1_454
Li8 O5 2.045976 1_545
Li8 O1 2.088616 1_445
Li8 O15 2.088616 1_554
Li8 O8 2.130185 1_555
Li8 O0 2.130185 1_444
Co0 O0 1.899027 1_555
Co0 O11 1.973119 1_565
Co0 O14 1.990121 1_555
Co0 O10 2.053622 1_555
Co0 O4 2.064652 1_555
Co0 O3 2.103856 1_555
Co1 O1 1.887682 1_545
Co1 O15 1.887682 1_554
Co1 O11 1.896444 1_554
Co1 O5 1.896444 1_545
Co1 O4 1.942239 1_544
Co1 O12 1.942239 1_555
Co2 O8 1.899027 1_555
Co2 O5 1.973119 1_545
Co2 O2 1.990121 1_555
Co2 O6 2.053622 1_555
Co2 O12 2.064652 1_555
Co2 O13 2.103856 1_555
Co3 O13 1.937281 1_555
Co3 O7 1.958317 1_555
Co3 O9 2.047063 1_655
Co3 O10 2.051050 1_555
Co3 O3 2.069367 1_555
Co3 O2 2.078080 1_555
Co4 O0 1.951177 1_455
Co4 O15 1.968334 1_565
Co4 O10 2.012331 1_455
Co4 O4 2.024691 1_555
Co4 O14 2.030909 1_555
Co4 O7 2.104749 1_455
Co5 O8 1.951177 1_655
Co5 O1 1.968334 1_545
Co5 O6 2.012331 1_655
Co5 O12 2.024691 1_555
Co5 O2 2.030909 1_555
Co5 O9 2.104749 1_655
Co6 O3 1.937281 1_555
Co6 O9 1.958317 1_555
Co6 O7 2.047063 1_455
Co6 O6 2.051050 1_555
Co6 O13 2.069367 1_555
Co6 O14 2.078080 1_555
