# generated using pymatgen
data_ZrTiF6
_symmetry_space_group_name_H-M   'P 1'
_cell_length_a   5.81026309
_cell_length_b   5.80697966
_cell_length_c   5.83145347
_cell_angle_alpha   59.86026496
_cell_angle_beta   59.87973363
_cell_angle_gamma   59.75300200
_symmetry_Int_Tables_number   1
_chemical_formula_structural   ZrTiF6
_chemical_formula_sum   'Zr1 Ti1 F6'
_cell_volume   138.59183801
_cell_formula_units_Z   1
loop_
 _symmetry_equiv_pos_site_id
 _symmetry_equiv_pos_as_xyz
  1  'x, y, z'
loop_
 _atom_site_type_symbol
 _atom_site_label
 _atom_site_symmetry_multiplicity
 _atom_site_fract_x
 _atom_site_fract_y
 _atom_site_fract_z
 _atom_site_occupancy
  Zr  Zr0  1  -0.00000026  -0.00000009  0.00000151  1
  Ti  Ti0  1  0.50000146  0.49999919  0.50000057  1
  F  F0  1  0.24792805  0.75160034  0.75477883  1
  F  F1  1  0.75207017  0.24840733  0.75430588  1
  F  F2  1  0.75206837  0.24840251  0.24521576  1
  F  F3  1  0.24646217  0.24749585  0.75301792  1
  F  F4  1  0.75353987  0.75250247  0.24698153  1
  F  F5  1  0.24793017  0.75159240  0.24569799  1
loop_
_geom_bond_atom_site_label_1
_geom_bond_atom_site_label_2
_geom_bond_distance
_geom_bond_site_symmetry_2
F0 Zr0 2.027630 1_566
F0 Ti0 2.080206 1_555
F1 Zr0 2.027622 1_656
F1 Ti0 2.080163 1_555
F2 Zr0 2.027608 1_655
F2 Ti0 2.080215 1_555
F3 Zr0 2.028633 1_556
F3 Ti0 2.078267 1_555
F4 Zr0 2.028629 1_665
F4 Ti0 2.078263 1_555
F5 Zr0 2.027629 1_565
F5 Ti0 2.080162 1_555
