# generated using pymatgen
data_Fe5O8
_symmetry_space_group_name_H-M   'P 1'
_cell_length_a   5.74293431
_cell_length_b   5.74293431
_cell_length_c   5.74293482
_cell_angle_alpha   59.01876539
_cell_angle_beta   59.01876539
_cell_angle_gamma   59.01877080
_symmetry_Int_Tables_number   1
_chemical_formula_structural   Fe5O8
_chemical_formula_sum   'Fe5 O8'
_cell_volume   130.93528484
_cell_formula_units_Z   1
loop_
 _symmetry_equiv_pos_site_id
 _symmetry_equiv_pos_as_xyz
  1  'x, y, z'
loop_
 _atom_site_type_symbol
 _atom_site_label
 _atom_site_symmetry_multiplicity
 _atom_site_fract_x
 _atom_site_fract_y
 _atom_site_fract_z
 _atom_site_occupancy
  Fe  Fe0  1  0.12118486  0.12118486  0.12118486  1
  Fe  Fe1  1  0.87881514  0.87881514  0.87881514  1
  Fe  Fe2  1  -0.00000000  0.50000000  0.50000000  1
  Fe  Fe3  1  0.50000000  0.50000000  0.00000000  1
  Fe  Fe4  1  0.50000000  0.00000000  0.50000000  1
  O  O0  1  0.25953785  0.25953785  0.25953785  1
  O  O1  1  0.72035687  0.24759706  0.24759706  1
  O  O2  1  0.24759706  0.24759706  0.72035687  1
  O  O3  1  0.24759706  0.72035687  0.24759706  1
  O  O4  1  0.74046215  0.74046215  0.74046215  1
  O  O5  1  0.27964313  0.75240294  0.75240294  1
  O  O6  1  0.75240294  0.75240294  0.27964313  1
  O  O7  1  0.75240294  0.27964313  0.75240294  1
loop_
_geom_bond_atom_site_label_1
_geom_bond_atom_site_label_2
_geom_bond_distance
_geom_bond_site_symmetry_2
Fe0 O3 1.858660 1_545
Fe0 O1 1.858660 1_455
Fe0 O2 1.858660 1_554
Fe0 O0 1.960555 1_555
Fe1 O7 1.858660 1_565
Fe1 O5 1.858660 1_655
Fe1 O6 1.858660 1_556
Fe1 O4 1.960555 1_555
Fe2 O3 1.888541 1_555
Fe2 O7 1.888541 1_455
Fe2 O6 1.888541 1_455
Fe2 O2 1.888541 1_555
Fe2 O0 1.939298 1_555
Fe2 O4 1.939298 1_455
Fe3 O1 1.888541 1_555
Fe3 O5 1.888541 1_554
Fe3 O7 1.888541 1_554
Fe3 O3 1.888541 1_555
Fe3 O0 1.939298 1_555
Fe3 O4 1.939298 1_554
Fe4 O1 1.888541 1_555
Fe4 O5 1.888541 1_545
Fe4 O6 1.888541 1_545
Fe4 O2 1.888541 1_555
Fe4 O0 1.939298 1_555
Fe4 O4 1.939298 1_545
