# generated using pymatgen
data_BiC3O10
_symmetry_space_group_name_H-M   'P 1'
_cell_length_a   9.26152800
_cell_length_b   9.54710222
_cell_length_c   11.25818952
_cell_angle_alpha   103.95413348
_cell_angle_beta   101.93669158
_cell_angle_gamma   105.90995532
_symmetry_Int_Tables_number   1
_chemical_formula_structural   BiC3O10
_chemical_formula_sum   'Bi4 C12 O40'
_cell_volume   888.45920577
_cell_formula_units_Z   4
loop_
 _symmetry_equiv_pos_site_id
 _symmetry_equiv_pos_as_xyz
  1  'x, y, z'
loop_
 _atom_site_type_symbol
 _atom_site_label
 _atom_site_symmetry_multiplicity
 _atom_site_fract_x
 _atom_site_fract_y
 _atom_site_fract_z
 _atom_site_occupancy
  Bi  Bi0  1  0.90020700  0.10141800  0.65773700  1
  Bi  Bi1  1  0.10076000  0.90549400  0.34557100  1
  Bi  Bi2  1  0.65107800  0.23414200  0.12837100  1
  Bi  Bi3  1  0.32980100  0.76886500  0.86450400  1
  C  C0  1  0.14397100  0.91270300  0.68299400  1
  C  C1  1  0.84974100  0.09431600  0.32049600  1
  C  C2  1  0.80935600  0.61044500  0.23310000  1
  C  C3  1  0.19298200  0.39634500  0.76975200  1
  C  C4  1  0.78147900  0.23779100  0.89506600  1
  C  C5  1  0.21378700  0.76558400  0.10609100  1
  C  C6  1  0.93478300  0.55697200  0.30661700  1
  C  C7  1  0.06546200  0.44793400  0.69756800  1
  C  C8  1  0.66125200  0.07169400  0.84453500  1
  C  C9  1  0.34071000  0.92884000  0.16022900  1
  C  C10  1  0.08507400  0.92999300  0.80367700  1
  C  C11  1  0.91028000  0.07672100  0.19941600  1
  O  O0  1  0.77651000  0.33171000  0.99419400  1
  O  O1  1  0.21472100  0.67207000  0.00535400  1
  O  O2  1  0.14673100  0.88355900  0.89126900  1
  O  O3  1  0.84756700  0.11846400  0.11010100  1
  O  O4  1  0.84736800  0.75449100  0.24612900  1
  O  O5  1  0.15436400  0.25297700  0.75976000  1
  O  O6  1  0.57057100  0.03957200  0.91355500  1
  O  O7  1  0.43605400  0.95774900  0.09470100  1
  O  O8  1  0.33876100  0.53838500  0.51309900  1
  O  O9  1  0.69874500  0.50948100  0.56113900  1
  O  O10  1  0.41158900  0.24152900  0.03068600  1
  O  O11  1  0.65502200  0.74524500  0.98844300  1
  O  O12  1  0.67787600  0.51291000  0.17004200  1
  O  O13  1  0.32595000  0.49424800  0.82869900  1
  O  O14  1  0.45180700  0.31915800  0.26213300  1
  O  O15  1  0.42537800  0.61427600  0.62245600  1
  O  O16  1  0.56340400  0.73555800  0.35641900  1
  O  O17  1  0.43675400  0.26785300  0.64672300  1
  O  O18  1  0.36685800  0.40496300  0.24175900  1
  O  O19  1  0.66808400  0.53971000  0.66353300  1
  O  O20  1  0.55793400  0.04960600  0.50055700  1
  O  O21  1  0.44187000  0.94970900  0.50234400  1
  O  O22  1  0.87752700  0.27461600  0.83333200  1
  O  O23  1  0.11656600  0.73123100  0.16780900  1
  O  O24  1  0.25948100  0.86766500  0.68470700  1
  O  O25  1  0.73360100  0.13773000  0.31845500  1
  O  O26  1  0.66062900  0.98474600  0.74144400  1
  O  O27  1  0.33983400  0.01530800  0.26347600  1
  O  O28  1  0.97857900  0.98808900  0.81032800  1
  O  O29  1  0.01974700  0.02091400  0.19617500  1
  O  O30  1  0.06111300  0.66048400  0.38118500  1
  O  O31  1  0.94033200  0.34496500  0.62213800  1
  O  O32  1  0.66739900  0.75945200  0.45470100  1
  O  O33  1  0.33429900  0.23692100  0.54557200  1
  O  O34  1  0.89908800  0.41471200  0.28905600  1
  O  O35  1  0.09665300  0.59095800  0.71590300  1
  O  O36  1  0.06961000  0.94697000  0.59156500  1
  O  O37  1  0.92563700  0.06036800  0.41167200  1
  O  O38  1  0.27743400  0.36960900  0.12756500  1
  O  O39  1  0.74653200  0.70378400  0.93499700  1
loop_
_geom_bond_atom_site_label_1
_geom_bond_atom_site_label_2
_geom_bond_distance
_geom_bond_site_symmetry_2
Bi0 O5 2.272978 1_655
Bi0 O28 2.336635 1_545
Bi0 O22 2.339238 1_555
Bi0 O31 2.396340 1_555
Bi0 O36 2.532356 1_645
Bi0 O26 2.658641 1_545
Bi0 O37 2.771320 1_555
Bi1 O4 2.262532 1_455
Bi1 O29 2.330494 1_565
Bi1 O23 2.333103 1_555
Bi1 O30 2.410285 1_555
Bi1 O37 2.579540 1_465
Bi1 O27 2.626249 1_565
Bi1 O36 2.788208 1_555
Bi2 O10 2.290903 1_555
Bi2 O0 2.304422 1_554
Bi2 O3 2.391808 1_555
Bi2 O34 2.475189 1_555
Bi2 O6 2.486655 1_554
Bi2 O12 2.520396 1_555
Bi2 O25 2.582654 1_555
Bi2 O7 2.719717 1_545
Bi2 O14 2.777422 1_555
Bi3 O2 2.287933 1_555
Bi3 O1 2.317393 1_556
Bi3 O35 2.338975 1_555
Bi3 O24 2.474579 1_555
Bi3 O13 2.543749 1_555
Bi3 O7 2.579698 1_556
Bi3 O6 2.756723 1_565
C0 O24 1.255940 1_555
C0 O36 1.278097 1_555
C1 O25 1.252239 1_555
C1 O37 1.280497 1_555
C2 O12 1.247316 1_555
C2 O4 1.285537 1_555
C3 O13 1.249927 1_555
C3 O5 1.286371 1_555
C4 O22 1.264942 1_555
C4 O0 1.269970 1_555
C5 O1 1.266225 1_555
C5 O23 1.268034 1_555
C6 O34 1.261071 1_555
C6 O30 1.268840 1_655
C7 O31 1.263432 1_455
C7 O35 1.270311 1_555
C8 O26 1.251434 1_545
C8 O6 1.283298 1_555
C9 O27 1.255965 1_565
C9 O7 1.278364 1_555
C10 O28 1.263521 1_455
C10 O2 1.269544 1_555
C11 O3 1.259299 1_555
C11 O29 1.270878 1_655
O11 O39 1.231679 1_555
O14 O18 1.308432 1_555
O15 O8 1.235647 1_555
O16 O32 1.233272 1_555
O17 O33 1.233532 1_555
O18 O38 1.284395 1_555
O19 O9 1.229918 1_555
O20 O21 1.233536 1_545
