# generated using pymatgen
data_RbGeBr3
_symmetry_space_group_name_H-M   'P 1'
_cell_length_a   7.45264327
_cell_length_b   6.15217892
_cell_length_c   8.14561922
_cell_angle_alpha   74.17955810
_cell_angle_beta   90.00000000
_cell_angle_gamma   90.00000000
_symmetry_Int_Tables_number   1
_chemical_formula_structural   RbGeBr3
_chemical_formula_sum   'Rb2 Ge2 Br6'
_cell_volume   359.32959998
_cell_formula_units_Z   2
loop_
 _symmetry_equiv_pos_site_id
 _symmetry_equiv_pos_as_xyz
  1  'x, y, z'
loop_
 _atom_site_type_symbol
 _atom_site_label
 _atom_site_symmetry_multiplicity
 _atom_site_fract_x
 _atom_site_fract_y
 _atom_site_fract_z
 _atom_site_occupancy
  Rb  Rb0  1  0.75000000  0.67746219  0.70550763  1
  Rb  Rb1  1  0.25000000  0.32253781  0.29449237  1
  Ge  Ge0  1  0.75000000  0.93589666  0.11250603  1
  Ge  Ge1  1  0.25000000  0.06410334  0.88749397  1
  Br  Br0  1  0.75000000  0.33429079  0.12913211  1
  Br  Br1  1  0.25000000  0.66570921  0.87086789  1
  Br  Br2  1  0.49974535  0.18729282  0.68044457  1
  Br  Br3  1  -0.00025465  0.81270718  0.31955543  1
  Br  Br4  1  0.00025465  0.18729282  0.68044457  1
  Br  Br5  1  0.50025465  0.81270718  0.31955543  1
loop_
_geom_bond_atom_site_label_1
_geom_bond_atom_site_label_2
_geom_bond_distance
_geom_bond_site_symmetry_2
Ge0 Rb0 4.048805 1_554
Ge1 Rb1 4.048805 1_556
Br0 Ge0 2.491323 1_545
Br0 Rb0 3.520275 1_554
Br0 Rb1 3.956249 1_655
Br0 Rb1 3.956249 1_555
Br1 Ge1 2.491323 1_565
Br1 Rb1 3.520275 1_556
Br1 Rb0 3.956249 1_555
Br1 Rb0 3.956249 1_455
Br2 Ge1 2.487204 1_555
Br2 Rb1 3.551611 1_555
Br2 Rb0 3.598570 1_555
Br2 Rb0 3.606805 1_545
Br3 Ge0 2.487204 1_455
Br3 Rb0 3.551611 1_455
Br3 Rb1 3.598570 1_555
Br3 Rb1 3.606805 1_565
Br4 Ge1 2.487204 1_555
Br4 Rb1 3.551611 1_555
Br4 Rb0 3.598570 1_455
Br4 Rb0 3.606805 1_445
Br5 Ge0 2.487204 1_555
Br5 Rb0 3.551611 1_555
Br5 Rb1 3.598570 1_555
Br5 Rb1 3.606805 1_565
