# generated using pymatgen
data_K5Mo4O14F
_symmetry_space_group_name_H-M   'P 1'
_cell_length_a   10.62028164
_cell_length_b   10.62028164
_cell_length_c   8.63326645
_cell_angle_alpha   83.10812244
_cell_angle_beta   83.10812244
_cell_angle_gamma   61.81216345
_symmetry_Int_Tables_number   1
_chemical_formula_structural   K5Mo4O14F
_chemical_formula_sum   'K10 Mo8 O28 F2'
_cell_volume   849.83147996
_cell_formula_units_Z   2
loop_
 _symmetry_equiv_pos_site_id
 _symmetry_equiv_pos_as_xyz
  1  'x, y, z'
loop_
 _atom_site_type_symbol
 _atom_site_label
 _atom_site_symmetry_multiplicity
 _atom_site_fract_x
 _atom_site_fract_y
 _atom_site_fract_z
 _atom_site_occupancy
  K  K0  1  0.32303000  0.11742700  0.90914500  1
  K  K1  1  0.88257300  0.67697000  0.59085500  1
  K  K2  1  0.67697000  0.88257300  0.09085500  1
  K  K3  1  0.11742700  0.32303000  0.40914500  1
  K  K4  1  0.05899900  0.94100100  0.75000000  1
  K  K5  1  0.94100100  0.05899900  0.25000000  1
  K  K6  1  0.68194300  0.54594200  0.22786700  1
  K  K7  1  0.45405800  0.31805700  0.27213300  1
  K  K8  1  0.31805700  0.45405800  0.77213300  1
  K  K9  1  0.54594200  0.68194300  0.72786700  1
  Mo  Mo0  1  0.36860700  0.93326700  0.39622800  1
  Mo  Mo1  1  0.06673300  0.63139300  0.10377200  1
  Mo  Mo2  1  0.63139300  0.06673300  0.60377200  1
  Mo  Mo3  1  0.93326700  0.36860700  0.89622800  1
  Mo  Mo4  1  0.20671600  0.69814600  0.42885000  1
  Mo  Mo5  1  0.30185400  0.79328400  0.07115000  1
  Mo  Mo6  1  0.79328400  0.30185400  0.57115000  1
  Mo  Mo7  1  0.69814600  0.20671600  0.92885000  1
  O  O0  1  0.24903400  0.87350200  0.30869800  1
  O  O1  1  0.12649800  0.75096600  0.19130200  1
  O  O2  1  0.75096600  0.12649800  0.69130200  1
  O  O3  1  0.87350200  0.24903400  0.80869800  1
  O  O4  1  0.32275600  0.67919400  0.57091100  1
  O  O5  1  0.32080600  0.67724400  0.92908900  1
  O  O6  1  0.67724400  0.32080600  0.42908900  1
  O  O7  1  0.67919400  0.32275600  0.07091100  1
  O  O8  1  0.03506300  0.82189500  0.50526000  1
  O  O9  1  0.17810500  0.96493700  0.99474000  1
  O  O10  1  0.96493700  0.17810500  0.49474000  1
  O  O11  1  0.82189500  0.03506300  0.00526000  1
  O  O12  1  0.19694900  0.53334200  0.45026700  1
  O  O13  1  0.46665800  0.80305100  0.04973300  1
  O  O14  1  0.80305100  0.46665800  0.54973300  1
  O  O15  1  0.53334200  0.19694900  0.95026700  1
  O  O16  1  0.36351000  0.08487000  0.27774200  1
  O  O17  1  0.91513000  0.63649000  0.22225800  1
  O  O18  1  0.63649000  0.91513000  0.72225800  1
  O  O19  1  0.08487000  0.36351000  0.77774200  1
  O  O20  1  0.54890200  0.79671100  0.40028600  1
  O  O21  1  0.20328900  0.45109800  0.09971400  1
  O  O22  1  0.45109800  0.20328900  0.59971400  1
  O  O23  1  0.79671100  0.54890200  0.90028600  1
  O  O24  1  0.30325400  0.98410100  0.58898200  1
  O  O25  1  0.01589900  0.69674600  0.91101800  1
  O  O26  1  0.69674600  0.01589900  0.41101800  1
  O  O27  1  0.98410100  0.30325400  0.08898200  1
  F  F0  1  0.39225700  0.60774300  0.25000000  1
  F  F1  1  0.60774300  0.39225700  0.75000000  1
loop_
_geom_bond_atom_site_label_1
_geom_bond_atom_site_label_2
_geom_bond_distance
_geom_bond_site_symmetry_2
K0 O9 2.707850 1_545
K0 O15 2.805796 1_555
K0 O19 2.871726 1_555
K0 O22 3.087543 1_555
K0 O13 3.099623 1_546
K0 O16 3.217853 1_556
K0 O24 3.323942 1_545
K0 O18 3.329780 1_545
K1 O8 2.707850 1_655
K1 O14 2.805796 1_555
K1 O18 2.871726 1_555
K1 O23 3.087543 1_555
K1 O12 3.099623 1_655
K1 O17 3.217853 1_555
K1 O25 3.323942 1_655
K1 O19 3.329780 1_655
K2 O11 2.707850 1_565
K2 O13 2.805796 1_555
K2 O17 2.871726 1_555
K2 O20 3.087543 1_555
K2 O15 3.099623 1_564
K2 O18 3.217853 1_554
K2 O26 3.323942 1_565
K2 O16 3.329780 1_565
K3 O10 2.707850 1_455
K3 O12 2.805796 1_555
K3 O16 2.871726 1_555
K3 O21 3.087543 1_555
K3 O14 3.099623 1_455
K3 O19 3.217853 1_555
K3 O27 3.323942 1_455
K3 O17 3.329780 1_455
K4 O9 2.683873 1_555
K4 O8 2.683873 1_555
K4 O3 2.984895 1_465
K4 O2 2.984895 1_465
K4 O25 2.995779 1_555
K4 O24 2.995779 1_555
K4 O10 3.002553 1_465
K4 O11 3.002553 1_466
K4 O5 3.256117 1_555
K4 O4 3.256117 1_555
K5 O10 2.683873 1_555
K5 O11 2.683873 1_555
K5 O0 2.984895 1_645
K5 O1 2.984895 1_645
K5 O26 2.995779 1_555
K5 O27 2.995779 1_555
K5 O9 3.002553 1_644
K5 O8 3.002553 1_645
K5 O7 3.256117 1_555
K5 O6 3.256117 1_555
K6 O6 2.798635 1_555
K6 O20 2.862976 1_555
K6 O7 2.881145 1_555
K6 O23 2.944883 1_554
K6 O13 2.997773 1_555
K6 O17 3.044693 1_555
K6 O14 3.059062 1_555
K6 O27 3.222254 1_555
K7 O7 2.798635 1_555
K7 O21 2.862976 1_555
K7 O6 2.881145 1_555
K7 O22 2.944883 1_555
K7 O12 2.997773 1_555
K7 O16 3.044693 1_555
K7 O15 3.059062 1_554
K7 O26 3.222254 1_555
K8 O4 2.798635 1_555
K8 O22 2.862976 1_555
K8 O5 2.881145 1_555
K8 O21 2.944883 1_556
K8 O15 2.997773 1_555
K8 O19 3.044693 1_555
K8 O12 3.059062 1_555
K8 O25 3.222254 1_555
K9 O5 2.798635 1_555
K9 O23 2.862976 1_555
K9 O4 2.881145 1_555
K9 O20 2.944883 1_555
K9 O14 2.997773 1_555
K9 O18 3.044693 1_555
K9 O13 3.059062 1_556
K9 O24 3.222254 1_555
Mo0 O24 1.768285 1_555
Mo0 O20 1.775202 1_555
Mo0 O16 1.782499 1_565
Mo0 O0 1.921833 1_555
Mo1 O25 1.768285 1_554
Mo1 O21 1.775202 1_555
Mo1 O17 1.782499 1_455
Mo1 O1 1.921833 1_555
Mo2 O26 1.768285 1_555
Mo2 O22 1.775202 1_555
Mo2 O18 1.782499 1_545
Mo2 O2 1.921833 1_555
Mo3 O27 1.768285 1_556
Mo3 O23 1.775202 1_555
Mo3 O19 1.782499 1_655
Mo3 O3 1.921833 1_555
Mo4 O4 1.769916 1_555
Mo4 O8 1.772500 1_555
Mo4 O12 1.788190 1_555
Mo4 O1 2.222170 1_555
Mo4 O0 2.227438 1_555
Mo5 O5 1.769916 1_554
Mo5 O9 1.772500 1_554
Mo5 O13 1.788190 1_555
Mo5 O0 2.222170 1_555
Mo5 O1 2.227438 1_555
Mo6 O6 1.769916 1_555
Mo6 O10 1.772500 1_555
Mo6 O14 1.788190 1_555
Mo6 O3 2.222170 1_555
Mo6 O2 2.227438 1_555
Mo7 O7 1.769916 1_556
Mo7 O11 1.772500 1_556
Mo7 O15 1.788190 1_555
Mo7 O2 2.222170 1_555
Mo7 O3 2.227438 1_555
F0 Mo4 2.242109 1_555
F0 Mo5 2.242109 1_555
F0 K7 2.813146 1_555
F0 K6 2.813146 1_555
F1 Mo7 2.242109 1_555
F1 Mo6 2.242109 1_555
F1 K8 2.813146 1_555
F1 K9 2.813146 1_555
