# generated using pymatgen
data_Ti13Al4Si2(SbO14)2
_symmetry_space_group_name_H-M   'P 1'
_cell_length_a   12.28635707
_cell_length_b   12.28635707
_cell_length_c   8.64598204
_cell_angle_alpha   87.49498448
_cell_angle_beta   87.49498448
_cell_angle_gamma   153.94936097
_symmetry_Int_Tables_number   1
_chemical_formula_structural   Ti13Al4Si2(SbO14)2
_chemical_formula_sum   'Ti13 Al4 Si2 Sb2 O28'
_cell_volume   562.29603122
_cell_formula_units_Z   1
loop_
 _symmetry_equiv_pos_site_id
 _symmetry_equiv_pos_as_xyz
  1  'x, y, z'
loop_
 _atom_site_type_symbol
 _atom_site_label
 _atom_site_symmetry_multiplicity
 _atom_site_fract_x
 _atom_site_fract_y
 _atom_site_fract_z
 _atom_site_occupancy
  Ti  Ti0  1  0.91062800  0.63924400  0.62274200  1
  Ti  Ti1  1  0.66163900  0.81874400  0.37518800  1
  Ti  Ti2  1  0.36075600  0.08937200  0.37725800  1
  Ti  Ti3  1  0.08937200  0.36075600  0.37725800  1
  Ti  Ti4  1  0.33836100  0.18125600  0.62481200  1
  Ti  Ti5  1  0.28672900  0.71327100  0.00000000  1
  Ti  Ti6  1  0.18125600  0.33836100  0.62481200  1
  Ti  Ti7  1  0.00000000  0.00000000  0.00000000  1
  Ti  Ti8  1  0.42813500  0.57186500  0.00000000  1
  Ti  Ti9  1  0.81874400  0.66163900  0.37518800  1
  Ti  Ti10  1  0.63924400  0.91062800  0.62274200  1
  Ti  Ti11  1  0.57186500  0.42813500  0.00000000  1
  Ti  Ti12  1  0.71327100  0.28672900  0.00000000  1
  Al  Al0  1  0.07556100  0.51583300  0.65775000  1
  Al  Al1  1  0.48416700  0.92443900  0.34225000  1
  Al  Al2  1  0.92443900  0.48416700  0.34225000  1
  Al  Al3  1  0.51583300  0.07556100  0.65775000  1
  Si  Si0  1  0.22156400  0.22156400  0.31997000  1
  Si  Si1  1  0.77843600  0.77843600  0.68003000  1
  Sb  Sb0  1  0.86217800  0.13782200  0.00000000  1
  Sb  Sb1  1  0.13782200  0.86217800  0.00000000  1
  O  O0  1  0.71059100  0.02722300  0.37203900  1
  O  O1  1  0.15361200  0.59278200  0.38558700  1
  O  O2  1  0.92067100  0.92067100  0.36064600  1
  O  O3  1  0.30539100  0.30539100  0.12516000  1
  O  O4  1  0.84638800  0.40721800  0.61441300  1
  O  O5  1  0.28940900  0.97277700  0.62796100  1
  O  O6  1  0.98539300  0.53627300  0.12739000  1
  O  O7  1  0.01460700  0.46372700  0.87261000  1
  O  O8  1  0.69460900  0.69460900  0.87484000  1
  O  O9  1  0.13574000  0.27729300  0.87660600  1
  O  O10  1  0.30603300  0.41508100  0.38152200  1
  O  O11  1  0.97277700  0.28940900  0.62796100  1
  O  O12  1  0.46372700  0.01460700  0.87261000  1
  O  O13  1  0.72270700  0.86426000  0.12339400  1
  O  O14  1  0.58491900  0.69396700  0.61847800  1
  O  O15  1  0.07932900  0.07932900  0.63935400  1
  O  O16  1  0.27729300  0.13574000  0.87660600  1
  O  O17  1  0.86426000  0.72270700  0.12339400  1
  O  O18  1  0.53627300  0.98539300  0.12739000  1
  O  O19  1  0.19307800  0.47126300  0.12940600  1
  O  O20  1  0.80692200  0.52873700  0.87059400  1
  O  O21  1  0.41508100  0.30603300  0.38152200  1
  O  O22  1  0.47126300  0.19307800  0.12940600  1
  O  O23  1  0.59278200  0.15361200  0.38558700  1
  O  O24  1  0.69396700  0.58491900  0.61847800  1
  O  O25  1  0.52873700  0.80692200  0.87059400  1
  O  O26  1  0.02722300  0.71059100  0.37203900  1
  O  O27  1  0.40721800  0.84638800  0.61441300  1
loop_
_geom_bond_atom_site_label_1
_geom_bond_atom_site_label_2
_geom_bond_distance
_geom_bond_site_symmetry_2
Al0 O11 1.782931 1_455
Al0 O4 1.798280 1_455
Al0 O27 1.799083 1_555
Al0 O7 1.826095 1_555
Al0 O1 2.308643 1_555
Al1 O0 1.782931 1_565
Al1 O23 1.798280 1_565
Al1 O1 1.799083 1_555
Al1 O18 1.826095 1_555
Al1 O27 2.308643 1_555
Al2 O26 1.782931 1_655
Al2 O1 1.798280 1_655
Al2 O23 1.799083 1_555
Al2 O6 1.826095 1_555
Al2 O4 2.308643 1_555
Al3 O5 1.782931 1_545
Al3 O27 1.798280 1_545
Al3 O4 1.799083 1_555
Al3 O12 1.826095 1_555
Al3 O23 2.308643 1_555
O0 Ti1 2.036629 1_545
O0 Ti3 2.054411 1_655
O0 Ti10 2.196603 1_545
O1 Ti3 2.175999 1_555
O2 Si0 1.635032 1_665
O2 Ti1 2.121966 1_555
O2 Ti9 2.121966 1_555
O3 Si0 1.658071 1_555
O3 Ti7 2.177487 1_555
O3 Ti8 2.200079 1_555
O3 Ti11 2.200079 1_555
O4 Ti0 2.175999 1_555
O5 Ti4 2.036629 1_565
O5 Ti0 2.054411 1_455
O5 Ti2 2.196603 1_565
O6 Ti12 1.997492 1_555
O6 Ti5 2.148709 1_655
O6 Sb1 2.591101 1_655
O7 Ti5 1.997492 1_556
O7 Ti12 2.148709 1_456
O7 Sb0 2.591101 1_456
O8 Si1 1.658071 1_555
O8 Ti7 2.177487 1_666
O8 Ti11 2.200079 1_556
O8 Ti8 2.200079 1_556
O9 Ti8 2.110282 1_556
O9 Sb0 2.132938 1_456
O9 Ti6 2.147538 1_555
O9 Ti7 2.200942 1_556
O10 Si0 1.654854 1_555
O10 Ti3 2.085954 1_555
O10 Ti6 2.147480 1_555
O10 Ti1 2.170205 1_555
O11 Ti6 2.036629 1_655
O11 Ti10 2.054411 1_545
O11 Ti3 2.196603 1_655
O12 Ti12 1.997492 1_556
O12 Ti5 2.148709 1_546
O12 Sb1 2.591101 1_546
O13 Ti8 2.110282 1_555
O13 Sb0 2.132938 1_565
O13 Ti1 2.147538 1_555
O13 Ti7 2.200942 1_665
O14 Si1 1.654854 1_555
O14 Ti10 2.085954 1_555
O14 Ti1 2.147480 1_555
O14 Ti6 2.170205 1_555
O15 Si1 1.635032 1_445
O15 Ti4 2.121966 1_555
O15 Ti6 2.121966 1_555
O16 Ti11 2.110282 1_556
O16 Sb1 2.132938 1_546
O16 Ti4 2.147538 1_555
O16 Ti7 2.200942 1_556
O17 Ti11 2.110282 1_555
O17 Sb1 2.132938 1_655
O17 Ti9 2.147538 1_555
O17 Ti7 2.200942 1_665
O18 Ti5 1.997492 1_555
O18 Ti12 2.148709 1_565
O18 Sb0 2.591101 1_565
O19 Ti8 2.074309 1_555
O19 Ti3 2.111304 1_555
O19 Ti5 2.205926 1_555
O19 Sb0 2.331373 1_455
O20 Ti11 2.074309 1_556
O20 Ti0 2.111304 1_555
O20 Ti12 2.205926 1_556
O20 Sb1 2.331373 1_656
O21 Si0 1.654854 1_555
O21 Ti2 2.085954 1_555
O21 Ti4 2.147480 1_555
O21 Ti9 2.170205 1_555
O22 Ti11 2.074309 1_555
O22 Ti2 2.111304 1_555
O22 Ti12 2.205926 1_555
O22 Sb1 2.331373 1_545
O23 Ti2 2.175999 1_555
O24 Si1 1.654854 1_555
O24 Ti0 2.085954 1_555
O24 Ti9 2.147480 1_555
O24 Ti4 2.170205 1_555
O25 Ti8 2.074309 1_556
O25 Ti10 2.111304 1_555
O25 Ti5 2.205926 1_556
O25 Sb0 2.331373 1_566
O26 Ti9 2.036629 1_455
O26 Ti2 2.054411 1_565
O26 Ti0 2.196603 1_455
O27 Ti10 2.175999 1_555
