# generated using pymatgen
data_HoTiFe11
_symmetry_space_group_name_H-M   'P 1'
_cell_length_a   6.44814903
_cell_length_b   6.44814903
_cell_length_c   6.44814903
_cell_angle_alpha   137.18247524
_cell_angle_beta   97.73705520
_cell_angle_gamma   97.57656335
_symmetry_Int_Tables_number   1
_chemical_formula_structural   HoTiFe11
_chemical_formula_sum   'Ho1 Ti1 Fe11'
_cell_volume   169.64836390
_cell_formula_units_Z   1
loop_
 _symmetry_equiv_pos_site_id
 _symmetry_equiv_pos_as_xyz
  1  'x, y, z'
loop_
 _atom_site_type_symbol
 _atom_site_label
 _atom_site_symmetry_multiplicity
 _atom_site_fract_x
 _atom_site_fract_y
 _atom_site_fract_z
 _atom_site_occupancy
  Ho  Ho0  1  0.00637900  0.00000000  0.00637900  1
  Ti  Ti0  1  0.63329900  0.00000000  0.63329900  1
  Fe  Fe0  1  0.49968500  0.49786200  0.50032400  1
  Fe  Fe1  1  0.49968500  0.99936100  0.00182300  1
  Fe  Fe2  1  0.00246200  0.00063900  0.50032400  1
  Fe  Fe3  1  0.00246200  0.50213800  0.00182300  1
  Fe  Fe4  1  0.22723800  0.50000000  0.72723800  1
  Fe  Fe5  1  0.77617900  0.50000000  0.27617900  1
  Fe  Fe6  1  0.77753600  0.27827400  0.49926200  1
  Fe  Fe7  1  0.22098800  0.72172600  0.49926200  1
  Fe  Fe8  1  0.35454400  0.00000000  0.35454400  1
  Fe  Fe9  1  0.35671100  0.35694000  0.99977200  1
  Fe  Fe10  1  0.64283200  0.64306000  0.99977200  1
loop_
_geom_bond_atom_site_label_1
_geom_bond_atom_site_label_2
_geom_bond_distance
_geom_bond_site_symmetry_2
Ho0 Ti0 3.164854 1_454
Fe0 Fe1 2.346642 1_545
Fe0 Fe1 2.360754 1_556
Fe0 Fe6 2.423404 1_555
Fe0 Fe4 2.428219 1_555
Fe0 Fe5 2.446294 1_555
Fe0 Fe7 2.451228 1_555
Fe0 Fe8 2.570835 1_555
Fe0 Fe10 2.578472 1_555
Fe0 Fe9 2.601625 1_554
Fe0 Ti0 2.637002 1_565
Fe0 Ho0 3.185516 1_555
Fe0 Ho0 3.262845 1_666
Fe1 Fe6 2.423404 1_565
Fe1 Fe4 2.428219 1_554
Fe1 Fe5 2.446294 1_565
Fe1 Fe7 2.451228 1_554
Fe1 Fe8 2.570835 1_565
Fe1 Fe10 2.578472 1_554
Fe1 Fe9 2.601627 1_564
Fe1 Ti0 2.637002 1_564
Fe1 Ho0 3.185516 1_565
Fe1 Ho0 3.262845 1_665
Fe2 Fe3 2.346642 1_545
Fe2 Fe3 2.360754 1_556
Fe2 Fe7 2.423404 1_545
Fe2 Fe4 2.428219 1_555
Fe2 Fe5 2.446294 1_445
Fe2 Fe6 2.451228 1_455
Fe2 Fe8 2.570835 1_555
Fe2 Fe9 2.578468 1_555
Fe2 Ti0 2.637002 1_455
Fe2 Ho0 3.185516 1_555
Fe2 Ho0 3.262845 1_556
Fe3 Fe7 2.423404 1_555
Fe3 Fe4 2.428219 1_554
Fe3 Fe5 2.446294 1_455
Fe3 Fe6 2.451228 1_454
Fe3 Fe8 2.570835 1_565
Fe3 Fe9 2.578466 1_554
Fe3 Ti0 2.637002 1_454
Fe3 Ho0 3.185516 1_565
Fe3 Ho0 3.262845 1_555
Fe4 Fe8 2.589627 1_555
Fe4 Fe8 2.589627 1_566
Fe4 Fe9 2.611985 1_555
Fe4 Fe7 2.699864 1_555
Fe4 Fe6 2.699864 1_455
Fe4 Ho0 3.008340 1_555
Fe4 Ho0 3.008340 1_566
Fe5 Fe9 2.641117 1_554
Fe5 Ti0 2.647447 1_565
Fe5 Ti0 2.647447 1_554
Fe5 Fe7 2.670289 1_655
Fe5 Fe6 2.670289 1_555
Fe5 Ho0 3.058318 1_666
Fe5 Ho0 3.058318 1_655
Fe6 Ti0 2.623590 1_555
Fe6 Fe8 2.664110 1_555
Fe6 Ho0 3.015413 1_655
Fe6 Ho0 3.015413 1_666
Fe7 Fe9 2.619119 1_554
Fe7 Fe9 2.619123 1_565
Fe7 Ti0 2.623590 1_565
Fe7 Fe8 2.664110 1_565
Fe7 Ho0 3.015413 1_566
Fe7 Ho0 3.015413 1_555
Fe8 Ti0 2.364691 1_555
Fe8 Fe9 2.921499 1_544
Fe8 Fe9 2.921503 1_555
Fe8 Ho0 2.953499 1_555
Fe9 Ti0 2.881052 1_566
Fe9 Ti0 2.881056 1_555
Fe9 Ho0 3.033304 1_556
Fe10 Fe9 2.431063 1_555
Fe10 Fe3 2.601624 1_656
Fe10 Fe2 2.601624 1_666
Fe10 Fe4 2.611987 1_555
Fe10 Fe6 2.619123 1_566
Fe10 Fe6 2.619123 1_555
Fe10 Fe5 2.641112 1_556
Fe10 Ti0 2.881050 1_566
Fe10 Ti0 2.881050 1_555
Fe10 Fe8 2.921501 1_555
Fe10 Fe8 2.921501 1_566
Fe10 Ho0 3.033309 1_666
