# generated using pymatgen
data_Tb6Ge3Se14
_symmetry_space_group_name_H-M   'P 1'
_cell_length_a   10.24867691
_cell_length_b   10.24872393
_cell_length_c   6.23936339
_cell_angle_alpha   90.00120408
_cell_angle_beta   90.00019964
_cell_angle_gamma   119.99991239
_symmetry_Int_Tables_number   1
_chemical_formula_structural   Tb6Ge3Se14
_chemical_formula_sum   'Tb6 Ge3 Se14'
_cell_volume   567.55622589
_cell_formula_units_Z   1
loop_
 _symmetry_equiv_pos_site_id
 _symmetry_equiv_pos_as_xyz
  1  'x, y, z'
loop_
 _atom_site_type_symbol
 _atom_site_label
 _atom_site_symmetry_multiplicity
 _atom_site_fract_x
 _atom_site_fract_y
 _atom_site_fract_z
 _atom_site_occupancy
  Tb  Tb0  1  0.30736555  0.11542387  0.74394077  1
  Tb  Tb1  1  0.80800717  0.69257723  0.74393242  1
  Tb  Tb2  1  0.88456904  0.19197189  0.74395883  1
  Tb  Tb3  1  0.02869746  0.55170007  0.23325335  1
  Tb  Tb4  1  0.52304621  0.97132070  0.23323212  1
  Tb  Tb5  1  0.44828722  0.47696049  0.23323441  1
  Ge  Ge0  1  -0.00001585  0.00000436  0.16486738  1
  Ge  Ge1  1  0.33334416  0.66666216  0.65520304  1
  Ge  Ge2  1  0.66665577  0.33332731  0.53377264  1
  Se  Se0  1  0.00005366  -0.00000751  0.54138807  1
  Se  Se1  1  0.33334305  0.66667933  0.03277441  1
  Se  Se2  1  0.14652891  0.23980398  0.00167327  1
  Se  Se3  1  0.09326504  0.85347894  0.00165977  1
  Se  Se4  1  0.76017954  0.90676755  0.00162350  1
  Se  Se5  1  0.18703095  0.42678957  0.49409008  1
  Se  Se6  1  0.23974219  0.81294895  0.49402301  1
  Se  Se7  1  0.57320879  0.76023076  0.49404762  1
  Se  Se8  1  0.41069085  0.18331838  0.30515035  1
  Se  Se9  1  0.77265292  0.58934039  0.30506525  1
  Se  Se10  1  0.81670470  0.22738383  0.30514650  1
  Se  Se11  1  0.92774525  0.48863574  0.80003616  1
  Se  Se12  1  0.56086931  0.07225057  0.79998329  1
  Se  Se13  1  0.51135909  0.43909744  0.80000278  1
loop_
_geom_bond_atom_site_label_1
_geom_bond_atom_site_label_2
_geom_bond_distance
_geom_bond_site_symmetry_2
Ge0 Se0 2.349250 1_555
Ge0 Se2 2.375179 1_555
Ge0 Se3 2.375200 1_545
Ge0 Se4 2.375330 1_445
Ge1 Se1 2.355805 1_556
Ge1 Se5 2.369860 1_555
Ge1 Se7 2.369920 1_555
Ge1 Se6 2.370157 1_555
Ge2 Se8 2.692010 1_555
Ge2 Se10 2.692264 1_555
Ge2 Se9 2.692699 1_555
Ge2 Se13 2.862294 1_555
Ge2 Se12 2.862337 1_555
Ge2 Se11 2.862563 1_555
Se0 Tb0 3.031547 1_555
Se0 Tb1 3.032560 1_445
Se0 Tb2 3.032844 1_455
Se1 Tb4 3.003658 1_555
Se1 Tb3 3.003729 1_555
Se1 Tb5 3.003883 1_555
Se2 Tb2 2.952552 1_454
Se2 Tb0 3.004855 1_554
Se2 Tb5 3.168973 1_555
Se3 Tb0 2.952460 1_564
Se3 Tb1 3.005161 1_454
Se3 Tb3 3.169413 1_555
Se4 Tb1 2.952973 1_554
Se4 Tb2 3.004581 1_564
Se4 Tb4 3.168627 1_555
Se5 Tb5 2.950571 1_555
Se5 Tb3 2.999675 1_555
Se5 Tb2 3.220460 1_455
Se6 Tb3 2.950081 1_555
Se6 Tb4 2.999983 1_555
Se6 Tb0 3.220724 1_565
Se7 Tb4 2.950446 1_555
Se7 Tb5 2.999753 1_555
Se7 Tb1 3.220364 1_555
Se8 Tb5 2.871779 1_555
Se8 Tb0 2.892094 1_555
Se8 Tb4 2.957998 1_545
Se8 Tb0 3.623495 1_554
Se9 Tb3 2.871909 1_655
Se9 Tb1 2.892279 1_555
Se9 Tb5 2.957986 1_555
Se9 Tb1 3.622890 1_554
Se10 Tb4 2.871920 1_545
Se10 Tb2 2.892069 1_555
Se10 Tb3 2.957705 1_655
Se10 Tb2 3.623262 1_554
Se11 Tb3 2.850544 1_656
Se11 Tb2 2.866529 1_555
Se11 Tb1 2.926104 1_555
Se11 Tb3 3.650408 1_655
Se12 Tb4 2.850733 1_546
Se12 Tb0 2.866641 1_555
Se12 Tb2 2.926254 1_555
Se12 Tb4 3.650149 1_545
Se13 Tb5 2.850599 1_556
Se13 Tb1 2.866405 1_555
Se13 Tb0 2.926097 1_555
Se13 Tb5 3.650278 1_555
