# generated using pymatgen
data_KRb2W(OF)3
_symmetry_space_group_name_H-M   'P 1'
_cell_length_a   6.49814455
_cell_length_b   6.46553491
_cell_length_c   6.42784386
_cell_angle_alpha   60.52792831
_cell_angle_beta   60.02307602
_cell_angle_gamma   59.44899567
_symmetry_Int_Tables_number   1
_chemical_formula_structural   KRb2W(OF)3
_chemical_formula_sum   'K1 Rb2 W1 O3 F3'
_cell_volume   190.92688412
_cell_formula_units_Z   1
loop_
 _symmetry_equiv_pos_site_id
 _symmetry_equiv_pos_as_xyz
  1  'x, y, z'
loop_
 _atom_site_type_symbol
 _atom_site_label
 _atom_site_symmetry_multiplicity
 _atom_site_fract_x
 _atom_site_fract_y
 _atom_site_fract_z
 _atom_site_occupancy
  K  K0  1  0.50224900  0.50224900  0.49775100  1
  Rb  Rb0  1  0.75859800  0.75859800  0.74140200  1
  Rb  Rb1  1  0.25859800  0.25859800  0.24140200  1
  W  W0  1  0.01675200  0.01675200  0.98324800  1
  O  O0  1  0.18656700  0.78021600  0.81343300  1
  O  O1  1  0.21308800  0.21308800  0.78691200  1
  O  O2  1  0.78021600  0.18656700  0.21978400  1
  F  F0  1  0.22116200  0.78128000  0.21872000  1
  F  F1  1  0.78149100  0.78149100  0.21850900  1
  F  F2  1  0.78128000  0.22116200  0.77883800  1
loop_
_geom_bond_atom_site_label_1
_geom_bond_atom_site_label_2
_geom_bond_distance
_geom_bond_site_symmetry_2
K0 O1 2.672569 1_555
K0 O0 2.690050 1_555
K0 O2 2.690050 1_555
O0 W0 1.863153 1_565
O0 Rb0 3.116642 1_455
O0 Rb1 3.116642 1_556
O0 Rb1 3.444806 1_565
O0 Rb0 3.444806 1_555
O1 W0 1.814634 1_555
O1 Rb1 3.241330 1_556
O1 Rb0 3.241330 1_455
O1 Rb0 3.241330 1_545
O1 Rb1 3.241330 1_555
O2 W0 1.863153 1_654
O2 Rb1 3.116642 1_555
O2 Rb0 3.116642 1_545
O2 Rb0 3.444806 1_554
O2 Rb1 3.444806 1_655
F0 W0 2.014662 1_564
F0 K0 2.558841 1_555
F0 Rb0 3.196213 1_455
F0 Rb1 3.196213 1_555
F0 Rb1 3.293319 1_565
F0 Rb0 3.293319 1_554
F1 W0 2.174398 1_664
F1 K0 2.580893 1_555
F1 Rb0 3.220879 1_554
F1 Rb1 3.220879 1_565
F1 Rb1 3.220879 1_655
F1 Rb0 3.220879 1_555
F2 W0 2.014662 1_655
F2 K0 2.558841 1_555
F2 Rb0 3.196213 1_545
F2 Rb1 3.196213 1_556
F2 Rb1 3.293319 1_655
F2 Rb0 3.293319 1_555
