# generated using pymatgen
data_HoGa2Ni3
_symmetry_space_group_name_H-M   'P 1'
_cell_length_a   4.02807469
_cell_length_b   8.67730376
_cell_length_c   8.67803629
_cell_angle_alpha   119.99488817
_cell_angle_beta   89.99994975
_cell_angle_gamma   90.00003326
_symmetry_Int_Tables_number   1
_chemical_formula_structural   HoGa2Ni3
_chemical_formula_sum   'Ho3 Ga6 Ni9'
_cell_volume   262.69800660
_cell_formula_units_Z   3
loop_
 _symmetry_equiv_pos_site_id
 _symmetry_equiv_pos_as_xyz
  1  'x, y, z'
loop_
 _atom_site_type_symbol
 _atom_site_label
 _atom_site_symmetry_multiplicity
 _atom_site_fract_x
 _atom_site_fract_y
 _atom_site_fract_z
 _atom_site_occupancy
  Ho  Ho0  1  0.50000006  0.33333531  0.66666102  1
  Ho  Ho1  1  0.50000009  0.66665721  0.33332516  1
  Ho  Ho2  1  -0.00000009  0.99994798  0.00002002  1
  Ga  Ga0  1  0.99999988  0.52030924  -0.00001747  1
  Ga  Ga1  1  0.00000126  0.47973995  0.47969187  1
  Ga  Ga2  1  1.00000011  0.00003710  0.52031765  1
  Ga  Ga3  1  0.49999915  0.27095872  -0.00001469  1
  Ga  Ga4  1  0.50000013  0.72900127  0.72901416  1
  Ga  Ga5  1  0.49999955  -0.00003249  0.27099847  1
  Ni  Ni0  1  0.00000068  0.17297748  0.37291729  1
  Ni  Ni1  1  0.00000048  0.19991739  0.82703708  1
  Ni  Ni2  1  1.00000050  0.62703943  0.80002875  1
  Ni  Ni3  1  0.00000014  0.80010586  0.62712433  1
  Ni  Ni4  1  1.00000006  0.37290049  0.17294702  1
  Ni  Ni5  1  0.99999893  0.82698530  0.19997601  1
  Ni  Ni6  1  0.49999919  0.70752849  -0.00000898  1
  Ni  Ni7  1  0.49999986  0.29248879  0.29248493  1
  Ni  Ni8  1  0.50000003  1.00000444  0.70749836  1
loop_
_geom_bond_atom_site_label_1
_geom_bond_atom_site_label_2
_geom_bond_distance
_geom_bond_site_symmetry_2
Ho0 Ni2 2.990290 1_455
Ho0 Ni2 2.990292 1_555
Ho0 Ni0 2.990663 1_555
Ho0 Ni0 2.990664 1_655
Ho0 Ni1 2.990748 1_555
Ho0 Ni1 2.990753 1_655
Ho0 Ni8 3.084886 1_545
Ho0 Ni7 3.085231 1_555
Ho0 Ni6 3.085353 1_556
Ho1 Ni5 2.990085 1_555
Ho1 Ni5 2.990094 1_455
Ho1 Ni4 2.990611 1_455
Ho1 Ni4 2.990612 1_555
Ho1 Ni3 2.990951 1_555
Ho1 Ni3 2.990953 1_655
Ho1 Ni7 3.084902 1_555
Ho1 Ni6 3.085312 1_555
Ho1 Ni8 3.085373 1_555
Ho2 Ni5 2.804901 1_455
Ho2 Ni2 2.804942 1_454
Ho2 Ni3 2.805018 1_554
Ho2 Ni0 2.805030 1_565
Ho2 Ni1 2.805129 1_564
Ho2 Ni4 2.805244 1_465
Ho2 Ni6 3.239470 1_555
Ho2 Ni6 3.239472 1_455
Ho2 Ni7 3.240373 1_465
Ho2 Ni7 3.240374 1_565
Ho2 Ni8 3.240623 1_554
Ho2 Ni8 3.240625 1_454
Ga0 Ni2 2.339965 1_554
Ga0 Ni5 2.340065 1_555
Ga0 Ni4 2.410133 1_555
Ga0 Ni1 2.410350 1_654
Ga0 Ni6 2.587547 1_655
Ga0 Ni6 2.587553 1_555
Ga0 Ho0 3.219214 1_654
Ga0 Ho0 3.219216 1_554
Ga0 Ho1 3.219331 1_555
Ga0 Ho1 3.219334 1_655
Ga1 Ni4 2.340506 1_455
Ga1 Ni0 2.340522 1_555
Ga1 Ni3 2.410125 1_555
Ga1 Ni2 2.410168 1_455
Ga1 Ni7 2.587744 1_555
Ga1 Ni7 2.587753 1_455
Ga1 Ho1 3.218723 1_555
Ga1 Ho1 3.218731 1_455
Ga1 Ho0 3.219280 1_555
Ga1 Ho0 3.219284 1_455
Ga2 Ni3 2.340212 1_645
Ga2 Ni1 2.340331 1_655
Ga2 Ni0 2.409864 1_655
Ga2 Ni5 2.410217 1_545
Ga2 Ni8 2.587538 1_545
Ga2 Ni8 2.587539 1_645
Ga2 Ho0 3.218887 1_655
Ga2 Ho0 3.218887 1_555
Ga2 Ho1 3.219401 1_545
Ga2 Ho1 3.219401 1_645
Ga3 Ni1 2.400799 1_554
Ga3 Ni1 2.400807 1_654
Ga3 Ni4 2.400874 1_455
Ga3 Ni4 2.400881 1_555
Ga3 Ni8 2.450232 1_544
Ga3 Ni7 2.450273 1_555
Ga3 Ho2 3.096330 1_545
Ga3 Ho2 3.096336 1_645
Ga3 Ho0 3.197735 1_554
Ga3 Ho1 3.197898 1_555
Ga4 Ni2 2.400848 1_455
Ga4 Ni2 2.400852 1_555
Ga4 Ni3 2.400897 1_655
Ga4 Ni3 2.400899 1_555
Ga4 Ni6 2.450016 1_556
Ga4 Ni8 2.450262 1_555
Ga4 Ho2 3.096205 1_656
Ga4 Ho2 3.096205 1_556
Ga4 Ho0 3.197334 1_555
Ga4 Ho1 3.197865 1_555
Ga5 Ni5 2.400891 1_545
Ga5 Ni5 2.400895 1_445
Ga5 Ni0 2.400995 1_555
Ga5 Ni0 2.401003 1_655
Ga5 Ni6 2.450173 1_545
Ga5 Ni7 2.450407 1_555
Ga5 Ho2 3.096092 1_645
Ga5 Ho2 3.096092 1_545
Ga5 Ho1 3.197133 1_545
Ga5 Ho0 3.197883 1_555
Ni0 Ni7 2.518472 1_555
Ni0 Ni7 2.518480 1_455
Ni0 Ni5 2.600184 1_445
Ni1 Ni8 2.518417 1_545
Ni1 Ni8 2.518419 1_445
Ni1 Ni4 2.599785 1_456
Ni2 Ni6 2.518640 1_656
Ni2 Ni6 2.518647 1_556
Ni2 Ni3 2.599933 1_655
Ni3 Ni8 2.518321 1_555
Ni3 Ni8 2.518322 1_455
Ni4 Ni7 2.518536 1_555
Ni4 Ni7 2.518536 1_655
Ni5 Ni6 2.518737 1_555
Ni5 Ni6 2.518737 1_655
