# generated using pymatgen
data_CaSnP2O7
_symmetry_space_group_name_H-M   'P 1'
_cell_length_a   9.73415800
_cell_length_b   7.60959500
_cell_length_c   9.59909847
_cell_angle_alpha   66.54049469
_cell_angle_beta   90.00000000
_cell_angle_gamma   90.00000000
_symmetry_Int_Tables_number   1
_chemical_formula_structural   CaSnP2O7
_chemical_formula_sum   'Ca4 Sn4 P8 O28'
_cell_volume   652.26113507
_cell_formula_units_Z   4
loop_
 _symmetry_equiv_pos_site_id
 _symmetry_equiv_pos_as_xyz
  1  'x, y, z'
loop_
 _atom_site_type_symbol
 _atom_site_label
 _atom_site_symmetry_multiplicity
 _atom_site_fract_x
 _atom_site_fract_y
 _atom_site_fract_z
 _atom_site_occupancy
  Ca  Ca0  1  0.94800300  0.28854400  0.82191100  1
  Ca  Ca1  1  0.44800300  0.71145600  0.67808900  1
  Ca  Ca2  1  0.55199700  0.28854400  0.32191100  1
  Ca  Ca3  1  0.05199700  0.71145600  0.17808900  1
  Sn  Sn0  1  0.08150400  0.76562200  0.60845000  1
  Sn  Sn1  1  0.91849600  0.23437800  0.39155000  1
  Sn  Sn2  1  0.58150400  0.23437800  0.89155000  1
  Sn  Sn3  1  0.41849600  0.76562200  0.10845000  1
  P  P0  1  0.73916800  0.93052500  0.25522700  1
  P  P1  1  0.22307800  0.46864500  0.97331800  1
  P  P2  1  0.76083200  0.93052500  0.75522700  1
  P  P3  1  0.27692200  0.46864500  0.47331800  1
  P  P4  1  0.23916800  0.06947500  0.24477300  1
  P  P5  1  0.72307800  0.53135500  0.52668200  1
  P  P6  1  0.77692200  0.53135500  0.02668200  1
  P  P7  1  0.26083200  0.06947500  0.74477300  1
  O  O0  1  0.19115500  0.25415700  0.09627300  1
  O  O1  1  0.62219100  0.89332100  0.70038700  1
  O  O2  1  0.87780900  0.89332100  0.20038700  1
  O  O3  1  0.36486600  0.47871400  0.90235800  1
  O  O4  1  0.80884500  0.74584300  0.90372700  1
  O  O5  1  0.12029000  0.03239400  0.35785600  1
  O  O6  1  0.63513400  0.52128600  0.09764200  1
  O  O7  1  0.10341300  0.49982400  0.86055400  1
  O  O8  1  0.28501800  0.60443600  0.55704800  1
  O  O9  1  0.87971000  0.96760600  0.64214400  1
  O  O10  1  0.37971000  0.03239400  0.85785600  1
  O  O11  1  0.75694200  0.09526100  0.81320800  1
  O  O12  1  0.25694200  0.90473900  0.68679200  1
  O  O13  1  0.30884500  0.25415700  0.59627300  1
  O  O14  1  0.62029000  0.96760600  0.14214400  1
  O  O15  1  0.12219100  0.10667900  0.79961300  1
  O  O16  1  0.24305800  0.90473900  0.18679200  1
  O  O17  1  0.89658700  0.50017600  0.13944600  1
  O  O18  1  0.21498200  0.60443600  0.05704800  1
  O  O19  1  0.78501800  0.39556400  0.94295200  1
  O  O20  1  0.86486600  0.52128600  0.59764200  1
  O  O21  1  0.39658700  0.49982400  0.36055400  1
  O  O22  1  0.60341300  0.50017600  0.63944600  1
  O  O23  1  0.37780900  0.10667900  0.29961300  1
  O  O24  1  0.74305800  0.09526100  0.31320800  1
  O  O25  1  0.13513400  0.47871400  0.40235800  1
  O  O26  1  0.71498200  0.39556400  0.44295200  1
  O  O27  1  0.69115500  0.74584300  0.40372700  1
loop_
_geom_bond_atom_site_label_1
_geom_bond_atom_site_label_2
_geom_bond_distance
_geom_bond_site_symmetry_2
Ca0 O15 2.252079 1_655
Ca0 O19 2.298612 1_555
Ca0 O20 2.321718 1_555
Ca0 O7 2.342185 1_655
Ca0 O11 2.393115 1_555
Ca1 O1 2.252079 1_555
Ca1 O8 2.298612 1_555
Ca1 O3 2.321718 1_555
Ca1 O22 2.342185 1_555
Ca1 O12 2.393115 1_555
Ca2 O23 2.252079 1_555
Ca2 O26 2.298612 1_555
Ca2 O6 2.321718 1_555
Ca2 O21 2.342185 1_555
Ca2 O24 2.393115 1_555
Ca3 O2 2.252079 1_455
Ca3 O18 2.298612 1_555
Ca3 O25 2.321718 1_555
Ca3 O17 2.342185 1_455
Ca3 O16 2.393115 1_555
O0 P1 1.618565 1_554
O0 P4 1.621847 1_555
O1 P2 1.515657 1_555
O2 P0 1.515657 1_555
O3 P1 1.527482 1_555
O4 P6 1.618565 1_556
O4 P2 1.621847 1_555
O5 P4 1.533984 1_555
O5 Sn0 2.482312 1_545
O5 Sn1 2.592545 1_455
O6 P6 1.527482 1_555
O7 P1 1.542829 1_555
O7 Sn0 2.468921 1_555
O8 P3 1.543110 1_555
O8 Sn0 2.480782 1_555
O9 P2 1.533984 1_555
O9 Sn1 2.482312 1_565
O9 Sn0 2.592545 1_655
O10 P7 1.533984 1_555
O10 Sn3 2.482312 1_546
O10 Sn2 2.592545 1_555
O11 P2 1.561459 1_545
O11 Sn2 2.288328 1_555
O12 P7 1.561459 1_565
O12 Sn0 2.288328 1_555
O13 P3 1.618565 1_555
O13 P7 1.621847 1_555
O14 P0 1.533984 1_555
O14 Sn2 2.482312 1_564
O14 Sn3 2.592545 1_555
O15 P7 1.515657 1_555
O16 P4 1.561459 1_565
O16 Sn3 2.288328 1_555
O17 P6 1.542829 1_555
O17 Sn1 2.468921 1_555
O18 P1 1.543110 1_554
O18 Sn3 2.480782 1_555
O19 P6 1.543110 1_556
O19 Sn2 2.480782 1_555
O20 P5 1.527482 1_555
O21 P3 1.542829 1_555
O21 Sn3 2.468921 1_555
O22 P5 1.542829 1_555
O22 Sn2 2.468921 1_555
O23 P4 1.515657 1_555
O24 P0 1.561459 1_545
O24 Sn1 2.288328 1_555
O25 P3 1.527482 1_555
O26 P5 1.543110 1_555
O26 Sn1 2.480782 1_555
O27 P5 1.618565 1_555
O27 P0 1.621847 1_555
