# generated using pymatgen
data_YMnO3
_symmetry_space_group_name_H-M   'P 1'
_cell_length_a   6.13798979
_cell_length_b   6.13799010
_cell_length_c   11.44042308
_cell_angle_alpha   90.00000087
_cell_angle_beta   89.99999817
_cell_angle_gamma   119.99938510
_symmetry_Int_Tables_number   1
_chemical_formula_structural   YMnO3
_chemical_formula_sum   'Y6 Mn6 O18'
_cell_volume   373.27401061
_cell_formula_units_Z   6
loop_
 _symmetry_equiv_pos_site_id
 _symmetry_equiv_pos_as_xyz
  1  'x, y, z'
loop_
 _atom_site_type_symbol
 _atom_site_label
 _atom_site_symmetry_multiplicity
 _atom_site_fract_x
 _atom_site_fract_y
 _atom_site_fract_z
 _atom_site_occupancy
  Y  Y0  1  0.66666654  0.33333335  0.23314869  1
  Y  Y1  1  0.33333355  0.66666671  0.73314666  1
  Y  Y2  1  0.66666664  0.33333349  0.73314669  1
  Y  Y3  1  0.33333320  0.66666646  0.23314868  1
  Y  Y4  1  -0.00000010  -0.00000011  0.77666332  1
  Y  Y5  1  0.00000022  0.00000018  0.27666086  1
  Mn  Mn0  1  0.66625727  -0.00000887  0.50146563  1
  Mn  Mn1  1  0.66627233  0.66627240  0.00146717  1
  Mn  Mn2  1  0.00000903  0.33374367  0.00146753  1
  Mn  Mn3  1  -0.00000907  0.66625716  0.50146567  1
  Mn  Mn4  1  0.33372675  0.33372682  0.50146516  1
  Mn  Mn5  1  0.33374364  0.00000914  0.00146754  1
  O  O0  1  0.66666599  0.33333273  0.01969098  1
  O  O1  1  0.33333389  0.66666717  0.51968877  1
  O  O2  1  0.66666707  0.33333379  0.51968879  1
  O  O3  1  0.33333255  0.66666615  0.01969098  1
  O  O4  1  -0.00000115  -0.00000094  0.97913859  1
  O  O5  1  0.00000109  0.00000113  0.47914055  1
  O  O6  1  0.35916847  0.00000098  0.83833653  1
  O  O7  1  0.35916325  0.35916318  0.33833950  1
  O  O8  1  -0.00000087  0.64083466  0.33833936  1
  O  O9  1  0.00000087  0.35916839  0.83833653  1
  O  O10  1  0.64083322  0.64083321  0.83833673  1
  O  O11  1  0.64083470  -0.00000086  0.33833940  1
  O  O12  1  0.30697275  0.00000112  0.16470307  1
  O  O13  1  0.30696856  0.30696851  0.66470363  1
  O  O14  1  -0.00000107  0.69302975  0.66470328  1
  O  O15  1  0.00000101  0.30697271  0.16470307  1
  O  O16  1  0.69302895  0.69302897  0.16470337  1
  O  O17  1  0.69302970  -0.00000104  0.66470328  1
loop_
_geom_bond_atom_site_label_1
_geom_bond_atom_site_label_2
_geom_bond_distance
_geom_bond_site_symmetry_2
Mn0 O11 1.872747 1_555
Mn0 O17 1.874722 1_555
Mn0 O1 2.055331 1_545
Mn0 O2 2.055398 1_555
Mn0 O5 2.064346 1_655
Mn1 O10 1.872802 1_554
Mn1 O16 1.874699 1_555
Mn1 O0 2.055391 1_555
Mn1 O3 2.055392 1_555
Mn1 O4 2.064296 1_664
Mn2 O9 1.872803 1_554
Mn2 O15 1.874697 1_555
Mn2 O3 2.055327 1_555
Mn2 O0 2.055397 1_455
Mn2 O4 2.064356 1_554
Mn3 O8 1.872748 1_555
Mn3 O14 1.874721 1_555
Mn3 O2 2.055330 1_455
Mn3 O1 2.055399 1_555
Mn3 O5 2.064347 1_565
Mn4 O7 1.872746 1_555
Mn4 O13 1.874726 1_555
Mn4 O1 2.055392 1_555
Mn4 O2 2.055393 1_555
Mn4 O5 2.064285 1_555
Mn5 O6 1.872803 1_554
Mn5 O12 1.874697 1_555
Mn5 O0 2.055327 1_555
Mn5 O3 2.055396 1_545
Mn5 O4 2.064358 1_554
O0 Y0 2.442047 1_555
O1 Y1 2.442049 1_555
O2 Y2 2.442049 1_555
O3 Y3 2.442046 1_555
O4 Y4 2.316403 1_555
O5 Y5 2.316453 1_555
O6 Y1 2.309772 1_545
O6 Y2 2.309778 1_555
O6 Y4 2.314725 1_555
O7 Y0 2.309780 1_555
O7 Y3 2.309781 1_555
O7 Y5 2.314734 1_555
O8 Y3 2.309783 1_555
O8 Y0 2.309790 1_455
O8 Y5 2.314726 1_565
O9 Y2 2.309771 1_455
O9 Y1 2.309779 1_555
O9 Y4 2.314725 1_555
O10 Y2 2.309768 1_555
O10 Y1 2.309768 1_555
O10 Y4 2.314738 1_665
O11 Y0 2.309784 1_555
O11 Y3 2.309791 1_545
O11 Y5 2.314726 1_655
O12 Y3 2.270796 1_545
O12 Y0 2.270806 1_555
O12 Y5 2.278319 1_555
O13 Y2 2.270794 1_555
O13 Y1 2.270795 1_555
O13 Y4 2.278329 1_555
O14 Y1 2.270795 1_555
O14 Y2 2.270805 1_455
O14 Y4 2.278322 1_565
O15 Y0 2.270796 1_455
O15 Y3 2.270805 1_555
O15 Y5 2.278320 1_555
O16 Y0 2.270796 1_555
O16 Y3 2.270796 1_555
O16 Y5 2.278328 1_665
O17 Y2 2.270795 1_555
O17 Y1 2.270804 1_545
O17 Y4 2.278322 1_655
