# generated using pymatgen
data_Yb(ErSe2)2
_symmetry_space_group_name_H-M   'P 1'
_cell_length_a   4.09684400
_cell_length_b   6.99506800
_cell_length_c   7.18054315
_cell_angle_alpha   72.00296048
_cell_angle_beta   90.00000000
_cell_angle_gamma   90.00000000
_symmetry_Int_Tables_number   1
_chemical_formula_structural   Yb(ErSe2)2
_chemical_formula_sum   'Yb1 Er2 Se4'
_cell_volume   195.70966817
_cell_formula_units_Z   1
loop_
 _symmetry_equiv_pos_site_id
 _symmetry_equiv_pos_as_xyz
  1  'x, y, z'
loop_
 _atom_site_type_symbol
 _atom_site_label
 _atom_site_symmetry_multiplicity
 _atom_site_fract_x
 _atom_site_fract_y
 _atom_site_fract_z
 _atom_site_occupancy
  Yb  Yb0  1  0.00000000  0.50000000  0.50000000  1
  Er  Er0  1  0.00000000  0.00000000  0.00000000  1
  Er  Er1  1  0.50000000  0.50000000  0.00000000  1
  Se  Se0  1  0.50000000  0.75781200  0.24196100  1
  Se  Se1  1  0.00000000  0.25823600  0.23170400  1
  Se  Se2  1  0.50000000  0.24218800  0.75803900  1
  Se  Se3  1  0.00000000  0.74176400  0.76829600  1
loop_
_geom_bond_atom_site_label_1
_geom_bond_atom_site_label_2
_geom_bond_distance
_geom_bond_site_symmetry_2
Er0 Se1 2.808600 1_555
Er0 Se3 2.808600 1_544
Er0 Se0 2.875040 1_445
Er0 Se0 2.875040 1_545
Er0 Se2 2.875040 1_454
Er0 Se2 2.875040 1_554
Er1 Se1 2.843496 1_555
Er1 Se1 2.843496 1_655
Er1 Se3 2.843496 1_654
Er1 Se3 2.843496 1_554
Er1 Se0 2.864796 1_555
Er1 Se2 2.864796 1_554
Se0 Yb0 2.969277 1_555
Se0 Yb0 2.969277 1_655
Se1 Yb0 2.929967 1_555
Se2 Yb0 2.969277 1_555
Se2 Yb0 2.969277 1_655
Se3 Yb0 2.929967 1_555
