# generated using pymatgen
data_Eu2Al3Ga
_symmetry_space_group_name_H-M   'P 1'
_cell_length_a   5.72606806
_cell_length_b   5.72606806
_cell_length_c   5.72606787
_cell_angle_alpha   59.33972462
_cell_angle_beta   59.33972462
_cell_angle_gamma   59.33971512
_symmetry_Int_Tables_number   1
_chemical_formula_structural   Eu2Al3Ga
_chemical_formula_sum   'Eu2 Al3 Ga1'
_cell_volume   130.76064541
_cell_formula_units_Z   1
loop_
 _symmetry_equiv_pos_site_id
 _symmetry_equiv_pos_as_xyz
  1  'x, y, z'
loop_
 _atom_site_type_symbol
 _atom_site_label
 _atom_site_symmetry_multiplicity
 _atom_site_fract_x
 _atom_site_fract_y
 _atom_site_fract_z
 _atom_site_occupancy
  Eu  Eu0  1  0.12512800  0.12512800  0.12512800  1
  Eu  Eu1  1  0.87487200  0.87487200  0.87487200  1
  Al  Al0  1  0.50000000  0.00000000  0.50000000  1
  Al  Al1  1  0.00000000  0.50000000  0.50000000  1
  Al  Al2  1  0.50000000  0.50000000  0.00000000  1
  Ga  Ga0  1  0.50000000  0.50000000  0.50000000  1
loop_
_geom_bond_atom_site_label_1
_geom_bond_atom_site_label_2
_geom_bond_distance
_geom_bond_site_symmetry_2
Eu0 Ga0 3.324859 1_545
Eu0 Ga0 3.324859 1_455
Eu0 Ga0 3.324859 1_554
Eu0 Eu1 3.476082 1_544
Eu0 Eu1 3.476082 1_454
Eu0 Eu1 3.476083 1_445
Eu0 Eu1 3.527490 1_444
Eu1 Ga0 3.324859 1_565
Eu1 Ga0 3.324859 1_655
Eu1 Ga0 3.324859 1_556
Al0 Al1 2.834413 1_645
Al0 Al1 2.834413 1_555
Al0 Al2 2.834413 1_555
Al0 Al2 2.834413 1_546
Al0 Ga0 2.863034 1_545
Al0 Ga0 2.863034 1_555
Al0 Eu0 3.338367 1_556
Al0 Eu1 3.338367 1_544
Al0 Eu0 3.338367 1_655
Al0 Eu1 3.338367 1_445
Al0 Eu1 3.360179 1_545
Al0 Eu0 3.360179 1_555
Al1 Al2 2.834413 1_555
Al1 Al2 2.834413 1_456
Al1 Ga0 2.863034 1_455
Al1 Ga0 2.863034 1_555
Al1 Eu0 3.338367 1_556
Al1 Eu1 3.338367 1_454
Al1 Eu0 3.338367 1_565
Al1 Eu1 3.338367 1_445
Al1 Eu0 3.360179 1_555
Al1 Eu1 3.360179 1_455
Al2 Ga0 2.863034 1_555
Al2 Ga0 2.863034 1_554
Al2 Eu0 3.338367 1_655
Al2 Eu0 3.338367 1_565
Al2 Eu1 3.338367 1_544
Al2 Eu1 3.338367 1_454
Al2 Eu1 3.360180 1_554
Al2 Eu0 3.360180 1_555
