# generated using pymatgen
data_MgSi2WO6
_symmetry_space_group_name_H-M   'P 1'
_cell_length_a   5.40233100
_cell_length_b   9.39960300
_cell_length_c   18.97337100
_cell_angle_alpha   90.00000000
_cell_angle_beta   90.00000000
_cell_angle_gamma   90.00000000
_symmetry_Int_Tables_number   1
_chemical_formula_structural   MgSi2WO6
_chemical_formula_sum   'Mg8 Si16 W8 O48'
_cell_volume   963.46335241
_cell_formula_units_Z   8
loop_
 _symmetry_equiv_pos_site_id
 _symmetry_equiv_pos_as_xyz
  1  'x, y, z'
loop_
 _atom_site_type_symbol
 _atom_site_label
 _atom_site_symmetry_multiplicity
 _atom_site_fract_x
 _atom_site_fract_y
 _atom_site_fract_z
 _atom_site_occupancy
  Mg  Mg0  1  0.61113200  0.14868700  0.37179800  1
  Mg  Mg1  1  0.38886800  0.85131300  0.62820200  1
  Mg  Mg2  1  0.61113200  0.64868700  0.12820200  1
  Mg  Mg3  1  0.11113200  0.85131300  0.12820200  1
  Mg  Mg4  1  0.88886800  0.14868700  0.87179800  1
  Mg  Mg5  1  0.38886800  0.35131300  0.87179800  1
  Mg  Mg6  1  0.11113200  0.35131300  0.37179800  1
  Mg  Mg7  1  0.88886800  0.64868700  0.62820200  1
  Si  Si0  1  0.56751200  0.67033200  0.77168900  1
  Si  Si1  1  0.73398100  0.83756400  0.48120500  1
  Si  Si2  1  0.76601900  0.83756400  0.98120500  1
  Si  Si3  1  0.93248800  0.17033200  0.22831100  1
  Si  Si4  1  0.06751200  0.32966800  0.72831100  1
  Si  Si5  1  0.43248800  0.82966800  0.27168900  1
  Si  Si6  1  0.23398100  0.66243600  0.48120500  1
  Si  Si7  1  0.73398100  0.33756400  0.01879500  1
  Si  Si8  1  0.76601900  0.33756400  0.51879500  1
  Si  Si9  1  0.93248800  0.67033200  0.27168900  1
  Si  Si10  1  0.43248800  0.32966800  0.22831100  1
  Si  Si11  1  0.56751200  0.17033200  0.72831100  1
  Si  Si12  1  0.26601900  0.16243600  0.51879500  1
  Si  Si13  1  0.06751200  0.82966800  0.77168900  1
  Si  Si14  1  0.26601900  0.66243600  0.98120500  1
  Si  Si15  1  0.23398100  0.16243600  0.01879500  1
  W  W0  1  0.37127300  0.97166200  0.87667100  1
  W  W1  1  0.62872700  0.02833800  0.12332900  1
  W  W2  1  0.87127300  0.02833800  0.62332900  1
  W  W3  1  0.12872700  0.97166200  0.37667100  1
  W  W4  1  0.37127300  0.47166200  0.62332900  1
  W  W5  1  0.62872700  0.52833800  0.37667100  1
  W  W6  1  0.87127300  0.52833800  0.87667100  1
  W  W7  1  0.12872700  0.47166200  0.12332900  1
  O  O0  1  0.95707400  0.51545900  0.30837400  1
  O  O1  1  0.27975400  0.01531800  0.06224600  1
  O  O2  1  0.04292600  0.48454100  0.69162600  1
  O  O3  1  0.73006400  0.33962500  0.93164100  1
  O  O4  1  0.23006400  0.16037500  0.93164100  1
  O  O5  1  0.96259400  0.22903100  0.04217500  1
  O  O6  1  0.92006400  0.69212600  0.18763100  1
  O  O7  1  0.07993600  0.80787400  0.68763100  1
  O  O8  1  0.73006400  0.83962500  0.56835900  1
  O  O9  1  0.92006400  0.19212600  0.31236900  1
  O  O10  1  0.45707400  0.48454100  0.19162600  1
  O  O11  1  0.76993600  0.33962500  0.43164100  1
  O  O12  1  0.72024600  0.98468200  0.93775400  1
  O  O13  1  0.42006400  0.80787400  0.18763100  1
  O  O14  1  0.54292600  0.01545900  0.69162600  1
  O  O15  1  0.27975400  0.51531800  0.43775400  1
  O  O16  1  0.45707400  0.98454100  0.30837400  1
  O  O17  1  0.15402400  0.77631300  0.30550300  1
  O  O18  1  0.34597600  0.77631300  0.80550300  1
  O  O19  1  0.53740600  0.72903100  0.95782500  1
  O  O20  1  0.76993600  0.83962500  0.06835900  1
  O  O21  1  0.57993600  0.69212600  0.68763100  1
  O  O22  1  0.77975400  0.48468200  0.06224600  1
  O  O23  1  0.15402400  0.27631300  0.19449700  1
  O  O24  1  0.26993600  0.16037500  0.43164100  1
  O  O25  1  0.57993600  0.19212600  0.81236900  1
  O  O26  1  0.72024600  0.48468200  0.56224600  1
  O  O27  1  0.23006400  0.66037500  0.56835900  1
  O  O28  1  0.22024600  0.51531800  0.93775400  1
  O  O29  1  0.65402400  0.72368700  0.30550300  1
  O  O30  1  0.04292600  0.98454100  0.80837400  1
  O  O31  1  0.84597600  0.72368700  0.80550300  1
  O  O32  1  0.84597600  0.22368700  0.69449700  1
  O  O33  1  0.77975400  0.98468200  0.43775400  1
  O  O34  1  0.26993600  0.66037500  0.06835900  1
  O  O35  1  0.22024600  0.01531800  0.56224600  1
  O  O36  1  0.34597600  0.27631300  0.69449700  1
  O  O37  1  0.03740600  0.77096900  0.95782500  1
  O  O38  1  0.46259400  0.77096900  0.45782500  1
  O  O39  1  0.65402400  0.22368700  0.19449700  1
  O  O40  1  0.46259400  0.27096900  0.04217500  1
  O  O41  1  0.53740600  0.22903100  0.54217500  1
  O  O42  1  0.03740600  0.27096900  0.54217500  1
  O  O43  1  0.42006400  0.30787400  0.31236900  1
  O  O44  1  0.54292600  0.51545900  0.80837400  1
  O  O45  1  0.96259400  0.72903100  0.45782500  1
  O  O46  1  0.07993600  0.30787400  0.81236900  1
  O  O47  1  0.95707400  0.01545900  0.19162600  1
loop_
_geom_bond_atom_site_label_1
_geom_bond_atom_site_label_2
_geom_bond_distance
_geom_bond_site_symmetry_2
Mg0 O9 2.055123 1_555
Mg0 O16 2.126342 1_545
Mg0 O43 2.139105 1_555
Mg0 O24 2.167681 1_555
Mg0 O33 2.184566 1_545
Mg0 O11 2.290479 1_555
Mg1 O7 2.055123 1_555
Mg1 O14 2.126342 1_565
Mg1 O21 2.139105 1_555
Mg1 O8 2.167681 1_555
Mg1 O35 2.184566 1_565
Mg1 O27 2.290479 1_555
Mg2 O6 2.055123 1_555
Mg2 O10 2.126342 1_555
Mg2 O13 2.139105 1_555
Mg2 O34 2.167681 1_555
Mg2 O22 2.184566 1_555
Mg2 O20 2.290479 1_555
Mg3 O13 2.055123 1_555
Mg3 O47 2.126342 1_465
Mg3 O6 2.139105 1_455
Mg3 O20 2.167681 1_455
Mg3 O1 2.184566 1_565
Mg3 O34 2.290479 1_555
Mg4 O25 2.055123 1_555
Mg4 O30 2.126342 1_645
Mg4 O46 2.139105 1_655
Mg4 O4 2.167681 1_655
Mg4 O12 2.184566 1_545
Mg4 O3 2.290479 1_555
Mg5 O46 2.055123 1_555
Mg5 O44 2.126342 1_555
Mg5 O25 2.139105 1_555
Mg5 O3 2.167681 1_555
Mg5 O28 2.184566 1_555
Mg5 O4 2.290479 1_555
Mg6 O43 2.055123 1_555
Mg6 O0 2.126342 1_455
Mg6 O9 2.139105 1_455
Mg6 O11 2.167681 1_455
Mg6 O15 2.184566 1_555
Mg6 O24 2.290479 1_555
Mg7 O21 2.055123 1_555
Mg7 O2 2.126342 1_655
Mg7 O7 2.139105 1_655
Mg7 O27 2.167681 1_655
Mg7 O26 2.184566 1_555
Mg7 O8 2.290479 1_555
O0 Si9 1.619044 1_555
O0 W5 2.200073 1_555
O1 Si15 1.628828 1_555
O1 W1 2.216388 1_555
O2 Si4 1.619044 1_555
O2 W4 2.200073 1_555
O3 Si7 1.653854 1_556
O3 W6 2.194583 1_555
O4 Si15 1.653854 1_556
O4 W0 2.194583 1_545
O5 Si15 1.654729 1_655
O5 Si7 1.662183 1_555
O6 Si9 1.609366 1_555
O6 W7 2.655845 1_655
O7 Si13 1.609366 1_555
O7 W2 2.655845 1_465
O8 Si1 1.653854 1_555
O8 W2 2.194583 1_565
O9 Si3 1.609366 1_555
O9 W3 2.655845 1_645
O10 Si10 1.619044 1_555
O10 W7 2.200073 1_555
O11 Si8 1.653854 1_555
O11 W5 2.194583 1_555
O12 Si2 1.628828 1_555
O12 W0 2.216388 1_555
O13 Si5 1.609366 1_555
O13 W1 2.655845 1_565
O14 Si11 1.619044 1_555
O14 W2 2.200073 1_555
O15 Si6 1.628828 1_555
O15 W5 2.216388 1_555
O16 Si5 1.619044 1_555
O16 W3 2.200073 1_555
O17 Si9 1.684142 1_455
O17 Si5 1.710616 1_555
O17 W3 2.283335 1_555
O18 Si0 1.684142 1_555
O18 Si13 1.710616 1_555
O18 W0 2.283335 1_555
O19 Si14 1.654729 1_555
O19 Si2 1.662183 1_555
O20 Si2 1.653854 1_554
O20 W1 2.194583 1_565
O21 Si0 1.609366 1_555
O21 W4 2.655845 1_555
O22 Si7 1.628828 1_555
O22 W7 2.216388 1_655
O23 Si3 1.684142 1_455
O23 Si10 1.710616 1_555
O23 W7 2.283335 1_555
O24 Si12 1.653854 1_555
O24 W3 2.194583 1_545
O25 Si11 1.609366 1_555
O25 W0 2.655845 1_545
O26 Si8 1.628828 1_555
O26 W4 2.216388 1_555
O27 Si6 1.653854 1_555
O27 W4 2.194583 1_555
O28 Si14 1.628828 1_555
O28 W6 2.216388 1_455
O29 Si5 1.684142 1_555
O29 Si9 1.710616 1_555
O29 W5 2.283335 1_555
O30 Si13 1.619044 1_555
O30 W0 2.200073 1_555
O31 Si13 1.684142 1_655
O31 Si0 1.710616 1_555
O31 W6 2.283335 1_555
O32 Si4 1.684142 1_655
O32 Si11 1.710616 1_555
O32 W2 2.283335 1_555
O33 Si1 1.628828 1_555
O33 W3 2.216388 1_655
O34 Si14 1.653854 1_554
O34 W7 2.194583 1_555
O35 Si12 1.628828 1_555
O35 W2 2.216388 1_455
O36 Si11 1.684142 1_555
O36 Si4 1.710616 1_555
O36 W4 2.283335 1_555
O37 Si2 1.654729 1_455
O37 Si14 1.662183 1_555
O38 Si1 1.654729 1_555
O38 Si6 1.662183 1_555
O39 Si10 1.684142 1_555
O39 Si3 1.710616 1_555
O39 W1 2.283335 1_555
O40 Si7 1.654729 1_555
O40 Si15 1.662183 1_555
O41 Si12 1.654729 1_555
O41 Si8 1.662183 1_555
O42 Si8 1.654729 1_455
O42 Si12 1.662183 1_555
O43 Si10 1.609366 1_555
O43 W5 2.655845 1_555
O44 Si0 1.619044 1_555
O44 W6 2.200073 1_555
O45 Si6 1.654729 1_655
O45 Si1 1.662183 1_555
O46 Si4 1.609366 1_555
O46 W6 2.655845 1_455
O47 Si3 1.619044 1_555
O47 W1 2.200073 1_555
