# generated using pymatgen
data_Rb2Si5NiO12
_symmetry_space_group_name_H-M   'P 1'
_cell_length_a   13.89819222
_cell_length_b   13.63383892
_cell_length_c   13.80860679
_cell_angle_alpha   90.00000000
_cell_angle_beta   90.00000000
_cell_angle_gamma   90.00000000
_symmetry_Int_Tables_number   1
_chemical_formula_structural   Rb2Si5NiO12
_chemical_formula_sum   'Rb16 Si40 Ni8 O96'
_cell_volume   2616.53371704
_cell_formula_units_Z   8
loop_
 _symmetry_equiv_pos_site_id
 _symmetry_equiv_pos_as_xyz
  1  'x, y, z'
loop_
 _atom_site_type_symbol
 _atom_site_label
 _atom_site_symmetry_multiplicity
 _atom_site_fract_x
 _atom_site_fract_y
 _atom_site_fract_z
 _atom_site_occupancy
  Rb  Rb0  1  0.36945915  0.62780252  0.13561879  1
  Rb  Rb1  1  0.63054085  0.12780252  0.36438121  1
  Rb  Rb2  1  0.13054085  0.37219748  0.63561879  1
  Rb  Rb3  1  0.86945915  0.87219748  0.86438121  1
  Rb  Rb4  1  0.63054085  0.37219748  0.86438121  1
  Rb  Rb5  1  0.36945915  0.87219748  0.63561879  1
  Rb  Rb6  1  0.86945915  0.62780252  0.36438121  1
  Rb  Rb7  1  0.13054085  0.12780252  0.13561879  1
  Rb  Rb8  1  0.10621228  0.87546327  0.37297385  1
  Rb  Rb9  1  0.89378772  0.37546327  0.12702615  1
  Rb  Rb10  1  0.39378772  0.12453673  0.87297385  1
  Rb  Rb11  1  0.60621228  0.62453673  0.62702615  1
  Rb  Rb12  1  0.89378772  0.12453673  0.62702615  1
  Rb  Rb13  1  0.10621228  0.62453673  0.87297385  1
  Rb  Rb14  1  0.60621228  0.87546327  0.12702615  1
  Rb  Rb15  1  0.39378772  0.37546327  0.37297385  1
  Si  Si0  1  0.90188208  0.63480643  0.66549513  1
  Si  Si1  1  0.09811792  0.13480643  0.83450487  1
  Si  Si2  1  0.59811792  0.36519357  0.16549513  1
  Si  Si3  1  0.40188208  0.86519357  0.33450487  1
  Si  Si4  1  0.09811792  0.36519357  0.33450487  1
  Si  Si5  1  0.90188208  0.86519357  0.16549513  1
  Si  Si6  1  0.40188208  0.63480643  0.83450487  1
  Si  Si7  1  0.59811792  0.13480643  0.66549513  1
  Si  Si8  1  0.85906367  0.08727760  0.11858861  1
  Si  Si9  1  0.14093633  0.58727760  0.38141139  1
  Si  Si10  1  0.64093633  0.91272240  0.61858861  1
  Si  Si11  1  0.35906367  0.41272240  0.88141139  1
  Si  Si12  1  0.14093633  0.91272240  0.88141139  1
  Si  Si13  1  0.85906367  0.41272240  0.61858861  1
  Si  Si14  1  0.35906367  0.08727760  0.38141139  1
  Si  Si15  1  0.64093633  0.58727760  0.11858861  1
  Si  Si16  1  0.39550589  0.16844398  0.58421531  1
  Si  Si17  1  0.60449411  0.66844398  0.91578469  1
  Si  Si18  1  0.10449411  0.83155602  0.08421531  1
  Si  Si19  1  0.89550589  0.33155602  0.41578469  1
  Si  Si20  1  0.60449411  0.83155602  0.41578469  1
  Si  Si21  1  0.39550589  0.33155602  0.08421531  1
  Si  Si22  1  0.89550589  0.16844398  0.91578469  1
  Si  Si23  1  0.10449411  0.66844398  0.58421531  1
  Si  Si24  1  0.68374780  0.40288745  0.36809495  1
  Si  Si25  1  0.31625220  0.90288745  0.13190505  1
  Si  Si26  1  0.81625220  0.59711255  0.86809495  1
  Si  Si27  1  0.18374780  0.09711255  0.63190505  1
  Si  Si28  1  0.31625220  0.59711255  0.63190505  1
  Si  Si29  1  0.68374780  0.09711255  0.86809495  1
  Si  Si30  1  0.18374780  0.40288745  0.13190505  1
  Si  Si31  1  0.81625220  0.90288745  0.36809495  1
  Si  Si32  1  0.14010990  0.34029881  0.92141158  1
  Si  Si33  1  0.85989010  0.84029881  0.57858842  1
  Si  Si34  1  0.35989010  0.65970119  0.42141158  1
  Si  Si35  1  0.64010990  0.15970119  0.07858842  1
  Si  Si36  1  0.85989010  0.65970119  0.07858842  1
  Si  Si37  1  0.14010990  0.15970119  0.42141158  1
  Si  Si38  1  0.64010990  0.34029881  0.57858842  1
  Si  Si39  1  0.35989010  0.84029881  0.92141158  1
  Ni  Ni0  1  0.57692428  0.88379881  0.84132768  1
  Ni  Ni1  1  0.42307572  0.38379881  0.65867232  1
  Ni  Ni2  1  0.92307572  0.11620119  0.34132768  1
  Ni  Ni3  1  0.07692428  0.61620119  0.15867232  1
  Ni  Ni4  1  0.42307572  0.11620119  0.15867232  1
  Ni  Ni5  1  0.57692428  0.61620119  0.34132768  1
  Ni  Ni6  1  0.07692428  0.88379881  0.65867232  1
  Ni  Ni7  1  0.92307572  0.38379881  0.84132768  1
  O  O0  1  0.35296023  0.96680922  0.36946001  1
  O  O1  1  0.64703977  0.46680922  0.13053999  1
  O  O2  1  0.14703977  0.03319078  0.86946001  1
  O  O3  1  0.85296023  0.53319078  0.63053999  1
  O  O4  1  0.64703977  0.03319078  0.63053999  1
  O  O5  1  0.35296023  0.53319078  0.86946001  1
  O  O6  1  0.85296023  0.96680922  0.13053999  1
  O  O7  1  0.14703977  0.46680922  0.36946001  1
  O  O8  1  0.08597858  0.60204524  0.48662354  1
  O  O9  1  0.91402142  0.10204524  0.01337646  1
  O  O10  1  0.41402142  0.39795476  0.98662354  1
  O  O11  1  0.58597858  0.89795476  0.51337646  1
  O  O12  1  0.91402142  0.39795476  0.51337646  1
  O  O13  1  0.08597858  0.89795476  0.98662354  1
  O  O14  1  0.58597858  0.60204524  0.01337646  1
  O  O15  1  0.41402142  0.10204524  0.48662354  1
  O  O16  1  0.01947095  0.86760426  0.16163943  1
  O  O17  1  0.98052905  0.36760426  0.33836057  1
  O  O18  1  0.48052905  0.13239574  0.66163943  1
  O  O19  1  0.51947095  0.63239574  0.83836057  1
  O  O20  1  0.98052905  0.13239574  0.83836057  1
  O  O21  1  0.01947095  0.63239574  0.66163943  1
  O  O22  1  0.51947095  0.86760426  0.33836057  1
  O  O23  1  0.48052905  0.36760426  0.16163943  1
  O  O24  1  0.89509433  0.21676049  0.43871027  1
  O  O25  1  0.10490567  0.71676049  0.06128973  1
  O  O26  1  0.60490567  0.78323951  0.93871027  1
  O  O27  1  0.39509433  0.28323951  0.56128973  1
  O  O28  1  0.10490567  0.78323951  0.56128973  1
  O  O29  1  0.89509433  0.28323951  0.93871027  1
  O  O30  1  0.39509433  0.21676049  0.06128973  1
  O  O31  1  0.60490567  0.71676049  0.43871027  1
  O  O32  1  0.12844972  0.15531734  0.72208283  1
  O  O33  1  0.87155028  0.65531734  0.77791717  1
  O  O34  1  0.37155028  0.84468266  0.22208283  1
  O  O35  1  0.62844972  0.34468266  0.27791717  1
  O  O36  1  0.87155028  0.84468266  0.27791717  1
  O  O37  1  0.12844972  0.34468266  0.22208283  1
  O  O38  1  0.62844972  0.15531734  0.77791717  1
  O  O39  1  0.37155028  0.65531734  0.72208283  1
  O  O40  1  0.75249108  0.87863305  0.60644303  1
  O  O41  1  0.24750892  0.37863305  0.89355697  1
  O  O42  1  0.74750892  0.12136695  0.10644303  1
  O  O43  1  0.25249108  0.62136695  0.39355697  1
  O  O44  1  0.24750892  0.12136695  0.39355697  1
  O  O45  1  0.75249108  0.62136695  0.10644303  1
  O  O46  1  0.25249108  0.87863305  0.89355697  1
  O  O47  1  0.74750892  0.37863305  0.60644303  1
  O  O48  1  0.82139930  0.48041144  0.86629837  1
  O  O49  1  0.17860070  0.98041144  0.63370163  1
  O  O50  1  0.67860070  0.51958856  0.36629837  1
  O  O51  1  0.32139930  0.01958856  0.13370163  1
  O  O52  1  0.17860070  0.51958856  0.13370163  1
  O  O53  1  0.82139930  0.01958856  0.36629837  1
  O  O54  1  0.32139930  0.48041144  0.63370163  1
  O  O55  1  0.67860070  0.98041144  0.86629837  1
  O  O56  1  0.62720885  0.14895705  0.96009051  1
  O  O57  1  0.37279115  0.64895705  0.53990949  1
  O  O58  1  0.87279115  0.85104295  0.46009051  1
  O  O59  1  0.12720885  0.35104295  0.03990949  1
  O  O60  1  0.37279115  0.85104295  0.03990949  1
  O  O61  1  0.62720885  0.35104295  0.46009051  1
  O  O62  1  0.12720885  0.14895705  0.53990949  1
  O  O63  1  0.87279115  0.64895705  0.96009051  1
  O  O64  1  0.56319809  0.39836207  0.64242797  1
  O  O65  1  0.43680191  0.89836207  0.85757203  1
  O  O66  1  0.93680191  0.60163793  0.14242797  1
  O  O67  1  0.06319809  0.10163793  0.35757203  1
  O  O68  1  0.43680191  0.60163793  0.35757203  1
  O  O69  1  0.56319809  0.10163793  0.14242797  1
  O  O70  1  0.06319809  0.39836207  0.85757203  1
  O  O71  1  0.93680191  0.89836207  0.64242797  1
  O  O72  1  0.35884393  0.71939141  0.90559974  1
  O  O73  1  0.64115607  0.21939141  0.59440026  1
  O  O74  1  0.14115607  0.28060859  0.40559974  1
  O  O75  1  0.85884393  0.78060859  0.09440026  1
  O  O76  1  0.64115607  0.28060859  0.09440026  1
  O  O77  1  0.35884393  0.78060859  0.40559974  1
  O  O78  1  0.85884393  0.71939141  0.59440026  1
  O  O79  1  0.14115607  0.21939141  0.90559974  1
  O  O80  1  0.58432452  0.64466859  0.20189332  1
  O  O81  1  0.41567548  0.14466859  0.29810668  1
  O  O82  1  0.91567548  0.35533141  0.70189332  1
  O  O83  1  0.08432452  0.85533141  0.79810668  1
  O  O84  1  0.41567548  0.35533141  0.79810668  1
  O  O85  1  0.58432452  0.85533141  0.70189332  1
  O  O86  1  0.08432452  0.64466859  0.29810668  1
  O  O87  1  0.91567548  0.14466859  0.20189332  1
  O  O88  1  0.29650876  0.36780886  0.13881242  1
  O  O89  1  0.70349124  0.86780886  0.36118758  1
  O  O90  1  0.20349124  0.63219114  0.63881242  1
  O  O91  1  0.79650876  0.13219114  0.86118758  1
  O  O92  1  0.70349124  0.63219114  0.86118758  1
  O  O93  1  0.29650876  0.13219114  0.63881242  1
  O  O94  1  0.79650876  0.36780886  0.36118758  1
  O  O95  1  0.20349124  0.86780886  0.13881242  1
loop_
_geom_bond_atom_site_label_1
_geom_bond_atom_site_label_2
_geom_bond_distance
_geom_bond_site_symmetry_2
Ni0 O26 1.959380 1_555
Ni0 O55 1.962350 1_555
Ni0 O85 1.966814 1_555
Ni0 O65 1.970353 1_555
Ni1 O27 1.959380 1_555
Ni1 O54 1.962350 1_555
Ni1 O84 1.966814 1_555
Ni1 O64 1.970353 1_555
Ni2 O24 1.959380 1_555
Ni2 O53 1.962350 1_555
Ni2 O87 1.966814 1_555
Ni2 O67 1.970353 1_655
Ni3 O25 1.959380 1_555
Ni3 O52 1.962350 1_555
Ni3 O86 1.966814 1_555
Ni3 O66 1.970353 1_455
Ni4 O30 1.959380 1_555
Ni4 O51 1.962350 1_555
Ni4 O81 1.966814 1_555
Ni4 O69 1.970353 1_555
Ni5 O31 1.959380 1_555
Ni5 O50 1.962350 1_555
Ni5 O80 1.966814 1_555
Ni5 O68 1.970353 1_555
Ni6 O28 1.959380 1_555
Ni6 O49 1.962350 1_555
Ni6 O83 1.966814 1_555
Ni6 O71 1.970353 1_455
Ni7 O29 1.959380 1_555
Ni7 O48 1.962350 1_555
Ni7 O82 1.966814 1_555
Ni7 O70 1.970353 1_655
O0 Si3 1.616986 1_555
O0 Si14 1.652895 1_565
O1 Si2 1.616986 1_555
O1 Si15 1.652895 1_555
O2 Si1 1.616986 1_555
O2 Si12 1.652895 1_545
O3 Si0 1.616986 1_555
O3 Si13 1.652895 1_555
O4 Si7 1.616986 1_555
O4 Si10 1.652895 1_545
O5 Si6 1.616986 1_555
O5 Si11 1.652895 1_555
O6 Si5 1.616986 1_555
O6 Si8 1.652895 1_565
O7 Si4 1.616986 1_555
O7 Si9 1.652895 1_555
O8 Si23 1.643708 1_555
O8 Si9 1.653685 1_555
O8 Rb6 3.468156 1_455
O9 Si22 1.643708 1_554
O9 Si8 1.653685 1_555
O9 Rb7 3.468156 1_655
O10 Si21 1.643708 1_556
O10 Si11 1.653685 1_555
O10 Rb4 3.468156 1_555
O11 Si20 1.643708 1_555
O11 Si10 1.653685 1_555
O11 Rb5 3.468156 1_555
O12 Si19 1.643708 1_555
O12 Si13 1.653685 1_555
O12 Rb2 3.468156 1_655
O13 Si18 1.643708 1_556
O13 Si12 1.653685 1_555
O13 Rb3 3.468156 1_455
O14 Si17 1.643708 1_554
O14 Si15 1.653685 1_555
O14 Rb0 3.468156 1_555
O15 Si16 1.643708 1_555
O15 Si14 1.653685 1_555
O15 Rb1 3.468156 1_555
O16 Si5 1.635470 1_455
O16 Si18 1.667604 1_555
O16 Rb8 3.159259 1_555
O17 Si4 1.635470 1_655
O17 Si19 1.667604 1_555
O17 Rb9 3.159259 1_555
O18 Si7 1.635470 1_555
O18 Si16 1.667604 1_555
O18 Rb10 3.159259 1_555
O19 Si6 1.635470 1_555
O19 Si17 1.667604 1_555
O19 Rb11 3.159259 1_555
O20 Si1 1.635470 1_655
O20 Si22 1.667604 1_555
O20 Rb12 3.159259 1_555
O21 Si0 1.635470 1_455
O21 Si23 1.667604 1_555
O21 Rb13 3.159259 1_555
O22 Si3 1.635470 1_555
O22 Si20 1.667604 1_555
O22 Rb14 3.159259 1_555
O23 Si2 1.635470 1_555
O23 Si21 1.667604 1_555
O23 Rb15 3.159259 1_555
O24 Si19 1.596809 1_555
O24 Rb12 2.888472 1_555
O25 Si18 1.596809 1_555
O25 Rb13 2.888472 1_554
O26 Si17 1.596809 1_555
O26 Rb14 2.888472 1_556
O27 Si16 1.596809 1_555
O27 Rb15 2.888472 1_555
O28 Si23 1.596809 1_555
O28 Rb8 2.888472 1_555
O29 Si22 1.596809 1_555
O29 Rb9 2.888472 1_556
O30 Si21 1.596809 1_555
O30 Rb10 2.888472 1_554
O31 Si20 1.596809 1_555
O31 Rb11 2.888472 1_555
O32 Si1 1.632737 1_555
O32 Si27 1.664627 1_555
O32 Rb2 3.188991 1_555
O33 Si0 1.632737 1_555
O33 Si26 1.664627 1_555
O33 Rb3 3.188991 1_555
O34 Si3 1.632737 1_555
O34 Si25 1.664627 1_555
O34 Rb0 3.188991 1_555
O35 Si2 1.632737 1_555
O35 Si24 1.664627 1_555
O35 Rb1 3.188991 1_555
O36 Si5 1.632737 1_555
O36 Si31 1.664627 1_555
O36 Rb6 3.188991 1_555
O37 Si4 1.632737 1_555
O37 Si30 1.664627 1_555
O37 Rb7 3.188991 1_555
O38 Si7 1.632737 1_555
O38 Si29 1.664627 1_555
O38 Rb4 3.188991 1_555
O39 Si6 1.632737 1_555
O39 Si28 1.664627 1_555
O39 Rb5 3.188991 1_555
O40 Si10 1.627239 1_555
O40 Si33 1.627608 1_555
O41 Si11 1.627239 1_555
O41 Si32 1.627608 1_555
O42 Si8 1.627239 1_555
O42 Si35 1.627608 1_555
O43 Si9 1.627239 1_555
O43 Si34 1.627608 1_555
O44 Si14 1.627239 1_555
O44 Si37 1.627608 1_555
O45 Si15 1.627239 1_555
O45 Si36 1.627608 1_555
O46 Si12 1.627239 1_555
O46 Si39 1.627608 1_555
O47 Si13 1.627239 1_555
O47 Si38 1.627608 1_555
O48 Si26 1.592885 1_555
O48 Rb4 3.035398 1_555
O49 Si27 1.592885 1_565
O49 Rb5 3.035398 1_555
O50 Si24 1.592885 1_555
O50 Rb6 3.035398 1_555
O51 Si25 1.592885 1_545
O51 Rb7 3.035398 1_555
O52 Si30 1.592885 1_555
O52 Rb0 3.035398 1_555
O53 Si31 1.592885 1_545
O53 Rb1 3.035398 1_555
O54 Si28 1.592885 1_555
O54 Rb2 3.035398 1_555
O55 Si29 1.592885 1_565
O55 Rb3 3.035398 1_555
O56 Si29 1.652521 1_555
O56 Si35 1.652590 1_556
O56 Rb4 3.318501 1_555
O57 Si28 1.652521 1_555
O57 Si34 1.652590 1_555
O57 Rb5 3.318501 1_555
O58 Si31 1.652521 1_555
O58 Si33 1.652590 1_555
O58 Rb6 3.318501 1_555
O59 Si30 1.652521 1_555
O59 Si32 1.652590 1_554
O59 Rb7 3.318501 1_555
O60 Si25 1.652521 1_555
O60 Si39 1.652590 1_554
O60 Rb0 3.318501 1_555
O61 Si24 1.652521 1_555
O61 Si38 1.652590 1_555
O61 Rb1 3.318501 1_555
O62 Si27 1.652521 1_555
O62 Si37 1.652590 1_555
O62 Rb2 3.318501 1_555
O63 Si26 1.652521 1_555
O63 Si36 1.652590 1_556
O63 Rb3 3.318501 1_555
O64 Si38 1.595743 1_555
O64 Rb11 3.148236 1_555
O64 Rb4 3.224382 1_555
O65 Si39 1.595743 1_555
O65 Rb10 3.148236 1_565
O65 Rb5 3.224382 1_555
O66 Si36 1.595743 1_555
O66 Rb9 3.148236 1_555
O66 Rb6 3.224382 1_555
O67 Si37 1.595743 1_555
O67 Rb8 3.148236 1_545
O67 Rb7 3.224382 1_555
O68 Si34 1.595743 1_555
O68 Rb15 3.148236 1_555
O68 Rb0 3.224382 1_555
O69 Si35 1.595743 1_555
O69 Rb14 3.148236 1_545
O69 Rb1 3.224382 1_555
O70 Si32 1.595743 1_555
O70 Rb13 3.148236 1_555
O70 Rb2 3.224382 1_555
O71 Si33 1.595743 1_555
O71 Rb12 3.148236 1_565
O71 Rb3 3.224382 1_555
O72 Si6 1.628335 1_555
O72 Si39 1.662893 1_555
O72 Rb0 3.416073 1_556
O73 Si7 1.628335 1_555
O73 Si38 1.662893 1_555
O73 Rb1 3.416073 1_555
O74 Si4 1.628335 1_555
O74 Si37 1.662893 1_555
O74 Rb2 3.416073 1_555
O75 Si5 1.628335 1_555
O75 Si36 1.662893 1_555
O75 Rb3 3.416073 1_554
O76 Si2 1.628335 1_555
O76 Si35 1.662893 1_555
O76 Rb4 3.416073 1_554
O77 Si3 1.628335 1_555
O77 Si34 1.662893 1_555
O77 Rb5 3.416073 1_555
O78 Si0 1.628335 1_555
O78 Si33 1.662893 1_555
O78 Rb6 3.416073 1_555
O79 Si1 1.628335 1_555
O79 Si32 1.662893 1_555
O79 Rb7 3.416073 1_556
O80 Si15 1.598293 1_555
O80 Rb0 3.131776 1_555
O80 Rb14 3.326034 1_555
O81 Si14 1.598293 1_555
O81 Rb1 3.131776 1_555
O81 Rb15 3.326034 1_555
O82 Si13 1.598293 1_555
O82 Rb2 3.131776 1_655
O82 Rb12 3.326034 1_555
O83 Si12 1.598293 1_555
O83 Rb3 3.131776 1_455
O83 Rb13 3.326034 1_555
O84 Si11 1.598293 1_555
O84 Rb4 3.131776 1_555
O84 Rb10 3.326034 1_555
O85 Si10 1.598293 1_555
O85 Rb5 3.131776 1_555
O85 Rb11 3.326034 1_555
O86 Si9 1.598293 1_555
O86 Rb6 3.131776 1_455
O86 Rb8 3.326034 1_555
O87 Si8 1.598293 1_555
O87 Rb7 3.131776 1_655
O87 Rb9 3.326034 1_555
O88 Si30 1.641298 1_555
O88 Si21 1.644910 1_555
O89 Si31 1.641298 1_555
O89 Si20 1.644910 1_555
O90 Si28 1.641298 1_555
O90 Si23 1.644910 1_555
O91 Si29 1.641298 1_555
O91 Si22 1.644910 1_555
O92 Si26 1.641298 1_555
O92 Si17 1.644910 1_555
O93 Si27 1.641298 1_555
O93 Si16 1.644910 1_555
O94 Si24 1.641298 1_555
O94 Si19 1.644910 1_555
O95 Si25 1.641298 1_555
O95 Si18 1.644910 1_555
