# generated using pymatgen
data_CeAsRuO
_symmetry_space_group_name_H-M   'P 1'
_cell_length_a   4.10600900
_cell_length_b   4.10600900
_cell_length_c   8.09023000
_cell_angle_alpha   90.00000000
_cell_angle_beta   90.00000000
_cell_angle_gamma   90.00000000
_symmetry_Int_Tables_number   1
_chemical_formula_structural   CeAsRuO
_chemical_formula_sum   'Ce2 As2 Ru2 O2'
_cell_volume   136.39569480
_cell_formula_units_Z   2
loop_
 _symmetry_equiv_pos_site_id
 _symmetry_equiv_pos_as_xyz
  1  'x, y, z'
loop_
 _atom_site_type_symbol
 _atom_site_label
 _atom_site_symmetry_multiplicity
 _atom_site_fract_x
 _atom_site_fract_y
 _atom_site_fract_z
 _atom_site_occupancy
  Ce  Ce0  1  0.00000000  0.50000000  0.85489300  1
  Ce  Ce1  1  0.50000000  0.00000000  0.14510700  1
  As  As0  1  0.00000000  0.50000000  0.33940600  1
  As  As1  1  0.50000000  0.00000000  0.66059400  1
  Ru  Ru0  1  0.00000000  0.00000000  0.50000000  1
  Ru  Ru1  1  0.50000000  0.50000000  0.50000000  1
  O  O0  1  0.00000000  0.00000000  0.00000000  1
  O  O1  1  0.50000000  0.50000000  0.00000000  1
loop_
_geom_bond_atom_site_label_1
_geom_bond_atom_site_label_2
_geom_bond_distance
_geom_bond_site_symmetry_2
Ce0 O1 2.364949 1_456
Ce0 O1 2.364949 1_556
Ce0 O0 2.364949 1_556
Ce0 O0 2.364949 1_566
Ce1 O0 2.364949 1_655
Ce1 O1 2.364949 1_555
Ce1 O0 2.364949 1_555
Ce1 O1 2.364949 1_545
As0 Ru1 2.429580 1_455
As0 Ru1 2.429580 1_555
As0 Ru0 2.429580 1_555
As0 Ru0 2.429580 1_565
As0 Ce1 3.301605 1_565
As0 Ce1 3.301605 1_455
As0 Ce1 3.301605 1_555
As0 Ce1 3.301605 1_465
As1 Ru1 2.429580 1_545
As1 Ru0 2.429580 1_655
As1 Ru1 2.429580 1_555
As1 Ru0 2.429580 1_555
As1 Ce0 3.301605 1_645
As1 Ce0 3.301605 1_555
As1 Ce0 3.301605 1_545
As1 Ce0 3.301605 1_655
