# generated using pymatgen
data_Nb3Ga2
_symmetry_space_group_name_H-M   'P 1'
_cell_length_a   7.04120340
_cell_length_b   13.84186384
_cell_length_c   13.84186384
_cell_angle_alpha   90.00000000
_cell_angle_beta   90.00000000
_cell_angle_gamma   90.00000000
_symmetry_Int_Tables_number   1
_chemical_formula_structural   Nb3Ga2
_chemical_formula_sum   'Nb48 Ga32'
_cell_volume   1349.07481780
_cell_formula_units_Z   16
loop_
 _symmetry_equiv_pos_site_id
 _symmetry_equiv_pos_as_xyz
  1  'x, y, z'
loop_
 _atom_site_type_symbol
 _atom_site_label
 _atom_site_symmetry_multiplicity
 _atom_site_fract_x
 _atom_site_fract_y
 _atom_site_fract_z
 _atom_site_occupancy
  Nb  Nb0_0  1  0.00000000  0.00000000  0.00000000  1
  Nb  Nb0_1  1  0.00000000  0.00000000  0.50000000  1
  Nb  Nb0_2  1  0.00000000  0.50000000  0.00000000  1
  Nb  Nb0_3  1  0.00000000  0.50000000  0.50000000  1
  Nb  Nb0_4  1  0.50000000  0.00000000  0.00000000  1
  Nb  Nb0_5  1  0.50000000  0.00000000  0.50000000  1
  Nb  Nb0_6  1  0.50000000  0.50000000  0.00000000  1
  Nb  Nb0_7  1  0.50000000  0.50000000  0.50000000  1
  Nb  Nb1_0  1  0.00000000  0.25000000  0.25000000  1
  Nb  Nb1_1  1  0.00000000  0.25000000  0.75000000  1
  Nb  Nb1_2  1  0.00000000  0.75000000  0.25000000  1
  Nb  Nb1_3  1  0.00000000  0.75000000  0.75000000  1
  Nb  Nb1_4  1  0.50000000  0.25000000  0.25000000  1
  Nb  Nb1_5  1  0.50000000  0.25000000  0.75000000  1
  Nb  Nb1_6  1  0.50000000  0.75000000  0.25000000  1
  Nb  Nb1_7  1  0.50000000  0.75000000  0.75000000  1
  Nb  Nb2_0  1  0.25000000  0.08783269  0.33783269  1
  Nb  Nb2_1  1  0.25000000  0.08783269  0.83783269  1
  Nb  Nb2_2  1  0.25000000  0.58783269  0.33783269  1
  Nb  Nb2_3  1  0.25000000  0.58783269  0.83783269  1
  Nb  Nb2_4  1  0.75000000  0.08783269  0.33783269  1
  Nb  Nb2_5  1  0.75000000  0.08783269  0.83783269  1
  Nb  Nb2_6  1  0.75000000  0.58783269  0.33783269  1
  Nb  Nb2_7  1  0.75000000  0.58783269  0.83783269  1
  Nb  Nb3_0  1  0.25000000  0.16216731  0.08783269  1
  Nb  Nb3_1  1  0.25000000  0.16216731  0.58783269  1
  Nb  Nb3_2  1  0.25000000  0.66216731  0.08783269  1
  Nb  Nb3_3  1  0.25000000  0.66216731  0.58783269  1
  Nb  Nb3_4  1  0.75000000  0.16216731  0.08783269  1
  Nb  Nb3_5  1  0.75000000  0.16216731  0.58783269  1
  Nb  Nb3_6  1  0.75000000  0.66216731  0.08783269  1
  Nb  Nb3_7  1  0.75000000  0.66216731  0.58783269  1
  Nb  Nb4_0  1  0.25000000  0.33783269  0.41216731  1
  Nb  Nb4_1  1  0.25000000  0.33783269  0.91216731  1
  Nb  Nb4_2  1  0.25000000  0.83783269  0.41216731  1
  Nb  Nb4_3  1  0.25000000  0.83783269  0.91216731  1
  Nb  Nb4_4  1  0.75000000  0.33783269  0.41216731  1
  Nb  Nb4_5  1  0.75000000  0.33783269  0.91216731  1
  Nb  Nb4_6  1  0.75000000  0.83783269  0.41216731  1
  Nb  Nb4_7  1  0.75000000  0.83783269  0.91216731  1
  Nb  Nb5_0  1  0.25000000  0.41216731  0.16216731  1
  Nb  Nb5_1  1  0.25000000  0.41216731  0.66216731  1
  Nb  Nb5_2  1  0.25000000  0.91216731  0.16216731  1
  Nb  Nb5_3  1  0.25000000  0.91216731  0.66216731  1
  Nb  Nb5_4  1  0.75000000  0.41216731  0.16216731  1
  Nb  Nb5_5  1  0.75000000  0.41216731  0.66216731  1
  Nb  Nb5_6  1  0.75000000  0.91216731  0.16216731  1
  Nb  Nb5_7  1  0.75000000  0.91216731  0.66216731  1
  Ga  Ga0_0  1  0.00000000  0.18722318  0.43722318  1
  Ga  Ga0_1  1  0.00000000  0.18722318  0.93722318  1
  Ga  Ga0_2  1  0.00000000  0.68722318  0.43722318  1
  Ga  Ga0_3  1  0.00000000  0.68722318  0.93722318  1
  Ga  Ga0_4  1  0.50000000  0.18722318  0.43722318  1
  Ga  Ga0_5  1  0.50000000  0.18722318  0.93722318  1
  Ga  Ga0_6  1  0.50000000  0.68722318  0.43722318  1
  Ga  Ga0_7  1  0.50000000  0.68722318  0.93722318  1
  Ga  Ga1_0  1  0.00000000  0.06277682  0.18722318  1
  Ga  Ga1_1  1  0.00000000  0.06277682  0.68722318  1
  Ga  Ga1_2  1  0.00000000  0.56277682  0.18722318  1
  Ga  Ga1_3  1  0.00000000  0.56277682  0.68722318  1
  Ga  Ga1_4  1  0.50000000  0.06277682  0.18722318  1
  Ga  Ga1_5  1  0.50000000  0.06277682  0.68722318  1
  Ga  Ga1_6  1  0.50000000  0.56277682  0.18722318  1
  Ga  Ga1_7  1  0.50000000  0.56277682  0.68722318  1
  Ga  Ga2_0  1  0.00000000  0.43722318  0.31277682  1
  Ga  Ga2_1  1  0.00000000  0.43722318  0.81277682  1
  Ga  Ga2_2  1  0.00000000  0.93722318  0.31277682  1
  Ga  Ga2_3  1  0.00000000  0.93722318  0.81277682  1
  Ga  Ga2_4  1  0.50000000  0.43722318  0.31277682  1
  Ga  Ga2_5  1  0.50000000  0.43722318  0.81277682  1
  Ga  Ga2_6  1  0.50000000  0.93722318  0.31277682  1
  Ga  Ga2_7  1  0.50000000  0.93722318  0.81277682  1
  Ga  Ga3_0  1  0.00000000  0.31277682  0.06277682  1
  Ga  Ga3_1  1  0.00000000  0.31277682  0.56277682  1
  Ga  Ga3_2  1  0.00000000  0.81277682  0.06277682  1
  Ga  Ga3_3  1  0.00000000  0.81277682  0.56277682  1
  Ga  Ga3_4  1  0.50000000  0.31277682  0.06277682  1
  Ga  Ga3_5  1  0.50000000  0.31277682  0.56277682  1
  Ga  Ga3_6  1  0.50000000  0.81277682  0.06277682  1
  Ga  Ga3_7  1  0.50000000  0.81277682  0.56277682  1
loop_
_geom_bond_atom_site_label_1
_geom_bond_atom_site_label_2
_geom_bond_distance
_geom_bond_site_symmetry_2
Nb0_0 Nb2_1 3.100874 1_554
Nb0_0 Nb4_3 3.100874 1_544
Nb0_0 Nb4_7 3.100874 1_444
Nb0_0 Nb2_5 3.100874 1_454
Nb0_0 Nb3_0 3.100874 1_555
Nb0_0 Nb5_2 3.100874 1_545
Nb0_0 Nb5_6 3.100874 1_445
Nb0_0 Nb3_4 3.100874 1_455
Nb0_0 Nb0_4 3.520602 1_455
Nb0_0 Nb0_4 3.520602 1_555
Nb0_1 Nb4_2 3.100874 1_545
Nb0_1 Nb3_1 3.100874 1_555
Nb0_1 Nb4_6 3.100874 1_445
Nb0_1 Nb2_0 3.100874 1_555
Nb0_1 Nb3_5 3.100874 1_455
Nb0_1 Nb2_4 3.100874 1_455
Nb0_1 Nb5_3 3.100874 1_545
Nb0_1 Nb5_7 3.100874 1_445
Nb0_1 Nb0_5 3.520602 1_455
Nb0_1 Nb0_5 3.520602 1_555
Nb0_2 Nb2_3 3.100874 1_554
Nb0_2 Nb2_7 3.100874 1_454
Nb0_2 Nb5_0 3.100874 1_555
Nb0_2 Nb5_4 3.100874 1_455
Nb0_2 Nb3_2 3.100874 1_555
Nb0_2 Nb4_1 3.100874 1_554
Nb0_2 Nb4_5 3.100874 1_454
Nb0_2 Nb3_6 3.100874 1_455
Nb0_2 Nb0_6 3.520602 1_555
Nb0_2 Nb0_6 3.520602 1_455
Nb0_3 Nb2_2 3.100874 1_555
Nb0_3 Nb4_0 3.100874 1_555
Nb0_3 Nb3_3 3.100874 1_555
Nb0_3 Nb2_6 3.100874 1_455
Nb0_3 Nb3_7 3.100874 1_455
Nb0_3 Nb5_1 3.100874 1_555
Nb0_3 Nb4_4 3.100874 1_455
Nb0_3 Nb5_5 3.100874 1_455
Nb0_3 Nb0_7 3.520602 1_455
Nb0_3 Nb0_7 3.520602 1_555
Nb0_4 Nb4_7 3.100874 1_544
Nb0_4 Nb2_5 3.100874 1_554
Nb0_4 Nb2_1 3.100874 1_554
Nb0_4 Nb5_6 3.100874 1_545
Nb0_4 Nb3_4 3.100874 1_555
Nb0_4 Nb4_3 3.100874 1_544
Nb0_4 Nb3_0 3.100874 1_555
Nb0_4 Nb5_2 3.100874 1_545
Nb0_5 Nb4_6 3.100874 1_545
Nb0_5 Nb3_5 3.100874 1_555
Nb0_5 Nb4_2 3.100874 1_545
Nb0_5 Nb3_1 3.100874 1_555
Nb0_5 Nb2_4 3.100874 1_555
Nb0_5 Nb2_0 3.100874 1_555
Nb0_5 Nb5_7 3.100874 1_545
Nb0_5 Nb5_3 3.100874 1_545
Nb0_6 Nb2_7 3.100874 1_554
Nb0_6 Nb2_3 3.100874 1_554
Nb0_6 Nb4_5 3.100874 1_554
Nb0_6 Nb5_4 3.100874 1_555
Nb0_6 Nb5_0 3.100874 1_555
Nb0_6 Nb3_6 3.100874 1_555
Nb0_6 Nb3_2 3.100874 1_555
Nb0_6 Nb4_1 3.100874 1_554
Nb0_7 Nb2_6 3.100874 1_555
Nb0_7 Nb4_4 3.100874 1_555
Nb0_7 Nb2_2 3.100874 1_555
Nb0_7 Nb3_7 3.100874 1_555
Nb0_7 Nb4_0 3.100874 1_555
Nb0_7 Nb5_5 3.100874 1_555
Nb0_7 Nb3_3 3.100874 1_555
Nb0_7 Nb5_1 3.100874 1_555
Nb1_0 Nb3_0 3.100874 1_555
Nb1_0 Nb2_0 3.100874 1_555
Nb1_0 Nb4_0 3.100874 1_555
Nb1_0 Nb5_0 3.100874 1_555
Nb1_0 Nb5_4 3.100874 1_455
Nb1_0 Nb3_4 3.100874 1_455
Nb1_0 Nb2_4 3.100874 1_455
Nb1_0 Nb4_4 3.100874 1_455
Nb1_0 Nb1_4 3.520602 1_555
Nb1_0 Nb1_4 3.520602 1_455
Nb1_1 Nb4_1 3.100874 1_555
Nb1_1 Nb5_1 3.100874 1_555
Nb1_1 Nb2_1 3.100874 1_555
Nb1_1 Nb4_5 3.100874 1_455
Nb1_1 Nb3_1 3.100874 1_555
Nb1_1 Nb2_5 3.100874 1_455
Nb1_1 Nb5_5 3.100874 1_455
Nb1_1 Nb3_5 3.100874 1_455
Nb1_1 Nb1_5 3.520602 1_455
Nb1_1 Nb1_5 3.520602 1_555
Nb1_2 Nb3_2 3.100874 1_555
Nb1_2 Nb5_2 3.100874 1_555
Nb1_2 Nb5_6 3.100874 1_455
Nb1_2 Nb3_6 3.100874 1_455
Nb1_2 Nb4_2 3.100874 1_555
Nb1_2 Nb2_2 3.100874 1_555
Nb1_2 Nb2_6 3.100874 1_455
Nb1_2 Nb4_6 3.100874 1_455
Nb1_2 Nb1_6 3.520602 1_455
Nb1_2 Nb1_6 3.520602 1_555
Nb1_3 Nb5_3 3.100874 1_555
Nb1_3 Nb5_7 3.100874 1_455
Nb1_3 Nb4_3 3.100874 1_555
Nb1_3 Nb3_3 3.100874 1_555
Nb1_3 Nb3_7 3.100874 1_455
Nb1_3 Nb4_7 3.100874 1_455
Nb1_3 Nb2_3 3.100874 1_555
Nb1_3 Nb2_7 3.100874 1_455
Nb1_3 Nb1_7 3.520602 1_455
Nb1_3 Nb1_7 3.520602 1_555
Nb1_4 Nb3_4 3.100874 1_555
Nb1_4 Nb2_4 3.100874 1_555
Nb1_4 Nb4_4 3.100874 1_555
Nb1_4 Nb3_0 3.100874 1_555
Nb1_4 Nb2_0 3.100874 1_555
Nb1_4 Nb5_4 3.100874 1_555
Nb1_4 Nb4_0 3.100874 1_555
Nb1_4 Nb5_0 3.100874 1_555
Nb1_5 Nb4_5 3.100874 1_555
Nb1_5 Nb5_5 3.100874 1_555
Nb1_5 Nb4_1 3.100874 1_555
Nb1_5 Nb2_5 3.100874 1_555
Nb1_5 Nb5_1 3.100874 1_555
Nb1_5 Nb3_5 3.100874 1_555
Nb1_5 Nb2_1 3.100874 1_555
Nb1_5 Nb3_1 3.100874 1_555
Nb1_6 Nb5_6 3.100874 1_555
Nb1_6 Nb3_6 3.100874 1_555
Nb1_6 Nb4_6 3.100874 1_555
Nb1_6 Nb5_2 3.100874 1_555
Nb1_6 Nb2_6 3.100874 1_555
Nb1_6 Nb3_2 3.100874 1_555
Nb1_6 Nb4_2 3.100874 1_555
Nb1_6 Nb2_2 3.100874 1_555
Nb1_7 Nb5_7 3.100874 1_555
Nb1_7 Nb5_3 3.100874 1_555
Nb1_7 Nb4_7 3.100874 1_555
Nb1_7 Nb3_7 3.100874 1_555
Nb1_7 Nb4_3 3.100874 1_555
Nb1_7 Nb2_7 3.100874 1_555
Nb1_7 Nb3_3 3.100874 1_555
Nb1_7 Nb2_3 3.100874 1_555
Ga0_0 Ga3_1 2.457757 1_555
Ga0_0 Nb2_0 2.623744 1_555
Ga0_0 Nb2_4 2.623744 1_455
Ga0_0 Nb1_0 2.733319 1_555
Ga0_0 Nb0_1 2.733319 1_555
Ga0_0 Nb3_1 2.750452 1_555
Ga0_0 Nb3_5 2.750452 1_455
Ga0_0 Nb4_0 2.750452 1_555
Ga0_0 Nb4_4 2.750452 1_455
Ga0_1 Ga3_0 2.457757 1_556
Ga0_1 Nb2_1 2.623744 1_555
Ga0_1 Nb2_5 2.623744 1_455
Ga0_1 Nb0_0 2.733319 1_556
Ga0_1 Nb1_1 2.733319 1_555
Ga0_1 Nb3_0 2.750452 1_556
Ga0_1 Nb3_4 2.750452 1_456
Ga0_1 Nb4_1 2.750452 1_555
Ga0_1 Nb4_5 2.750452 1_455
Ga0_2 Ga3_3 2.457757 1_555
Ga0_2 Nb2_2 2.623744 1_555
Ga0_2 Nb2_6 2.623744 1_455
Ga0_2 Nb0_3 2.733319 1_555
Ga0_2 Nb1_2 2.733319 1_555
Ga0_2 Nb3_3 2.750452 1_555
Ga0_2 Nb3_7 2.750452 1_455
Ga0_2 Nb4_2 2.750452 1_555
Ga0_2 Nb4_6 2.750452 1_455
Ga0_3 Ga3_2 2.457757 1_556
Ga0_3 Nb2_3 2.623744 1_555
Ga0_3 Nb2_7 2.623744 1_455
Ga0_3 Nb0_2 2.733319 1_556
Ga0_3 Nb1_3 2.733319 1_555
Ga0_3 Nb3_2 2.750452 1_556
Ga0_3 Nb3_6 2.750452 1_456
Ga0_3 Nb4_3 2.750452 1_555
Ga0_3 Nb4_7 2.750452 1_455
Ga0_4 Ga3_5 2.457757 1_555
Ga0_4 Nb2_4 2.623744 1_555
Ga0_4 Nb2_0 2.623744 1_555
Ga0_4 Nb1_4 2.733319 1_555
Ga0_4 Nb0_5 2.733319 1_555
Ga0_4 Nb4_4 2.750452 1_555
Ga0_4 Nb3_5 2.750452 1_555
Ga0_4 Nb3_1 2.750452 1_555
Ga0_4 Nb4_0 2.750452 1_555
Ga0_5 Ga3_4 2.457757 1_556
Ga0_5 Nb2_5 2.623744 1_555
Ga0_5 Nb2_1 2.623744 1_555
Ga0_5 Nb0_4 2.733319 1_556
Ga0_5 Nb1_5 2.733319 1_555
Ga0_5 Nb3_4 2.750452 1_556
Ga0_5 Nb3_0 2.750452 1_556
Ga0_5 Nb4_5 2.750452 1_555
Ga0_5 Nb4_1 2.750452 1_555
Ga0_6 Ga3_7 2.457757 1_555
Ga0_6 Nb2_6 2.623744 1_555
Ga0_6 Nb2_2 2.623744 1_555
Ga0_6 Nb0_7 2.733319 1_555
Ga0_6 Nb1_6 2.733319 1_555
Ga0_6 Nb3_7 2.750452 1_555
Ga0_6 Nb3_3 2.750452 1_555
Ga0_6 Nb4_6 2.750452 1_555
Ga0_6 Nb4_2 2.750452 1_555
Ga0_7 Ga3_6 2.457757 1_556
Ga0_7 Nb2_7 2.623744 1_555
Ga0_7 Nb2_3 2.623744 1_555
Ga0_7 Nb0_6 2.733319 1_556
Ga0_7 Nb1_7 2.733319 1_555
Ga0_7 Nb3_6 2.750452 1_556
Ga0_7 Nb3_2 2.750452 1_556
Ga0_7 Nb4_7 2.750452 1_555
Ga0_7 Nb4_3 2.750452 1_555
Ga1_0 Ga2_2 2.457757 1_545
Ga1_0 Nb3_0 2.623744 1_555
Ga1_0 Nb3_4 2.623744 1_455
Ga1_0 Nb1_0 2.733319 1_555
Ga1_0 Nb0_0 2.733319 1_555
Ga1_0 Nb2_0 2.750452 1_555
Ga1_0 Nb2_4 2.750452 1_455
Ga1_0 Nb5_2 2.750452 1_545
Ga1_0 Nb5_6 2.750452 1_445
Ga1_1 Ga2_3 2.457757 1_545
Ga1_1 Nb3_1 2.623744 1_555
Ga1_1 Nb3_5 2.623744 1_455
Ga1_1 Nb0_1 2.733319 1_555
Ga1_1 Nb1_1 2.733319 1_555
Ga1_1 Nb5_3 2.750452 1_545
Ga1_1 Nb5_7 2.750452 1_445
Ga1_1 Nb2_1 2.750452 1_555
Ga1_1 Nb2_5 2.750452 1_455
Ga1_2 Ga2_0 2.457757 1_555
Ga1_2 Nb3_2 2.623744 1_555
Ga1_2 Nb3_6 2.623744 1_455
Ga1_2 Nb0_2 2.733319 1_555
Ga1_2 Nb1_2 2.733319 1_555
Ga1_2 Nb5_0 2.750452 1_555
Ga1_2 Nb2_2 2.750452 1_555
Ga1_2 Nb5_4 2.750452 1_455
Ga1_2 Nb2_6 2.750452 1_455
Ga1_3 Ga2_1 2.457757 1_555
Ga1_3 Nb3_3 2.623744 1_555
Ga1_3 Nb3_7 2.623744 1_455
Ga1_3 Nb0_3 2.733319 1_555
Ga1_3 Nb1_3 2.733319 1_555
Ga1_3 Nb5_1 2.750452 1_555
Ga1_3 Nb5_5 2.750452 1_455
Ga1_3 Nb2_3 2.750452 1_555
Ga1_3 Nb2_7 2.750452 1_455
Ga1_4 Ga2_6 2.457757 1_545
Ga1_4 Nb3_4 2.623744 1_555
Ga1_4 Nb3_0 2.623744 1_555
Ga1_4 Nb1_4 2.733319 1_555
Ga1_4 Nb0_4 2.733319 1_555
Ga1_4 Nb2_4 2.750452 1_555
Ga1_4 Nb2_0 2.750452 1_555
Ga1_4 Nb5_6 2.750452 1_545
Ga1_4 Nb5_2 2.750452 1_545
Ga1_5 Ga2_7 2.457757 1_545
Ga1_5 Nb3_5 2.623744 1_555
Ga1_5 Nb3_1 2.623744 1_555
Ga1_5 Nb0_5 2.733319 1_555
Ga1_5 Nb1_5 2.733319 1_555
Ga1_5 Nb5_7 2.750452 1_545
Ga1_5 Nb5_3 2.750452 1_545
Ga1_5 Nb2_5 2.750452 1_555
Ga1_5 Nb2_1 2.750452 1_555
Ga1_6 Ga2_4 2.457757 1_555
Ga1_6 Nb3_6 2.623744 1_555
Ga1_6 Nb3_2 2.623744 1_555
Ga1_6 Nb0_6 2.733319 1_555
Ga1_6 Nb1_6 2.733319 1_555
Ga1_6 Nb2_6 2.750452 1_555
Ga1_6 Nb5_4 2.750452 1_555
Ga1_6 Nb5_0 2.750452 1_555
Ga1_6 Nb2_2 2.750452 1_555
Ga1_7 Ga2_5 2.457757 1_555
Ga1_7 Nb3_7 2.623744 1_555
Ga1_7 Nb3_3 2.623744 1_555
Ga1_7 Nb0_7 2.733319 1_555
Ga1_7 Nb1_7 2.733319 1_555
Ga1_7 Nb5_5 2.750452 1_555
Ga1_7 Nb5_1 2.750452 1_555
Ga1_7 Nb2_7 2.750452 1_555
Ga1_7 Nb2_3 2.750452 1_555
Ga2_0 Nb4_0 2.623744 1_555
Ga2_0 Nb4_4 2.623744 1_455
Ga2_0 Nb1_0 2.733319 1_555
Ga2_0 Nb0_3 2.733319 1_555
Ga2_0 Nb2_2 2.750452 1_555
Ga2_0 Nb2_6 2.750452 1_455
Ga2_0 Nb5_0 2.750452 1_555
Ga2_0 Nb5_4 2.750452 1_455
Ga2_1 Nb4_1 2.623744 1_555
Ga2_1 Nb4_5 2.623744 1_455
Ga2_1 Nb0_2 2.733319 1_556
Ga2_1 Nb1_1 2.733319 1_555
Ga2_1 Nb2_3 2.750452 1_555
Ga2_1 Nb2_7 2.750452 1_455
Ga2_1 Nb5_1 2.750452 1_555
Ga2_1 Nb5_5 2.750452 1_455
Ga2_2 Nb4_2 2.623744 1_555
Ga2_2 Nb4_6 2.623744 1_455
Ga2_2 Nb0_1 2.733319 1_565
Ga2_2 Nb1_2 2.733319 1_555
Ga2_2 Nb2_0 2.750452 1_565
Ga2_2 Nb2_4 2.750452 1_465
Ga2_2 Nb5_2 2.750452 1_555
Ga2_2 Nb5_6 2.750452 1_455
Ga2_3 Nb4_3 2.623744 1_555
Ga2_3 Nb4_7 2.623744 1_455
Ga2_3 Nb0_0 2.733319 1_566
Ga2_3 Nb1_3 2.733319 1_555
Ga2_3 Nb2_1 2.750452 1_565
Ga2_3 Nb2_5 2.750452 1_465
Ga2_3 Nb5_3 2.750452 1_555
Ga2_3 Nb5_7 2.750452 1_455
Ga2_4 Nb4_4 2.623744 1_555
Ga2_4 Nb4_0 2.623744 1_555
Ga2_4 Nb0_7 2.733319 1_555
Ga2_4 Nb1_4 2.733319 1_555
Ga2_4 Nb2_6 2.750452 1_555
Ga2_4 Nb2_2 2.750452 1_555
Ga2_4 Nb5_4 2.750452 1_555
Ga2_4 Nb5_0 2.750452 1_555
Ga2_5 Nb4_5 2.623744 1_555
Ga2_5 Nb4_1 2.623744 1_555
Ga2_5 Nb0_6 2.733319 1_556
Ga2_5 Nb1_5 2.733319 1_555
Ga2_5 Nb2_7 2.750452 1_555
Ga2_5 Nb2_3 2.750452 1_555
Ga2_5 Nb5_5 2.750452 1_555
Ga2_5 Nb5_1 2.750452 1_555
Ga2_6 Nb4_6 2.623744 1_555
Ga2_6 Nb4_2 2.623744 1_555
Ga2_6 Nb0_5 2.733319 1_565
Ga2_6 Nb1_6 2.733319 1_555
Ga2_6 Nb2_4 2.750452 1_565
Ga2_6 Nb2_0 2.750452 1_565
Ga2_6 Nb5_6 2.750452 1_555
Ga2_6 Nb5_2 2.750452 1_555
Ga2_7 Nb4_7 2.623744 1_555
Ga2_7 Nb4_3 2.623744 1_555
Ga2_7 Nb0_4 2.733319 1_566
Ga2_7 Nb1_7 2.733319 1_555
Ga2_7 Nb2_5 2.750452 1_565
Ga2_7 Nb2_1 2.750452 1_565
Ga2_7 Nb5_7 2.750452 1_555
Ga2_7 Nb5_3 2.750452 1_555
Ga3_0 Nb5_0 2.623744 1_555
Ga3_0 Nb5_4 2.623744 1_455
Ga3_0 Nb0_2 2.733319 1_555
Ga3_0 Nb1_0 2.733319 1_555
Ga3_0 Nb3_0 2.750452 1_555
Ga3_0 Nb4_1 2.750452 1_554
Ga3_0 Nb3_4 2.750452 1_455
Ga3_0 Nb4_5 2.750452 1_454
Ga3_1 Nb5_1 2.623744 1_555
Ga3_1 Nb5_5 2.623744 1_455
Ga3_1 Nb0_3 2.733319 1_555
Ga3_1 Nb1_1 2.733319 1_555
Ga3_1 Nb4_0 2.750452 1_555
Ga3_1 Nb4_4 2.750452 1_455
Ga3_1 Nb3_1 2.750452 1_555
Ga3_1 Nb3_5 2.750452 1_455
Ga3_2 Nb5_2 2.623744 1_555
Ga3_2 Nb5_6 2.623744 1_455
Ga3_2 Nb0_0 2.733319 1_565
Ga3_2 Nb1_2 2.733319 1_555
Ga3_2 Nb3_2 2.750452 1_555
Ga3_2 Nb4_3 2.750452 1_554
Ga3_2 Nb3_6 2.750452 1_455
Ga3_2 Nb4_7 2.750452 1_454
Ga3_3 Nb5_3 2.623744 1_555
Ga3_3 Nb5_7 2.623744 1_455
Ga3_3 Nb0_1 2.733319 1_565
Ga3_3 Nb1_3 2.733319 1_555
Ga3_3 Nb4_2 2.750452 1_555
Ga3_3 Nb4_6 2.750452 1_455
Ga3_3 Nb3_3 2.750452 1_555
Ga3_3 Nb3_7 2.750452 1_455
Ga3_4 Nb5_4 2.623744 1_555
Ga3_4 Nb5_0 2.623744 1_555
Ga3_4 Nb0_6 2.733319 1_555
Ga3_4 Nb1_4 2.733319 1_555
Ga3_4 Nb3_4 2.750452 1_555
Ga3_4 Nb3_0 2.750452 1_555
Ga3_4 Nb4_5 2.750452 1_554
Ga3_4 Nb4_1 2.750452 1_554
Ga3_5 Nb5_5 2.623744 1_555
Ga3_5 Nb5_1 2.623744 1_555
Ga3_5 Nb0_7 2.733319 1_555
Ga3_5 Nb1_5 2.733319 1_555
Ga3_5 Nb4_4 2.750452 1_555
Ga3_5 Nb4_0 2.750452 1_555
Ga3_5 Nb3_5 2.750452 1_555
Ga3_5 Nb3_1 2.750452 1_555
Ga3_6 Nb5_6 2.623744 1_555
Ga3_6 Nb5_2 2.623744 1_555
Ga3_6 Nb0_4 2.733319 1_565
Ga3_6 Nb1_6 2.733319 1_555
Ga3_6 Nb3_6 2.750452 1_555
Ga3_6 Nb4_7 2.750452 1_554
Ga3_6 Nb3_2 2.750452 1_555
Ga3_6 Nb4_3 2.750452 1_554
Ga3_7 Nb5_7 2.623744 1_555
Ga3_7 Nb5_3 2.623744 1_555
Ga3_7 Nb0_5 2.733319 1_565
Ga3_7 Nb1_7 2.733319 1_555
Ga3_7 Nb4_6 2.750452 1_555
Ga3_7 Nb3_7 2.750452 1_555
Ga3_7 Nb4_2 2.750452 1_555
Ga3_7 Nb3_3 2.750452 1_555
