# generated using pymatgen
data_Ca3TeN4
_symmetry_space_group_name_H-M   'P 1'
_cell_length_a   17.30787566
_cell_length_b   17.30787561
_cell_length_c   9.52318694
_cell_angle_alpha   89.99996154
_cell_angle_beta   89.99995974
_cell_angle_gamma   120.00001472
_symmetry_Int_Tables_number   1
_chemical_formula_structural   Ca3TeN4
_chemical_formula_sum   'Ca54 Te18 N72'
_cell_volume   2470.58846124
_cell_formula_units_Z   18
loop_
 _symmetry_equiv_pos_site_id
 _symmetry_equiv_pos_as_xyz
  1  'x, y, z'
loop_
 _atom_site_type_symbol
 _atom_site_label
 _atom_site_symmetry_multiplicity
 _atom_site_fract_x
 _atom_site_fract_y
 _atom_site_fract_z
 _atom_site_occupancy
  Ca  Ca0  1  0.99998938  0.99999908  0.75010121  1
  Ca  Ca1  1  0.99999908  0.99998938  0.25010121  1
  Ca  Ca2  1  0.66666405  0.33332501  0.80792254  1
  Ca  Ca3  1  0.33332501  0.66666405  0.30792254  1
  Ca  Ca4  1  0.33333298  0.66666066  0.83041730  1
  Ca  Ca5  1  0.66666066  0.33333298  0.33041730  1
  Ca  Ca6  1  0.65741005  0.68698840  0.86113274  1
  Ca  Ca7  1  0.31302578  0.97042752  0.86111393  1
  Ca  Ca8  1  0.02958043  0.34258865  0.86113420  1
  Ca  Ca9  1  0.68698840  0.65741005  0.36113274  1
  Ca  Ca10  1  0.97042752  0.31302578  0.36111393  1
  Ca  Ca11  1  0.34258865  0.02958043  0.36113420  1
  Ca  Ca12  1  0.68270712  0.02891835  0.73900754  1
  Ca  Ca13  1  0.97109439  0.65377553  0.73926637  1
  Ca  Ca14  1  0.34621389  0.31730421  0.73912151  1
  Ca  Ca15  1  0.02891835  0.68270712  0.23900754  1
  Ca  Ca16  1  0.65377553  0.97109439  0.23926637  1
  Ca  Ca17  1  0.31730421  0.34621389  0.23912151  1
  Ca  Ca18  1  0.76522505  0.85463315  0.56553659  1
  Ca  Ca19  1  0.14535857  0.91057796  0.56551853  1
  Ca  Ca20  1  0.08942329  0.23478413  0.56552238  1
  Ca  Ca21  1  0.85463315  0.76522505  0.06553659  1
  Ca  Ca22  1  0.91057796  0.14535857  0.06551853  1
  Ca  Ca23  1  0.23478413  0.08942329  0.06552238  1
  Ca  Ca24  1  0.77600981  0.92349710  0.91326622  1
  Ca  Ca25  1  0.07652941  0.85255483  0.91326048  1
  Ca  Ca26  1  0.14746455  0.22397347  0.91326905  1
  Ca  Ca27  1  0.92349710  0.77600981  0.41326622  1
  Ca  Ca28  1  0.85255483  0.07652941  0.41326048  1
  Ca  Ca29  1  0.22397347  0.14746455  0.41326905  1
  Ca  Ca30  1  0.82312435  0.25742681  0.66526010  1
  Ca  Ca31  1  0.74257867  0.56569186  0.66526511  1
  Ca  Ca32  1  0.43430495  0.17688857  0.66527238  1
  Ca  Ca33  1  0.25742681  0.82312435  0.16526010  1
  Ca  Ca34  1  0.56569186  0.74257867  0.16526511  1
  Ca  Ca35  1  0.17688857  0.43430495  0.16527238  1
  Ca  Ca36  1  0.47901286  0.59973143  0.63939822  1
  Ca  Ca37  1  0.40027394  0.87927316  0.63940333  1
  Ca  Ca38  1  0.12072018  0.52098221  0.63941075  1
  Ca  Ca39  1  0.59973143  0.47901286  0.13939822  1
  Ca  Ca40  1  0.87927316  0.40027394  0.13940333  1
  Ca  Ca41  1  0.52098221  0.12072018  0.13941075  1
  Ca  Ca42  1  0.48071249  0.90196918  0.97867199  1
  Ca  Ca43  1  0.09805159  0.57871699  0.97868705  1
  Ca  Ca44  1  0.42127278  0.51931284  0.97866909  1
  Ca  Ca45  1  0.90196918  0.48071249  0.47867199  1
  Ca  Ca46  1  0.57871699  0.09805159  0.47868705  1
  Ca  Ca47  1  0.51931284  0.42127278  0.47866909  1
  Ca  Ca48  1  0.73903216  0.19238242  0.99607785  1
  Ca  Ca49  1  0.80758380  0.54662537  0.99607488  1
  Ca  Ca50  1  0.45336109  0.26096770  0.99607937  1
  Ca  Ca51  1  0.19238242  0.73903216  0.49607785  1
  Ca  Ca52  1  0.54662537  0.80758380  0.49607488  1
  Ca  Ca53  1  0.26096770  0.45336109  0.49607937  1
  Te  Te0  1  0.89597920  0.12141928  0.72690954  1
  Te  Te1  1  0.87858773  0.77455541  0.72691115  1
  Te  Te2  1  0.22543968  0.10402829  0.72691512  1
  Te  Te3  1  0.12141928  0.89597920  0.22690954  1
  Te  Te4  1  0.77455541  0.87858773  0.22691115  1
  Te  Te5  1  0.10402829  0.22543968  0.22691512  1
  Te  Te6  1  0.88991622  0.44468651  0.81939268  1
  Te  Te7  1  0.55530919  0.44522197  0.81938043  1
  Te  Te8  1  0.55476873  0.11008670  0.81939065  1
  Te  Te9  1  0.44468651  0.88991622  0.31939268  1
  Te  Te10  1  0.44522197  0.55530919  0.31938043  1
  Te  Te11  1  0.11008670  0.55476873  0.31939065  1
  Te  Te12  1  0.55814742  0.79152226  0.82449333  1
  Te  Te13  1  0.20847444  0.76662286  0.82455371  1
  Te  Te14  1  0.23337735  0.44184011  0.82453016  1
  Te  Te15  1  0.79152226  0.55814742  0.32449333  1
  Te  Te16  1  0.76662286  0.20847444  0.32455371  1
  Te  Te17  1  0.44184011  0.23337735  0.32453016  1
  N  N0  1  0.99505344  0.12600789  0.83159662  1
  N  N1  1  0.87396922  0.86904315  0.83155031  1
  N  N2  1  0.13094157  0.00495054  0.83159570  1
  N  N3  1  0.12600789  0.99505344  0.33159662  1
  N  N4  1  0.86904315  0.87396922  0.33155031  1
  N  N5  1  0.00495054  0.13094157  0.33159570  1
  N  N6  1  0.62974310  0.90673349  0.91601148  1
  N  N7  1  0.09330047  0.72305056  0.91618562  1
  N  N8  1  0.27696717  0.37024375  0.91609853  1
  N  N9  1  0.90673349  0.62974310  0.41601148  1
  N  N10  1  0.72305056  0.09330047  0.41618562  1
  N  N11  1  0.37024375  0.27696717  0.41609853  1
  N  N12  1  0.93508040  0.20968679  0.57516970  1
  N  N13  1  0.79033806  0.72538399  0.57515449  1
  N  N14  1  0.27460250  0.06492774  0.57517829  1
  N  N15  1  0.20968679  0.93508040  0.07516970  1
  N  N16  1  0.72538399  0.79033806  0.07515449  1
  N  N17  1  0.06492774  0.27460250  0.07517829  1
  N  N18  1  0.65802611  0.16055361  0.69305659  1
  N  N19  1  0.83946734  0.49748917  0.69304873  1
  N  N20  1  0.50250957  0.34197886  0.69303893  1
  N  N21  1  0.16055361  0.65802611  0.19305659  1
  N  N22  1  0.49748917  0.83946734  0.19304873  1
  N  N23  1  0.34197886  0.50250957  0.19303893  1
  N  N24  1  0.79545882  0.33418178  0.90205380  1
  N  N25  1  0.66581608  0.46127120  0.90201424  1
  N  N26  1  0.53870671  0.20453933  0.90201733  1
  N  N27  1  0.33418178  0.79545882  0.40205380  1
  N  N28  1  0.46127120  0.66581608  0.40201424  1
  N  N29  1  0.20453933  0.53870671  0.40201733  1
  N  N30  1  0.62686395  0.77000110  0.68062405  1
  N  N31  1  0.22996384  0.85684061  0.68065823  1
  N  N32  1  0.14315122  0.37313217  0.68064227  1
  N  N33  1  0.77000110  0.62686395  0.18062405  1
  N  N34  1  0.85684061  0.22996384  0.18065823  1
  N  N35  1  0.37313217  0.14315122  0.18064227  1
  N  N36  1  0.58747247  0.05742685  0.97329500  1
  N  N37  1  0.94259401  0.53009667  0.97323934  1
  N  N38  1  0.46993034  0.41251615  0.97326138  1
  N  N39  1  0.05742685  0.58747247  0.47329500  1
  N  N40  1  0.53009667  0.94259401  0.47323934  1
  N  N41  1  0.41251615  0.46993034  0.47326138  1
  N  N42  1  0.96946533  0.41357947  0.71998272  1
  N  N43  1  0.58641747  0.55588272  0.71995459  1
  N  N44  1  0.44413125  0.03053378  0.71993453  1
  N  N45  1  0.41357947  0.96946533  0.21998272  1
  N  N46  1  0.55588272  0.58641747  0.21995459  1
  N  N47  1  0.03053378  0.44413125  0.21993453  1
  N  N48  1  0.82319619  0.14639627  0.85545105  1
  N  N49  1  0.85359447  0.67679935  0.85548386  1
  N  N50  1  0.32319791  0.17680000  0.85546590  1
  N  N51  1  0.14639627  0.82319619  0.35545105  1
  N  N52  1  0.67679935  0.85359447  0.35548386  1
  N  N53  1  0.17680000  0.32319791  0.35546590  1
  N  N54  1  0.51369505  0.68064089  0.93450889  1
  N  N55  1  0.31937815  0.83306908  0.93450198  1
  N  N56  1  0.16694520  0.48629996  0.93451292  1
  N  N57  1  0.68064089  0.51369505  0.43450889  1
  N  N58  1  0.83306908  0.31937815  0.43450198  1
  N  N59  1  0.48629996  0.16694520  0.43451292  1
  N  N60  1  0.81451428  0.00171351  0.65190754  1
  N  N61  1  0.99829953  0.81278914  0.65195156  1
  N  N62  1  0.18720440  0.18549935  0.65192808  1
  N  N63  1  0.00171351  0.81451428  0.15190754  1
  N  N64  1  0.81278914  0.99829953  0.15195156  1
  N  N65  1  0.18549935  0.18720440  0.15192808  1
  N  N66  1  0.45856479  0.79480806  0.73588408  1
  N  N67  1  0.20514543  0.66372632  0.73597333  1
  N  N68  1  0.33626695  0.54142335  0.73593484  1
  N  N69  1  0.79480806  0.45856479  0.23588408  1
  N  N70  1  0.66372632  0.20514543  0.23597333  1
  N  N71  1  0.54142335  0.33626695  0.23593484  1
loop_
_geom_bond_atom_site_label_1
_geom_bond_atom_site_label_2
_geom_bond_distance
_geom_bond_site_symmetry_2
Ca0 N2 2.356366 1_665
Ca0 N0 2.356367 1_565
Ca0 N1 2.356404 1_555
Ca1 N5 2.356366 1_665
Ca1 N3 2.356367 1_655
Ca1 N4 2.356404 1_555
Ca2 N25 2.395733 1_555
Ca2 N26 2.395762 1_555
Ca2 N24 2.395814 1_555
Ca3 N28 2.395733 1_555
Ca3 N29 2.395762 1_555
Ca3 N27 2.395814 1_555
Ca4 N66 2.370743 1_555
Ca4 N68 2.370802 1_555
Ca4 N67 2.370920 1_555
Ca5 N69 2.370743 1_555
Ca5 N71 2.370802 1_555
Ca5 N70 2.370920 1_555
Ca6 N43 2.382913 1_555
Ca6 N30 2.461393 1_555
Ca6 N54 2.532637 1_555
Ca6 N16 2.575554 1_556
Ca7 N44 2.382920 1_565
Ca7 N31 2.461446 1_555
Ca7 N55 2.532561 1_555
Ca7 N15 2.575755 1_556
Ca8 N42 2.382771 1_455
Ca8 N32 2.461432 1_555
Ca8 N56 2.532590 1_555
Ca8 N17 2.575613 1_556
Ca9 N46 2.382913 1_555
Ca9 N33 2.461393 1_555
Ca9 N57 2.532637 1_555
Ca9 N13 2.575554 1_555
Ca10 N47 2.382920 1_655
Ca10 N34 2.461446 1_555
Ca10 N58 2.532561 1_555
Ca10 N12 2.575755 1_555
Ca11 N45 2.382771 1_545
Ca11 N35 2.461432 1_555
Ca11 N59 2.532590 1_555
Ca11 N14 2.575613 1_555
Ca12 N6 2.493057 1_545
Ca12 N48 2.516427 1_555
Ca12 N18 2.556949 1_555
Ca12 N60 2.681088 1_555
Ca12 N36 2.958342 1_555
Ca13 N7 2.492791 1_655
Ca13 N49 2.515939 1_555
Ca13 N19 2.557017 1_555
Ca13 N61 2.681746 1_555
Ca13 N37 2.955397 1_555
Ca14 N8 2.492925 1_555
Ca14 N50 2.516215 1_555
Ca14 N20 2.556857 1_555
Ca14 N62 2.681325 1_555
Ca14 N38 2.957002 1_555
Ca15 N9 2.493056 1_455
Ca15 N51 2.516427 1_555
Ca15 N21 2.556949 1_555
Ca15 N63 2.681088 1_555
Ca15 N39 2.958342 1_555
Ca16 N10 2.492791 1_565
Ca16 N52 2.515939 1_555
Ca16 N22 2.557017 1_555
Ca16 N64 2.681746 1_555
Ca16 N40 2.955397 1_555
Ca17 N11 2.492925 1_555
Ca17 N53 2.516215 1_555
Ca17 N23 2.556857 1_555
Ca17 N65 2.681325 1_555
Ca17 N41 2.957002 1_555
Ca18 N30 2.360890 1_555
Ca18 N60 2.390183 1_565
Ca18 N13 2.484741 1_555
Ca18 N52 2.513287 1_555
Ca18 N4 2.775732 1_555
Ca18 N1 3.090762 1_555
Ca19 N31 2.360845 1_555
Ca19 N61 2.390115 1_455
Ca19 N14 2.484589 1_565
Ca19 N51 2.513338 1_555
Ca19 N3 2.775271 1_555
Ca19 N2 3.091677 1_565
Ca20 N32 2.360853 1_555
Ca20 N62 2.390088 1_555
Ca20 N12 2.484520 1_455
Ca20 N53 2.513196 1_555
Ca20 N5 2.775409 1_555
Ca20 N0 3.091561 1_455
Ca21 N33 2.360890 1_555
Ca21 N63 2.390183 1_655
Ca21 N16 2.484741 1_555
Ca21 N49 2.513287 1_554
Ca21 N1 2.775732 1_554
Ca21 N4 3.090762 1_555
Ca22 N34 2.360845 1_555
Ca22 N64 2.390115 1_545
Ca22 N17 2.484589 1_655
Ca22 N48 2.513338 1_554
Ca22 N0 2.775271 1_554
Ca22 N5 3.091677 1_655
Ca23 N35 2.360853 1_555
Ca23 N65 2.390088 1_555
Ca23 N15 2.484520 1_545
Ca23 N50 2.513196 1_554
Ca23 N2 2.775409 1_554
Ca23 N3 3.091561 1_545
Ca24 N6 2.399829 1_555
Ca24 N1 2.442627 1_555
Ca24 N64 2.534558 1_556
Ca24 N16 2.537082 1_556
Ca24 N60 2.751283 1_565
Ca25 N7 2.399944 1_555
Ca25 N2 2.442312 1_565
Ca25 N63 2.534319 1_556
Ca25 N15 2.537173 1_556
Ca25 N61 2.750947 1_455
Ca26 N8 2.399870 1_555
Ca26 N0 2.442484 1_455
Ca26 N65 2.534343 1_556
Ca26 N17 2.537285 1_556
Ca26 N62 2.751119 1_555
Ca27 N9 2.399829 1_555
Ca27 N4 2.442627 1_555
Ca27 N61 2.534558 1_555
Ca27 N13 2.537082 1_555
Ca27 N63 2.751283 1_655
Ca28 N10 2.399944 1_555
Ca28 N5 2.442312 1_655
Ca28 N60 2.534319 1_555
Ca28 N12 2.537173 1_555
Ca28 N64 2.750947 1_545
Ca29 N11 2.399870 1_555
Ca29 N3 2.442484 1_545
Ca29 N62 2.534343 1_555
Ca29 N14 2.537285 1_555
Ca29 N65 2.751119 1_555
Ca30 N58 2.413300 1_555
Ca30 N18 2.501102 1_555
Ca30 N12 2.602820 1_555
Ca30 N48 2.641185 1_555
Ca30 N42 2.673179 1_555
Ca30 N24 2.777657 1_555
Ca31 N57 2.413199 1_555
Ca31 N19 2.501020 1_555
Ca31 N13 2.602749 1_555
Ca31 N49 2.641309 1_555
Ca31 N43 2.673281 1_555
Ca31 N25 2.777331 1_555
Ca32 N59 2.413223 1_555
Ca32 N20 2.500983 1_555
Ca32 N14 2.602926 1_555
Ca32 N50 2.641156 1_555
Ca32 N44 2.673436 1_555
Ca32 N26 2.777137 1_555
Ca33 N55 2.413299 1_554
Ca33 N21 2.501102 1_555
Ca33 N15 2.602820 1_555
Ca33 N51 2.641185 1_555
Ca33 N45 2.673179 1_555
Ca33 N27 2.777657 1_555
Ca34 N54 2.413199 1_554
Ca34 N22 2.501020 1_555
Ca34 N16 2.602749 1_555
Ca34 N52 2.641309 1_555
Ca34 N46 2.673281 1_555
Ca34 N28 2.777331 1_555
Ca35 N56 2.413223 1_554
Ca35 N23 2.500983 1_555
Ca35 N17 2.602926 1_555
Ca35 N53 2.641156 1_555
Ca35 N47 2.673436 1_555
Ca35 N29 2.777137 1_555
Ca36 N68 2.339724 1_555
Ca36 N43 2.455806 1_555
Ca36 N41 2.507852 1_555
Ca36 N28 2.619982 1_555
Ca36 N30 2.801080 1_555
Ca36 N54 3.062529 1_555
Ca37 N66 2.339691 1_555
Ca37 N44 2.455813 1_565
Ca37 N40 2.508262 1_555
Ca37 N27 2.619652 1_555
Ca37 N31 2.801712 1_555
Ca37 N55 3.062331 1_555
Ca38 N67 2.339779 1_555
Ca38 N42 2.455862 1_455
Ca38 N39 2.507521 1_555
Ca38 N29 2.620045 1_555
Ca38 N32 2.801198 1_555
Ca38 N56 3.062440 1_555
Ca39 N71 2.339724 1_555
Ca39 N46 2.455806 1_555
Ca39 N38 2.507852 1_554
Ca39 N25 2.619982 1_554
Ca39 N33 2.801080 1_555
Ca39 N57 3.062529 1_555
Ca40 N69 2.339691 1_555
Ca40 N47 2.455813 1_655
Ca40 N37 2.508262 1_554
Ca40 N24 2.619652 1_554
Ca40 N34 2.801712 1_555
Ca40 N58 3.062331 1_555
Ca41 N70 2.339779 1_555
Ca41 N45 2.455862 1_545
Ca41 N36 2.507521 1_554
Ca41 N26 2.620045 1_554
Ca41 N35 2.801198 1_555
Ca41 N59 3.062440 1_555
Ca42 N36 2.384273 1_565
Ca42 N22 2.395117 1_556
Ca42 N55 2.462996 1_555
Ca42 N6 2.608353 1_555
Ca42 N66 2.867382 1_555
Ca42 N45 3.058302 1_556
Ca43 N37 2.384569 1_455
Ca43 N21 2.395245 1_556
Ca43 N56 2.462647 1_555
Ca43 N7 2.609023 1_555
Ca43 N67 2.866341 1_555
Ca43 N47 3.057419 1_556
Ca44 N38 2.384370 1_555
Ca44 N23 2.395121 1_556
Ca44 N54 2.462874 1_555
Ca44 N8 2.608813 1_555
Ca44 N68 2.866642 1_555
Ca44 N46 3.057933 1_556
Ca45 N39 2.384273 1_655
Ca45 N19 2.395117 1_555
Ca45 N58 2.462996 1_555
Ca45 N9 2.608353 1_555
Ca45 N69 2.867382 1_555
Ca45 N42 3.058302 1_555
Ca46 N40 2.384569 1_545
Ca46 N18 2.395245 1_555
Ca46 N59 2.462647 1_555
Ca46 N10 2.609023 1_555
Ca46 N70 2.866341 1_555
Ca46 N44 3.057419 1_555
Ca47 N41 2.384370 1_555
Ca47 N20 2.395121 1_555
Ca47 N57 2.462874 1_555
Ca47 N11 2.608813 1_555
Ca47 N71 2.866642 1_555
Ca47 N43 3.057933 1_555
Ca48 N24 2.319912 1_555
Ca48 N48 2.389223 1_555
Ca48 N36 2.501372 1_555
Ca48 N34 2.518775 1_556
Ca48 N70 2.693470 1_556
Ca49 N25 2.319609 1_555
Ca49 N49 2.389292 1_555
Ca49 N37 2.501594 1_555
Ca49 N33 2.518715 1_556
Ca49 N69 2.692653 1_556
Ca50 N26 2.319678 1_555
Ca50 N50 2.389306 1_555
Ca50 N38 2.501455 1_555
Ca50 N35 2.518735 1_556
Ca50 N71 2.693089 1_556
Ca51 N27 2.319912 1_555
Ca51 N51 2.389223 1_555
Ca51 N39 2.501372 1_555
Ca51 N31 2.518775 1_555
Ca51 N67 2.693470 1_555
Ca52 N28 2.319609 1_555
Ca52 N52 2.389292 1_555
Ca52 N40 2.501594 1_555
Ca52 N30 2.518715 1_555
Ca52 N66 2.692653 1_555
Ca53 N29 2.319678 1_555
Ca53 N53 2.389306 1_555
Ca53 N41 2.501455 1_555
Ca53 N32 2.518735 1_555
Ca53 N68 2.693089 1_555
N0 Te0 1.950503 1_555
N1 Te1 1.950539 1_555
N2 Te2 1.950583 1_555
N3 Te3 1.950503 1_555
N4 Te4 1.950539 1_555
N5 Te5 1.950583 1_555
N6 Te12 1.949470 1_555
N7 Te13 1.949512 1_555
N8 Te14 1.949379 1_555
N9 Te15 1.949470 1_555
N10 Te16 1.949512 1_555
N11 Te17 1.949379 1_555
N12 Te0 1.961172 1_555
N13 Te1 1.961123 1_555
N14 Te2 1.961109 1_555
N15 Te3 1.961172 1_555
N16 Te4 1.961123 1_555
N17 Te5 1.961109 1_555
N18 Te8 1.960441 1_555
N19 Te6 1.960433 1_555
N20 Te7 1.960320 1_555
N21 Te11 1.960441 1_555
N22 Te9 1.960433 1_555
N23 Te10 1.960320 1_555
N24 Te6 1.955415 1_555
N25 Te7 1.955335 1_555
N26 Te8 1.955352 1_555
N27 Te9 1.955415 1_555
N28 Te10 1.955335 1_555
N29 Te11 1.955352 1_555
N30 Te12 1.968105 1_555
N31 Te13 1.968151 1_555
N32 Te14 1.968100 1_555
N33 Te15 1.968105 1_555
N34 Te16 1.968151 1_555
N35 Te17 1.968100 1_555
N36 Te8 1.953242 1_555
N37 Te6 1.953280 1_555
N38 Te7 1.953232 1_555
N39 Te11 1.953242 1_555
N40 Te9 1.953280 1_555
N41 Te10 1.953232 1_555
N42 Te6 1.955259 1_555
N43 Te7 1.955394 1_555
N44 Te8 1.955285 1_555
N45 Te9 1.955259 1_555
N46 Te10 1.955394 1_555
N47 Te11 1.955285 1_555
N48 Te0 1.953671 1_555
N49 Te1 1.953745 1_555
N50 Te2 1.953670 1_555
N51 Te3 1.953671 1_555
N52 Te4 1.953745 1_555
N53 Te5 1.953670 1_555
N54 Te12 1.973856 1_555
N55 Te13 1.973810 1_555
N56 Te14 1.973822 1_555
N57 Te15 1.973856 1_555
N58 Te16 1.973810 1_555
N59 Te17 1.973822 1_555
N60 Te0 1.967109 1_555
N61 Te1 1.967076 1_555
N62 Te2 1.967083 1_555
N63 Te3 1.967109 1_555
N64 Te4 1.967076 1_555
N65 Te5 1.967083 1_555
N66 Te12 1.945250 1_555
N67 Te13 1.945249 1_555
N68 Te14 1.945368 1_555
N69 Te15 1.945250 1_555
N70 Te16 1.945249 1_555
N71 Te17 1.945368 1_555
