# generated using pymatgen
data_K2Al2Si2O9
_symmetry_space_group_name_H-M   'P 1'
_cell_length_a   9.56199800
_cell_length_b   9.66356100
_cell_length_c   10.00927000
_cell_angle_alpha   90.00000000
_cell_angle_beta   90.00000000
_cell_angle_gamma   90.00000000
_symmetry_Int_Tables_number   1
_chemical_formula_structural   K2Al2Si2O9
_chemical_formula_sum   'K8 Al8 Si8 O36'
_cell_volume   924.88608490
_cell_formula_units_Z   4
loop_
 _symmetry_equiv_pos_site_id
 _symmetry_equiv_pos_as_xyz
  1  'x, y, z'
loop_
 _atom_site_type_symbol
 _atom_site_label
 _atom_site_symmetry_multiplicity
 _atom_site_fract_x
 _atom_site_fract_y
 _atom_site_fract_z
 _atom_site_occupancy
  K  K0  1  0.69852400  0.74198300  0.13613300  1
  K  K1  1  0.80147600  0.25801700  0.63613300  1
  K  K2  1  0.19852400  0.75801700  0.86386700  1
  K  K3  1  0.30147600  0.24198300  0.36386700  1
  K  K4  1  0.97627000  0.95439000  0.37016800  1
  K  K5  1  0.52373000  0.04561000  0.87016800  1
  K  K6  1  0.47627000  0.54561000  0.62983200  1
  K  K7  1  0.02373000  0.45439000  0.12983200  1
  Al  Al0  1  0.38014600  0.89685600  0.19711400  1
  Al  Al1  1  0.11985400  0.10314400  0.69711400  1
  Al  Al2  1  0.88014600  0.60314400  0.80288600  1
  Al  Al3  1  0.61985400  0.39685600  0.30288600  1
  Al  Al4  1  0.12995000  0.63030600  0.47056500  1
  Al  Al5  1  0.37005000  0.36969400  0.97056500  1
  Al  Al6  1  0.62995000  0.86969400  0.52943500  1
  Al  Al7  1  0.87005000  0.13030600  0.02943500  1
  Si  Si0  1  0.64797900  0.07078200  0.26862200  1
  Si  Si1  1  0.85202100  0.92921800  0.76862200  1
  Si  Si2  1  0.14797900  0.42921800  0.73137800  1
  Si  Si3  1  0.35202100  0.57078200  0.23137800  1
  Si  Si4  1  0.29909100  0.91493200  0.50202700  1
  Si  Si5  1  0.20090900  0.08506800  0.00202700  1
  Si  Si6  1  0.79909100  0.58506800  0.49797300  1
  Si  Si7  1  0.70090900  0.41493200  0.99797300  1
  O  O0  1  0.68198200  0.70441700  0.47249500  1
  O  O1  1  0.81801800  0.29558300  0.97249500  1
  O  O2  1  0.18198200  0.79558300  0.52750500  1
  O  O3  1  0.31801800  0.20441700  0.02750500  1
  O  O4  1  0.44921100  0.86806700  0.56182600  1
  O  O5  1  0.05078900  0.13193300  0.06182600  1
  O  O6  1  0.94921100  0.63193300  0.43817400  1
  O  O7  1  0.55078900  0.36806700  0.93817400  1
  O  O8  1  0.70424300  0.91267400  0.68606400  1
  O  O9  1  0.79575700  0.08732600  0.18606400  1
  O  O10  1  0.20424300  0.58732600  0.31393600  1
  O  O11  1  0.29575700  0.41267400  0.81393600  1
  O  O12  1  0.75899100  0.56110200  0.93010000  1
  O  O13  1  0.74100900  0.43889800  0.43010000  1
  O  O14  1  0.25899100  0.93889800  0.06990000  1
  O  O15  1  0.24100900  0.06110200  0.56990000  1
  O  O16  1  0.30351900  0.95653500  0.34386700  1
  O  O17  1  0.19648100  0.04346500  0.84386700  1
  O  O18  1  0.80351900  0.54346500  0.65613300  1
  O  O19  1  0.69648100  0.45653500  0.15613300  1
  O  O20  1  0.45771800  0.48045600  0.32756500  1
  O  O21  1  0.04228200  0.51954400  0.82756500  1
  O  O22  1  0.95771800  0.01954400  0.67243500  1
  O  O23  1  0.54228200  0.98045600  0.17243500  1
  O  O24  1  0.41970500  0.72046900  0.19312600  1
  O  O25  1  0.08029500  0.27953100  0.69312600  1
  O  O26  1  0.91970500  0.77953100  0.80687400  1
  O  O27  1  0.58029500  0.22046900  0.30687400  1
  O  O28  1  0.31423400  0.48688500  0.09385800  1
  O  O29  1  0.18576600  0.51311500  0.59385800  1
  O  O30  1  0.81423400  0.01311500  0.90614200  1
  O  O31  1  0.68576600  0.98688500  0.40614200  1
  O  O32  1  0.05971500  0.77871100  0.13348900  1
  O  O33  1  0.44028500  0.22128900  0.63348900  1
  O  O34  1  0.55971500  0.72128900  0.86651100  1
  O  O35  1  0.94028500  0.27871100  0.36651100  1
loop_
_geom_bond_atom_site_label_1
_geom_bond_atom_site_label_2
_geom_bond_distance
_geom_bond_site_symmetry_2
K0 O24 2.734329 1_555
K0 O12 2.764503 1_554
K0 O19 2.765768 1_555
K0 O23 2.770331 1_555
K0 O34 3.014097 1_554
K1 O25 2.734329 1_655
K1 O13 2.764503 1_555
K1 O18 2.765768 1_555
K1 O22 2.770331 1_555
K1 O35 3.014097 1_555
K2 O26 2.734329 1_455
K2 O14 2.764503 1_556
K2 O17 2.765768 1_565
K2 O21 2.770331 1_555
K2 O32 3.014097 1_556
K3 O27 2.734329 1_555
K3 O15 2.764503 1_555
K3 O16 2.765768 1_545
K3 O20 2.770331 1_555
K3 O33 3.014097 1_555
K4 O31 2.818586 1_555
K4 O9 2.832897 1_565
K4 O2 2.950316 1_655
K4 O32 3.021732 1_655
K4 O22 3.095379 1_565
K4 O16 3.140277 1_655
K4 O35 3.153140 1_565
K4 O6 3.200040 1_555
K5 O30 2.818586 1_555
K5 O8 2.832897 1_545
K5 O3 2.950316 1_556
K5 O33 3.021732 1_555
K5 O23 3.095379 1_546
K5 O17 3.140277 1_555
K5 O34 3.153140 1_545
K5 O7 3.200040 1_555
K6 O29 2.818586 1_555
K6 O11 2.832897 1_555
K6 O0 2.950316 1_555
K6 O34 3.021732 1_555
K6 O20 3.095379 1_555
K6 O18 3.140277 1_555
K6 O33 3.153140 1_555
K6 O4 3.200040 1_555
K7 O28 2.818586 1_555
K7 O10 2.832897 1_555
K7 O1 2.950316 1_454
K7 O35 3.021732 1_455
K7 O21 3.095379 1_554
K7 O19 3.140277 1_455
K7 O32 3.153140 1_555
K7 O5 3.200040 1_555
Al0 O16 1.739855 1_555
Al0 O24 1.746450 1_555
Al0 O23 1.765572 1_555
Al0 O14 1.768753 1_555
Al1 O17 1.739855 1_555
Al1 O25 1.746450 1_555
Al1 O22 1.765572 1_455
Al1 O15 1.768753 1_555
Al2 O18 1.739855 1_555
Al2 O26 1.746450 1_555
Al2 O21 1.765572 1_655
Al2 O12 1.768753 1_555
Al3 O19 1.739855 1_555
Al3 O27 1.746450 1_555
Al3 O20 1.765572 1_555
Al3 O13 1.768753 1_555
Al4 O29 1.757925 1_555
Al4 O6 1.758444 1_455
Al4 O2 1.767283 1_555
Al4 O10 1.770586 1_555
Al5 O28 1.757925 1_556
Al5 O7 1.758444 1_555
Al5 O3 1.767283 1_556
Al5 O11 1.770586 1_555
Al6 O31 1.757925 1_555
Al6 O4 1.758444 1_555
Al6 O0 1.767283 1_555
Al6 O8 1.770586 1_555
Al7 O30 1.757925 1_554
Al7 O5 1.758444 1_655
Al7 O1 1.767283 1_554
Al7 O9 1.770586 1_555
O0 Si6 1.627624 1_555
O1 Si7 1.627624 1_555
O2 Si4 1.627624 1_555
O3 Si5 1.627624 1_555
O4 Si4 1.619835 1_555
O5 Si5 1.619835 1_555
O6 Si6 1.619835 1_555
O7 Si7 1.619835 1_555
O8 Si1 1.644726 1_555
O9 Si0 1.644726 1_555
O10 Si3 1.644726 1_555
O11 Si2 1.644726 1_555
O12 Si7 1.662888 1_555
O13 Si6 1.662888 1_555
O14 Si5 1.662888 1_565
O15 Si4 1.662888 1_545
O16 Si4 1.633867 1_555
O17 Si5 1.633867 1_556
O18 Si6 1.633867 1_555
O19 Si7 1.633867 1_554
O20 Si3 1.646292 1_555
O21 Si2 1.646292 1_555
O22 Si1 1.646292 1_545
O23 Si0 1.646292 1_565
O24 Si3 1.630289 1_555
O25 Si2 1.630289 1_555
O26 Si1 1.630289 1_555
O27 Si0 1.630289 1_555
O28 Si3 1.637846 1_555
O29 Si2 1.637846 1_555
O30 Si1 1.637846 1_545
O31 Si0 1.637846 1_565
