# generated using pymatgen
data_Li2TiCrO4
_symmetry_space_group_name_H-M   'P 1'
_cell_length_a   5.96581467
_cell_length_b   10.38738796
_cell_length_c   5.96601937
_cell_angle_alpha   106.67036927
_cell_angle_beta   118.94744997
_cell_angle_gamma   90.53768561
_symmetry_Int_Tables_number   1
_chemical_formula_structural   Li2TiCrO4
_chemical_formula_sum   'Li8 Ti4 Cr4 O16'
_cell_volume   305.03877274
_cell_formula_units_Z   4
loop_
 _symmetry_equiv_pos_site_id
 _symmetry_equiv_pos_as_xyz
  1  'x, y, z'
loop_
 _atom_site_type_symbol
 _atom_site_label
 _atom_site_symmetry_multiplicity
 _atom_site_fract_x
 _atom_site_fract_y
 _atom_site_fract_z
 _atom_site_occupancy
  Li  Li0  1  0.50896200  0.99866900  0.00236500  1
  Li  Li1  1  0.99112900  0.50132100  0.99762300  1
  Li  Li2  1  0.99625500  0.99865600  0.48982800  1
  Li  Li3  1  0.50361700  0.50135800  0.50998400  1
  Li  Li4  1  0.50002000  0.99897400  0.49911700  1
  Li  Li5  1  0.99993100  0.50104500  0.50101900  1
  Li  Li6  1  0.25005000  0.75000200  0.49993800  1
  Li  Li7  1  0.75002400  0.24999500  0.50011500  1
  Ti  Ti0  1  0.24999900  0.25001200  0.00016000  1
  Ti  Ti1  1  0.74996400  0.74997700  0.99978500  1
  Ti  Ti2  1  0.00857500  0.99728000  0.98862200  1
  Ti  Ti3  1  0.49139900  0.50271800  0.01129600  1
  Cr  Cr0  1  0.75003500  0.25000500  0.00010700  1
  Cr  Cr1  1  0.25000000  0.25000500  0.50014000  1
  Cr  Cr2  1  0.25008600  0.74995700  0.99995400  1
  Cr  Cr3  1  0.75002400  0.74997000  0.49986600  1
  O  O0  1  0.36968500  0.60023900  0.23063200  1
  O  O1  1  0.88996500  0.12986600  0.24000300  1
  O  O2  1  0.62952600  0.86427200  0.23507500  1
  O  O3  1  0.11892900  0.35928400  0.24054000  1
  O  O4  1  0.38108500  0.14072400  0.75967200  1
  O  O5  1  0.87051300  0.63573300  0.76469200  1
  O  O6  1  0.60998800  0.37014400  0.76013500  1
  O  O7  1  0.13030100  0.89979800  0.76937300  1
  O  O8  1  0.35875400  0.13114000  0.24723100  1
  O  O9  1  0.85549000  0.62519700  0.23573800  1
  O  O10  1  0.38911400  0.62531400  0.76996200  1
  O  O11  1  0.88388900  0.13110500  0.77240600  1
  O  O12  1  0.61607700  0.36894000  0.22770000  1
  O  O13  1  0.11084900  0.87472200  0.23007800  1
  O  O14  1  0.64451900  0.87468900  0.76384800  1
  O  O15  1  0.14124800  0.36889000  0.75299200  1
loop_
_geom_bond_atom_site_label_1
_geom_bond_atom_site_label_2
_geom_bond_distance
_geom_bond_site_symmetry_2
Li0 O7 2.046425 1_554
Li0 O14 2.102274 1_554
Li0 O2 2.134939 1_555
Li0 O1 2.178903 1_565
Li0 O8 2.228832 1_565
Li0 O4 2.243530 1_564
Li1 O0 2.046088 1_656
Li1 O9 2.100521 1_556
Li1 O5 2.135969 1_555
Li1 O6 2.179439 1_555
Li1 O15 2.227324 1_655
Li1 O3 2.244251 1_656
Li2 O7 2.045086 1_655
Li2 O13 2.103239 1_655
Li2 O2 2.133486 1_555
Li2 O1 2.178979 1_565
Li2 O11 2.228209 1_565
Li2 O4 2.244074 1_665
Li3 O0 2.044376 1_555
Li3 O10 2.103936 1_555
Li3 O5 2.134110 1_555
Li3 O6 2.180403 1_555
Li3 O12 2.227185 1_555
Li3 O3 2.243455 1_555
Li4 O14 2.185641 1_555
Li4 O13 2.186396 1_555
Li4 O11 2.197568 1_565
Li4 O8 2.198335 1_565
Li4 O4 2.204989 1_565
Li4 O2 2.229362 1_555
Li5 O10 2.186483 1_655
Li5 O9 2.186820 1_555
Li5 O12 2.197409 1_555
Li5 O15 2.198610 1_655
Li5 O3 2.204990 1_655
Li5 O5 2.227407 1_555
Li6 O14 2.209229 1_555
Li6 O13 2.209679 1_555
Li6 O10 2.210090 1_555
Li6 O9 2.210123 1_455
Li6 O0 2.282050 1_555
Li6 O7 2.283172 1_555
Li7 O11 2.171532 1_555
Li7 O15 2.171888 1_655
Li7 O8 2.171940 1_555
Li7 O12 2.172529 1_555
Li7 O1 2.196577 1_555
Li7 O6 2.196667 1_555
Cr0 O11 2.028425 1_554
Cr0 O12 2.028585 1_555
Cr0 O3 2.037766 1_655
Cr0 O4 2.038019 1_554
Cr0 O1 2.047029 1_555
Cr0 O6 2.047388 1_554
Cr1 O15 2.028600 1_555
Cr1 O8 2.028772 1_555
Cr1 O4 2.037278 1_555
Cr1 O3 2.037558 1_555
Cr1 O6 2.046962 1_555
Cr1 O1 2.047216 1_455
Cr2 O10 2.085558 1_555
Cr2 O13 2.087540 1_556
Cr2 O2 2.102858 1_556
Cr2 O5 2.103096 1_455
Cr2 O0 2.262722 1_556
Cr2 O7 2.263480 1_555
Cr3 O14 2.087865 1_555
Cr3 O9 2.088566 1_555
Cr3 O5 2.100788 1_555
Cr3 O2 2.101160 1_555
Cr3 O0 2.262730 1_555
Cr3 O7 2.263012 1_655
O0 Ti3 1.854404 1_555
O1 Ti2 2.123022 1_644
O2 Ti1 1.983043 1_554
O3 Ti0 2.030939 1_555
O4 Ti0 2.031540 1_556
O5 Ti1 1.982467 1_555
O6 Ti3 2.121986 1_556
O7 Ti2 1.853933 1_555
O8 Ti0 2.062008 1_555
O8 Ti2 2.067053 1_544
O9 Ti1 2.064506 1_554
O9 Ti3 2.069995 1_555
O10 Ti1 2.064686 1_555
O10 Ti3 2.069570 1_556
O11 Ti0 2.063000 1_656
O11 Ti2 2.066154 1_645
O12 Ti0 2.062980 1_555
O12 Ti3 2.066455 1_555
O13 Ti1 2.065143 1_454
O13 Ti2 2.069781 1_554
O14 Ti1 2.063863 1_555
O14 Ti2 2.070257 1_655
O15 Ti0 2.062484 1_556
O15 Ti3 2.066680 1_556
