# generated using pymatgen
data_Ba2Li(CuO2)3
_symmetry_space_group_name_H-M   'P 1'
_cell_length_a   9.17094443
_cell_length_b   8.24857138
_cell_length_c   7.12783779
_cell_angle_alpha   72.81694445
_cell_angle_beta   59.23575949
_cell_angle_gamma   47.94729606
_symmetry_Int_Tables_number   1
_chemical_formula_structural   Ba2Li(CuO2)3
_chemical_formula_sum   'Ba4 Li2 Cu6 O12'
_cell_volume   343.08943444
_cell_formula_units_Z   2
loop_
 _symmetry_equiv_pos_site_id
 _symmetry_equiv_pos_as_xyz
  1  'x, y, z'
loop_
 _atom_site_type_symbol
 _atom_site_label
 _atom_site_symmetry_multiplicity
 _atom_site_fract_x
 _atom_site_fract_y
 _atom_site_fract_z
 _atom_site_occupancy
  Ba  Ba0  1  0.75000000  0.75000000  0.75000000  1
  Ba  Ba1  1  0.25000000  0.25000000  0.25000000  1
  Ba  Ba2  1  0.23022000  0.76978000  0.23022000  1
  Ba  Ba3  1  0.76978000  0.23022000  0.76978000  1
  Li  Li0  1  0.66578700  0.66578700  0.33421300  1
  Li  Li1  1  0.33421300  0.33421300  0.66578700  1
  Cu  Cu0  1  0.99586300  0.31006700  0.00413700  1
  Cu  Cu1  1  0.68993300  0.00413700  0.31006700  1
  Cu  Cu2  1  0.00413700  0.68993300  0.99586300  1
  Cu  Cu3  1  0.31006700  0.99586300  0.68993300  1
  Cu  Cu4  1  0.67910100  0.32089900  0.32089900  1
  Cu  Cu5  1  0.32089900  0.67910100  0.67910100  1
  O  O0  1  0.89724200  0.29524500  0.32267200  1
  O  O1  1  0.48484100  0.32267200  0.29524500  1
  O  O2  1  0.67732800  0.51515900  0.10275800  1
  O  O3  1  0.70475500  0.10275800  0.51515900  1
  O  O4  1  0.10275800  0.70475500  0.67732800  1
  O  O5  1  0.51515900  0.67732800  0.70475500  1
  O  O6  1  0.92162100  0.69371700  0.30628300  1
  O  O7  1  0.07837900  0.30628300  0.69371700  1
  O  O8  1  0.32267200  0.48484100  0.89724200  1
  O  O9  1  0.29524500  0.89724200  0.48484100  1
  O  O10  1  0.69371700  0.92162100  0.07837900  1
  O  O11  1  0.30628300  0.07837900  0.92162100  1
loop_
_geom_bond_atom_site_label_1
_geom_bond_atom_site_label_2
_geom_bond_distance
_geom_bond_site_symmetry_2
Ba0 O10 2.737138 1_556
Ba0 O7 2.737138 1_655
Ba0 O11 2.737138 1_565
Ba0 O6 2.737138 1_555
Ba0 O4 2.766963 1_655
Ba0 O3 2.766963 1_565
Ba0 O2 2.766963 1_556
Ba0 O5 2.766963 1_555
Ba1 O7 2.737138 1_555
Ba1 O10 2.737138 1_545
Ba1 O6 2.737138 1_455
Ba1 O11 2.737138 1_554
Ba1 O1 2.766963 1_555
Ba1 O8 2.766963 1_554
Ba1 O9 2.766963 1_545
Ba1 O0 2.766963 1_455
Ba2 O2 2.798111 1_555
Ba2 O9 2.798111 1_555
Ba2 O4 2.798111 1_555
Ba2 O1 2.798111 1_555
Ba2 O11 3.050464 1_564
Ba2 O6 3.050464 1_455
Ba2 O3 3.231684 1_465
Ba2 O0 3.231684 1_465
Ba2 O5 3.231684 1_554
Ba2 O8 3.231684 1_554
Ba3 O5 2.798111 1_555
Ba3 O3 2.798111 1_555
Ba3 O0 2.798111 1_555
Ba3 O8 2.798111 1_555
Ba3 O7 3.050464 1_655
Ba3 O10 3.050464 1_546
Ba3 O2 3.231684 1_556
Ba3 O1 3.231684 1_556
Ba3 O4 3.231684 1_645
Ba3 O9 3.231684 1_645
Li0 O0 2.265611 1_555
Li0 O5 2.265611 1_555
Li0 O9 2.265611 1_555
Li0 O2 2.265611 1_555
Li0 O6 2.411788 1_555
Li0 O10 2.411788 1_555
Li1 O8 2.265611 1_555
Li1 O3 2.265611 1_555
Li1 O1 2.265611 1_555
Li1 O4 2.265611 1_555
Li1 O11 2.411788 1_555
Li1 O7 2.411788 1_555
Cu0 O11 1.940509 1_654
Cu0 O7 1.940509 1_654
Cu0 O0 1.967570 1_555
Cu0 O2 1.967570 1_555
Cu1 O6 1.940509 1_545
Cu1 O10 1.940509 1_545
Cu1 O3 1.967570 1_555
Cu1 O1 1.967570 1_555
Cu2 O6 1.940509 1_456
Cu2 O10 1.940509 1_456
Cu2 O8 1.967570 1_555
Cu2 O4 1.967570 1_555
Cu3 O11 1.940509 1_565
Cu3 O7 1.940509 1_565
Cu3 O5 1.967570 1_555
Cu3 O9 1.967570 1_555
Cu4 O2 1.871990 1_555
Cu4 O3 1.871990 1_555
Cu4 O0 1.871990 1_555
Cu4 O1 1.871990 1_555
Cu5 O5 1.871990 1_555
Cu5 O4 1.871990 1_555
Cu5 O9 1.871990 1_555
Cu5 O8 1.871990 1_555
