# generated using pymatgen
data_Rb4Mn(MoO4)3
_symmetry_space_group_name_H-M   'P 1'
_cell_length_a   6.22258862
_cell_length_b   6.22258862
_cell_length_c   24.22448700
_cell_angle_alpha   90.00000000
_cell_angle_beta   90.00000000
_cell_angle_gamma   120.00000658
_symmetry_Int_Tables_number   1
_chemical_formula_structural   Rb4Mn(MoO4)3
_chemical_formula_sum   'Rb8 Mn2 Mo6 O24'
_cell_volume   812.32042326
_cell_formula_units_Z   2
loop_
 _symmetry_equiv_pos_site_id
 _symmetry_equiv_pos_as_xyz
  1  'x, y, z'
loop_
 _atom_site_type_symbol
 _atom_site_label
 _atom_site_symmetry_multiplicity
 _atom_site_fract_x
 _atom_site_fract_y
 _atom_site_fract_z
 _atom_site_occupancy
  Rb  Rb0  1  0.66666700  0.33333300  0.97055100  1
  Rb  Rb1  1  0.66666700  0.33333300  0.52566100  1
  Rb  Rb2  1  0.33333300  0.66666700  0.47055100  1
  Rb  Rb3  1  0.33333300  0.66666700  0.02566100  1
  Rb  Rb4  1  0.33333300  0.66666700  0.84537600  1
  Rb  Rb5  1  0.33333300  0.66666700  0.65750900  1
  Rb  Rb6  1  0.66666700  0.33333300  0.34537600  1
  Rb  Rb7  1  0.66666700  0.33333300  0.15750900  1
  Mn  Mn0  1  0.00000000  0.00000000  0.74992500  1
  Mn  Mn1  1  0.00000000  0.00000000  0.24992500  1
  Mo  Mo0  1  0.00000000  0.00000000  0.90996300  1
  Mo  Mo1  1  0.00000000  0.00000000  0.58998400  1
  Mo  Mo2  1  0.00000000  0.00000000  0.40996300  1
  Mo  Mo3  1  0.00000000  0.00000000  0.08998400  1
  Mo  Mo4  1  0.66666700  0.33333300  0.77225400  1
  Mo  Mo5  1  0.33333300  0.66666700  0.27225400  1
  O  O0  1  0.00000000  0.00000000  0.83444100  1
  O  O1  1  0.00000000  0.00000000  0.66519300  1
  O  O2  1  0.00000000  0.00000000  0.33444100  1
  O  O3  1  0.00000000  0.00000000  0.16519300  1
  O  O4  1  0.68936500  0.81726100  0.93507200  1
  O  O5  1  0.18273900  0.87210400  0.93507200  1
  O  O6  1  0.12789600  0.31063500  0.93507200  1
  O  O7  1  0.68740800  0.81359800  0.56614000  1
  O  O8  1  0.18640200  0.87381000  0.56614000  1
  O  O9  1  0.12619000  0.31259200  0.56614000  1
  O  O10  1  0.31063500  0.12789600  0.43507200  1
  O  O11  1  0.81726100  0.68936500  0.43507200  1
  O  O12  1  0.87210400  0.18273900  0.43507200  1
  O  O13  1  0.31259200  0.12619000  0.06614000  1
  O  O14  1  0.81359800  0.68740800  0.06614000  1
  O  O15  1  0.87381000  0.18640200  0.06614000  1
  O  O16  1  0.66666700  0.33333300  0.84499600  1
  O  O17  1  0.33333300  0.66666700  0.34499600  1
  O  O18  1  0.68346000  0.61916200  0.74867400  1
  O  O19  1  0.38083800  0.06429800  0.74867400  1
  O  O20  1  0.93570200  0.31654000  0.74867400  1
  O  O21  1  0.31654000  0.93570200  0.24867400  1
  O  O22  1  0.61916200  0.68346000  0.24867400  1
  O  O23  1  0.06429800  0.38083800  0.24867400  1
loop_
_geom_bond_atom_site_label_1
_geom_bond_atom_site_label_2
_geom_bond_distance
_geom_bond_site_symmetry_2
Mn0 O0 2.047357 1_555
Mn0 O1 2.052589 1_555
Mn0 O18 2.197450 1_445
Mn0 O19 2.197450 1_555
Mn0 O20 2.197450 1_455
Mn1 O2 2.047357 1_555
Mn1 O3 2.052589 1_555
Mn1 O22 2.197450 1_445
Mn1 O23 2.197450 1_555
Mn1 O21 2.197450 1_545
Mo0 O4 1.789223 1_445
Mo0 O6 1.789223 1_555
Mo0 O5 1.789223 1_545
Mo0 O0 1.829482 1_555
Mo1 O7 1.790636 1_445
Mo1 O9 1.790636 1_555
Mo1 O8 1.790637 1_545
Mo1 O1 1.821899 1_555
Mo2 O11 1.789223 1_445
Mo2 O10 1.789223 1_555
Mo2 O12 1.789223 1_455
Mo2 O2 1.829482 1_555
Mo3 O14 1.790636 1_445
Mo3 O13 1.790636 1_555
Mo3 O15 1.790637 1_455
Mo3 O3 1.821899 1_555
Mo4 O16 1.762138 1_555
Mo4 O20 1.820640 1_555
Mo4 O19 1.820643 1_555
Mo4 O18 1.820646 1_555
Mo5 O17 1.762138 1_555
Mo5 O21 1.820640 1_555
Mo5 O23 1.820643 1_555
Mo5 O22 1.820646 1_555
O4 Rb4 2.903701 1_555
O4 Rb3 2.919924 1_556
O4 Rb0 3.066128 1_555
O4 Rb0 3.394799 1_565
O5 Rb4 2.903698 1_555
O5 Rb3 2.919920 1_556
O5 Rb0 3.066125 1_565
O5 Rb0 3.394802 1_455
O6 Rb4 2.903701 1_555
O6 Rb3 2.919924 1_556
O6 Rb0 3.066122 1_455
O6 Rb0 3.394805 1_555
O7 Rb5 2.928287 1_555
O7 Rb2 3.006302 1_555
O7 Rb1 3.086030 1_555
O7 Rb1 3.443107 1_565
O8 Rb5 2.928284 1_555
O8 Rb2 3.006298 1_555
O8 Rb1 3.086027 1_565
O8 Rb1 3.443110 1_455
O9 Rb5 2.928287 1_555
O9 Rb2 3.006301 1_555
O9 Rb1 3.086024 1_455
O9 Rb1 3.443113 1_555
O10 Rb6 2.903701 1_555
O10 Rb1 2.919924 1_555
O10 Rb2 3.066122 1_545
O10 Rb2 3.394805 1_555
O11 Rb6 2.903701 1_555
O11 Rb1 2.919924 1_555
O11 Rb2 3.066128 1_555
O11 Rb2 3.394799 1_655
O12 Rb6 2.903698 1_555
O12 Rb1 2.919920 1_555
O12 Rb2 3.066125 1_655
O12 Rb2 3.394802 1_545
O13 Rb7 2.928287 1_555
O13 Rb0 3.006301 1_554
O13 Rb3 3.086024 1_545
O13 Rb3 3.443113 1_555
O14 Rb7 2.928287 1_555
O14 Rb0 3.006302 1_554
O14 Rb3 3.086030 1_555
O14 Rb3 3.443107 1_655
O15 Rb7 2.928284 1_555
O15 Rb0 3.006298 1_554
O15 Rb3 3.086027 1_655
O15 Rb3 3.443110 1_545
O16 Rb0 3.041505 1_555
O17 Rb2 3.041505 1_555
O18 Rb5 3.217961 1_555
O18 Rb4 3.311450 1_555
O19 Rb5 3.217957 1_545
O19 Rb4 3.311446 1_545
O20 Rb5 3.217958 1_655
O20 Rb4 3.311447 1_655
O21 Rb7 3.217958 1_565
O21 Rb6 3.311447 1_565
O22 Rb7 3.217961 1_555
O22 Rb6 3.311450 1_555
O23 Rb7 3.217957 1_455
O23 Rb6 3.311446 1_455
