# generated using pymatgen
data_ScPaO4
_symmetry_space_group_name_H-M   'P 1'
_cell_length_a   6.41825429
_cell_length_b   6.41825429
_cell_length_c   6.41825429
_cell_angle_alpha   132.05797470
_cell_angle_beta   132.05797470
_cell_angle_gamma   70.13747756
_symmetry_Int_Tables_number   1
_chemical_formula_structural   ScPaO4
_chemical_formula_sum   'Sc2 Pa2 O8'
_cell_volume   142.87258509
_cell_formula_units_Z   2
loop_
 _symmetry_equiv_pos_site_id
 _symmetry_equiv_pos_as_xyz
  1  'x, y, z'
loop_
 _atom_site_type_symbol
 _atom_site_label
 _atom_site_symmetry_multiplicity
 _atom_site_fract_x
 _atom_site_fract_y
 _atom_site_fract_z
 _atom_site_occupancy
  Sc  Sc0  1  -0.00000000  0.00000000  0.00000000  1
  Sc  Sc1  1  0.75000000  0.25000000  0.50000000  1
  Pa  Pa0  1  0.50000000  0.50000000  0.00000000  1
  Pa  Pa1  1  0.25000000  0.75000000  0.50000000  1
  O  O0  1  0.37500000  0.37286751  0.49786751  1
  O  O1  1  0.87500000  0.87713249  0.50213249  1
  O  O2  1  0.12286751  0.12500000  0.49786751  1
  O  O3  1  0.62713249  0.12500000  0.00213249  1
  O  O4  1  0.87500000  0.37286751  0.99786751  1
  O  O5  1  0.62713249  0.62500000  0.50213249  1
  O  O6  1  0.12286751  0.62500000  0.99786751  1
  O  O7  1  0.37500000  0.87713249  0.00213249  1
loop_
_geom_bond_atom_site_label_1
_geom_bond_atom_site_label_2
_geom_bond_distance
_geom_bond_site_symmetry_2
O0 Sc0 2.257329 1_555
O0 Sc1 2.257329 1_555
O0 Pa0 2.270140 1_556
O0 Pa1 2.270140 1_555
O1 Sc0 2.257329 1_666
O1 Sc1 2.257329 1_565
O1 Pa1 2.270140 1_655
O1 Pa0 2.270140 1_555
O2 Sc0 2.257329 1_555
O2 Sc1 2.257329 1_455
O2 Pa0 2.270140 1_556
O2 Pa1 2.270140 1_545
O3 Sc0 2.257329 1_655
O3 Sc1 2.257329 1_555
O3 Pa0 2.270140 1_555
O3 Pa1 2.270140 1_544
O4 Sc0 2.257329 1_656
O4 Sc1 2.257329 1_555
O4 Pa1 2.270140 1_656
O4 Pa0 2.270140 1_556
O5 Sc1 2.257329 1_555
O5 Sc0 2.257329 1_666
O5 Pa0 2.270140 1_555
O5 Pa1 2.270140 1_555
O6 Sc1 2.257329 1_455
O6 Sc0 2.257329 1_566
O6 Pa1 2.270140 1_556
O6 Pa0 2.270140 1_556
O7 Sc1 2.257329 1_565
O7 Sc0 2.257329 1_565
O7 Pa1 2.270140 1_554
O7 Pa0 2.270140 1_555
