# generated using pymatgen
data_Ac3Y
_symmetry_space_group_name_H-M   'P 1'
_cell_length_a   7.92218327
_cell_length_b   7.92218531
_cell_length_c   6.29752667
_cell_angle_alpha   90.00000000
_cell_angle_beta   90.00000000
_cell_angle_gamma   119.99999081
_symmetry_Int_Tables_number   1
_chemical_formula_structural   Ac3Y
_chemical_formula_sum   'Ac6 Y2'
_cell_volume   342.28712938
_cell_formula_units_Z   2
loop_
 _symmetry_equiv_pos_site_id
 _symmetry_equiv_pos_as_xyz
  1  'x, y, z'
loop_
 _atom_site_type_symbol
 _atom_site_label
 _atom_site_symmetry_multiplicity
 _atom_site_fract_x
 _atom_site_fract_y
 _atom_site_fract_z
 _atom_site_occupancy
  Ac  Ac0  1  0.16942791  0.33885681  0.25000000  1
  Ac  Ac1  1  0.66114319  0.83057109  0.25000000  1
  Ac  Ac2  1  0.16942791  0.83057109  0.25000000  1
  Ac  Ac3  1  0.83057209  0.66114419  0.75000000  1
  Ac  Ac4  1  0.33885581  0.16942791  0.75000000  1
  Ac  Ac5  1  0.83057209  0.16942891  0.75000000  1
  Y  Y0  1  0.33333300  0.66666700  0.75000000  1
  Y  Y1  1  0.66666700  0.33333300  0.25000000  1
loop_
_geom_bond_atom_site_label_1
_geom_bond_atom_site_label_2
_geom_bond_distance
_geom_bond_site_symmetry_2
Ac0 Y0 3.869485 1_555
Ac0 Y0 3.869485 1_554
Ac0 Ac2 3.895452 1_555
Ac0 Ac1 3.895456 1_555
Ac0 Ac5 3.914017 1_455
Ac0 Ac5 3.914017 1_454
Ac0 Ac4 3.914021 1_554
Ac0 Ac4 3.914021 1_555
Ac0 Y1 3.961265 1_455
Ac0 Y1 3.961281 1_555
Ac0 Ac1 4.026730 1_445
Ac0 Ac2 4.026734 1_545
Ac1 Y0 3.869485 1_555
Ac1 Y0 3.869485 1_554
Ac1 Ac2 3.895459 1_555
Ac1 Ac3 3.914017 1_554
Ac1 Ac3 3.914017 1_555
Ac1 Ac5 3.914025 1_565
Ac1 Ac5 3.914025 1_564
Ac1 Y1 3.961274 1_555
Ac1 Y1 3.961274 1_565
Ac1 Ac2 4.026725 1_655
Ac2 Y0 3.869481 1_554
Ac2 Y0 3.869481 1_555
Ac2 Ac3 3.914017 1_454
Ac2 Ac3 3.914017 1_455
Ac2 Ac4 3.914021 1_565
Ac2 Ac4 3.914021 1_564
Ac2 Y1 3.961270 1_455
Ac2 Y1 3.961278 1_565
Ac3 Y1 3.869489 1_555
Ac3 Y1 3.869489 1_556
Ac3 Ac5 3.895460 1_555
Ac3 Ac4 3.895468 1_555
Ac3 Y0 3.961269 1_655
Ac3 Y0 3.961277 1_555
Ac3 Ac4 4.026718 1_665
Ac3 Ac5 4.026726 1_565
Ac4 Y1 3.869489 1_556
Ac4 Y1 3.869489 1_555
Ac4 Ac5 3.895463 1_555
Ac4 Y0 3.961270 1_545
Ac4 Y0 3.961278 1_555
Ac4 Ac5 4.026721 1_455
Ac5 Y1 3.869481 1_555
Ac5 Y1 3.869481 1_556
Ac5 Y0 3.961270 1_655
Ac5 Y0 3.961278 1_545
