# generated using pymatgen
data_Cs2Mo5(P3O11)3
_symmetry_space_group_name_H-M   'P 1'
_cell_length_a   6.59940800
_cell_length_b   14.78869990
_cell_length_c   16.01305209
_cell_angle_alpha   90.13795402
_cell_angle_beta   98.14048467
_cell_angle_gamma   90.72223025
_symmetry_Int_Tables_number   1
_chemical_formula_structural   Cs2Mo5(P3O11)3
_chemical_formula_sum   'Cs4 Mo10 P18 O66'
_cell_volume   1546.93647465
_cell_formula_units_Z   2
loop_
 _symmetry_equiv_pos_site_id
 _symmetry_equiv_pos_as_xyz
  1  'x, y, z'
loop_
 _atom_site_type_symbol
 _atom_site_label
 _atom_site_symmetry_multiplicity
 _atom_site_fract_x
 _atom_site_fract_y
 _atom_site_fract_z
 _atom_site_occupancy
  Cs  Cs0  1  0.36636200  0.24074800  0.44252000  1
  Cs  Cs1  1  0.63363800  0.75925200  0.55748000  1
  Cs  Cs2  1  0.00000000  0.50000000  0.00000000  1
  Cs  Cs3  1  0.00000000  0.00000000  0.00000000  1
  Mo  Mo0  1  0.87631300  0.37171800  0.59437400  1
  Mo  Mo1  1  0.12368700  0.62828200  0.40562600  1
  Mo  Mo2  1  0.47354900  0.38524100  0.86065700  1
  Mo  Mo3  1  0.52645100  0.61475900  0.13934300  1
  Mo  Mo4  1  0.86577600  0.11435000  0.60337600  1
  Mo  Mo5  1  0.13422400  0.88565000  0.39662400  1
  Mo  Mo6  1  0.47318600  0.13029900  0.87250800  1
  Mo  Mo7  1  0.52681400  0.86970100  0.12749200  1
  Mo  Mo8  1  0.82173800  0.25598000  0.23367200  1
  Mo  Mo9  1  0.17826200  0.74402000  0.76632800  1
  P  P0  1  0.95949800  0.35944400  0.80963100  1
  P  P1  1  0.04050200  0.64055600  0.19036900  1
  P  P2  1  0.37381000  0.08122200  0.65227700  1
  P  P3  1  0.62619000  0.91877800  0.34772300  1
  P  P4  1  0.95898100  0.14940800  0.81793900  1
  P  P5  1  0.04101900  0.85059200  0.18206100  1
  P  P6  1  0.87683100  0.08365900  0.38974400  1
  P  P7  1  0.12316900  0.91634100  0.61025600  1
  P  P8  1  0.38124500  0.40909800  0.63772000  1
  P  P9  1  0.61875500  0.59090200  0.36228000  1
  P  P10  1  0.87857300  0.42627900  0.39051500  1
  P  P11  1  0.12142700  0.57372100  0.60948500  1
  P  P12  1  0.33231100  0.24801400  0.18212200  1
  P  P13  1  0.66768900  0.75198600  0.81787800  1
  P  P14  1  0.54078600  0.10922700  0.09755400  1
  P  P15  1  0.45921400  0.89077300  0.90244600  1
  P  P16  1  0.46275700  0.61341700  0.91012800  1
  P  P17  1  0.53724300  0.38658300  0.08987200  1
  O  O0  1  0.93807100  0.50934100  0.58500400  1
  O  O1  1  0.06192900  0.49065900  0.41499600  1
  O  O2  1  0.83779100  0.36610600  0.46470900  1
  O  O3  1  0.16220900  0.63389400  0.53529100  1
  O  O4  1  0.19372400  0.35520900  0.59615000  1
  O  O5  1  0.80627600  0.64479100  0.40385000  1
  O  O6  1  0.55672400  0.39424400  0.58708100  1
  O  O7  1  0.44327600  0.60575600  0.41291900  1
  O  O8  1  0.91296100  0.39770200  0.72149500  1
  O  O9  1  0.08703900  0.60229800  0.27850500  1
  O  O10  1  0.83875700  0.24347200  0.60348700  1
  O  O11  1  0.16124300  0.75652800  0.39651300  1
  O  O12  1  0.79204900  0.37565100  0.86424700  1
  O  O13  1  0.20795100  0.62434900  0.13575300  1
  O  O14  1  0.50975900  0.52473700  0.86702900  1
  O  O15  1  0.49024100  0.47526300  0.13297100  1
  O  O16  1  0.15905600  0.39683300  0.85870500  1
  O  O17  1  0.84094400  0.60316700  0.14129500  1
  O  O18  1  0.51491100  0.39531900  0.99458000  1
  O  O19  1  0.48508900  0.60468100  0.00542000  1
  O  O20  1  0.45706200  0.25729900  0.86274400  1
  O  O21  1  0.54293800  0.74270100  0.13725600  1
  O  O22  1  0.43715400  0.38928400  0.73159300  1
  O  O23  1  0.56284600  0.61071600  0.26840700  1
  O  O24  1  0.18632800  0.12816900  0.60358100  1
  O  O25  1  0.81367200  0.87183100  0.39641900  1
  O  O26  1  0.80777400  0.11476200  0.47192100  1
  O  O27  1  0.19222600  0.88523800  0.52807900  1
  O  O28  1  0.55288300  0.08859600  0.60049300  1
  O  O29  1  0.44711700  0.91140400  0.39950700  1
  O  O30  1  0.91549100  0.10056200  0.73440200  1
  O  O31  1  0.08450900  0.89943800  0.26559800  1
  O  O32  1  0.93337600  0.97668600  0.59813700  1
  O  O33  1  0.06662400  0.02331400  0.40186300  1
  O  O34  1  0.49764400  0.99223600  0.89445800  1
  O  O35  1  0.50235600  0.00776400  0.10554200  1
  O  O36  1  0.78970300  0.13756100  0.87344900  1
  O  O37  1  0.21029700  0.86243900  0.12655100  1
  O  O38  1  0.43289500  0.11358400  0.74244100  1
  O  O39  1  0.56710500  0.88641600  0.25755900  1
  O  O40  1  0.15811700  0.11962600  0.87191400  1
  O  O41  1  0.84188300  0.88037400  0.12808600  1
  O  O42  1  0.51946200  0.13978000  0.00612300  1
  O  O43  1  0.48053800  0.86022000  0.99387700  1
  O  O44  1  0.90827500  0.16413000  0.33462600  1
  O  O45  1  0.09172500  0.83587000  0.66537400  1
  O  O46  1  0.50781700  0.26046300  0.25353100  1
  O  O47  1  0.49218300  0.73953700  0.74646900  1
  O  O48  1  0.90485200  0.36969100  0.31436400  1
  O  O49  1  0.09514800  0.63030900  0.68563600  1
  O  O50  1  0.12717500  0.25349700  0.20907300  1
  O  O51  1  0.87282500  0.74650300  0.79092700  1
  O  O52  1  0.73617700  0.14260500  0.15047000  1
  O  O53  1  0.26382300  0.85739500  0.84953000  1
  O  O54  1  0.26191300  0.65498500  0.87181600  1
  O  O55  1  0.73808700  0.34501500  0.12818400  1
  O  O56  1  0.31572200  0.97514000  0.65847500  1
  O  O57  1  0.68427800  0.02486000  0.34152500  1
  O  O58  1  0.34791800  0.31919800  0.10760300  1
  O  O59  1  0.65208200  0.68080200  0.89239700  1
  O  O60  1  0.98737500  0.25360600  0.79609800  1
  O  O61  1  0.01262500  0.74639400  0.20390200  1
  O  O62  1  0.34432000  0.15194400  0.13642000  1
  O  O63  1  0.65568000  0.84805600  0.86358000  1
  O  O64  1  0.32885700  0.51568200  0.63165300  1
  O  O65  1  0.67114300  0.48431800  0.36834700  1
loop_
_geom_bond_atom_site_label_1
_geom_bond_atom_site_label_2
_geom_bond_distance
_geom_bond_site_symmetry_2
Cs0 O46 3.303386 1_555
Cs0 O4 3.322303 1_555
Cs0 O6 3.342001 1_555
Cs0 O24 3.416688 1_555
Cs0 O44 3.439921 1_455
Cs0 O26 3.454216 1_555
Cs0 O28 3.491805 1_555
Cs0 O2 3.575019 1_555
Cs1 O47 3.303386 1_555
Cs1 O5 3.322303 1_555
Cs1 O7 3.342001 1_555
Cs1 O25 3.416688 1_555
Cs1 O45 3.439921 1_655
Cs1 O27 3.454216 1_555
Cs1 O29 3.491805 1_555
Cs1 O3 3.575019 1_555
Cs2 O12 3.010463 1_454
Cs2 O13 3.010463 1_555
Cs2 O16 3.040581 1_554
Cs2 O17 3.040581 1_455
Cs3 O41 3.000409 1_445
Cs3 O40 3.000409 1_554
Cs3 O36 3.076651 1_454
Cs3 O37 3.076651 1_545
Mo0 O10 1.918204 1_555
Mo0 O8 2.050432 1_555
Mo0 O2 2.057140 1_555
Mo0 O0 2.080578 1_555
Mo0 O4 2.108161 1_655
Mo0 O6 2.126277 1_555
Mo1 O11 1.918204 1_555
Mo1 O9 2.050432 1_555
Mo1 O3 2.057140 1_555
Mo1 O1 2.080578 1_555
Mo1 O5 2.108161 1_455
Mo1 O7 2.126277 1_555
Mo2 O20 1.894499 1_555
Mo2 O22 2.047664 1_555
Mo2 O14 2.074365 1_555
Mo2 O16 2.080518 1_555
Mo2 O12 2.101139 1_555
Mo2 O18 2.127752 1_555
Mo3 O21 1.894499 1_555
Mo3 O23 2.047664 1_555
Mo3 O15 2.074365 1_555
Mo3 O17 2.080518 1_555
Mo3 O13 2.101139 1_555
Mo3 O19 2.127752 1_555
Mo4 O10 1.920110 1_555
Mo4 O26 2.085544 1_555
Mo4 O30 2.088098 1_555
Mo4 O28 2.089050 1_555
Mo4 O32 2.093683 1_545
Mo4 O24 2.122275 1_655
Mo5 O11 1.920110 1_555
Mo5 O27 2.085544 1_555
Mo5 O31 2.088098 1_555
Mo5 O29 2.089050 1_555
Mo5 O33 2.093683 1_565
Mo5 O25 2.122275 1_455
Mo6 O20 1.888124 1_555
Mo6 O38 2.075756 1_555
Mo6 O34 2.077048 1_545
Mo6 O40 2.081942 1_555
Mo6 O36 2.088151 1_555
Mo6 O42 2.122068 1_556
Mo7 O21 1.888124 1_555
Mo7 O39 2.075756 1_555
Mo7 O35 2.077048 1_565
Mo7 O41 2.081942 1_555
Mo7 O37 2.088151 1_555
Mo7 O43 2.122068 1_554
Mo8 O50 2.108608 1_655
Mo8 O44 2.133835 1_555
Mo8 O48 2.136333 1_555
Mo8 O46 2.141814 1_555
Mo8 O55 2.157957 1_555
Mo8 O52 2.158112 1_555
Mo9 O51 2.108608 1_455
Mo9 O45 2.133835 1_555
Mo9 O49 2.136333 1_555
Mo9 O47 2.141814 1_555
Mo9 O54 2.157957 1_555
Mo9 O53 2.158112 1_555
O0 P11 1.535964 1_655
O1 P10 1.535964 1_455
O2 P10 1.538001 1_555
O3 P11 1.538001 1_555
O4 P8 1.532643 1_555
O5 P9 1.532643 1_555
O6 P8 1.522624 1_555
O7 P9 1.522624 1_555
O8 P0 1.513853 1_555
O9 P1 1.513853 1_555
O12 P0 1.524091 1_555
O13 P1 1.524091 1_555
O14 P16 1.535895 1_555
O15 P17 1.535895 1_555
O16 P0 1.531051 1_455
O17 P1 1.531051 1_655
O18 P17 1.518082 1_556
O19 P16 1.518082 1_554
O22 P8 1.526225 1_555
O23 P9 1.526225 1_555
O24 P2 1.540112 1_555
O25 P3 1.540112 1_555
O26 P6 1.524166 1_555
O27 P7 1.524166 1_555
O28 P2 1.539741 1_555
O29 P3 1.539741 1_555
O30 P4 1.508302 1_555
O31 P5 1.508302 1_555
O32 P7 1.537227 1_655
O33 P6 1.537227 1_455
O34 P15 1.527324 1_555
O35 P14 1.527324 1_555
O36 P4 1.531613 1_555
O37 P5 1.531613 1_555
O38 P2 1.515977 1_555
O39 P3 1.515977 1_555
O40 P4 1.537149 1_455
O41 P5 1.537149 1_655
O42 P14 1.521170 1_555
O43 P15 1.521170 1_555
O44 P6 1.512946 1_555
O45 P7 1.512946 1_555
O46 P12 1.517062 1_555
O47 P13 1.517062 1_555
O48 P10 1.508646 1_555
O49 P11 1.508646 1_555
O50 P12 1.481079 1_555
O51 P13 1.481079 1_555
O52 P14 1.515546 1_555
O53 P15 1.515546 1_555
O54 P16 1.517619 1_555
O55 P17 1.517619 1_555
O56 P2 1.616895 1_565
O56 P7 1.630379 1_555
O57 P3 1.616895 1_545
O57 P6 1.630379 1_555
O58 P12 1.606504 1_555
O58 P17 1.644756 1_555
O59 P13 1.606504 1_555
O59 P16 1.644756 1_555
O60 P4 1.595570 1_555
O60 P0 1.596118 1_555
O61 P5 1.595570 1_555
O61 P1 1.596118 1_555
O62 P12 1.604569 1_555
O62 P14 1.647654 1_555
O63 P13 1.604569 1_555
O63 P15 1.647654 1_555
O64 P8 1.618166 1_555
O64 P11 1.621766 1_555
O65 P9 1.618166 1_555
O65 P10 1.621766 1_555
