# generated using pymatgen
data_NaSmP2H4CO7
_symmetry_space_group_name_H-M   'P 1'
_cell_length_a   15.28634400
_cell_length_b   6.74606200
_cell_length_c   6.78712372
_cell_angle_alpha   88.89563828
_cell_angle_beta   90.00000000
_cell_angle_gamma   90.00000000
_symmetry_Int_Tables_number   1
_chemical_formula_structural   NaSmP2H4CO7
_chemical_formula_sum   'Na4 Sm4 P8 H16 C4 O28'
_cell_volume   699.77600123
_cell_formula_units_Z   4
loop_
 _symmetry_equiv_pos_site_id
 _symmetry_equiv_pos_as_xyz
  1  'x, y, z'
loop_
 _atom_site_type_symbol
 _atom_site_label
 _atom_site_symmetry_multiplicity
 _atom_site_fract_x
 _atom_site_fract_y
 _atom_site_fract_z
 _atom_site_occupancy
  Na  Na0  1  0.02733300  0.86510200  0.19613500  1
  Na  Na1  1  0.52733300  0.63489800  0.80386500  1
  Na  Na2  1  0.97266700  0.13489800  0.80386500  1
  Na  Na3  1  0.47266700  0.36510200  0.19613500  1
  Sm  Sm0  1  0.90037100  0.39864500  0.32606900  1
  Sm  Sm1  1  0.40037100  0.10135500  0.67393100  1
  Sm  Sm2  1  0.09962900  0.60135500  0.67393100  1
  Sm  Sm3  1  0.59962900  0.89864500  0.32606900  1
  P  P0  1  0.09521500  0.36748000  0.17929200  1
  P  P1  1  0.59521500  0.13252000  0.82070800  1
  P  P2  1  0.90478500  0.63252000  0.82070800  1
  P  P3  1  0.40478500  0.86748000  0.17929200  1
  P  P4  1  0.84000100  0.89394300  0.46874800  1
  P  P5  1  0.34000100  0.60605700  0.53125200  1
  P  P6  1  0.15999900  0.10605700  0.53125200  1
  P  P7  1  0.65999900  0.39394300  0.46874800  1
  H  H0  1  0.79792800  0.89050500  0.81249000  1
  H  H1  1  0.29792800  0.60949500  0.18751000  1
  H  H2  1  0.20207200  0.10949500  0.18751000  1
  H  H3  1  0.70207200  0.39050500  0.81249000  1
  H  H4  1  0.78937200  0.07121700  0.13283800  1
  H  H5  1  0.28937200  0.42878300  0.86716200  1
  H  H6  1  0.21062800  0.92878300  0.86716200  1
  H  H7  1  0.71062800  0.57121700  0.13283800  1
  H  H8  1  0.81134300  0.25639700  0.99238800  1
  H  H9  1  0.31134300  0.24360300  0.00761200  1
  H  H10  1  0.18865700  0.74360300  0.00761200  1
  H  H11  1  0.68865700  0.75639700  0.99238800  1
  H  H12  1  0.76130800  0.67681100  0.68446800  1
  H  H13  1  0.26130800  0.82318900  0.31553200  1
  H  H14  1  0.23869200  0.32318900  0.31553200  1
  H  H15  1  0.73869200  0.17681100  0.68446800  1
  C  C0  1  0.81724800  0.77609600  0.70755400  1
  C  C1  1  0.31724800  0.72390400  0.29244600  1
  C  C2  1  0.18275200  0.22390400  0.29244600  1
  C  C3  1  0.68275200  0.27609600  0.70755400  1
  O  O0  1  0.89872600  0.75225000  0.35455500  1
  O  O1  1  0.39872600  0.74775000  0.64544500  1
  O  O2  1  0.10127400  0.24775000  0.64544500  1
  O  O3  1  0.60127400  0.25225000  0.35455500  1
  O  O4  1  0.93928300  0.47605100  0.67254200  1
  O  O5  1  0.43928300  0.02394900  0.32745800  1
  O  O6  1  0.06071700  0.52394900  0.32745800  1
  O  O7  1  0.56071700  0.97605100  0.67254200  1
  O  O8  1  0.86578600  0.53122700  0.00442400  1
  O  O9  1  0.36578600  0.96877300  0.99557600  1
  O  O10  1  0.13421400  0.46877300  0.99557600  1
  O  O11  1  0.63421400  0.03122700  0.00442400  1
  O  O12  1  0.74993100  0.42793800  0.36924800  1
  O  O13  1  0.24993100  0.07206200  0.63075200  1
  O  O14  1  0.25006900  0.57206200  0.63075200  1
  O  O15  1  0.75006900  0.92793800  0.36924800  1
  O  O16  1  0.83743500  0.14681800  0.06959500  1
  O  O17  1  0.33743500  0.35318200  0.93040500  1
  O  O18  1  0.16256500  0.85318200  0.93040500  1
  O  O19  1  0.66256500  0.64681800  0.06959500  1
  O  O20  1  0.01690100  0.22847400  0.13834800  1
  O  O21  1  0.51690100  0.27152600  0.86165200  1
  O  O22  1  0.98309900  0.77152600  0.86165200  1
  O  O23  1  0.48309900  0.72847400  0.13834800  1
  O  O24  1  0.88655100  0.09331700  0.50583000  1
  O  O25  1  0.38655100  0.40668300  0.49417000  1
  O  O26  1  0.11344900  0.90668300  0.49417000  1
  O  O27  1  0.61344900  0.59331700  0.50583000  1
loop_
_geom_bond_atom_site_label_1
_geom_bond_atom_site_label_2
_geom_bond_distance
_geom_bond_site_symmetry_2
Na0 O0 2.359875 1_455
Na0 O26 2.434170 1_555
Na0 O22 2.462654 1_454
Na0 O20 2.480164 1_565
Na0 O6 2.504477 1_555
Na0 O18 2.745569 1_554
Na1 O1 2.359875 1_555
Na1 O27 2.434170 1_555
Na1 O23 2.462654 1_556
Na1 O21 2.480164 1_555
Na1 O7 2.504477 1_555
Na1 O19 2.745569 1_556
Na2 O2 2.359875 1_655
Na2 O24 2.434170 1_555
Na2 O20 2.462654 1_656
Na2 O22 2.480164 1_545
Na2 O4 2.504477 1_555
Na2 O16 2.745569 1_556
Na3 O3 2.359875 1_555
Na3 O25 2.434170 1_555
Na3 O21 2.462654 1_554
Na3 O23 2.480164 1_555
Na3 O5 2.504477 1_555
Na3 O17 2.745569 1_554
H4 O16 0.987781 1_555
H5 O17 0.987781 1_555
H6 O18 0.987781 1_555
H7 O19 0.987781 1_555
H8 O16 0.982444 1_556
H9 O17 0.982444 1_554
H10 O18 0.982444 1_554
H11 O19 0.982444 1_556
C0 H12 1.099287 1_555
C0 H0 1.100613 1_555
C0 P2 1.813790 1_555
C0 P4 1.824923 1_555
C1 H13 1.099287 1_555
C1 H1 1.100613 1_555
C1 P3 1.813790 1_555
C1 P5 1.824923 1_555
C2 H14 1.099287 1_555
C2 H2 1.100613 1_555
C2 P0 1.813790 1_555
C2 P6 1.824923 1_555
C3 H15 1.099287 1_555
C3 H3 1.100613 1_555
C3 P1 1.813790 1_555
C3 P7 1.824923 1_555
O0 P4 1.532574 1_555
O0 Sm0 2.397107 1_555
O1 P5 1.532574 1_555
O1 Sm1 2.397107 1_565
O2 P6 1.532574 1_555
O2 Sm2 2.397107 1_555
O3 P7 1.532574 1_555
O3 Sm3 2.397107 1_545
O4 P2 1.563481 1_555
O4 Sm0 2.490710 1_555
O4 Sm2 2.592847 1_655
O5 P3 1.563481 1_545
O5 Sm1 2.490710 1_555
O5 Sm3 2.592847 1_545
O6 P0 1.563481 1_555
O6 Sm2 2.490710 1_555
O6 Sm0 2.592847 1_455
O7 P1 1.563481 1_565
O7 Sm3 2.490710 1_555
O7 Sm1 2.592847 1_565
O8 P2 1.531097 1_554
O8 Sm0 2.402058 1_555
O9 P3 1.531097 1_556
O9 Sm1 2.402058 1_565
O10 P0 1.531097 1_556
O10 Sm2 2.402058 1_555
O11 P1 1.531097 1_554
O11 Sm3 2.402058 1_545
O12 P7 1.546792 1_555
O12 Sm0 2.327162 1_555
O13 P6 1.546792 1_555
O13 Sm1 2.327162 1_555
O14 P5 1.546792 1_555
O14 Sm2 2.327162 1_555
O15 P4 1.546792 1_555
O15 Sm3 2.327162 1_555
O16 Sm0 2.637370 1_555
O17 Sm1 2.637370 1_555
O18 Sm2 2.637370 1_555
O19 Sm3 2.637370 1_555
O20 P0 1.549117 1_555
O20 Sm0 2.484076 1_455
O21 P1 1.549117 1_555
O21 Sm1 2.484076 1_555
O22 P2 1.549117 1_555
O22 Sm2 2.484076 1_655
O23 P3 1.549117 1_555
O23 Sm3 2.484076 1_555
O24 P4 1.546523 1_545
O24 Sm0 2.383049 1_555
O25 P5 1.546523 1_555
O25 Sm1 2.383049 1_555
O26 P6 1.546523 1_565
O26 Sm2 2.383049 1_555
O27 P7 1.546523 1_555
O27 Sm3 2.383049 1_555
