# generated using pymatgen
data_CsNaSiO3
_symmetry_space_group_name_H-M   'P 1'
_cell_length_a   8.60276772
_cell_length_b   8.60276772
_cell_length_c   8.60276773
_cell_angle_alpha   90.91256042
_cell_angle_beta   90.91256042
_cell_angle_gamma   90.91255819
_symmetry_Int_Tables_number   1
_chemical_formula_structural   CsNaSiO3
_chemical_formula_sum   'Cs6 Na6 Si6 O18'
_cell_volume   636.42543975
_cell_formula_units_Z   6
loop_
 _symmetry_equiv_pos_site_id
 _symmetry_equiv_pos_as_xyz
  1  'x, y, z'
loop_
 _atom_site_type_symbol
 _atom_site_label
 _atom_site_symmetry_multiplicity
 _atom_site_fract_x
 _atom_site_fract_y
 _atom_site_fract_z
 _atom_site_occupancy
  Cs  Cs0  1  0.34165900  0.34165900  0.34165900  1
  Cs  Cs1  1  0.65942700  0.65942700  0.65942700  1
  Cs  Cs2  1  0.50300200  0.99934300  0.99934300  1
  Cs  Cs3  1  0.99934300  0.99934300  0.50300200  1
  Cs  Cs4  1  0.99934300  0.50300200  0.99934300  1
  Cs  Cs5  1  0.01589900  0.01589900  0.01589900  1
  Na  Na0  1  0.63093600  0.36914500  0.99989100  1
  Na  Na1  1  0.36914500  0.99989100  0.63093600  1
  Na  Na2  1  0.99989100  0.63093600  0.36914500  1
  Na  Na3  1  0.63093600  0.99989100  0.36914500  1
  Na  Na4  1  0.99989100  0.36914500  0.63093600  1
  Na  Na5  1  0.36914500  0.63093600  0.99989100  1
  Si  Si0  1  0.67222000  0.21000600  0.67222000  1
  Si  Si1  1  0.21000600  0.67222000  0.67222000  1
  Si  Si2  1  0.67222000  0.67222000  0.21000600  1
  Si  Si3  1  0.32786100  0.79012000  0.32786100  1
  Si  Si4  1  0.79012000  0.32786100  0.32786100  1
  Si  Si5  1  0.32786100  0.32786100  0.79012000  1
  O  O0  1  0.79901900  0.27455500  0.79901900  1
  O  O1  1  0.27455500  0.79901900  0.79901900  1
  O  O2  1  0.79901900  0.79901900  0.27455500  1
  O  O3  1  0.20099500  0.72596900  0.20099500  1
  O  O4  1  0.72596900  0.20099500  0.20099500  1
  O  O5  1  0.20099500  0.20099500  0.72596900  1
  O  O6  1  0.50007000  0.28771000  0.71266000  1
  O  O7  1  0.28771000  0.71266000  0.50007000  1
  O  O8  1  0.71266000  0.50007000  0.28771000  1
  O  O9  1  0.50007000  0.71266000  0.28771000  1
  O  O10  1  0.71266000  0.28771000  0.50007000  1
  O  O11  1  0.28771000  0.50007000  0.71266000  1
  O  O12  1  0.64714400  0.02382100  0.64714400  1
  O  O13  1  0.02382100  0.64714400  0.64714400  1
  O  O14  1  0.64714400  0.64714400  0.02382100  1
  O  O15  1  0.35170600  0.97667500  0.35170600  1
  O  O16  1  0.97667500  0.35170600  0.35170600  1
  O  O17  1  0.35170600  0.35170600  0.97667500  1
loop_
_geom_bond_atom_site_label_1
_geom_bond_atom_site_label_2
_geom_bond_distance
_geom_bond_site_symmetry_2
Cs0 O16 3.144963 1_455
Cs0 O15 3.144963 1_545
Cs0 O17 3.144963 1_554
Cs1 O12 3.141660 1_565
Cs1 O13 3.141660 1_655
Cs1 O14 3.141660 1_556
Cs2 O4 3.064346 1_566
Cs2 O1 3.080869 1_555
Cs2 O14 3.300589 1_556
Cs2 O12 3.300589 1_565
Cs2 O17 3.325248 1_565
Cs2 O15 3.325249 1_556
Cs3 O5 3.064346 1_665
Cs3 O2 3.080869 1_555
Cs3 O13 3.300589 1_655
Cs3 O12 3.300589 1_565
Cs3 O15 3.325248 1_655
Cs3 O16 3.325248 1_565
Cs4 O3 3.064346 1_656
Cs4 O0 3.080869 1_555
Cs4 O14 3.300589 1_556
Cs4 O13 3.300589 1_655
Cs4 O17 3.325248 1_655
Cs4 O16 3.325249 1_556
Cs5 O4 3.385907 1_455
Cs5 O3 3.385907 1_545
Cs5 O5 3.385907 1_554
Cs5 O0 3.473774 1_454
Cs5 O1 3.473774 1_544
Cs5 O2 3.473774 1_445
Na0 O14 2.398784 1_556
Na0 O17 2.409359 1_555
Na0 O0 2.410700 1_555
Na0 O4 2.413776 1_556
Na0 O6 2.774007 1_555
Na0 O8 2.779234 1_556
Na1 O12 2.398784 1_565
Na1 O15 2.409359 1_555
Na1 O1 2.410700 1_555
Na1 O5 2.413776 1_565
Na1 O7 2.774007 1_555
Na1 O6 2.779234 1_565
Na2 O13 2.398784 1_655
Na2 O16 2.409359 1_555
Na2 O2 2.410700 1_555
Na2 O3 2.413776 1_655
Na2 O8 2.774008 1_555
Na2 O7 2.779234 1_655
Na3 O12 2.398784 1_565
Na3 O15 2.409359 1_555
Na3 O2 2.410700 1_555
Na3 O4 2.413776 1_565
Na3 O9 2.774008 1_555
Na3 O10 2.779234 1_565
Na4 O13 2.398784 1_655
Na4 O16 2.409359 1_555
Na4 O0 2.410700 1_555
Na4 O5 2.413776 1_655
Na4 O10 2.774007 1_555
Na4 O11 2.779234 1_655
Na5 O14 2.398784 1_556
Na5 O17 2.409359 1_555
Na5 O1 2.410700 1_555
Na5 O3 2.413776 1_556
Na5 O11 2.774007 1_555
Na5 O9 2.779234 1_556
O0 Si0 1.616061 1_555
O1 Si1 1.616061 1_555
O2 Si2 1.616061 1_555
O3 Si3 1.615722 1_555
O4 Si4 1.615722 1_555
O5 Si5 1.615722 1_555
O6 Si5 1.672883 1_555
O6 Si0 1.673823 1_555
O7 Si3 1.672883 1_555
O7 Si1 1.673823 1_555
O8 Si4 1.672883 1_555
O8 Si2 1.673823 1_555
O9 Si3 1.672883 1_555
O9 Si2 1.673823 1_555
O10 Si4 1.672883 1_555
O10 Si0 1.673823 1_555
O11 Si5 1.672883 1_555
O11 Si1 1.673823 1_555
O12 Si0 1.623281 1_555
O13 Si1 1.623281 1_555
O14 Si2 1.623281 1_555
O15 Si3 1.624043 1_555
O16 Si4 1.624043 1_555
O17 Si5 1.624043 1_555
