# generated using pymatgen
data_NaCr(SO10)2
_symmetry_space_group_name_H-M   'P 1'
_cell_length_a   11.48701964
_cell_length_b   11.48701964
_cell_length_c   11.48701964
_cell_angle_alpha   90.00000000
_cell_angle_beta   90.00000000
_cell_angle_gamma   90.00000000
_symmetry_Int_Tables_number   1
_chemical_formula_structural   NaCr(SO10)2
_chemical_formula_sum   'Na4 Cr4 S8 O80'
_cell_volume   1515.73085288
_cell_formula_units_Z   4
loop_
 _symmetry_equiv_pos_site_id
 _symmetry_equiv_pos_as_xyz
  1  'x, y, z'
loop_
 _atom_site_type_symbol
 _atom_site_label
 _atom_site_symmetry_multiplicity
 _atom_site_fract_x
 _atom_site_fract_y
 _atom_site_fract_z
 _atom_site_occupancy
  Na  Na0  1  0.50000000  -0.00000000  -0.00000000  1
  Na  Na1  1  0.50000000  0.50000000  0.50000000  1
  Na  Na2  1  -0.00000000  -0.00000000  0.50000000  1
  Na  Na3  1  0.00000000  0.50000000  -0.00000000  1
  Cr  Cr0  1  0.50000000  0.50000000  -0.00000000  1
  Cr  Cr1  1  0.50000000  -0.00000000  0.50000000  1
  Cr  Cr2  1  -0.00000000  0.50000000  0.50000000  1
  Cr  Cr3  1  0.00000000  -0.00000000  -0.00000000  1
  S  S0  1  0.19157114  0.80842886  0.30842886  1
  S  S1  1  0.80842886  0.30842886  0.19157114  1
  S  S2  1  0.30842886  0.19157114  0.80842886  1
  S  S3  1  0.69157114  0.69157114  0.69157114  1
  S  S4  1  0.80842886  0.19157114  0.69157114  1
  S  S5  1  0.19157114  0.69157114  0.80842886  1
  S  S6  1  0.69157114  0.80842886  0.19157114  1
  S  S7  1  0.30842886  0.30842886  0.30842886  1
  O  O0  1  0.26441729  0.73558271  0.23558271  1
  O  O1  1  0.73558271  0.23558271  0.26441729  1
  O  O2  1  0.23558271  0.26441729  0.73558271  1
  O  O3  1  0.76441729  0.76441729  0.76441729  1
  O  O4  1  0.73558271  0.26441729  0.76441729  1
  O  O5  1  0.26441729  0.76441729  0.73558271  1
  O  O6  1  0.76441729  0.73558271  0.26441729  1
  O  O7  1  0.23558271  0.23558271  0.23558271  1
  O  O8  1  0.57026899  0.82374489  0.23801973  1
  O  O9  1  0.42973101  0.32374489  0.26198027  1
  O  O10  1  0.92973101  0.17625511  0.73801973  1
  O  O11  1  0.07026899  0.67625511  0.76198027  1
  O  O12  1  0.23801973  0.57026899  0.82374489  1
  O  O13  1  0.26198027  0.42973101  0.32374489  1
  O  O14  1  0.73801973  0.92973101  0.17625511  1
  O  O15  1  0.76198027  0.07026899  0.67625511  1
  O  O16  1  0.82374489  0.23801973  0.57026899  1
  O  O17  1  0.32374489  0.26198027  0.42973101  1
  O  O18  1  0.17625511  0.73801973  0.92973101  1
  O  O19  1  0.67625511  0.76198027  0.07026899  1
  O  O20  1  0.42973101  0.17625511  0.76198027  1
  O  O21  1  0.57026899  0.67625511  0.73801973  1
  O  O22  1  0.07026899  0.82374489  0.26198027  1
  O  O23  1  0.92973101  0.32374489  0.23801973  1
  O  O24  1  0.76198027  0.42973101  0.17625511  1
  O  O25  1  0.73801973  0.57026899  0.67625511  1
  O  O26  1  0.26198027  0.07026899  0.82374489  1
  O  O27  1  0.23801973  0.92973101  0.32374489  1
  O  O28  1  0.17625511  0.76198027  0.42973101  1
  O  O29  1  0.67625511  0.73801973  0.57026899  1
  O  O30  1  0.82374489  0.26198027  0.07026899  1
  O  O31  1  0.32374489  0.23801973  0.92973101  1
  O  O32  1  0.47608573  0.68119785  0.97470533  1
  O  O33  1  0.52391427  0.18119785  0.52529467  1
  O  O34  1  0.02391427  0.31880215  0.47470533  1
  O  O35  1  0.97608573  0.81880215  0.02529467  1
  O  O36  1  0.97470533  0.47608573  0.68119785  1
  O  O37  1  0.52529467  0.52391427  0.18119785  1
  O  O38  1  0.47470533  0.02391427  0.31880215  1
  O  O39  1  0.02529467  0.97608573  0.81880215  1
  O  O40  1  0.68119785  0.97470533  0.47608573  1
  O  O41  1  0.18119785  0.52529467  0.52391427  1
  O  O42  1  0.31880215  0.47470533  0.02391427  1
  O  O43  1  0.81880215  0.02529467  0.97608573  1
  O  O44  1  0.52391427  0.31880215  0.02529467  1
  O  O45  1  0.47608573  0.81880215  0.47470533  1
  O  O46  1  0.97608573  0.68119785  0.52529467  1
  O  O47  1  0.02391427  0.18119785  0.97470533  1
  O  O48  1  0.02529467  0.52391427  0.31880215  1
  O  O49  1  0.47470533  0.47608573  0.81880215  1
  O  O50  1  0.52529467  0.97608573  0.68119785  1
  O  O51  1  0.97470533  0.02391427  0.18119785  1
  O  O52  1  0.31880215  0.02529467  0.52391427  1
  O  O53  1  0.81880215  0.47470533  0.47608573  1
  O  O54  1  0.68119785  0.52529467  0.97608573  1
  O  O55  1  0.18119785  0.97470533  0.02391427  1
  O  O56  1  0.24400660  0.52305631  0.08615199  1
  O  O57  1  0.75599340  0.02305631  0.41384801  1
  O  O58  1  0.25599340  0.47694369  0.58615199  1
  O  O59  1  0.74400660  0.97694369  0.91384801  1
  O  O60  1  0.08615199  0.24400660  0.52305631  1
  O  O61  1  0.41384801  0.75599340  0.02305631  1
  O  O62  1  0.58615199  0.25599340  0.47694369  1
  O  O63  1  0.91384801  0.74400660  0.97694369  1
  O  O64  1  0.52305631  0.08615199  0.24400660  1
  O  O65  1  0.02305631  0.41384801  0.75599340  1
  O  O66  1  0.47694369  0.58615199  0.25599340  1
  O  O67  1  0.97694369  0.91384801  0.74400660  1
  O  O68  1  0.75599340  0.47694369  0.91384801  1
  O  O69  1  0.24400660  0.97694369  0.58615199  1
  O  O70  1  0.74400660  0.52305631  0.41384801  1
  O  O71  1  0.25599340  0.02305631  0.08615199  1
  O  O72  1  0.91384801  0.75599340  0.47694369  1
  O  O73  1  0.58615199  0.24400660  0.97694369  1
  O  O74  1  0.41384801  0.74400660  0.52305631  1
  O  O75  1  0.08615199  0.25599340  0.02305631  1
  O  O76  1  0.47694369  0.91384801  0.75599340  1
  O  O77  1  0.97694369  0.58615199  0.24400660  1
  O  O78  1  0.52305631  0.41384801  0.74400660  1
  O  O79  1  0.02305631  0.08615199  0.25599340  1
loop_
_geom_bond_atom_site_label_1
_geom_bond_atom_site_label_2
_geom_bond_distance
_geom_bond_site_symmetry_2
Na0 O59 2.984260 1_544
Na0 O64 2.984260 1_555
Na0 O71 2.984260 1_555
Na0 O73 2.984260 1_554
Na0 O76 2.984260 1_544
Na0 O61 2.984260 1_545
Na1 O70 2.984260 1_555
Na1 O74 2.984260 1_555
Na1 O78 2.984260 1_555
Na1 O58 2.984260 1_555
Na1 O62 2.984260 1_555
Na1 O66 2.984260 1_555
Na2 O67 2.984260 1_445
Na2 O60 2.984260 1_555
Na2 O69 2.984260 1_545
Na2 O79 2.984260 1_555
Na2 O72 2.984260 1_445
Na2 O57 2.984260 1_455
Na3 O63 2.984260 1_454
Na3 O56 2.984260 1_555
Na3 O75 2.984260 1_555
Na3 O77 2.984260 1_455
Na3 O68 2.984260 1_454
Na3 O65 2.984260 1_554
Cr0 O54 2.119483 1_554
Cr0 O42 2.119483 1_555
Cr0 O37 2.119483 1_555
Cr0 O49 2.119483 1_554
Cr0 O44 2.119483 1_555
Cr0 O32 2.119483 1_554
Cr1 O38 2.119483 1_555
Cr1 O45 2.119483 1_545
Cr1 O33 2.119483 1_555
Cr1 O52 2.119483 1_555
Cr1 O40 2.119483 1_545
Cr1 O50 2.119483 1_545
Cr2 O48 2.119483 1_555
Cr2 O46 2.119483 1_455
Cr2 O36 2.119483 1_455
Cr2 O53 2.119483 1_455
Cr2 O41 2.119483 1_555
Cr2 O34 2.119483 1_555
Cr3 O51 2.119483 1_455
Cr3 O43 2.119483 1_454
Cr3 O35 2.119483 1_445
Cr3 O39 2.119483 1_544
Cr3 O47 2.119483 1_554
Cr3 O55 2.119483 1_545
O0 S0 1.449354 1_555
O1 S1 1.449354 1_555
O2 S2 1.449354 1_555
O3 S3 1.449354 1_555
O4 S4 1.449354 1_555
O5 S5 1.449354 1_555
O6 S6 1.449354 1_555
O7 S7 1.449354 1_555
O8 S6 1.502398 1_555
O9 S7 1.502398 1_555
O10 S4 1.502398 1_555
O11 S5 1.502398 1_555
O12 S5 1.502398 1_555
O13 S7 1.502398 1_555
O14 S6 1.502398 1_555
O15 S4 1.502398 1_555
O16 S4 1.502398 1_555
O17 S7 1.502398 1_555
O18 S5 1.502398 1_555
O19 S6 1.502398 1_555
O20 S2 1.502398 1_555
O21 S3 1.502398 1_555
O22 S0 1.502398 1_555
O23 S1 1.502398 1_555
O24 S1 1.502398 1_555
O25 S3 1.502398 1_555
O26 S2 1.502398 1_555
O27 S0 1.502398 1_555
O28 S0 1.502398 1_555
O29 S3 1.502398 1_555
O30 S1 1.502398 1_555
O31 S2 1.502398 1_555
O32 O61 1.248112 1_556
O33 O62 1.248112 1_555
O34 O60 1.248112 1_555
O35 O63 1.248112 1_554
O36 O65 1.248112 1_655
O37 O66 1.248112 1_555
O38 O64 1.248112 1_555
O39 O67 1.248112 1_455
O40 O57 1.248112 1_565
O41 O58 1.248112 1_555
O42 O56 1.248112 1_555
O43 O59 1.248112 1_545
O44 O73 1.248112 1_554
O45 O74 1.248112 1_555
O46 O72 1.248112 1_555
O47 O75 1.248112 1_556
O48 O77 1.248112 1_455
O49 O78 1.248112 1_555
O50 O76 1.248112 1_555
O51 O79 1.248112 1_655
O52 O69 1.248112 1_545
O53 O70 1.248112 1_555
O54 O68 1.248112 1_555
O55 O71 1.248112 1_565
