# generated using pymatgen
data_La10Al5I8
_symmetry_space_group_name_H-M   'P 1'
_cell_length_a   10.23426690
_cell_length_b   10.23426690
_cell_length_c   18.21242623
_cell_angle_alpha   84.07358717
_cell_angle_beta   84.07358717
_cell_angle_gamma   24.85353351
_symmetry_Int_Tables_number   1
_chemical_formula_structural   La10Al5I8
_chemical_formula_sum   'La10 Al5 I8'
_cell_volume   797.25951228
_cell_formula_units_Z   1
loop_
 _symmetry_equiv_pos_site_id
 _symmetry_equiv_pos_as_xyz
  1  'x, y, z'
loop_
 _atom_site_type_symbol
 _atom_site_label
 _atom_site_symmetry_multiplicity
 _atom_site_fract_x
 _atom_site_fract_y
 _atom_site_fract_z
 _atom_site_occupancy
  La  La0  1  0.87152500  0.87152500  0.32452300  1
  La  La1  1  0.12847500  0.12847500  0.67547700  1
  La  La2  1  0.53720300  0.53720300  0.38956400  1
  La  La3  1  0.46279700  0.46279700  0.61043600  1
  La  La4  1  0.51555600  0.51555600  0.11150500  1
  La  La5  1  0.48444400  0.48444400  0.88849500  1
  La  La6  1  0.78918700  0.78918700  0.56690500  1
  La  La7  1  0.21081300  0.21081300  0.43309500  1
  La  La8  1  0.85257600  0.85257600  0.04432400  1
  La  La9  1  0.14742400  0.14742400  0.95567600  1
  Al  Al0  1  0.93902200  0.93902200  0.48118000  1
  Al  Al1  1  0.06097800  0.06097800  0.51882000  1
  Al  Al2  1  0.62791800  0.62791800  0.54661600  1
  Al  Al3  1  0.37208200  0.37208200  0.45338400  1
  Al  Al4  1  0.00000000  0.00000000  0.00000000  1
  I  I0  1  0.35398400  0.35398400  0.18000500  1
  I  I1  1  0.64601600  0.64601600  0.81999500  1
  I  I2  1  0.96960300  0.96960300  0.74964200  1
  I  I3  1  0.03039700  0.03039700  0.25035800  1
  I  I4  1  0.70372000  0.70372000  0.30107400  1
  I  I5  1  0.29628000  0.29628000  0.69892600  1
  I  I6  1  0.68218900  0.68218900  0.08079700  1
  I  I7  1  0.31781100  0.31781100  0.91920300  1
loop_
_geom_bond_atom_site_label_1
_geom_bond_atom_site_label_2
_geom_bond_distance
_geom_bond_site_symmetry_2
Al0 Al1 2.601166 1_665
Al0 Al3 2.653331 1_565
Al0 Al3 2.653331 1_655
Al0 La6 3.227860 1_555
Al0 La0 3.282456 1_555
Al0 La2 3.285336 1_655
Al0 La2 3.285336 1_565
Al0 La3 3.294585 1_565
Al0 La3 3.294585 1_655
Al1 Al2 2.653331 1_545
Al1 Al2 2.653331 1_455
Al1 La7 3.227860 1_555
Al1 La1 3.282456 1_555
Al1 La3 3.285336 1_545
Al1 La3 3.285336 1_455
Al1 La2 3.294585 1_545
Al1 La2 3.294585 1_455
Al2 La1 3.219271 1_565
Al2 La1 3.219271 1_655
Al2 La6 3.283298 1_555
Al2 La7 3.338559 1_565
Al2 La7 3.338559 1_655
Al2 La3 3.381381 1_555
Al2 La2 3.544870 1_555
Al3 La0 3.219271 1_455
Al3 La0 3.219271 1_545
Al3 La7 3.283298 1_555
Al3 La6 3.338559 1_455
Al3 La6 3.338559 1_545
Al3 La2 3.381381 1_555
Al3 La3 3.544870 1_555
Al4 La8 2.971968 1_445
Al4 La9 2.971968 1_554
Al4 La4 3.033895 1_455
Al4 La4 3.033895 1_545
Al4 La5 3.033895 1_454
Al4 La5 3.033895 1_544
I0 La8 3.312399 1_545
I0 La8 3.312399 1_455
I0 La4 3.336931 1_555
I0 La0 3.477913 1_545
I0 La0 3.477913 1_455
I1 La9 3.312399 1_565
I1 La9 3.312399 1_655
I1 La5 3.336931 1_555
I1 La1 3.477913 1_655
I1 La1 3.477913 1_565
I2 La1 3.316992 1_665
I2 La3 3.371844 1_565
I2 La3 3.371844 1_655
I2 La5 3.389981 1_565
I2 La5 3.389981 1_655
I3 La0 3.316992 1_445
I3 La2 3.371844 1_545
I3 La2 3.371844 1_455
I3 La4 3.389981 1_455
I3 La4 3.389981 1_545
I4 La7 3.274704 1_655
I4 La7 3.274704 1_565
I4 La0 3.425829 1_555
I4 La2 3.541463 1_555
I5 La6 3.274704 1_545
I5 La6 3.274704 1_455
I5 La1 3.425829 1_555
I5 La3 3.541463 1_555
I6 La9 3.295564 1_654
I6 La9 3.295564 1_564
I6 La4 3.318626 1_555
I6 La8 3.400406 1_555
I7 La8 3.295564 1_456
I7 La8 3.295564 1_546
I7 La5 3.318626 1_555
I7 La9 3.400406 1_555
