# generated using pymatgen
data_Cu2NiSnSe4
_symmetry_space_group_name_H-M   'P 1'
_cell_length_a   6.92876312
_cell_length_b   6.92876312
_cell_length_c   6.92876312
_cell_angle_alpha   131.96005752
_cell_angle_beta   131.96005752
_cell_angle_gamma   70.29211901
_symmetry_Int_Tables_number   1
_chemical_formula_structural   Cu2NiSnSe4
_chemical_formula_sum   'Cu2 Ni1 Sn1 Se4'
_cell_volume   180.26882484
_cell_formula_units_Z   1
loop_
 _symmetry_equiv_pos_site_id
 _symmetry_equiv_pos_as_xyz
  1  'x, y, z'
loop_
 _atom_site_type_symbol
 _atom_site_label
 _atom_site_symmetry_multiplicity
 _atom_site_fract_x
 _atom_site_fract_y
 _atom_site_fract_z
 _atom_site_occupancy
  Cu  Cu0  1  0.00000000  0.00000000  0.00000000  1
  Cu  Cu1  1  0.75000000  0.25000000  0.50000000  1
  Ni  Ni0  1  0.50000000  0.50000000  0.00000000  1
  Sn  Sn0  1  0.25000000  0.75000000  0.50000000  1
  Se  Se0  1  0.12451400  0.15949800  0.51152700  1
  Se  Se1  1  0.84050200  0.35202900  0.96501700  1
  Se  Se2  1  0.64797100  0.61298800  0.48847300  1
  Se  Se3  1  0.38701200  0.87548600  0.03498300  1
loop_
_geom_bond_atom_site_label_1
_geom_bond_atom_site_label_2
_geom_bond_distance
_geom_bond_site_symmetry_2
Cu0 Se3 2.417389 1_545
Cu0 Se1 2.417389 1_454
Cu0 Se2 2.417389 1_444
Cu0 Se0 2.417392 1_555
Cu1 Se0 2.413622 1_655
Cu1 Se3 2.413625 1_545
Cu1 Se2 2.413629 1_555
Cu1 Se1 2.413629 1_555
Ni0 Se2 2.340299 1_555
Ni0 Se1 2.340299 1_554
Ni0 Se0 2.340302 1_554
Ni0 Se3 2.340305 1_555
Se0 Sn0 2.634142 1_545
Se1 Sn0 2.634142 1_656
Se2 Sn0 2.634142 1_555
Se3 Sn0 2.634139 1_554
