# generated using pymatgen
data_CaBi3O7
_symmetry_space_group_name_H-M   'P 1'
_cell_length_a   5.74695500
_cell_length_b   11.19136000
_cell_length_c   11.22876800
_cell_angle_alpha   90.00000000
_cell_angle_beta   90.00000000
_cell_angle_gamma   90.00000000
_symmetry_Int_Tables_number   1
_chemical_formula_structural   CaBi3O7
_chemical_formula_sum   'Ca4 Bi12 O28'
_cell_volume   722.19216352
_cell_formula_units_Z   4
loop_
 _symmetry_equiv_pos_site_id
 _symmetry_equiv_pos_as_xyz
  1  'x, y, z'
loop_
 _atom_site_type_symbol
 _atom_site_label
 _atom_site_symmetry_multiplicity
 _atom_site_fract_x
 _atom_site_fract_y
 _atom_site_fract_z
 _atom_site_occupancy
  Ca  Ca0  1  0.68263700  0.75000000  0.14408500  1
  Ca  Ca1  1  0.18263700  0.25000000  0.35591500  1
  Ca  Ca2  1  0.31736300  0.25000000  0.85591500  1
  Ca  Ca3  1  0.81736300  0.75000000  0.64408500  1
  Bi  Bi0  1  0.35770300  0.99127100  0.63343200  1
  Bi  Bi1  1  0.85770300  0.00872900  0.86656800  1
  Bi  Bi2  1  0.64229700  0.49127100  0.36656800  1
  Bi  Bi3  1  0.14229700  0.50872900  0.13343200  1
  Bi  Bi4  1  0.32128400  0.75000000  0.85227100  1
  Bi  Bi5  1  0.82128400  0.25000000  0.64772900  1
  Bi  Bi6  1  0.67871600  0.25000000  0.14772900  1
  Bi  Bi7  1  0.17871600  0.75000000  0.35227100  1
  Bi  Bi8  1  0.85770300  0.49127100  0.86656800  1
  Bi  Bi9  1  0.35770300  0.50872900  0.63343200  1
  Bi  Bi10  1  0.14229700  0.99127100  0.13343200  1
  Bi  Bi11  1  0.64229700  0.00872900  0.36656800  1
  O  O0  1  0.92771700  0.12724000  0.22354500  1
  O  O1  1  0.42771700  0.87276000  0.27645500  1
  O  O2  1  0.07228300  0.62724000  0.77645500  1
  O  O3  1  0.57228300  0.37276000  0.72354500  1
  O  O4  1  0.07228300  0.87276000  0.77645500  1
  O  O5  1  0.57228300  0.12724000  0.72354500  1
  O  O6  1  0.92771700  0.37276000  0.22354500  1
  O  O7  1  0.42771700  0.62724000  0.27645500  1
  O  O8  1  0.43559900  0.12508200  0.21709300  1
  O  O9  1  0.93559900  0.87491800  0.28290700  1
  O  O10  1  0.56440100  0.62508200  0.78290700  1
  O  O11  1  0.06440100  0.37491800  0.71709300  1
  O  O12  1  0.56440100  0.87491800  0.78290700  1
  O  O13  1  0.06440100  0.12508200  0.71709300  1
  O  O14  1  0.43559900  0.37491800  0.21709300  1
  O  O15  1  0.93559900  0.62508200  0.28290700  1
  O  O16  1  0.17262200  0.75000000  0.53399200  1
  O  O17  1  0.67262200  0.25000000  0.96600800  1
  O  O18  1  0.82737800  0.25000000  0.46600800  1
  O  O19  1  0.32737800  0.75000000  0.03399200  1
  O  O20  1  0.16018500  0.41495200  0.96195400  1
  O  O21  1  0.66018500  0.58504800  0.53804600  1
  O  O22  1  0.83981500  0.91495200  0.03804600  1
  O  O23  1  0.33981500  0.08504800  0.46195400  1
  O  O24  1  0.83981500  0.58504800  0.03804600  1
  O  O25  1  0.33981500  0.41495200  0.46195400  1
  O  O26  1  0.16018500  0.08504800  0.96195400  1
  O  O27  1  0.66018500  0.91495200  0.53804600  1
loop_
_geom_bond_atom_site_label_1
_geom_bond_atom_site_label_2
_geom_bond_distance
_geom_bond_site_symmetry_2
Ca0 O24 2.375191 1_555
Ca0 O22 2.375191 1_555
Ca0 O19 2.386750 1_555
Ca0 O1 2.498595 1_555
Ca0 O7 2.498595 1_555
Ca0 O15 2.549057 1_555
Ca0 O9 2.549057 1_555
Ca1 O23 2.375191 1_555
Ca1 O25 2.375191 1_555
Ca1 O18 2.386750 1_455
Ca1 O6 2.498595 1_455
Ca1 O0 2.498595 1_455
Ca1 O14 2.549057 1_555
Ca1 O8 2.549057 1_555
Ca2 O26 2.375191 1_555
Ca2 O20 2.375191 1_555
Ca2 O17 2.386750 1_555
Ca2 O5 2.498595 1_555
Ca2 O3 2.498595 1_555
Ca2 O13 2.549057 1_555
Ca2 O11 2.549057 1_555
Ca3 O21 2.375191 1_555
Ca3 O27 2.375191 1_555
Ca3 O16 2.386750 1_655
Ca3 O2 2.498595 1_655
Ca3 O4 2.498595 1_655
Ca3 O12 2.549057 1_555
Ca3 O10 2.549057 1_555
Bi0 O23 2.195336 1_565
Bi0 O5 2.204563 1_565
Bi0 O27 2.213268 1_555
Bi0 O12 2.433876 1_555
Bi0 O13 2.442602 1_565
Bi0 O4 2.651186 1_555
Bi1 O22 2.195336 1_546
Bi1 O4 2.204563 1_645
Bi1 O26 2.213268 1_655
Bi1 O13 2.433876 1_655
Bi1 O12 2.442602 1_545
Bi1 O5 2.651186 1_555
Bi2 O21 2.195336 1_555
Bi2 O7 2.204563 1_555
Bi2 O25 2.213268 1_555
Bi2 O14 2.433876 1_555
Bi2 O15 2.442602 1_555
Bi2 O6 2.651186 1_555
Bi3 O20 2.195336 1_554
Bi3 O6 2.204563 1_455
Bi3 O24 2.213268 1_455
Bi3 O15 2.433876 1_455
Bi3 O14 2.442602 1_555
Bi3 O7 2.651186 1_555
Bi4 O19 2.040803 1_556
Bi4 O12 2.124423 1_555
Bi4 O10 2.124423 1_555
Bi4 O2 2.158696 1_555
Bi4 O4 2.158696 1_555
Bi5 O18 2.040803 1_555
Bi5 O13 2.124423 1_655
Bi5 O11 2.124423 1_655
Bi5 O3 2.158696 1_555
Bi5 O5 2.158696 1_555
Bi6 O17 2.040803 1_554
Bi6 O8 2.124423 1_555
Bi6 O14 2.124423 1_555
Bi6 O6 2.158696 1_555
Bi6 O0 2.158696 1_555
Bi7 O16 2.040803 1_555
Bi7 O15 2.124423 1_455
Bi7 O9 2.124423 1_455
Bi7 O1 2.158696 1_555
Bi7 O7 2.158696 1_555
Bi8 O24 2.195336 1_556
Bi8 O2 2.204563 1_655
Bi8 O20 2.213268 1_655
Bi8 O11 2.433876 1_655
Bi8 O10 2.442602 1_555
Bi8 O3 2.651186 1_555
Bi9 O25 2.195336 1_555
Bi9 O3 2.204563 1_555
Bi9 O21 2.213268 1_555
Bi9 O10 2.433876 1_555
Bi9 O11 2.442602 1_555
Bi9 O2 2.651186 1_555
Bi10 O26 2.195336 1_564
Bi10 O0 2.204563 1_465
Bi10 O22 2.213268 1_455
Bi10 O9 2.433876 1_455
Bi10 O8 2.442602 1_565
Bi10 O1 2.651186 1_555
Bi11 O27 2.195336 1_545
Bi11 O1 2.204563 1_545
Bi11 O23 2.213268 1_555
Bi11 O8 2.433876 1_555
Bi11 O9 2.442602 1_545
Bi11 O0 2.651186 1_555
