# generated using pymatgen
data_NaTi3O6
_symmetry_space_group_name_H-M   'P 1'
_cell_length_a   10.83719700
_cell_length_b   8.90322700
_cell_length_c   11.01595173
_cell_angle_alpha   57.52926087
_cell_angle_beta   90.00000000
_cell_angle_gamma   90.00000000
_symmetry_Int_Tables_number   1
_chemical_formula_structural   NaTi3O6
_chemical_formula_sum   'Na8 Ti24 O48'
_cell_volume   896.71998530
_cell_formula_units_Z   8
loop_
 _symmetry_equiv_pos_site_id
 _symmetry_equiv_pos_as_xyz
  1  'x, y, z'
loop_
 _atom_site_type_symbol
 _atom_site_label
 _atom_site_symmetry_multiplicity
 _atom_site_fract_x
 _atom_site_fract_y
 _atom_site_fract_z
 _atom_site_occupancy
  Na  Na0  1  0.15250300  0.07323000  0.74166500  1
  Na  Na1  1  0.15513100  0.43692900  0.74325900  1
  Na  Na2  1  0.34749700  0.07323000  0.24166500  1
  Na  Na3  1  0.34486900  0.43692900  0.24325900  1
  Na  Na4  1  0.84749700  0.92677000  0.25833500  1
  Na  Na5  1  0.84486900  0.56307100  0.25674100  1
  Na  Na6  1  0.65513100  0.56307100  0.75674100  1
  Na  Na7  1  0.65250300  0.92677000  0.75833500  1
  Ti  Ti0  1  0.89571500  0.52521200  0.58225800  1
  Ti  Ti1  1  0.89475400  0.19776600  0.57773100  1
  Ti  Ti2  1  0.90207300  0.85993600  0.58971400  1
  Ti  Ti3  1  0.59792700  0.85993600  0.08971400  1
  Ti  Ti4  1  0.60428500  0.52521200  0.08225800  1
  Ti  Ti5  1  0.60524600  0.19776600  0.07773100  1
  Ti  Ti6  1  0.10428500  0.47478800  0.41774200  1
  Ti  Ti7  1  0.09792700  0.14006400  0.41028600  1
  Ti  Ti8  1  0.10524600  0.80223400  0.42226900  1
  Ti  Ti9  1  0.40207300  0.14006400  0.91028600  1
  Ti  Ti10  1  0.39475400  0.80223400  0.92226900  1
  Ti  Ti11  1  0.39571500  0.47478800  0.91774200  1
  Ti  Ti12  1  0.38838400  0.54933300  0.55153300  1
  Ti  Ti13  1  0.38845700  0.20484700  0.56150800  1
  Ti  Ti14  1  0.38472400  0.87388000  0.56911300  1
  Ti  Ti15  1  0.11527600  0.87388000  0.06911300  1
  Ti  Ti16  1  0.11161600  0.54933300  0.05153300  1
  Ti  Ti17  1  0.11154300  0.20484700  0.06150800  1
  Ti  Ti18  1  0.61161600  0.45066700  0.44846700  1
  Ti  Ti19  1  0.61527600  0.12612000  0.43088700  1
  Ti  Ti20  1  0.61154300  0.79515300  0.43849200  1
  Ti  Ti21  1  0.88472400  0.12612000  0.93088700  1
  Ti  Ti22  1  0.88845700  0.79515300  0.93849200  1
  Ti  Ti23  1  0.88838400  0.45066700  0.94846700  1
  O  O0  1  0.51761600  0.32594500  0.88832300  1
  O  O1  1  0.51851600  0.99018300  0.88930200  1
  O  O2  1  0.52107400  0.65882100  0.88713800  1
  O  O3  1  0.97892600  0.65882100  0.38713800  1
  O  O4  1  0.98238400  0.32594500  0.38832300  1
  O  O5  1  0.98148400  0.99018300  0.38930200  1
  O  O6  1  0.48238400  0.67405500  0.11167700  1
  O  O7  1  0.47892600  0.34117900  0.11286200  1
  O  O8  1  0.48148400  0.00981700  0.11069800  1
  O  O9  1  0.02107400  0.34117900  0.61286200  1
  O  O10  1  0.01851600  0.00981700  0.61069800  1
  O  O11  1  0.01761600  0.67405500  0.61167700  1
  O  O12  1  0.57164400  0.53361800  0.57482500  1
  O  O13  1  0.57222200  0.19897600  0.57502400  1
  O  O14  1  0.56869600  0.86441000  0.57876700  1
  O  O15  1  0.93130400  0.86441000  0.07876700  1
  O  O16  1  0.92835600  0.53361800  0.07482500  1
  O  O17  1  0.92777800  0.19897600  0.07502400  1
  O  O18  1  0.42835600  0.46638200  0.42517500  1
  O  O19  1  0.43130400  0.13559000  0.42123300  1
  O  O20  1  0.42777800  0.80102400  0.42497600  1
  O  O21  1  0.06869600  0.13559000  0.92123300  1
  O  O22  1  0.07222200  0.80102400  0.92497600  1
  O  O23  1  0.07164400  0.46638200  0.92517500  1
  O  O24  1  0.85728500  0.39066100  0.79464700  1
  O  O25  1  0.85884400  0.05299900  0.79104500  1
  O  O26  1  0.85382500  0.71862700  0.79610600  1
  O  O27  1  0.64617500  0.71862700  0.29610600  1
  O  O28  1  0.64271500  0.39066100  0.29464700  1
  O  O29  1  0.64115600  0.05299900  0.29104500  1
  O  O30  1  0.14271500  0.60933900  0.20535300  1
  O  O31  1  0.14617500  0.28137300  0.20389400  1
  O  O32  1  0.14115600  0.94700100  0.20895500  1
  O  O33  1  0.35382500  0.28137300  0.70389400  1
  O  O34  1  0.35884400  0.94700100  0.70895500  1
  O  O35  1  0.35728500  0.60933900  0.70535300  1
  O  O36  1  0.28163400  0.26483600  0.97564700  1
  O  O37  1  0.28024200  0.94083800  0.96831100  1
  O  O38  1  0.28456600  0.59125200  0.98742600  1
  O  O39  1  0.21543400  0.59125200  0.48742600  1
  O  O40  1  0.21836600  0.26483600  0.47564700  1
  O  O41  1  0.21975800  0.94083800  0.46831100  1
  O  O42  1  0.71836600  0.73516400  0.02435300  1
  O  O43  1  0.71543400  0.40874800  0.01257400  1
  O  O44  1  0.71975800  0.05916200  0.03168900  1
  O  O45  1  0.78456600  0.40874800  0.51257400  1
  O  O46  1  0.78024200  0.05916200  0.53168900  1
  O  O47  1  0.78163400  0.73516400  0.52435300  1
loop_
_geom_bond_atom_site_label_1
_geom_bond_atom_site_label_2
_geom_bond_distance
_geom_bond_site_symmetry_2
Na0 O10 2.320180 1_555
Na0 O22 2.335236 1_545
Na0 O9 2.469527 1_555
Na0 O21 2.495057 1_555
Na0 O37 2.525755 1_545
Na0 O40 2.576702 1_555
Na0 O34 2.613061 1_545
Na0 O33 2.745807 1_555
Na1 O23 2.338276 1_555
Na1 O11 2.343773 1_555
Na1 O39 2.469750 1_555
Na1 O9 2.493108 1_555
Na1 O21 2.504255 1_555
Na1 O36 2.562997 1_555
Na1 O35 2.577188 1_555
Na1 O33 2.718020 1_555
Na2 O8 2.320180 1_555
Na2 O20 2.335236 1_545
Na2 O7 2.469527 1_555
Na2 O19 2.495057 1_555
Na2 O41 2.525755 1_545
Na2 O36 2.576702 1_554
Na2 O32 2.613061 1_545
Na2 O31 2.745807 1_555
Na3 O18 2.338276 1_555
Na3 O6 2.343773 1_555
Na3 O38 2.469750 1_554
Na3 O7 2.493108 1_555
Na3 O19 2.504255 1_555
Na3 O40 2.562997 1_555
Na3 O30 2.577188 1_555
Na3 O31 2.718020 1_555
Na4 O5 2.320180 1_555
Na4 O17 2.335236 1_565
Na4 O3 2.469527 1_555
Na4 O15 2.495057 1_555
Na4 O44 2.525755 1_565
Na4 O47 2.576702 1_555
Na4 O29 2.613061 1_565
Na4 O27 2.745807 1_555
Na5 O16 2.338276 1_555
Na5 O4 2.343773 1_555
Na5 O45 2.469750 1_555
Na5 O3 2.493108 1_555
Na5 O15 2.504255 1_555
Na5 O42 2.562997 1_555
Na5 O28 2.577188 1_555
Na5 O27 2.718020 1_555
Na6 O12 2.338276 1_555
Na6 O0 2.343773 1_555
Na6 O43 2.469750 1_556
Na6 O2 2.493108 1_555
Na6 O14 2.504255 1_555
Na6 O47 2.562997 1_555
Na6 O24 2.577188 1_555
Na6 O26 2.718020 1_555
Na7 O1 2.320180 1_555
Na7 O13 2.335236 1_565
Na7 O2 2.469527 1_555
Na7 O14 2.495057 1_555
Na7 O46 2.525755 1_565
Na7 O42 2.576702 1_556
Na7 O25 2.613061 1_565
Na7 O26 2.745807 1_555
O0 Ti9 1.983771 1_555
O0 Ti5 2.000254 1_556
O0 Ti11 2.016800 1_555
O1 Ti9 1.938495 1_565
O1 Ti10 2.019503 1_555
O1 Ti3 2.051951 1_556
O2 Ti11 2.012663 1_555
O2 Ti4 2.025560 1_556
O2 Ti10 2.045654 1_555
O3 Ti6 2.012663 1_655
O3 Ti0 2.025560 1_555
O3 Ti8 2.045654 1_655
O4 Ti7 1.983771 1_655
O4 Ti1 2.000254 1_555
O4 Ti6 2.016800 1_655
O5 Ti7 1.938495 1_665
O5 Ti8 2.019503 1_655
O5 Ti2 2.051951 1_555
O6 Ti3 1.983771 1_555
O6 Ti10 2.000254 1_554
O6 Ti4 2.016800 1_555
O7 Ti4 2.012663 1_555
O7 Ti11 2.025560 1_554
O7 Ti5 2.045654 1_555
O8 Ti3 1.938495 1_545
O8 Ti5 2.019503 1_555
O8 Ti9 2.051951 1_554
O9 Ti0 2.012663 1_455
O9 Ti6 2.025560 1_555
O9 Ti1 2.045654 1_455
O10 Ti2 1.938495 1_445
O10 Ti1 2.019503 1_455
O10 Ti7 2.051951 1_555
O11 Ti2 1.983771 1_455
O11 Ti8 2.000254 1_555
O11 Ti0 2.016800 1_455
O12 Ti18 1.942786 1_555
O12 Ti12 1.997788 1_555
O12 Ti20 2.027195 1_555
O13 Ti18 1.947541 1_555
O13 Ti13 1.995647 1_555
O13 Ti19 2.065300 1_555
O14 Ti14 1.995944 1_555
O14 Ti20 2.001685 1_555
O14 Ti19 2.064492 1_565
O15 Ti15 1.995944 1_655
O15 Ti22 2.001685 1_554
O15 Ti21 2.064492 1_564
O16 Ti23 1.942786 1_554
O16 Ti16 1.997788 1_655
O16 Ti22 2.027195 1_554
O17 Ti23 1.947541 1_554
O17 Ti17 1.995647 1_655
O17 Ti21 2.065300 1_554
O18 Ti12 1.942786 1_555
O18 Ti18 1.997788 1_555
O18 Ti13 2.027195 1_555
O19 Ti19 1.995944 1_555
O19 Ti13 2.001685 1_555
O19 Ti14 2.064492 1_545
O20 Ti12 1.947541 1_555
O20 Ti20 1.995647 1_555
O20 Ti14 2.065300 1_555
O21 Ti21 1.995944 1_455
O21 Ti17 2.001685 1_556
O21 Ti15 2.064492 1_546
O22 Ti16 1.947541 1_556
O22 Ti22 1.995647 1_455
O22 Ti15 2.065300 1_556
O23 Ti16 1.942786 1_556
O23 Ti23 1.997788 1_455
O23 Ti17 2.027195 1_556
O24 Ti0 2.018193 1_555
O24 Ti21 2.023039 1_555
O24 Ti23 2.059677 1_555
O25 Ti21 1.988071 1_555
O25 Ti22 2.001894 1_545
O25 Ti1 2.020514 1_555
O26 Ti2 1.988504 1_555
O26 Ti22 2.052509 1_555
O26 Ti23 2.085538 1_555
O27 Ti3 1.988504 1_555
O27 Ti20 2.052509 1_555
O27 Ti18 2.085538 1_555
O28 Ti4 2.018193 1_555
O28 Ti19 2.023039 1_555
O28 Ti18 2.059677 1_555
O29 Ti19 1.988071 1_555
O29 Ti20 2.001894 1_545
O29 Ti5 2.020514 1_555
O30 Ti6 2.018193 1_555
O30 Ti15 2.023039 1_555
O30 Ti16 2.059677 1_555
O31 Ti7 1.988504 1_555
O31 Ti17 2.052509 1_555
O31 Ti16 2.085538 1_555
O32 Ti15 1.988071 1_555
O32 Ti17 2.001894 1_565
O32 Ti8 2.020514 1_555
O33 Ti9 1.988504 1_555
O33 Ti13 2.052509 1_555
O33 Ti12 2.085538 1_555
O34 Ti14 1.988071 1_555
O34 Ti13 2.001894 1_565
O34 Ti10 2.020514 1_555
O35 Ti11 2.018193 1_555
O35 Ti14 2.023039 1_555
O35 Ti12 2.059677 1_555
O36 Ti17 2.008792 1_556
O36 Ti11 2.036957 1_555
O36 Ti9 2.077230 1_555
O37 Ti10 1.998039 1_555
O37 Ti15 2.018359 1_556
O37 Ti9 2.020050 1_565
O38 Ti16 1.966719 1_556
O38 Ti11 1.992491 1_555
O38 Ti10 2.005470 1_555
O39 Ti12 1.966719 1_555
O39 Ti6 1.992491 1_555
O39 Ti8 2.005470 1_555
O40 Ti13 2.008792 1_555
O40 Ti6 2.036957 1_555
O40 Ti7 2.077230 1_555
O41 Ti8 1.998039 1_555
O41 Ti14 2.018359 1_555
O41 Ti7 2.020050 1_565
O42 Ti22 2.008792 1_554
O42 Ti4 2.036957 1_555
O42 Ti3 2.077230 1_555
O43 Ti23 1.966719 1_554
O43 Ti4 1.992491 1_555
O43 Ti5 2.005470 1_555
O44 Ti5 1.998039 1_555
O44 Ti21 2.018359 1_554
O44 Ti3 2.020050 1_545
O45 Ti18 1.966719 1_555
O45 Ti0 1.992491 1_555
O45 Ti1 2.005470 1_555
O46 Ti1 1.998039 1_555
O46 Ti19 2.018359 1_555
O46 Ti2 2.020050 1_545
O47 Ti20 2.008792 1_555
O47 Ti0 2.036957 1_555
O47 Ti2 2.077230 1_555
