# generated using pymatgen
data_Sr8MgMn6O20
_symmetry_space_group_name_H-M   'P 1'
_cell_length_a   5.60096397
_cell_length_b   6.71242823
_cell_length_c   13.81882745
_cell_angle_alpha   91.44538112
_cell_angle_beta   91.64142132
_cell_angle_gamma   112.34231171
_symmetry_Int_Tables_number   1
_chemical_formula_structural   Sr8MgMn6O20
_chemical_formula_sum   'Sr8 Mg1 Mn6 O20'
_cell_volume   479.96807276
_cell_formula_units_Z   1
loop_
 _symmetry_equiv_pos_site_id
 _symmetry_equiv_pos_as_xyz
  1  'x, y, z'
loop_
 _atom_site_type_symbol
 _atom_site_label
 _atom_site_symmetry_multiplicity
 _atom_site_fract_x
 _atom_site_fract_y
 _atom_site_fract_z
 _atom_site_occupancy
  Sr  Sr0  1  0.21752600  0.46833400  0.15054000  1
  Sr  Sr1  1  0.68001000  0.45458200  0.95471700  1
  Sr  Sr2  1  0.74581700  0.48784700  0.38214800  1
  Sr  Sr3  1  0.27363500  0.53619600  0.57580400  1
  Sr  Sr4  1  0.03563000  0.96162700  0.61428600  1
  Sr  Sr5  1  0.01615900  0.06232400  0.35349200  1
  Sr  Sr6  1  0.48352200  0.03880000  0.15752500  1
  Sr  Sr7  1  0.61466000  0.91946700  0.79051400  1
  Mg  Mg0  1  0.26357000  0.82097100  0.94059000  1
  Mn  Mn0  1  0.68919200  0.29319100  0.65216000  1
  Mn  Mn1  1  0.36648900  0.75056100  0.34822900  1
  Mn  Mn2  1  0.84688900  0.73471700  0.15713500  1
  Mn  Mn3  1  0.17340700  0.28284400  0.84130300  1
  Mn  Mn4  1  0.53306300  0.02760500  0.49316100  1
  Mn  Mn5  1  0.90610600  0.02163100  0.00954600  1
  O  O0  1  0.48197500  0.25801600  0.75932300  1
  O  O1  1  0.10515400  0.76096600  0.25949700  1
  O  O2  1  0.60682500  0.75913700  0.25183300  1
  O  O3  1  0.96393500  0.24312600  0.71989200  1
  O  O4  1  0.18063600  0.80792100  0.45762700  1
  O  O5  1  0.42524700  0.24810900  0.54024800  1
  O  O6  1  0.17457300  0.29043000  0.98404000  1
  O  O7  1  0.08445700  0.73837800  0.05949100  1
  O  O8  1  0.87050700  0.22523800  0.51895500  1
  O  O9  1  0.62904000  0.79041700  0.45030800  1
  O  O10  1  0.62826000  0.75848300  0.05451100  1
  O  O11  1  0.59776700  0.07502100  0.95656300  1
  O  O12  1  0.83584900  0.58149200  0.64006300  1
  O  O13  1  0.22356700  0.45387300  0.35027400  1
  O  O14  1  0.99720300  0.06471400  0.15554000  1
  O  O15  1  0.02947800  0.95246500  0.86856200  1
  O  O16  1  0.51193200  0.94128400  0.62323800  1
  O  O17  1  0.69693800  0.43115700  0.15196100  1
  O  O18  1  0.30849300  0.59032000  0.85446200  1
  O  O19  1  0.52868200  0.08542100  0.35475600  1
loop_
_geom_bond_atom_site_label_1
_geom_bond_atom_site_label_2
_geom_bond_distance
_geom_bond_site_symmetry_2
Mg0 O7 1.931580 1_556
Mg0 O11 1.997748 1_565
Mg0 O18 2.024162 1_555
Mg0 O15 2.082850 1_555
Mg0 O10 2.706837 1_556
Mn0 O12 1.806464 1_555
Mn0 O0 1.871765 1_555
Mn0 O3 1.919243 1_555
Mn0 O5 2.043041 1_555
Mn0 O16 2.207221 1_545
Mn0 O8 2.246018 1_555
Mn1 O13 1.843845 1_555
Mn1 O1 1.905282 1_555
Mn1 O2 1.907210 1_555
Mn1 O9 1.945997 1_555
Mn1 O4 1.970465 1_555
Mn1 O19 2.078054 1_565
Mn2 O17 1.884283 1_555
Mn2 O10 1.896446 1_555
Mn2 O7 1.916110 1_655
Mn2 O1 1.949566 1_655
Mn2 O2 1.950593 1_555
Mn2 O14 2.049772 1_565
Mn3 O18 1.910812 1_555
Mn3 O6 1.971590 1_555
Mn3 O3 1.972133 1_455
Mn3 O15 2.100017 1_545
Mn3 O0 2.149356 1_555
Mn4 O8 1.868254 1_555
Mn4 O16 1.895621 1_545
Mn4 O5 1.905851 1_555
Mn4 O9 1.948287 1_545
Mn4 O19 1.962455 1_555
Mn4 O4 2.001735 1_545
Mn5 O6 1.908009 1_654
Mn5 O10 1.987158 1_545
Mn5 O11 2.014536 1_554
Mn5 O14 2.052693 1_555
Mn5 O15 2.182670 1_644
Mn5 O7 2.561235 1_645
O0 Sr7 2.686505 1_545
O0 Sr1 2.966119 1_555
O0 Sr4 3.155202 1_545
O1 Sr5 2.588172 1_565
O1 Sr6 2.693258 1_565
O1 Sr0 2.714133 1_555
O1 Sr2 2.798438 1_455
O2 Sr6 2.599385 1_565
O2 Sr0 2.641087 1_555
O2 Sr5 2.737778 1_665
O2 Sr2 2.885818 1_555
O3 Sr4 2.516478 1_645
O3 Sr7 2.546454 1_545
O3 Sr3 2.940159 1_655
O4 Sr4 2.652506 1_555
O4 Sr5 2.660755 1_565
O4 Sr3 2.662482 1_555
O4 Sr2 2.719999 1_455
O5 Sr3 2.434415 1_555
O5 Sr4 2.558029 1_545
O5 Sr2 2.965123 1_555
O6 Sr0 2.527650 1_556
O6 Sr1 2.666306 1_555
O7 Sr0 2.552000 1_555
O7 Sr6 2.675735 1_565
O7 Sr1 2.692368 1_454
O8 Sr3 2.510894 1_655
O8 Sr4 2.648358 1_645
O8 Sr5 2.783602 1_655
O8 Sr2 2.863124 1_555
O9 Sr2 2.527562 1_555
O9 Sr5 2.665156 1_665
O9 Sr3 2.765221 1_555
O9 Sr4 3.037225 1_655
O10 Sr1 2.545096 1_554
O10 Sr6 2.704584 1_565
O10 Sr0 2.783039 1_555
O11 Sr1 2.411573 1_555
O11 Sr7 2.516162 1_545
O11 Sr6 2.863250 1_556
O12 Sr4 2.405770 1_655
O12 Sr3 2.751601 1_655
O12 Sr3 3.145642 1_555
O13 Sr5 2.438593 1_555
O13 Sr0 2.763933 1_555
O13 Sr2 2.816494 1_455
O13 Sr2 2.866393 1_555
O13 Sr3 3.137225 1_555
O14 Sr0 2.517979 1_655
O14 Sr5 2.735172 1_655
O14 Sr6 2.794026 1_655
O14 Sr6 2.816565 1_555
O15 Sr7 2.462423 1_455
O16 Sr7 2.387624 1_555
O16 Sr3 2.589491 1_555
O16 Sr4 2.722085 1_555
O16 Sr4 2.890470 1_655
O17 Sr6 2.448057 1_555
O17 Sr1 2.735178 1_554
O17 Sr0 2.789170 1_555
O17 Sr0 2.831050 1_655
O17 Sr2 3.185563 1_555
O18 Sr7 2.430581 1_555
O18 Sr1 2.901625 1_555
O19 Sr2 2.518634 1_555
O19 Sr6 2.729023 1_555
O19 Sr5 2.793480 1_655
O19 Sr5 2.814861 1_555
