# generated using pymatgen
data_Li7Mn4CoO12
_symmetry_space_group_name_H-M   'P 1'
_cell_length_a   2.89992800
_cell_length_b   8.47282071
_cell_length_c   9.80217536
_cell_angle_alpha   64.67609900
_cell_angle_beta   90.00000000
_cell_angle_gamma   90.00000000
_symmetry_Int_Tables_number   1
_chemical_formula_structural   Li7Mn4CoO12
_chemical_formula_sum   'Li7 Mn4 Co1 O12'
_cell_volume   217.70083913
_cell_formula_units_Z   1
loop_
 _symmetry_equiv_pos_site_id
 _symmetry_equiv_pos_as_xyz
  1  'x, y, z'
loop_
 _atom_site_type_symbol
 _atom_site_label
 _atom_site_symmetry_multiplicity
 _atom_site_fract_x
 _atom_site_fract_y
 _atom_site_fract_z
 _atom_site_occupancy
  Li  Li0  1  0.50000000  0.16666700  0.16666700  1
  Li  Li1  1  0.50000000  0.50752400  0.49026300  1
  Li  Li2  1  0.50000000  0.82580900  0.84307000  1
  Li  Li3  1  0.00000000  0.52988300  0.00031900  1
  Li  Li4  1  0.00000000  0.80345000  0.33301400  1
  Li  Li5  1  0.00000000  0.16666700  0.66666700  1
  Li  Li6  1  0.50000000  0.66666700  0.16666700  1
  Mn  Mn0  1  0.00000000  0.98355800  0.00401000  1
  Mn  Mn1  1  0.00000000  0.34977500  0.32932300  1
  Mn  Mn2  1  0.50000000  0.33378100  0.83615500  1
  Mn  Mn3  1  0.50000000  0.99955200  0.49717800  1
  Co  Co0  1  0.00000000  0.66666700  0.66666700  1
  O  O0  1  0.50000000  0.92645800  0.14933900  1
  O  O1  1  0.50000000  0.25985700  0.48157300  1
  O  O2  1  0.50000000  0.57972000  0.82897800  1
  O  O3  1  0.00000000  0.23746800  0.98852700  1
  O  O4  1  0.00000000  0.56234400  0.33534100  1
  O  O5  1  0.00000000  0.93370500  0.64548500  1
  O  O6  1  0.50000000  0.40687600  0.18399500  1
  O  O7  1  0.50000000  0.75361300  0.50435500  1
  O  O8  1  0.50000000  0.07347600  0.85176000  1
  O  O9  1  0.00000000  0.77098900  0.99799200  1
  O  O10  1  0.00000000  0.09586500  0.34480600  1
  O  O11  1  0.00000000  0.39962900  0.68784900  1
loop_
_geom_bond_atom_site_label_1
_geom_bond_atom_site_label_2
_geom_bond_distance
_geom_bond_site_symmetry_2
Li0 O6 2.113483 1_555
Li0 O0 2.113483 1_545
Li0 O10 2.148301 1_655
Li0 O10 2.148301 1_555
Li0 O3 2.148309 1_554
Li0 O3 2.148309 1_654
Li1 O4 2.005193 1_555
Li1 O4 2.005193 1_655
Li1 O1 2.136261 1_555
Li1 O7 2.147784 1_555
Li1 O11 2.274763 1_555
Li1 O11 2.274763 1_655
Li2 O9 2.005193 1_555
Li2 O9 2.005193 1_655
Li2 O8 2.136261 1_565
Li2 O2 2.147784 1_555
Li2 O5 2.274757 1_655
Li2 O5 2.274757 1_555
Li3 O9 2.033196 1_554
Li3 O2 2.120089 1_454
Li3 O2 2.120089 1_554
Li3 O6 2.196567 1_555
Li3 O6 2.196567 1_455
Li3 O3 2.529180 1_554
Li4 O4 2.033196 1_555
Li4 O7 2.120089 1_455
Li4 O7 2.120089 1_555
Li4 O0 2.196562 1_455
Li4 O0 2.196562 1_555
Li4 O10 2.529180 1_565
Li5 O11 2.071176 1_555
Li5 O5 2.071176 1_545
Li5 O8 2.189079 1_455
Li5 O8 2.189079 1_555
Li5 O1 2.189086 1_555
Li5 O1 2.189086 1_455
Li6 O4 2.089766 1_655
Li6 O4 2.089766 1_555
Li6 O9 2.089771 1_654
Li6 O9 2.089771 1_554
Li6 O6 2.134041 1_555
Li6 O0 2.134041 1_555
Mn0 O9 1.827069 1_554
Mn0 O0 1.943242 1_455
Mn0 O0 1.943242 1_555
Mn0 O8 1.984281 1_564
Mn0 O8 1.984281 1_464
Mn0 O3 2.090923 1_564
Mn1 O4 1.827069 1_555
Mn1 O6 1.943235 1_555
Mn1 O6 1.943235 1_455
Mn1 O1 1.984281 1_455
Mn1 O1 1.984281 1_555
Mn1 O10 2.090923 1_555
Mn2 O11 1.957840 1_655
Mn2 O11 1.957840 1_555
Mn2 O3 1.989077 1_555
Mn2 O3 1.989077 1_655
Mn2 O2 2.054690 1_555
Mn2 O8 2.144552 1_555
Mn3 O5 1.957847 1_555
Mn3 O5 1.957847 1_655
Mn3 O10 1.989077 1_565
Mn3 O10 1.989077 1_665
Mn3 O7 2.054690 1_555
Mn3 O1 2.144552 1_565
Co0 O2 2.042968 1_455
Co0 O2 2.042968 1_555
Co0 O7 2.042974 1_455
Co0 O7 2.042974 1_555
Co0 O11 2.181841 1_555
Co0 O5 2.181841 1_555
