# generated using pymatgen
data_CrFeO3
_symmetry_space_group_name_H-M   'P 1'
_cell_length_a   10.12006643
_cell_length_b   10.47822636
_cell_length_c   10.91000671
_cell_angle_alpha   93.22044296
_cell_angle_beta   88.31479474
_cell_angle_gamma   82.27422987
_symmetry_Int_Tables_number   1
_chemical_formula_structural   CrFeO3
_chemical_formula_sum   'Cr16 Fe16 O48'
_cell_volume   1143.79012870
_cell_formula_units_Z   16
loop_
 _symmetry_equiv_pos_site_id
 _symmetry_equiv_pos_as_xyz
  1  'x, y, z'
loop_
 _atom_site_type_symbol
 _atom_site_label
 _atom_site_symmetry_multiplicity
 _atom_site_fract_x
 _atom_site_fract_y
 _atom_site_fract_z
 _atom_site_occupancy
  Cr  Cr0  1  0.07023200  0.36317900  0.84319100  1
  Cr  Cr1  1  0.39334800  0.44280600  0.95437300  1
  Cr  Cr2  1  0.61849600  0.20883500  0.25302100  1
  Cr  Cr3  1  0.22656700  0.97117300  0.39899900  1
  Cr  Cr4  1  0.77829100  0.06845800  0.79930700  1
  Cr  Cr5  1  0.56987500  0.72546200  0.36925700  1
  Cr  Cr6  1  0.25336100  0.87108400  0.72829400  1
  Cr  Cr7  1  0.55557700  0.25287500  0.80547100  1
  Cr  Cr8  1  0.29609200  0.66409100  0.21728100  1
  Cr  Cr9  1  0.48733000  0.58546100  0.74636400  1
  Cr  Cr10  1  0.33661800  0.10054000  0.90770700  1
  Cr  Cr11  1  0.08239000  0.55860400  0.60110600  1
  Cr  Cr12  1  0.99404200  0.89975400  0.64350100  1
  Cr  Cr13  1  0.03644900  0.11771900  0.93125900  1
  Cr  Cr14  1  0.01457300  0.80678000  0.20376400  1
  Cr  Cr15  1  0.31551600  0.71655400  0.49121400  1
  Fe  Fe0  1  0.19483500  0.16903000  0.17439600  1
  Fe  Fe1  1  0.86529100  0.58117600  0.20752500  1
  Fe  Fe2  1  0.02490300  0.25480300  0.36560600  1
  Fe  Fe3  1  0.49733500  0.97819700  0.30220600  1
  Fe  Fe4  1  0.75974900  0.40366100  0.39076300  1
  Fe  Fe5  1  0.55604100  0.89139300  0.86232500  1
  Fe  Fe6  1  0.27994000  0.85936000  0.02519200  1
  Fe  Fe7  1  0.60119600  0.49261800  0.16423800  1
  Fe  Fe8  1  0.87891200  0.76086200  0.45054900  1
  Fe  Fe9  1  0.86216500  0.32784100  0.08370100  1
  Fe  Fe10  1  0.15843200  0.63251400  0.92521900  1
  Fe  Fe11  1  0.55483700  0.25461100  0.52414800  1
  Fe  Fe12  1  0.32008300  0.41895100  0.37142400  1
  Fe  Fe13  1  0.72253400  0.89499700  0.12933000  1
  Fe  Fe14  1  0.74361600  0.66525900  0.95898400  1
  Fe  Fe15  1  0.80133800  0.03400100  0.39728600  1
  O  O0  1  0.98134700  0.67131300  0.31238400  1
  O  O1  1  0.18564800  0.86132900  0.57034500  1
  O  O2  1  0.78143100  0.51081600  0.05694500  1
  O  O3  1  0.65817700  0.41880200  0.56380800  1
  O  O4  1  0.60507800  0.09296800  0.40497200  1
  O  O5  1  0.55796300  0.42925900  0.86133900  1
  O  O6  1  0.68149300  0.30269700  0.12623600  1
  O  O7  1  0.22874700  0.55571400  0.49920200  1
  O  O8  1  0.86975200  0.06230700  0.93718800  1
  O  O9  1  0.50716000  0.33208900  0.35605600  1
  O  O10  1  0.11555200  0.46610600  0.96514800  1
  O  O11  1  0.71175500  0.85582800  0.95568600  1
  O  O12  1  0.83629000  0.21358900  0.39742800  1
  O  O13  1  0.58109600  0.69528700  0.83618700  1
  O  O14  1  0.45294100  0.25819900  0.68139500  1
  O  O15  1  0.19028700  0.31261200  0.30362000  1
  O  O16  1  0.56099200  0.52882200  0.59005600  1
  O  O17  1  0.93651800  0.92871400  0.47714700  1
  O  O18  1  0.01240600  0.19916300  0.09858700  1
  O  O19  1  0.20791600  0.78717900  0.85898800  1
  O  O20  1  0.87316300  0.73423600  0.10441900  1
  O  O21  1  0.40489800  0.26930300  0.94889700  1
  O  O22  1  0.41125400  0.86781900  0.42768100  1
  O  O23  1  0.96453000  0.70888000  0.59928200  1
  O  O24  1  0.92851500  0.29010000  0.89862800  1
  O  O25  1  0.86324600  0.95007700  0.23874000  1
  O  O26  1  0.59539800  0.07813300  0.84658200  1
  O  O27  1  0.07596100  0.99176000  0.76724500  1
  O  O28  1  0.16736400  0.72910100  0.08969100  1
  O  O29  1  0.31547000  0.04183600  0.26901700  1
  O  O30  1  0.91029000  0.40286200  0.25539800  1
  O  O31  1  0.17134000  0.20635500  0.84498100  1
  O  O32  1  0.72480400  0.21485400  0.72372200  1
  O  O33  1  0.32950700  0.53824400  0.82765100  1
  O  O34  1  0.59613300  0.05249100  0.16865500  1
  O  O35  1  0.18336000  0.82228000  0.30891900  1
  O  O36  1  0.19577000  0.04561800  0.00916000  1
  O  O37  1  0.80940800  0.93066400  0.70181900  1
  O  O38  1  0.38440500  0.72143900  0.65754300  1
  O  O39  1  0.70448100  0.82396200  0.43411500  1
  O  O40  1  0.37885300  0.96856200  0.77150900  1
  O  O41  1  0.57818800  0.81245800  0.21696100  1
  O  O42  1  0.42016600  0.61506200  0.35419700  1
  O  O43  1  0.04406700  0.43103700  0.69629400  1
  O  O44  1  0.41589500  0.52929300  0.09997600  1
  O  O45  1  0.12082700  0.10626100  0.45415100  1
  O  O46  1  0.43463600  0.94999500  0.99424300  1
  O  O47  1  0.69913800  0.57439400  0.30994200  1
loop_
_geom_bond_atom_site_label_1
_geom_bond_atom_site_label_2
_geom_bond_distance
_geom_bond_site_symmetry_2
Cr0 O10 1.775252 1_555
Cr0 O43 1.801813 1_555
Cr0 O31 1.816674 1_555
Cr0 O24 1.818058 1_455
Cr1 O21 1.803503 1_555
Cr1 O44 1.819867 1_556
Cr1 O33 1.833857 1_555
Cr1 O5 1.909563 1_555
Cr2 O34 1.877407 1_555
Cr2 O6 1.885898 1_555
Cr2 O9 1.890034 1_555
Cr2 O4 2.120827 1_555
Cr3 O45 1.723350 1_565
Cr3 O29 1.894928 1_565
Cr3 O35 1.904593 1_555
Cr3 O22 2.071794 1_555
Cr3 O1 2.305467 1_555
Cr4 O37 1.732218 1_545
Cr4 O8 1.788990 1_555
Cr4 O32 1.808650 1_555
Cr4 O26 1.894628 1_555
Cr5 O39 1.942740 1_555
Cr5 O41 1.944569 1_555
Cr5 O47 1.978399 1_555
Cr5 O42 2.031034 1_555
Cr5 O22 2.096986 1_555
Cr6 O40 1.791167 1_555
Cr6 O19 1.796821 1_555
Cr6 O1 1.875641 1_555
Cr6 O38 2.014432 1_555
Cr6 O27 2.070502 1_555
Cr7 O14 1.729162 1_555
Cr7 O32 1.890484 1_555
Cr7 O26 1.902787 1_555
Cr7 O5 1.916821 1_555
Cr7 O21 2.135942 1_555
Cr8 O28 2.018274 1_555
Cr8 O42 2.023600 1_555
Cr8 O35 2.070466 1_555
Cr8 O44 2.085198 1_555
Cr9 O13 1.845717 1_555
Cr9 O16 1.873131 1_555
Cr9 O33 1.939251 1_555
Cr9 O38 1.967114 1_555
Cr9 O5 2.175345 1_555
Cr10 O36 1.946116 1_556
Cr10 O40 1.968730 1_545
Cr10 O21 2.015924 1_555
Cr10 O31 2.036980 1_555
Cr10 O46 2.040917 1_545
Cr11 O43 1.813080 1_555
Cr11 O7 1.821550 1_555
Cr11 O23 1.844574 1_455
Cr12 O27 1.890450 1_655
Cr12 O37 1.935265 1_555
Cr12 O17 1.949730 1_555
Cr12 O1 2.054765 1_655
Cr12 O23 2.093487 1_555
Cr13 O8 1.856980 1_455
Cr13 O36 1.928204 1_556
Cr13 O18 1.965481 1_556
Cr13 O31 1.993902 1_555
Cr13 O24 2.036430 1_455
Cr13 O27 2.157415 1_545
Cr14 O0 1.956049 1_455
Cr14 O25 2.007094 1_455
Cr14 O28 2.009203 1_555
Cr14 O20 2.022786 1_455
Cr14 O35 2.104562 1_555
Cr15 O38 1.963461 1_555
Cr15 O42 1.978032 1_555
Cr15 O1 2.005980 1_555
Cr15 O7 2.007201 1_555
Cr15 O22 2.104324 1_555
Cr15 O35 2.641421 1_555
Fe0 O15 1.998119 1_555
Fe0 O29 2.030671 1_555
Fe0 O18 2.038284 1_555
Fe0 O36 2.157755 1_555
Fe1 O0 1.958599 1_555
Fe1 O30 1.966218 1_555
Fe1 O47 2.002868 1_555
Fe1 O20 2.018827 1_555
Fe1 O2 2.019109 1_555
Fe2 O15 1.969149 1_555
Fe2 O45 2.028790 1_555
Fe2 O12 2.037142 1_455
Fe2 O30 2.237336 1_455
Fe3 O29 1.923410 1_565
Fe3 O41 1.985480 1_555
Fe3 O34 1.994918 1_565
Fe3 O4 2.040868 1_565
Fe3 O22 2.085462 1_555
Fe4 O12 2.043683 1_555
Fe4 O47 2.065962 1_555
Fe4 O30 2.089249 1_555
Fe4 O3 2.110543 1_555
Fe5 O46 1.884625 1_555
Fe5 O11 1.907559 1_555
Fe5 O13 2.039073 1_555
Fe5 O26 2.064002 1_565
Fe5 O40 2.157683 1_555
Fe6 O46 1.967614 1_554
Fe6 O28 2.033437 1_555
Fe6 O36 2.040899 1_565
Fe6 O19 2.112625 1_554
Fe7 O44 2.017339 1_555
Fe7 O6 2.060381 1_555
Fe7 O47 2.100373 1_555
Fe7 O2 2.174061 1_555
Fe8 O39 1.817568 1_555
Fe8 O0 1.927414 1_555
Fe8 O23 1.932776 1_555
Fe8 O17 1.935380 1_555
Fe9 O18 1.908938 1_655
Fe9 O6 1.929042 1_555
Fe9 O2 2.020980 1_555
Fe9 O30 2.086915 1_555
Fe9 O24 2.107928 1_554
Fe10 O10 1.922523 1_555
Fe10 O19 1.930748 1_555
Fe10 O28 2.020488 1_556
Fe10 O33 2.102343 1_555
Fe11 O14 1.971350 1_555
Fe11 O4 2.073630 1_555
Fe11 O9 2.090217 1_555
Fe11 O3 2.160450 1_555
Fe12 O15 1.967793 1_555
Fe12 O9 1.985377 1_555
Fe12 O7 2.048166 1_555
Fe12 O42 2.423955 1_555
Fe13 O11 1.925135 1_554
Fe13 O34 1.965793 1_565
Fe13 O25 2.007307 1_555
Fe13 O41 2.036265 1_555
Fe13 O20 2.113977 1_555
Fe14 O11 1.981973 1_555
Fe14 O2 1.989829 1_556
Fe14 O13 2.153310 1_555
Fe14 O20 2.237640 1_556
Fe15 O17 1.902647 1_545
Fe15 O25 1.942947 1_545
Fe15 O12 1.960820 1_555
Fe15 O4 1.997017 1_555
Fe15 O39 2.573348 1_545
O16 O3 1.421196 1_555
