# generated using pymatgen
data_Li3TiNi3O8
_symmetry_space_group_name_H-M   'P 1'
_cell_length_a   5.74081361
_cell_length_b   5.93568370
_cell_length_c   10.06899409
_cell_angle_alpha   105.43749167
_cell_angle_beta   106.55597549
_cell_angle_gamma   61.09490703
_symmetry_Int_Tables_number   1
_chemical_formula_structural   Li3TiNi3O8
_chemical_formula_sum   'Li6 Ti2 Ni6 O16'
_cell_volume   284.51790210
_cell_formula_units_Z   2
loop_
 _symmetry_equiv_pos_site_id
 _symmetry_equiv_pos_as_xyz
  1  'x, y, z'
loop_
 _atom_site_type_symbol
 _atom_site_label
 _atom_site_symmetry_multiplicity
 _atom_site_fract_x
 _atom_site_fract_y
 _atom_site_fract_z
 _atom_site_occupancy
  Li  Li0  1  0.75013900  0.74997900  0.24997200  1
  Li  Li1  1  0.24996300  0.25001000  0.74997700  1
  Li  Li2  1  0.50167400  0.49694600  0.00124500  1
  Li  Li3  1  0.99820500  0.00309100  0.49870600  1
  Li  Li4  1  0.99751900  0.50304600  0.99883400  1
  Li  Li5  1  0.50243000  0.99695300  0.50115200  1
  Ti  Ti0  1  0.00079800  0.99997500  0.99986200  1
  Ti  Ti1  1  0.49899100  0.50002000  0.50001000  1
  Ni  Ni0  1  0.99547200  0.50002900  0.50007200  1
  Ni  Ni1  1  0.25035800  0.74972400  0.75010200  1
  Ni  Ni2  1  0.24996900  0.25009800  0.24990200  1
  Ni  Ni3  1  0.50487900  0.99988900  0.00004600  1
  Ni  Ni4  1  0.75001900  0.25036500  0.25020000  1
  Ni  Ni5  1  0.74993900  0.74999500  0.74995600  1
  O  O0  1  0.87471100  0.34499700  0.12555300  1
  O  O1  1  0.40551500  0.84487500  0.62544900  1
  O  O2  1  0.62499300  0.15512200  0.37442700  1
  O  O3  1  0.09425800  0.65507500  0.87453500  1
  O  O4  1  0.40870900  0.32270100  0.11931500  1
  O  O5  1  0.88781500  0.82284200  0.61932400  1
  O  O6  1  0.09116000  0.17728200  0.38069000  1
  O  O7  1  0.61216800  0.67711200  0.88068000  1
  O  O8  1  0.12802700  0.61448200  0.39113500  1
  O  O9  1  0.62822400  0.11321900  0.88687500  1
  O  O10  1  0.64566600  0.61310800  0.38707200  1
  O  O11  1  0.14891300  0.11438700  0.89115800  1
  O  O12  1  0.85447300  0.88704700  0.11311500  1
  O  O13  1  0.35126400  0.38556400  0.60903400  1
  O  O14  1  0.37202100  0.88530700  0.10863400  1
  O  O15  1  0.87172700  0.38676200  0.61296900  1
loop_
_geom_bond_atom_site_label_1
_geom_bond_atom_site_label_2
_geom_bond_distance
_geom_bond_site_symmetry_2
Li0 O12 2.111386 1_555
Li0 O10 2.113142 1_555
Li0 O8 2.130248 1_655
Li0 O14 2.131880 1_555
Li0 O0 2.259384 1_555
Li0 O2 2.260115 1_565
Li1 O9 2.111943 1_555
Li1 O15 2.112347 1_455
Li1 O13 2.128422 1_555
Li1 O11 2.129799 1_555
Li1 O3 2.260244 1_555
Li1 O1 2.260395 1_545
Li2 O0 2.042658 1_555
Li2 O4 2.077904 1_555
Li2 O14 2.123700 1_555
Li2 O9 2.126626 1_554
Li2 O3 2.189487 1_554
Li2 O7 2.192144 1_554
Li3 O2 2.043243 1_555
Li3 O6 2.077195 1_655
Li3 O8 2.125407 1_645
Li3 O15 2.126001 1_555
Li3 O1 2.189229 1_645
Li3 O5 2.192527 1_545
Li4 O3 2.042310 1_655
Li4 O7 2.078868 1_555
Li4 O11 2.126039 1_655
Li4 O12 2.127549 1_556
Li4 O0 2.189619 1_556
Li4 O4 2.192341 1_656
Li5 O1 2.043175 1_555
Li5 O5 2.079106 1_555
Li5 O10 2.126148 1_555
Li5 O13 2.126488 1_565
Li5 O2 2.189216 1_565
Li5 O6 2.192572 1_565
Ni0 O5 1.883747 1_555
Ni0 O6 1.884072 1_655
Ni0 O15 1.891484 1_555
Ni0 O10 1.891881 1_555
Ni0 O13 1.901430 1_655
Ni0 O8 1.901564 1_655
Ni1 O7 2.026967 1_555
Ni1 O5 2.030571 1_455
Ni1 O1 2.046604 1_555
Ni1 O3 2.046903 1_555
Ni1 O13 2.156226 1_555
Ni1 O11 2.158166 1_565
Ni2 O4 2.027139 1_555
Ni2 O6 2.029879 1_555
Ni2 O2 2.046864 1_555
Ni2 O0 2.047213 1_455
Ni2 O8 2.157901 1_555
Ni2 O14 2.159708 1_545
Ni3 O4 1.883783 1_565
Ni3 O7 1.884091 1_554
Ni3 O12 1.891278 1_555
Ni3 O9 1.892311 1_564
Ni3 O14 1.900627 1_555
Ni3 O11 1.901892 1_564
Ni4 O0 1.918115 1_555
Ni4 O2 1.918268 1_555
Ni4 O6 1.940525 1_655
Ni4 O4 1.943376 1_555
Ni4 O10 2.130260 1_555
Ni4 O12 2.133627 1_545
Ni5 O3 1.919556 1_655
Ni5 O1 1.919668 1_555
Ni5 O5 1.941791 1_555
Ni5 O7 1.942282 1_555
Ni5 O9 2.132466 1_565
Ni5 O15 2.132835 1_555
O0 Ti0 2.007214 1_644
O1 Ti1 2.005303 1_555
O2 Ti1 2.006190 1_555
O3 Ti0 2.005011 1_555
O8 Ti1 1.966212 1_555
O9 Ti0 1.987812 1_645
O10 Ti1 1.987776 1_555
O11 Ti0 1.966363 1_545
O12 Ti0 1.988095 1_654
O13 Ti1 1.967347 1_555
O14 Ti0 1.966949 1_554
O15 Ti1 1.988406 1_555
