# generated using pymatgen
data_K6As8O19
_symmetry_space_group_name_H-M   'P 1'
_cell_length_a   5.39692100
_cell_length_b   11.12776497
_cell_length_c   12.94356433
_cell_angle_alpha   103.58976953
_cell_angle_beta   101.83521261
_cell_angle_gamma   104.00610261
_symmetry_Int_Tables_number   1
_chemical_formula_structural   K6As8O19
_chemical_formula_sum   'K6 As8 O19'
_cell_volume   704.25871869
_cell_formula_units_Z   1
loop_
 _symmetry_equiv_pos_site_id
 _symmetry_equiv_pos_as_xyz
  1  'x, y, z'
loop_
 _atom_site_type_symbol
 _atom_site_label
 _atom_site_symmetry_multiplicity
 _atom_site_fract_x
 _atom_site_fract_y
 _atom_site_fract_z
 _atom_site_occupancy
  K  K0  1  0.83671500  0.02216200  0.65462700  1
  K  K1  1  0.21277700  0.02201300  0.39585500  1
  K  K2  1  0.78189800  0.59884200  0.96568100  1
  K  K3  1  0.20623000  0.38516700  0.01888800  1
  K  K4  1  0.34267700  0.81819000  0.85654000  1
  K  K5  1  0.66831100  0.17642300  0.14597600  1
  As  As0  1  0.49757200  0.28552000  0.70707600  1
  As  As1  1  0.49995900  0.70161400  0.29269000  1
  As  As2  1  0.68357600  0.68087100  0.67697400  1
  As  As3  1  0.32866400  0.33187700  0.32055000  1
  As  As4  1  0.12076100  0.46873000  0.77150000  1
  As  As5  1  0.87819800  0.52708900  0.22457800  1
  As  As6  1  0.13469700  0.71636200  0.54413600  1
  As  As7  1  0.86487300  0.27266500  0.45468300  1
  O  O0  1  0.78496200  0.74238700  0.81890600  1
  O  O1  1  0.22471100  0.26916000  0.17915600  1
  O  O2  1  0.33894400  0.36648100  0.80341000  1
  O  O3  1  0.83494500  0.36143800  0.80168800  1
  O  O4  1  0.66070500  0.63418400  0.19666900  1
  O  O5  1  0.17336500  0.63539900  0.19818600  1
  O  O6  1  0.14936500  0.82102700  0.46696000  1
  O  O7  1  0.81617900  0.13739000  0.49828200  1
  O  O8  1  0.41590000  0.12911900  0.71088000  1
  O  O9  1  0.55310800  0.87632900  0.25884500  1
  O  O10  1  0.23941000  0.58335000  0.89898600  1
  O  O11  1  0.76127800  0.41809700  0.09568600  1
  O  O12  1  0.97186200  0.78514500  0.64774700  1
  O  O13  1  0.46825700  0.78443600  0.64816600  1
  O  O14  1  0.04126000  0.22578200  0.34982400  1
  O  O15  1  0.54207800  0.22654300  0.34730200  1
  O  O16  1  0.31492600  0.09180500  0.91916400  1
  O  O17  1  0.56687200  0.87395500  0.15778800  1
  O  O18  1  0.07206200  0.06294800  0.91429900  1
loop_
_geom_bond_atom_site_label_1
_geom_bond_atom_site_label_2
_geom_bond_distance
_geom_bond_site_symmetry_2
K0 O7 2.635865 1_555
K0 O13 2.870667 1_545
K0 O12 2.888531 1_545
K0 O8 2.928443 1_655
K0 O8 2.946880 1_555
K0 O18 3.220105 1_655
K1 O6 2.586935 1_545
K1 O14 2.788907 1_555
K1 O15 2.811728 1_555
K1 O7 3.068587 1_555
K1 O7 3.111540 1_455
K1 O9 3.251620 1_545
K2 O0 2.754475 1_555
K2 O10 2.807516 1_655
K2 O10 2.827679 1_555
K2 O11 2.906577 1_556
K2 O2 3.034511 1_555
K2 O3 3.089784 1_555
K2 O4 3.145716 1_556
K2 O5 3.175911 1_656
K3 O1 2.686179 1_555
K3 O11 2.850070 1_455
K3 O11 2.858630 1_555
K3 O10 2.972437 1_554
K3 O2 2.992332 1_554
K3 O3 3.012113 1_454
K3 O4 3.223052 1_555
K3 O5 3.246848 1_555
K3 O18 3.357592 1_554
K4 O10 2.745326 1_555
K4 O0 2.811572 1_555
K4 O0 2.825787 1_455
K4 O13 2.876065 1_555
K4 O12 2.898648 1_455
K4 O16 3.010073 1_565
K5 O15 2.791940 1_555
K5 O14 2.814270 1_655
K5 O1 2.833587 1_655
K5 O11 2.865522 1_555
K5 O1 2.896607 1_555
K5 O16 2.945782 1_554
K5 O17 3.322030 1_545
As0 O8 1.703973 1_555
As0 O2 1.839195 1_555
As0 O3 1.839354 1_555
As1 O4 1.783099 1_555
As1 O5 1.791462 1_555
As1 O9 2.058130 1_555
As2 O0 1.719979 1_555
As2 O12 1.866557 1_555
As2 O13 1.868155 1_555
As3 O1 1.714733 1_555
As3 O15 1.871099 1_555
As3 O14 1.873016 1_555
As4 O10 1.715203 1_555
As4 O2 1.876593 1_555
As4 O3 1.879501 1_455
As5 O11 1.702733 1_555
As5 O5 1.895862 1_655
As5 O4 1.906302 1_555
As6 O6 1.701524 1_555
As6 O12 1.866369 1_455
As6 O13 1.869201 1_555
As7 O7 1.709395 1_555
As7 O14 1.859604 1_655
As7 O15 1.862494 1_555
O16 O18 1.256173 1_555
O17 O9 1.319753 1_555
