# generated using pymatgen
data_BaSrMg14
_symmetry_space_group_name_H-M   'P 1'
_cell_length_a   6.92238631
_cell_length_b   6.92238565
_cell_length_c   10.50860046
_cell_angle_alpha   90.00000000
_cell_angle_beta   90.00000000
_cell_angle_gamma   120.00000311
_symmetry_Int_Tables_number   1
_chemical_formula_structural   BaSrMg14
_chemical_formula_sum   'Ba1 Sr1 Mg14'
_cell_volume   436.10103833
_cell_formula_units_Z   1
loop_
 _symmetry_equiv_pos_site_id
 _symmetry_equiv_pos_as_xyz
  1  'x, y, z'
loop_
 _atom_site_type_symbol
 _atom_site_label
 _atom_site_symmetry_multiplicity
 _atom_site_fract_x
 _atom_site_fract_y
 _atom_site_fract_z
 _atom_site_occupancy
  Ba  Ba0  1  0.16666700  0.33333300  0.62500000  1
  Sr  Sr0  1  0.16666700  0.33333300  0.12500000  1
  Mg  Mg0  1  0.17503354  0.83751627  0.12500000  1
  Mg  Mg1  1  0.17911841  0.83955871  0.62500000  1
  Mg  Mg2  1  0.66248373  0.32496646  0.12500000  1
  Mg  Mg3  1  0.66044129  0.32088159  0.62500000  1
  Mg  Mg4  1  0.66248373  0.83751627  0.12500000  1
  Mg  Mg5  1  0.66044129  0.83955871  0.62500000  1
  Mg  Mg6  1  0.34673361  0.15326639  0.37219175  1
  Mg  Mg7  1  0.34673361  0.15326639  0.87780825  1
  Mg  Mg8  1  0.34673361  0.69346822  0.37219175  1
  Mg  Mg9  1  0.34673361  0.69346822  0.87780825  1
  Mg  Mg10  1  0.80653178  0.15326639  0.37219175  1
  Mg  Mg11  1  0.80653178  0.15326639  0.87780825  1
  Mg  Mg12  1  0.83333300  0.66666700  0.37622255  1
  Mg  Mg13  1  0.83333300  0.66666700  0.87377745  1
loop_
_geom_bond_atom_site_label_1
_geom_bond_atom_site_label_2
_geom_bond_distance
_geom_bond_site_symmetry_2
Ba0 Mg6 3.423312 1_555
Ba0 Mg7 3.423312 1_555
Ba0 Mg8 3.423319 1_555
Ba0 Mg9 3.423319 1_555
Ba0 Mg10 3.423319 1_455
Ba0 Mg11 3.423319 1_455
Ba0 Mg1 3.461998 1_545
Ba0 Mg5 3.461998 1_555
Ba0 Mg5 3.461998 1_445
Ba0 Mg1 3.461998 1_555
Ba0 Mg3 3.461998 1_555
Ba0 Mg3 3.461998 1_455
Mg0 Mg9 3.215580 1_554
Mg0 Mg8 3.215580 1_555
Mg0 Mg7 3.215587 1_564
Mg0 Mg6 3.215587 1_565
Mg0 Mg13 3.341536 1_454
Mg0 Mg12 3.341536 1_455
Mg0 Mg2 3.374318 1_565
Mg0 Mg4 3.374319 1_555
Mg0 Sr0 3.461556 1_555
Mg0 Sr0 3.461556 1_565
Mg0 Mg2 3.548067 1_455
Mg0 Mg4 3.548068 1_455
Mg1 Mg9 3.255803 1_555
Mg1 Mg8 3.255803 1_555
Mg1 Mg6 3.255810 1_565
Mg1 Mg7 3.255810 1_565
Mg1 Mg3 3.331903 1_565
Mg1 Mg5 3.331903 1_555
Mg1 Mg12 3.336433 1_455
Mg1 Mg13 3.336433 1_455
Mg2 Mg7 3.215587 1_554
Mg2 Mg6 3.215587 1_555
Mg2 Mg4 3.374318 1_545
Mg2 Sr0 3.461557 1_555
Mg2 Sr0 3.461557 1_655
Mg2 Mg4 3.548067 1_555
Mg3 Mg6 3.255810 1_555
Mg3 Mg7 3.255810 1_555
Mg3 Mg5 3.331903 1_545
Mg4 Mg9 3.215587 1_554
Mg4 Mg8 3.215587 1_555
Mg4 Sr0 3.461556 1_555
Mg4 Sr0 3.461556 1_665
Mg5 Mg8 3.255810 1_555
Mg5 Mg9 3.255810 1_555
Mg6 Mg8 3.182900 1_545
Mg6 Sr0 3.377713 1_555
Mg7 Mg9 3.182900 1_545
Mg7 Sr0 3.377713 1_556
Mg8 Sr0 3.377721 1_555
Mg9 Sr0 3.377721 1_556
Mg10 Mg8 3.182900 1_545
Mg10 Mg6 3.182901 1_555
Mg10 Mg2 3.215580 1_555
Mg10 Mg4 3.215587 1_545
Mg10 Mg3 3.255803 1_555
Mg10 Mg5 3.255810 1_545
Mg10 Sr0 3.377721 1_655
Mg10 Mg12 3.465179 1_555
Mg10 Mg12 3.465179 1_545
Mg11 Mg9 3.182900 1_545
Mg11 Mg7 3.182901 1_555
Mg11 Mg2 3.215580 1_556
Mg11 Mg4 3.215587 1_546
Mg11 Mg3 3.255803 1_555
Mg11 Mg5 3.255810 1_545
Mg11 Sr0 3.377721 1_656
Mg11 Mg13 3.465179 1_555
Mg11 Mg13 3.465179 1_545
Mg12 Mg5 3.336426 1_555
Mg12 Mg3 3.336433 1_555
Mg12 Mg4 3.341529 1_555
Mg12 Mg2 3.341536 1_555
Mg12 Mg6 3.465179 1_555
Mg12 Mg6 3.465179 1_665
Mg12 Mg8 3.465179 1_555
Mg12 Mg8 3.465179 1_655
Mg13 Mg5 3.336426 1_555
Mg13 Mg3 3.336433 1_555
Mg13 Mg4 3.341529 1_556
Mg13 Mg2 3.341536 1_556
Mg13 Mg7 3.465179 1_555
Mg13 Mg7 3.465179 1_665
Mg13 Mg9 3.465179 1_555
Mg13 Mg9 3.465179 1_655
