# generated using pymatgen
data_YMo(WO4)2
_symmetry_space_group_name_H-M   'P 1'
_cell_length_a   5.19523100
_cell_length_b   5.98008115
_cell_length_c   6.41526732
_cell_angle_alpha   117.07548697
_cell_angle_beta   109.72885837
_cell_angle_gamma   88.18350163
_symmetry_Int_Tables_number   1
_chemical_formula_structural   YMo(WO4)2
_chemical_formula_sum   'Y1 Mo1 W2 O8'
_cell_volume   165.27128268
_cell_formula_units_Z   1
loop_
 _symmetry_equiv_pos_site_id
 _symmetry_equiv_pos_as_xyz
  1  'x, y, z'
loop_
 _atom_site_type_symbol
 _atom_site_label
 _atom_site_symmetry_multiplicity
 _atom_site_fract_x
 _atom_site_fract_y
 _atom_site_fract_z
 _atom_site_occupancy
  Y  Y0  1  0.48385400  0.33649900  0.88888400  1
  Mo  Mo0  1  0.03222700  0.78845000  0.90705600  1
  W  W0  1  0.29428900  0.59923500  0.40560900  1
  W  W1  1  0.78056000  0.93776600  0.39346600  1
  O  O0  1  0.30418800  0.28824200  0.15385800  1
  O  O1  1  0.26304500  0.54186900  0.67723900  1
  O  O2  1  0.39135800  0.75230400  0.19034200  1
  O  O3  1  0.17312000  0.97171200  0.58710400  1
  O  O4  1  0.80285800  0.01408800  0.15449200  1
  O  O5  1  0.72198800  0.23763900  0.62550400  1
  O  O6  1  0.67934300  0.77923500  0.60538900  1
  O  O7  1  0.87307300  0.57446400  0.21496300  1
loop_
_geom_bond_atom_site_label_1
_geom_bond_atom_site_label_2
_geom_bond_distance
_geom_bond_site_symmetry_2
Mo0 O6 2.150190 1_455
Mo0 O2 2.207577 1_556
Mo0 O1 2.210984 1_555
Mo0 O4 2.232870 1_466
O0 W0 1.839971 1_555
O0 Y0 2.319264 1_554
O1 W0 1.979723 1_555
O1 Y0 2.246077 1_555
O2 W1 2.015990 1_555
O2 W0 2.156285 1_555
O2 Y0 2.515553 1_554
O3 W1 1.957019 1_455
O3 W0 2.181393 1_555
O3 Y0 2.319816 1_565
O4 W1 1.825458 1_545
O5 W1 1.834516 1_545
O5 Y0 2.278287 1_555
O6 W0 1.988150 1_555
O6 W1 2.170531 1_555
O7 W1 2.074371 1_555
O7 W0 2.086907 1_655
O7 Y0 2.259772 1_554
