# generated using pymatgen
data_Al2V3(SiO4)3
_symmetry_space_group_name_H-M   'P 1'
_cell_length_a   10.18415044
_cell_length_b   10.18415044
_cell_length_c   10.18415044
_cell_angle_alpha   109.47122063
_cell_angle_beta   109.47122063
_cell_angle_gamma   109.47122063
_symmetry_Int_Tables_number   1
_chemical_formula_structural   Al2V3(SiO4)3
_chemical_formula_sum   'Al8 V12 Si12 O48'
_cell_volume   813.11603932
_cell_formula_units_Z   4
loop_
 _symmetry_equiv_pos_site_id
 _symmetry_equiv_pos_as_xyz
  1  'x, y, z'
loop_
 _atom_site_type_symbol
 _atom_site_label
 _atom_site_symmetry_multiplicity
 _atom_site_fract_x
 _atom_site_fract_y
 _atom_site_fract_z
 _atom_site_occupancy
  Al  Al0  1  0.00000000  0.00000000  0.00000000  1
  Al  Al1  1  0.50000000  0.00000000  0.00000000  1
  Al  Al2  1  0.50000000  0.50000000  0.00000000  1
  Al  Al3  1  0.00000000  0.50000000  0.50000000  1
  Al  Al4  1  0.00000000  0.00000000  0.50000000  1
  Al  Al5  1  0.50000000  0.50000000  0.50000000  1
  Al  Al6  1  0.00000000  0.50000000  0.00000000  1
  Al  Al7  1  0.50000000  0.00000000  0.50000000  1
  V  V0  1  0.87500000  0.75000000  0.62500000  1
  V  V1  1  0.87500000  0.62500000  0.25000000  1
  V  V2  1  0.62500000  0.87500000  0.75000000  1
  V  V3  1  0.25000000  0.87500000  0.62500000  1
  V  V4  1  0.75000000  0.62500000  0.87500000  1
  V  V5  1  0.62500000  0.25000000  0.87500000  1
  V  V6  1  0.12500000  0.25000000  0.37500000  1
  V  V7  1  0.12500000  0.37500000  0.75000000  1
  V  V8  1  0.37500000  0.12500000  0.25000000  1
  V  V9  1  0.75000000  0.12500000  0.37500000  1
  V  V10  1  0.25000000  0.37500000  0.12500000  1
  V  V11  1  0.37500000  0.75000000  0.12500000  1
  Si  Si0  1  0.12500000  0.75000000  0.87500000  1
  Si  Si1  1  0.75000000  0.87500000  0.12500000  1
  Si  Si2  1  0.25000000  0.62500000  0.37500000  1
  Si  Si3  1  0.62500000  0.75000000  0.37500000  1
  Si  Si4  1  0.87500000  0.12500000  0.75000000  1
  Si  Si5  1  0.37500000  0.25000000  0.62500000  1
  Si  Si6  1  0.37500000  0.62500000  0.75000000  1
  Si  Si7  1  0.25000000  0.12500000  0.87500000  1
  Si  Si8  1  0.62500000  0.37500000  0.25000000  1
  Si  Si9  1  0.12500000  0.87500000  0.25000000  1
  Si  Si10  1  0.75000000  0.37500000  0.62500000  1
  Si  Si11  1  0.87500000  0.25000000  0.12500000  1
  O  O0  1  0.58138800  0.89408700  0.38175800  1
  O  O1  1  0.38175800  0.58138800  0.89408700  1
  O  O2  1  0.30036900  0.31269900  0.91861200  1
  O  O3  1  0.48767000  0.60591300  0.18730100  1
  O  O4  1  0.31269900  0.89408700  0.01233000  1
  O  O5  1  0.11824200  0.01233000  0.19963100  1
  O  O6  1  0.38175800  0.30036900  0.48767000  1
  O  O7  1  0.89408700  0.38175800  0.58138800  1
  O  O8  1  0.18730100  0.19963100  0.58138800  1
  O  O9  1  0.48767000  0.38175800  0.30036900  1
  O  O10  1  0.89408700  0.01233000  0.31269900  1
  O  O11  1  0.60591300  0.91861200  0.11824200  1
  O  O12  1  0.91861200  0.11824200  0.60591300  1
  O  O13  1  0.30036900  0.48767000  0.38175800  1
  O  O14  1  0.58138800  0.18730100  0.19963100  1
  O  O15  1  0.19963100  0.58138800  0.18730100  1
  O  O16  1  0.01233000  0.31269900  0.89408700  1
  O  O17  1  0.91861200  0.30036900  0.31269900  1
  O  O18  1  0.01233000  0.19963100  0.11824200  1
  O  O19  1  0.81269900  0.80036900  0.41861200  1
  O  O20  1  0.31269900  0.91861200  0.30036900  1
  O  O21  1  0.60591300  0.18730100  0.48767000  1
  O  O22  1  0.19963100  0.11824200  0.01233000  1
  O  O23  1  0.11824200  0.60591300  0.91861200  1
  O  O24  1  0.41861200  0.10591300  0.61824200  1
  O  O25  1  0.61824200  0.41861200  0.10591300  1
  O  O26  1  0.69963100  0.68730100  0.08138800  1
  O  O27  1  0.51233000  0.39408700  0.81269900  1
  O  O28  1  0.68730100  0.10591300  0.98767000  1
  O  O29  1  0.88175800  0.98767000  0.80036900  1
  O  O30  1  0.61824200  0.69963100  0.51233000  1
  O  O31  1  0.10591300  0.61824200  0.41861200  1
  O  O32  1  0.88175800  0.39408700  0.08138800  1
  O  O33  1  0.80036900  0.88175800  0.98767000  1
  O  O34  1  0.39408700  0.81269900  0.51233000  1
  O  O35  1  0.68730100  0.08138800  0.69963100  1
  O  O36  1  0.81269900  0.51233000  0.39408700  1
  O  O37  1  0.98767000  0.80036900  0.88175800  1
  O  O38  1  0.08138800  0.69963100  0.68730100  1
  O  O39  1  0.98767000  0.68730100  0.10591300  1
  O  O40  1  0.80036900  0.41861200  0.81269900  1
  O  O41  1  0.41861200  0.81269900  0.80036900  1
  O  O42  1  0.69963100  0.51233000  0.61824200  1
  O  O43  1  0.08138800  0.88175800  0.39408700  1
  O  O44  1  0.39408700  0.08138800  0.88175800  1
  O  O45  1  0.10591300  0.98767000  0.68730100  1
  O  O46  1  0.51233000  0.61824200  0.69963100  1
  O  O47  1  0.18730100  0.48767000  0.60591300  1
loop_
_geom_bond_atom_site_label_1
_geom_bond_atom_site_label_2
_geom_bond_distance
_geom_bond_site_symmetry_2
Al0 O22 1.922521 1_555
Al0 O5 1.922521 1_555
Al0 O18 1.922521 1_555
Al0 O29 1.922521 1_444
Al0 O37 1.922521 1_444
Al0 O33 1.922521 1_444
Al1 O11 1.922518 1_545
Al1 O44 1.922518 1_554
Al1 O28 1.922524 1_554
Al1 O14 1.922524 1_555
Al1 O4 1.922524 1_545
Al1 O41 1.922524 1_544
Al2 O25 1.922518 1_555
Al2 O1 1.922518 1_554
Al2 O26 1.922524 1_555
Al2 O3 1.922524 1_555
Al2 O2 1.922524 1_554
Al2 O27 1.922524 1_554
Al3 O31 1.922518 1_555
Al3 O7 1.922518 1_455
Al3 O38 1.922524 1_555
Al3 O47 1.922524 1_555
Al3 O17 1.922524 1_455
Al3 O36 1.922524 1_455
Al4 O12 1.922518 1_455
Al4 O43 1.922518 1_545
Al4 O45 1.922524 1_545
Al4 O10 1.922524 1_455
Al4 O8 1.922524 1_555
Al4 O19 1.922524 1_445
Al5 O42 1.922521 1_555
Al5 O30 1.922521 1_555
Al5 O46 1.922521 1_555
Al5 O9 1.922521 1_555
Al5 O6 1.922521 1_555
Al5 O13 1.922521 1_555
Al6 O23 1.922518 1_554
Al6 O32 1.922518 1_455
Al6 O39 1.922524 1_455
Al6 O15 1.922524 1_555
Al6 O40 1.922524 1_454
Al6 O16 1.922524 1_554
Al7 O24 1.922518 1_555
Al7 O0 1.922518 1_545
Al7 O35 1.922524 1_555
Al7 O21 1.922524 1_555
Al7 O20 1.922524 1_545
Al7 O34 1.922524 1_545
O0 Si3 1.656149 1_555
O0 V11 2.265030 1_555
O0 V9 2.445045 1_565
O1 Si6 1.656149 1_555
O1 V7 2.265030 1_555
O1 V11 2.445045 1_556
O2 Si7 1.656151 1_555
O2 V10 2.265023 1_556
O2 V7 2.445039 1_555
O3 Si3 1.656151 1_555
O3 V11 2.265023 1_555
O3 V10 2.445039 1_555
O4 Si0 1.656151 1_554
O4 V11 2.265023 1_555
O4 V8 2.445039 1_565
O5 Si9 1.656153 1_545
O5 V8 2.265032 1_555
O5 V6 2.445033 1_555
O6 Si5 1.656153 1_555
O6 V6 2.265032 1_555
O6 V8 2.445033 1_555
O7 Si10 1.656149 1_555
O7 V9 2.265030 1_555
O7 V7 2.445045 1_655
O8 Si5 1.656151 1_555
O8 V6 2.265023 1_555
O8 V7 2.445039 1_555
O9 Si8 1.656153 1_555
O9 V8 2.265032 1_555
O9 V10 2.445033 1_555
O10 Si1 1.656151 1_545
O10 V9 2.265023 1_555
O10 V6 2.445039 1_655
O11 Si1 1.656149 1_555
O11 V9 2.265030 1_565
O11 V11 2.445045 1_555
O12 Si4 1.656149 1_555
O12 V7 2.265030 1_655
O12 V9 2.445045 1_555
O13 Si2 1.656153 1_555
O13 V10 2.265032 1_555
O13 V6 2.445033 1_555
O14 Si8 1.656151 1_555
O14 V8 2.265023 1_555
O14 V9 2.445039 1_555
O15 Si2 1.656151 1_555
O15 V10 2.265023 1_555
O15 V11 2.445039 1_555
O16 Si4 1.656151 1_455
O16 V7 2.265023 1_555
O16 V10 2.445039 1_556
O17 Si11 1.656151 1_555
O17 V6 2.265023 1_655
O17 V9 2.445039 1_555
O18 Si11 1.656153 1_455
O18 V6 2.265032 1_555
O18 V10 2.445033 1_555
O19 Si3 1.656151 1_555
O19 V0 2.265023 1_555
O19 V1 2.445039 1_555
O20 Si9 1.656151 1_555
O20 V8 2.265023 1_565
O20 V11 2.445039 1_555
O21 Si10 1.656151 1_555
O21 V9 2.265023 1_555
O21 V8 2.445039 1_555
O22 Si7 1.656153 1_554
O22 V10 2.265032 1_555
O22 V8 2.445033 1_555
O23 Si0 1.656149 1_555
O23 V11 2.265030 1_556
O23 V7 2.445045 1_555
O24 Si5 1.656149 1_555
O24 V5 2.265030 1_555
O24 V3 2.445045 1_545
O25 Si8 1.656149 1_555
O25 V1 2.265030 1_555
O25 V5 2.445045 1_554
O26 Si1 1.656151 1_555
O26 V4 2.265023 1_554
O26 V1 2.445039 1_555
O27 Si5 1.656151 1_555
O27 V5 2.265023 1_555
O27 V4 2.445039 1_555
O28 Si11 1.656151 1_556
O28 V5 2.265023 1_555
O28 V2 2.445039 1_545
O29 Si4 1.656153 1_565
O29 V2 2.265032 1_555
O29 V0 2.445033 1_555
O30 Si3 1.656153 1_555
O30 V0 2.265032 1_555
O30 V2 2.445033 1_555
O31 Si2 1.656149 1_555
O31 V3 2.265030 1_555
O31 V1 2.445045 1_455
O32 Si11 1.656149 1_555
O32 V5 2.265030 1_554
O32 V1 2.445045 1_555
O33 Si1 1.656153 1_556
O33 V4 2.265032 1_555
O33 V2 2.445033 1_555
O34 Si2 1.656151 1_555
O34 V3 2.265023 1_555
O34 V2 2.445039 1_555
O35 Si4 1.656151 1_555
O35 V2 2.265023 1_545
O35 V5 2.445039 1_555
O36 Si8 1.656151 1_555
O36 V1 2.265023 1_555
O36 V0 2.445039 1_555
O37 Si0 1.656153 1_655
O37 V0 2.265032 1_555
O37 V4 2.445033 1_555
O38 Si0 1.656151 1_555
O38 V0 2.265023 1_455
O38 V3 2.445039 1_555
O39 Si9 1.656151 1_655
O39 V1 2.265023 1_555
O39 V4 2.445039 1_554
O40 Si10 1.656151 1_555
O40 V4 2.265023 1_555
O40 V5 2.445039 1_555
O41 Si6 1.656151 1_555
O41 V2 2.265023 1_555
O41 V3 2.445039 1_555
O42 Si10 1.656153 1_555
O42 V4 2.265032 1_555
O42 V0 2.445033 1_555
O43 Si9 1.656149 1_555
O43 V1 2.265030 1_455
O43 V3 2.445045 1_555
O44 Si7 1.656149 1_555
O44 V3 2.265030 1_545
O44 V5 2.445045 1_555
O45 Si7 1.656151 1_565
O45 V3 2.265023 1_555
O45 V0 2.445039 1_455
O46 Si6 1.656153 1_555
O46 V2 2.265032 1_555
O46 V4 2.445033 1_555
O47 Si6 1.656151 1_555
O47 V7 2.265023 1_555
O47 V6 2.445039 1_555
