# generated using pymatgen
data_Tb3Ga5
_symmetry_space_group_name_H-M   'P 1'
_cell_length_a   6.11528330
_cell_length_b   9.64233408
_cell_length_c   11.45029447
_cell_angle_alpha   89.99996629
_cell_angle_beta   89.99960737
_cell_angle_gamma   90.00000000
_symmetry_Int_Tables_number   1
_chemical_formula_structural   Tb3Ga5
_chemical_formula_sum   'Tb12 Ga20'
_cell_volume   675.17353595
_cell_formula_units_Z   4
loop_
 _symmetry_equiv_pos_site_id
 _symmetry_equiv_pos_as_xyz
  1  'x, y, z'
loop_
 _atom_site_type_symbol
 _atom_site_label
 _atom_site_symmetry_multiplicity
 _atom_site_fract_x
 _atom_site_fract_y
 _atom_site_fract_z
 _atom_site_occupancy
  Tb  Tb0  1  0.65113656  0.75000100  0.42269736  1
  Tb  Tb1  1  0.84889504  0.75000100  0.92269833  1
  Tb  Tb2  1  0.34884214  0.24999900  0.57729620  1
  Tb  Tb3  1  0.15111758  0.24999900  0.07729113  1
  Tb  Tb4  1  0.61152338  0.98994457  0.14873699  1
  Tb  Tb5  1  0.88848485  0.51007059  0.64874511  1
  Tb  Tb6  1  0.38848317  0.49004605  0.85125848  1
  Tb  Tb7  1  0.11150437  0.00996720  0.35125371  1
  Tb  Tb8  1  0.38848317  0.00995295  0.85125748  1
  Tb  Tb9  1  0.11150437  0.49003180  0.35125371  1
  Tb  Tb10  1  0.61152338  0.51005543  0.14873699  1
  Tb  Tb11  1  0.88848485  0.98992941  0.64874511  1
  Ga  Ga0  1  0.62823417  0.44573790  0.41042773  1
  Ga  Ga1  1  0.87176527  0.05427348  0.91039963  1
  Ga  Ga2  1  0.37177921  0.94558769  0.58956835  1
  Ga  Ga3  1  0.12824003  0.55442857  0.08960003  1
  Ga  Ga4  1  0.37178021  0.55441231  0.58956835  1
  Ga  Ga5  1  0.12824003  0.94557043  0.08960103  1
  Ga  Ga6  1  0.62823417  0.05426310  0.41042673  1
  Ga  Ga7  1  0.87176627  0.44572752  0.91039963  1
  Ga  Ga8  1  0.32228517  0.74999900  0.24631476  1
  Ga  Ga9  1  0.17770792  0.74999900  0.74624045  1
  Ga  Ga10  1  0.67772349  0.25000100  0.75368077  1
  Ga  Ga11  1  0.82227613  0.25000100  0.25375543  1
  Ga  Ga12  1  0.13086145  0.74999900  0.49603305  1
  Ga  Ga13  1  0.36913925  0.74999900  0.99603446  1
  Ga  Ga14  1  0.86904727  0.25000100  0.50396740  1
  Ga  Ga15  1  0.63093661  0.25000100  0.00395255  1
  Ga  Ga16  1  0.90599998  0.74999900  0.19675454  1
  Ga  Ga17  1  0.59402044  0.74999900  0.69669290  1
  Ga  Ga18  1  0.09395879  0.25000100  0.80326754  1
  Ga  Ga19  1  0.40602125  0.25000100  0.30333906  1
loop_
_geom_bond_atom_site_label_1
_geom_bond_atom_site_label_2
_geom_bond_distance
_geom_bond_site_symmetry_2
Ga0 Ga14 2.622591 1_555
Ga0 Ga19 2.629127 1_555
Ga0 Ga4 2.786576 1_555
Ga0 Ga11 2.861540 1_555
Ga0 Tb0 2.940506 1_555
Ga0 Tb10 3.061648 1_555
Ga0 Tb9 3.061939 1_655
Ga0 Tb2 3.183093 1_555
Ga0 Tb5 3.219335 1_555
Ga0 Tb9 3.259878 1_555
Ga1 Ga15 2.622634 1_556
Ga1 Ga18 2.629223 1_655
Ga1 Ga5 2.787278 1_646
Ga1 Ga10 2.861823 1_555
Ga1 Tb1 2.940602 1_545
Ga1 Tb11 3.061295 1_545
Ga1 Tb8 3.061974 1_555
Ga1 Tb3 3.183060 1_656
Ga1 Tb4 3.219477 1_546
Ga1 Tb8 3.259757 1_655
Ga2 Ga6 2.786590 1_565
Ga2 Ga9 2.860669 1_555
Ga2 Tb2 2.941943 1_565
Ga2 Tb8 3.061722 1_565
Ga2 Tb11 3.062153 1_455
Ga2 Tb0 3.182128 1_555
Ga2 Tb7 3.219468 1_565
Ga2 Tb11 3.259802 1_555
Ga3 Ga7 2.787260 1_454
Ga3 Ga8 2.860804 1_555
Ga3 Tb3 2.942121 1_555
Ga3 Tb9 3.061391 1_555
Ga3 Tb10 3.062039 1_555
Ga3 Tb1 3.182230 1_454
Ga3 Tb6 3.219621 1_554
Ga3 Tb10 3.259803 1_455
Ga4 Ga9 2.860660 1_555
Ga4 Tb2 2.941963 1_555
Ga4 Tb6 3.061734 1_555
Ga4 Tb5 3.062159 1_455
Ga4 Tb0 3.182135 1_555
Ga4 Tb9 3.219474 1_555
Ga4 Tb5 3.259796 1_555
Ga5 Ga8 2.860802 1_555
Ga5 Tb3 2.942112 1_565
Ga5 Tb7 3.061380 1_565
Ga5 Tb4 3.062037 1_555
Ga5 Tb1 3.182221 1_454
Ga5 Tb8 3.219640 1_564
Ga5 Tb4 3.259802 1_455
Ga6 Tb0 2.940497 1_545
Ga6 Tb4 3.061639 1_545
Ga6 Tb7 3.061939 1_655
Ga6 Tb2 3.183085 1_555
Ga6 Tb11 3.219346 1_545
Ga6 Tb7 3.259879 1_555
Ga7 Tb1 2.940612 1_555
Ga7 Tb5 3.061292 1_555
Ga7 Tb6 3.061974 1_555
Ga7 Tb3 3.183073 1_656
Ga7 Tb10 3.219478 1_556
Ga7 Tb6 3.259746 1_655
Ga8 Tb0 2.850118 1_555
Ga8 Tb9 3.064107 1_555
Ga8 Tb7 3.064116 1_565
Ga8 Tb10 3.119247 1_555
Ga8 Tb4 3.119260 1_555
Ga9 Tb1 2.850543 1_455
Ga9 Tb6 3.064343 1_555
Ga9 Tb8 3.064347 1_565
Ga9 Tb5 3.118757 1_455
Ga9 Tb11 3.118770 1_455
Ga10 Ga18 2.607957 1_655
Ga10 Tb2 2.850263 1_555
Ga10 Ga7 2.861820 1_555
Ga10 Ga15 2.879931 1_556
Ga10 Tb5 3.064850 1_555
Ga10 Tb11 3.064867 1_545
Ga10 Ga14 3.089401 1_555
Ga10 Tb6 3.119980 1_555
Ga10 Tb8 3.119996 1_555
Ga11 Ga19 2.608059 1_555
Ga11 Tb3 2.850718 1_655
Ga11 Ga6 2.861538 1_555
Ga11 Ga14 2.879244 1_555
Ga11 Tb10 3.065087 1_555
Ga11 Tb4 3.065104 1_545
Ga11 Ga15 3.090401 1_555
Ga11 Tb9 3.119519 1_655
Ga11 Tb7 3.119540 1_655
Ga12 Ga4 2.621891 1_555
Ga12 Ga2 2.621902 1_555
Ga12 Ga9 2.879238 1_555
Ga12 Tb9 3.007608 1_555
Ga12 Tb7 3.007614 1_565
Ga12 Tb0 3.051472 1_455
Ga12 Ga8 3.089685 1_555
Ga12 Tb5 3.256781 1_455
Ga12 Tb11 3.256796 1_455
Ga12 Tb0 3.290570 1_555
Ga13 Ga3 2.621844 1_556
Ga13 Ga5 2.621857 1_556
Ga13 Ga8 2.880069 1_556
Ga13 Tb6 3.007468 1_555
Ga13 Tb8 3.007481 1_565
Ga13 Tb1 3.051644 1_555
Ga13 Ga9 3.090520 1_555
Ga13 Tb10 3.256858 1_556
Ga13 Tb4 3.256873 1_556
Ga13 Tb1 3.290400 1_455
Ga14 Ga6 2.622603 1_555
Ga14 Tb5 3.008440 1_555
Ga14 Tb11 3.008455 1_545
Ga14 Tb2 3.051861 1_655
Ga14 Tb9 3.257716 1_655
Ga14 Tb7 3.257738 1_655
Ga14 Tb2 3.290136 1_555
Ga15 Ga7 2.622629 1_554
Ga15 Tb10 3.008354 1_555
Ga15 Tb4 3.008368 1_545
Ga15 Tb3 3.052023 1_555
Ga15 Tb6 3.257694 1_554
Ga15 Tb8 3.257722 1_554
Ga15 Tb3 3.290033 1_655
Ga16 Ga8 2.608189 1_655
Ga16 Ga3 2.628404 1_655
Ga16 Ga5 2.628405 1_655
Ga16 Tb10 2.982958 1_555
Ga16 Tb4 2.982973 1_555
Ga16 Tb0 3.020299 1_555
Ga16 Tb1 3.157398 1_554
Ga16 Tb9 3.315485 1_655
Ga16 Tb7 3.315494 1_665
Ga17 Ga9 2.608313 1_555
Ga17 Ga4 2.628366 1_555
Ga17 Ga2 2.628382 1_555
Ga17 Tb5 2.982648 1_555
Ga17 Tb11 2.982663 1_555
Ga17 Tb1 3.020967 1_555
Ga17 Tb0 3.156710 1_555
Ga17 Tb6 3.315854 1_555
Ga17 Tb8 3.315856 1_565
Ga18 Ga7 2.629214 1_455
Ga18 Tb6 2.983837 1_555
Ga18 Tb8 2.983857 1_555
Ga18 Tb2 3.020642 1_555
Ga18 Tb3 3.157063 1_556
Ga18 Tb5 3.316303 1_455
Ga18 Tb11 3.316319 1_445
Ga19 Ga6 2.629128 1_555
Ga19 Tb9 2.983538 1_555
Ga19 Tb7 2.983560 1_555
Ga19 Tb3 3.021476 1_555
Ga19 Tb2 3.156316 1_555
Ga19 Tb10 3.316735 1_555
Ga19 Tb4 3.316751 1_545
