# generated using pymatgen
data_ZnSnP2O7
_symmetry_space_group_name_H-M   'P 1'
_cell_length_a   9.28987100
_cell_length_b   7.23991500
_cell_length_c   9.33969385
_cell_angle_alpha   69.86251411
_cell_angle_beta   90.00000000
_cell_angle_gamma   90.00000000
_symmetry_Int_Tables_number   1
_chemical_formula_structural   ZnSnP2O7
_chemical_formula_sum   'Zn4 Sn4 P8 O28'
_cell_volume   589.76757095
_cell_formula_units_Z   4
loop_
 _symmetry_equiv_pos_site_id
 _symmetry_equiv_pos_as_xyz
  1  'x, y, z'
loop_
 _atom_site_type_symbol
 _atom_site_label
 _atom_site_symmetry_multiplicity
 _atom_site_fract_x
 _atom_site_fract_y
 _atom_site_fract_z
 _atom_site_occupancy
  Zn  Zn0  1  0.94485400  0.30176700  0.80364600  1
  Zn  Zn1  1  0.44485400  0.69823300  0.69635400  1
  Zn  Zn2  1  0.55514600  0.30176700  0.30364600  1
  Zn  Zn3  1  0.05514600  0.69823300  0.19635400  1
  Sn  Sn0  1  0.08697300  0.76983100  0.58192400  1
  Sn  Sn1  1  0.91302700  0.23016900  0.41807600  1
  Sn  Sn2  1  0.58697300  0.23016900  0.91807600  1
  Sn  Sn3  1  0.41302700  0.76983100  0.08192400  1
  P  P0  1  0.75235100  0.90753100  0.26968800  1
  P  P1  1  0.21082900  0.48451700  0.96130900  1
  P  P2  1  0.74764900  0.90753100  0.76968800  1
  P  P3  1  0.28917100  0.48451700  0.46130900  1
  P  P4  1  0.25235100  0.09246900  0.23031200  1
  P  P5  1  0.71082900  0.51548300  0.53869100  1
  P  P6  1  0.78917100  0.51548300  0.03869100  1
  P  P7  1  0.24764900  0.09246900  0.73031200  1
  O  O0  1  0.19083000  0.26721200  0.08099300  1
  O  O1  1  0.59005900  0.86418700  0.74712200  1
  O  O2  1  0.90994100  0.86418700  0.24712200  1
  O  O3  1  0.36483600  0.51262500  0.89779100  1
  O  O4  1  0.80917000  0.73278800  0.91900700  1
  O  O5  1  0.15053500  0.07956600  0.36009300  1
  O  O6  1  0.63516400  0.48737500  0.10220900  1
  O  O7  1  0.09545700  0.50160900  0.83955600  1
  O  O8  1  0.31121400  0.63232100  0.54685500  1
  O  O9  1  0.84946500  0.92043400  0.63990700  1
  O  O10  1  0.34946500  0.07956600  0.86009300  1
  O  O11  1  0.76084700  0.09480800  0.81457000  1
  O  O12  1  0.26084700  0.90519200  0.68543000  1
  O  O13  1  0.30917000  0.26721200  0.58099300  1
  O  O14  1  0.65053500  0.92043400  0.13990700  1
  O  O15  1  0.09005900  0.13581300  0.75287800  1
  O  O16  1  0.23915300  0.90519200  0.18543000  1
  O  O17  1  0.90454300  0.49839100  0.16044400  1
  O  O18  1  0.18878600  0.63232100  0.04685500  1
  O  O19  1  0.81121400  0.36767900  0.95314500  1
  O  O20  1  0.86483600  0.48737500  0.60220900  1
  O  O21  1  0.40454300  0.50160900  0.33955600  1
  O  O22  1  0.59545700  0.49839100  0.66044400  1
  O  O23  1  0.40994100  0.13581300  0.25287800  1
  O  O24  1  0.73915300  0.09480800  0.31457000  1
  O  O25  1  0.13516400  0.51262500  0.39779100  1
  O  O26  1  0.68878600  0.36767900  0.45314500  1
  O  O27  1  0.69083000  0.73278800  0.41900700  1
loop_
_geom_bond_atom_site_label_1
_geom_bond_atom_site_label_2
_geom_bond_distance
_geom_bond_site_symmetry_2
O0 P1 1.596341 1_554
O0 P4 1.630104 1_555
O1 P2 1.526991 1_555
O1 Zn1 1.969848 1_555
O2 P0 1.526991 1_555
O2 Zn3 1.969848 1_655
O3 P1 1.535297 1_555
O3 Zn1 2.038898 1_555
O4 P6 1.596341 1_556
O4 P2 1.630104 1_555
O5 P4 1.514804 1_555
O5 Sn0 2.543773 1_545
O5 Sn1 2.599421 1_455
O6 P6 1.535297 1_555
O6 Zn2 2.038898 1_555
O7 P1 1.536307 1_555
O7 Zn0 2.120703 1_455
O7 Sn0 2.519861 1_555
O8 P3 1.553728 1_555
O8 Zn1 2.043868 1_555
O8 Sn0 2.379609 1_555
O9 P2 1.514804 1_555
O9 Sn1 2.543773 1_565
O9 Sn0 2.599421 1_655
O10 P7 1.514804 1_555
O10 Sn3 2.543773 1_546
O10 Sn2 2.599421 1_555
O11 P2 1.555787 1_545
O11 Zn0 2.252177 1_555
O11 Sn2 2.270759 1_555
O12 P7 1.555787 1_565
O12 Zn1 2.252177 1_555
O12 Sn0 2.270759 1_555
O13 P3 1.596341 1_555
O13 P7 1.630104 1_555
O14 P0 1.514804 1_555
O14 Sn2 2.543773 1_564
O14 Sn3 2.599421 1_555
O15 P7 1.526991 1_555
O15 Zn0 1.969848 1_455
O16 P4 1.555787 1_565
O16 Zn3 2.252177 1_555
O16 Sn3 2.270759 1_555
O17 P6 1.536307 1_555
O17 Zn3 2.120703 1_655
O17 Sn1 2.519861 1_555
O18 P1 1.553728 1_554
O18 Zn3 2.043868 1_555
O18 Sn3 2.379609 1_555
O19 P6 1.553728 1_556
O19 Zn0 2.043868 1_555
O19 Sn2 2.379609 1_555
O20 P5 1.535297 1_555
O20 Zn0 2.038898 1_555
O21 P3 1.536307 1_555
O21 Zn2 2.120703 1_555
O21 Sn3 2.519861 1_555
O22 P5 1.536307 1_555
O22 Zn1 2.120703 1_555
O22 Sn2 2.519861 1_555
O23 P4 1.526991 1_555
O23 Zn2 1.969848 1_555
O24 P0 1.555787 1_545
O24 Zn2 2.252177 1_555
O24 Sn1 2.270759 1_555
O25 P3 1.535297 1_555
O25 Zn3 2.038898 1_555
O26 P5 1.553728 1_555
O26 Zn2 2.043868 1_555
O26 Sn1 2.379609 1_555
O27 P5 1.596341 1_555
O27 P0 1.630104 1_555
