# generated using pymatgen
data_Mg15Sb
_symmetry_space_group_name_H-M   'P 1'
_cell_length_a   6.35500698
_cell_length_b   6.35500698
_cell_length_c   10.28902797
_cell_angle_alpha   90.00000000
_cell_angle_beta   90.00000000
_cell_angle_gamma   120.00011831
_symmetry_Int_Tables_number   1
_chemical_formula_structural   Mg15Sb
_chemical_formula_sum   'Mg15 Sb1'
_cell_volume   359.86244483
_cell_formula_units_Z   1
loop_
 _symmetry_equiv_pos_site_id
 _symmetry_equiv_pos_as_xyz
  1  'x, y, z'
loop_
 _atom_site_type_symbol
 _atom_site_label
 _atom_site_symmetry_multiplicity
 _atom_site_fract_x
 _atom_site_fract_y
 _atom_site_fract_z
 _atom_site_occupancy
  Mg  Mg0  1  -0.00000000  -0.00000000  -0.00000000  1
  Mg  Mg1  1  0.99910311  0.49955156  0.50000000  1
  Mg  Mg2  1  0.00078203  0.50039052  -0.00000000  1
  Mg  Mg3  1  0.50044844  0.49955156  0.50000000  1
  Mg  Mg4  1  0.49960948  0.50039052  -0.00000000  1
  Mg  Mg5  1  0.50044844  0.00089689  0.50000000  1
  Mg  Mg6  1  0.49960948  0.99921797  0.00000000  1
  Mg  Mg7  1  0.16736149  0.33472198  0.24969238  1
  Mg  Mg8  1  0.16736149  0.33472198  0.75030762  1
  Mg  Mg9  1  0.16736149  0.83263851  0.24969238  1
  Mg  Mg10  1  0.16736149  0.83263851  0.75030762  1
  Mg  Mg11  1  0.66527802  0.83263851  0.24969238  1
  Mg  Mg12  1  0.66527802  0.83263851  0.75030762  1
  Mg  Mg13  1  0.66666700  0.33333300  0.24964229  1
  Mg  Mg14  1  0.66666700  0.33333300  0.75035771  1
  Sb  Sb0  1  -0.00000000  -0.00000000  0.50000000  1
loop_
_geom_bond_atom_site_label_1
_geom_bond_atom_site_label_2
_geom_bond_distance
_geom_bond_site_symmetry_2
Mg0 Mg12 3.161303 1_444
Mg0 Mg8 3.161303 1_554
Mg0 Mg11 3.161303 1_445
Mg0 Mg7 3.161303 1_555
Mg0 Mg10 3.161308 1_544
Mg0 Mg9 3.161308 1_545
Mg0 Mg4 3.177501 1_445
Mg0 Mg4 3.177501 1_555
Mg0 Mg2 3.177503 1_555
Mg0 Mg6 3.177503 1_445
Mg0 Mg2 3.177510 1_545
Mg0 Mg6 3.177510 1_545
Mg1 Mg13 3.159567 1_555
Mg1 Mg14 3.159567 1_555
Mg1 Mg9 3.161241 1_655
Mg1 Mg10 3.161241 1_655
Mg1 Mg7 3.161246 1_655
Mg1 Mg8 3.161246 1_655
Mg1 Mg5 3.168948 1_555
Mg1 Mg3 3.168954 1_555
Mg1 Sb0 3.177507 1_665
Mg1 Sb0 3.177507 1_655
Mg1 Mg5 3.186047 1_665
Mg1 Mg3 3.186053 1_655
Mg2 Mg9 3.153389 1_555
Mg2 Mg8 3.153391 1_554
Mg2 Mg7 3.153391 1_555
Mg2 Mg6 3.170046 1_555
Mg2 Mg4 3.170052 1_555
Mg2 Mg6 3.184949 1_445
Mg2 Mg4 3.184955 1_455
Mg3 Mg7 3.161241 1_555
Mg3 Mg8 3.161241 1_555
Mg3 Mg5 3.168954 1_555
Mg3 Sb0 3.177502 1_555
Mg3 Sb0 3.177502 1_665
Mg3 Mg5 3.186053 1_565
Mg4 Mg8 3.153389 1_554
Mg4 Mg7 3.153389 1_555
Mg4 Mg6 3.170052 1_555
Mg4 Mg6 3.184955 1_545
Mg5 Mg9 3.161241 1_545
Mg5 Sb0 3.177507 1_555
Mg5 Sb0 3.177507 1_655
Mg6 Mg9 3.153389 1_555
Mg7 Mg9 3.164263 1_555
Mg7 Sb0 3.166449 1_555
Mg7 Mg9 3.190744 1_545
Mg8 Sb0 3.166449 1_555
Mg9 Sb0 3.166454 1_565
Mg10 Mg2 3.153389 1_556
Mg10 Mg6 3.153389 1_556
Mg10 Mg5 3.161241 1_565
Mg10 Mg8 3.164263 1_555
Mg10 Mg12 3.164263 1_555
Mg10 Sb0 3.166454 1_565
Mg10 Mg14 3.177507 1_455
Mg10 Mg14 3.177507 1_565
Mg10 Mg12 3.190744 1_455
Mg10 Mg8 3.190744 1_565
Mg11 Mg4 3.153389 1_555
Mg11 Mg6 3.153391 1_555
Mg11 Mg3 3.161241 1_555
Mg11 Mg5 3.161246 1_565
Mg11 Mg7 3.164257 1_555
Mg11 Mg9 3.164263 1_555
Mg11 Sb0 3.166449 1_665
Mg11 Mg13 3.177513 1_565
Mg11 Mg13 3.177513 1_555
Mg11 Mg7 3.190738 1_665
Mg11 Mg9 3.190744 1_655
Mg12 Mg4 3.153389 1_556
Mg12 Mg6 3.153391 1_556
Mg12 Mg3 3.161241 1_555
Mg12 Mg5 3.161246 1_565
Mg12 Mg8 3.164257 1_555
Mg12 Sb0 3.166449 1_665
Mg12 Mg14 3.177513 1_565
Mg12 Mg14 3.177513 1_555
Mg12 Mg8 3.190738 1_665
Mg13 Mg2 3.158938 1_655
Mg13 Mg6 3.158938 1_545
Mg13 Mg4 3.158940 1_555
Mg13 Mg5 3.159567 1_555
Mg13 Mg3 3.159572 1_555
Mg13 Mg9 3.177507 1_655
Mg13 Mg9 3.177507 1_545
Mg13 Mg7 3.177513 1_655
Mg13 Mg7 3.177513 1_555
Mg14 Mg6 3.158938 1_546
Mg14 Mg2 3.158938 1_656
Mg14 Mg4 3.158940 1_556
Mg14 Mg5 3.159567 1_555
Mg14 Mg3 3.159572 1_555
Mg14 Mg8 3.177513 1_655
Mg14 Mg8 3.177513 1_555
