# generated using pymatgen
data_Mg6ZnBi
_symmetry_space_group_name_H-M   'P 1'
_cell_length_a   5.30409800
_cell_length_b   6.41551000
_cell_length_c   10.82309000
_cell_angle_alpha   90.00000000
_cell_angle_beta   90.00000000
_cell_angle_gamma   90.00000000
_symmetry_Int_Tables_number   1
_chemical_formula_structural   Mg6ZnBi
_chemical_formula_sum   'Mg12 Zn2 Bi2'
_cell_volume   368.29345053
_cell_formula_units_Z   2
loop_
 _symmetry_equiv_pos_site_id
 _symmetry_equiv_pos_as_xyz
  1  'x, y, z'
loop_
 _atom_site_type_symbol
 _atom_site_label
 _atom_site_symmetry_multiplicity
 _atom_site_fract_x
 _atom_site_fract_y
 _atom_site_fract_z
 _atom_site_occupancy
  Mg  Mg0  1  0.50000000  0.24943700  0.58384200  1
  Mg  Mg1  1  0.50000000  0.75056300  0.58384200  1
  Mg  Mg2  1  0.00000000  0.25721600  0.41664500  1
  Mg  Mg3  1  0.00000000  0.74278400  0.41664500  1
  Mg  Mg4  1  0.00000000  0.00000000  0.66859100  1
  Mg  Mg5  1  0.00000000  0.00000000  0.16447100  1
  Mg  Mg6  1  0.50000000  0.74943700  0.08384200  1
  Mg  Mg7  1  0.50000000  0.25056300  0.08384200  1
  Mg  Mg8  1  0.00000000  0.75721600  0.91664500  1
  Mg  Mg9  1  0.00000000  0.24278400  0.91664500  1
  Mg  Mg10  1  0.00000000  0.50000000  0.16859100  1
  Mg  Mg11  1  0.00000000  0.50000000  0.66447100  1
  Zn  Zn0  1  0.50000000  0.00000000  0.83218600  1
  Zn  Zn1  1  0.50000000  0.50000000  0.33218600  1
  Bi  Bi0  1  0.50000000  0.00000000  0.33378300  1
  Bi  Bi1  1  0.50000000  0.50000000  0.83378300  1
loop_
_geom_bond_atom_site_label_1
_geom_bond_atom_site_label_2
_geom_bond_distance
_geom_bond_site_symmetry_2
Mg0 Zn0 3.128160 1_555
Mg0 Zn1 3.162679 1_555
Mg0 Mg1 3.200531 1_545
Mg0 Mg2 3.210991 1_555
Mg0 Mg2 3.210991 1_655
Mg0 Mg1 3.214979 1_555
Mg0 Mg11 3.221632 1_555
Mg0 Mg11 3.221632 1_655
Mg0 Mg4 3.230411 1_555
Mg0 Mg4 3.230411 1_655
Mg1 Zn0 3.128160 1_565
Mg1 Zn1 3.162679 1_555
Mg1 Mg3 3.210991 1_655
Mg1 Mg3 3.210991 1_555
Mg1 Mg11 3.221632 1_555
Mg1 Mg11 3.221632 1_655
Mg1 Mg4 3.230411 1_565
Mg1 Mg4 3.230411 1_665
Mg2 Mg3 3.115166 1_555
Mg2 Mg4 3.187270 1_555
Mg2 Mg5 3.189382 1_555
Mg2 Zn1 3.208586 1_455
Mg2 Zn1 3.208586 1_555
Mg2 Mg3 3.300344 1_545
Mg3 Mg4 3.187270 1_565
Mg3 Mg5 3.189382 1_565
Mg3 Zn1 3.208586 1_455
Mg3 Zn1 3.208586 1_555
Mg4 Mg8 3.103826 1_545
Mg4 Mg9 3.103826 1_555
Mg4 Zn0 3.188793 1_455
Mg4 Zn0 3.188793 1_555
Mg5 Mg9 3.101692 1_554
Mg5 Mg8 3.101692 1_544
Mg5 Mg6 3.221632 1_445
Mg5 Mg7 3.221632 1_455
Mg5 Mg7 3.221632 1_555
Mg5 Mg6 3.221632 1_545
Mg6 Zn1 3.128160 1_555
Mg6 Zn0 3.162679 1_564
Mg6 Mg7 3.200531 1_555
Mg6 Mg8 3.210991 1_654
Mg6 Mg8 3.210991 1_554
Mg6 Mg7 3.214979 1_565
Mg7 Zn1 3.128160 1_555
Mg7 Zn0 3.162679 1_554
Mg7 Mg9 3.210991 1_554
Mg7 Mg9 3.210991 1_654
Mg8 Mg9 3.115166 1_565
Mg8 Zn0 3.208586 1_565
Mg8 Zn0 3.208586 1_465
Mg8 Mg9 3.300344 1_555
Mg9 Zn0 3.208586 1_455
Mg9 Zn0 3.208586 1_555
Mg10 Mg2 3.103826 1_555
Mg10 Mg3 3.103826 1_555
Mg10 Mg8 3.187270 1_554
Mg10 Mg9 3.187270 1_554
Mg10 Zn1 3.188793 1_555
Mg10 Zn1 3.188793 1_455
Mg10 Mg5 3.208065 1_565
Mg10 Mg5 3.208065 1_555
Mg10 Mg7 3.230411 1_455
Mg10 Mg6 3.230411 1_455
Mg10 Mg7 3.230411 1_555
Mg10 Mg6 3.230411 1_555
Mg11 Mg3 3.101692 1_555
Mg11 Mg2 3.101692 1_555
Mg11 Mg9 3.189382 1_555
Mg11 Mg8 3.189382 1_555
Mg11 Mg4 3.208065 1_555
Mg11 Mg4 3.208065 1_565
Bi0 Mg1 3.144123 1_545
Bi0 Mg0 3.144123 1_555
Bi0 Mg6 3.146708 1_545
Bi0 Mg7 3.146708 1_555
Bi0 Zn1 3.207802 1_555
Bi0 Zn1 3.207802 1_545
Bi0 Mg5 3.223561 1_555
Bi0 Mg5 3.223561 1_655
Bi0 Mg2 3.249726 1_555
Bi0 Mg3 3.249726 1_645
Bi0 Mg2 3.249726 1_655
Bi0 Mg3 3.249726 1_545
Bi1 Mg6 3.144123 1_556
Bi1 Mg7 3.144123 1_556
Bi1 Mg1 3.146708 1_555
Bi1 Mg0 3.146708 1_555
Bi1 Zn0 3.207802 1_565
Bi1 Zn0 3.207802 1_555
Bi1 Mg11 3.223561 1_655
Bi1 Mg11 3.223561 1_555
Bi1 Mg9 3.249726 1_555
Bi1 Mg8 3.249726 1_655
Bi1 Mg9 3.249726 1_655
Bi1 Mg8 3.249726 1_555
