# generated using pymatgen
data_Y2Mn3O9
_symmetry_space_group_name_H-M   'P 1'
_cell_length_a   6.05804536
_cell_length_b   6.05804536
_cell_length_c   11.98800300
_cell_angle_alpha   90.00000000
_cell_angle_beta   90.00000000
_cell_angle_gamma   119.99999306
_symmetry_Int_Tables_number   1
_chemical_formula_structural   Y2Mn3O9
_chemical_formula_sum   'Y4 Mn6 O18'
_cell_volume   381.01541567
_cell_formula_units_Z   2
loop_
 _symmetry_equiv_pos_site_id
 _symmetry_equiv_pos_as_xyz
  1  'x, y, z'
loop_
 _atom_site_type_symbol
 _atom_site_label
 _atom_site_symmetry_multiplicity
 _atom_site_fract_x
 _atom_site_fract_y
 _atom_site_fract_z
 _atom_site_occupancy
  Y  Y0  1  0.66666700  0.33333300  0.22948100  1
  Y  Y1  1  0.33333300  0.66666700  0.72948100  1
  Y  Y2  1  0.00000000  0.00000000  0.77574400  1
  Y  Y3  1  0.00000000  0.00000000  0.27574500  1
  Mn  Mn0  1  0.66954100  0.00547500  0.50270100  1
  Mn  Mn1  1  0.66406600  0.66954100  0.00270100  1
  Mn  Mn2  1  0.00547500  0.33593400  0.00270100  1
  Mn  Mn3  1  0.99452500  0.66406600  0.50270100  1
  Mn  Mn4  1  0.33593400  0.33045900  0.50270100  1
  Mn  Mn5  1  0.33045900  0.99452500  0.00270100  1
  O  O0  1  0.66666700  0.33333300  0.01470000  1
  O  O1  1  0.33333300  0.66666700  0.51470000  1
  O  O2  1  0.66666700  0.33333300  0.52165400  1
  O  O3  1  0.33333300  0.66666700  0.02165400  1
  O  O4  1  0.00000000  0.00000000  0.97722900  1
  O  O5  1  0.00000000  0.00000000  0.47722900  1
  O  O6  1  0.33197500  0.95993100  0.84934800  1
  O  O7  1  0.37204400  0.33197500  0.34934800  1
  O  O8  1  0.95993100  0.62795600  0.34934800  1
  O  O9  1  0.04006900  0.37204400  0.84934800  1
  O  O10  1  0.62795600  0.66802500  0.84934800  1
  O  O11  1  0.66802500  0.04006900  0.34934800  1
  O  O12  1  0.29961800  0.02090200  0.15566700  1
  O  O13  1  0.27871500  0.29961800  0.65566700  1
  O  O14  1  0.02090200  0.72128500  0.65566700  1
  O  O15  1  0.97909800  0.27871500  0.15566700  1
  O  O16  1  0.72128500  0.70038200  0.15566700  1
  O  O17  1  0.70038200  0.97909800  0.65566700  1
loop_
_geom_bond_atom_site_label_1
_geom_bond_atom_site_label_2
_geom_bond_distance
_geom_bond_site_symmetry_2
Mn0 O11 1.850846 1_555
Mn0 O17 1.858214 1_545
Mn0 O2 2.007838 1_555
Mn0 O5 2.041688 1_655
Mn0 O1 2.049738 1_545
Mn1 O10 1.850846 1_554
Mn1 O16 1.858215 1_555
Mn1 O3 2.007844 1_555
Mn1 O4 2.041688 1_664
Mn1 O0 2.049741 1_555
Mn2 O9 1.850846 1_554
Mn2 O15 1.858215 1_455
Mn2 O3 2.007841 1_555
Mn2 O4 2.041688 1_554
Mn2 O0 2.049735 1_455
Mn3 O8 1.850846 1_555
Mn3 O14 1.858215 1_655
Mn3 O2 2.007841 1_555
Mn3 O5 2.041688 1_665
Mn3 O1 2.049735 1_655
Mn4 O7 1.850846 1_555
Mn4 O13 1.858215 1_555
Mn4 O2 2.007844 1_555
Mn4 O5 2.041688 1_555
Mn4 O1 2.049741 1_555
Mn5 O6 1.850846 1_554
Mn5 O12 1.858214 1_565
Mn5 O3 2.007838 1_555
Mn5 O4 2.041688 1_564
Mn5 O0 2.049738 1_565
O0 Y0 2.574795 1_555
O1 Y1 2.574795 1_555
O4 Y2 2.415403 1_555
O5 Y3 2.415391 1_555
O6 Y1 2.288206 1_555
O6 Y2 2.317385 1_565
O7 Y0 2.288211 1_555
O7 Y3 2.317380 1_555
O8 Y0 2.288208 1_555
O8 Y3 2.317380 1_665
O9 Y1 2.288208 1_555
O9 Y2 2.317385 1_555
O10 Y1 2.288211 1_555
O10 Y2 2.317385 1_665
O11 Y0 2.288206 1_555
O11 Y3 2.317380 1_655
O12 Y0 2.258573 1_555
O12 Y3 2.270007 1_555
O13 Y1 2.258573 1_555
O13 Y2 2.269997 1_555
O14 Y1 2.258573 1_555
O14 Y2 2.269994 1_565
O15 Y0 2.258573 1_555
O15 Y3 2.270002 1_655
O16 Y0 2.258573 1_555
O16 Y3 2.270005 1_665
O17 Y1 2.258573 1_555
O17 Y2 2.269999 1_665
