# generated using pymatgen
data_SnP
_symmetry_space_group_name_H-M   'P 1'
_cell_length_a   4.13247145
_cell_length_b   4.13247145
_cell_length_c   6.87646681
_cell_angle_alpha   90.00000000
_cell_angle_beta   90.00000000
_cell_angle_gamma   119.99998452
_symmetry_Int_Tables_number   1
_chemical_formula_structural   SnP
_chemical_formula_sum   'Sn2 P2'
_cell_volume   101.69878747
_cell_formula_units_Z   2
loop_
 _symmetry_equiv_pos_site_id
 _symmetry_equiv_pos_as_xyz
  1  'x, y, z'
loop_
 _atom_site_type_symbol
 _atom_site_label
 _atom_site_symmetry_multiplicity
 _atom_site_fract_x
 _atom_site_fract_y
 _atom_site_fract_z
 _atom_site_occupancy
  Sn  Sn0  1  0.33333300  0.66666700  0.66718395  1
  Sn  Sn1  1  0.66666700  0.33333300  0.33281605  1
  P  P0  1  -0.00000000  0.00000000  0.84196636  1
  P  P1  1  0.00000000  0.00000000  0.15803364  1
loop_
_geom_bond_atom_site_label_1
_geom_bond_atom_site_label_2
_geom_bond_distance
_geom_bond_site_symmetry_2
P0 P1 2.173426 1_556
P0 Sn0 2.671508 1_545
P0 Sn0 2.671512 1_445
P0 Sn0 2.671512 1_555
P1 Sn1 2.671508 1_455
P1 Sn1 2.671512 1_555
P1 Sn1 2.671512 1_445
