# generated using pymatgen
data_Sr2ZnGe
_symmetry_space_group_name_H-M   'P 1'
_cell_length_a   12.57223764
_cell_length_b   12.58430464
_cell_length_c   12.58430381
_cell_angle_alpha   60.23911026
_cell_angle_beta   60.03171421
_cell_angle_gamma   60.03171497
_symmetry_Int_Tables_number   1
_chemical_formula_structural   Sr2ZnGe
_chemical_formula_sum   'Sr2 Zn1 Ge1'
_cell_volume   1411.05336160
_cell_formula_units_Z   1
loop_
 _symmetry_equiv_pos_site_id
 _symmetry_equiv_pos_as_xyz
  1  'x, y, z'
loop_
 _atom_site_type_symbol
 _atom_site_label
 _atom_site_symmetry_multiplicity
 _atom_site_fract_x
 _atom_site_fract_y
 _atom_site_fract_z
 _atom_site_occupancy
  Sr  Sr0  1  0.72921459  1.00000000  1.00000000  1
  Sr  Sr1  1  0.27078541  0.00000000  0.00000000  1
  Zn  Zn0  1  -0.00000000  0.00000000  0.00000000  1
  Ge  Ge0  1  0.50000000  0.00000000  0.00000000  1
loop_
_geom_bond_atom_site_label_1
_geom_bond_atom_site_label_2
_geom_bond_distance
_geom_bond_site_symmetry_2
Sr0 Zn0 3.404379 1_666
Sr1 Zn0 3.404379 1_555
Ge0 Sr1 2.881740 1_555
Ge0 Sr0 2.881740 1_544
