# generated using pymatgen
data_LiMn4O8
_symmetry_space_group_name_H-M   'P 1'
_cell_length_a   5.70675454
_cell_length_b   5.70675454
_cell_length_c   9.48908300
_cell_angle_alpha   90.00000000
_cell_angle_beta   90.00000000
_cell_angle_gamma   117.58736951
_symmetry_Int_Tables_number   1
_chemical_formula_structural   LiMn4O8
_chemical_formula_sum   'Li2 Mn8 O16'
_cell_volume   273.89630135
_cell_formula_units_Z   2
loop_
 _symmetry_equiv_pos_site_id
 _symmetry_equiv_pos_as_xyz
  1  'x, y, z'
loop_
 _atom_site_type_symbol
 _atom_site_label
 _atom_site_symmetry_multiplicity
 _atom_site_fract_x
 _atom_site_fract_y
 _atom_site_fract_z
 _atom_site_occupancy
  Li  Li0  1  0.87339500  0.12660500  0.07501900  1
  Li  Li1  1  0.12660500  0.87339500  0.57501900  1
  Mn  Mn0  1  0.37516900  0.13495400  0.86354900  1
  Mn  Mn1  1  0.86504600  0.62483100  0.86354900  1
  Mn  Mn2  1  0.61755500  0.38244500  0.13888800  1
  Mn  Mn3  1  0.14507200  0.85492800  0.13980400  1
  Mn  Mn4  1  0.85492800  0.14507200  0.63980400  1
  Mn  Mn5  1  0.38244500  0.61755500  0.63888800  1
  Mn  Mn6  1  0.13495400  0.37516900  0.36354900  1
  Mn  Mn7  1  0.62483100  0.86504600  0.36354900  1
  O  O0  1  0.72203000  0.27797000  0.78802800  1
  O  O1  1  0.22084100  0.77915900  0.77674600  1
  O  O2  1  0.26826300  0.23367700  0.21677600  1
  O  O3  1  0.76632300  0.73173700  0.21677600  1
  O  O4  1  0.23367700  0.26826300  0.71677600  1
  O  O5  1  0.73173700  0.76632300  0.71677600  1
  O  O6  1  0.77915900  0.22084100  0.27674600  1
  O  O7  1  0.27797000  0.72203000  0.28802800  1
  O  O8  1  0.03384900  0.96615100  0.96310800  1
  O  O9  1  0.52116000  0.47884000  0.95982200  1
  O  O10  1  0.95540800  0.50200200  0.03853700  1
  O  O11  1  0.49799800  0.04459200  0.03853700  1
  O  O12  1  0.96615100  0.03384900  0.46310800  1
  O  O13  1  0.47884000  0.52116000  0.45982200  1
  O  O14  1  0.04459200  0.49799800  0.53853700  1
  O  O15  1  0.50200200  0.95540800  0.53853700  1
loop_
_geom_bond_atom_site_label_1
_geom_bond_atom_site_label_2
_geom_bond_distance
_geom_bond_site_symmetry_2
Li0 O8 1.892403 1_644
Li0 O11 1.999918 1_555
Li0 O10 1.999918 1_555
Li0 O6 2.123785 1_555
Li0 O3 2.446498 1_545
Li0 O2 2.446498 1_655
Li1 O12 1.892403 1_465
Li1 O14 1.999918 1_555
Li1 O15 1.999918 1_555
Li1 O1 2.123785 1_555
Li1 O5 2.446498 1_455
Li1 O4 2.446498 1_565
Mn0 O0 1.897780 1_555
Mn0 O4 1.933760 1_555
Mn0 O11 1.961944 1_556
Mn0 O9 1.966121 1_555
Mn0 O8 1.968913 1_545
Mn0 O1 1.980028 1_545
Mn1 O0 1.897780 1_555
Mn1 O5 1.933760 1_555
Mn1 O10 1.961944 1_556
Mn1 O9 1.966121 1_555
Mn1 O8 1.968913 1_655
Mn1 O1 1.980028 1_655
Mn2 O2 1.916494 1_555
Mn2 O3 1.916494 1_555
Mn2 O9 1.942342 1_554
Mn2 O10 1.967545 1_555
Mn2 O11 1.967545 1_555
Mn2 O6 2.049397 1_555
Mn3 O7 1.913480 1_555
Mn3 O8 1.997536 1_554
Mn3 O10 2.032800 1_455
Mn3 O11 2.032800 1_565
Mn3 O3 2.071737 1_455
Mn3 O2 2.071737 1_565
Mn4 O0 1.913480 1_555
Mn4 O12 1.997536 1_555
Mn4 O15 2.032800 1_545
Mn4 O14 2.032800 1_655
Mn4 O5 2.071737 1_545
Mn4 O4 2.071737 1_655
Mn5 O5 1.916494 1_555
Mn5 O4 1.916494 1_555
Mn5 O13 1.942342 1_555
Mn5 O15 1.967545 1_555
Mn5 O14 1.967545 1_555
Mn5 O1 2.049397 1_555
Mn6 O7 1.897780 1_555
Mn6 O2 1.933760 1_555
Mn6 O14 1.961944 1_555
Mn6 O13 1.966121 1_555
Mn6 O12 1.968913 1_455
Mn6 O6 1.980028 1_455
Mn7 O7 1.897780 1_555
Mn7 O3 1.933760 1_555
Mn7 O15 1.961944 1_555
Mn7 O13 1.966121 1_555
Mn7 O12 1.968913 1_565
Mn7 O6 1.980028 1_565
