# generated using pymatgen
data_PrFeCo
_symmetry_space_group_name_H-M   'P 1'
_cell_length_a   5.23044827
_cell_length_b   5.23044827
_cell_length_c   5.23044827
_cell_angle_alpha   88.81680774
_cell_angle_beta   63.22793077
_cell_angle_gamma   121.93173627
_symmetry_Int_Tables_number   1
_chemical_formula_structural   PrFeCo
_chemical_formula_sum   'Pr2 Fe2 Co2'
_cell_volume   101.89670602
_cell_formula_units_Z   2
loop_
 _symmetry_equiv_pos_site_id
 _symmetry_equiv_pos_as_xyz
  1  'x, y, z'
loop_
 _atom_site_type_symbol
 _atom_site_label
 _atom_site_symmetry_multiplicity
 _atom_site_fract_x
 _atom_site_fract_y
 _atom_site_fract_z
 _atom_site_occupancy
  Pr  Pr0  1  0.50000000  0.75130900  0.74869100  1
  Pr  Pr1  1  0.00000000  0.99869100  0.00130900  1
  Fe  Fe0  1  0.25000000  0.87500000  0.37500000  1
  Fe  Fe1  1  0.75000000  0.37500000  0.37500000  1
  Co  Co0  1  0.75000000  0.37500000  0.87500000  1
  Co  Co1  1  0.25000000  0.37500000  0.37500000  1
loop_
_geom_bond_atom_site_label_1
_geom_bond_atom_site_label_2
_geom_bond_distance
_geom_bond_site_symmetry_2
Pr0 Pr1 3.140630 1_656
Pr0 Pr1 3.140630 1_546
Pr0 Pr1 3.285817 1_556
Pr0 Pr1 3.285817 1_655
Fe0 Fe1 2.538496 1_565
Fe0 Fe1 2.538496 1_455
Fe0 Pr0 3.015612 1_555
Fe0 Pr1 3.015612 1_555
Fe0 Pr1 3.159616 1_556
Fe0 Pr0 3.159616 1_455
Fe0 Pr0 3.159616 1_554
Fe0 Pr1 3.159616 1_655
Fe1 Pr0 3.015612 1_545
Fe1 Pr1 3.015612 1_655
Fe1 Pr1 3.159616 1_546
Fe1 Pr0 3.159616 1_654
Fe1 Pr0 3.159616 1_555
Fe1 Pr1 3.159616 1_645
Co0 Fe1 2.615224 1_555
Co0 Fe0 2.615224 1_546
Co0 Fe1 2.615224 1_556
Co0 Fe0 2.615224 1_655
Co0 Co1 2.741767 1_556
Co0 Co1 2.741767 1_655
Co0 Pr1 3.023758 1_656
Co0 Pr0 3.023758 1_655
Co0 Pr0 3.023758 1_545
Co0 Pr1 3.023758 1_546
Co0 Pr1 3.076924 1_646
Co0 Pr0 3.076924 1_555
Co1 Fe0 2.615224 1_545
Co1 Fe1 2.615224 1_555
Co1 Fe1 2.615224 1_455
Co1 Fe0 2.615224 1_555
Co1 Pr0 3.023758 1_555
Co1 Pr0 3.023758 1_445
Co1 Pr1 3.023758 1_655
Co1 Pr1 3.023758 1_545
Co1 Pr1 3.076924 1_546
Co1 Pr0 3.076924 1_554
