# generated using pymatgen
data_Zn(FeO2)2
_symmetry_space_group_name_H-M   'P 1'
_cell_length_a   5.76948500
_cell_length_b   4.97723200
_cell_length_c   10.21706100
_cell_angle_alpha   89.02971649
_cell_angle_beta   90.00000000
_cell_angle_gamma   90.00000000
_symmetry_Int_Tables_number   1
_chemical_formula_structural   Zn(FeO2)2
_chemical_formula_sum   'Zn4 Fe8 O16'
_cell_volume   293.35172248
_cell_formula_units_Z   4
loop_
 _symmetry_equiv_pos_site_id
 _symmetry_equiv_pos_as_xyz
  1  'x, y, z'
loop_
 _atom_site_type_symbol
 _atom_site_label
 _atom_site_symmetry_multiplicity
 _atom_site_fract_x
 _atom_site_fract_y
 _atom_site_fract_z
 _atom_site_occupancy
  Zn  Zn0  1  0.75224600  0.64855000  0.74758300  1
  Zn  Zn1  1  0.25224600  0.35145000  0.25241700  1
  Zn  Zn2  1  0.74901500  0.97493300  0.24863500  1
  Zn  Zn3  1  0.24901500  0.02506700  0.75136500  1
  Fe  Fe0  1  0.24927500  0.98850700  0.49010300  1
  Fe  Fe1  1  0.25141400  0.98801800  0.01617000  1
  Fe  Fe2  1  0.74927500  0.01149300  0.50989700  1
  Fe  Fe3  1  0.75141400  0.01198200  0.98383000  1
  Fe  Fe4  1  0.50022600  0.49993400  0.50000800  1
  Fe  Fe5  1  0.99918100  0.49916800  0.99870600  1
  Fe  Fe6  1  0.00022600  0.50006600  0.49999200  1
  Fe  Fe7  1  0.49918100  0.50083200  0.00129400  1
  O  O0  1  0.24749700  0.64771500  0.39602200  1
  O  O1  1  0.25161500  0.64202400  0.10216000  1
  O  O2  1  0.74749700  0.35228500  0.60397800  1
  O  O3  1  0.75161500  0.35797600  0.89784000  1
  O  O4  1  0.25171800  0.30538300  0.59685300  1
  O  O5  1  0.24685600  0.31174700  0.90667000  1
  O  O6  1  0.75171800  0.69461700  0.40314700  1
  O  O7  1  0.74685600  0.68825300  0.09333000  1
  O  O8  1  0.50300800  0.82935200  0.60850200  1
  O  O9  1  0.00303700  0.82262800  0.88036200  1
  O  O10  1  0.00300800  0.17064800  0.39149800  1
  O  O11  1  0.50303700  0.17737200  0.11963800  1
  O  O12  1  0.49740400  0.16862300  0.39233200  1
  O  O13  1  0.99587900  0.16535600  0.11065600  1
  O  O14  1  0.99740400  0.83137700  0.60766800  1
  O  O15  1  0.49587900  0.83464400  0.88934400  1
loop_
_geom_bond_atom_site_label_1
_geom_bond_atom_site_label_2
_geom_bond_distance
_geom_bond_site_symmetry_2
Fe0 O4 1.932737 1_565
Fe0 O12 1.954641 1_565
Fe0 O10 1.955670 1_565
Fe0 O0 1.963769 1_555
Fe0 O14 2.033303 1_455
Fe0 O8 2.049739 1_555
Fe1 O1 1.919958 1_555
Fe1 O5 1.946147 1_564
Fe1 O13 1.978244 1_465
Fe1 O11 2.036430 1_565
Fe1 O15 2.069939 1_554
Fe1 O9 2.166829 1_554
Fe2 O6 1.932737 1_545
Fe2 O14 1.954641 1_545
Fe2 O8 1.955670 1_545
Fe2 O2 1.963769 1_555
Fe2 O12 2.033303 1_555
Fe2 O10 2.049739 1_655
Fe3 O3 1.919958 1_555
Fe3 O7 1.946147 1_546
Fe3 O15 1.978244 1_545
Fe3 O9 2.036430 1_645
Fe3 O13 2.069939 1_556
Fe3 O11 2.166829 1_556
Fe4 O2 1.917626 1_555
Fe4 O0 1.941498 1_555
Fe4 O4 1.984927 1_555
Fe4 O8 1.994697 1_555
Fe4 O6 1.997791 1_555
Fe4 O12 1.997808 1_555
Fe5 O3 1.902772 1_555
Fe5 O1 1.941493 1_656
Fe5 O5 1.956029 1_655
Fe5 O7 1.992610 1_556
Fe5 O9 1.997110 1_655
Fe5 O13 2.001182 1_556
Fe6 O0 1.917626 1_555
Fe6 O2 1.941498 1_455
Fe6 O6 1.984927 1_455
Fe6 O10 1.994697 1_555
Fe6 O4 1.997791 1_555
Fe6 O14 1.997808 1_455
Fe7 O1 1.902772 1_555
Fe7 O3 1.941493 1_554
Fe7 O7 1.956029 1_555
Fe7 O5 1.992610 1_554
Fe7 O11 1.997110 1_555
Fe7 O15 2.001182 1_554
O0 Zn1 2.097891 1_555
O1 Zn1 2.091235 1_555
O2 Zn0 2.097891 1_555
O3 Zn0 2.091235 1_555
O4 Zn3 2.089112 1_555
O5 Zn3 2.151885 1_555
O6 Zn2 2.089112 1_555
O7 Zn2 2.151885 1_555
O8 Zn0 2.203068 1_555
O8 Zn3 2.296744 1_565
O9 Zn3 2.172863 1_565
O9 Zn0 2.173596 1_455
O10 Zn1 2.203068 1_555
O10 Zn2 2.296744 1_445
O11 Zn2 2.172863 1_545
O11 Zn1 2.173596 1_555
O12 Zn1 2.197305 1_555
O12 Zn2 2.289135 1_545
O13 Zn2 2.206574 1_545
O13 Zn1 2.277916 1_655
O14 Zn0 2.197305 1_555
O14 Zn3 2.289135 1_665
O15 Zn3 2.206574 1_565
O15 Zn0 2.277916 1_555
