# generated using pymatgen
data_YMg6Ti
_symmetry_space_group_name_H-M   'P 1'
_cell_length_a   5.12648600
_cell_length_b   6.52680800
_cell_length_c   11.30994500
_cell_angle_alpha   90.00000000
_cell_angle_beta   90.00000000
_cell_angle_gamma   90.00000000
_symmetry_Int_Tables_number   1
_chemical_formula_structural   YMg6Ti
_chemical_formula_sum   'Y2 Mg12 Ti2'
_cell_volume   378.42612078
_cell_formula_units_Z   2
loop_
 _symmetry_equiv_pos_site_id
 _symmetry_equiv_pos_as_xyz
  1  'x, y, z'
loop_
 _atom_site_type_symbol
 _atom_site_label
 _atom_site_symmetry_multiplicity
 _atom_site_fract_x
 _atom_site_fract_y
 _atom_site_fract_z
 _atom_site_occupancy
  Y  Y0  1  0.00000000  0.50000000  0.32920300  1
  Y  Y1  1  0.00000000  0.00000000  0.82920300  1
  Mg  Mg0  1  0.00000000  0.26107700  0.08361900  1
  Mg  Mg1  1  0.00000000  0.73892300  0.08361900  1
  Mg  Mg2  1  0.00000000  0.00000000  0.33615300  1
  Mg  Mg3  1  0.50000000  0.75219600  0.41806900  1
  Mg  Mg4  1  0.50000000  0.24780400  0.41806900  1
  Mg  Mg5  1  0.50000000  0.00000000  0.16542900  1
  Mg  Mg6  1  0.00000000  0.76107700  0.58361900  1
  Mg  Mg7  1  0.00000000  0.23892300  0.58361900  1
  Mg  Mg8  1  0.00000000  0.50000000  0.83615300  1
  Mg  Mg9  1  0.50000000  0.25219600  0.91806900  1
  Mg  Mg10  1  0.50000000  0.74780400  0.91806900  1
  Mg  Mg11  1  0.50000000  0.50000000  0.66542900  1
  Ti  Ti0  1  0.50000000  0.50000000  0.16583800  1
  Ti  Ti1  1  0.50000000  0.00000000  0.66583800  1
loop_
_geom_bond_atom_site_label_1
_geom_bond_atom_site_label_2
_geom_bond_distance
_geom_bond_site_symmetry_2
Mg0 Mg1 3.118809 1_555
Mg0 Ti0 3.141124 1_455
Mg0 Ti0 3.141124 1_555
Mg0 Mg9 3.174793 1_554
Mg0 Mg9 3.174793 1_454
Mg0 Y0 3.185354 1_555
Mg0 Mg8 3.203931 1_554
Mg0 Mg5 3.214024 1_455
Mg0 Mg5 3.214024 1_555
Mg0 Mg2 3.325836 1_555
Mg0 Y1 3.344133 1_554
Mg0 Mg1 3.407999 1_545
Mg1 Ti0 3.141124 1_455
Mg1 Ti0 3.141124 1_555
Mg1 Mg10 3.174793 1_454
Mg1 Mg10 3.174793 1_554
Mg1 Y0 3.185354 1_555
Mg1 Mg8 3.203931 1_554
Mg1 Mg5 3.214024 1_465
Mg1 Mg5 3.214024 1_565
Mg1 Mg2 3.325836 1_565
Mg1 Y1 3.344133 1_564
Mg2 Mg4 3.169296 1_455
Mg2 Mg3 3.169296 1_445
Mg2 Mg3 3.169296 1_545
Mg2 Mg4 3.169296 1_555
Mg2 Mg6 3.203931 1_545
Mg2 Mg7 3.203931 1_555
Mg2 Mg5 3.209129 1_455
Mg2 Mg5 3.209129 1_555
Mg2 Y0 3.264351 1_555
Mg2 Y0 3.264351 1_545
Mg3 Mg6 3.174793 1_655
Mg3 Mg6 3.174793 1_555
Mg3 Y0 3.207773 1_555
Mg3 Y0 3.207773 1_655
Mg3 Mg4 3.234738 1_565
Mg3 Ti1 3.235508 1_565
Mg3 Mg5 3.283337 1_565
Mg3 Mg4 3.292070 1_555
Mg3 Ti0 3.293544 1_555
Mg4 Mg7 3.174793 1_555
Mg4 Mg7 3.174793 1_655
Mg4 Y0 3.207773 1_555
Mg4 Y0 3.207773 1_655
Mg4 Ti1 3.235508 1_555
Mg4 Mg5 3.283337 1_555
Mg4 Ti0 3.293544 1_555
Mg5 Mg9 3.245944 1_554
Mg5 Ti0 3.263407 1_545
Mg5 Ti0 3.263407 1_555
Mg6 Mg7 3.118809 1_565
Mg6 Ti1 3.141124 1_565
Mg6 Ti1 3.141124 1_465
Mg6 Y1 3.185354 1_565
Mg6 Mg8 3.325836 1_555
Mg6 Y0 3.344133 1_555
Mg6 Mg7 3.407999 1_555
Mg7 Ti1 3.141124 1_455
Mg7 Ti1 3.141124 1_555
Mg7 Y1 3.185354 1_555
Mg7 Mg8 3.325836 1_555
Mg7 Y0 3.344133 1_555
Mg8 Mg9 3.169296 1_455
Mg8 Mg9 3.169296 1_555
Mg8 Y1 3.264351 1_565
Mg8 Y1 3.264351 1_555
Mg9 Y1 3.207773 1_555
Mg9 Y1 3.207773 1_655
Mg9 Ti0 3.235508 1_556
Mg9 Ti1 3.293544 1_555
Mg10 Mg8 3.169296 1_555
Mg10 Mg8 3.169296 1_655
Mg10 Y1 3.207773 1_665
Mg10 Y1 3.207773 1_565
Mg10 Mg9 3.234738 1_555
Mg10 Ti0 3.235508 1_556
Mg10 Mg5 3.245944 1_566
Mg10 Mg11 3.283337 1_555
Mg10 Mg9 3.292070 1_565
Mg10 Ti1 3.293544 1_565
Mg11 Mg8 3.209129 1_555
Mg11 Mg8 3.209129 1_655
Mg11 Mg7 3.214024 1_655
Mg11 Mg6 3.214024 1_555
Mg11 Mg7 3.214024 1_555
Mg11 Mg6 3.214024 1_655
Mg11 Mg3 3.245944 1_555
Mg11 Mg4 3.245944 1_555
Mg11 Ti1 3.263407 1_555
Mg11 Ti1 3.263407 1_565
Mg11 Mg9 3.283337 1_555
Ti0 Y0 3.159750 1_555
Ti0 Y0 3.159750 1_655
Ti1 Y1 3.159750 1_555
Ti1 Y1 3.159750 1_655
