# generated using pymatgen
data_Sm3Al2(Ni2H3)3
_symmetry_space_group_name_H-M   'P 1'
_cell_length_a   8.07739123
_cell_length_b   8.07739123
_cell_length_c   8.07739123
_cell_angle_alpha   109.47122063
_cell_angle_beta   109.47122063
_cell_angle_gamma   109.47122063
_symmetry_Int_Tables_number   1
_chemical_formula_structural   Sm3Al2(Ni2H3)3
_chemical_formula_sum   'Sm6 Al4 Ni12 H18'
_cell_volume   405.68734875
_cell_formula_units_Z   2
loop_
 _symmetry_equiv_pos_site_id
 _symmetry_equiv_pos_as_xyz
  1  'x, y, z'
loop_
 _atom_site_type_symbol
 _atom_site_label
 _atom_site_symmetry_multiplicity
 _atom_site_fract_x
 _atom_site_fract_y
 _atom_site_fract_z
 _atom_site_occupancy
  Sm  Sm0  1  0.72867100  0.72867100  0.00000000  1
  Sm  Sm1  1  0.27132900  0.00000000  0.27132900  1
  Sm  Sm2  1  0.00000000  0.27132900  0.27132900  1
  Sm  Sm3  1  0.27132900  0.27132900  0.00000000  1
  Sm  Sm4  1  0.72867100  0.00000000  0.72867100  1
  Sm  Sm5  1  0.00000000  0.72867100  0.72867100  1
  Al  Al0  1  0.00000000  0.00000000  0.50000000  1
  Al  Al1  1  0.00000000  0.50000000  0.00000000  1
  Al  Al2  1  0.50000000  0.00000000  0.00000000  1
  Al  Al3  1  0.50000000  0.50000000  0.50000000  1
  Ni  Ni0  1  0.33800300  0.33800300  0.67600700  1
  Ni  Ni1  1  0.66199700  0.00000000  0.33800300  1
  Ni  Ni2  1  0.00000000  0.66199700  0.33800300  1
  Ni  Ni3  1  0.66199700  0.33800300  0.00000000  1
  Ni  Ni4  1  0.33800300  0.67600700  0.33800300  1
  Ni  Ni5  1  0.00000000  0.33800300  0.66199700  1
  Ni  Ni6  1  0.33800300  0.66199700  0.00000000  1
  Ni  Ni7  1  0.33800300  0.00000000  0.66199700  1
  Ni  Ni8  1  0.67600700  0.33800300  0.33800300  1
  Ni  Ni9  1  0.66199700  0.66199700  0.32399300  1
  Ni  Ni10  1  0.66199700  0.32399300  0.66199700  1
  Ni  Ni11  1  0.32399300  0.66199700  0.66199700  1
  H  H0  1  0.00000000  0.00000000  0.72862500  1
  H  H1  1  0.00000000  0.72862500  0.00000000  1
  H  H2  1  0.72862500  0.00000000  0.00000000  1
  H  H3  1  0.27137500  0.27137500  0.27137500  1
  H  H4  1  0.00000000  0.00000000  0.27137500  1
  H  H5  1  0.00000000  0.27137500  0.00000000  1
  H  H6  1  0.27137500  0.00000000  0.00000000  1
  H  H7  1  0.72862500  0.72862500  0.72862500  1
  H  H8  1  0.50000000  0.75000000  0.25000000  1
  H  H9  1  0.25000000  0.75000000  0.50000000  1
  H  H10  1  0.25000000  0.50000000  0.75000000  1
  H  H11  1  0.50000000  0.25000000  0.75000000  1
  H  H12  1  0.75000000  0.50000000  0.25000000  1
  H  H13  1  0.75000000  0.25000000  0.50000000  1
  H  H14  1  0.50000000  0.50000000  0.00000000  1
  H  H15  1  0.50000000  0.00000000  0.50000000  1
  H  H16  1  0.00000000  0.50000000  0.50000000  1
  H  H17  1  0.00000000  0.00000000  0.00000000  1
loop_
_geom_bond_atom_site_label_1
_geom_bond_atom_site_label_2
_geom_bond_distance
_geom_bond_site_symmetry_2
Al0 H0 1.846694 1_555
Al0 H4 1.846694 1_555
Al1 H1 1.846694 1_555
Al1 H5 1.846694 1_555
Al2 H2 1.846694 1_555
Al2 H6 1.846694 1_555
Al3 H7 1.846694 1_555
Al3 H3 1.846694 1_555
H0 Sm3 2.191754 1_556
H0 Sm5 2.191754 1_545
H0 Sm4 2.191754 1_455
H1 Sm1 2.191754 1_565
H1 Sm5 2.191754 1_554
H1 Sm0 2.191754 1_455
H2 Sm2 2.191754 1_655
H2 Sm0 2.191754 1_545
H2 Sm4 2.191754 1_554
H3 Sm2 2.191754 1_555
H3 Sm3 2.191754 1_555
H3 Sm1 2.191754 1_555
H4 Sm0 2.191754 1_445
H4 Sm1 2.191754 1_555
H4 Sm2 2.191754 1_555
H5 Sm2 2.191754 1_555
H5 Sm4 2.191754 1_454
H5 Sm3 2.191754 1_555
H6 Sm3 2.191754 1_555
H6 Sm1 2.191754 1_555
H6 Sm5 2.191754 1_544
H7 Sm4 2.191754 1_565
H7 Sm5 2.191754 1_655
H7 Sm0 2.191754 1_556
H8 Ni9 1.719491 1_555
H8 Ni4 1.719491 1_555
H8 Ni1 1.719493 1_565
H8 Ni6 1.719493 1_555
H9 Ni4 1.719491 1_555
H9 Ni11 1.719491 1_555
H9 Ni7 1.719493 1_565
H9 Ni2 1.719493 1_555
H10 Ni0 1.719491 1_555
H10 Ni11 1.719491 1_555
H10 Ni5 1.719493 1_555
H10 Ni6 1.719493 1_556
H11 Ni0 1.719491 1_555
H11 Ni10 1.719491 1_555
H11 Ni3 1.719493 1_556
H11 Ni7 1.719493 1_555
H12 Ni9 1.719491 1_555
H12 Ni8 1.719491 1_555
H12 Ni2 1.719493 1_655
H12 Ni3 1.719493 1_555
H13 Ni10 1.719491 1_555
H13 Ni8 1.719491 1_555
H13 Ni5 1.719493 1_655
H13 Ni1 1.719493 1_555
H14 Sm0 2.132807 1_555
H14 Sm3 2.132807 1_555
H14 Ni9 2.136786 1_555
H14 Ni0 2.136786 1_554
H14 Ni6 2.136793 1_555
H14 Ni3 2.136793 1_555
H15 Sm4 2.132807 1_555
H15 Sm1 2.132807 1_555
H15 Ni10 2.136786 1_555
H15 Ni4 2.136786 1_545
H15 Ni1 2.136793 1_555
H15 Ni7 2.136793 1_555
H16 Sm5 2.132807 1_555
H16 Sm2 2.132807 1_555
H16 Ni8 2.136786 1_455
H16 Ni11 2.136786 1_555
H16 Ni5 2.136793 1_555
H16 Ni2 2.136793 1_555
H17 Sm3 2.530677 1_555
H17 Sm2 2.530677 1_555
H17 Sm1 2.530677 1_555
H17 Sm0 2.530677 1_445
H17 Sm4 2.530677 1_454
H17 Sm5 2.530677 1_544
