# generated using pymatgen
data_Ho4MgCo
_symmetry_space_group_name_H-M   'P 1'
_cell_length_a   9.48876382
_cell_length_b   9.48879461
_cell_length_c   9.48878664
_cell_angle_alpha   59.99998099
_cell_angle_beta   59.99988582
_cell_angle_gamma   59.99991971
_symmetry_Int_Tables_number   1
_chemical_formula_structural   Ho4MgCo
_chemical_formula_sum   'Ho16 Mg4 Co4'
_cell_volume   604.10950107
_cell_formula_units_Z   4
loop_
 _symmetry_equiv_pos_site_id
 _symmetry_equiv_pos_as_xyz
  1  'x, y, z'
loop_
 _atom_site_type_symbol
 _atom_site_label
 _atom_site_symmetry_multiplicity
 _atom_site_fract_x
 _atom_site_fract_y
 _atom_site_fract_z
 _atom_site_occupancy
  Ho  Ho0  1  0.34363631  0.34362595  0.34363069  1
  Ho  Ho1  1  0.34362240  0.34361076  0.96911478  1
  Ho  Ho2  1  0.34362001  0.96911657  0.34361360  1
  Ho  Ho3  1  0.96911409  0.34361358  0.34361807  1
  Ho  Ho4  1  0.81370275  0.18631502  0.18631494  1
  Ho  Ho5  1  0.18631636  0.81368781  0.81368226  1
  Ho  Ho6  1  0.18631512  0.81370901  0.18631559  1
  Ho  Ho7  1  0.81368192  0.18631630  0.81368879  1
  Ho  Ho8  1  0.18631486  0.18631539  0.81370652  1
  Ho  Ho9  1  0.81367888  0.81369163  0.18631648  1
  Ho  Ho10  1  0.93795496  0.56204542  0.56204732  1
  Ho  Ho11  1  0.56203681  0.93796266  0.93796152  1
  Ho  Ho12  1  0.56204398  0.93795840  0.56204379  1
  Ho  Ho13  1  0.93795970  0.56203734  0.93796067  1
  Ho  Ho14  1  0.56204553  0.56204356  0.93795738  1
  Ho  Ho15  1  0.93795986  0.93796226  0.56203716  1
  Mg  Mg0  1  0.57867291  0.57867259  0.57867259  1
  Mg  Mg1  1  0.57867185  0.57867168  0.26398148  1
  Mg  Mg2  1  0.57867174  0.26398144  0.57867164  1
  Mg  Mg3  1  0.26398213  0.57867165  0.57867151  1
  Co  Co0  1  0.14037196  0.14037066  0.14037060  1
  Co  Co1  1  0.14037121  0.14036983  0.57888224  1
  Co  Co2  1  0.14037238  0.57888195  0.14036886  1
  Co  Co3  1  0.57888327  0.14036954  0.14036953  1
loop_
_geom_bond_atom_site_label_1
_geom_bond_atom_site_label_2
_geom_bond_distance
_geom_bond_site_symmetry_2
Ho0 Ho12 3.427427 1_545
Ho0 Ho14 3.427472 1_554
Ho0 Ho10 3.427536 1_455
Ho0 Mg2 3.481659 1_555
Ho0 Mg1 3.481680 1_555
Ho0 Mg3 3.481706 1_555
Ho1 Ho11 3.427269 1_545
Ho1 Ho13 3.427381 1_455
Ho1 Ho14 3.427695 1_555
Ho1 Mg2 3.481687 1_555
Ho1 Mg3 3.481736 1_555
Ho1 Mg0 3.481845 1_555
Ho2 Mg1 3.481716 1_555
Ho2 Mg3 3.481742 1_555
Ho2 Mg0 3.481853 1_555
Ho3 Mg2 3.481686 1_555
Ho3 Mg1 3.481704 1_555
Ho3 Mg0 3.481841 1_555
Ho4 Mg2 3.489217 1_555
Ho4 Mg1 3.489221 1_555
Ho5 Mg0 3.489218 1_555
Ho5 Mg3 3.489256 1_555
Ho6 Mg1 3.489210 1_555
Ho6 Mg3 3.489217 1_555
Ho7 Mg0 3.489226 1_555
Ho7 Mg2 3.489257 1_555
Ho8 Mg2 3.489211 1_555
Ho8 Mg3 3.489223 1_555
Ho9 Mg0 3.489222 1_555
Ho9 Mg1 3.489256 1_555
Ho10 Mg3 3.258993 1_655
Ho10 Mg0 3.259025 1_555
Ho10 Ho3 3.427732 1_555
Ho10 Ho7 3.560652 1_555
Ho10 Ho9 3.560678 1_555
Ho10 Ho8 3.560732 1_655
Ho10 Ho6 3.560758 1_655
Ho10 Ho14 3.566917 1_555
Ho10 Ho12 3.566941 1_555
Ho10 Ho13 3.566946 1_555
Ho10 Ho15 3.566973 1_555
Ho11 Mg2 3.259028 1_565
Ho11 Mg1 3.259040 1_556
Ho11 Ho2 3.427300 1_556
Ho11 Ho6 3.560491 1_556
Ho11 Ho8 3.560501 1_565
Ho11 Ho9 3.560614 1_556
Ho11 Ho7 3.560623 1_565
Ho11 Ho12 3.566989 1_555
Ho11 Ho14 3.566997 1_555
Ho11 Ho15 3.567049 1_555
Ho11 Ho13 3.567057 1_555
Ho12 Mg2 3.258991 1_565
Ho12 Mg0 3.259050 1_555
Ho12 Ho2 3.427675 1_555
Ho12 Ho9 3.560603 1_555
Ho12 Ho5 3.560618 1_555
Ho12 Ho4 3.560709 1_565
Ho12 Ho8 3.560727 1_565
Ho12 Ho15 3.566964 1_555
Ho12 Ho14 3.566970 1_555
Ho13 Mg1 3.259016 1_556
Ho13 Mg3 3.259031 1_655
Ho13 Ho3 3.427349 1_556
Ho13 Ho8 3.560504 1_655
Ho13 Ho4 3.560522 1_556
Ho13 Ho5 3.560671 1_655
Ho13 Ho9 3.560691 1_556
Ho13 Ho14 3.566947 1_555
Ho13 Ho15 3.567065 1_555
Ho14 Mg1 3.258992 1_556
Ho14 Mg0 3.259043 1_555
Ho14 Ho7 3.560614 1_555
Ho14 Ho5 3.560653 1_555
Ho14 Ho4 3.560707 1_556
Ho14 Ho6 3.560749 1_556
Ho15 Mg2 3.259013 1_565
Ho15 Mg3 3.259042 1_655
Ho15 Ho3 3.427301 1_565
Ho15 Ho2 3.427360 1_655
Ho15 Ho6 3.560493 1_655
Ho15 Ho4 3.560520 1_565
Ho15 Ho5 3.560639 1_655
Ho15 Ho7 3.560665 1_565
Mg0 Mg3 2.986036 1_555
Mg0 Mg1 2.986046 1_555
Mg0 Mg2 2.986050 1_555
Mg1 Mg3 2.986016 1_555
Mg1 Mg2 2.986029 1_555
Mg2 Mg3 2.986019 1_555
Co0 Ho6 2.734092 1_545
Co0 Ho8 2.734113 1_554
Co0 Ho4 2.734149 1_455
Co0 Ho3 2.744218 1_455
Co0 Ho1 2.744219 1_554
Co0 Ho2 2.744225 1_545
Co0 Ho11 3.421374 1_544
Co0 Ho15 3.421400 1_445
Co0 Ho13 3.421408 1_454
Co1 Ho5 2.734298 1_545
Co1 Ho7 2.734352 1_455
Co1 Ho8 2.734566 1_555
Co1 Ho0 2.744425 1_555
Co1 Ho3 2.744440 1_455
Co1 Ho2 2.744448 1_545
Co1 Ho15 3.421384 1_445
Co1 Ho12 3.421462 1_545
Co1 Ho10 3.421505 1_455
Co2 Ho5 2.734342 1_554
Co2 Ho9 2.734389 1_455
Co2 Ho6 2.734594 1_555
Co2 Ho0 2.744458 1_555
Co2 Ho1 2.744472 1_554
Co2 Ho3 2.744477 1_455
Co2 Ho13 3.421396 1_454
Co2 Ho14 3.421464 1_554
Co2 Ho10 3.421521 1_455
Co3 Ho9 2.734255 1_545
Co3 Ho7 2.734279 1_554
Co3 Ho4 2.734527 1_555
Co3 Ho0 2.744397 1_555
Co3 Ho1 2.744400 1_554
Co3 Ho2 2.744405 1_545
Co3 Ho11 3.421362 1_544
Co3 Ho12 3.421483 1_545
Co3 Ho14 3.421488 1_554
