# generated using pymatgen
data_Zn
_symmetry_space_group_name_H-M   'P 1'
_cell_length_a   11.81147420
_cell_length_b   11.79186885
_cell_length_c   11.57929769
_cell_angle_alpha   91.15397401
_cell_angle_beta   86.78175707
_cell_angle_gamma   95.67508127
_symmetry_Int_Tables_number   1
_chemical_formula_structural   Zn
_chemical_formula_sum   Zn100
_cell_volume   1602.14878169
_cell_formula_units_Z   100
loop_
 _symmetry_equiv_pos_site_id
 _symmetry_equiv_pos_as_xyz
  1  'x, y, z'
loop_
 _atom_site_type_symbol
 _atom_site_label
 _atom_site_symmetry_multiplicity
 _atom_site_fract_x
 _atom_site_fract_y
 _atom_site_fract_z
 _atom_site_occupancy
  Zn  Zn0  1  0.05188577  0.58129561  0.49222684  1
  Zn  Zn1  1  0.30036210  0.15034624  0.16767983  1
  Zn  Zn2  1  0.91846287  0.15824699  0.36256864  1
  Zn  Zn3  1  0.29995586  0.74417022  0.25513061  1
  Zn  Zn4  1  0.23981036  0.21208898  0.57815626  1
  Zn  Zn5  1  0.43937297  0.88767142  0.66838169  1
  Zn  Zn6  1  0.71948910  0.94214023  0.16429739  1
  Zn  Zn7  1  0.19824124  0.19938951  0.80356488  1
  Zn  Zn8  1  0.27972026  0.28184821  0.99447287  1
  Zn  Zn9  1  0.60266726  0.81510810  0.52417696  1
  Zn  Zn10  1  0.58416173  0.41218976  0.36737797  1
  Zn  Zn11  1  0.46748445  0.29963358  0.20781110  1
  Zn  Zn12  1  0.14125128  0.65368467  0.88177904  1
  Zn  Zn13  1  0.08228451  0.07706560  0.22551148  1
  Zn  Zn14  1  0.60949016  0.21403697  0.93350361  1
  Zn  Zn15  1  0.78614354  0.72396076  0.62347138  1
  Zn  Zn16  1  0.05203335  0.28938007  0.96014460  1
  Zn  Zn17  1  0.19588343  0.99011550  0.04455069  1
  Zn  Zn18  1  0.26611756  0.96127511  0.30281820  1
  Zn  Zn19  1  0.74100495  0.54624495  0.26529405  1
  Zn  Zn20  1  0.77734440  0.26386100  0.53080744  1
  Zn  Zn21  1  0.56909902  0.63463823  0.96152652  1
  Zn  Zn22  1  0.18929839  0.47218888  0.02102375  1
  Zn  Zn23  1  0.07125810  0.79251449  0.03209296  1
  Zn  Zn24  1  0.19987159  0.81598847  0.67976238  1
  Zn  Zn25  1  0.91032316  0.37998635  0.72176782  1
  Zn  Zn26  1  0.91795599  0.20837852  0.13474169  1
  Zn  Zn27  1  0.59373704  0.74708896  0.74315942  1
  Zn  Zn28  1  0.13195837  0.43506588  0.80452254  1
  Zn  Zn29  1  0.31111881  0.41228870  0.67195019  1
  Zn  Zn30  1  0.62954170  0.58686599  0.51421897  1
  Zn  Zn31  1  0.69351410  0.16507072  0.15058272  1
  Zn  Zn32  1  0.97885149  0.10735515  0.83638359  1
  Zn  Zn33  1  0.08424068  0.91793646  0.85410729  1
  Zn  Zn34  1  0.95369339  0.37485910  0.42945079  1
  Zn  Zn35  1  0.12812145  0.46308879  0.30933246  1
  Zn  Zn36  1  0.75452897  0.60986815  0.81411371  1
  Zn  Zn37  1  0.41347921  0.46606201  0.98579742  1
  Zn  Zn38  1  0.63842081  0.72116206  0.15769705  1
  Zn  Zn39  1  0.77917907  0.31596490  0.29891305  1
  Zn  Zn40  1  0.83236641  0.29387432  0.93324622  1
  Zn  Zn41  1  0.37967839  0.79382080  0.46673915  1
  Zn  Zn42  1  0.50426854  0.38072627  0.57984704  1
  Zn  Zn43  1  0.79453202  0.58818774  0.03901780  1
  Zn  Zn44  1  0.16302234  0.78846420  0.45155622  1
  Zn  Zn45  1  0.78688435  0.06257611  0.96320500  1
  Zn  Zn46  1  0.94234241  0.44482577  0.15702376  1
  Zn  Zn47  1  0.13838753  0.24468110  0.38773610  1
  Zn  Zn48  1  0.38922569  0.10972601  0.94768229  1
  Zn  Zn49  1  0.27058920  0.58864693  0.43014349  1
  Zn  Zn50  1  0.19988751  0.59769929  0.65354122  1
  Zn  Zn51  1  0.97538949  0.61239652  0.71281839  1
  Zn  Zn52  1  0.47859901  0.83032688  0.92404891  1
  Zn  Zn53  1  0.49089962  0.00084348  0.45779387  1
  Zn  Zn54  1  0.68665694  0.37362219  0.10162109  1
  Zn  Zn55  1  0.49654231  0.63389115  0.34453613  1
  Zn  Zn56  1  0.35529624  0.16245269  0.38926953  1
  Zn  Zn57  1  0.07573338  0.82538815  0.25131673  1
  Zn  Zn58  1  0.97022309  0.00183564  0.04739280  1
  Zn  Zn59  1  0.86517427  0.78850487  0.12986932  1
  Zn  Zn60  1  0.94388160  0.62906919  0.29107053  1
  Zn  Zn61  1  0.90777185  0.75752184  0.89286251  1
  Zn  Zn62  1  0.34256945  0.38399625  0.41797736  1
  Zn  Zn63  1  0.12327976  0.62780704  0.15366861  1
  Zn  Zn64  1  0.42334533  0.61560780  0.58827953  1
  Zn  Zn65  1  0.32680863  0.52179772  0.20969970  1
  Zn  Zn66  1  0.52703269  0.85552705  0.28956749  1
  Zn  Zn67  1  0.49731519  0.07360159  0.23744945  1
  Zn  Zn68  1  0.89332696  0.94126649  0.29863623  1
  Zn  Zn69  1  0.74423618  0.76047464  0.35834940  1
  Zn  Zn70  1  0.69868656  0.83518407  0.95809461  1
  Zn  Zn71  1  0.70933819  0.44699953  0.66264133  1
  Zn  Zn72  1  0.57037813  0.02049613  0.80662553  1
  Zn  Zn73  1  0.32093263  0.68268670  0.03028374  1
  Zn  Zn74  1  0.97925640  0.18908586  0.58841230  1
  Zn  Zn75  1  0.79084222  0.93173935  0.76604132  1
  Zn  Zn76  1  0.27806423  0.98427623  0.53495377  1
  Zn  Zn77  1  0.64668602  0.42383971  0.88718789  1
  Zn  Zn78  1  0.83653701  0.54315592  0.49444457  1
  Zn  Zn79  1  0.40361780  0.11408746  0.68127083  1
  Zn  Zn80  1  0.49537075  0.52446718  0.76945577  1
  Zn  Zn81  1  0.07158073  0.00722299  0.44329636  1
  Zn  Zn82  1  0.10940427  0.38563446  0.58739620  1
  Zn  Zn83  1  0.30323950  0.92592626  0.84866250  1
  Zn  Zn84  1  0.94651782  0.77582381  0.45883484  1
  Zn  Zn85  1  0.79743777  0.16469330  0.74362970  1
  Zn  Zn86  1  0.60645229  0.23558517  0.69393606  1
  Zn  Zn87  1  0.43118802  0.30211635  0.81953957  1
  Zn  Zn88  1  0.54101919  0.51227456  0.16008322  1
  Zn  Zn89  1  0.97550569  0.84130586  0.67744635  1
  Zn  Zn90  1  0.57626465  0.21009158  0.44933294  1
  Zn  Zn91  1  0.37990255  0.89937206  0.11255310  1
  Zn  Zn92  1  0.66417316  0.03590483  0.59896131  1
  Zn  Zn93  1  0.84945640  0.95456881  0.53432812  1
  Zn  Zn94  1  0.56413452  0.01574860  0.03080031  1
  Zn  Zn95  1  0.70760072  0.04653651  0.36755795  1
  Zn  Zn96  1  0.35035655  0.69305477  0.79869136  1
  Zn  Zn97  1  0.13540358  0.29496033  0.17023417  1
  Zn  Zn98  1  0.10528926  0.03811162  0.66484396  1
  Zn  Zn99  1  0.95848548  0.50185698  0.92694461  1
loop_
_geom_bond_atom_site_label_1
_geom_bond_atom_site_label_2
_geom_bond_distance
_geom_bond_site_symmetry_2
Zn0 Zn78 2.537645 1_455
Zn0 Zn50 2.620613 1_555
Zn0 Zn49 2.635716 1_555
Zn0 Zn35 2.674690 1_555
Zn0 Zn51 2.691462 1_455
Zn0 Zn44 2.693590 1_555
Zn0 Zn34 2.695221 1_455
Zn0 Zn82 2.737817 1_555
Zn0 Zn84 2.759443 1_455
Zn0 Zn60 2.810470 1_455
Zn1 Zn11 2.567914 1_555
Zn1 Zn8 2.596421 1_554
Zn1 Zn17 2.598740 1_545
Zn1 Zn56 2.679337 1_555
Zn1 Zn13 2.686893 1_555
Zn1 Zn97 2.711772 1_555
Zn1 Zn18 2.733864 1_545
Zn1 Zn67 2.745934 1_555
Zn1 Zn48 2.751457 1_554
Zn2 Zn68 2.642119 1_545
Zn2 Zn34 2.653955 1_555
Zn2 Zn95 2.698084 1_555
Zn2 Zn26 2.715552 1_555
Zn2 Zn47 2.724124 1_655
Zn2 Zn39 2.739544 1_555
Zn2 Zn74 2.758178 1_555
Zn2 Zn20 2.841224 1_555
Zn2 Zn81 2.865298 1_655
Zn3 Zn91 2.563498 1_555
Zn3 Zn73 2.693076 1_555
Zn3 Zn63 2.694783 1_555
Zn3 Zn41 2.706579 1_555
Zn3 Zn65 2.709869 1_555
Zn3 Zn49 2.745052 1_555
Zn3 Zn44 2.787140 1_555
Zn3 Zn57 2.906827 1_555
Zn3 Zn66 2.911946 1_555
Zn3 Zn55 3.012582 1_555
Zn4 Zn56 2.599680 1_555
Zn4 Zn47 2.620359 1_555
Zn4 Zn7 2.633115 1_555
Zn4 Zn98 2.645767 1_555
Zn4 Zn82 2.677288 1_555
Zn4 Zn79 2.694758 1_555
Zn4 Zn76 2.798458 1_545
Zn4 Zn62 2.904227 1_555
Zn4 Zn74 3.058433 1_455
Zn5 Zn83 2.622090 1_555
Zn5 Zn72 2.666035 1_565
Zn5 Zn9 2.673509 1_555
Zn5 Zn79 2.743847 1_565
Zn5 Zn53 2.810910 1_565
Zn5 Zn96 2.851827 1_555
Zn5 Zn76 2.854032 1_555
Zn5 Zn92 3.106562 1_565
Zn6 Zn95 2.637238 1_565
Zn6 Zn68 2.645610 1_555
Zn6 Zn94 2.682819 1_565
Zn6 Zn70 2.689861 1_554
Zn6 Zn66 2.746793 1_555
Zn7 Zn8 2.593361 1_555
Zn7 Zn98 2.657875 1_555
Zn7 Zn87 2.908774 1_555
Zn7 Zn79 2.990163 1_555
Zn8 Zn97 2.592583 1_556
Zn8 Zn87 2.624684 1_555
Zn9 Zn92 2.768057 1_565
Zn10 Zn19 2.564807 1_555
Zn10 Zn90 2.574042 1_555
Zn10 Zn42 2.605338 1_555
Zn10 Zn11 2.626803 1_555
Zn10 Zn30 2.676545 1_555
Zn10 Zn39 2.738150 1_555
Zn10 Zn88 2.790064 1_555
Zn10 Zn62 2.868645 1_555
Zn10 Zn55 2.927303 1_555
Zn11 Zn88 2.630255 1_555
Zn11 Zn67 2.753564 1_555
Zn11 Zn56 2.861440 1_555
Zn11 Zn54 2.865985 1_555
Zn11 Zn62 2.979670 1_555
Zn12 Zn23 2.526703 1_556
Zn12 Zn96 2.601094 1_555
Zn12 Zn99 2.699170 1_455
Zn12 Zn28 2.705583 1_555
Zn12 Zn50 2.777536 1_555
Zn12 Zn73 2.796534 1_556
Zn12 Zn22 2.825604 1_556
Zn12 Zn51 2.847108 1_455
Zn12 Zn24 3.057873 1_555
Zn13 Zn58 2.606406 1_455
Zn13 Zn81 2.661011 1_555
Zn13 Zn97 2.665973 1_555
Zn13 Zn17 2.666864 1_545
Zn13 Zn2 2.671988 1_455
Zn13 Zn68 2.719931 1_445
Zn13 Zn47 2.757792 1_555
Zn13 Zn26 2.856337 1_455
Zn13 Zn18 2.869514 1_545
Zn13 Zn57 2.981695 1_545
Zn14 Zn77 2.532424 1_555
Zn14 Zn94 2.610368 1_556
Zn14 Zn72 2.704248 1_555
Zn14 Zn40 2.706553 1_555
Zn14 Zn48 2.763288 1_555
Zn14 Zn86 2.793283 1_555
Zn14 Zn54 2.806059 1_556
Zn14 Zn87 2.838180 1_555
Zn14 Zn31 2.844035 1_556
Zn14 Zn45 2.923027 1_555
Zn15 Zn36 2.598121 1_555
Zn15 Zn89 2.611112 1_555
Zn15 Zn27 2.629365 1_555
Zn15 Zn84 2.647428 1_555
Zn15 Zn78 2.674848 1_555
Zn15 Zn30 2.687778 1_555
Zn15 Zn9 2.822014 1_555
Zn15 Zn75 2.924359 1_555
Zn15 Zn93 2.939983 1_555
Zn15 Zn51 2.948477 1_555
Zn16 Zn28 2.588925 1_555
Zn16 Zn26 2.631870 1_456
Zn16 Zn40 2.636344 1_455
Zn16 Zn32 2.656348 1_455
Zn16 Zn97 2.672395 1_556
Zn16 Zn22 2.673635 1_556
Zn16 Zn7 2.707212 1_555
Zn16 Zn8 2.750820 1_555
Zn16 Zn99 2.877537 1_455
Zn17 Zn23 2.636071 1_555
Zn17 Zn83 2.668989 1_554
Zn17 Zn91 2.678683 1_555
Zn17 Zn58 2.680907 1_465
Zn17 Zn33 2.712035 1_554
Zn17 Zn48 2.757108 1_564
Zn18 Zn91 2.643802 1_555
Zn18 Zn3 2.671942 1_555
Zn18 Zn56 2.695879 1_565
Zn18 Zn76 2.706343 1_555
Zn18 Zn57 2.716501 1_555
Zn18 Zn81 2.830249 1_565
Zn18 Zn44 2.831373 1_555
Zn18 Zn67 2.979509 1_565
Zn19 Zn60 2.527996 1_555
Zn19 Zn43 2.704389 1_555
Zn19 Zn88 2.709353 1_555
Zn19 Zn69 2.723956 1_555
Zn19 Zn54 2.805379 1_555
Zn19 Zn39 2.834229 1_555
Zn19 Zn38 2.835842 1_555
Zn19 Zn78 2.943346 1_555
Zn19 Zn46 2.970628 1_555
Zn20 Zn34 2.584072 1_555
Zn20 Zn90 2.619649 1_555
Zn20 Zn86 2.686566 1_555
Zn20 Zn74 2.743759 1_555
Zn20 Zn39 2.765032 1_555
Zn20 Zn71 2.777013 1_555
Zn20 Zn85 2.780885 1_555
Zn20 Zn92 2.981859 1_555
Zn20 Zn25 3.012320 1_555
Zn21 Zn37 2.578939 1_555
Zn21 Zn38 2.611788 1_556
Zn21 Zn70 2.686595 1_555
Zn21 Zn52 2.689967 1_555
Zn21 Zn80 2.696255 1_555
Zn21 Zn88 2.726057 1_556
Zn21 Zn36 2.735436 1_555
Zn21 Zn77 2.834659 1_555
Zn21 Zn27 2.865762 1_555
Zn21 Zn43 2.961690 1_556
Zn21 Zn73 3.097603 1_556
Zn22 Zn63 2.523782 1_555
Zn22 Zn8 2.585007 1_554
Zn22 Zn28 2.650061 1_554
Zn22 Zn37 2.664279 1_554
Zn22 Zn97 2.741658 1_555
Zn22 Zn73 2.799063 1_555
Zn22 Zn65 2.812884 1_555
Zn22 Zn99 3.046135 1_454
Zn23 Zn33 2.549663 1_554
Zn23 Zn57 2.562851 1_555
Zn23 Zn63 2.564135 1_555
Zn23 Zn61 2.581356 1_454
Zn23 Zn59 2.622812 1_455
Zn23 Zn58 2.844148 1_465
Zn24 Zn50 2.585820 1_555
Zn24 Zn83 2.617084 1_555
Zn24 Zn76 2.683320 1_555
Zn24 Zn89 2.697704 1_455
Zn24 Zn33 2.702485 1_555
Zn24 Zn44 2.709993 1_555
Zn24 Zn96 2.832311 1_555
Zn24 Zn5 2.867760 1_555
Zn24 Zn98 2.959212 1_565
Zn25 Zn71 2.702589 1_555
Zn25 Zn82 2.741721 1_655
Zn25 Zn40 2.745447 1_555
Zn25 Zn85 2.757798 1_555
Zn25 Zn51 2.774516 1_555
Zn25 Zn99 2.808167 1_555
Zn25 Zn28 2.848414 1_655
Zn25 Zn74 2.862868 1_555
Zn26 Zn31 2.646434 1_555
Zn26 Zn97 2.718609 1_655
Zn26 Zn58 2.732025 1_555
Zn26 Zn46 2.782783 1_555
Zn26 Zn39 2.806124 1_555
Zn26 Zn40 2.836059 1_554
Zn26 Zn45 2.996545 1_554
Zn27 Zn52 2.657341 1_555
Zn27 Zn9 2.668181 1_555
Zn27 Zn5 2.766758 1_555
Zn27 Zn80 2.779059 1_555
Zn27 Zn36 2.781489 1_555
Zn27 Zn96 2.920609 1_555
Zn27 Zn70 2.966049 1_555
Zn27 Zn75 3.045438 1_555
Zn27 Zn64 3.057231 1_555
Zn28 Zn29 2.576394 1_555
Zn28 Zn82 2.591764 1_555
Zn28 Zn99 2.603101 1_455
Zn28 Zn50 2.655403 1_555
Zn28 Zn7 2.960463 1_555
Zn29 Zn42 2.521782 1_555
Zn29 Zn82 2.614444 1_555
Zn29 Zn4 2.658604 1_555
Zn29 Zn50 2.677667 1_555
Zn29 Zn87 2.710275 1_555
Zn29 Zn80 2.721605 1_555
Zn29 Zn64 2.786516 1_555
Zn29 Zn62 2.959746 1_555
Zn29 Zn7 3.109125 1_555
Zn30 Zn78 2.545062 1_555
Zn30 Zn64 2.588225 1_555
Zn30 Zn71 2.676870 1_555
Zn30 Zn55 2.682995 1_555
Zn30 Zn9 2.740447 1_555
Zn30 Zn42 2.812891 1_555
Zn30 Zn69 2.934190 1_555
Zn31 Zn54 2.544879 1_555
Zn31 Zn67 2.614016 1_555
Zn31 Zn39 2.618354 1_555
Zn31 Zn94 2.639481 1_555
Zn31 Zn6 2.685434 1_545
Zn31 Zn45 2.697019 1_554
Zn31 Zn95 2.920273 1_555
Zn32 Zn98 2.585571 1_655
Zn32 Zn85 2.603130 1_555
Zn32 Zn45 2.645199 1_555
Zn32 Zn33 2.679115 1_645
Zn32 Zn7 2.717899 1_655
Zn32 Zn58 2.756432 1_556
Zn32 Zn75 3.018082 1_545
Zn32 Zn74 3.046706 1_555
Zn32 Zn40 3.086157 1_555
Zn33 Zn83 2.576353 1_555
Zn33 Zn89 2.577116 1_455
Zn33 Zn98 2.620500 1_565
Zn33 Zn61 2.696930 1_455
Zn33 Zn58 2.763594 1_466
Zn34 Zn35 2.564028 1_655
Zn34 Zn78 2.604931 1_555
Zn34 Zn39 2.653357 1_555
Zn34 Zn82 2.658132 1_655
Zn34 Zn47 2.804062 1_655
Zn34 Zn74 2.938302 1_555
Zn35 Zn97 2.534103 1_555
Zn35 Zn49 2.582405 1_555
Zn35 Zn65 2.593168 1_555
Zn35 Zn63 2.683174 1_555
Zn35 Zn47 2.764069 1_555
Zn35 Zn46 2.880552 1_455
Zn35 Zn60 3.085728 1_455
Zn36 Zn77 2.559609 1_555
Zn36 Zn61 2.576283 1_555
Zn36 Zn71 2.610813 1_555
Zn36 Zn43 2.694345 1_556
Zn36 Zn51 2.797209 1_555
Zn37 Zn8 2.556744 1_555
Zn37 Zn88 2.602643 1_556
Zn37 Zn80 2.711280 1_555
Zn37 Zn87 2.715173 1_555
Zn37 Zn65 2.822781 1_556
Zn37 Zn73 2.901942 1_556
Zn37 Zn77 3.005697 1_555
Zn38 Zn66 2.581126 1_555
Zn38 Zn88 2.613478 1_555
Zn38 Zn6 2.686886 1_555
Zn38 Zn69 2.709854 1_555
Zn38 Zn59 2.720377 1_555
Zn38 Zn70 2.721678 1_554
Zn38 Zn55 2.808812 1_555
Zn38 Zn43 2.819159 1_555
Zn39 Zn54 2.713904 1_555
Zn39 Zn46 2.808606 1_555
Zn39 Zn90 3.060015 1_555
Zn40 Zn85 2.674711 1_555
Zn40 Zn99 2.740734 1_555
Zn40 Zn54 2.741710 1_556
Zn40 Zn45 2.752319 1_555
Zn40 Zn77 2.876114 1_555
Zn41 Zn44 2.569361 1_555
Zn41 Zn53 2.656414 1_565
Zn41 Zn64 2.660413 1_555
Zn41 Zn49 2.663963 1_555
Zn41 Zn5 2.664577 1_555
Zn41 Zn66 2.678842 1_555
Zn41 Zn76 2.731913 1_555
Zn41 Zn9 2.738905 1_555
Zn41 Zn55 2.766255 1_555
Zn42 Zn86 2.609548 1_555
Zn42 Zn90 2.669689 1_555
Zn42 Zn71 2.693128 1_555
Zn42 Zn80 2.750235 1_555
Zn42 Zn62 2.753502 1_555
Zn42 Zn87 2.997328 1_555
Zn42 Zn64 3.016045 1_555
Zn43 Zn99 2.554426 1_554
Zn43 Zn59 2.644078 1_555
Zn43 Zn54 2.807688 1_555
Zn43 Zn61 2.827357 1_554
Zn43 Zn46 2.952550 1_555
Zn43 Zn77 3.071521 1_554
Zn44 Zn84 2.543562 1_455
Zn44 Zn57 2.650749 1_555
Zn44 Zn76 2.747247 1_555
Zn44 Zn49 2.785792 1_555
Zn44 Zn81 2.898696 1_565
Zn45 Zn58 2.593183 1_556
Zn45 Zn94 2.708982 1_556
Zn45 Zn75 2.730389 1_545
Zn45 Zn70 2.779677 1_545
Zn45 Zn6 2.788187 1_546
Zn45 Zn85 2.826308 1_555
Zn46 Zn60 2.643702 1_555
Zn46 Zn99 2.752473 1_554
Zn46 Zn63 2.882110 1_655
Zn46 Zn97 3.032054 1_655
Zn47 Zn97 2.601911 1_555
Zn47 Zn62 2.815263 1_555
Zn47 Zn56 2.828693 1_555
Zn47 Zn82 2.844937 1_555
Zn47 Zn81 2.907843 1_555
Zn47 Zn74 2.947776 1_455
Zn48 Zn8 2.546007 1_555
Zn48 Zn83 2.576591 1_545
Zn48 Zn94 2.672342 1_556
Zn48 Zn87 2.724829 1_555
Zn48 Zn72 2.887343 1_555
Zn48 Zn79 3.081180 1_555
Zn49 Zn64 2.635048 1_555
Zn49 Zn62 2.635319 1_555
Zn49 Zn50 2.676604 1_555
Zn49 Zn65 2.722163 1_555
Zn49 Zn55 2.798682 1_555
Zn50 Zn96 2.666813 1_555
Zn50 Zn64 2.693355 1_555
Zn50 Zn51 2.722897 1_455
Zn50 Zn82 2.732808 1_555
Zn51 Zn89 2.738165 1_555
Zn51 Zn61 2.802212 1_555
Zn51 Zn99 2.812400 1_555
Zn51 Zn78 3.141328 1_555
Zn52 Zn91 2.572288 1_556
Zn52 Zn96 2.586291 1_555
Zn52 Zn94 2.631309 1_566
Zn52 Zn70 2.645960 1_555
Zn52 Zn83 2.650907 1_555
Zn52 Zn73 2.683286 1_556
Zn52 Zn72 2.743905 1_565
Zn53 Zn90 2.573138 1_555
Zn53 Zn76 2.610333 1_545
Zn53 Zn66 2.613376 1_545
Zn53 Zn92 2.685629 1_555
Zn53 Zn67 2.702822 1_555
Zn53 Zn95 2.717177 1_555
Zn53 Zn56 2.762934 1_555
Zn53 Zn9 2.807852 1_545
Zn53 Zn79 3.061988 1_555
Zn54 Zn88 2.543889 1_555
Zn54 Zn77 2.642895 1_554
Zn55 Zn88 2.606535 1_555
Zn55 Zn66 2.687068 1_555
Zn55 Zn65 2.819273 1_555
Zn55 Zn64 2.910917 1_555
Zn56 Zn67 2.635209 1_555
Zn56 Zn62 2.644783 1_555
Zn56 Zn90 2.740308 1_555
Zn56 Zn76 2.771844 1_545
Zn57 Zn63 2.665227 1_555
Zn57 Zn68 2.688622 1_455
Zn57 Zn60 2.691795 1_455
Zn57 Zn84 2.813064 1_455
Zn57 Zn59 2.916528 1_455
Zn57 Zn81 3.059107 1_565
Zn58 Zn59 2.850631 1_545
Zn58 Zn68 3.075279 1_545
Zn59 Zn6 2.629149 1_555
Zn59 Zn68 2.643299 1_555
Zn59 Zn61 2.785524 1_554
Zn59 Zn60 2.926576 1_555
Zn59 Zn69 2.943920 1_555
Zn59 Zn70 2.970445 1_554
Zn60 Zn84 2.574886 1_555
Zn60 Zn63 2.578429 1_655
Zn60 Zn78 2.772435 1_555
Zn60 Zn69 3.006050 1_555
Zn61 Zn89 2.748980 1_555
Zn61 Zn70 2.778153 1_555
Zn61 Zn75 3.032275 1_555
Zn62 Zn65 2.959645 1_555
Zn63 Zn73 2.697067 1_555
Zn63 Zn65 2.926564 1_555
Zn64 Zn80 2.598449 1_555
Zn64 Zn96 2.709915 1_555
Zn64 Zn9 3.078904 1_555
Zn65 Zn88 2.575789 1_555
Zn65 Zn73 2.849763 1_555
Zn66 Zn67 2.713827 1_565
Zn66 Zn91 2.847619 1_555
Zn66 Zn9 2.968852 1_555
Zn66 Zn69 3.050648 1_555
Zn66 Zn95 3.101879 1_565
Zn67 Zn94 2.577346 1_555
Zn67 Zn91 2.788860 1_545
Zn67 Zn95 3.022756 1_555
Zn67 Zn90 3.046383 1_555
Zn68 Zn95 2.700411 1_565
Zn68 Zn69 2.702630 1_555
Zn68 Zn93 2.753435 1_555
Zn68 Zn81 2.804150 1_665
Zn68 Zn84 2.856683 1_555
Zn69 Zn9 2.588598 1_555
Zn69 Zn84 2.704298 1_555
Zn70 Zn75 2.647966 1_555
Zn70 Zn94 2.866143 1_566
Zn71 Zn78 2.599907 1_555
Zn71 Zn77 2.674935 1_555
Zn71 Zn86 2.685291 1_555
Zn71 Zn80 2.968407 1_555
Zn72 Zn92 2.592522 1_555
Zn72 Zn94 2.594267 1_556
Zn72 Zn79 2.831958 1_555
Zn72 Zn86 2.859055 1_555
Zn72 Zn75 2.911851 1_545
Zn73 Zn96 2.688361 1_554
Zn73 Zn91 2.746958 1_555
Zn74 Zn98 2.627580 1_655
Zn74 Zn82 2.651281 1_655
Zn74 Zn85 2.718508 1_555
Zn74 Zn81 2.953510 1_655
Zn74 Zn93 3.096713 1_545
Zn75 Zn89 2.666775 1_555
Zn75 Zn93 2.744876 1_555
Zn75 Zn85 2.757415 1_565
Zn75 Zn92 2.876510 1_565
Zn76 Zn98 2.588982 1_565
Zn76 Zn79 2.672354 1_565
Zn76 Zn81 2.753262 1_565
Zn77 Zn80 2.686798 1_555
Zn77 Zn87 2.934047 1_555
Zn77 Zn86 3.141933 1_555
Zn78 Zn84 2.943697 1_555
Zn79 Zn86 2.676934 1_555
Zn79 Zn87 2.712602 1_555
Zn79 Zn83 3.079040 1_545
Zn80 Zn87 2.721090 1_555
Zn80 Zn96 2.753472 1_555
Zn81 Zn98 2.630713 1_555
Zn81 Zn93 2.788125 1_445
Zn81 Zn84 2.975334 1_445
Zn83 Zn96 2.896045 1_555
Zn84 Zn93 2.610019 1_555
Zn84 Zn89 2.662250 1_555
Zn85 Zn86 2.580059 1_555
Zn85 Zn92 2.703873 1_555
Zn86 Zn87 2.636928 1_555
Zn86 Zn92 2.710609 1_555
Zn86 Zn90 2.880540 1_555
Zn89 Zn98 2.653642 1_665
Zn89 Zn93 2.739739 1_555
Zn90 Zn95 2.715853 1_555
Zn90 Zn92 3.010978 1_555
Zn91 Zn94 2.597108 1_565
Zn92 Zn93 2.543953 1_545
Zn92 Zn95 2.702773 1_555
Zn93 Zn95 2.918825 1_565
