# generated using pymatgen
data_V3(Co10B3)2
_symmetry_space_group_name_H-M   'P 1'
_cell_length_a   7.36397407
_cell_length_b   7.36397407
_cell_length_c   7.36397407
_cell_angle_alpha   60.00000000
_cell_angle_beta   60.00000000
_cell_angle_gamma   60.00000000
_symmetry_Int_Tables_number   1
_chemical_formula_structural   V3(Co10B3)2
_chemical_formula_sum   'V3 Co20 B6'
_cell_volume   282.37208045
_cell_formula_units_Z   1
loop_
 _symmetry_equiv_pos_site_id
 _symmetry_equiv_pos_as_xyz
  1  'x, y, z'
loop_
 _atom_site_type_symbol
 _atom_site_label
 _atom_site_symmetry_multiplicity
 _atom_site_fract_x
 _atom_site_fract_y
 _atom_site_fract_z
 _atom_site_occupancy
  V  V0  1  0.00000000  0.00000000  0.00000000  1
  V  V1  1  0.75000000  0.75000000  0.75000000  1
  V  V2  1  0.25000000  0.25000000  0.25000000  1
  Co  Co0  1  0.61990900  0.61990900  0.14027300  1
  Co  Co1  1  0.61990900  0.14027300  0.61990900  1
  Co  Co2  1  0.14027300  0.61990900  0.61990900  1
  Co  Co3  1  0.61990900  0.61990900  0.61990900  1
  Co  Co4  1  0.38009100  0.38009100  0.85972700  1
  Co  Co5  1  0.38009100  0.85972700  0.38009100  1
  Co  Co6  1  0.85972700  0.38009100  0.38009100  1
  Co  Co7  1  0.38009100  0.38009100  0.38009100  1
  Co  Co8  1  0.00000000  0.00000000  0.33920800  1
  Co  Co9  1  0.66079200  0.00000000  0.33920800  1
  Co  Co10  1  0.00000000  0.66079200  0.33920800  1
  Co  Co11  1  0.66079200  0.33920800  0.00000000  1
  Co  Co12  1  0.00000000  0.33920800  0.00000000  1
  Co  Co13  1  0.00000000  0.33920800  0.66079200  1
  Co  Co14  1  0.33920800  0.66079200  0.00000000  1
  Co  Co15  1  0.33920800  0.00000000  0.66079200  1
  Co  Co16  1  0.33920800  0.00000000  0.00000000  1
  Co  Co17  1  0.00000000  0.00000000  0.66079200  1
  Co  Co18  1  0.00000000  0.66079200  0.00000000  1
  Co  Co19  1  0.66079200  0.00000000  0.00000000  1
  B  B0  1  0.72610500  0.72610500  0.27389500  1
  B  B1  1  0.27389500  0.72610500  0.27389500  1
  B  B2  1  0.72610500  0.27389500  0.27389500  1
  B  B3  1  0.27389500  0.27389500  0.72610500  1
  B  B4  1  0.72610500  0.27389500  0.72610500  1
  B  B5  1  0.27389500  0.72610500  0.72610500  1
loop_
_geom_bond_atom_site_label_1
_geom_bond_atom_site_label_2
_geom_bond_distance
_geom_bond_site_symmetry_2
Co0 V1 2.346579 1_554
Co1 V1 2.346579 1_545
Co2 V1 2.346579 1_455
Co3 V1 2.346579 1_555
Co4 V2 2.346579 1_556
Co5 V2 2.346579 1_565
Co6 V2 2.346579 1_655
Co7 V2 2.346579 1_555
Co8 V0 2.497919 1_555
Co9 V0 2.497919 1_655
Co10 V0 2.497919 1_565
Co11 V0 2.497919 1_655
Co12 V0 2.497919 1_555
Co13 V0 2.497919 1_556
Co14 V0 2.497919 1_565
Co15 V0 2.497919 1_556
Co16 V0 2.497919 1_555
Co17 V0 2.497919 1_556
Co18 V0 2.497919 1_565
Co19 V0 2.497919 1_655
B0 Co18 2.073508 1_655
B0 Co19 2.073508 1_565
B0 Co10 2.073508 1_655
B0 Co9 2.073508 1_565
B0 Co0 2.083730 1_555
B0 Co5 2.083730 1_555
B0 Co6 2.083730 1_555
B0 Co3 2.083730 1_555
B1 Co10 2.073508 1_555
B1 Co14 2.073508 1_555
B1 Co8 2.073508 1_565
B1 Co16 2.073508 1_565
B1 Co7 2.083730 1_555
B1 Co5 2.083730 1_555
B1 Co0 2.083730 1_555
B1 Co2 2.083730 1_555
B2 Co9 2.073508 1_555
B2 Co11 2.073508 1_555
B2 Co12 2.073508 1_655
B2 Co8 2.073508 1_655
B2 Co1 2.083730 1_555
B2 Co7 2.083730 1_555
B2 Co6 2.083730 1_555
B2 Co0 2.083730 1_555
B3 Co13 2.073508 1_555
B3 Co15 2.073508 1_555
B3 Co16 2.073508 1_556
B3 Co12 2.073508 1_556
B3 Co4 2.083730 1_555
B3 Co7 2.083730 1_555
B3 Co1 2.083730 1_555
B3 Co2 2.083730 1_555
B4 Co19 2.073508 1_556
B4 Co13 2.073508 1_655
B4 Co17 2.073508 1_655
B4 Co11 2.073508 1_556
B4 Co1 2.083730 1_555
B4 Co4 2.083730 1_555
B4 Co6 2.083730 1_555
B4 Co3 2.083730 1_555
B5 Co18 2.073508 1_556
B5 Co17 2.073508 1_565
B5 Co14 2.073508 1_556
B5 Co15 2.073508 1_565
B5 Co2 2.083730 1_555
B5 Co4 2.083730 1_555
B5 Co5 2.083730 1_555
B5 Co3 2.083730 1_555
