# generated using pymatgen
data_Cs2NaNiF6
_symmetry_space_group_name_H-M   'P 1'
_cell_length_a   6.20867200
_cell_length_b   6.20867141
_cell_length_c   6.20867156
_cell_angle_alpha   59.99999869
_cell_angle_beta   59.99999765
_cell_angle_gamma   59.99999688
_symmetry_Int_Tables_number   1
_chemical_formula_structural   Cs2NaNiF6
_chemical_formula_sum   'Cs2 Na1 Ni1 F6'
_cell_volume   169.23144357
_cell_formula_units_Z   1
loop_
 _symmetry_equiv_pos_site_id
 _symmetry_equiv_pos_as_xyz
  1  'x, y, z'
loop_
 _atom_site_type_symbol
 _atom_site_label
 _atom_site_symmetry_multiplicity
 _atom_site_fract_x
 _atom_site_fract_y
 _atom_site_fract_z
 _atom_site_occupancy
  Cs  Cs0  1  0.25000000  0.25000000  0.25000000  1
  Cs  Cs1  1  0.75000000  0.75000000  0.75000000  1
  Na  Na0  1  0.50000000  0.50000000  0.50000000  1
  Ni  Ni0  1  0.00000000  0.00000000  0.00000000  1
  F  F0  1  0.21953200  0.78046800  0.21953200  1
  F  F1  1  0.78046800  0.78046800  0.21953200  1
  F  F2  1  0.78046800  0.21953200  0.78046800  1
  F  F3  1  0.78046800  0.21953200  0.21953200  1
  F  F4  1  0.21953200  0.78046800  0.78046800  1
  F  F5  1  0.21953200  0.21953200  0.78046800  1
loop_
_geom_bond_atom_site_label_1
_geom_bond_atom_site_label_2
_geom_bond_distance
_geom_bond_site_symmetry_2
Cs0 F4 3.115841 1_554
Cs0 F0 3.115841 1_555
Cs0 F1 3.115841 1_455
Cs0 F4 3.115841 1_545
Cs0 F1 3.115841 1_545
Cs0 F0 3.115841 1_545
Cs0 F5 3.115841 1_555
Cs0 F2 3.115841 1_455
Cs0 F2 3.115841 1_554
Cs0 F5 3.115841 1_554
Cs0 F3 3.115842 1_555
Cs0 F3 3.115842 1_455
Cs1 F3 3.115841 1_556
Cs1 F5 3.115841 1_655
Cs1 F2 3.115841 1_555
Cs1 F3 3.115841 1_565
Cs1 F2 3.115841 1_565
Cs1 F5 3.115841 1_565
Cs1 F0 3.115841 1_655
Cs1 F1 3.115841 1_555
Cs1 F1 3.115841 1_556
Cs1 F0 3.115841 1_556
Cs1 F4 3.115842 1_655
Cs1 F4 3.115842 1_555
F0 Ni0 1.927576 1_565
F0 Na0 2.462618 1_555
F1 Ni0 1.927576 1_665
F1 Na0 2.462618 1_555
F2 Ni0 1.927576 1_656
F2 Na0 2.462618 1_555
F3 Ni0 1.927576 1_655
F3 Na0 2.462618 1_555
F4 Ni0 1.927576 1_566
F4 Na0 2.462618 1_555
F5 Ni0 1.927576 1_556
F5 Na0 2.462618 1_555
