# generated using pymatgen
data_Mn3Cu2NiO8
_symmetry_space_group_name_H-M   'P 1'
_cell_length_a   5.94637205
_cell_length_b   5.94783019
_cell_length_c   5.94637205
_cell_angle_alpha   90.00000000
_cell_angle_beta   60.00000000
_cell_angle_gamma   119.99189852
_symmetry_Int_Tables_number   1
_chemical_formula_structural   Mn3Cu2NiO8
_chemical_formula_sum   'Mn3 Cu2 Ni1 O8'
_cell_volume   148.73079197
_cell_formula_units_Z   1
loop_
 _symmetry_equiv_pos_site_id
 _symmetry_equiv_pos_as_xyz
  1  'x, y, z'
loop_
 _atom_site_type_symbol
 _atom_site_label
 _atom_site_symmetry_multiplicity
 _atom_site_fract_x
 _atom_site_fract_y
 _atom_site_fract_z
 _atom_site_occupancy
  Mn  Mn0  1  0.50000000  0.50000000  0.50000000  1
  Mn  Mn1  1  0.00000000  0.50000000  0.00000000  1
  Mn  Mn2  1  0.00000000  0.50000000  0.50000000  1
  Cu  Cu0  1  0.25353900  0.13030800  0.12323100  1
  Cu  Cu1  1  0.74646100  0.86969200  0.87676900  1
  Ni  Ni0  1  0.50000000  0.00000000  0.50000000  1
  O  O0  1  0.98363500  0.72545300  0.25818200  1
  O  O1  1  0.99146500  0.27864000  0.25426700  1
  O  O2  1  0.53290800  0.27864000  0.71282500  1
  O  O3  1  0.53290800  0.27864000  0.25426700  1
  O  O4  1  0.01636500  0.27454700  0.74181800  1
  O  O5  1  0.00853500  0.72136000  0.74573300  1
  O  O6  1  0.46709200  0.72136000  0.28717500  1
  O  O7  1  0.46709200  0.72136000  0.74573300  1
loop_
_geom_bond_atom_site_label_1
_geom_bond_atom_site_label_2
_geom_bond_distance
_geom_bond_site_symmetry_2
Mn0 O7 1.969406 1_555
Mn0 O6 1.969406 1_555
Mn0 O3 1.969406 1_555
Mn0 O2 1.969406 1_555
Mn0 O4 2.036093 1_555
Mn0 O0 2.036093 1_555
Mn1 O3 1.969402 1_455
Mn1 O7 1.969402 1_554
Mn1 O5 1.969402 1_554
Mn1 O1 1.969402 1_455
Mn1 O4 2.036093 1_554
Mn1 O0 2.036093 1_455
Mn2 O2 1.969402 1_455
Mn2 O6 1.969402 1_555
Mn2 O5 1.969406 1_555
Mn2 O1 1.969406 1_455
Mn2 O4 2.036097 1_555
Mn2 O0 2.036097 1_455
Cu0 O0 1.966372 1_445
Cu0 O3 1.993575 1_555
Cu0 O2 1.993580 1_554
Cu0 O1 1.993580 1_455
Cu1 O4 1.966372 1_665
Cu1 O7 1.993575 1_555
Cu1 O6 1.993580 1_556
Cu1 O5 1.993580 1_655
Ni0 O5 2.076041 1_545
Ni0 O1 2.076041 1_555
Ni0 O7 2.076041 1_545
Ni0 O3 2.076041 1_555
Ni0 O2 2.076041 1_555
Ni0 O6 2.076041 1_545
