# generated using pymatgen
data_YMg
_symmetry_space_group_name_H-M   'P 1'
_cell_length_a   6.83409982
_cell_length_b   6.83409982
_cell_length_c   22.48356200
_cell_angle_alpha   90.00000000
_cell_angle_beta   90.00000000
_cell_angle_gamma   119.99999822
_symmetry_Int_Tables_number   1
_chemical_formula_structural   YMg
_chemical_formula_sum   'Y16 Mg16'
_cell_volume   909.40720575
_cell_formula_units_Z   16
loop_
 _symmetry_equiv_pos_site_id
 _symmetry_equiv_pos_as_xyz
  1  'x, y, z'
loop_
 _atom_site_type_symbol
 _atom_site_label
 _atom_site_symmetry_multiplicity
 _atom_site_fract_x
 _atom_site_fract_y
 _atom_site_fract_z
 _atom_site_occupancy
  Y  Y0_0  1  0.33333350  0.16666650  0.43544750  1
  Y  Y0_1  1  0.33333350  0.16666650  0.93544750  1
  Y  Y0_2  1  0.33333350  0.66666650  0.43544750  1
  Y  Y0_3  1  0.33333350  0.66666650  0.93544750  1
  Y  Y0_4  1  0.83333350  0.16666650  0.43544750  1
  Y  Y0_5  1  0.83333350  0.16666650  0.93544750  1
  Y  Y0_6  1  0.83333350  0.66666650  0.43544750  1
  Y  Y0_7  1  0.83333350  0.66666650  0.93544750  1
  Y  Y1_0  1  0.16666650  0.33333350  0.06455250  1
  Y  Y1_1  1  0.16666650  0.33333350  0.56455250  1
  Y  Y1_2  1  0.16666650  0.83333350  0.06455250  1
  Y  Y1_3  1  0.16666650  0.83333350  0.56455250  1
  Y  Y1_4  1  0.66666650  0.33333350  0.06455250  1
  Y  Y1_5  1  0.66666650  0.33333350  0.56455250  1
  Y  Y1_6  1  0.66666650  0.83333350  0.06455250  1
  Y  Y1_7  1  0.66666650  0.83333350  0.56455250  1
  Mg  Mg0_0  1  0.16666650  0.33333350  0.30901050  1
  Mg  Mg0_1  1  0.16666650  0.33333350  0.80901050  1
  Mg  Mg0_2  1  0.16666650  0.83333350  0.30901050  1
  Mg  Mg0_3  1  0.16666650  0.83333350  0.80901050  1
  Mg  Mg0_4  1  0.66666650  0.33333350  0.30901050  1
  Mg  Mg0_5  1  0.66666650  0.33333350  0.80901050  1
  Mg  Mg0_6  1  0.66666650  0.83333350  0.30901050  1
  Mg  Mg0_7  1  0.66666650  0.83333350  0.80901050  1
  Mg  Mg1_0  1  0.33333350  0.16666650  0.19098950  1
  Mg  Mg1_1  1  0.33333350  0.16666650  0.69098950  1
  Mg  Mg1_2  1  0.33333350  0.66666650  0.19098950  1
  Mg  Mg1_3  1  0.33333350  0.66666650  0.69098950  1
  Mg  Mg1_4  1  0.83333350  0.16666650  0.19098950  1
  Mg  Mg1_5  1  0.83333350  0.16666650  0.69098950  1
  Mg  Mg1_6  1  0.83333350  0.66666650  0.19098950  1
  Mg  Mg1_7  1  0.83333350  0.66666650  0.69098950  1
loop_
_geom_bond_atom_site_label_1
_geom_bond_atom_site_label_2
_geom_bond_distance
_geom_bond_site_symmetry_2
Y0_0 Y0_4 3.417050 1_555
Y0_0 Y0_2 3.417050 1_545
Y0_0 Y0_2 3.417050 1_555
Y0_0 Y0_4 3.417050 1_455
Y0_0 Y0_6 3.417050 1_555
Y0_0 Y0_6 3.417050 1_445
Y0_0 Y1_5 3.509697 1_555
Y0_0 Y1_3 3.509697 1_545
Y0_0 Y1_1 3.509700 1_555
Y0_1 Y0_5 3.417050 1_555
Y0_1 Y0_3 3.417050 1_545
Y0_1 Y0_3 3.417050 1_555
Y0_1 Y0_5 3.417050 1_455
Y0_1 Y0_7 3.417050 1_555
Y0_1 Y0_7 3.417050 1_445
Y0_1 Y1_2 3.509697 1_546
Y0_1 Y1_4 3.509697 1_556
Y0_1 Y1_0 3.509700 1_556
Y0_2 Y0_6 3.417050 1_555
Y0_2 Y0_6 3.417050 1_455
Y0_2 Y0_4 3.417050 1_565
Y0_2 Y0_4 3.417050 1_455
Y0_2 Y1_7 3.509697 1_555
Y0_2 Y1_1 3.509697 1_555
Y0_2 Y1_3 3.509700 1_555
Y0_3 Y0_7 3.417050 1_555
Y0_3 Y0_7 3.417050 1_455
Y0_3 Y0_5 3.417050 1_565
Y0_3 Y0_5 3.417050 1_455
Y0_3 Y1_6 3.509697 1_556
Y0_3 Y1_0 3.509697 1_556
Y0_3 Y1_2 3.509700 1_556
Y0_4 Y0_6 3.417050 1_545
Y0_4 Y0_6 3.417050 1_555
Y0_4 Y1_7 3.509697 1_545
Y0_4 Y1_1 3.509697 1_655
Y0_4 Y1_5 3.509700 1_555
Y0_5 Y0_7 3.417050 1_545
Y0_5 Y0_7 3.417050 1_555
Y0_5 Y1_6 3.509697 1_546
Y0_5 Y1_0 3.509697 1_656
Y0_5 Y1_4 3.509700 1_556
Y0_6 Y1_5 3.509697 1_555
Y0_6 Y1_3 3.509697 1_655
Y0_6 Y1_7 3.509700 1_555
Y0_7 Y1_4 3.509697 1_556
Y0_7 Y1_2 3.509697 1_656
Y0_7 Y1_6 3.509700 1_556
Y1_0 Y1_4 3.417050 1_555
Y1_0 Y1_2 3.417050 1_555
Y1_0 Y1_4 3.417050 1_455
Y1_0 Y1_2 3.417050 1_545
Y1_0 Y1_6 3.417050 1_555
Y1_0 Y1_6 3.417050 1_445
Y1_1 Y1_5 3.417050 1_555
Y1_1 Y1_3 3.417050 1_555
Y1_1 Y1_3 3.417050 1_545
Y1_1 Y1_5 3.417050 1_455
Y1_1 Y1_7 3.417050 1_555
Y1_1 Y1_7 3.417050 1_445
Y1_2 Y1_6 3.417050 1_555
Y1_2 Y1_6 3.417050 1_455
Y1_2 Y1_4 3.417050 1_565
Y1_2 Y1_4 3.417050 1_455
Y1_3 Y1_7 3.417050 1_555
Y1_3 Y1_7 3.417050 1_455
Y1_3 Y1_5 3.417050 1_565
Y1_3 Y1_5 3.417050 1_455
Y1_4 Y1_6 3.417050 1_545
Y1_4 Y1_6 3.417050 1_555
Y1_5 Y1_7 3.417050 1_545
Y1_5 Y1_7 3.417050 1_555
Mg0_0 Mg1_2 3.306555 1_555
Mg0_0 Mg1_4 3.306555 1_455
Mg0_0 Mg1_0 3.306558 1_555
Mg0_0 Mg0_4 3.417050 1_555
Mg0_0 Mg0_2 3.417050 1_555
Mg0_0 Mg0_2 3.417050 1_545
Mg0_0 Mg0_4 3.417050 1_455
Mg0_0 Mg0_6 3.417050 1_555
Mg0_0 Mg0_6 3.417050 1_445
Mg0_0 Y0_4 3.460249 1_455
Mg0_0 Y0_2 3.460249 1_555
Mg0_0 Y0_0 3.460252 1_555
Mg0_1 Mg1_5 3.306555 1_455
Mg0_1 Mg1_3 3.306555 1_555
Mg0_1 Mg1_1 3.306558 1_555
Mg0_1 Mg0_3 3.417050 1_555
Mg0_1 Mg0_5 3.417050 1_555
Mg0_1 Mg0_3 3.417050 1_545
Mg0_1 Mg0_5 3.417050 1_455
Mg0_1 Mg0_7 3.417050 1_555
Mg0_1 Mg0_7 3.417050 1_445
Mg0_1 Y0_3 3.460249 1_555
Mg0_1 Y0_5 3.460249 1_455
Mg0_1 Y0_1 3.460252 1_555
Mg0_2 Mg1_6 3.306555 1_455
Mg0_2 Mg1_0 3.306555 1_565
Mg0_2 Mg1_2 3.306558 1_555
Mg0_2 Mg0_6 3.417050 1_555
Mg0_2 Mg0_6 3.417050 1_455
Mg0_2 Mg0_4 3.417050 1_565
Mg0_2 Mg0_4 3.417050 1_455
Mg0_2 Y0_6 3.460249 1_455
Mg0_2 Y0_0 3.460249 1_565
Mg0_2 Y0_2 3.460252 1_555
Mg0_3 Mg1_7 3.306555 1_455
Mg0_3 Mg1_1 3.306555 1_565
Mg0_3 Mg1_3 3.306558 1_555
Mg0_3 Mg0_7 3.417050 1_555
Mg0_3 Mg0_7 3.417050 1_455
Mg0_3 Mg0_5 3.417050 1_565
Mg0_3 Mg0_5 3.417050 1_455
Mg0_3 Y0_7 3.460249 1_455
Mg0_3 Y0_1 3.460249 1_565
Mg0_3 Y0_3 3.460252 1_555
Mg0_4 Mg1_0 3.306555 1_555
Mg0_4 Mg1_6 3.306555 1_555
Mg0_4 Mg1_4 3.306558 1_555
Mg0_4 Mg0_6 3.417050 1_545
Mg0_4 Mg0_6 3.417050 1_555
Mg0_4 Y0_0 3.460249 1_555
Mg0_4 Y0_6 3.460249 1_555
Mg0_4 Y0_4 3.460252 1_555
Mg0_5 Mg1_1 3.306555 1_555
Mg0_5 Mg1_7 3.306555 1_555
Mg0_5 Mg1_5 3.306558 1_555
Mg0_5 Mg0_7 3.417050 1_545
Mg0_5 Mg0_7 3.417050 1_555
Mg0_5 Y0_1 3.460249 1_555
Mg0_5 Y0_7 3.460249 1_555
Mg0_5 Y0_5 3.460252 1_555
Mg0_6 Mg1_4 3.306555 1_565
Mg0_6 Mg1_2 3.306555 1_555
Mg0_6 Mg1_6 3.306558 1_555
Mg0_6 Y0_4 3.460249 1_565
Mg0_6 Y0_2 3.460249 1_555
Mg0_6 Y0_6 3.460252 1_555
Mg0_7 Mg1_3 3.306555 1_555
Mg0_7 Mg1_5 3.306555 1_565
Mg0_7 Mg1_7 3.306558 1_555
Mg0_7 Y0_5 3.460249 1_565
Mg0_7 Y0_3 3.460249 1_555
Mg0_7 Y0_7 3.460252 1_555
Mg1_0 Mg1_2 3.417050 1_545
Mg1_0 Mg1_4 3.417050 1_555
Mg1_0 Mg1_2 3.417050 1_555
Mg1_0 Mg1_4 3.417050 1_455
Mg1_0 Mg1_6 3.417050 1_555
Mg1_0 Mg1_6 3.417050 1_445
Mg1_0 Y1_4 3.460249 1_555
Mg1_0 Y1_2 3.460249 1_545
Mg1_0 Y1_0 3.460252 1_555
Mg1_1 Mg1_5 3.417050 1_555
Mg1_1 Mg1_3 3.417050 1_545
Mg1_1 Mg1_3 3.417050 1_555
Mg1_1 Mg1_5 3.417050 1_455
Mg1_1 Mg1_7 3.417050 1_555
Mg1_1 Mg1_7 3.417050 1_445
Mg1_1 Y1_5 3.460249 1_555
Mg1_1 Y1_3 3.460249 1_545
Mg1_1 Y1_1 3.460252 1_555
Mg1_2 Mg1_6 3.417050 1_555
Mg1_2 Mg1_6 3.417050 1_455
Mg1_2 Mg1_4 3.417050 1_565
Mg1_2 Mg1_4 3.417050 1_455
Mg1_2 Y1_6 3.460249 1_555
Mg1_2 Y1_0 3.460249 1_555
Mg1_2 Y1_2 3.460252 1_555
Mg1_3 Mg1_7 3.417050 1_555
Mg1_3 Mg1_7 3.417050 1_455
Mg1_3 Mg1_5 3.417050 1_565
Mg1_3 Mg1_5 3.417050 1_455
Mg1_3 Y1_7 3.460249 1_555
Mg1_3 Y1_1 3.460249 1_555
Mg1_3 Y1_3 3.460252 1_555
Mg1_4 Mg1_6 3.417050 1_545
Mg1_4 Mg1_6 3.417050 1_555
Mg1_4 Y1_6 3.460249 1_545
Mg1_4 Y1_0 3.460249 1_655
Mg1_4 Y1_4 3.460252 1_555
Mg1_5 Mg1_7 3.417050 1_545
Mg1_5 Mg1_7 3.417050 1_555
Mg1_5 Y1_7 3.460249 1_545
Mg1_5 Y1_1 3.460249 1_655
Mg1_5 Y1_5 3.460252 1_555
Mg1_6 Y1_4 3.460249 1_555
Mg1_6 Y1_2 3.460249 1_655
Mg1_6 Y1_6 3.460252 1_555
Mg1_7 Y1_3 3.460249 1_655
Mg1_7 Y1_5 3.460249 1_555
Mg1_7 Y1_7 3.460252 1_555
