# generated using pymatgen
data_Sc2Si4Mo3
_symmetry_space_group_name_H-M   'P 1'
_cell_length_a   6.54349987
_cell_length_b   6.77880590
_cell_length_c   12.62976422
_cell_angle_alpha   90.00000000
_cell_angle_beta   90.00000000
_cell_angle_gamma   90.00000000
_symmetry_Int_Tables_number   1
_chemical_formula_structural   Sc2Si4Mo3
_chemical_formula_sum   'Sc8 Si16 Mo12'
_cell_volume   560.21991057
_cell_formula_units_Z   4
loop_
 _symmetry_equiv_pos_site_id
 _symmetry_equiv_pos_as_xyz
  1  'x, y, z'
loop_
 _atom_site_type_symbol
 _atom_site_label
 _atom_site_symmetry_multiplicity
 _atom_site_fract_x
 _atom_site_fract_y
 _atom_site_fract_z
 _atom_site_occupancy
  Sc  Sc0  1  0.49683834  0.33043514  0.09282223  1
  Sc  Sc1  1  0.99683834  0.16956486  0.40717777  1
  Sc  Sc2  1  0.50316166  0.66956486  0.59282223  1
  Sc  Sc3  1  0.00316166  0.83043514  0.90717777  1
  Sc  Sc4  1  0.50316166  0.66956486  0.90717777  1
  Sc  Sc5  1  0.00316166  0.83043514  0.59282223  1
  Sc  Sc6  1  0.49683834  0.33043514  0.40717777  1
  Sc  Sc7  1  0.99683834  0.16956486  0.09282223  1
  Si  Si0  1  0.66388703  0.03736049  0.54501941  1
  Si  Si1  1  0.16388703  0.46263951  0.95498059  1
  Si  Si2  1  0.33611297  0.96263951  0.04501941  1
  Si  Si3  1  0.83611297  0.53736049  0.45498059  1
  Si  Si4  1  0.33611297  0.96263951  0.45498059  1
  Si  Si5  1  0.83611297  0.53736049  0.04501941  1
  Si  Si6  1  0.66388703  0.03736049  0.95498059  1
  Si  Si7  1  0.16388703  0.46263951  0.54501941  1
  Si  Si8  1  0.53258635  0.37453409  0.75000000  1
  Si  Si9  1  0.03258635  0.12546591  0.75000000  1
  Si  Si10  1  0.46741365  0.62546591  0.25000000  1
  Si  Si11  1  0.96741365  0.87453409  0.25000000  1
  Si  Si12  1  0.79901863  0.63801869  0.75000000  1
  Si  Si13  1  0.29901863  0.86198131  0.75000000  1
  Si  Si14  1  0.20098137  0.36198131  0.25000000  1
  Si  Si15  1  0.70098137  0.13801869  0.25000000  1
  Mo  Mo0  1  0.82892575  0.33368084  0.62351596  1
  Mo  Mo1  1  0.32892575  0.16631916  0.87648404  1
  Mo  Mo2  1  0.17107425  0.66631916  0.12351596  1
  Mo  Mo3  1  0.67107425  0.83368084  0.37648404  1
  Mo  Mo4  1  0.17107425  0.66631916  0.37648404  1
  Mo  Mo5  1  0.67107425  0.83368084  0.12351596  1
  Mo  Mo6  1  0.82892575  0.33368084  0.87648404  1
  Mo  Mo7  1  0.32892575  0.16631916  0.62351596  1
  Mo  Mo8  1  0.66508853  0.99412002  0.75000000  1
  Mo  Mo9  1  0.16508853  0.50587998  0.75000000  1
  Mo  Mo10  1  0.33491147  0.00587998  0.25000000  1
  Mo  Mo11  1  0.83491147  0.49412002  0.25000000  1
loop_
_geom_bond_atom_site_label_1
_geom_bond_atom_site_label_2
_geom_bond_distance
_geom_bond_site_symmetry_2
Sc0 Si5 2.694565 1_555
Sc0 Si15 2.725146 1_555
Sc0 Si2 2.772491 1_545
Sc0 Si14 2.781059 1_555
Sc0 Si10 2.824463 1_555
Sc0 Si6 2.858767 1_554
Sc0 Si1 2.929249 1_554
Sc1 Si4 2.694565 1_645
Sc1 Si14 2.725146 1_655
Sc1 Si3 2.772491 1_555
Sc1 Si15 2.781059 1_555
Sc1 Si11 2.824463 1_545
Sc1 Si7 2.858767 1_655
Sc1 Si0 2.929249 1_555
Sc2 Si7 2.694565 1_555
Sc2 Si13 2.725146 1_555
Sc2 Si0 2.772491 1_565
Sc2 Si12 2.781059 1_555
Sc2 Si8 2.824463 1_555
Sc2 Si4 2.858767 1_555
Sc2 Si3 2.929249 1_555
Sc3 Si6 2.694565 1_465
Sc3 Si12 2.725146 1_455
Sc3 Si1 2.772491 1_555
Sc3 Si13 2.781059 1_555
Sc3 Si9 2.824463 1_565
Sc3 Si5 2.858767 1_456
Sc3 Si2 2.929249 1_556
Sc4 Si1 2.694565 1_555
Sc4 Si13 2.725146 1_555
Sc4 Si6 2.772491 1_565
Sc4 Si12 2.781059 1_555
Sc4 Si8 2.824463 1_555
Sc4 Si2 2.858767 1_556
Sc4 Si5 2.929249 1_556
Sc5 Si0 2.694565 1_465
Sc5 Si12 2.725146 1_455
Sc5 Si7 2.772491 1_555
Sc5 Si13 2.781059 1_555
Sc5 Si9 2.824463 1_565
Sc5 Si3 2.858767 1_455
Sc5 Si4 2.929249 1_555
Sc6 Si3 2.694565 1_555
Sc6 Si15 2.725146 1_555
Sc6 Si4 2.772491 1_545
Sc6 Si14 2.781059 1_555
Sc6 Si10 2.824463 1_555
Sc6 Si0 2.858767 1_555
Sc6 Si7 2.929249 1_555
Sc7 Si2 2.694565 1_645
Sc7 Si14 2.725146 1_655
Sc7 Si5 2.772491 1_555
Sc7 Si15 2.781059 1_555
Sc7 Si11 2.824463 1_545
Sc7 Si1 2.858767 1_654
Sc7 Si6 2.929249 1_554
Si0 Si4 2.479887 1_545
Si1 Si5 2.479887 1_456
Si2 Si6 2.479887 1_564
Si3 Si7 2.479887 1_655
Si10 Si14 2.495924 1_555
Si11 Si15 2.495924 1_565
Si12 Si8 2.495924 1_555
Si13 Si9 2.495924 1_565
Mo0 Si0 2.486761 1_555
Mo0 Si9 2.513969 1_655
Mo0 Si8 2.527584 1_555
Mo0 Si3 2.537584 1_555
Mo0 Si7 2.559518 1_655
Mo0 Si12 2.616553 1_555
Mo1 Si1 2.486761 1_555
Mo1 Si8 2.513969 1_555
Mo1 Si9 2.527584 1_555
Mo1 Si2 2.537584 1_546
Mo1 Si6 2.559518 1_555
Mo1 Si13 2.616553 1_545
Mo2 Si2 2.486761 1_555
Mo2 Si11 2.513969 1_455
Mo2 Si10 2.527584 1_555
Mo2 Si1 2.537584 1_554
Mo2 Si5 2.559518 1_455
Mo2 Si14 2.616553 1_555
Mo3 Si3 2.486761 1_555
Mo3 Si10 2.513969 1_555
Mo3 Si11 2.527584 1_555
Mo3 Si0 2.537584 1_565
Mo3 Si4 2.559518 1_555
Mo3 Si15 2.616553 1_565
Mo4 Si4 2.486761 1_555
Mo4 Si11 2.513969 1_455
Mo4 Si10 2.527584 1_555
Mo4 Si7 2.537584 1_555
Mo4 Si3 2.559518 1_455
Mo4 Si14 2.616553 1_555
Mo5 Si5 2.486761 1_555
Mo5 Si10 2.513969 1_555
Mo5 Si11 2.527584 1_555
Mo5 Si6 2.537584 1_564
Mo5 Si2 2.559518 1_555
Mo5 Si15 2.616553 1_565
Mo6 Si6 2.486761 1_555
Mo6 Si9 2.513969 1_655
Mo6 Si8 2.527584 1_555
Mo6 Si5 2.537584 1_556
Mo6 Si1 2.559518 1_655
Mo6 Si12 2.616553 1_555
Mo7 Si7 2.486761 1_555
Mo7 Si8 2.513969 1_555
Mo7 Si9 2.527584 1_555
Mo7 Si4 2.537584 1_545
Mo7 Si0 2.559518 1_555
Mo7 Si13 2.616553 1_545
Mo8 Si13 2.557380 1_555
Mo8 Si9 2.564263 1_665
Mo8 Si12 2.568101 1_555
Mo8 Si0 2.605409 1_565
Mo8 Si6 2.605409 1_565
Mo8 Si8 2.720608 1_565
Mo9 Si12 2.557380 1_455
Mo9 Si8 2.564263 1_555
Mo9 Si13 2.568101 1_555
Mo9 Si7 2.605409 1_555
Mo9 Si1 2.605409 1_555
Mo9 Si9 2.720608 1_555
Mo10 Si15 2.557380 1_555
Mo10 Si11 2.564263 1_445
Mo10 Si14 2.568101 1_555
Mo10 Si2 2.605409 1_545
Mo10 Si4 2.605409 1_545
Mo10 Si10 2.720608 1_545
Mo11 Si14 2.557380 1_655
Mo11 Si10 2.564263 1_555
Mo11 Si15 2.568101 1_555
Mo11 Si5 2.605409 1_555
Mo11 Si3 2.605409 1_555
Mo11 Si11 2.720608 1_555
