# generated using pymatgen
data_BaLaSmCuO5
_symmetry_space_group_name_H-M   'P 1'
_cell_length_a   5.90118000
_cell_length_b   6.79314121
_cell_length_c   6.79314121
_cell_angle_alpha   90.49821905
_cell_angle_beta   90.00000000
_cell_angle_gamma   90.00000000
_symmetry_Int_Tables_number   1
_chemical_formula_structural   BaLaSmCuO5
_chemical_formula_sum   'Ba2 La2 Sm2 Cu2 O10'
_cell_volume   272.31008572
_cell_formula_units_Z   2
loop_
 _symmetry_equiv_pos_site_id
 _symmetry_equiv_pos_as_xyz
  1  'x, y, z'
loop_
 _atom_site_type_symbol
 _atom_site_label
 _atom_site_symmetry_multiplicity
 _atom_site_fract_x
 _atom_site_fract_y
 _atom_site_fract_z
 _atom_site_occupancy
  Ba  Ba0  1  0.00000000  0.50000000  0.50000000  1
  Ba  Ba1  1  0.00000000  0.00000000  0.00000000  1
  La  La0  1  0.50000000  0.32510700  0.17489300  1
  La  La1  1  0.50000000  0.67489300  0.82510700  1
  Sm  Sm0  1  0.50000000  0.17389100  0.67389100  1
  Sm  Sm1  1  0.50000000  0.82610900  0.32610900  1
  Cu  Cu0  1  0.00000000  0.00000000  0.50000000  1
  Cu  Cu1  1  0.00000000  0.50000000  0.00000000  1
  O  O0  1  0.50000000  0.50000000  0.50000000  1
  O  O1  1  0.50000000  0.00000000  0.00000000  1
  O  O2  1  0.24041700  0.35690400  0.85690400  1
  O  O3  1  0.24041700  0.64309600  0.14309600  1
  O  O4  1  0.24445900  0.13618100  0.36381900  1
  O  O5  1  0.24445900  0.86381900  0.63618100  1
  O  O6  1  0.75958300  0.64309600  0.14309600  1
  O  O7  1  0.75958300  0.35690400  0.85690400  1
  O  O8  1  0.75554100  0.86381900  0.63618100  1
  O  O9  1  0.75554100  0.13618100  0.36381900  1
loop_
_geom_bond_atom_site_label_1
_geom_bond_atom_site_label_2
_geom_bond_distance
_geom_bond_site_symmetry_2
Ba0 O0 2.950590 1_555
Ba0 O0 2.950590 1_455
Ba0 O2 2.979419 1_555
Ba0 O6 2.979419 1_455
Ba0 O3 2.979419 1_555
Ba0 O7 2.979419 1_455
Ba0 O4 3.000885 1_555
Ba0 O5 3.000885 1_555
Ba0 O9 3.000885 1_455
Ba0 O8 3.000885 1_455
Ba1 O1 2.950590 1_455
Ba1 O1 2.950590 1_555
Ba1 O3 2.979419 1_545
Ba1 O7 2.979419 1_454
Ba1 O6 2.979419 1_445
Ba1 O2 2.979419 1_554
Ba1 O5 3.000885 1_544
Ba1 O4 3.000885 1_555
Ba1 O9 3.000885 1_455
Ba1 O8 3.000885 1_444
La0 O9 2.365782 1_555
La0 O4 2.365782 1_555
La0 O1 2.498669 1_555
La0 O0 2.498669 1_555
La0 O3 2.658486 1_555
La0 O6 2.658486 1_555
La0 O2 2.658486 1_554
La0 O7 2.658486 1_554
La1 O8 2.365782 1_555
La1 O5 2.365782 1_555
La1 O0 2.498669 1_555
La1 O1 2.498669 1_566
La1 O7 2.658486 1_555
La1 O2 2.658486 1_555
La1 O6 2.658486 1_556
La1 O3 2.658486 1_556
Cu0 O5 1.951301 1_545
Cu0 O4 1.951301 1_555
Cu0 O8 1.951301 1_445
Cu0 O9 1.951301 1_455
Cu1 O7 1.971357 1_454
Cu1 O3 1.971357 1_555
Cu1 O6 1.971357 1_455
Cu1 O2 1.971357 1_554
O0 Sm1 2.519618 1_555
O0 Sm0 2.519618 1_555
O1 Sm1 2.519618 1_545
O1 Sm0 2.519618 1_554
O2 Sm0 2.326141 1_555
O3 Sm1 2.326141 1_555
O4 Sm0 2.601355 1_555
O4 Sm1 2.601355 1_545
O5 Sm0 2.601355 1_565
O5 Sm1 2.601355 1_555
O6 Sm1 2.326141 1_555
O7 Sm0 2.326141 1_555
O8 Sm0 2.601355 1_565
O8 Sm1 2.601355 1_555
O9 Sm1 2.601355 1_545
O9 Sm0 2.601355 1_555
