# generated using pymatgen
data_Ti6Ge5
_symmetry_space_group_name_H-M   'P 1'
_cell_length_a   5.21961321
_cell_length_b   7.93487210
_cell_length_c   9.68314398
_cell_angle_alpha   114.19364695
_cell_angle_beta   105.63667244
_cell_angle_gamma   89.99960451
_symmetry_Int_Tables_number   1
_chemical_formula_structural   Ti6Ge5
_chemical_formula_sum   'Ti12 Ge10'
_cell_volume   349.48560818
_cell_formula_units_Z   2
loop_
 _symmetry_equiv_pos_site_id
 _symmetry_equiv_pos_as_xyz
  1  'x, y, z'
loop_
 _atom_site_type_symbol
 _atom_site_label
 _atom_site_symmetry_multiplicity
 _atom_site_fract_x
 _atom_site_fract_y
 _atom_site_fract_z
 _atom_site_occupancy
  Ti  Ti0  1  0.14214046  0.25500777  0.28428262  1
  Ti  Ti1  1  0.85785954  0.74499223  0.71571738  1
  Ti  Ti2  1  0.35848899  0.97076392  0.71697301  1
  Ti  Ti3  1  0.64151101  0.02923608  0.28302699  1
  Ti  Ti4  1  0.43728549  0.67927026  0.87456997  1
  Ti  Ti5  1  0.56271451  0.32072974  0.12543003  1
  Ti  Ti6  1  0.06288587  0.80478043  0.12572555  1
  Ti  Ti7  1  0.93711413  0.19521957  0.87427445  1
  Ti  Ti8  1  0.05858416  0.30870757  0.61708716  1
  Ti  Ti9  1  0.44149101  0.69128376  0.38289848  1
  Ti  Ti10  1  0.94141584  0.69129243  0.38291284  1
  Ti  Ti11  1  0.55850899  0.30871624  0.61710152  1
  Ge  Ge0  1  0.28921510  0.58835299  0.57831897  1
  Ge  Ge1  1  0.71078490  0.41164701  0.42168103  1
  Ge  Ge2  1  0.21094665  0.01001894  0.42202032  1
  Ge  Ge3  1  0.78905335  0.98998106  0.57797968  1
  Ge  Ge4  1  0.06792993  0.47035594  0.13588309  1
  Ge  Ge5  1  0.93207007  0.52964406  0.86411691  1
  Ge  Ge6  1  0.43199545  0.33448381  0.86397486  1
  Ge  Ge7  1  0.56800455  0.66551619  0.13602514  1
  Ge  Ge8  1  0.75025270  -0.00000069  -0.00000262  1
  Ge  Ge9  1  0.24974730  0.00000069  0.00000262  1
loop_
_geom_bond_atom_site_label_1
_geom_bond_atom_site_label_2
_geom_bond_distance
_geom_bond_site_symmetry_2
Ge0 Ti4 2.540761 1_555
Ge0 Ti9 2.637633 1_555
Ge0 Ti10 2.637814 1_455
Ge0 Ti11 2.727378 1_555
Ge0 Ti8 2.727675 1_555
Ge0 Ti2 2.745890 1_555
Ge0 Ti0 2.888112 1_555
Ge0 Ti1 2.939469 1_555
Ge0 Ti1 2.939999 1_455
Ge1 Ti5 2.540761 1_555
Ge1 Ti11 2.637633 1_555
Ge1 Ti8 2.637814 1_655
Ge1 Ti9 2.727378 1_555
Ge1 Ti10 2.727675 1_555
Ge1 Ti3 2.745890 1_555
Ge1 Ti1 2.888112 1_555
Ge1 Ti0 2.939469 1_555
Ge1 Ti0 2.939999 1_655
Ge2 Ti6 2.540863 1_545
Ge2 Ti8 2.637776 1_555
Ge2 Ti11 2.638171 1_555
Ge2 Ti10 2.728848 1_445
Ge2 Ti9 2.729182 1_545
Ge2 Ti0 2.748394 1_555
Ge2 Ti2 2.896672 1_545
Ge2 Ti3 2.946287 1_455
Ge2 Ti3 2.946890 1_555
Ge3 Ti7 2.540863 1_565
Ge3 Ti10 2.637776 1_555
Ge3 Ti9 2.638171 1_555
Ge3 Ti8 2.728848 1_665
Ge3 Ti11 2.729182 1_565
Ge3 Ti1 2.748394 1_555
Ge3 Ti3 2.896672 1_565
Ge3 Ti2 2.946287 1_655
Ge3 Ti2 2.946890 1_555
Ge4 Ti7 2.486801 1_454
Ge4 Ti9 2.577837 1_555
Ge4 Ti10 2.577900 1_455
Ge4 Ti0 2.616739 1_555
Ge4 Ti6 2.695287 1_555
Ge4 Ti5 2.851565 1_455
Ge4 Ti5 2.851659 1_555
Ge5 Ti6 2.486801 1_656
Ge5 Ti11 2.577837 1_555
Ge5 Ti8 2.577900 1_655
Ge5 Ti1 2.616739 1_555
Ge5 Ti7 2.695287 1_555
Ge5 Ti4 2.851565 1_655
Ge5 Ti4 2.851659 1_555
Ge6 Ti5 2.486418 1_556
Ge6 Ti11 2.577355 1_555
Ge6 Ti8 2.577458 1_555
Ge6 Ti2 2.615565 1_545
Ge6 Ti4 2.695275 1_555
Ge6 Ti7 2.851468 1_555
Ge6 Ti7 2.851783 1_455
Ge7 Ti4 2.486418 1_554
Ge7 Ti9 2.577355 1_555
Ge7 Ti10 2.577458 1_555
Ge7 Ti3 2.615565 1_565
Ge7 Ti5 2.695275 1_555
Ge7 Ti6 2.851468 1_555
Ge7 Ti6 2.851783 1_655
Ge8 Ge9 2.607155 1_655
Ge8 Ge9 2.612458 1_555
Ge8 Ti4 2.649047 1_544
Ge8 Ti5 2.649061 1_555
Ge8 Ti7 2.649279 1_554
Ge8 Ti6 2.649394 1_645
Ge8 Ti2 2.864239 1_544
Ge8 Ti3 2.864329 1_555
Ge8 Ti1 2.873211 1_544
Ge8 Ti0 2.873214 1_655
Ge9 Ti5 2.649047 1_555
Ge9 Ti4 2.649061 1_544
Ge9 Ti6 2.649279 1_545
Ge9 Ti7 2.649394 1_454
Ge9 Ti3 2.864239 1_555
Ge9 Ti2 2.864329 1_544
Ge9 Ti0 2.873211 1_555
Ge9 Ti1 2.873214 1_444
