# generated using pymatgen
data_SmEr(Co2Ni3)2
_symmetry_space_group_name_H-M   'P 1'
_cell_length_a   3.95770500
_cell_length_b   4.89119900
_cell_length_c   8.41520200
_cell_angle_alpha   90.00000000
_cell_angle_beta   90.00000000
_cell_angle_gamma   90.00000000
_symmetry_Int_Tables_number   1
_chemical_formula_structural   SmEr(Co2Ni3)2
_chemical_formula_sum   'Sm1 Er1 Co4 Ni6'
_cell_volume   162.90083014
_cell_formula_units_Z   1
loop_
 _symmetry_equiv_pos_site_id
 _symmetry_equiv_pos_as_xyz
  1  'x, y, z'
loop_
 _atom_site_type_symbol
 _atom_site_label
 _atom_site_symmetry_multiplicity
 _atom_site_fract_x
 _atom_site_fract_y
 _atom_site_fract_z
 _atom_site_occupancy
  Sm  Sm0  1  0.00000000  0.00000000  0.50000000  1
  Er  Er0  1  0.00000000  0.50000000  0.00000000  1
  Co  Co0  1  0.00000000  0.50000000  0.33118300  1
  Co  Co1  1  0.00000000  0.00000000  0.83915900  1
  Co  Co2  1  0.00000000  0.00000000  0.16084100  1
  Co  Co3  1  0.00000000  0.50000000  0.66881700  1
  Ni  Ni0  1  0.50000000  0.50000000  0.50000000  1
  Ni  Ni1  1  0.50000000  0.00000000  0.00000000  1
  Ni  Ni2  1  0.50000000  0.74784300  0.24675800  1
  Ni  Ni3  1  0.50000000  0.25215700  0.75324200  1
  Ni  Ni4  1  0.50000000  0.25215700  0.24675800  1
  Ni  Ni5  1  0.50000000  0.74784300  0.75324200  1
loop_
_geom_bond_atom_site_label_1
_geom_bond_atom_site_label_2
_geom_bond_distance
_geom_bond_site_symmetry_2
Er0 Ni5 3.114054 1_554
Er0 Ni5 3.114054 1_454
Er0 Ni4 3.114054 1_555
Er0 Ni3 3.114054 1_554
Er0 Ni2 3.114054 1_455
Er0 Ni4 3.114054 1_455
Er0 Ni2 3.114054 1_555
Er0 Ni3 3.114054 1_454
Er0 Ni1 3.145920 1_455
Er0 Ni1 3.145920 1_565
Er0 Ni1 3.145920 1_555
Er0 Ni1 3.145920 1_465
Co0 Ni4 2.426963 1_455
Co0 Ni2 2.426963 1_555
Co0 Ni4 2.426963 1_555
Co0 Ni2 2.426963 1_455
Co0 Ni0 2.435989 1_455
Co0 Ni0 2.435989 1_555
Co0 Er0 2.786972 1_555
Co0 Sm0 2.828276 1_565
Co0 Sm0 2.828276 1_555
Co1 Ni1 2.397466 1_556
Co1 Ni1 2.397466 1_456
Co1 Ni5 2.441260 1_545
Co1 Ni5 2.441260 1_445
Co1 Ni3 2.441260 1_455
Co1 Ni3 2.441260 1_555
Co1 Er0 2.795165 1_546
Co1 Er0 2.795165 1_556
Co1 Sm0 2.854091 1_555
Co2 Ni1 2.397466 1_555
Co2 Ni1 2.397466 1_455
Co2 Ni2 2.441260 1_545
Co2 Ni2 2.441260 1_445
Co2 Ni4 2.441260 1_455
Co2 Ni4 2.441260 1_555
Co2 Er0 2.795165 1_555
Co2 Er0 2.795165 1_545
Co2 Sm0 2.854091 1_555
Co3 Ni5 2.426963 1_455
Co3 Ni3 2.426963 1_555
Co3 Ni3 2.426963 1_455
Co3 Ni5 2.426963 1_555
Co3 Ni0 2.435989 1_455
Co3 Ni0 2.435989 1_555
Co3 Er0 2.786972 1_556
Co3 Sm0 2.828276 1_565
Co3 Sm0 2.828276 1_555
Ni0 Ni3 2.451747 1_555
Ni0 Ni2 2.451747 1_555
Ni0 Ni4 2.451747 1_555
Ni0 Ni5 2.451747 1_555
Ni0 Sm0 3.145920 1_555
Ni0 Sm0 3.145920 1_665
Ni0 Sm0 3.145920 1_655
Ni0 Sm0 3.145920 1_565
Ni1 Ni5 2.415177 1_544
Ni1 Ni3 2.415177 1_554
Ni1 Ni2 2.415177 1_545
Ni1 Ni4 2.415177 1_555
Ni2 Ni4 2.424499 1_555
Ni2 Ni4 2.466700 1_565
Ni2 Sm0 3.158880 1_665
Ni2 Sm0 3.158880 1_565
Ni3 Ni5 2.424499 1_555
Ni3 Ni5 2.466700 1_545
Ni3 Sm0 3.158880 1_655
Ni3 Sm0 3.158880 1_555
Ni4 Sm0 3.158880 1_655
Ni4 Sm0 3.158880 1_555
Ni5 Sm0 3.158880 1_665
Ni5 Sm0 3.158880 1_565
