# generated using pymatgen
data_CsZn8
_symmetry_space_group_name_H-M   'P 1'
_cell_length_a   18.84419094
_cell_length_b   18.84419094
_cell_length_c   18.84419094
_cell_angle_alpha   162.05255828
_cell_angle_beta   135.66012858
_cell_angle_gamma   48.19895059
_symmetry_Int_Tables_number   1
_chemical_formula_structural   CsZn8
_chemical_formula_sum   'Cs8 Zn64'
_cell_volume   1438.16619837
_cell_formula_units_Z   8
loop_
 _symmetry_equiv_pos_site_id
 _symmetry_equiv_pos_as_xyz
  1  'x, y, z'
loop_
 _atom_site_type_symbol
 _atom_site_label
 _atom_site_symmetry_multiplicity
 _atom_site_fract_x
 _atom_site_fract_y
 _atom_site_fract_z
 _atom_site_occupancy
  Cs  Cs0_0  1  0.37469950  0.37469950  0.00000000  1
  Cs  Cs0_1  1  0.37469950  0.37469950  0.50000000  1
  Cs  Cs0_2  1  0.37469950  0.87469950  0.00000000  1
  Cs  Cs0_3  1  0.37469950  0.87469950  0.50000000  1
  Cs  Cs0_4  1  0.87469950  0.37469950  0.00000000  1
  Cs  Cs0_5  1  0.87469950  0.37469950  0.50000000  1
  Cs  Cs0_6  1  0.87469950  0.87469950  0.00000000  1
  Cs  Cs0_7  1  0.87469950  0.87469950  0.50000000  1
  Zn  Zn0_0  1  0.15847650  0.40847650  0.25000000  1
  Zn  Zn0_1  1  0.15847650  0.40847650  0.75000000  1
  Zn  Zn0_2  1  0.15847650  0.90847650  0.25000000  1
  Zn  Zn0_3  1  0.15847650  0.90847650  0.75000000  1
  Zn  Zn0_4  1  0.65847650  0.40847650  0.25000000  1
  Zn  Zn0_5  1  0.65847650  0.40847650  0.75000000  1
  Zn  Zn0_6  1  0.65847650  0.90847650  0.25000000  1
  Zn  Zn0_7  1  0.65847650  0.90847650  0.75000000  1
  Zn  Zn1_0  1  0.09182250  0.09182250  0.00000000  1
  Zn  Zn1_1  1  0.09182250  0.09182250  0.50000000  1
  Zn  Zn1_2  1  0.09182250  0.59182250  0.00000000  1
  Zn  Zn1_3  1  0.09182250  0.59182250  0.50000000  1
  Zn  Zn1_4  1  0.59182250  0.09182250  0.00000000  1
  Zn  Zn1_5  1  0.59182250  0.09182250  0.50000000  1
  Zn  Zn1_6  1  0.59182250  0.59182250  0.00000000  1
  Zn  Zn1_7  1  0.59182250  0.59182250  0.50000000  1
  Zn  Zn2_0  1  0.26857700  0.01857700  0.25000000  1
  Zn  Zn2_1  1  0.26857700  0.01857700  0.75000000  1
  Zn  Zn2_2  1  0.26857700  0.51857700  0.25000000  1
  Zn  Zn2_3  1  0.26857700  0.51857700  0.75000000  1
  Zn  Zn2_4  1  0.76857700  0.01857700  0.25000000  1
  Zn  Zn2_5  1  0.76857700  0.01857700  0.75000000  1
  Zn  Zn2_6  1  0.76857700  0.51857700  0.25000000  1
  Zn  Zn2_7  1  0.76857700  0.51857700  0.75000000  1
  Zn  Zn3_0  1  0.48149500  0.48149500  0.00000000  1
  Zn  Zn3_1  1  0.48149500  0.48149500  0.50000000  1
  Zn  Zn3_2  1  0.48149500  0.98149500  0.00000000  1
  Zn  Zn3_3  1  0.48149500  0.98149500  0.50000000  1
  Zn  Zn3_4  1  0.98149500  0.48149500  0.00000000  1
  Zn  Zn3_5  1  0.98149500  0.48149500  0.50000000  1
  Zn  Zn3_6  1  0.98149500  0.98149500  0.00000000  1
  Zn  Zn3_7  1  0.98149500  0.98149500  0.50000000  1
  Zn  Zn4_0  1  0.44042250  0.29036650  0.15005600  1
  Zn  Zn4_1  1  0.44042250  0.29036650  0.65005600  1
  Zn  Zn4_2  1  0.44042250  0.79036650  0.15005600  1
  Zn  Zn4_3  1  0.44042250  0.79036650  0.65005600  1
  Zn  Zn4_4  1  0.94042250  0.29036650  0.15005600  1
  Zn  Zn4_5  1  0.94042250  0.29036650  0.65005600  1
  Zn  Zn4_6  1  0.94042250  0.79036650  0.15005600  1
  Zn  Zn4_7  1  0.94042250  0.79036650  0.65005600  1
  Zn  Zn5_0  1  0.31007800  0.20934850  0.10072950  1
  Zn  Zn5_1  1  0.31007800  0.20934850  0.60072950  1
  Zn  Zn5_2  1  0.31007800  0.70934850  0.10072950  1
  Zn  Zn5_3  1  0.31007800  0.70934850  0.60072950  1
  Zn  Zn5_4  1  0.81007800  0.20934850  0.10072950  1
  Zn  Zn5_5  1  0.81007800  0.20934850  0.60072950  1
  Zn  Zn5_6  1  0.81007800  0.70934850  0.10072950  1
  Zn  Zn5_7  1  0.81007800  0.70934850  0.60072950  1
  Zn  Zn6_0  1  0.10861900  0.20934850  0.39927050  1
  Zn  Zn6_1  1  0.10861900  0.20934850  0.89927050  1
  Zn  Zn6_2  1  0.10861900  0.70934850  0.39927050  1
  Zn  Zn6_3  1  0.10861900  0.70934850  0.89927050  1
  Zn  Zn6_4  1  0.60861900  0.20934850  0.39927050  1
  Zn  Zn6_5  1  0.60861900  0.20934850  0.89927050  1
  Zn  Zn6_6  1  0.60861900  0.70934850  0.39927050  1
  Zn  Zn6_7  1  0.60861900  0.70934850  0.89927050  1
  Zn  Zn7_0  1  0.14031000  0.29036650  0.34994400  1
  Zn  Zn7_1  1  0.14031000  0.29036650  0.84994400  1
  Zn  Zn7_2  1  0.14031000  0.79036650  0.34994400  1
  Zn  Zn7_3  1  0.14031000  0.79036650  0.84994400  1
  Zn  Zn7_4  1  0.64031000  0.29036650  0.34994400  1
  Zn  Zn7_5  1  0.64031000  0.29036650  0.84994400  1
  Zn  Zn7_6  1  0.64031000  0.79036650  0.34994400  1
  Zn  Zn7_7  1  0.64031000  0.79036650  0.84994400  1
loop_
_geom_bond_atom_site_label_1
_geom_bond_atom_site_label_2
_geom_bond_distance
_geom_bond_site_symmetry_2
Cs0_0 Cs0_3 2.939344 1_544
Cs0_0 Cs0_3 2.939344 1_555
Cs0_0 Zn4_0 3.601677 1_555
Cs0_0 Zn7_1 3.601686 1_554
Cs0_0 Zn3_0 3.674127 1_555
Cs0_0 Zn0_1 3.740553 1_554
Cs0_0 Zn0_4 3.740553 1_555
Cs0_1 Cs0_2 2.939344 1_545
Cs0_1 Cs0_2 2.939344 1_556
Cs0_1 Zn4_1 3.601677 1_555
Cs0_1 Zn7_0 3.601686 1_555
Cs0_1 Zn3_1 3.674127 1_555
Cs0_1 Zn0_0 3.740553 1_555
Cs0_1 Zn0_5 3.740553 1_555
Cs0_2 Zn4_2 3.601677 1_555
Cs0_2 Zn7_3 3.601686 1_554
Cs0_2 Zn3_2 3.674127 1_555
Cs0_2 Zn0_3 3.740553 1_554
Cs0_2 Zn0_6 3.740553 1_555
Cs0_3 Zn4_3 3.601677 1_555
Cs0_3 Zn7_2 3.601686 1_555
Cs0_3 Zn3_3 3.674127 1_555
Cs0_3 Zn0_2 3.740553 1_555
Cs0_3 Zn0_7 3.740553 1_555
Cs0_4 Cs0_7 2.939344 1_555
Cs0_4 Cs0_7 2.939344 1_544
Cs0_4 Zn4_4 3.601677 1_555
Cs0_4 Zn7_5 3.601686 1_554
Cs0_4 Zn3_4 3.674127 1_555
Cs0_4 Zn0_5 3.740553 1_554
Cs0_4 Zn0_0 3.740553 1_655
Cs0_5 Cs0_6 2.939344 1_545
Cs0_5 Cs0_6 2.939344 1_556
Cs0_5 Zn4_5 3.601677 1_555
Cs0_5 Zn7_4 3.601686 1_555
Cs0_5 Zn3_5 3.674127 1_555
Cs0_5 Zn0_4 3.740553 1_555
Cs0_5 Zn0_1 3.740553 1_655
Cs0_6 Zn4_6 3.601677 1_555
Cs0_6 Zn7_7 3.601686 1_554
Cs0_6 Zn3_6 3.674127 1_555
Cs0_6 Zn0_7 3.740553 1_554
Cs0_6 Zn0_2 3.740553 1_655
Cs0_7 Zn4_7 3.601677 1_555
Cs0_7 Zn7_6 3.601686 1_555
Cs0_7 Zn3_7 3.674127 1_555
Cs0_7 Zn0_6 3.740553 1_555
Cs0_7 Zn0_3 3.740553 1_655
Zn0_0 Zn5_0 2.697270 1_555
Zn0_0 Zn5_3 2.697270 1_555
Zn0_0 Zn6_1 2.697270 1_554
Zn0_0 Zn6_2 2.697270 1_555
Zn0_0 Zn1_3 2.723665 1_555
Zn0_0 Zn1_0 2.723665 1_555
Zn0_0 Zn0_3 2.939344 1_555
Zn0_0 Zn0_3 2.939344 1_544
Zn0_1 Zn5_1 2.697270 1_555
Zn0_1 Zn5_2 2.697270 1_556
Zn0_1 Zn6_0 2.697270 1_555
Zn0_1 Zn6_3 2.697270 1_555
Zn0_1 Zn1_1 2.723665 1_555
Zn0_1 Zn1_2 2.723665 1_556
Zn0_1 Zn0_2 2.939344 1_556
Zn0_1 Zn0_2 2.939344 1_545
Zn0_2 Zn5_2 2.697270 1_555
Zn0_2 Zn5_1 2.697270 1_565
Zn0_2 Zn6_0 2.697270 1_565
Zn0_2 Zn6_3 2.697270 1_554
Zn0_2 Zn1_2 2.723665 1_555
Zn0_2 Zn1_1 2.723665 1_565
Zn0_3 Zn5_3 2.697270 1_555
Zn0_3 Zn5_0 2.697270 1_566
Zn0_3 Zn6_1 2.697270 1_565
Zn0_3 Zn6_2 2.697270 1_555
Zn0_3 Zn1_3 2.723665 1_555
Zn0_3 Zn1_0 2.723665 1_566
Zn0_4 Zn5_4 2.697270 1_555
Zn0_4 Zn5_7 2.697270 1_555
Zn0_4 Zn6_6 2.697270 1_555
Zn0_4 Zn6_5 2.697270 1_554
Zn0_4 Zn1_7 2.723665 1_555
Zn0_4 Zn1_4 2.723665 1_555
Zn0_4 Zn0_7 2.939344 1_555
Zn0_4 Zn0_7 2.939344 1_544
Zn0_5 Zn5_5 2.697270 1_555
Zn0_5 Zn5_6 2.697270 1_556
Zn0_5 Zn6_4 2.697270 1_555
Zn0_5 Zn6_7 2.697270 1_555
Zn0_5 Zn1_6 2.723665 1_556
Zn0_5 Zn1_5 2.723665 1_555
Zn0_5 Zn0_6 2.939344 1_545
Zn0_5 Zn0_6 2.939344 1_556
Zn0_6 Zn5_6 2.697270 1_555
Zn0_6 Zn5_5 2.697270 1_565
Zn0_6 Zn6_4 2.697270 1_565
Zn0_6 Zn6_7 2.697270 1_554
Zn0_6 Zn1_6 2.723665 1_555
Zn0_6 Zn1_5 2.723665 1_565
Zn0_7 Zn5_7 2.697270 1_555
Zn0_7 Zn5_4 2.697270 1_566
Zn0_7 Zn6_6 2.697270 1_555
Zn0_7 Zn6_5 2.697270 1_565
Zn0_7 Zn1_7 2.723665 1_555
Zn0_7 Zn1_4 2.723665 1_566
Zn1_0 Zn4_4 2.704462 1_455
Zn1_0 Zn4_7 2.704462 1_444
Zn1_0 Zn7_3 2.704465 1_544
Zn1_0 Zn7_0 2.704467 1_555
Zn1_0 Zn1_3 2.939344 1_544
Zn1_0 Zn1_3 2.939344 1_555
Zn1_1 Zn4_5 2.704462 1_455
Zn1_1 Zn4_6 2.704462 1_445
Zn1_1 Zn7_2 2.704465 1_545
Zn1_1 Zn7_1 2.704467 1_555
Zn1_1 Zn1_2 2.939344 1_545
Zn1_1 Zn1_2 2.939344 1_556
Zn1_2 Zn4_6 2.704462 1_455
Zn1_2 Zn4_5 2.704462 1_454
Zn1_2 Zn7_1 2.704465 1_554
Zn1_2 Zn7_2 2.704467 1_555
Zn1_3 Zn4_7 2.704462 1_455
Zn1_3 Zn4_4 2.704462 1_455
Zn1_3 Zn7_0 2.704465 1_555
Zn1_3 Zn7_3 2.704467 1_555
Zn1_4 Zn4_0 2.704462 1_555
Zn1_4 Zn4_3 2.704462 1_544
Zn1_4 Zn7_7 2.704465 1_544
Zn1_4 Zn7_4 2.704467 1_555
Zn1_4 Zn1_7 2.939344 1_555
Zn1_4 Zn1_7 2.939344 1_544
Zn1_5 Zn4_1 2.704462 1_555
Zn1_5 Zn4_2 2.704462 1_545
Zn1_5 Zn7_6 2.704465 1_545
Zn1_5 Zn7_5 2.704467 1_555
Zn1_5 Zn1_6 2.939344 1_556
Zn1_5 Zn1_6 2.939344 1_545
Zn1_6 Zn4_2 2.704462 1_555
Zn1_6 Zn4_1 2.704462 1_554
Zn1_6 Zn7_5 2.704465 1_554
Zn1_6 Zn7_6 2.704467 1_555
Zn1_7 Zn4_3 2.704462 1_555
Zn1_7 Zn4_0 2.704462 1_555
Zn1_7 Zn7_4 2.704465 1_555
Zn1_7 Zn7_7 2.704467 1_555
Zn2_0 Zn7_3 2.697440 1_544
Zn2_0 Zn4_1 2.697441 1_555
Zn2_0 Zn4_2 2.697441 1_545
Zn2_0 Zn7_0 2.697442 1_555
Zn2_0 Zn6_0 2.892099 1_555
Zn2_0 Zn6_3 2.892099 1_544
Zn2_0 Zn5_1 2.892099 1_555
Zn2_0 Zn5_2 2.892099 1_545
Zn2_0 Zn2_3 2.939344 1_555
Zn2_0 Zn2_3 2.939344 1_544
Zn2_1 Zn7_2 2.697440 1_545
Zn2_1 Zn4_0 2.697441 1_556
Zn2_1 Zn4_3 2.697441 1_545
Zn2_1 Zn7_1 2.697442 1_555
Zn2_1 Zn6_1 2.892099 1_555
Zn2_1 Zn6_2 2.892099 1_545
Zn2_1 Zn5_3 2.892099 1_545
Zn2_1 Zn5_0 2.892099 1_556
Zn2_1 Zn2_2 2.939344 1_556
Zn2_1 Zn2_2 2.939344 1_545
Zn2_2 Zn7_1 2.697440 1_554
Zn2_2 Zn4_3 2.697441 1_555
Zn2_2 Zn4_0 2.697441 1_555
Zn2_2 Zn7_2 2.697442 1_555
Zn2_2 Zn6_1 2.892099 1_554
Zn2_2 Zn6_2 2.892099 1_555
Zn2_2 Zn5_0 2.892099 1_555
Zn2_2 Zn5_3 2.892099 1_555
Zn2_3 Zn7_0 2.697440 1_555
Zn2_3 Zn4_2 2.697441 1_556
Zn2_3 Zn4_1 2.697441 1_555
Zn2_3 Zn7_3 2.697442 1_555
Zn2_3 Zn6_0 2.892099 1_555
Zn2_3 Zn6_3 2.892099 1_555
Zn2_3 Zn5_1 2.892099 1_555
Zn2_3 Zn5_2 2.892099 1_556
Zn2_4 Zn7_7 2.697440 1_544
Zn2_4 Zn4_5 2.697441 1_555
Zn2_4 Zn4_6 2.697441 1_545
Zn2_4 Zn7_4 2.697442 1_555
Zn2_4 Zn6_4 2.892099 1_555
Zn2_4 Zn6_7 2.892099 1_544
Zn2_4 Zn5_6 2.892099 1_545
Zn2_4 Zn5_5 2.892099 1_555
Zn2_4 Zn2_7 2.939344 1_555
Zn2_4 Zn2_7 2.939344 1_544
Zn2_5 Zn7_6 2.697440 1_545
Zn2_5 Zn4_4 2.697441 1_556
Zn2_5 Zn4_7 2.697441 1_545
Zn2_5 Zn7_5 2.697442 1_555
Zn2_5 Zn6_5 2.892099 1_555
Zn2_5 Zn6_6 2.892099 1_545
Zn2_5 Zn5_7 2.892099 1_545
Zn2_5 Zn5_4 2.892099 1_556
Zn2_5 Zn2_6 2.939344 1_545
Zn2_5 Zn2_6 2.939344 1_556
Zn2_6 Zn7_5 2.697440 1_554
Zn2_6 Zn4_7 2.697441 1_555
Zn2_6 Zn4_4 2.697441 1_555
Zn2_6 Zn7_6 2.697442 1_555
Zn2_6 Zn6_5 2.892099 1_554
Zn2_6 Zn6_6 2.892099 1_555
Zn2_6 Zn5_7 2.892099 1_555
Zn2_6 Zn5_4 2.892099 1_555
Zn2_7 Zn7_4 2.697440 1_555
Zn2_7 Zn4_6 2.697441 1_556
Zn2_7 Zn4_5 2.697441 1_555
Zn2_7 Zn7_7 2.697442 1_555
Zn2_7 Zn6_4 2.892099 1_555
Zn2_7 Zn6_7 2.892099 1_555
Zn2_7 Zn5_5 2.892099 1_555
Zn2_7 Zn5_6 2.892099 1_556
Zn3_0 Zn6_5 2.692061 1_554
Zn3_0 Zn6_6 2.692061 1_555
Zn3_0 Zn5_1 2.692061 1_554
Zn3_0 Zn5_2 2.692061 1_555
Zn3_0 Zn7_5 2.877917 1_554
Zn3_0 Zn7_6 2.877918 1_555
Zn3_0 Zn4_2 2.877925 1_555
Zn3_0 Zn4_1 2.877925 1_554
Zn3_0 Zn3_3 2.939344 1_555
Zn3_0 Zn3_3 2.939344 1_544
Zn3_1 Zn6_7 2.692061 1_555
Zn3_1 Zn6_4 2.692061 1_555
Zn3_1 Zn5_0 2.692061 1_555
Zn3_1 Zn5_3 2.692061 1_555
Zn3_1 Zn7_4 2.877917 1_555
Zn3_1 Zn7_7 2.877918 1_555
Zn3_1 Zn4_0 2.877925 1_555
Zn3_1 Zn4_3 2.877925 1_555
Zn3_1 Zn3_2 2.939344 1_545
Zn3_1 Zn3_2 2.939344 1_556
Zn3_2 Zn6_7 2.692061 1_554
Zn3_2 Zn6_4 2.692061 1_565
Zn3_2 Zn5_3 2.692061 1_554
Zn3_2 Zn5_0 2.692061 1_565
Zn3_2 Zn7_7 2.877917 1_554
Zn3_2 Zn7_4 2.877918 1_565
Zn3_2 Zn4_0 2.877925 1_565
Zn3_2 Zn4_3 2.877925 1_554
Zn3_3 Zn6_5 2.692061 1_565
Zn3_3 Zn6_6 2.692061 1_555
Zn3_3 Zn5_2 2.692061 1_555
Zn3_3 Zn5_1 2.692061 1_565
Zn3_3 Zn7_6 2.877917 1_555
Zn3_3 Zn7_5 2.877918 1_565
Zn3_3 Zn4_2 2.877925 1_555
Zn3_3 Zn4_1 2.877925 1_565
Zn3_4 Zn6_2 2.692061 1_655
Zn3_4 Zn6_1 2.692061 1_654
Zn3_4 Zn5_6 2.692061 1_555
Zn3_4 Zn5_5 2.692061 1_554
Zn3_4 Zn7_1 2.877917 1_654
Zn3_4 Zn7_2 2.877918 1_655
Zn3_4 Zn4_6 2.877925 1_555
Zn3_4 Zn4_5 2.877925 1_554
Zn3_4 Zn3_7 2.939344 1_555
Zn3_4 Zn3_7 2.939344 1_544
Zn3_5 Zn6_3 2.692061 1_655
Zn3_5 Zn6_0 2.692061 1_655
Zn3_5 Zn5_4 2.692061 1_555
Zn3_5 Zn5_7 2.692061 1_555
Zn3_5 Zn7_0 2.877917 1_655
Zn3_5 Zn7_3 2.877918 1_655
Zn3_5 Zn4_4 2.877925 1_555
Zn3_5 Zn4_7 2.877925 1_555
Zn3_5 Zn3_6 2.939344 1_556
Zn3_5 Zn3_6 2.939344 1_545
Zn3_6 Zn6_3 2.692061 1_654
Zn3_6 Zn6_0 2.692061 1_665
Zn3_6 Zn5_7 2.692061 1_554
Zn3_6 Zn5_4 2.692061 1_565
Zn3_6 Zn7_3 2.877917 1_654
Zn3_6 Zn7_0 2.877918 1_665
Zn3_6 Zn4_4 2.877925 1_565
Zn3_6 Zn4_7 2.877925 1_554
Zn3_7 Zn6_2 2.692061 1_655
Zn3_7 Zn6_1 2.692061 1_665
Zn3_7 Zn5_6 2.692061 1_555
Zn3_7 Zn5_5 2.692061 1_565
Zn3_7 Zn7_2 2.877917 1_655
Zn3_7 Zn7_1 2.877918 1_665
Zn3_7 Zn4_5 2.877925 1_565
Zn3_7 Zn4_6 2.877925 1_555
Zn4_0 Zn7_4 2.842783 1_555
Zn4_0 Zn5_0 2.874218 1_555
Zn4_0 Zn4_3 2.939344 1_544
Zn4_0 Zn4_3 2.939344 1_555
Zn4_1 Zn7_5 2.842783 1_555
Zn4_1 Zn5_1 2.874218 1_555
Zn4_1 Zn4_2 2.939344 1_545
Zn4_1 Zn4_2 2.939344 1_556
Zn4_2 Zn7_6 2.842783 1_555
Zn4_2 Zn5_2 2.874218 1_555
Zn4_3 Zn7_7 2.842783 1_555
Zn4_3 Zn5_3 2.874218 1_555
Zn4_4 Zn7_0 2.842783 1_655
Zn4_4 Zn5_4 2.874218 1_555
Zn4_4 Zn4_7 2.939344 1_555
Zn4_4 Zn4_7 2.939344 1_544
Zn4_5 Zn7_1 2.842783 1_655
Zn4_5 Zn5_5 2.874218 1_555
Zn4_5 Zn4_6 2.939344 1_545
Zn4_5 Zn4_6 2.939344 1_556
Zn4_6 Zn7_2 2.842783 1_655
Zn4_6 Zn5_6 2.874218 1_555
Zn4_7 Zn7_3 2.842783 1_655
Zn4_7 Zn5_7 2.874218 1_555
Zn5_0 Zn6_1 2.865129 1_554
Zn5_0 Zn5_3 2.939344 1_544
Zn5_0 Zn5_3 2.939344 1_555
Zn5_1 Zn6_0 2.865129 1_555
Zn5_1 Zn5_2 2.939344 1_545
Zn5_1 Zn5_2 2.939344 1_556
Zn5_2 Zn6_3 2.865129 1_554
Zn5_3 Zn6_2 2.865129 1_555
Zn5_4 Zn6_5 2.865129 1_554
Zn5_4 Zn5_7 2.939344 1_555
Zn5_4 Zn5_7 2.939344 1_544
Zn5_5 Zn6_4 2.865129 1_555
Zn5_5 Zn5_6 2.939344 1_556
Zn5_5 Zn5_6 2.939344 1_545
Zn5_6 Zn6_7 2.865129 1_554
Zn5_7 Zn6_6 2.865129 1_555
Zn6_0 Zn7_0 2.874211 1_555
Zn6_0 Zn6_3 2.939344 1_544
Zn6_0 Zn6_3 2.939344 1_555
Zn6_1 Zn7_1 2.874211 1_555
Zn6_1 Zn6_2 2.939344 1_556
Zn6_1 Zn6_2 2.939344 1_545
Zn6_2 Zn7_2 2.874211 1_555
Zn6_3 Zn7_3 2.874211 1_555
Zn6_4 Zn7_4 2.874211 1_555
Zn6_4 Zn6_7 2.939344 1_544
Zn6_4 Zn6_7 2.939344 1_555
Zn6_5 Zn7_5 2.874211 1_555
Zn6_5 Zn6_6 2.939344 1_545
Zn6_5 Zn6_6 2.939344 1_556
Zn6_6 Zn7_6 2.874211 1_555
Zn6_7 Zn7_7 2.874211 1_555
Zn7_0 Zn7_3 2.939344 1_555
Zn7_0 Zn7_3 2.939344 1_544
Zn7_1 Zn7_2 2.939344 1_545
Zn7_1 Zn7_2 2.939344 1_556
Zn7_4 Zn7_7 2.939344 1_555
Zn7_4 Zn7_7 2.939344 1_544
Zn7_5 Zn7_6 2.939344 1_556
Zn7_5 Zn7_6 2.939344 1_545
