# generated using pymatgen
data_V2FeRe
_symmetry_space_group_name_H-M   'P 1'
_cell_length_a   10.11298423
_cell_length_b   10.11298423
_cell_length_c   10.11298423
_cell_angle_alpha   124.11718125
_cell_angle_beta   113.01649584
_cell_angle_gamma   92.75794237
_symmetry_Int_Tables_number   1
_chemical_formula_structural   V2FeRe
_chemical_formula_sum   'V2 Fe1 Re1'
_cell_volume   737.97712722
_cell_formula_units_Z   1
loop_
 _symmetry_equiv_pos_site_id
 _symmetry_equiv_pos_as_xyz
  1  'x, y, z'
loop_
 _atom_site_type_symbol
 _atom_site_label
 _atom_site_symmetry_multiplicity
 _atom_site_fract_x
 _atom_site_fract_y
 _atom_site_fract_z
 _atom_site_occupancy
  V  V0  1  0.00000000  0.27098700  0.27098700  1
  V  V1  1  0.00000000  0.72901300  0.72901300  1
  Fe  Fe0  1  0.00000000  0.00000000  0.00000000  1
  Re  Re0  1  0.00000000  0.50000000  0.50000000  1
loop_
_geom_bond_atom_site_label_1
_geom_bond_atom_site_label_2
_geom_bond_distance
_geom_bond_site_symmetry_2
Fe0 V0 2.568212 1_555
Fe0 V1 2.568212 1_544
Re0 V0 2.170413 1_555
Re0 V1 2.170413 1_555
