# generated using pymatgen
data_NaLi2(RuO2)6
_symmetry_space_group_name_H-M   'P 1'
_cell_length_a   5.62418800
_cell_length_b   9.51069048
_cell_length_c   9.87308887
_cell_angle_alpha   118.68144573
_cell_angle_beta   105.97453649
_cell_angle_gamma   90.67268895
_symmetry_Int_Tables_number   1
_chemical_formula_structural   NaLi2(RuO2)6
_chemical_formula_sum   'Na2 Li4 Ru12 O24'
_cell_volume   438.89720938
_cell_formula_units_Z   2
loop_
 _symmetry_equiv_pos_site_id
 _symmetry_equiv_pos_as_xyz
  1  'x, y, z'
loop_
 _atom_site_type_symbol
 _atom_site_label
 _atom_site_symmetry_multiplicity
 _atom_site_fract_x
 _atom_site_fract_y
 _atom_site_fract_z
 _atom_site_occupancy
  Na  Na0  1  0.75151300  0.98378400  0.00111000  1
  Na  Na1  1  0.24848700  0.01621600  0.99889000  1
  Li  Li0  1  0.29958400  0.66410100  0.66481300  1
  Li  Li1  1  0.70041600  0.33589900  0.33518700  1
  Li  Li2  1  0.80559100  0.67060700  0.66804100  1
  Li  Li3  1  0.19440900  0.32939300  0.33195900  1
  Ru  Ru0  1  0.46802700  0.97701000  0.35835100  1
  Ru  Ru1  1  0.53197300  0.02299000  0.64164900  1
  Ru  Ru2  1  0.92051600  0.98335800  0.36139100  1
  Ru  Ru3  1  0.07948400  0.01664200  0.63860900  1
  Ru  Ru4  1  0.84156300  0.34384800  0.01882200  1
  Ru  Ru5  1  0.15843700  0.65615200  0.98117800  1
  Ru  Ru6  1  0.38576200  0.33566400  0.02028000  1
  Ru  Ru7  1  0.61423800  0.66433600  0.97972000  1
  Ru  Ru8  1  0.18315300  0.64538800  0.34003200  1
  Ru  Ru9  1  0.81684700  0.35461200  0.65996800  1
  Ru  Ru10  1  0.72760200  0.63586300  0.34016900  1
  Ru  Ru11  1  0.27239800  0.36413700  0.65983100  1
  O  O0  1  0.58575700  0.52585100  0.59431700  1
  O  O1  1  0.41424300  0.47414900  0.40568300  1
  O  O2  1  0.07195900  0.54879600  0.59378100  1
  O  O3  1  0.92804100  0.45120400  0.40621900  1
  O  O4  1  0.32376900  0.72990000  0.09817300  1
  O  O5  1  0.67623100  0.27010000  0.90182700  1
  O  O6  1  0.83084700  0.69877300  0.09772900  1
  O  O7  1  0.16915300  0.30122700  0.90227100  1
  O  O8  1  0.02192400  0.17459400  0.72273900  1
  O  O9  1  0.97807600  0.82540600  0.27726100  1
  O  O10  1  0.51810900  0.20392100  0.69864200  1
  O  O11  1  0.48189100  0.79607900  0.30135800  1
  O  O12  1  0.27645500  0.09530900  0.20291500  1
  O  O13  1  0.72354500  0.90469100  0.79708500  1
  O  O14  1  0.78506000  0.10213100  0.17425400  1
  O  O15  1  0.21494000  0.89786900  0.82574600  1
  O  O16  1  0.59195200  0.86104700  0.55165700  1
  O  O17  1  0.40804800  0.13895300  0.44834300  1
  O  O18  1  0.11128700  0.87532900  0.52578700  1
  O  O19  1  0.88871300  0.12467100  0.47421300  1
  O  O20  1  0.45059900  0.58520300  0.86339700  1
  O  O21  1  0.54940100  0.41479700  0.13660300  1
  O  O22  1  0.93314100  0.59890100  0.87488400  1
  O  O23  1  0.06685900  0.40109900  0.12511600  1
loop_
_geom_bond_atom_site_label_1
_geom_bond_atom_site_label_2
_geom_bond_distance
_geom_bond_site_symmetry_2
Na0 O14 1.481666 1_565
Na0 O13 1.736831 1_554
Na1 O15 1.481666 1_545
Na1 O12 1.736831 1_556
Li0 O2 1.438053 1_555
Li0 O15 2.178212 1_555
Li0 O20 2.374679 1_555
Li1 O3 1.438053 1_555
Li1 O14 2.178212 1_555
Li1 O21 2.374679 1_555
Li2 O0 1.567368 1_555
Li2 O2 1.988469 1_655
Li2 O13 2.101821 1_555
Li2 O22 2.385825 1_555
Li3 O1 1.567368 1_555
Li3 O3 1.988469 1_455
Li3 O12 2.101821 1_555
Li3 O23 2.385825 1_555
O0 Ru9 2.315375 1_555
O1 Ru8 2.315375 1_555
O2 Ru11 2.349811 1_555
O3 Ru10 2.349811 1_555
O4 Ru5 1.143094 1_554
O5 Ru4 1.143094 1_556
O6 Ru7 1.338644 1_554
O7 Ru6 1.338644 1_556
O8 Ru3 1.418850 1_555
O8 Ru9 2.305879 1_455
O9 Ru2 1.418850 1_555
O9 Ru8 2.305879 1_655
O10 Ru1 1.543263 1_555
O10 Ru11 2.167220 1_555
O10 Ru9 2.417555 1_555
O11 Ru0 1.543263 1_555
O11 Ru10 2.167220 1_555
O11 Ru8 2.417555 1_555
O16 Ru1 1.462541 1_565
O17 Ru0 1.462541 1_545
O18 Ru3 1.325659 1_565
O18 Ru8 2.210954 1_555
O19 Ru2 1.325659 1_545
O19 Ru9 2.210954 1_555
O20 Ru7 1.142236 1_555
O20 Ru11 2.061562 1_555
O20 Ru5 2.198220 1_555
O21 Ru6 1.142236 1_555
O21 Ru10 2.061562 1_555
O21 Ru4 2.198220 1_555
O22 Ru5 1.306429 1_655
O22 Ru9 2.190091 1_555
O23 Ru4 1.306429 1_455
O23 Ru8 2.190091 1_555
