# generated using pymatgen
data_SrLa2(FeO3)3
_symmetry_space_group_name_H-M   'P 1'
_cell_length_a   5.55736800
_cell_length_b   9.67424100
_cell_length_c   13.70993268
_cell_angle_alpha   89.55977302
_cell_angle_beta   90.00000000
_cell_angle_gamma   90.00000000
_symmetry_Int_Tables_number   1
_chemical_formula_structural   SrLa2(FeO3)3
_chemical_formula_sum   'Sr4 La8 Fe12 O36'
_cell_volume   737.06970469
_cell_formula_units_Z   4
loop_
 _symmetry_equiv_pos_site_id
 _symmetry_equiv_pos_as_xyz
  1  'x, y, z'
loop_
 _atom_site_type_symbol
 _atom_site_label
 _atom_site_symmetry_multiplicity
 _atom_site_fract_x
 _atom_site_fract_y
 _atom_site_fract_z
 _atom_site_occupancy
  Sr  Sr0  1  0.49419200  0.49830100  0.75141500  1
  Sr  Sr1  1  0.99419200  0.00169900  0.24858500  1
  Sr  Sr2  1  0.50580800  0.50169900  0.24858500  1
  Sr  Sr3  1  0.00580800  0.99830100  0.75141500  1
  La  La0  1  0.49971400  0.17010300  0.41926700  1
  La  La1  1  0.49578200  0.83715400  0.08505000  1
  La  La2  1  0.99578200  0.66284600  0.91495000  1
  La  La3  1  0.99971400  0.32989700  0.58073300  1
  La  La4  1  0.50028600  0.82989700  0.58073300  1
  La  La5  1  0.50421800  0.16284600  0.91495000  1
  La  La6  1  0.00028600  0.67010300  0.41926700  1
  La  La7  1  0.00421800  0.33715400  0.08505000  1
  Fe  Fe0  1  0.50000000  0.50000000  0.00000000  1
  Fe  Fe1  1  0.49975300  0.16613200  0.66900000  1
  Fe  Fe2  1  0.50024700  0.83386800  0.33100000  1
  Fe  Fe3  1  0.00000000  0.00000000  0.00000000  1
  Fe  Fe4  1  0.00024700  0.66613200  0.66900000  1
  Fe  Fe5  1  0.99975300  0.33386800  0.33100000  1
  Fe  Fe6  1  0.49968400  0.83332900  0.83202300  1
  Fe  Fe7  1  0.50000000  0.50000000  0.50000000  1
  Fe  Fe8  1  0.50031600  0.16667100  0.16797700  1
  Fe  Fe9  1  0.99968400  0.66667100  0.16797700  1
  Fe  Fe10  1  0.00031600  0.33332900  0.83202300  1
  Fe  Fe11  1  0.00000000  0.00000000  0.50000000  1
  O  O0  1  0.73825400  0.77111000  0.23286200  1
  O  O1  1  0.74766800  0.44110500  0.90405400  1
  O  O2  1  0.73820500  0.10570700  0.56714400  1
  O  O3  1  0.24766800  0.05889500  0.09594600  1
  O  O4  1  0.23825400  0.72889000  0.76713800  1
  O  O5  1  0.23820500  0.39429300  0.43285600  1
  O  O6  1  0.26443800  0.94463800  0.91094700  1
  O  O7  1  0.25676900  0.61273300  0.57154500  1
  O  O8  1  0.25445200  0.27680200  0.23780000  1
  O  O9  1  0.75445200  0.22319800  0.76220000  1
  O  O10  1  0.75676900  0.88726700  0.42845500  1
  O  O11  1  0.76443800  0.55536200  0.08905300  1
  O  O12  1  0.26174600  0.22889000  0.76713800  1
  O  O13  1  0.26179500  0.89429300  0.43285600  1
  O  O14  1  0.25233200  0.55889500  0.09594600  1
  O  O15  1  0.75233200  0.94110500  0.90405400  1
  O  O16  1  0.76179500  0.60570700  0.56714400  1
  O  O17  1  0.76174600  0.27111000  0.23286200  1
  O  O18  1  0.73556200  0.05536200  0.08905300  1
  O  O19  1  0.74554800  0.72319800  0.76220000  1
  O  O20  1  0.74323100  0.38726700  0.42845500  1
  O  O21  1  0.24554800  0.77680200  0.23780000  1
  O  O22  1  0.23556200  0.44463800  0.91094700  1
  O  O23  1  0.24323100  0.11273300  0.57154500  1
  O  O24  1  0.50455400  0.02604700  0.27592700  1
  O  O25  1  0.49544700  0.69263700  0.94259000  1
  O  O26  1  0.49607700  0.35200600  0.60136200  1
  O  O27  1  0.99544700  0.80736300  0.05741000  1
  O  O28  1  0.00455400  0.47395300  0.72407300  1
  O  O29  1  0.99607700  0.14799400  0.39863800  1
  O  O30  1  0.49544600  0.97395300  0.72407300  1
  O  O31  1  0.50392300  0.64799400  0.39863800  1
  O  O32  1  0.50455300  0.30736300  0.05741000  1
  O  O33  1  0.00455300  0.19263700  0.94259000  1
  O  O34  1  0.00392300  0.85200600  0.60136200  1
  O  O35  1  0.99544600  0.52604700  0.27592700  1
loop_
_geom_bond_atom_site_label_1
_geom_bond_atom_site_label_2
_geom_bond_distance
_geom_bond_site_symmetry_2
La0 O24 2.418049 1_555
La0 O2 2.497123 1_555
La0 O20 2.503030 1_555
La0 O23 2.584665 1_555
La0 O5 2.618586 1_555
La0 O29 2.781337 1_555
La0 O29 2.821433 1_455
La0 O13 2.982426 1_545
La0 O8 3.012223 1_555
La0 O26 3.065499 1_555
La0 O10 3.088405 1_545
La0 O17 3.093237 1_555
La1 O25 2.410662 1_554
La1 O18 2.497354 1_565
La1 O0 2.512125 1_555
La1 O3 2.555441 1_565
La1 O21 2.577136 1_555
La1 O6 2.897156 1_554
La1 O11 3.108307 1_555
La2 O27 2.410662 1_556
La2 O22 2.497354 1_655
La2 O4 2.512125 1_655
La2 O1 2.555441 1_555
La2 O19 2.577136 1_555
La2 O11 2.897156 1_556
La2 O6 3.108307 1_655
La3 O28 2.418049 1_655
La3 O5 2.497123 1_655
La3 O23 2.503030 1_655
La3 O20 2.584665 1_555
La3 O2 2.618586 1_555
La3 O26 2.781337 1_655
La3 O26 2.821433 1_555
La3 O16 2.982426 1_555
La3 O9 3.012223 1_555
La3 O29 3.065499 1_555
La3 O7 3.088405 1_655
La3 O12 3.093237 1_655
La4 O30 2.418049 1_555
La4 O13 2.497123 1_555
La4 O7 2.503030 1_555
La4 O10 2.584665 1_555
La4 O16 2.618586 1_555
La4 O34 2.781337 1_555
La4 O34 2.821433 1_655
La4 O2 2.982426 1_565
La4 O19 3.012223 1_555
La4 O31 3.065499 1_555
La4 O23 3.088405 1_565
La4 O4 3.093237 1_555
La5 O32 2.410662 1_556
La5 O6 2.497354 1_545
La5 O12 2.512125 1_555
La5 O15 2.555441 1_545
La5 O9 2.577136 1_555
La5 O18 2.897156 1_556
La5 O22 3.108307 1_555
La6 O35 2.418049 1_455
La6 O16 2.497123 1_455
La6 O10 2.503030 1_455
La6 O7 2.584665 1_555
La6 O13 2.618586 1_555
La6 O31 2.781337 1_455
La6 O31 2.821433 1_555
La6 O5 2.982426 1_555
La6 O21 3.012223 1_555
La6 O34 3.065499 1_555
La6 O20 3.088405 1_455
La6 O0 3.093237 1_455
La7 O33 2.410662 1_554
La7 O11 2.497354 1_455
La7 O17 2.512125 1_455
La7 O14 2.555441 1_555
La7 O8 2.577136 1_555
La7 O22 2.897156 1_554
La7 O18 3.108307 1_455
Fe0 O11 1.986753 1_555
Fe0 O22 1.986753 1_554
Fe0 O14 1.990198 1_555
Fe0 O1 1.990198 1_554
Fe0 O25 2.017591 1_554
Fe0 O32 2.017591 1_555
Fe1 O12 1.985185 1_555
Fe1 O9 1.987919 1_555
Fe1 O30 2.001417 1_545
Fe1 O2 2.015035 1_555
Fe1 O26 2.016975 1_555
Fe1 O23 2.023596 1_555
Fe2 O0 1.985185 1_555
Fe2 O21 1.987919 1_555
Fe2 O24 2.001417 1_565
Fe2 O13 2.015035 1_555
Fe2 O31 2.016975 1_555
Fe2 O10 2.023596 1_555
Fe3 O6 1.986753 1_544
Fe3 O18 1.986753 1_455
Fe3 O3 1.990198 1_555
Fe3 O15 1.990198 1_444
Fe3 O33 2.017591 1_554
Fe3 O27 2.017591 1_445
Fe4 O4 1.985185 1_555
Fe4 O19 1.987919 1_455
Fe4 O28 2.001417 1_555
Fe4 O16 2.015035 1_455
Fe4 O34 2.016975 1_555
Fe4 O7 2.023596 1_555
Fe5 O17 1.985185 1_555
Fe5 O8 1.987919 1_655
Fe5 O35 2.001417 1_555
Fe5 O5 2.015035 1_655
Fe5 O29 2.016975 1_555
Fe5 O20 2.023596 1_555
Fe6 O19 1.983461 1_555
Fe6 O4 1.984137 1_555
Fe6 O30 2.002685 1_555
Fe6 O15 2.012351 1_555
Fe6 O6 2.014310 1_555
Fe6 O25 2.029596 1_555
Fe7 O26 1.987693 1_555
Fe7 O31 1.987693 1_555
Fe7 O20 1.998784 1_555
Fe7 O7 1.998784 1_555
Fe7 O16 2.006078 1_555
Fe7 O5 2.006078 1_555
Fe8 O8 1.983461 1_555
Fe8 O17 1.984137 1_555
Fe8 O24 2.002685 1_555
Fe8 O3 2.012351 1_555
Fe8 O18 2.014310 1_555
Fe8 O32 2.029596 1_555
Fe9 O21 1.983461 1_655
Fe9 O0 1.984137 1_555
Fe9 O35 2.002685 1_555
Fe9 O14 2.012351 1_655
Fe9 O11 2.014310 1_555
Fe9 O27 2.029596 1_555
Fe10 O9 1.983461 1_455
Fe10 O12 1.984137 1_555
Fe10 O28 2.002685 1_555
Fe10 O1 2.012351 1_455
Fe10 O22 2.014310 1_555
Fe10 O33 2.029596 1_555
Fe11 O29 1.987693 1_455
Fe11 O34 1.987693 1_545
Fe11 O23 1.998784 1_555
Fe11 O10 1.998784 1_445
Fe11 O2 2.006078 1_455
Fe11 O13 2.006078 1_545
O0 Sr1 2.655798 1_565
O0 Sr2 2.915406 1_555
O1 Sr0 2.579141 1_555
O2 Sr3 3.103774 1_645
O3 Sr1 2.579141 1_455
O4 Sr0 2.655798 1_555
O4 Sr3 2.915406 1_555
O5 Sr2 3.103774 1_555
O6 Sr3 2.664888 1_555
O7 Sr0 3.000953 1_555
O8 Sr2 2.590710 1_555
O8 Sr1 3.031648 1_455
O9 Sr3 2.590710 1_645
O9 Sr0 3.031648 1_555
O10 Sr1 3.000953 1_565
O11 Sr2 2.664888 1_555
O12 Sr3 2.655798 1_545
O12 Sr0 2.915406 1_555
O13 Sr1 3.103774 1_465
O14 Sr2 2.579141 1_555
O15 Sr3 2.579141 1_655
O16 Sr0 3.103774 1_555
O17 Sr2 2.655798 1_555
O17 Sr1 2.915406 1_555
O18 Sr1 2.664888 1_555
O19 Sr0 2.590710 1_555
O19 Sr3 3.031648 1_655
O20 Sr2 3.000953 1_555
O21 Sr1 2.590710 1_465
O21 Sr2 3.031648 1_555
O22 Sr0 2.664888 1_555
O23 Sr3 3.000953 1_545
O24 Sr1 2.757124 1_555
O24 Sr1 2.870850 1_455
O26 Sr0 2.506002 1_555
O28 Sr0 2.757124 1_555
O28 Sr0 2.870850 1_455
O29 Sr1 2.506002 1_555
O30 Sr3 2.757124 1_555
O30 Sr3 2.870850 1_655
O31 Sr2 2.506002 1_555
O34 Sr3 2.506002 1_555
O35 Sr2 2.757124 1_555
O35 Sr2 2.870850 1_655
