# generated using pymatgen
data_NaGdGeO4
_symmetry_space_group_name_H-M   'P 1'
_cell_length_a   5.36062400
_cell_length_b   6.60326500
_cell_length_c   11.63851900
_cell_angle_alpha   90.00000000
_cell_angle_beta   90.00000000
_cell_angle_gamma   90.00000000
_symmetry_Int_Tables_number   1
_chemical_formula_structural   NaGdGeO4
_chemical_formula_sum   'Na4 Gd4 Ge4 O16'
_cell_volume   411.97588267
_cell_formula_units_Z   4
loop_
 _symmetry_equiv_pos_site_id
 _symmetry_equiv_pos_as_xyz
  1  'x, y, z'
loop_
 _atom_site_type_symbol
 _atom_site_label
 _atom_site_symmetry_multiplicity
 _atom_site_fract_x
 _atom_site_fract_y
 _atom_site_fract_z
 _atom_site_occupancy
  Na  Na0  1  0.00000000  0.00000000  0.00000000  1
  Na  Na1  1  0.00000000  0.50000000  0.00000000  1
  Na  Na2  1  0.50000000  0.00000000  0.50000000  1
  Na  Na3  1  0.50000000  0.50000000  0.50000000  1
  Gd  Gd0  1  0.00211600  0.75000000  0.27825800  1
  Gd  Gd1  1  0.99788400  0.25000000  0.72174200  1
  Gd  Gd2  1  0.49788400  0.75000000  0.77825800  1
  Gd  Gd3  1  0.50211600  0.25000000  0.22174200  1
  Ge  Ge0  1  0.94327300  0.25000000  0.40357200  1
  Ge  Ge1  1  0.55672700  0.25000000  0.90357200  1
  Ge  Ge2  1  0.05672700  0.75000000  0.59642800  1
  Ge  Ge3  1  0.44327300  0.75000000  0.09642800  1
  O  O0  1  0.79197800  0.45571400  0.32778300  1
  O  O1  1  0.29197800  0.54428600  0.17221700  1
  O  O2  1  0.20802200  0.95571400  0.67221700  1
  O  O3  1  0.70802200  0.04428600  0.82778300  1
  O  O4  1  0.20802200  0.54428600  0.67221700  1
  O  O5  1  0.70802200  0.45571400  0.82778300  1
  O  O6  1  0.79197800  0.04428600  0.32778300  1
  O  O7  1  0.29197800  0.95571400  0.17221700  1
  O  O8  1  0.17781800  0.75000000  0.45538100  1
  O  O9  1  0.67781800  0.25000000  0.04461900  1
  O  O10  1  0.82218200  0.25000000  0.54461900  1
  O  O11  1  0.32218200  0.75000000  0.95538100  1
  O  O12  1  0.73162600  0.75000000  0.60935400  1
  O  O13  1  0.23162600  0.25000000  0.89064600  1
  O  O14  1  0.26837400  0.25000000  0.39064600  1
  O  O15  1  0.76837400  0.75000000  0.10935400  1
loop_
_geom_bond_atom_site_label_1
_geom_bond_atom_site_label_2
_geom_bond_distance
_geom_bond_site_symmetry_2
Na0 O15 2.426258 1_445
Na0 O13 2.426258 1_554
Na0 O11 2.444939 1_544
Na0 O9 2.444939 1_455
Na0 O7 2.559832 1_545
Na0 O3 2.559832 1_454
Na1 O15 2.426258 1_455
Na1 O13 2.426258 1_554
Na1 O11 2.444939 1_554
Na1 O9 2.444939 1_455
Na1 O1 2.559832 1_555
Na1 O5 2.559832 1_454
Na2 O12 2.426258 1_545
Na2 O14 2.426258 1_555
Na2 O10 2.444939 1_555
Na2 O8 2.444939 1_545
Na2 O6 2.559832 1_555
Na2 O2 2.559832 1_545
Na3 O12 2.426258 1_555
Na3 O14 2.426258 1_555
Na3 O10 2.444939 1_555
Na3 O8 2.444939 1_555
Na3 O0 2.559832 1_555
Na3 O4 2.559832 1_555
Gd0 O8 2.266428 1_555
Gd0 O6 2.318919 1_465
Gd0 O0 2.318919 1_455
Gd0 O15 2.331171 1_455
Gd0 O7 2.404741 1_555
Gd0 O1 2.404741 1_555
Gd1 O10 2.266428 1_555
Gd1 O4 2.318919 1_655
Gd1 O2 2.318919 1_645
Gd1 O13 2.331171 1_655
Gd1 O5 2.404741 1_555
Gd1 O3 2.404741 1_555
Gd2 O11 2.266428 1_555
Gd2 O3 2.318919 1_565
Gd2 O5 2.318919 1_555
Gd2 O12 2.331171 1_555
Gd2 O2 2.404741 1_555
Gd2 O4 2.404741 1_555
Gd3 O9 2.266428 1_555
Gd3 O1 2.318919 1_555
Gd3 O7 2.318919 1_545
Gd3 O14 2.331171 1_555
Gd3 O0 2.404741 1_555
Gd3 O6 2.404741 1_555
Ge0 O14 1.749225 1_655
Ge0 O10 1.765259 1_555
Ge0 O0 1.811363 1_555
Ge0 O6 1.811363 1_555
Ge1 O13 1.749225 1_555
Ge1 O9 1.765259 1_556
Ge1 O5 1.811363 1_555
Ge1 O3 1.811363 1_555
Ge2 O12 1.749225 1_455
Ge2 O8 1.765259 1_555
Ge2 O2 1.811363 1_555
Ge2 O4 1.811363 1_555
Ge3 O15 1.749225 1_555
Ge3 O11 1.765259 1_554
Ge3 O7 1.811363 1_555
Ge3 O1 1.811363 1_555
