# generated using pymatgen
data_Ce4CdRu
_symmetry_space_group_name_H-M   'P 1'
_cell_length_a   9.72474481
_cell_length_b   9.72474481
_cell_length_c   9.72474481
_cell_angle_alpha   60.00000000
_cell_angle_beta   60.00000000
_cell_angle_gamma   60.00000000
_symmetry_Int_Tables_number   1
_chemical_formula_structural   Ce4CdRu
_chemical_formula_sum   'Ce16 Cd4 Ru4'
_cell_volume   650.30881831
_cell_formula_units_Z   4
loop_
 _symmetry_equiv_pos_site_id
 _symmetry_equiv_pos_as_xyz
  1  'x, y, z'
loop_
 _atom_site_type_symbol
 _atom_site_label
 _atom_site_symmetry_multiplicity
 _atom_site_fract_x
 _atom_site_fract_y
 _atom_site_fract_z
 _atom_site_occupancy
  Ce  Ce0  1  0.55961200  0.55961200  0.94038800  1
  Ce  Ce1  1  0.94038800  0.55961200  0.94038800  1
  Ce  Ce2  1  0.55961200  0.94038800  0.94038800  1
  Ce  Ce3  1  0.94038800  0.94038800  0.55961200  1
  Ce  Ce4  1  0.55961200  0.94038800  0.55961200  1
  Ce  Ce5  1  0.94038800  0.55961200  0.55961200  1
  Ce  Ce6  1  0.19000600  0.19000600  0.80999400  1
  Ce  Ce7  1  0.80999400  0.19000600  0.80999400  1
  Ce  Ce8  1  0.19000500  0.80999500  0.80999400  1
  Ce  Ce9  1  0.80999400  0.80999500  0.19000600  1
  Ce  Ce10  1  0.19000500  0.80999400  0.19000500  1
  Ce  Ce11  1  0.80999400  0.19000600  0.19000600  1
  Ce  Ce12  1  0.34720000  0.34720000  0.95840100  1
  Ce  Ce13  1  0.34720000  0.95840100  0.34720000  1
  Ce  Ce14  1  0.95840100  0.34720000  0.34720000  1
  Ce  Ce15  1  0.34720000  0.34720000  0.34720000  1
  Cd  Cd0  1  0.57900600  0.57900600  0.26298100  1
  Cd  Cd1  1  0.57900600  0.26298100  0.57900600  1
  Cd  Cd2  1  0.26298100  0.57900600  0.57900600  1
  Cd  Cd3  1  0.57900600  0.57900600  0.57900600  1
  Ru  Ru0  1  0.13627500  0.13627500  0.59117500  1
  Ru  Ru1  1  0.13627500  0.59117500  0.13627500  1
  Ru  Ru2  1  0.59117500  0.13627500  0.13627500  1
  Ru  Ru3  1  0.13627500  0.13627500  0.13627500  1
loop_
_geom_bond_atom_site_label_1
_geom_bond_atom_site_label_2
_geom_bond_distance
_geom_bond_site_symmetry_2
Ce0 Ce12 3.479620 1_555
Ce0 Ce15 3.479626 1_556
Ce0 Ru1 3.485706 1_556
Ce0 Ru2 3.485706 1_556
Ce0 Ce10 3.629631 1_556
Ce0 Ce11 3.629633 1_556
Ce0 Ce7 3.629633 1_555
Ce0 Ce8 3.629641 1_555
Ce0 Ce5 3.702949 1_555
Ce0 Ce2 3.702949 1_555
Ce0 Ce4 3.702949 1_555
Ce0 Ce1 3.702949 1_555
Ce1 Ce14 3.479629 1_556
Ce1 Ce12 3.479629 1_655
Ce1 Ru1 3.485706 1_656
Ce1 Ru3 3.485706 1_656
Ce1 Ce6 3.629633 1_655
Ce1 Ce11 3.629633 1_556
Ce1 Ce8 3.629633 1_655
Ce1 Ce9 3.629641 1_556
Ce1 Ce5 3.702949 1_555
Ce1 Ce2 3.702949 1_555
Ce1 Ce3 3.702949 1_555
Ce2 Ru2 3.485706 1_566
Ce2 Ru3 3.485706 1_566
Ce2 Ce7 3.629633 1_565
Ce2 Ce6 3.629633 1_565
Ce2 Ce9 3.629636 1_556
Ce2 Ce3 3.702949 1_555
Ce2 Ce4 3.702949 1_555
Ce3 Ru0 3.485706 1_665
Ce3 Ru3 3.485706 1_665
Ce3 Ce8 3.629628 1_655
Ce3 Ce7 3.629633 1_565
Ce3 Ce5 3.702949 1_555
Ce3 Ce4 3.702949 1_555
Ce4 Ru2 3.485706 1_565
Ce4 Ru0 3.485706 1_565
Ce4 Ce9 3.629628 1_555
Ce4 Ce6 3.629633 1_565
Ce4 Ce8 3.629636 1_555
Ce4 Ce5 3.702949 1_555
Ce5 Ru1 3.485706 1_655
Ce5 Ru0 3.485706 1_655
Ce5 Ce6 3.629633 1_655
Ce5 Ce7 3.629633 1_555
Ce5 Ce9 3.629633 1_555
Ce6 Ru0 2.751562 1_555
Ce6 Ru3 2.751562 1_556
Ce7 Ru0 2.751562 1_655
Ce7 Ru2 2.751562 1_556
Ce8 Ru0 2.751556 1_565
Ce8 Ru1 2.751565 1_556
Ce9 Ru2 2.751556 1_565
Ce9 Ru1 2.751565 1_655
Ce10 Ru1 2.751549 1_555
Ce10 Ru3 2.751568 1_565
Ce10 Ce5 3.629631 1_455
Ce10 Ce2 3.629641 1_554
Ce10 Ce3 3.629641 1_455
Ce11 Ru2 2.751562 1_555
Ce11 Ru3 2.751562 1_655
Ce11 Ce4 3.629633 1_545
Ce11 Ce3 3.629633 1_545
Ce12 Ru1 2.918568 1_556
Ce12 Ru2 2.918568 1_556
Ce12 Ru3 2.918575 1_556
Ce12 Ce2 3.479629 1_545
Ce13 Ru0 2.918568 1_565
Ce13 Ru2 2.918568 1_565
Ce13 Ru3 2.918575 1_565
Ce13 Ce4 3.479620 1_555
Ce13 Ce2 3.479629 1_554
Ce13 Ce3 3.479629 1_455
Ce14 Ru1 2.918568 1_655
Ce14 Ru0 2.918568 1_655
Ce14 Ru3 2.918575 1_655
Ce14 Ce5 3.479620 1_555
Ce14 Ce3 3.479629 1_545
Ce15 Ru2 2.918574 1_555
Ce15 Ru0 2.918574 1_555
Ce15 Ru1 2.918574 1_555
Ce15 Ce4 3.479626 1_545
Ce15 Ce5 3.479626 1_455
Cd0 Cd1 3.073262 1_555
Cd0 Cd2 3.073262 1_555
Cd0 Cd3 3.073262 1_555
Cd0 Ce0 3.336415 1_554
Cd0 Ce1 3.336420 1_554
Cd0 Ce2 3.336420 1_554
Cd0 Ce15 3.496177 1_555
Cd0 Ce14 3.496194 1_555
Cd0 Ce13 3.496194 1_555
Cd0 Ce11 3.528869 1_555
Cd0 Ce10 3.528881 1_555
Cd0 Ce9 3.528885 1_555
Cd1 Cd2 3.073262 1_555
Cd1 Cd3 3.073262 1_555
Cd1 Ce4 3.336415 1_545
Cd1 Ce3 3.336420 1_545
Cd1 Ce2 3.336420 1_545
Cd1 Ce15 3.496177 1_555
Cd1 Ce12 3.496194 1_555
Cd1 Ce14 3.496194 1_555
Cd1 Ce11 3.528869 1_555
Cd1 Ce6 3.528869 1_555
Cd1 Ce7 3.528877 1_555
Cd2 Cd3 3.073262 1_555
Cd2 Ce5 3.336415 1_455
Cd2 Ce3 3.336420 1_455
Cd2 Ce1 3.336420 1_455
Cd2 Ce15 3.496177 1_555
Cd2 Ce12 3.496194 1_555
Cd2 Ce13 3.496194 1_555
Cd2 Ce6 3.528869 1_555
Cd2 Ce8 3.528881 1_555
Cd2 Ce10 3.528881 1_555
Cd3 Ce5 3.336424 1_555
Cd3 Ce0 3.336424 1_555
Cd3 Ce4 3.336424 1_555
Cd3 Ce13 3.496185 1_555
Cd3 Ce12 3.496185 1_555
Cd3 Ce14 3.496185 1_555
Cd3 Ce7 3.528873 1_555
Cd3 Ce9 3.528877 1_555
Cd3 Ce8 3.528881 1_555
