# generated using pymatgen
data_DyHo
_symmetry_space_group_name_H-M   'P 1'
_cell_length_a   7.17682998
_cell_length_b   7.17682998
_cell_length_c   11.50974088
_cell_angle_alpha   90.00000000
_cell_angle_beta   90.00000000
_cell_angle_gamma   119.99999684
_symmetry_Int_Tables_number   1
_chemical_formula_structural   DyHo
_chemical_formula_sum   'Dy8 Ho8'
_cell_volume   513.40667091
_cell_formula_units_Z   8
loop_
 _symmetry_equiv_pos_site_id
 _symmetry_equiv_pos_as_xyz
  1  'x, y, z'
loop_
 _atom_site_type_symbol
 _atom_site_label
 _atom_site_symmetry_multiplicity
 _atom_site_fract_x
 _atom_site_fract_y
 _atom_site_fract_z
 _atom_site_occupancy
  Dy  Dy0_0  1  0.33333350  0.16666650  0.25000000  1
  Dy  Dy0_1  1  0.33333350  0.16666650  0.75000000  1
  Dy  Dy0_2  1  0.33333350  0.66666650  0.25000000  1
  Dy  Dy0_3  1  0.33333350  0.66666650  0.75000000  1
  Dy  Dy0_4  1  0.83333350  0.16666650  0.25000000  1
  Dy  Dy0_5  1  0.83333350  0.16666650  0.75000000  1
  Dy  Dy0_6  1  0.83333350  0.66666650  0.25000000  1
  Dy  Dy0_7  1  0.83333350  0.66666650  0.75000000  1
  Ho  Ho0_0  1  0.16666650  0.33333350  0.00000000  1
  Ho  Ho0_1  1  0.16666650  0.33333350  0.50000000  1
  Ho  Ho0_2  1  0.16666650  0.83333350  0.00000000  1
  Ho  Ho0_3  1  0.16666650  0.83333350  0.50000000  1
  Ho  Ho0_4  1  0.66666650  0.33333350  0.00000000  1
  Ho  Ho0_5  1  0.66666650  0.33333350  0.50000000  1
  Ho  Ho0_6  1  0.66666650  0.83333350  0.00000000  1
  Ho  Ho0_7  1  0.66666650  0.83333350  0.50000000  1
loop_
_geom_bond_atom_site_label_1
_geom_bond_atom_site_label_2
_geom_bond_distance
_geom_bond_site_symmetry_2
Dy0_0 Ho0_4 3.545683 1_555
Dy0_0 Ho0_5 3.545683 1_555
Dy0_0 Ho0_2 3.545683 1_545
Dy0_0 Ho0_3 3.545683 1_545
Dy0_0 Ho0_1 3.545686 1_555
Dy0_0 Ho0_0 3.545686 1_555
Dy0_0 Dy0_2 3.588415 1_545
Dy0_0 Dy0_4 3.588415 1_555
Dy0_0 Dy0_4 3.588415 1_455
Dy0_0 Dy0_2 3.588415 1_555
Dy0_0 Dy0_6 3.588415 1_555
Dy0_0 Dy0_6 3.588415 1_445
Dy0_1 Ho0_5 3.545683 1_555
Dy0_1 Ho0_2 3.545683 1_546
Dy0_1 Ho0_4 3.545683 1_556
Dy0_1 Ho0_3 3.545683 1_545
Dy0_1 Ho0_1 3.545686 1_555
Dy0_1 Ho0_0 3.545686 1_556
Dy0_1 Dy0_5 3.588415 1_555
Dy0_1 Dy0_3 3.588415 1_545
Dy0_1 Dy0_3 3.588415 1_555
Dy0_1 Dy0_5 3.588415 1_455
Dy0_1 Dy0_7 3.588415 1_555
Dy0_1 Dy0_7 3.588415 1_445
Dy0_2 Ho0_6 3.545683 1_555
Dy0_2 Ho0_7 3.545683 1_555
Dy0_2 Ho0_1 3.545683 1_555
Dy0_2 Ho0_0 3.545683 1_555
Dy0_2 Ho0_3 3.545686 1_555
Dy0_2 Ho0_2 3.545686 1_555
Dy0_2 Dy0_6 3.588415 1_555
Dy0_2 Dy0_6 3.588415 1_455
Dy0_2 Dy0_4 3.588415 1_565
Dy0_2 Dy0_4 3.588415 1_455
Dy0_3 Ho0_6 3.545683 1_556
Dy0_3 Ho0_7 3.545683 1_555
Dy0_3 Ho0_1 3.545683 1_555
Dy0_3 Ho0_0 3.545683 1_556
Dy0_3 Ho0_3 3.545686 1_555
Dy0_3 Ho0_2 3.545686 1_556
Dy0_3 Dy0_7 3.588415 1_555
Dy0_3 Dy0_7 3.588415 1_455
Dy0_3 Dy0_5 3.588415 1_565
Dy0_3 Dy0_5 3.588415 1_455
Dy0_4 Ho0_7 3.545683 1_545
Dy0_4 Ho0_6 3.545683 1_545
Dy0_4 Ho0_0 3.545683 1_655
Dy0_4 Ho0_1 3.545683 1_655
Dy0_4 Ho0_4 3.545686 1_555
Dy0_4 Ho0_5 3.545686 1_555
Dy0_4 Dy0_6 3.588415 1_555
Dy0_4 Dy0_6 3.588415 1_545
Dy0_5 Ho0_7 3.545683 1_545
Dy0_5 Ho0_6 3.545683 1_546
Dy0_5 Ho0_0 3.545683 1_656
Dy0_5 Ho0_1 3.545683 1_655
Dy0_5 Ho0_5 3.545686 1_555
Dy0_5 Ho0_4 3.545686 1_556
Dy0_5 Dy0_7 3.588415 1_545
Dy0_5 Dy0_7 3.588415 1_555
Dy0_6 Ho0_4 3.545683 1_555
Dy0_6 Ho0_5 3.545683 1_555
Dy0_6 Ho0_3 3.545683 1_655
Dy0_6 Ho0_2 3.545683 1_655
Dy0_6 Ho0_6 3.545686 1_555
Dy0_6 Ho0_7 3.545686 1_555
Dy0_7 Ho0_4 3.545683 1_556
Dy0_7 Ho0_5 3.545683 1_555
Dy0_7 Ho0_3 3.545683 1_655
Dy0_7 Ho0_2 3.545683 1_656
Dy0_7 Ho0_6 3.545686 1_556
Dy0_7 Ho0_7 3.545686 1_555
Ho0_0 Ho0_4 3.588415 1_555
Ho0_0 Ho0_2 3.588415 1_555
Ho0_0 Ho0_2 3.588415 1_545
Ho0_0 Ho0_4 3.588415 1_455
Ho0_0 Ho0_6 3.588415 1_555
Ho0_0 Ho0_6 3.588415 1_445
Ho0_1 Ho0_5 3.588415 1_555
Ho0_1 Ho0_3 3.588415 1_555
Ho0_1 Ho0_5 3.588415 1_455
Ho0_1 Ho0_3 3.588415 1_545
Ho0_1 Ho0_7 3.588415 1_555
Ho0_1 Ho0_7 3.588415 1_445
Ho0_2 Ho0_6 3.588415 1_555
Ho0_2 Ho0_6 3.588415 1_455
Ho0_2 Ho0_4 3.588415 1_565
Ho0_2 Ho0_4 3.588415 1_455
Ho0_3 Ho0_7 3.588415 1_555
Ho0_3 Ho0_7 3.588415 1_455
Ho0_3 Ho0_5 3.588415 1_565
Ho0_3 Ho0_5 3.588415 1_455
Ho0_4 Ho0_6 3.588415 1_545
Ho0_4 Ho0_6 3.588415 1_555
Ho0_5 Ho0_7 3.588415 1_545
Ho0_5 Ho0_7 3.588415 1_555
