# generated using pymatgen
data_MgFe3Ni2Sb(PO4)6
_symmetry_space_group_name_H-M   'P 1'
_cell_length_a   8.60351856
_cell_length_b   8.48446446
_cell_length_c   8.61733181
_cell_angle_alpha   61.91740582
_cell_angle_beta   61.30288914
_cell_angle_gamma   61.91113190
_symmetry_Int_Tables_number   1
_chemical_formula_structural   MgFe3Ni2Sb(PO4)6
_chemical_formula_sum   'Mg1 Fe3 Ni2 Sb1 P6 O24'
_cell_volume   461.81306953
_cell_formula_units_Z   1
loop_
 _symmetry_equiv_pos_site_id
 _symmetry_equiv_pos_as_xyz
  1  'x, y, z'
loop_
 _atom_site_type_symbol
 _atom_site_label
 _atom_site_symmetry_multiplicity
 _atom_site_fract_x
 _atom_site_fract_y
 _atom_site_fract_z
 _atom_site_occupancy
  Mg  Mg0  1  0.61710600  0.27138300  0.85540900  1
  Fe  Fe0  1  0.14123400  0.14482800  0.15226400  1
  Fe  Fe1  1  0.35567900  0.35371200  0.36108500  1
  Fe  Fe2  1  0.64656200  0.65323000  0.63416500  1
  Ni  Ni0  1  0.01656000  0.99481900  0.01048600  1
  Ni  Ni1  1  0.49342400  0.50990100  0.48608500  1
  Sb  Sb0  1  0.85742100  0.84855500  0.85339400  1
  P  P0  1  0.05154700  0.74604400  0.44750800  1
  P  P1  1  0.45052100  0.05933900  0.75172100  1
  P  P2  1  0.74607400  0.43102700  0.04887200  1
  P  P3  1  0.23856100  0.54204300  0.96465400  1
  P  P4  1  0.54257800  0.95370100  0.25724900  1
  P  P5  1  0.95469000  0.25126500  0.54472700  1
  O  O0  1  0.10369800  0.30544700  0.53062800  1
  O  O1  1  0.29585600  0.52502700  0.11234200  1
  O  O2  1  0.06879200  0.90779400  0.25559400  1
  O  O3  1  0.53836100  0.09850000  0.31489600  1
  O  O4  1  0.99637200  0.83373200  0.60248100  1
  O  O5  1  0.24524700  0.60081400  0.44448400  1
  O  O6  1  0.26125700  0.06485000  0.91551300  1
  O  O7  1  0.44059100  0.25192300  0.60144900  1
  O  O8  1  0.14317500  0.40312200  0.01911200  1
  O  O9  1  0.60150600  0.44709000  0.23812000  1
  O  O10  1  0.09156700  0.75309700  0.91929600  1
  O  O11  1  0.39487600  0.03319700  0.16573400  1
  O  O12  1  0.60977500  0.03925100  0.81972100  1
  O  O13  1  0.91243200  0.24499500  0.06764900  1
  O  O14  1  0.40756900  0.52220900  0.77933800  1
  O  O15  1  0.81470800  0.60994300  0.95031900  1
  O  O16  1  0.54410800  0.75874100  0.40379600  1
  O  O17  1  0.74710500  0.92849100  0.08733900  1
  O  O18  1  0.74970200  0.39309100  0.57381300  1
  O  O19  1  0.99981900  0.17543600  0.39595900  1
  O  O20  1  0.51358900  0.88990600  0.69789200  1
  O  O21  1  0.91532400  0.09429000  0.75825400  1
  O  O22  1  0.67520800  0.43580400  0.91335100  1
  O  O23  1  0.90334400  0.67340600  0.48717600  1
loop_
_geom_bond_atom_site_label_1
_geom_bond_atom_site_label_2
_geom_bond_distance
_geom_bond_site_symmetry_2
Mg0 O22 1.999361 1_555
Mg0 O18 2.085133 1_555
Mg0 O14 2.101738 1_555
Mg0 O12 2.164119 1_555
Mg0 O21 2.243357 1_555
Mg0 O17 2.705096 1_546
Fe0 O19 1.928708 1_455
Fe0 O8 1.941159 1_555
Fe0 O11 1.966224 1_555
Fe0 O2 2.046281 1_545
Fe0 O6 2.075903 1_554
Fe0 O13 2.085321 1_455
Fe1 O0 2.057438 1_555
Fe1 O3 2.079236 1_555
Fe1 O1 2.096168 1_555
Fe1 O5 2.168337 1_555
Fe1 O7 2.178237 1_555
Fe1 O9 2.204287 1_555
Fe2 O20 1.978453 1_555
Fe2 O23 1.994741 1_555
Fe2 O18 2.173143 1_555
Fe2 O16 2.187127 1_555
Fe2 O22 2.283573 1_555
Fe2 O14 2.324104 1_555
Ni0 O13 2.078609 1_465
Ni0 O2 2.083075 1_555
Ni0 O6 2.126121 1_564
Ni0 O10 2.241445 1_554
Ni0 O17 2.352196 1_455
Ni0 O21 2.365185 1_464
Ni1 O5 2.050947 1_555
Ni1 O16 2.076279 1_555
Ni1 O9 2.100436 1_555
Ni1 O7 2.107148 1_555
Ni1 O18 2.291921 1_555
Ni1 O14 2.307754 1_555
O0 P5 1.490771 1_455
O1 P3 1.498671 1_554
O2 P0 1.568344 1_555
O3 P4 1.507550 1_545
O4 P0 1.598854 1_655
O4 Sb0 1.937043 1_555
O5 P0 1.533310 1_555
O6 P1 1.558553 1_555
O7 P1 1.528639 1_555
O8 P3 1.517636 1_554
O9 P2 1.525381 1_555
O10 P3 1.625394 1_555
O10 Sb0 2.041037 1_455
O11 P4 1.531723 1_545
O12 P1 1.645246 1_555
O12 Sb0 2.036432 1_545
O13 P2 1.555832 1_555
O14 P3 1.576516 1_555
O15 P2 1.588400 1_556
O15 Sb0 1.935217 1_555
O16 P4 1.536189 1_555
O17 P4 1.658930 1_555
O17 Sb0 2.066044 1_554
O18 P5 1.575486 1_555
O19 P5 1.507127 1_555
O20 P1 1.492545 1_565
O21 P5 1.671311 1_555
O21 Sb0 2.060045 1_545
O22 P2 1.534002 1_556
O23 P0 1.498509 1_655
