# generated using pymatgen
data_DyGaFeCo3
_symmetry_space_group_name_H-M   'P 1'
_cell_length_a   4.00916000
_cell_length_b   5.07921466
_cell_length_c   4.91794946
_cell_angle_alpha   119.66499256
_cell_angle_beta   90.00000000
_cell_angle_gamma   90.00000000
_symmetry_Int_Tables_number   1
_chemical_formula_structural   DyGaFeCo3
_chemical_formula_sum   'Dy1 Ga1 Fe1 Co3'
_cell_volume   87.02035403
_cell_formula_units_Z   1
loop_
 _symmetry_equiv_pos_site_id
 _symmetry_equiv_pos_as_xyz
  1  'x, y, z'
loop_
 _atom_site_type_symbol
 _atom_site_label
 _atom_site_symmetry_multiplicity
 _atom_site_fract_x
 _atom_site_fract_y
 _atom_site_fract_z
 _atom_site_occupancy
  Dy  Dy0  1  0.00000000  0.99997700  0.00003400  1
  Ga  Ga0  1  0.50000000  0.99999100  0.50002300  1
  Fe  Fe0  1  0.50000000  0.49996500  0.49997400  1
  Co  Co0  1  0.00000000  0.34821100  0.67453800  1
  Co  Co1  1  0.00000000  0.65179200  0.32542300  1
  Co  Co2  1  0.50000000  0.49996400  0.00000800  1
loop_
_geom_bond_atom_site_label_1
_geom_bond_atom_site_label_2
_geom_bond_distance
_geom_bond_site_symmetry_2
Dy0 Ga0 3.172453 1_555
Dy0 Ga0 3.172453 1_455
Dy0 Ga0 3.172592 1_554
Dy0 Ga0 3.172592 1_454
Dy0 Fe0 3.214366 1_565
Dy0 Fe0 3.214366 1_465
Dy0 Fe0 3.214637 1_454
Dy0 Fe0 3.214637 1_554
Fe0 Ga0 2.539595 1_545
Fe0 Ga0 2.539620 1_555
Co0 Co2 2.439934 1_456
Co0 Co2 2.439934 1_556
Co0 Fe0 2.450405 1_455
Co0 Fe0 2.450405 1_555
Co0 Ga0 2.525986 1_545
Co0 Ga0 2.525986 1_445
Co0 Dy0 2.876818 1_556
Co0 Dy0 2.885204 1_545
Co0 Dy0 2.914382 1_546
Co1 Co2 2.439795 1_455
Co1 Co2 2.439795 1_555
Co1 Fe0 2.450554 1_455
Co1 Fe0 2.450554 1_555
Co1 Ga0 2.525926 1_555
Co1 Ga0 2.525926 1_455
Co1 Dy0 2.877042 1_545
Co1 Dy0 2.885638 1_556
Co1 Dy0 2.913716 1_555
Co2 Fe0 2.458805 1_555
Co2 Fe0 2.459144 1_554
Co2 Ga0 2.512796 1_544
Co2 Ga0 2.513010 1_555
Co2 Dy0 3.235418 1_645
Co2 Dy0 3.235418 1_545
Co2 Dy0 3.235423 1_555
Co2 Dy0 3.235423 1_655
