# generated using pymatgen
data_Mg3Pd
_symmetry_space_group_name_H-M   'P 1'
_cell_length_a   8.01039003
_cell_length_b   8.01039067
_cell_length_c   8.27536020
_cell_angle_alpha   90.00003168
_cell_angle_beta   90.00002843
_cell_angle_gamma   119.99869444
_symmetry_Int_Tables_number   1
_chemical_formula_structural   Mg3Pd
_chemical_formula_sum   'Mg18 Pd6'
_cell_volume   459.86526941
_cell_formula_units_Z   6
loop_
 _symmetry_equiv_pos_site_id
 _symmetry_equiv_pos_as_xyz
  1  'x, y, z'
loop_
 _atom_site_type_symbol
 _atom_site_label
 _atom_site_symmetry_multiplicity
 _atom_site_fract_x
 _atom_site_fract_y
 _atom_site_fract_z
 _atom_site_occupancy
  Mg  Mg0  1  0.99997398  0.99997398  0.49726274  1
  Mg  Mg1  1  0.00002202  0.00002202  0.99726374  1
  Mg  Mg2  1  0.66672122  0.33347009  0.11506457  1
  Mg  Mg3  1  0.33327778  0.66652791  0.61506457  1
  Mg  Mg4  1  0.66652891  0.33327778  0.61506457  1
  Mg  Mg5  1  0.33347009  0.66672122  0.11506457  1
  Mg  Mg6  1  0.37710387  0.99986488  0.39511632  1
  Mg  Mg7  1  0.37713472  0.37713472  0.89513601  1
  Mg  Mg8  1  0.00013912  0.62289913  0.89511532  1
  Mg  Mg9  1  0.99986488  0.37710387  0.39511632  1
  Mg  Mg10  1  0.62286328  0.62286328  0.39513601  1
  Mg  Mg11  1  0.62289913  0.00013912  0.89511532  1
  Mg  Mg12  1  0.71857128  0.00000513  0.23880594  1
  Mg  Mg13  1  0.71857027  0.71857027  0.73883719  1
  Mg  Mg14  1  0.99999487  0.28142872  0.73880494  1
  Mg  Mg15  1  0.00000513  0.71857128  0.23880594  1
  Mg  Mg16  1  0.28142973  0.28142973  0.23883819  1
  Mg  Mg17  1  0.28142872  0.99999487  0.73880494  1
  Pd  Pd0  1  0.67236791  0.99997834  0.56763375  1
  Pd  Pd1  1  0.67243663  0.67243663  0.06762588  1
  Pd  Pd2  1  0.00002166  0.32763209  0.06763375  1
  Pd  Pd3  1  0.99997834  0.67236791  0.56763375  1
  Pd  Pd4  1  0.32756437  0.32756437  0.56762688  1
  Pd  Pd5  1  0.32763209  0.00002166  0.06763375  1
loop_
_geom_bond_atom_site_label_1
_geom_bond_atom_site_label_2
_geom_bond_distance
_geom_bond_site_symmetry_2
Mg0 Pd4 2.688005 1_665
Mg0 Pd0 2.688107 1_555
Mg0 Pd3 2.688107 1_555
Mg0 Mg13 3.012952 1_555
Mg0 Mg17 3.012983 1_655
Mg0 Mg14 3.012983 1_565
Mg0 Mg12 3.107458 1_565
Mg0 Mg15 3.107458 1_655
Mg0 Mg16 3.107527 1_665
Mg0 Mg10 3.136856 1_555
Mg0 Mg6 3.137412 1_655
Mg0 Mg9 3.137413 1_565
Mg1 Pd1 2.687963 1_446
Mg1 Pd5 2.688120 1_556
Mg1 Pd2 2.688121 1_556
Mg1 Mg12 3.012972 1_456
Mg1 Mg15 3.012973 1_546
Mg1 Mg16 3.012973 1_556
Mg1 Mg17 3.107482 1_545
Mg1 Mg14 3.107482 1_455
Mg1 Mg13 3.107511 1_445
Mg1 Mg7 3.136875 1_555
Mg1 Mg11 3.137393 1_455
Mg1 Mg8 3.137393 1_545
Mg2 Pd1 2.721123 1_555
Mg2 Pd2 2.722001 1_655
Mg2 Pd5 2.722425 1_555
Mg2 Mg7 3.102747 1_554
Mg2 Mg8 3.103144 1_654
Mg2 Mg9 3.417876 1_555
Mg2 Mg6 3.419791 1_545
Mg3 Pd4 2.721105 1_555
Mg3 Pd3 2.722000 1_455
Mg3 Pd0 2.722437 1_555
Mg3 Mg6 3.102997 1_555
Mg3 Mg9 3.103104 1_455
Mg3 Mg8 3.417855 1_555
Mg3 Mg7 3.418086 1_555
Mg4 Pd4 2.721113 1_555
Mg4 Pd0 2.721997 1_545
Mg4 Pd3 2.722433 1_555
Mg4 Mg9 3.102991 1_555
Mg4 Mg6 3.103106 1_545
Mg4 Mg7 3.418092 1_555
Mg4 Mg8 3.419809 1_655
Mg5 Pd1 2.721123 1_555
Mg5 Pd5 2.722001 1_565
Mg5 Pd2 2.722425 1_555
Mg5 Mg7 3.102747 1_554
Mg5 Mg8 3.102972 1_554
Mg5 Mg6 3.417876 1_555
Mg5 Mg9 3.419791 1_455
Mg6 Pd5 2.738949 1_565
Mg6 Pd0 2.762262 1_555
Mg6 Pd3 3.181439 1_455
Mg6 Pd4 3.182412 1_565
Mg7 Pd4 2.739190 1_555
Mg7 Pd1 2.762832 1_556
Mg7 Pd2 3.181588 1_556
Mg7 Pd5 3.181588 1_556
Mg8 Pd3 2.738940 1_455
Mg8 Pd2 2.762275 1_556
Mg8 Pd5 3.181416 1_566
Mg8 Pd1 3.182426 1_456
Mg9 Pd2 2.738948 1_655
Mg9 Pd3 2.762262 1_555
Mg9 Pd0 3.181439 1_545
Mg9 Pd4 3.182412 1_655
Mg10 Pd1 2.739203 1_555
Mg10 Pd4 2.762819 1_555
Mg10 Mg13 2.945766 1_555
Mg10 Mg15 3.011999 1_655
Mg10 Mg12 3.011999 1_565
Mg10 Mg16 3.025481 1_555
Mg10 Mg3 3.102741 1_555
Mg10 Mg4 3.102745 1_555
Mg10 Pd3 3.181595 1_555
Mg10 Pd0 3.181595 1_555
Mg10 Mg5 3.418088 1_555
Mg10 Mg2 3.418088 1_555
Mg11 Pd0 2.738940 1_545
Mg11 Pd5 2.762274 1_556
Mg11 Mg12 2.945745 1_556
Mg11 Mg14 3.011441 1_555
Mg11 Mg13 3.012548 1_545
Mg11 Mg17 3.025222 1_545
Mg11 Mg2 3.102972 1_556
Mg11 Mg5 3.103144 1_546
Mg11 Pd2 3.181416 1_656
Mg11 Pd1 3.182426 1_546
Mg11 Mg4 3.417853 1_555
Mg11 Mg3 3.419812 1_545
Mg12 Pd0 2.746208 1_545
Mg12 Pd1 2.838788 1_545
Mg12 Pd2 2.839083 1_655
Mg12 Mg9 3.011462 1_555
Mg12 Mg6 3.025216 1_545
Mg12 Mg5 3.075194 1_545
Mg12 Mg2 3.076642 1_555
Mg13 Pd1 2.745828 1_556
Mg13 Pd3 2.838982 1_555
Mg13 Pd0 2.838982 1_555
Mg13 Mg8 3.012548 1_655
Mg13 Mg7 3.025502 1_555
Mg13 Mg3 3.076009 1_555
Mg13 Mg4 3.076012 1_555
Mg14 Pd2 2.746216 1_656
Mg14 Pd4 2.838786 1_655
Mg14 Pd0 2.839076 1_545
Mg14 Mg9 2.945732 1_555
Mg14 Mg7 3.011991 1_655
Mg14 Mg8 3.025223 1_655
Mg14 Mg3 3.075181 1_655
Mg14 Mg4 3.076641 1_555
Mg15 Pd3 2.746208 1_455
Mg15 Pd1 2.838788 1_455
Mg15 Pd5 2.839083 1_565
Mg15 Mg8 2.945745 1_554
Mg15 Mg6 3.011462 1_555
Mg15 Mg9 3.025217 1_455
Mg15 Mg2 3.075194 1_455
Mg15 Mg5 3.076642 1_555
Mg16 Pd4 2.745828 1_555
Mg16 Pd2 2.838985 1_555
Mg16 Pd5 2.838985 1_555
Mg16 Mg7 2.945771 1_554
Mg16 Mg9 3.012536 1_455
Mg16 Mg6 3.012536 1_545
Mg16 Mg2 3.076011 1_555
Mg16 Mg5 3.076011 1_555
Mg17 Pd5 2.746216 1_566
Mg17 Pd4 2.838786 1_565
Mg17 Pd3 2.839076 1_455
Mg17 Mg6 2.945732 1_555
Mg17 Mg8 3.011441 1_555
Mg17 Mg7 3.011991 1_565
Mg17 Mg4 3.075186 1_565
Mg17 Mg3 3.076649 1_555
