# generated using pymatgen
data_Mg6NbZn
_symmetry_space_group_name_H-M   'P 1'
_cell_length_a   4.85431200
_cell_length_b   6.22620700
_cell_length_c   10.82276500
_cell_angle_alpha   90.00000000
_cell_angle_beta   90.00000000
_cell_angle_gamma   90.00000000
_symmetry_Int_Tables_number   1
_chemical_formula_structural   Mg6NbZn
_chemical_formula_sum   'Mg12 Nb2 Zn2'
_cell_volume   327.10672288
_cell_formula_units_Z   2
loop_
 _symmetry_equiv_pos_site_id
 _symmetry_equiv_pos_as_xyz
  1  'x, y, z'
loop_
 _atom_site_type_symbol
 _atom_site_label
 _atom_site_symmetry_multiplicity
 _atom_site_fract_x
 _atom_site_fract_y
 _atom_site_fract_z
 _atom_site_occupancy
  Mg  Mg0  1  0.00000000  0.74070900  0.08772500  1
  Mg  Mg1  1  0.00000000  0.25929100  0.08772500  1
  Mg  Mg2  1  0.00000000  0.00000000  0.33223300  1
  Mg  Mg3  1  0.50000000  0.25629700  0.41795100  1
  Mg  Mg4  1  0.50000000  0.74370300  0.41795100  1
  Mg  Mg5  1  0.50000000  0.00000000  0.16671300  1
  Mg  Mg6  1  0.00000000  0.24070900  0.58772500  1
  Mg  Mg7  1  0.00000000  0.75929100  0.58772500  1
  Mg  Mg8  1  0.00000000  0.50000000  0.83223300  1
  Mg  Mg9  1  0.50000000  0.75629700  0.91795100  1
  Mg  Mg10  1  0.50000000  0.24370300  0.91795100  1
  Mg  Mg11  1  0.50000000  0.50000000  0.66671300  1
  Nb  Nb0  1  0.50000000  0.50000000  0.17303000  1
  Nb  Nb1  1  0.50000000  0.00000000  0.67303000  1
  Zn  Zn0  1  0.00000000  0.50000000  0.31667200  1
  Zn  Zn1  1  0.00000000  0.00000000  0.81667200  1
loop_
_geom_bond_atom_site_label_1
_geom_bond_atom_site_label_2
_geom_bond_distance
_geom_bond_site_symmetry_2
Mg0 Zn0 2.895825 1_555
Mg0 Mg1 2.997408 1_555
Mg0 Nb0 2.998260 1_555
Mg0 Nb0 2.998260 1_455
Mg0 Mg5 3.037791 1_565
Mg0 Mg5 3.037791 1_465
Mg0 Mg9 3.045757 1_554
Mg0 Mg9 3.045757 1_454
Mg0 Mg2 3.099829 1_565
Mg0 Mg8 3.145164 1_554
Mg0 Mg1 3.228799 1_565
Mg0 Zn1 3.348426 1_564
Mg1 Zn0 2.895825 1_555
Mg1 Nb0 2.998260 1_555
Mg1 Nb0 2.998260 1_455
Mg1 Mg5 3.037791 1_555
Mg1 Mg5 3.037791 1_455
Mg1 Mg10 3.045757 1_454
Mg1 Mg10 3.045757 1_554
Mg1 Mg2 3.099829 1_555
Mg1 Mg8 3.145164 1_554
Mg1 Zn1 3.348426 1_554
Mg2 Mg5 3.016644 1_455
Mg2 Mg5 3.016644 1_555
Mg2 Mg3 3.049290 1_455
Mg2 Mg4 3.049290 1_545
Mg2 Mg3 3.049290 1_555
Mg2 Mg4 3.049290 1_445
Mg2 Zn0 3.117656 1_555
Mg2 Zn0 3.117656 1_545
Mg2 Mg7 3.145164 1_545
Mg2 Mg6 3.145164 1_555
Mg3 Mg4 3.034691 1_555
Mg3 Mg6 3.045757 1_655
Mg3 Mg6 3.045757 1_555
Mg3 Nb0 3.054287 1_555
Mg3 Zn0 3.065110 1_555
Mg3 Zn0 3.065110 1_655
Mg3 Mg5 3.152760 1_555
Mg3 Nb1 3.188681 1_555
Mg3 Mg4 3.191516 1_545
Mg4 Mg7 3.045757 1_555
Mg4 Mg7 3.045757 1_655
Mg4 Nb0 3.054287 1_555
Mg4 Zn0 3.065110 1_555
Mg4 Zn0 3.065110 1_655
Mg4 Mg5 3.152760 1_565
Mg4 Nb1 3.188681 1_565
Mg5 Mg9 3.090433 1_544
Mg5 Nb0 3.113854 1_545
Mg5 Nb0 3.113854 1_555
Mg6 Zn1 2.895825 1_555
Mg6 Mg7 2.997408 1_545
Mg6 Nb1 2.998260 1_455
Mg6 Nb1 2.998260 1_555
Mg6 Mg8 3.099829 1_555
Mg6 Mg7 3.228799 1_555
Mg6 Zn0 3.348426 1_555
Mg7 Zn1 2.895825 1_565
Mg7 Nb1 2.998260 1_465
Mg7 Nb1 2.998260 1_565
Mg7 Mg8 3.099829 1_555
Mg7 Zn0 3.348426 1_555
Mg8 Mg9 3.049290 1_555
Mg8 Mg9 3.049290 1_455
Mg8 Zn1 3.117656 1_565
Mg8 Zn1 3.117656 1_555
Mg9 Nb1 3.054287 1_565
Mg9 Zn1 3.065110 1_665
Mg9 Zn1 3.065110 1_565
Mg9 Nb0 3.188681 1_556
Mg10 Mg9 3.034691 1_545
Mg10 Mg8 3.049290 1_655
Mg10 Mg8 3.049290 1_555
Mg10 Nb1 3.054287 1_555
Mg10 Zn1 3.065110 1_655
Mg10 Zn1 3.065110 1_555
Mg10 Mg5 3.090433 1_556
Mg10 Mg11 3.152760 1_555
Mg10 Nb0 3.188681 1_556
Mg10 Mg9 3.191516 1_555
Mg11 Mg8 3.016644 1_555
Mg11 Mg8 3.016644 1_655
Mg11 Mg6 3.037791 1_555
Mg11 Mg6 3.037791 1_655
Mg11 Mg7 3.037791 1_655
Mg11 Mg7 3.037791 1_555
Mg11 Mg4 3.090433 1_555
Mg11 Mg3 3.090433 1_555
Mg11 Nb1 3.113854 1_555
Mg11 Nb1 3.113854 1_565
Mg11 Mg9 3.152760 1_555
Nb0 Zn0 2.882339 1_555
Nb0 Zn0 2.882339 1_655
Nb1 Zn1 2.882339 1_555
Nb1 Zn1 2.882339 1_655
