# generated using pymatgen
data_Mg2Cu9O13
_symmetry_space_group_name_H-M   'P 1'
_cell_length_a   5.13480282
_cell_length_b   5.13480282
_cell_length_c   16.22009226
_cell_angle_alpha   81.90681956
_cell_angle_beta   81.90681956
_cell_angle_gamma   33.41154247
_symmetry_Int_Tables_number   1
_chemical_formula_structural   Mg2Cu9O13
_chemical_formula_sum   'Mg2 Cu9 O13'
_cell_volume   232.93390534
_cell_formula_units_Z   1
loop_
 _symmetry_equiv_pos_site_id
 _symmetry_equiv_pos_as_xyz
  1  'x, y, z'
loop_
 _atom_site_type_symbol
 _atom_site_label
 _atom_site_symmetry_multiplicity
 _atom_site_fract_x
 _atom_site_fract_y
 _atom_site_fract_z
 _atom_site_occupancy
  Mg  Mg0  1  0.78500400  0.78500400  0.22761700  1
  Mg  Mg1  1  0.21499600  0.21499600  0.77238300  1
  Cu  Cu0  1  0.50000000  0.50000000  0.50000000  1
  Cu  Cu1  1  0.35489200  0.35489200  0.04061500  1
  Cu  Cu2  1  0.64510800  0.64510800  0.95938500  1
  Cu  Cu3  1  0.25017400  0.25017400  0.41849600  1
  Cu  Cu4  1  0.74982600  0.74982600  0.58150400  1
  Cu  Cu5  1  0.06538000  0.06538000  0.12400200  1
  Cu  Cu6  1  0.93462000  0.93462000  0.87599800  1
  Cu  Cu7  1  0.00791300  0.00791300  0.33140100  1
  Cu  Cu8  1  0.99208700  0.99208700  0.66859900  1
  O  O0  1  0.00000000  0.00000000  0.00000000  1
  O  O1  1  0.14219500  0.14219500  0.22724900  1
  O  O2  1  0.85780500  0.85780500  0.77275100  1
  O  O3  1  0.70091600  0.70091600  0.07113400  1
  O  O4  1  0.29908400  0.29908400  0.92886600  1
  O  O5  1  0.41574700  0.41574700  0.14596600  1
  O  O6  1  0.58425300  0.58425300  0.85403400  1
  O  O7  1  0.37027200  0.37027200  0.31461200  1
  O  O8  1  0.62972800  0.62972800  0.68538800  1
  O  O9  1  0.60895900  0.60895900  0.38762300  1
  O  O10  1  0.39104100  0.39104100  0.61237700  1
  O  O11  1  0.86805900  0.86805900  0.46984700  1
  O  O12  1  0.13194100  0.13194100  0.53015300  1
loop_
_geom_bond_atom_site_label_1
_geom_bond_atom_site_label_2
_geom_bond_distance
_geom_bond_site_symmetry_2
Mg0 O1 2.038220 1_655
Mg0 O1 2.038220 1_565
Mg0 O5 2.255174 1_565
Mg0 O5 2.255174 1_655
Mg0 O7 2.284980 1_565
Mg0 O7 2.284980 1_655
Mg1 O2 2.038220 1_545
Mg1 O2 2.038220 1_455
Mg1 O6 2.255174 1_545
Mg1 O6 2.255174 1_455
Mg1 O8 2.284980 1_455
Mg1 O8 2.284980 1_545
Cu0 O9 1.974034 1_555
Cu0 O10 1.974034 1_555
Cu0 O12 2.070928 1_655
Cu0 O12 2.070928 1_565
Cu0 O11 2.070928 1_545
Cu0 O11 2.070928 1_455
Cu1 O5 1.891824 1_555
Cu1 O4 1.969588 1_554
Cu1 O0 2.091280 1_655
Cu1 O0 2.091280 1_565
Cu1 O3 2.120645 1_455
Cu1 O3 2.120645 1_545
Cu2 O6 1.891824 1_555
Cu2 O3 1.969588 1_556
Cu2 O0 2.091280 1_566
Cu2 O0 2.091280 1_656
Cu2 O4 2.120645 1_565
Cu2 O4 2.120645 1_655
Cu3 O7 1.910385 1_555
Cu3 O12 2.003331 1_555
Cu3 O11 2.121527 1_545
Cu3 O11 2.121527 1_455
Cu3 O9 2.136184 1_455
Cu3 O9 2.136184 1_545
Cu4 O8 1.910385 1_555
Cu4 O11 2.003331 1_555
Cu4 O12 2.121527 1_565
Cu4 O12 2.121527 1_655
Cu4 O10 2.136184 1_655
Cu4 O10 2.136184 1_565
Cu5 O1 1.935818 1_555
Cu5 O5 2.077906 1_545
Cu5 O5 2.077906 1_455
Cu5 O3 2.086924 1_545
Cu5 O3 2.086924 1_455
Cu5 O0 2.199825 1_555
Cu6 O2 1.935818 1_555
Cu6 O6 2.077906 1_655
Cu6 O6 2.077906 1_565
Cu6 O4 2.086924 1_565
Cu6 O4 2.086924 1_655
Cu6 O0 2.199825 1_666
Cu7 O1 1.985580 1_555
Cu7 O7 2.047964 1_545
Cu7 O7 2.047964 1_455
Cu7 O9 2.065087 1_545
Cu7 O9 2.065087 1_455
Cu7 O11 2.454990 1_445
Cu8 O2 1.985580 1_555
Cu8 O8 2.047964 1_655
Cu8 O8 2.047964 1_565
Cu8 O10 2.065087 1_565
Cu8 O10 2.065087 1_655
Cu8 O12 2.454990 1_665
