# generated using pymatgen
data_ZnAgPO4
_symmetry_space_group_name_H-M   'P 1'
_cell_length_a   10.57056000
_cell_length_b   5.24093900
_cell_length_c   9.06618441
_cell_angle_alpha   55.11533262
_cell_angle_beta   90.00000000
_cell_angle_gamma   90.00000000
_symmetry_Int_Tables_number   1
_chemical_formula_structural   ZnAgPO4
_chemical_formula_sum   'Zn4 Ag4 P4 O16'
_cell_volume   412.00926697
_cell_formula_units_Z   4
loop_
 _symmetry_equiv_pos_site_id
 _symmetry_equiv_pos_as_xyz
  1  'x, y, z'
loop_
 _atom_site_type_symbol
 _atom_site_label
 _atom_site_symmetry_multiplicity
 _atom_site_fract_x
 _atom_site_fract_y
 _atom_site_fract_z
 _atom_site_occupancy
  Zn  Zn0  1  0.34080500  0.33472300  0.97464900  1
  Zn  Zn1  1  0.15919500  0.33472300  0.47464900  1
  Zn  Zn2  1  0.65919500  0.66527700  0.02535100  1
  Zn  Zn3  1  0.84080500  0.66527700  0.52535100  1
  Ag  Ag0  1  0.39205100  0.81937800  0.47874800  1
  Ag  Ag1  1  0.10794900  0.81937800  0.97874800  1
  Ag  Ag2  1  0.60794900  0.18062200  0.52125200  1
  Ag  Ag3  1  0.89205100  0.18062200  0.02125200  1
  P  P0  1  0.39524800  0.60089500  0.20862300  1
  P  P1  1  0.10475200  0.60089500  0.70862300  1
  P  P2  1  0.60475200  0.39910500  0.79137700  1
  P  P3  1  0.89524800  0.39910500  0.29137700  1
  O  O0  1  0.37818400  0.91442200  0.18895100  1
  O  O1  1  0.12181600  0.91442200  0.68895100  1
  O  O2  1  0.62181600  0.08557800  0.81104900  1
  O  O3  1  0.87818400  0.08557800  0.31104900  1
  O  O4  1  0.53835400  0.51275000  0.22564300  1
  O  O5  1  0.96164600  0.51275000  0.72564300  1
  O  O6  1  0.46164600  0.48725000  0.77435700  1
  O  O7  1  0.03835400  0.48725000  0.27435700  1
  O  O8  1  0.33592900  0.63116500  0.04329900  1
  O  O9  1  0.16407100  0.63116500  0.54329900  1
  O  O10  1  0.66407100  0.36883500  0.95670100  1
  O  O11  1  0.83592900  0.36883500  0.45670100  1
  O  O12  1  0.33207400  0.33806900  0.38896600  1
  O  O13  1  0.16792600  0.33806900  0.88896600  1
  O  O14  1  0.66792600  0.66193100  0.61103400  1
  O  O15  1  0.83207400  0.66193100  0.11103400  1
loop_
_geom_bond_atom_site_label_1
_geom_bond_atom_site_label_2
_geom_bond_distance
_geom_bond_site_symmetry_2
Ag0 O6 2.327576 1_555
Ag0 O0 2.382350 1_555
Ag0 O12 2.433783 1_565
Ag0 O9 2.542181 1_555
Ag1 O7 2.327576 1_556
Ag1 O1 2.382350 1_555
Ag1 O13 2.433783 1_565
Ag1 O8 2.542181 1_556
Ag2 O4 2.327576 1_555
Ag2 O2 2.382350 1_555
Ag2 O14 2.433783 1_545
Ag2 O11 2.542181 1_555
Ag3 O5 2.327576 1_554
Ag3 O3 2.382350 1_555
Ag3 O15 2.433783 1_545
Ag3 O10 2.542181 1_554
O0 P0 1.558574 1_555
O0 Zn0 1.971741 1_564
O1 P1 1.558574 1_555
O1 Zn1 1.971741 1_565
O2 P2 1.558574 1_555
O2 Zn2 1.971741 1_546
O3 P3 1.558574 1_555
O3 Zn3 1.971741 1_545
O4 P0 1.563322 1_555
O4 Zn2 1.976787 1_555
O5 P1 1.563322 1_655
O5 Zn3 1.976787 1_555
O6 P2 1.563322 1_555
O6 Zn0 1.976787 1_555
O7 P3 1.563322 1_455
O7 Zn1 1.976787 1_555
O8 P0 1.546909 1_555
O8 Zn0 1.977343 1_554
O9 P1 1.546909 1_555
O9 Zn1 1.977343 1_555
O10 P2 1.546909 1_555
O10 Zn2 1.977343 1_556
O11 P3 1.546909 1_555
O11 Zn3 1.977343 1_555
O12 P0 1.562199 1_555
O12 Zn1 1.981833 1_555
O13 P1 1.562199 1_555
O13 Zn0 1.981833 1_555
O14 P2 1.562199 1_555
O14 Zn3 1.981833 1_555
O15 P3 1.562199 1_555
O15 Zn2 1.981833 1_555
