# generated using pymatgen
data_YbIn2Rh
_symmetry_space_group_name_H-M   'P 1'
_cell_length_a   5.51372038
_cell_length_b   5.51372038
_cell_length_c   8.35569000
_cell_angle_alpha   90.00000000
_cell_angle_beta   90.00000000
_cell_angle_gamma   135.57731525
_symmetry_Int_Tables_number   1
_chemical_formula_structural   YbIn2Rh
_chemical_formula_sum   'Yb2 In4 Rh2'
_cell_volume   177.80191396
_cell_formula_units_Z   2
loop_
 _symmetry_equiv_pos_site_id
 _symmetry_equiv_pos_as_xyz
  1  'x, y, z'
loop_
 _atom_site_type_symbol
 _atom_site_label
 _atom_site_symmetry_multiplicity
 _atom_site_fract_x
 _atom_site_fract_y
 _atom_site_fract_z
 _atom_site_occupancy
  Yb  Yb0  1  0.06606200  0.93393800  0.25000000  1
  Yb  Yb1  1  0.93393800  0.06606200  0.75000000  1
  In  In0  1  0.64584500  0.35415500  0.54957500  1
  In  In1  1  0.35415500  0.64584500  0.45042500  1
  In  In2  1  0.64584500  0.35415500  0.95042500  1
  In  In3  1  0.35415500  0.64584500  0.04957500  1
  Rh  Rh0  1  0.21951600  0.78048400  0.75000000  1
  Rh  Rh1  1  0.78048400  0.21951600  0.25000000  1
loop_
_geom_bond_atom_site_label_1
_geom_bond_atom_site_label_2
_geom_bond_distance
_geom_bond_site_symmetry_2
In0 Rh0 2.777526 1_545
In0 Rh0 2.777526 1_655
In0 Rh1 2.855727 1_555
In0 Yb0 3.357620 1_655
In0 Yb0 3.357620 1_545
In0 Yb1 3.384548 1_555
In0 Yb1 3.439365 1_455
In0 Yb1 3.439365 1_565
In1 Rh1 2.777526 1_565
In1 Rh1 2.777526 1_455
In1 Rh0 2.855727 1_555
In1 Yb1 3.357620 1_565
In1 Yb1 3.357620 1_455
In1 Yb0 3.384548 1_555
In1 Yb0 3.439365 1_545
In1 Yb0 3.439365 1_655
In2 Rh0 2.777526 1_545
In2 Rh0 2.777526 1_655
In2 Rh1 2.855727 1_556
In2 Yb0 3.357620 1_546
In2 Yb0 3.357620 1_656
In2 Yb1 3.384548 1_555
In2 Yb1 3.439365 1_455
In2 Yb1 3.439365 1_565
In3 Rh1 2.777526 1_565
In3 Rh1 2.777526 1_455
In3 Rh0 2.855727 1_554
In3 Yb1 3.357620 1_564
In3 Yb1 3.357620 1_454
In3 Yb0 3.384548 1_555
In3 Yb0 3.439365 1_545
In3 Yb0 3.439365 1_655
Rh0 Yb1 2.915511 1_465
Rh0 Yb1 3.022649 1_455
Rh0 Yb1 3.022649 1_565
Rh1 Yb0 2.915511 1_645
Rh1 Yb0 3.022649 1_545
Rh1 Yb0 3.022649 1_655
