# generated using pymatgen
data_Zn(FeO2)2
_symmetry_space_group_name_H-M   'P 1'
_cell_length_a   2.92169600
_cell_length_b   9.05041400
_cell_length_c   10.37279700
_cell_angle_alpha   90.00000000
_cell_angle_beta   90.00000000
_cell_angle_gamma   90.00000000
_symmetry_Int_Tables_number   1
_chemical_formula_structural   Zn(FeO2)2
_chemical_formula_sum   'Zn4 Fe8 O16'
_cell_volume   274.28329026
_cell_formula_units_Z   4
loop_
 _symmetry_equiv_pos_site_id
 _symmetry_equiv_pos_as_xyz
  1  'x, y, z'
loop_
 _atom_site_type_symbol
 _atom_site_label
 _atom_site_symmetry_multiplicity
 _atom_site_fract_x
 _atom_site_fract_y
 _atom_site_fract_z
 _atom_site_occupancy
  Zn  Zn0  1  0.75000000  0.75339200  0.65360100  1
  Zn  Zn1  1  0.25000000  0.24660800  0.34639900  1
  Zn  Zn2  1  0.75000000  0.25339200  0.84639900  1
  Zn  Zn3  1  0.25000000  0.74660800  0.15360100  1
  Fe  Fe0  1  0.75000000  0.93654500  0.88004100  1
  Fe  Fe1  1  0.25000000  0.06345500  0.11995900  1
  Fe  Fe2  1  0.75000000  0.43654500  0.61995900  1
  Fe  Fe3  1  0.25000000  0.56345500  0.38004100  1
  Fe  Fe4  1  0.75000000  0.91448600  0.40093200  1
  Fe  Fe5  1  0.25000000  0.08551400  0.59906800  1
  Fe  Fe6  1  0.75000000  0.41448600  0.09906800  1
  Fe  Fe7  1  0.25000000  0.58551400  0.90093200  1
  O  O0  1  0.75000000  0.70941000  0.32609100  1
  O  O1  1  0.25000000  0.29059000  0.67390900  1
  O  O2  1  0.75000000  0.20941000  0.17390900  1
  O  O3  1  0.25000000  0.79059000  0.82609100  1
  O  O4  1  0.75000000  0.61723800  0.03363400  1
  O  O5  1  0.25000000  0.38276200  0.96636600  1
  O  O6  1  0.75000000  0.11723800  0.46636600  1
  O  O7  1  0.25000000  0.88276200  0.53363400  1
  O  O8  1  0.75000000  0.53688900  0.78888200  1
  O  O9  1  0.25000000  0.46311100  0.21111800  1
  O  O10  1  0.75000000  0.03688900  0.71111800  1
  O  O11  1  0.25000000  0.96311100  0.28888200  1
  O  O12  1  0.75000000  0.90626200  0.07255100  1
  O  O13  1  0.25000000  0.09373800  0.92744900  1
  O  O14  1  0.75000000  0.40626200  0.42744900  1
  O  O15  1  0.25000000  0.59373800  0.57255100  1
loop_
_geom_bond_atom_site_label_1
_geom_bond_atom_site_label_2
_geom_bond_distance
_geom_bond_site_symmetry_2
Fe0 O10 1.973566 1_565
Fe0 O12 2.015588 1_556
Fe0 O3 2.047477 1_555
Fe0 O3 2.047477 1_655
Fe0 O13 2.097585 1_565
Fe0 O13 2.097585 1_665
Fe1 O11 1.973566 1_545
Fe1 O13 2.015588 1_554
Fe1 O2 2.047477 1_455
Fe1 O2 2.047477 1_555
Fe1 O12 2.097585 1_545
Fe1 O12 2.097585 1_445
Fe2 O8 1.973566 1_555
Fe2 O14 2.015588 1_555
Fe2 O1 2.047477 1_655
Fe2 O1 2.047477 1_555
Fe2 O15 2.097585 1_555
Fe2 O15 2.097585 1_655
Fe3 O9 1.973566 1_555
Fe3 O15 2.015588 1_555
Fe3 O0 2.047477 1_455
Fe3 O0 2.047477 1_555
Fe3 O14 2.097585 1_455
Fe3 O14 2.097585 1_555
Fe4 O11 1.917973 1_555
Fe4 O11 1.917973 1_655
Fe4 O6 1.956493 1_565
Fe4 O0 2.011835 1_555
Fe4 O7 2.027619 1_555
Fe4 O7 2.027619 1_655
Fe5 O10 1.917973 1_455
Fe5 O10 1.917973 1_555
Fe5 O7 1.956493 1_545
Fe5 O1 2.011835 1_555
Fe5 O6 2.027619 1_555
Fe5 O6 2.027619 1_455
Fe6 O9 1.917973 1_655
Fe6 O9 1.917973 1_555
Fe6 O4 1.956493 1_555
Fe6 O2 2.011835 1_555
Fe6 O5 2.027619 1_654
Fe6 O5 2.027619 1_554
Fe7 O8 1.917973 1_455
Fe7 O8 1.917973 1_555
Fe7 O5 1.956493 1_555
Fe7 O3 2.011835 1_555
Fe7 O4 2.027619 1_456
Fe7 O4 2.027619 1_556
O0 Zn3 2.334238 1_655
O0 Zn3 2.334238 1_555
O1 Zn2 2.334238 1_555
O1 Zn2 2.334238 1_455
O2 Zn1 2.334238 1_555
O2 Zn1 2.334238 1_655
O3 Zn0 2.334238 1_455
O3 Zn0 2.334238 1_555
O4 Zn3 2.247996 1_555
O4 Zn3 2.247996 1_655
O5 Zn2 2.247996 1_455
O5 Zn2 2.247996 1_555
O6 Zn1 2.247996 1_655
O6 Zn1 2.247996 1_555
O7 Zn0 2.247996 1_455
O7 Zn0 2.247996 1_555
O8 Zn0 2.410083 1_555
O9 Zn1 2.410083 1_555
O10 Zn2 2.410083 1_555
O11 Zn3 2.410083 1_555
O12 Zn3 2.220071 1_555
O12 Zn3 2.220071 1_655
O13 Zn2 2.220071 1_455
O13 Zn2 2.220071 1_555
O14 Zn1 2.220071 1_555
O14 Zn1 2.220071 1_655
O15 Zn0 2.220071 1_555
O15 Zn0 2.220071 1_455
