# generated using pymatgen
data_CaHf8(N2O)4
_symmetry_space_group_name_H-M   'P 1'
_cell_length_a   5.44820589
_cell_length_b   5.61504974
_cell_length_c   11.51118734
_cell_angle_alpha   102.57139565
_cell_angle_beta   76.28926342
_cell_angle_gamma   60.68958468
_symmetry_Int_Tables_number   1
_chemical_formula_structural   CaHf8(N2O)4
_chemical_formula_sum   'Ca1 Hf8 N8 O4'
_cell_volume   274.19936337
_cell_formula_units_Z   1
loop_
 _symmetry_equiv_pos_site_id
 _symmetry_equiv_pos_as_xyz
  1  'x, y, z'
loop_
 _atom_site_type_symbol
 _atom_site_label
 _atom_site_symmetry_multiplicity
 _atom_site_fract_x
 _atom_site_fract_y
 _atom_site_fract_z
 _atom_site_occupancy
  Ca  Ca0  1  0.74572300  0.37606800  0.14226100  1
  Hf  Hf0  1  0.25386200  0.21482100  0.29606200  1
  Hf  Hf1  1  0.11221100  0.01971800  0.77345400  1
  Hf  Hf2  1  0.26630200  0.55392700  0.96854000  1
  Hf  Hf3  1  0.65154700  0.18534500  0.55700000  1
  Hf  Hf4  1  0.47593500  0.70961200  0.46554900  1
  Hf  Hf5  1  0.95501600  0.81587900  0.26727600  1
  Hf  Hf6  1  0.55800000  0.93841700  0.00135800  1
  Hf  Hf7  1  0.85988200  0.60935000  0.70743200  1
  N  N0  1  0.50474600  0.02586400  0.40252700  1
  N  N1  1  0.20892200  0.36074400  0.12232200  1
  N  N2  1  0.26322400  0.60463400  0.63283100  1
  N  N3  1  0.86841900  0.23660600  0.39444900  1
  N  N4  1  0.40310200  0.77731800  0.86692600  1
  N  N5  1  0.79687100  0.91671900  0.12220900  1
  N  N6  1  0.98302900  0.18541200  0.62801300  1
  N  N7  1  0.69740800  0.11190100  0.87610300  1
  O  O0  1  0.35437000  0.78586900  0.12640100  1
  O  O1  1  0.30697200  0.58000300  0.34085000  1
  O  O2  1  0.02811900  0.46763900  0.86311800  1
  O  O3  1  0.60868000  0.86453500  0.62059000  1
loop_
_geom_bond_atom_site_label_1
_geom_bond_atom_site_label_2
_geom_bond_distance
_geom_bond_site_symmetry_2
Ca0 O0 2.331978 1_555
Ca0 N5 2.406280 1_545
Ca0 O1 2.416853 1_555
Ca0 N1 2.435752 1_655
Hf0 N3 2.065983 1_455
Hf0 N0 2.106231 1_555
Hf0 O1 2.178434 1_555
Hf0 N1 2.340976 1_555
Hf0 O0 2.463610 1_545
Hf0 N5 2.538878 1_545
Hf1 N7 2.023368 1_455
Hf1 N2 2.139696 1_545
Hf1 N6 2.181608 1_455
Hf1 N4 2.203603 1_545
Hf1 O2 2.262420 1_555
Hf1 O3 2.437336 1_545
Hf2 O2 2.120730 1_555
Hf2 N4 2.153566 1_555
Hf2 N7 2.183378 1_555
Hf2 N5 2.237337 1_456
Hf2 O0 2.285475 1_556
Hf2 N1 2.305124 1_556
Hf3 N2 2.033231 1_555
Hf3 N3 2.121212 1_555
Hf3 N6 2.151776 1_555
Hf3 O3 2.177186 1_545
Hf3 N0 2.299069 1_555
Hf4 O1 2.065205 1_555
Hf4 N0 2.117548 1_565
Hf4 N3 2.227108 1_555
Hf4 O3 2.239856 1_555
Hf4 N2 2.345967 1_555
Hf4 N6 2.503317 1_465
Hf5 N0 2.095373 1_565
Hf5 N5 2.113648 1_555
Hf5 N1 2.194802 1_655
Hf5 O1 2.218098 1_655
Hf5 N3 2.241082 1_565
Hf5 O0 2.289449 1_655
Hf6 N1 2.017660 1_565
Hf6 N5 2.102514 1_555
Hf6 N7 2.102699 1_564
Hf6 N4 2.163853 1_554
Hf6 O0 2.178645 1_555
Hf6 O2 2.384961 1_654
Hf7 N6 2.037301 1_555
Hf7 O3 2.068230 1_555
Hf7 N2 2.146085 1_655
Hf7 N4 2.288196 1_555
Hf7 O2 2.317410 1_655
Hf7 N7 2.621226 1_565
