# generated using pymatgen
data_ZnCr5GaSe10
_symmetry_space_group_name_H-M   'P 1'
_cell_length_a   7.44186706
_cell_length_b   26.84006884
_cell_length_c   7.44209364
_cell_angle_alpha   97.96902652
_cell_angle_beta   90.00000000
_cell_angle_gamma   82.03096175
_symmetry_Int_Tables_number   1
_chemical_formula_structural   ZnCr5GaSe10
_chemical_formula_sum   'Zn4 Cr20 Ga4 Se40'
_cell_volume   1457.63454458
_cell_formula_units_Z   4
loop_
 _symmetry_equiv_pos_site_id
 _symmetry_equiv_pos_as_xyz
  1  'x, y, z'
loop_
 _atom_site_type_symbol
 _atom_site_label
 _atom_site_symmetry_multiplicity
 _atom_site_fract_x
 _atom_site_fract_y
 _atom_site_fract_z
 _atom_site_occupancy
  Zn  Zn0  1  0.07509280  0.35008542  0.67504271  1
  Zn  Zn1  1  0.87417347  0.75052464  0.87526231  1
  Zn  Zn2  1  0.27578476  0.94946882  0.47473441  1
  Zn  Zn3  1  0.32468250  0.85003594  0.92501797  1
  Cr  Cr0  1  0.40078275  0.69803731  0.09511640  1
  Cr  Cr1  1  0.79993308  0.89998180  0.69960012  1
  Cr  Cr2  1  0.20104303  0.09857935  0.28644430  1
  Cr  Cr3  1  0.60124767  0.29773269  0.89477881  1
  Cr  Cr4  1  0.00044582  0.49872374  0.48663504  1
  Cr  Cr5  1  0.40078275  0.69803731  0.60292092  1
  Cr  Cr6  1  0.79993308  0.89998180  0.20038169  1
  Cr  Cr7  1  0.20104303  0.09857935  0.81213505  1
  Cr  Cr8  1  0.60124767  0.29773269  0.40295387  1
  Cr  Cr9  1  0.00044582  0.49872374  0.01208870  1
  Cr  Cr10  1  0.09985083  0.79997663  0.39998832  1
  Cr  Cr11  1  0.49506365  0.00201044  0.00100522  1
  Cr  Cr12  1  0.88674521  0.20127826  0.60063913  1
  Cr  Cr13  1  0.29483558  0.40220581  0.20110290  1
  Cr  Cr14  1  0.68627651  0.60145121  0.80072561  1
  Cr  Cr15  1  0.21207308  0.60148137  0.80074069  1
  Cr  Cr16  1  0.60054516  0.79995811  0.39997906  1
  Cr  Cr17  1  0.00270854  0.00197177  0.00098588  1
  Cr  Cr18  1  0.41227932  0.20130544  0.60065272  1
  Cr  Cr19  1  0.80309616  0.40221911  0.20110955  1
  Ga  Ga0  1  0.12579784  0.24789142  0.12394572  1
  Ga  Ga1  1  0.52362848  0.45212598  0.72606299  1
  Ga  Ga2  1  0.92637552  0.64744429  0.32372214  1
  Ga  Ga3  1  0.72391703  0.05255224  0.52627612  1
  Se  Se0  1  0.84799803  0.80409860  0.17077120  1
  Se  Se1  1  0.24826320  0.00331291  0.77052303  1
  Se  Se2  1  0.64840483  0.20350746  0.36755366  1
  Se  Se3  1  0.04828792  0.40357155  0.97071400  1
  Se  Se4  1  0.44808869  0.60365902  0.56775047  1
  Se  Se5  1  0.84799803  0.80409860  0.63332739  1
  Se  Se6  1  0.24826320  0.00331291  0.23278989  1
  Se  Se7  1  0.64840483  0.20350746  0.83595379  1
  Se  Se8  1  0.04828792  0.40357155  0.43285755  1
  Se  Se9  1  0.44808869  0.60365902  0.03590854  1
  Se  Se10  1  0.17017447  0.69676322  0.84838161  1
  Se  Se11  1  0.57091221  0.89591793  0.44795896  1
  Se  Se12  1  0.96807850  0.09639893  0.04819946  1
  Se  Se13  1  0.37104384  0.29653334  0.64826667  1
  Se  Se14  1  0.76732597  0.49636248  0.24818124  1
  Se  Se15  1  0.63242191  0.69673738  0.84836869  1
  Se  Se16  1  0.03344809  0.89594072  0.44797036  1
  Se  Se17  1  0.43615680  0.09641533  0.04820766  1
  Se  Se18  1  0.83320095  0.29642230  0.64821115  1
  Se  Se19  1  0.23558839  0.49638021  0.24819010  1
  Se  Se20  1  0.35238651  0.79569732  0.62838777  1
  Se  Se21  1  0.75126181  0.99721358  0.23227872  1
  Se  Se22  1  0.15201130  0.19601376  0.82946613  1
  Se  Se23  1  0.55176547  0.39676337  0.43132959  1
  Se  Se24  1  0.95190977  0.59606502  0.02922696  1
  Se  Se25  1  0.35238651  0.79569732  0.16730954  1
  Se  Se26  1  0.75126181  0.99721358  0.76493486  1
  Se  Se27  1  0.15201130  0.19601376  0.36654763  1
  Se  Se28  1  0.55176547  0.39676337  0.96543379  1
  Se  Se29  1  0.95190977  0.59606502  0.56683806  1
  Se  Se30  1  0.02824815  0.90421456  0.95210728  1
  Se  Se31  1  0.42929676  0.10394217  0.55197108  1
  Se  Se32  1  0.83120907  0.30321732  0.15160866  1
  Se  Se33  1  0.22934860  0.50401407  0.75200703  1
  Se  Se34  1  0.63221077  0.70267242  0.35133621  1
  Se  Se35  1  0.56712073  0.90433764  0.95216883  1
  Se  Se36  1  0.96678681  0.10400084  0.55200042  1
  Se  Se37  1  0.36543961  0.30317464  0.15158732  1
  Se  Se38  1  0.76640171  0.50393273  0.75196636  1
  Se  Se39  1  0.16500045  0.70271994  0.35135997  1
loop_
_geom_bond_atom_site_label_1
_geom_bond_atom_site_label_2
_geom_bond_distance
_geom_bond_site_symmetry_2
Cr0 Se9 2.485565 1_555
Cr0 Se15 2.512056 1_554
Cr0 Se10 2.513352 1_554
Cr0 Se39 2.569753 1_555
Cr0 Se34 2.571227 1_555
Cr0 Se25 2.576203 1_555
Cr1 Se5 2.527248 1_555
Cr1 Se11 2.533522 1_555
Cr1 Se30 2.534850 1_655
Cr1 Se16 2.535728 1_655
Cr1 Se35 2.536016 1_555
Cr1 Se26 2.562079 1_555
Cr2 Se17 2.480221 1_555
Cr2 Se12 2.480351 1_455
Cr2 Se6 2.507733 1_555
Cr2 Se27 2.575006 1_555
Cr2 Se31 2.607657 1_555
Cr2 Se36 2.610736 1_455
Cr3 Se7 2.481458 1_555
Cr3 Se13 2.510071 1_555
Cr3 Se18 2.512629 1_555
Cr3 Se32 2.568164 1_556
Cr3 Se37 2.570025 1_556
Cr3 Se28 2.611146 1_555
Cr4 Se19 2.480643 1_555
Cr4 Se14 2.482378 1_455
Cr4 Se8 2.504749 1_555
Cr4 Se29 2.572663 1_455
Cr4 Se38 2.609255 1_455
Cr4 Se33 2.609902 1_555
Cr5 Se4 2.485565 1_555
Cr5 Se15 2.512056 1_555
Cr5 Se10 2.513352 1_555
Cr5 Se39 2.569753 1_555
Cr5 Se34 2.571227 1_555
Cr5 Se20 2.576203 1_555
Cr6 Se0 2.527248 1_555
Cr6 Se11 2.533522 1_555
Cr6 Se30 2.534850 1_654
Cr6 Se16 2.535728 1_655
Cr6 Se35 2.536016 1_554
Cr6 Se21 2.562079 1_555
Cr7 Se17 2.480221 1_556
Cr7 Se12 2.480351 1_456
Cr7 Se1 2.507733 1_555
Cr7 Se22 2.575006 1_555
Cr7 Se31 2.607657 1_555
Cr7 Se36 2.610736 1_455
Cr8 Se2 2.481458 1_555
Cr8 Se13 2.510071 1_555
Cr8 Se18 2.512629 1_555
Cr8 Se32 2.568164 1_555
Cr8 Se37 2.570024 1_555
Cr8 Se23 2.611146 1_555
Cr9 Se19 2.480643 1_555
Cr9 Se14 2.482378 1_455
Cr9 Se3 2.504749 1_554
Cr9 Se24 2.572663 1_455
Cr9 Se38 2.609255 1_454
Cr9 Se33 2.609902 1_554
Cr10 Se16 2.529409 1_555
Cr10 Se20 2.535468 1_555
Cr10 Se25 2.535468 1_555
Cr10 Se5 2.535714 1_455
Cr10 Se0 2.535715 1_455
Cr10 Se39 2.562662 1_555
Cr11 Se17 2.486181 1_555
Cr11 Se1 2.513066 1_554
Cr11 Se6 2.513066 1_555
Cr11 Se21 2.570494 1_545
Cr11 Se26 2.570494 1_544
Cr11 Se35 2.576464 1_544
Cr12 Se7 2.481516 1_555
Cr12 Se2 2.481516 1_555
Cr12 Se18 2.504503 1_555
Cr12 Se36 2.570900 1_555
Cr12 Se22 2.608900 1_655
Cr12 Se27 2.608900 1_655
Cr13 Se19 2.480240 1_555
Cr13 Se3 2.511233 1_554
Cr13 Se8 2.511233 1_555
Cr13 Se28 2.569983 1_554
Cr13 Se23 2.569983 1_555
Cr13 Se37 2.611135 1_555
Cr14 Se9 2.480119 1_556
Cr14 Se4 2.480120 1_555
Cr14 Se15 2.508275 1_555
Cr14 Se38 2.577193 1_555
Cr14 Se24 2.609481 1_556
Cr14 Se29 2.609481 1_555
Cr15 Se9 2.480210 1_556
Cr15 Se4 2.480210 1_555
Cr15 Se10 2.508100 1_555
Cr15 Se33 2.575916 1_555
Cr15 Se24 2.609142 1_456
Cr15 Se29 2.609142 1_455
Cr16 Se11 2.529268 1_555
Cr16 Se5 2.534271 1_555
Cr16 Se0 2.534271 1_555
Cr16 Se20 2.534862 1_555
Cr16 Se25 2.534862 1_555
Cr16 Se34 2.563591 1_555
Cr17 Se12 2.487005 1_455
Cr17 Se1 2.513493 1_554
Cr17 Se6 2.513493 1_555
Cr17 Se26 2.570588 1_444
Cr17 Se21 2.570588 1_445
Cr17 Se30 2.578742 1_544
Cr18 Se7 2.481504 1_555
Cr18 Se2 2.481504 1_555
Cr18 Se13 2.506766 1_555
Cr18 Se31 2.573330 1_555
Cr18 Se22 2.610501 1_555
Cr18 Se27 2.610501 1_555
Cr19 Se14 2.479199 1_555
Cr19 Se3 2.511246 1_654
Cr19 Se8 2.511246 1_655
Cr19 Se28 2.569181 1_554
Cr19 Se23 2.569181 1_555
Cr19 Se32 2.610499 1_555
Ga0 Se27 2.420388 1_555
Ga0 Se22 2.420388 1_554
Ga0 Se32 2.462961 1_455
Ga0 Se37 2.464455 1_555
Ga1 Se33 2.419228 1_555
Ga1 Se38 2.420125 1_555
Ga1 Se23 2.464347 1_555
Ga1 Se28 2.464347 1_555
Ga2 Se24 2.414644 1_555
Ga2 Se29 2.414644 1_555
Ga2 Se39 2.458211 1_655
Ga2 Se34 2.459188 1_555
Ga3 Se36 2.414318 1_555
Ga3 Se31 2.415484 1_555
Ga3 Se26 2.459629 1_545
Ga3 Se21 2.459629 1_545
Se0 Zn1 2.446956 1_554
Se1 Zn2 2.451938 1_545
Se3 Zn0 2.446876 1_555
Se5 Zn1 2.446956 1_555
Se6 Zn2 2.451938 1_545
Se8 Zn0 2.446876 1_555
Se10 Zn1 2.452164 1_455
Se11 Zn2 2.444297 1_555
Se13 Zn0 2.449322 1_555
Se15 Zn1 2.449680 1_555
Se16 Zn2 2.448517 1_555
Se18 Zn0 2.448269 1_655
Se20 Zn3 2.463082 1_555
Se25 Zn3 2.463082 1_554
Se30 Zn3 2.459879 1_555
Se35 Zn3 2.463247 1_555
