# generated using pymatgen
data_Sm4TiFe33
_symmetry_space_group_name_H-M   'P 1'
_cell_length_a   6.44300233
_cell_length_b   6.44300233
_cell_length_c   12.85368140
_cell_angle_alpha   82.80809208
_cell_angle_beta   82.80809208
_cell_angle_gamma   83.17386118
_symmetry_Int_Tables_number   1
_chemical_formula_structural   Sm4TiFe33
_chemical_formula_sum   'Sm4 Ti1 Fe33'
_cell_volume   522.32884545
_cell_formula_units_Z   1
loop_
 _symmetry_equiv_pos_site_id
 _symmetry_equiv_pos_as_xyz
  1  'x, y, z'
loop_
 _atom_site_type_symbol
 _atom_site_label
 _atom_site_symmetry_multiplicity
 _atom_site_fract_x
 _atom_site_fract_y
 _atom_site_fract_z
 _atom_site_occupancy
  Sm  Sm0  1  0.65351700  0.65351700  0.32583200  1
  Sm  Sm1  1  0.65852100  0.65852100  0.82976000  1
  Sm  Sm2  1  0.34163400  0.34163400  0.17005100  1
  Sm  Sm3  1  0.34070100  0.34070100  0.67164200  1
  Ti  Ti0  1  0.90765800  0.90765800  0.45330000  1
  Fe  Fe0  1  0.34057500  0.34057500  0.42210600  1
  Fe  Fe1  1  0.34278300  0.34278300  0.92234900  1
  Fe  Fe2  1  0.34132300  0.84393200  0.17040200  1
  Fe  Fe3  1  0.34141900  0.84395500  0.67115900  1
  Fe  Fe4  1  0.84393200  0.34132300  0.17040200  1
  Fe  Fe5  1  0.84395500  0.34141900  0.67115900  1
  Fe  Fe6  1  0.65767600  0.65767600  0.07733200  1
  Fe  Fe7  1  0.65800600  0.65800600  0.57944200  1
  Fe  Fe8  1  0.65719400  0.15806900  0.32855200  1
  Fe  Fe9  1  0.65824500  0.15597000  0.82941900  1
  Fe  Fe10  1  0.15806900  0.65719400  0.32855200  1
  Fe  Fe11  1  0.15597000  0.65824500  0.82941900  1
  Fe  Fe12  1  0.00105400  0.00105400  0.24835200  1
  Fe  Fe13  1  0.99932900  0.99932900  0.75032700  1
  Fe  Fe14  1  0.00027400  0.50011600  0.00008900  1
  Fe  Fe15  1  0.00046200  0.49755300  0.50026700  1
  Fe  Fe16  1  0.50011600  0.00027400  0.00008900  1
  Fe  Fe17  1  0.49755300  0.00046200  0.50026700  1
  Fe  Fe18  1  0.29031800  0.70957600  0.99994200  1
  Fe  Fe19  1  0.29707000  0.70334200  0.50038300  1
  Fe  Fe20  1  0.70716800  0.00020300  0.14683200  1
  Fe  Fe21  1  0.70362300  0.00187100  0.64832200  1
  Fe  Fe22  1  0.99975900  0.29725800  0.35150700  1
  Fe  Fe23  1  0.99923900  0.29249700  0.85333400  1
  Fe  Fe24  1  0.29725800  0.99975900  0.35150700  1
  Fe  Fe25  1  0.29249700  0.99923900  0.85333400  1
  Fe  Fe26  1  0.00020300  0.70716800  0.14683200  1
  Fe  Fe27  1  0.00187100  0.70362300  0.64832200  1
  Fe  Fe28  1  0.70957600  0.29031800  0.99994200  1
  Fe  Fe29  1  0.70334200  0.29707000  0.50038300  1
  Fe  Fe30  1  0.90431400  0.90431400  0.95179600  1
  Fe  Fe31  1  0.09581900  0.09581900  0.04720000  1
  Fe  Fe32  1  0.09797900  0.09797900  0.55009100  1
loop_
_geom_bond_atom_site_label_1
_geom_bond_atom_site_label_2
_geom_bond_distance
_geom_bond_site_symmetry_2
Sm0 Ti0 3.166648 1_555
Fe0 Fe15 2.451657 1_555
Fe0 Fe17 2.451657 1_555
Fe0 Fe10 2.481906 1_555
Fe0 Fe8 2.481906 1_555
Fe0 Fe22 2.535998 1_455
Fe0 Fe24 2.535998 1_545
Fe0 Fe32 2.624047 1_555
Fe0 Fe19 2.629903 1_555
Fe0 Fe29 2.629903 1_555
Fe0 Sm0 3.062530 1_555
Fe0 Sm3 3.207660 1_555
Fe0 Sm2 3.238142 1_555
Fe1 Fe16 2.462864 1_556
Fe1 Fe14 2.462864 1_556
Fe1 Fe9 2.485407 1_555
Fe1 Fe11 2.485407 1_555
Fe1 Fe23 2.554482 1_455
Fe1 Fe25 2.554482 1_545
Fe1 Fe31 2.638610 1_556
Fe1 Fe18 2.647598 1_555
Fe1 Fe28 2.647598 1_555
Fe1 Sm1 3.076439 1_555
Fe1 Sm2 3.182048 1_556
Fe1 Sm3 3.225927 1_555
Fe2 Fe6 2.488618 1_555
Fe2 Fe26 2.528374 1_555
Fe2 Fe24 2.619069 1_555
Fe2 Fe20 2.640196 1_565
Fe2 Fe31 2.648984 1_565
Fe2 Sm0 3.057518 1_555
Fe2 Sm2 3.206372 1_565
Fe2 Sm2 3.236637 1_555
Fe3 Fe7 2.481223 1_555
Fe3 Fe32 2.631295 1_565
Fe3 Sm1 3.100053 1_555
Fe3 Sm3 3.200771 1_565
Fe3 Sm3 3.242247 1_555
Fe4 Fe8 2.469473 1_555
Fe4 Fe6 2.488618 1_555
Fe4 Sm0 3.057518 1_555
Fe4 Sm2 3.206372 1_655
Fe4 Sm2 3.236637 1_555
Fe5 Fe9 2.473709 1_555
Fe5 Fe7 2.481223 1_555
Fe5 Sm1 3.100053 1_555
Fe5 Sm3 3.200771 1_655
Fe5 Sm3 3.242247 1_555
Fe6 Sm2 3.079518 1_555
Fe6 Sm1 3.180859 1_554
Fe6 Sm0 3.187675 1_555
Fe7 Ti0 2.666930 1_555
Fe7 Sm3 3.089313 1_555
Fe7 Sm1 3.218342 1_555
Fe7 Sm0 3.267342 1_555
Fe8 Ti0 2.675735 1_545
Fe8 Sm2 3.089564 1_555
Fe8 Sm0 3.185284 1_555
Fe8 Sm0 3.258320 1_545
Fe9 Sm3 3.093702 1_555
Fe9 Sm1 3.204309 1_545
Fe9 Sm1 3.238701 1_555
Fe10 Fe15 2.465639 1_555
Fe10 Fe2 2.469473 1_555
Fe10 Fe12 2.480120 1_565
Fe10 Fe24 2.542171 1_555
Fe10 Fe19 2.547874 1_555
Fe10 Fe22 2.611730 1_455
Fe10 Fe26 2.631113 1_555
Fe10 Ti0 2.675735 1_455
Fe10 Sm2 3.089564 1_555
Fe10 Sm0 3.185284 1_555
Fe10 Sm0 3.258320 1_455
Fe11 Fe14 2.447267 1_556
Fe11 Fe13 2.460046 1_455
Fe11 Fe3 2.473709 1_555
Fe11 Fe18 2.527342 1_555
Fe11 Fe25 2.528121 1_555
Fe11 Fe27 2.613236 1_555
Fe11 Fe23 2.640827 1_455
Fe11 Fe30 2.644169 1_455
Fe11 Sm3 3.093702 1_555
Fe11 Sm1 3.204309 1_455
Fe11 Sm1 3.238701 1_555
Fe12 Fe26 2.431277 1_545
Fe12 Fe20 2.431277 1_455
Fe12 Fe2 2.451840 1_545
Fe12 Fe4 2.451840 1_455
Fe12 Fe22 2.455061 1_455
Fe12 Fe24 2.455061 1_545
Fe12 Fe8 2.480120 1_455
Fe12 Fe31 2.593974 1_555
Fe12 Ti0 2.637457 1_445
Fe12 Sm2 3.268339 1_555
Fe12 Sm0 3.330893 1_445
Fe13 Fe25 2.438574 1_655
Fe13 Fe23 2.438574 1_565
Fe13 Fe21 2.441711 1_565
Fe13 Fe27 2.441711 1_655
Fe13 Fe9 2.460046 1_565
Fe13 Fe3 2.462648 1_655
Fe13 Fe5 2.462648 1_565
Fe13 Fe32 2.590192 1_665
Fe13 Fe30 2.598242 1_555
Fe13 Sm1 3.272496 1_555
Fe13 Sm3 3.276303 1_665
Fe14 Fe18 2.431362 1_554
Fe14 Fe28 2.436912 1_454
Fe14 Fe26 2.442750 1_555
Fe14 Fe23 2.446390 1_454
Fe14 Fe4 2.446597 1_455
Fe14 Fe6 2.461645 1_455
Fe14 Fe31 2.616921 1_555
Fe14 Fe30 2.618830 1_454
Fe14 Sm2 3.280738 1_555
Fe14 Sm1 3.285834 1_454
Fe15 Fe29 2.433076 1_455
Fe15 Fe22 2.437827 1_455
Fe15 Fe5 2.446848 1_455
Fe15 Fe19 2.452274 1_555
Fe15 Fe27 2.454454 1_555
Fe15 Fe7 2.476246 1_455
Fe15 Fe32 2.595409 1_555
Fe15 Ti0 2.649372 1_455
Fe15 Sm3 3.286984 1_555
Fe15 Sm0 3.345239 1_455
Fe16 Fe28 2.431362 1_554
Fe16 Fe18 2.436912 1_544
Fe16 Fe20 2.442750 1_555
Fe16 Fe25 2.446390 1_544
Fe16 Fe2 2.446597 1_545
Fe16 Fe9 2.447267 1_554
Fe16 Fe6 2.461645 1_545
Fe16 Fe31 2.616921 1_555
Fe16 Fe30 2.618830 1_544
Fe16 Sm2 3.280738 1_555
Fe16 Sm1 3.285834 1_544
Fe17 Fe19 2.433076 1_545
Fe17 Fe24 2.437827 1_545
Fe17 Fe3 2.446848 1_545
Fe17 Fe29 2.452274 1_555
Fe17 Fe21 2.454454 1_555
Fe17 Fe8 2.465639 1_555
Fe17 Fe7 2.476246 1_545
Fe17 Fe32 2.595409 1_555
Fe17 Ti0 2.649372 1_545
Fe17 Sm3 3.286984 1_555
Fe17 Sm0 3.345239 1_545
Fe18 Fe25 2.480613 1_555
Fe18 Fe26 2.484939 1_556
Fe18 Fe2 2.526028 1_556
Fe18 Fe6 2.649829 1_556
Fe18 Fe31 2.752982 1_566
Fe18 Fe30 2.755306 1_455
Fe18 Sm2 3.034307 1_556
Fe18 Sm1 3.035866 1_555
Fe19 Fe27 2.515529 1_555
Fe19 Fe24 2.528671 1_555
Fe19 Fe3 2.537208 1_555
Fe19 Fe7 2.623337 1_555
Fe19 Ti0 2.791014 1_455
Fe19 Fe32 2.818680 1_565
Fe19 Sm3 3.015789 1_555
Fe19 Sm0 3.020951 1_555
Fe20 Fe28 2.484939 1_554
Fe20 Fe26 2.506375 1_645
Fe20 Fe4 2.528374 1_555
Fe20 Fe6 2.549978 1_545
Fe20 Fe8 2.631113 1_555
Fe20 Fe31 2.766983 1_655
Fe20 Fe30 2.771962 1_544
Fe20 Sm0 3.016656 1_545
Fe20 Sm2 3.038397 1_555
Fe21 Fe29 2.515529 1_555
Fe21 Fe5 2.527290 1_555
Fe21 Fe7 2.547524 1_545
Fe21 Fe27 2.550962 1_645
Fe21 Fe9 2.613236 1_555
Fe21 Fe3 2.624037 1_545
Fe21 Ti0 2.783276 1_545
Fe21 Fe32 2.794368 1_655
Fe21 Sm3 3.016333 1_555
Fe21 Sm1 3.018035 1_545
Fe22 Fe29 2.528671 1_555
Fe22 Fe8 2.542171 1_555
Fe22 Fe24 2.544556 1_645
Fe22 Fe4 2.619069 1_555
Fe22 Ti0 2.775334 1_545
Fe22 Fe32 2.820489 1_655
Fe22 Sm2 3.011643 1_655
Fe22 Sm0 3.021876 1_555
Fe23 Fe28 2.480613 1_555
Fe23 Fe25 2.508282 1_645
Fe23 Fe9 2.528121 1_555
Fe23 Fe5 2.628755 1_555
Fe23 Fe30 2.758328 1_545
Fe23 Fe31 2.759110 1_656
Fe23 Sm3 3.014152 1_655
Fe23 Sm1 3.038001 1_555
Fe24 Fe8 2.611730 1_565
Fe24 Ti0 2.775334 1_455
Fe24 Fe32 2.820489 1_565
Fe24 Sm2 3.011643 1_565
Fe24 Sm0 3.021876 1_555
Fe25 Fe3 2.628755 1_555
Fe25 Fe9 2.640827 1_565
Fe25 Fe30 2.758328 1_455
Fe25 Fe31 2.759110 1_566
Fe25 Sm3 3.014152 1_565
Fe25 Sm1 3.038001 1_555
Fe26 Fe6 2.549978 1_455
Fe26 Fe4 2.640196 1_455
Fe26 Fe31 2.766983 1_565
Fe26 Fe30 2.771962 1_454
Fe26 Sm0 3.016656 1_455
Fe26 Sm2 3.038397 1_555
Fe27 Fe3 2.527290 1_555
Fe27 Fe7 2.547524 1_455
Fe27 Fe5 2.624037 1_455
Fe27 Ti0 2.783276 1_455
Fe27 Fe32 2.794368 1_565
Fe27 Sm3 3.016333 1_555
Fe27 Sm1 3.018035 1_455
Fe28 Fe4 2.526028 1_556
Fe28 Fe9 2.527342 1_555
Fe28 Fe6 2.649829 1_556
Fe28 Fe31 2.752982 1_656
Fe28 Fe30 2.755306 1_545
Fe28 Sm2 3.034307 1_556
Fe28 Sm1 3.035866 1_555
Fe29 Fe5 2.537208 1_555
Fe29 Fe8 2.547874 1_555
Fe29 Fe7 2.623337 1_555
Fe29 Ti0 2.791014 1_545
Fe29 Fe32 2.818680 1_655
Fe29 Sm3 3.015789 1_555
Fe29 Sm0 3.020951 1_555
Fe30 Fe31 2.380811 1_666
Fe30 Fe6 2.640139 1_556
Fe30 Fe9 2.644169 1_565
Fe30 Sm1 3.052303 1_555
Fe31 Fe4 2.648984 1_455
Fe31 Sm2 3.059241 1_555
Fe32 Ti0 2.382556 1_445
Fe32 Fe5 2.631295 1_455
Fe32 Sm3 3.022789 1_555
