# generated using pymatgen
data_CeAsN(O2F)2
_symmetry_space_group_name_H-M   'P 1'
_cell_length_a   7.01593100
_cell_length_b   5.98129500
_cell_length_c   7.36101997
_cell_angle_alpha   90.00000000
_cell_angle_beta   112.59294721
_cell_angle_gamma   90.00000000
_symmetry_Int_Tables_number   1
_chemical_formula_structural   CeAsN(O2F)2
_chemical_formula_sum   'Ce2 As2 N2 O8 F4'
_cell_volume   285.19465289
_cell_formula_units_Z   2
loop_
 _symmetry_equiv_pos_site_id
 _symmetry_equiv_pos_as_xyz
  1  'x, y, z'
loop_
 _atom_site_type_symbol
 _atom_site_label
 _atom_site_symmetry_multiplicity
 _atom_site_fract_x
 _atom_site_fract_y
 _atom_site_fract_z
 _atom_site_occupancy
  Ce  Ce0  1  0.38745500  0.75000000  0.31949600  1
  Ce  Ce1  1  0.61254500  0.25000000  0.68050400  1
  As  As0  1  0.77483600  0.75000000  0.04446200  1
  As  As1  1  0.22516400  0.25000000  0.95553800  1
  N  N0  1  0.05105900  0.75000000  0.67762400  1
  N  N1  1  0.94894100  0.25000000  0.32237600  1
  O  O0  1  0.00232300  0.75000000  0.24761700  1
  O  O1  1  0.99767700  0.25000000  0.75238300  1
  O  O2  1  0.76077000  0.98070400  0.90058100  1
  O  O3  1  0.23923000  0.48070400  0.09941900  1
  O  O4  1  0.23923000  0.01929600  0.09941900  1
  O  O5  1  0.76077000  0.51929600  0.90058100  1
  O  O6  1  0.56450800  0.75000000  0.10673300  1
  O  O7  1  0.43549200  0.25000000  0.89326700  1
  F  F0  1  0.65393000  0.00396800  0.45638600  1
  F  F1  1  0.34607000  0.50396800  0.54361400  1
  F  F2  1  0.34607000  0.99603200  0.54361400  1
  F  F3  1  0.65393000  0.49603200  0.45638600  1
loop_
_geom_bond_atom_site_label_1
_geom_bond_atom_site_label_2
_geom_bond_distance
_geom_bond_site_symmetry_2
Ce0 O4 2.237379 1_565
Ce0 O3 2.237379 1_555
Ce0 F2 2.310750 1_555
Ce0 F1 2.310750 1_555
Ce0 F0 2.317475 1_565
Ce0 F3 2.317475 1_555
Ce0 O6 2.343223 1_555
Ce0 O0 2.546089 1_555
Ce1 O5 2.237379 1_555
Ce1 O2 2.237379 1_545
Ce1 F0 2.310750 1_555
Ce1 F3 2.310750 1_555
Ce1 F1 2.317475 1_555
Ce1 F2 2.317475 1_545
Ce1 O7 2.343223 1_555
Ce1 O1 2.546089 1_555
As0 O6 1.705101 1_555
As0 O0 1.717479 1_655
As0 O2 1.719097 1_554
As0 O5 1.719097 1_554
As1 O7 1.705101 1_555
As1 O1 1.717479 1_455
As1 O3 1.719097 1_556
As1 O4 1.719097 1_556
