# generated using pymatgen
data_BaSr(FeO3)2
_symmetry_space_group_name_H-M   'P 1'
_cell_length_a   3.98661704
_cell_length_b   3.98618504
_cell_length_c   15.84886700
_cell_angle_alpha   89.99999639
_cell_angle_beta   89.99999639
_cell_angle_gamma   90.01524955
_symmetry_Int_Tables_number   1
_chemical_formula_structural   BaSr(FeO3)2
_chemical_formula_sum   'Ba2 Sr2 Fe4 O12'
_cell_volume   251.86056784
_cell_formula_units_Z   2
loop_
 _symmetry_equiv_pos_site_id
 _symmetry_equiv_pos_as_xyz
  1  'x, y, z'
loop_
 _atom_site_type_symbol
 _atom_site_label
 _atom_site_symmetry_multiplicity
 _atom_site_fract_x
 _atom_site_fract_y
 _atom_site_fract_z
 _atom_site_occupancy
  Ba  Ba0  1  0.50000000  0.50000100  0.37476900  1
  Ba  Ba1  1  0.50000000  0.49999900  0.87521800  1
  Sr  Sr0  1  0.49999900  0.50000000  0.12484300  1
  Sr  Sr1  1  0.50000000  0.50000100  0.62516100  1
  Fe  Fe0  1  0.00000100  0.00000200  0.50161500  1
  Fe  Fe1  1  0.00000400  0.00000200  0.74837500  1
  Fe  Fe2  1  0.99999900  0.99999800  0.00169500  1
  Fe  Fe3  1  0.00000100  0.00000000  0.24832800  1
  O  O0  1  0.99999900  0.00000000  0.12509800  1
  O  O1  1  0.00000000  0.99999900  0.62490700  1
  O  O2  1  0.99999900  0.00000000  0.37501300  1
  O  O3  1  0.00000000  0.00000000  0.87498600  1
  O  O4  1  0.00000000  0.49999900  0.00545700  1
  O  O5  1  0.00000000  0.50000000  0.50544900  1
  O  O6  1  0.99999900  0.50000000  0.24458500  1
  O  O7  1  0.00000000  0.50000100  0.74450400  1
  O  O8  1  0.49999900  0.99999900  0.00544500  1
  O  O9  1  0.50000000  0.00000000  0.50546200  1
  O  O10  1  0.50000000  0.00000000  0.24459700  1
  O  O11  1  0.50000100  0.00000000  0.74449300  1
loop_
_geom_bond_atom_site_label_1
_geom_bond_atom_site_label_2
_geom_bond_distance
_geom_bond_site_symmetry_2
Ba0 O2 2.818433 1_565
Ba0 O2 2.818444 1_455
Ba0 O2 2.819189 1_555
Ba0 O2 2.819189 1_465
Ba0 O10 2.868570 1_565
Ba0 O10 2.868576 1_555
Ba0 O6 2.868857 1_555
Ba0 O6 2.868863 1_455
Ba0 O9 2.874515 1_565
Ba0 O5 2.874519 1_555
Ba0 O5 2.874519 1_655
Ba0 O9 2.874520 1_555
Ba1 O3 2.818436 1_555
Ba1 O3 2.818441 1_665
Ba1 O3 2.819186 1_655
Ba1 O3 2.819192 1_565
Ba1 O8 2.869200 1_546
Ba1 O8 2.869200 1_556
Ba1 O4 2.869487 1_556
Ba1 O4 2.869487 1_656
Ba1 O11 2.874880 1_555
Ba1 O11 2.874886 1_565
Ba1 O7 2.874907 1_655
Ba1 O7 2.874907 1_555
Fe0 O1 1.954039 1_545
Fe0 O5 1.994011 1_555
Fe0 O5 1.994027 1_545
Fe0 O9 1.994237 1_555
Fe0 O9 1.994245 1_455
Fe0 O2 2.006498 1_455
Fe1 O1 1.956828 1_545
Fe1 O7 1.994033 1_555
Fe1 O7 1.994041 1_545
Fe1 O11 1.994246 1_555
Fe1 O11 1.994270 1_455
Fe1 O3 2.006641 1_555
Fe2 O0 1.955798 1_565
Fe2 O4 1.993980 1_655
Fe2 O4 1.993988 1_665
Fe2 O8 1.994194 1_555
Fe2 O8 1.994194 1_655
Fe2 O3 2.008194 1_664
Fe3 O0 1.953056 1_455
Fe3 O6 1.993975 1_455
Fe3 O6 1.993975 1_445
Fe3 O10 1.994181 1_555
Fe3 O10 1.994189 1_455
Fe3 O2 2.007814 1_455
O0 Sr0 2.818439 1_655
O0 Sr0 2.818439 1_545
O0 Sr0 2.819189 1_645
O0 Sr0 2.819189 1_555
O1 Sr1 2.818433 1_455
O1 Sr1 2.818445 1_565
O1 Sr1 2.819184 1_555
O1 Sr1 2.819195 1_465
O4 Sr0 2.748350 1_555
O4 Sr0 2.748356 1_455
O5 Sr1 2.751913 1_455
O5 Sr1 2.751913 1_555
O6 Sr0 2.752241 1_655
O6 Sr0 2.752241 1_555
O7 Sr1 2.747884 1_555
O7 Sr1 2.747884 1_455
O8 Sr0 2.748325 1_555
O8 Sr0 2.748331 1_565
O9 Sr1 2.751611 1_545
O9 Sr1 2.751617 1_555
O10 Sr0 2.752215 1_555
O10 Sr0 2.752216 1_545
O11 Sr1 2.747605 1_545
O11 Sr1 2.747610 1_555
