# generated using pymatgen
data_CoH8S2(NO2)4
_symmetry_space_group_name_H-M   'P 1'
_cell_length_a   5.25852798
_cell_length_b   5.95685013
_cell_length_c   7.43741033
_cell_angle_alpha   86.73344212
_cell_angle_beta   107.77507928
_cell_angle_gamma   99.30544500
_symmetry_Int_Tables_number   1
_chemical_formula_structural   CoH8S2(NO2)4
_chemical_formula_sum   'Co1 H8 S2 N4 O8'
_cell_volume   218.92321131
_cell_formula_units_Z   1
loop_
 _symmetry_equiv_pos_site_id
 _symmetry_equiv_pos_as_xyz
  1  'x, y, z'
loop_
 _atom_site_type_symbol
 _atom_site_label
 _atom_site_symmetry_multiplicity
 _atom_site_fract_x
 _atom_site_fract_y
 _atom_site_fract_z
 _atom_site_occupancy
  Co  Co0  1  0.49761400  0.00151800  0.99646000  1
  H  H0  1  0.38178100  0.70558800  0.25827100  1
  H  H1  1  0.63838400  0.28687100  0.75065800  1
  H  H2  1  0.64363900  0.91274500  0.37676700  1
  H  H3  1  0.37156000  0.09515900  0.61815000  1
  H  H4  1  0.67140000  0.50792300  0.20110200  1
  H  H5  1  0.36144100  0.51435600  0.78080700  1
  H  H6  1  0.07627300  0.31279500  0.65360400  1
  H  H7  1  0.94464700  0.73139400  0.30449400  1
  S  S0  1  0.85704100  0.77848900  0.77690400  1
  S  S1  1  0.14447800  0.22754800  0.21373700  1
  N  N0  1  0.74580400  0.65852000  0.27247800  1
  N  N1  1  0.27872000  0.36112300  0.71331200  1
  N  N2  1  0.57020600  0.79900900  0.26511000  1
  N  N3  1  0.44108900  0.20666300  0.73105900  1
  O  O0  1  0.12765300  0.80836000  0.92434500  1
  O  O1  1  0.86980200  0.19771100  0.07087000  1
  O  O2  1  0.64136000  0.75997300  0.87807900  1
  O  O3  1  0.35518700  0.24360400  0.11024300  1
  O  O4  1  0.81831400  0.56257700  0.67866200  1
  O  O5  1  0.18761500  0.44413500  0.31237900  1
  O  O6  1  0.83013900  0.97519200  0.64449000  1
  O  O7  1  0.17185300  0.03174500  0.34802000  1
loop_
_geom_bond_atom_site_label_1
_geom_bond_atom_site_label_2
_geom_bond_distance
_geom_bond_site_symmetry_2
Co0 O0 2.026251 1_545
Co0 O1 2.043349 1_556
Co0 O3 2.057177 1_556
Co0 O2 2.078290 1_545
Co0 N3 2.227620 1_555
Co0 N2 2.236450 1_546
H0 N2 1.043154 1_555
H1 N3 1.039804 1_555
H2 N2 1.039942 1_555
H3 N3 1.038078 1_555
H4 N0 1.026448 1_555
H5 N1 1.031929 1_555
H6 N1 1.019906 1_555
H7 N0 1.025397 1_555
O0 S0 1.498910 1_455
O1 S1 1.499443 1_655
O2 S0 1.528360 1_555
O3 S1 1.519014 1_555
O4 S0 1.470062 1_555
O5 S1 1.471684 1_555
O6 S0 1.483195 1_555
O7 S1 1.487395 1_555
