# generated using pymatgen
data_Li4MnCo2O7
_symmetry_space_group_name_H-M   'P 1'
_cell_length_a   2.98448000
_cell_length_b   7.79589229
_cell_length_c   11.20846298
_cell_angle_alpha   79.81310548
_cell_angle_beta   82.90513882
_cell_angle_gamma   81.62198645
_symmetry_Int_Tables_number   1
_chemical_formula_structural   Li4MnCo2O7
_chemical_formula_sum   'Li8 Mn2 Co4 O14'
_cell_volume   252.65109100
_cell_formula_units_Z   2
loop_
 _symmetry_equiv_pos_site_id
 _symmetry_equiv_pos_as_xyz
  1  'x, y, z'
loop_
 _atom_site_type_symbol
 _atom_site_label
 _atom_site_symmetry_multiplicity
 _atom_site_fract_x
 _atom_site_fract_y
 _atom_site_fract_z
 _atom_site_occupancy
  Li  Li0  1  0.79065900  0.35388700  0.07525700  1
  Li  Li1  1  0.93915000  0.77347500  0.35766000  1
  Li  Li2  1  0.07005000  0.21498100  0.64161900  1
  Li  Li3  1  0.21383700  0.64556100  0.92654700  1
  Li  Li4  1  0.33539300  0.07626900  0.22324500  1
  Li  Li5  1  0.50645700  0.49951400  0.49040200  1
  Li  Li6  1  0.64689300  0.92771800  0.78278900  1
  Li  Li7  1  0.12418000  0.43446200  0.29198300  1
  Mn  Mn0  1  0.01023000  0.00156000  0.99808600  1
  Mn  Mn1  1  0.58185400  0.70356200  0.14806200  1
  Co  Co0  1  0.28760800  0.85831900  0.56873900  1
  Co  Co1  1  0.41866400  0.28885400  0.85677400  1
  Co  Co2  1  0.70904400  0.15363800  0.42451500  1
  Co  Co3  1  0.85327700  0.57106000  0.71235800  1
  O  O0  1  0.36585500  0.17965200  0.02878300  1
  O  O1  1  0.53133900  0.61700900  0.31012000  1
  O  O2  1  0.69381100  0.03543600  0.59222100  1
  O  O3  1  0.78316400  0.46114600  0.88415700  1
  O  O4  1  0.00365900  0.87357900  0.16832300  1
  O  O5  1  0.08467100  0.30509300  0.46290000  1
  O  O6  1  0.25599000  0.75196800  0.73925000  1
  O  O7  1  0.15510200  0.55613000  0.11245300  1
  O  O8  1  0.35160500  0.96893600  0.40267700  1
  O  O9  1  0.44453500  0.39705600  0.69008200  1
  O  O10  1  0.64577600  0.82432500  0.97195300  1
  O  O11  1  0.75125100  0.23143100  0.26749000  1
  O  O12  1  0.88725300  0.67938600  0.54348800  1
  O  O13  1  0.05869400  0.11599300  0.82806700  1
loop_
_geom_bond_atom_site_label_1
_geom_bond_atom_site_label_2
_geom_bond_distance
_geom_bond_site_symmetry_2
Li0 O0 2.100756 1_655
Li0 O0 2.153828 1_555
Li0 O3 2.158808 1_554
Li0 O7 2.164942 1_655
Li0 O11 2.193216 1_555
Li0 O7 2.328784 1_555
Li1 O1 2.018886 1_555
Li1 O1 2.065064 1_655
Li1 O12 2.076844 1_555
Li1 O4 2.122915 1_655
Li1 O8 2.219486 1_555
Li1 O8 2.250289 1_655
Li2 O5 1.999415 1_555
Li2 O13 2.093705 1_555
Li2 O2 2.100553 1_455
Li2 O9 2.108075 1_555
Li2 O2 2.234169 1_555
Li2 O9 2.246105 1_455
Li3 O7 2.071284 1_556
Li3 O10 2.103497 1_455
Li3 O6 2.111931 1_555
Li3 O3 2.123699 1_555
Li3 O10 2.190772 1_555
Li3 O3 2.208103 1_455
Li4 O11 2.012766 1_555
Li4 O11 2.032863 1_455
Li4 O8 2.040647 1_545
Li4 O0 2.181653 1_555
Li4 O4 2.192383 1_545
Li4 O4 2.444582 1_645
Li5 O1 2.062947 1_555
Li5 O12 2.130384 1_555
Li5 O5 2.154511 1_655
Li5 O5 2.189530 1_555
Li5 O9 2.233781 1_555
Li5 O12 2.236929 1_455
Li6 O6 2.078316 1_555
Li6 O10 2.130646 1_555
Li6 O2 2.147814 1_565
Li6 O6 2.170600 1_655
Li6 O13 2.187724 1_565
Li6 O13 2.205811 1_665
Li7 O5 1.999119 1_555
Li7 O1 2.051946 1_555
Li7 O7 2.064430 1_555
Li7 O1 2.115850 1_455
Li7 O11 2.135873 1_455
Li7 O11 2.290561 1_555
Mn0 O13 1.953576 1_555
Mn0 O10 1.959035 1_445
Mn0 O0 1.964958 1_556
Mn0 O4 1.989908 1_546
Mn0 O10 2.198831 1_545
Mn0 O0 2.229766 1_456
Mn1 O1 1.818207 1_555
Mn1 O7 1.953687 1_555
Mn1 O7 1.956503 1_655
Mn1 O4 2.014054 1_655
Mn1 O10 2.030035 1_554
Mn1 O4 2.032055 1_555
Co0 O8 1.907092 1_555
Co0 O6 1.940781 1_555
Co0 O2 2.034868 1_565
Co0 O12 2.040227 1_455
Co0 O2 2.101595 1_465
Co0 O12 2.125039 1_555
Co1 O9 1.906346 1_555
Co1 O13 1.932459 1_555
Co1 O3 1.932821 1_555
Co1 O0 1.962164 1_556
Co1 O3 2.180642 1_455
Co1 O13 2.195381 1_655
Co2 O11 1.752496 1_555
Co2 O5 1.876307 1_655
Co2 O2 1.939842 1_555
Co2 O8 1.976881 1_545
Co2 O5 2.095728 1_555
Co2 O8 2.239403 1_645
Co3 O12 1.928261 1_555
Co3 O3 1.963427 1_555
Co3 O9 2.016891 1_555
Co3 O6 2.063555 1_655
Co3 O9 2.080795 1_655
Co3 O6 2.131330 1_555
