# generated using pymatgen
data_U4Cr7Si
_symmetry_space_group_name_H-M   'P 1'
_cell_length_a   5.04665128
_cell_length_b   5.04665128
_cell_length_c   8.22061600
_cell_angle_alpha   90.00000000
_cell_angle_beta   90.00000000
_cell_angle_gamma   119.99999051
_symmetry_Int_Tables_number   1
_chemical_formula_structural   U4Cr7Si
_chemical_formula_sum   'U4 Cr7 Si1'
_cell_volume   181.31829525
_cell_formula_units_Z   1
loop_
 _symmetry_equiv_pos_site_id
 _symmetry_equiv_pos_as_xyz
  1  'x, y, z'
loop_
 _atom_site_type_symbol
 _atom_site_label
 _atom_site_symmetry_multiplicity
 _atom_site_fract_x
 _atom_site_fract_y
 _atom_site_fract_z
 _atom_site_occupancy
  U  U0  1  0.33333300  0.66666700  0.42997100  1
  U  U1  1  0.66666700  0.33333300  0.57002900  1
  U  U2  1  0.66666700  0.33333300  0.93300000  1
  U  U3  1  0.33333300  0.66666700  0.06700000  1
  Cr  Cr0  1  0.83078700  0.16921300  0.24762200  1
  Cr  Cr1  1  0.83078700  0.66157400  0.24762200  1
  Cr  Cr2  1  0.33842600  0.16921300  0.24762200  1
  Cr  Cr3  1  0.16921300  0.83078700  0.75237800  1
  Cr  Cr4  1  0.16921300  0.33842600  0.75237800  1
  Cr  Cr5  1  0.66157400  0.83078700  0.75237800  1
  Cr  Cr6  1  0.00000000  0.00000000  0.50000000  1
  Si  Si0  1  0.00000000  0.00000000  0.00000000  1
loop_
_geom_bond_atom_site_label_1
_geom_bond_atom_site_label_2
_geom_bond_distance
_geom_bond_site_symmetry_2
U0 U3 2.983845 1_555
U0 U1 3.132919 1_455
U0 U1 3.132919 1_565
U0 U1 3.132927 1_555
U1 U2 2.983845 1_555
U2 U3 3.114962 1_546
U2 U3 3.114962 1_656
U2 U3 3.114970 1_556
Cr0 Cr2 2.484774 1_555
Cr0 Cr1 2.484774 1_555
Cr0 Si0 2.516233 1_655
Cr0 Cr6 2.547966 1_655
Cr0 Cr1 2.561877 1_545
Cr0 Cr2 2.561877 1_655
Cr0 U3 2.927861 1_545
Cr0 U3 2.927861 1_655
Cr0 U0 2.935087 1_545
Cr0 U0 2.935087 1_655
Cr0 U2 2.957604 1_554
Cr0 U1 3.013729 1_555
Cr1 Cr2 2.484775 1_555
Cr1 Si0 2.516233 1_665
Cr1 Cr6 2.547966 1_665
Cr1 Cr2 2.561877 1_665
Cr1 U3 2.927859 1_655
Cr1 U3 2.927863 1_555
Cr1 U0 2.935084 1_655
Cr1 U0 2.935089 1_555
Cr1 U2 2.957606 1_554
Cr1 U1 3.013731 1_555
Cr2 Si0 2.516233 1_555
Cr2 Cr6 2.547966 1_555
Cr2 U3 2.927859 1_545
Cr2 U3 2.927863 1_555
Cr2 U0 2.935084 1_545
Cr2 U0 2.935089 1_555
Cr2 U2 2.957606 1_554
Cr2 U1 3.013731 1_555
Cr3 Cr4 2.484774 1_555
Cr3 Cr5 2.484774 1_555
Cr3 Si0 2.516233 1_566
Cr3 Cr6 2.547966 1_565
Cr3 Cr5 2.561877 1_455
Cr3 Cr4 2.561877 1_565
Cr3 U2 2.927861 1_455
Cr3 U2 2.927861 1_565
Cr3 U1 2.935087 1_455
Cr3 U1 2.935087 1_565
Cr3 U3 2.957604 1_556
Cr3 U0 3.013729 1_555
Cr4 Cr5 2.484775 1_555
Cr4 Si0 2.516233 1_556
Cr4 Cr6 2.547966 1_555
Cr4 Cr5 2.561877 1_445
Cr4 U2 2.927859 1_455
Cr4 U2 2.927863 1_555
Cr4 U1 2.935084 1_455
Cr4 U1 2.935089 1_555
Cr4 U3 2.957606 1_556
Cr4 U0 3.013731 1_555
Cr5 Si0 2.516233 1_666
Cr5 Cr6 2.547966 1_665
Cr5 U2 2.927859 1_565
Cr5 U2 2.927863 1_555
Cr5 U1 2.935084 1_565
Cr5 U1 2.935089 1_555
Cr5 U3 2.957606 1_556
Cr5 U0 3.013731 1_555
Cr6 U0 2.970009 1_545
Cr6 U1 2.970009 1_455
Cr6 U0 2.970014 1_445
Cr6 U1 2.970014 1_445
Cr6 U0 2.970014 1_555
Cr6 U1 2.970014 1_555
Si0 U3 2.965283 1_545
Si0 U2 2.965283 1_454
Si0 U2 2.965288 1_444
Si0 U2 2.965288 1_554
Si0 U3 2.965288 1_555
Si0 U3 2.965288 1_445
