# generated using pymatgen
data_Ho2InAu2
_symmetry_space_group_name_H-M   'P 1'
_cell_length_a   7.86674915
_cell_length_b   7.86674915
_cell_length_c   3.70603586
_cell_angle_alpha   90.00000000
_cell_angle_beta   90.00000000
_cell_angle_gamma   90.00000000
_symmetry_Int_Tables_number   1
_chemical_formula_structural   Ho2InAu2
_chemical_formula_sum   'Ho4 In2 Au4'
_cell_volume   229.35077978
_cell_formula_units_Z   2
loop_
 _symmetry_equiv_pos_site_id
 _symmetry_equiv_pos_as_xyz
  1  'x, y, z'
loop_
 _atom_site_type_symbol
 _atom_site_label
 _atom_site_symmetry_multiplicity
 _atom_site_fract_x
 _atom_site_fract_y
 _atom_site_fract_z
 _atom_site_occupancy
  Ho  Ho0  1  0.66994491  0.16994491  0.50000000  1
  Ho  Ho1  1  0.33005509  0.83005509  0.50000000  1
  Ho  Ho2  1  0.16994491  0.33005509  0.50000000  1
  Ho  Ho3  1  0.83005509  0.66994491  0.50000000  1
  In  In0  1  0.50000000  0.50000000  -0.00000000  1
  In  In1  1  -0.00000000  0.00000000  -0.00000000  1
  Au  Au0  1  0.12861713  0.62861713  0.00000000  1
  Au  Au1  1  0.87138287  0.37138287  -0.00000000  1
  Au  Au2  1  0.62861713  0.87138287  -0.00000000  1
  Au  Au3  1  0.37138287  0.12861713  0.00000000  1
loop_
_geom_bond_atom_site_label_1
_geom_bond_atom_site_label_2
_geom_bond_distance
_geom_bond_site_symmetry_2
Ho0 In1 3.458702 1_655
Ho0 In1 3.458702 1_656
Ho0 In0 3.458702 1_555
Ho0 In0 3.458702 1_556
Ho1 In1 3.458702 1_566
Ho1 In1 3.458702 1_565
Ho1 In0 3.458702 1_555
Ho1 In0 3.458702 1_556
Ho2 In1 3.458702 1_556
Ho2 In1 3.458702 1_555
Ho2 In0 3.458702 1_555
Ho2 In0 3.458702 1_556
Ho3 In0 3.458702 1_555
Ho3 In1 3.458702 1_666
Ho3 In1 3.458702 1_665
Ho3 In0 3.458702 1_556
Au0 Au1 2.861799 1_455
Au0 Ho1 2.907917 1_555
Au0 Ho1 2.907917 1_554
Au0 Ho3 3.009290 1_455
Au0 Ho2 3.009290 1_555
Au0 Ho3 3.009290 1_454
Au0 Ho2 3.009290 1_554
Au0 In0 3.091819 1_555
Au0 In1 3.091819 1_565
Au1 Ho0 2.907917 1_555
Au1 Ho0 2.907917 1_554
Au1 Ho2 3.009290 1_655
Au1 Ho2 3.009290 1_654
Au1 Ho3 3.009290 1_555
Au1 Ho3 3.009290 1_554
Au1 In1 3.091819 1_655
Au1 In0 3.091819 1_555
Au2 Au3 2.861799 1_565
Au2 Ho3 2.907917 1_555
Au2 Ho3 2.907917 1_554
Au2 Ho0 3.009290 1_564
Au2 Ho0 3.009290 1_565
Au2 Ho1 3.009290 1_555
Au2 Ho1 3.009290 1_554
Au2 In1 3.091819 1_665
Au2 In0 3.091819 1_555
Au3 Ho2 2.907917 1_554
Au3 Ho2 2.907917 1_555
Au3 Ho0 3.009290 1_555
Au3 Ho0 3.009290 1_554
Au3 Ho1 3.009290 1_545
Au3 Ho1 3.009290 1_544
Au3 In0 3.091819 1_555
Au3 In1 3.091819 1_555
