# generated using pymatgen
data_Ba2UTiTe7
_symmetry_space_group_name_H-M   'P 1'
_cell_length_a   6.18216000
_cell_length_b   12.70974500
_cell_length_c   18.99342000
_cell_angle_alpha   90.00000000
_cell_angle_beta   90.00000000
_cell_angle_gamma   90.00000000
_symmetry_Int_Tables_number   1
_chemical_formula_structural   Ba2UTiTe7
_chemical_formula_sum   'Ba8 U4 Ti4 Te28'
_cell_volume   1492.38285104
_cell_formula_units_Z   4
loop_
 _symmetry_equiv_pos_site_id
 _symmetry_equiv_pos_as_xyz
  1  'x, y, z'
loop_
 _atom_site_type_symbol
 _atom_site_label
 _atom_site_symmetry_multiplicity
 _atom_site_fract_x
 _atom_site_fract_y
 _atom_site_fract_z
 _atom_site_occupancy
  Ba  Ba0  1  0.25000000  0.32356200  0.94191500  1
  Ba  Ba1  1  0.25000000  0.82356200  0.55808500  1
  Ba  Ba2  1  0.75000000  0.67643800  0.05808500  1
  Ba  Ba3  1  0.75000000  0.17643800  0.44191500  1
  Ba  Ba4  1  0.25000000  0.44523800  0.27676600  1
  Ba  Ba5  1  0.25000000  0.94523800  0.22323400  1
  Ba  Ba6  1  0.75000000  0.55476200  0.72323400  1
  Ba  Ba7  1  0.75000000  0.05476200  0.77676600  1
  U  U0  1  0.25000000  0.29283700  0.62329800  1
  U  U1  1  0.25000000  0.79283700  0.87670200  1
  U  U2  1  0.75000000  0.70716300  0.37670200  1
  U  U3  1  0.75000000  0.20716300  0.12329800  1
  Ti  Ti0  1  0.00000000  0.00000000  0.00000000  1
  Ti  Ti1  1  0.50000000  0.50000000  0.50000000  1
  Ti  Ti2  1  0.50000000  0.00000000  0.00000000  1
  Ti  Ti3  1  0.00000000  0.50000000  0.50000000  1
  Te  Te0  1  0.00174700  0.08063100  0.60181200  1
  Te  Te1  1  0.49825300  0.58063100  0.89818800  1
  Te  Te2  1  0.50174700  0.91936900  0.39818800  1
  Te  Te3  1  0.99825300  0.41936900  0.10181200  1
  Te  Te4  1  0.99825300  0.91936900  0.39818800  1
  Te  Te5  1  0.50174700  0.41936900  0.10181200  1
  Te  Te6  1  0.49825300  0.08063100  0.60181200  1
  Te  Te7  1  0.00174700  0.58063100  0.89818800  1
  Te  Te8  1  0.00223400  0.30792200  0.76698600  1
  Te  Te9  1  0.49776600  0.80792200  0.73301400  1
  Te  Te10  1  0.50223400  0.69207800  0.23301400  1
  Te  Te11  1  0.99776600  0.19207800  0.26698600  1
  Te  Te12  1  0.99776600  0.69207800  0.23301400  1
  Te  Te13  1  0.50223400  0.19207800  0.26698600  1
  Te  Te14  1  0.49776600  0.30792200  0.76698600  1
  Te  Te15  1  0.00223400  0.80792200  0.73301400  1
  Te  Te16  1  0.25000000  0.03909100  0.87707100  1
  Te  Te17  1  0.25000000  0.53909100  0.62292900  1
  Te  Te18  1  0.75000000  0.96090900  0.12292900  1
  Te  Te19  1  0.75000000  0.46090900  0.37707100  1
  Te  Te20  1  0.25000000  0.32166900  0.45979200  1
  Te  Te21  1  0.25000000  0.82166900  0.04020800  1
  Te  Te22  1  0.75000000  0.67833100  0.54020800  1
  Te  Te23  1  0.75000000  0.17833100  0.95979200  1
  Te  Te24  1  0.25000000  0.63986000  0.41558000  1
  Te  Te25  1  0.25000000  0.13986000  0.08442000  1
  Te  Te26  1  0.75000000  0.36014000  0.58442000  1
  Te  Te27  1  0.75000000  0.86014000  0.91558000  1
loop_
_geom_bond_atom_site_label_1
_geom_bond_atom_site_label_2
_geom_bond_distance
_geom_bond_site_symmetry_2
Ba0 Te25 3.574536 1_556
Ba0 Te23 3.616245 1_555
Ba0 Te23 3.616245 1_455
Ba0 Te5 3.623294 1_556
Ba0 Te3 3.623294 1_456
Ba0 Te14 3.663975 1_555
Ba0 Te8 3.663975 1_555
Ba0 Te1 3.704096 1_555
Ba0 Te7 3.704096 1_555
Ba0 Te16 3.819567 1_555
Ba1 Te24 3.574536 1_555
Ba1 Te22 3.616245 1_455
Ba1 Te22 3.616245 1_555
Ba1 Te2 3.623294 1_555
Ba1 Te4 3.623294 1_455
Ba1 Te9 3.663975 1_555
Ba1 Te15 3.663975 1_555
Ba1 Te6 3.704096 1_565
Ba1 Te0 3.704096 1_565
Ba1 Te17 3.819567 1_555
Ba2 Te27 3.574536 1_554
Ba2 Te21 3.616245 1_655
Ba2 Te21 3.616245 1_555
Ba2 Te7 3.623294 1_654
Ba2 Te1 3.623294 1_554
Ba2 Te12 3.663975 1_555
Ba2 Te10 3.663975 1_555
Ba2 Te3 3.704096 1_555
Ba2 Te5 3.704096 1_555
Ba2 Te18 3.819567 1_555
Ba3 Te26 3.574536 1_555
Ba3 Te20 3.616245 1_555
Ba3 Te20 3.616245 1_655
Ba3 Te0 3.623294 1_655
Ba3 Te6 3.623294 1_555
Ba3 Te11 3.663975 1_555
Ba3 Te13 3.663975 1_555
Ba3 Te4 3.704096 1_545
Ba3 Te2 3.704096 1_545
Ba3 Te19 3.819567 1_555
Ba4 Te13 3.580366 1_555
Ba4 Te11 3.580366 1_455
Ba4 Te10 3.600642 1_555
Ba4 Te12 3.600642 1_455
Ba4 Te24 3.615257 1_555
Ba4 Te19 3.636480 1_455
Ba4 Te19 3.636480 1_555
Ba4 Te5 3.684082 1_555
Ba4 Te3 3.684082 1_455
Ba4 Te20 3.814598 1_555
Ba5 Te10 3.580366 1_555
Ba5 Te12 3.580366 1_455
Ba5 Te13 3.600642 1_565
Ba5 Te11 3.600642 1_465
Ba5 Te25 3.615257 1_565
Ba5 Te18 3.636480 1_555
Ba5 Te18 3.636480 1_455
Ba5 Te2 3.684082 1_555
Ba5 Te4 3.684082 1_455
Ba5 Te21 3.814598 1_555
Ba6 Te9 3.580366 1_555
Ba6 Te15 3.580366 1_655
Ba6 Te8 3.600642 1_655
Ba6 Te14 3.600642 1_555
Ba6 Te26 3.615257 1_555
Ba6 Te17 3.636480 1_555
Ba6 Te17 3.636480 1_655
Ba6 Te7 3.684082 1_655
Ba6 Te1 3.684082 1_555
Ba6 Te22 3.814598 1_555
Ba7 Te8 3.580366 1_655
Ba7 Te14 3.580366 1_555
Ba7 Te15 3.600642 1_645
Ba7 Te9 3.600642 1_545
Ba7 Te27 3.615257 1_545
Ba7 Te16 3.636480 1_555
Ba7 Te16 3.636480 1_655
Ba7 Te0 3.684082 1_655
Ba7 Te6 3.684082 1_555
Ba7 Te23 3.814598 1_555
Te0 Te6 3.069480 1_555
Te0 Te6 3.112680 1_455
Te0 U0 3.129893 1_555
Te1 Te7 3.069480 1_555
Te1 Te7 3.112680 1_655
Te1 U1 3.129893 1_555
Te2 Te4 3.069480 1_555
Te2 Te4 3.112680 1_455
Te2 U2 3.129893 1_555
Te3 Te5 3.069480 1_555
Te3 Te5 3.112680 1_655
Te3 U3 3.129893 1_555
Te4 U2 3.129893 1_555
Te5 U3 3.129893 1_555
Te6 U0 3.129893 1_555
Te7 U1 3.129893 1_555
Te8 U0 3.135456 1_555
Te9 U1 3.135456 1_555
Te10 Te12 3.063458 1_555
Te10 Te12 3.118702 1_455
Te10 U2 3.135456 1_555
Te11 Te13 3.063458 1_555
Te11 Te13 3.118702 1_655
Te11 U3 3.135456 1_555
Te12 U2 3.135456 1_555
Te13 U3 3.135456 1_555
Te14 Te8 3.063458 1_555
Te14 Te8 3.118702 1_655
Te14 U0 3.135456 1_555
Te15 Te9 3.063458 1_555
Te15 Te9 3.118702 1_455
Te15 U1 3.135456 1_555
Te16 Ti0 2.843770 1_556
Te16 Ti2 2.843770 1_556
Te16 U1 3.129833 1_545
Te17 Ti3 2.843770 1_555
Te17 Ti1 2.843770 1_555
Te17 U0 3.129833 1_555
Te18 Ti0 2.843770 1_665
Te18 Ti2 2.843770 1_565
Te18 U3 3.129833 1_565
Te19 Ti1 2.843770 1_555
Te19 Ti3 2.843770 1_655
Te19 U2 3.129833 1_555
Te20 Ti3 2.847652 1_555
Te20 Ti1 2.847652 1_555
Te20 U0 3.127083 1_555
Te21 Ti0 2.847652 1_565
Te21 Ti2 2.847652 1_565
Te21 U1 3.127083 1_554
Te22 Ti1 2.847652 1_555
Te22 Ti3 2.847652 1_655
Te22 U2 3.127083 1_555
Te23 Ti0 2.847652 1_656
Te23 Ti2 2.847652 1_556
Te23 U3 3.127083 1_556
Te24 Ti3 2.849469 1_555
Te24 Ti1 2.849469 1_555
Te24 U2 3.291165 1_455
Te24 U2 3.291165 1_555
Te25 Ti0 2.849469 1_555
Te25 Ti2 2.849469 1_555
Te25 U3 3.291165 1_455
Te25 U3 3.291165 1_555
Te26 Ti1 2.849469 1_555
Te26 Ti3 2.849469 1_655
Te26 U0 3.291165 1_555
Te26 U0 3.291165 1_655
Te27 Ti2 2.849469 1_566
Te27 Ti0 2.849469 1_666
Te27 U1 3.291165 1_655
Te27 U1 3.291165 1_555
