# generated using pymatgen
data_PuTe
_symmetry_space_group_name_H-M   'P 1'
_cell_length_a   4.45294106
_cell_length_b   4.45294168
_cell_length_c   4.45294112
_cell_angle_alpha   60.00000417
_cell_angle_beta   59.99999954
_cell_angle_gamma   60.00000899
_symmetry_Int_Tables_number   1
_chemical_formula_structural   PuTe
_chemical_formula_sum   'Pu1 Te1'
_cell_volume   62.43468866
_cell_formula_units_Z   1
loop_
 _symmetry_equiv_pos_site_id
 _symmetry_equiv_pos_as_xyz
  1  'x, y, z'
loop_
 _atom_site_type_symbol
 _atom_site_label
 _atom_site_symmetry_multiplicity
 _atom_site_fract_x
 _atom_site_fract_y
 _atom_site_fract_z
 _atom_site_occupancy
  Pu  Pu0  1  0.00000000  -0.00000000  0.00000000  1
  Te  Te0  1  0.50000000  0.50000000  0.50000000  1
loop_
_geom_bond_atom_site_label_1
_geom_bond_atom_site_label_2
_geom_bond_distance
_geom_bond_site_symmetry_2
Pu0 Te0 3.148705 1_445
Pu0 Te0 3.148705 1_554
Pu0 Te0 3.148705 1_544
Pu0 Te0 3.148705 1_455
Pu0 Te0 3.148705 1_454
Pu0 Te0 3.148705 1_545
