# generated using pymatgen
data_Ba3Sr9Al4(O4F)4
_symmetry_space_group_name_H-M   'P 1'
_cell_length_a   6.95229900
_cell_length_b   6.95229900
_cell_length_c   11.29053200
_cell_angle_alpha   90.00000000
_cell_angle_beta   90.00000000
_cell_angle_gamma   90.00000000
_symmetry_Int_Tables_number   1
_chemical_formula_structural   Ba3Sr9Al4(O4F)4
_chemical_formula_sum   'Ba3 Sr9 Al4 O16 F4'
_cell_volume   545.72178297
_cell_formula_units_Z   1
loop_
 _symmetry_equiv_pos_site_id
 _symmetry_equiv_pos_as_xyz
  1  'x, y, z'
loop_
 _atom_site_type_symbol
 _atom_site_label
 _atom_site_symmetry_multiplicity
 _atom_site_fract_x
 _atom_site_fract_y
 _atom_site_fract_z
 _atom_site_occupancy
  Ba  Ba0  1  0.00000000  0.00000000  0.50000000  1
  Ba  Ba1  1  0.00000000  0.00000000  0.00000000  1
  Ba  Ba2  1  0.50000000  0.50000000  0.50000000  1
  Sr  Sr0  1  0.66900700  0.17015700  0.75053200  1
  Sr  Sr1  1  0.17015700  0.66900700  0.24946800  1
  Sr  Sr2  1  0.82984300  0.33099300  0.24946800  1
  Sr  Sr3  1  0.33099300  0.82984300  0.75053200  1
  Sr  Sr4  1  0.33099300  0.17015700  0.24946800  1
  Sr  Sr5  1  0.82984300  0.66900700  0.75053200  1
  Sr  Sr6  1  0.66900700  0.82984300  0.24946800  1
  Sr  Sr7  1  0.17015700  0.33099300  0.75053200  1
  Sr  Sr8  1  0.50000000  0.50000000  0.00000000  1
  Al  Al0  1  0.00000000  0.50000000  0.00000000  1
  Al  Al1  1  0.50000000  0.00000000  0.50000000  1
  Al  Al2  1  0.50000000  0.00000000  0.00000000  1
  Al  Al3  1  0.00000000  0.50000000  0.50000000  1
  O  O0  1  0.63650100  0.14134600  0.10287000  1
  O  O1  1  0.13827800  0.63795100  0.60373500  1
  O  O2  1  0.36349900  0.85865400  0.10287000  1
  O  O3  1  0.86172200  0.36204900  0.60373500  1
  O  O4  1  0.85865400  0.63650100  0.10287000  1
  O  O5  1  0.36204900  0.13827800  0.60373500  1
  O  O6  1  0.14134600  0.36349900  0.10287000  1
  O  O7  1  0.63795100  0.86172200  0.60373500  1
  O  O8  1  0.85865400  0.36349900  0.89713000  1
  O  O9  1  0.36204900  0.86172200  0.39626500  1
  O  O10  1  0.14134600  0.63650100  0.89713000  1
  O  O11  1  0.63795100  0.13827800  0.39626500  1
  O  O12  1  0.63650100  0.85865400  0.89713000  1
  O  O13  1  0.13827800  0.36204900  0.39626500  1
  O  O14  1  0.36349900  0.14134600  0.89713000  1
  O  O15  1  0.86172200  0.63795100  0.39626500  1
  F  F0  1  0.00000000  0.00000000  0.75029500  1
  F  F1  1  0.50000000  0.50000000  0.24672300  1
  F  F2  1  0.00000000  0.00000000  0.24970500  1
  F  F3  1  0.50000000  0.50000000  0.75327700  1
loop_
_geom_bond_atom_site_label_1
_geom_bond_atom_site_label_2
_geom_bond_distance
_geom_bond_site_symmetry_2
Ba0 F2 2.825964 1_555
Ba0 F0 2.825964 1_555
Ba0 O3 2.937961 1_455
Ba0 O15 2.937961 1_445
Ba0 O1 2.937961 1_545
Ba0 O13 2.937961 1_555
Ba0 O11 2.937961 1_455
Ba0 O9 2.937961 1_545
Ba0 O7 2.937961 1_445
Ba0 O5 2.937961 1_555
Ba1 F0 2.819302 1_554
Ba1 F2 2.819302 1_555
Ba1 O12 2.949771 1_444
Ba1 O2 2.949771 1_545
Ba1 O8 2.949771 1_454
Ba1 O14 2.949771 1_554
Ba1 O10 2.949771 1_544
Ba1 O6 2.949771 1_555
Ba1 O4 2.949771 1_445
Ba1 O0 2.949771 1_455
Ba2 F3 2.859632 1_555
Ba2 F1 2.859632 1_555
Ba2 O13 2.935270 1_555
Ba2 O9 2.935270 1_555
Ba2 O5 2.935270 1_555
Ba2 O3 2.935270 1_555
Ba2 O15 2.935270 1_555
Ba2 O7 2.935270 1_555
Ba2 O1 2.935270 1_555
Ba2 O11 2.935270 1_555
Al0 O10 1.793108 1_554
Al0 O8 1.793108 1_454
Al0 O6 1.793108 1_555
Al0 O4 1.793108 1_455
Al1 O9 1.793261 1_545
Al1 O5 1.793261 1_555
Al1 O7 1.793261 1_545
Al1 O11 1.793261 1_555
Al2 O12 1.793108 1_544
Al2 O0 1.793108 1_555
Al2 O14 1.793108 1_554
Al2 O2 1.793108 1_545
Al3 O13 1.793261 1_555
Al3 O3 1.793261 1_455
Al3 O15 1.793261 1_455
Al3 O1 1.793261 1_555
O0 Sr2 2.506946 1_555
O0 Sr4 2.700187 1_555
O0 Sr6 2.735096 1_545
O0 Sr8 2.909805 1_555
O1 Sr3 2.514343 1_555
O1 Sr7 2.711158 1_555
O1 Sr5 2.718788 1_455
O2 Sr1 2.506946 1_555
O2 Sr6 2.700187 1_555
O2 Sr4 2.735096 1_565
O2 Sr8 2.909805 1_555
O3 Sr0 2.514343 1_555
O3 Sr5 2.711158 1_555
O3 Sr7 2.718788 1_655
O4 Sr6 2.506946 1_555
O4 Sr2 2.700187 1_555
O4 Sr1 2.735096 1_655
O4 Sr8 2.909805 1_555
O5 Sr7 2.514343 1_555
O5 Sr0 2.711158 1_555
O5 Sr3 2.718788 1_545
O6 Sr4 2.506946 1_555
O6 Sr1 2.700187 1_555
O6 Sr2 2.735096 1_455
O6 Sr8 2.909805 1_555
O7 Sr5 2.514343 1_555
O7 Sr3 2.711158 1_555
O7 Sr0 2.718788 1_565
O8 Sr0 2.506946 1_555
O8 Sr5 2.700187 1_555
O8 Sr7 2.735096 1_655
O8 Sr8 2.909805 1_556
O9 Sr1 2.514343 1_555
O9 Sr6 2.711158 1_555
O9 Sr4 2.718788 1_565
O10 Sr3 2.506946 1_555
O10 Sr7 2.700187 1_555
O10 Sr5 2.735096 1_455
O10 Sr8 2.909805 1_556
O11 Sr2 2.514343 1_555
O11 Sr4 2.711158 1_555
O11 Sr6 2.718788 1_545
O12 Sr5 2.506946 1_555
O12 Sr3 2.700187 1_555
O12 Sr0 2.735096 1_565
O12 Sr8 2.909805 1_556
O13 Sr4 2.514343 1_555
O13 Sr1 2.711158 1_555
O13 Sr2 2.718788 1_455
O14 Sr7 2.506946 1_555
O14 Sr0 2.700187 1_555
O14 Sr3 2.735096 1_545
O14 Sr8 2.909805 1_556
O15 Sr6 2.514343 1_555
O15 Sr2 2.711158 1_555
O15 Sr1 2.718788 1_655
F0 Sr0 2.587432 1_455
F0 Sr5 2.587432 1_445
F0 Sr3 2.587432 1_545
F0 Sr7 2.587432 1_555
F1 Sr2 2.576853 1_555
F1 Sr6 2.576853 1_555
F1 Sr1 2.576853 1_555
F1 Sr4 2.576853 1_555
F1 Sr8 2.785634 1_555
F2 Sr2 2.587432 1_455
F2 Sr1 2.587432 1_545
F2 Sr6 2.587432 1_445
F2 Sr4 2.587432 1_555
F3 Sr5 2.576853 1_555
F3 Sr0 2.576853 1_555
F3 Sr3 2.576853 1_555
F3 Sr7 2.576853 1_555
F3 Sr8 2.785634 1_556
