# generated using pymatgen
data_BaAlF5
_symmetry_space_group_name_H-M   'P 1'
_cell_length_a   5.29487500
_cell_length_b   7.50576356
_cell_length_c   15.15086871
_cell_angle_alpha   79.41647963
_cell_angle_beta   88.48177167
_cell_angle_gamma   88.12946573
_symmetry_Int_Tables_number   1
_chemical_formula_structural   BaAlF5
_chemical_formula_sum   'Ba6 Al6 F30'
_cell_volume   591.43959325
_cell_formula_units_Z   6
loop_
 _symmetry_equiv_pos_site_id
 _symmetry_equiv_pos_as_xyz
  1  'x, y, z'
loop_
 _atom_site_type_symbol
 _atom_site_label
 _atom_site_symmetry_multiplicity
 _atom_site_fract_x
 _atom_site_fract_y
 _atom_site_fract_z
 _atom_site_occupancy
  Ba  Ba0  1  0.73892100  0.59728200  0.12845400  1
  Ba  Ba1  1  0.25662000  0.40183700  0.87107900  1
  Ba  Ba2  1  0.24114100  0.07098900  0.19710500  1
  Ba  Ba3  1  0.75617500  0.92924300  0.80277000  1
  Ba  Ba4  1  0.71063800  0.75434700  0.44436500  1
  Ba  Ba5  1  0.28958500  0.24572600  0.55561500  1
  Al  Al0  1  0.77050500  0.20365100  0.35804700  1
  Al  Al1  1  0.22960500  0.79651000  0.64181700  1
  Al  Al2  1  0.73316200  0.15484400  0.02681200  1
  Al  Al3  1  0.24228700  0.84567000  0.97317500  1
  Al  Al4  1  0.25353100  0.53088100  0.32165900  1
  Al  Al5  1  0.74610100  0.46940100  0.67835300  1
  F  F0  1  0.97581500  0.65829900  0.28183400  1
  F  F1  1  0.02375400  0.34181800  0.71839700  1
  F  F2  1  0.73733700  0.25095600  0.90874300  1
  F  F3  1  0.23830100  0.75128800  0.09135600  1
  F  F4  1  0.99048200  0.28666500  0.04908100  1
  F  F5  1  0.03259800  0.68014200  0.94593300  1
  F  F6  1  0.45586700  0.71754700  0.27802000  1
  F  F7  1  0.54429200  0.28227000  0.72172800  1
  F  F8  1  0.50947600  0.31973700  0.05628800  1
  F  F9  1  0.51098700  0.71271000  0.94944900  1
  F  F10  1  0.55108200  0.39769500  0.37298000  1
  F  F11  1  0.44910100  0.60231900  0.62690100  1
  F  F12  1  0.73786500  0.11802800  0.47611400  1
  F  F13  1  0.26222100  0.88194300  0.52382100  1
  F  F14  1  0.97857700  0.01210600  0.34657000  1
  F  F15  1  0.02145200  0.98790200  0.65330600  1
  F  F16  1  0.30286900  0.42977400  0.22462000  1
  F  F17  1  0.69623800  0.57062500  0.77552100  1
  F  F18  1  0.05466400  0.33388600  0.37880500  1
  F  F19  1  0.94524100  0.66602800  0.62123900  1
  F  F20  1  0.50693600  0.06993300  0.34000600  1
  F  F21  1  0.49330100  0.93027300  0.65993100  1
  F  F22  1  0.22981800  0.59565800  0.43155000  1
  F  F23  1  0.77039600  0.40437000  0.56846700  1
  F  F24  1  0.73333600  0.01178000  0.13695300  1
  F  F25  1  0.24624600  0.98816800  0.86289600  1
  F  F26  1  0.81171700  0.29211500  0.24033200  1
  F  F27  1  0.18934500  0.70790100  0.75922300  1
  F  F28  1  0.45308100  0.02358900  0.00415700  1
  F  F29  1  0.95283800  0.97719300  0.99492700  1
loop_
_geom_bond_atom_site_label_1
_geom_bond_atom_site_label_2
_geom_bond_distance
_geom_bond_site_symmetry_2
Ba0 F26 2.611319 1_555
Ba0 F0 2.786793 1_555
Ba0 F8 2.843128 1_555
Ba0 F3 2.884211 1_555
Ba0 F16 2.893557 1_555
Ba0 F3 2.919892 1_655
Ba0 F6 2.946041 1_555
Ba0 F9 2.967257 1_554
Ba0 F4 3.065641 1_555
Ba0 F5 3.107321 1_654
Ba0 F24 3.136479 1_565
Ba1 F27 2.612420 1_555
Ba1 F1 2.764890 1_555
Ba1 F5 2.773778 1_555
Ba1 F2 2.781775 1_555
Ba1 F17 2.908530 1_555
Ba1 F7 2.952937 1_555
Ba1 F4 3.004660 1_456
Ba1 F2 3.008462 1_455
Ba1 F8 3.091331 1_556
Ba1 F25 3.132364 1_545
Ba1 F9 3.158470 1_555
Ba2 F14 2.600350 1_455
Ba2 F20 2.612025 1_555
Ba2 F24 2.786969 1_555
Ba2 F16 2.830138 1_555
Ba2 F4 2.845269 1_455
Ba2 F26 2.903023 1_455
Ba2 F6 2.918130 1_545
Ba2 F8 2.933542 1_555
Ba2 F24 2.934987 1_455
Ba2 F3 3.121093 1_545
Ba2 F28 3.180236 1_555
Ba3 F21 2.602624 1_555
Ba3 F15 2.607749 1_655
Ba3 F9 2.814896 1_555
Ba3 F17 2.826187 1_555
Ba3 F25 2.847273 1_655
Ba3 F25 2.873190 1_555
Ba3 F7 2.910530 1_565
Ba3 F27 2.920543 1_655
Ba3 F5 2.973645 1_655
Ba3 F2 3.133463 1_565
Ba3 F29 3.203090 1_555
Ba4 F14 2.639293 1_565
Ba4 F20 2.796769 1_565
Ba4 F13 2.850853 1_555
Ba4 F12 2.866208 1_565
Ba4 F22 2.871757 1_555
Ba4 F19 2.938344 1_555
Ba4 F23 2.949359 1_555
Ba4 F6 2.950933 1_555
Ba4 F22 2.975946 1_655
Ba4 F0 2.992960 1_555
Ba4 F11 3.099868 1_555
Ba4 F10 3.210779 1_555
Ba5 F15 2.639521 1_545
Ba5 F21 2.795794 1_545
Ba5 F12 2.850876 1_555
Ba5 F13 2.867259 1_545
Ba5 F23 2.871654 1_555
Ba5 F18 2.938177 1_555
Ba5 F7 2.947155 1_555
Ba5 F22 2.948836 1_555
Ba5 F23 2.975924 1_455
Ba5 F1 2.997856 1_555
Ba5 F10 3.100898 1_555
Ba5 F11 3.209570 1_555
Al0 F12 1.792018 1_555
Al0 F26 1.795312 1_555
Al0 F20 1.800574 1_555
Al0 F14 1.813629 1_555
Al0 F10 1.875873 1_555
Al0 F18 1.884739 1_655
Al1 F27 1.790670 1_555
Al1 F13 1.790754 1_555
Al1 F21 1.801620 1_555
Al1 F15 1.813010 1_555
Al1 F11 1.876897 1_555
Al1 F19 1.885926 1_455
Al2 F4 1.784409 1_555
Al2 F8 1.792568 1_555
Al2 F2 1.801606 1_554
Al2 F24 1.810942 1_555
Al2 F29 1.862759 1_544
Al2 F28 1.879950 1_555
Al3 F9 1.778008 1_555
Al3 F3 1.800380 1_556
Al3 F5 1.802600 1_555
Al3 F25 1.810856 1_555
Al3 F29 1.850936 1_455
Al3 F28 1.898619 1_566
Al4 F16 1.783892 1_555
Al4 F0 1.784442 1_455
Al4 F6 1.807788 1_555
Al4 F22 1.818376 1_555
Al4 F18 1.904655 1_555
Al4 F10 1.939762 1_555
Al5 F1 1.785594 1_655
Al5 F17 1.786459 1_555
Al5 F7 1.807809 1_555
Al5 F23 1.819243 1_555
Al5 F19 1.903367 1_555
Al5 F11 1.937228 1_555
