# generated using pymatgen
data_SrAgGe
_symmetry_space_group_name_H-M   'P 1'
_cell_length_a   6.06729398
_cell_length_b   6.06729398
_cell_length_c   14.95600351
_cell_angle_alpha   77.47337315
_cell_angle_beta   77.47337315
_cell_angle_gamma   45.89860706
_symmetry_Int_Tables_number   1
_chemical_formula_structural   SrAgGe
_chemical_formula_sum   'Sr5 Ag5 Ge5'
_cell_volume   384.23990405
_cell_formula_units_Z   5
loop_
 _symmetry_equiv_pos_site_id
 _symmetry_equiv_pos_as_xyz
  1  'x, y, z'
loop_
 _atom_site_type_symbol
 _atom_site_label
 _atom_site_symmetry_multiplicity
 _atom_site_fract_x
 _atom_site_fract_y
 _atom_site_fract_z
 _atom_site_occupancy
  Sr  Sr0  1  0.23646800  0.23646800  0.18678500  1
  Sr  Sr1  1  0.76215500  0.76215500  0.81092300  1
  Sr  Sr2  1  0.61653900  0.61653900  0.58098100  1
  Sr  Sr3  1  0.38256400  0.38256400  0.42133800  1
  Sr  Sr4  1  0.00038100  0.00038100  0.99793400  1
  Ag  Ag0  1  0.91225700  0.91225700  0.59110600  1
  Ag  Ag1  1  0.08922700  0.08922700  0.40946600  1
  Ag  Ag2  1  0.52695700  0.52695700  0.20347000  1
  Ag  Ag3  1  0.46828300  0.46828300  0.80478500  1
  Ag  Ag4  1  0.70637500  0.70637500  0.03184400  1
  Ge  Ge0  1  0.29932400  0.29932400  0.96606400  1
  Ge  Ge1  1  0.92257300  0.92257300  0.25945000  1
  Ge  Ge2  1  0.07586100  0.07586100  0.73963200  1
  Ge  Ge3  1  0.69861600  0.69861600  0.34334500  1
  Ge  Ge4  1  0.30241800  0.30241800  0.65287700  1
loop_
_geom_bond_atom_site_label_1
_geom_bond_atom_site_label_2
_geom_bond_distance
_geom_bond_site_symmetry_2
Ag0 Ge4 2.724421 1_565
Ag0 Ge4 2.724421 1_655
Ag0 Ag1 2.959695 1_665
Ag0 Ge2 3.192097 1_665
Ag0 Sr2 3.266102 1_565
Ag0 Sr2 3.266102 1_655
Ag0 Sr1 3.320219 1_555
Ag0 Sr2 3.343302 1_555
Ag0 Sr3 3.542659 1_565
Ag0 Sr3 3.542659 1_655
Ag1 Ge3 2.738489 1_545
Ag1 Ge3 2.738489 1_455
Ag1 Ge1 3.235733 1_445
Ag1 Sr3 3.281443 1_455
Ag1 Sr3 3.281443 1_545
Ag1 Sr3 3.324091 1_555
Ag1 Sr0 3.349242 1_555
Ag1 Sr2 3.555107 1_455
Ag1 Sr2 3.555107 1_545
Ag2 Ge1 2.682936 1_545
Ag2 Ge1 2.682936 1_455
Ag2 Ag4 2.860746 1_555
Ag2 Ge3 3.153708 1_555
Ag2 Sr3 3.277815 1_555
Ag2 Sr0 3.296143 1_565
Ag2 Sr0 3.296143 1_655
Ag2 Sr0 3.313627 1_555
Ag2 Sr4 3.945173 1_654
Ag2 Sr4 3.945173 1_564
Ag3 Ge0 2.690236 1_555
Ag3 Ge2 2.727537 1_565
Ag3 Ge2 2.727537 1_655
Ag3 Ge4 3.252748 1_555
Ag3 Sr1 3.287969 1_455
Ag3 Sr1 3.287969 1_545
Ag3 Sr1 3.306592 1_555
Ag3 Sr2 3.366917 1_555
Ag3 Sr4 3.815526 1_565
Ag3 Sr4 3.815526 1_655
Ag4 Ge0 2.676189 1_564
Ag4 Ge0 2.676189 1_654
Ag4 Sr4 3.203949 1_664
Ag4 Sr1 3.214872 1_554
Ag4 Sr0 3.383302 1_565
Ag4 Sr0 3.383302 1_655
Ag4 Sr4 3.420841 1_564
Ag4 Sr4 3.420841 1_654
Ge0 Sr0 3.209110 1_556
Ge0 Sr4 3.261230 1_555
Ge0 Sr4 3.372795 1_655
Ge0 Sr4 3.372795 1_565
Ge0 Sr1 3.406894 1_545
Ge0 Sr1 3.406894 1_455
Ge1 Ge3 2.521473 1_555
Ge1 Sr3 3.338993 1_565
Ge1 Sr3 3.338993 1_655
Ge1 Sr0 3.418774 1_665
Ge1 Sr0 3.488125 1_655
Ge1 Sr0 3.488125 1_565
Ge1 Sr4 3.801547 1_664
Ge2 Ge4 2.558333 1_555
Ge2 Sr2 3.305354 1_455
Ge2 Sr2 3.305354 1_545
Ge2 Sr1 3.415256 1_445
Ge2 Sr1 3.480301 1_545
Ge2 Sr1 3.480301 1_455
Ge2 Sr4 3.755067 1_555
Ge3 Sr0 3.285081 1_655
Ge3 Sr0 3.285081 1_565
Ge3 Sr3 3.448524 1_555
Ge3 Sr2 3.455020 1_555
Ge3 Sr3 3.508806 1_655
Ge3 Sr3 3.508806 1_565
Ge4 Sr1 3.299305 1_455
Ge4 Sr1 3.299305 1_545
Ge4 Sr3 3.366421 1_555
Ge4 Sr2 3.420321 1_555
Ge4 Sr2 3.481251 1_545
Ge4 Sr2 3.481251 1_455
