# generated using pymatgen
data_Ta4SnO12
_symmetry_space_group_name_H-M   'P 1'
_cell_length_a   5.04019284
_cell_length_b   5.56620634
_cell_length_c   9.20195891
_cell_angle_alpha   97.46858728
_cell_angle_beta   104.45883862
_cell_angle_gamma   90.12171417
_symmetry_Int_Tables_number   1
_chemical_formula_structural   Ta4SnO12
_chemical_formula_sum   'Ta4 Sn1 O12'
_cell_volume   247.70051137
_cell_formula_units_Z   1
loop_
 _symmetry_equiv_pos_site_id
 _symmetry_equiv_pos_as_xyz
  1  'x, y, z'
loop_
 _atom_site_type_symbol
 _atom_site_label
 _atom_site_symmetry_multiplicity
 _atom_site_fract_x
 _atom_site_fract_y
 _atom_site_fract_z
 _atom_site_occupancy
  Ta  Ta0  1  0.06126100  0.35880100  0.64917600  1
  Ta  Ta1  1  0.42398700  0.14119900  0.34724100  1
  Ta  Ta2  1  0.55848300  0.85948200  0.65592300  1
  Ta  Ta3  1  0.91822300  0.64568200  0.34753800  1
  Sn  Sn0  1  0.96053100  0.24255800  0.00113900  1
  O  O0  1  0.02140200  0.44004200  0.85052500  1
  O  O1  1  0.14142300  0.33306300  0.43194400  1
  O  O2  1  0.20379800  0.05805200  0.14358700  1
  O  O3  1  0.27085600  0.08909400  0.69217800  1
  O  O4  1  0.28256200  0.83359500  0.43323100  1
  O  O5  1  0.38488200  0.59205900  0.69845000  1
  O  O6  1  0.59634200  0.41260500  0.30937500  1
  O  O7  1  0.70041400  0.16570400  0.56672700  1
  O  O8  1  0.70626800  0.91235900  0.29944500  1
  O  O9  1  0.76081800  0.96973000  0.85896800  1
  O  O10  1  0.84258100  0.66886400  0.56724900  1
  O  O11  1  0.93666700  0.52711100  0.14730700  1
loop_
_geom_bond_atom_site_label_1
_geom_bond_atom_site_label_2
_geom_bond_distance
_geom_bond_site_symmetry_2
O0 Ta0 1.909499 1_555
O0 Sn0 1.957101 1_456
O1 Ta1 2.029955 1_555
O1 Ta0 2.123374 1_555
O1 Ta3 2.195476 1_455
O2 Ta1 1.921340 1_555
O2 Sn0 1.956785 1_455
O3 Ta0 1.865132 1_555
O3 Ta2 1.996226 1_545
O4 Ta3 2.035264 1_455
O4 Ta2 2.157152 1_555
O4 Ta1 2.166675 1_565
O5 Ta2 1.857780 1_555
O5 Ta0 2.005118 1_555
O6 Ta1 1.854912 1_555
O6 Ta3 2.006630 1_555
O7 Ta0 2.032068 1_655
O7 Ta1 2.135723 1_555
O7 Ta2 2.177714 1_545
O8 Ta3 1.865987 1_555
O8 Ta1 2.003669 1_565
O9 Ta2 1.911888 1_555
O9 Sn0 1.962235 1_566
O10 Ta2 2.051046 1_555
O10 Ta3 2.137023 1_555
O10 Ta0 2.166380 1_655
O11 Ta3 1.899675 1_555
O11 Sn0 1.964696 1_555
