# generated using pymatgen
data_NbNi
_symmetry_space_group_name_H-M   'P 1'
_cell_length_a   18.00255834
_cell_length_b   18.00255834
_cell_length_c   18.00255859
_cell_angle_alpha   15.65220058
_cell_angle_beta   15.65220058
_cell_angle_gamma   15.65219933
_symmetry_Int_Tables_number   1
_chemical_formula_structural   NbNi
_chemical_formula_sum   'Nb13 Ni13'
_cell_volume   370.08415918
_cell_formula_units_Z   13
loop_
 _symmetry_equiv_pos_site_id
 _symmetry_equiv_pos_as_xyz
  1  'x, y, z'
loop_
 _atom_site_type_symbol
 _atom_site_label
 _atom_site_symmetry_multiplicity
 _atom_site_fract_x
 _atom_site_fract_y
 _atom_site_fract_z
 _atom_site_occupancy
  Nb  Nb0  1  0.77520200  0.77520200  0.77520200  1
  Nb  Nb1  1  0.27365100  0.27365100  0.27365100  1
  Nb  Nb2  1  0.72634900  0.72634900  0.72634900  1
  Nb  Nb3  1  0.22479800  0.22479800  0.22479800  1
  Nb  Nb4  1  0.41796600  0.41796600  0.41796600  1
  Nb  Nb5  1  0.91550000  0.91550000  0.91550000  1
  Nb  Nb6  1  0.08450000  0.08450000  0.08450000  1
  Nb  Nb7  1  0.58203400  0.58203400  0.58203400  1
  Nb  Nb8  1  0.82699000  0.82699000  0.82699000  1
  Nb  Nb9  1  0.32662800  0.32662800  0.32662800  1
  Nb  Nb10  1  0.67337200  0.67337200  0.67337200  1
  Nb  Nb11  1  0.17301000  0.17301000  0.17301000  1
  Nb  Nb12  1  0.00000000  0.00000000  0.00000000  1
  Ni  Ni0  1  0.20845200  0.20845200  0.70241200  1
  Ni  Ni1  1  0.70418600  0.70418600  0.20371100  1
  Ni  Ni2  1  0.70241200  0.20845200  0.20845200  1
  Ni  Ni3  1  0.20371100  0.70418600  0.70418600  1
  Ni  Ni4  1  0.20845200  0.70241200  0.20845200  1
  Ni  Ni5  1  0.70418600  0.20371100  0.70418600  1
  Ni  Ni6  1  0.29581400  0.29581400  0.79628900  1
  Ni  Ni7  1  0.79154800  0.79154800  0.29758800  1
  Ni  Ni8  1  0.79628900  0.29581400  0.29581400  1
  Ni  Ni9  1  0.29758800  0.79154800  0.79154800  1
  Ni  Ni10  1  0.29581400  0.79628900  0.29581400  1
  Ni  Ni11  1  0.79154800  0.29758800  0.79154800  1
  Ni  Ni12  1  0.50000000  0.50000000  0.50000000  1
loop_
_geom_bond_atom_site_label_1
_geom_bond_atom_site_label_2
_geom_bond_distance
_geom_bond_site_symmetry_2
Nb0 Nb2 2.605619 1_555
Nb0 Ni6 2.690048 1_565
Nb0 Ni6 2.690048 1_655
Nb0 Ni8 2.690048 1_565
Nb0 Ni10 2.690048 1_655
Nb0 Ni8 2.690048 1_556
Nb0 Ni10 2.690048 1_556
Nb0 Nb8 2.762160 1_555
Nb0 Nb4 3.104427 1_655
Nb0 Nb4 3.104427 1_565
Nb0 Nb4 3.104427 1_556
Nb0 Nb6 3.107339 1_656
Nb0 Nb6 3.107339 1_566
Nb0 Nb6 3.107339 1_665
Nb1 Nb3 2.605619 1_555
Nb1 Ni7 2.671540 1_545
Nb1 Ni7 2.671540 1_455
Nb1 Ni9 2.671540 1_554
Nb1 Ni11 2.671540 1_554
Nb1 Ni11 2.671540 1_455
Nb1 Ni9 2.671540 1_545
Nb1 Nb9 2.825577 1_555
Nb1 Nb5 3.124785 1_454
Nb1 Nb5 3.124785 1_544
Nb1 Nb5 3.124785 1_445
Nb1 Nb7 3.127789 1_545
Nb1 Nb7 3.127789 1_455
Nb1 Nb7 3.127789 1_554
Nb2 Ni0 2.671540 1_565
Nb2 Ni0 2.671540 1_655
Nb2 Ni2 2.671540 1_556
Nb2 Ni4 2.671540 1_556
Nb2 Ni2 2.671540 1_565
Nb2 Ni4 2.671540 1_655
Nb2 Nb6 3.124785 1_656
Nb2 Nb6 3.124785 1_566
Nb2 Nb6 3.124785 1_665
Nb2 Nb4 3.127789 1_655
Nb2 Nb4 3.127789 1_565
Nb2 Nb4 3.127789 1_556
Nb3 Ni1 2.690048 1_455
Nb3 Ni1 2.690048 1_545
Nb3 Ni3 2.690048 1_545
Nb3 Ni5 2.690048 1_455
Nb3 Ni3 2.690048 1_554
Nb3 Ni5 2.690048 1_554
Nb3 Nb7 3.104427 1_545
Nb3 Nb7 3.104427 1_455
Nb3 Nb7 3.104427 1_554
Nb3 Nb5 3.107339 1_454
Nb3 Nb5 3.107339 1_544
Nb3 Nb5 3.107339 1_445
Nb4 Ni0 2.771260 1_555
Nb4 Ni2 2.771260 1_555
Nb4 Ni4 2.771260 1_555
Nb4 Ni10 2.772001 1_555
Nb4 Ni8 2.772001 1_555
Nb4 Ni6 2.772001 1_555
Nb4 Nb6 2.830586 1_565
Nb4 Nb6 2.830586 1_655
Nb4 Nb6 2.830587 1_556
Nb5 Ni1 2.776715 1_556
Nb5 Ni3 2.776715 1_655
Nb5 Ni5 2.776715 1_565
Nb5 Ni9 2.782599 1_655
Nb5 Ni11 2.782599 1_565
Nb5 Ni7 2.782599 1_556
Nb5 Nb7 2.830586 1_655
Nb5 Nb7 2.830586 1_565
Nb5 Nb7 2.830587 1_556
Nb6 Ni6 2.776715 1_554
Nb6 Ni8 2.776715 1_455
Nb6 Ni10 2.776715 1_545
Nb6 Ni2 2.782599 1_455
Nb6 Ni4 2.782599 1_545
Nb6 Ni0 2.782599 1_554
Nb7 Ni7 2.771260 1_555
Nb7 Ni9 2.771260 1_555
Nb7 Ni11 2.771260 1_555
Nb7 Ni3 2.772001 1_555
Nb7 Ni5 2.772001 1_555
Nb7 Ni1 2.772001 1_555
Nb8 Ni3 2.726325 1_655
Nb8 Ni5 2.726325 1_565
Nb8 Ni1 2.726325 1_556
Nb8 Ni12 2.850725 1_655
Nb8 Ni12 2.850725 1_565
Nb8 Ni12 2.850726 1_556
Nb8 Ni6 2.957367 1_565
Nb8 Ni6 2.957367 1_655
Nb8 Ni8 2.957367 1_556
Nb8 Ni10 2.957367 1_556
Nb8 Ni10 2.957367 1_655
Nb8 Ni8 2.957367 1_565
Nb9 Ni2 2.846039 1_555
Nb9 Ni4 2.846039 1_555
Nb9 Ni0 2.846040 1_555
Nb9 Ni7 3.019909 1_545
Nb9 Ni7 3.019909 1_455
Nb9 Ni11 3.019909 1_455
Nb9 Ni9 3.019909 1_545
Nb9 Ni9 3.019909 1_554
Nb9 Ni11 3.019909 1_554
Nb10 Nb2 2.825577 1_555
Nb10 Ni11 2.846039 1_555
Nb10 Ni9 2.846039 1_555
Nb10 Ni7 2.846040 1_555
Nb10 Nb12 2.853081 1_566
Nb10 Nb12 2.853081 1_656
Nb10 Nb12 2.853081 1_665
Nb10 Nb9 2.919551 1_565
Nb10 Nb9 2.919551 1_655
Nb10 Nb9 2.919552 1_556
Nb10 Ni0 3.019909 1_565
Nb10 Ni0 3.019909 1_655
Nb10 Ni2 3.019909 1_565
Nb10 Ni4 3.019909 1_655
Nb10 Ni4 3.019909 1_556
Nb10 Ni2 3.019909 1_556
Nb11 Ni8 2.726325 1_455
Nb11 Ni10 2.726325 1_545
Nb11 Ni6 2.726325 1_554
Nb11 Nb3 2.762160 1_555
Nb11 Ni12 2.850725 1_455
Nb11 Ni12 2.850725 1_545
Nb11 Ni12 2.850726 1_554
Nb11 Nb8 2.910332 1_544
Nb11 Nb8 2.910332 1_454
Nb11 Nb8 2.910332 1_445
Nb11 Ni1 2.957367 1_545
Nb11 Ni1 2.957367 1_455
Nb11 Ni5 2.957367 1_554
Nb11 Ni3 2.957367 1_554
Nb11 Ni3 2.957367 1_545
Nb11 Ni5 2.957367 1_455
Nb12 Ni0 2.559598 1_554
Nb12 Ni7 2.559598 1_445
Nb12 Ni4 2.559598 1_545
Nb12 Ni2 2.559598 1_455
Nb12 Ni9 2.559598 1_544
Nb12 Ni11 2.559598 1_454
Nb12 Nb9 2.853081 1_455
Nb12 Nb9 2.853081 1_545
Nb12 Nb9 2.853081 1_554
Ni0 Ni2 2.421740 1_555
Ni0 Ni4 2.421740 1_555
Ni0 Ni2 2.480965 1_456
Ni0 Ni4 2.480965 1_546
Ni1 Ni12 2.444920 1_555
Ni1 Ni5 2.449023 1_564
Ni1 Ni3 2.449023 1_654
Ni1 Ni5 2.453681 1_555
Ni1 Ni3 2.453681 1_555
Ni2 Ni4 2.421740 1_555
Ni2 Ni4 2.480964 1_645
Ni3 Ni5 2.449023 1_465
Ni3 Ni5 2.453681 1_555
Ni6 Ni8 2.449023 1_456
Ni6 Ni8 2.453681 1_555
Ni7 Ni9 2.421740 1_555
Ni7 Ni9 2.480965 1_654
Ni10 Ni12 2.444920 1_555
Ni10 Ni8 2.449023 1_465
Ni10 Ni6 2.449023 1_564
Ni10 Ni8 2.453681 1_555
Ni10 Ni6 2.453681 1_555
Ni11 Ni9 2.421740 1_555
Ni11 Ni7 2.421740 1_555
Ni11 Ni9 2.480964 1_645
Ni11 Ni7 2.480965 1_546
Ni12 Ni6 2.444920 1_555
Ni12 Ni5 2.444920 1_555
Ni12 Ni3 2.444920 1_555
Ni12 Ni8 2.444920 1_555
