# generated using pymatgen
data_Lu2TiCuO6
_symmetry_space_group_name_H-M   'P 1'
_cell_length_a   3.53575059
_cell_length_b   3.53575059
_cell_length_c   11.29779800
_cell_angle_alpha   90.00000000
_cell_angle_beta   90.00000000
_cell_angle_gamma   120.00001100
_symmetry_Int_Tables_number   1
_chemical_formula_structural   Lu2TiCuO6
_chemical_formula_sum   'Lu2 Ti1 Cu1 O6'
_cell_volume   122.31722888
_cell_formula_units_Z   1
loop_
 _symmetry_equiv_pos_site_id
 _symmetry_equiv_pos_as_xyz
  1  'x, y, z'
loop_
 _atom_site_type_symbol
 _atom_site_label
 _atom_site_symmetry_multiplicity
 _atom_site_fract_x
 _atom_site_fract_y
 _atom_site_fract_z
 _atom_site_occupancy
  Lu  Lu0  1  0.00000000  0.00000000  0.22820200  1
  Lu  Lu1  1  0.00000000  0.00000000  0.77179800  1
  Ti  Ti0  1  0.66666700  0.33333300  0.50000000  1
  Cu  Cu0  1  0.33333300  0.66666700  0.00000000  1
  O  O0  1  0.66666700  0.33333300  0.33328600  1
  O  O1  1  0.33333300  0.66666700  0.83210500  1
  O  O2  1  0.00000000  0.00000000  0.50000000  1
  O  O3  1  0.00000000  0.00000000  0.00000000  1
  O  O4  1  0.33333300  0.66666700  0.16789500  1
  O  O5  1  0.66666700  0.33333300  0.66671400  1
loop_
_geom_bond_atom_site_label_1
_geom_bond_atom_site_label_2
_geom_bond_distance
_geom_bond_site_symmetry_2
Lu0 O4 2.152066 1_545
Lu0 O4 2.152069 1_555
Lu0 O4 2.152069 1_445
Lu0 O0 2.361494 1_455
Lu0 O0 2.361497 1_555
Lu0 O0 2.361497 1_445
Lu0 O3 2.578180 1_555
Lu1 O1 2.152066 1_545
Lu1 O1 2.152069 1_555
Lu1 O1 2.152069 1_445
Lu1 O5 2.361494 1_455
Lu1 O5 2.361497 1_555
Lu1 O5 2.361497 1_445
Lu1 O3 2.578180 1_556
Cu0 O4 1.896844 1_555
Cu0 O1 1.896844 1_554
Cu0 O3 2.041365 1_565
Cu0 O3 2.041367 1_665
Cu0 O3 2.041367 1_555
O0 Ti0 1.883501 1_555
O2 Ti0 2.041365 1_455
O2 Ti0 2.041367 1_445
O2 Ti0 2.041367 1_555
O5 Ti0 1.883501 1_555
