# generated using pymatgen
data_Ni5Ge(BO5)2
_symmetry_space_group_name_H-M   'P 1'
_cell_length_a   3.00371600
_cell_length_b   9.39449300
_cell_length_c   12.23353200
_cell_angle_alpha   90.00000000
_cell_angle_beta   90.00000000
_cell_angle_gamma   90.00000000
_symmetry_Int_Tables_number   1
_chemical_formula_structural   Ni5Ge(BO5)2
_chemical_formula_sum   'Ni10 Ge2 B4 O20'
_cell_volume   345.21056404
_cell_formula_units_Z   2
loop_
 _symmetry_equiv_pos_site_id
 _symmetry_equiv_pos_as_xyz
  1  'x, y, z'
loop_
 _atom_site_type_symbol
 _atom_site_label
 _atom_site_symmetry_multiplicity
 _atom_site_fract_x
 _atom_site_fract_y
 _atom_site_fract_z
 _atom_site_occupancy
  Ni  Ni0  1  0.50000000  0.25847100  0.21948300  1
  Ni  Ni1  1  0.50000000  0.26020900  0.78329100  1
  Ni  Ni2  1  0.50000000  0.73979100  0.28329100  1
  Ni  Ni3  1  0.50000000  0.74152900  0.71948300  1
  Ni  Ni4  1  0.50000000  0.25971500  0.49720200  1
  Ni  Ni5  1  0.50000000  0.74028500  0.99720200  1
  Ni  Ni6  1  0.00000000  0.73637600  0.49577900  1
  Ni  Ni7  1  0.00000000  0.26362400  0.99577900  1
  Ni  Ni8  1  0.00000000  0.48652700  0.38457400  1
  Ni  Ni9  1  0.00000000  0.51347300  0.88457400  1
  Ge  Ge0  1  0.00000000  0.00898700  0.61433000  1
  Ge  Ge1  1  0.00000000  0.99101300  0.11433000  1
  B  B0  1  0.00000000  0.52497900  0.13941100  1
  B  B1  1  0.00000000  0.98444500  0.86114000  1
  B  B2  1  0.00000000  0.01555500  0.36114000  1
  B  B3  1  0.00000000  0.47502100  0.63941100  1
  O  O0  1  0.50000000  0.35212700  0.35625400  1
  O  O1  1  0.50000000  0.13417800  0.64309800  1
  O  O2  1  0.50000000  0.86582200  0.14309800  1
  O  O3  1  0.50000000  0.64787300  0.85625400  1
  O  O4  1  0.50000000  0.63861400  0.42405200  1
  O  O5  1  0.50000000  0.87921700  0.58091100  1
  O  O6  1  0.50000000  0.12078300  0.08091100  1
  O  O7  1  0.50000000  0.36138600  0.92405200  1
  O  O8  1  0.00000000  0.37531500  0.13993900  1
  O  O9  1  0.00000000  0.12849800  0.85928600  1
  O  O10  1  0.00000000  0.87150200  0.35928600  1
  O  O11  1  0.00000000  0.62468500  0.63993900  1
  O  O12  1  0.00000000  0.39860300  0.54303200  1
  O  O13  1  0.00000000  0.09262200  0.46100300  1
  O  O14  1  0.00000000  0.90737800  0.96100300  1
  O  O15  1  0.00000000  0.60139700  0.04303200  1
  O  O16  1  0.00000000  0.59944600  0.23652500  1
  O  O17  1  0.00000000  0.90985900  0.76068900  1
  O  O18  1  0.00000000  0.09014100  0.26068900  1
  O  O19  1  0.00000000  0.40055400  0.73652500  1
loop_
_geom_bond_atom_site_label_1
_geom_bond_atom_site_label_2
_geom_bond_distance
_geom_bond_site_symmetry_2
Ni0 O0 1.890426 1_555
Ni0 O8 2.099389 1_555
Ni0 O8 2.099389 1_655
Ni0 O6 2.132359 1_555
Ni0 O18 2.238400 1_555
Ni0 O18 2.238400 1_655
Ni1 O7 1.966917 1_555
Ni1 O19 2.078763 1_555
Ni1 O19 2.078763 1_655
Ni1 O1 2.084050 1_555
Ni1 O9 2.156606 1_655
Ni1 O9 2.156606 1_555
Ni2 O4 1.966917 1_555
Ni2 O16 2.078763 1_555
Ni2 O16 2.078763 1_655
Ni2 O2 2.084050 1_555
Ni2 O10 2.156606 1_555
Ni2 O10 2.156606 1_655
Ni3 O3 1.890426 1_555
Ni3 O11 2.099389 1_655
Ni3 O11 2.099389 1_555
Ni3 O5 2.132359 1_555
Ni3 O17 2.238400 1_655
Ni3 O17 2.238400 1_555
Ni4 O0 1.930516 1_555
Ni4 O12 2.066973 1_655
Ni4 O12 2.066973 1_555
Ni4 O1 2.139270 1_555
Ni4 O13 2.217163 1_555
Ni4 O13 2.217163 1_655
Ni5 O3 1.930516 1_555
Ni5 O15 2.066973 1_556
Ni5 O15 2.066973 1_656
Ni5 O2 2.139270 1_556
Ni5 O14 2.217163 1_555
Ni5 O14 2.217163 1_655
Ni6 O4 1.966988 1_455
Ni6 O4 1.966988 1_555
Ni6 O11 2.052127 1_555
Ni6 O10 2.097542 1_555
Ni6 O5 2.267371 1_555
Ni6 O5 2.267371 1_455
Ni7 O7 1.966988 1_455
Ni7 O7 1.966988 1_555
Ni7 O8 2.052127 1_556
Ni7 O9 2.097542 1_555
Ni7 O6 2.267371 1_456
Ni7 O6 2.267371 1_556
Ni8 O0 1.992440 1_455
Ni8 O0 1.992440 1_555
Ni8 O16 2.098962 1_555
Ni8 O12 2.107146 1_555
Ni8 O4 2.128435 1_555
Ni8 O4 2.128435 1_455
Ni9 O3 1.992440 1_455
Ni9 O3 1.992440 1_555
Ni9 O19 2.098962 1_555
Ni9 O15 2.107146 1_556
Ni9 O7 2.128435 1_455
Ni9 O7 2.128435 1_555
Ge0 O1 1.939758 1_555
Ge0 O1 1.939758 1_455
Ge0 O5 1.977115 1_445
Ge0 O5 1.977115 1_545
Ge0 O17 2.018189 1_545
Ge0 O13 2.033643 1_555
Ge1 O2 1.939758 1_555
Ge1 O2 1.939758 1_455
Ge1 O6 1.977115 1_465
Ge1 O6 1.977115 1_565
Ge1 O18 2.018189 1_565
Ge1 O14 2.033643 1_554
B0 O16 1.378720 1_555
B0 O15 1.380422 1_555
B0 O8 1.406032 1_555
B1 O9 1.353495 1_565
B1 O17 1.414602 1_555
B1 O14 1.420098 1_555
B2 O10 1.353495 1_545
B2 O18 1.414602 1_555
B2 O13 1.420098 1_555
B3 O19 1.378720 1_555
B3 O12 1.380422 1_555
B3 O11 1.406032 1_555
