# generated using pymatgen
data_Si3Os
_symmetry_space_group_name_H-M   'P 1'
_cell_length_a   4.25697378
_cell_length_b   4.25697378
_cell_length_c   4.25697378
_cell_angle_alpha   119.84162826
_cell_angle_beta   119.84162826
_cell_angle_gamma   90.27452748
_symmetry_Int_Tables_number   1
_chemical_formula_structural   Si3Os
_chemical_formula_sum   'Si3 Os1'
_cell_volume   54.67904162
_cell_formula_units_Z   1
loop_
 _symmetry_equiv_pos_site_id
 _symmetry_equiv_pos_as_xyz
  1  'x, y, z'
loop_
 _atom_site_type_symbol
 _atom_site_label
 _atom_site_symmetry_multiplicity
 _atom_site_fract_x
 _atom_site_fract_y
 _atom_site_fract_z
 _atom_site_occupancy
  Si  Si0  1  0.75000000  0.24999900  0.50000100  1
  Si  Si1  1  0.24999900  0.75000000  0.50000100  1
  Si  Si2  1  0.50000100  0.50000100  0.00000000  1
  Os  Os0  1  0.00000000  0.00000000  0.00000000  1
loop_
_geom_bond_atom_site_label_1
_geom_bond_atom_site_label_2
_geom_bond_distance
_geom_bond_site_symmetry_2
Si0 Si2 2.608927 1_556
Si0 Si2 2.608927 1_545
Si0 Si2 2.608938 1_656
Si0 Si2 2.608945 1_555
Si1 Si2 2.608927 1_556
Si1 Si2 2.608927 1_455
Si1 Si2 2.608938 1_566
Si1 Si2 2.608945 1_555
Os0 Si0 2.608927 1_454
Os0 Si1 2.608927 1_544
Os0 Si1 2.608934 1_555
Os0 Si0 2.608934 1_555
Os0 Si0 2.608938 1_455
Os0 Si1 2.608938 1_545
Os0 Si0 2.608938 1_444
Os0 Si1 2.608938 1_444
Os0 Si2 3.002909 1_445
Os0 Si2 3.002921 1_555
Os0 Si2 3.017338 1_556
Os0 Si2 3.017338 1_545
Os0 Si2 3.017338 1_455
Os0 Si2 3.017338 1_444
