# generated using pymatgen
data_NaBiS2
_symmetry_space_group_name_H-M   'P 1'
_cell_length_a   7.15056605
_cell_length_b   7.15056605
_cell_length_c   7.15056605
_cell_angle_alpha   133.11018330
_cell_angle_beta   133.11018330
_cell_angle_gamma   68.48116459
_symmetry_Int_Tables_number   1
_chemical_formula_structural   NaBiS2
_chemical_formula_sum   'Na2 Bi2 S4'
_cell_volume   191.37972814
_cell_formula_units_Z   2
loop_
 _symmetry_equiv_pos_site_id
 _symmetry_equiv_pos_as_xyz
  1  'x, y, z'
loop_
 _atom_site_type_symbol
 _atom_site_label
 _atom_site_symmetry_multiplicity
 _atom_site_fract_x
 _atom_site_fract_y
 _atom_site_fract_z
 _atom_site_occupancy
  Na  Na0  1  0.00000000  0.00000000  0.00000000  1
  Na  Na1  1  0.75000000  0.25000000  0.50000000  1
  Bi  Bi0  1  0.25000000  0.75000000  0.50000000  1
  Bi  Bi1  1  0.50000000  0.50000000  0.00000000  1
  S  S0  1  0.48935900  0.98935900  0.50000000  1
  S  S1  1  0.01064100  0.51064100  0.50000000  1
  S  S2  1  0.73935900  0.73935900  0.00000000  1
  S  S3  1  0.26064100  0.26064100  0.00000000  1
loop_
_geom_bond_atom_site_label_1
_geom_bond_atom_site_label_2
_geom_bond_distance
_geom_bond_site_symmetry_2
Na0 S1 2.847755 1_555
Na0 S0 2.847755 1_444
Na0 S0 2.847755 1_545
Na0 S1 2.847755 1_544
Na0 S2 3.081426 1_445
Na0 S3 3.081426 1_555
Na1 S2 2.847755 1_556
Na1 S3 2.847755 1_555
Na1 S2 2.847755 1_545
Na1 S3 2.847755 1_656
Na1 S1 3.081426 1_655
Na1 S0 3.081426 1_545
Bi0 S0 2.829820 1_555
Bi0 S1 2.829820 1_555
Bi0 S2 2.847755 1_455
Bi0 S2 2.847755 1_556
Bi0 S3 2.847755 1_555
Bi0 S3 2.847755 1_566
Bi1 S2 2.829820 1_555
Bi1 S3 2.829820 1_555
Bi1 S1 2.847755 1_554
Bi1 S0 2.847755 1_544
Bi1 S1 2.847755 1_655
Bi1 S0 2.847755 1_555
