# generated using pymatgen
data_Ho(CrFe5)2
_symmetry_space_group_name_H-M   'P 1'
_cell_length_a   4.67471300
_cell_length_b   6.38185971
_cell_length_c   6.38185971
_cell_angle_alpha   97.32050683
_cell_angle_beta   111.48452895
_cell_angle_gamma   68.51547105
_symmetry_Int_Tables_number   1
_chemical_formula_structural   Ho(CrFe5)2
_chemical_formula_sum   'Ho1 Cr2 Fe10'
_cell_volume   164.84832368
_cell_formula_units_Z   1
loop_
 _symmetry_equiv_pos_site_id
 _symmetry_equiv_pos_as_xyz
  1  'x, y, z'
loop_
 _atom_site_type_symbol
 _atom_site_label
 _atom_site_symmetry_multiplicity
 _atom_site_fract_x
 _atom_site_fract_y
 _atom_site_fract_z
 _atom_site_occupancy
  Ho  Ho0  1  0.00000000  0.00000000  0.00000000  1
  Cr  Cr0  1  0.00000000  0.36770900  0.36770900  1
  Cr  Cr1  1  0.00000000  0.63229100  0.63229100  1
  Fe  Fe0  1  0.72518600  0.77481400  0.22518600  1
  Fe  Fe1  1  0.27481400  0.22518600  0.77481400  1
  Fe  Fe2  1  0.50000000  0.77213700  0.77213700  1
  Fe  Fe3  1  0.50000000  0.22786300  0.22786300  1
  Fe  Fe4  1  0.50000000  0.00000000  0.50000000  1
  Fe  Fe5  1  0.00000000  0.00000000  0.50000000  1
  Fe  Fe6  1  0.50000000  0.50000000  0.00000000  1
  Fe  Fe7  1  0.00000000  0.50000000  0.00000000  1
  Fe  Fe8  1  0.64096500  0.35903500  0.64096500  1
  Fe  Fe9  1  0.35903500  0.64096500  0.35903500  1
loop_
_geom_bond_atom_site_label_1
_geom_bond_atom_site_label_2
_geom_bond_distance
_geom_bond_site_symmetry_2
Cr0 Cr1 2.230618 1_555
Cr0 Fe0 2.555226 1_455
Cr0 Fe1 2.555226 1_555
Cr0 Fe7 2.593167 1_555
Cr0 Fe5 2.593167 1_555
Cr0 Fe6 2.593167 1_455
Cr0 Fe4 2.593167 1_555
Cr0 Fe3 2.617878 1_555
Cr0 Fe3 2.617878 1_455
Cr0 Fe8 2.845660 1_455
Cr0 Fe9 2.845660 1_555
Cr0 Fe8 2.845660 1_555
Cr0 Fe9 2.845660 1_455
Cr0 Ho0 3.100054 1_555
Cr1 Fe0 2.555226 1_455
Cr1 Fe1 2.555226 1_555
Cr1 Fe5 2.593167 1_565
Cr1 Fe7 2.593167 1_556
Cr1 Fe4 2.593167 1_465
Cr1 Fe6 2.593167 1_556
Cr1 Fe2 2.617878 1_455
Cr1 Fe2 2.617878 1_555
Cr1 Fe9 2.845660 1_555
Cr1 Fe8 2.845660 1_455
Cr1 Fe8 2.845660 1_555
Cr1 Fe9 2.845660 1_455
Cr1 Ho0 3.100054 1_566
Fe0 Fe4 2.418930 1_565
Fe0 Fe6 2.418930 1_555
Fe0 Fe7 2.418930 1_655
Fe0 Fe5 2.418930 1_665
Fe0 Fe9 2.591719 1_555
Fe0 Fe9 2.591720 1_655
Fe0 Fe3 2.690568 1_565
Fe0 Fe2 2.690568 1_554
Fe0 Ho0 3.001992 1_665
Fe0 Ho0 3.001992 1_565
Fe1 Fe6 2.418930 1_556
Fe1 Fe4 2.418930 1_555
Fe1 Fe5 2.418930 1_555
Fe1 Fe7 2.418930 1_556
Fe1 Fe8 2.591719 1_555
Fe1 Fe8 2.591720 1_455
Fe1 Fe3 2.690568 1_556
Fe1 Fe2 2.690568 1_545
Fe1 Ho0 3.001992 1_556
Fe1 Ho0 3.001992 1_656
Fe2 Fe4 2.403028 1_565
Fe2 Fe6 2.403028 1_556
Fe2 Fe7 2.403028 1_656
Fe2 Fe5 2.403028 1_565
Fe2 Fe8 2.579632 1_555
Fe2 Fe9 2.579632 1_555
Fe2 Ho0 3.025503 1_666
Fe2 Ho0 3.025503 1_566
Fe3 Fe4 2.403028 1_555
Fe3 Fe6 2.403028 1_555
Fe3 Fe5 2.403028 1_655
Fe3 Fe7 2.403028 1_555
Fe3 Fe8 2.579632 1_555
Fe3 Fe9 2.579632 1_555
Fe3 Ho0 3.025503 1_555
Fe3 Ho0 3.025503 1_655
Fe4 Fe5 2.337356 1_655
Fe4 Fe5 2.337356 1_555
Fe4 Fe8 2.576844 1_555
Fe4 Fe9 2.576844 1_545
Fe4 Ho0 3.190930 1_656
Fe4 Ho0 3.190930 1_555
Fe5 Fe8 2.576844 1_455
Fe5 Fe9 2.576844 1_545
Fe5 Ho0 3.190930 1_556
Fe5 Ho0 3.190930 1_555
Fe6 Fe7 2.337356 1_655
Fe6 Fe7 2.337356 1_555
Fe6 Fe8 2.576844 1_554
Fe6 Fe9 2.576844 1_555
Fe6 Ho0 3.190930 1_655
Fe6 Ho0 3.190930 1_565
Fe7 Fe8 2.576844 1_454
Fe7 Fe9 2.576844 1_555
Fe7 Ho0 3.190930 1_565
Fe7 Ho0 3.190930 1_555
Fe8 Fe9 2.358500 1_555
Fe8 Ho0 3.003526 1_656
Fe9 Ho0 3.003526 1_565
