# generated using pymatgen
data_Li3MnCoO5
_symmetry_space_group_name_H-M   'P 1'
_cell_length_a   6.56018435
_cell_length_b   6.56018435
_cell_length_c   9.90100672
_cell_angle_alpha   80.12956641
_cell_angle_beta   80.12956641
_cell_angle_gamma   25.97430407
_symmetry_Int_Tables_number   1
_chemical_formula_structural   Li3MnCoO5
_chemical_formula_sum   'Li6 Mn2 Co2 O10'
_cell_volume   183.70769815
_cell_formula_units_Z   2
loop_
 _symmetry_equiv_pos_site_id
 _symmetry_equiv_pos_as_xyz
  1  'x, y, z'
loop_
 _atom_site_type_symbol
 _atom_site_label
 _atom_site_symmetry_multiplicity
 _atom_site_fract_x
 _atom_site_fract_y
 _atom_site_fract_z
 _atom_site_occupancy
  Li  Li0  1  0.00000000  0.00000000  0.50000000  1
  Li  Li1  1  0.40517900  0.40517900  0.28142500  1
  Li  Li2  1  0.59482100  0.59482100  0.71857500  1
  Li  Li3  1  0.19096400  0.19096400  0.91765800  1
  Li  Li4  1  0.80903600  0.80903600  0.08234200  1
  Li  Li5  1  0.50000000  0.50000000  0.00000000  1
  Mn  Mn0  1  0.30118100  0.30118100  0.60268400  1
  Mn  Mn1  1  0.69881900  0.69881900  0.39731600  1
  Co  Co0  1  0.09033000  0.09033000  0.18458200  1
  Co  Co1  1  0.90967000  0.90967000  0.81541800  1
  O  O0  1  0.83794800  0.83794800  0.46658100  1
  O  O1  1  0.24358700  0.24358700  0.27500800  1
  O  O2  1  0.43619000  0.43619000  0.64902300  1
  O  O3  1  0.04511600  0.04511600  0.84185100  1
  O  O4  1  0.64980200  0.64980200  0.06365900  1
  O  O5  1  0.16205200  0.16205200  0.53341900  1
  O  O6  1  0.56381000  0.56381000  0.35097700  1
  O  O7  1  0.75641300  0.75641300  0.72499200  1
  O  O8  1  0.35019800  0.35019800  0.93634100  1
  O  O9  1  0.95488400  0.95488400  0.15814900  1
loop_
_geom_bond_atom_site_label_1
_geom_bond_atom_site_label_2
_geom_bond_distance
_geom_bond_site_symmetry_2
Li0 O6 2.143029 1_455
Li0 O2 2.143029 1_545
Li0 O2 2.143029 1_455
Li0 O6 2.143029 1_545
Li0 O0 2.154765 1_445
Li0 O5 2.154765 1_555
Li1 O9 1.947871 1_455
Li1 O9 1.947871 1_545
Li1 O1 2.078033 1_555
Li1 O6 2.253579 1_555
Li1 O0 2.391370 1_455
Li1 O0 2.391370 1_545
Li2 O3 1.947871 1_565
Li2 O3 1.947871 1_655
Li2 O7 2.078033 1_555
Li2 O2 2.253579 1_555
Li2 O5 2.391370 1_655
Li2 O5 2.391370 1_565
Li3 O4 2.066988 1_456
Li3 O4 2.066988 1_546
Li3 O8 2.076310 1_555
Li3 O3 2.128993 1_555
Li3 O7 2.439459 1_545
Li3 O7 2.439459 1_455
Li4 O8 2.066988 1_564
Li4 O8 2.066988 1_654
Li4 O4 2.076310 1_555
Li4 O9 2.128993 1_555
Li4 O1 2.439459 1_565
Li4 O1 2.439459 1_655
Li5 O4 2.118938 1_555
Li5 O8 2.118938 1_554
Li5 O3 2.154131 1_654
Li5 O3 2.154131 1_564
Li5 O9 2.154131 1_455
Li5 O9 2.154131 1_545
Mn0 O2 1.862365 1_555
Mn0 O7 1.929689 1_455
Mn0 O7 1.929689 1_545
Mn0 O0 1.996877 1_455
Mn0 O0 1.996877 1_545
Mn0 O5 2.015784 1_555
Mn1 O6 1.862365 1_555
Mn1 O1 1.929689 1_655
Mn1 O1 1.929689 1_565
Mn1 O5 1.996877 1_655
Mn1 O5 1.996877 1_565
Mn1 O0 2.015784 1_555
Co0 O9 1.796257 1_445
Co0 O4 1.965903 1_545
Co0 O4 1.965903 1_455
Co0 O6 2.192289 1_455
Co0 O6 2.192289 1_545
Co0 O1 2.293001 1_555
Co1 O3 1.796257 1_665
Co1 O8 1.965903 1_655
Co1 O8 1.965903 1_565
Co1 O2 2.192289 1_565
Co1 O2 2.192289 1_655
Co1 O7 2.293001 1_555
