# generated using pymatgen
data_Te2MoWSe2
_symmetry_space_group_name_H-M   'P 1'
_cell_length_a   3.43900415
_cell_length_b   3.43900415
_cell_length_c   39.10782400
_cell_angle_alpha   90.00000000
_cell_angle_beta   90.00000000
_cell_angle_gamma   120.00000287
_symmetry_Int_Tables_number   1
_chemical_formula_structural   Te2MoWSe2
_chemical_formula_sum   'Te4 Mo2 W2 Se4'
_cell_volume   400.55270668
_cell_formula_units_Z   2
loop_
 _symmetry_equiv_pos_site_id
 _symmetry_equiv_pos_as_xyz
  1  'x, y, z'
loop_
 _atom_site_type_symbol
 _atom_site_label
 _atom_site_symmetry_multiplicity
 _atom_site_fract_x
 _atom_site_fract_y
 _atom_site_fract_z
 _atom_site_occupancy
  Te  Te0  1  0.00000000  0.00000000  0.70523700  1
  Te  Te1  1  0.33333300  0.66666700  0.04651400  1
  Te  Te2  1  0.33333300  0.66666700  0.14135100  1
  Te  Te3  1  0.00000000  0.00000000  0.60982300  1
  Mo  Mo0  1  0.00000000  0.00000000  0.09390600  1
  Mo  Mo1  1  0.33333300  0.66666700  0.28178300  1
  W  W0  1  0.00000000  0.00000000  0.46963700  1
  W  W1  1  0.33333300  0.66666700  0.65755800  1
  Se  Se0  1  0.00000000  0.00000000  0.32367000  1
  Se  Se1  1  0.33333300  0.66666700  0.42768700  1
  Se  Se2  1  0.33333300  0.66666700  0.51160300  1
  Se  Se3  1  0.00000000  0.00000000  0.23998000  1
loop_
_geom_bond_atom_site_label_1
_geom_bond_atom_site_label_2
_geom_bond_distance
_geom_bond_site_symmetry_2
Te0 W1 2.723795 1_545
Te0 W1 2.723797 1_445
Te0 W1 2.723797 1_555
Te3 W1 2.725294 1_545
Te3 W1 2.725296 1_555
Te3 W1 2.725296 1_445
Mo0 Te1 2.716123 1_545
Mo0 Te1 2.716125 1_555
Mo0 Te1 2.716125 1_445
Mo0 Te2 2.717538 1_545
Mo0 Te2 2.717540 1_555
Mo0 Te2 2.717540 1_445
Mo1 Se3 2.571943 1_565
Mo1 Se3 2.571946 1_555
Mo1 Se3 2.571946 1_665
Mo1 Se0 2.574033 1_565
Mo1 Se0 2.574035 1_555
Mo1 Se0 2.574035 1_665
Se1 W0 2.575601 1_565
Se1 W0 2.575604 1_665
Se1 W0 2.575604 1_555
Se2 W0 2.576000 1_565
Se2 W0 2.576002 1_665
Se2 W0 2.576002 1_555
