# generated using pymatgen
data_MoW(SeS)2
_symmetry_space_group_name_H-M   'P 1'
_cell_length_a   3.25156261
_cell_length_b   3.25156261
_cell_length_c   36.90117900
_cell_angle_alpha   90.00000000
_cell_angle_beta   90.00000000
_cell_angle_gamma   120.00001244
_symmetry_Int_Tables_number   1
_chemical_formula_structural   MoW(SeS)2
_chemical_formula_sum   'Mo2 W2 Se4 S4'
_cell_volume   337.87422430
_cell_formula_units_Z   2
loop_
 _symmetry_equiv_pos_site_id
 _symmetry_equiv_pos_as_xyz
  1  'x, y, z'
loop_
 _atom_site_type_symbol
 _atom_site_label
 _atom_site_symmetry_multiplicity
 _atom_site_fract_x
 _atom_site_fract_y
 _atom_site_fract_z
 _atom_site_occupancy
  Mo  Mo0  1  0.33333300  0.66666700  0.09394300  1
  Mo  Mo1  1  0.66666700  0.33333300  0.90605700  1
  W  W0  1  0.33333300  0.66666700  0.71819400  1
  W  W1  1  0.66666700  0.33333300  0.28180600  1
  Se  Se0  1  0.33333300  0.66666700  0.95212000  1
  Se  Se1  1  0.66666700  0.33333300  0.04788000  1
  Se  Se2  1  0.66666700  0.33333300  0.14001700  1
  Se  Se3  1  0.33333300  0.66666700  0.85998300  1
  S  S0  1  0.33333300  0.66666700  0.32386800  1
  S  S1  1  0.66666700  0.33333300  0.67613200  1
  S  S2  1  0.66666700  0.33333300  0.76025100  1
  S  S3  1  0.33333300  0.66666700  0.23974900  1
loop_
_geom_bond_atom_site_label_1
_geom_bond_atom_site_label_2
_geom_bond_distance
_geom_bond_site_symmetry_2
Mo0 Se1 2.532481 1_455
Mo0 Se1 2.532481 1_565
Mo0 Se1 2.532486 1_555
Mo0 Se2 2.532754 1_455
Mo0 Se2 2.532754 1_565
Mo0 Se2 2.532758 1_555
Mo1 Se0 2.532481 1_545
Mo1 Se0 2.532481 1_655
Mo1 Se0 2.532486 1_555
Mo1 Se3 2.532754 1_545
Mo1 Se3 2.532754 1_655
Mo1 Se3 2.532758 1_555
S0 W1 2.435845 1_455
S0 W1 2.435845 1_565
S0 W1 2.435850 1_555
S1 W0 2.435845 1_545
S1 W0 2.435845 1_655
S1 W0 2.435850 1_555
S2 W0 2.435728 1_545
S2 W0 2.435728 1_655
S2 W0 2.435732 1_555
S3 W1 2.435728 1_455
S3 W1 2.435728 1_565
S3 W1 2.435732 1_555
