# generated using pymatgen
data_TmAlNi
_symmetry_space_group_name_H-M   'P 1'
_cell_length_a   6.82763977
_cell_length_b   6.82763977
_cell_length_c   3.84963543
_cell_angle_alpha   90.00000000
_cell_angle_beta   90.00000000
_cell_angle_gamma   120.00000181
_symmetry_Int_Tables_number   1
_chemical_formula_structural   TmAlNi
_chemical_formula_sum   'Tm3 Al3 Ni3'
_cell_volume   155.41446042
_cell_formula_units_Z   3
loop_
 _symmetry_equiv_pos_site_id
 _symmetry_equiv_pos_as_xyz
  1  'x, y, z'
loop_
 _atom_site_type_symbol
 _atom_site_label
 _atom_site_symmetry_multiplicity
 _atom_site_fract_x
 _atom_site_fract_y
 _atom_site_fract_z
 _atom_site_occupancy
  Tm  Tm0  1  0.00000000  0.41634789  0.50000000  1
  Tm  Tm1  1  0.58365211  0.58365211  0.50000000  1
  Tm  Tm2  1  0.41634789  0.00000000  0.50000000  1
  Al  Al0  1  -0.00000000  0.76441962  -0.00000000  1
  Al  Al1  1  0.23558038  0.23558038  -0.00000000  1
  Al  Al2  1  0.76441962  -0.00000000  0.00000000  1
  Ni  Ni0  1  0.33333300  0.66666700  0.00000000  1
  Ni  Ni1  1  0.66666700  0.33333300  -0.00000000  1
  Ni  Ni2  1  0.00000000  -0.00000000  0.50000000  1
loop_
_geom_bond_atom_site_label_1
_geom_bond_atom_site_label_2
_geom_bond_distance
_geom_bond_site_symmetry_2
Al0 Ni2 2.508398 1_565
Al0 Ni2 2.508398 1_564
Al0 Ni0 2.672833 1_555
Al0 Ni1 2.672837 1_455
Al0 Al1 2.785931 1_565
Al0 Al2 2.785931 1_465
Al0 Tm0 3.058221 1_555
Al0 Tm0 3.058221 1_554
Al0 Tm2 3.130580 1_564
Al0 Tm2 3.130580 1_565
Al0 Tm1 3.130580 1_455
Al0 Tm1 3.130580 1_454
Al1 Ni2 2.508398 1_555
Al1 Ni2 2.508398 1_554
Al1 Ni0 2.672839 1_555
Al1 Ni1 2.672839 1_555
Al1 Al2 2.785931 1_455
Al1 Tm1 3.058221 1_555
Al1 Tm1 3.058221 1_554
Al1 Tm0 3.130580 1_555
Al1 Tm0 3.130580 1_554
Al1 Tm2 3.130580 1_554
Al1 Tm2 3.130580 1_555
Al2 Ni2 2.508398 1_654
Al2 Ni2 2.508398 1_655
Al2 Ni1 2.672833 1_555
Al2 Ni0 2.672837 1_545
Al2 Tm2 3.058221 1_554
Al2 Tm2 3.058221 1_555
Al2 Tm0 3.130580 1_655
Al2 Tm0 3.130580 1_654
Al2 Tm1 3.130580 1_544
Al2 Tm1 3.130580 1_545
Ni0 Tm2 2.813511 1_564
Ni0 Tm2 2.813511 1_565
Ni0 Tm0 2.813512 1_555
Ni0 Tm0 2.813512 1_554
Ni0 Tm1 2.813515 1_555
Ni0 Tm1 2.813515 1_554
Ni1 Tm0 2.813511 1_655
Ni1 Tm0 2.813511 1_654
Ni1 Tm2 2.813512 1_555
Ni1 Tm2 2.813512 1_554
Ni1 Tm1 2.813515 1_555
Ni1 Tm1 2.813515 1_554
Ni2 Tm1 2.842673 1_445
Ni2 Tm2 2.842673 1_555
Ni2 Tm0 2.842673 1_555
