# generated using pymatgen
data_CaSi
_symmetry_space_group_name_H-M   'P 1'
_cell_length_a   3.90539621
_cell_length_b   4.55495478
_cell_length_c   5.81060279
_cell_angle_alpha   113.07600432
_cell_angle_beta   90.00000000
_cell_angle_gamma   90.00000000
_symmetry_Int_Tables_number   1
_chemical_formula_structural   CaSi
_chemical_formula_sum   'Ca2 Si2'
_cell_volume   95.09363507
_cell_formula_units_Z   2
loop_
 _symmetry_equiv_pos_site_id
 _symmetry_equiv_pos_as_xyz
  1  'x, y, z'
loop_
 _atom_site_type_symbol
 _atom_site_label
 _atom_site_symmetry_multiplicity
 _atom_site_fract_x
 _atom_site_fract_y
 _atom_site_fract_z
 _atom_site_occupancy
  Ca  Ca0  1  0.25000000  0.86148664  0.72297228  1
  Ca  Ca1  1  0.75000000  0.13851336  0.27702772  1
  Si  Si0  1  0.25000000  0.56844661  0.13689623  1
  Si  Si1  1  0.75000000  0.43155339  0.86310377  1
loop_
_geom_bond_atom_site_label_1
_geom_bond_atom_site_label_2
_geom_bond_distance
_geom_bond_site_symmetry_2
Ca0 Si1 3.092096 1_455
Ca0 Si1 3.092096 1_555
Ca0 Si1 3.092103 1_565
Ca0 Si1 3.092103 1_465
Ca0 Si0 3.132970 1_555
Ca0 Si0 3.175360 1_566
Ca0 Si0 3.175373 1_556
Ca1 Si0 3.092096 1_555
Ca1 Si0 3.092096 1_655
Ca1 Si0 3.092103 1_645
Ca1 Si0 3.092103 1_545
Ca1 Si1 3.132970 1_555
Ca1 Si1 3.175360 1_544
Ca1 Si1 3.175373 1_554
Si0 Si1 2.440321 1_454
Si0 Si1 2.440321 1_554
