# generated using pymatgen
data_GaB3N4
_symmetry_space_group_name_H-M   'P 1'
_cell_length_a   3.87371000
_cell_length_b   3.87371000
_cell_length_c   3.87371000
_cell_angle_alpha   90.00000000
_cell_angle_beta   90.00000000
_cell_angle_gamma   90.00000000
_symmetry_Int_Tables_number   1
_chemical_formula_structural   GaB3N4
_chemical_formula_sum   'Ga1 B3 N4'
_cell_volume   58.12745575
_cell_formula_units_Z   1
loop_
 _symmetry_equiv_pos_site_id
 _symmetry_equiv_pos_as_xyz
  1  'x, y, z'
loop_
 _atom_site_type_symbol
 _atom_site_label
 _atom_site_symmetry_multiplicity
 _atom_site_fract_x
 _atom_site_fract_y
 _atom_site_fract_z
 _atom_site_occupancy
  Ga  Ga0  1  0.00000000  0.00000000  0.00000000  1
  B  B0  1  0.50000000  0.50000000  0.00000000  1
  B  B1  1  0.50000000  0.00000000  0.50000000  1
  B  B2  1  0.00000000  0.50000000  0.50000000  1
  N  N0  1  0.72747600  0.72747600  0.27252400  1
  N  N1  1  0.72747600  0.27252400  0.72747600  1
  N  N2  1  0.27252400  0.72747600  0.72747600  1
  N  N3  1  0.27252400  0.27252400  0.27252400  1
loop_
_geom_bond_atom_site_label_1
_geom_bond_atom_site_label_2
_geom_bond_distance
_geom_bond_site_symmetry_2
Ga0 N1 1.828490 1_454
Ga0 N0 1.828490 1_445
Ga0 N2 1.828490 1_544
Ga0 N3 1.828490 1_555
B0 N3 1.633218 1_555
B0 N1 1.633218 1_554
B0 N2 1.633218 1_554
B0 N0 1.633218 1_555
B1 N3 1.633218 1_555
B1 N2 1.633218 1_545
B1 N1 1.633218 1_555
B1 N0 1.633218 1_545
B2 N3 1.633218 1_555
B2 N1 1.633218 1_455
B2 N2 1.633218 1_555
B2 N0 1.633218 1_455
