# generated using pymatgen
data_Lu4Mg(Te5O13)2
_symmetry_space_group_name_H-M   'P 1'
_cell_length_a   6.88367060
_cell_length_b   8.65010509
_cell_length_c   11.20757180
_cell_angle_alpha   89.73561605
_cell_angle_beta   88.40760862
_cell_angle_gamma   75.96785056
_symmetry_Int_Tables_number   1
_chemical_formula_structural   Lu4Mg(Te5O13)2
_chemical_formula_sum   'Lu4 Mg1 Te10 O26'
_cell_volume   647.18357946
_cell_formula_units_Z   1
loop_
 _symmetry_equiv_pos_site_id
 _symmetry_equiv_pos_as_xyz
  1  'x, y, z'
loop_
 _atom_site_type_symbol
 _atom_site_label
 _atom_site_symmetry_multiplicity
 _atom_site_fract_x
 _atom_site_fract_y
 _atom_site_fract_z
 _atom_site_occupancy
  Lu  Lu0  1  0.98906247  0.27377148  0.76428757  1
  Lu  Lu1  1  0.55277553  0.52836693  0.18552376  1
  Lu  Lu2  1  0.99945926  0.73547041  0.24716970  1
  Lu  Lu3  1  0.43647753  0.43124535  0.81217306  1
  Mg  Mg0  1  0.39015775  0.01558757  0.78346694  1
  Te  Te0  1  0.86107538  0.65130658  0.89657170  1
  Te  Te1  1  0.65491049  0.07516182  0.61170587  1
  Te  Te2  1  0.11812382  0.35529307  0.10595508  1
  Te  Te3  1  0.70317633  0.11550311  0.01246087  1
  Te  Te4  1  0.44708997  0.90229127  0.30333724  1
  Te  Te5  1  0.72487898  0.60408966  0.50805341  1
  Te  Te6  1  0.84141137  0.19734238  0.34495349  1
  Te  Te7  1  0.28068133  0.86702135  0.00378027  1
  Te  Te8  1  0.15889529  0.80133334  0.65525276  1
  Te  Te9  1  0.25235687  0.40281400  0.49060470  1
  O  O0  1  0.52629213  0.32168383  0.98894444  1
  O  O1  1  0.67590488  0.76553747  0.23071915  1
  O  O2  1  0.92652913  0.97961681  0.30434903  1
  O  O3  1  0.64999332  0.49199377  0.37971088  1
  O  O4  1  0.23540461  0.49964305  0.18787288  1
  O  O5  1  0.03400338  0.34507941  0.56911601  1
  O  O6  1  0.04349107  0.81565564  0.06263352  1
  O  O7  1  0.66023001  0.26465070  0.22055443  1
  O  O8  1  0.93057841  0.74149379  0.73543408  1
  O  O9  1  0.86566707  0.50899092  0.10744553  1
  O  O10  1  0.46535404  0.66948015  0.02207217  1
  O  O11  1  0.93625398  0.17036604  0.94310856  1
  O  O12  1  0.11308208  0.01718313  0.71015369  1
  O  O13  1  0.96295067  0.64275739  0.43374682  1
  O  O14  1  0.29600919  0.24597165  0.78400911  1
  O  O15  1  0.34748532  0.98761953  0.13548283  1
  O  O16  1  0.75304199  0.49997604  0.81616923  1
  O  O17  1  0.31189604  0.73760767  0.28870157  1
  O  O18  1  0.33001269  0.51463309  0.62011825  1
  O  O19  1  0.35947527  0.74699469  0.77113823  1
  O  O20  1  0.47156743  0.20139958  0.49127304  1
  O  O21  1  0.06830877  0.26563283  0.26762826  1
  O  O22  1  0.11833835  0.50693235  0.90284850  1
  O  O23  1  0.68782824  0.25634798  0.70316033  1
  O  O24  1  0.54766583  0.81204773  0.47785040  1
  O  O25  1  0.62395672  0.99124945  0.88921264  1
loop_
_geom_bond_atom_site_label_1
_geom_bond_atom_site_label_2
_geom_bond_distance
_geom_bond_site_symmetry_2
Lu0 O14 2.085710 1_655
Lu0 O23 2.241277 1_555
Lu0 O11 2.247103 1_555
Lu0 O12 2.255648 1_655
Lu0 O16 2.285333 1_555
Lu0 O5 2.302903 1_655
Lu0 O22 2.871814 1_655
Lu1 O10 2.211871 1_555
Lu1 O7 2.257133 1_555
Lu1 O4 2.257258 1_555
Lu1 O9 2.270334 1_555
Lu1 O3 2.292582 1_555
Lu1 O17 2.412455 1_555
Lu1 O1 2.461809 1_555
Lu1 O0 2.881022 1_554
Lu2 O2 2.145523 1_555
Lu2 O1 2.191738 1_555
Lu2 O6 2.214565 1_655
Lu2 O17 2.217559 1_655
Lu2 O13 2.265387 1_555
Lu2 O4 2.363631 1_655
Lu3 O14 2.091926 1_555
Lu3 O0 2.229817 1_555
Lu3 O23 2.324947 1_555
Lu3 O22 2.333348 1_555
Lu3 O18 2.346807 1_555
Lu3 O16 2.395408 1_555
Lu3 O19 2.692988 1_555
Mg0 O14 1.940380 1_555
Mg0 O25 1.994608 1_545
Mg0 O12 2.094597 1_555
Mg0 O19 2.388354 1_545
O0 Te3 1.921792 1_556
O1 Te4 1.891222 1_555
O2 Te6 1.885570 1_565
O3 Te5 1.889820 1_555
O3 Te6 2.595421 1_555
O4 Te2 1.895890 1_555
O5 Te9 1.889274 1_555
O6 Te7 1.894088 1_555
O7 Te6 1.890851 1_555
O7 Te3 2.644924 1_555
O8 Te8 1.964002 1_655
O8 Te0 2.054014 1_555
O9 Te2 1.914703 1_655
O10 Te7 1.880360 1_555
O11 Te3 1.923560 1_556
O12 Te8 1.917937 1_545
O13 Te5 1.917944 1_555
O13 Te9 2.595366 1_655
O15 Te7 1.939857 1_555
O15 Te4 2.089839 1_555
O16 Te0 1.897050 1_555
O17 Te4 1.890975 1_555
O18 Te9 1.906588 1_555
O18 Te8 2.501903 1_555
O19 Te8 1.895659 1_555
O20 Te1 2.004955 1_555
O20 Te9 2.009508 1_555
O21 Te6 1.976600 1_455
O21 Te2 2.020836 1_555
O22 Te0 1.906396 1_455
O22 Te2 2.622104 1_556
O23 Te1 1.938621 1_555
O24 Te5 1.947249 1_555
O24 Te4 2.170989 1_555
O25 Te3 1.923644 1_566
