# generated using pymatgen
data_AlSnRu2
_symmetry_space_group_name_H-M   'P 1'
_cell_length_a   10.78741621
_cell_length_b   10.78741621
_cell_length_c   10.78741621
_cell_angle_alpha   124.89146576
_cell_angle_beta   118.44115896
_cell_angle_gamma   87.23270146
_symmetry_Int_Tables_number   1
_chemical_formula_structural   AlSnRu2
_chemical_formula_sum   'Al1 Sn1 Ru2'
_cell_volume   860.54836273
_cell_formula_units_Z   1
loop_
 _symmetry_equiv_pos_site_id
 _symmetry_equiv_pos_as_xyz
  1  'x, y, z'
loop_
 _atom_site_type_symbol
 _atom_site_label
 _atom_site_symmetry_multiplicity
 _atom_site_fract_x
 _atom_site_fract_y
 _atom_site_fract_z
 _atom_site_occupancy
  Al  Al0  1  0.00000000  0.00000000  0.00000000  1
  Sn  Sn0  1  0.00000000  0.50000000  0.50000000  1
  Ru  Ru0  1  0.00000000  0.24384800  0.24384800  1
  Ru  Ru1  1  0.00000000  0.75615200  0.75615200  1
loop_
_geom_bond_atom_site_label_1
_geom_bond_atom_site_label_2
_geom_bond_distance
_geom_bond_site_symmetry_2
Al0 Ru1 2.433669 1_544
Al0 Ru0 2.433669 1_555
Ru0 Sn0 2.556466 1_555
Ru1 Sn0 2.556466 1_555
