# generated using pymatgen
data_Hf(PS3)2
_symmetry_space_group_name_H-M   'P 1'
_cell_length_a   12.25349850
_cell_length_b   11.55960462
_cell_length_c   6.96511374
_cell_angle_alpha   78.55776102
_cell_angle_beta   67.58144585
_cell_angle_gamma   33.86838748
_symmetry_Int_Tables_number   1
_chemical_formula_structural   Hf(PS3)2
_chemical_formula_sum   'Hf2 P4 S12'
_cell_volume   494.67692273
_cell_formula_units_Z   2
loop_
 _symmetry_equiv_pos_site_id
 _symmetry_equiv_pos_as_xyz
  1  'x, y, z'
loop_
 _atom_site_type_symbol
 _atom_site_label
 _atom_site_symmetry_multiplicity
 _atom_site_fract_x
 _atom_site_fract_y
 _atom_site_fract_z
 _atom_site_occupancy
  Hf  Hf0  1  0.85093757  0.84925927  0.15023294  1
  Hf  Hf1  1  0.09971877  0.10057055  0.40041422  1
  P  P0  1  0.51723107  0.85827645  0.35973517  1
  P  P1  1  0.89156263  0.98362663  0.73263022  1
  P  P2  1  0.98538425  0.88998647  0.39261192  1
  P  P3  1  0.85691263  0.51819223  0.26616113  1
  S  S0  1  0.13992366  0.71751780  0.81163755  1
  S  S1  1  0.71890411  0.13832116  0.33176533  1
  S  S2  1  0.52009202  0.01731657  0.43219324  1
  S  S3  1  0.01679406  0.52011519  0.03120937  1
  S  S4  1  0.21948132  0.81793707  0.23313700  1
  S  S5  1  0.81849594  0.21843542  0.73081088  1
  S  S6  1  0.90360217  0.32750576  0.15351478  1
  S  S7  1  0.32616103  0.90541246  0.61666569  1
  S  S8  1  0.63494022  0.09611193  0.92342334  1
  S  S9  1  0.09833647  0.63309835  0.34572259  1
  S  S10  1  0.43811449  0.91955221  0.11128193  1
  S  S11  1  0.91803460  0.43922548  0.53245770  1
loop_
_geom_bond_atom_site_label_1
_geom_bond_atom_site_label_2
_geom_bond_distance
_geom_bond_site_symmetry_2
Hf0 S3 2.533643 1_655
Hf0 S2 2.535419 1_565
Hf0 S8 2.549903 1_564
Hf0 S9 2.550867 1_655
Hf0 S1 2.553422 1_565
Hf0 S0 2.553483 1_654
Hf1 S5 2.534847 1_455
Hf1 S4 2.535614 1_545
Hf1 S7 2.549827 1_545
Hf1 S6 2.550951 1_455
Hf1 S11 2.553640 1_455
Hf1 S10 2.553782 1_545
P0 S7 2.013355 1_555
P0 S10 2.022164 1_555
P0 S2 2.030872 1_565
P1 S8 2.013213 1_565
P1 S0 2.021526 1_655
P1 S5 2.031880 1_565
P2 S9 2.013738 1_655
P2 S1 2.022180 1_565
P2 S4 2.031055 1_655
P3 S6 2.012775 1_555
P3 S11 2.021610 1_555
P3 S3 2.032030 1_655
