# generated using pymatgen
data_Na4PuH7O9
_symmetry_space_group_name_H-M   'P 1'
_cell_length_a   6.04539800
_cell_length_b   8.16824958
_cell_length_c   11.03313064
_cell_angle_alpha   104.48536535
_cell_angle_beta   101.58729841
_cell_angle_gamma   105.60889814
_symmetry_Int_Tables_number   1
_chemical_formula_structural   Na4PuH7O9
_chemical_formula_sum   'Na8 Pu2 H14 O18'
_cell_volume   486.58610347
_cell_formula_units_Z   2
loop_
 _symmetry_equiv_pos_site_id
 _symmetry_equiv_pos_as_xyz
  1  'x, y, z'
loop_
 _atom_site_type_symbol
 _atom_site_label
 _atom_site_symmetry_multiplicity
 _atom_site_fract_x
 _atom_site_fract_y
 _atom_site_fract_z
 _atom_site_occupancy
  Na  Na0  1  0.79231700  0.53569100  0.58489000  1
  Na  Na1  1  0.20768300  0.46430900  0.41511000  1
  Na  Na2  1  0.94291300  0.65839000  0.92273400  1
  Na  Na3  1  0.05708700  0.34161000  0.07726600  1
  Na  Na4  1  0.47697400  0.28114400  0.90660000  1
  Na  Na5  1  0.52302600  0.71885600  0.09340000  1
  Na  Na6  1  0.38469900  0.15030300  0.57742500  1
  Na  Na7  1  0.61530100  0.84969700  0.42257500  1
  Pu  Pu0  1  0.36519200  0.58726800  0.75134800  1
  Pu  Pu1  1  0.63480800  0.41273200  0.24865200  1
  H  H0  1  0.56929300  0.82326600  0.62841400  1
  H  H1  1  0.43070700  0.17673400  0.37158600  1
  H  H2  1  0.08279900  0.36008800  0.84975200  1
  H  H3  1  0.91720100  0.63991200  0.15024800  1
  H  H4  1  0.84005800  0.17879300  0.62075300  1
  H  H5  1  0.15994200  0.82120700  0.37924700  1
  H  H6  1  0.75797100  0.11244100  0.78889900  1
  H  H7  1  0.24202900  0.88755900  0.21110100  1
  H  H8  1  0.70751700  0.01611500  0.89493300  1
  H  H9  1  0.29248300  0.98388500  0.10506700  1
  H  H10  1  0.17728800  0.93147200  0.73104200  1
  H  H11  1  0.82271200  0.06852800  0.26895800  1
  H  H12  1  0.01294400  0.04437800  0.68965500  1
  H  H13  1  0.98705600  0.95562200  0.31034500  1
  O  O0  1  0.15112600  0.72206400  0.75757100  1
  O  O1  1  0.84887400  0.27793600  0.24242900  1
  O  O2  1  0.60565400  0.77506600  0.89360500  1
  O  O3  1  0.39434600  0.22493400  0.10639500  1
  O  O4  1  0.57814300  0.44897900  0.74729600  1
  O  O5  1  0.42185700  0.55102100  0.25270400  1
  O  O6  1  0.12338100  0.39555200  0.61241100  1
  O  O7  1  0.87661900  0.60444800  0.38758900  1
  O  O8  1  0.50626000  0.69202400  0.59521600  1
  O  O9  1  0.49374000  0.30797600  0.40478400  1
  O  O10  1  0.21512500  0.46880400  0.90416200  1
  O  O11  1  0.78487500  0.53119600  0.09583800  1
  O  O12  1  0.75532100  0.07365900  0.64136200  1
  O  O13  1  0.24467900  0.92634100  0.35863800  1
  O  O14  1  0.76221900  0.13612900  0.88600000  1
  O  O15  1  0.23778100  0.86387100  0.11400000  1
  O  O16  1  0.18579700  0.04748200  0.71711800  1
  O  O17  1  0.81420300  0.95251800  0.28288200  1
loop_
_geom_bond_atom_site_label_1
_geom_bond_atom_site_label_2
_geom_bond_distance
_geom_bond_site_symmetry_2
Na0 O9 2.360046 1_555
Na0 O0 2.400909 1_655
Na0 O8 2.414319 1_555
Na0 O7 2.493406 1_555
Na0 O4 2.542087 1_555
Na0 O6 2.563356 1_655
Na1 O8 2.360046 1_555
Na1 O1 2.400909 1_455
Na1 O9 2.414319 1_555
Na1 O6 2.493406 1_555
Na1 O5 2.542087 1_555
Na1 O7 2.563356 1_455
Na2 O15 2.356862 1_656
Na2 O2 2.470668 1_555
Na2 O4 2.476781 1_555
Na2 O0 2.493760 1_655
Na2 O10 2.548787 1_655
Na2 O11 2.613690 1_556
Na3 O14 2.356862 1_454
Na3 O3 2.470668 1_555
Na3 O5 2.476781 1_555
Na3 O1 2.493760 1_455
Na3 O11 2.548787 1_455
Na3 O10 2.613690 1_554
Na4 O14 2.355915 1_555
Na4 O16 2.414431 1_555
Na4 O3 2.478869 1_556
Na4 O10 2.483042 1_555
Na4 O11 2.501049 1_556
Na4 O4 2.555144 1_555
Na5 O15 2.355915 1_555
Na5 O17 2.414431 1_555
Na5 O2 2.478869 1_554
Na5 O11 2.483042 1_555
Na5 O10 2.501049 1_554
Na5 O5 2.555144 1_555
Na6 O16 2.318469 1_555
Na6 O13 2.454949 1_545
Na6 O4 2.475672 1_555
Na6 O12 2.500099 1_555
Na6 O9 2.645030 1_555
Na6 O6 2.866859 1_555
Na7 O17 2.318469 1_555
Na7 O12 2.454949 1_565
Na7 O5 2.475672 1_555
Na7 O13 2.500099 1_555
Na7 O8 2.645030 1_555
Na7 O7 2.866859 1_555
H0 O8 0.977882 1_555
H0 Na7 2.397573 1_555
H1 O9 0.977882 1_555
H1 Na6 2.397573 1_555
H2 O10 0.973143 1_555
H2 Na3 2.584891 1_556
H3 O11 0.973143 1_555
H3 Na2 2.584891 1_554
H4 O12 0.979456 1_555
H4 Na6 2.632809 1_555
H5 O13 0.979456 1_555
H5 Na7 2.632809 1_555
H6 O14 1.033641 1_555
H6 O12 1.574532 1_555
H7 O15 1.033641 1_555
H7 O13 1.574532 1_555
H8 O14 0.983383 1_555
H9 O15 0.983383 1_555
H10 O16 0.986894 1_565
H11 O17 0.986894 1_545
H12 O16 1.019367 1_555
H12 O12 1.642422 1_455
H13 O17 1.019367 1_555
H13 O13 1.642422 1_655
O0 Pu0 1.912174 1_555
O1 Pu1 1.912174 1_555
O2 Pu0 1.899661 1_555
O3 Pu1 1.899661 1_555
O4 Pu0 1.927613 1_555
O5 Pu1 1.927613 1_555
O6 Pu0 1.898969 1_555
O7 Pu1 1.898969 1_555
O8 Pu0 2.315547 1_555
O9 Pu1 2.315547 1_555
O10 Pu0 2.358017 1_555
O11 Pu1 2.358017 1_555
