# generated using pymatgen
data_Ca2LaNdMn4O12
_symmetry_space_group_name_H-M   'P 1'
_cell_length_a   7.69088100
_cell_length_b   5.48061100
_cell_length_c   5.49530336
_cell_angle_alpha   89.89422495
_cell_angle_beta   90.00000000
_cell_angle_gamma   90.00000000
_symmetry_Int_Tables_number   1
_chemical_formula_structural   Ca2LaNdMn4O12
_chemical_formula_sum   'Ca2 La1 Nd1 Mn4 O12'
_cell_volume   231.63063722
_cell_formula_units_Z   1
loop_
 _symmetry_equiv_pos_site_id
 _symmetry_equiv_pos_as_xyz
  1  'x, y, z'
loop_
 _atom_site_type_symbol
 _atom_site_label
 _atom_site_symmetry_multiplicity
 _atom_site_fract_x
 _atom_site_fract_y
 _atom_site_fract_z
 _atom_site_occupancy
  Ca  Ca0  1  0.50000000  0.49410700  0.53404600  1
  Ca  Ca1  1  0.00000000  0.99436300  0.96714000  1
  La  La0  1  0.00000000  0.50668200  0.47254800  1
  Nd  Nd0  1  0.50000000  0.00723900  0.03542500  1
  Mn  Mn0  1  0.25139300  0.00008700  0.50127800  1
  Mn  Mn1  1  0.74917700  0.50043900  0.99915100  1
  Mn  Mn2  1  0.74860700  0.00008700  0.50127800  1
  Mn  Mn3  1  0.25082300  0.50043900  0.99915100  1
  O  O0  1  0.21189300  0.78606800  0.21396400  1
  O  O1  1  0.78501000  0.71701900  0.71662400  1
  O  O2  1  0.71122800  0.21594800  0.78443500  1
  O  O3  1  0.29244400  0.28300400  0.28279800  1
  O  O4  1  0.28877200  0.21594800  0.78443500  1
  O  O5  1  0.70755600  0.28300400  0.28279800  1
  O  O6  1  0.78810700  0.78606800  0.21396400  1
  O  O7  1  0.21499000  0.71701900  0.71662400  1
  O  O8  1  0.50000000  0.92391300  0.48181300  1
  O  O9  1  0.50000000  0.57576000  0.98412700  1
  O  O10  1  0.00000000  0.06799500  0.51614900  1
  O  O11  1  0.00000000  0.42480700  0.01225300  1
loop_
_geom_bond_atom_site_label_1
_geom_bond_atom_site_label_2
_geom_bond_distance
_geom_bond_site_symmetry_2
Ca0 O8 2.372497 1_555
Ca0 O5 2.408093 1_555
Ca0 O3 2.408093 1_555
Ca0 O9 2.514303 1_555
Ca0 O2 2.616996 1_555
Ca0 O4 2.616996 1_555
Ca0 O7 2.703421 1_555
Ca0 O1 2.703421 1_555
Ca1 O11 2.372541 1_566
Ca1 O6 2.406862 1_456
Ca1 O0 2.406862 1_556
Ca1 O10 2.510237 1_565
Ca1 O1 2.635774 1_455
Ca1 O7 2.635774 1_555
Ca1 O4 2.722282 1_565
Ca1 O2 2.722282 1_465
La0 O10 2.415742 1_555
La0 O1 2.422302 1_455
La0 O7 2.422302 1_555
La0 O11 2.569770 1_555
La0 O6 2.647930 1_455
La0 O0 2.647930 1_555
La0 O3 2.766498 1_555
La0 O5 2.766498 1_455
Nd0 O9 2.382028 1_544
Nd0 O2 2.417446 1_554
Nd0 O4 2.417446 1_554
Nd0 O8 2.494356 1_545
Nd0 O3 2.586092 1_555
Nd0 O5 2.586092 1_555
Nd0 O6 2.708742 1_545
Nd0 O0 2.708742 1_545
Mn0 O8 1.960017 1_545
Mn0 O7 1.969472 1_545
Mn0 O10 1.970653 1_555
Mn0 O4 1.977445 1_555
Mn0 O3 1.984568 1_555
Mn0 O0 1.991935 1_545
Mn1 O9 1.962053 1_555
Mn1 O1 1.971946 1_555
Mn1 O11 1.974367 1_656
Mn1 O2 1.978703 1_555
Mn1 O6 1.985070 1_556
Mn1 O5 1.986285 1_556
Mn2 O8 1.960017 1_545
Mn2 O1 1.969472 1_545
Mn2 O10 1.970653 1_655
Mn2 O2 1.977445 1_555
Mn2 O5 1.984568 1_555
Mn2 O6 1.991935 1_545
Mn3 O9 1.962053 1_555
Mn3 O7 1.971946 1_555
Mn3 O11 1.974367 1_556
Mn3 O4 1.978703 1_555
Mn3 O0 1.985070 1_556
Mn3 O3 1.986285 1_556
