# generated using pymatgen
data_TiCrAgS4
_symmetry_space_group_name_H-M   'P 1'
_cell_length_a   7.17163500
_cell_length_b   11.77196500
_cell_length_c   12.47933189
_cell_angle_alpha   90.84945140
_cell_angle_beta   92.23756070
_cell_angle_gamma   90.83229529
_symmetry_Int_Tables_number   1
_chemical_formula_structural   TiCrAgS4
_chemical_formula_sum   'Ti8 Cr8 Ag8 S32'
_cell_volume   1052.51877046
_cell_formula_units_Z   8
loop_
 _symmetry_equiv_pos_site_id
 _symmetry_equiv_pos_as_xyz
  1  'x, y, z'
loop_
 _atom_site_type_symbol
 _atom_site_label
 _atom_site_symmetry_multiplicity
 _atom_site_fract_x
 _atom_site_fract_y
 _atom_site_fract_z
 _atom_site_occupancy
  Ti  Ti0  1  0.87277800  0.85731000  0.69512700  1
  Ti  Ti1  1  0.15209700  0.12036700  0.19658500  1
  Ti  Ti2  1  0.73340100  0.58787500  0.14398100  1
  Ti  Ti3  1  0.16600700  0.38136900  0.70163800  1
  Ti  Ti4  1  0.58618700  0.10661900  0.83654400  1
  Ti  Ti5  1  0.43258600  0.60236600  0.84588200  1
  Ti  Ti6  1  0.56493500  0.39642900  0.34683800  1
  Ti  Ti7  1  0.45212200  0.14096900  0.48195200  1
  Cr  Cr0  1  0.37106000  0.87094500  0.33840000  1
  Cr  Cr1  1  0.60714500  0.85302600  0.93579500  1
  Cr  Cr2  1  0.59419900  0.65304900  0.43626100  1
  Cr  Cr3  1  0.43035900  0.35517100  0.97476800  1
  Cr  Cr4  1  0.11902400  0.83357300  0.10042600  1
  Cr  Cr5  1  0.92677200  0.13482800  0.46203600  1
  Cr  Cr6  1  0.08313700  0.64263600  0.45434700  1
  Cr  Cr7  1  0.93523800  0.35810400  0.96963900  1
  Ag  Ag0  1  0.27092500  0.91616200  0.64315500  1
  Ag  Ag1  1  0.64177800  0.10987100  0.16698000  1
  Ag  Ag2  1  0.27701900  0.60924900  0.14366300  1
  Ag  Ag3  1  0.74538500  0.41246100  0.66332900  1
  Ag  Ag4  1  0.85754100  0.89321600  0.27820000  1
  Ag  Ag5  1  0.14968000  0.11243100  0.79386500  1
  Ag  Ag6  1  0.86103400  0.61736700  0.80182600  1
  Ag  Ag7  1  0.14534700  0.37964200  0.30086700  1
  S  S0  1  0.83283700  0.97501000  0.86169100  1
  S  S1  1  0.18475000  0.03362900  0.38532000  1
  S  S2  1  0.81569800  0.53556500  0.34834300  1
  S  S3  1  0.18127300  0.47740100  0.89170700  1
  S  S4  1  0.36416600  0.95954400  0.16918500  1
  S  S5  1  0.52587000  0.06416500  0.65100600  1
  S  S6  1  0.44690600  0.51216700  0.68400100  1
  S  S7  1  0.49944700  0.44615600  0.15513100  1
  S  S8  1  0.37975800  0.99219500  0.91168700  1
  S  S9  1  0.65293200  0.00775700  0.40494600  1
  S  S10  1  0.35281400  0.51108000  0.42251000  1
  S  S11  1  0.66910400  0.50411600  0.94521700  1
  S  S12  1  0.93772300  0.99539600  0.10860300  1
  S  S13  1  0.96836000  0.02524100  0.62043300  1
  S  S14  1  0.02546000  0.52335500  0.60754600  1
  S  S15  1  0.98638500  0.47225500  0.12937500  1
  S  S16  1  0.83713400  0.75545100  0.51980200  1
  S  S17  1  0.18007800  0.24003000  0.03737300  1
  S  S18  1  0.83632600  0.74129800  0.03154400  1
  S  S19  1  0.18570100  0.25293200  0.54415900  1
  S  S20  1  0.34900900  0.76468700  0.49905100  1
  S  S21  1  0.68126800  0.22967600  0.00089000  1
  S  S22  1  0.34655400  0.74026200  0.99202200  1
  S  S23  1  0.69297200  0.28411000  0.49717400  1
  S  S24  1  0.11427900  0.76009000  0.75636700  1
  S  S25  1  0.91626700  0.21632700  0.28918600  1
  S  S26  1  0.12458000  0.74822400  0.28160900  1
  S  S27  1  0.91843600  0.28132500  0.79164900  1
  S  S28  1  0.58733600  0.76597400  0.77062100  1
  S  S29  1  0.42109700  0.22755600  0.29171400  1
  S  S30  1  0.59228100  0.73648900  0.27357200  1
  S  S31  1  0.41744400  0.27550000  0.80246500  1
loop_
_geom_bond_atom_site_label_1
_geom_bond_atom_site_label_2
_geom_bond_distance
_geom_bond_site_symmetry_2
Cr0 S26 2.347681 1_555
Cr0 S4 2.368152 1_555
Cr0 S20 2.387955 1_555
Cr0 S30 2.410816 1_555
Cr0 S1 2.428572 1_565
Cr0 S9 2.665441 1_565
Cr1 S28 2.286791 1_555
Cr1 S8 2.342592 1_555
Cr1 S0 2.371877 1_555
Cr1 S22 2.409372 1_555
Cr1 S18 2.411457 1_556
Cr2 S30 2.268097 1_555
Cr2 S16 2.309836 1_555
Cr2 S20 2.361635 1_555
Cr2 S10 2.388217 1_555
Cr2 S2 2.407235 1_555
Cr3 S31 2.331053 1_555
Cr3 S21 2.360592 1_556
Cr3 S17 2.395738 1_556
Cr3 S11 2.474507 1_555
Cr3 S7 2.506961 1_556
Cr3 S3 2.512010 1_555
Cr4 S12 2.325184 1_455
Cr4 S4 2.407258 1_555
Cr4 S18 2.408630 1_455
Cr4 S22 2.424815 1_554
Cr4 S26 2.486938 1_555
Cr5 S25 2.372715 1_555
Cr5 S13 2.387728 1_555
Cr5 S1 2.434595 1_655
Cr5 S19 2.483076 1_655
Cr5 S23 2.492412 1_555
Cr5 S9 2.525044 1_555
Cr6 S16 2.385778 1_455
Cr6 S20 2.413461 1_555
Cr6 S14 2.433584 1_555
Cr6 S26 2.529609 1_555
Cr6 S10 2.534850 1_555
Cr6 S2 2.588338 1_455
Cr7 S27 2.383604 1_555
Cr7 S17 2.391553 1_656
Cr7 S21 2.397532 1_556
Cr7 S15 2.400645 1_556
Cr7 S3 2.476677 1_655
Cr7 S11 2.599145 1_555
Ag0 S5 2.505297 1_565
Ag0 S13 2.545850 1_465
Ag0 S20 2.596106 1_555
Ag0 S24 2.602804 1_555
Ag1 S21 2.546807 1_555
Ag1 S4 2.645671 1_545
Ag1 S12 2.650675 1_545
Ag1 S29 2.653143 1_555
Ag1 S25 2.721883 1_555
Ag2 S7 2.516041 1_555
Ag2 S22 2.519184 1_554
Ag2 S15 2.615674 1_455
Ag2 S26 2.636394 1_555
Ag2 S30 3.086597 1_555
Ag3 S6 2.476577 1_555
Ag3 S14 2.506629 1_655
Ag3 S27 2.541930 1_555
Ag3 S23 2.559962 1_555
Ag4 S12 2.531275 1_555
Ag4 S9 2.578485 1_565
Ag4 S26 2.583312 1_655
Ag4 S30 2.629169 1_555
Ag4 S1 3.098820 1_665
Ag5 S27 2.607275 1_455
Ag5 S8 2.613049 1_545
Ag5 S13 2.665387 1_455
Ag5 S31 2.693478 1_555
Ag5 S0 2.929282 1_445
Ag6 S24 2.542291 1_655
Ag6 S11 2.661540 1_555
Ag6 S28 2.669294 1_555
Ag6 S14 2.945343 1_655
Ag6 S3 3.034974 1_655
Ag7 S25 2.509518 1_455
Ag7 S10 2.568924 1_555
Ag7 S15 2.642553 1_455
Ag7 S29 2.691404 1_555
Ag7 S2 3.084221 1_455
S0 Ti4 2.382947 1_565
S0 Ti0 2.508997 1_555
S1 Ti7 2.536050 1_555
S1 Ti1 2.584569 1_555
S2 Ti6 2.414153 1_555
S2 Ti2 2.677903 1_555
S3 Ti5 2.401644 1_555
S3 Ti3 2.610110 1_555
S4 Ti1 2.473718 1_565
S5 Ti7 2.351863 1_555
S5 Ti4 2.383090 1_555
S6 Ti5 2.274829 1_555
S6 Ti3 2.536151 1_555
S7 Ti2 2.358292 1_555
S7 Ti6 2.499697 1_555
S8 Ti4 2.230100 1_565
S9 Ti7 2.363392 1_555
S10 Ti6 2.271920 1_555
S11 Ti5 2.384720 1_555
S11 Ti2 2.676265 1_556
S12 Ti1 2.342654 1_665
S13 Ti0 2.304769 1_545
S14 Ti3 2.281053 1_555
S15 Ti2 2.295141 1_555
S16 Ti0 2.481904 1_555
S17 Ti1 2.465387 1_555
S18 Ti2 2.427529 1_555
S19 Ti3 2.471411 1_555
S19 Ti7 2.479749 1_555
S21 Ti4 2.558084 1_554
S22 Ti5 2.524079 1_555
S23 Ti7 2.395691 1_555
S23 Ti6 2.466868 1_555
S24 Ti0 2.207647 1_455
S24 Ti5 3.145139 1_555
S25 Ti1 2.375153 1_655
S27 Ti3 2.436254 1_655
S27 Ti4 3.196444 1_555
S28 Ti5 2.428198 1_555
S28 Ti0 2.520097 1_555
S29 Ti6 2.309503 1_555
S29 Ti1 2.535596 1_555
S29 Ti7 2.600317 1_555
S30 Ti2 2.606849 1_555
S31 Ti4 2.377504 1_555
S31 Ti3 2.514484 1_555
