# generated using pymatgen
data_NaSbN2
_symmetry_space_group_name_H-M   'P 1'
_cell_length_a   5.68328200
_cell_length_b   11.46259500
_cell_length_c   15.76866400
_cell_angle_alpha   90.00000000
_cell_angle_beta   90.00000000
_cell_angle_gamma   90.00000000
_symmetry_Int_Tables_number   1
_chemical_formula_structural   NaSbN2
_chemical_formula_sum   'Na16 Sb16 N32'
_cell_volume   1027.25213669
_cell_formula_units_Z   16
loop_
 _symmetry_equiv_pos_site_id
 _symmetry_equiv_pos_as_xyz
  1  'x, y, z'
loop_
 _atom_site_type_symbol
 _atom_site_label
 _atom_site_symmetry_multiplicity
 _atom_site_fract_x
 _atom_site_fract_y
 _atom_site_fract_z
 _atom_site_occupancy
  Na  Na0  1  0.27486100  0.00014900  0.44310100  1
  Na  Na1  1  0.77486100  0.49985100  0.55689900  1
  Na  Na2  1  0.72513900  0.50014900  0.05689900  1
  Na  Na3  1  0.22513900  0.99985100  0.94310100  1
  Na  Na4  1  0.72513900  0.99985100  0.55689900  1
  Na  Na5  1  0.22513900  0.50014900  0.44310100  1
  Na  Na6  1  0.27486100  0.49985100  0.94310100  1
  Na  Na7  1  0.77486100  0.00014900  0.05689900  1
  Na  Na8  1  0.27103100  0.27914500  0.31263300  1
  Na  Na9  1  0.77103100  0.22085500  0.68736700  1
  Na  Na10  1  0.72896900  0.77914500  0.18736700  1
  Na  Na11  1  0.22896900  0.72085500  0.81263300  1
  Na  Na12  1  0.72896900  0.72085500  0.68736700  1
  Na  Na13  1  0.22896900  0.77914500  0.31263300  1
  Na  Na14  1  0.27103100  0.22085500  0.81263300  1
  Na  Na15  1  0.77103100  0.27914500  0.18736700  1
  Sb  Sb0  1  0.78439400  0.01680500  0.31121500  1
  Sb  Sb1  1  0.28439400  0.48319500  0.68878500  1
  Sb  Sb2  1  0.21560600  0.51680500  0.18878500  1
  Sb  Sb3  1  0.71560600  0.98319500  0.81121500  1
  Sb  Sb4  1  0.21560600  0.98319500  0.68878500  1
  Sb  Sb5  1  0.71560600  0.51680500  0.31121500  1
  Sb  Sb6  1  0.78439400  0.48319500  0.81121500  1
  Sb  Sb7  1  0.28439400  0.01680500  0.18878500  1
  Sb  Sb8  1  0.76098600  0.26799200  0.43487400  1
  Sb  Sb9  1  0.26098600  0.23200800  0.56512600  1
  Sb  Sb10  1  0.23901400  0.76799200  0.06512600  1
  Sb  Sb11  1  0.73901400  0.73200800  0.93487400  1
  Sb  Sb12  1  0.23901400  0.73200800  0.56512600  1
  Sb  Sb13  1  0.73901400  0.76799200  0.43487400  1
  Sb  Sb14  1  0.76098600  0.23200800  0.93487400  1
  Sb  Sb15  1  0.26098600  0.26799200  0.06512600  1
  N  N0  1  0.01863400  0.33382600  0.50907300  1
  N  N1  1  0.51863400  0.16617400  0.49092700  1
  N  N2  1  0.98136600  0.83382600  0.99092700  1
  N  N3  1  0.48136600  0.66617400  0.00907300  1
  N  N4  1  0.98136600  0.66617400  0.49092700  1
  N  N5  1  0.48136600  0.83382600  0.50907300  1
  N  N6  1  0.01863400  0.16617400  0.00907300  1
  N  N7  1  0.51863400  0.33382600  0.99092700  1
  N  N8  1  0.58680700  0.41360700  0.40346300  1
  N  N9  1  0.08680700  0.08639300  0.59653700  1
  N  N10  1  0.41319300  0.91360700  0.09653700  1
  N  N11  1  0.91319300  0.58639300  0.90346300  1
  N  N12  1  0.41319300  0.58639300  0.59653700  1
  N  N13  1  0.91319300  0.91360700  0.40346300  1
  N  N14  1  0.58680700  0.08639300  0.90346300  1
  N  N15  1  0.08680700  0.41360700  0.09653700  1
  N  N16  1  0.88466500  0.18356200  0.33171700  1
  N  N17  1  0.38466500  0.31643800  0.66828300  1
  N  N18  1  0.11533500  0.68356200  0.16828300  1
  N  N19  1  0.61533500  0.81643800  0.83171700  1
  N  N20  1  0.11533500  0.81643800  0.66828300  1
  N  N21  1  0.61533500  0.68356200  0.33171700  1
  N  N22  1  0.88466500  0.31643800  0.83171700  1
  N  N23  1  0.38466500  0.18356200  0.16828300  1
  N  N24  1  0.55842500  0.47553800  0.20060000  1
  N  N25  1  0.05842500  0.02446200  0.79940000  1
  N  N26  1  0.44157500  0.97553800  0.29940000  1
  N  N27  1  0.94157500  0.52446200  0.70060000  1
  N  N28  1  0.44157500  0.52446200  0.79940000  1
  N  N29  1  0.94157500  0.97553800  0.20060000  1
  N  N30  1  0.55842500  0.02446200  0.70060000  1
  N  N31  1  0.05842500  0.47553800  0.29940000  1
loop_
_geom_bond_atom_site_label_1
_geom_bond_atom_site_label_2
_geom_bond_distance
_geom_bond_site_symmetry_2
N0 Sb9 2.010092 1_555
N0 Sb8 2.020530 1_455
N0 Na5 2.468667 1_555
N0 Na1 2.471815 1_455
N1 Sb8 2.010092 1_555
N1 Sb9 2.020530 1_555
N1 Na4 2.468667 1_545
N1 Na0 2.471815 1_555
N2 Sb11 2.010092 1_555
N2 Sb10 2.020530 1_656
N2 Na7 2.468667 1_566
N2 Na3 2.471815 1_655
N3 Sb10 2.010092 1_555
N3 Sb11 2.020530 1_554
N3 Na6 2.468667 1_554
N3 Na2 2.471815 1_555
N4 Sb13 2.010092 1_555
N4 Sb12 2.020530 1_655
N4 Na1 2.468667 1_555
N4 Na5 2.471815 1_655
N5 Sb12 2.010092 1_555
N5 Sb13 2.020530 1_555
N5 Na0 2.468667 1_565
N5 Na4 2.471815 1_555
N6 Sb15 2.010092 1_555
N6 Sb14 2.020530 1_454
N6 Na3 2.468667 1_544
N6 Na7 2.471815 1_455
N7 Sb14 2.010092 1_555
N7 Sb15 2.020530 1_556
N7 Na2 2.468667 1_556
N7 Na6 2.471815 1_555
N8 Sb8 2.002806 1_555
N8 Sb5 2.012724 1_555
N8 Na5 2.366358 1_555
N8 Na8 2.765446 1_555
N8 Na1 2.823727 1_555
N9 Sb9 2.002806 1_555
N9 Sb4 2.012724 1_545
N9 Na4 2.366358 1_445
N9 Na9 2.765446 1_455
N9 Na0 2.823727 1_555
N10 Sb10 2.002806 1_555
N10 Sb7 2.012724 1_565
N10 Na7 2.366358 1_565
N10 Na10 2.765446 1_555
N10 Na3 2.823727 1_554
N11 Sb11 2.002806 1_555
N11 Sb6 2.012724 1_555
N11 Na6 2.366358 1_655
N11 Na11 2.765446 1_655
N11 Na2 2.823727 1_556
N12 Sb12 2.002806 1_555
N12 Sb1 2.012724 1_555
N12 Na1 2.366358 1_555
N12 Na12 2.765446 1_555
N12 Na5 2.823727 1_555
N13 Sb13 2.002806 1_555
N13 Sb0 2.012724 1_565
N13 Na0 2.366358 1_665
N13 Na13 2.765446 1_655
N13 Na4 2.823727 1_555
N14 Sb14 2.002806 1_555
N14 Sb3 2.012724 1_545
N14 Na3 2.366358 1_545
N14 Na14 2.765446 1_555
N14 Na7 2.823727 1_556
N15 Sb15 2.002806 1_555
N15 Sb2 2.012724 1_555
N15 Na2 2.366358 1_455
N15 Na15 2.765446 1_455
N15 Na6 2.823727 1_554
N16 Sb8 2.019076 1_555
N16 Sb0 2.020637 1_555
N16 Na8 2.472371 1_655
N16 Na15 2.607412 1_555
N17 Sb9 2.019076 1_555
N17 Sb1 2.020637 1_555
N17 Na9 2.472371 1_555
N17 Na14 2.607412 1_555
N18 Sb10 2.019076 1_555
N18 Sb2 2.020637 1_555
N18 Na10 2.472371 1_455
N18 Na13 2.607412 1_555
N19 Sb11 2.019076 1_555
N19 Sb3 2.020637 1_555
N19 Na11 2.472371 1_555
N19 Na12 2.607412 1_555
N20 Sb12 2.019076 1_555
N20 Sb4 2.020637 1_555
N20 Na12 2.472371 1_455
N20 Na11 2.607412 1_555
N21 Sb13 2.019076 1_555
N21 Sb5 2.020637 1_555
N21 Na13 2.472371 1_555
N21 Na10 2.607412 1_555
N22 Sb14 2.019076 1_555
N22 Sb6 2.020637 1_555
N22 Na14 2.472371 1_655
N22 Na9 2.607412 1_555
N23 Sb15 2.019076 1_555
N23 Sb7 2.020637 1_555
N23 Na15 2.472371 1_555
N23 Na8 2.607412 1_555
N24 Sb2 2.013574 1_555
N24 Sb5 2.015975 1_555
N24 Na2 2.472234 1_555
N24 Na15 2.563457 1_555
N25 Sb3 2.013574 1_445
N25 Sb4 2.015975 1_545
N25 Na3 2.472234 1_545
N25 Na14 2.563457 1_555
N26 Sb0 2.013574 1_565
N26 Sb7 2.015975 1_565
N26 Na0 2.472234 1_565
N26 Na13 2.563457 1_555
N27 Sb1 2.013574 1_655
N27 Sb6 2.015975 1_555
N27 Na1 2.472234 1_555
N27 Na12 2.563457 1_555
N28 Sb6 2.013574 1_555
N28 Sb1 2.015975 1_555
N28 Na6 2.472234 1_555
N28 Na11 2.563457 1_555
N29 Sb7 2.013574 1_665
N29 Sb0 2.015975 1_565
N29 Na7 2.472234 1_565
N29 Na10 2.563457 1_555
N30 Sb4 2.013574 1_545
N30 Sb3 2.015975 1_545
N30 Na4 2.472234 1_545
N30 Na9 2.563457 1_555
N31 Sb5 2.013574 1_455
N31 Sb2 2.015975 1_555
N31 Na5 2.472234 1_555
N31 Na8 2.563457 1_555
