# generated using pymatgen
data_LaMnSbO
_symmetry_space_group_name_H-M   'P 1'
_cell_length_a   4.32006600
_cell_length_b   4.32006600
_cell_length_c   9.72945400
_cell_angle_alpha   90.00000000
_cell_angle_beta   90.00000000
_cell_angle_gamma   90.00000000
_symmetry_Int_Tables_number   1
_chemical_formula_structural   LaMnSbO
_chemical_formula_sum   'La2 Mn2 Sb2 O2'
_cell_volume   181.58051050
_cell_formula_units_Z   2
loop_
 _symmetry_equiv_pos_site_id
 _symmetry_equiv_pos_as_xyz
  1  'x, y, z'
loop_
 _atom_site_type_symbol
 _atom_site_label
 _atom_site_symmetry_multiplicity
 _atom_site_fract_x
 _atom_site_fract_y
 _atom_site_fract_z
 _atom_site_occupancy
  La  La0  1  0.00000000  0.50000000  0.88575300  1
  La  La1  1  0.50000000  0.00000000  0.11424700  1
  Mn  Mn0  1  0.00000000  0.00000000  0.50000000  1
  Mn  Mn1  1  0.50000000  0.50000000  0.50000000  1
  Sb  Sb0  1  0.50000000  0.00000000  0.68877900  1
  Sb  Sb1  1  0.00000000  0.50000000  0.31122100  1
  O  O0  1  0.50000000  0.50000000  0.00000000  1
  O  O1  1  0.00000000  0.00000000  0.00000000  1
loop_
_geom_bond_atom_site_label_1
_geom_bond_atom_site_label_2
_geom_bond_distance
_geom_bond_site_symmetry_2
La0 O0 2.429261 1_456
La0 O1 2.429261 1_556
La0 O0 2.429261 1_556
La0 O1 2.429261 1_566
La0 Sb0 3.606142 1_455
La0 Sb0 3.606142 1_465
La0 Sb0 3.606142 1_555
La0 Sb0 3.606142 1_565
La1 O1 2.429261 1_555
La1 O0 2.429261 1_555
La1 O0 2.429261 1_545
La1 O1 2.429261 1_655
La1 Sb1 3.606142 1_655
La1 Sb1 3.606142 1_555
La1 Sb1 3.606142 1_545
La1 Sb1 3.606142 1_645
Mn0 Sb1 2.835361 1_545
Mn0 Sb1 2.835361 1_555
Mn0 Sb0 2.835361 1_555
Mn0 Sb0 2.835361 1_455
Mn1 Sb1 2.835361 1_655
Mn1 Sb1 2.835361 1_555
Mn1 Sb0 2.835361 1_555
Mn1 Sb0 2.835361 1_565
