# generated using pymatgen
data_LiCoO2
_symmetry_space_group_name_H-M   'P 1'
_cell_length_a   4.95337400
_cell_length_b   5.00346275
_cell_length_c   7.57310031
_cell_angle_alpha   108.77149389
_cell_angle_beta   102.85052069
_cell_angle_gamma   99.44979371
_symmetry_Int_Tables_number   1
_chemical_formula_structural   LiCoO2
_chemical_formula_sum   'Li5 Co5 O10'
_cell_volume   167.51177318
_cell_formula_units_Z   5
loop_
 _symmetry_equiv_pos_site_id
 _symmetry_equiv_pos_as_xyz
  1  'x, y, z'
loop_
 _atom_site_type_symbol
 _atom_site_label
 _atom_site_symmetry_multiplicity
 _atom_site_fract_x
 _atom_site_fract_y
 _atom_site_fract_z
 _atom_site_occupancy
  Li  Li0  1  0.79833300  0.49989500  0.41470400  1
  Li  Li1  1  0.61278600  0.50996900  0.77911500  1
  Li  Li2  1  0.00000000  0.00000000  0.50000000  1
  Li  Li3  1  0.38721400  0.49003100  0.22088500  1
  Li  Li4  1  0.20166700  0.50010500  0.58529600  1
  Co  Co0  1  0.40802900  0.00398600  0.69451500  1
  Co  Co1  1  0.00000000  0.50000000  0.00000000  1
  Co  Co2  1  0.79846700  0.99804300  0.89890700  1
  Co  Co3  1  0.20153300  0.00195700  0.10109300  1
  Co  Co4  1  0.59197100  0.99601400  0.30548500  1
  O  O0  1  0.18021500  0.22345500  0.85760000  1
  O  O1  1  0.39895100  0.77778900  0.94859400  1
  O  O2  1  0.58191400  0.77461800  0.54841100  1
  O  O3  1  0.99689200  0.24189500  0.23061800  1
  O  O4  1  0.77959200  0.22411400  0.66635700  1
  O  O5  1  0.22040800  0.77588600  0.33364300  1
  O  O6  1  0.00310800  0.75810500  0.76938200  1
  O  O7  1  0.41808600  0.22538200  0.45158900  1
  O  O8  1  0.60104900  0.22221100  0.05140600  1
  O  O9  1  0.81978500  0.77654500  0.14240000  1
loop_
_geom_bond_atom_site_label_1
_geom_bond_atom_site_label_2
_geom_bond_distance
_geom_bond_site_symmetry_2
Li0 O2 2.033435 1_555
Li0 O3 2.108521 1_555
Li0 O7 2.267957 1_555
Li1 O4 1.836680 1_555
Li1 O1 2.128095 1_555
Li1 O6 2.149187 1_655
Li2 O4 2.034986 1_455
Li2 O5 2.034986 1_545
Li3 O5 1.836680 1_555
Li3 O8 2.128095 1_555
Li3 O3 2.149187 1_455
Li4 O7 2.033435 1_555
Li4 O6 2.108521 1_555
Li4 O2 2.267957 1_555
Co0 O2 1.792888 1_545
Co0 O0 2.039261 1_555
Co0 O4 2.075105 1_555
Co0 Co2 2.203187 1_545
Co0 Li2 2.213325 1_555
Co0 Li4 2.349640 1_545
Co0 Li1 2.381679 1_555
Co0 O7 2.438919 1_555
Co0 O6 2.449985 1_545
Co0 O8 2.453518 1_556
Co0 O5 2.479849 1_545
Co0 O1 2.531534 1_545
Co1 O9 1.935939 1_455
Co1 O0 1.935939 1_554
Co2 O6 1.874815 1_655
Co2 O8 1.891268 1_566
Co3 O3 1.874815 1_455
Co3 O1 1.891268 1_544
Co3 Co4 2.203187 1_545
Co4 O7 1.792888 1_565
Co4 O9 2.039261 1_555
Co4 O5 2.075105 1_555
Co4 Li2 2.213325 1_665
Co4 Li0 2.349640 1_565
Co4 Li3 2.381679 1_555
Co4 O2 2.438919 1_555
Co4 O3 2.449985 1_565
Co4 O1 2.453518 1_554
Co4 O4 2.479849 1_565
Co4 O8 2.531534 1_565
