# generated using pymatgen
data_CrNiP
_symmetry_space_group_name_H-M   'P 1'
_cell_length_a   5.95318596
_cell_length_b   5.95318509
_cell_length_c   3.50540018
_cell_angle_alpha   90.00000000
_cell_angle_beta   90.00000000
_cell_angle_gamma   119.99872262
_symmetry_Int_Tables_number   1
_chemical_formula_structural   CrNiP
_chemical_formula_sum   'Cr3 Ni3 P3'
_cell_volume   107.59018668
_cell_formula_units_Z   3
loop_
 _symmetry_equiv_pos_site_id
 _symmetry_equiv_pos_as_xyz
  1  'x, y, z'
loop_
 _atom_site_type_symbol
 _atom_site_label
 _atom_site_symmetry_multiplicity
 _atom_site_fract_x
 _atom_site_fract_y
 _atom_site_fract_z
 _atom_site_occupancy
  Cr  Cr0  1  -0.00002677  0.40315811  0.50000000  1
  Cr  Cr1  1  0.59689040  0.59689533  0.50000000  1
  Cr  Cr2  1  0.40318719  -0.00002036  0.50000000  1
  Ni  Ni0  1  -0.00002316  0.74444924  -0.00000000  1
  Ni  Ni1  1  0.25552714  0.25553237  -0.00000000  1
  Ni  Ni2  1  0.74445161  -0.00001531  -0.00000000  1
  P  P0  1  0.33335067  0.66669410  -0.00000000  1
  P  P1  1  0.66668391  0.33332922  -0.00000000  1
  P  P2  1  -0.00004099  -0.00002171  0.50000000  1
loop_
_geom_bond_atom_site_label_1
_geom_bond_atom_site_label_2
_geom_bond_distance
_geom_bond_site_symmetry_2
Cr0 P2 2.400162 1_555
Cr0 P1 2.521264 1_456
Cr0 P1 2.521264 1_455
Cr0 P0 2.521634 1_555
Cr0 P0 2.521634 1_556
Cr0 Ni0 2.683282 1_555
Cr0 Ni0 2.683282 1_556
Cr0 Ni2 2.737844 1_456
Cr0 Ni2 2.737844 1_455
Cr0 Ni1 2.737854 1_555
Cr0 Ni1 2.737854 1_556
Cr1 P2 2.399631 1_665
Cr1 P0 2.521500 1_555
Cr1 P0 2.521500 1_556
Cr1 P1 2.521595 1_556
Cr1 P1 2.521595 1_555
Cr1 Ni1 2.683644 1_555
Cr1 Ni1 2.683644 1_556
Cr1 Ni0 2.737531 1_656
Cr1 Ni0 2.737531 1_655
Cr1 Ni2 2.737538 1_565
Cr1 Ni2 2.737538 1_566
Cr2 P2 2.400488 1_555
Cr2 P0 2.521237 1_546
Cr2 P0 2.521237 1_545
Cr2 P1 2.521501 1_555
Cr2 P1 2.521501 1_556
Cr2 Ni2 2.683158 1_556
Cr2 Ni2 2.683158 1_555
Cr2 Ni1 2.737971 1_555
Cr2 Ni1 2.737971 1_556
Cr2 Ni0 2.737982 1_546
Cr2 Ni0 2.737982 1_545
Ni0 P1 2.251892 1_455
Ni0 P0 2.252040 1_555
Ni0 P2 2.320820 1_564
Ni0 P2 2.320820 1_565
Ni1 P0 2.252112 1_555
Ni1 P1 2.252137 1_555
Ni1 P2 2.320929 1_555
Ni1 P2 2.320929 1_554
Ni2 P0 2.251814 1_545
Ni2 P1 2.251916 1_555
Ni2 P2 2.320713 1_654
Ni2 P2 2.320713 1_655
