# generated using pymatgen
data_ScCrO3
_symmetry_space_group_name_H-M   'P 1'
_cell_length_a   5.08888400
_cell_length_b   5.40796100
_cell_length_c   7.55396800
_cell_angle_alpha   89.99998182
_cell_angle_beta   90.00002643
_cell_angle_gamma   90.00002185
_symmetry_Int_Tables_number   1
_chemical_formula_structural   ScCrO3
_chemical_formula_sum   'Sc4 Cr4 O12'
_cell_volume   207.88887214
_cell_formula_units_Z   4
loop_
 _symmetry_equiv_pos_site_id
 _symmetry_equiv_pos_as_xyz
  1  'x, y, z'
loop_
 _atom_site_type_symbol
 _atom_site_label
 _atom_site_symmetry_multiplicity
 _atom_site_fract_x
 _atom_site_fract_y
 _atom_site_fract_z
 _atom_site_occupancy
  Sc  Sc0  1  0.97387300  0.06909500  0.25000000  1
  Sc  Sc1  1  0.47387200  0.43090300  0.75000000  1
  Sc  Sc2  1  0.52612900  0.56909700  0.25000000  1
  Sc  Sc3  1  0.02612800  0.93090500  0.75000000  1
  Cr  Cr0  1  0.50000100  0.00000100  0.00000000  1
  Cr  Cr1  1  0.50000000  0.00000000  0.50000000  1
  Cr  Cr2  1  0.00000000  0.50000300  0.00000200  1
  Cr  Cr3  1  0.99999800  0.49999900  0.49999900  1
  O  O0  1  0.14171400  0.43622700  0.25000000  1
  O  O1  1  0.64171500  0.06377400  0.75000000  1
  O  O2  1  0.35828500  0.93622600  0.25000000  1
  O  O3  1  0.85828700  0.56377300  0.75000000  1
  O  O4  1  0.68555000  0.30880800  0.42674600  1
  O  O5  1  0.18555000  0.19119400  0.57325400  1
  O  O6  1  0.81445000  0.80880500  0.07325400  1
  O  O7  1  0.31445000  0.69119200  0.92674700  1
  O  O8  1  0.31445000  0.69119200  0.57325400  1
  O  O9  1  0.81445000  0.80880500  0.42674600  1
  O  O10  1  0.18555000  0.19119400  0.92674600  1
  O  O11  1  0.68555000  0.30880800  0.07325300  1
loop_
_geom_bond_atom_site_label_1
_geom_bond_atom_site_label_2
_geom_bond_distance
_geom_bond_site_symmetry_2
Cr0 O10 1.983921 1_554
Cr0 O6 1.983921 1_545
Cr0 O11 1.996681 1_555
Cr0 O7 1.996695 1_544
Cr0 O1 2.050714 1_554
Cr0 O2 2.050719 1_545
Cr1 O5 1.983920 1_555
Cr1 O9 1.983923 1_545
Cr1 O4 1.996690 1_555
Cr1 O8 1.996690 1_545
Cr1 O1 2.050716 1_555
Cr1 O2 2.050716 1_545
Cr2 O7 1.983908 1_554
Cr2 O11 1.983916 1_455
Cr2 O6 1.996659 1_455
Cr2 O10 1.996699 1_554
Cr2 O0 2.050702 1_555
Cr2 O3 2.050723 1_454
Cr3 O4 1.983901 1_555
Cr3 O8 1.983927 1_655
Cr3 O9 1.996674 1_555
Cr3 O5 1.996683 1_655
Cr3 O0 2.050710 1_655
Cr3 O3 2.050717 1_555
O0 Sc2 2.084037 1_555
O0 Sc0 2.161361 1_455
O1 Sc3 2.084026 1_645
O1 Sc1 2.161350 1_555
O2 Sc0 2.084021 1_465
O2 Sc2 2.161352 1_555
O3 Sc1 2.084037 1_555
O3 Sc3 2.161361 1_655
O4 Sc2 2.102897 1_555
O4 Sc0 2.369796 1_555
O4 Sc1 2.749361 1_555
O5 Sc3 2.102899 1_545
O5 Sc1 2.369779 1_555
O5 Sc0 2.749363 1_455
O6 Sc0 2.102905 1_565
O6 Sc2 2.369774 1_555
O6 Sc3 2.749367 1_654
O7 Sc1 2.102905 1_555
O7 Sc3 2.369796 1_555
O7 Sc2 2.749355 1_556
O8 Sc1 2.102899 1_555
O8 Sc3 2.369793 1_555
O8 Sc2 2.749363 1_555
O9 Sc0 2.102905 1_565
O9 Sc2 2.369773 1_555
O9 Sc3 2.749366 1_655
O10 Sc3 2.102900 1_545
O10 Sc1 2.369780 1_555
O10 Sc0 2.749363 1_456
O11 Sc2 2.102903 1_555
O11 Sc0 2.369799 1_555
O11 Sc1 2.749353 1_554
