# generated using pymatgen
data_Al12Tc
_symmetry_space_group_name_H-M   'P 1'
_cell_length_a   6.46828115
_cell_length_b   6.46828012
_cell_length_c   6.46828106
_cell_angle_alpha   109.47122670
_cell_angle_beta   109.47122350
_cell_angle_gamma   109.47121212
_symmetry_Int_Tables_number   1
_chemical_formula_structural   Al12Tc
_chemical_formula_sum   'Al12 Tc1'
_cell_volume   208.32658640
_cell_formula_units_Z   1
loop_
 _symmetry_equiv_pos_site_id
 _symmetry_equiv_pos_as_xyz
  1  'x, y, z'
loop_
 _atom_site_type_symbol
 _atom_site_label
 _atom_site_symmetry_multiplicity
 _atom_site_fract_x
 _atom_site_fract_y
 _atom_site_fract_z
 _atom_site_occupancy
  Al  Al0  1  0.49509253  0.30809789  0.18699664  1
  Al  Al1  1  0.30809789  0.81300336  0.12110125  1
  Al  Al2  1  0.18699664  0.87889875  0.69190211  1
  Al  Al3  1  0.69190211  0.81300336  0.50490747  1
  Al  Al4  1  0.81300336  0.12110125  0.30809789  1
  Al  Al5  1  0.69190211  0.18699664  0.87889875  1
  Al  Al6  1  0.81300336  0.50490747  0.69190211  1
  Al  Al7  1  0.18699664  0.49509253  0.30809789  1
  Al  Al8  1  0.30809789  0.18699664  0.49509253  1
  Al  Al9  1  0.12110125  0.30809789  0.81300336  1
  Al  Al10  1  0.87889875  0.69190211  0.18699664  1
  Al  Al11  1  0.50490747  0.69190211  0.81300336  1
  Tc  Tc0  1  -0.00000000  -0.00000000  -0.00000000  1
loop_
_geom_bond_atom_site_label_1
_geom_bond_atom_site_label_2
_geom_bond_distance
_geom_bond_site_symmetry_2
Al0 Tc0 2.691832 1_555
Al0 Al3 2.742445 1_555
Al0 Al6 2.742445 1_555
Al0 Al4 2.742455 1_555
Al0 Al5 2.742456 1_554
Al0 Al9 2.793321 1_554
Al0 Al7 2.839721 1_555
Al0 Al8 2.839721 1_555
Al0 Al1 2.839740 1_545
Al0 Al2 2.839740 1_544
Al0 Al10 2.866614 1_555
Al1 Tc0 2.691842 1_565
Al1 Al9 2.742445 1_554
Al1 Al4 2.742445 1_565
Al1 Al11 2.742456 1_554
Al1 Al7 2.742456 1_555
Al1 Al8 2.793321 1_565
Al1 Al2 2.839741 1_554
Al1 Al6 2.839741 1_454
Al1 Al10 2.839741 1_455
Al1 Al3 2.866613 1_555
Al2 Tc0 2.691842 1_566
Al2 Al5 2.742445 1_565
Al2 Al8 2.742456 1_565
Al2 Al6 2.793321 1_455
Al2 Al9 2.839740 1_565
Al2 Al3 2.839741 1_455
Al2 Al7 2.866613 1_555
Al3 Tc0 2.691832 1_666
Al3 Al7 2.742446 1_555
Al3 Al4 2.742456 1_565
Al3 Al5 2.793321 1_565
Al3 Al6 2.839721 1_555
Al3 Al9 2.839740 1_665
Al4 Tc0 2.691842 1_655
Al4 Al9 2.742445 1_655
Al4 Al7 2.793321 1_655
Al4 Al5 2.839741 1_554
Al4 Al8 2.839741 1_655
Al4 Al6 2.866613 1_555
Al5 Tc0 2.691842 1_656
Al5 Al6 2.742456 1_555
Al5 Al7 2.839741 1_656
Al5 Al9 2.839741 1_655
Al5 Al8 2.866613 1_555
Al6 Tc0 2.691831 1_666
Al6 Al8 2.742446 1_555
Al6 Al9 2.742455 1_655
Al7 Tc0 2.691831 1_555
Al7 Al8 2.839721 1_555
Al7 Al9 2.839740 1_554
Al8 Tc0 2.691832 1_555
Al8 Al9 2.742456 1_555
Al9 Tc0 2.691842 1_556
Al10 Tc0 2.691842 1_665
Al10 Al5 2.742445 1_554
Al10 Al2 2.742445 1_655
Al10 Al7 2.742455 1_655
Al10 Al3 2.742456 1_555
Al10 Al11 2.793321 1_554
Al10 Al4 2.839740 1_565
Al10 Al6 2.839740 1_554
Al10 Al8 2.839740 1_665
Al11 Tc0 2.691832 1_666
Al11 Al8 2.742445 1_555
Al11 Al7 2.742445 1_555
Al11 Al2 2.742455 1_555
Al11 Al6 2.839721 1_555
Al11 Al3 2.839721 1_555
Al11 Al5 2.839740 1_565
Al11 Al4 2.839740 1_566
Al11 Al9 2.866614 1_555
