# generated using pymatgen
data_SnH12C6(NO2)2
_symmetry_space_group_name_H-M   'P 1'
_cell_length_a   9.48048000
_cell_length_b   9.48048000
_cell_length_c   15.40480054
_cell_angle_alpha   75.68697919
_cell_angle_beta   75.68697919
_cell_angle_gamma   99.99932270
_symmetry_Int_Tables_number   1
_chemical_formula_structural   SnH12C6(NO2)2
_chemical_formula_sum   'Sn4 H48 C24 N8 O16'
_cell_volume   1258.66335814
_cell_formula_units_Z   4
loop_
 _symmetry_equiv_pos_site_id
 _symmetry_equiv_pos_as_xyz
  1  'x, y, z'
loop_
 _atom_site_type_symbol
 _atom_site_label
 _atom_site_symmetry_multiplicity
 _atom_site_fract_x
 _atom_site_fract_y
 _atom_site_fract_z
 _atom_site_occupancy
  Sn  Sn0  1  0.12997700  0.02761400  0.83768100  1
  Sn  Sn1  1  0.97238600  0.87002300  0.66231900  1
  Sn  Sn2  1  0.87002300  0.97238600  0.16231900  1
  Sn  Sn3  1  0.02761400  0.12997700  0.33768100  1
  H  H0  1  0.39259300  0.28297800  0.06830500  1
  H  H1  1  0.71702200  0.60740700  0.43169500  1
  H  H2  1  0.60740700  0.71702200  0.93169500  1
  H  H3  1  0.28297800  0.39259300  0.56830500  1
  H  H4  1  0.47539500  0.12838400  0.09030700  1
  H  H5  1  0.87161600  0.52460500  0.40969300  1
  H  H6  1  0.52460500  0.87161600  0.90969300  1
  H  H7  1  0.12838400  0.47539500  0.59030700  1
  H  H8  1  0.27930200  0.09544500  0.09829600  1
  H  H9  1  0.90455500  0.72069800  0.40170400  1
  H  H10  1  0.72069800  0.90455500  0.90170400  1
  H  H11  1  0.09544500  0.27930200  0.59829600  1
  H  H12  1  0.60944200  0.36839100  0.88707900  1
  H  H13  1  0.63160900  0.39055800  0.61292100  1
  H  H14  1  0.39055800  0.63160900  0.11292100  1
  H  H15  1  0.36839100  0.60944200  0.38707900  1
  H  H16  1  0.65881200  0.20483500  0.94428000  1
  H  H17  1  0.79516500  0.34118800  0.55572000  1
  H  H18  1  0.34118800  0.79516500  0.05572000  1
  H  H19  1  0.20483500  0.65881200  0.44428000  1
  H  H20  1  0.60314800  0.21325100  0.84013200  1
  H  H21  1  0.78674900  0.39685200  0.65986800  1
  H  H22  1  0.39685200  0.78674900  0.15986800  1
  H  H23  1  0.21325100  0.60314800  0.34013200  1
  H  H24  1  0.56976000  0.87163700  0.71344100  1
  H  H25  1  0.12836300  0.43024000  0.78655900  1
  H  H26  1  0.43024000  0.12836300  0.28655900  1
  H  H27  1  0.87163700  0.56976000  0.21344100  1
  H  H28  1  0.50531100  0.03903600  0.68841900  1
  H  H29  1  0.96096400  0.49468900  0.81158100  1
  H  H30  1  0.49468900  0.96096400  0.31158100  1
  H  H31  1  0.03903600  0.50531100  0.18841900  1
  H  H32  1  0.64597000  0.00492700  0.59904600  1
  H  H33  1  0.99507300  0.35403000  0.90095400  1
  H  H34  1  0.35403000  0.99507300  0.40095400  1
  H  H35  1  0.00492700  0.64597000  0.09904600  1
  H  H36  1  0.47655200  0.66653300  0.64840500  1
  H  H37  1  0.33346700  0.52344800  0.85159500  1
  H  H38  1  0.52344800  0.33346700  0.35159500  1
  H  H39  1  0.66653300  0.47655200  0.14840500  1
  H  H40  1  0.56375300  0.79741600  0.53321800  1
  H  H41  1  0.20258400  0.43624700  0.96678200  1
  H  H42  1  0.43624700  0.20258400  0.46678200  1
  H  H43  1  0.79741600  0.56375300  0.03321800  1
  H  H44  1  0.36670900  0.70772800  0.57053900  1
  H  H45  1  0.29227200  0.63329100  0.92946100  1
  H  H46  1  0.63329100  0.29227200  0.42946100  1
  H  H47  1  0.70772800  0.36670900  0.07053900  1
  C  C0  1  0.32275500  0.11992200  0.92528300  1
  C  C1  1  0.88007800  0.67724500  0.57471700  1
  C  C2  1  0.67724500  0.88007800  0.07471700  1
  C  C3  1  0.11992200  0.32275500  0.42528300  1
  C  C4  1  0.39113600  0.17025200  0.06032100  1
  C  C5  1  0.82974800  0.60886400  0.43967900  1
  C  C6  1  0.60886400  0.82974800  0.93967900  1
  C  C7  1  0.17025200  0.39113600  0.56032100  1
  C  C8  1  0.58367200  0.24484100  0.90492600  1
  C  C9  1  0.75515900  0.41632800  0.59507400  1
  C  C10  1  0.41632800  0.75515900  0.09507400  1
  C  C11  1  0.24484100  0.58367200  0.40492600  1
  C  C12  1  0.28812200  0.90785600  0.64283000  1
  C  C13  1  0.09214400  0.71187800  0.85717000  1
  C  C14  1  0.71187800  0.09214400  0.35717000  1
  C  C15  1  0.90785600  0.28812200  0.14283000  1
  C  C16  1  0.54289000  0.95331800  0.65920900  1
  C  C17  1  0.04668200  0.45711000  0.84079100  1
  C  C18  1  0.45711000  0.04668200  0.34079100  1
  C  C19  1  0.95331800  0.54289000  0.15920900  1
  C  C20  1  0.45964800  0.75511200  0.59307200  1
  C  C21  1  0.24488800  0.54035200  0.90692800  1
  C  C22  1  0.54035200  0.24488800  0.40692800  1
  C  C23  1  0.75511200  0.45964800  0.09307200  1
  N  N0  1  0.42852100  0.17524700  0.96218200  1
  N  N1  1  0.82475300  0.57147900  0.53781800  1
  N  N2  1  0.57147900  0.82475300  0.03781800  1
  N  N3  1  0.17524700  0.42852100  0.46218200  1
  N  N4  1  0.42549800  0.87662800  0.62963800  1
  N  N5  1  0.12337200  0.57450200  0.87036200  1
  N  N6  1  0.57450200  0.12337200  0.37036200  1
  N  N7  1  0.87662800  0.42549800  0.12963800  1
  O  O0  1  0.18485200  0.06094800  0.97556300  1
  O  O1  1  0.93905200  0.81514800  0.52443700  1
  O  O2  1  0.81514800  0.93905200  0.02443700  1
  O  O3  1  0.06094800  0.18485200  0.47556300  1
  O  O4  1  0.36311400  0.12670100  0.83631000  1
  O  O5  1  0.87329900  0.63688600  0.66369000  1
  O  O6  1  0.63688600  0.87329900  0.16369000  1
  O  O7  1  0.12670100  0.36311400  0.33631000  1
  O  O8  1  0.25612800  0.00790100  0.68119300  1
  O  O9  1  0.99209900  0.74387200  0.81880700  1
  O  O10  1  0.74387200  0.99209900  0.31880700  1
  O  O11  1  0.00790100  0.25612800  0.18119300  1
  O  O12  1  0.19185600  0.83139200  0.61252600  1
  O  O13  1  0.16860800  0.80814400  0.88747400  1
  O  O14  1  0.80814400  0.16860800  0.38747400  1
  O  O15  1  0.83139200  0.19185600  0.11252600  1
loop_
_geom_bond_atom_site_label_1
_geom_bond_atom_site_label_2
_geom_bond_distance
_geom_bond_site_symmetry_2
C0 O0 1.285744 1_555
C0 O4 1.310617 1_555
C0 N0 1.360230 1_555
C1 O1 1.285744 1_555
C1 O5 1.310617 1_555
C1 N1 1.360230 1_555
C2 O2 1.285744 1_555
C2 O6 1.310617 1_555
C2 N2 1.360230 1_555
C3 O3 1.285744 1_555
C3 O7 1.310617 1_555
C3 N3 1.360230 1_555
C4 H8 1.093790 1_555
C4 H4 1.100426 1_555
C4 H0 1.103691 1_555
C4 N0 1.451646 1_554
C5 H9 1.093790 1_555
C5 H5 1.100426 1_555
C5 H1 1.103691 1_555
C5 N1 1.451646 1_555
C6 H10 1.093790 1_555
C6 H6 1.100426 1_555
C6 H2 1.103691 1_555
C6 N2 1.451646 1_556
C7 H11 1.093790 1_555
C7 H7 1.100426 1_555
C7 H3 1.103691 1_555
C7 N3 1.451646 1_555
C8 H20 1.093595 1_555
C8 H16 1.101140 1_555
C8 H12 1.102469 1_555
C8 N0 1.452794 1_555
C9 H21 1.093595 1_555
C9 H17 1.101140 1_555
C9 H13 1.102469 1_555
C9 N1 1.452794 1_555
C10 H22 1.093595 1_555
C10 H18 1.101140 1_555
C10 H14 1.102469 1_555
C10 N2 1.452794 1_555
C11 H23 1.093595 1_555
C11 H19 1.101140 1_555
C11 H15 1.102469 1_555
C11 N3 1.452794 1_555
C12 O8 1.276432 1_565
C12 O12 1.313233 1_555
C12 N4 1.363068 1_555
C13 O9 1.276432 1_455
C13 O13 1.313233 1_555
C13 N5 1.363068 1_555
C14 O10 1.276432 1_545
C14 O14 1.313233 1_555
C14 N6 1.363068 1_555
C15 O11 1.276432 1_655
C15 O15 1.313233 1_555
C15 N7 1.363068 1_555
C16 H28 1.091732 1_565
C16 H32 1.102401 1_565
C16 H24 1.102886 1_555
C16 N4 1.451954 1_555
C17 H29 1.091732 1_455
C17 H33 1.102401 1_455
C17 H25 1.102886 1_555
C17 N5 1.451954 1_555
C18 H30 1.091732 1_545
C18 H34 1.102401 1_545
C18 H26 1.102886 1_555
C18 N6 1.451954 1_555
C19 H31 1.091732 1_655
C19 H35 1.102401 1_655
C19 H27 1.102886 1_555
C19 N7 1.451954 1_555
C20 H44 1.090645 1_555
C20 H40 1.102204 1_555
C20 H36 1.103551 1_555
C20 N4 1.452412 1_555
C21 H45 1.090645 1_555
C21 H41 1.102204 1_555
C21 H37 1.103551 1_555
C21 N5 1.452412 1_555
C22 H46 1.090645 1_555
C22 H42 1.102204 1_555
C22 H38 1.103551 1_555
C22 N6 1.452412 1_555
C23 H47 1.090645 1_555
C23 H43 1.102204 1_555
C23 H39 1.103551 1_555
C23 N7 1.452412 1_555
O0 Sn0 2.388147 1_555
O1 Sn1 2.388147 1_555
O2 Sn2 2.388147 1_555
O3 Sn3 2.388147 1_555
O4 Sn0 2.239237 1_555
O5 Sn1 2.239237 1_555
O6 Sn2 2.239237 1_555
O7 Sn3 2.239237 1_555
O8 Sn0 2.480213 1_555
O9 Sn1 2.480213 1_555
O10 Sn2 2.480213 1_555
O11 Sn3 2.480213 1_555
O12 Sn1 2.160127 1_455
O13 Sn0 2.160127 1_565
O14 Sn3 2.160127 1_655
O15 Sn2 2.160127 1_545
