# generated using pymatgen
data_Li2AlFeO4
_symmetry_space_group_name_H-M   'P 1'
_cell_length_a   10.54583700
_cell_length_b   5.35407500
_cell_length_c   13.18596800
_cell_angle_alpha   90.00000000
_cell_angle_beta   90.00000000
_cell_angle_gamma   90.00000000
_symmetry_Int_Tables_number   1
_chemical_formula_structural   Li2AlFeO4
_chemical_formula_sum   'Li16 Al8 Fe8 O32'
_cell_volume   744.52197786
_cell_formula_units_Z   8
loop_
 _symmetry_equiv_pos_site_id
 _symmetry_equiv_pos_as_xyz
  1  'x, y, z'
loop_
 _atom_site_type_symbol
 _atom_site_label
 _atom_site_symmetry_multiplicity
 _atom_site_fract_x
 _atom_site_fract_y
 _atom_site_fract_z
 _atom_site_occupancy
  Li  Li0  1  0.95565500  0.94478500  0.56302800  1
  Li  Li1  1  0.95977000  0.44713300  0.93612800  1
  Li  Li2  1  0.21157400  0.87350400  0.20100900  1
  Li  Li3  1  0.21187400  0.37445000  0.29970200  1
  Li  Li4  1  0.28842600  0.87350400  0.70100900  1
  Li  Li5  1  0.28812600  0.37445000  0.79970200  1
  Li  Li6  1  0.54023000  0.44713300  0.43612800  1
  Li  Li7  1  0.54434500  0.94478500  0.06302800  1
  Li  Li8  1  0.45977000  0.55286700  0.93612800  1
  Li  Li9  1  0.45565500  0.05521500  0.56302800  1
  Li  Li10  1  0.71187400  0.62555000  0.29970200  1
  Li  Li11  1  0.71157400  0.12649600  0.20100900  1
  Li  Li12  1  0.78812600  0.62555000  0.79970200  1
  Li  Li13  1  0.78842600  0.12649600  0.70100900  1
  Li  Li14  1  0.04434500  0.05521500  0.06302800  1
  Li  Li15  1  0.04023000  0.55286700  0.43612800  1
  Al  Al0  1  0.03712900  0.95629200  0.81323000  1
  Al  Al1  1  0.20793200  0.54187700  0.05784500  1
  Al  Al2  1  0.29206800  0.54187700  0.55784500  1
  Al  Al3  1  0.46287100  0.95629200  0.31323000  1
  Al  Al4  1  0.53712900  0.04370800  0.81323000  1
  Al  Al5  1  0.70793200  0.45812300  0.05784500  1
  Al  Al6  1  0.79206800  0.45812300  0.55784500  1
  Al  Al7  1  0.96287100  0.04370800  0.31323000  1
  Fe  Fe0  1  0.03841000  0.45367100  0.68662800  1
  Fe  Fe1  1  0.20827500  0.04050200  0.44278600  1
  Fe  Fe2  1  0.29172500  0.04050200  0.94278600  1
  Fe  Fe3  1  0.46159000  0.45367100  0.18662800  1
  Fe  Fe4  1  0.53841000  0.54632900  0.68662800  1
  Fe  Fe5  1  0.70827500  0.95949900  0.44278600  1
  Fe  Fe6  1  0.79172500  0.95949900  0.94278600  1
  Fe  Fe7  1  0.96159000  0.54632900  0.18662800  1
  O  O0  1  0.01374800  0.36174500  0.30325600  1
  O  O1  1  0.01884000  0.88259700  0.20332200  1
  O  O2  1  0.05013300  0.43001400  0.06932500  1
  O  O3  1  0.03943400  0.92596900  0.42445200  1
  O  O4  1  0.20402600  0.01269700  0.81667200  1
  O  O5  1  0.21690600  0.50907500  0.67841800  1
  O  O6  1  0.21008800  0.39745500  0.45718700  1
  O  O7  1  0.20701400  0.87508800  0.04747500  1
  O  O8  1  0.28991200  0.39745500  0.95718700  1
  O  O9  1  0.29298600  0.87508800  0.54747500  1
  O  O10  1  0.28309400  0.50907500  0.17841800  1
  O  O11  1  0.29597400  0.01269700  0.31667200  1
  O  O12  1  0.44986700  0.43001400  0.56932500  1
  O  O13  1  0.46056600  0.92596900  0.92445200  1
  O  O14  1  0.48625200  0.36174500  0.80325600  1
  O  O15  1  0.48116000  0.88259700  0.70332200  1
  O  O16  1  0.51884000  0.11740300  0.20332200  1
  O  O17  1  0.51374800  0.63825500  0.30325600  1
  O  O18  1  0.53943400  0.07403100  0.42445200  1
  O  O19  1  0.55013300  0.56998600  0.06932500  1
  O  O20  1  0.71690600  0.49092500  0.67841800  1
  O  O21  1  0.70402600  0.98730300  0.81667200  1
  O  O22  1  0.70701400  0.12491200  0.04747500  1
  O  O23  1  0.71008800  0.60254500  0.45718700  1
  O  O24  1  0.79298600  0.12491200  0.54747500  1
  O  O25  1  0.78991200  0.60254500  0.95718700  1
  O  O26  1  0.78309400  0.49092500  0.17841800  1
  O  O27  1  0.79597400  0.98730300  0.31667200  1
  O  O28  1  0.96056600  0.07403100  0.92445200  1
  O  O29  1  0.94986700  0.56998600  0.56932500  1
  O  O30  1  0.98116000  0.11740300  0.70332200  1
  O  O31  1  0.98625200  0.63825500  0.80325600  1
loop_
_geom_bond_atom_site_label_1
_geom_bond_atom_site_label_2
_geom_bond_distance
_geom_bond_site_symmetry_2
Li0 O24 1.978642 1_565
Li0 O29 2.009346 1_555
Li0 O3 2.032149 1_655
Li0 O30 2.085350 1_565
Li1 O25 1.994546 1_555
Li1 O2 2.000305 1_656
Li1 O28 2.003558 1_555
Li1 O31 2.048112 1_555
Li2 O11 1.916673 1_565
Li2 O7 2.025083 1_555
Li2 O1 2.033353 1_555
Li2 O10 2.112987 1_555
Li3 O10 1.908205 1_555
Li3 O6 2.080327 1_555
Li3 O0 2.091037 1_555
Li3 O11 2.141978 1_555
Li4 O4 1.916673 1_565
Li4 O9 2.025083 1_555
Li4 O15 2.033353 1_555
Li4 O5 2.112987 1_555
Li5 O5 1.908205 1_555
Li5 O8 2.080327 1_555
Li5 O14 2.091037 1_555
Li5 O4 2.141978 1_555
Li6 O23 1.994546 1_555
Li6 O12 2.000305 1_555
Li6 O18 2.003558 1_555
Li6 O17 2.048112 1_555
Li7 O22 1.978642 1_565
Li7 O19 2.009346 1_555
Li7 O13 2.032149 1_554
Li7 O16 2.085350 1_565
Li8 O8 1.994546 1_555
Li8 O19 2.000305 1_556
Li8 O13 2.003558 1_555
Li8 O14 2.048112 1_555
Li9 O9 1.978642 1_545
Li9 O12 2.009346 1_555
Li9 O18 2.032149 1_555
Li9 O15 2.085350 1_545
Li10 O26 1.908205 1_555
Li10 O23 2.080327 1_555
Li10 O17 2.091037 1_555
Li10 O27 2.141978 1_555
Li11 O27 1.916673 1_545
Li11 O22 2.025083 1_555
Li11 O16 2.033353 1_555
Li11 O26 2.112987 1_555
Li12 O20 1.908205 1_555
Li12 O25 2.080327 1_555
Li12 O31 2.091037 1_555
Li12 O21 2.141978 1_555
Li13 O21 1.916673 1_545
Li13 O24 2.025083 1_555
Li13 O30 2.033353 1_555
Li13 O20 2.112987 1_555
Li14 O7 1.978642 1_545
Li14 O2 2.009346 1_555
Li14 O28 2.032149 1_454
Li14 O1 2.085350 1_545
Li15 O6 1.994546 1_555
Li15 O29 2.000305 1_455
Li15 O3 2.003558 1_555
Li15 O0 2.048112 1_555
Al0 O4 1.786366 1_565
Al0 O30 1.786832 1_465
Al0 O28 1.788893 1_465
Al0 O31 1.790162 1_455
Al1 O8 1.762670 1_554
Al1 O2 1.775085 1_555
Al1 O10 1.785168 1_555
Al1 O7 1.789295 1_555
Al2 O6 1.762670 1_555
Al2 O12 1.775085 1_555
Al2 O5 1.785168 1_555
Al2 O9 1.789295 1_555
Al3 O11 1.786366 1_565
Al3 O16 1.786832 1_565
Al3 O18 1.788893 1_565
Al3 O17 1.790162 1_555
Al4 O21 1.786366 1_545
Al4 O15 1.786832 1_545
Al4 O13 1.788893 1_545
Al4 O14 1.790162 1_555
Al5 O25 1.762670 1_554
Al5 O19 1.775085 1_555
Al5 O26 1.785168 1_555
Al5 O22 1.789295 1_555
Al6 O23 1.762670 1_555
Al6 O29 1.775085 1_555
Al6 O20 1.785168 1_555
Al6 O24 1.789295 1_555
Al7 O27 1.786366 1_545
Al7 O1 1.786832 1_645
Al7 O3 1.788893 1_645
Al7 O0 1.790162 1_655
Fe0 O5 1.908692 1_555
Fe0 O31 1.908989 1_455
Fe0 O29 1.911069 1_455
Fe0 O30 1.911655 1_455
Fe1 O9 1.867620 1_545
Fe1 O3 1.898660 1_545
Fe1 O11 1.908633 1_555
Fe1 O6 1.920659 1_555
Fe2 O7 1.867620 1_546
Fe2 O13 1.898660 1_545
Fe2 O4 1.908633 1_555
Fe2 O8 1.920659 1_555
Fe3 O10 1.908692 1_555
Fe3 O17 1.908989 1_555
Fe3 O19 1.911069 1_555
Fe3 O16 1.911655 1_555
Fe4 O20 1.908692 1_555
Fe4 O14 1.908989 1_555
Fe4 O12 1.911069 1_555
Fe4 O15 1.911655 1_555
Fe5 O24 1.867617 1_565
Fe5 O18 1.898658 1_565
Fe5 O27 1.908633 1_555
Fe5 O23 1.920664 1_555
Fe6 O22 1.867617 1_566
Fe6 O28 1.898658 1_565
Fe6 O21 1.908633 1_555
Fe6 O25 1.920664 1_555
Fe7 O26 1.908692 1_555
Fe7 O0 1.908989 1_655
Fe7 O2 1.911069 1_655
Fe7 O1 1.911655 1_655
