# generated using pymatgen
data_Li9Mn2Co5O16
_symmetry_space_group_name_H-M   'P 1'
_cell_length_a   5.84064400
_cell_length_b   5.91276353
_cell_length_c   9.72778264
_cell_angle_alpha   91.84789041
_cell_angle_beta   99.20324324
_cell_angle_gamma   119.38861318
_symmetry_Int_Tables_number   1
_chemical_formula_structural   Li9Mn2Co5O16
_chemical_formula_sum   'Li9 Mn2 Co5 O16'
_cell_volume   286.53799277
_cell_formula_units_Z   1
loop_
 _symmetry_equiv_pos_site_id
 _symmetry_equiv_pos_as_xyz
  1  'x, y, z'
loop_
 _atom_site_type_symbol
 _atom_site_label
 _atom_site_symmetry_multiplicity
 _atom_site_fract_x
 _atom_site_fract_y
 _atom_site_fract_z
 _atom_site_occupancy
  Li  Li0  1  0.25977000  0.12940000  0.73900700  1
  Li  Li1  1  0.99995500  0.25580900  0.49856700  1
  Li  Li2  1  0.73767800  0.35653800  0.26491600  1
  Li  Li3  1  0.49981300  0.50468900  0.00341000  1
  Li  Li4  1  0.25906000  0.63641400  0.74272900  1
  Li  Li5  1  0.99981200  0.74368000  0.49454200  1
  Li  Li6  1  0.74423500  0.86858300  0.25561900  1
  Li  Li7  1  0.49737300  0.99696200  0.00427800  1
  Li  Li8  1  0.50087200  0.24657300  0.50055000  1
  Mn  Mn0  1  0.00348200  0.00527700  0.99973200  1
  Mn  Mn1  1  0.75036300  0.62216400  0.74516700  1
  Co  Co0  1  0.24652700  0.87794700  0.25385400  1
  Co  Co1  1  0.00549500  0.50397000  0.00476900  1
  Co  Co2  1  0.75444600  0.13019400  0.74391800  1
  Co  Co3  1  0.49430600  0.74339700  0.49787500  1
  Co  Co4  1  0.24938100  0.36586600  0.26149500  1
  O  O0  1  0.10590000  0.81536700  0.87898600  1
  O  O1  1  0.85993700  0.92048100  0.63694100  1
  O  O2  1  0.58836400  0.03023200  0.37040300  1
  O  O3  1  0.35549800  0.19341600  0.11434200  1
  O  O4  1  0.09214500  0.28291700  0.87867500  1
  O  O5  1  0.87756700  0.45490200  0.63712300  1
  O  O6  1  0.60082000  0.55891900  0.37063800  1
  O  O7  1  0.34284700  0.68681700  0.12616800  1
  O  O8  1  0.40424000  0.45571500  0.63274100  1
  O  O9  1  0.12225100  0.54900400  0.37476200  1
  O  O10  1  0.90416500  0.72688700  0.11803400  1
  O  O11  1  0.65077200  0.81000600  0.87856800  1
  O  O12  1  0.41446400  0.94292400  0.63024200  1
  O  O13  1  0.13319500  0.05540500  0.36367400  1
  O  O14  1  0.88765700  0.19049400  0.11471600  1
  O  O15  1  0.65760800  0.33905600  0.86355900  1
loop_
_geom_bond_atom_site_label_1
_geom_bond_atom_site_label_2
_geom_bond_distance
_geom_bond_site_symmetry_2
Li0 O8 2.076790 1_555
Li0 O1 2.076835 1_445
Li0 O12 2.088007 1_545
Li0 O15 2.139974 1_555
Li0 O4 2.201493 1_555
Li0 O0 2.241941 1_545
Li1 O9 2.039730 1_655
Li1 O5 2.178343 1_555
Li1 O8 2.202666 1_655
Li1 O13 2.205219 1_655
Li1 O2 2.213483 1_555
Li1 O1 2.311862 1_545
Li2 O9 2.031542 1_655
Li2 O6 2.061779 1_555
Li2 O2 2.073295 1_555
Li2 O3 2.192802 1_555
Li2 O14 2.242105 1_555
Li2 O10 2.517666 1_555
Li3 O3 2.039320 1_555
Li3 O11 2.105456 1_554
Li3 O10 2.136545 1_555
Li3 O7 2.159261 1_555
Li3 O4 2.184043 1_554
Li3 O15 2.204611 1_554
Li4 O5 2.005394 1_455
Li4 O8 2.027555 1_555
Li4 O12 2.033927 1_555
Li4 O11 2.162095 1_555
Li4 O0 2.212356 1_555
Li4 O4 2.378817 1_555
Li5 O9 2.044990 1_655
Li5 O6 2.143558 1_555
Li5 O5 2.149885 1_555
Li5 O13 2.164276 1_665
Li5 O1 2.187671 1_555
Li5 O12 2.252237 1_655
Li6 O2 2.024715 1_565
Li6 O13 2.045578 1_665
Li6 O6 2.057337 1_555
Li6 O10 2.112214 1_555
Li6 O7 2.175406 1_555
Li6 O14 2.274640 1_565
Li7 O14 2.058405 1_565
Li7 O3 2.081000 1_565
Li7 O7 2.107491 1_555
Li7 O0 2.116824 1_554
Li7 O11 2.180701 1_554
Li7 O15 2.360413 1_564
Li8 O2 2.060177 1_555
Li8 O13 2.065943 1_555
Li8 O8 2.077483 1_555
Li8 O5 2.102993 1_555
Li8 O12 2.128450 1_545
Li8 O6 2.162640 1_555
Mn0 O3 1.910411 1_556
Mn0 O11 1.940943 1_445
Mn0 O10 1.941373 1_446
Mn0 O0 1.948671 1_545
Mn0 O14 1.948917 1_456
Mn0 O4 1.958381 1_555
Mn1 O8 1.876736 1_555
Mn1 O5 1.881119 1_555
Mn1 O15 1.963634 1_555
Mn1 O1 1.963820 1_555
Mn1 O0 2.005717 1_655
Mn1 O11 2.009604 1_555
Co0 O13 1.875090 1_565
Co0 O2 1.878315 1_565
Co0 O10 1.966664 1_455
Co0 O7 1.973173 1_555
Co0 O9 2.174429 1_555
Co0 O3 2.236206 1_565
Co1 O7 1.878402 1_555
Co1 O15 2.010613 1_454
Co1 O14 2.040683 1_455
Co1 O10 2.045011 1_455
Co1 O4 2.052667 1_554
Co1 O0 2.132192 1_554
Co2 O12 1.858123 1_545
Co2 O4 1.942337 1_655
Co2 O1 1.967700 1_545
Co2 O15 2.000734 1_555
Co2 O5 2.072450 1_555
Co2 O11 2.225996 1_545
Co3 O12 1.975184 1_555
Co3 O6 1.983440 1_555
Co3 O9 2.026051 1_555
Co3 O2 2.038362 1_565
Co3 O1 2.068054 1_555
Co3 O8 2.092316 1_555
Co4 O6 1.889086 1_555
Co4 O9 1.977836 1_555
Co4 O13 1.982182 1_555
Co4 O3 2.069511 1_555
Co4 O14 2.089717 1_455
Co4 O7 2.237527 1_555
