# generated using pymatgen
data_LaFeTeO6
_symmetry_space_group_name_H-M   'P 1'
_cell_length_a   5.52334638
_cell_length_b   7.81023100
_cell_length_c   5.55402101
_cell_angle_alpha   89.99519108
_cell_angle_beta   90.00260776
_cell_angle_gamma   89.98023122
_symmetry_Int_Tables_number   1
_chemical_formula_structural   LaFeTeO6
_chemical_formula_sum   'La2 Fe2 Te2 O12'
_cell_volume   239.59273686
_cell_formula_units_Z   2
loop_
 _symmetry_equiv_pos_site_id
 _symmetry_equiv_pos_as_xyz
  1  'x, y, z'
loop_
 _atom_site_type_symbol
 _atom_site_label
 _atom_site_symmetry_multiplicity
 _atom_site_fract_x
 _atom_site_fract_y
 _atom_site_fract_z
 _atom_site_occupancy
  La  La0  1  0.99096200  0.24872400  0.03452800  1
  La  La1  1  0.49108300  0.74869800  0.46544600  1
  Fe  Fe0  1  0.49691300  0.50026600  0.99210100  1
  Fe  Fe1  1  0.99656300  0.00041100  0.50778100  1
  Te  Te0  1  0.99798800  0.49940700  0.50642200  1
  Te  Te1  1  0.49812900  0.99947700  0.99362200  1
  O  O0  1  0.55518900  0.75452600  0.01021600  1
  O  O1  1  0.05509000  0.25450000  0.48980300  1
  O  O2  1  0.23109400  0.97039500  0.21947200  1
  O  O3  1  0.73107900  0.47040800  0.28049300  1
  O  O4  1  0.22172500  0.53080400  0.23553400  1
  O  O5  1  0.72176300  0.03080900  0.26451100  1
  O  O6  1  0.92929900  0.74450600  0.50811700  1
  O  O7  1  0.42937600  0.24460400  0.99189000  1
  O  O8  1  0.27608100  0.53643100  0.71305500  1
  O  O9  1  0.77608600  0.03645300  0.78692000  1
  O  O10  1  0.29043500  0.96498700  0.71749100  1
  O  O11  1  0.79034900  0.46496700  0.78259700  1
loop_
_geom_bond_atom_site_label_1
_geom_bond_atom_site_label_2
_geom_bond_distance
_geom_bond_site_symmetry_2
La0 O7 2.433277 1_654
La0 O11 2.456870 1_554
La0 O9 2.459671 1_554
La0 O1 2.553683 1_655
La0 O5 2.596272 1_555
La0 O3 2.631212 1_555
La0 O2 2.745403 1_645
La0 O4 2.779714 1_655
La1 O6 2.432192 1_555
La1 O10 2.457784 1_555
La1 O8 2.459894 1_555
La1 O0 2.553450 1_555
La1 O4 2.596547 1_555
La1 O2 2.631405 1_555
La1 O3 2.745000 1_555
La1 O5 2.779435 1_565
Fe0 O8 1.992237 1_555
Fe0 O11 2.014123 1_555
Fe0 O0 2.014378 1_556
Fe0 O7 2.031451 1_555
Fe0 O4 2.048205 1_556
Fe0 O3 2.071789 1_556
Fe1 O9 1.991427 1_555
Fe1 O1 2.013231 1_655
Fe1 O10 2.016743 1_645
Fe1 O6 2.033041 1_545
Fe1 O5 2.045772 1_555
Fe1 O2 2.072952 1_645
O0 Te1 1.940983 1_554
O1 Te0 1.940705 1_455
O2 Te1 1.949567 1_554
O3 Te0 1.949185 1_555
O4 Te0 1.962439 1_455
O5 Te1 1.961967 1_544
O6 Te0 1.951409 1_555
O7 Te1 1.951691 1_545
O8 Te0 1.939127 1_455
O9 Te1 1.938757 1_545
O10 Te1 1.934094 1_555
O11 Te0 1.934100 1_555
