# generated using pymatgen
data_MgAu4Se4(ClO3)4
_symmetry_space_group_name_H-M   'P 1'
_cell_length_a   5.32904340
_cell_length_b   10.02823828
_cell_length_c   10.89949491
_cell_angle_alpha   82.44337628
_cell_angle_beta   86.46806572
_cell_angle_gamma   88.29604235
_symmetry_Int_Tables_number   1
_chemical_formula_structural   MgAu4Se4(ClO3)4
_chemical_formula_sum   'Mg1 Au4 Se4 Cl4 O12'
_cell_volume   576.18587382
_cell_formula_units_Z   1
loop_
 _symmetry_equiv_pos_site_id
 _symmetry_equiv_pos_as_xyz
  1  'x, y, z'
loop_
 _atom_site_type_symbol
 _atom_site_label
 _atom_site_symmetry_multiplicity
 _atom_site_fract_x
 _atom_site_fract_y
 _atom_site_fract_z
 _atom_site_occupancy
  Mg  Mg0  1  0.68473660  0.66517449  0.00447424  1
  Au  Au0  1  0.03565117  0.57383269  0.21838402  1
  Au  Au1  1  0.01067803  0.99155507  0.01215349  1
  Au  Au2  1  0.98570635  0.40427256  0.83159860  1
  Au  Au3  1  0.99119762  0.00081797  0.51193490  1
  Se  Se0  1  0.76420854  0.85843299  0.29071226  1
  Se  Se1  1  0.13849281  0.73326653  0.83142828  1
  Se  Se2  1  0.85754907  0.28077745  0.12446680  1
  Se  Se3  1  0.24178380  0.13174767  0.74030712  1
  Cl  Cl0  1  0.25885444  0.48264584  0.66660329  1
  Cl  Cl1  1  0.53353896  0.57549820  0.20913259  1
  Cl  Cl2  1  0.23827310  0.18529217  0.45020128  1
  Cl  Cl3  1  0.73961784  0.81709743  0.57850750  1
  O  O0  1  0.71568702  0.92731729  0.13760932  1
  O  O1  1  0.73714248  0.35115470  0.98232014  1
  O  O2  1  0.03896669  0.76260496  0.27966684  1
  O  O3  1  0.08744895  0.16625381  0.08029421  1
  O  O4  1  0.08687727  0.38977841  0.15263459  1
  O  O5  1  0.94517026  0.81058827  0.94419438  1
  O  O6  1  0.41409936  0.70902797  0.89522705  1
  O  O7  1  0.96146780  0.22036263  0.77400787  1
  O  O8  1  0.89605641  0.00375189  0.33456009  1
  O  O9  1  0.96142621  0.58625664  0.89523418  1
  O  O10  1  0.30717515  0.04496602  0.88292232  1
  O  O11  1  0.09041605  0.99627636  0.68928165  1
loop_
_geom_bond_atom_site_label_1
_geom_bond_atom_site_label_2
_geom_bond_distance
_geom_bond_site_symmetry_2
Mg0 O6 1.930662 1_554
Mg0 O9 2.044566 1_554
Mg0 O5 2.059207 1_554
Au0 O4 2.070910 1_555
Au0 O2 2.089530 1_555
Au0 Cl1 2.649433 1_555
Au0 Cl1 2.683352 1_455
Au0 Mg0 3.105745 1_455
Au1 O3 2.051946 1_565
Au1 O0 2.078394 1_455
Au1 O10 2.084501 1_564
Au1 O5 2.094526 1_454
Au2 O9 2.033762 1_555
Au2 O7 2.034886 1_555
Au2 O1 2.069005 1_555
Au2 Cl0 2.311799 1_655
Au3 O8 2.024965 1_555
Au3 O11 2.029638 1_645
Au3 Cl2 2.305865 1_655
Au3 Cl3 2.322449 1_545
Cl1 Mg0 2.393299 1_555
O0 Se0 1.751603 1_555
O1 Se2 1.765840 1_556
O2 Se0 1.734040 1_455
O3 Se2 1.743802 1_455
O4 Se2 1.731059 1_455
O5 Se1 1.794553 1_655
O6 Se1 1.661299 1_555
O7 Se3 1.759379 1_655
O8 Se0 1.769529 1_545
O9 Se1 1.810982 1_655
O10 Se3 1.728575 1_555
O11 Se3 1.767703 1_565
