# generated using pymatgen
data_NaEu(NiO3)4
_symmetry_space_group_name_H-M   'P 1'
_cell_length_a   5.18463376
_cell_length_b   5.18463376
_cell_length_c   7.71695165
_cell_angle_alpha   90.00000000
_cell_angle_beta   90.00000000
_cell_angle_gamma   93.92152343
_symmetry_Int_Tables_number   1
_chemical_formula_structural   NaEu(NiO3)4
_chemical_formula_sum   'Na1 Eu1 Ni4 O12'
_cell_volume   206.94928120
_cell_formula_units_Z   1
loop_
 _symmetry_equiv_pos_site_id
 _symmetry_equiv_pos_as_xyz
  1  'x, y, z'
loop_
 _atom_site_type_symbol
 _atom_site_label
 _atom_site_symmetry_multiplicity
 _atom_site_fract_x
 _atom_site_fract_y
 _atom_site_fract_z
 _atom_site_occupancy
  Na  Na0  1  0.01668506  0.98331494  0.50000000  1
  Eu  Eu0  1  0.47834306  0.52165694  0.00000000  1
  Ni  Ni0  1  0.50048119  0.00187723  0.25614984  1
  Ni  Ni1  1  0.50048119  0.00187723  0.74385016  1
  Ni  Ni2  1  0.99812277  0.49951881  0.74385016  1
  Ni  Ni3  1  0.99812277  0.49951881  0.25614984  1
  O  O0  1  0.30953523  0.31215106  0.24352028  1
  O  O1  1  0.68784894  0.69046477  0.24352028  1
  O  O2  1  0.68784894  0.69046477  0.75647972  1
  O  O3  1  0.30953523  0.31215106  0.75647972  1
  O  O4  1  0.20432592  0.79567408  0.18846711  1
  O  O5  1  0.80568887  0.19431113  0.30564853  1
  O  O6  1  0.80568887  0.19431113  0.69435147  1
  O  O7  1  0.20432592  0.79567408  0.81153289  1
  O  O8  1  0.55154298  0.06058409  -0.00000000  1
  O  O9  1  0.44608200  0.95717484  0.50000000  1
  O  O10  1  0.93941591  0.44845702  0.00000000  1
  O  O11  1  0.04282516  0.55391800  0.50000000  1
loop_
_geom_bond_atom_site_label_1
_geom_bond_atom_site_label_2
_geom_bond_distance
_geom_bond_site_symmetry_2
Na0 O5 2.192370 1_465
Na0 O6 2.192370 1_465
Na0 O9 2.239620 1_555
Na0 O11 2.239620 1_555
Eu0 O0 2.312430 1_555
Eu0 O1 2.312430 1_555
Eu0 O3 2.312430 1_554
Eu0 O2 2.312430 1_554
Eu0 O10 2.445932 1_555
Eu0 O8 2.445932 1_555
Eu0 O7 2.535346 1_554
Eu0 O4 2.535346 1_555
Eu0 O10 2.793959 1_455
Eu0 O8 2.793959 1_565
Ni0 O5 1.851845 1_555
Ni0 O4 1.883839 1_545
Ni0 O9 1.914528 1_545
Ni0 O1 1.942811 1_545
Ni0 O0 1.948120 1_555
Ni0 O8 2.014704 1_555
Ni1 O6 1.851845 1_555
Ni1 O7 1.883839 1_545
Ni1 O9 1.914528 1_545
Ni1 O2 1.942811 1_545
Ni1 O3 1.948120 1_555
Ni1 O8 2.014704 1_556
Ni2 O6 1.851845 1_555
Ni2 O7 1.883839 1_655
Ni2 O11 1.914528 1_655
Ni2 O3 1.942811 1_655
Ni2 O2 1.948120 1_555
Ni2 O10 2.014704 1_556
Ni3 O5 1.851845 1_555
Ni3 O4 1.883839 1_655
Ni3 O11 1.914528 1_655
Ni3 O0 1.942811 1_655
Ni3 O1 1.948120 1_555
Ni3 O10 2.014704 1_555
