# generated using pymatgen
data_K2Ho4Cu4S9
_symmetry_space_group_name_H-M   'P 1'
_cell_length_a   7.14038971
_cell_length_b   7.14038971
_cell_length_c   15.85119249
_cell_angle_alpha   71.06674058
_cell_angle_beta   71.06674058
_cell_angle_gamma   32.03253774
_symmetry_Int_Tables_number   1
_chemical_formula_structural   K2Ho4Cu4S9
_chemical_formula_sum   'K2 Ho4 Cu4 S9'
_cell_volume   403.49503994
_cell_formula_units_Z   1
loop_
 _symmetry_equiv_pos_site_id
 _symmetry_equiv_pos_as_xyz
  1  'x, y, z'
loop_
 _atom_site_type_symbol
 _atom_site_label
 _atom_site_symmetry_multiplicity
 _atom_site_fract_x
 _atom_site_fract_y
 _atom_site_fract_z
 _atom_site_occupancy
  K  K0  1  0.97093700  0.97093700  0.76953300  1
  K  K1  1  0.02906300  0.02906300  0.23046700  1
  Ho  Ho0  1  0.65456100  0.65456100  0.94575700  1
  Ho  Ho1  1  0.23336400  0.23336400  0.39501700  1
  Ho  Ho2  1  0.34543900  0.34543900  0.05424300  1
  Ho  Ho3  1  0.76663600  0.76663600  0.60498300  1
  Cu  Cu0  1  0.75415900  0.75415900  0.22858000  1
  Cu  Cu1  1  0.56793300  0.56793300  0.54154900  1
  Cu  Cu2  1  0.24584100  0.24584100  0.77142000  1
  Cu  Cu3  1  0.43206700  0.43206700  0.45845100  1
  S  S0  1  0.35049600  0.35049600  0.22112700  1
  S  S1  1  0.64950400  0.64950400  0.77887300  1
  S  S2  1  0.38993100  0.38993100  0.62715100  1
  S  S3  1  0.61006900  0.61006900  0.37284900  1
  S  S4  1  0.70042000  0.70042000  0.10265800  1
  S  S5  1  0.13874700  0.13874700  0.57552300  1
  S  S6  1  0.00000000  0.00000000  0.00000000  1
  S  S7  1  0.29958000  0.29958000  0.89734200  1
  S  S8  1  0.86125300  0.86125300  0.42447700  1
loop_
_geom_bond_atom_site_label_1
_geom_bond_atom_site_label_2
_geom_bond_distance
_geom_bond_site_symmetry_2
K0 S5 3.159227 1_665
K0 S1 3.186861 1_655
K0 S1 3.186861 1_565
K0 S7 3.209515 1_655
K0 S7 3.209515 1_565
K0 S2 3.450462 1_565
K0 S2 3.450462 1_655
K1 S8 3.159227 1_445
K1 S0 3.186861 1_545
K1 S0 3.186861 1_455
K1 S4 3.209515 1_545
K1 S4 3.209515 1_455
K1 S3 3.450462 1_455
K1 S3 3.450462 1_545
Ho0 S1 2.669542 1_555
Ho0 S7 2.720546 1_565
Ho0 S7 2.720546 1_655
Ho0 S4 2.763825 1_556
Ho0 S6 2.808935 1_566
Ho0 S6 2.808935 1_656
Ho1 S0 2.681523 1_555
Ho1 S3 2.696391 1_545
Ho1 S3 2.696391 1_455
Ho1 S5 2.713777 1_555
Ho1 S8 2.781094 1_545
Ho1 S8 2.781094 1_455
Ho2 S0 2.669542 1_555
Ho2 S4 2.720546 1_545
Ho2 S4 2.720546 1_455
Ho2 S7 2.763825 1_554
Ho2 S6 2.808935 1_565
Ho2 S6 2.808935 1_655
Ho3 S1 2.681523 1_555
Ho3 S2 2.696391 1_565
Ho3 S2 2.696391 1_655
Ho3 S8 2.713777 1_555
Ho3 S5 2.781094 1_565
Ho3 S5 2.781094 1_655
Cu0 S4 2.349944 1_555
Cu0 S0 2.353392 1_655
Cu0 S0 2.353392 1_565
Cu0 S3 2.467352 1_555
Cu1 S5 2.338713 1_565
Cu1 S5 2.338713 1_655
Cu1 S2 2.360662 1_555
Cu1 S3 2.537935 1_555
Cu2 S7 2.349944 1_555
Cu2 S1 2.353392 1_545
Cu2 S1 2.353392 1_455
Cu2 S2 2.467352 1_555
Cu3 S8 2.338713 1_545
Cu3 S8 2.338713 1_455
Cu3 S3 2.360662 1_555
Cu3 S2 2.537935 1_555
