# generated using pymatgen
data_Tb4InGe4Rh
_symmetry_space_group_name_H-M   'P 1'
_cell_length_a   10.44400831
_cell_length_b   10.44400831
_cell_length_c   10.37373357
_cell_angle_alpha   75.29995745
_cell_angle_beta   75.29995745
_cell_angle_gamma   23.63367846
_symmetry_Int_Tables_number   1
_chemical_formula_structural   Tb4InGe4Rh
_chemical_formula_sum   'Tb8 In2 Ge8 Rh2'
_cell_volume   438.11042339
_cell_formula_units_Z   2
loop_
 _symmetry_equiv_pos_site_id
 _symmetry_equiv_pos_as_xyz
  1  'x, y, z'
loop_
 _atom_site_type_symbol
 _atom_site_label
 _atom_site_symmetry_multiplicity
 _atom_site_fract_x
 _atom_site_fract_y
 _atom_site_fract_z
 _atom_site_occupancy
  Tb  Tb0  1  0.27807100  0.27807100  0.34483300  1
  Tb  Tb1  1  0.72192900  0.72192900  0.65516700  1
  Tb  Tb2  1  0.37108200  0.37108200  0.99301300  1
  Tb  Tb3  1  0.62891800  0.62891800  0.00698700  1
  Tb  Tb4  1  0.37270300  0.37270300  0.63945600  1
  Tb  Tb5  1  0.62729700  0.62729700  0.36054400  1
  Tb  Tb6  1  0.54144000  0.54144000  0.72660900  1
  Tb  Tb7  1  0.45856000  0.45856000  0.27339100  1
  In  In0  1  0.00000000  0.00000000  0.50000000  1
  In  In1  1  0.00000000  0.00000000  0.00000000  1
  Ge  Ge0  1  0.06312800  0.06312800  0.21723900  1
  Ge  Ge1  1  0.93687200  0.93687200  0.78276100  1
  Ge  Ge2  1  0.13289600  0.13289600  0.80925200  1
  Ge  Ge3  1  0.86710400  0.86710400  0.19074800  1
  Ge  Ge4  1  0.14480800  0.14480800  0.54813800  1
  Ge  Ge5  1  0.85519200  0.85519200  0.45186200  1
  Ge  Ge6  1  0.80470300  0.80470300  0.84942800  1
  Ge  Ge7  1  0.19529700  0.19529700  0.15057200  1
  Rh  Rh0  1  0.24060300  0.24060300  0.89375900  1
  Rh  Rh1  1  0.75939700  0.75939700  0.10624100  1
loop_
_geom_bond_atom_site_label_1
_geom_bond_atom_site_label_2
_geom_bond_distance
_geom_bond_site_symmetry_2
In0 Tb5 3.389485 1_455
In0 Tb4 3.389485 1_455
In0 Tb5 3.389485 1_545
In0 Tb4 3.389485 1_545
In0 Tb6 3.442533 1_455
In0 Tb7 3.442533 1_455
In0 Tb7 3.442533 1_545
In0 Tb6 3.442533 1_545
In1 Tb3 3.409680 1_545
In1 Tb2 3.409680 1_454
In1 Tb3 3.409680 1_455
In1 Tb2 3.409680 1_544
In1 Tb7 3.477013 1_455
In1 Tb6 3.477013 1_454
In1 Tb6 3.477013 1_544
In1 Tb7 3.477013 1_545
Ge0 Ge7 2.609865 1_555
Ge0 In1 2.872734 1_555
Ge0 In0 2.882185 1_555
Ge0 Tb7 2.972984 1_455
Ge0 Tb7 2.972984 1_545
Ge0 Tb5 3.084934 1_545
Ge0 Tb5 3.084934 1_455
Ge0 Tb3 3.101548 1_545
Ge0 Tb3 3.101548 1_455
Ge1 Ge6 2.609865 1_555
Ge1 In1 2.872734 1_666
Ge1 In0 2.882185 1_665
Ge1 Tb6 2.972984 1_655
Ge1 Tb6 2.972984 1_565
Ge1 Tb4 3.084934 1_565
Ge1 Tb4 3.084934 1_655
Ge1 Tb2 3.101548 1_655
Ge1 Tb2 3.101548 1_565
Ge2 Rh0 2.572695 1_555
Ge2 Ge4 2.656023 1_555
Ge2 In1 2.917263 1_556
Ge2 Tb3 2.949923 1_456
Ge2 Tb3 2.949923 1_546
Ge2 Tb1 2.989007 1_545
Ge2 Tb1 2.989007 1_455
Ge2 Tb6 3.104324 1_545
Ge2 Tb6 3.104324 1_455
Ge3 Rh1 2.572695 1_555
Ge3 Ge5 2.656023 1_555
Ge3 In1 2.917263 1_665
Ge3 Tb2 2.949923 1_654
Ge3 Tb2 2.949923 1_564
Ge3 Tb0 2.989007 1_655
Ge3 Tb0 2.989007 1_565
Ge3 Tb7 3.104324 1_565
Ge3 Tb7 3.104324 1_655
Ge4 Tb5 2.975038 1_545
Ge4 Tb5 2.975038 1_455
Ge4 Tb0 2.981949 1_555
Ge4 Tb1 3.033310 1_455
Ge4 Tb1 3.033310 1_545
Ge4 In0 3.127524 1_555
Ge4 Tb6 3.231048 1_455
Ge4 Tb6 3.231048 1_545
Ge5 Tb4 2.975038 1_565
Ge5 Tb4 2.975038 1_655
Ge5 Tb1 2.981949 1_555
Ge5 Tb0 3.033310 1_565
Ge5 Tb0 3.033310 1_655
Ge5 In0 3.127524 1_665
Ge5 Tb7 3.231048 1_565
Ge5 Tb7 3.231048 1_655
Ge6 Rh0 2.488137 1_655
Ge6 Rh0 2.488137 1_565
Ge6 Rh1 2.583788 1_556
Ge6 Tb1 2.948462 1_555
Ge6 Tb4 3.111515 1_655
Ge6 Tb4 3.111515 1_565
Ge6 Tb2 3.111742 1_565
Ge6 Tb2 3.111742 1_655
Ge7 Rh1 2.488137 1_545
Ge7 Rh1 2.488137 1_455
Ge7 Rh0 2.583788 1_554
Ge7 Tb0 2.948462 1_555
Ge7 Tb5 3.111515 1_455
Ge7 Tb5 3.111515 1_545
Ge7 Tb3 3.111742 1_455
Ge7 Tb3 3.111742 1_545
Rh0 Tb2 3.098533 1_555
Rh0 Tb3 3.126880 1_546
Rh0 Tb3 3.126880 1_456
Rh0 Tb4 3.249547 1_555
Rh0 Tb1 3.366916 1_545
Rh0 Tb1 3.366916 1_455
Rh1 Tb3 3.098533 1_555
Rh1 Tb2 3.126880 1_564
Rh1 Tb2 3.126880 1_654
Rh1 Tb5 3.249547 1_555
Rh1 Tb0 3.366916 1_565
Rh1 Tb0 3.366916 1_655
