# generated using pymatgen
data_Na3SbSe3
_symmetry_space_group_name_H-M   'P 1'
_cell_length_a   8.99223911
_cell_length_b   8.99223911
_cell_length_c   8.99223911
_cell_angle_alpha   90.00000000
_cell_angle_beta   90.00000000
_cell_angle_gamma   90.00000000
_symmetry_Int_Tables_number   1
_chemical_formula_structural   Na3SbSe3
_chemical_formula_sum   'Na12 Sb4 Se12'
_cell_volume   727.11572951
_cell_formula_units_Z   4
loop_
 _symmetry_equiv_pos_site_id
 _symmetry_equiv_pos_as_xyz
  1  'x, y, z'
loop_
 _atom_site_type_symbol
 _atom_site_label
 _atom_site_symmetry_multiplicity
 _atom_site_fract_x
 _atom_site_fract_y
 _atom_site_fract_z
 _atom_site_occupancy
  Na  Na0  1  0.91839545  0.41839545  0.08160455  1
  Na  Na1  1  0.41839545  0.08160455  0.91839545  1
  Na  Na2  1  0.08160455  0.91839545  0.41839545  1
  Na  Na3  1  0.58160455  0.58160455  0.58160455  1
  Na  Na4  1  0.17767152  0.67767152  0.82232848  1
  Na  Na5  1  0.67767152  0.82232848  0.17767152  1
  Na  Na6  1  0.82232848  0.17767152  0.67767152  1
  Na  Na7  1  0.32232848  0.32232848  0.32232848  1
  Na  Na8  1  0.68632332  0.18632332  0.31367668  1
  Na  Na9  1  0.18632332  0.31367668  0.68632332  1
  Na  Na10  1  0.31367668  0.68632332  0.18632332  1
  Na  Na11  1  0.81367668  0.81367668  0.81367668  1
  Sb  Sb0  1  0.46338698  0.96338698  0.53661302  1
  Sb  Sb1  1  0.96338698  0.53661302  0.46338698  1
  Sb  Sb2  1  0.53661302  0.46338698  0.96338698  1
  Sb  Sb3  1  0.03661302  0.03661302  0.03661302  1
  Se  Se0  1  0.99892744  0.76266714  0.11401929  1
  Se  Se1  1  0.88598071  0.49892744  0.73733286  1
  Se  Se2  1  0.26266714  0.38598071  0.00107256  1
  Se  Se3  1  0.49892744  0.73733286  0.88598071  1
  Se  Se4  1  0.38598071  0.00107256  0.26266714  1
  Se  Se5  1  0.76266714  0.11401929  0.99892744  1
  Se  Se6  1  0.00107256  0.26266714  0.38598071  1
  Se  Se7  1  0.11401929  0.99892744  0.76266714  1
  Se  Se8  1  0.73733286  0.88598071  0.49892744  1
  Se  Se9  1  0.50107256  0.23733286  0.61401929  1
  Se  Se10  1  0.61401929  0.50107256  0.23733286  1
  Se  Se11  1  0.23733286  0.61401929  0.50107256  1
loop_
_geom_bond_atom_site_label_1
_geom_bond_atom_site_label_2
_geom_bond_distance
_geom_bond_site_symmetry_2
Na0 Se6 3.163066 1_655
Na0 Se5 3.163066 1_554
Na0 Se10 3.163066 1_555
Na0 Se1 3.192677 1_554
Na0 Se0 3.192677 1_555
Na0 Se2 3.192677 1_655
Na1 Se2 3.163066 1_556
Na1 Se9 3.163066 1_555
Na1 Se7 3.163066 1_545
Na1 Se4 3.192677 1_556
Na1 Se5 3.192677 1_555
Na1 Se3 3.192677 1_545
Na2 Se4 3.163066 1_565
Na2 Se11 3.163066 1_555
Na2 Se0 3.163066 1_455
Na2 Se8 3.192677 1_455
Na2 Se7 3.192677 1_555
Na2 Se6 3.192677 1_565
Na3 Se3 3.163066 1_555
Na3 Se8 3.163066 1_555
Na3 Se1 3.163066 1_555
Na3 Se10 3.192677 1_555
Na3 Se11 3.192677 1_555
Na3 Se9 3.192677 1_555
Na4 Se3 2.993436 1_555
Na4 Se7 2.993436 1_555
Na4 Se11 2.993436 1_555
Na4 Se0 3.169777 1_456
Na4 Se2 3.169777 1_556
Na4 Se1 3.169777 1_455
Na5 Se0 2.993436 1_555
Na5 Se10 2.993436 1_555
Na5 Se8 2.993436 1_555
Na5 Se5 3.169777 1_564
Na5 Se4 3.169777 1_565
Na5 Se3 3.169777 1_554
Na6 Se1 2.993436 1_555
Na6 Se5 2.993436 1_555
Na6 Se9 2.993436 1_555
Na6 Se6 3.169777 1_655
Na6 Se7 3.169777 1_645
Na6 Se8 3.169777 1_545
Na7 Se4 2.993436 1_555
Na7 Se2 2.993436 1_555
Na7 Se6 2.993436 1_555
Na7 Se11 3.169777 1_555
Na7 Se9 3.169777 1_555
Na7 Se10 3.169777 1_555
Na8 Se6 2.984060 1_655
Na8 Se5 2.984060 1_554
Na8 Se10 2.984060 1_555
Na8 Se8 3.206153 1_545
Na8 Se4 3.206153 1_555
Na8 Se9 3.206153 1_555
Na9 Se2 2.984060 1_556
Na9 Se9 2.984060 1_555
Na9 Se7 2.984060 1_545
Na9 Se6 3.206153 1_555
Na9 Se1 3.206153 1_455
Na9 Se11 3.206153 1_555
Na10 Se4 2.984060 1_565
Na10 Se0 2.984060 1_455
Na10 Se11 2.984060 1_555
Na10 Se3 3.206153 1_554
Na10 Se2 3.206153 1_555
Na10 Se10 3.206153 1_555
Na11 Se1 2.984060 1_555
Na11 Se3 2.984060 1_555
Na11 Se8 2.984060 1_555
Na11 Se7 3.206153 1_655
Na11 Se0 3.206153 1_556
Na11 Se5 3.206153 1_565
Sb0 Se9 2.582171 1_565
Sb0 Se4 2.582171 1_565
Sb0 Se8 2.582171 1_555
Sb1 Se11 2.582171 1_655
Sb1 Se1 2.582171 1_555
Sb1 Se6 2.582171 1_655
Sb2 Se3 2.582171 1_555
Sb2 Se10 2.582171 1_556
Sb2 Se2 2.582171 1_556
Sb3 Se0 2.582171 1_445
Sb3 Se5 2.582171 1_454
Sb3 Se7 2.582171 1_544
