# generated using pymatgen
data_Fe3P4(H3O5)4
_symmetry_space_group_name_H-M   'P 1'
_cell_length_a   17.07658700
_cell_length_b   5.20792200
_cell_length_c   10.16956446
_cell_angle_alpha   60.40799983
_cell_angle_beta   90.00000000
_cell_angle_gamma   90.00000000
_symmetry_Int_Tables_number   1
_chemical_formula_structural   Fe3P4(H3O5)4
_chemical_formula_sum   'Fe6 P8 H24 O40'
_cell_volume   786.44688168
_cell_formula_units_Z   2
loop_
 _symmetry_equiv_pos_site_id
 _symmetry_equiv_pos_as_xyz
  1  'x, y, z'
loop_
 _atom_site_type_symbol
 _atom_site_label
 _atom_site_symmetry_multiplicity
 _atom_site_fract_x
 _atom_site_fract_y
 _atom_site_fract_z
 _atom_site_occupancy
  Fe  Fe0  1  0.00000000  0.00000000  0.00000000  1
  Fe  Fe1  1  0.50000000  0.00000000  0.50000000  1
  Fe  Fe2  1  0.70313800  0.12094500  0.12792200  1
  Fe  Fe3  1  0.79686200  0.12094500  0.62792200  1
  Fe  Fe4  1  0.29686200  0.87905500  0.87207800  1
  Fe  Fe5  1  0.20313800  0.87905500  0.37207800  1
  P  P0  1  0.80538600  0.75091700  0.00405300  1
  P  P1  1  0.69461400  0.75091700  0.50405300  1
  P  P2  1  0.19461400  0.24908300  0.99594700  1
  P  P3  1  0.30538600  0.24908300  0.49594700  1
  P  P4  1  0.58125300  0.54627900  0.19261300  1
  P  P5  1  0.91874700  0.54627900  0.69261300  1
  P  P6  1  0.41874700  0.45372100  0.80738700  1
  P  P7  1  0.08125300  0.45372100  0.30738700  1
  H  H0  1  0.88224800  0.99783500  0.16042100  1
  H  H1  1  0.61775200  0.99783500  0.66042100  1
  H  H2  1  0.11775200  0.00216500  0.83957900  1
  H  H3  1  0.38224800  0.00216500  0.33957900  1
  H  H4  1  0.94503900  0.17981800  0.19582500  1
  H  H5  1  0.55496100  0.17981800  0.69582500  1
  H  H6  1  0.05496100  0.82018200  0.80417500  1
  H  H7  1  0.44503900  0.82018200  0.30417500  1
  H  H8  1  0.70364500  0.58024800  0.85844800  1
  H  H9  1  0.79635500  0.58024800  0.35844800  1
  H  H10  1  0.29635500  0.41975200  0.14155200  1
  H  H11  1  0.20364500  0.41975200  0.64155200  1
  H  H12  1  0.70053800  0.31615600  0.82379100  1
  H  H13  1  0.79946200  0.31615600  0.32379100  1
  H  H14  1  0.29946200  0.68384400  0.17620900  1
  H  H15  1  0.20053800  0.68384400  0.67620900  1
  H  H16  1  0.91381800  0.61720800  0.92833800  1
  H  H17  1  0.58618200  0.61720800  0.42833800  1
  H  H18  1  0.08618200  0.38279200  0.07166200  1
  H  H19  1  0.41381800  0.38279200  0.57166200  1
  H  H20  1  0.50398200  0.77526200  0.99318700  1
  H  H21  1  0.99601800  0.77526200  0.49318700  1
  H  H22  1  0.49601800  0.22473800  0.00681300  1
  H  H23  1  0.00398200  0.22473800  0.50681300  1
  O  O0  1  0.79947100  0.94461300  0.07825100  1
  O  O1  1  0.70052900  0.94461300  0.57825100  1
  O  O2  1  0.20052900  0.05538700  0.92174900  1
  O  O3  1  0.29947100  0.05538700  0.42174900  1
  O  O4  1  0.76230300  0.88312500  0.85100600  1
  O  O5  1  0.73769700  0.88312500  0.35100600  1
  O  O6  1  0.23769700  0.11687500  0.14899400  1
  O  O7  1  0.26230300  0.11687500  0.64899400  1
  O  O8  1  0.89836800  0.74492400  0.97552300  1
  O  O9  1  0.60163200  0.74492400  0.47552300  1
  O  O10  1  0.10163200  0.25507600  0.02447700  1
  O  O11  1  0.39836800  0.25507600  0.52447700  1
  O  O12  1  0.77936600  0.43188800  0.11073200  1
  O  O13  1  0.72063400  0.43188800  0.61073200  1
  O  O14  1  0.22063400  0.56811200  0.88926800  1
  O  O15  1  0.27936600  0.56811200  0.38926800  1
  O  O16  1  0.60906700  0.30653900  0.15831500  1
  O  O17  1  0.89093300  0.30653900  0.65831500  1
  O  O18  1  0.39093300  0.69346100  0.84168500  1
  O  O19  1  0.10906700  0.69346100  0.34168500  1
  O  O20  1  0.64176200  0.79125400  0.14577200  1
  O  O21  1  0.85823800  0.79125400  0.64577200  1
  O  O22  1  0.35823800  0.20874600  0.85422800  1
  O  O23  1  0.14176200  0.20874600  0.35422800  1
  O  O24  1  0.55546600  0.41887300  0.35959000  1
  O  O25  1  0.94453400  0.41887300  0.85959000  1
  O  O26  1  0.44453400  0.58112700  0.64041000  1
  O  O27  1  0.05546600  0.58112700  0.14041000  1
  O  O28  1  0.50141000  0.68644100  0.10311200  1
  O  O29  1  0.99859000  0.68644100  0.60311200  1
  O  O30  1  0.49859000  0.31355900  0.89688800  1
  O  O31  1  0.00141000  0.31355900  0.39688800  1
  O  O32  1  0.93856200  0.00579300  0.18460300  1
  O  O33  1  0.56143800  0.00579300  0.68460300  1
  O  O34  1  0.06143800  0.99420700  0.81539700  1
  O  O35  1  0.43856200  0.99420700  0.31539700  1
  O  O36  1  0.68240600  0.37868600  0.89572200  1
  O  O37  1  0.81759400  0.37868600  0.39572200  1
  O  O38  1  0.31759400  0.62131400  0.10427800  1
  O  O39  1  0.18240600  0.62131400  0.60427800  1
loop_
_geom_bond_atom_site_label_1
_geom_bond_atom_site_label_2
_geom_bond_distance
_geom_bond_site_symmetry_2
Fe0 O27 2.149043 1_545
Fe0 O25 2.149043 1_454
Fe0 O32 2.163780 1_455
Fe0 O34 2.163780 1_544
Fe0 O10 2.272727 1_555
Fe0 O8 2.272727 1_444
Fe1 O24 2.149043 1_555
Fe1 O26 2.149043 1_545
Fe1 O33 2.163780 1_555
Fe1 O35 2.163780 1_545
Fe1 O11 2.272727 1_555
Fe1 O9 2.272727 1_545
Fe2 O20 1.942093 1_545
Fe2 O16 1.976204 1_555
Fe2 O12 2.016873 1_555
Fe2 O5 2.062523 1_545
Fe2 O0 2.064648 1_545
Fe2 O36 2.091098 1_554
Fe3 O21 1.942093 1_545
Fe3 O17 1.976204 1_555
Fe3 O13 2.016873 1_555
Fe3 O4 2.062523 1_545
Fe3 O1 2.064648 1_545
Fe3 O37 2.091098 1_555
Fe4 O22 1.942093 1_565
Fe4 O18 1.976204 1_555
Fe4 O14 2.016873 1_555
Fe4 O7 2.062523 1_565
Fe4 O2 2.064648 1_565
Fe4 O38 2.091098 1_556
Fe5 O23 1.942093 1_565
Fe5 O19 1.976204 1_555
Fe5 O15 2.016873 1_555
Fe5 O6 2.062523 1_565
Fe5 O3 2.064648 1_565
Fe5 O39 2.091098 1_555
H0 O32 0.998515 1_565
H0 O0 1.732623 1_555
H1 O33 0.998515 1_565
H1 O1 1.732623 1_555
H2 O34 0.998515 1_545
H2 O2 1.732623 1_555
H3 O35 0.998515 1_545
H3 O3 1.732623 1_555
H4 O32 0.974066 1_555
H5 O33 0.974066 1_555
H6 O34 0.974066 1_555
H7 O35 0.974066 1_555
H8 O36 0.992044 1_555
H9 O37 0.992044 1_555
H10 O38 0.992044 1_555
H11 O39 0.992044 1_555
H12 O36 0.986051 1_555
H13 O37 0.986051 1_555
H14 O38 0.986051 1_555
H15 O39 0.986051 1_555
H16 O8 1.028344 1_555
H16 O25 1.595008 1_555
H17 O9 1.028344 1_555
H17 O24 1.595008 1_555
H18 O10 1.028344 1_555
H18 O27 1.595008 1_555
H19 O11 1.028344 1_555
H19 O26 1.595008 1_555
H20 O28 0.977172 1_556
H21 O29 0.977172 1_555
H22 O30 0.977172 1_554
H23 O31 0.977172 1_555
O0 P0 1.532615 1_555
O1 P1 1.532615 1_555
O2 P2 1.532615 1_555
O3 P3 1.532615 1_555
O4 P0 1.542528 1_556
O5 P1 1.542528 1_555
O6 P2 1.542528 1_554
O7 P3 1.542528 1_555
O8 P0 1.617175 1_556
O9 P1 1.617175 1_555
O10 P2 1.617175 1_554
O11 P3 1.617175 1_555
O12 P0 1.534496 1_555
O13 P1 1.534496 1_555
O14 P2 1.534496 1_555
O15 P3 1.534496 1_555
O16 P4 1.528473 1_555
O17 P5 1.528473 1_555
O18 P6 1.528473 1_555
O19 P7 1.528473 1_555
O20 P4 1.523832 1_555
O21 P5 1.523832 1_555
O22 P6 1.523832 1_555
O23 P7 1.523832 1_555
O24 P4 1.550764 1_555
O25 P5 1.550764 1_555
O26 P6 1.550764 1_555
O27 P7 1.550764 1_555
O28 P4 1.601272 1_555
O29 P5 1.601272 1_555
O30 P6 1.601272 1_555
O31 P7 1.601272 1_555
