# generated using pymatgen
data_Sr6Ca2Co5(CuO8)3
_symmetry_space_group_name_H-M   'P 1'
_cell_length_a   7.82215600
_cell_length_b   7.61789100
_cell_length_c   7.75283745
_cell_angle_alpha   89.95441664
_cell_angle_beta   90.00000000
_cell_angle_gamma   90.00000000
_symmetry_Int_Tables_number   1
_chemical_formula_structural   Sr6Ca2Co5(CuO8)3
_chemical_formula_sum   'Sr6 Ca2 Co5 Cu3 O24'
_cell_volume   461.97850432
_cell_formula_units_Z   1
loop_
 _symmetry_equiv_pos_site_id
 _symmetry_equiv_pos_as_xyz
  1  'x, y, z'
loop_
 _atom_site_type_symbol
 _atom_site_label
 _atom_site_symmetry_multiplicity
 _atom_site_fract_x
 _atom_site_fract_y
 _atom_site_fract_z
 _atom_site_occupancy
  Sr  Sr0  1  0.24660600  0.24928000  0.24939100  1
  Sr  Sr1  1  0.24669100  0.24920400  0.75065800  1
  Sr  Sr2  1  0.75308800  0.24899500  0.75062200  1
  Sr  Sr3  1  0.24669100  0.75079600  0.24934200  1
  Sr  Sr4  1  0.24660600  0.75072000  0.75060900  1
  Sr  Sr5  1  0.75308800  0.75100500  0.24937800  1
  Ca  Ca0  1  0.75561700  0.24899000  0.24870600  1
  Ca  Ca1  1  0.75561700  0.75101000  0.75129400  1
  Co  Co0  1  0.50292400  0.00000000  0.50000000  1
  Co  Co1  1  0.99837500  0.50000000  0.00000000  1
  Co  Co2  1  0.99865600  0.50000000  0.50000000  1
  Co  Co3  1  0.50147000  0.50000000  0.00000000  1
  Co  Co4  1  0.50163000  0.50000000  0.50000000  1
  Cu  Cu0  1  0.99938600  0.00000000  0.00000000  1
  Cu  Cu1  1  0.00012500  0.00000000  0.50000000  1
  Cu  Cu2  1  0.50102600  0.00000000  0.00000000  1
  O  O0  1  0.99590000  0.25809400  0.00262000  1
  O  O1  1  0.99609200  0.25741400  0.49750600  1
  O  O2  1  0.50396100  0.26081800  0.00258600  1
  O  O3  1  0.50338300  0.24059100  0.49888700  1
  O  O4  1  0.99590000  0.74190600  0.99738000  1
  O  O5  1  0.99609200  0.74258600  0.50249400  1
  O  O6  1  0.50396100  0.73918200  0.99741400  1
  O  O7  1  0.50338300  0.75940900  0.50111300  1
  O  O8  1  0.25060300  0.00000000  0.00000000  1
  O  O9  1  0.24943300  0.00000000  0.50000000  1
  O  O10  1  0.74954700  0.00000000  0.00000000  1
  O  O11  1  0.75154000  0.00000000  0.50000000  1
  O  O12  1  0.24983400  0.50000000  0.00000000  1
  O  O13  1  0.25075500  0.50000000  0.50000000  1
  O  O14  1  0.74993400  0.50000000  0.00000000  1
  O  O15  1  0.74945900  0.50000000  0.50000000  1
  O  O16  1  0.99319800  0.00484700  0.25019200  1
  O  O17  1  0.99319800  0.99515300  0.74980800  1
  O  O18  1  0.50459000  0.00322100  0.25054500  1
  O  O19  1  0.50459000  0.99677900  0.74945500  1
  O  O20  1  0.99475700  0.49778400  0.24956300  1
  O  O21  1  0.99475700  0.50221600  0.75043700  1
  O  O22  1  0.50376800  0.49785200  0.26564100  1
  O  O23  1  0.50376800  0.50214800  0.73435900  1
loop_
_geom_bond_atom_site_label_1
_geom_bond_atom_site_label_2
_geom_bond_distance
_geom_bond_site_symmetry_2
Ca0 O16 2.629219 1_555
Ca0 O20 2.662946 1_555
Ca0 O0 2.679027 1_555
Ca0 O1 2.695047 1_555
Ca0 O10 2.706235 1_555
Ca0 O18 2.713128 1_555
Ca0 O14 2.714840 1_555
Ca0 O11 2.718189 1_555
Ca0 O15 2.731350 1_555
Ca0 O22 2.737264 1_555
Ca0 O2 2.742948 1_555
Ca0 O3 2.767449 1_555
Ca1 O17 2.629219 1_555
Ca1 O21 2.662946 1_555
Ca1 O4 2.679027 1_555
Ca1 O5 2.695047 1_555
Ca1 O10 2.706235 1_566
Ca1 O19 2.713128 1_555
Ca1 O14 2.714840 1_556
Ca1 O11 2.718189 1_565
Ca1 O15 2.731350 1_555
Ca1 O23 2.737264 1_555
Ca1 O6 2.742948 1_555
Ca1 O7 2.767449 1_555
Co0 O7 1.832813 1_545
Co0 O3 1.832813 1_555
Co0 O19 1.934164 1_545
Co0 O18 1.934164 1_555
Co0 O11 1.944713 1_555
Co0 O9 1.982846 1_555
Co1 O4 1.843011 1_554
Co1 O0 1.843011 1_555
Co1 O21 1.935089 1_554
Co1 O20 1.935089 1_555
Co1 O14 1.943344 1_555
Co1 O12 1.966952 1_655
Co2 O5 1.848219 1_555
Co2 O1 1.848219 1_555
Co2 O21 1.941924 1_555
Co2 O20 1.941924 1_555
Co2 O15 1.949258 1_555
Co2 O13 1.971958 1_655
Co3 O6 1.822261 1_554
Co3 O2 1.822261 1_555
Co3 O14 1.943524 1_555
Co3 O12 1.968336 1_555
Co3 O23 2.059602 1_554
Co3 O22 2.059602 1_555
Co4 O22 1.817111 1_555
Co4 O23 1.817111 1_555
Co4 O15 1.938557 1_555
Co4 O13 1.962383 1_555
Co4 O7 1.976223 1_555
Co4 O3 1.976223 1_555
Cu0 O17 1.940682 1_544
Cu0 O16 1.940682 1_555
Cu0 O10 1.954280 1_555
Cu0 O8 1.965059 1_655
Cu0 O0 1.966442 1_555
Cu0 O4 1.966442 1_544
Cu1 O16 1.937801 1_455
Cu1 O17 1.937801 1_445
Cu1 O11 1.944471 1_455
Cu1 O9 1.950126 1_555
Cu1 O1 1.961285 1_455
Cu1 O5 1.961285 1_445
Cu2 O18 1.942809 1_555
Cu2 O19 1.942809 1_544
Cu2 O10 1.943970 1_555
Cu2 O8 1.958848 1_555
Cu2 O6 1.987133 1_544
Cu2 O2 1.987133 1_555
O0 Sr2 2.725684 1_554
O0 Sr0 2.740494 1_655
O0 Sr1 2.769299 1_654
O1 Sr2 2.732745 1_555
O1 Sr0 2.746656 1_655
O1 Sr1 2.774559 1_655
O2 Sr2 2.760756 1_554
O2 Sr0 2.778698 1_555
O2 Sr1 2.805834 1_554
O3 Sr2 2.761954 1_555
O3 Sr0 2.789260 1_555
O3 Sr1 2.801103 1_555
O4 Sr5 2.725684 1_556
O4 Sr4 2.740494 1_655
O4 Sr3 2.769299 1_656
O5 Sr5 2.732745 1_555
O5 Sr4 2.746656 1_655
O5 Sr3 2.774559 1_655
O6 Sr5 2.760756 1_556
O6 Sr4 2.778698 1_555
O6 Sr3 2.805834 1_556
O7 Sr5 2.761954 1_555
O7 Sr4 2.789260 1_555
O7 Sr3 2.801103 1_555
O8 Sr1 2.708498 1_554
O8 Sr3 2.708498 1_545
O8 Sr0 2.711337 1_555
O8 Sr4 2.711337 1_544
O9 Sr4 2.715834 1_545
O9 Sr0 2.715834 1_555
O9 Sr3 2.717856 1_545
O9 Sr1 2.717856 1_555
O10 Sr5 2.707551 1_545
O10 Sr2 2.707551 1_554
O11 Sr5 2.716486 1_545
O11 Sr2 2.716486 1_555
O12 Sr0 2.716813 1_555
O12 Sr4 2.716813 1_554
O12 Sr1 2.719106 1_554
O12 Sr3 2.719106 1_555
O13 Sr3 2.724281 1_555
O13 Sr1 2.724281 1_555
O13 Sr0 2.725780 1_555
O13 Sr4 2.725780 1_555
O14 Sr2 2.720425 1_554
O14 Sr5 2.720425 1_555
O15 Sr5 2.725161 1_555
O15 Sr2 2.725161 1_555
O16 Sr5 2.695731 1_545
O16 Sr0 2.719634 1_655
O16 Sr3 2.770797 1_645
O17 Sr2 2.695731 1_565
O17 Sr4 2.719634 1_655
O17 Sr1 2.770797 1_665
O18 Sr5 2.733136 1_545
O18 Sr0 2.754252 1_555
O18 Sr3 2.787013 1_545
O19 Sr2 2.733136 1_565
O19 Sr4 2.754252 1_555
O19 Sr1 2.787013 1_565
O20 Sr5 2.700849 1_555
O20 Sr0 2.732152 1_655
O20 Sr3 2.756531 1_655
O21 Sr2 2.700849 1_555
O21 Sr4 2.732152 1_655
O21 Sr1 2.756531 1_655
O22 Sr5 2.745533 1_555
O22 Sr0 2.765561 1_555
O22 Sr3 2.787872 1_555
O23 Sr2 2.745533 1_555
O23 Sr4 2.765561 1_555
O23 Sr1 2.787872 1_555
