# generated using pymatgen
data_KAlSiO4
_symmetry_space_group_name_H-M   'P 1'
_cell_length_a   5.18406500
_cell_length_b   5.16286563
_cell_length_c   5.16287073
_cell_angle_alpha   59.99993357
_cell_angle_beta   90.00015682
_cell_angle_gamma   90.00023437
_symmetry_Int_Tables_number   1
_chemical_formula_structural   KAlSiO4
_chemical_formula_sum   'K1 Al1 Si1 O4'
_cell_volume   119.66932825
_cell_formula_units_Z   1
loop_
 _symmetry_equiv_pos_site_id
 _symmetry_equiv_pos_as_xyz
  1  'x, y, z'
loop_
 _atom_site_type_symbol
 _atom_site_label
 _atom_site_symmetry_multiplicity
 _atom_site_fract_x
 _atom_site_fract_y
 _atom_site_fract_z
 _atom_site_occupancy
  K  K0  1  0.51908400  0.99999400  0.99999800  1
  Al  Al0  1  0.05389200  0.66666800  0.66666700  1
  Si  Si0  1  0.93500300  0.33333500  0.33333300  1
  O  O0  1  0.05668300  0.61372100  0.01802900  1
  O  O1  1  0.05668000  0.01803100  0.36825200  1
  O  O2  1  0.05668200  0.36825300  0.61372000  1
  O  O3  1  0.62811600  0.33333700  0.33333100  1
loop_
_geom_bond_atom_site_label_1
_geom_bond_atom_site_label_2
_geom_bond_distance
_geom_bond_site_symmetry_2
K0 O3 3.033857 1_556
K0 O3 3.033902 1_565
K0 O3 3.033940 1_566
K0 O0 3.089706 1_556
K0 O2 3.089752 1_565
K0 O1 3.089779 1_566
Al0 O2 1.694041 1_555
Al0 O0 1.694042 1_556
Al0 O1 1.694043 1_565
O0 Si0 1.669401 1_455
O1 Si0 1.669397 1_455
O2 Si0 1.669405 1_455
O3 Si0 1.590922 1_555
