# generated using pymatgen
data_K3ErF6
_symmetry_space_group_name_H-M   'P 1'
_cell_length_a   6.52901653
_cell_length_b   6.24377720
_cell_length_c   10.78524986
_cell_angle_alpha   55.59648560
_cell_angle_beta   90.00000000
_cell_angle_gamma   90.00000000
_symmetry_Int_Tables_number   1
_chemical_formula_structural   K3ErF6
_chemical_formula_sum   'K6 Er2 F12'
_cell_volume   362.76119764
_cell_formula_units_Z   2
loop_
 _symmetry_equiv_pos_site_id
 _symmetry_equiv_pos_as_xyz
  1  'x, y, z'
loop_
 _atom_site_type_symbol
 _atom_site_label
 _atom_site_symmetry_multiplicity
 _atom_site_fract_x
 _atom_site_fract_y
 _atom_site_fract_z
 _atom_site_occupancy
  K  K0  1  0.50000000  0.50000000  0.00000000  1
  K  K1  1  0.00000000  0.50000000  0.50000000  1
  K  K2  1  0.05716855  0.72770023  0.75424837  1
  K  K3  1  0.94283145  0.27229977  0.24575163  1
  K  K4  1  0.55716855  0.27229977  0.74575163  1
  K  K5  1  0.44283145  0.72770023  0.25424837  1
  Er  Er0  1  0.50000000  -0.00000000  0.50000000  1
  Er  Er1  1  0.00000000  -0.00000000  0.00000000  1
  F  F0  1  0.77093257  0.76211687  0.57082429  1
  F  F1  1  0.22906743  0.23788313  0.42917571  1
  F  F2  1  0.27093257  0.23788313  0.92917571  1
  F  F3  1  0.72906743  0.76211687  0.07082429  1
  F  F4  1  0.44219789  0.89117447  0.72413412  1
  F  F5  1  0.55780211  0.10882553  0.27586588  1
  F  F6  1  0.94219789  0.10882553  0.77586588  1
  F  F7  1  0.05780211  0.89117447  0.22413412  1
  F  F8  1  0.32479742  0.67028958  0.54988839  1
  F  F9  1  0.67520258  0.32971042  0.45011161  1
  F  F10  1  0.82479742  0.32971042  0.95011161  1
  F  F11  1  0.17520258  0.67028958  0.04988839  1
loop_
_geom_bond_atom_site_label_1
_geom_bond_atom_site_label_2
_geom_bond_distance
_geom_bond_site_symmetry_2
Er0 F8 2.141099 1_545
Er0 F9 2.141099 1_555
Er0 F4 2.142787 1_545
Er0 F5 2.142787 1_555
Er0 F1 2.153270 1_555
Er0 F0 2.153270 1_545
Er1 F11 2.141099 1_545
Er1 F10 2.141099 1_454
Er1 F6 2.142787 1_454
Er1 F7 2.142787 1_545
Er1 F2 2.153270 1_554
Er1 F3 2.153270 1_445
F0 K1 2.628954 1_655
F0 K2 2.640439 1_655
F0 K4 2.887963 1_555
F1 K1 2.628954 1_555
F1 K3 2.640439 1_455
F1 K5 2.887963 1_555
F2 K0 2.628954 1_556
F2 K4 2.640439 1_555
F2 K2 2.887963 1_555
F3 K0 2.628954 1_555
F3 K5 2.640439 1_555
F3 K3 2.887963 1_555
F4 K0 2.597746 1_556
F4 K4 2.628228 1_565
F4 K2 2.663118 1_555
F5 K0 2.597746 1_555
F5 K5 2.628228 1_545
F5 K3 2.663118 1_555
F6 K1 2.597746 1_655
F6 K2 2.628228 1_645
F6 K4 2.663118 1_555
F7 K1 2.597746 1_555
F7 K3 2.628228 1_465
F7 K5 2.663118 1_555
F8 K1 2.561927 1_555
F8 K4 2.647121 1_555
F8 K2 2.988726 1_555
F8 K5 3.098009 1_555
F9 K1 2.561927 1_655
F9 K5 2.647121 1_555
F9 K3 2.988726 1_555
F9 K4 3.098009 1_555
F10 K0 2.561927 1_556
F10 K2 2.647121 1_655
F10 K4 2.988726 1_555
F10 K3 3.098009 1_556
F11 K0 2.561927 1_555
F11 K3 2.647121 1_455
F11 K5 2.988726 1_555
F11 K2 3.098009 1_554
