# generated using pymatgen
data_Ti2Cr3Si
_symmetry_space_group_name_H-M   'P 1'
_cell_length_a   4.79868242
_cell_length_b   4.79868242
_cell_length_c   8.05145300
_cell_angle_alpha   90.00000000
_cell_angle_beta   90.00000000
_cell_angle_gamma   120.00000577
_symmetry_Int_Tables_number   1
_chemical_formula_structural   Ti2Cr3Si
_chemical_formula_sum   'Ti4 Cr6 Si2'
_cell_volume   160.56426154
_cell_formula_units_Z   2
loop_
 _symmetry_equiv_pos_site_id
 _symmetry_equiv_pos_as_xyz
  1  'x, y, z'
loop_
 _atom_site_type_symbol
 _atom_site_label
 _atom_site_symmetry_multiplicity
 _atom_site_fract_x
 _atom_site_fract_y
 _atom_site_fract_z
 _atom_site_occupancy
  Ti  Ti0  1  0.33333300  0.66666700  0.43762800  1
  Ti  Ti1  1  0.66666700  0.33333300  0.56237200  1
  Ti  Ti2  1  0.66666700  0.33333300  0.93762800  1
  Ti  Ti3  1  0.33333300  0.66666700  0.06237200  1
  Cr  Cr0  1  0.82723300  0.17276700  0.25000000  1
  Cr  Cr1  1  0.82723300  0.65446600  0.25000000  1
  Cr  Cr2  1  0.34553400  0.17276700  0.25000000  1
  Cr  Cr3  1  0.17276700  0.82723300  0.75000000  1
  Cr  Cr4  1  0.17276700  0.34553400  0.75000000  1
  Cr  Cr5  1  0.65446600  0.82723300  0.75000000  1
  Si  Si0  1  0.00000000  0.00000000  0.50000000  1
  Si  Si1  1  0.00000000  0.00000000  0.00000000  1
loop_
_geom_bond_atom_site_label_1
_geom_bond_atom_site_label_2
_geom_bond_distance
_geom_bond_site_symmetry_2
Ti0 Ti1 2.946952 1_455
Ti0 Ti1 2.946952 1_565
Ti0 Ti1 2.946960 1_555
Ti0 Ti3 3.021356 1_555
Ti1 Ti2 3.021356 1_555
Ti2 Ti3 2.946952 1_546
Ti2 Ti3 2.946952 1_656
Ti2 Ti3 2.946960 1_556
Cr0 Cr1 2.311521 1_555
Cr0 Cr2 2.311521 1_555
Cr0 Si0 2.472572 1_655
Cr0 Si1 2.472572 1_655
Cr0 Cr2 2.487162 1_655
Cr0 Cr1 2.487162 1_545
Cr0 Ti0 2.835764 1_545
Cr0 Ti0 2.835764 1_655
Cr0 Ti3 2.835764 1_655
Cr0 Ti3 2.835764 1_545
Cr0 Ti1 2.847192 1_555
Cr0 Ti2 2.847192 1_554
Cr1 Cr2 2.311520 1_555
Cr1 Si1 2.472571 1_665
Cr1 Si0 2.472571 1_665
Cr1 Cr2 2.487162 1_665
Cr1 Ti0 2.835762 1_655
Cr1 Ti3 2.835762 1_655
Cr1 Ti0 2.835766 1_555
Cr1 Ti3 2.835766 1_555
Cr1 Ti1 2.847194 1_555
Cr1 Ti2 2.847194 1_554
Cr2 Si1 2.472571 1_555
Cr2 Si0 2.472571 1_555
Cr2 Ti0 2.835762 1_545
Cr2 Ti3 2.835762 1_545
Cr2 Ti0 2.835766 1_555
Cr2 Ti3 2.835766 1_555
Cr2 Ti1 2.847194 1_555
Cr2 Ti2 2.847194 1_554
Cr3 Cr4 2.311521 1_555
Cr3 Cr5 2.311521 1_555
Cr3 Si0 2.472572 1_565
Cr3 Si1 2.472572 1_566
Cr3 Cr5 2.487162 1_455
Cr3 Cr4 2.487162 1_565
Cr3 Ti2 2.835764 1_455
Cr3 Ti2 2.835764 1_565
Cr3 Ti1 2.835764 1_565
Cr3 Ti1 2.835764 1_455
Cr3 Ti3 2.847192 1_556
Cr3 Ti0 2.847192 1_555
Cr4 Cr5 2.311520 1_555
Cr4 Si0 2.472571 1_555
Cr4 Si1 2.472571 1_556
Cr4 Cr5 2.487162 1_445
Cr4 Ti2 2.835762 1_455
Cr4 Ti1 2.835762 1_455
Cr4 Ti2 2.835766 1_555
Cr4 Ti1 2.835766 1_555
Cr4 Ti3 2.847194 1_556
Cr4 Ti0 2.847194 1_555
Cr5 Si1 2.472571 1_666
Cr5 Si0 2.472571 1_665
Cr5 Ti2 2.835762 1_565
Cr5 Ti1 2.835762 1_565
Cr5 Ti2 2.835766 1_555
Cr5 Ti1 2.835766 1_555
Cr5 Ti3 2.847194 1_556
Cr5 Ti0 2.847194 1_555
Si0 Ti1 2.815663 1_455
Si0 Ti0 2.815663 1_545
Si0 Ti1 2.815667 1_445
Si0 Ti1 2.815667 1_555
Si0 Ti0 2.815667 1_555
Si0 Ti0 2.815667 1_445
Si1 Ti3 2.815663 1_545
Si1 Ti2 2.815663 1_454
Si1 Ti3 2.815667 1_555
Si1 Ti3 2.815667 1_445
Si1 Ti2 2.815667 1_554
Si1 Ti2 2.815667 1_444
