# generated using pymatgen
data_Nb4Pb3(O6F)2
_symmetry_space_group_name_H-M   'P 1'
_cell_length_a   12.91869857
_cell_length_b   12.91869857
_cell_length_c   7.58424300
_cell_angle_alpha   90.00000000
_cell_angle_beta   90.00000000
_cell_angle_gamma   90.09828515
_symmetry_Int_Tables_number   1
_chemical_formula_structural   Nb4Pb3(O6F)2
_chemical_formula_sum   'Nb16 Pb12 O48 F8'
_cell_volume   1265.75348031
_cell_formula_units_Z   4
loop_
 _symmetry_equiv_pos_site_id
 _symmetry_equiv_pos_as_xyz
  1  'x, y, z'
loop_
 _atom_site_type_symbol
 _atom_site_label
 _atom_site_symmetry_multiplicity
 _atom_site_fract_x
 _atom_site_fract_y
 _atom_site_fract_z
 _atom_site_occupancy
  Nb  Nb0  1  0.04915300  0.73657700  0.50000000  1
  Nb  Nb1  1  0.94715300  0.25420800  0.50000000  1
  Nb  Nb2  1  0.45629300  0.22764300  0.00000000  1
  Nb  Nb3  1  0.55658700  0.74786200  0.00000000  1
  Nb  Nb4  1  0.26342300  0.95084700  0.50000000  1
  Nb  Nb5  1  0.74579200  0.05284700  0.50000000  1
  Nb  Nb6  1  0.77235700  0.54370700  0.00000000  1
  Nb  Nb7  1  0.25213800  0.44341300  0.00000000  1
  Nb  Nb8  1  0.80199300  0.80057200  0.75082800  1
  Nb  Nb9  1  0.19942800  0.19800700  0.75082800  1
  Nb  Nb10  1  0.69721600  0.30278400  0.24992900  1
  Nb  Nb11  1  0.30108000  0.69892000  0.25068300  1
  Nb  Nb12  1  0.19942800  0.19800700  0.24917200  1
  Nb  Nb13  1  0.80199300  0.80057200  0.24917200  1
  Nb  Nb14  1  0.30108000  0.69892000  0.74931700  1
  Nb  Nb15  1  0.69721600  0.30278400  0.75007100  1
  Pb  Pb0  1  0.50139500  0.49860500  0.76008000  1
  Pb  Pb1  1  0.00903000  0.99097000  0.26218100  1
  Pb  Pb2  1  0.50139500  0.49860500  0.23992000  1
  Pb  Pb3  1  0.00903000  0.99097000  0.73781900  1
  Pb  Pb4  1  0.56111500  0.78640200  0.50000000  1
  Pb  Pb5  1  0.43778500  0.20017900  0.50000000  1
  Pb  Pb6  1  0.94050900  0.28772700  0.00000000  1
  Pb  Pb7  1  0.06252600  0.70596700  0.00000000  1
  Pb  Pb8  1  0.21359800  0.43888500  0.50000000  1
  Pb  Pb9  1  0.79982100  0.56221500  0.50000000  1
  Pb  Pb10  1  0.71227300  0.05949100  0.00000000  1
  Pb  Pb11  1  0.29403300  0.93747400  0.00000000  1
  O  O0  1  0.94767900  0.80102100  0.69625200  1
  O  O1  1  0.05297400  0.20903500  0.68611000  1
  O  O2  1  0.55134400  0.29756900  0.19015000  1
  O  O3  1  0.44673700  0.70563500  0.19081600  1
  O  O4  1  0.05297400  0.20903500  0.31389000  1
  O  O5  1  0.94767900  0.80102100  0.30374800  1
  O  O6  1  0.44673700  0.70563500  0.80918400  1
  O  O7  1  0.55134400  0.29756900  0.80985000  1
  O  O8  1  0.19897900  0.05232100  0.69625200  1
  O  O9  1  0.79096500  0.94702600  0.68611000  1
  O  O10  1  0.70243100  0.44865600  0.19015000  1
  O  O11  1  0.29436500  0.55326300  0.19081600  1
  O  O12  1  0.79096500  0.94702600  0.31389000  1
  O  O13  1  0.19897900  0.05232100  0.30374800  1
  O  O14  1  0.29436500  0.55326300  0.80918400  1
  O  O15  1  0.70243100  0.44865600  0.80985000  1
  O  O16  1  0.64158500  0.79990100  0.80914900  1
  O  O17  1  0.35498900  0.19959500  0.80968400  1
  O  O18  1  0.85598300  0.29991900  0.31070600  1
  O  O19  1  0.14315700  0.70103700  0.30774800  1
  O  O20  1  0.35498900  0.19959500  0.19031600  1
  O  O21  1  0.64158500  0.79990100  0.19085100  1
  O  O22  1  0.14315700  0.70103700  0.69225200  1
  O  O23  1  0.85598300  0.29991900  0.68929400  1
  O  O24  1  0.20009900  0.35841500  0.80914900  1
  O  O25  1  0.80040500  0.64501100  0.80968400  1
  O  O26  1  0.70008100  0.14401700  0.31070600  1
  O  O27  1  0.29896300  0.85684300  0.30774800  1
  O  O28  1  0.80040500  0.64501100  0.19031600  1
  O  O29  1  0.20009900  0.35841500  0.19085100  1
  O  O30  1  0.29896300  0.85684300  0.69225200  1
  O  O31  1  0.70008100  0.14401700  0.68929400  1
  O  O32  1  0.10088100  0.89911900  0.50000000  1
  O  O33  1  0.88948500  0.11051500  0.50000000  1
  O  O34  1  0.39287500  0.39669000  0.00000000  1
  O  O35  1  0.60331000  0.60712500  0.00000000  1
  O  O36  1  0.32772800  0.67227200  0.50000000  1
  O  O37  1  0.67085400  0.32914600  0.50000000  1
  O  O38  1  0.16902100  0.17508500  0.00000000  1
  O  O39  1  0.82491500  0.83097900  0.00000000  1
  O  O40  1  0.75365100  0.75383300  0.50000000  1
  O  O41  1  0.24616700  0.24634900  0.50000000  1
  O  O42  1  0.74436200  0.25563800  0.00000000  1
  O  O43  1  0.25362500  0.74637500  0.00000000  1
  O  O44  1  0.96687000  0.62020800  0.50000000  1
  O  O45  1  0.53119300  0.10980300  0.00000000  1
  O  O46  1  0.37979200  0.03313000  0.50000000  1
  O  O47  1  0.89019700  0.46880700  0.00000000  1
  F  F0  1  0.58211300  0.59181700  0.50000000  1
  F  F1  1  0.40818300  0.41788700  0.50000000  1
  F  F2  1  0.90891400  0.09108600  0.00000000  1
  F  F3  1  0.09094400  0.90905600  0.00000000  1
  F  F4  1  0.02605100  0.39150500  0.50000000  1
  F  F5  1  0.46920100  0.88514200  0.00000000  1
  F  F6  1  0.60849500  0.97394900  0.50000000  1
  F  F7  1  0.11485800  0.53079900  0.00000000  1
loop_
_geom_bond_atom_site_label_1
_geom_bond_atom_site_label_2
_geom_bond_distance
_geom_bond_site_symmetry_2
Nb0 O44 1.839696 1_455
Nb0 O22 1.952823 1_555
Nb0 O19 1.952823 1_555
Nb0 O0 2.151917 1_455
Nb0 O5 2.151917 1_455
Nb0 O32 2.202509 1_555
Nb1 O23 1.949208 1_555
Nb1 O18 1.949208 1_555
Nb1 O33 1.999055 1_555
Nb1 O4 2.050493 1_655
Nb1 O1 2.050493 1_655
Nb2 O45 1.805226 1_555
Nb2 O20 1.981367 1_555
Nb2 O17 1.981367 1_554
Nb2 O7 2.097581 1_554
Nb2 O2 2.097581 1_555
Nb2 O34 2.333802 1_555
Nb3 O35 1.916697 1_555
Nb3 O16 1.936571 1_554
Nb3 O21 1.936571 1_555
Nb3 O3 2.098382 1_555
Nb3 O6 2.098382 1_554
Nb4 O46 1.839696 1_565
Nb4 O30 1.952823 1_555
Nb4 O27 1.952823 1_555
Nb4 O8 2.151917 1_565
Nb4 O13 2.151917 1_565
Nb4 O32 2.202509 1_555
Nb5 O31 1.949208 1_555
Nb5 O26 1.949208 1_555
Nb5 O33 1.999055 1_555
Nb5 O12 2.050493 1_545
Nb5 O9 2.050493 1_545
Nb6 O47 1.805226 1_555
Nb6 O28 1.981367 1_555
Nb6 O25 1.981367 1_554
Nb6 O15 2.097581 1_554
Nb6 O10 2.097581 1_555
Nb6 O35 2.333802 1_555
Nb7 O34 1.916697 1_555
Nb7 O24 1.936571 1_554
Nb7 O29 1.936571 1_555
Nb7 O11 2.098382 1_555
Nb7 O14 2.098382 1_554
Nb8 O0 1.927051 1_555
Nb8 O39 1.952657 1_556
Nb8 O9 1.960048 1_555
Nb8 O25 2.058691 1_555
Nb8 O40 2.090983 1_555
Nb8 O16 2.118946 1_555
Nb9 O8 1.927051 1_555
Nb9 O38 1.952657 1_556
Nb9 O1 1.960048 1_555
Nb9 O17 2.058691 1_555
Nb9 O41 2.090983 1_555
Nb9 O24 2.118946 1_555
Nb10 O10 1.939306 1_555
Nb10 O2 1.939306 1_555
Nb10 O37 1.956899 1_555
Nb10 O42 2.082354 1_555
Nb10 O18 2.102608 1_555
Nb10 O26 2.102608 1_555
Nb11 O3 1.937502 1_555
Nb11 O11 1.937502 1_555
Nb11 O36 1.952655 1_555
Nb11 O27 2.085786 1_555
Nb11 O19 2.085786 1_555
Nb11 O43 2.089900 1_555
Nb12 O13 1.927051 1_555
Nb12 O38 1.952657 1_555
Nb12 O4 1.960048 1_555
Nb12 O20 2.058691 1_555
Nb12 O41 2.090983 1_555
Nb12 O29 2.118946 1_555
Nb13 O5 1.927051 1_555
Nb13 O39 1.952657 1_555
Nb13 O12 1.960048 1_555
Nb13 O28 2.058691 1_555
Nb13 O40 2.090983 1_555
Nb13 O21 2.118946 1_555
Nb14 O6 1.937502 1_555
Nb14 O14 1.937502 1_555
Nb14 O36 1.952655 1_555
Nb14 O30 2.085786 1_555
Nb14 O22 2.085786 1_555
Nb14 O43 2.089900 1_556
Nb15 O15 1.939306 1_555
Nb15 O7 1.939306 1_555
Nb15 O37 1.956899 1_555
Nb15 O42 2.082354 1_556
Nb15 O23 2.102608 1_555
Nb15 O31 2.102608 1_555
O0 Pb3 2.596629 1_655
O2 Pb2 2.703639 1_555
O3 Pb2 2.792316 1_555
O5 Pb1 2.596629 1_655
O6 Pb0 2.792316 1_555
O7 Pb0 2.703639 1_555
O8 Pb3 2.596629 1_545
O10 Pb2 2.703639 1_555
O11 Pb2 2.792316 1_555
O13 Pb1 2.596629 1_545
O14 Pb0 2.792316 1_555
O15 Pb0 2.703639 1_555
O16 Pb4 2.570589 1_555
O17 Pb5 2.580812 1_555
O18 Pb6 2.602064 1_555
O19 Pb7 2.556763 1_555
O20 Pb5 2.580812 1_555
O21 Pb4 2.570589 1_555
O22 Pb7 2.556763 1_556
O23 Pb6 2.602064 1_556
O24 Pb8 2.570589 1_555
O25 Pb9 2.580812 1_555
O26 Pb10 2.602064 1_555
O27 Pb11 2.556763 1_555
O28 Pb9 2.580812 1_555
O29 Pb8 2.570589 1_555
O30 Pb11 2.556763 1_556
O31 Pb10 2.602064 1_556
O32 Pb1 2.464569 1_555
O32 Pb3 2.464569 1_555
O34 Pb0 2.646420 1_554
O34 Pb2 2.646420 1_555
O35 Pb0 2.646420 1_554
O35 Pb2 2.646420 1_555
O40 Pb4 2.523362 1_555
O40 Pb9 2.547293 1_555
O41 Pb8 2.523362 1_555
O41 Pb5 2.547293 1_555
O42 Pb6 2.566948 1_555
O42 Pb10 2.566948 1_555
O43 Pb11 2.522461 1_555
O43 Pb7 2.522461 1_555
O44 Pb9 2.283188 1_555
O45 Pb10 2.429008 1_555
O46 Pb5 2.283188 1_555
O47 Pb6 2.429008 1_555
F0 Pb4 2.528842 1_555
F0 Pb2 2.534542 1_555
F0 Pb0 2.534542 1_555
F1 Pb8 2.528842 1_555
F1 Pb2 2.534542 1_555
F1 Pb0 2.534542 1_555
F2 Pb6 2.572236 1_555
F2 Pb10 2.572236 1_555
F2 Pb1 2.702823 1_645
F2 Pb3 2.702823 1_644
F3 Pb3 2.489462 1_554
F3 Pb1 2.489462 1_555
F3 Pb11 2.648583 1_555
F3 Pb7 2.648583 1_555
F4 Nb1 2.044185 1_455
F4 Pb8 2.497965 1_555
F5 Nb3 2.103935 1_555
F5 Pb11 2.362883 1_555
F6 Nb5 2.044185 1_565
F6 Pb4 2.497965 1_555
F7 Nb7 2.103935 1_555
F7 Pb7 2.362883 1_555
