# generated using pymatgen
data_Li8(FeO2)5
_symmetry_space_group_name_H-M   'P 1'
_cell_length_a   6.75245906
_cell_length_b   8.02587668
_cell_length_c   10.24408740
_cell_angle_alpha   103.44007422
_cell_angle_beta   76.72213200
_cell_angle_gamma   90.23419389
_symmetry_Int_Tables_number   1
_chemical_formula_structural   Li8(FeO2)5
_chemical_formula_sum   'Li16 Fe10 O20'
_cell_volume   524.82033914
_cell_formula_units_Z   2
loop_
 _symmetry_equiv_pos_site_id
 _symmetry_equiv_pos_as_xyz
  1  'x, y, z'
loop_
 _atom_site_type_symbol
 _atom_site_label
 _atom_site_symmetry_multiplicity
 _atom_site_fract_x
 _atom_site_fract_y
 _atom_site_fract_z
 _atom_site_occupancy
  Li  Li0  1  0.89428600  0.06443300  0.44845800  1
  Li  Li1  1  0.39341800  0.06467600  0.94837300  1
  Li  Li2  1  0.80639800  0.13053600  0.24917100  1
  Li  Li3  1  0.30610900  0.13086900  0.74907700  1
  Li  Li4  1  0.80391100  0.44268300  0.35304700  1
  Li  Li5  1  0.30239400  0.44282700  0.85351500  1
  Li  Li6  1  0.89531800  0.75789800  0.34657700  1
  Li  Li7  1  0.39567500  0.75816700  0.84636400  1
  Li  Li8  1  0.57723300  0.26805700  0.13834800  1
  Li  Li9  1  0.07753200  0.26876300  0.63702800  1
  Li  Li10  1  0.62356800  0.93307400  0.06764100  1
  Li  Li11  1  0.12418500  0.93298200  0.56673500  1
  Li  Li12  1  0.71746600  0.55303300  0.15756200  1
  Li  Li13  1  0.21673300  0.55416700  0.65819800  1
  Li  Li14  1  0.48277800  0.64930000  0.03988200  1
  Li  Li15  1  0.98256900  0.64916200  0.53995300  1
  Fe  Fe0  1  0.84974500  0.59900800  0.84958400  1
  Fe  Fe1  1  0.94557600  0.19766100  0.95018600  1
  Fe  Fe2  1  0.74975300  0.00164100  0.74877000  1
  Fe  Fe3  1  0.65437600  0.40445100  0.64430500  1
  Fe  Fe4  1  0.04902000  0.79743200  0.05647000  1
  Fe  Fe5  1  0.35023100  0.59873400  0.34953800  1
  Fe  Fe6  1  0.44748600  0.19861700  0.45133400  1
  Fe  Fe7  1  0.24954400  0.00055800  0.24800000  1
  Fe  Fe8  1  0.15552300  0.40448800  0.14453300  1
  Fe  Fe9  1  0.54964100  0.79705600  0.55640600  1
  O  O0  1  0.71925100  0.26171100  0.44859900  1
  O  O1  1  0.21677000  0.26143100  0.94884000  1
  O  O2  1  0.96601800  0.93675600  0.25024100  1
  O  O3  1  0.46596300  0.93694800  0.74967100  1
  O  O4  1  0.18970900  0.10761300  0.45868000  1
  O  O5  1  0.68744200  0.10742500  0.95935700  1
  O  O6  1  0.51738600  0.10695700  0.25866900  1
  O  O7  1  0.01778400  0.10811700  0.75709600  1
  O  O8  1  0.07469800  0.55511300  0.33844400  1
  O  O9  1  0.57432600  0.55519600  0.83863000  1
  O  O10  1  0.62430600  0.63828000  0.36026900  1
  O  O11  1  0.12389200  0.63883400  0.86034100  1
  O  O12  1  0.86803900  0.32156500  0.14152900  1
  O  O13  1  0.36733100  0.32230700  0.64232400  1
  O  O14  1  0.34133000  0.87216700  0.04671200  1
  O  O15  1  0.84134300  0.87179700  0.54666800  1
  O  O16  1  0.43344100  0.48684000  0.16038500  1
  O  O17  1  0.93279000  0.48732300  0.66057700  1
  O  O18  1  0.76869400  0.71176800  0.03708500  1
  O  O19  1  0.26902000  0.71158000  0.53682700  1
loop_
_geom_bond_atom_site_label_1
_geom_bond_atom_site_label_2
_geom_bond_distance
_geom_bond_site_symmetry_2
Li0 O0 1.979220 1_555
Li0 O2 1.998207 1_545
Li0 O15 2.020807 1_545
Li0 O4 2.045447 1_655
Li1 O1 1.981347 1_555
Li1 O3 2.002567 1_545
Li1 O14 2.020415 1_546
Li1 O5 2.037458 1_555
Li2 O2 1.899396 1_545
Li2 O6 1.942193 1_555
Li2 O0 2.020236 1_555
Li2 O12 2.075972 1_555
Li3 O3 1.899644 1_545
Li3 O7 1.939362 1_555
Li3 O1 2.022611 1_555
Li3 O13 2.072619 1_555
Li4 O0 1.947215 1_555
Li4 O10 1.964955 1_555
Li4 O8 2.025725 1_655
Li4 O12 2.102575 1_555
Li5 O1 1.949885 1_555
Li5 O11 1.964201 1_555
Li5 O9 2.032251 1_555
Li5 O13 2.098421 1_555
Li6 O2 1.923276 1_555
Li6 O15 1.989596 1_555
Li6 O8 2.007400 1_655
Li6 O10 2.054402 1_555
Li7 O3 1.924696 1_555
Li7 O14 1.991968 1_556
Li7 O9 2.006836 1_555
Li7 O11 2.057775 1_555
Li8 O16 1.950888 1_555
Li8 O5 1.964723 1_554
Li8 O6 1.965220 1_555
Li8 O12 2.014305 1_555
Li9 O17 1.949213 1_455
Li9 O7 1.960356 1_555
Li9 O4 1.964281 1_555
Li9 O13 2.011953 1_555
Li10 O18 1.956520 1_555
Li10 O5 1.967603 1_564
Li10 O14 2.012052 1_555
Li10 O6 2.094115 1_565
Li11 O19 1.957387 1_555
Li11 O4 1.968905 1_565
Li11 O15 2.014148 1_455
Li11 O7 2.094091 1_565
Li12 O18 1.948613 1_555
Li12 O10 1.979626 1_555
Li12 O16 1.983588 1_555
Li12 O12 2.075765 1_555
Li13 O19 1.947195 1_555
Li13 O11 1.973805 1_555
Li13 O17 1.985120 1_455
Li13 O13 2.079004 1_555
Li14 O16 1.972489 1_555
Li14 O9 1.974213 1_554
Li14 O18 1.988189 1_555
Li14 O14 2.010399 1_555
Li15 O17 1.969463 1_555
Li15 O8 1.976773 1_655
Li15 O19 1.991077 1_655
Li15 O15 2.008380 1_555
Fe0 O18 1.876445 1_556
Fe0 O17 1.888229 1_555
Fe0 O11 1.900953 1_655
Fe0 O9 1.914967 1_555
Fe1 O5 1.875526 1_555
Fe1 O7 1.888348 1_655
Fe1 O1 1.897248 1_655
Fe1 O12 1.931810 1_556
Fe2 O3 1.981861 1_545
Fe2 O7 2.009368 1_655
Fe2 O15 2.041814 1_545
Fe2 O5 2.070325 1_555
Fe3 O0 2.014123 1_555
Fe3 O17 2.021554 1_555
Fe3 O9 2.027374 1_555
Fe3 O13 2.047758 1_555
Fe4 O2 1.991737 1_455
Fe4 O14 2.047746 1_555
Fe4 O18 2.047858 1_455
Fe4 O11 2.064559 1_554
Fe5 O19 1.874845 1_555
Fe5 O16 1.889965 1_555
Fe5 O10 1.900071 1_555
Fe5 O8 1.915814 1_555
Fe6 O4 1.877207 1_555
Fe6 O6 1.886623 1_555
Fe6 O0 1.897398 1_555
Fe6 O13 1.929116 1_555
Fe7 O2 1.976184 1_445
Fe7 O6 2.011706 1_555
Fe7 O14 2.031821 1_545
Fe7 O4 2.073570 1_555
Fe8 O1 2.015241 1_554
Fe8 O16 2.016163 1_555
Fe8 O8 2.023940 1_555
Fe8 O12 2.054163 1_455
Fe9 O3 1.989363 1_555
Fe9 O15 2.043875 1_555
Fe9 O19 2.049736 1_555
Fe9 O10 2.065149 1_555
