# generated using pymatgen
data_BaCuP
_symmetry_space_group_name_H-M   'P 1'
_cell_length_a   4.19826611
_cell_length_b   4.19826672
_cell_length_c   9.25059680
_cell_angle_alpha   90.00000000
_cell_angle_beta   90.00000000
_cell_angle_gamma   119.99998697
_symmetry_Int_Tables_number   1
_chemical_formula_structural   BaCuP
_chemical_formula_sum   'Ba2 Cu2 P2'
_cell_volume   141.20186397
_cell_formula_units_Z   2
loop_
 _symmetry_equiv_pos_site_id
 _symmetry_equiv_pos_as_xyz
  1  'x, y, z'
loop_
 _atom_site_type_symbol
 _atom_site_label
 _atom_site_symmetry_multiplicity
 _atom_site_fract_x
 _atom_site_fract_y
 _atom_site_fract_z
 _atom_site_occupancy
  Ba  Ba0  1  0.00000000  0.00000000  0.50000000  1
  Ba  Ba1  1  0.00000000  0.00000000  -0.00000000  1
  Cu  Cu0  1  0.33333300  0.66666700  0.75000000  1
  Cu  Cu1  1  0.66666700  0.33333300  0.25000000  1
  P  P0  1  0.66666700  0.33333300  0.75000000  1
  P  P1  1  0.33333300  0.66666700  0.25000000  1
loop_
_geom_bond_atom_site_label_1
_geom_bond_atom_site_label_2
_geom_bond_distance
_geom_bond_site_symmetry_2
Ba0 P0 3.350146 1_455
Ba0 Cu0 3.350146 1_545
Ba0 Cu1 3.350146 1_455
Ba0 P1 3.350146 1_545
Ba0 P0 3.350149 1_555
Ba0 P1 3.350149 1_445
Ba0 Cu0 3.350149 1_445
Ba0 Cu1 3.350149 1_555
Ba0 P0 3.350149 1_445
Ba0 P1 3.350149 1_555
Ba0 Cu0 3.350149 1_555
Ba0 Cu1 3.350149 1_445
Ba1 P0 3.350146 1_454
Ba1 Cu1 3.350146 1_455
Ba1 Cu0 3.350146 1_544
Ba1 P1 3.350146 1_545
Ba1 P1 3.350149 1_445
Ba1 Cu0 3.350149 1_444
Ba1 P0 3.350149 1_554
Ba1 Cu1 3.350149 1_555
Ba1 P0 3.350149 1_444
Ba1 Cu0 3.350149 1_554
Ba1 P1 3.350149 1_555
Ba1 Cu1 3.350149 1_445
Cu0 P0 2.423868 1_455
Cu0 P0 2.423868 1_565
Cu0 P0 2.423875 1_555
Cu1 P1 2.423868 1_655
Cu1 P1 2.423868 1_545
Cu1 P1 2.423875 1_555
