# generated using pymatgen
data_SrPt2
_symmetry_space_group_name_H-M   'P 1'
_cell_length_a   5.53703450
_cell_length_b   5.53703453
_cell_length_c   5.53703297
_cell_angle_alpha   59.99999703
_cell_angle_beta   59.99999694
_cell_angle_gamma   59.99999447
_symmetry_Int_Tables_number   1
_chemical_formula_structural   SrPt2
_chemical_formula_sum   'Sr2 Pt4'
_cell_volume   120.03738759
_cell_formula_units_Z   2
loop_
 _symmetry_equiv_pos_site_id
 _symmetry_equiv_pos_as_xyz
  1  'x, y, z'
loop_
 _atom_site_type_symbol
 _atom_site_label
 _atom_site_symmetry_multiplicity
 _atom_site_fract_x
 _atom_site_fract_y
 _atom_site_fract_z
 _atom_site_occupancy
  Sr  Sr0  1  0.87500000  0.87500000  0.87500000  1
  Sr  Sr1  1  0.12500000  0.12500000  0.12500000  1
  Pt  Pt0  1  0.50000000  0.50000000  0.50000000  1
  Pt  Pt1  1  0.50000000  0.50000000  0.00000000  1
  Pt  Pt2  1  0.00000000  0.50000000  0.50000000  1
  Pt  Pt3  1  0.50000000  -0.00000000  0.50000000  1
loop_
_geom_bond_atom_site_label_1
_geom_bond_atom_site_label_2
_geom_bond_distance
_geom_bond_site_symmetry_2
Pt0 Pt1 2.768516 1_555
Pt0 Pt1 2.768516 1_556
Pt0 Pt2 2.768517 1_655
Pt0 Pt2 2.768517 1_555
Pt0 Pt3 2.768517 1_565
Pt0 Pt3 2.768517 1_555
Pt0 Sr1 3.246374 1_556
Pt0 Sr0 3.246374 1_554
Pt0 Sr1 3.246374 1_655
Pt0 Sr0 3.246374 1_455
Pt0 Sr1 3.246374 1_565
Pt0 Sr0 3.246374 1_545
Pt1 Pt2 2.768517 1_555
Pt1 Pt2 2.768517 1_654
Pt1 Pt3 2.768517 1_555
Pt1 Pt3 2.768517 1_564
Pt1 Sr0 3.246374 1_454
Pt1 Sr1 3.246374 1_655
Pt1 Sr0 3.246374 1_544
Pt1 Sr1 3.246374 1_565
Pt1 Sr0 3.246374 1_554
Pt1 Sr1 3.246374 1_555
Pt2 Pt3 2.768517 1_465
Pt2 Pt3 2.768517 1_555
Pt2 Sr0 3.246373 1_454
Pt2 Sr1 3.246373 1_556
Pt2 Sr1 3.246374 1_555
Pt2 Sr0 3.246374 1_455
Pt2 Sr0 3.246374 1_445
Pt2 Sr1 3.246374 1_565
Pt3 Sr0 3.246373 1_544
Pt3 Sr1 3.246373 1_556
Pt3 Sr0 3.246374 1_545
Pt3 Sr1 3.246374 1_555
Pt3 Sr0 3.246374 1_445
Pt3 Sr1 3.246374 1_655
