# generated using pymatgen
data_Ca3CoRhO6
_symmetry_space_group_name_H-M   'P 1'
_cell_length_a   6.41081140
_cell_length_b   6.50621658
_cell_length_c   6.47933009
_cell_angle_alpha   91.39769501
_cell_angle_beta   91.96841722
_cell_angle_gamma   91.88403900
_symmetry_Int_Tables_number   1
_chemical_formula_structural   Ca3CoRhO6
_chemical_formula_sum   'Ca6 Co2 Rh2 O12'
_cell_volume   269.86007465
_cell_formula_units_Z   2
loop_
 _symmetry_equiv_pos_site_id
 _symmetry_equiv_pos_as_xyz
  1  'x, y, z'
loop_
 _atom_site_type_symbol
 _atom_site_label
 _atom_site_symmetry_multiplicity
 _atom_site_fract_x
 _atom_site_fract_y
 _atom_site_fract_z
 _atom_site_occupancy
  Ca  Ca0  1  0.61556800  0.88720200  0.24767900  1
  Ca  Ca1  1  0.88329600  0.25106300  0.61473500  1
  Ca  Ca2  1  0.25112300  0.61264900  0.88640900  1
  Ca  Ca3  1  0.11670100  0.74891500  0.38526200  1
  Ca  Ca4  1  0.74886200  0.38734900  0.11357400  1
  Ca  Ca5  1  0.38438900  0.11278900  0.75230000  1
  Co  Co0  1  0.24668400  0.24586700  0.25840800  1
  Co  Co1  1  0.75335100  0.75413100  0.74156200  1
  Rh  Rh0  1  0.50012900  0.50003400  0.50009300  1
  Rh  Rh1  1  0.99991700  0.99997400  0.99997100  1
  O  O0  1  0.53655200  0.20160100  0.40656000  1
  O  O1  1  0.20217700  0.41296800  0.54810200  1
  O  O2  1  0.41237300  0.54612300  0.20459800  1
  O  O3  1  0.03727400  0.90768900  0.70082800  1
  O  O4  1  0.90921000  0.70424900  0.04143500  1
  O  O5  1  0.70351500  0.05175900  0.91457500  1
  O  O6  1  0.46353900  0.79836800  0.59344800  1
  O  O7  1  0.79790500  0.58704300  0.45194400  1
  O  O8  1  0.58765900  0.45388100  0.79536800  1
  O  O9  1  0.96265800  0.09231300  0.29923900  1
  O  O10  1  0.09068100  0.29579400  0.95851300  1
  O  O11  1  0.29643500  0.94823900  0.08539600  1
loop_
_geom_bond_atom_site_label_1
_geom_bond_atom_site_label_2
_geom_bond_distance
_geom_bond_site_symmetry_2
Ca0 O11 2.318415 1_555
Ca0 O0 2.345602 1_565
Ca0 O5 2.505796 1_564
Ca0 O2 2.540488 1_555
Ca0 O6 2.545439 1_555
Ca0 O9 2.564297 1_565
Ca0 O4 2.643662 1_555
Ca0 O7 2.664916 1_555
Ca1 O1 2.327306 1_655
Ca1 O9 2.346789 1_555
Ca1 O7 2.518361 1_555
Ca1 O3 2.538623 1_645
Ca1 O10 2.559945 1_655
Ca1 O0 2.567111 1_555
Ca1 O8 2.635266 1_555
Ca1 O5 2.638673 1_555
Ca2 O2 2.330863 1_556
Ca2 O10 2.338091 1_555
Ca2 O8 2.504780 1_555
Ca2 O11 2.511821 1_556
Ca2 O4 2.525208 1_456
Ca2 O1 2.525508 1_555
Ca2 O6 2.664366 1_555
Ca2 O3 2.680036 1_555
Ca3 O7 2.326812 1_455
Ca3 O3 2.347358 1_555
Ca3 O1 2.518434 1_555
Ca3 O9 2.538831 1_465
Ca3 O4 2.560513 1_455
Ca3 O6 2.567649 1_555
Ca3 O2 2.635439 1_555
Ca3 O11 2.638732 1_555
Ca4 O8 2.330841 1_554
Ca4 O4 2.338149 1_555
Ca4 O2 2.504503 1_555
Ca4 O5 2.511875 1_554
Ca4 O10 2.524693 1_654
Ca4 O7 2.525945 1_555
Ca4 O0 2.664218 1_555
Ca4 O9 2.680085 1_555
Ca5 O5 2.318344 1_555
Ca5 O6 2.345869 1_545
Ca5 O11 2.505741 1_546
Ca5 O8 2.540786 1_555
Ca5 O0 2.545585 1_555
Ca5 O3 2.564347 1_545
Ca5 O10 2.644029 1_555
Ca5 O1 2.664440 1_555
Co0 O9 2.076036 1_455
Co0 O0 2.093747 1_555
Co0 O1 2.178131 1_555
Co0 O10 2.190911 1_554
Co0 O2 2.233459 1_555
Co0 O11 2.251092 1_545
Co1 O3 2.075370 1_655
Co1 O6 2.093293 1_555
Co1 O7 2.177723 1_555
Co1 O4 2.190335 1_556
Co1 O8 2.233429 1_555
Co1 O5 2.251197 1_565
O0 Rh0 2.043038 1_555
O1 Rh0 2.011083 1_555
O2 Rh0 2.009293 1_555
O3 Rh1 2.039420 1_455
O4 Rh1 2.018584 1_554
O5 Rh1 2.002325 1_545
O6 Rh0 2.042276 1_555
O7 Rh0 2.010098 1_555
O8 Rh0 2.007654 1_555
O9 Rh1 2.040184 1_544
O10 Rh1 2.019258 1_445
O11 Rh1 2.003008 1_454
