# generated using pymatgen
data_Na2CeF6
_symmetry_space_group_name_H-M   'P 1'
_cell_length_a   5.88978564
_cell_length_b   5.88978564
_cell_length_c   3.70174849
_cell_angle_alpha   90.00000000
_cell_angle_beta   90.00000000
_cell_angle_gamma   119.99998338
_symmetry_Int_Tables_number   1
_chemical_formula_structural   Na2CeF6
_chemical_formula_sum   'Na2 Ce1 F6'
_cell_volume   111.20814332
_cell_formula_units_Z   1
loop_
 _symmetry_equiv_pos_site_id
 _symmetry_equiv_pos_as_xyz
  1  'x, y, z'
loop_
 _atom_site_type_symbol
 _atom_site_label
 _atom_site_symmetry_multiplicity
 _atom_site_fract_x
 _atom_site_fract_y
 _atom_site_fract_z
 _atom_site_occupancy
  Na  Na0  1  0.33333300  0.66666700  0.42463859  1
  Na  Na1  1  0.66666700  0.33333300  0.57536141  1
  Ce  Ce0  1  -0.00000000  0.00000000  0.00000000  1
  F  F0  1  0.25317562  0.00000000  0.50000000  1
  F  F1  1  0.00000000  0.25317562  0.50000000  1
  F  F2  1  0.74682438  0.74682438  0.50000000  1
  F  F3  1  0.62617607  -0.00000000  0.00000000  1
  F  F4  1  -0.00000000  0.62617607  0.00000000  1
  F  F5  1  0.37382393  0.37382393  0.00000000  1
loop_
_geom_bond_atom_site_label_1
_geom_bond_atom_site_label_2
_geom_bond_distance
_geom_bond_site_symmetry_2
Ce0 F4 2.201743 1_545
Ce0 F3 2.201743 1_455
Ce0 F5 2.201743 1_555
Ce0 F0 2.376818 1_555
Ce0 F1 2.376818 1_554
Ce0 F1 2.376818 1_555
Ce0 F0 2.376818 1_554
Ce0 F2 2.376818 1_445
Ce0 F2 2.376818 1_444
F0 Na0 2.254324 1_545
F0 Na1 2.254328 1_555
F1 Na1 2.254324 1_455
F1 Na0 2.254328 1_555
F2 Na0 2.254330 1_555
F2 Na1 2.254330 1_555
F3 Na1 2.431861 1_554
F3 Na0 2.431863 1_545
F3 Na1 2.824764 1_555
F3 Na0 2.824766 1_544
F4 Na0 2.431861 1_555
F4 Na1 2.431863 1_454
F4 Na0 2.824764 1_554
F4 Na1 2.824766 1_455
F5 Na1 2.431865 1_554
F5 Na0 2.431865 1_555
F5 Na0 2.824768 1_554
F5 Na1 2.824768 1_555
