# generated using pymatgen
data_Ba3CaTiWO9
_symmetry_space_group_name_H-M   'P 1'
_cell_length_a   5.99900189
_cell_length_b   5.99900189
_cell_length_c   14.99863900
_cell_angle_alpha   90.00000000
_cell_angle_beta   90.00000000
_cell_angle_gamma   119.99999876
_symmetry_Int_Tables_number   1
_chemical_formula_structural   Ba3CaTiWO9
_chemical_formula_sum   'Ba6 Ca2 Ti2 W2 O18'
_cell_volume   467.45572887
_cell_formula_units_Z   2
loop_
 _symmetry_equiv_pos_site_id
 _symmetry_equiv_pos_as_xyz
  1  'x, y, z'
loop_
 _atom_site_type_symbol
 _atom_site_label
 _atom_site_symmetry_multiplicity
 _atom_site_fract_x
 _atom_site_fract_y
 _atom_site_fract_z
 _atom_site_occupancy
  Ba  Ba0  1  0.00000000  0.00000000  0.74618400  1
  Ba  Ba1  1  0.00000000  0.00000000  0.24618400  1
  Ba  Ba2  1  0.66666700  0.33333300  0.39852900  1
  Ba  Ba3  1  0.33333300  0.66666700  0.60483300  1
  Ba  Ba4  1  0.33333300  0.66666700  0.89852900  1
  Ba  Ba5  1  0.66666700  0.33333300  0.10483300  1
  Ca  Ca0  1  0.00000000  0.00000000  0.50163600  1
  Ca  Ca1  1  0.00000000  0.00000000  0.00163600  1
  Ti  Ti0  1  0.66666700  0.33333300  0.64621000  1
  Ti  Ti1  1  0.33333300  0.66666700  0.14621000  1
  W  W0  1  0.33333300  0.66666700  0.33899000  1
  W  W1  1  0.66666700  0.33333300  0.83899000  1
  O  O0  1  0.51753600  0.03507200  0.75437900  1
  O  O1  1  0.51753600  0.48246400  0.75437900  1
  O  O2  1  0.96492800  0.48246400  0.75437900  1
  O  O3  1  0.48246400  0.96492800  0.25437900  1
  O  O4  1  0.48246400  0.51753600  0.25437900  1
  O  O5  1  0.03507200  0.51753600  0.25437900  1
  O  O6  1  0.82269200  0.64538400  0.90734200  1
  O  O7  1  0.82269200  0.17730800  0.90734200  1
  O  O8  1  0.35461600  0.17730800  0.90734200  1
  O  O9  1  0.17482600  0.34965300  0.09281900  1
  O  O10  1  0.17482600  0.82517400  0.09281900  1
  O  O11  1  0.65034700  0.82517400  0.09281900  1
  O  O12  1  0.17730800  0.35461600  0.40734200  1
  O  O13  1  0.17730800  0.82269200  0.40734200  1
  O  O14  1  0.64538400  0.82269200  0.40734200  1
  O  O15  1  0.82517400  0.65034700  0.59281900  1
  O  O16  1  0.82517400  0.17482600  0.59281900  1
  O  O17  1  0.34965300  0.17482600  0.59281900  1
loop_
_geom_bond_atom_site_label_1
_geom_bond_atom_site_label_2
_geom_bond_distance
_geom_bond_site_symmetry_2
Ba0 O16 2.931050 1_455
Ba0 O17 2.931053 1_555
Ba0 O15 2.931053 1_445
Ba0 O0 3.007543 1_455
Ba0 O2 3.007543 1_455
Ba0 O2 3.007543 1_445
Ba0 O0 3.007543 1_555
Ba0 O1 3.007543 1_445
Ba0 O1 3.007543 1_555
Ba0 O7 3.039211 1_455
Ba0 O8 3.039211 1_555
Ba0 O6 3.039211 1_445
Ba1 O10 2.931050 1_545
Ba1 O9 2.931053 1_555
Ba1 O11 2.931053 1_445
Ba1 O5 3.007543 1_545
Ba1 O3 3.007543 1_545
Ba1 O3 3.007543 1_445
Ba1 O5 3.007543 1_555
Ba1 O4 3.007543 1_555
Ba1 O4 3.007543 1_445
Ba1 O13 3.039211 1_545
Ba1 O12 3.039211 1_555
Ba1 O14 3.039211 1_445
Ba2 O3 2.887518 1_545
Ba2 O5 2.887518 1_655
Ba2 O4 2.887521 1_555
Ba2 O14 3.004444 1_545
Ba2 O12 3.004444 1_655
Ba2 O13 3.004447 1_545
Ba2 O13 3.004447 1_655
Ba2 O12 3.004450 1_555
Ba2 O14 3.004450 1_555
Ba2 O16 3.347303 1_555
Ba2 O17 3.347303 1_555
Ba2 O15 3.347303 1_555
Ba3 O0 2.948605 1_565
Ba3 O2 2.948605 1_455
Ba3 O1 2.948608 1_555
Ba3 O17 3.006099 1_565
Ba3 O15 3.006099 1_455
Ba3 O16 3.006104 1_565
Ba3 O16 3.006104 1_455
Ba3 O17 3.006111 1_555
Ba3 O15 3.006111 1_555
Ba3 O13 3.376725 1_555
Ba3 O14 3.376727 1_555
Ba3 O12 3.376727 1_555
Ba4 O0 2.887518 1_565
Ba4 O2 2.887518 1_455
Ba4 O1 2.887521 1_555
Ba4 O6 3.004444 1_455
Ba4 O8 3.004444 1_565
Ba4 O7 3.004447 1_455
Ba4 O7 3.004447 1_565
Ba4 O8 3.004450 1_555
Ba4 O6 3.004450 1_555
Ba4 O10 3.347303 1_556
Ba4 O9 3.347303 1_556
Ba4 O11 3.347303 1_556
Ba5 O3 2.948605 1_545
Ba5 O5 2.948605 1_655
Ba5 O4 2.948608 1_555
Ba5 O9 3.006099 1_655
Ba5 O11 3.006099 1_545
Ba5 O10 3.006104 1_655
Ba5 O10 3.006104 1_545
Ba5 O11 3.006111 1_555
Ba5 O9 3.006111 1_555
Ba5 O7 3.376725 1_554
Ba5 O6 3.376727 1_554
Ba5 O8 3.376727 1_554
Ca0 O16 2.273811 1_455
Ca0 O15 2.273815 1_445
Ca0 O17 2.273815 1_555
Ca0 O13 2.322581 1_545
Ca0 O12 2.322581 1_555
Ca0 O14 2.322581 1_445
Ca1 O10 2.273811 1_545
Ca1 O9 2.273815 1_555
Ca1 O11 2.273815 1_445
Ca1 O7 2.322581 1_454
Ca1 O8 2.322581 1_554
Ca1 O6 2.322581 1_444
O0 W1 2.002897 1_555
O0 Ti0 2.243491 1_555
O1 W1 2.002901 1_555
O1 Ti0 2.243495 1_555
O2 W1 2.002897 1_555
O2 Ti0 2.243491 1_555
O3 W0 2.002897 1_555
O3 Ti1 2.243491 1_555
O4 W0 2.002901 1_555
O4 Ti1 2.243495 1_555
O5 W0 2.002897 1_555
O5 Ti1 2.243491 1_555
O6 W1 1.918145 1_555
O7 W1 1.918141 1_555
O8 W1 1.918145 1_555
O9 Ti1 1.831341 1_555
O10 Ti1 1.831341 1_555
O11 Ti1 1.831341 1_555
O12 W0 1.918145 1_555
O13 W0 1.918141 1_555
O14 W0 1.918145 1_555
O15 Ti0 1.831341 1_555
O16 Ti0 1.831341 1_555
O17 Ti0 1.831341 1_555
