# generated using pymatgen
data_Rb2LiPu(Cl2O)2
_symmetry_space_group_name_H-M   'P 1'
_cell_length_a   5.61136139
_cell_length_b   7.76958170
_cell_length_c   7.76958170
_cell_angle_alpha   57.91910772
_cell_angle_beta   76.27855625
_cell_angle_gamma   76.27855625
_symmetry_Int_Tables_number   1
_chemical_formula_structural   Rb2LiPu(Cl2O)2
_chemical_formula_sum   'Rb2 Li1 Pu1 Cl4 O2'
_cell_volume   276.26390489
_cell_formula_units_Z   1
loop_
 _symmetry_equiv_pos_site_id
 _symmetry_equiv_pos_as_xyz
  1  'x, y, z'
loop_
 _atom_site_type_symbol
 _atom_site_label
 _atom_site_symmetry_multiplicity
 _atom_site_fract_x
 _atom_site_fract_y
 _atom_site_fract_z
 _atom_site_occupancy
  Rb  Rb0  1  0.77171300  0.77534200  0.77534200  1
  Rb  Rb1  1  0.22828700  0.22465800  0.22465800  1
  Li  Li0  1  0.00000000  0.00000000  0.00000000  1
  Pu  Pu0  1  0.50000000  0.50000000  0.50000000  1
  Cl  Cl0  1  0.71653700  0.86351700  0.32141800  1
  Cl  Cl1  1  0.71653700  0.32141800  0.86351700  1
  Cl  Cl2  1  0.28346300  0.13648300  0.67858200  1
  Cl  Cl3  1  0.28346300  0.67858200  0.13648300  1
  O  O0  1  0.74954400  0.38260800  0.38260800  1
  O  O1  1  0.25045600  0.61739200  0.61739200  1
loop_
_geom_bond_atom_site_label_1
_geom_bond_atom_site_label_2
_geom_bond_distance
_geom_bond_site_symmetry_2
Cl0 Li0 2.448213 1_665
Cl0 Pu0 2.836229 1_555
Cl0 Rb0 3.294601 1_555
Cl0 Rb1 3.321744 1_565
Cl1 Li0 2.448213 1_656
Cl1 Pu0 2.836229 1_555
Cl1 Rb0 3.294601 1_555
Cl1 Rb1 3.321744 1_556
Cl2 Li0 2.448213 1_556
Cl2 Pu0 2.836229 1_555
Cl2 Rb1 3.294601 1_555
Cl2 Rb0 3.321744 1_545
Cl3 Li0 2.448213 1_565
Cl3 Pu0 2.836229 1_555
Cl3 Rb1 3.294601 1_555
Cl3 Rb0 3.321744 1_554
O0 Pu0 1.815618 1_555
O0 Rb1 2.949674 1_655
O1 Pu0 1.815618 1_555
O1 Rb0 2.949674 1_455
