# generated using pymatgen
data_Zn2As2PbO10
_symmetry_space_group_name_H-M   'P 1'
_cell_length_a   5.43494200
_cell_length_b   5.43494200
_cell_length_c   7.65096126
_cell_angle_alpha   73.39172123
_cell_angle_beta   73.39172123
_cell_angle_gamma   76.24619304
_symmetry_Int_Tables_number   1
_chemical_formula_structural   Zn2As2PbO10
_chemical_formula_sum   'Zn2 As2 Pb1 O10'
_cell_volume   204.51662903
_cell_formula_units_Z   1
loop_
 _symmetry_equiv_pos_site_id
 _symmetry_equiv_pos_as_xyz
  1  'x, y, z'
loop_
 _atom_site_type_symbol
 _atom_site_label
 _atom_site_symmetry_multiplicity
 _atom_site_fract_x
 _atom_site_fract_y
 _atom_site_fract_z
 _atom_site_occupancy
  Zn  Zn0  1  0.50000000  0.00000000  0.50000000  1
  Zn  Zn1  1  0.00000000  0.50000000  0.50000000  1
  As  As0  1  0.56775900  0.56775900  0.22403100  1
  As  As1  1  0.43224100  0.43224100  0.77596900  1
  Pb  Pb0  1  0.00000000  0.00000000  0.00000000  1
  O  O0  1  0.92126300  0.92126300  0.55044200  1
  O  O1  1  0.07873700  0.07873700  0.44955800  1
  O  O2  1  0.28486900  0.28486900  0.99698700  1
  O  O3  1  0.71513100  0.71513100  0.00301300  1
  O  O4  1  0.65621300  0.23105200  0.25913600  1
  O  O5  1  0.34378700  0.76894800  0.74086400  1
  O  O6  1  0.76894800  0.34378700  0.74086400  1
  O  O7  1  0.23105200  0.65621300  0.25913600  1
  O  O8  1  0.67777900  0.67777900  0.37959400  1
  O  O9  1  0.32222100  0.32222100  0.62040600  1
loop_
_geom_bond_atom_site_label_1
_geom_bond_atom_site_label_2
_geom_bond_distance
_geom_bond_site_symmetry_2
As0 O3 1.702669 1_555
As0 O7 1.739715 1_555
As0 O4 1.739715 1_555
As0 O8 1.765043 1_555
As1 O2 1.702669 1_555
As1 O6 1.739715 1_555
As1 O5 1.739715 1_555
As1 O9 1.765043 1_555
O0 O1 1.286000 1_665
O0 Zn0 2.349231 1_565
O0 Zn1 2.349231 1_655
O1 Zn0 2.349231 1_555
O1 Zn1 2.349231 1_555
O2 Pb0 2.427688 1_556
O3 Pb0 2.427688 1_665
O4 Zn0 1.995859 1_555
O4 Pb0 2.681197 1_655
O5 Zn0 1.995859 1_565
O5 Pb0 2.681197 1_566
O6 Zn1 1.995859 1_655
O6 Pb0 2.681197 1_656
O7 Zn1 1.995859 1_555
O7 Pb0 2.681197 1_565
O8 Zn0 2.111382 1_565
O8 Zn1 2.111382 1_655
O9 Zn0 2.111382 1_555
O9 Zn1 2.111382 1_555
