# generated using pymatgen
data_CrMoW2
_symmetry_space_group_name_H-M   'P 1'
_cell_length_a   10.47097376
_cell_length_b   10.47097376
_cell_length_c   10.47097376
_cell_angle_alpha   125.24703168
_cell_angle_beta   118.36119310
_cell_angle_gamma   87.01174838
_symmetry_Int_Tables_number   1
_chemical_formula_structural   CrMoW2
_chemical_formula_sum   'Cr1 Mo1 W2'
_cell_volume   784.68701396
_cell_formula_units_Z   1
loop_
 _symmetry_equiv_pos_site_id
 _symmetry_equiv_pos_as_xyz
  1  'x, y, z'
loop_
 _atom_site_type_symbol
 _atom_site_label
 _atom_site_symmetry_multiplicity
 _atom_site_fract_x
 _atom_site_fract_y
 _atom_site_fract_z
 _atom_site_occupancy
  Cr  Cr0  1  0.00000000  0.00000000  0.00000000  1
  Mo  Mo0  1  0.00000000  0.50000000  0.50000000  1
  W  W0  1  0.00000000  0.26921700  0.26921700  1
  W  W1  1  0.00000000  0.73078300  0.73078300  1
loop_
_geom_bond_atom_site_label_1
_geom_bond_atom_site_label_2
_geom_bond_distance
_geom_bond_site_symmetry_2
Cr0 W0 2.592519 1_555
Cr0 W1 2.592519 1_544
Mo0 W1 2.222405 1_555
Mo0 W0 2.222405 1_555
