# generated using pymatgen
data_ErNi3
_symmetry_space_group_name_H-M   'P 1'
_cell_length_a   8.46057445
_cell_length_b   8.46057389
_cell_length_c   8.46057425
_cell_angle_alpha   33.60899348
_cell_angle_beta   33.60900094
_cell_angle_gamma   33.60901053
_symmetry_Int_Tables_number   1
_chemical_formula_structural   ErNi3
_chemical_formula_sum   'Er3 Ni9'
_cell_volume   165.29122334
_cell_formula_units_Z   3
loop_
 _symmetry_equiv_pos_site_id
 _symmetry_equiv_pos_as_xyz
  1  'x, y, z'
loop_
 _atom_site_type_symbol
 _atom_site_label
 _atom_site_symmetry_multiplicity
 _atom_site_fract_x
 _atom_site_fract_y
 _atom_site_fract_z
 _atom_site_occupancy
  Er  Er0  1  0.86119315  0.86119315  0.86119315  1
  Er  Er1  1  0.13880685  0.13880685  0.13880685  1
  Er  Er2  1  0.00000000  0.00000000  -0.00000000  1
  Ni  Ni0  1  0.41724992  0.41724992  0.91991971  1
  Ni  Ni1  1  0.41724992  0.91991971  0.41724992  1
  Ni  Ni2  1  0.91991971  0.41724992  0.41724992  1
  Ni  Ni3  1  0.50000000  0.50000000  0.50000000  1
  Ni  Ni4  1  0.33330999  0.33330899  0.33330799  1
  Ni  Ni5  1  0.66669001  0.66669101  0.66669201  1
  Ni  Ni6  1  0.58275008  0.08008029  0.58275008  1
  Ni  Ni7  1  0.58275008  0.58275008  0.08008029  1
  Ni  Ni8  1  0.08008029  0.58275008  0.58275008  1
loop_
_geom_bond_atom_site_label_1
_geom_bond_atom_site_label_2
_geom_bond_distance
_geom_bond_site_symmetry_2
Er0 Ni2 2.799891 1_565
Er0 Ni2 2.799892 1_556
Er0 Ni1 2.799892 1_655
Er0 Ni1 2.799892 1_556
Er0 Ni0 2.799893 1_565
Er0 Ni0 2.799893 1_655
Er0 Ni3 2.901999 1_556
Er0 Ni3 2.902000 1_565
Er0 Ni3 2.902000 1_655
Er0 Ni7 3.039641 1_556
Er0 Ni6 3.039641 1_565
Er0 Ni8 3.039641 1_655
Er1 Ni8 2.799891 1_545
Er1 Ni8 2.799892 1_554
Er1 Ni6 2.799892 1_455
Er1 Ni6 2.799892 1_554
Er1 Ni7 2.799893 1_545
Er1 Ni7 2.799893 1_455
Er1 Ni3 2.901999 1_554
Er1 Ni3 2.902000 1_545
Er1 Ni3 2.902000 1_455
Er1 Ni0 3.039641 1_554
Er1 Ni1 3.039641 1_545
Er1 Ni2 3.039641 1_455
Er2 Ni5 2.824407 1_544
Er2 Ni4 2.824407 1_455
Er2 Ni5 2.824411 1_454
Er2 Ni4 2.824411 1_545
Er2 Ni4 2.824414 1_554
Er2 Ni5 2.824414 1_445
Er2 Ni8 3.133523 1_554
Er2 Ni2 3.133523 1_445
Er2 Ni8 3.133523 1_545
Er2 Ni2 3.133523 1_454
Er2 Ni6 3.133524 1_554
Er2 Ni1 3.133524 1_445
Er2 Ni6 3.133524 1_455
Er2 Ni1 3.133524 1_544
Er2 Ni7 3.133524 1_455
Er2 Ni0 3.133524 1_544
Er2 Ni7 3.133524 1_545
Er2 Ni0 3.133524 1_454
Ni0 Ni4 2.409716 1_556
Ni0 Ni5 2.419481 1_555
Ni0 Ni1 2.432950 1_546
Ni0 Ni2 2.432951 1_456
Ni0 Ni1 2.459071 1_555
Ni0 Ni2 2.459072 1_555
Ni0 Ni3 2.476433 1_555
Ni1 Ni4 2.409719 1_565
Ni1 Ni5 2.419484 1_555
Ni1 Ni2 2.432951 1_465
Ni1 Ni2 2.459072 1_555
Ni1 Ni3 2.476433 1_555
Ni2 Ni4 2.409721 1_655
Ni2 Ni5 2.419487 1_555
Ni2 Ni3 2.476434 1_555
Ni3 Ni6 2.476433 1_555
Ni3 Ni7 2.476433 1_555
Ni3 Ni8 2.476434 1_555
Ni4 Ni7 2.419481 1_555
Ni4 Ni6 2.419484 1_555
Ni4 Ni8 2.419487 1_555
Ni5 Ni7 2.409716 1_556
Ni5 Ni6 2.409719 1_565
Ni5 Ni8 2.409721 1_655
Ni6 Ni7 2.432950 1_546
Ni6 Ni8 2.432951 1_645
Ni6 Ni7 2.459071 1_555
Ni6 Ni8 2.459072 1_555
Ni7 Ni8 2.432951 1_654
Ni7 Ni8 2.459072 1_555
