# generated using pymatgen
data_KNO3
_symmetry_space_group_name_H-M   'P 1'
_cell_length_a   4.01074604
_cell_length_b   5.63477100
_cell_length_c   15.24904291
_cell_angle_alpha   90.00000000
_cell_angle_beta   95.63855787
_cell_angle_gamma   90.00000000
_symmetry_Int_Tables_number   1
_chemical_formula_structural   KNO3
_chemical_formula_sum   'K4 N4 O12'
_cell_volume   342.95535567
_cell_formula_units_Z   4
loop_
 _symmetry_equiv_pos_site_id
 _symmetry_equiv_pos_as_xyz
  1  'x, y, z'
loop_
 _atom_site_type_symbol
 _atom_site_label
 _atom_site_symmetry_multiplicity
 _atom_site_fract_x
 _atom_site_fract_y
 _atom_site_fract_z
 _atom_site_occupancy
  K  K0  1  0.64352900  0.96709400  0.34565300  1
  K  K1  1  0.85647100  0.46709400  0.15434700  1
  K  K2  1  0.35647100  0.03290600  0.65434700  1
  K  K3  1  0.14352900  0.53290600  0.84565300  1
  N  N0  1  0.24616500  0.46494300  0.37110600  1
  N  N1  1  0.25383500  0.96494300  0.12889400  1
  N  N2  1  0.75383500  0.53505700  0.62889400  1
  N  N3  1  0.74616500  0.03505700  0.87110600  1
  O  O0  1  0.16355300  0.27097500  0.40468900  1
  O  O1  1  0.33644700  0.77097500  0.09531100  1
  O  O2  1  0.83644700  0.72902500  0.59531100  1
  O  O3  1  0.66355300  0.22902500  0.90468900  1
  O  O4  1  0.15606100  0.66105500  0.40101400  1
  O  O5  1  0.34393900  0.16105500  0.09898600  1
  O  O6  1  0.84393900  0.33894500  0.59898600  1
  O  O7  1  0.65606100  0.83894500  0.90101400  1
  O  O8  1  0.07616000  0.96159800  0.19442600  1
  O  O9  1  0.42384000  0.46159800  0.30557400  1
  O  O10  1  0.92384000  0.03840200  0.80557400  1
  O  O11  1  0.57616000  0.53840200  0.69442600  1
loop_
_geom_bond_atom_site_label_1
_geom_bond_atom_site_label_2
_geom_bond_distance
_geom_bond_site_symmetry_2
K0 O4 2.751557 1_655
K0 O0 2.779123 1_665
K0 O0 2.790845 1_565
K0 O4 2.798791 1_555
K0 O9 2.967859 1_565
K0 O8 3.019277 1_655
K0 O9 3.026085 1_555
K0 O8 3.076679 1_555
K1 O5 2.751557 1_555
K1 O1 2.779123 1_555
K1 O1 2.790845 1_655
K1 O5 2.798791 1_655
K1 O8 2.967859 1_655
K1 O9 3.019277 1_555
K1 O8 3.026085 1_645
K1 O9 3.076679 1_655
K2 O6 2.751557 1_455
K2 O2 2.779123 1_445
K2 O2 2.790845 1_545
K2 O6 2.798791 1_555
K2 O11 2.967859 1_545
K2 O10 3.019277 1_455
K2 O11 3.026085 1_555
K2 O10 3.076679 1_555
K3 O7 2.751557 1_555
K3 O3 2.779123 1_555
K3 O3 2.790845 1_455
K3 O7 2.798791 1_455
K3 O10 2.967859 1_455
K3 O11 3.019277 1_555
K3 O10 3.026085 1_465
K3 O11 3.076679 1_455
N0 O4 1.261789 1_555
N0 O0 1.264893 1_555
N0 O9 1.283239 1_555
N1 O5 1.261789 1_565
N1 O1 1.264893 1_555
N1 O8 1.283239 1_555
N2 O6 1.261789 1_555
N2 O2 1.264893 1_555
N2 O11 1.283239 1_555
N3 O7 1.261789 1_545
N3 O3 1.264893 1_555
N3 O10 1.283239 1_555
