# generated using pymatgen
data_CaMoAsO5
_symmetry_space_group_name_H-M   'P 1'
_cell_length_a   6.14430200
_cell_length_b   8.26134326
_cell_length_c   9.45534759
_cell_angle_alpha   94.93658632
_cell_angle_beta   91.14652564
_cell_angle_gamma   97.10582029
_symmetry_Int_Tables_number   1
_chemical_formula_structural   CaMoAsO5
_chemical_formula_sum   'Ca4 Mo4 As4 O20'
_cell_volume   474.27402012
_cell_formula_units_Z   4
loop_
 _symmetry_equiv_pos_site_id
 _symmetry_equiv_pos_as_xyz
  1  'x, y, z'
loop_
 _atom_site_type_symbol
 _atom_site_label
 _atom_site_symmetry_multiplicity
 _atom_site_fract_x
 _atom_site_fract_y
 _atom_site_fract_z
 _atom_site_occupancy
  Ca  Ca0  1  0.27652700  0.06306700  0.89793700  1
  Ca  Ca1  1  0.74241000  0.41641700  0.41593300  1
  Ca  Ca2  1  0.25330700  0.55624600  0.12877100  1
  Ca  Ca3  1  0.73403500  0.90443100  0.56461200  1
  Mo  Mo0  1  0.56028700  0.99749800  0.22941400  1
  Mo  Mo1  1  0.43571000  0.51681100  0.76140300  1
  Mo  Mo2  1  0.95860800  0.50371100  0.76869400  1
  Mo  Mo3  1  0.05268600  0.97554400  0.25024100  1
  As  As0  1  0.67282500  0.35003400  0.04772300  1
  As  As1  1  0.33522100  0.14637400  0.55159000  1
  As  As2  1  0.79343900  0.88049100  0.91467300  1
  As  As3  1  0.20512600  0.66596200  0.47203200  1
  O  O0  1  0.84666000  0.13964100  0.21707500  1
  O  O1  1  0.13670200  0.34572600  0.72849300  1
  O  O2  1  0.72481800  0.69230900  0.81644300  1
  O  O3  1  0.28859300  0.82172800  0.23961900  1
  O  O4  1  0.60985900  0.47028300  0.19981500  1
  O  O5  1  0.40765300  0.01510700  0.67722400  1
  O  O6  1  0.89443200  0.00801100  0.79195500  1
  O  O7  1  0.11000600  0.50125900  0.34477000  1
  O  O8  1  0.91389000  0.47741600  0.97865400  1
  O  O9  1  0.08714800  0.02054800  0.46221400  1
  O  O10  1  0.56111900  0.92121600  0.00279800  1
  O  O11  1  0.44665700  0.59393200  0.55768500  1
  O  O12  1  0.43122500  0.39751900  0.94275000  1
  O  O13  1  0.56395500  0.10483500  0.43157200  1
  O  O14  1  0.01475900  0.88508600  0.02937600  1
  O  O15  1  0.95892900  0.61313800  0.58502300  1
  O  O16  1  0.33717500  0.12020200  0.17100200  1
  O  O17  1  0.67832900  0.38498100  0.69020300  1
  O  O18  1  0.22493500  0.66534200  0.83044400  1
  O  O19  1  0.74297300  0.84513700  0.29986100  1
loop_
_geom_bond_atom_site_label_1
_geom_bond_atom_site_label_2
_geom_bond_distance
_geom_bond_site_symmetry_2
Ca0 O5 2.272726 1_555
Ca0 O10 2.460001 1_546
Ca0 O14 2.470388 1_546
Ca0 O6 2.507195 1_455
Ca0 O16 2.595424 1_556
Ca0 O12 2.801775 1_555
Ca1 O4 2.284004 1_555
Ca1 O7 2.407430 1_655
Ca1 O15 2.428996 1_555
Ca1 O17 2.660685 1_555
Ca1 O13 2.687707 1_555
Ca1 O11 2.769079 1_555
Ca1 O0 2.973988 1_555
Ca2 O7 2.299015 1_555
Ca2 O3 2.330978 1_555
Ca2 O12 2.458232 1_554
Ca2 O4 2.482570 1_555
Ca2 O8 2.484854 1_454
Ca3 O6 2.390463 1_565
Ca3 O13 2.479797 1_565
Ca3 O9 2.508775 1_665
Ca3 O19 2.512102 1_555
Ca3 O5 2.522478 1_565
Ca3 O11 2.923684 1_555
Ca3 O15 2.937639 1_555
Mo0 O16 1.903095 1_565
Mo0 O19 1.936987 1_555
Mo0 O0 2.002306 1_565
Mo0 O13 2.035233 1_565
Mo0 O3 2.082192 1_555
Mo0 O10 2.181125 1_555
Mo1 O18 1.974378 1_555
Mo1 O17 2.043833 1_555
Mo1 O12 2.048949 1_555
Mo1 O11 2.080046 1_555
Mo1 O2 2.173556 1_555
Mo1 O1 2.174578 1_555
Mo2 O1 1.824820 1_655
Mo2 O17 1.970851 1_555
Mo2 O18 2.022047 1_655
Mo2 O15 2.025630 1_555
Mo2 O8 2.035968 1_555
Mo2 O2 2.270133 1_555
Mo3 O0 2.005114 1_465
Mo3 O9 2.008852 1_565
Mo3 O3 2.040929 1_555
Mo3 O19 2.148856 1_455
Mo3 O14 2.154725 1_555
Mo3 O16 2.175934 1_565
As0 O4 1.753886 1_555
As0 O12 1.869442 1_554
As0 O8 1.870609 1_554
As1 O5 1.762150 1_555
As1 O13 1.869990 1_555
As1 O9 1.877037 1_555
As2 O6 1.708435 1_565
As2 O14 1.716985 1_656
As2 O10 1.721415 1_556
As2 O2 1.740971 1_555
As3 O7 1.770385 1_555
As3 O11 1.861641 1_555
As3 O15 1.897824 1_455
