# generated using pymatgen
data_SmHo3
_symmetry_space_group_name_H-M   'P 1'
_cell_length_a   7.22342789
_cell_length_b   7.22342789
_cell_length_c   5.77578563
_cell_angle_alpha   90.00000000
_cell_angle_beta   90.00000000
_cell_angle_gamma   119.99999165
_symmetry_Int_Tables_number   1
_chemical_formula_structural   SmHo3
_chemical_formula_sum   'Sm2 Ho6'
_cell_volume   260.99273426
_cell_formula_units_Z   2
loop_
 _symmetry_equiv_pos_site_id
 _symmetry_equiv_pos_as_xyz
  1  'x, y, z'
loop_
 _atom_site_type_symbol
 _atom_site_label
 _atom_site_symmetry_multiplicity
 _atom_site_fract_x
 _atom_site_fract_y
 _atom_site_fract_z
 _atom_site_occupancy
  Sm  Sm0  1  0.33333300  0.66666700  0.75000000  1
  Sm  Sm1  1  0.66666700  0.33333300  0.25000000  1
  Ho  Ho0  1  0.16520349  0.33040698  0.25000000  1
  Ho  Ho1  1  0.66959302  0.83479651  0.25000000  1
  Ho  Ho2  1  0.16520349  0.83479651  0.25000000  1
  Ho  Ho3  1  0.83479651  0.66959302  0.75000000  1
  Ho  Ho4  1  0.33040698  0.16520349  0.75000000  1
  Ho  Ho5  1  0.83479651  0.16520349  0.75000000  1
loop_
_geom_bond_atom_site_label_1
_geom_bond_atom_site_label_2
_geom_bond_distance
_geom_bond_site_symmetry_2
Ho0 Ho4 3.551348 1_555
Ho0 Ho4 3.551348 1_554
Ho0 Ho5 3.551348 1_454
Ho0 Ho5 3.551348 1_455
Ho0 Sm0 3.572782 1_554
Ho0 Sm0 3.572782 1_555
Ho0 Ho2 3.580006 1_545
Ho0 Ho1 3.580007 1_445
Ho0 Sm1 3.611757 1_455
Ho0 Sm1 3.611764 1_555
Ho0 Ho2 3.643421 1_555
Ho0 Ho1 3.643422 1_555
Ho1 Ho3 3.551348 1_554
Ho1 Ho3 3.551348 1_555
Ho1 Ho5 3.551348 1_564
Ho1 Ho5 3.551348 1_565
Ho1 Sm0 3.572782 1_554
Ho1 Sm0 3.572782 1_555
Ho1 Ho2 3.580006 1_655
Ho1 Sm1 3.611757 1_565
Ho1 Sm1 3.611764 1_555
Ho1 Ho2 3.643421 1_555
Ho2 Ho3 3.551348 1_454
Ho2 Ho3 3.551348 1_455
Ho2 Ho4 3.551348 1_565
Ho2 Ho4 3.551348 1_564
Ho2 Sm0 3.572779 1_555
Ho2 Sm0 3.572779 1_554
Ho2 Sm1 3.611761 1_455
Ho2 Sm1 3.611761 1_565
Ho3 Sm1 3.572782 1_555
Ho3 Sm1 3.572782 1_556
Ho3 Ho5 3.580006 1_565
Ho3 Ho4 3.580007 1_665
Ho3 Sm0 3.611757 1_655
Ho3 Sm0 3.611764 1_555
Ho3 Ho5 3.643421 1_555
Ho3 Ho4 3.643422 1_555
Ho4 Sm1 3.572782 1_555
Ho4 Sm1 3.572782 1_556
Ho4 Ho5 3.580006 1_455
Ho4 Sm0 3.611757 1_545
Ho4 Sm0 3.611764 1_555
Ho4 Ho5 3.643421 1_555
Ho5 Sm1 3.572779 1_556
Ho5 Sm1 3.572779 1_555
Ho5 Sm0 3.611761 1_545
Ho5 Sm0 3.611761 1_655
