# generated using pymatgen
data_Mg3Si4
_symmetry_space_group_name_H-M   'P 1'
_cell_length_a   4.25459200
_cell_length_b   5.92481000
_cell_length_c   9.88993693
_cell_angle_alpha   84.88455729
_cell_angle_beta   90.00000000
_cell_angle_gamma   90.00000000
_symmetry_Int_Tables_number   1
_chemical_formula_structural   Mg3Si4
_chemical_formula_sum   'Mg6 Si8'
_cell_volume   248.30910827
_cell_formula_units_Z   2
loop_
 _symmetry_equiv_pos_site_id
 _symmetry_equiv_pos_as_xyz
  1  'x, y, z'
loop_
 _atom_site_type_symbol
 _atom_site_label
 _atom_site_symmetry_multiplicity
 _atom_site_fract_x
 _atom_site_fract_y
 _atom_site_fract_z
 _atom_site_occupancy
  Mg  Mg0  1  0.50000000  0.08548300  0.84468600  1
  Mg  Mg1  1  0.50000000  0.36236400  0.29866600  1
  Mg  Mg2  1  0.50000000  0.63763600  0.70133400  1
  Mg  Mg3  1  0.00000000  0.50000000  0.50000000  1
  Mg  Mg4  1  0.50000000  0.91451700  0.15531400  1
  Mg  Mg5  1  0.50000000  0.50000000  0.00000000  1
  Si  Si0  1  0.00000000  0.01667200  0.36436600  1
  Si  Si1  1  0.50000000  0.83352900  0.43857300  1
  Si  Si2  1  0.00000000  0.20497000  0.05944800  1
  Si  Si3  1  0.00000000  0.41581300  0.82483900  1
  Si  Si4  1  0.00000000  0.98332800  0.63563400  1
  Si  Si5  1  0.00000000  0.79503000  0.94055200  1
  Si  Si6  1  0.00000000  0.58418700  0.17516100  1
  Si  Si7  1  0.50000000  0.16647100  0.56142700  1
loop_
_geom_bond_atom_site_label_1
_geom_bond_atom_site_label_2
_geom_bond_distance
_geom_bond_site_symmetry_2
Mg0 Si7 2.799724 1_555
Mg0 Si5 2.845131 1_645
Mg0 Si5 2.845131 1_545
Mg0 Si3 2.885449 1_555
Mg0 Si3 2.885449 1_655
Mg0 Si4 3.064224 1_545
Mg0 Si4 3.064224 1_645
Mg0 Si2 3.131454 1_656
Mg0 Si2 3.131454 1_556
Mg1 Si6 2.730999 1_555
Mg1 Si6 2.730999 1_655
Mg1 Si7 2.749981 1_555
Mg1 Si0 2.984162 1_655
Mg1 Si0 2.984162 1_555
Mg1 Si1 3.224310 1_555
Mg2 Si3 2.730999 1_555
Mg2 Si3 2.730999 1_655
Mg2 Si1 2.749981 1_555
Mg2 Si4 2.984162 1_655
Mg2 Si4 2.984162 1_555
Mg2 Si7 3.224310 1_555
Mg3 Si1 2.930074 1_455
Mg3 Si1 2.930074 1_555
Mg3 Si7 2.930074 1_455
Mg3 Si7 2.930074 1_555
Mg3 Si6 3.206879 1_555
Mg3 Si3 3.206879 1_555
Mg4 Si1 2.799724 1_555
Mg4 Si2 2.845131 1_565
Mg4 Si2 2.845131 1_665
Mg4 Si6 2.885449 1_555
Mg4 Si6 2.885449 1_655
Mg4 Si0 3.064224 1_665
Mg4 Si0 3.064224 1_565
Mg4 Si5 3.131454 1_654
Mg4 Si5 3.131454 1_554
Mg5 Si5 2.782676 1_554
Mg5 Si5 2.782676 1_654
Mg5 Si2 2.782676 1_655
Mg5 Si2 2.782676 1_555
Mg5 Si3 2.815891 1_654
Mg5 Si6 2.815891 1_655
Mg5 Si3 2.815891 1_554
Mg5 Si6 2.815891 1_555
Si0 Si1 2.469698 1_545
Si0 Si1 2.469698 1_445
Si0 Si4 2.672463 1_545
Si1 Si7 2.407259 1_565
Si2 Si3 2.535209 1_554
Si2 Si6 2.610787 1_555
Si2 Si5 2.791259 1_544
Si3 Si5 2.610787 1_555
Si4 Si7 2.469698 1_465
Si4 Si7 2.469698 1_565
Si5 Si6 2.535209 1_556
