# generated using pymatgen
data_P2H27C10N4Cl
_symmetry_space_group_name_H-M   'P 1'
_cell_length_a   13.57779246
_cell_length_b   16.58690719
_cell_length_c   17.39218859
_cell_angle_alpha   90.00000000
_cell_angle_beta   90.00000000
_cell_angle_gamma   90.00000000
_symmetry_Int_Tables_number   1
_chemical_formula_structural   P2H27C10N4Cl
_chemical_formula_sum   'P16 H216 C80 N32 Cl8'
_cell_volume   3916.95711516
_cell_formula_units_Z   8
loop_
 _symmetry_equiv_pos_site_id
 _symmetry_equiv_pos_as_xyz
  1  'x, y, z'
loop_
 _atom_site_type_symbol
 _atom_site_label
 _atom_site_symmetry_multiplicity
 _atom_site_fract_x
 _atom_site_fract_y
 _atom_site_fract_z
 _atom_site_occupancy
  P  P0  1  0.30121926  0.44233458  0.11863914  1
  P  P1  1  0.69878074  0.94233458  0.38136086  1
  P  P2  1  0.19878074  0.55766542  0.61863914  1
  P  P3  1  0.80121926  0.05766542  0.88136086  1
  P  P4  1  0.69878074  0.55766542  0.88136086  1
  P  P5  1  0.30121926  0.05766542  0.61863914  1
  P  P6  1  0.80121926  0.44233458  0.38136086  1
  P  P7  1  0.19878074  0.94233458  0.11863914  1
  P  P8  1  0.41203858  0.32585793  0.08892515  1
  P  P9  1  0.58796142  0.82585793  0.41107485  1
  P  P10  1  0.08796142  0.67414207  0.58892515  1
  P  P11  1  0.91203858  0.17414207  0.91107485  1
  P  P12  1  0.58796142  0.67414207  0.91107485  1
  P  P13  1  0.41203858  0.17414207  0.58892515  1
  P  P14  1  0.91203858  0.32585793  0.41107485  1
  P  P15  1  0.08796142  0.82585793  0.08892515  1
  H  H0  1  0.47247111  0.47076962  0.08208903  1
  H  H1  1  0.52752889  0.97076962  0.41791097  1
  H  H2  1  0.02752889  0.52923038  0.58208903  1
  H  H3  1  0.97247111  0.02923038  0.91791097  1
  H  H4  1  0.52752889  0.52923038  0.91791097  1
  H  H5  1  0.47247111  0.02923038  0.58208903  1
  H  H6  1  0.97247111  0.47076962  0.41791097  1
  H  H7  1  0.02752889  0.97076962  0.08208903  1
  H  H8  1  0.40625224  0.43762471  0.99684376  1
  H  H9  1  0.59374776  0.93762471  0.50315624  1
  H  H10  1  0.09374776  0.56237529  0.49684376  1
  H  H11  1  0.90625224  0.06237529  0.00315624  1
  H  H12  1  0.59374776  0.56237529  0.00315624  1
  H  H13  1  0.40625224  0.06237529  0.49684376  1
  H  H14  1  0.90625224  0.43762471  0.50315624  1
  H  H15  1  0.09374776  0.93762471  0.99684376  1
  H  H16  1  0.26100354  0.30258990  0.17642475  1
  H  H17  1  0.73899646  0.80258990  0.32357525  1
  H  H18  1  0.23899646  0.69741010  0.67642475  1
  H  H19  1  0.76100354  0.19741010  0.82357525  1
  H  H20  1  0.73899646  0.69741010  0.82357525  1
  H  H21  1  0.26100354  0.19741010  0.67642475  1
  H  H22  1  0.76100354  0.30258990  0.32357525  1
  H  H23  1  0.23899646  0.80258990  0.17642475  1
  H  H24  1  0.26506241  0.45237616  0.95680357  1
  H  H25  1  0.73493759  0.95237616  0.54319643  1
  H  H26  1  0.23493759  0.54762384  0.45680357  1
  H  H27  1  0.76506241  0.04762384  0.04319643  1
  H  H28  1  0.73493759  0.54762384  0.04319643  1
  H  H29  1  0.26506241  0.04762384  0.45680357  1
  H  H30  1  0.76506241  0.45237616  0.54319643  1
  H  H31  1  0.23493759  0.95237616  0.95680357  1
  H  H32  1  0.14956486  0.40663208  0.98028136  1
  H  H33  1  0.85043514  0.90663208  0.51971864  1
  H  H34  1  0.35043514  0.59336792  0.48028136  1
  H  H35  1  0.64956486  0.09336792  0.01971864  1
  H  H36  1  0.85043514  0.59336792  0.01971864  1
  H  H37  1  0.14956486  0.09336792  0.48028136  1
  H  H38  1  0.64956486  0.40663208  0.51971864  1
  H  H39  1  0.35043514  0.90663208  0.98028136  1
  H  H40  1  0.15610053  0.51160550  0.95865096  1
  H  H41  1  0.84389947  0.01160550  0.54134904  1
  H  H42  1  0.34389947  0.48839450  0.45865096  1
  H  H43  1  0.65610053  0.98839450  0.04134904  1
  H  H44  1  0.84389947  0.48839450  0.04134904  1
  H  H45  1  0.15610053  0.98839450  0.45865096  1
  H  H46  1  0.65610053  0.51160550  0.54134904  1
  H  H47  1  0.34389947  0.01160550  0.95865096  1
  H  H48  1  0.12780564  0.51363751  0.16809745  1
  H  H49  1  0.87219436  0.01363751  0.33190255  1
  H  H50  1  0.37219436  0.48636249  0.66809745  1
  H  H51  1  0.62780564  0.98636249  0.83190255  1
  H  H52  1  0.87219436  0.48636249  0.83190255  1
  H  H53  1  0.12780564  0.98636249  0.66809745  1
  H  H54  1  0.62780564  0.51363751  0.33190255  1
  H  H55  1  0.37219436  0.01363751  0.16809745  1
  H  H56  1  0.07674354  0.54724590  0.07915518  1
  H  H57  1  0.92325646  0.04724590  0.42084482  1
  H  H58  1  0.42325646  0.45275410  0.57915518  1
  H  H59  1  0.57674354  0.95275410  0.92084482  1
  H  H60  1  0.92325646  0.45275410  0.92084482  1
  H  H61  1  0.07674354  0.95275410  0.57915518  1
  H  H62  1  0.57674354  0.54724590  0.42084482  1
  H  H63  1  0.42325646  0.04724590  0.07915518  1
  H  H64  1  0.06686929  0.44366777  0.10583930  1
  H  H65  1  0.93313071  0.94366777  0.39416070  1
  H  H66  1  0.43313071  0.55633223  0.60583930  1
  H  H67  1  0.56686929  0.05633223  0.89416070  1
  H  H68  1  0.93313071  0.55633223  0.89416070  1
  H  H69  1  0.06686929  0.05633223  0.60583930  1
  H  H70  1  0.56686929  0.44366777  0.39416070  1
  H  H71  1  0.43313071  0.94366777  0.10583930  1
  H  H72  1  0.27121949  0.60686087  0.12698278  1
  H  H73  1  0.72878051  0.10686087  0.37301722  1
  H  H74  1  0.22878051  0.39313913  0.62698278  1
  H  H75  1  0.77121949  0.89313913  0.87301722  1
  H  H76  1  0.72878051  0.39313913  0.87301722  1
  H  H77  1  0.27121949  0.89313913  0.62698278  1
  H  H78  1  0.77121949  0.60686087  0.37301722  1
  H  H79  1  0.22878051  0.10686087  0.12698278  1
  H  H80  1  0.25551259  0.61741794  0.22856596  1
  H  H81  1  0.74448741  0.11741794  0.27143404  1
  H  H82  1  0.24448741  0.38258206  0.72856596  1
  H  H83  1  0.75551259  0.88258206  0.77143404  1
  H  H84  1  0.74448741  0.38258206  0.77143404  1
  H  H85  1  0.25551259  0.88258206  0.72856596  1
  H  H86  1  0.75551259  0.61741794  0.27143404  1
  H  H87  1  0.24448741  0.11741794  0.22856596  1
  H  H88  1  0.37771932  0.61723272  0.18661333  1
  H  H89  1  0.62228068  0.11723272  0.31338667  1
  H  H90  1  0.12228068  0.38276728  0.68661333  1
  H  H91  1  0.87771932  0.88276728  0.81338667  1
  H  H92  1  0.62228068  0.38276728  0.81338667  1
  H  H93  1  0.37771932  0.88276728  0.68661333  1
  H  H94  1  0.87771932  0.61723272  0.31338667  1
  H  H95  1  0.12228068  0.11723272  0.18661333  1
  H  H96  1  0.34638093  0.41409751  0.27271287  1
  H  H97  1  0.65361907  0.91409751  0.22728713  1
  H  H98  1  0.15361907  0.58590249  0.77271287  1
  H  H99  1  0.84638093  0.08590249  0.72728713  1
  H  H100  1  0.65361907  0.58590249  0.72728713  1
  H  H101  1  0.34638093  0.08590249  0.77271287  1
  H  H102  1  0.84638093  0.41409751  0.22728713  1
  H  H103  1  0.15361907  0.91409751  0.27271287  1
  H  H104  1  0.42180712  0.50270883  0.27449085  1
  H  H105  1  0.57819288  0.00270883  0.22550915  1
  H  H106  1  0.07819288  0.49729117  0.77449085  1
  H  H107  1  0.92180712  0.99729117  0.72550915  1
  H  H108  1  0.57819288  0.49729117  0.72550915  1
  H  H109  1  0.42180712  0.99729117  0.77449085  1
  H  H110  1  0.92180712  0.50270883  0.22550915  1
  H  H111  1  0.07819288  0.00270883  0.27449085  1
  H  H112  1  0.29813866  0.50558857  0.31239731  1
  H  H113  1  0.70186134  0.00558857  0.18760269  1
  H  H114  1  0.20186134  0.49441143  0.81239731  1
  H  H115  1  0.79813866  0.99441143  0.68760269  1
  H  H116  1  0.70186134  0.49441143  0.68760269  1
  H  H117  1  0.29813866  0.99441143  0.81239731  1
  H  H118  1  0.79813866  0.50558857  0.18760269  1
  H  H119  1  0.20186134  0.00558857  0.31239731  1
  H  H120  1  0.56814021  0.41825607  0.15765743  1
  H  H121  1  0.43185979  0.91825607  0.34234257  1
  H  H122  1  0.93185979  0.58174393  0.65765743  1
  H  H123  1  0.06814021  0.08174393  0.84234257  1
  H  H124  1  0.43185979  0.58174393  0.84234257  1
  H  H125  1  0.56814021  0.08174393  0.65765743  1
  H  H126  1  0.06814021  0.41825607  0.34234257  1
  H  H127  1  0.93185979  0.91825607  0.15765743  1
  H  H128  1  0.54502196  0.35409882  0.23826644  1
  H  H129  1  0.45497804  0.85409882  0.26173356  1
  H  H130  1  0.95497804  0.64590118  0.73826644  1
  H  H131  1  0.04502196  0.14590118  0.76173356  1
  H  H132  1  0.45497804  0.64590118  0.76173356  1
  H  H133  1  0.54502196  0.14590118  0.73826644  1
  H  H134  1  0.04502196  0.35409882  0.26173356  1
  H  H135  1  0.95497804  0.85409882  0.23826644  1
  H  H136  1  0.65032183  0.33809168  0.17879475  1
  H  H137  1  0.34967817  0.83809168  0.32120525  1
  H  H138  1  0.84967817  0.66190832  0.67879475  1
  H  H139  1  0.15032183  0.16190832  0.82120525  1
  H  H140  1  0.34967817  0.66190832  0.82120525  1
  H  H141  1  0.65032183  0.16190832  0.67879475  1
  H  H142  1  0.15032183  0.33809168  0.32120525  1
  H  H143  1  0.84967817  0.83809168  0.17879475  1
  H  H144  1  0.48847607  0.17430797  0.11856863  1
  H  H145  1  0.51152393  0.67430797  0.38143137  1
  H  H146  1  0.01152393  0.82569203  0.61856863  1
  H  H147  1  0.98847607  0.32569203  0.88143137  1
  H  H148  1  0.51152393  0.82569203  0.88143137  1
  H  H149  1  0.48847607  0.32569203  0.61856863  1
  H  H150  1  0.98847607  0.17430797  0.38143137  1
  H  H151  1  0.01152393  0.67430797  0.11856863  1
  H  H152  1  0.60598599  0.19879337  0.15809381  1
  H  H153  1  0.39401401  0.69879337  0.34190619  1
  H  H154  1  0.89401401  0.80120663  0.65809381  1
  H  H155  1  0.10598599  0.30120663  0.84190619  1
  H  H156  1  0.39401401  0.80120663  0.84190619  1
  H  H157  1  0.60598599  0.30120663  0.65809381  1
  H  H158  1  0.10598599  0.19879337  0.34190619  1
  H  H159  1  0.89401401  0.69879337  0.15809381  1
  H  H160  1  0.49742022  0.20806107  0.21566674  1
  H  H161  1  0.50257978  0.70806107  0.28433326  1
  H  H162  1  0.00257978  0.79193893  0.71566674  1
  H  H163  1  0.99742022  0.29193893  0.78433326  1
  H  H164  1  0.50257978  0.79193893  0.78433326  1
  H  H165  1  0.49742022  0.29193893  0.71566674  1
  H  H166  1  0.99742022  0.20806107  0.28433326  1
  H  H167  1  0.00257978  0.70806107  0.21566674  1
  H  H168  1  0.55406441  0.25453620  0.99625353  1
  H  H169  1  0.44593559  0.75453620  0.50374647  1
  H  H170  1  0.94593559  0.74546380  0.49625353  1
  H  H171  1  0.05406441  0.24546380  0.00374647  1
  H  H172  1  0.44593559  0.74546380  0.00374647  1
  H  H173  1  0.55406441  0.24546380  0.49625353  1
  H  H174  1  0.05406441  0.25453620  0.50374647  1
  H  H175  1  0.94593559  0.75453620  0.99625353  1
  H  H176  1  0.48278305  0.17881770  0.94910208  1
  H  H177  1  0.51721695  0.67881770  0.55089792  1
  H  H178  1  0.01721695  0.82118230  0.44910208  1
  H  H179  1  0.98278305  0.32118230  0.05089792  1
  H  H180  1  0.51721695  0.82118230  0.05089792  1
  H  H181  1  0.48278305  0.32118230  0.44910208  1
  H  H182  1  0.98278305  0.17881770  0.55089792  1
  H  H183  1  0.01721695  0.67881770  0.94910208  1
  H  H184  1  0.47893996  0.28147674  0.91538090  1
  H  H185  1  0.52106004  0.78147674  0.58461910  1
  H  H186  1  0.02106004  0.71852326  0.41538090  1
  H  H187  1  0.97893996  0.21852326  0.08461910  1
  H  H188  1  0.52106004  0.71852326  0.08461910  1
  H  H189  1  0.47893996  0.21852326  0.41538090  1
  H  H190  1  0.97893996  0.28147674  0.58461910  1
  H  H191  1  0.02106004  0.78147674  0.91538090  1
  H  H192  1  0.24641866  0.25248557  0.02420397  1
  H  H193  1  0.75358134  0.75248557  0.47579603  1
  H  H194  1  0.25358134  0.74751443  0.52420397  1
  H  H195  1  0.74641866  0.24751443  0.97579603  1
  H  H196  1  0.75358134  0.74751443  0.97579603  1
  H  H197  1  0.24641866  0.24751443  0.52420397  1
  H  H198  1  0.74641866  0.25248557  0.47579603  1
  H  H199  1  0.25358134  0.75248557  0.02420397  1
  H  H200  1  0.29519509  0.27885551  0.93159388  1
  H  H201  1  0.70480491  0.77885551  0.56840612  1
  H  H202  1  0.20480491  0.72114449  0.43159388  1
  H  H203  1  0.79519509  0.22114449  0.06840612  1
  H  H204  1  0.70480491  0.72114449  0.06840612  1
  H  H205  1  0.29519509  0.22114449  0.43159388  1
  H  H206  1  0.79519509  0.27885551  0.56840612  1
  H  H207  1  0.20480491  0.77885551  0.93159388  1
  H  H208  1  0.30385381  0.17728315  0.96614926  1
  H  H209  1  0.69614619  0.67728315  0.53385074  1
  H  H210  1  0.19614619  0.82271685  0.46614926  1
  H  H211  1  0.80385381  0.32271685  0.03385074  1
  H  H212  1  0.69614619  0.82271685  0.03385074  1
  H  H213  1  0.30385381  0.32271685  0.46614926  1
  H  H214  1  0.80385381  0.17728315  0.53385074  1
  H  H215  1  0.19614619  0.67728315  0.96614926  1
  C  C0  1  0.41278688  0.43194311  0.05999383  1
  C  C1  1  0.58721312  0.93194311  0.44000617  1
  C  C2  1  0.08721312  0.56805689  0.55999383  1
  C  C3  1  0.91278688  0.06805689  0.94000617  1
  C  C4  1  0.58721312  0.56805689  0.94000617  1
  C  C5  1  0.41278688  0.06805689  0.55999383  1
  C  C6  1  0.91278688  0.43194311  0.44000617  1
  C  C7  1  0.08721312  0.93194311  0.05999383  1
  C  C8  1  0.30626301  0.34150049  0.14100018  1
  C  C9  1  0.69373699  0.84150049  0.35899982  1
  C  C10  1  0.19373699  0.65849951  0.64100018  1
  C  C11  1  0.80626301  0.15849951  0.85899982  1
  C  C12  1  0.69373699  0.65849951  0.85899982  1
  C  C13  1  0.30626301  0.15849951  0.64100018  1
  C  C14  1  0.80626301  0.34150049  0.35899982  1
  C  C15  1  0.19373699  0.84150049  0.14100018  1
  C  C16  1  0.19494279  0.46152012  0.98707705  1
  C  C17  1  0.80505721  0.96152012  0.51292295  1
  C  C18  1  0.30505721  0.53847988  0.48707705  1
  C  C19  1  0.69494279  0.03847988  0.01292295  1
  C  C20  1  0.80505721  0.53847988  0.01292295  1
  C  C21  1  0.19494279  0.03847988  0.48707705  1
  C  C22  1  0.69494279  0.46152012  0.51292295  1
  C  C23  1  0.30505721  0.96152012  0.98707705  1
  C  C24  1  0.11535169  0.49722397  0.10782169  1
  C  C25  1  0.88464831  0.99722397  0.39217831  1
  C  C26  1  0.38464831  0.50277603  0.60782169  1
  C  C27  1  0.61535169  0.00277603  0.89217831  1
  C  C28  1  0.88464831  0.50277603  0.89217831  1
  C  C29  1  0.11535169  0.00277603  0.60782169  1
  C  C30  1  0.61535169  0.49722397  0.39217831  1
  C  C31  1  0.38464831  0.99722397  0.10782169  1
  C  C32  1  0.30274327  0.59192256  0.18316012  1
  C  C33  1  0.69725673  0.09192256  0.31683988  1
  C  C34  1  0.19725673  0.40807744  0.68316012  1
  C  C35  1  0.80274327  0.90807744  0.81683988  1
  C  C36  1  0.69725673  0.40807744  0.81683988  1
  C  C37  1  0.30274327  0.90807744  0.68316012  1
  C  C38  1  0.80274327  0.59192256  0.31683988  1
  C  C39  1  0.19725673  0.09192256  0.18316012  1
  C  C40  1  0.34591345  0.47997431  0.26747231  1
  C  C41  1  0.65408655  0.97997431  0.23252769  1
  C  C42  1  0.15408655  0.52002569  0.76747231  1
  C  C43  1  0.84591345  0.02002569  0.73252769  1
  C  C44  1  0.65408655  0.52002569  0.73252769  1
  C  C45  1  0.34591345  0.02002569  0.76747231  1
  C  C46  1  0.84591345  0.47997431  0.23252769  1
  C  C47  1  0.15408655  0.97997431  0.26747231  1
  C  C48  1  0.57219049  0.35579631  0.17839049  1
  C  C49  1  0.42780951  0.85579631  0.32160951  1
  C  C50  1  0.92780951  0.64420369  0.67839049  1
  C  C51  1  0.07219049  0.14420369  0.82160951  1
  C  C52  1  0.42780951  0.64420369  0.82160951  1
  C  C53  1  0.57219049  0.14420369  0.67839049  1
  C  C54  1  0.07219049  0.35579631  0.32160951  1
  C  C55  1  0.92780951  0.85579631  0.17839049  1
  C  C56  1  0.52758872  0.21553951  0.15712033  1
  C  C57  1  0.47241128  0.71553951  0.34287967  1
  C  C58  1  0.97241128  0.78446049  0.65712033  1
  C  C59  1  0.02758872  0.28446049  0.84287967  1
  C  C60  1  0.47241128  0.78446049  0.84287967  1
  C  C61  1  0.52758872  0.28446049  0.65712033  1
  C  C62  1  0.02758872  0.21553951  0.34287967  1
  C  C63  1  0.97241128  0.71553951  0.15712033  1
  C  C64  1  0.48432921  0.24262350  0.96673928  1
  C  C65  1  0.51567079  0.74262350  0.53326072  1
  C  C66  1  0.01567079  0.75737650  0.46673928  1
  C  C67  1  0.98432921  0.25737650  0.03326072  1
  C  C68  1  0.51567079  0.75737650  0.03326072  1
  C  C69  1  0.48432921  0.25737650  0.46673928  1
  C  C70  1  0.98432921  0.24262350  0.53326072  1
  C  C71  1  0.01567079  0.74262350  0.96673928  1
  C  C72  1  0.30613500  0.24122656  0.98325182  1
  C  C73  1  0.69386500  0.74122656  0.51674818  1
  C  C74  1  0.19386500  0.75877344  0.48325182  1
  C  C75  1  0.80613500  0.25877344  0.01674818  1
  C  C76  1  0.69386500  0.75877344  0.01674818  1
  C  C77  1  0.30613500  0.25877344  0.48325182  1
  C  C78  1  0.80613500  0.24122656  0.51674818  1
  C  C79  1  0.19386500  0.74122656  0.98325182  1
  N  N0  1  0.20866183  0.48253374  0.06791851  1
  N  N1  1  0.79133817  0.98253374  0.43208149  1
  N  N2  1  0.29133817  0.51746626  0.56791851  1
  N  N3  1  0.70866183  0.01746626  0.93208149  1
  N  N4  1  0.79133817  0.51746626  0.93208149  1
  N  N5  1  0.20866183  0.01746626  0.56791851  1
  N  N6  1  0.70866183  0.48253374  0.43208149  1
  N  N7  1  0.29133817  0.98253374  0.06791851  1
  N  N8  1  0.30633208  0.50409609  0.19285978  1
  N  N9  1  0.69366792  0.00409609  0.30714022  1
  N  N10  1  0.19366792  0.49590391  0.69285978  1
  N  N11  1  0.80633208  0.99590391  0.80714022  1
  N  N12  1  0.69366792  0.49590391  0.80714022  1
  N  N13  1  0.30633208  0.99590391  0.69285978  1
  N  N14  1  0.80633208  0.50409609  0.30714022  1
  N  N15  1  0.19366792  0.00409609  0.19285978  1
  N  N16  1  0.51879141  0.29887667  0.12933495  1
  N  N17  1  0.48120859  0.79887667  0.37066505  1
  N  N18  1  0.98120859  0.70112333  0.62933495  1
  N  N19  1  0.01879141  0.20112333  0.87066505  1
  N  N20  1  0.48120859  0.70112333  0.87066505  1
  N  N21  1  0.51879141  0.20112333  0.62933495  1
  N  N22  1  0.01879141  0.29887667  0.37066505  1
  N  N23  1  0.98120859  0.79887667  0.12933495  1
  N  N24  1  0.40152374  0.25784382  0.01905635  1
  N  N25  1  0.59847626  0.75784382  0.48094365  1
  N  N26  1  0.09847626  0.74215618  0.51905635  1
  N  N27  1  0.90152374  0.24215618  0.98094365  1
  N  N28  1  0.59847626  0.74215618  0.98094365  1
  N  N29  1  0.40152374  0.24215618  0.51905635  1
  N  N30  1  0.90152374  0.25784382  0.48094365  1
  N  N31  1  0.09847626  0.75784382  0.01905635  1
  Cl  Cl0  1  0.40649809  0.07676422  0.34920108  1
  Cl  Cl1  1  0.59350191  0.57676422  0.15079892  1
  Cl  Cl2  1  0.09350191  0.92323578  0.84920108  1
  Cl  Cl3  1  0.90649809  0.42323578  0.65079892  1
  Cl  Cl4  1  0.59350191  0.92323578  0.65079892  1
  Cl  Cl5  1  0.40649809  0.42323578  0.84920108  1
  Cl  Cl6  1  0.90649809  0.07676422  0.15079892  1
  Cl  Cl7  1  0.09350191  0.57676422  0.34920108  1
loop_
_geom_bond_atom_site_label_1
_geom_bond_atom_site_label_2
_geom_bond_distance
_geom_bond_site_symmetry_2
C0 H0 1.104147 1_555
C0 H8 1.105919 1_554
C0 P8 1.830184 1_555
C0 P0 1.834338 1_555
C1 H1 1.104147 1_555
C1 H9 1.105919 1_555
C1 P9 1.830184 1_555
C1 P1 1.834338 1_555
C2 H2 1.104147 1_555
C2 H10 1.105919 1_555
C2 P10 1.830184 1_555
C2 P2 1.834338 1_555
C3 H3 1.104147 1_555
C3 H11 1.105919 1_556
C3 P11 1.830184 1_555
C3 P3 1.834338 1_555
C4 H4 1.104147 1_555
C4 H12 1.105919 1_556
C4 P12 1.830184 1_555
C4 P4 1.834338 1_555
C5 H5 1.104147 1_555
C5 H13 1.105919 1_555
C5 P13 1.830184 1_555
C5 P5 1.834338 1_555
C6 H6 1.104147 1_555
C6 H14 1.105919 1_555
C6 P14 1.830184 1_555
C6 P6 1.834338 1_555
C7 H7 1.104147 1_555
C7 H15 1.105919 1_554
C7 P15 1.830184 1_555
C7 P7 1.834338 1_555
C8 H16 1.083412 1_555
C8 P8 1.717637 1_555
C8 P0 1.718511 1_555
C9 H17 1.083412 1_555
C9 P9 1.717637 1_555
C9 P1 1.718511 1_555
C10 H18 1.083412 1_555
C10 P10 1.717637 1_555
C10 P2 1.718511 1_555
C11 H19 1.083412 1_555
C11 P11 1.717637 1_555
C11 P3 1.718511 1_555
C12 H20 1.083412 1_555
C12 P12 1.717637 1_555
C12 P4 1.718511 1_555
C13 H21 1.083412 1_555
C13 P13 1.717637 1_555
C13 P5 1.718511 1_555
C14 H22 1.083412 1_555
C14 P14 1.717637 1_555
C14 P6 1.718511 1_555
C15 H23 1.083412 1_555
C15 P15 1.717637 1_555
C15 P7 1.718511 1_555
C16 H24 1.098483 1_555
C16 H40 1.101240 1_555
C16 H32 1.105648 1_555
C16 N0 1.460496 1_556
C17 H25 1.098483 1_555
C17 H41 1.101240 1_565
C17 H33 1.105648 1_555
C17 N1 1.460496 1_555
C18 H26 1.098483 1_555
C18 H42 1.101240 1_555
C18 H34 1.105648 1_555
C18 N2 1.460496 1_555
C19 H27 1.098483 1_555
C19 H43 1.101240 1_545
C19 H35 1.105648 1_555
C19 N3 1.460496 1_554
C20 H28 1.098483 1_555
C20 H44 1.101240 1_555
C20 H36 1.105648 1_555
C20 N4 1.460496 1_554
C21 H29 1.098483 1_555
C21 H45 1.101240 1_545
C21 H37 1.105648 1_555
C21 N5 1.460496 1_555
C22 H30 1.098483 1_555
C22 H46 1.101240 1_555
C22 H38 1.105648 1_555
C22 N6 1.460496 1_555
C23 H31 1.098483 1_555
C23 H47 1.101240 1_565
C23 H39 1.105648 1_555
C23 N7 1.460496 1_556
C24 H48 1.096223 1_555
C24 H56 1.100814 1_555
C24 H64 1.106192 1_555
C24 N0 1.464980 1_555
C25 H49 1.096223 1_565
C25 H57 1.100814 1_565
C25 H65 1.106192 1_555
C25 N1 1.464980 1_555
C26 H50 1.096223 1_555
C26 H58 1.100814 1_555
C26 H66 1.106192 1_555
C26 N2 1.464980 1_555
C27 H51 1.096223 1_545
C27 H59 1.100814 1_545
C27 H67 1.106192 1_555
C27 N3 1.464980 1_555
C28 H52 1.096223 1_555
C28 H60 1.100814 1_555
C28 H68 1.106192 1_555
C28 N4 1.464980 1_555
C29 H53 1.096223 1_545
C29 H61 1.100814 1_545
C29 H69 1.106192 1_555
C29 N5 1.464980 1_555
C30 H54 1.096223 1_555
C30 H62 1.100814 1_555
C30 H70 1.106192 1_555
C30 N6 1.464980 1_555
C31 H55 1.096223 1_565
C31 H63 1.100814 1_565
C31 H71 1.106192 1_555
C31 N7 1.464980 1_555
C32 H72 1.095089 1_555
C32 H80 1.101691 1_555
C32 H88 1.102813 1_555
C32 N8 1.467314 1_555
C33 H73 1.095089 1_555
C33 H81 1.101691 1_555
C33 H89 1.102813 1_555
C33 N9 1.467314 1_555
C34 H74 1.095089 1_555
C34 H82 1.101691 1_555
C34 H90 1.102813 1_555
C34 N10 1.467314 1_555
C35 H75 1.095089 1_555
C35 H83 1.101691 1_555
C35 H91 1.102813 1_555
C35 N11 1.467314 1_555
C36 H76 1.095089 1_555
C36 H84 1.101691 1_555
C36 H92 1.102813 1_555
C36 N12 1.467314 1_555
C37 H77 1.095089 1_555
C37 H85 1.101691 1_555
C37 H93 1.102813 1_555
C37 N13 1.467314 1_555
C38 H78 1.095089 1_555
C38 H86 1.101691 1_555
C38 H94 1.102813 1_555
C38 N14 1.467314 1_555
C39 H79 1.095089 1_555
C39 H87 1.101691 1_555
C39 H95 1.102813 1_555
C39 N15 1.467314 1_555
C40 H96 1.096505 1_555
C40 H112 1.100812 1_555
C40 H104 1.104068 1_555
C40 N8 1.460436 1_555
C41 H97 1.096505 1_555
C41 H113 1.100812 1_565
C41 H105 1.104068 1_565
C41 N9 1.460436 1_565
C42 H98 1.096505 1_555
C42 H114 1.100812 1_555
C42 H106 1.104068 1_555
C42 N10 1.460436 1_555
C43 H99 1.096505 1_555
C43 H115 1.100812 1_545
C43 H107 1.104068 1_545
C43 N11 1.460436 1_545
C44 H100 1.096505 1_555
C44 H116 1.100812 1_555
C44 H108 1.104068 1_555
C44 N12 1.460436 1_555
C45 H101 1.096505 1_555
C45 H117 1.100812 1_545
C45 H109 1.104068 1_545
C45 N13 1.460436 1_545
C46 H102 1.096505 1_555
C46 H118 1.100812 1_555
C46 H110 1.104068 1_555
C46 N14 1.460436 1_555
C47 H103 1.096505 1_555
C47 H119 1.100812 1_565
C47 H111 1.104068 1_565
C47 N15 1.460436 1_565
C48 H120 1.098352 1_555
C48 H136 1.100770 1_555
C48 H128 1.105138 1_555
C48 N16 1.464572 1_555
C49 H121 1.098352 1_555
C49 H137 1.100770 1_555
C49 H129 1.105138 1_555
C49 N17 1.464572 1_555
C50 H122 1.098352 1_555
C50 H138 1.100770 1_555
C50 H130 1.105138 1_555
C50 N18 1.464572 1_555
C51 H123 1.098352 1_555
C51 H139 1.100770 1_555
C51 H131 1.105138 1_555
C51 N19 1.464572 1_555
C52 H124 1.098352 1_555
C52 H140 1.100770 1_555
C52 H132 1.105138 1_555
C52 N20 1.464572 1_555
C53 H125 1.098352 1_555
C53 H141 1.100770 1_555
C53 H133 1.105138 1_555
C53 N21 1.464572 1_555
C54 H126 1.098352 1_555
C54 H142 1.100770 1_555
C54 H134 1.105138 1_555
C54 N22 1.464572 1_555
C55 H127 1.098352 1_555
C55 H143 1.100770 1_555
C55 H135 1.105138 1_555
C55 N23 1.464572 1_555
C56 H144 1.095135 1_555
C56 H152 1.100236 1_555
C56 H160 1.104541 1_555
C56 N16 1.469206 1_555
C57 H145 1.095135 1_555
C57 H153 1.100236 1_555
C57 H161 1.104541 1_555
C57 N17 1.469206 1_555
C58 H146 1.095135 1_655
C58 H154 1.100236 1_555
C58 H162 1.104541 1_655
C58 N18 1.469206 1_555
C59 H147 1.095135 1_455
C59 H155 1.100236 1_555
C59 H163 1.104541 1_455
C59 N19 1.469206 1_555
C60 H148 1.095135 1_555
C60 H156 1.100236 1_555
C60 H164 1.104541 1_555
C60 N20 1.469206 1_555
C61 H149 1.095135 1_555
C61 H157 1.100236 1_555
C61 H165 1.104541 1_555
C61 N21 1.469206 1_555
C62 H150 1.095135 1_455
C62 H158 1.100236 1_555
C62 H166 1.104541 1_455
C62 N22 1.469206 1_555
C63 H151 1.095135 1_655
C63 H159 1.100236 1_555
C63 H167 1.104541 1_655
C63 N23 1.469206 1_555
C64 H168 1.095018 1_555
C64 H176 1.102099 1_555
C64 H184 1.103877 1_555
C64 N24 1.468248 1_556
C65 H169 1.095018 1_555
C65 H177 1.102099 1_555
C65 H185 1.103877 1_555
C65 N25 1.468248 1_555
C66 H170 1.095018 1_455
C66 H178 1.102099 1_555
C66 H186 1.103877 1_555
C66 N26 1.468248 1_555
C67 H171 1.095018 1_655
C67 H179 1.102099 1_555
C67 H187 1.103877 1_555
C67 N27 1.468248 1_554
C68 H172 1.095018 1_555
C68 H180 1.102099 1_555
C68 H188 1.103877 1_555
C68 N28 1.468248 1_554
C69 H173 1.095018 1_555
C69 H181 1.102099 1_555
C69 H189 1.103877 1_555
C69 N29 1.468248 1_555
C70 H174 1.095018 1_655
C70 H182 1.102099 1_555
C70 H190 1.103877 1_555
C70 N30 1.468248 1_555
C71 H175 1.095018 1_455
C71 H183 1.102099 1_555
C71 H191 1.103877 1_555
C71 N31 1.468248 1_556
C72 H192 1.095261 1_556
C72 H208 1.101979 1_555
C72 H200 1.104005 1_555
C72 N24 1.463288 1_556
C73 H193 1.095261 1_555
C73 H209 1.101979 1_555
C73 H201 1.104005 1_555
C73 N25 1.463288 1_555
C74 H194 1.095261 1_555
C74 H210 1.101979 1_555
C74 H202 1.104005 1_555
C74 N26 1.463288 1_555
C75 H195 1.095261 1_554
C75 H211 1.101979 1_555
C75 H203 1.104005 1_555
C75 N27 1.463288 1_554
C76 H196 1.095261 1_554
C76 H212 1.101979 1_555
C76 H204 1.104005 1_555
C76 N28 1.463288 1_554
C77 H197 1.095261 1_555
C77 H213 1.101979 1_555
C77 H205 1.104005 1_555
C77 N29 1.463288 1_555
C78 H198 1.095261 1_555
C78 H214 1.101979 1_555
C78 H206 1.104005 1_555
C78 N30 1.463288 1_555
C79 H199 1.095261 1_556
C79 H215 1.101979 1_555
C79 H207 1.104005 1_555
C79 N31 1.463288 1_556
N0 P0 1.673956 1_555
N1 P1 1.673956 1_555
N2 P2 1.673956 1_555
N3 P3 1.673956 1_555
N4 P4 1.673956 1_555
N5 P5 1.673956 1_555
N6 P6 1.673956 1_555
N7 P7 1.673956 1_555
N8 P0 1.649424 1_555
N9 P1 1.649424 1_545
N10 P2 1.649424 1_555
N11 P3 1.649424 1_565
N12 P4 1.649424 1_555
N13 P5 1.649424 1_565
N14 P6 1.649424 1_555
N15 P7 1.649424 1_545
N16 P8 1.671883 1_555
N17 P9 1.671883 1_555
N18 P10 1.671883 1_655
N19 P11 1.671883 1_455
N20 P12 1.671883 1_555
N21 P13 1.671883 1_555
N22 P14 1.671883 1_455
N23 P15 1.671883 1_655
N24 P8 1.664251 1_555
N25 P9 1.664251 1_555
N26 P10 1.664251 1_555
N27 P11 1.664251 1_555
N28 P12 1.664251 1_555
N29 P13 1.664251 1_555
N30 P14 1.664251 1_555
N31 P15 1.664251 1_555
