# generated using pymatgen
data_AlCo(WO4)2
_symmetry_space_group_name_H-M   'P 1'
_cell_length_a   5.05992400
_cell_length_b   5.47169946
_cell_length_c   5.74262544
_cell_angle_alpha   106.45656337
_cell_angle_beta   89.85486036
_cell_angle_gamma   110.87107161
_symmetry_Int_Tables_number   1
_chemical_formula_structural   AlCo(WO4)2
_chemical_formula_sum   'Al1 Co1 W2 O8'
_cell_volume   141.61290178
_cell_formula_units_Z   1
loop_
 _symmetry_equiv_pos_site_id
 _symmetry_equiv_pos_as_xyz
  1  'x, y, z'
loop_
 _atom_site_type_symbol
 _atom_site_label
 _atom_site_symmetry_multiplicity
 _atom_site_fract_x
 _atom_site_fract_y
 _atom_site_fract_z
 _atom_site_occupancy
  Al  Al0  1  0.52323700  0.14506900  0.77833300  1
  Co  Co0  1  0.96545500  0.12878100  0.32163400  1
  W  W0  1  0.70321700  0.59327600  0.39123200  1
  W  W1  1  0.21745000  0.60207700  0.02727500  1
  O  O0  1  0.65975200  0.86302200  0.63966600  1
  O  O1  1  0.73856500  0.33181900  0.53716400  1
  O  O2  1  0.64203500  0.78725800  0.15403100  1
  O  O3  1  0.80175400  0.34696900  0.04332300  1
  O  O4  1  0.25708000  0.88121800  0.89835000  1
  O  O5  1  0.28573500  0.32336500  0.76455500  1
  O  O6  1  0.31015500  0.39050900  0.25824100  1
  O  O7  1  0.09566300  0.80273400  0.36469200  1
loop_
_geom_bond_atom_site_label_1
_geom_bond_atom_site_label_2
_geom_bond_distance
_geom_bond_site_symmetry_2
Al0 O5 1.811572 1_555
Al0 O3 1.863127 1_556
Al0 O4 1.883267 1_545
Al0 O0 1.885064 1_545
Al0 O1 2.037206 1_555
Co0 O6 1.933367 1_655
Co0 O2 1.976475 1_545
Co0 O1 2.051022 1_555
Co0 O7 2.183174 1_645
Co0 O3 2.541290 1_555
O0 W0 1.816282 1_555
O1 W0 1.908742 1_555
O2 W0 2.033059 1_555
O2 W1 2.052070 1_555
O3 W1 2.088317 1_655
O3 W0 2.237131 1_555
O4 W1 1.828372 1_556
O5 W1 1.946920 1_556
O6 W0 1.930060 1_555
O6 W1 2.139949 1_555
O7 W0 1.937979 1_455
O7 W1 2.147188 1_555
