# generated using pymatgen
data_Sr3(AlIn2)2
_symmetry_space_group_name_H-M   'P 1'
_cell_length_a   6.21093711
_cell_length_b   6.21093711
_cell_length_c   18.27983286
_cell_angle_alpha   75.31473984
_cell_angle_beta   75.31473984
_cell_angle_gamma   50.72982961
_symmetry_Int_Tables_number   1
_chemical_formula_structural   Sr3(AlIn2)2
_chemical_formula_sum   'Sr6 Al4 In8'
_cell_volume   523.98713854
_cell_formula_units_Z   2
loop_
 _symmetry_equiv_pos_site_id
 _symmetry_equiv_pos_as_xyz
  1  'x, y, z'
loop_
 _atom_site_type_symbol
 _atom_site_label
 _atom_site_symmetry_multiplicity
 _atom_site_fract_x
 _atom_site_fract_y
 _atom_site_fract_z
 _atom_site_occupancy
  Sr  Sr0  1  0.61126800  0.61126800  0.07004000  1
  Sr  Sr1  1  0.94446900  0.94446900  0.39965900  1
  Sr  Sr2  1  0.27633400  0.27633400  0.73541800  1
  Sr  Sr3  1  0.72198600  0.72198600  0.26463700  1
  Sr  Sr4  1  0.05356600  0.05356600  0.59860600  1
  Sr  Sr5  1  0.38602200  0.38602200  0.93277100  1
  Al  Al0  1  0.29635400  0.29635400  0.13376600  1
  Al  Al1  1  0.63855400  0.63855400  0.46542700  1
  Al  Al2  1  0.97183700  0.97183700  0.79852700  1
  Al  Al3  1  0.03712600  0.03712600  0.19991600  1
  In  In0  1  0.37514200  0.37514200  0.53248700  1
  In  In1  1  0.70840700  0.70840700  0.86642300  1
  In  In2  1  0.90718300  0.90718300  0.07969300  1
  In  In3  1  0.23927100  0.23927100  0.40774800  1
  In  In4  1  0.57081200  0.57081200  0.74235300  1
  In  In5  1  0.42483100  0.42483100  0.25554200  1
  In  In6  1  0.75199600  0.75199600  0.59186100  1
  In  In7  1  0.08484400  0.08484400  0.92512600  1
loop_
_geom_bond_atom_site_label_1
_geom_bond_atom_site_label_2
_geom_bond_distance
_geom_bond_site_symmetry_2
Sr0 Sr5 4.030891 1_554
Sr0 Sr3 4.083940 1_555
Sr0 Sr5 4.306279 1_564
Sr0 Sr5 4.306279 1_654
Sr1 Sr3 3.973230 1_555
Sr1 Sr4 4.150185 1_665
Sr1 Sr3 4.308128 1_655
Sr1 Sr3 4.308128 1_565
Sr2 Sr4 4.001934 1_555
Sr2 Sr5 4.125852 1_555
Sr2 Sr4 4.318557 1_655
Sr2 Sr4 4.318557 1_565
Al0 Al3 2.820314 1_555
Al0 In5 2.972556 1_555
Al0 In2 2.985574 1_545
Al0 In2 2.985574 1_455
Al0 Sr0 3.397171 1_555
Al0 Sr3 3.518303 1_455
Al0 Sr3 3.518303 1_545
Al0 Sr5 3.526677 1_554
Al0 Sr0 3.756313 1_545
Al0 Sr0 3.756313 1_455
Al1 In0 2.865435 1_555
Al1 In6 2.935000 1_555
Al1 In3 2.966470 1_565
Al1 In3 2.966470 1_655
Al1 Sr1 3.304447 1_555
Al1 Sr3 3.524231 1_555
Al1 Sr4 3.551439 1_565
Al1 Sr4 3.551439 1_655
Al1 Sr1 3.839243 1_545
Al1 Sr1 3.839243 1_455
Al2 In1 2.867772 1_555
Al2 In7 2.934549 1_665
Al2 In4 2.954247 1_655
Al2 In4 2.954247 1_565
Al2 Sr2 3.286299 1_665
Al2 Sr4 3.509409 1_665
Al2 Sr5 3.564054 1_565
Al2 Sr5 3.564054 1_655
Al2 Sr2 3.826978 1_565
Al2 Sr2 3.826978 1_655
Al3 In2 2.958979 1_445
Al3 In5 2.997096 1_455
Al3 In5 2.997096 1_545
Al3 Sr3 3.400538 1_445
Al3 Sr1 3.504661 1_445
Al3 Sr0 3.507054 1_545
Al3 Sr0 3.507054 1_455
Al3 Sr3 3.763187 1_455
Al3 Sr3 3.763187 1_545
In0 In6 3.053825 1_455
In0 In6 3.053825 1_545
In0 In3 3.078380 1_555
In0 Sr4 3.470065 1_555
In0 Sr1 3.538357 1_455
In0 Sr1 3.538357 1_545
In0 Sr2 3.561217 1_555
In0 Sr4 3.729463 1_655
In0 Sr4 3.729463 1_565
In1 In7 3.052709 1_655
In1 In7 3.052709 1_565
In1 In4 3.081292 1_555
In1 Sr5 3.478859 1_555
In1 Sr2 3.517202 1_565
In1 Sr2 3.517202 1_655
In1 Sr0 3.572895 1_556
In1 Sr5 3.725757 1_655
In1 Sr5 3.725757 1_565
In2 In7 2.966193 1_664
In2 Sr0 3.375219 1_555
In2 Sr3 3.436167 1_555
In2 Sr0 3.482935 1_565
In2 Sr0 3.482935 1_655
In2 Sr5 3.834901 1_654
In2 Sr5 3.834901 1_564
In3 In5 2.971131 1_555
In3 Sr1 3.353458 1_445
In3 Sr1 3.494948 1_545
In3 Sr1 3.494948 1_455
In3 Sr4 3.526525 1_555
In3 Sr3 3.774281 1_545
In3 Sr3 3.774281 1_455
In4 In6 2.926516 1_555
In4 Sr2 3.343114 1_555
In4 Sr2 3.500377 1_565
In4 Sr2 3.500377 1_655
In4 Sr5 3.516685 1_555
In4 Sr4 3.782408 1_565
In4 Sr4 3.782408 1_655
In5 Sr3 3.385786 1_555
In5 Sr0 3.449057 1_555
In5 Sr3 3.475367 1_455
In5 Sr3 3.475367 1_545
In5 Sr1 3.793908 1_455
In5 Sr1 3.793908 1_545
In6 Sr4 3.421575 1_665
In6 Sr4 3.449760 1_655
In6 Sr4 3.449760 1_565
In6 Sr1 3.571047 1_555
In6 Sr2 3.800311 1_565
In6 Sr2 3.800311 1_655
In7 Sr5 3.422373 1_555
In7 Sr5 3.450201 1_545
In7 Sr5 3.450201 1_455
In7 Sr2 3.530338 1_555
In7 Sr0 3.824279 1_546
In7 Sr0 3.824279 1_456
