# generated using pymatgen
data_MgRhN2
_symmetry_space_group_name_H-M   'P 1'
_cell_length_a   5.87975100
_cell_length_b   6.58666100
_cell_length_c   5.34286800
_cell_angle_alpha   90.00000000
_cell_angle_beta   90.00000000
_cell_angle_gamma   90.00000000
_symmetry_Int_Tables_number   1
_chemical_formula_structural   MgRhN2
_chemical_formula_sum   'Mg4 Rh4 N8'
_cell_volume   206.91819975
_cell_formula_units_Z   4
loop_
 _symmetry_equiv_pos_site_id
 _symmetry_equiv_pos_as_xyz
  1  'x, y, z'
loop_
 _atom_site_type_symbol
 _atom_site_label
 _atom_site_symmetry_multiplicity
 _atom_site_fract_x
 _atom_site_fract_y
 _atom_site_fract_z
 _atom_site_occupancy
  Mg  Mg0  1  0.59333000  0.87348200  0.99699300  1
  Mg  Mg1  1  0.40667000  0.12651800  0.49699300  1
  Mg  Mg2  1  0.90667000  0.37348200  0.49699300  1
  Mg  Mg3  1  0.09333000  0.62651800  0.99699300  1
  Rh  Rh0  1  0.58285800  0.36124100  0.00804800  1
  Rh  Rh1  1  0.41714200  0.63875900  0.50804800  1
  Rh  Rh2  1  0.91714200  0.86124100  0.50804800  1
  Rh  Rh3  1  0.08285800  0.13875900  0.00804800  1
  N  N0  1  0.57293900  0.39011800  0.36952400  1
  N  N1  1  0.42706100  0.60988200  0.86952400  1
  N  N2  1  0.92706100  0.89011800  0.86952400  1
  N  N3  1  0.07293900  0.10988200  0.36952400  1
  N  N4  1  0.60072400  0.86925900  0.39543500  1
  N  N5  1  0.39927600  0.13074100  0.89543500  1
  N  N6  1  0.89927600  0.36925900  0.89543500  1
  N  N7  1  0.10072400  0.63074100  0.39543500  1
loop_
_geom_bond_atom_site_label_1
_geom_bond_atom_site_label_2
_geom_bond_distance
_geom_bond_site_symmetry_2
Mg0 N2 2.079971 1_555
Mg0 N1 2.105733 1_555
Mg0 N5 2.113655 1_565
Mg0 N4 2.129449 1_556
Mg1 N3 2.079971 1_555
Mg1 N0 2.105733 1_555
Mg1 N4 2.113655 1_545
Mg1 N5 2.129449 1_555
Mg2 N0 2.079971 1_555
Mg2 N3 2.105733 1_655
Mg2 N7 2.113655 1_655
Mg2 N6 2.129449 1_555
Mg3 N1 2.079971 1_555
Mg3 N2 2.105733 1_455
Mg3 N6 2.113655 1_455
Mg3 N7 2.129449 1_556
N0 Rh0 1.941538 1_555
N0 Rh1 2.017181 1_555
N1 Rh1 1.941538 1_555
N1 Rh0 2.017181 1_556
N2 Rh2 1.941538 1_555
N2 Rh3 2.017181 1_666
N3 Rh3 1.941538 1_555
N3 Rh2 2.017181 1_445
N4 Rh2 1.956045 1_555
N4 Rh1 1.957591 1_555
N5 Rh3 1.956045 1_556
N5 Rh0 1.957591 1_556
N6 Rh0 1.956045 1_556
N6 Rh3 1.957591 1_656
N7 Rh1 1.956045 1_555
N7 Rh2 1.957591 1_455
