# generated using pymatgen
data_V2O5
_symmetry_space_group_name_H-M   'P 1'
_cell_length_a   13.33456253
_cell_length_b   12.71992508
_cell_length_c   11.44620430
_cell_angle_alpha   88.65228975
_cell_angle_beta   85.37308674
_cell_angle_gamma   81.04637315
_symmetry_Int_Tables_number   1
_chemical_formula_structural   V2O5
_chemical_formula_sum   'V30 O75'
_cell_volume   1911.41814308
_cell_formula_units_Z   15
loop_
 _symmetry_equiv_pos_site_id
 _symmetry_equiv_pos_as_xyz
  1  'x, y, z'
loop_
 _atom_site_type_symbol
 _atom_site_label
 _atom_site_symmetry_multiplicity
 _atom_site_fract_x
 _atom_site_fract_y
 _atom_site_fract_z
 _atom_site_occupancy
  V  V0  1  0.89427105  0.45489519  0.93471027  1
  V  V1  1  0.89563909  0.93207780  0.12322341  1
  V  V2  1  0.32954477  0.01689647  0.62476753  1
  V  V3  1  0.48722142  0.55274507  0.75872671  1
  V  V4  1  0.68891171  0.17689304  0.47395810  1
  V  V5  1  0.53908980  0.12379962  0.73062999  1
  V  V6  1  0.45664097  0.20361552  0.94268467  1
  V  V7  1  0.89123373  0.31109877  0.52391294  1
  V  V8  1  0.83721981  0.12366829  0.87875840  1
  V  V9  1  0.61145986  0.69048661  0.89796157  1
  V  V10  1  0.41404853  0.11477643  0.36274539  1
  V  V11  1  0.36297693  0.75700048  0.58773157  1
  V  V12  1  0.76406140  0.69612756  0.61776263  1
  V  V13  1  0.78419329  0.95358342  0.70636896  1
  V  V14  1  0.03000106  0.21255452  0.30930047  1
  V  V15  1  0.11926772  0.16922587  0.54574978  1
  V  V16  1  0.01385777  0.93237123  0.56172071  1
  V  V17  1  0.83360915  0.77110688  0.32891333  1
  V  V18  1  0.98587806  0.66329359  0.04081389  1
  V  V19  1  0.52193985  0.33760927  0.35762497  1
  V  V20  1  0.17665373  0.85525408  0.76369787  1
  V  V21  1  0.56707105  0.87872466  0.33125275  1
  V  V22  1  0.66104594  0.51948592  0.42090331  1
  V  V23  1  0.94277183  0.18900316  0.04097908  1
  V  V24  1  0.72922512  0.49642712  0.70840124  1
  V  V25  1  0.38143366  0.79881569  0.17651578  1
  V  V26  1  0.29095793  0.71351870  0.36875671  1
  V  V27  1  0.06663140  0.60964933  0.31573620  1
  V  V28  1  0.38384546  0.38144635  0.11079184  1
  V  V29  1  0.73887013  0.59777548  0.14879368  1
  O  O0  1  0.75652464  0.42369681  0.39700580  1
  O  O1  1  0.49224942  0.38586001  0.22576266  1
  O  O2  1  0.92501118  0.33410293  0.01701262  1
  O  O3  1  0.40333981  0.87868078  0.62359745  1
  O  O4  1  0.08782625  0.04081489  0.55299994  1
  O  O5  1  0.38078720  0.66825087  0.24453224  1
  O  O6  1  0.99108069  0.45781628  0.84252603  1
  O  O7  1  0.46672481  0.65286627  0.65293785  1
  O  O8  1  0.60981649  0.45638703  0.72485192  1
  O  O9  1  0.18213543  0.65415642  0.35945517  1
  O  O10  1  0.51205315  0.77821238  0.43762852  1
  O  O11  1  0.26895648  0.81670319  0.49363004  1
  O  O12  1  0.87692317  0.97186983  0.58787301  1
  O  O13  1  0.80652934  0.22131617  0.51793067  1
  O  O14  1  0.43604091  0.08521942  0.67060013  1
  O  O15  1  0.88194420  0.58465469  0.01953063  1
  O  O16  1  0.04052074  0.86512927  0.44357412  1
  O  O17  1  0.06314022  0.85722633  0.68325544  1
  O  O18  1  0.27717517  0.84366341  0.27801160  1
  O  O19  1  0.69136660  0.64346574  0.76573395  1
  O  O20  1  0.63885785  0.24889263  0.34387258  1
  O  O21  1  0.33640944  0.31638452  0.96479342  1
  O  O22  1  0.51353203  0.07526789  0.88218335  1
  O  O23  1  0.36074081  0.12307996  0.24079874  1
  O  O24  1  0.55149203  0.44611674  0.44128730  1
  O  O25  1  0.66294792  0.03339292  0.71302368  1
  O  O26  1  0.05732564  0.49522658  0.37590587  1
  O  O27  1  0.52991699  0.02542203  0.34058824  1
  O  O28  1  0.69313498  0.58190533  0.55153413  1
  O  O29  1  0.84333574  0.98019155  0.82904637  1
  O  O30  1  0.97693318  0.14451546  0.89940663  1
  O  O31  1  0.77965525  0.77022203  0.46978006  1
  O  O32  1  0.05780019  0.60508609  0.16042206  1
  O  O33  1  0.95020583  0.80462304  0.05610017  1
  O  O34  1  0.79484949  0.20636640  0.77665970  1
  O  O35  1  0.87198716  0.89240312  0.27777362  1
  O  O36  1  0.35760463  0.81019659  0.03958180  1
  O  O37  1  0.66610966  0.66916625  0.04028368  1
  O  O38  1  0.87249504  0.62171853  0.63691018  1
  O  O39  1  0.21952764  0.16768365  0.62481274  1
  O  O40  1  0.57473716  0.81571674  0.87854131  1
  O  O41  1  0.38075467  0.49879857  0.04995053  1
  O  O42  1  0.71704371  0.05205213  0.44476243  1
  O  O43  1  0.65706852  0.59828855  0.29038805  1
  O  O44  1  0.50171413  0.25211741  0.79425441  1
  O  O45  1  0.23443171  0.97316007  0.73143378  1
  O  O46  1  0.50808252  0.24700620  0.05692772  1
  O  O47  1  0.59550197  0.19407777  0.58926011  1
  O  O48  1  0.49397000  0.85245866  0.21066484  1
  O  O49  1  0.36674966  0.64466109  0.47376748  1
  O  O50  1  0.83803610  0.41421437  0.61268570  1
  O  O51  1  0.00284249  0.25364335  0.59679225  1
  O  O52  1  0.57314694  0.84690206  0.48912631  1
  O  O53  1  0.78812243  0.45847059  0.84915609  1
  O  O54  1  0.14466906  0.20066837  0.39513465  1
  O  O55  1  0.28371714  0.38280543  0.20382142  1
  O  O56  1  0.96164683  0.04014870  0.10747774  1
  O  O57  1  0.78610876  0.97019799  0.06982394  1
  O  O58  1  0.50686089  0.61966371  0.89277241  1
  O  O59  1  0.27598787  0.74786861  0.71632870  1
  O  O60  1  0.82660614  0.67109070  0.22334998  1
  O  O61  1  0.81413936  0.18083815  0.03480829  1
  O  O62  1  0.94847401  0.32775809  0.38007297  1
  O  O63  1  0.97371090  0.11300340  0.35345064  1
  O  O64  1  0.03333941  0.21602042  0.15753204  1
  O  O65  1  0.95859039  0.70110186  0.36566591  1
  O  O66  1  0.43514457  0.24982177  0.40648621  1
  O  O67  1  0.68861321  0.83970493  0.28064718  1
  O  O68  1  0.06125072  0.64544730  0.92453829  1
  O  O69  1  0.75536313  0.47086588  0.12323242  1
  O  O70  1  0.33773924  0.04758176  0.46926873  1
  O  O71  1  0.76782700  0.82460682  0.70699372  1
  O  O72  1  0.39233270  0.48886877  0.77515383  1
  O  O73  1  0.14719547  0.84684209  0.90184241  1
  O  O74  1  0.32229861  0.20524753  0.98891164  1
loop_
_geom_bond_atom_site_label_1
_geom_bond_atom_site_label_2
_geom_bond_distance
_geom_bond_site_symmetry_2
O0 V22 1.630024 1_555
O1 V19 1.669934 1_555
O1 V28 2.039637 1_555
O2 V0 1.792872 1_554
O2 V23 1.840762 1_555
O3 V11 1.782870 1_555
O3 V2 1.876128 1_565
O4 V15 1.746928 1_555
O4 V16 1.812924 1_545
O5 V25 1.818491 1_555
O5 V26 1.826798 1_555
O6 V0 1.604535 1_555
O7 V3 1.742220 1_555
O7 V11 1.942973 1_555
O8 V24 1.740600 1_555
O8 V3 1.903004 1_555
O9 V26 1.748412 1_555
O9 V27 1.830902 1_555
O10 O52 1.448373 1_555
O10 V21 1.931314 1_555
O10 V11 2.563287 1_555
O11 V11 1.786536 1_555
O11 V26 1.937119 1_555
O12 V13 1.796331 1_555
O12 V16 1.819204 1_655
O13 V7 1.732728 1_555
O13 V4 1.857156 1_555
O14 V5 1.726041 1_555
O14 V2 1.890211 1_555
O15 V18 1.864969 1_555
O15 V0 1.912863 1_554
O15 V29 2.305189 1_555
O16 V16 1.602793 1_555
O17 V16 1.780476 1_555
O17 V20 1.830716 1_555
O18 V25 1.769628 1_555
O18 V26 1.925698 1_555
O19 V9 1.835154 1_555
O19 V24 1.973320 1_555
O19 V12 2.034913 1_555
O20 V19 1.774822 1_555
O20 V4 1.845868 1_555
O21 O74 1.471765 1_555
O21 V6 1.981851 1_555
O21 V28 2.067898 1_556
O22 V6 1.817493 1_555
O22 V5 1.850995 1_555
O23 V10 1.610759 1_555
O24 V19 1.808214 1_555
O24 V22 1.848952 1_555
O25 V13 1.767245 1_545
O25 V5 1.859251 1_555
O26 V27 1.613485 1_555
O27 V10 1.773995 1_555
O27 V21 1.857910 1_545
O28 V22 1.820439 1_555
O28 V12 2.043345 1_555
O28 V24 2.126596 1_555
O29 V13 1.729842 1_555
O29 V8 1.912102 1_565
O30 V23 1.731313 1_556
O30 V8 1.955701 1_555
O31 V17 1.712323 1_555
O31 V12 1.931236 1_555
O32 V27 1.793994 1_555
O32 V18 1.812570 1_455
O33 V18 1.795495 1_555
O33 V1 1.830105 1_555
O34 V8 1.629468 1_555
O35 V17 1.771995 1_555
O35 V1 1.844206 1_555
O36 V25 1.622942 1_555
O37 V29 1.782053 1_555
O37 V9 1.835108 1_554
O38 V12 1.627855 1_555
O39 V15 1.671201 1_555
O39 V2 2.225981 1_555
O40 V9 1.607699 1_555
O41 V28 1.628325 1_555
O42 V4 1.610389 1_555
O43 V22 1.779071 1_555
O43 V29 1.878738 1_555
O44 V5 1.785204 1_555
O44 V6 1.878750 1_555
O45 V20 1.807468 1_555
O45 V2 1.829362 1_565
O46 V6 1.667815 1_554
O46 V28 2.247648 1_555
O47 V4 1.733392 1_555
O47 V5 1.981984 1_555
O48 V25 1.815525 1_555
O48 V21 1.818540 1_555
O49 V26 1.761880 1_555
O49 V11 1.949551 1_555
O50 V7 1.706701 1_555
O50 V24 1.929832 1_555
O51 V15 1.807989 1_555
O51 V7 1.810510 1_455
O52 V21 1.847933 1_555
O53 V0 1.779331 1_555
O53 V24 1.869518 1_555
O54 V15 1.778282 1_555
O54 V14 1.868026 1_555
O55 V28 1.637423 1_555
O56 V1 1.742485 1_545
O56 V23 2.010601 1_555
O57 V1 1.628350 1_555
O58 V9 1.779745 1_555
O58 V3 1.828358 1_555
O59 V20 1.808329 1_555
O59 V11 1.812200 1_555
O60 V17 1.792955 1_555
O60 V29 1.872105 1_555
O61 V23 1.741616 1_555
O61 V8 1.927879 1_554
O62 V7 1.780277 1_555
O62 V14 1.844803 1_655
O63 V14 1.620746 1_655
O64 V14 1.733847 1_555
O64 V23 1.940894 1_455
O65 V27 1.769789 1_655
O65 V17 1.838723 1_555
O66 V19 1.779801 1_555
O66 V10 1.869254 1_555
O67 V21 1.679359 1_555
O67 V17 2.104605 1_555
O68 V18 1.600124 1_456
O69 V29 1.625177 1_555
O70 V10 1.809456 1_555
O70 V2 1.811476 1_555
O71 V13 1.688135 1_555
O71 V12 1.956729 1_555
O72 V3 1.603412 1_555
O73 V20 1.603420 1_555
O74 V6 1.823601 1_555
