# generated using pymatgen
data_ErPS
_symmetry_space_group_name_H-M   'P 1'
_cell_length_a   5.27733221
_cell_length_b   5.29993915
_cell_length_c   16.56911051
_cell_angle_alpha   90.00000000
_cell_angle_beta   90.00000000
_cell_angle_gamma   90.00000000
_symmetry_Int_Tables_number   1
_chemical_formula_structural   ErPS
_chemical_formula_sum   'Er8 P8 S8'
_cell_volume   463.43039234
_cell_formula_units_Z   8
loop_
 _symmetry_equiv_pos_site_id
 _symmetry_equiv_pos_as_xyz
  1  'x, y, z'
loop_
 _atom_site_type_symbol
 _atom_site_label
 _atom_site_symmetry_multiplicity
 _atom_site_fract_x
 _atom_site_fract_y
 _atom_site_fract_z
 _atom_site_occupancy
  Er  Er0  1  0.25000000  0.48383526  0.36171590  1
  Er  Er1  1  0.25000000  0.98383526  0.13828410  1
  Er  Er2  1  0.75000000  0.51616474  0.63828410  1
  Er  Er3  1  0.75000000  0.01616474  0.86171590  1
  Er  Er4  1  0.25000000  0.01375077  0.64640530  1
  Er  Er5  1  0.25000000  0.51375077  0.85359470  1
  Er  Er6  1  0.75000000  0.98624923  0.35359470  1
  Er  Er7  1  0.75000000  0.48624923  0.14640530  1
  P  P0  1  0.03756463  0.29232658  0.99725472  1
  P  P1  1  0.46243537  0.79232658  0.50274528  1
  P  P2  1  0.53756463  0.70767342  0.00274528  1
  P  P3  1  0.96243537  0.20767342  0.49725472  1
  P  P4  1  0.96243537  0.70767342  0.00274528  1
  P  P5  1  0.53756463  0.20767342  0.49725472  1
  P  P6  1  0.46243537  0.29232658  0.99725472  1
  P  P7  1  0.03756463  0.79232658  0.50274528  1
  S  S0  1  0.25000000  0.48513890  0.18899252  1
  S  S1  1  0.25000000  0.98513890  0.31100748  1
  S  S2  1  0.75000000  0.51486110  0.81100748  1
  S  S3  1  0.75000000  0.01486110  0.68899252  1
  S  S4  1  0.25000000  0.01034884  0.81548232  1
  S  S5  1  0.25000000  0.51034884  0.68451768  1
  S  S6  1  0.75000000  0.98965116  0.18451768  1
  S  S7  1  0.75000000  0.48965116  0.31548232  1
loop_
_geom_bond_atom_site_label_1
_geom_bond_atom_site_label_2
_geom_bond_distance
_geom_bond_site_symmetry_2
Er0 S7 2.747788 1_555
Er0 S7 2.747788 1_455
Er0 S1 2.773390 1_545
Er0 S1 2.786562 1_555
Er0 S0 2.861881 1_555
Er0 P7 3.064366 1_555
Er0 P1 3.064366 1_555
Er0 P5 3.080374 1_555
Er0 P3 3.080374 1_455
Er1 S6 2.747788 1_455
Er1 S6 2.747788 1_555
Er1 S0 2.773390 1_555
Er1 S0 2.786562 1_565
Er1 S1 2.861881 1_555
Er1 P6 3.064366 1_564
Er1 P0 3.064366 1_564
Er1 P4 3.080374 1_455
Er1 P2 3.080374 1_555
Er2 S5 2.747788 1_555
Er2 S5 2.747788 1_655
Er2 S3 2.773390 1_565
Er2 S3 2.786562 1_555
Er2 S2 2.861881 1_555
Er2 P5 3.064366 1_555
Er2 P3 3.064366 1_555
Er2 P7 3.080374 1_655
Er2 P1 3.080374 1_555
Er3 S4 2.747788 1_655
Er3 S4 2.747788 1_555
Er3 S2 2.773390 1_555
Er3 S2 2.786562 1_545
Er3 S3 2.861881 1_555
Er3 P4 3.064366 1_546
Er3 P2 3.064366 1_546
Er3 P6 3.080374 1_555
Er3 P0 3.080374 1_655
Er4 S5 2.706637 1_555
Er4 S3 2.731394 1_555
Er4 S3 2.731394 1_455
Er4 S5 2.741715 1_545
Er4 S4 2.801514 1_555
Er4 P7 2.880963 1_545
Er4 P1 2.880963 1_545
Er4 P5 3.076791 1_555
Er4 P3 3.076791 1_455
Er5 S4 2.706637 1_565
Er5 S2 2.731394 1_455
Er5 S2 2.731394 1_555
Er5 S4 2.741715 1_555
Er5 S5 2.801514 1_555
Er5 P0 2.880963 1_555
Er5 P6 2.880963 1_555
Er5 P2 3.076791 1_556
Er5 P4 3.076791 1_456
Er6 S7 2.706637 1_555
Er6 S1 2.731394 1_555
Er6 S1 2.731394 1_655
Er6 S7 2.741715 1_565
Er6 S6 2.801514 1_555
Er6 P3 2.880963 1_565
Er6 P5 2.880963 1_565
Er6 P1 3.076791 1_555
Er6 P7 3.076791 1_655
Er7 S6 2.706637 1_545
Er7 S0 2.731394 1_555
Er7 S0 2.731394 1_655
Er7 S6 2.741715 1_555
Er7 S7 2.801514 1_555
Er7 P2 2.880963 1_555
Er7 P4 2.880963 1_555
Er7 P6 3.076791 1_554
Er7 P0 3.076791 1_654
P0 P4 2.238583 1_456
P0 P6 2.242184 1_555
P1 P5 2.238583 1_565
P1 P7 2.242184 1_555
P2 P6 2.238583 1_554
P2 P4 2.242184 1_555
P3 P7 2.238583 1_645
P3 P5 2.242184 1_555
