# generated using pymatgen
data_ErTl(WO4)2
_symmetry_space_group_name_H-M   'P 1'
_cell_length_a   7.46451562
_cell_length_b   7.46451562
_cell_length_c   7.47923332
_cell_angle_alpha   62.20500501
_cell_angle_beta   62.20500501
_cell_angle_gamma   88.49169180
_symmetry_Int_Tables_number   1
_chemical_formula_structural   ErTl(WO4)2
_chemical_formula_sum   'Er2 Tl2 W4 O16'
_cell_volume   316.24294030
_cell_formula_units_Z   2
loop_
 _symmetry_equiv_pos_site_id
 _symmetry_equiv_pos_as_xyz
  1  'x, y, z'
loop_
 _atom_site_type_symbol
 _atom_site_label
 _atom_site_symmetry_multiplicity
 _atom_site_fract_x
 _atom_site_fract_y
 _atom_site_fract_z
 _atom_site_occupancy
  Er  Er0  1  0.77298997  0.22701003  0.75000000  1
  Er  Er1  1  0.22701003  0.77298997  0.25000000  1
  Tl  Tl0  1  0.20665831  0.79334169  0.75000000  1
  Tl  Tl1  1  0.79334169  0.20665831  0.25000000  1
  W  W0  1  0.69912140  0.69544189  0.76969070  1
  W  W1  1  0.30087860  0.30455811  0.23030930  1
  W  W2  1  0.30455811  0.30087860  0.73030930  1
  W  W3  1  0.69544189  0.69912140  0.26969070  1
  O  O0  1  0.61815320  0.76205861  0.55716619  1
  O  O1  1  0.38184680  0.23794139  0.44283381  1
  O  O2  1  0.23794139  0.38184680  0.94283381  1
  O  O3  1  0.76205861  0.61815320  0.05716619  1
  O  O4  1  0.37802949  0.06335022  0.87747500  1
  O  O5  1  0.62197051  0.93664978  0.12252500  1
  O  O6  1  0.93664978  0.62197051  0.62252500  1
  O  O7  1  0.06335022  0.37802949  0.37747500  1
  O  O8  1  0.58660701  0.36906569  0.96725521  1
  O  O9  1  0.41339299  0.63093431  0.03274479  1
  O  O10  1  0.63093431  0.41339299  0.53274479  1
  O  O11  1  0.36906569  0.58660701  0.46725521  1
  O  O12  1  0.78705804  0.95702722  0.69157545  1
  O  O13  1  0.21294196  0.04297278  0.30842455  1
  O  O14  1  0.04297278  0.21294196  0.80842455  1
  O  O15  1  0.95702722  0.78705804  0.19157545  1
loop_
_geom_bond_atom_site_label_1
_geom_bond_atom_site_label_2
_geom_bond_distance
_geom_bond_site_symmetry_2
Er0 O12 2.242926 1_545
Er0 O14 2.242926 1_655
Er0 O8 2.263011 1_555
Er0 O10 2.263011 1_555
Er0 O5 2.301915 1_546
Er0 O7 2.301915 1_655
Er0 O6 2.752295 1_555
Er0 O4 2.752295 1_555
Er1 O15 2.242926 1_455
Er1 O13 2.242926 1_565
Er1 O11 2.263011 1_555
Er1 O9 2.263011 1_555
Er1 O6 2.301915 1_455
Er1 O4 2.301915 1_564
Er1 O5 2.752295 1_555
Er1 O7 2.752295 1_555
O0 W0 1.811661 1_555
O0 W3 2.224271 1_555
O0 Tl0 2.777446 1_555
O1 W1 1.811661 1_555
O1 W2 2.224271 1_555
O1 Tl1 2.777446 1_555
O2 W2 1.811661 1_555
O2 W1 2.224271 1_556
O2 Tl0 2.777446 1_555
O3 W3 1.811661 1_555
O3 W0 2.224271 1_554
O3 Tl1 2.777446 1_555
O4 W2 1.829662 1_555
O5 W3 1.829662 1_555
O6 W0 1.829662 1_555
O7 W1 1.829662 1_555
O8 W1 1.977045 1_556
O8 W0 2.101680 1_555
O9 W0 1.977045 1_554
O9 W1 2.101680 1_555
O10 W3 1.977045 1_555
O10 W2 2.101680 1_555
O11 W2 1.977045 1_555
O11 W3 2.101680 1_555
O12 W0 1.797434 1_555
O13 W1 1.797434 1_555
O14 W2 1.797434 1_555
O15 W3 1.797434 1_555
