# generated using pymatgen
data_V4C3
_symmetry_space_group_name_H-M   'P 1'
_cell_length_a   9.54496565
_cell_length_b   9.54496565
_cell_length_c   9.54496573
_cell_angle_alpha   17.61748795
_cell_angle_beta   17.61748795
_cell_angle_gamma   17.61748728
_symmetry_Int_Tables_number   1
_chemical_formula_structural   V4C3
_chemical_formula_sum   'V4 C3'
_cell_volume   69.53026390
_cell_formula_units_Z   1
loop_
 _symmetry_equiv_pos_site_id
 _symmetry_equiv_pos_as_xyz
  1  'x, y, z'
loop_
 _atom_site_type_symbol
 _atom_site_label
 _atom_site_symmetry_multiplicity
 _atom_site_fract_x
 _atom_site_fract_y
 _atom_site_fract_z
 _atom_site_occupancy
  V  V0  1  0.87726200  0.87726200  0.87726200  1
  V  V1  1  0.12273800  0.12273800  0.12273800  1
  V  V2  1  0.37516400  0.37516400  0.37516400  1
  V  V3  1  0.62483600  0.62483600  0.62483600  1
  C  C0  1  0.25406400  0.25406400  0.25406400  1
  C  C1  1  0.50000000  0.50000000  0.50000000  1
  C  C2  1  0.74593600  0.74593600  0.74593600  1
loop_
_geom_bond_atom_site_label_1
_geom_bond_atom_site_label_2
_geom_bond_distance
_geom_bond_site_symmetry_2
C0 V3 1.990491 1_455
C0 V3 1.990491 1_545
C0 V3 1.990491 1_554
C0 V0 2.085565 1_544
C0 V0 2.085565 1_454
C0 V0 2.085565 1_445
C1 V1 2.093206 1_655
C1 V0 2.093206 1_455
C1 V1 2.093206 1_565
C1 V0 2.093206 1_545
C1 V0 2.093206 1_554
C1 V1 2.093206 1_556
C2 V2 1.990491 1_655
C2 V2 1.990491 1_565
C2 V2 1.990491 1_556
C2 V1 2.085565 1_656
C2 V1 2.085565 1_566
C2 V1 2.085565 1_665
