# generated using pymatgen
data_Ca2CrSbO6
_symmetry_space_group_name_H-M   'P 1'
_cell_length_a   5.40809118
_cell_length_b   5.52246554
_cell_length_c   15.40046370
_cell_angle_alpha   90.00003910
_cell_angle_beta   90.24923609
_cell_angle_gamma   90.00013581
_symmetry_Int_Tables_number   1
_chemical_formula_structural   Ca2CrSbO6
_chemical_formula_sum   'Ca8 Cr4 Sb4 O24'
_cell_volume   459.94585362
_cell_formula_units_Z   4
loop_
 _symmetry_equiv_pos_site_id
 _symmetry_equiv_pos_as_xyz
  1  'x, y, z'
loop_
 _atom_site_type_symbol
 _atom_site_label
 _atom_site_symmetry_multiplicity
 _atom_site_fract_x
 _atom_site_fract_y
 _atom_site_fract_z
 _atom_site_occupancy
  Ca  Ca0  1  0.51205277  0.54865194  0.12461651  1
  Ca  Ca1  1  0.51203410  0.54863986  0.62462085  1
  Ca  Ca2  1  0.01199473  0.95137354  0.37461844  1
  Ca  Ca3  1  0.01203100  0.95138565  0.87462062  1
  Ca  Ca4  1  0.48796518  0.45137767  0.37538020  1
  Ca  Ca5  1  0.48800233  0.45137881  0.87538129  1
  Ca  Ca6  1  0.98795827  0.04864970  0.12538207  1
  Ca  Ca7  1  0.98795791  0.04864311  0.62537933  1
  Cr  Cr0  1  0.00003500  0.50001760  0.74998531  1
  Cr  Cr1  1  0.49996032  0.00001675  0.50001575  1
  Cr  Cr2  1  0.00000625  0.50001698  0.24998290  1
  Cr  Cr3  1  0.50000301  0.00002791  0.00001689  1
  Sb  Sb0  1  0.00003725  0.50003261  -0.00000398  1
  Sb  Sb1  1  0.99999386  0.50002016  0.49999215  1
  Sb  Sb2  1  0.49996889  0.00001374  0.25000602  1
  Sb  Sb3  1  0.49999957  0.00001905  0.75000772  1
  O  O0  1  0.41218234  0.97473912  0.12539309  1
  O  O1  1  0.41216721  0.97473439  0.62538944  1
  O  O2  1  0.91216659  0.52534185  0.37542753  1
  O  O3  1  0.91220777  0.52534831  0.87541879  1
  O  O4  1  0.58778917  0.02534276  0.37458338  1
  O  O5  1  0.58783058  0.02535069  0.87457154  1
  O  O6  1  0.08783036  0.47475082  0.12460753  1
  O  O7  1  0.08782512  0.47473309  0.62461056  1
  O  O8  1  0.79438280  0.79475158  0.22746131  1
  O  O9  1  0.79440919  0.79474598  0.72745755  1
  O  O10  1  0.29445081  0.70517154  0.47747761  1
  O  O11  1  0.29450077  0.70517531  0.97747865  1
  O  O12  1  0.20549778  0.20515807  0.27252197  1
  O  O13  1  0.20554242  0.20516969  0.77251901  1
  O  O14  1  0.70563167  0.29475351  0.02253966  1
  O  O15  1  0.70558471  0.29474334  0.52254442  1
  O  O16  1  0.29689055  0.70795488  0.27318013  1
  O  O17  1  0.29691017  0.70796495  0.77317926  1
  O  O18  1  0.79685266  0.79197271  0.02322917  1
  O  O19  1  0.79681497  0.79196289  0.52323803  1
  O  O20  1  0.70314922  0.29196447  0.22676689  1
  O  O21  1  0.70317598  0.29196639  0.72676368  1
  O  O22  1  0.20308432  0.20796481  0.47682011  1
  O  O23  1  0.20312339  0.20797478  0.97681963  1
loop_
_geom_bond_atom_site_label_1
_geom_bond_atom_site_label_2
_geom_bond_distance
_geom_bond_site_symmetry_2
Ca0 O6 2.330249 1_555
Ca0 O20 2.353339 1_555
Ca0 O14 2.355334 1_555
Ca0 O0 2.414286 1_555
Ca0 O18 2.576204 1_555
Ca0 O8 2.581853 1_555
Ca0 O11 2.691274 1_554
Ca0 O16 2.717688 1_555
Ca1 O7 2.330183 1_555
Ca1 O21 2.353322 1_555
Ca1 O15 2.355255 1_555
Ca1 O1 2.414320 1_555
Ca1 O19 2.576106 1_555
Ca1 O9 2.581939 1_555
Ca1 O10 2.691432 1_555
Ca1 O17 2.717571 1_555
Ca2 O4 2.330225 1_465
Ca2 O22 2.353525 1_565
Ca2 O12 2.354977 1_565
Ca2 O2 2.413936 1_455
Ca2 O16 2.577278 1_555
Ca2 O10 2.582692 1_555
Ca2 O8 2.691836 1_455
Ca2 O19 2.718648 1_455
Ca3 O5 2.330193 1_465
Ca3 O23 2.353497 1_565
Ca3 O13 2.355048 1_565
Ca3 O3 2.413960 1_455
Ca3 O17 2.577258 1_555
Ca3 O11 2.582749 1_555
Ca3 O9 2.691968 1_455
Ca3 O18 2.718505 1_456
Ca4 O2 2.330195 1_555
Ca4 O16 2.353431 1_555
Ca4 O10 2.355046 1_555
Ca4 O4 2.413950 1_555
Ca4 O22 2.577225 1_555
Ca4 O12 2.582765 1_555
Ca4 O15 2.691970 1_555
Ca4 O20 2.718582 1_555
Ca5 O3 2.330223 1_555
Ca5 O17 2.353522 1_555
Ca5 O11 2.355023 1_555
Ca5 O5 2.413920 1_555
Ca5 O23 2.577178 1_555
Ca5 O13 2.582749 1_555
Ca5 O14 2.691902 1_556
Ca5 O21 2.718612 1_555
Ca6 O0 2.330268 1_645
Ca6 O18 2.353347 1_545
Ca6 O8 2.355348 1_545
Ca6 O6 2.414360 1_655
Ca6 O20 2.576195 1_555
Ca6 O14 2.581836 1_555
Ca6 O12 2.691242 1_655
Ca6 O23 2.717718 1_654
Ca7 O1 2.330188 1_645
Ca7 O19 2.353327 1_545
Ca7 O9 2.355269 1_545
Ca7 O7 2.414294 1_655
Ca7 O21 2.576127 1_555
Ca7 O15 2.581904 1_555
Ca7 O13 2.691377 1_655
Ca7 O22 2.717580 1_655
Cr0 O7 1.995241 1_555
Cr0 O3 1.996184 1_455
Cr0 O9 2.000707 1_455
Cr0 O13 2.000905 1_555
Cr0 O17 2.004768 1_555
Cr0 O21 2.005101 1_455
Cr1 O1 1.995229 1_545
Cr1 O4 1.996168 1_555
Cr1 O15 2.000693 1_555
Cr1 O10 2.000906 1_545
Cr1 O22 2.004783 1_555
Cr1 O19 2.005097 1_545
Cr2 O6 1.995288 1_555
Cr2 O2 1.996364 1_455
Cr2 O8 2.000712 1_455
Cr2 O12 2.000921 1_555
Cr2 O16 2.004786 1_555
Cr2 O20 2.005081 1_455
Cr3 O0 1.995305 1_545
Cr3 O5 1.996358 1_554
Cr3 O14 2.000685 1_555
Cr3 O11 2.000918 1_544
Cr3 O23 2.004799 1_554
Cr3 O18 2.005052 1_545
O0 Sb2 1.979869 1_565
O1 Sb3 1.980011 1_565
O2 Sb1 1.979220 1_555
O3 Sb0 1.979408 1_656
O4 Sb2 1.979403 1_555
O5 Sb3 1.979216 1_555
O6 Sb0 1.979860 1_555
O7 Sb1 1.980013 1_455
O8 Sb2 1.986319 1_565
O9 Sb3 1.986350 1_565
O10 Sb1 1.986070 1_455
O11 Sb0 1.986079 1_556
O12 Sb2 1.986117 1_555
O13 Sb3 1.986064 1_555
O14 Sb0 1.986329 1_655
O15 Sb1 1.986361 1_555
O16 Sb2 1.984530 1_565
O17 Sb3 1.984535 1_565
O18 Sb0 1.984486 1_655
O19 Sb1 1.984516 1_555
O20 Sb2 1.984534 1_555
O21 Sb3 1.984521 1_555
O22 Sb1 1.984549 1_455
O23 Sb0 1.984559 1_556
