# generated using pymatgen
data_Cd2Mo3O8
_symmetry_space_group_name_H-M   'P 1'
_cell_length_a   6.40788818
_cell_length_b   6.40788818
_cell_length_c   10.34498700
_cell_angle_alpha   90.00000000
_cell_angle_beta   90.00000000
_cell_angle_gamma   120.00000185
_symmetry_Int_Tables_number   1
_chemical_formula_structural   Cd2Mo3O8
_chemical_formula_sum   'Cd4 Mo6 O16'
_cell_volume   367.86665377
_cell_formula_units_Z   2
loop_
 _symmetry_equiv_pos_site_id
 _symmetry_equiv_pos_as_xyz
  1  'x, y, z'
loop_
 _atom_site_type_symbol
 _atom_site_label
 _atom_site_symmetry_multiplicity
 _atom_site_fract_x
 _atom_site_fract_y
 _atom_site_fract_z
 _atom_site_occupancy
  Cd  Cd0  1  0.66666700  0.33333300  0.96083100  1
  Cd  Cd1  1  0.33333300  0.66666700  0.46083100  1
  Cd  Cd2  1  0.66666700  0.33333300  0.35254000  1
  Cd  Cd3  1  0.33333300  0.66666700  0.85254000  1
  Mo  Mo0  1  0.83663400  0.67326700  0.64129900  1
  Mo  Mo1  1  0.83663400  0.16336600  0.64129900  1
  Mo  Mo2  1  0.16336600  0.32673300  0.14129900  1
  Mo  Mo3  1  0.32673300  0.16336600  0.64129900  1
  Mo  Mo4  1  0.16336600  0.83663400  0.14129900  1
  Mo  Mo5  1  0.67326700  0.83663400  0.14129900  1
  O  O0  1  0.52301700  0.04603500  0.52968100  1
  O  O1  1  0.52301700  0.47698300  0.52968100  1
  O  O2  1  0.47698300  0.95396500  0.02968100  1
  O  O3  1  0.95396500  0.47698300  0.52968100  1
  O  O4  1  0.47698300  0.52301700  0.02968100  1
  O  O5  1  0.04603500  0.52301700  0.02968100  1
  O  O6  1  0.15947600  0.31895200  0.73227700  1
  O  O7  1  0.15947600  0.84052400  0.73227700  1
  O  O8  1  0.84052400  0.68104800  0.23227700  1
  O  O9  1  0.68104800  0.84052400  0.73227700  1
  O  O10  1  0.84052400  0.15947600  0.23227700  1
  O  O11  1  0.31895200  0.15947600  0.23227700  1
  O  O12  1  0.00000000  0.00000000  0.03828400  1
  O  O13  1  0.00000000  0.00000000  0.53828400  1
  O  O14  1  0.66666700  0.33333300  0.74717400  1
  O  O15  1  0.33333300  0.66666700  0.24717400  1
loop_
_geom_bond_atom_site_label_1
_geom_bond_atom_site_label_2
_geom_bond_distance
_geom_bond_site_symmetry_2
Cd0 O14 2.210279 1_555
Cd0 O5 2.222484 1_656
Cd0 O2 2.222484 1_546
Cd0 O4 2.222484 1_556
Cd1 O15 2.210279 1_555
Cd1 O3 2.222484 1_455
Cd1 O0 2.222484 1_565
Cd1 O1 2.222484 1_555
Cd2 O10 2.295909 1_555
Cd2 O8 2.295913 1_555
Cd2 O11 2.295913 1_555
Cd2 O3 2.428996 1_555
Cd2 O0 2.428996 1_555
Cd2 O1 2.429003 1_555
Cd3 O7 2.295909 1_555
Cd3 O6 2.295913 1_555
Cd3 O9 2.295913 1_555
Cd3 O2 2.428996 1_556
Cd3 O5 2.428996 1_556
Cd3 O4 2.429003 1_556
Mo0 O7 2.024090 1_655
Mo0 O9 2.024095 1_555
Mo0 O13 2.103159 1_665
Mo0 O3 2.103851 1_555
Mo0 O1 2.103860 1_555
Mo0 O14 2.181339 1_555
Mo1 O6 2.024090 1_655
Mo1 O9 2.024090 1_545
Mo1 O13 2.103154 1_655
Mo1 O0 2.103861 1_555
Mo1 O3 2.103861 1_555
Mo1 O14 2.181339 1_555
Mo2 O10 2.024090 1_455
Mo2 O11 2.024095 1_555
Mo2 O12 2.103159 1_555
Mo2 O5 2.103851 1_555
Mo2 O4 2.103860 1_555
Mo2 O15 2.181339 1_555
Mo3 O7 2.024090 1_545
Mo3 O6 2.024095 1_555
Mo3 O13 2.103159 1_555
Mo3 O0 2.103851 1_555
Mo3 O1 2.103860 1_555
Mo3 O14 2.181339 1_555
Mo4 O8 2.024090 1_455
Mo4 O11 2.024090 1_565
Mo4 O12 2.103154 1_565
Mo4 O2 2.103861 1_555
Mo4 O5 2.103861 1_555
Mo4 O15 2.181339 1_555
Mo5 O10 2.024090 1_565
Mo5 O8 2.024095 1_555
Mo5 O12 2.103159 1_665
Mo5 O2 2.103851 1_555
Mo5 O4 2.103860 1_555
Mo5 O15 2.181339 1_555
