# generated using pymatgen
data_Pr2Sn3
_symmetry_space_group_name_H-M   'P 1'
_cell_length_a   6.49028116
_cell_length_b   8.61401801
_cell_length_c   11.26857417
_cell_angle_alpha   107.49459808
_cell_angle_beta   96.83166991
_cell_angle_gamma   100.07846078
_symmetry_Int_Tables_number   1
_chemical_formula_structural   Pr2Sn3
_chemical_formula_sum   'Pr8 Sn12'
_cell_volume   581.62753800
_cell_formula_units_Z   4
loop_
 _symmetry_equiv_pos_site_id
 _symmetry_equiv_pos_as_xyz
  1  'x, y, z'
loop_
 _atom_site_type_symbol
 _atom_site_label
 _atom_site_symmetry_multiplicity
 _atom_site_fract_x
 _atom_site_fract_y
 _atom_site_fract_z
 _atom_site_occupancy
  Pr  Pr0  1  0.33043934  0.03484800  0.74519262  1
  Pr  Pr1  1  0.66956162  0.96514376  0.25479791  1
  Pr  Pr2  1  0.95914505  0.25368642  0.05441040  1
  Pr  Pr3  1  0.04082721  0.74626227  0.94549876  1
  Pr  Pr4  1  0.55621268  0.43066530  0.33560878  1
  Pr  Pr5  1  0.44378988  0.56933658  0.66439856  1
  Pr  Pr6  1  0.12849039  0.75056492  0.38061658  1
  Pr  Pr7  1  0.87151125  0.24944562  0.61942051  1
  Sn  Sn0  1  0.04784424  0.35151881  0.38145726  1
  Sn  Sn1  1  0.95218421  0.64848884  0.61862397  1
  Sn  Sn2  1  0.35198872  0.16482540  0.49703448  1
  Sn  Sn3  1  0.64801932  0.83522860  0.50303373  1
  Sn  Sn4  1  0.43806767  0.16535732  0.05296871  1
  Sn  Sn5  1  0.56192841  0.83465038  0.94700064  1
  Sn  Sn6  1  0.32842061  0.60025929  0.13631058  1
  Sn  Sn7  1  0.67154389  0.39973646  0.86365842  1
  Sn  Sn8  1  0.22467576  0.40685738  0.86499288  1
  Sn  Sn9  1  0.77535194  0.59313689  0.13498011  1
  Sn  Sn10  1  0.17910461  0.04211583  0.22355671  1
  Sn  Sn11  1  0.82089221  0.95787293  0.77643839  1
loop_
_geom_bond_atom_site_label_1
_geom_bond_atom_site_label_2
_geom_bond_distance
_geom_bond_site_symmetry_2
Pr0 Sn4 3.253427 1_556
Pr0 Sn7 3.301731 1_555
Pr0 Sn8 3.309355 1_555
Pr0 Sn2 3.318668 1_555
Pr0 Sn11 3.339233 1_445
Pr0 Sn11 3.362838 1_545
Pr0 Sn1 3.548370 1_445
Pr0 Sn5 3.585318 1_545
Pr0 Sn3 3.795916 1_545
Pr1 Sn5 3.253653 1_554
Pr1 Sn6 3.301824 1_555
Pr1 Sn9 3.309438 1_555
Pr1 Sn3 3.319183 1_555
Pr1 Sn10 3.339191 1_665
Pr1 Sn10 3.362851 1_565
Pr1 Sn0 3.548590 1_665
Pr1 Sn4 3.585608 1_565
Pr1 Sn2 3.796628 1_565
Pr2 Sn9 3.267951 1_555
Pr2 Sn6 3.289601 1_655
Pr2 Sn11 3.292725 1_544
Pr2 Sn8 3.322548 1_654
Pr2 Sn4 3.327658 1_655
Pr2 Sn4 3.331004 1_555
Pr2 Sn7 3.343740 1_554
Pr2 Sn10 3.368111 1_655
Pr2 Sn0 3.475861 1_655
Pr2 Sn5 3.809777 1_544
Pr3 Sn8 3.267770 1_555
Pr3 Sn7 3.289399 1_455
Pr3 Sn10 3.293545 1_566
Pr3 Sn9 3.322755 1_456
Pr3 Sn5 3.327738 1_455
Pr3 Sn5 3.331054 1_555
Pr3 Sn6 3.343907 1_556
Pr3 Sn11 3.367653 1_455
Pr3 Sn1 3.474039 1_455
Pr3 Sn4 3.810191 1_566
Pr4 Sn4 3.222454 1_555
Pr4 Sn9 3.326172 1_555
Pr4 Sn3 3.333454 1_555
Pr4 Sn6 3.361871 1_555
Pr4 Sn0 3.383512 1_555
Pr4 Sn0 3.390290 1_655
Pr4 Sn2 3.510750 1_555
Pr4 Sn10 3.555812 1_555
Pr4 Sn1 3.613982 1_555
Pr5 Sn5 3.222153 1_555
Pr5 Sn8 3.325805 1_555
Pr5 Sn2 3.332920 1_555
Pr5 Sn7 3.361478 1_555
Pr5 Sn1 3.383403 1_555
Pr5 Sn1 3.390066 1_455
Pr5 Sn3 3.510574 1_555
Pr5 Sn11 3.555715 1_555
Pr5 Sn0 3.613354 1_555
Pr6 Sn9 3.146404 1_455
Pr6 Sn6 3.199042 1_555
Pr6 Sn1 3.327384 1_455
Pr6 Sn3 3.351463 1_555
Pr6 Sn2 3.388216 1_565
Pr6 Sn0 3.388327 1_555
Pr6 Sn10 3.474110 1_565
Pr6 Sn3 3.657004 1_455
Pr7 Sn8 3.146012 1_655
Pr7 Sn7 3.198550 1_555
Pr7 Sn0 3.326981 1_655
Pr7 Sn2 3.351377 1_555
Pr7 Sn3 3.387878 1_545
Pr7 Sn1 3.388137 1_555
Pr7 Sn11 3.473923 1_545
Pr7 Sn2 3.656807 1_655
Sn0 Sn10 3.049449 1_555
Sn0 Sn2 3.152423 1_555
Sn0 Sn1 3.303334 1_455
Sn1 Sn11 3.049087 1_555
Sn1 Sn3 3.152881 1_555
Sn4 Sn5 3.028531 1_544
Sn6 Sn9 2.913793 1_555
Sn6 Sn8 2.937955 1_554
Sn7 Sn8 2.913385 1_555
Sn7 Sn9 2.937993 1_556
Sn10 Sn2 2.945675 1_555
Sn10 Sn4 3.003026 1_555
Sn11 Sn3 2.944938 1_555
Sn11 Sn5 3.002720 1_555
