# generated using pymatgen
data_DyFe3
_symmetry_space_group_name_H-M   'P 1'
_cell_length_a   5.16402889
_cell_length_b   5.16393907
_cell_length_c   8.63232420
_cell_angle_alpha   72.57705666
_cell_angle_beta   72.59584581
_cell_angle_gamma   59.99941912
_symmetry_Int_Tables_number   1
_chemical_formula_structural   DyFe3
_chemical_formula_sum   'Dy3 Fe9'
_cell_volume   187.07324327
_cell_formula_units_Z   3
loop_
 _symmetry_equiv_pos_site_id
 _symmetry_equiv_pos_as_xyz
  1  'x, y, z'
loop_
 _atom_site_type_symbol
 _atom_site_label
 _atom_site_symmetry_multiplicity
 _atom_site_fract_x
 _atom_site_fract_y
 _atom_site_fract_z
 _atom_site_occupancy
  Dy  Dy0  1  0.14212978  0.14209926  0.57364118  1
  Dy  Dy1  1  0.85788704  0.85791838  0.42630754  1
  Dy  Dy2  1  -0.00000718  -0.00000824  0.00002259  1
  Fe  Fe0  1  0.08255515  0.57958951  0.75839931  1
  Fe  Fe1  1  0.57945603  0.57958951  0.75839931  1
  Fe  Fe2  1  0.57950934  0.08258397  0.75839735  1
  Fe  Fe3  1  0.91744403  0.42041445  0.24159264  1
  Fe  Fe4  1  0.42054888  0.42041445  0.24159264  1
  Fe  Fe5  1  0.42049485  0.91741515  0.24159514  1
  Fe  Fe6  1  0.33278038  0.33277544  0.00166279  1
  Fe  Fe7  1  0.66717850  0.66718314  0.99845786  1
  Fe  Fe8  1  0.50002218  0.50002397  0.49993166  1
loop_
_geom_bond_atom_site_label_1
_geom_bond_atom_site_label_2
_geom_bond_distance
_geom_bond_site_symmetry_2
Dy0 Fe1 2.983588 1_545
Dy0 Fe0 2.983588 1_545
Dy0 Fe2 2.984423 1_555
Dy0 Fe2 2.984423 1_455
Dy0 Fe1 2.985189 1_455
Dy0 Fe0 2.985189 1_555
Dy0 Fe8 3.040571 1_455
Dy0 Fe8 3.040571 1_555
Dy0 Fe8 3.040718 1_545
Dy0 Fe3 3.079411 1_455
Dy0 Fe4 3.079411 1_555
Dy0 Fe5 3.080136 1_545
Dy1 Fe4 2.983408 1_565
Dy1 Fe3 2.983408 1_565
Dy1 Fe5 2.984245 1_555
Dy1 Fe5 2.984245 1_655
Dy1 Fe4 2.985017 1_655
Dy1 Fe3 2.985017 1_555
Dy1 Fe8 3.040431 1_655
Dy1 Fe8 3.040431 1_555
Dy1 Fe8 3.040590 1_565
Dy1 Fe0 3.079710 1_655
Dy1 Fe1 3.079710 1_555
Dy1 Fe2 3.080437 1_565
Dy2 Fe7 2.981420 1_454
Dy2 Fe6 2.981422 1_545
Dy2 Fe7 2.981454 1_544
Dy2 Fe6 2.981460 1_555
Dy2 Fe7 2.981463 1_444
Dy2 Fe6 2.981464 1_455
Dy2 Fe4 3.239490 1_545
Dy2 Fe3 3.239490 1_445
Dy2 Fe1 3.239753 1_454
Dy2 Fe0 3.239753 1_554
Dy2 Fe5 3.239784 1_545
Dy2 Fe5 3.239784 1_445
Dy2 Fe4 3.239987 1_455
Dy2 Fe3 3.239987 1_455
Dy2 Fe2 3.240042 1_454
Dy2 Fe2 3.240042 1_554
Dy2 Fe1 3.240245 1_544
Dy2 Fe0 3.240245 1_544
Fe0 Fe7 2.455996 1_455
Fe0 Fe6 2.465234 1_556
Fe0 Fe8 2.565200 1_555
Fe0 Fe1 2.566011 1_555
Fe0 Fe2 2.566374 1_555
Fe0 Fe2 2.597565 1_465
Fe0 Fe1 2.598018 1_455
Fe1 Fe7 2.455991 1_555
Fe1 Fe6 2.465237 1_556
Fe1 Fe8 2.565200 1_555
Fe1 Fe2 2.566374 1_555
Fe1 Fe2 2.597565 1_565
Fe2 Fe7 2.455367 1_545
Fe2 Fe6 2.465830 1_556
Fe2 Fe8 2.564402 1_555
Fe3 Fe6 2.455178 1_655
Fe3 Fe7 2.464394 1_554
Fe3 Fe8 2.564344 1_555
Fe3 Fe4 2.565981 1_555
Fe3 Fe5 2.566348 1_555
Fe3 Fe5 2.597591 1_645
Fe3 Fe4 2.598048 1_655
Fe4 Fe6 2.455181 1_555
Fe4 Fe7 2.464389 1_554
Fe4 Fe8 2.564344 1_555
Fe4 Fe5 2.566348 1_555
Fe4 Fe5 2.597591 1_545
Fe5 Fe6 2.454551 1_565
Fe5 Fe7 2.464995 1_554
Fe5 Fe8 2.563533 1_555
