# generated using pymatgen
data_Ba2Cu(SBr)2
_symmetry_space_group_name_H-M   'P 1'
_cell_length_a   5.07855223
_cell_length_b   5.07854586
_cell_length_c   8.50647550
_cell_angle_alpha   107.40716874
_cell_angle_beta   107.40733605
_cell_angle_gamma   89.99529441
_symmetry_Int_Tables_number   1
_chemical_formula_structural   Ba2Cu(SBr)2
_chemical_formula_sum   'Ba2 Cu1 S2 Br2'
_cell_volume   198.79509554
_cell_formula_units_Z   1
loop_
 _symmetry_equiv_pos_site_id
 _symmetry_equiv_pos_as_xyz
  1  'x, y, z'
loop_
 _atom_site_type_symbol
 _atom_site_label
 _atom_site_symmetry_multiplicity
 _atom_site_fract_x
 _atom_site_fract_y
 _atom_site_fract_z
 _atom_site_occupancy
  Ba  Ba0  1  0.65000000  0.65000100  0.30001800  1
  Ba  Ba1  1  0.35000000  0.34999900  0.69998200  1
  Cu  Cu0  1  0.00000000  0.00000000  0.00000000  1
  S  S0  1  0.84420600  0.84420600  0.68809700  1
  S  S1  1  0.15579400  0.15579400  0.31190300  1
  Br  Br0  1  0.50000000  0.00000000  0.00000000  1
  Br  Br1  1  0.00000000  0.50000000  0.00000000  1
loop_
_geom_bond_atom_site_label_1
_geom_bond_atom_site_label_2
_geom_bond_distance
_geom_bond_site_symmetry_2
Ba0 S0 2.991208 1_555
Ba0 Br1 3.433223 1_555
Ba0 Br0 3.433229 1_555
Ba0 Br0 3.435648 1_565
Ba0 Br1 3.435659 1_655
Ba0 S1 3.591233 1_665
Ba0 S1 3.592094 1_565
Ba0 S1 3.592101 1_655
Ba0 S1 3.593551 1_555
Ba1 S1 2.991208 1_555
Ba1 Br1 3.433223 1_656
Ba1 Br0 3.433229 1_566
Ba1 Br0 3.435648 1_556
Ba1 Br1 3.435659 1_556
Ba1 S0 3.591233 1_445
Ba1 S0 3.592094 1_545
Ba1 S0 3.592101 1_455
Ba1 S0 3.593551 1_555
Cu0 S1 2.404066 1_555
Cu0 S0 2.404066 1_444
Br0 Cu0 2.539276 1_555
Br0 Cu0 2.539276 1_655
Br1 Cu0 2.539273 1_565
Br1 Cu0 2.539273 1_555
