# generated using pymatgen
data_Na15Y2C9SClO30F
_symmetry_space_group_name_H-M   'P 1'
_cell_length_a   8.90181171
_cell_length_b   8.90181171
_cell_length_c   10.82982700
_cell_angle_alpha   90.00000000
_cell_angle_beta   90.00000000
_cell_angle_gamma   119.99999786
_symmetry_Int_Tables_number   1
_chemical_formula_structural   Na15Y2C9SClO30F
_chemical_formula_sum   'Na15 Y2 C9 S1 Cl1 O30 F1'
_cell_volume   743.20559114
_cell_formula_units_Z   1
loop_
 _symmetry_equiv_pos_site_id
 _symmetry_equiv_pos_as_xyz
  1  'x, y, z'
loop_
 _atom_site_type_symbol
 _atom_site_label
 _atom_site_symmetry_multiplicity
 _atom_site_fract_x
 _atom_site_fract_y
 _atom_site_fract_z
 _atom_site_occupancy
  Na  Na0  1  0.33333300  0.66666700  0.80088400  1
  Na  Na1  1  0.33333300  0.66666700  0.20041800  1
  Na  Na2  1  0.00000000  0.00000000  0.49978600  1
  Na  Na3  1  0.90544300  0.55967900  0.73373100  1
  Na  Na4  1  0.65423600  0.09455700  0.73373100  1
  Na  Na5  1  0.44032100  0.34576400  0.73373100  1
  Na  Na6  1  0.91221900  0.56310600  0.25836900  1
  Na  Na7  1  0.65088700  0.08778100  0.25836900  1
  Na  Na8  1  0.43689400  0.34911300  0.25836900  1
  Na  Na9  1  0.12774500  0.68189600  0.50090200  1
  Na  Na10  1  0.55415000  0.87225500  0.50090200  1
  Na  Na11  1  0.31810400  0.44585000  0.50090200  1
  Na  Na12  1  0.97578700  0.35868200  0.99792800  1
  Na  Na13  1  0.38289500  0.02421300  0.99792800  1
  Na  Na14  1  0.64131800  0.61710500  0.99792800  1
  Y  Y0  1  0.00000000  0.00000000  0.82220000  1
  Y  Y1  1  0.00000000  0.00000000  0.17687500  1
  C  C0  1  0.25039900  0.93436200  0.29914700  1
  C  C1  1  0.68396200  0.74960100  0.29914700  1
  C  C2  1  0.06563800  0.31603800  0.29914700  1
  C  C3  1  0.24594700  0.92993200  0.70130100  1
  C  C4  1  0.68398600  0.75405300  0.70130100  1
  C  C5  1  0.07006800  0.31601400  0.70130100  1
  C  C6  1  0.64351200  0.92831100  0.00007500  1
  C  C7  1  0.28479800  0.35648800  0.00007500  1
  C  C8  1  0.07168900  0.71520200  0.00007500  1
  S  S0  1  0.66666700  0.33333300  0.45559400  1
  Cl  Cl0  1  0.66666700  0.33333300  0.05078500  1
  O  O0  1  0.80992500  0.97109300  0.00126100  1
  O  O1  1  0.16116700  0.19007500  0.00126100  1
  O  O2  1  0.02890700  0.83883300  0.00126100  1
  O  O3  1  0.49042200  0.30284400  0.48496000  1
  O  O4  1  0.81242200  0.50957800  0.48496000  1
  O  O5  1  0.69715600  0.18757800  0.48496000  1
  O  O6  1  0.75368500  0.70584600  0.20964900  1
  O  O7  1  0.95216100  0.24631500  0.20964900  1
  O  O8  1  0.29415400  0.04783900  0.20964900  1
  O  O9  1  0.75299000  0.71503900  0.79388800  1
  O  O10  1  0.96204900  0.24701000  0.79388800  1
  O  O11  1  0.28496100  0.03795100  0.79388800  1
  O  O12  1  0.33943000  0.43843100  0.10278900  1
  O  O13  1  0.09900100  0.66057000  0.10278900  1
  O  O14  1  0.56156900  0.90099900  0.10278900  1
  O  O15  1  0.34585800  0.43357300  0.89657700  1
  O  O16  1  0.08771500  0.65414200  0.89657700  1
  O  O17  1  0.56642700  0.91228500  0.89657700  1
  O  O18  1  0.53473400  0.64341700  0.34504300  1
  O  O19  1  0.10868300  0.46526600  0.34504300  1
  O  O20  1  0.35658300  0.89131700  0.34504300  1
  O  O21  1  0.53496400  0.64692500  0.65573400  1
  O  O22  1  0.11196200  0.46503600  0.65573400  1
  O  O23  1  0.35307500  0.88803800  0.65573400  1
  O  O24  1  0.77424900  0.91054900  0.33858100  1
  O  O25  1  0.13630000  0.22575100  0.33858100  1
  O  O26  1  0.08945100  0.86370000  0.33858100  1
  O  O27  1  0.77560500  0.91327300  0.65802100  1
  O  O28  1  0.13766800  0.22439500  0.65802100  1
  O  O29  1  0.08672700  0.86233200  0.65802100  1
  F  F0  1  0.66666700  0.33333300  0.70629000  1
loop_
_geom_bond_atom_site_label_1
_geom_bond_atom_site_label_2
_geom_bond_distance
_geom_bond_site_symmetry_2
Na0 O16 2.371327 1_555
Na0 O17 2.371331 1_555
Na0 O15 2.371335 1_555
Na0 O23 2.457412 1_555
Na0 O22 2.457418 1_555
Na0 O21 2.457425 1_555
Na1 O13 2.314937 1_555
Na1 O14 2.314941 1_555
Na1 O12 2.314945 1_555
Na1 O20 2.466028 1_555
Na1 O19 2.466031 1_555
Na1 O18 2.466035 1_555
Na2 O29 2.445527 1_545
Na2 O27 2.445527 1_445
Na2 O28 2.445527 1_555
Na2 O26 2.473909 1_545
Na2 O24 2.473909 1_445
Na2 O25 2.473909 1_555
Na3 O16 2.255137 1_655
Na3 O9 2.460831 1_555
Na3 O29 2.487422 1_655
Na3 O22 2.520284 1_655
Na3 O4 2.788137 1_555
Na4 O17 2.255137 1_545
Na4 O10 2.460831 1_555
Na4 O27 2.487422 1_545
Na4 O23 2.520278 1_545
Na4 O5 2.788137 1_555
Na5 O15 2.255137 1_555
Na5 O11 2.460831 1_555
Na5 O28 2.487422 1_555
Na5 O21 2.520276 1_555
Na5 O3 2.788137 1_555
Na6 O13 2.216674 1_655
Na6 O6 2.382795 1_555
Na6 O26 2.486394 1_655
Na6 O19 2.494283 1_655
Na6 O4 2.571921 1_555
Na7 O14 2.216674 1_545
Na7 O7 2.382795 1_555
Na7 O24 2.486394 1_545
Na7 O20 2.494283 1_545
Na7 O5 2.571921 1_555
Na8 O12 2.216674 1_555
Na8 O8 2.382795 1_555
Na8 O25 2.486394 1_555
Na8 O18 2.494283 1_555
Na8 O3 2.571921 1_555
Na9 O4 2.440500 1_455
Na9 O29 2.488986 1_555
Na9 O19 2.503875 1_555
Na9 O22 2.507352 1_555
Na9 O26 2.525332 1_555
Na9 O23 2.553752 1_555
Na9 O20 2.583899 1_555
Na10 O5 2.440499 1_565
Na10 O27 2.488993 1_555
Na10 O20 2.503868 1_555
Na10 O23 2.507339 1_555
Na10 O24 2.525338 1_555
Na10 O21 2.553757 1_555
Na10 O18 2.583902 1_555
Na11 O3 2.440507 1_555
Na11 O28 2.488990 1_555
Na11 O18 2.503872 1_555
Na11 O21 2.507346 1_555
Na11 O25 2.525336 1_555
Na11 O22 2.553744 1_555
Na11 O19 2.583895 1_555
Na12 O10 2.400925 1_555
Na12 O7 2.468157 1_556
Na12 O16 2.548433 1_655
Na12 O13 2.601340 1_656
Na12 O1 2.730214 1_656
Na12 O0 2.998545 1_546
Na13 O11 2.400925 1_555
Na13 O8 2.468157 1_556
Na13 O17 2.548433 1_545
Na13 O14 2.601340 1_546
Na13 O2 2.730222 1_546
Na13 O1 2.998552 1_556
Na14 O9 2.400925 1_555
Na14 O6 2.468157 1_556
Na14 O15 2.548433 1_555
Na14 O12 2.601340 1_556
Na14 O0 2.730222 1_556
Na14 O2 2.998545 1_656
C0 O20 1.284341 1_555
C0 O8 1.310764 1_565
C0 O26 1.315122 1_555
C1 O18 1.284335 1_555
C1 O6 1.310770 1_555
C1 O24 1.315123 1_555
C2 O19 1.284333 1_555
C2 O7 1.310765 1_455
C2 O25 1.315130 1_555
C3 O23 1.283613 1_555
C3 O11 1.310223 1_565
C3 O29 1.318248 1_555
C4 O21 1.283613 1_555
C4 O9 1.310217 1_555
C4 O27 1.318247 1_555
C5 O22 1.283613 1_555
C5 O10 1.310222 1_455
C5 O28 1.318240 1_555
C6 O17 1.284392 1_554
C6 O14 1.285001 1_555
C6 O0 1.332485 1_555
C6 Na14 2.760682 1_554
C7 O15 1.284394 1_554
C7 O12 1.285001 1_555
C7 O1 1.332485 1_555
C7 Na12 2.760673 1_454
C8 O16 1.284397 1_554
C8 O13 1.285005 1_555
C8 O2 1.332485 1_555
C8 Na13 2.760677 1_564
Cl0 Na12 2.707337 1_554
Cl0 Na13 2.707340 1_554
Cl0 Na14 2.707345 1_554
Cl0 Na7 3.089434 1_555
Cl0 Na6 3.089437 1_555
Cl0 Na8 3.089441 1_555
O0 Y1 2.472009 1_665
O0 Y0 2.500844 1_664
O1 Y1 2.472007 1_555
O1 Y0 2.500842 1_554
O2 Y1 2.472004 1_565
O2 Y0 2.500838 1_564
O3 S0 1.486755 1_555
O4 S0 1.486752 1_555
O5 S0 1.486746 1_555
O6 Y1 2.459429 1_665
O7 Y1 2.459429 1_655
O8 Y1 2.459429 1_555
O9 Y0 2.405382 1_665
O10 Y0 2.405382 1_655
O11 Y0 2.405382 1_555
O24 Y1 2.477741 1_665
O25 Y1 2.477741 1_555
O26 Y1 2.477741 1_565
O27 Y0 2.491058 1_665
O28 Y0 2.491058 1_555
O29 Y0 2.491058 1_565
F0 Na4 2.093626 1_555
F0 Na3 2.093630 1_555
F0 Na5 2.093635 1_555
