# generated using pymatgen
data_CaTiSb(PO4)3
_symmetry_space_group_name_H-M   'P 1'
_cell_length_a   9.02540054
_cell_length_b   9.02540006
_cell_length_c   9.02540035
_cell_angle_alpha   59.85672116
_cell_angle_beta   59.85672268
_cell_angle_gamma   59.85672739
_symmetry_Int_Tables_number   1
_chemical_formula_structural   CaTiSb(PO4)3
_chemical_formula_sum   'Ca2 Ti2 Sb2 P6 O24'
_cell_volume   518.16739402
_cell_formula_units_Z   2
loop_
 _symmetry_equiv_pos_site_id
 _symmetry_equiv_pos_as_xyz
  1  'x, y, z'
loop_
 _atom_site_type_symbol
 _atom_site_label
 _atom_site_symmetry_multiplicity
 _atom_site_fract_x
 _atom_site_fract_y
 _atom_site_fract_z
 _atom_site_occupancy
  Ca  Ca0  1  0.99710800  0.99710800  0.99710800  1
  Ca  Ca1  1  0.49710800  0.49710800  0.49710800  1
  Ti  Ti0  1  0.15067900  0.15067900  0.15067900  1
  Ti  Ti1  1  0.65067900  0.65067900  0.65067900  1
  Sb  Sb0  1  0.34901000  0.34901000  0.34901000  1
  Sb  Sb1  1  0.84901000  0.84901000  0.84901000  1
  P  P0  1  0.03954700  0.44258800  0.76736900  1
  P  P1  1  0.44258800  0.76736900  0.03954700  1
  P  P2  1  0.76736900  0.03954700  0.44258800  1
  P  P3  1  0.26736900  0.94258800  0.53954700  1
  P  P4  1  0.53954700  0.26736900  0.94258800  1
  P  P5  1  0.94258800  0.53954700  0.26736900  1
  O  O0  1  0.08639000  0.51477900  0.32689000  1
  O  O1  1  0.32689000  0.08639000  0.51477900  1
  O  O2  1  0.04505300  0.26143000  0.93073800  1
  O  O3  1  0.51477900  0.32689000  0.08639000  1
  O  O4  1  0.01477900  0.58639000  0.82689000  1
  O  O5  1  0.22200200  0.42145300  0.61024100  1
  O  O6  1  0.26143000  0.93073800  0.04505300  1
  O  O7  1  0.42145300  0.61024100  0.22200200  1
  O  O8  1  0.21100000  0.00363800  0.37008100  1
  O  O9  1  0.61024100  0.22200200  0.42145300  1
  O  O10  1  0.11024100  0.92145400  0.72200200  1
  O  O11  1  0.37008100  0.21100000  0.00363800  1
  O  O12  1  0.58639000  0.82689000  0.01477900  1
  O  O13  1  0.93073800  0.04505300  0.26143000  1
  O  O14  1  0.43073800  0.76143000  0.54505300  1
  O  O15  1  0.82689000  0.01477900  0.58639000  1
  O  O16  1  0.54505300  0.43073800  0.76143000  1
  O  O17  1  0.72200200  0.11024100  0.92145400  1
  O  O18  1  0.76143000  0.54505300  0.43073800  1
  O  O19  1  0.00363800  0.37008100  0.21100000  1
  O  O20  1  0.50363800  0.71100000  0.87008100  1
  O  O21  1  0.92145400  0.72200200  0.11024100  1
  O  O22  1  0.71100000  0.87008100  0.50363800  1
  O  O23  1  0.87008100  0.50363800  0.71100000  1
loop_
_geom_bond_atom_site_label_1
_geom_bond_atom_site_label_2
_geom_bond_distance
_geom_bond_site_symmetry_2
Ca0 O2 2.361875 1_665
Ca0 O13 2.361875 1_566
Ca0 O6 2.361876 1_656
Ca0 O21 2.475899 1_556
Ca0 O10 2.475899 1_655
Ca0 O17 2.475899 1_565
Ca1 O14 2.361875 1_555
Ca1 O16 2.361875 1_555
Ca1 O18 2.361875 1_555
Ca1 O5 2.475904 1_555
Ca1 O9 2.475904 1_555
Ca1 O7 2.475904 1_555
O0 P5 1.520286 1_455
O0 Sb0 2.123692 1_555
O1 P3 1.520286 1_545
O1 Sb0 2.123691 1_555
O2 P0 1.555826 1_555
O2 Ti0 2.190697 1_556
O3 P4 1.520286 1_554
O3 Sb0 2.123691 1_555
O4 P0 1.520286 1_555
O4 Sb1 2.123692 1_455
O5 P0 1.539492 1_555
O5 Sb0 2.319795 1_555
O6 P1 1.555826 1_555
O6 Ti0 2.190697 1_565
O7 P1 1.539492 1_555
O7 Sb0 2.319795 1_555
O8 P3 1.598550 1_545
O8 Ti0 1.922643 1_555
O9 P2 1.539492 1_555
O9 Sb0 2.319795 1_555
O10 P3 1.539492 1_555
O10 Sb1 2.319800 1_455
O11 P4 1.598550 1_554
O11 Ti0 1.922643 1_555
O12 P1 1.520286 1_555
O12 Sb1 2.123691 1_554
O13 P2 1.555826 1_555
O13 Ti0 2.190697 1_655
O14 P3 1.555826 1_555
O14 Ti1 2.190697 1_555
O15 P2 1.520286 1_555
O15 Sb1 2.123691 1_545
O16 P4 1.555826 1_555
O16 Ti1 2.190697 1_555
O17 P4 1.539492 1_555
O17 Sb1 2.319800 1_545
O18 P5 1.555826 1_555
O18 Ti1 2.190697 1_555
O19 P5 1.598550 1_455
O19 Ti0 1.922643 1_555
O20 P1 1.598550 1_556
O20 Ti1 1.922643 1_555
O21 P5 1.539492 1_555
O21 Sb1 2.319800 1_554
O22 P2 1.598550 1_565
O22 Ti1 1.922643 1_555
O23 P0 1.598550 1_655
O23 Ti1 1.922643 1_555
