# generated using pymatgen
data_Sm2Si5Rh3
_symmetry_space_group_name_H-M   'P 1'
_cell_length_a   8.18067884
_cell_length_b   8.18146818
_cell_length_c   8.18101594
_cell_angle_alpha   138.62848485
_cell_angle_beta   105.61311661
_cell_angle_gamma   88.88086295
_symmetry_Int_Tables_number   1
_chemical_formula_structural   Sm2Si5Rh3
_chemical_formula_sum   'Sm4 Si10 Rh6'
_cell_volume   333.92415407
_cell_formula_units_Z   2
loop_
 _symmetry_equiv_pos_site_id
 _symmetry_equiv_pos_as_xyz
  1  'x, y, z'
loop_
 _atom_site_type_symbol
 _atom_site_label
 _atom_site_symmetry_multiplicity
 _atom_site_fract_x
 _atom_site_fract_y
 _atom_site_fract_z
 _atom_site_occupancy
  Sm  Sm0  1  0.63682424  0.86879578  0.76799945  1
  Sm  Sm1  1  0.36317585  0.13120418  0.23200086  1
  Sm  Sm2  1  0.10062621  0.36872923  0.73195354  1
  Sm  Sm3  1  0.89937407  0.63127042  0.26804655  1
  Si  Si0  1  0.27707710  0.02703276  0.74986365  1
  Si  Si1  1  0.72292319  0.97296718  0.25013653  1
  Si  Si2  1  0.72287196  0.47274881  0.74992101  1
  Si  Si3  1  0.27712826  0.52725090  0.25007929  1
  Si  Si4  1  0.45129798  0.60627112  0.84510828  1
  Si  Si5  1  0.54870263  0.39372900  0.15489258  1
  Si  Si6  1  0.76127430  0.10623475  0.65504309  1
  Si  Si7  1  0.23872531  0.89376488  0.34495650  1
  Si  Si8  1  0.99993795  0.74994114  0.74993005  1
  Si  Si9  1  0.00006199  0.25005866  0.25007011  1
  Rh  Rh0  1  0.24839755  0.63932117  0.60902162  1
  Rh  Rh1  1  0.75160257  0.36067834  0.39097931  1
  Rh  Rh2  1  0.03037975  0.13932858  0.89108357  1
  Rh  Rh3  1  0.96961971  0.86067082  0.10891560  1
  Rh  Rh4  1  0.50004352  0.75009133  0.25007969  1
  Rh  Rh5  1  0.49995687  0.24990893  0.74992068  1
loop_
_geom_bond_atom_site_label_1
_geom_bond_atom_site_label_2
_geom_bond_distance
_geom_bond_site_symmetry_2
Si0 Si7 2.508656 1_545
Si0 Si5 2.508928 1_556
Si0 Sm3 3.201219 1_445
Si0 Sm1 3.203600 1_556
Si0 Sm0 3.203679 1_545
Si0 Sm2 3.203699 1_555
Si1 Si6 2.508654 1_565
Si1 Si4 2.508925 1_554
Si1 Sm2 3.201218 1_665
Si1 Sm0 3.203599 1_554
Si1 Sm1 3.203680 1_565
Si1 Sm3 3.203701 1_555
Si2 Si6 2.508793 1_555
Si2 Si4 2.509028 1_555
Si2 Sm2 3.201525 1_655
Si2 Sm1 3.203082 1_555
Si2 Sm3 3.203422 1_556
Si2 Sm0 3.203788 1_555
Si3 Si7 2.508797 1_555
Si3 Si5 2.509030 1_555
Si3 Sm3 3.201524 1_455
Si3 Sm0 3.203082 1_555
Si3 Sm2 3.203423 1_554
Si3 Sm1 3.203785 1_555
Si4 Sm2 2.991930 1_555
Si4 Sm1 3.112505 1_566
Si4 Sm1 3.112576 1_555
Si4 Sm0 3.160843 1_555
Si5 Sm3 2.991929 1_555
Si5 Sm0 3.112504 1_544
Si5 Sm0 3.112574 1_555
Si5 Sm1 3.160842 1_555
Si6 Sm0 2.990340 1_545
Si6 Sm3 3.112219 1_556
Si6 Sm3 3.112719 1_545
Si6 Sm2 3.159032 1_655
Si7 Sm1 2.990338 1_565
Si7 Sm2 3.112218 1_554
Si7 Sm2 3.112717 1_565
Si7 Sm3 3.159029 1_455
Si8 Sm0 3.114351 1_555
Si8 Sm3 3.114778 1_555
Si8 Sm1 3.115104 1_666
Si8 Sm2 3.115109 1_655
Si9 Sm1 3.114352 1_555
Si9 Sm2 3.114778 1_555
Si9 Sm0 3.115103 1_444
Si9 Sm3 3.115108 1_455
Rh0 Si4 2.366286 1_555
Rh0 Si3 2.416827 1_555
Rh0 Si0 2.417131 1_565
Rh0 Si9 2.428608 1_555
Rh0 Si8 2.429573 1_455
Rh0 Sm0 3.107578 1_555
Rh0 Sm1 3.136681 1_555
Rh0 Sm1 3.136915 1_566
Rh0 Sm3 3.373798 1_455
Rh0 Sm2 3.387409 1_555
Rh1 Si5 2.366288 1_555
Rh1 Si2 2.416821 1_555
Rh1 Si1 2.417125 1_545
Rh1 Si8 2.428608 1_555
Rh1 Si9 2.429574 1_655
Rh1 Sm1 3.107576 1_555
Rh1 Sm0 3.136682 1_555
Rh1 Sm0 3.136918 1_544
Rh1 Sm2 3.373794 1_655
Rh1 Sm3 3.387417 1_555
Rh2 Si6 2.366214 1_455
Rh2 Si0 2.416884 1_555
Rh2 Si3 2.417067 1_556
Rh2 Si9 2.428478 1_556
Rh2 Si8 2.428845 1_445
Rh2 Sm2 3.107981 1_555
Rh2 Sm3 3.136813 1_456
Rh2 Sm3 3.137088 1_445
Rh2 Sm1 3.373296 1_556
Rh2 Sm0 3.386240 1_445
Rh3 Si7 2.366215 1_655
Rh3 Si1 2.416881 1_555
Rh3 Si2 2.417062 1_554
Rh3 Si8 2.428474 1_554
Rh3 Si9 2.428844 1_665
Rh3 Sm3 3.107984 1_555
Rh3 Sm2 3.136815 1_654
Rh3 Sm2 3.137092 1_665
Rh3 Sm0 3.373290 1_554
Rh3 Sm1 3.386242 1_665
Rh4 Si4 2.444632 1_554
Rh4 Si6 2.444735 1_565
Rh4 Si5 2.445257 1_555
Rh4 Si7 2.445371 1_555
Rh4 Si1 2.603376 1_555
Rh4 Si3 2.603707 1_555
Rh4 Sm0 3.385652 1_555
Rh4 Sm1 3.385926 1_565
Rh4 Sm3 3.386817 1_555
Rh4 Sm2 3.387045 1_554
Rh5 Si5 2.444636 1_556
Rh5 Si7 2.444741 1_545
Rh5 Si4 2.445253 1_555
Rh5 Si6 2.445367 1_555
Rh5 Si0 2.603378 1_555
Rh5 Si2 2.603703 1_555
Rh5 Sm1 3.385651 1_555
Rh5 Sm0 3.385928 1_545
Rh5 Sm2 3.386816 1_555
Rh5 Sm3 3.387044 1_556
