# generated using pymatgen
data_CeY4Mg5
_symmetry_space_group_name_H-M   'P 1'
_cell_length_a   3.81005800
_cell_length_b   3.81005800
_cell_length_c   19.11976000
_cell_angle_alpha   90.00000000
_cell_angle_beta   90.00000000
_cell_angle_gamma   90.00000000
_symmetry_Int_Tables_number   1
_chemical_formula_structural   CeY4Mg5
_chemical_formula_sum   'Ce1 Y4 Mg5'
_cell_volume   277.55279837
_cell_formula_units_Z   1
loop_
 _symmetry_equiv_pos_site_id
 _symmetry_equiv_pos_as_xyz
  1  'x, y, z'
loop_
 _atom_site_type_symbol
 _atom_site_label
 _atom_site_symmetry_multiplicity
 _atom_site_fract_x
 _atom_site_fract_y
 _atom_site_fract_z
 _atom_site_occupancy
  Ce  Ce0  1  0.00000000  0.00000000  0.00000000  1
  Y  Y0  1  0.00000000  0.00000000  0.19929300  1
  Y  Y1  1  0.00000000  0.00000000  0.40054100  1
  Y  Y2  1  0.00000000  0.00000000  0.59945900  1
  Y  Y3  1  0.00000000  0.00000000  0.80070800  1
  Mg  Mg0  1  0.50000000  0.50000000  0.10079800  1
  Mg  Mg1  1  0.50000000  0.50000000  0.30023200  1
  Mg  Mg2  1  0.50000000  0.50000000  0.50000000  1
  Mg  Mg3  1  0.50000000  0.50000000  0.69976800  1
  Mg  Mg4  1  0.50000000  0.50000000  0.89920200  1
loop_
_geom_bond_atom_site_label_1
_geom_bond_atom_site_label_2
_geom_bond_distance
_geom_bond_site_symmetry_2
Ce0 Mg0 3.312476 1_455
Ce0 Mg0 3.312476 1_545
Ce0 Mg0 3.312476 1_555
Ce0 Mg0 3.312476 1_445
Ce0 Mg4 3.312476 1_454
Ce0 Mg4 3.312476 1_554
Ce0 Mg4 3.312476 1_544
Ce0 Mg4 3.312476 1_444
Mg0 Y0 3.287053 1_655
Mg0 Y0 3.287053 1_565
Mg0 Y0 3.287053 1_555
Mg0 Y0 3.287053 1_665
Mg1 Y1 3.307046 1_565
Mg1 Y1 3.307046 1_665
Mg1 Y1 3.307046 1_655
Mg1 Y1 3.307046 1_555
Mg1 Y0 3.314046 1_565
Mg1 Y0 3.314046 1_555
Mg1 Y0 3.314046 1_665
Mg1 Y0 3.314046 1_655
Mg2 Y2 3.297647 1_655
Mg2 Y2 3.297647 1_555
Mg2 Y2 3.297647 1_565
Mg2 Y2 3.297647 1_665
Mg2 Y1 3.297647 1_655
Mg2 Y1 3.297647 1_555
Mg2 Y1 3.297647 1_565
Mg2 Y1 3.297647 1_665
Mg3 Y2 3.307046 1_655
Mg3 Y2 3.307046 1_665
Mg3 Y2 3.307046 1_555
Mg3 Y2 3.307046 1_565
Mg3 Y3 3.314057 1_555
Mg3 Y3 3.314057 1_565
Mg3 Y3 3.314057 1_655
Mg3 Y3 3.314057 1_665
Mg4 Y3 3.287042 1_655
Mg4 Y3 3.287042 1_665
Mg4 Y3 3.287042 1_555
Mg4 Y3 3.287042 1_565
