# generated using pymatgen
data_RbFe2Se3
_symmetry_space_group_name_H-M   'P 1'
_cell_length_a   5.45381400
_cell_length_b   7.76531454
_cell_length_c   7.76531454
_cell_angle_alpha   102.84080439
_cell_angle_beta   90.00000000
_cell_angle_gamma   90.00000000
_symmetry_Int_Tables_number   1
_chemical_formula_structural   RbFe2Se3
_chemical_formula_sum   'Rb2 Fe4 Se6'
_cell_volume   320.64109139
_cell_formula_units_Z   2
loop_
 _symmetry_equiv_pos_site_id
 _symmetry_equiv_pos_as_xyz
  1  'x, y, z'
loop_
 _atom_site_type_symbol
 _atom_site_label
 _atom_site_symmetry_multiplicity
 _atom_site_fract_x
 _atom_site_fract_y
 _atom_site_fract_z
 _atom_site_occupancy
  Rb  Rb0  1  0.75000000  0.66568100  0.33431900  1
  Rb  Rb1  1  0.25000000  0.33431900  0.66568100  1
  Fe  Fe0  1  0.00000000  0.13086500  0.13086500  1
  Fe  Fe1  1  0.50000000  0.86913500  0.86913500  1
  Fe  Fe2  1  0.00000000  0.86913500  0.86913500  1
  Fe  Fe3  1  0.50000000  0.13086500  0.13086500  1
  Se  Se0  1  0.25000000  0.38114000  0.15641100  1
  Se  Se1  1  0.75000000  0.61886000  0.84358900  1
  Se  Se2  1  0.25000000  0.87040800  0.12959200  1
  Se  Se3  1  0.75000000  0.12959200  0.87040800  1
  Se  Se4  1  0.25000000  0.84358900  0.61886000  1
  Se  Se5  1  0.75000000  0.15641100  0.38114000  1
loop_
_geom_bond_atom_site_label_1
_geom_bond_atom_site_label_2
_geom_bond_distance
_geom_bond_site_symmetry_2
Rb0 Se0 3.587465 1_555
Rb0 Se0 3.587465 1_655
Rb0 Se4 3.587465 1_555
Rb0 Se4 3.587465 1_655
Rb0 Se2 3.689734 1_555
Rb0 Se2 3.689734 1_655
Rb0 Se1 3.746677 1_554
Rb0 Se5 3.746677 1_565
Rb0 Se5 4.050985 1_555
Rb0 Se1 4.050985 1_555
Rb1 Se5 3.587465 1_455
Rb1 Se1 3.587465 1_555
Rb1 Se5 3.587465 1_555
Rb1 Se1 3.587465 1_455
Rb1 Se3 3.689734 1_455
Rb1 Se3 3.689734 1_555
Rb1 Se4 3.746677 1_545
Rb1 Se0 3.746677 1_556
Rb1 Se0 4.050985 1_555
Rb1 Se4 4.050985 1_555
Fe0 Se0 2.346071 1_555
Fe0 Se5 2.346071 1_455
Fe0 Se2 2.437385 1_545
Fe0 Se3 2.437385 1_454
Fe1 Se4 2.346071 1_555
Fe1 Se1 2.346071 1_555
Fe1 Se3 2.437385 1_565
Fe1 Se2 2.437385 1_556
Fe2 Se4 2.346071 1_555
Fe2 Se1 2.346071 1_455
Fe2 Se3 2.437385 1_465
Fe2 Se2 2.437385 1_556
Fe3 Se0 2.346071 1_555
Fe3 Se5 2.346071 1_555
Fe3 Se2 2.437385 1_545
Fe3 Se3 2.437385 1_554
