# generated using pymatgen
data_Mg(CoO2)4
_symmetry_space_group_name_H-M   'P 1'
_cell_length_a   5.82051553
_cell_length_b   5.82051553
_cell_length_c   5.82051553
_cell_angle_alpha   60.00000000
_cell_angle_beta   60.00000000
_cell_angle_gamma   60.00000000
_symmetry_Int_Tables_number   1
_chemical_formula_structural   Mg(CoO2)4
_chemical_formula_sum   'Mg1 Co4 O8'
_cell_volume   139.43421589
_cell_formula_units_Z   1
loop_
 _symmetry_equiv_pos_site_id
 _symmetry_equiv_pos_as_xyz
  1  'x, y, z'
loop_
 _atom_site_type_symbol
 _atom_site_label
 _atom_site_symmetry_multiplicity
 _atom_site_fract_x
 _atom_site_fract_y
 _atom_site_fract_z
 _atom_site_occupancy
  Mg  Mg0  1  0.25000000  0.25000000  0.25000000  1
  Co  Co0  1  0.62674700  0.62674700  0.11976000  1
  Co  Co1  1  0.62674700  0.11976000  0.62674700  1
  Co  Co2  1  0.11976000  0.62674700  0.62674700  1
  Co  Co3  1  0.62674700  0.62674700  0.62674700  1
  O  O0  1  0.85987700  0.85987700  0.42036900  1
  O  O1  1  0.85987700  0.42036900  0.85987700  1
  O  O2  1  0.42036900  0.85987700  0.85987700  1
  O  O3  1  0.85987700  0.85987700  0.85987700  1
  O  O4  1  0.38922700  0.38922700  0.83232000  1
  O  O5  1  0.38922700  0.83232000  0.38922700  1
  O  O6  1  0.83232000  0.38922700  0.38922700  1
  O  O7  1  0.38922700  0.38922700  0.38922700  1
loop_
_geom_bond_atom_site_label_1
_geom_bond_atom_site_label_2
_geom_bond_distance
_geom_bond_site_symmetry_2
Mg0 O4 1.984995 1_554
Mg0 O5 1.984995 1_545
Mg0 O6 1.984995 1_455
Mg0 O7 1.985000 1_555
Co0 O3 1.925306 1_554
Co0 O2 1.925310 1_554
Co0 O1 1.925310 1_554
Co0 O5 1.963957 1_555
Co0 O6 1.963957 1_555
Co0 O7 1.963957 1_555
Co1 O3 1.925306 1_545
Co1 O2 1.925310 1_545
Co1 O0 1.925310 1_545
Co1 O6 1.963957 1_555
Co1 O4 1.963957 1_555
Co1 O7 1.963957 1_555
Co2 O3 1.925306 1_455
Co2 O0 1.925310 1_455
Co2 O1 1.925310 1_455
Co2 O5 1.963957 1_555
Co2 O4 1.963957 1_555
Co2 O7 1.963957 1_555
Co3 O2 1.925305 1_555
Co3 O1 1.925305 1_555
Co3 O0 1.925305 1_555
Co3 O5 1.963957 1_555
Co3 O6 1.963957 1_555
Co3 O4 1.963957 1_555
