# generated using pymatgen
data_SrMg14V
_symmetry_space_group_name_H-M   'P 1'
_cell_length_a   6.52613476
_cell_length_b   6.52613421
_cell_length_c   10.37031647
_cell_angle_alpha   90.00000000
_cell_angle_beta   90.00000000
_cell_angle_gamma   120.00000281
_symmetry_Int_Tables_number   1
_chemical_formula_structural   SrMg14V
_chemical_formula_sum   'Sr1 Mg14 V1'
_cell_volume   382.50284279
_cell_formula_units_Z   1
loop_
 _symmetry_equiv_pos_site_id
 _symmetry_equiv_pos_as_xyz
  1  'x, y, z'
loop_
 _atom_site_type_symbol
 _atom_site_label
 _atom_site_symmetry_multiplicity
 _atom_site_fract_x
 _atom_site_fract_y
 _atom_site_fract_z
 _atom_site_occupancy
  Sr  Sr0  1  0.16666700  0.33333300  0.62500000  1
  Mg  Mg0  1  0.16474513  0.83237206  0.12500000  1
  Mg  Mg1  1  0.17806892  0.83903396  0.62500000  1
  Mg  Mg2  1  0.66762794  0.33525487  0.12500000  1
  Mg  Mg3  1  0.66096604  0.32193108  0.62500000  1
  Mg  Mg4  1  0.66762794  0.83237206  0.12500000  1
  Mg  Mg5  1  0.66096604  0.83903396  0.62500000  1
  Mg  Mg6  1  0.33453485  0.16546515  0.35877571  1
  Mg  Mg7  1  0.33453485  0.16546515  0.89122429  1
  Mg  Mg8  1  0.33453485  0.66907071  0.35877571  1
  Mg  Mg9  1  0.33453485  0.66907071  0.89122429  1
  Mg  Mg10  1  0.83092929  0.16546515  0.35877571  1
  Mg  Mg11  1  0.83092929  0.16546515  0.89122429  1
  Mg  Mg12  1  0.83333300  0.66666700  0.38195033  1
  Mg  Mg13  1  0.83333300  0.66666700  0.86804967  1
  V  V0  1  0.16666700  0.33333300  0.12500000  1
loop_
_geom_bond_atom_site_label_1
_geom_bond_atom_site_label_2
_geom_bond_distance
_geom_bond_site_symmetry_2
Mg0 Mg9 3.069505 1_554
Mg0 Mg8 3.069505 1_555
Mg0 Mg7 3.069512 1_564
Mg0 Mg6 3.069512 1_565
Mg0 Mg2 3.244253 1_455
Mg0 Mg4 3.244254 1_455
Mg0 Mg12 3.257115 1_455
Mg0 Mg13 3.257115 1_454
Mg0 V0 3.263085 1_555
Mg0 V0 3.263085 1_565
Mg0 Mg2 3.281881 1_565
Mg0 Mg4 3.281881 1_555
Mg1 Mg3 3.151451 1_565
Mg1 Mg5 3.151452 1_555
Mg1 Mg13 3.185766 1_455
Mg1 Mg12 3.185766 1_455
Mg1 Sr0 3.263703 1_555
Mg1 Sr0 3.263703 1_565
Mg1 Mg8 3.320817 1_555
Mg1 Mg9 3.320817 1_555
Mg1 Mg6 3.320823 1_565
Mg1 Mg7 3.320823 1_565
Mg1 Mg3 3.374683 1_455
Mg1 Mg5 3.374683 1_455
Mg2 Mg7 3.069512 1_554
Mg2 Mg6 3.069512 1_555
Mg2 Mg4 3.244253 1_555
Mg2 V0 3.263085 1_655
Mg2 V0 3.263085 1_555
Mg2 Mg4 3.281881 1_545
Mg3 Mg5 3.151451 1_545
Mg3 Sr0 3.263704 1_655
Mg3 Sr0 3.263704 1_555
Mg3 Mg6 3.320823 1_555
Mg3 Mg7 3.320823 1_555
Mg3 Mg5 3.374683 1_555
Mg4 Mg9 3.069512 1_554
Mg4 Mg8 3.069512 1_555
Mg4 V0 3.263085 1_665
Mg4 V0 3.263085 1_555
Mg5 Sr0 3.263703 1_555
Mg5 Sr0 3.263703 1_665
Mg5 Mg8 3.320823 1_555
Mg5 Mg9 3.320823 1_555
Mg6 V0 3.078622 1_555
Mg6 Mg8 3.239537 1_545
Mg6 Mg8 3.286597 1_555
Mg6 Sr0 3.350034 1_555
Mg7 V0 3.078622 1_556
Mg7 Mg9 3.239537 1_545
Mg7 Mg9 3.286597 1_555
Mg7 Sr0 3.350034 1_555
Mg8 V0 3.078629 1_555
Mg8 Sr0 3.350041 1_555
Mg9 V0 3.078629 1_556
Mg9 Sr0 3.350041 1_555
Mg10 Mg2 3.069505 1_555
Mg10 Mg4 3.069512 1_545
Mg10 V0 3.078629 1_655
Mg10 Mg8 3.239537 1_545
Mg10 Mg6 3.239537 1_555
Mg10 Mg12 3.271934 1_555
Mg10 Mg12 3.271934 1_545
Mg10 Mg8 3.286597 1_655
Mg10 Mg6 3.286598 1_655
Mg10 Mg3 3.320817 1_555
Mg10 Mg5 3.320823 1_545
Mg10 Sr0 3.350041 1_655
Mg11 Mg2 3.069505 1_556
Mg11 Mg4 3.069512 1_546
Mg11 V0 3.078629 1_656
Mg11 Mg9 3.239537 1_545
Mg11 Mg7 3.239537 1_555
Mg11 Mg13 3.271934 1_555
Mg11 Mg13 3.271934 1_545
Mg11 Mg9 3.286597 1_655
Mg11 Mg7 3.286598 1_655
Mg11 Mg3 3.320817 1_555
Mg11 Mg5 3.320823 1_545
Mg11 Sr0 3.350041 1_655
Mg12 Mg5 3.185759 1_555
Mg12 Mg3 3.185766 1_555
Mg12 Mg4 3.257109 1_555
Mg12 Mg2 3.257115 1_555
Mg12 Mg6 3.271934 1_555
Mg12 Mg6 3.271934 1_665
Mg12 Mg8 3.271934 1_655
Mg12 Mg8 3.271934 1_555
Mg13 Mg5 3.185759 1_555
Mg13 Mg3 3.185766 1_555
Mg13 Mg4 3.257109 1_556
Mg13 Mg2 3.257115 1_556
Mg13 Mg7 3.271934 1_555
Mg13 Mg7 3.271934 1_665
Mg13 Mg9 3.271934 1_655
Mg13 Mg9 3.271934 1_555
