# generated using pymatgen
data_NdCdAu
_symmetry_space_group_name_H-M   'P 1'
_cell_length_a   7.80918000
_cell_length_b   7.80918000
_cell_length_c   4.10930271
_cell_angle_alpha   90.00000000
_cell_angle_beta   90.00000000
_cell_angle_gamma   119.99999558
_symmetry_Int_Tables_number   1
_chemical_formula_structural   NdCdAu
_chemical_formula_sum   'Nd3 Cd3 Au3'
_cell_volume   217.02494361
_cell_formula_units_Z   3
loop_
 _symmetry_equiv_pos_site_id
 _symmetry_equiv_pos_as_xyz
  1  'x, y, z'
loop_
 _atom_site_type_symbol
 _atom_site_label
 _atom_site_symmetry_multiplicity
 _atom_site_fract_x
 _atom_site_fract_y
 _atom_site_fract_z
 _atom_site_occupancy
  Nd  Nd0  1  0.59282374  -0.00000000  0.00000000  1
  Nd  Nd1  1  -0.00000000  0.59282374  -0.00000000  1
  Nd  Nd2  1  0.40717626  0.40717626  0.00000000  1
  Cd  Cd0  1  0.25280535  -0.00000000  0.50000000  1
  Cd  Cd1  1  -0.00000000  0.25280535  0.50000000  1
  Cd  Cd2  1  0.74719465  0.74719465  0.50000000  1
  Au  Au0  1  0.33333300  0.66666700  0.50000000  1
  Au  Au1  1  0.66666700  0.33333300  0.50000000  1
  Au  Au2  1  -0.00000000  -0.00000000  -0.00000000  1
loop_
_geom_bond_atom_site_label_1
_geom_bond_atom_site_label_2
_geom_bond_distance
_geom_bond_site_symmetry_2
Cd0 Nd0 3.357383 1_555
Cd0 Nd0 3.357383 1_556
Cd0 Nd2 3.457202 1_555
Cd0 Nd2 3.457202 1_556
Cd0 Nd1 3.457202 1_545
Cd0 Nd1 3.457202 1_546
Cd1 Nd1 3.357383 1_555
Cd1 Nd1 3.357383 1_556
Cd1 Nd2 3.457202 1_555
Cd1 Nd2 3.457202 1_556
Cd1 Nd0 3.457202 1_455
Cd1 Nd0 3.457202 1_456
Cd2 Nd2 3.357384 1_555
Cd2 Nd2 3.357384 1_556
Cd2 Nd1 3.457202 1_656
Cd2 Nd1 3.457202 1_655
Cd2 Nd0 3.457202 1_566
Cd2 Nd0 3.457202 1_565
Au0 Cd0 2.967880 1_565
Au0 Cd1 2.967885 1_555
Au0 Cd2 2.967888 1_555
Au0 Nd1 3.135118 1_555
Au0 Nd1 3.135118 1_556
Au0 Nd0 3.135120 1_565
Au0 Nd0 3.135120 1_566
Au0 Nd2 3.135124 1_555
Au0 Nd2 3.135124 1_556
Au1 Cd1 2.967880 1_655
Au1 Cd0 2.967885 1_555
Au1 Cd2 2.967888 1_555
Au1 Nd0 3.135118 1_555
Au1 Nd0 3.135118 1_556
Au1 Nd1 3.135120 1_656
Au1 Nd1 3.135120 1_655
Au1 Nd2 3.135124 1_555
Au1 Nd2 3.135124 1_556
Au2 Cd1 2.849398 1_554
Au2 Cd0 2.849398 1_554
Au2 Cd1 2.849398 1_555
Au2 Cd0 2.849398 1_555
Au2 Cd2 2.849398 1_444
Au2 Cd2 2.849398 1_445
Au2 Nd1 3.179713 1_545
Au2 Nd0 3.179713 1_455
Au2 Nd2 3.179713 1_555
