# generated using pymatgen
data_Ba2MgNb6(NO7)2
_symmetry_space_group_name_H-M   'P 1'
_cell_length_a   9.30301269
_cell_length_b   10.72773712
_cell_length_c   4.03180389
_cell_angle_alpha   68.43185436
_cell_angle_beta   89.29256992
_cell_angle_gamma   96.69489577
_symmetry_Int_Tables_number   1
_chemical_formula_structural   Ba2MgNb6(NO7)2
_chemical_formula_sum   'Ba2 Mg1 Nb6 N2 O14'
_cell_volume   370.98519089
_cell_formula_units_Z   1
loop_
 _symmetry_equiv_pos_site_id
 _symmetry_equiv_pos_as_xyz
  1  'x, y, z'
loop_
 _atom_site_type_symbol
 _atom_site_label
 _atom_site_symmetry_multiplicity
 _atom_site_fract_x
 _atom_site_fract_y
 _atom_site_fract_z
 _atom_site_occupancy
  Ba  Ba0  1  0.29048100  0.90577000  0.88834400  1
  Ba  Ba1  1  0.69537600  0.17223100  0.07013900  1
  Mg  Mg0  1  0.88898200  0.91254800  0.78945900  1
  Nb  Nb0  1  0.03109100  0.27029100  0.47657400  1
  Nb  Nb1  1  0.28040300  0.45659000  0.79013200  1
  Nb  Nb2  1  0.39509700  0.26228500  0.48270200  1
  Nb  Nb3  1  0.60873000  0.75207000  0.52749200  1
  Nb  Nb4  1  0.75463600  0.52694200  0.23733800  1
  Nb  Nb5  1  0.97961400  0.69306400  0.56835700  1
  N  N0  1  0.76753000  0.59243200  0.67345700  1
  N  N1  1  0.88937200  0.39486400  0.36503900  1
  O  O0  1  0.07088600  0.87591000  0.44613000  1
  O  O1  1  0.07864100  0.29886500  0.94995600  1
  O  O2  1  0.13749400  0.59734300  0.65213100  1
  O  O3  1  0.23982700  0.42589000  0.32090400  1
  O  O4  1  0.21343100  0.14952200  0.60021200  1
  O  O5  1  0.44041900  0.58342400  0.66496500  1
  O  O6  1  0.40791800  0.28369800  0.96266800  1
  O  O7  1  0.46346800  0.86326900  0.42150800  1
  O  O8  1  0.51121800  0.11711700  0.63039800  1
  O  O9  1  0.62706600  0.72821800  0.03643600  1
  O  O10  1  0.58451400  0.40341100  0.34644800  1
  O  O11  1  0.78062300  0.88686300  0.36072600  1
  O  O12  1  0.93905900  0.71357200  0.05574600  1
  O  O13  1  0.89524700  0.11057800  0.63443700  1
loop_
_geom_bond_atom_site_label_1
_geom_bond_atom_site_label_2
_geom_bond_distance
_geom_bond_site_symmetry_2
Ba0 O4 2.631594 1_565
Ba0 O7 2.637137 1_556
Ba0 O7 2.658495 1_555
Ba0 O8 2.750843 1_565
Ba0 O0 2.795012 1_555
Ba0 O0 2.921959 1_556
Ba1 O8 2.652843 1_554
Ba1 O8 2.659601 1_555
Ba1 O13 2.835665 1_554
Ba1 O13 2.890668 1_555
Ba1 O6 3.026950 1_554
Ba1 O11 3.053769 1_545
Ba1 N1 3.304452 1_554
Ba1 O10 3.324847 1_555
Ba1 O10 3.328399 1_554
Ba1 N1 3.392748 1_555
Mg0 O13 1.975144 1_565
Mg0 O11 2.099644 1_555
Mg0 O12 2.117867 1_556
Mg0 O0 2.330571 1_655
Mg0 O11 2.410046 1_556
Nb0 O13 1.900342 1_455
Nb0 O1 2.065041 1_554
Nb0 O1 2.086073 1_555
Nb0 O4 2.205214 1_555
Nb0 O3 2.322708 1_555
Nb1 O5 1.823837 1_555
Nb1 O2 2.055661 1_555
Nb1 O3 2.064781 1_556
Nb1 O3 2.068025 1_555
Nb1 O6 2.217209 1_555
Nb1 O1 2.286769 1_555
Nb2 O4 1.904266 1_555
Nb2 O8 1.916557 1_555
Nb2 O6 2.023950 1_554
Nb2 O6 2.034171 1_555
Nb2 O10 2.107514 1_555
Nb2 O3 2.316270 1_555
Nb3 O7 1.856668 1_555
Nb3 O11 1.954411 1_555
Nb3 O9 1.984418 1_556
Nb3 O9 2.094908 1_555
Nb3 O5 2.147768 1_555
Nb4 O10 1.876071 1_555
Nb4 O12 2.361875 1_555
Nb4 O9 2.462157 1_555
Nb5 O2 1.853298 1_655
Nb5 O0 1.924070 1_655
Nb5 O12 2.041200 1_555
Nb5 O12 2.090715 1_556
N0 Nb5 2.093847 1_555
N0 Nb4 2.115630 1_556
N0 Nb4 2.119802 1_555
N0 Nb3 2.309121 1_555
N1 Nb0 1.926132 1_655
N1 Nb4 1.933266 1_555
