# generated using pymatgen
data_Rb3Te(PO7)2
_symmetry_space_group_name_H-M   'P 1'
_cell_length_a   7.03530900
_cell_length_b   8.57121400
_cell_length_c   12.54356749
_cell_angle_alpha   88.60766547
_cell_angle_beta   90.00000000
_cell_angle_gamma   90.00000000
_symmetry_Int_Tables_number   1
_chemical_formula_structural   Rb3Te(PO7)2
_chemical_formula_sum   'Rb6 Te2 P4 O28'
_cell_volume   756.16808204
_cell_formula_units_Z   2
loop_
 _symmetry_equiv_pos_site_id
 _symmetry_equiv_pos_as_xyz
  1  'x, y, z'
loop_
 _atom_site_type_symbol
 _atom_site_label
 _atom_site_symmetry_multiplicity
 _atom_site_fract_x
 _atom_site_fract_y
 _atom_site_fract_z
 _atom_site_occupancy
  Rb  Rb0  1  0.50000000  0.50000000  0.50000000  1
  Rb  Rb1  1  0.00000000  0.50000000  0.00000000  1
  Rb  Rb2  1  0.48703300  0.82892800  0.81930800  1
  Rb  Rb3  1  0.98703300  0.17107200  0.68069200  1
  Rb  Rb4  1  0.51296700  0.17107200  0.18069200  1
  Rb  Rb5  1  0.01296700  0.82892800  0.31930800  1
  Te  Te0  1  0.50000000  0.00000000  0.50000000  1
  Te  Te1  1  0.00000000  0.00000000  0.00000000  1
  P  P0  1  0.48234500  0.34682000  0.83476100  1
  P  P1  1  0.98234500  0.65318000  0.66523900  1
  P  P2  1  0.51765500  0.65318000  0.16523900  1
  P  P3  1  0.01765500  0.34682000  0.33476100  1
  O  O0  1  0.00174000  0.81225400  0.60569800  1
  O  O1  1  0.50174000  0.18774600  0.89430200  1
  O  O2  1  0.99826000  0.18774600  0.39430200  1
  O  O3  1  0.49826000  0.81225400  0.10569800  1
  O  O4  1  0.38004700  0.82175900  0.56848000  1
  O  O5  1  0.88004700  0.17824100  0.93152000  1
  O  O6  1  0.61995300  0.17824100  0.43152000  1
  O  O7  1  0.11995300  0.82175900  0.06848000  1
  O  O8  1  0.31384400  0.15647600  0.53859400  1
  O  O9  1  0.81384400  0.84352400  0.96140600  1
  O  O10  1  0.68615600  0.84352400  0.46140600  1
  O  O11  1  0.18615600  0.15647600  0.03859400  1
  O  O12  1  0.40675600  0.94327300  0.36201900  1
  O  O13  1  0.90675600  0.05672700  0.13798100  1
  O  O14  1  0.59324400  0.05672700  0.63798100  1
  O  O15  1  0.09324400  0.94327300  0.86201900  1
  O  O16  1  0.59868800  0.35109700  0.72967200  1
  O  O17  1  0.09868800  0.64890300  0.77032800  1
  O  O18  1  0.40131200  0.64890300  0.27032800  1
  O  O19  1  0.90131200  0.35109700  0.22967200  1
  O  O20  1  0.06381200  0.51127100  0.60731300  1
  O  O21  1  0.56381200  0.48872900  0.89268700  1
  O  O22  1  0.93618800  0.48872900  0.39268700  1
  O  O23  1  0.43618800  0.51127100  0.10731300  1
  O  O24  1  0.26549700  0.35644500  0.81701300  1
  O  O25  1  0.76549700  0.64355500  0.68298700  1
  O  O26  1  0.73450300  0.64355500  0.18298700  1
  O  O27  1  0.23450300  0.35644500  0.31701300  1
loop_
_geom_bond_atom_site_label_1
_geom_bond_atom_site_label_2
_geom_bond_distance
_geom_bond_site_symmetry_2
O0 P1 1.544650 1_455
O0 Rb3 3.239589 1_465
O1 P0 1.544650 1_555
O1 Rb2 3.239589 1_545
O2 P3 1.544650 1_655
O2 Rb5 3.239589 1_645
O3 P2 1.544650 1_555
O3 Rb4 3.239589 1_565
O4 Te0 1.928795 1_565
O4 Rb0 3.028362 1_555
O4 Rb2 3.237092 1_555
O5 Te1 1.928795 1_656
O5 Rb1 3.028362 1_656
O5 Rb3 3.237092 1_555
O6 Te0 1.928795 1_555
O6 Rb0 3.028362 1_555
O6 Rb4 3.237092 1_555
O7 Te1 1.928795 1_565
O7 Rb1 3.028362 1_555
O7 Rb5 3.237092 1_555
O8 Te0 1.944202 1_555
O8 Rb3 2.913742 1_455
O8 Rb0 3.248062 1_555
O9 Te1 1.944202 1_666
O9 Rb2 2.913742 1_555
O9 Rb1 3.248062 1_656
O10 Te0 1.944202 1_565
O10 Rb5 2.913742 1_655
O10 Rb0 3.248062 1_555
O11 Te1 1.944202 1_555
O11 Rb4 2.913742 1_555
O11 Rb1 3.248062 1_555
O12 Te0 1.924375 1_565
O12 Rb5 2.991381 1_555
O12 Rb4 3.054200 1_565
O13 Te1 1.924375 1_655
O13 Rb4 2.991381 1_555
O13 Rb5 3.054200 1_645
O14 Te0 1.924375 1_555
O14 Rb3 2.991381 1_555
O14 Rb2 3.054200 1_545
O15 Te1 1.924375 1_566
O15 Rb2 2.991381 1_555
O15 Rb3 3.054200 1_465
O16 P0 1.551316 1_555
O16 Rb0 3.198731 1_555
O16 Rb3 3.204529 1_555
O17 P1 1.551316 1_455
O17 Rb1 3.198731 1_556
O17 Rb2 3.204529 1_555
O18 P2 1.551316 1_555
O18 Rb0 3.198731 1_555
O18 Rb5 3.204529 1_555
O19 P3 1.551316 1_655
O19 Rb1 3.198731 1_655
O19 Rb4 3.204529 1_555
O20 P1 1.542354 1_455
O20 Rb3 3.084012 1_455
O20 Rb0 3.353302 1_555
O21 P0 1.542354 1_555
O21 Rb2 3.084012 1_555
O21 Rb1 3.353302 1_656
O22 P3 1.542354 1_655
O22 Rb5 3.084012 1_655
O22 Rb0 3.353302 1_555
O23 P2 1.542354 1_555
O23 Rb4 3.084012 1_555
O23 Rb1 3.353302 1_555
O24 P0 1.543667 1_555
O24 Rb3 3.068954 1_455
O24 Rb1 3.226230 1_556
O25 P1 1.543667 1_555
O25 Rb2 3.068954 1_555
O25 Rb0 3.226230 1_555
O26 P2 1.543667 1_555
O26 Rb5 3.068954 1_655
O26 Rb1 3.226230 1_655
O27 P3 1.543667 1_555
O27 Rb4 3.068954 1_555
O27 Rb0 3.226230 1_555
