# generated using pymatgen
data_VCdPHO6
_symmetry_space_group_name_H-M   'P 1'
_cell_length_a   6.91560200
_cell_length_b   5.47525200
_cell_length_c   7.37614463
_cell_angle_alpha   76.49786521
_cell_angle_beta   90.00000000
_cell_angle_gamma   90.00000000
_symmetry_Int_Tables_number   1
_chemical_formula_structural   VCdPHO6
_chemical_formula_sum   'V2 Cd2 P2 H2 O12'
_cell_volume   271.57585644
_cell_formula_units_Z   2
loop_
 _symmetry_equiv_pos_site_id
 _symmetry_equiv_pos_as_xyz
  1  'x, y, z'
loop_
 _atom_site_type_symbol
 _atom_site_label
 _atom_site_symmetry_multiplicity
 _atom_site_fract_x
 _atom_site_fract_y
 _atom_site_fract_z
 _atom_site_occupancy
  V  V0  1  0.00638000  0.93456400  0.54280400  1
  V  V1  1  0.50638000  0.06543600  0.45719600  1
  Cd  Cd0  1  0.54280800  0.50790600  0.01619300  1
  Cd  Cd1  1  0.04280800  0.49209400  0.98380700  1
  P  P0  1  0.79780100  0.94442700  0.16158400  1
  P  P1  1  0.29780100  0.05557300  0.83841600  1
  H  H0  1  0.59641300  0.60222100  0.67927500  1
  H  H1  1  0.09641300  0.39777900  0.32072500  1
  O  O0  1  0.80086300  0.75295400  0.03669100  1
  O  O1  1  0.30086300  0.24704600  0.96330900  1
  O  O2  1  0.79113100  0.21875500  0.04348300  1
  O  O3  1  0.29113100  0.78124500  0.95651700  1
  O  O4  1  0.96267900  0.65149700  0.67529500  1
  O  O5  1  0.46267900  0.34850300  0.32470500  1
  O  O6  1  0.28605900  0.91146400  0.47921500  1
  O  O7  1  0.78605900  0.08853600  0.52078500  1
  O  O8  1  0.61114500  0.88818200  0.28352300  1
  O  O9  1  0.11114500  0.11181800  0.71647700  1
  O  O10  1  0.98292100  0.90371900  0.28418700  1
  O  O11  1  0.48292100  0.09628100  0.71581300  1
loop_
_geom_bond_atom_site_label_1
_geom_bond_atom_site_label_2
_geom_bond_distance
_geom_bond_site_symmetry_2
Cd0 O0 2.258885 1_555
Cd0 O3 2.270524 1_554
Cd0 O1 2.291697 1_554
Cd0 O5 2.306480 1_555
Cd0 O2 2.312418 1_555
Cd0 H0 2.445573 1_554
Cd1 O1 2.258885 1_555
Cd1 O2 2.270524 1_456
Cd1 O0 2.291697 1_456
Cd1 O4 2.306480 1_455
Cd1 O3 2.312418 1_555
Cd1 H1 2.445573 1_556
O0 P0 1.548922 1_555
O1 P1 1.548922 1_555
O2 P0 1.551143 1_545
O3 P1 1.551143 1_565
O4 V0 1.655655 1_655
O5 V1 1.655655 1_555
O6 V1 1.730511 1_565
O6 V0 2.001157 1_555
O7 V0 1.730511 1_645
O7 V1 2.001157 1_555
O8 P0 1.562290 1_555
O8 V1 1.920527 1_565
O9 P1 1.562290 1_555
O9 V0 1.920527 1_545
O10 P0 1.553169 1_555
O10 V0 1.960664 1_655
O11 P1 1.553169 1_555
O11 V1 1.960664 1_555
