# generated using pymatgen
data_V(FeSe2)2
_symmetry_space_group_name_H-M   'P 1'
_cell_length_a   9.15235449
_cell_length_b   8.17284182
_cell_length_c   10.43708999
_cell_angle_alpha   99.07339586
_cell_angle_beta   94.92141096
_cell_angle_gamma   127.70399697
_symmetry_Int_Tables_number   1
_chemical_formula_structural   V(FeSe2)2
_chemical_formula_sum   'V1 Fe2 Se4'
_cell_volume   593.12304622
_cell_formula_units_Z   1
loop_
 _symmetry_equiv_pos_site_id
 _symmetry_equiv_pos_as_xyz
  1  'x, y, z'
loop_
 _atom_site_type_symbol
 _atom_site_label
 _atom_site_symmetry_multiplicity
 _atom_site_fract_x
 _atom_site_fract_y
 _atom_site_fract_z
 _atom_site_occupancy
  V  V0  1  0.82836300  0.94820900  0.96718600  1
  Fe  Fe0  1  0.41447600  0.42896500  0.06262500  1
  Fe  Fe1  1  0.14745000  0.07251400  0.95710000  1
  Se  Se0  1  0.87281900  0.78960100  0.79081600  1
  Se  Se1  1  0.45016700  0.17701900  0.01616700  1
  Se  Se2  1  0.68751300  0.77878700  0.12939300  1
  Se  Se3  1  0.09921300  0.30490500  0.07671200  1
loop_
_geom_bond_atom_site_label_1
_geom_bond_atom_site_label_2
_geom_bond_distance
_geom_bond_site_symmetry_2
Fe0 Se1 2.262029 1_555
Fe0 Se2 2.288723 1_555
Fe0 Fe1 2.343133 1_554
Fe0 Se3 2.432393 1_555
Fe1 Se1 2.330676 1_556
Fe1 Se0 2.356527 1_445
Fe1 Se3 2.394387 1_556
Fe1 V0 2.455478 1_445
Se0 V0 2.292473 1_555
Se2 V0 2.318559 1_554
Se3 V0 2.360871 1_444
