# generated using pymatgen
data_K2BiBr5O2
_symmetry_space_group_name_H-M   'P 1'
_cell_length_a   8.56053800
_cell_length_b   14.06513200
_cell_length_c   21.36925100
_cell_angle_alpha   90.00000000
_cell_angle_beta   90.00000000
_cell_angle_gamma   90.00000000
_symmetry_Int_Tables_number   1
_chemical_formula_structural   K2BiBr5O2
_chemical_formula_sum   'K16 Bi8 Br40 O16'
_cell_volume   2572.96673864
_cell_formula_units_Z   8
loop_
 _symmetry_equiv_pos_site_id
 _symmetry_equiv_pos_as_xyz
  1  'x, y, z'
loop_
 _atom_site_type_symbol
 _atom_site_label
 _atom_site_symmetry_multiplicity
 _atom_site_fract_x
 _atom_site_fract_y
 _atom_site_fract_z
 _atom_site_occupancy
  K  K0  1  0.98952200  0.34862400  0.75000000  1
  K  K1  1  0.48952200  0.15137600  0.75000000  1
  K  K2  1  0.01047800  0.65137600  0.25000000  1
  K  K3  1  0.51047800  0.84862400  0.25000000  1
  K  K4  1  0.82461600  0.65686800  0.75000000  1
  K  K5  1  0.32461600  0.84313200  0.75000000  1
  K  K6  1  0.17538400  0.34313200  0.25000000  1
  K  K7  1  0.67538400  0.15686800  0.25000000  1
  K  K8  1  0.04065200  0.30354600  0.52063400  1
  K  K9  1  0.54065200  0.19645400  0.97936600  1
  K  K10  1  0.95934800  0.69645400  0.02063400  1
  K  K11  1  0.45934800  0.80354600  0.47936600  1
  K  K12  1  0.95934800  0.69645400  0.47936600  1
  K  K13  1  0.45934800  0.80354600  0.02063400  1
  K  K14  1  0.04065200  0.30354600  0.97936600  1
  K  K15  1  0.54065200  0.19645400  0.52063400  1
  Bi  Bi0  1  0.90263700  0.01432100  0.64140300  1
  Bi  Bi1  1  0.40263700  0.48567900  0.85859700  1
  Bi  Bi2  1  0.09736300  0.98567900  0.14140300  1
  Bi  Bi3  1  0.59736300  0.51432100  0.35859700  1
  Bi  Bi4  1  0.09736300  0.98567900  0.35859700  1
  Bi  Bi5  1  0.59736300  0.51432100  0.14140300  1
  Bi  Bi6  1  0.90263700  0.01432100  0.85859700  1
  Bi  Bi7  1  0.40263700  0.48567900  0.64140300  1
  Br  Br0  1  0.61765000  0.97274800  0.57718000  1
  Br  Br1  1  0.11765000  0.52725200  0.92282000  1
  Br  Br2  1  0.38235000  0.02725200  0.07718000  1
  Br  Br3  1  0.88235000  0.47274800  0.42282000  1
  Br  Br4  1  0.38235000  0.02725200  0.42282000  1
  Br  Br5  1  0.88235000  0.47274800  0.07718000  1
  Br  Br6  1  0.61765000  0.97274800  0.92282000  1
  Br  Br7  1  0.11765000  0.52725200  0.57718000  1
  Br  Br8  1  0.12149400  0.07187300  0.55845400  1
  Br  Br9  1  0.62149400  0.42812700  0.94154600  1
  Br  Br10  1  0.87850600  0.92812700  0.05845400  1
  Br  Br11  1  0.37850600  0.57187300  0.44154600  1
  Br  Br12  1  0.87850600  0.92812700  0.44154600  1
  Br  Br13  1  0.37850600  0.57187300  0.05845400  1
  Br  Br14  1  0.12149400  0.07187300  0.94154600  1
  Br  Br15  1  0.62149400  0.42812700  0.55845400  1
  Br  Br16  1  0.79000200  0.20279400  0.65088400  1
  Br  Br17  1  0.29000200  0.29720600  0.84911600  1
  Br  Br18  1  0.20999800  0.79720600  0.15088400  1
  Br  Br19  1  0.70999800  0.70279400  0.34911600  1
  Br  Br20  1  0.20999800  0.79720600  0.34911600  1
  Br  Br21  1  0.70999800  0.70279400  0.15088400  1
  Br  Br22  1  0.79000200  0.20279400  0.84911600  1
  Br  Br23  1  0.29000200  0.29720600  0.65088400  1
  Br  Br24  1  0.02307400  0.81457600  0.63290100  1
  Br  Br25  1  0.52307400  0.68542400  0.86709900  1
  Br  Br26  1  0.97692600  0.18542400  0.13290100  1
  Br  Br27  1  0.47692600  0.31457600  0.36709900  1
  Br  Br28  1  0.97692600  0.18542400  0.36709900  1
  Br  Br29  1  0.47692600  0.31457600  0.13290100  1
  Br  Br30  1  0.02307400  0.81457600  0.86709900  1
  Br  Br31  1  0.52307400  0.68542400  0.63290100  1
  Br  Br32  1  0.69919000  0.93441100  0.75000000  1
  Br  Br33  1  0.19919000  0.56558900  0.75000000  1
  Br  Br34  1  0.30081000  0.06558900  0.25000000  1
  Br  Br35  1  0.80081000  0.43441100  0.25000000  1
  Br  Br36  1  0.11141000  0.05238400  0.75000000  1
  Br  Br37  1  0.61141000  0.44761600  0.75000000  1
  Br  Br38  1  0.88859000  0.94761600  0.25000000  1
  Br  Br39  1  0.38859000  0.55238400  0.25000000  1
  O  O0  1  0.96620600  0.51300900  0.67677700  1
  O  O1  1  0.46620600  0.98699100  0.82322300  1
  O  O2  1  0.03379400  0.48699100  0.17677700  1
  O  O3  1  0.53379400  0.01300900  0.32322300  1
  O  O4  1  0.03379400  0.48699100  0.32322300  1
  O  O5  1  0.53379400  0.01300900  0.17677700  1
  O  O6  1  0.96620600  0.51300900  0.82322300  1
  O  O7  1  0.46620600  0.98699100  0.67677700  1
  O  O8  1  0.68230200  0.70278400  0.54315700  1
  O  O9  1  0.18230200  0.79721600  0.95684300  1
  O  O10  1  0.31769800  0.29721600  0.04315700  1
  O  O11  1  0.81769800  0.20278400  0.45684300  1
  O  O12  1  0.31769800  0.29721600  0.45684300  1
  O  O13  1  0.81769800  0.20278400  0.04315700  1
  O  O14  1  0.68230200  0.70278400  0.95684300  1
  O  O15  1  0.18230200  0.79721600  0.54315700  1
loop_
_geom_bond_atom_site_label_1
_geom_bond_atom_site_label_2
_geom_bond_distance
_geom_bond_site_symmetry_2
K0 O0 2.798925 1_555
K0 O6 2.798925 1_555
K1 O1 2.798925 1_545
K1 O7 2.798925 1_545
K2 O4 2.798925 1_555
K2 O2 2.798925 1_555
K3 O3 2.798925 1_565
K3 O5 2.798925 1_565
K4 O6 2.830483 1_555
K4 O0 2.830483 1_555
K5 O7 2.830483 1_555
K5 O1 2.830483 1_555
K6 O4 2.830483 1_555
K6 O2 2.830483 1_555
K7 O3 2.830483 1_555
K7 O5 2.830483 1_555
K8 O12 2.736957 1_555
K8 O11 2.740354 1_455
K9 O13 2.736957 1_556
K9 O10 2.740354 1_556
K10 O14 2.736957 1_554
K10 O9 2.740354 1_654
K11 O15 2.736957 1_555
K11 O8 2.740354 1_555
K12 O8 2.736957 1_555
K12 O15 2.740354 1_655
K13 O9 2.736957 1_554
K13 O14 2.740354 1_554
K14 O10 2.736957 1_556
K14 O13 2.740354 1_456
K15 O11 2.736957 1_555
K15 O12 2.740354 1_555
Bi0 Br8 2.703210 1_655
Bi0 Br16 2.828077 1_555
Bi0 Br0 2.859587 1_545
Bi0 Br36 2.977597 1_655
Bi0 Br24 2.998155 1_645
Bi0 Br32 3.111564 1_545
Bi1 Br9 2.703210 1_555
Bi1 Br17 2.828077 1_555
Bi1 Br1 2.859587 1_555
Bi1 Br37 2.977597 1_555
Bi1 Br25 2.998155 1_555
Bi1 Br33 3.111564 1_555
Bi2 Br10 2.703210 1_455
Bi2 Br18 2.828077 1_555
Bi2 Br2 2.859587 1_565
Bi2 Br38 2.977597 1_455
Bi2 Br26 2.998155 1_465
Bi2 Br34 3.111564 1_565
Bi3 Br11 2.703210 1_555
Bi3 Br19 2.828077 1_555
Bi3 Br3 2.859587 1_555
Bi3 Br39 2.977597 1_555
Bi3 Br27 2.998155 1_555
Bi3 Br35 3.111564 1_555
Bi4 Br12 2.703210 1_455
Bi4 Br20 2.828077 1_555
Bi4 Br4 2.859587 1_565
Bi4 Br38 2.977597 1_455
Bi4 Br28 2.998155 1_465
Bi4 Br34 3.111564 1_565
Bi5 Br13 2.703210 1_555
Bi5 Br21 2.828077 1_555
Bi5 Br5 2.859587 1_555
Bi5 Br39 2.977597 1_555
Bi5 Br29 2.998155 1_555
Bi5 Br35 3.111564 1_555
Bi6 Br14 2.703210 1_655
Bi6 Br22 2.828077 1_555
Bi6 Br6 2.859587 1_545
Bi6 Br36 2.977597 1_655
Bi6 Br30 2.998155 1_645
Bi6 Br32 3.111564 1_545
Bi7 Br15 2.703210 1_555
Bi7 Br23 2.828077 1_555
Bi7 Br7 2.859587 1_555
Bi7 Br37 2.977597 1_555
Bi7 Br31 2.998155 1_555
Bi7 Br33 3.111564 1_555
Br0 O7 2.500122 1_555
Br0 K15 3.434348 1_565
Br0 K11 3.445156 1_555
Br1 O6 2.500122 1_455
Br1 K14 3.434348 1_555
Br1 K10 3.445156 1_456
Br2 O5 2.500122 1_555
Br2 K13 3.434348 1_545
Br2 K9 3.445156 1_554
Br3 O4 2.500122 1_655
Br3 K12 3.434348 1_555
Br3 K8 3.445156 1_655
Br4 O3 2.500122 1_555
Br4 K11 3.434348 1_545
Br4 K15 3.445156 1_555
Br5 O2 2.500122 1_655
Br5 K10 3.434348 1_555
Br5 K14 3.445156 1_654
Br6 O1 2.500122 1_555
Br6 K9 3.434348 1_565
Br6 K13 3.445156 1_556
Br7 O0 2.500122 1_455
Br7 K8 3.434348 1_555
Br7 K12 3.445156 1_455
Br8 K8 3.427826 1_555
Br9 K9 3.427826 1_555
Br10 K10 3.427826 1_555
Br11 K11 3.427826 1_555
Br12 K12 3.427826 1_555
Br13 K13 3.427826 1_555
Br14 K14 3.427826 1_555
Br15 K15 3.427826 1_555
Br16 K0 3.407406 1_555
Br16 K1 3.409643 1_555
Br16 K15 3.508753 1_555
Br16 K8 3.789350 1_655
Br17 K1 3.407406 1_555
Br17 K0 3.409643 1_455
Br17 K14 3.508753 1_555
Br17 K9 3.789350 1_555
Br18 K2 3.407406 1_555
Br18 K3 3.409643 1_555
Br18 K13 3.508753 1_555
Br18 K10 3.789350 1_455
Br19 K3 3.407406 1_555
Br19 K2 3.409643 1_655
Br19 K12 3.508753 1_555
Br19 K11 3.789350 1_555
Br20 K2 3.407406 1_555
Br20 K3 3.409643 1_555
Br20 K11 3.508753 1_555
Br20 K12 3.789350 1_455
Br21 K3 3.407406 1_555
Br21 K2 3.409643 1_655
Br21 K10 3.508753 1_555
Br21 K13 3.789350 1_555
Br22 K0 3.407406 1_555
Br22 K1 3.409643 1_555
Br22 K9 3.508753 1_555
Br22 K14 3.789350 1_655
Br23 K1 3.407406 1_555
Br23 K0 3.409643 1_455
Br23 K8 3.508753 1_555
Br23 K15 3.789350 1_555
Br24 O15 2.365462 1_555
Br24 K5 3.617505 1_555
Br24 K4 3.750763 1_455
Br25 O14 2.365462 1_555
Br25 K4 3.617505 1_555
Br25 K5 3.750763 1_555
Br26 O13 2.365462 1_555
Br26 K7 3.617505 1_555
Br26 K6 3.750763 1_655
Br27 O12 2.365462 1_555
Br27 K6 3.617505 1_555
Br27 K7 3.750763 1_555
Br28 O11 2.365462 1_555
Br28 K7 3.617505 1_555
Br28 K6 3.750763 1_655
Br29 O10 2.365462 1_555
Br29 K6 3.617505 1_555
Br29 K7 3.750763 1_555
Br30 O9 2.365462 1_555
Br30 K5 3.617505 1_555
Br30 K4 3.750763 1_455
Br31 O8 2.365462 1_555
Br31 K4 3.617505 1_555
Br31 K5 3.750763 1_555
Br32 K1 3.540350 1_565
Br33 K0 3.540350 1_455
Br34 K3 3.540350 1_545
Br35 K2 3.540350 1_655
Br36 K5 3.463145 1_545
Br36 K1 3.523598 1_555
Br37 K4 3.463145 1_555
Br37 K0 3.523598 1_555
Br38 K7 3.463145 1_565
Br38 K3 3.523598 1_555
Br39 K6 3.463145 1_555
Br39 K2 3.523598 1_555
