# generated using pymatgen
data_Er
_symmetry_space_group_name_H-M   'P 1'
_cell_length_a   7.08169632
_cell_length_b   7.08169744
_cell_length_c   22.84833534
_cell_angle_alpha   90.00000000
_cell_angle_beta   90.00000000
_cell_angle_gamma   120.00002495
_symmetry_Int_Tables_number   1
_chemical_formula_structural   Er
_chemical_formula_sum   Er32
_cell_volume   992.33830014
_cell_formula_units_Z   32
loop_
 _symmetry_equiv_pos_site_id
 _symmetry_equiv_pos_as_xyz
  1  'x, y, z'
loop_
 _atom_site_type_symbol
 _atom_site_label
 _atom_site_symmetry_multiplicity
 _atom_site_fract_x
 _atom_site_fract_y
 _atom_site_fract_z
 _atom_site_occupancy
  Er  Er0_0  1  0.00000000  0.00000000  0.49998051  1
  Er  Er0_1  1  0.00000000  0.00000000  0.99998051  1
  Er  Er0_2  1  1.00000000  0.50000000  0.49998051  1
  Er  Er0_3  1  1.00000000  0.50000000  0.99998051  1
  Er  Er0_4  1  0.50000000  0.00000000  0.49998051  1
  Er  Er0_5  1  0.50000000  0.00000000  0.99998051  1
  Er  Er0_6  1  0.50000000  0.50000000  0.49998051  1
  Er  Er0_7  1  0.50000000  0.50000000  0.99998051  1
  Er  Er1_0  1  0.16666700  0.33333400  0.12501881  1
  Er  Er1_1  1  0.16666700  0.33333400  0.62501881  1
  Er  Er1_2  1  0.16666700  0.83333400  0.12501881  1
  Er  Er1_3  1  0.16666700  0.83333400  0.62501881  1
  Er  Er1_4  1  0.66666700  0.33333400  0.12501881  1
  Er  Er1_5  1  0.66666700  0.33333400  0.62501881  1
  Er  Er1_6  1  0.66666700  0.83333400  0.12501881  1
  Er  Er1_7  1  0.66666700  0.83333400  0.62501881  1
  Er  Er2_0  1  0.00000000  0.00000000  0.25000937  1
  Er  Er2_1  1  0.00000000  0.00000000  0.75000937  1
  Er  Er2_2  1  1.00000000  0.50000000  0.25000937  1
  Er  Er2_3  1  1.00000000  0.50000000  0.75000937  1
  Er  Er2_4  1  0.50000000  0.00000000  0.25000937  1
  Er  Er2_5  1  0.50000000  0.00000000  0.75000937  1
  Er  Er2_6  1  0.50000000  0.50000000  0.25000937  1
  Er  Er2_7  1  0.50000000  0.50000000  0.75000937  1
  Er  Er3_0  1  0.33333300  0.16666600  0.37499131  1
  Er  Er3_1  1  0.33333300  0.16666600  0.87499131  1
  Er  Er3_2  1  0.33333300  0.66666600  0.37499131  1
  Er  Er3_3  1  0.33333300  0.66666600  0.87499131  1
  Er  Er3_4  1  0.83333300  0.16666600  0.37499131  1
  Er  Er3_5  1  0.83333300  0.16666600  0.87499131  1
  Er  Er3_6  1  0.83333300  0.66666600  0.37499131  1
  Er  Er3_7  1  0.83333300  0.66666600  0.87499131  1
loop_
_geom_bond_atom_site_label_1
_geom_bond_atom_site_label_2
_geom_bond_distance
_geom_bond_site_symmetry_2
Er0_0 Er3_0 3.512087 1_555
Er0_0 Er3_4 3.512088 1_455
Er0_0 Er3_6 3.512091 1_445
Er0_0 Er1_7 3.513000 1_445
Er0_0 Er1_3 3.513000 1_545
Er0_0 Er1_1 3.513003 1_555
Er0_0 Er0_6 3.540847 1_555
Er0_0 Er0_6 3.540847 1_445
Er0_0 Er0_4 3.540848 1_455
Er0_0 Er0_4 3.540848 1_555
Er0_0 Er0_2 3.540849 1_445
Er0_0 Er0_2 3.540849 1_455
Er0_1 Er3_1 3.512087 1_555
Er0_1 Er3_5 3.512088 1_455
Er0_1 Er3_7 3.512091 1_445
Er0_1 Er1_6 3.513000 1_446
Er0_1 Er1_2 3.513000 1_546
Er0_1 Er1_0 3.513003 1_556
Er0_1 Er0_7 3.540847 1_555
Er0_1 Er0_7 3.540847 1_445
Er0_1 Er0_5 3.540848 1_455
Er0_1 Er0_5 3.540848 1_555
Er0_1 Er0_3 3.540849 1_445
Er0_1 Er0_3 3.540849 1_455
Er0_2 Er3_2 3.512087 1_655
Er0_2 Er3_6 3.512088 1_555
Er0_2 Er3_4 3.512091 1_555
Er0_2 Er1_5 3.513000 1_555
Er0_2 Er1_1 3.513000 1_655
Er0_2 Er1_3 3.513003 1_655
Er0_2 Er0_4 3.540847 1_555
Er0_2 Er0_4 3.540847 1_665
Er0_2 Er0_6 3.540848 1_555
Er0_2 Er0_6 3.540848 1_655
Er0_3 Er3_3 3.512087 1_655
Er0_3 Er3_7 3.512088 1_555
Er0_3 Er3_5 3.512091 1_555
Er0_3 Er1_4 3.513000 1_556
Er0_3 Er1_0 3.513000 1_656
Er0_3 Er1_2 3.513003 1_656
Er0_3 Er0_5 3.540847 1_555
Er0_3 Er0_5 3.540847 1_665
Er0_3 Er0_7 3.540848 1_555
Er0_3 Er0_7 3.540848 1_655
Er0_4 Er3_4 3.512087 1_555
Er0_4 Er3_0 3.512088 1_555
Er0_4 Er3_2 3.512091 1_545
Er0_4 Er1_3 3.513000 1_545
Er0_4 Er1_7 3.513000 1_545
Er0_4 Er1_5 3.513003 1_555
Er0_4 Er0_6 3.540849 1_555
Er0_4 Er0_6 3.540849 1_545
Er0_5 Er3_5 3.512087 1_555
Er0_5 Er3_1 3.512088 1_555
Er0_5 Er3_3 3.512091 1_545
Er0_5 Er1_2 3.513000 1_546
Er0_5 Er1_6 3.513000 1_546
Er0_5 Er1_4 3.513003 1_556
Er0_5 Er0_7 3.540849 1_555
Er0_5 Er0_7 3.540849 1_545
Er0_6 Er3_6 3.512087 1_555
Er0_6 Er3_2 3.512088 1_555
Er0_6 Er3_0 3.512091 1_555
Er0_6 Er1_1 3.513000 1_555
Er0_6 Er1_5 3.513000 1_555
Er0_6 Er1_7 3.513003 1_555
Er0_7 Er3_7 3.512087 1_555
Er0_7 Er3_3 3.512088 1_555
Er0_7 Er3_1 3.512091 1_555
Er0_7 Er1_0 3.513000 1_556
Er0_7 Er1_4 3.513000 1_556
Er0_7 Er1_6 3.513003 1_556
Er1_0 Er2_6 3.512113 1_555
Er1_0 Er2_2 3.512113 1_455
Er1_0 Er2_0 3.512116 1_555
Er1_0 Er1_6 3.540847 1_445
Er1_0 Er1_6 3.540847 1_555
Er1_0 Er1_4 3.540848 1_455
Er1_0 Er1_4 3.540848 1_555
Er1_0 Er1_2 3.540849 1_545
Er1_0 Er1_2 3.540849 1_555
Er1_1 Er2_7 3.512113 1_555
Er1_1 Er2_3 3.512113 1_455
Er1_1 Er2_1 3.512116 1_555
Er1_1 Er1_7 3.540847 1_445
Er1_1 Er1_7 3.540847 1_555
Er1_1 Er1_5 3.540848 1_455
Er1_1 Er1_5 3.540848 1_555
Er1_1 Er1_3 3.540849 1_545
Er1_1 Er1_3 3.540849 1_555
Er1_2 Er2_4 3.512113 1_565
Er1_2 Er2_0 3.512113 1_565
Er1_2 Er2_2 3.512116 1_455
Er1_2 Er1_4 3.540847 1_455
Er1_2 Er1_4 3.540847 1_565
Er1_2 Er1_6 3.540848 1_455
Er1_2 Er1_6 3.540848 1_555
Er1_3 Er2_5 3.512113 1_565
Er1_3 Er2_1 3.512113 1_565
Er1_3 Er2_3 3.512116 1_455
Er1_3 Er1_5 3.540847 1_455
Er1_3 Er1_5 3.540847 1_565
Er1_3 Er1_7 3.540848 1_455
Er1_3 Er1_7 3.540848 1_555
Er1_4 Er2_2 3.512113 1_555
Er1_4 Er2_6 3.512113 1_555
Er1_4 Er2_4 3.512116 1_555
Er1_4 Er1_6 3.540849 1_545
Er1_4 Er1_6 3.540849 1_555
Er1_5 Er2_3 3.512113 1_555
Er1_5 Er2_7 3.512113 1_555
Er1_5 Er2_5 3.512116 1_555
Er1_5 Er1_7 3.540849 1_545
Er1_5 Er1_7 3.540849 1_555
Er1_6 Er2_0 3.512113 1_665
Er1_6 Er2_4 3.512113 1_565
Er1_6 Er2_6 3.512116 1_555
Er1_7 Er2_1 3.512113 1_665
Er1_7 Er2_5 3.512113 1_565
Er1_7 Er2_7 3.512116 1_555
Er2_0 Er3_0 3.511952 1_555
Er2_0 Er3_4 3.511953 1_455
Er2_0 Er3_6 3.511956 1_445
Er2_0 Er2_6 3.540847 1_555
Er2_0 Er2_6 3.540847 1_445
Er2_0 Er2_4 3.540848 1_455
Er2_0 Er2_4 3.540848 1_555
Er2_0 Er2_2 3.540849 1_445
Er2_0 Er2_2 3.540849 1_455
Er2_1 Er3_1 3.511952 1_555
Er2_1 Er3_5 3.511953 1_455
Er2_1 Er3_7 3.511956 1_445
Er2_1 Er2_7 3.540847 1_555
Er2_1 Er2_7 3.540847 1_445
Er2_1 Er2_5 3.540848 1_555
Er2_1 Er2_5 3.540848 1_455
Er2_1 Er2_3 3.540849 1_445
Er2_1 Er2_3 3.540849 1_455
Er2_2 Er3_2 3.511952 1_655
Er2_2 Er3_6 3.511953 1_555
Er2_2 Er3_4 3.511956 1_555
Er2_2 Er2_4 3.540847 1_555
Er2_2 Er2_4 3.540847 1_665
Er2_2 Er2_6 3.540848 1_555
Er2_2 Er2_6 3.540848 1_655
Er2_3 Er3_3 3.511952 1_655
Er2_3 Er3_7 3.511953 1_555
Er2_3 Er3_5 3.511956 1_555
Er2_3 Er2_5 3.540847 1_555
Er2_3 Er2_5 3.540847 1_665
Er2_3 Er2_7 3.540848 1_555
Er2_3 Er2_7 3.540848 1_655
Er2_4 Er3_4 3.511952 1_555
Er2_4 Er3_0 3.511953 1_555
Er2_4 Er3_2 3.511956 1_545
Er2_4 Er2_6 3.540849 1_555
Er2_4 Er2_6 3.540849 1_545
Er2_5 Er3_5 3.511952 1_555
Er2_5 Er3_1 3.511953 1_555
Er2_5 Er3_3 3.511956 1_545
Er2_5 Er2_7 3.540849 1_555
Er2_5 Er2_7 3.540849 1_545
Er2_6 Er3_6 3.511952 1_555
Er2_6 Er3_2 3.511953 1_555
Er2_6 Er3_0 3.511956 1_555
Er2_7 Er3_7 3.511952 1_555
Er2_7 Er3_3 3.511953 1_555
Er2_7 Er3_1 3.511956 1_555
Er3_0 Er3_6 3.540847 1_555
Er3_0 Er3_6 3.540847 1_445
Er3_0 Er3_4 3.540848 1_455
Er3_0 Er3_4 3.540848 1_555
Er3_0 Er3_2 3.540849 1_555
Er3_0 Er3_2 3.540849 1_545
Er3_1 Er3_7 3.540847 1_555
Er3_1 Er3_7 3.540847 1_445
Er3_1 Er3_5 3.540848 1_455
Er3_1 Er3_5 3.540848 1_555
Er3_1 Er3_3 3.540849 1_545
Er3_1 Er3_3 3.540849 1_555
Er3_2 Er3_4 3.540847 1_455
Er3_2 Er3_4 3.540847 1_565
Er3_2 Er3_6 3.540848 1_455
Er3_2 Er3_6 3.540848 1_555
Er3_3 Er3_5 3.540847 1_455
Er3_3 Er3_5 3.540847 1_565
Er3_3 Er3_7 3.540848 1_455
Er3_3 Er3_7 3.540848 1_555
Er3_4 Er3_6 3.540849 1_555
Er3_4 Er3_6 3.540849 1_545
Er3_5 Er3_7 3.540849 1_555
Er3_5 Er3_7 3.540849 1_545
