# generated using pymatgen
data_Na2Fe(SO5)2
_symmetry_space_group_name_H-M   'P 1'
_cell_length_a   7.03535400
_cell_length_b   7.39968200
_cell_length_c   16.32962300
_cell_angle_alpha   90.00000000
_cell_angle_beta   90.00000000
_cell_angle_gamma   90.00000000
_symmetry_Int_Tables_number   1
_chemical_formula_structural   Na2Fe(SO5)2
_chemical_formula_sum   'Na8 Fe4 S8 O40'
_cell_volume   850.11008751
_cell_formula_units_Z   4
loop_
 _symmetry_equiv_pos_site_id
 _symmetry_equiv_pos_as_xyz
  1  'x, y, z'
loop_
 _atom_site_type_symbol
 _atom_site_label
 _atom_site_symmetry_multiplicity
 _atom_site_fract_x
 _atom_site_fract_y
 _atom_site_fract_z
 _atom_site_occupancy
  Na  Na0  1  0.50948300  0.93896600  0.65822900  1
  Na  Na1  1  0.99051700  0.56103400  0.15822900  1
  Na  Na2  1  0.00948300  0.06103400  0.34177100  1
  Na  Na3  1  0.49051700  0.43896600  0.84177100  1
  Na  Na4  1  0.49051700  0.06103400  0.34177100  1
  Na  Na5  1  0.00948300  0.43896600  0.84177100  1
  Na  Na6  1  0.99051700  0.93896600  0.65822900  1
  Na  Na7  1  0.50948300  0.56103400  0.15822900  1
  Fe  Fe0  1  0.00000000  0.50000000  0.50000000  1
  Fe  Fe1  1  0.50000000  0.00000000  0.00000000  1
  Fe  Fe2  1  0.50000000  0.50000000  0.50000000  1
  Fe  Fe3  1  0.00000000  0.00000000  0.00000000  1
  S  S0  1  0.75000000  0.51342700  0.66486400  1
  S  S1  1  0.75000000  0.98657300  0.16486400  1
  S  S2  1  0.25000000  0.48657300  0.33513600  1
  S  S3  1  0.25000000  0.01342700  0.83513600  1
  S  S4  1  0.25000000  0.86799800  0.51035000  1
  S  S5  1  0.25000000  0.63200200  0.01035000  1
  S  S6  1  0.75000000  0.13200200  0.48965000  1
  S  S7  1  0.75000000  0.36799800  0.98965000  1
  O  O0  1  0.75000000  0.71041500  0.67756600  1
  O  O1  1  0.75000000  0.78958500  0.17756600  1
  O  O2  1  0.25000000  0.28958500  0.32243400  1
  O  O3  1  0.25000000  0.21041500  0.82243400  1
  O  O4  1  0.75000000  0.41976400  0.74600800  1
  O  O5  1  0.75000000  0.08023600  0.24600800  1
  O  O6  1  0.25000000  0.58023600  0.25399200  1
  O  O7  1  0.25000000  0.91976400  0.75399200  1
  O  O8  1  0.92598500  0.45427600  0.62025700  1
  O  O9  1  0.57401500  0.04572400  0.12025700  1
  O  O10  1  0.42598500  0.54572400  0.37974300  1
  O  O11  1  0.07401500  0.95427600  0.87974300  1
  O  O12  1  0.07401500  0.54572400  0.37974300  1
  O  O13  1  0.42598500  0.95427600  0.87974300  1
  O  O14  1  0.57401500  0.45427600  0.62025700  1
  O  O15  1  0.92598500  0.04572400  0.12025700  1
  O  O16  1  0.42580900  0.75641100  0.52901000  1
  O  O17  1  0.07419100  0.74358900  0.02901000  1
  O  O18  1  0.92580900  0.24358900  0.47099000  1
  O  O19  1  0.57419100  0.25641100  0.97099000  1
  O  O20  1  0.57419100  0.24358900  0.47099000  1
  O  O21  1  0.92580900  0.25641100  0.97099000  1
  O  O22  1  0.07419100  0.75641100  0.52901000  1
  O  O23  1  0.42580900  0.74358900  0.02901000  1
  O  O24  1  0.25000000  0.01643200  0.56999600  1
  O  O25  1  0.25000000  0.48356800  0.06999600  1
  O  O26  1  0.75000000  0.98356800  0.43000400  1
  O  O27  1  0.75000000  0.51643200  0.93000400  1
  O  O28  1  0.75000000  0.07350800  0.57506400  1
  O  O29  1  0.75000000  0.42649200  0.07506400  1
  O  O30  1  0.25000000  0.92649200  0.42493600  1
  O  O31  1  0.25000000  0.57350800  0.92493600  1
  O  O32  1  0.25000000  0.42499600  0.51959600  1
  O  O33  1  0.25000000  0.07500400  0.01959600  1
  O  O34  1  0.75000000  0.57500400  0.48040400  1
  O  O35  1  0.75000000  0.92499600  0.98040400  1
  O  O36  1  0.75000000  0.09766700  0.74454900  1
  O  O37  1  0.75000000  0.40233300  0.24454900  1
  O  O38  1  0.25000000  0.90233300  0.25545100  1
  O  O39  1  0.25000000  0.59766700  0.75545100  1
loop_
_geom_bond_atom_site_label_1
_geom_bond_atom_site_label_2
_geom_bond_distance
_geom_bond_site_symmetry_2
Na0 O28 2.387204 1_565
Na0 O24 2.395240 1_565
Na0 O7 2.407951 1_555
Na0 O0 2.413122 1_555
Na0 O36 2.495845 1_565
Na0 O16 2.573683 1_555
Na1 O29 2.387204 1_555
Na1 O25 2.395240 1_655
Na1 O6 2.407951 1_655
Na1 O1 2.413122 1_555
Na1 O37 2.495845 1_555
Na1 O17 2.573683 1_655
Na2 O30 2.387204 1_545
Na2 O26 2.395240 1_445
Na2 O5 2.407951 1_455
Na2 O2 2.413122 1_555
Na2 O38 2.495845 1_545
Na2 O18 2.573683 1_455
Na3 O31 2.387204 1_555
Na3 O27 2.395240 1_555
Na3 O4 2.407951 1_555
Na3 O3 2.413122 1_555
Na3 O39 2.495845 1_555
Na3 O19 2.573683 1_555
Na4 O30 2.387204 1_545
Na4 O26 2.395240 1_545
Na4 O5 2.407951 1_555
Na4 O2 2.413122 1_555
Na4 O38 2.495845 1_545
Na4 O20 2.573683 1_555
Na5 O31 2.387204 1_555
Na5 O27 2.395240 1_455
Na5 O4 2.407951 1_455
Na5 O3 2.413122 1_555
Na5 O39 2.495845 1_555
Na5 O21 2.573683 1_455
Na6 O28 2.387204 1_565
Na6 O24 2.395240 1_665
Na6 O7 2.407951 1_655
Na6 O0 2.413122 1_555
Na6 O36 2.495845 1_565
Na6 O22 2.573683 1_655
Na7 O29 2.387204 1_555
Na7 O25 2.395240 1_555
Na7 O6 2.407951 1_555
Na7 O1 2.413122 1_555
Na7 O37 2.495845 1_555
Na7 O23 2.573683 1_555
Fe0 O34 1.871882 1_455
Fe0 O32 1.871882 1_555
Fe0 O18 2.024063 1_455
Fe0 O22 2.024063 1_555
Fe0 O12 2.059599 1_555
Fe0 O8 2.059599 1_455
Fe1 O33 1.871882 1_555
Fe1 O35 1.871882 1_544
Fe1 O19 2.024063 1_554
Fe1 O23 2.024063 1_545
Fe1 O9 2.059599 1_555
Fe1 O13 2.059599 1_544
Fe2 O32 1.871882 1_555
Fe2 O34 1.871882 1_555
Fe2 O20 2.024063 1_555
Fe2 O16 2.024063 1_555
Fe2 O14 2.059599 1_555
Fe2 O10 2.059599 1_555
Fe3 O33 1.871882 1_555
Fe3 O35 1.871882 1_444
Fe3 O21 2.024063 1_454
Fe3 O17 2.024063 1_545
Fe3 O15 2.059599 1_455
Fe3 O11 2.059599 1_544
O0 S0 1.472332 1_555
O1 S1 1.472332 1_555
O2 S2 1.472332 1_555
O3 S3 1.472332 1_555
O4 S0 1.495364 1_555
O5 S1 1.495364 1_545
O6 S2 1.495364 1_555
O7 S3 1.495364 1_565
O8 S0 1.501700 1_555
O9 S1 1.501700 1_545
O10 S2 1.501700 1_555
O11 S3 1.501700 1_565
O12 S2 1.501700 1_555
O13 S3 1.501700 1_565
O14 S0 1.501700 1_555
O15 S1 1.501700 1_545
O16 S4 1.518062 1_555
O17 S5 1.518062 1_555
O18 S6 1.518062 1_555
O19 S7 1.518062 1_555
O20 S6 1.518062 1_555
O21 S7 1.518062 1_555
O22 S4 1.518062 1_555
O23 S5 1.518062 1_555
O24 S4 1.468017 1_545
O25 S5 1.468017 1_555
O26 S6 1.468017 1_565
O27 S7 1.468017 1_555
O28 S6 1.460395 1_555
O29 S7 1.460395 1_554
O30 S4 1.460395 1_555
O31 S5 1.460395 1_556
