# generated using pymatgen
data_Eu(AlZn)2
_symmetry_space_group_name_H-M   'P 1'
_cell_length_a   4.19410444
_cell_length_b   4.19411701
_cell_length_c   6.28870621
_cell_angle_alpha   70.56420337
_cell_angle_beta   70.56434472
_cell_angle_gamma   90.05421011
_symmetry_Int_Tables_number   1
_chemical_formula_structural   Eu(AlZn)2
_chemical_formula_sum   'Eu1 Al2 Zn2'
_cell_volume   97.59494095
_cell_formula_units_Z   1
loop_
 _symmetry_equiv_pos_site_id
 _symmetry_equiv_pos_as_xyz
  1  'x, y, z'
loop_
 _atom_site_type_symbol
 _atom_site_label
 _atom_site_symmetry_multiplicity
 _atom_site_fract_x
 _atom_site_fract_y
 _atom_site_fract_z
 _atom_site_occupancy
  Eu  Eu0  1  0.99999939  0.00000002  0.00000007  1
  Al  Al0  1  0.75005055  0.24994927  0.50000068  1
  Al  Al1  1  0.24995010  0.75004999  0.50000003  1
  Zn  Zn0  1  0.38784858  0.38784837  0.22442330  1
  Zn  Zn1  1  0.61215138  0.61215136  0.77557692  1
loop_
_geom_bond_atom_site_label_1
_geom_bond_atom_site_label_2
_geom_bond_distance
_geom_bond_site_symmetry_2
Eu0 Zn1 3.214762 1_544
Eu0 Zn0 3.214765 1_655
Eu0 Zn0 3.215574 1_545
Eu0 Zn1 3.215577 1_654
Eu0 Zn1 3.217754 1_554
Eu0 Zn0 3.217756 1_555
Eu0 Zn0 3.217758 1_645
Eu0 Zn1 3.217760 1_644
Al0 Zn0 2.594654 1_555
Al0 Zn1 2.594656 1_555
Al0 Zn0 2.595836 1_655
Al0 Zn1 2.595837 1_545
Al0 Eu0 3.476623 1_556
Al0 Eu0 3.476638 1_555
Al0 Eu0 3.478400 1_456
Al0 Eu0 3.478404 1_565
Al1 Zn1 2.594649 1_555
Al1 Zn0 2.594656 1_555
Al1 Zn1 2.595837 1_455
Al1 Zn0 2.595839 1_565
Al1 Eu0 3.476631 1_465
Al1 Eu0 3.476636 1_466
Al1 Eu0 3.478397 1_565
Al1 Eu0 3.478400 1_456
Zn0 Zn1 2.490264 1_554
