# generated using pymatgen
data_V2FeAgO7
_symmetry_space_group_name_H-M   'P 1'
_cell_length_a   5.71069100
_cell_length_b   7.59880630
_cell_length_c   7.78933189
_cell_angle_alpha   115.46973242
_cell_angle_beta   89.44712431
_cell_angle_gamma   101.14190201
_symmetry_Int_Tables_number   1
_chemical_formula_structural   V2FeAgO7
_chemical_formula_sum   'V4 Fe2 Ag2 O14'
_cell_volume   298.38003668
_cell_formula_units_Z   2
loop_
 _symmetry_equiv_pos_site_id
 _symmetry_equiv_pos_as_xyz
  1  'x, y, z'
loop_
 _atom_site_type_symbol
 _atom_site_label
 _atom_site_symmetry_multiplicity
 _atom_site_fract_x
 _atom_site_fract_y
 _atom_site_fract_z
 _atom_site_occupancy
  V  V0  1  0.30795200  0.22757500  0.21240600  1
  V  V1  1  0.69204800  0.77242500  0.78759400  1
  V  V2  1  0.29547400  0.21752500  0.74607800  1
  V  V3  1  0.70452600  0.78247500  0.25392200  1
  Fe  Fe0  1  0.82454000  0.31898300  0.52303300  1
  Fe  Fe1  1  0.17546000  0.68101700  0.47696700  1
  Ag  Ag0  1  0.17299100  0.66484200  0.96311900  1
  Ag  Ag1  1  0.82700900  0.33515800  0.03688100  1
  O  O0  1  0.10266200  0.36815200  0.36130600  1
  O  O1  1  0.89733800  0.63184800  0.63869400  1
  O  O2  1  0.07694900  0.34460200  0.72632400  1
  O  O3  1  0.92305100  0.65539800  0.27367600  1
  O  O4  1  0.21963500  0.97209400  0.59434400  1
  O  O5  1  0.78036500  0.02790600  0.40565600  1
  O  O6  1  0.32430200  0.25461900  0.99048900  1
  O  O7  1  0.67569800  0.74538100  0.00951100  1
  O  O8  1  0.56763400  0.32296000  0.69784400  1
  O  O9  1  0.43236600  0.67704000  0.30215600  1
  O  O10  1  0.59079300  0.30462500  0.32591400  1
  O  O11  1  0.40920700  0.69537500  0.67408600  1
  O  O12  1  0.21110100  0.98725400  0.15856600  1
  O  O13  1  0.78889900  0.01274600  0.84143400  1
loop_
_geom_bond_atom_site_label_1
_geom_bond_atom_site_label_2
_geom_bond_distance
_geom_bond_site_symmetry_2
Fe0 O5 1.959927 1_555
Fe0 O8 1.987621 1_555
Fe0 O10 1.997615 1_555
Fe0 O2 2.072092 1_655
Fe0 O0 2.094279 1_655
Fe0 O1 2.102293 1_555
Fe1 O4 1.959927 1_555
Fe1 O9 1.987621 1_555
Fe1 O11 1.997615 1_555
Fe1 O3 2.072092 1_455
Fe1 O1 2.094279 1_455
Fe1 O0 2.102293 1_555
Ag0 O12 2.227050 1_556
Ag0 O2 2.295190 1_555
Ag1 O13 2.227050 1_554
Ag1 O3 2.295190 1_555
O0 V0 1.803571 1_555
O1 V1 1.803571 1_555
O2 V2 1.763709 1_555
O3 V3 1.763709 1_555
O4 V2 1.692500 1_565
O5 V3 1.692500 1_545
O6 V2 1.804877 1_555
O6 V0 1.825910 1_556
O7 V3 1.804877 1_555
O7 V1 1.825910 1_554
O8 V2 1.721925 1_555
O9 V3 1.721925 1_555
O10 V0 1.717642 1_555
O11 V1 1.717642 1_555
O12 V0 1.664950 1_565
O13 V1 1.664950 1_545
