# generated using pymatgen
data_KCaTbNbO6
_symmetry_space_group_name_H-M   'P 1'
_cell_length_a   8.41448994
_cell_length_b   8.41101570
_cell_length_c   8.37593150
_cell_angle_alpha   90.00000000
_cell_angle_beta   90.00000000
_cell_angle_gamma   90.00000000
_symmetry_Int_Tables_number   1
_chemical_formula_structural   KCaTbNbO6
_chemical_formula_sum   'K4 Ca4 Tb4 Nb4 O24'
_cell_volume   592.80158493
_cell_formula_units_Z   4
loop_
 _symmetry_equiv_pos_site_id
 _symmetry_equiv_pos_as_xyz
  1  'x, y, z'
loop_
 _atom_site_type_symbol
 _atom_site_label
 _atom_site_symmetry_multiplicity
 _atom_site_fract_x
 _atom_site_fract_y
 _atom_site_fract_z
 _atom_site_occupancy
  K  K0  1  -0.00000000  0.50000000  0.50000000  1
  K  K1  1  0.50000000  0.50000000  0.00000000  1
  K  K2  1  0.50000000  -0.00000000  0.00000000  1
  K  K3  1  -0.00000000  -0.00000000  0.50000000  1
  Ca  Ca0  1  0.50000000  -0.00000000  0.50000000  1
  Ca  Ca1  1  -0.00000000  0.50000000  0.00000000  1
  Ca  Ca2  1  -0.00000000  -0.00000000  0.00000000  1
  Ca  Ca3  1  0.50000000  0.50000000  0.50000000  1
  Tb  Tb0  1  0.25000000  0.25000000  0.25000000  1
  Tb  Tb1  1  0.75000000  0.75000000  0.25000000  1
  Tb  Tb2  1  0.75000000  0.25000000  0.75000000  1
  Tb  Tb3  1  0.25000000  0.75000000  0.75000000  1
  Nb  Nb0  1  0.75000000  0.75000000  0.75000000  1
  Nb  Nb1  1  0.25000000  0.25000000  0.75000000  1
  Nb  Nb2  1  0.25000000  0.75000000  0.25000000  1
  Nb  Nb3  1  0.75000000  0.25000000  0.25000000  1
  O  O0  1  0.98480901  0.22863109  0.27452977  1
  O  O1  1  0.01519099  0.77136891  0.27452977  1
  O  O2  1  0.01519099  0.22863109  0.72547023  1
  O  O3  1  0.98480901  0.77136891  0.72547023  1
  O  O4  1  0.26017232  0.98512526  0.21548482  1
  O  O5  1  0.26017232  0.01487474  0.78451518  1
  O  O6  1  0.73982768  0.01487474  0.21548482  1
  O  O7  1  0.73982768  0.98512526  0.78451518  1
  O  O8  1  0.19895311  0.28297860  0.98557434  1
  O  O9  1  0.80104689  0.28297860  0.01442566  1
  O  O10  1  0.19895311  0.71702140  0.01442566  1
  O  O11  1  0.80104689  0.71702140  0.98557434  1
  O  O12  1  0.51519099  0.27136891  0.22547023  1
  O  O13  1  0.48480901  0.72863109  0.22547023  1
  O  O14  1  0.48480901  0.27136891  0.77452977  1
  O  O15  1  0.51519099  0.72863109  0.77452977  1
  O  O16  1  0.23982768  0.51487474  0.28451518  1
  O  O17  1  0.23982768  0.48512526  0.71548482  1
  O  O18  1  0.76017232  0.48512526  0.28451518  1
  O  O19  1  0.76017232  0.51487474  0.71548482  1
  O  O20  1  0.30104689  0.21702140  0.51442566  1
  O  O21  1  0.69895311  0.21702140  0.48557434  1
  O  O22  1  0.30104689  0.78297860  0.48557434  1
  O  O23  1  0.69895311  0.78297860  0.51442566  1
loop_
_geom_bond_atom_site_label_1
_geom_bond_atom_site_label_2
_geom_bond_distance
_geom_bond_site_symmetry_2
K0 O18 2.710296 1_455
K0 O19 2.710296 1_455
K0 O16 2.710296 1_555
K0 O17 2.710296 1_555
K0 O2 2.965234 1_555
K0 O1 2.965234 1_555
K0 O3 2.965234 1_455
K0 O0 2.965234 1_455
K1 O14 2.698308 1_554
K1 O15 2.698308 1_554
K1 O12 2.698308 1_555
K1 O13 2.698308 1_555
K1 O9 3.124653 1_555
K1 O10 3.124653 1_555
K1 O8 3.124653 1_554
K1 O11 3.124653 1_554
K1 O17 3.238425 1_554
K1 O19 3.238425 1_554
K1 O18 3.238425 1_555
K1 O16 3.238425 1_555
K2 O6 2.710296 1_555
K2 O4 2.710296 1_545
K2 O7 2.710296 1_544
K2 O5 2.710296 1_554
K2 O15 2.965234 1_544
K2 O13 2.965234 1_545
K2 O14 2.965234 1_554
K2 O12 2.965234 1_555
K3 O2 2.698308 1_555
K3 O3 2.698308 1_445
K3 O1 2.698308 1_545
K3 O0 2.698308 1_455
K3 O21 3.124653 1_455
K3 O23 3.124653 1_445
K3 O20 3.124653 1_555
K3 O22 3.124653 1_545
K3 O7 3.238425 1_445
K3 O6 3.238425 1_455
K3 O5 3.238425 1_555
K3 O4 3.238425 1_545
Ca0 O20 2.479748 1_555
Ca0 O22 2.479748 1_545
Ca0 O21 2.479748 1_555
Ca0 O23 2.479748 1_545
Ca1 O8 2.479748 1_554
Ca1 O10 2.479748 1_555
Ca1 O9 2.479748 1_455
Ca1 O11 2.479748 1_454
Ca2 O5 2.840060 1_554
Ca2 O7 2.840060 1_444
Ca2 O6 2.840060 1_455
Ca2 O4 2.840060 1_545
Ca2 O11 2.912426 1_444
Ca2 O10 2.912426 1_545
Ca2 O8 2.912426 1_554
Ca2 O9 2.912426 1_455
Ca2 O2 3.000297 1_554
Ca2 O1 3.000297 1_545
Ca2 O0 3.000297 1_455
Ca2 O3 3.000297 1_444
Ca3 O18 2.840060 1_555
Ca3 O19 2.840060 1_555
Ca3 O16 2.840060 1_555
Ca3 O17 2.840060 1_555
Ca3 O22 2.912426 1_555
Ca3 O23 2.912426 1_555
Ca3 O20 2.912426 1_555
Ca3 O21 2.912426 1_555
Ca3 O12 3.000297 1_555
Ca3 O14 3.000297 1_555
Ca3 O15 3.000297 1_555
Ca3 O13 3.000297 1_555
Nb0 O3 1.994567 1_555
Nb0 O15 1.994567 1_555
Nb0 O7 2.000493 1_555
Nb0 O19 2.000493 1_555
Nb0 O11 2.038328 1_555
Nb0 O23 2.038328 1_555
Nb1 O14 1.994567 1_555
Nb1 O2 1.994567 1_555
Nb1 O17 2.000493 1_555
Nb1 O5 2.000493 1_555
Nb1 O8 2.038328 1_555
Nb1 O20 2.038328 1_555
Nb2 O13 1.994567 1_555
Nb2 O1 1.994567 1_555
Nb2 O4 2.000493 1_555
Nb2 O16 2.000493 1_555
Nb2 O22 2.038328 1_555
Nb2 O10 2.038328 1_555
Nb3 O0 1.994567 1_555
Nb3 O12 1.994567 1_555
Nb3 O6 2.000493 1_555
Nb3 O18 2.000493 1_555
Nb3 O9 2.038328 1_555
Nb3 O21 2.038328 1_555
O0 Tb0 2.248082 1_655
O1 Tb1 2.248082 1_455
O2 Tb2 2.248082 1_455
O3 Tb3 2.248082 1_655
O4 Tb0 2.248174 1_565
O5 Tb3 2.248174 1_545
O6 Tb1 2.248174 1_545
O7 Tb2 2.248174 1_565
O8 Tb0 2.273066 1_556
O9 Tb2 2.273066 1_554
O10 Tb3 2.273066 1_554
O11 Tb1 2.273066 1_556
O12 Tb0 2.248082 1_555
O13 Tb1 2.248082 1_555
O14 Tb2 2.248082 1_555
O15 Tb3 2.248082 1_555
O16 Tb0 2.248174 1_555
O17 Tb3 2.248174 1_555
O18 Tb1 2.248174 1_555
O19 Tb2 2.248174 1_555
O20 Tb0 2.273066 1_555
O21 Tb2 2.273066 1_555
O22 Tb3 2.273066 1_555
O23 Tb1 2.273066 1_555
