# generated using pymatgen
data_LiH8C4O5F9
_symmetry_space_group_name_H-M   'P 1'
_cell_length_a   14.10811777
_cell_length_b   14.10811777
_cell_length_c   8.08847756
_cell_angle_alpha   79.25747834
_cell_angle_beta   79.25747834
_cell_angle_gamma   48.47314294
_symmetry_Int_Tables_number   1
_chemical_formula_structural   LiH8C4O5F9
_chemical_formula_sum   'Li4 H32 C16 O20 F36'
_cell_volume   1179.81097943
_cell_formula_units_Z   4
loop_
 _symmetry_equiv_pos_site_id
 _symmetry_equiv_pos_as_xyz
  1  'x, y, z'
loop_
 _atom_site_type_symbol
 _atom_site_label
 _atom_site_symmetry_multiplicity
 _atom_site_fract_x
 _atom_site_fract_y
 _atom_site_fract_z
 _atom_site_occupancy
  Li  Li0  1  0.18279300  0.34936400  0.06666500  1
  Li  Li1  1  0.65063600  0.81720700  0.43333500  1
  Li  Li2  1  0.81720700  0.65063600  0.93333500  1
  Li  Li3  1  0.34936400  0.18279300  0.56666500  1
  H  H0  1  0.43689600  0.17603800  0.08595000  1
  H  H1  1  0.82396200  0.56310400  0.41405000  1
  H  H2  1  0.56310400  0.82396200  0.91405000  1
  H  H3  1  0.17603800  0.43689600  0.58595000  1
  H  H4  1  0.11928200  0.37385800  0.39293500  1
  H  H5  1  0.62614200  0.88071800  0.10706500  1
  H  H6  1  0.88071800  0.62614200  0.60706500  1
  H  H7  1  0.37385800  0.11928200  0.89293500  1
  H  H8  1  0.35099300  0.14773100  0.18847300  1
  H  H9  1  0.85226900  0.64900700  0.31152700  1
  H  H10  1  0.64900700  0.85226900  0.81152700  1
  H  H11  1  0.14773100  0.35099300  0.68847300  1
  H  H12  1  0.00554000  0.37798600  0.94595800  1
  H  H13  1  0.62201400  0.99446000  0.55404200  1
  H  H14  1  0.99446000  0.62201400  0.05404200  1
  H  H15  1  0.37798600  0.00554000  0.44595800  1
  H  H16  1  0.14118000  0.24039000  0.91685500  1
  H  H17  1  0.75961000  0.85882000  0.58314500  1
  H  H18  1  0.85882000  0.75961000  0.08314500  1
  H  H19  1  0.24039000  0.14118000  0.41685500  1
  H  H20  1  0.01864800  0.38031900  0.31530900  1
  H  H21  1  0.61968100  0.98135200  0.18469100  1
  H  H22  1  0.98135200  0.61968100  0.68469100  1
  H  H23  1  0.38031900  0.01864800  0.81530900  1
  H  H24  1  0.21822500  0.50769600  0.01216500  1
  H  H25  1  0.49230400  0.78177500  0.48783500  1
  H  H26  1  0.78177500  0.49230400  0.98783500  1
  H  H27  1  0.50769600  0.21822500  0.51216500  1
  H  H28  1  0.15691600  0.52582600  0.85030500  1
  H  H29  1  0.47417400  0.84308400  0.64969500  1
  H  H30  1  0.84308400  0.47417400  0.14969500  1
  H  H31  1  0.52582600  0.15691600  0.35030500  1
  C  C0  1  0.15631200  0.64175800  0.55555000  1
  C  C1  1  0.35824200  0.84368800  0.94445000  1
  C  C2  1  0.84368800  0.35824200  0.44445000  1
  C  C3  1  0.64175800  0.15631200  0.05555000  1
  C  C4  1  0.30076800  0.57372300  0.56041000  1
  C  C5  1  0.42627700  0.69923200  0.93959000  1
  C  C6  1  0.69923200  0.42627700  0.43959000  1
  C  C7  1  0.57372300  0.30076800  0.06041000  1
  C  C8  1  0.12856000  0.66119800  0.36640900  1
  C  C9  1  0.33880200  0.87144000  0.13359100  1
  C  C10  1  0.87144000  0.33880200  0.63359100  1
  C  C11  1  0.66119800  0.12856000  0.86640900  1
  C  C12  1  0.07042500  0.77746000  0.62440300  1
  C  C13  1  0.22254000  0.92957500  0.87559700  1
  C  C14  1  0.92957500  0.22254000  0.37559700  1
  C  C15  1  0.77746000  0.07042500  0.12440300  1
  O  O0  1  0.13067800  0.56954600  0.65073500  1
  O  O1  1  0.43045400  0.86932200  0.84926500  1
  O  O2  1  0.86932200  0.43045400  0.34926500  1
  O  O3  1  0.56954500  0.13067800  0.15073500  1
  O  O4  1  0.35933900  0.18728900  0.07865100  1
  O  O5  1  0.81271100  0.64066100  0.42134900  1
  O  O6  1  0.64066100  0.81271100  0.92134900  1
  O  O7  1  0.18728900  0.35933900  0.57865100  1
  O  O8  1  0.15922700  0.50285100  0.97726000  1
  O  O9  1  0.49714900  0.84077300  0.52274000  1
  O  O10  1  0.84077300  0.49714900  0.02274000  1
  O  O11  1  0.50285100  0.15922700  0.47726000  1
  O  O12  1  0.09833100  0.32991000  0.91771200  1
  O  O13  1  0.67009000  0.90166900  0.58228800  1
  O  O14  1  0.90166900  0.67009000  0.08228800  1
  O  O15  1  0.32991000  0.09833100  0.41771200  1
  O  O16  1  0.10228900  0.36006800  0.29060000  1
  O  O17  1  0.63993200  0.89771100  0.20940000  1
  O  O18  1  0.89771100  0.63993200  0.70940000  1
  O  O19  1  0.36006800  0.10228900  0.79060000  1
  F  F0  1  0.32304600  0.57160000  0.71810400  1
  F  F1  1  0.42840000  0.67695400  0.78189600  1
  F  F2  1  0.67695400  0.42840000  0.28189600  1
  F  F3  1  0.57160000  0.32304600  0.21810400  1
  F  F4  1  0.12959300  0.74951200  0.26903400  1
  F  F5  1  0.25048800  0.87040700  0.23096600  1
  F  F6  1  0.87040700  0.25048800  0.73096600  1
  F  F7  1  0.74951200  0.12959300  0.76903400  1
  F  F8  1  0.34018800  0.62872600  0.44996400  1
  F  F9  1  0.37127400  0.65981200  0.05003600  1
  F  F10  1  0.65981200  0.37127400  0.55003600  1
  F  F11  1  0.62872600  0.34018800  0.94996400  1
  F  F12  1  0.01302300  0.69605500  0.36039500  1
  F  F13  1  0.30394500  0.98697700  0.13960500  1
  F  F14  1  0.98697700  0.30394500  0.63960500  1
  F  F15  1  0.69605500  0.01302300  0.86039500  1
  F  F16  1  0.10556800  0.84626600  0.55522300  1
  F  F17  1  0.15373400  0.89443200  0.94477700  1
  F  F18  1  0.89443200  0.15373400  0.44477700  1
  F  F19  1  0.84626600  0.10556800  0.05522300  1
  F  F20  1  0.94647000  0.84768500  0.59379500  1
  F  F21  1  0.15231500  0.05353000  0.90620500  1
  F  F22  1  0.05353000  0.15231500  0.40620500  1
  F  F23  1  0.84768500  0.94647000  0.09379500  1
  F  F24  1  0.21597300  0.54941500  0.29122900  1
  F  F25  1  0.45058500  0.78402700  0.20877100  1
  F  F26  1  0.78402700  0.45058500  0.70877100  1
  F  F27  1  0.54941500  0.21597300  0.79122900  1
  F  F28  1  0.37668600  0.45021200  0.52537200  1
  F  F29  1  0.54978800  0.62331400  0.97462800  1
  F  F30  1  0.62331400  0.54978800  0.47462800  1
  F  F31  1  0.45021200  0.37668600  0.02537200  1
  F  F32  1  0.07231300  0.76574700  0.79450100  1
  F  F33  1  0.23425300  0.92768700  0.70549900  1
  F  F34  1  0.92768700  0.23425300  0.20549900  1
  F  F35  1  0.76574700  0.07231300  0.29450100  1
loop_
_geom_bond_atom_site_label_1
_geom_bond_atom_site_label_2
_geom_bond_distance
_geom_bond_site_symmetry_2
Li0 O16 1.923846 1_555
Li0 O8 1.968189 1_554
Li0 O4 1.974178 1_555
Li0 O12 2.009701 1_554
Li1 O17 1.923846 1_555
Li1 O9 1.968189 1_555
Li1 O5 1.974178 1_555
Li1 O13 2.009701 1_555
Li2 O18 1.923846 1_555
Li2 O10 1.968189 1_556
Li2 O6 1.974178 1_555
Li2 O14 2.009701 1_556
Li3 O19 1.923846 1_555
Li3 O11 1.968189 1_555
Li3 O7 1.974178 1_555
Li3 O15 2.009701 1_555
H0 O4 1.008075 1_555
H0 O3 1.684923 1_555
H1 O5 1.008075 1_555
H1 O2 1.684936 1_555
H2 O6 1.008075 1_555
H2 O1 1.684936 1_555
H3 O7 1.008075 1_555
H3 O0 1.684936 1_555
H4 O16 0.988091 1_555
H5 O17 0.988091 1_555
H6 O18 0.988091 1_555
H7 O19 0.988091 1_555
H8 O4 0.988798 1_555
H9 O5 0.988798 1_555
H10 O6 0.988798 1_555
H11 O7 0.988798 1_555
H12 O12 0.997467 1_555
H13 O13 0.997467 1_555
H14 O14 0.997467 1_555
H15 O15 0.997467 1_555
H16 O12 0.974640 1_555
H17 O13 0.974640 1_555
H18 O14 0.974640 1_555
H19 O15 0.974640 1_555
H20 O16 1.000179 1_555
H20 O2 1.701435 1_455
H21 O17 1.000179 1_555
H21 O3 1.701429 1_565
H22 O18 1.000179 1_555
H22 O0 1.701435 1_655
H23 O19 1.000179 1_555
H23 O1 1.701435 1_545
H24 O8 0.973358 1_554
H25 O9 0.973358 1_555
H26 O10 0.973358 1_556
H27 O11 0.973358 1_555
H28 O8 1.017340 1_555
H28 O0 1.634629 1_555
H29 O9 1.017340 1_555
H29 O1 1.634629 1_555
H30 O10 1.017340 1_555
H30 O2 1.634629 1_555
H31 O11 1.017340 1_555
H31 O3 1.634629 1_555
C0 O0 1.361532 1_555
C1 O1 1.361532 1_555
C2 O2 1.361532 1_555
C3 O3 1.361543 1_555
C4 F8 1.355763 1_555
C4 F0 1.359897 1_555
C4 F28 1.363860 1_555
C5 F9 1.355763 1_556
C5 F1 1.359897 1_555
C5 F29 1.363860 1_555
C6 F10 1.355763 1_555
C6 F2 1.359897 1_555
C6 F30 1.363860 1_555
C7 F11 1.355763 1_554
C7 F3 1.359897 1_555
C7 F31 1.363860 1_555
C8 F4 1.351627 1_555
C8 F12 1.363422 1_555
C8 F24 1.369992 1_555
C9 F5 1.351627 1_555
C9 F13 1.363422 1_555
C9 F25 1.369992 1_555
C10 F6 1.351627 1_555
C10 F14 1.363422 1_555
C10 F26 1.369992 1_555
C11 F7 1.351627 1_555
C11 F15 1.363422 1_555
C11 F27 1.369992 1_555
C12 F16 1.354058 1_555
C12 F32 1.357941 1_555
C12 F20 1.368840 1_455
C13 F17 1.354058 1_555
C13 F33 1.357941 1_555
C13 F21 1.368840 1_565
C14 F18 1.354058 1_555
C14 F34 1.357941 1_555
C14 F22 1.368840 1_655
C15 F19 1.354058 1_555
C15 F35 1.357941 1_555
C15 F23 1.368840 1_545
