# generated using pymatgen
data_Ce2Te5
_symmetry_space_group_name_H-M   'P 1'
_cell_length_a   21.81827759
_cell_length_b   21.81827759
_cell_length_c   4.41749300
_cell_angle_alpha   90.00000000
_cell_angle_beta   90.00000000
_cell_angle_gamma   168.37998324
_symmetry_Int_Tables_number   1
_chemical_formula_structural   Ce2Te5
_chemical_formula_sum   'Ce4 Te10'
_cell_volume   423.56461507
_cell_formula_units_Z   2
loop_
 _symmetry_equiv_pos_site_id
 _symmetry_equiv_pos_as_xyz
  1  'x, y, z'
loop_
 _atom_site_type_symbol
 _atom_site_label
 _atom_site_symmetry_multiplicity
 _atom_site_fract_x
 _atom_site_fract_y
 _atom_site_fract_z
 _atom_site_occupancy
  Ce  Ce0  1  0.90330400  0.09669600  0.75000000  1
  Ce  Ce1  1  0.09669600  0.90330400  0.25000000  1
  Ce  Ce2  1  0.69282400  0.30717600  0.75000000  1
  Ce  Ce3  1  0.30717600  0.69282400  0.25000000  1
  Te  Te0  1  0.04189300  0.95810700  0.75000000  1
  Te  Te1  1  0.95810700  0.04189300  0.25000000  1
  Te  Te2  1  0.45781600  0.54218400  0.75000000  1
  Te  Te3  1  0.54218400  0.45781600  0.25000000  1
  Te  Te4  1  0.24999000  0.75001000  0.75000000  1
  Te  Te5  1  0.75001000  0.24999000  0.25000000  1
  Te  Te6  1  0.82660800  0.17339200  0.75000000  1
  Te  Te7  1  0.17339200  0.82660800  0.25000000  1
  Te  Te8  1  0.61827400  0.38172600  0.75000000  1
  Te  Te9  1  0.38172600  0.61827400  0.25000000  1
loop_
_geom_bond_atom_site_label_1
_geom_bond_atom_site_label_2
_geom_bond_distance
_geom_bond_site_symmetry_2
Ce0 Te2 3.237053 1_545
Ce0 Te2 3.237053 1_655
Ce0 Te1 3.246355 1_556
Ce0 Te1 3.246355 1_555
Ce0 Te9 3.261023 1_655
Ce0 Te9 3.261023 1_546
Ce0 Te9 3.261023 1_656
Ce0 Te9 3.261023 1_545
Ce0 Te6 3.329557 1_555
Ce1 Te3 3.237053 1_565
Ce1 Te3 3.237053 1_455
Ce1 Te0 3.246355 1_554
Ce1 Te0 3.246355 1_555
Ce1 Te8 3.261023 1_454
Ce1 Te8 3.261023 1_565
Ce1 Te8 3.261023 1_564
Ce1 Te8 3.261023 1_455
Ce1 Te7 3.329557 1_555
Ce2 Te7 3.235492 1_656
Ce2 Te7 3.235492 1_546
Ce2 Te7 3.235492 1_545
Ce2 Te7 3.235492 1_655
Ce2 Te8 3.236394 1_555
Ce2 Te4 3.322214 1_655
Ce2 Te4 3.322214 1_545
Ce2 Te5 3.322916 1_555
Ce2 Te5 3.322916 1_556
Ce3 Te6 3.235492 1_454
Ce3 Te6 3.235492 1_564
Ce3 Te6 3.235492 1_455
Ce3 Te6 3.235492 1_565
Ce3 Te9 3.236394 1_555
Ce3 Te5 3.322214 1_565
Ce3 Te5 3.322214 1_455
Ce3 Te4 3.322916 1_554
Ce3 Te4 3.322916 1_555
Te0 Te3 3.123608 1_456
Te0 Te3 3.123608 1_565
Te0 Te3 3.123608 1_455
Te0 Te3 3.123608 1_566
Te1 Te2 3.123608 1_544
Te1 Te2 3.123608 1_545
Te1 Te2 3.123608 1_655
Te1 Te2 3.123608 1_654
Te4 Te5 3.123582 1_566
Te4 Te5 3.123582 1_456
Te4 Te5 3.123582 1_455
Te4 Te5 3.123582 1_565
