# generated using pymatgen
data_K4ZrC5O15F2
_symmetry_space_group_name_H-M   'P 1'
_cell_length_a   10.85351303
_cell_length_b   10.85351303
_cell_length_c   9.17527829
_cell_angle_alpha   89.78570742
_cell_angle_beta   89.78570742
_cell_angle_gamma   68.82408690
_symmetry_Int_Tables_number   1
_chemical_formula_structural   K4ZrC5O15F2
_chemical_formula_sum   'K8 Zr2 C10 O30 F4'
_cell_volume   1007.84324672
_cell_formula_units_Z   2
loop_
 _symmetry_equiv_pos_site_id
 _symmetry_equiv_pos_as_xyz
  1  'x, y, z'
loop_
 _atom_site_type_symbol
 _atom_site_label
 _atom_site_symmetry_multiplicity
 _atom_site_fract_x
 _atom_site_fract_y
 _atom_site_fract_z
 _atom_site_occupancy
  K  K0  1  0.08744100  0.77204900  0.30006600  1
  K  K1  1  0.77204900  0.08744100  0.30006600  1
  K  K2  1  0.91255900  0.22795100  0.69993400  1
  K  K3  1  0.22795100  0.91255900  0.69993400  1
  K  K4  1  0.74768800  0.74768800  0.25999000  1
  K  K5  1  0.25231200  0.25231200  0.74001000  1
  K  K6  1  0.35619000  0.35619000  0.40300400  1
  K  K7  1  0.64381000  0.64381000  0.59699600  1
  Zr  Zr0  1  0.13311100  0.13311100  0.31294000  1
  Zr  Zr1  1  0.86688900  0.86688900  0.68706000  1
  C  C0  1  0.01713200  0.44172900  0.32316100  1
  C  C1  1  0.44172900  0.01713200  0.32316100  1
  C  C2  1  0.98286800  0.55827100  0.67683900  1
  C  C3  1  0.55827100  0.98286800  0.67683900  1
  C  C4  1  0.89535400  0.40332800  0.36380600  1
  C  C5  1  0.40332800  0.89535400  0.36380600  1
  C  C6  1  0.10464600  0.59667200  0.63619400  1
  C  C7  1  0.59667200  0.10464600  0.63619400  1
  C  C8  1  0.12351300  0.12351300  0.02379200  1
  C  C9  1  0.87648700  0.87648700  0.97620800  1
  O  O0  1  0.12786000  0.34287800  0.31660200  1
  O  O1  1  0.34287800  0.12786000  0.31660200  1
  O  O2  1  0.87214000  0.65712200  0.68339800  1
  O  O3  1  0.65712200  0.87214000  0.68339800  1
  O  O4  1  0.92044000  0.27890600  0.37598800  1
  O  O5  1  0.27890600  0.92044000  0.37598800  1
  O  O6  1  0.07956000  0.72109400  0.62401200  1
  O  O7  1  0.72109400  0.07956000  0.62401200  1
  O  O8  1  0.03567200  0.21462100  0.10347300  1
  O  O9  1  0.21462100  0.03567200  0.10347300  1
  O  O10  1  0.96432800  0.78537900  0.89652700  1
  O  O11  1  0.78537900  0.96432800  0.89652700  1
  O  O12  1  0.00363600  0.55961100  0.30454900  1
  O  O13  1  0.55961100  0.00363600  0.30454900  1
  O  O14  1  0.99636400  0.44038900  0.69545100  1
  O  O15  1  0.44038900  0.99636400  0.69545100  1
  O  O16  1  0.78522700  0.49299300  0.38551000  1
  O  O17  1  0.49299300  0.78522700  0.38551000  1
  O  O18  1  0.21477300  0.50700700  0.61449000  1
  O  O19  1  0.50700700  0.21477300  0.61449000  1
  O  O20  1  0.12171900  0.12171900  0.88624700  1
  O  O21  1  0.87828100  0.87828100  0.11375300  1
  O  O22  1  0.45452600  0.55572700  0.26148800  1
  O  O23  1  0.55572700  0.45452600  0.26148800  1
  O  O24  1  0.54547400  0.44427300  0.73851200  1
  O  O25  1  0.44427300  0.54547400  0.73851200  1
  O  O26  1  0.23139000  0.69949700  0.00338600  1
  O  O27  1  0.69949700  0.23139000  0.00338600  1
  O  O28  1  0.76861000  0.30050300  0.99661400  1
  O  O29  1  0.30050300  0.76861000  0.99661400  1
  F  F0  1  0.02006700  0.02006700  0.32639600  1
  F  F1  1  0.97993300  0.97993300  0.67360400  1
  F  F2  1  0.14476000  0.14476000  0.54014700  1
  F  F3  1  0.85524000  0.85524000  0.45985300  1
loop_
_geom_bond_atom_site_label_1
_geom_bond_atom_site_label_2
_geom_bond_distance
_geom_bond_site_symmetry_2
K0 O21 2.743797 1_455
K0 O12 2.767570 1_555
K0 O6 3.027819 1_555
K0 O26 3.092953 1_555
K0 O5 3.136041 1_555
K1 O21 2.743797 1_545
K1 O13 2.767570 1_555
K1 O7 3.027819 1_555
K1 O27 3.092953 1_555
K1 O4 3.136041 1_555
K2 O20 2.743797 1_655
K2 O14 2.767570 1_555
K2 O4 3.027819 1_555
K2 O28 3.092953 1_555
K2 O7 3.136041 1_555
K3 O20 2.743797 1_565
K3 O15 2.767570 1_555
K3 O5 3.027819 1_555
K3 O29 3.092953 1_555
K3 O6 3.136041 1_555
K4 O21 2.690970 1_555
K4 O13 2.820712 1_565
K4 O12 2.820712 1_655
K4 O16 2.880958 1_555
K4 O17 2.880958 1_555
K5 O20 2.690970 1_555
K5 O14 2.820712 1_455
K5 O15 2.820712 1_545
K5 O18 2.880958 1_555
K5 O19 2.880958 1_555
K6 O19 2.643277 1_555
K6 O18 2.643277 1_555
K6 O0 2.658001 1_555
K6 O1 2.658001 1_555
K6 O22 3.025516 1_555
K6 O23 3.025516 1_555
K7 O16 2.643277 1_555
K7 O17 2.643277 1_555
K7 O2 2.658001 1_555
K7 O3 2.658001 1_555
K7 O25 3.025516 1_555
K7 O24 3.025516 1_555
C0 O12 1.245281 1_555
C0 O0 1.291279 1_555
C1 O13 1.245281 1_555
C1 O1 1.291279 1_555
C2 O14 1.245281 1_555
C2 O2 1.291279 1_555
C3 O15 1.245281 1_555
C3 O3 1.291279 1_555
C4 O16 1.254865 1_555
C4 O4 1.282073 1_555
C5 O17 1.254865 1_555
C5 O5 1.282073 1_555
C6 O18 1.254865 1_555
C6 O6 1.282073 1_555
C7 O19 1.254865 1_555
C7 O7 1.282073 1_555
C8 O20 1.262568 1_554
C8 O8 1.319220 1_555
C8 O9 1.319220 1_555
C9 O21 1.262568 1_556
C9 O10 1.319220 1_555
C9 O11 1.319220 1_555
O0 Zr0 2.257121 1_555
O1 Zr0 2.257121 1_555
O2 Zr1 2.257121 1_555
O3 Zr1 2.257121 1_555
O4 Zr0 2.350437 1_655
O5 Zr0 2.350437 1_565
O6 Zr1 2.350437 1_455
O7 Zr1 2.350437 1_545
O8 Zr0 2.218420 1_555
O9 Zr0 2.218420 1_555
O10 Zr1 2.218420 1_555
O11 Zr1 2.218420 1_555
O22 O23 1.241485 1_555
O24 O25 1.241485 1_555
O26 O29 1.238965 1_554
O27 O28 1.238965 1_554
F0 Zr0 2.027615 1_555
F0 K0 2.533902 1_545
F0 K1 2.533902 1_455
F1 Zr1 2.027615 1_555
F1 K2 2.533902 1_565
F1 K3 2.533902 1_655
F2 Zr0 2.096040 1_555
F2 K5 2.665437 1_555
F2 K3 2.766649 1_545
F2 K2 2.766649 1_455
F3 Zr1 2.096040 1_555
F3 K4 2.665437 1_555
F3 K0 2.766649 1_655
F3 K1 2.766649 1_565
