# generated using pymatgen
data_Ba2MgMo4(Se2O11)2
_symmetry_space_group_name_H-M   'P 1'
_cell_length_a   8.12060372
_cell_length_b   8.05811560
_cell_length_c   9.21410307
_cell_angle_alpha   117.13212362
_cell_angle_beta   89.69698774
_cell_angle_gamma   89.83577664
_symmetry_Int_Tables_number   1
_chemical_formula_structural   Ba2MgMo4(Se2O11)2
_chemical_formula_sum   'Ba2 Mg1 Mo4 Se4 O22'
_cell_volume   536.57485210
_cell_formula_units_Z   1
loop_
 _symmetry_equiv_pos_site_id
 _symmetry_equiv_pos_as_xyz
  1  'x, y, z'
loop_
 _atom_site_type_symbol
 _atom_site_label
 _atom_site_symmetry_multiplicity
 _atom_site_fract_x
 _atom_site_fract_y
 _atom_site_fract_z
 _atom_site_occupancy
  Ba  Ba0  1  0.66219200  0.25763300  0.03267200  1
  Ba  Ba1  1  0.15529700  0.76034900  0.98932300  1
  Mg  Mg0  1  0.55418000  0.16702700  0.65473200  1
  Mo  Mo0  1  0.65725000  0.84706500  0.20996000  1
  Mo  Mo1  1  0.15182700  0.15192800  0.77359000  1
  Mo  Mo2  1  0.66042500  0.63187400  0.77254300  1
  Mo  Mo3  1  0.16766800  0.36993500  0.20926000  1
  Se  Se0  1  0.82679300  0.29125500  0.41096300  1
  Se  Se1  1  0.29436300  0.12411600  0.41187400  1
  Se  Se2  1  0.80914400  0.87558900  0.59179000  1
  Se  Se3  1  0.30451300  0.69820700  0.57873400  1
  O  O0  1  0.13480500  0.56708300  0.18023300  1
  O  O1  1  0.57674400  0.80881200  0.00827600  1
  O  O2  1  0.40141800  0.92003900  0.29526500  1
  O  O3  1  0.64288200  0.87010400  0.70794900  1
  O  O4  1  0.39499200  0.62686000  0.71175800  1
  O  O5  1  0.86915500  0.84739500  0.17389500  1
  O  O6  1  0.38291200  0.34392800  0.19397700  1
  O  O7  1  0.90286000  0.35817900  0.27044100  1
  O  O8  1  0.16371300  0.04833500  0.51988000  1
  O  O9  1  0.88676700  0.08239000  0.73820100  1
  O  O10  1  0.62796900  0.41465300  0.79609500  1
  O  O11  1  0.70544900  0.48774900  0.52469000  1
  O  O12  1  0.66368700  0.15266300  0.29639200  1
  O  O13  1  0.63199900  0.62787700  0.20418500  1
  O  O14  1  0.38304500  0.14718900  0.78982500  1
  O  O15  1  0.10775100  0.18018400  0.00398200  1
  O  O16  1  0.15946200  0.12315000  0.26945900  1
  O  O17  1  0.15664900  0.84708400  0.70980300  1
  O  O18  1  0.69476000  0.97451700  0.48363800  1
  O  O19  1  0.86437800  0.70379800  0.82549000  1
  O  O20  1  0.17661100  0.50634000  0.46801500  1
  O  O21  1  0.09813800  0.38200500  0.82167900  1
loop_
_geom_bond_atom_site_label_1
_geom_bond_atom_site_label_2
_geom_bond_distance
_geom_bond_site_symmetry_2
Ba0 O6 2.617001 1_555
Ba0 O13 2.673946 1_555
Ba0 O7 2.776888 1_555
Ba0 O12 2.914653 1_555
Ba0 O10 2.991647 1_554
Ba0 O9 3.019947 1_554
Ba0 O14 3.030911 1_554
Ba0 O3 3.195969 1_544
Ba1 O19 2.735699 1_455
Ba1 O21 2.759833 1_555
Ba1 O5 2.764856 1_456
Ba1 O0 2.836269 1_556
Ba1 O16 2.886056 1_566
Ba1 O17 2.960326 1_555
Ba1 O4 2.985436 1_555
Ba1 O2 3.219143 1_556
Ba1 O15 3.344805 1_566
Ba1 O1 3.442039 1_556
Mg0 O14 1.915926 1_555
Mg0 O10 1.918799 1_555
Mg0 O18 1.983738 1_545
Mo0 O5 1.751102 1_555
Mo0 O13 1.755266 1_555
Mo0 O1 1.862087 1_555
Mo0 O2 2.198591 1_555
Mo0 O12 2.216649 1_565
Mo0 O18 2.270302 1_555
Mo1 O21 1.751495 1_555
Mo1 O14 1.886027 1_555
Mo1 O15 2.058423 1_556
Mo1 O8 2.094828 1_555
Mo1 O9 2.213826 1_455
Mo1 O17 2.250238 1_545
Mo2 O19 1.753036 1_555
Mo2 O10 1.878545 1_555
Mo2 O11 2.065811 1_555
Mo2 O1 2.089667 1_556
Mo2 O4 2.225764 1_555
Mo2 O3 2.258573 1_555
Mo3 O0 1.747112 1_555
Mo3 O6 1.757078 1_555
Mo3 O15 1.878413 1_555
Mo3 O20 2.123646 1_555
Mo3 O7 2.233392 1_455
Mo3 O16 2.296339 1_555
O2 Se1 1.727676 1_565
O3 Se2 1.731647 1_555
O4 Se3 1.738549 1_555
O7 Se0 1.726028 1_555
O8 Se1 1.742336 1_555
O9 Se2 1.720117 1_545
O11 Se0 1.744398 1_555
O12 Se0 1.750418 1_555
O16 Se1 1.711142 1_555
O17 Se3 1.730446 1_555
O18 Se2 1.794840 1_555
O20 Se3 1.758327 1_555
