# generated using pymatgen
data_Sr3(VN2)2
_symmetry_space_group_name_H-M   'P 1'
_cell_length_a   5.91650953
_cell_length_b   10.16364247
_cell_length_c   9.74581873
_cell_angle_alpha   90.00000000
_cell_angle_beta   90.00000000
_cell_angle_gamma   90.00000000
_symmetry_Int_Tables_number   1
_chemical_formula_structural   Sr3(VN2)2
_chemical_formula_sum   'Sr12 V8 N16'
_cell_volume   586.04811994
_cell_formula_units_Z   4
loop_
 _symmetry_equiv_pos_site_id
 _symmetry_equiv_pos_as_xyz
  1  'x, y, z'
loop_
 _atom_site_type_symbol
 _atom_site_label
 _atom_site_symmetry_multiplicity
 _atom_site_fract_x
 _atom_site_fract_y
 _atom_site_fract_z
 _atom_site_occupancy
  Sr  Sr0  1  0.61640081  0.15709801  0.41805816  1
  Sr  Sr1  1  0.88359919  0.84290199  0.41805816  1
  Sr  Sr2  1  0.61640081  0.34290199  0.08194184  1
  Sr  Sr3  1  0.88359919  0.65709801  0.08194184  1
  Sr  Sr4  1  0.38359919  0.84290199  0.58194184  1
  Sr  Sr5  1  0.11640081  0.15709801  0.58194184  1
  Sr  Sr6  1  0.38359919  0.65709801  0.91805816  1
  Sr  Sr7  1  0.11640081  0.34290199  0.91805816  1
  Sr  Sr8  1  0.75000000  0.50000000  0.40347231  1
  Sr  Sr9  1  0.75000000  0.00000000  0.09652769  1
  Sr  Sr10  1  0.25000000  0.50000000  0.59652769  1
  Sr  Sr11  1  0.25000000  0.00000000  0.90347231  1
  V  V0  1  0.75000000  0.50000000  0.73664173  1
  V  V1  1  0.75000000  0.00000000  0.76335827  1
  V  V2  1  0.25000000  0.50000000  0.26335827  1
  V  V3  1  0.25000000  0.00000000  0.23664173  1
  V  V4  1  0.64961660  0.25000000  0.75000000  1
  V  V5  1  0.85038340  0.75000000  0.75000000  1
  V  V6  1  0.35038340  0.75000000  0.25000000  1
  V  V7  1  0.14961660  0.25000000  0.25000000  1
  N  N0  1  0.84830337  0.35313667  0.63205509  1
  N  N1  1  0.65169663  0.64686333  0.63205509  1
  N  N2  1  0.84830337  0.14686333  0.86794491  1
  N  N3  1  0.65169663  0.85313667  0.86794491  1
  N  N4  1  0.15169663  0.64686333  0.36794491  1
  N  N5  1  0.34830337  0.35313667  0.36794491  1
  N  N6  1  0.15169663  0.85313667  0.13205509  1
  N  N7  1  0.34830337  0.14686333  0.13205509  1
  N  N8  1  0.51631115  0.41422385  0.83394256  1
  N  N9  1  0.98368885  0.58577615  0.83394256  1
  N  N10  1  0.51631115  0.08577615  0.66605744  1
  N  N11  1  0.98368885  0.91422385  0.66605744  1
  N  N12  1  0.48368885  0.58577615  0.16605744  1
  N  N13  1  0.01631115  0.41422385  0.16605744  1
  N  N14  1  0.48368885  0.91422385  0.33394256  1
  N  N15  1  0.01631115  0.08577615  0.33394256  1
loop_
_geom_bond_atom_site_label_1
_geom_bond_atom_site_label_2
_geom_bond_distance
_geom_bond_site_symmetry_2
N0 V0 1.898753 1_555
N0 V4 1.949865 1_555
N0 Sr5 2.593162 1_655
N0 Sr8 2.743919 1_555
N0 Sr10 2.827784 1_655
N0 Sr0 3.194069 1_555
N0 Sr7 3.208751 1_655
N1 V0 1.898753 1_555
N1 V5 1.949865 1_555
N1 Sr4 2.593162 1_555
N1 Sr8 2.743919 1_555
N1 Sr10 2.827784 1_555
N1 Sr1 3.194069 1_555
N1 Sr6 3.208751 1_555
N2 V1 1.898753 1_555
N2 V4 1.949865 1_555
N2 Sr7 2.593162 1_655
N2 Sr9 2.743919 1_556
N2 Sr11 2.827784 1_655
N2 Sr2 3.194069 1_556
N2 Sr5 3.208751 1_655
N3 V1 1.898753 1_565
N3 V5 1.949865 1_555
N3 Sr6 2.593162 1_555
N3 Sr9 2.743919 1_566
N3 Sr11 2.827784 1_565
N3 Sr3 3.194069 1_556
N3 Sr4 3.208751 1_555
N4 V2 1.898753 1_555
N4 V6 1.949865 1_555
N4 Sr1 2.593162 1_455
N4 Sr10 2.743919 1_555
N4 Sr8 2.827784 1_455
N4 Sr4 3.194069 1_555
N4 Sr3 3.208751 1_455
N5 V2 1.898753 1_555
N5 V7 1.949865 1_555
N5 Sr0 2.593162 1_555
N5 Sr10 2.743919 1_555
N5 Sr8 2.827784 1_555
N5 Sr5 3.194069 1_555
N5 Sr2 3.208751 1_555
N6 V3 1.898753 1_565
N6 V6 1.949865 1_555
N6 Sr3 2.593162 1_455
N6 Sr11 2.743919 1_564
N6 Sr9 2.827784 1_465
N6 Sr6 3.194069 1_554
N6 Sr1 3.208751 1_455
N7 V3 1.898753 1_555
N7 V7 1.949865 1_555
N7 Sr2 2.593162 1_555
N7 Sr11 2.743919 1_554
N7 Sr9 2.827784 1_555
N7 Sr7 3.194069 1_554
N7 Sr0 3.208751 1_555
N8 V0 1.889684 1_555
N8 V4 2.019222 1_555
N8 Sr2 2.591876 1_556
N8 Sr7 2.606876 1_555
N8 Sr6 2.716980 1_555
N8 Sr10 2.931950 1_555
N9 V0 1.889684 1_555
N9 V5 2.019222 1_555
N9 Sr3 2.591876 1_556
N9 Sr6 2.606876 1_655
N9 Sr7 2.716980 1_655
N9 Sr10 2.931950 1_655
N10 V1 1.889684 1_555
N10 V4 2.019222 1_555
N10 Sr0 2.591876 1_555
N10 Sr5 2.606876 1_555
N10 Sr4 2.716980 1_545
N10 Sr11 2.931950 1_555
N11 V1 1.889684 1_565
N11 V5 2.019222 1_555
N11 Sr1 2.591876 1_555
N11 Sr4 2.606876 1_655
N11 Sr5 2.716980 1_665
N11 Sr11 2.931950 1_665
N12 V2 1.889684 1_555
N12 V6 2.019222 1_555
N12 Sr6 2.591876 1_554
N12 Sr3 2.606876 1_555
N12 Sr2 2.716980 1_555
N12 Sr8 2.931950 1_555
N13 V2 1.889684 1_555
N13 V7 2.019222 1_555
N13 Sr7 2.591876 1_554
N13 Sr2 2.606876 1_455
N13 Sr3 2.716980 1_455
N13 Sr8 2.931950 1_455
N14 V3 1.889684 1_565
N14 V6 2.019222 1_555
N14 Sr4 2.591876 1_555
N14 Sr1 2.606876 1_555
N14 Sr0 2.716980 1_565
N14 Sr9 2.931950 1_565
N15 V3 1.889684 1_555
N15 V7 2.019222 1_555
N15 Sr5 2.591876 1_555
N15 Sr0 2.606876 1_455
N15 Sr1 2.716980 1_445
N15 Sr9 2.931950 1_455
