# generated using pymatgen
data_SrMgPb2
_symmetry_space_group_name_H-M   'P 1'
_cell_length_a   12.07669720
_cell_length_b   13.23597854
_cell_length_c   13.23597833
_cell_angle_alpha   61.83401109
_cell_angle_beta   62.85736639
_cell_angle_gamma   62.85736514
_symmetry_Int_Tables_number   1
_chemical_formula_structural   SrMgPb2
_chemical_formula_sum   'Sr1 Mg1 Pb2'
_cell_volume   1579.61817648
_cell_formula_units_Z   1
loop_
 _symmetry_equiv_pos_site_id
 _symmetry_equiv_pos_as_xyz
  1  'x, y, z'
loop_
 _atom_site_type_symbol
 _atom_site_label
 _atom_site_symmetry_multiplicity
 _atom_site_fract_x
 _atom_site_fract_y
 _atom_site_fract_z
 _atom_site_occupancy
  Sr  Sr0  1  0.50000000  0.00000000  -0.00000000  1
  Mg  Mg0  1  0.00000000  0.00000000  -0.00000000  1
  Pb  Pb0  1  0.76647627  0.00000000  1.00000000  1
  Pb  Pb1  1  0.23352373  1.00000000  0.00000000  1
loop_
_geom_bond_atom_site_label_1
_geom_bond_atom_site_label_2
_geom_bond_distance
_geom_bond_site_symmetry_2
Mg0 Pb0 2.820195 1_454
Mg0 Pb1 2.820195 1_545
Pb0 Sr0 3.218153 1_556
Pb1 Sr0 3.218153 1_565
