# generated using pymatgen
data_ErGa2Cu3
_symmetry_space_group_name_H-M   'P 1'
_cell_length_a   5.04782764
_cell_length_b   5.04782764
_cell_length_c   4.06878465
_cell_angle_alpha   90.00000000
_cell_angle_beta   90.00000000
_cell_angle_gamma   118.55179723
_symmetry_Int_Tables_number   1
_chemical_formula_structural   ErGa2Cu3
_chemical_formula_sum   'Er1 Ga2 Cu3'
_cell_volume   91.06654093
_cell_formula_units_Z   1
loop_
 _symmetry_equiv_pos_site_id
 _symmetry_equiv_pos_as_xyz
  1  'x, y, z'
loop_
 _atom_site_type_symbol
 _atom_site_label
 _atom_site_symmetry_multiplicity
 _atom_site_fract_x
 _atom_site_fract_y
 _atom_site_fract_z
 _atom_site_occupancy
  Er  Er0  1  0.50000000  0.50000000  0.00000000  1
  Ga  Ga0  1  -0.00000000  0.50000000  0.50000000  1
  Ga  Ga1  1  0.50000000  0.00000000  0.50000000  1
  Cu  Cu0  1  0.16240454  0.83759546  -0.00000000  1
  Cu  Cu1  1  0.83759546  0.16240454  -0.00000000  1
  Cu  Cu2  1  -0.00000000  0.00000000  0.50000000  1
loop_
_geom_bond_atom_site_label_1
_geom_bond_atom_site_label_2
_geom_bond_distance
_geom_bond_site_symmetry_2
Er0 Ga1 3.241742 1_555
Er0 Ga0 3.241742 1_554
Er0 Ga1 3.241742 1_554
Er0 Ga1 3.241742 1_564
Er0 Ga0 3.241742 1_555
Er0 Ga1 3.241742 1_565
Er0 Ga0 3.241742 1_655
Er0 Ga0 3.241742 1_654
Ga0 Ga1 2.578958 1_565
Ga0 Ga1 2.578958 1_455
Cu0 Cu2 2.474932 1_564
Cu0 Cu2 2.474932 1_565
Cu0 Ga0 2.525752 1_555
Cu0 Ga1 2.525752 1_565
Cu0 Ga0 2.525752 1_554
Cu0 Ga1 2.525752 1_564
Cu0 Cu1 2.818889 1_465
Cu0 Er0 2.929857 1_555
Cu0 Er0 2.938973 1_565
Cu0 Er0 2.938973 1_455
Cu0 Cu1 2.993773 1_455
Cu0 Cu1 2.993773 1_565
Cu1 Cu2 2.474932 1_654
Cu1 Cu2 2.474932 1_655
Cu1 Ga0 2.525752 1_655
Cu1 Ga0 2.525752 1_654
Cu1 Ga1 2.525752 1_555
Cu1 Ga1 2.525752 1_554
Cu1 Er0 2.929857 1_555
Cu1 Er0 2.938973 1_655
Cu1 Er0 2.938973 1_545
Cu2 Ga1 2.523914 1_555
Cu2 Ga0 2.523914 1_555
Cu2 Ga1 2.523914 1_455
Cu2 Ga0 2.523914 1_545
Cu2 Er0 3.284780 1_446
Cu2 Er0 3.284780 1_445
Cu2 Er0 3.284780 1_556
Cu2 Er0 3.284780 1_555
