# generated using pymatgen
data_Gd2O3
_symmetry_space_group_name_H-M   'P 1'
_cell_length_a   3.83917000
_cell_length_b   3.83917000
_cell_length_c   5.63747800
_cell_angle_alpha   90.00000000
_cell_angle_beta   90.00000000
_cell_angle_gamma   90.00000000
_symmetry_Int_Tables_number   1
_chemical_formula_structural   Gd2O3
_chemical_formula_sum   'Gd2 O3'
_cell_volume   83.09206394
_cell_formula_units_Z   1
loop_
 _symmetry_equiv_pos_site_id
 _symmetry_equiv_pos_as_xyz
  1  'x, y, z'
loop_
 _atom_site_type_symbol
 _atom_site_label
 _atom_site_symmetry_multiplicity
 _atom_site_fract_x
 _atom_site_fract_y
 _atom_site_fract_z
 _atom_site_occupancy
  Gd  Gd0  1  0.50000000  0.00000000  0.78510500  1
  Gd  Gd1  1  0.00000000  0.50000000  0.21489500  1
  O  O0  1  0.00000000  0.00000000  0.00000000  1
  O  O1  1  0.50000000  0.50000000  0.00000000  1
  O  O2  1  0.00000000  0.00000000  0.50000000  1
loop_
_geom_bond_atom_site_label_1
_geom_bond_atom_site_label_2
_geom_bond_distance
_geom_bond_site_symmetry_2
Gd0 O1 2.269902 1_546
Gd0 O0 2.269902 1_556
Gd0 O0 2.269902 1_656
Gd0 O1 2.269902 1_556
Gd0 O2 2.503624 1_555
Gd0 O2 2.503624 1_655
Gd1 O1 2.269902 1_555
Gd1 O1 2.269902 1_455
Gd1 O0 2.269902 1_555
Gd1 O0 2.269902 1_565
Gd1 O2 2.503624 1_565
Gd1 O2 2.503624 1_555
