# generated using pymatgen
data_K2RbLaV2O8
_symmetry_space_group_name_H-M   'P 1'
_cell_length_a   6.19075516
_cell_length_b   6.19075516
_cell_length_c   7.97053300
_cell_angle_alpha   90.00000000
_cell_angle_beta   90.00000000
_cell_angle_gamma   119.99999107
_symmetry_Int_Tables_number   1
_chemical_formula_structural   K2RbLaV2O8
_chemical_formula_sum   'K2 Rb1 La1 V2 O8'
_cell_volume   264.54849320
_cell_formula_units_Z   1
loop_
 _symmetry_equiv_pos_site_id
 _symmetry_equiv_pos_as_xyz
  1  'x, y, z'
loop_
 _atom_site_type_symbol
 _atom_site_label
 _atom_site_symmetry_multiplicity
 _atom_site_fract_x
 _atom_site_fract_y
 _atom_site_fract_z
 _atom_site_occupancy
  K  K0  1  0.33333300  0.66666700  0.70778900  1
  K  K1  1  0.66666700  0.33333300  0.29221100  1
  Rb  Rb0  1  0.00000000  0.00000000  0.00000000  1
  La  La0  1  0.00000000  0.00000000  0.50000000  1
  V  V0  1  0.33333300  0.66666700  0.24371900  1
  V  V1  1  0.66666700  0.33333300  0.75628100  1
  O  O0  1  0.33333300  0.66666700  0.03154100  1
  O  O1  1  0.66666700  0.33333300  0.96845900  1
  O  O2  1  0.17881800  0.82118200  0.32066100  1
  O  O3  1  0.82118200  0.17881800  0.67933900  1
  O  O4  1  0.17881800  0.35763600  0.32066100  1
  O  O5  1  0.82118200  0.64236400  0.67933900  1
  O  O6  1  0.64236400  0.82118200  0.32066100  1
  O  O7  1  0.35763600  0.17881800  0.67933900  1
loop_
_geom_bond_atom_site_label_1
_geom_bond_atom_site_label_2
_geom_bond_distance
_geom_bond_site_symmetry_2
K0 O0 2.580476 1_556
K0 O7 3.106403 1_565
K0 O5 3.106403 1_455
K0 O3 3.106407 1_455
K0 O3 3.106407 1_565
K0 O7 3.106409 1_555
K0 O5 3.106409 1_555
K1 O1 2.580476 1_554
K1 O4 3.106403 1_655
K1 O6 3.106403 1_545
K1 O2 3.106407 1_655
K1 O2 3.106407 1_545
K1 O6 3.106409 1_555
K1 O4 3.106409 1_555
La0 O3 2.391596 1_455
La0 O2 2.391596 1_545
La0 O6 2.391596 1_445
La0 O5 2.391596 1_445
La0 O7 2.391596 1_555
La0 O4 2.391596 1_555
O0 V0 1.691172 1_555
O1 V1 1.691172 1_555
O2 V0 1.766676 1_555
O2 Rb0 3.195119 1_565
O3 V1 1.766676 1_555
O3 Rb0 3.195119 1_656
O4 V0 1.766682 1_555
O4 Rb0 3.195119 1_555
O5 V1 1.766682 1_555
O5 Rb0 3.195119 1_666
O6 V0 1.766682 1_555
O6 Rb0 3.195119 1_665
O7 V1 1.766682 1_555
O7 Rb0 3.195119 1_556
