# generated using pymatgen
data_Tm2Fe15Si2
_symmetry_space_group_name_H-M   'P 1'
_cell_length_a   8.29621033
_cell_length_b   8.29621033
_cell_length_c   8.33396000
_cell_angle_alpha   90.00000000
_cell_angle_beta   90.00000000
_cell_angle_gamma   120.00000266
_symmetry_Int_Tables_number   1
_chemical_formula_structural   Tm2Fe15Si2
_chemical_formula_sum   'Tm4 Fe30 Si4'
_cell_volume   496.75419125
_cell_formula_units_Z   2
loop_
 _symmetry_equiv_pos_site_id
 _symmetry_equiv_pos_as_xyz
  1  'x, y, z'
loop_
 _atom_site_type_symbol
 _atom_site_label
 _atom_site_symmetry_multiplicity
 _atom_site_fract_x
 _atom_site_fract_y
 _atom_site_fract_z
 _atom_site_occupancy
  Tm  Tm0  1  0.00000000  0.00000000  0.25000000  1
  Tm  Tm1  1  0.00000000  0.00000000  0.75000000  1
  Tm  Tm2  1  0.33333300  0.66666700  0.75000000  1
  Tm  Tm3  1  0.66666700  0.33333300  0.25000000  1
  Fe  Fe0  1  0.50000000  0.50000000  0.50000000  1
  Fe  Fe1  1  0.50000000  0.00000000  0.50000000  1
  Fe  Fe2  1  0.00000000  0.50000000  0.50000000  1
  Fe  Fe3  1  0.50000000  0.50000000  0.00000000  1
  Fe  Fe4  1  0.50000000  0.00000000  0.00000000  1
  Fe  Fe5  1  0.00000000  0.50000000  0.00000000  1
  Fe  Fe6  1  0.33057200  0.36001900  0.25000000  1
  Fe  Fe7  1  0.63998100  0.97055300  0.25000000  1
  Fe  Fe8  1  0.02944700  0.66942800  0.25000000  1
  Fe  Fe9  1  0.63998100  0.66942800  0.25000000  1
  Fe  Fe10  1  0.02944700  0.36001900  0.25000000  1
  Fe  Fe11  1  0.33057200  0.97055300  0.25000000  1
  Fe  Fe12  1  0.66942800  0.63998100  0.75000000  1
  Fe  Fe13  1  0.36001900  0.02944700  0.75000000  1
  Fe  Fe14  1  0.97055300  0.33057200  0.75000000  1
  Fe  Fe15  1  0.36001900  0.33057200  0.75000000  1
  Fe  Fe16  1  0.97055300  0.63998100  0.75000000  1
  Fe  Fe17  1  0.66942800  0.02944700  0.75000000  1
  Fe  Fe18  1  0.16659900  0.83340100  0.51053000  1
  Fe  Fe19  1  0.16659900  0.33319700  0.51053000  1
  Fe  Fe20  1  0.66680300  0.83340100  0.51053000  1
  Fe  Fe21  1  0.83340100  0.16659900  0.48947000  1
  Fe  Fe22  1  0.83340100  0.66680300  0.48947000  1
  Fe  Fe23  1  0.33319700  0.16659900  0.48947000  1
  Fe  Fe24  1  0.83340100  0.16659900  0.01053000  1
  Fe  Fe25  1  0.83340100  0.66680300  0.01053000  1
  Fe  Fe26  1  0.33319700  0.16659900  0.01053000  1
  Fe  Fe27  1  0.16659900  0.83340100  0.98947000  1
  Fe  Fe28  1  0.16659900  0.33319700  0.98947000  1
  Fe  Fe29  1  0.66680300  0.83340100  0.98947000  1
  Si  Si0  1  0.33333300  0.66666700  0.39754300  1
  Si  Si1  1  0.66666700  0.33333300  0.60245700  1
  Si  Si2  1  0.66666700  0.33333300  0.89754300  1
  Si  Si3  1  0.33333300  0.66666700  0.10245700  1
loop_
_geom_bond_atom_site_label_1
_geom_bond_atom_site_label_2
_geom_bond_distance
_geom_bond_site_symmetry_2
Fe0 Fe20 2.397003 1_555
Fe0 Fe22 2.397003 1_555
Fe0 Fe19 2.397003 1_555
Fe0 Fe23 2.397003 1_555
Fe0 Fe15 2.456209 1_555
Fe0 Fe9 2.456209 1_555
Fe0 Fe12 2.456209 1_555
Fe0 Fe6 2.456209 1_555
Fe0 Si0 2.542580 1_555
Fe0 Si1 2.542580 1_555
Fe0 Tm2 3.174358 1_555
Fe0 Tm3 3.174358 1_555
Fe1 Fe21 2.397003 1_555
Fe1 Fe18 2.397003 1_545
Fe1 Fe23 2.397010 1_555
Fe1 Fe20 2.397010 1_545
Fe1 Fe11 2.456209 1_545
Fe1 Fe17 2.456209 1_555
Fe1 Fe13 2.456209 1_555
Fe1 Fe7 2.456209 1_545
Fe1 Si0 2.542573 1_545
Fe1 Si1 2.542573 1_555
Fe1 Tm2 3.174352 1_545
Fe1 Tm3 3.174352 1_555
Fe2 Fe21 2.397003 1_455
Fe2 Fe22 2.397010 1_455
Fe2 Fe8 2.456209 1_555
Fe2 Si1 2.542573 1_455
Fe2 Si0 2.542573 1_555
Fe2 Tm3 3.174352 1_455
Fe2 Tm2 3.174352 1_555
Fe3 Fe6 2.456209 1_555
Fe3 Fe9 2.456209 1_555
Fe3 Si3 2.542580 1_555
Fe3 Si2 2.542580 1_554
Fe3 Tm3 3.174358 1_555
Fe3 Tm2 3.174358 1_554
Fe4 Fe7 2.456209 1_545
Fe4 Si2 2.542573 1_554
Fe4 Si3 2.542573 1_545
Fe4 Tm2 3.174352 1_544
Fe4 Tm3 3.174352 1_555
Fe5 Fe8 2.456209 1_555
Fe5 Si2 2.542573 1_454
Fe5 Si3 2.542573 1_555
Fe5 Tm2 3.174352 1_554
Fe5 Tm3 3.174352 1_455
Fe6 Fe9 2.566922 1_555
Fe6 Si0 2.815356 1_555
Fe6 Si3 2.815356 1_555
Fe6 Tm0 2.872446 1_555
Fe6 Tm3 2.905345 1_555
Fe7 Fe9 2.498196 1_555
Fe7 Si3 2.815352 1_555
Fe7 Si0 2.815352 1_555
Fe7 Tm0 2.872446 1_665
Fe7 Tm3 2.905336 1_565
Fe8 Si0 2.815349 1_555
Fe8 Si3 2.815349 1_555
Fe8 Tm0 2.872446 1_565
Fe8 Tm3 2.905340 1_455
Fe9 Si0 2.815356 1_555
Fe9 Si3 2.815356 1_555
Fe9 Tm0 2.872446 1_665
Fe9 Tm3 2.905345 1_555
Fe10 Fe5 2.456209 1_555
Fe10 Fe2 2.456209 1_555
Fe10 Fe6 2.498196 1_555
Fe10 Fe28 2.512311 1_554
Fe10 Fe19 2.512311 1_555
Fe10 Fe8 2.566922 1_555
Fe10 Fe24 2.567741 1_455
Fe10 Fe21 2.567741 1_455
Fe10 Si3 2.815352 1_555
Fe10 Si0 2.815352 1_555
Fe10 Tm0 2.872446 1_555
Fe10 Tm3 2.905336 1_455
Fe11 Fe4 2.456209 1_565
Fe11 Fe8 2.498196 1_555
Fe11 Fe27 2.512308 1_554
Fe11 Fe18 2.512308 1_555
Fe11 Fe7 2.566922 1_555
Fe11 Fe26 2.567744 1_565
Fe11 Fe23 2.567744 1_565
Fe11 Si0 2.815349 1_555
Fe11 Si3 2.815349 1_555
Fe11 Tm0 2.872446 1_565
Fe11 Tm3 2.905340 1_565
Fe12 Fe3 2.456209 1_556
Fe12 Fe16 2.498196 1_555
Fe12 Fe25 2.512307 1_556
Fe12 Fe22 2.512307 1_555
Fe12 Fe15 2.566922 1_555
Fe12 Fe20 2.567739 1_555
Fe12 Fe29 2.567739 1_555
Fe12 Si1 2.815356 1_555
Fe12 Si2 2.815356 1_555
Fe12 Tm1 2.872446 1_665
Fe12 Tm2 2.905345 1_555
Fe13 Fe4 2.456209 1_556
Fe13 Fe15 2.498196 1_555
Fe13 Fe26 2.512311 1_556
Fe13 Fe23 2.512311 1_555
Fe13 Fe17 2.566922 1_555
Fe13 Fe18 2.567741 1_545
Fe13 Fe27 2.567741 1_545
Fe13 Si2 2.815352 1_555
Fe13 Si1 2.815352 1_555
Fe13 Tm1 2.872446 1_555
Fe13 Tm2 2.905336 1_545
Fe14 Fe2 2.456209 1_655
Fe14 Fe5 2.456209 1_656
Fe14 Fe17 2.498196 1_555
Fe14 Fe24 2.512308 1_556
Fe14 Fe21 2.512308 1_555
Fe14 Fe16 2.566922 1_555
Fe14 Fe19 2.567744 1_655
Fe14 Fe28 2.567744 1_655
Fe14 Si1 2.815349 1_555
Fe14 Si2 2.815349 1_555
Fe14 Tm1 2.872446 1_655
Fe14 Tm2 2.905340 1_655
Fe15 Fe3 2.456209 1_556
Fe15 Fe26 2.512307 1_556
Fe15 Fe23 2.512307 1_555
Fe15 Fe28 2.567739 1_555
Fe15 Fe19 2.567739 1_555
Fe15 Si1 2.815356 1_555
Fe15 Si2 2.815356 1_555
Fe15 Tm1 2.872446 1_555
Fe15 Tm2 2.905345 1_555
Fe16 Fe5 2.456209 1_656
Fe16 Fe2 2.456209 1_655
Fe16 Fe25 2.512311 1_556
Fe16 Fe22 2.512311 1_555
Fe16 Fe18 2.567741 1_655
Fe16 Fe27 2.567741 1_655
Fe16 Si2 2.815352 1_555
Fe16 Si1 2.815352 1_555
Fe16 Tm1 2.872446 1_665
Fe16 Tm2 2.905336 1_655
Fe17 Fe4 2.456209 1_556
Fe17 Fe24 2.512308 1_556
Fe17 Fe21 2.512308 1_555
Fe17 Fe29 2.567744 1_545
Fe17 Fe20 2.567744 1_545
Fe17 Si1 2.815349 1_555
Fe17 Si2 2.815349 1_555
Fe17 Tm1 2.872446 1_655
Fe17 Tm2 2.905340 1_545
Fe18 Fe2 2.397003 1_555
Fe18 Fe23 2.400363 1_565
Fe18 Fe22 2.400363 1_455
Fe18 Fe8 2.512308 1_555
Fe18 Si0 2.574275 1_555
Fe18 Tm1 3.116711 1_565
Fe18 Tm2 3.118201 1_555
Fe18 Tm0 3.231911 1_565
Fe19 Fe2 2.397010 1_555
Fe19 Fe23 2.400348 1_555
Fe19 Fe21 2.400363 1_455
Fe19 Fe6 2.512307 1_555
Fe19 Si0 2.574289 1_555
Fe19 Tm1 3.116705 1_555
Fe19 Tm2 3.118212 1_555
Fe19 Tm0 3.231905 1_555
Fe20 Fe22 2.400348 1_555
Fe20 Fe21 2.400363 1_565
Fe20 Fe9 2.512307 1_555
Fe20 Fe7 2.512311 1_555
Fe20 Si0 2.574289 1_555
Fe20 Tm1 3.116705 1_665
Fe20 Tm2 3.118212 1_555
Fe20 Tm0 3.231905 1_665
Fe21 Fe7 2.567741 1_545
Fe21 Si1 2.574275 1_555
Fe21 Tm0 3.116711 1_655
Fe21 Tm3 3.118201 1_555
Fe21 Tm1 3.231911 1_655
Fe22 Fe9 2.567739 1_555
Fe22 Fe8 2.567744 1_655
Fe22 Si1 2.574289 1_555
Fe22 Tm0 3.116705 1_665
Fe22 Tm3 3.118212 1_555
Fe22 Tm1 3.231905 1_665
Fe23 Fe6 2.567739 1_555
Fe23 Si1 2.574289 1_555
Fe23 Tm0 3.116705 1_555
Fe23 Tm3 3.118212 1_555
Fe23 Tm1 3.231905 1_555
Fe24 Fe4 2.397003 1_555
Fe24 Fe5 2.397003 1_655
Fe24 Fe28 2.400363 1_654
Fe24 Fe29 2.400363 1_544
Fe24 Fe7 2.567741 1_545
Fe24 Si2 2.574275 1_554
Fe24 Tm0 3.116711 1_655
Fe24 Tm3 3.118201 1_555
Fe24 Tm1 3.231911 1_654
Fe25 Fe3 2.397003 1_555
Fe25 Fe5 2.397010 1_655
Fe25 Fe29 2.400348 1_554
Fe25 Fe27 2.400363 1_654
Fe25 Fe9 2.567739 1_555
Fe25 Fe8 2.567744 1_655
Fe25 Si2 2.574289 1_554
Fe25 Tm0 3.116705 1_665
Fe25 Tm3 3.118212 1_555
Fe25 Tm1 3.231905 1_664
Fe26 Fe3 2.397003 1_555
Fe26 Fe4 2.397010 1_555
Fe26 Fe28 2.400348 1_554
Fe26 Fe27 2.400363 1_544
Fe26 Fe6 2.567739 1_555
Fe26 Si2 2.574289 1_554
Fe26 Tm0 3.116705 1_555
Fe26 Tm3 3.118212 1_555
Fe26 Tm1 3.231905 1_554
Fe27 Fe5 2.397003 1_556
Fe27 Fe4 2.397003 1_566
Fe27 Fe8 2.512308 1_556
Fe27 Si3 2.574275 1_556
Fe27 Tm1 3.116711 1_565
Fe27 Tm2 3.118201 1_555
Fe27 Tm0 3.231911 1_566
Fe28 Fe3 2.397003 1_556
Fe28 Fe5 2.397010 1_556
Fe28 Fe6 2.512307 1_556
Fe28 Si3 2.574289 1_556
Fe28 Tm1 3.116705 1_555
Fe28 Tm2 3.118212 1_555
Fe28 Tm0 3.231905 1_556
Fe29 Fe3 2.397003 1_556
Fe29 Fe4 2.397010 1_566
Fe29 Fe9 2.512307 1_556
Fe29 Fe7 2.512311 1_556
Fe29 Si3 2.574289 1_556
Fe29 Tm1 3.116705 1_665
Fe29 Tm2 3.118212 1_555
Fe29 Tm0 3.231905 1_666
Si0 Si3 2.459235 1_555
Si0 Tm2 2.937363 1_555
Si1 Si2 2.459235 1_555
Si1 Tm3 2.937363 1_555
Si2 Tm3 2.937363 1_556
Si3 Tm2 2.937363 1_554
