# generated using pymatgen
data_MgWO2
_symmetry_space_group_name_H-M   'P 1'
_cell_length_a   2.95949300
_cell_length_b   7.92291256
_cell_length_c   8.43815775
_cell_angle_alpha   92.47932286
_cell_angle_beta   95.82652281
_cell_angle_gamma   96.48951068
_symmetry_Int_Tables_number   1
_chemical_formula_structural   MgWO2
_chemical_formula_sum   'Mg4 W4 O8'
_cell_volume   195.27286552
_cell_formula_units_Z   4
loop_
 _symmetry_equiv_pos_site_id
 _symmetry_equiv_pos_as_xyz
  1  'x, y, z'
loop_
 _atom_site_type_symbol
 _atom_site_label
 _atom_site_symmetry_multiplicity
 _atom_site_fract_x
 _atom_site_fract_y
 _atom_site_fract_z
 _atom_site_occupancy
  Mg  Mg0  1  0.66400200  0.99224500  0.32842300  1
  Mg  Mg1  1  0.53902100  0.05092900  0.75435700  1
  Mg  Mg2  1  0.32299500  0.30979100  0.08236400  1
  Mg  Mg3  1  0.93172900  0.69014100  0.98800100  1
  W  W0  1  0.34672800  0.69189100  0.62157200  1
  W  W1  1  0.99434300  0.62063100  0.31655600  1
  W  W2  1  0.95245100  0.39866200  0.70178000  1
  W  W3  1  0.27554600  0.34054400  0.45027800  1
  O  O0  1  0.75306900  0.16566100  0.54917200  1
  O  O1  1  0.36953100  0.58297400  0.84710300  1
  O  O2  1  0.87973500  0.47079400  0.10770800  1
  O  O3  1  0.17741000  0.85767800  0.44113300  1
  O  O4  1  0.96121600  0.85889400  0.75515900  1
  O  O5  1  0.48835700  0.76393000  0.16559500  1
  O  O6  1  0.18373100  0.15598700  0.25762700  1
  O  O7  1  0.12691000  0.20991400  0.85878800  1
loop_
_geom_bond_atom_site_label_1
_geom_bond_atom_site_label_2
_geom_bond_distance
_geom_bond_site_symmetry_2
Mg0 O3 2.033166 1_555
Mg0 O6 2.051416 1_665
Mg0 O6 2.090842 1_565
Mg0 O3 2.123769 1_655
Mg0 O5 2.203997 1_555
Mg0 O0 2.241423 1_565
Mg1 O4 2.074859 1_545
Mg1 O7 2.078495 1_555
Mg1 O0 2.110442 1_555
Mg1 O7 2.118386 1_655
Mg1 O4 2.157361 1_445
Mg2 O2 1.950749 1_455
Mg2 O2 1.953841 1_555
Mg2 O6 2.002018 1_555
Mg2 O7 2.016642 1_554
Mg3 O1 2.023476 1_555
Mg3 O2 2.046255 1_556
Mg3 O1 2.070585 1_655
Mg3 O5 2.122850 1_656
Mg3 O5 2.192277 1_556
Mg3 O4 2.427181 1_555
O0 W2 2.192749 1_555
O0 W3 2.210174 1_655
O0 W3 2.217347 1_555
O1 W2 2.071249 1_455
O1 W0 2.121332 1_555
O2 W1 2.058313 1_555
O3 W1 2.099852 1_455
O3 W0 2.112239 1_555
O4 W0 2.190064 1_655
O4 W0 2.288977 1_555
O5 W1 2.275354 1_455
O5 W1 2.296996 1_555
O6 W3 2.114104 1_555
O7 W2 2.113104 1_455
