# generated using pymatgen
data_Mn3Cr3Si7Ni16
_symmetry_space_group_name_H-M   'P 1'
_cell_length_a   7.84196383
_cell_length_b   7.84196383
_cell_length_c   7.84196425
_cell_angle_alpha   60.03424431
_cell_angle_beta   60.03424431
_cell_angle_gamma   60.03424005
_symmetry_Int_Tables_number   1
_chemical_formula_structural   Mn3Cr3Si7Ni16
_chemical_formula_sum   'Mn3 Cr3 Si7 Ni16'
_cell_volume   341.26873363
_cell_formula_units_Z   1
loop_
 _symmetry_equiv_pos_site_id
 _symmetry_equiv_pos_as_xyz
  1  'x, y, z'
loop_
 _atom_site_type_symbol
 _atom_site_label
 _atom_site_symmetry_multiplicity
 _atom_site_fract_x
 _atom_site_fract_y
 _atom_site_fract_z
 _atom_site_occupancy
  Mn  Mn0  1  0.19648200  0.80303100  0.19648200  1
  Mn  Mn1  1  0.80303100  0.19648200  0.19648200  1
  Mn  Mn2  1  0.19648200  0.19648200  0.80303100  1
  Cr  Cr0  1  0.80322000  0.19485000  0.80322000  1
  Cr  Cr1  1  0.19485000  0.80322000  0.80322000  1
  Cr  Cr2  1  0.80322000  0.80322000  0.19485000  1
  Si  Si0  1  0.50052800  0.50052800  0.50052800  1
  Si  Si1  1  0.00053500  0.50257600  0.00053500  1
  Si  Si2  1  0.50257600  0.00053500  0.00053500  1
  Si  Si3  1  0.00053500  0.00053500  0.50257600  1
  Si  Si4  1  0.50051000  0.99660600  0.50051000  1
  Si  Si5  1  0.99660600  0.50051000  0.50051000  1
  Si  Si6  1  0.50051000  0.50051000  0.99660600  1
  Ni  Ni0  1  0.16479800  0.16479800  0.16479800  1
  Ni  Ni1  1  0.16679200  0.16679200  0.50279200  1
  Ni  Ni2  1  0.50279200  0.16679200  0.16679200  1
  Ni  Ni3  1  0.16679200  0.50279200  0.16679200  1
  Ni  Ni4  1  0.83297700  0.83297700  0.83297700  1
  Ni  Ni5  1  0.83585100  0.83585100  0.49528000  1
  Ni  Ni6  1  0.49528000  0.83585100  0.83585100  1
  Ni  Ni7  1  0.83585100  0.49528000  0.83585100  1
  Ni  Ni8  1  0.38261600  0.38261600  0.38261600  1
  Ni  Ni9  1  0.38203200  0.38203200  0.85321300  1
  Ni  Ni10  1  0.85321300  0.38203200  0.38203200  1
  Ni  Ni11  1  0.38203200  0.85321300  0.38203200  1
  Ni  Ni12  1  0.61790200  0.61790200  0.61790200  1
  Ni  Ni13  1  0.61727000  0.61727000  0.14744600  1
  Ni  Ni14  1  0.14744600  0.61727000  0.61727000  1
  Ni  Ni15  1  0.61727000  0.14744600  0.61727000  1
loop_
_geom_bond_atom_site_label_1
_geom_bond_atom_site_label_2
_geom_bond_distance
_geom_bond_site_symmetry_2
Mn0 Ni3 2.607931 1_555
Mn0 Ni5 2.609626 1_455
Mn0 Ni6 2.609626 1_554
Mn0 Ni0 2.612507 1_565
Mn0 Ni8 2.764840 1_555
Mn0 Ni11 2.765582 1_555
Mn0 Ni13 2.765627 1_555
Mn0 Ni14 2.765627 1_555
Mn0 Si6 2.846124 1_554
Mn0 Si5 2.846124 1_455
Mn0 Si3 2.858957 1_565
Mn0 Si2 2.858957 1_565
Mn0 Mn1 3.087025 1_465
Mn0 Mn2 3.087025 1_564
Mn1 Ni2 2.607931 1_555
Mn1 Ni5 2.609626 1_545
Mn1 Ni7 2.609626 1_554
Mn1 Ni0 2.612507 1_655
Mn1 Ni8 2.764840 1_555
Mn1 Ni10 2.765582 1_555
Mn1 Ni13 2.765627 1_555
Mn1 Ni15 2.765627 1_555
Mn1 Si6 2.846124 1_554
Mn1 Si4 2.846124 1_545
Mn1 Si3 2.858957 1_655
Mn1 Si1 2.858957 1_655
Mn1 Mn2 3.087025 1_654
Mn2 Ni1 2.607931 1_555
Mn2 Ni7 2.609626 1_455
Mn2 Ni6 2.609626 1_545
Mn2 Ni0 2.612507 1_556
Mn2 Ni8 2.764840 1_555
Mn2 Ni9 2.765582 1_555
Mn2 Ni15 2.765627 1_555
Mn2 Ni14 2.765627 1_555
Mn2 Si4 2.846124 1_545
Mn2 Si5 2.846124 1_455
Mn2 Si1 2.858957 1_556
Mn2 Si2 2.858957 1_556
Cr0 Ni4 2.625517 1_545
Cr0 Ni1 2.628460 1_655
Cr0 Ni2 2.628460 1_556
Cr0 Ni7 2.636554 1_555
Cr0 Ni15 2.756479 1_555
Cr0 Ni9 2.766913 1_555
Cr0 Ni10 2.766913 1_555
Cr0 Ni12 2.776208 1_555
Cr0 Si3 2.804265 1_655
Cr0 Si2 2.804265 1_556
Cr0 Si6 2.833965 1_555
Cr0 Si5 2.833966 1_555
Cr0 Cr1 3.072738 1_645
Cr0 Cr2 3.072738 1_546
Cr0 Mn2 3.089617 1_655
Cr0 Mn1 3.089617 1_556
Cr1 Ni4 2.625517 1_455
Cr1 Ni1 2.628460 1_565
Cr1 Ni3 2.628460 1_556
Cr1 Ni6 2.636554 1_555
Cr1 Ni14 2.756479 1_555
Cr1 Ni9 2.766913 1_555
Cr1 Ni11 2.766913 1_555
Cr1 Ni12 2.776208 1_555
Cr1 Si3 2.804265 1_565
Cr1 Si1 2.804265 1_556
Cr1 Si6 2.833965 1_555
Cr1 Si4 2.833966 1_555
Cr1 Cr2 3.072738 1_456
Cr1 Mn2 3.089617 1_565
Cr1 Mn0 3.089617 1_556
Cr2 Ni4 2.625517 1_554
Cr2 Ni3 2.628460 1_655
Cr2 Ni2 2.628460 1_565
Cr2 Ni5 2.636554 1_555
Cr2 Ni13 2.756479 1_555
Cr2 Ni10 2.766913 1_555
Cr2 Ni11 2.766913 1_555
Cr2 Ni12 2.776208 1_555
Cr2 Si1 2.804265 1_655
Cr2 Si2 2.804265 1_565
Cr2 Si5 2.833966 1_555
Cr2 Si4 2.833966 1_555
Cr2 Mn1 3.089617 1_565
Cr2 Mn0 3.089617 1_655
Ni0 Si1 2.274968 1_555
Ni0 Si2 2.274968 1_555
Ni0 Si3 2.274968 1_555
Ni0 Ni10 2.521342 1_455
Ni0 Ni11 2.521342 1_545
Ni0 Ni9 2.521343 1_554
Ni0 Ni2 2.666249 1_555
Ni0 Ni3 2.666249 1_555
Ni0 Ni1 2.666249 1_555
Ni1 Si3 2.258803 1_555
Ni1 Si4 2.262350 1_545
Ni1 Si5 2.262350 1_455
Ni1 Ni8 2.508375 1_555
Ni1 Ni10 2.525079 1_455
Ni1 Ni11 2.525079 1_545
Ni1 Ni3 2.636264 1_555
Ni1 Ni2 2.636264 1_555
Ni2 Si2 2.258803 1_555
Ni2 Si6 2.262350 1_554
Ni2 Si4 2.262350 1_545
Ni2 Ni8 2.508375 1_555
Ni2 Ni9 2.525079 1_554
Ni2 Ni3 2.636263 1_555
Ni3 Si1 2.258803 1_555
Ni3 Si6 2.262350 1_554
Ni3 Si5 2.262350 1_455
Ni3 Ni8 2.508375 1_555
Ni3 Ni9 2.525079 1_554
Ni4 Si1 2.255908 1_656
Ni4 Si2 2.255908 1_566
Ni4 Si3 2.255908 1_665
Ni4 Ni6 2.625887 1_555
Ni4 Ni7 2.625887 1_555
Ni4 Ni5 2.625887 1_555
Ni5 Si5 2.266844 1_555
Ni5 Si4 2.266844 1_555
Ni5 Si3 2.269950 1_665
Ni5 Ni7 2.672128 1_555
Ni5 Ni6 2.672128 1_555
Ni6 Si6 2.266844 1_555
Ni6 Si4 2.266844 1_555
Ni6 Si2 2.269950 1_566
Ni6 Ni7 2.672128 1_555
Ni7 Si6 2.266844 1_555
Ni7 Si5 2.266844 1_555
Ni7 Si1 2.269950 1_656
Ni8 Si0 2.264363 1_555
Ni8 Si5 2.476919 1_455
Ni8 Si4 2.476919 1_545
Ni8 Si6 2.476919 1_554
Ni9 Si0 2.259236 1_555
Ni9 Si6 2.437335 1_555
Ni9 Si1 2.447782 1_556
Ni9 Si2 2.447782 1_556
Ni10 Si0 2.259235 1_555
Ni10 Si5 2.437335 1_555
Ni10 Si3 2.447782 1_655
Ni10 Si1 2.447782 1_655
Ni10 Ni3 2.525079 1_655
Ni10 Ni13 2.609814 1_555
Ni10 Ni15 2.609814 1_555
Ni10 Ni12 2.616526 1_555
Ni11 Si0 2.259235 1_555
Ni11 Si4 2.437335 1_555
Ni11 Si3 2.447782 1_565
Ni11 Si2 2.447782 1_565
Ni11 Ni2 2.525079 1_565
Ni11 Ni13 2.609814 1_555
Ni11 Ni14 2.609814 1_555
Ni11 Ni12 2.616526 1_555
Ni12 Si0 2.254031 1_555
Ni12 Si5 2.428775 1_555
Ni12 Si4 2.428775 1_555
Ni12 Si6 2.428776 1_555
Ni12 Ni6 2.530136 1_555
Ni12 Ni7 2.530136 1_555
Ni12 Ni5 2.530136 1_555
Ni12 Ni9 2.616526 1_555
Ni13 Si0 2.261768 1_555
Ni13 Si2 2.458699 1_565
Ni13 Si1 2.458699 1_655
Ni13 Si6 2.465234 1_554
Ni13 Ni4 2.515612 1_554
Ni13 Ni6 2.517349 1_554
Ni13 Ni7 2.517349 1_554
Ni13 Ni8 2.603042 1_555
Ni14 Si0 2.261767 1_555
Ni14 Si3 2.458699 1_565
Ni14 Si1 2.458700 1_556
Ni14 Si5 2.465234 1_455
Ni14 Ni4 2.515612 1_455
Ni14 Ni5 2.517349 1_455
Ni14 Ni7 2.517349 1_455
Ni14 Ni8 2.603042 1_555
Ni14 Ni9 2.609814 1_555
Ni15 Si0 2.261767 1_555
Ni15 Si3 2.458699 1_655
Ni15 Si2 2.458700 1_556
Ni15 Si4 2.465234 1_545
Ni15 Ni4 2.515612 1_545
Ni15 Ni5 2.517349 1_545
Ni15 Ni6 2.517349 1_545
Ni15 Ni8 2.603042 1_555
Ni15 Ni9 2.609814 1_555
