# generated using pymatgen
data_Na2CuH2(SO4)2
_symmetry_space_group_name_H-M   'P 1'
_cell_length_a   12.41827000
_cell_length_b   5.30344700
_cell_length_c   5.92355598
_cell_angle_alpha   66.66963372
_cell_angle_beta   90.00000000
_cell_angle_gamma   90.00000000
_symmetry_Int_Tables_number   1
_chemical_formula_structural   Na2CuH2(SO4)2
_chemical_formula_sum   'Na4 Cu2 H4 S4 O16'
_cell_volume   358.22544871
_cell_formula_units_Z   2
loop_
 _symmetry_equiv_pos_site_id
 _symmetry_equiv_pos_as_xyz
  1  'x, y, z'
loop_
 _atom_site_type_symbol
 _atom_site_label
 _atom_site_symmetry_multiplicity
 _atom_site_fract_x
 _atom_site_fract_y
 _atom_site_fract_z
 _atom_site_occupancy
  Na  Na0  1  0.86890200  0.75676000  0.57401900  1
  Na  Na1  1  0.13109800  0.24324000  0.42598100  1
  Na  Na2  1  0.36890200  0.74324000  0.42598100  1
  Na  Na3  1  0.63109800  0.25676000  0.57401900  1
  Cu  Cu0  1  0.00000000  0.00000000  0.00000000  1
  Cu  Cu1  1  0.50000000  0.50000000  0.00000000  1
  H  H0  1  0.38934400  0.47065200  0.12912600  1
  H  H1  1  0.61065600  0.52934800  0.87087400  1
  H  H2  1  0.88934400  0.02934800  0.87087400  1
  H  H3  1  0.11065600  0.97065200  0.12912600  1
  S  S0  1  0.61873500  0.93515500  0.22573400  1
  S  S1  1  0.38126500  0.06484500  0.77426600  1
  S  S2  1  0.11873500  0.56484500  0.77426600  1
  S  S3  1  0.88126500  0.43515500  0.22573400  1
  O  O0  1  0.82764800  0.52681700  0.98839300  1
  O  O1  1  0.17235200  0.47318300  0.01160700  1
  O  O2  1  0.32764800  0.97318300  0.01160700  1
  O  O3  1  0.67235200  0.02681700  0.98839300  1
  O  O4  1  0.95726200  0.66216200  0.24303500  1
  O  O5  1  0.04273800  0.33783800  0.75696500  1
  O  O6  1  0.45726200  0.83783800  0.75696500  1
  O  O7  1  0.54273800  0.16216200  0.24303500  1
  O  O8  1  0.54777000  0.69112300  0.27070900  1
  O  O9  1  0.45223000  0.30887700  0.72929100  1
  O  O10  1  0.04777000  0.80887700  0.72929100  1
  O  O11  1  0.95223000  0.19112300  0.27070900  1
  O  O12  1  0.69138500  0.87214000  0.43807800  1
  O  O13  1  0.30861500  0.12786000  0.56192200  1
  O  O14  1  0.19138500  0.62786000  0.56192200  1
  O  O15  1  0.80861500  0.37214000  0.43807800  1
loop_
_geom_bond_atom_site_label_1
_geom_bond_atom_site_label_2
_geom_bond_distance
_geom_bond_site_symmetry_2
Na0 O0 2.324567 1_555
Na0 O12 2.343545 1_555
Na0 O10 2.461217 1_655
Na0 O4 2.465517 1_555
Na0 O11 2.515404 1_565
Na0 O15 2.582785 1_555
Na1 O1 2.324567 1_555
Na1 O13 2.343545 1_555
Na1 O11 2.461217 1_455
Na1 O5 2.465517 1_555
Na1 O10 2.515404 1_545
Na1 O14 2.582785 1_555
Na2 O2 2.324567 1_555
Na2 O14 2.343545 1_555
Na2 O8 2.461217 1_555
Na2 O6 2.465517 1_555
Na2 O9 2.515404 1_555
Na2 O13 2.582785 1_565
Na3 O3 2.324567 1_555
Na3 O15 2.343545 1_555
Na3 O9 2.461217 1_555
Na3 O7 2.465517 1_555
Na3 O8 2.515404 1_555
Na3 O12 2.582785 1_545
Cu0 H3 1.550253 1_545
Cu0 H2 1.550253 1_454
Cu0 O5 1.876533 1_554
Cu0 O4 1.876533 1_445
Cu0 O11 2.288697 1_455
Cu0 O10 2.288697 1_544
Cu1 H1 1.550253 1_554
Cu1 H0 1.550253 1_555
Cu1 O7 1.876533 1_555
Cu1 O6 1.876533 1_554
Cu1 O8 2.288697 1_555
Cu1 O9 2.288697 1_554
O0 S3 1.454262 1_556
O1 S2 1.454262 1_554
O2 S1 1.454262 1_564
O3 S0 1.454262 1_546
O4 S3 1.564710 1_555
O5 S2 1.564710 1_555
O6 S1 1.564710 1_565
O7 S0 1.564710 1_545
O8 S0 1.499827 1_555
O9 S1 1.499827 1_555
O10 S2 1.499827 1_555
O11 S3 1.499827 1_555
O12 S0 1.474725 1_555
O13 S1 1.474725 1_555
O14 S2 1.474725 1_555
O15 S3 1.474725 1_555
