# generated using pymatgen
data_Li7CrN4
_symmetry_space_group_name_H-M   'P 1'
_cell_length_a   9.62702100
_cell_length_b   9.62702100
_cell_length_c   9.62702100
_cell_angle_alpha   90.00000000
_cell_angle_beta   90.00000000
_cell_angle_gamma   90.00000000
_symmetry_Int_Tables_number   1
_chemical_formula_structural   Li7CrN4
_chemical_formula_sum   'Li56 Cr8 N32'
_cell_volume   892.22781368
_cell_formula_units_Z   8
loop_
 _symmetry_equiv_pos_site_id
 _symmetry_equiv_pos_as_xyz
  1  'x, y, z'
loop_
 _atom_site_type_symbol
 _atom_site_label
 _atom_site_symmetry_multiplicity
 _atom_site_fract_x
 _atom_site_fract_y
 _atom_site_fract_z
 _atom_site_occupancy
  Li  Li0  1  0.00000000  0.00000000  0.50000000  1
  Li  Li1  1  0.00000000  0.50000000  0.00000000  1
  Li  Li2  1  0.50000000  0.00000000  0.00000000  1
  Li  Li3  1  0.50000000  0.00000000  0.50000000  1
  Li  Li4  1  0.50000000  0.50000000  0.00000000  1
  Li  Li5  1  0.00000000  0.50000000  0.50000000  1
  Li  Li6  1  0.00000000  0.50000000  0.25000000  1
  Li  Li7  1  0.50000000  0.75000000  0.00000000  1
  Li  Li8  1  0.25000000  0.00000000  0.50000000  1
  Li  Li9  1  0.50000000  0.25000000  0.00000000  1
  Li  Li10  1  0.75000000  0.00000000  0.50000000  1
  Li  Li11  1  0.00000000  0.50000000  0.75000000  1
  Li  Li12  1  0.26811600  0.73188400  0.26811600  1
  Li  Li13  1  0.73188400  0.26811600  0.26811600  1
  Li  Li14  1  0.26811600  0.26811600  0.73188400  1
  Li  Li15  1  0.73188400  0.73188400  0.73188400  1
  Li  Li16  1  0.76811600  0.76811600  0.23188400  1
  Li  Li17  1  0.23188400  0.76811600  0.76811600  1
  Li  Li18  1  0.76811600  0.23188400  0.76811600  1
  Li  Li19  1  0.23188400  0.23188400  0.23188400  1
  Li  Li20  1  0.50000000  0.50000000  0.23647900  1
  Li  Li21  1  0.50000000  0.76352100  0.50000000  1
  Li  Li22  1  0.23647900  0.50000000  0.50000000  1
  Li  Li23  1  0.50000000  0.23647900  0.50000000  1
  Li  Li24  1  0.76352100  0.50000000  0.50000000  1
  Li  Li25  1  0.50000000  0.50000000  0.76352100  1
  Li  Li26  1  0.00000000  0.73647900  0.00000000  1
  Li  Li27  1  0.00000000  0.00000000  0.26352100  1
  Li  Li28  1  0.73647900  0.00000000  0.00000000  1
  Li  Li29  1  0.00000000  0.00000000  0.73647900  1
  Li  Li30  1  0.26352100  0.00000000  0.00000000  1
  Li  Li31  1  0.00000000  0.26352100  0.00000000  1
  Li  Li32  1  0.51935000  0.73951500  0.24763500  1
  Li  Li33  1  0.26048500  0.75236500  0.51935000  1
  Li  Li34  1  0.24763500  0.48065000  0.26048500  1
  Li  Li35  1  0.48065000  0.26048500  0.24763500  1
  Li  Li36  1  0.73951500  0.24763500  0.51935000  1
  Li  Li37  1  0.75236500  0.51935000  0.26048500  1
  Li  Li38  1  0.51935000  0.26048500  0.75236500  1
  Li  Li39  1  0.26048500  0.24763500  0.48065000  1
  Li  Li40  1  0.24763500  0.51935000  0.73951500  1
  Li  Li41  1  0.48065000  0.73951500  0.75236500  1
  Li  Li42  1  0.73951500  0.75236500  0.48065000  1
  Li  Li43  1  0.75236500  0.48065000  0.73951500  1
  Li  Li44  1  0.01935000  0.74763500  0.23951500  1
  Li  Li45  1  0.76048500  0.01935000  0.25236500  1
  Li  Li46  1  0.74763500  0.76048500  0.98065000  1
  Li  Li47  1  0.98065000  0.74763500  0.76048500  1
  Li  Li48  1  0.23951500  0.01935000  0.74763500  1
  Li  Li49  1  0.25236500  0.76048500  0.01935000  1
  Li  Li50  1  0.01935000  0.25236500  0.76048500  1
  Li  Li51  1  0.76048500  0.98065000  0.74763500  1
  Li  Li52  1  0.74763500  0.23951500  0.01935000  1
  Li  Li53  1  0.98065000  0.25236500  0.23951500  1
  Li  Li54  1  0.23951500  0.98065000  0.25236500  1
  Li  Li55  1  0.25236500  0.23951500  0.98065000  1
  Cr  Cr0  1  0.50000000  0.50000000  0.50000000  1
  Cr  Cr1  1  0.00000000  0.00000000  0.00000000  1
  Cr  Cr2  1  0.50000000  0.00000000  0.25000000  1
  Cr  Cr3  1  0.00000000  0.75000000  0.50000000  1
  Cr  Cr4  1  0.25000000  0.50000000  0.00000000  1
  Cr  Cr5  1  0.00000000  0.25000000  0.50000000  1
  Cr  Cr6  1  0.75000000  0.50000000  0.00000000  1
  Cr  Cr7  1  0.50000000  0.00000000  0.75000000  1
  N  N0  1  0.39141900  0.60858100  0.39141900  1
  N  N1  1  0.60858100  0.39141900  0.39141900  1
  N  N2  1  0.39141900  0.39141900  0.60858100  1
  N  N3  1  0.60858100  0.60858100  0.60858100  1
  N  N4  1  0.89141900  0.89141900  0.10858100  1
  N  N5  1  0.10858100  0.89141900  0.89141900  1
  N  N6  1  0.89141900  0.10858100  0.89141900  1
  N  N7  1  0.10858100  0.10858100  0.10858100  1
  N  N8  1  0.39302300  0.88350900  0.14303800  1
  N  N9  1  0.11649100  0.85696200  0.39302300  1
  N  N10  1  0.14303800  0.60697700  0.11649100  1
  N  N11  1  0.60697700  0.11649100  0.14303800  1
  N  N12  1  0.88350900  0.14303800  0.39302300  1
  N  N13  1  0.85696200  0.39302300  0.11649100  1
  N  N14  1  0.39302300  0.11649100  0.85696200  1
  N  N15  1  0.11649100  0.14303800  0.60697700  1
  N  N16  1  0.14303800  0.39302300  0.88350900  1
  N  N17  1  0.60697700  0.88350900  0.85696200  1
  N  N18  1  0.88350900  0.85696200  0.60697700  1
  N  N19  1  0.85696200  0.60697700  0.88350900  1
  N  N20  1  0.89302300  0.64303800  0.38350900  1
  N  N21  1  0.61649100  0.89302300  0.35696300  1
  N  N22  1  0.64303800  0.61649100  0.10697700  1
  N  N23  1  0.10697700  0.64303800  0.61649100  1
  N  N24  1  0.38350900  0.89302300  0.64303800  1
  N  N25  1  0.35696300  0.61649100  0.89302300  1
  N  N26  1  0.89302300  0.35696300  0.61649100  1
  N  N27  1  0.61649100  0.10697700  0.64303800  1
  N  N28  1  0.64303800  0.38350900  0.89302300  1
  N  N29  1  0.10697700  0.35696300  0.38350900  1
  N  N30  1  0.38350900  0.10697700  0.35696300  1
  N  N31  1  0.35696300  0.38350900  0.10697700  1
loop_
_geom_bond_atom_site_label_1
_geom_bond_atom_site_label_2
_geom_bond_distance
_geom_bond_site_symmetry_2
Li0 N18 2.052929 1_445
Li0 N15 2.052929 1_555
Li0 N9 2.052929 1_545
Li0 N12 2.052929 1_455
Li1 N10 2.052929 1_555
Li1 N19 2.052929 1_454
Li1 N13 2.052929 1_455
Li1 N16 2.052929 1_554
Li2 N11 2.052929 1_555
Li2 N17 2.052929 1_544
Li2 N8 2.052929 1_545
Li2 N14 2.052929 1_554
Li3 N30 2.052923 1_555
Li3 N21 2.052923 1_545
Li3 N27 2.052929 1_555
Li3 N24 2.052929 1_545
Li4 N31 2.052923 1_555
Li4 N25 2.052923 1_554
Li4 N22 2.052929 1_555
Li4 N28 2.052929 1_554
Li5 N29 2.052923 1_555
Li5 N26 2.052923 1_455
Li5 N23 2.052929 1_555
Li5 N20 2.052929 1_455
Li6 N29 2.146811 1_555
Li6 N10 2.146817 1_555
Li6 N20 2.146817 1_455
Li6 N13 2.146817 1_455
Li7 N25 2.146811 1_554
Li7 N22 2.146817 1_555
Li7 N17 2.146817 1_554
Li7 N8 2.146817 1_555
Li8 N30 2.146811 1_555
Li8 N15 2.146817 1_555
Li8 N24 2.146817 1_545
Li8 N9 2.146817 1_545
Li9 N31 2.146811 1_555
Li9 N11 2.146817 1_555
Li9 N28 2.146817 1_554
Li9 N14 2.146817 1_554
Li10 N21 2.146811 1_545
Li10 N27 2.146817 1_555
Li10 N18 2.146817 1_545
Li10 N12 2.146817 1_555
Li11 N26 2.146811 1_455
Li11 N23 2.146817 1_555
Li11 N19 2.146817 1_455
Li11 N16 2.146817 1_555
Li12 N0 2.056015 1_555
Li12 N10 2.242009 1_555
Li12 N9 2.242009 1_555
Li12 N8 2.242009 1_555
Li13 N1 2.056015 1_555
Li13 N11 2.242009 1_555
Li13 N13 2.242009 1_555
Li13 N12 2.242009 1_555
Li14 N2 2.056015 1_555
Li14 N15 2.242009 1_555
Li14 N14 2.242009 1_555
Li14 N16 2.242009 1_555
Li15 N3 2.056015 1_555
Li15 N19 2.242009 1_555
Li15 N18 2.242009 1_555
Li15 N17 2.242009 1_555
Li16 N4 2.056015 1_555
Li16 N22 2.242009 1_555
Li16 N20 2.242009 1_555
Li16 N21 2.242014 1_555
Li17 N5 2.056015 1_555
Li17 N23 2.242009 1_555
Li17 N24 2.242009 1_555
Li17 N25 2.242014 1_555
Li18 N6 2.056015 1_555
Li18 N27 2.242009 1_555
Li18 N28 2.242009 1_555
Li18 N26 2.242014 1_555
Li19 N7 2.056015 1_555
Li19 N30 2.242014 1_555
Li19 N29 2.242014 1_555
Li19 N31 2.242014 1_555
Li20 N1 2.100061 1_555
Li20 N0 2.100061 1_555
Li20 N31 2.169831 1_555
Li20 N22 2.169837 1_555
Li21 N3 2.100061 1_555
Li21 N0 2.100061 1_555
Li21 N21 2.169831 1_555
Li21 N24 2.169837 1_555
Li22 N2 2.100061 1_555
Li22 N0 2.100061 1_555
Li22 N29 2.169831 1_555
Li22 N23 2.169837 1_555
Li23 N2 2.100061 1_555
Li23 N1 2.100061 1_555
Li23 N30 2.169831 1_555
Li23 N27 2.169837 1_555
Li24 N3 2.100061 1_555
Li24 N1 2.100061 1_555
Li24 N26 2.169831 1_555
Li24 N20 2.169837 1_555
Li25 N3 2.100061 1_555
Li25 N2 2.100061 1_555
Li25 N25 2.169831 1_555
Li25 N28 2.169837 1_555
Li26 N5 2.100061 1_554
Li26 N4 2.100061 1_455
Li26 N19 2.169837 1_454
Li26 N10 2.169837 1_555
Li27 N7 2.100061 1_555
Li27 N4 2.100061 1_445
Li27 N9 2.169837 1_545
Li27 N12 2.169837 1_455
Li28 N4 2.100061 1_545
Li28 N6 2.100061 1_554
Li28 N11 2.169837 1_555
Li28 N17 2.169837 1_544
Li29 N5 2.100061 1_545
Li29 N6 2.100061 1_455
Li29 N18 2.169837 1_445
Li29 N15 2.169837 1_555
Li30 N7 2.100061 1_555
Li30 N5 2.100061 1_544
Li30 N8 2.169837 1_545
Li30 N14 2.169837 1_554
Li31 N7 2.100061 1_555
Li31 N6 2.100061 1_454
Li31 N13 2.169837 1_455
Li31 N16 2.169837 1_554
Li32 N21 2.041148 1_555
Li32 N8 2.101103 1_555
Li32 N22 2.157361 1_555
Li32 N0 2.240923 1_555
Li33 N23 2.041144 1_555
Li33 N9 2.101103 1_555
Li33 N24 2.157361 1_555
Li33 N0 2.240923 1_555
Li34 N31 2.041148 1_555
Li34 N10 2.101103 1_555
Li34 N29 2.157356 1_555
Li34 N0 2.240923 1_555
Li35 N30 2.041148 1_555
Li35 N11 2.101103 1_555
Li35 N31 2.157356 1_555
Li35 N1 2.240923 1_555
Li36 N26 2.041148 1_555
Li36 N12 2.101103 1_555
Li36 N27 2.157361 1_555
Li36 N1 2.240923 1_555
Li37 N22 2.041144 1_555
Li37 N13 2.101103 1_555
Li37 N20 2.157361 1_555
Li37 N1 2.240923 1_555
Li38 N27 2.041144 1_555
Li38 N14 2.101103 1_555
Li38 N28 2.157361 1_555
Li38 N2 2.240923 1_555
Li39 N29 2.041148 1_555
Li39 N15 2.101103 1_555
Li39 N30 2.157356 1_555
Li39 N2 2.240923 1_555
Li40 N25 2.041148 1_555
Li40 N16 2.101103 1_555
Li40 N23 2.157361 1_555
Li40 N2 2.240923 1_555
Li41 N24 2.041144 1_555
Li41 N17 2.101103 1_555
Li41 N25 2.157356 1_555
Li41 N3 2.240923 1_555
Li42 N20 2.041144 1_555
Li42 N18 2.101103 1_555
Li42 N21 2.157356 1_555
Li42 N3 2.240923 1_555
Li43 N28 2.041144 1_555
Li43 N19 2.101103 1_555
Li43 N26 2.157356 1_555
Li43 N3 2.240923 1_555
Li44 N9 2.041144 1_555
Li44 N20 2.101103 1_455
Li44 N10 2.157361 1_555
Li44 N4 2.240923 1_455
Li45 N11 2.041144 1_555
Li45 N21 2.101108 1_545
Li45 N12 2.157361 1_555
Li45 N4 2.240923 1_545
Li46 N19 2.041144 1_555
Li46 N22 2.101103 1_556
Li46 N17 2.157361 1_555
Li46 N4 2.240923 1_556
Li47 N18 2.041144 1_555
Li47 N23 2.101103 1_655
Li47 N19 2.157361 1_555
Li47 N5 2.240923 1_655
Li48 N14 2.041144 1_555
Li48 N24 2.101103 1_545
Li48 N15 2.157361 1_555
Li48 N5 2.240923 1_545
Li49 N10 2.041144 1_555
Li49 N25 2.101108 1_554
Li49 N8 2.157361 1_555
Li49 N5 2.240923 1_554
Li50 N15 2.041144 1_555
Li50 N26 2.101108 1_455
Li50 N16 2.157361 1_555
Li50 N6 2.240923 1_455
Li51 N17 2.041144 1_555
Li51 N27 2.101103 1_565
Li51 N18 2.157361 1_555
Li51 N6 2.240923 1_565
Li52 N13 2.041144 1_555
Li52 N28 2.101103 1_554
Li52 N11 2.157361 1_555
Li52 N6 2.240923 1_554
Li53 N12 2.041144 1_555
Li53 N29 2.101108 1_655
Li53 N13 2.157361 1_555
Li53 N7 2.240923 1_655
Li54 N8 2.041144 1_555
Li54 N30 2.101108 1_565
Li54 N9 2.157361 1_555
Li54 N7 2.240923 1_565
Li55 N16 2.041144 1_555
Li55 N31 2.101108 1_556
Li55 N14 2.157361 1_555
Li55 N7 2.240923 1_556
Cr0 N3 1.810533 1_555
Cr0 N2 1.810533 1_555
Cr0 N0 1.810533 1_555
Cr0 N1 1.810533 1_555
Cr1 N7 1.810533 1_555
Cr1 N5 1.810533 1_544
Cr1 N6 1.810533 1_454
Cr1 N4 1.810533 1_445
Cr2 N11 1.838108 1_555
Cr2 N8 1.838108 1_545
Cr2 N30 1.838114 1_555
Cr2 N21 1.838114 1_545
Cr3 N23 1.838108 1_555
Cr3 N18 1.838108 1_455
Cr3 N20 1.838108 1_455
Cr3 N9 1.838108 1_555
Cr4 N10 1.838108 1_555
Cr4 N16 1.838108 1_554
Cr4 N31 1.838114 1_555
Cr4 N25 1.838114 1_554
Cr5 N15 1.838108 1_555
Cr5 N12 1.838108 1_455
Cr5 N29 1.838114 1_555
Cr5 N26 1.838114 1_455
Cr6 N22 1.838108 1_555
Cr6 N28 1.838108 1_554
Cr6 N19 1.838108 1_554
Cr6 N13 1.838108 1_555
Cr7 N27 1.838108 1_555
Cr7 N24 1.838108 1_545
Cr7 N17 1.838108 1_545
Cr7 N14 1.838108 1_555
