# generated using pymatgen
data_ZnCr4CuSe8
_symmetry_space_group_name_H-M   'P 1'
_cell_length_a   7.43195531
_cell_length_b   7.43195531
_cell_length_c   7.43195531
_cell_angle_alpha   60.00000000
_cell_angle_beta   60.00000000
_cell_angle_gamma   60.00000000
_symmetry_Int_Tables_number   1
_chemical_formula_structural   ZnCr4CuSe8
_chemical_formula_sum   'Zn1 Cr4 Cu1 Se8'
_cell_volume   290.26473221
_cell_formula_units_Z   1
loop_
 _symmetry_equiv_pos_site_id
 _symmetry_equiv_pos_as_xyz
  1  'x, y, z'
loop_
 _atom_site_type_symbol
 _atom_site_label
 _atom_site_symmetry_multiplicity
 _atom_site_fract_x
 _atom_site_fract_y
 _atom_site_fract_z
 _atom_site_occupancy
  Zn  Zn0  1  0.50000000  0.50000000  0.50000000  1
  Cr  Cr0  1  0.63042300  0.12319200  0.12319200  1
  Cr  Cr1  1  0.12319200  0.63042300  0.12319200  1
  Cr  Cr2  1  0.12319200  0.12319200  0.63042300  1
  Cr  Cr3  1  0.12319200  0.12319200  0.12319200  1
  Cu  Cu0  1  0.75000000  0.75000000  0.75000000  1
  Se  Se0  1  0.35051100  0.88316300  0.88316300  1
  Se  Se1  1  0.88316300  0.35051100  0.88316300  1
  Se  Se2  1  0.88316300  0.88316300  0.35051100  1
  Se  Se3  1  0.88316300  0.88316300  0.88316300  1
  Se  Se4  1  0.90575800  0.36474700  0.36474700  1
  Se  Se5  1  0.36474700  0.90575800  0.36474700  1
  Se  Se6  1  0.36474700  0.36474700  0.90575800  1
  Se  Se7  1  0.36474700  0.36474700  0.36474700  1
loop_
_geom_bond_atom_site_label_1
_geom_bond_atom_site_label_2
_geom_bond_distance
_geom_bond_site_symmetry_2
Cr0 Se3 2.524562 1_544
Cr0 Se2 2.524567 1_545
Cr0 Se1 2.524567 1_554
Cr0 Se7 2.545154 1_555
Cr0 Se5 2.545154 1_545
Cr0 Se6 2.545154 1_554
Cr1 Se3 2.524562 1_454
Cr1 Se2 2.524567 1_455
Cr1 Se0 2.524567 1_554
Cr1 Se7 2.545154 1_555
Cr1 Se4 2.545154 1_455
Cr1 Se6 2.545154 1_554
Cr2 Se3 2.524562 1_445
Cr2 Se1 2.524567 1_455
Cr2 Se0 2.524567 1_545
Cr2 Se7 2.545154 1_555
Cr2 Se5 2.545154 1_545
Cr2 Se4 2.545154 1_455
Cr3 Se1 2.524562 1_454
Cr3 Se0 2.524562 1_544
Cr3 Se2 2.524562 1_445
Cr3 Se4 2.545154 1_455
Cr3 Se6 2.545154 1_554
Cr3 Se5 2.545154 1_545
Cu0 Se3 2.424166 1_555
Cu0 Se2 2.424166 1_555
Cu0 Se1 2.424166 1_555
Cu0 Se0 2.424166 1_555
Se4 Zn0 2.462207 1_555
Se5 Zn0 2.462207 1_555
Se6 Zn0 2.462207 1_555
Se7 Zn0 2.462213 1_555
