# generated using pymatgen
data_ScCu2Hg
_symmetry_space_group_name_H-M   'P 1'
_cell_length_a   10.01600267
_cell_length_b   10.01600267
_cell_length_c   10.01600267
_cell_angle_alpha   122.63690699
_cell_angle_beta   116.32248112
_cell_angle_gamma   90.98918925
_symmetry_Int_Tables_number   1
_chemical_formula_structural   ScCu2Hg
_chemical_formula_sum   'Sc1 Cu2 Hg1'
_cell_volume   713.31648767
_cell_formula_units_Z   1
loop_
 _symmetry_equiv_pos_site_id
 _symmetry_equiv_pos_as_xyz
  1  'x, y, z'
loop_
 _atom_site_type_symbol
 _atom_site_label
 _atom_site_symmetry_multiplicity
 _atom_site_fract_x
 _atom_site_fract_y
 _atom_site_fract_z
 _atom_site_occupancy
  Sc  Sc0  1  0.00000000  0.00000000  0.00000000  1
  Cu  Cu0  1  0.24302400  0.00000000  0.24302400  1
  Cu  Cu1  1  0.75697600  0.00000000  0.75697600  1
  Hg  Hg0  1  0.50000000  0.00000000  0.50000000  1
loop_
_geom_bond_atom_site_label_1
_geom_bond_atom_site_label_2
_geom_bond_distance
_geom_bond_site_symmetry_2
Cu0 Sc0 2.568155 1_555
Cu0 Hg0 2.715593 1_555
Cu1 Sc0 2.568155 1_656
Cu1 Hg0 2.715593 1_555
