# generated using pymatgen
data_La2MgSi4
_symmetry_space_group_name_H-M   'P 1'
_cell_length_a   6.16807700
_cell_length_b   6.16807700
_cell_length_c   17.66482237
_cell_angle_alpha   100.05459419
_cell_angle_beta   100.05459419
_cell_angle_gamma   90.00000000
_symmetry_Int_Tables_number   1
_chemical_formula_structural   La2MgSi4
_chemical_formula_sum   'La8 Mg4 Si16'
_cell_volume   651.25443305
_cell_formula_units_Z   4
loop_
 _symmetry_equiv_pos_site_id
 _symmetry_equiv_pos_as_xyz
  1  'x, y, z'
loop_
 _atom_site_type_symbol
 _atom_site_label
 _atom_site_symmetry_multiplicity
 _atom_site_fract_x
 _atom_site_fract_y
 _atom_site_fract_z
 _atom_site_occupancy
  La  La0  1  0.80022100  0.05451500  0.60044300  1
  La  La1  1  0.80022100  0.54592800  0.60044300  1
  La  La2  1  0.79592800  0.55022100  0.10044300  1
  La  La3  1  0.44976000  0.20410900  0.89952000  1
  La  La4  1  0.44976000  0.69541100  0.89952000  1
  La  La5  1  0.30451500  0.55022100  0.10044300  1
  La  La6  1  0.45410900  0.19976000  0.39952000  1
  La  La7  1  0.94541100  0.19976000  0.39952000  1
  Mg  Mg0  1  0.12501400  0.37526300  0.25002800  1
  Mg  Mg1  1  0.12501400  0.87476500  0.25002800  1
  Mg  Mg2  1  0.12476500  0.87501400  0.75002800  1
  Mg  Mg3  1  0.62526300  0.87501400  0.75002800  1
  Si  Si0  1  0.26379200  0.49923900  0.52758300  1
  Si  Si1  1  0.26379200  0.02834400  0.52758300  1
  Si  Si2  1  0.27834400  0.01379200  0.02758300  1
  Si  Si3  1  0.98625700  0.72233900  0.97251400  1
  Si  Si4  1  0.98625700  0.25017600  0.97251400  1
  Si  Si5  1  0.74923900  0.01379200  0.02758300  1
  Si  Si6  1  0.97233900  0.73625700  0.47251500  1
  Si  Si7  1  0.50017600  0.73625700  0.47251500  1
  Si  Si8  1  0.33301100  0.52695000  0.66602100  1
  Si  Si9  1  0.33301100  0.13907200  0.66602100  1
  Si  Si10  1  0.38907200  0.08301100  0.16602100  1
  Si  Si11  1  0.91706500  0.61102800  0.83413000  1
  Si  Si12  1  0.91706500  0.22310200  0.83413000  1
  Si  Si13  1  0.77695000  0.08301100  0.16602100  1
  Si  Si14  1  0.86102800  0.66706500  0.33413000  1
  Si  Si15  1  0.47310200  0.66706500  0.33413000  1
loop_
_geom_bond_atom_site_label_1
_geom_bond_atom_site_label_2
_geom_bond_distance
_geom_bond_site_symmetry_2
La0 La1 3.031073 1_555
La0 Si7 3.062045 1_545
La0 Si6 3.062048 1_545
La0 La1 3.137004 1_545
La0 Si9 3.297477 1_555
La0 Si9 3.297488 1_655
La0 Si1 3.327281 1_555
La0 Si1 3.327292 1_655
La0 Mg3 3.374889 1_545
La0 Mg2 3.374891 1_645
La1 Si7 3.062042 1_555
La1 Si6 3.062045 1_555
La1 Si8 3.297476 1_555
La1 Si8 3.297488 1_655
La1 Si0 3.327281 1_555
La1 Si0 3.327292 1_655
La1 Mg3 3.374888 1_555
La1 Mg2 3.374891 1_655
La2 La5 3.031073 1_555
La2 Si4 3.062055 1_554
La2 Si3 3.062060 1_554
La2 La5 3.137004 1_655
La2 Si13 3.297476 1_555
La2 Si13 3.297488 1_565
La2 Si5 3.327281 1_555
La2 Si5 3.327292 1_565
La2 Mg0 3.374888 1_655
La2 Mg1 3.374891 1_655
La3 La4 3.030389 1_555
La3 Si5 3.062015 1_556
La3 Si2 3.062015 1_556
La3 La4 3.137688 1_545
La3 Si12 3.296341 1_455
La3 Si12 3.296341 1_555
La3 Si4 3.328069 1_555
La3 Si4 3.328069 1_455
La3 Mg2 3.375245 1_545
La3 Mg3 3.375245 1_545
La4 Si5 3.062019 1_566
La4 Si2 3.062019 1_566
La4 Si11 3.296341 1_455
La4 Si11 3.296341 1_555
La4 Si3 3.328069 1_555
La4 Si3 3.328069 1_455
La4 Mg2 3.375245 1_555
La4 Mg3 3.375245 1_555
La5 Si4 3.062054 1_454
La5 Si3 3.062060 1_454
La5 Si10 3.297477 1_555
La5 Si10 3.297488 1_565
La5 Si2 3.327281 1_555
La5 Si2 3.327292 1_565
La5 Mg0 3.374889 1_555
La5 Mg1 3.374891 1_555
La6 La7 3.030389 1_555
La6 Si0 3.062015 1_555
La6 Si1 3.062015 1_555
La6 La7 3.137688 1_455
La6 Si15 3.296341 1_545
La6 Si15 3.296341 1_555
La6 Si7 3.328072 1_555
La6 Si7 3.328078 1_545
La6 Mg1 3.375245 1_545
La6 Mg0 3.375245 1_555
La7 Si0 3.062019 1_655
La7 Si1 3.062019 1_655
La7 Si14 3.296341 1_545
La7 Si14 3.296341 1_555
La7 Si6 3.328072 1_555
La7 Si6 3.328078 1_545
La7 Mg1 3.375245 1_645
La7 Mg0 3.375245 1_655
Mg0 Si15 2.830008 1_555
Mg0 Si14 2.830008 1_455
Mg0 Si13 2.830950 1_455
Mg0 Si10 2.830954 1_555
Mg1 Si15 2.830008 1_555
Mg1 Si14 2.830008 1_455
Mg1 Si13 2.830953 1_465
Mg1 Si10 2.830957 1_565
Mg2 Si12 2.830008 1_465
Mg2 Si11 2.830008 1_455
Mg2 Si8 2.830953 1_555
Mg2 Si9 2.830957 1_565
Mg3 Si12 2.830008 1_565
Mg3 Si11 2.830008 1_555
Mg3 Si8 2.830950 1_555
Mg3 Si9 2.830954 1_565
Si0 Si8 2.383561 1_555
Si0 Si7 2.490228 1_555
Si0 Si6 2.490232 1_455
Si0 Si1 2.904517 1_555
Si1 Si9 2.383562 1_555
Si1 Si7 2.490232 1_545
Si1 Si6 2.490236 1_445
Si2 Si3 2.490238 1_444
Si2 Si4 2.490238 1_454
Si2 Si5 2.904517 1_555
Si3 Si5 2.490238 1_566
Si3 Si4 2.912338 1_555
Si4 Si5 2.490238 1_556
Si6 Si7 2.912338 1_555
Si8 Si9 2.392461 1_555
Si10 Si2 2.383562 1_555
Si10 Si13 2.392461 1_555
Si11 Si3 2.383050 1_555
Si11 Si12 2.392757 1_555
Si12 Si4 2.383050 1_555
Si13 Si5 2.383561 1_555
Si14 Si6 2.383067 1_555
Si14 Si15 2.392757 1_555
Si15 Si7 2.383067 1_555
