# generated using pymatgen
data_Ba3GaSe4Cl
_symmetry_space_group_name_H-M   'P 1'
_cell_length_a   8.89245500
_cell_length_b   10.00763800
_cell_length_c   12.94674500
_cell_angle_alpha   90.00000000
_cell_angle_beta   90.00000000
_cell_angle_gamma   90.00000000
_symmetry_Int_Tables_number   1
_chemical_formula_structural   Ba3GaSe4Cl
_chemical_formula_sum   'Ba12 Ga4 Se16 Cl4'
_cell_volume   1152.16282341
_cell_formula_units_Z   4
loop_
 _symmetry_equiv_pos_site_id
 _symmetry_equiv_pos_as_xyz
  1  'x, y, z'
loop_
 _atom_site_type_symbol
 _atom_site_label
 _atom_site_symmetry_multiplicity
 _atom_site_fract_x
 _atom_site_fract_y
 _atom_site_fract_z
 _atom_site_occupancy
  Ba  Ba0  1  0.58262700  0.75000000  0.00909000  1
  Ba  Ba1  1  0.91737300  0.75000000  0.50909000  1
  Ba  Ba2  1  0.41737300  0.25000000  0.99091000  1
  Ba  Ba3  1  0.08262700  0.25000000  0.49091000  1
  Ba  Ba4  1  0.92281000  0.48029000  0.83010700  1
  Ba  Ba5  1  0.57719000  0.01971000  0.33010700  1
  Ba  Ba6  1  0.07719000  0.98029000  0.16989300  1
  Ba  Ba7  1  0.42281000  0.51971000  0.66989300  1
  Ba  Ba8  1  0.07719000  0.51971000  0.16989300  1
  Ba  Ba9  1  0.42281000  0.98029000  0.66989300  1
  Ba  Ba10  1  0.92281000  0.01971000  0.83010700  1
  Ba  Ba11  1  0.57719000  0.48029000  0.33010700  1
  Ga  Ga0  1  0.18680400  0.75000000  0.89065300  1
  Ga  Ga1  1  0.31319600  0.75000000  0.39065300  1
  Ga  Ga2  1  0.81319600  0.25000000  0.10934700  1
  Ga  Ga3  1  0.68680400  0.25000000  0.60934700  1
  Se  Se0  1  0.68677900  0.45610300  0.07590200  1
  Se  Se1  1  0.81322100  0.04389700  0.57590200  1
  Se  Se2  1  0.31322100  0.95610300  0.92409800  1
  Se  Se3  1  0.18677900  0.54389700  0.42409800  1
  Se  Se4  1  0.31322100  0.54389700  0.92409800  1
  Se  Se5  1  0.18677900  0.95610300  0.42409800  1
  Se  Se6  1  0.68677900  0.04389700  0.07590200  1
  Se  Se7  1  0.81322100  0.45610300  0.57590200  1
  Se  Se8  1  0.36092200  0.75000000  0.20610900  1
  Se  Se9  1  0.13907800  0.75000000  0.70610900  1
  Se  Se10  1  0.63907800  0.25000000  0.79389100  1
  Se  Se11  1  0.86092200  0.25000000  0.29389100  1
  Se  Se12  1  0.95899700  0.75000000  0.99400800  1
  Se  Se13  1  0.54100300  0.75000000  0.49400800  1
  Se  Se14  1  0.04100300  0.25000000  0.00599200  1
  Se  Se15  1  0.45899700  0.25000000  0.50599200  1
  Cl  Cl0  1  0.66133600  0.75000000  0.77120100  1
  Cl  Cl1  1  0.83866400  0.75000000  0.27120100  1
  Cl  Cl2  1  0.33866400  0.25000000  0.22879900  1
  Cl  Cl3  1  0.16133600  0.25000000  0.72879900  1
loop_
_geom_bond_atom_site_label_1
_geom_bond_atom_site_label_2
_geom_bond_distance
_geom_bond_site_symmetry_2
Ba0 Cl0 3.158416 1_554
Ba0 Se0 3.202616 1_555
Ba0 Se6 3.202616 1_565
Ba0 Se8 3.223844 1_555
Ba0 Se2 3.347303 1_554
Ba0 Se4 3.347303 1_554
Ba0 Se12 3.352544 1_554
Ba1 Cl1 3.158416 1_555
Ba1 Se7 3.202616 1_555
Ba1 Se1 3.202616 1_565
Ba1 Se9 3.223844 1_655
Ba1 Se5 3.347303 1_655
Ba1 Se3 3.347303 1_655
Ba1 Se13 3.352544 1_555
Ba2 Cl2 3.158416 1_556
Ba2 Se4 3.202616 1_555
Ba2 Se2 3.202616 1_545
Ba2 Se10 3.223844 1_555
Ba2 Se0 3.347303 1_556
Ba2 Se6 3.347303 1_556
Ba2 Se14 3.352544 1_556
Ba3 Cl3 3.158416 1_555
Ba3 Se3 3.202616 1_555
Ba3 Se5 3.202616 1_545
Ba3 Se11 3.223844 1_455
Ba3 Se7 3.347303 1_455
Ba3 Se1 3.347303 1_455
Ba3 Se15 3.352544 1_555
Ba4 Cl3 3.395697 1_655
Ba4 Se14 3.406093 1_656
Ba4 Se7 3.440900 1_555
Ba4 Se12 3.448454 1_555
Ba4 Se10 3.449232 1_555
Ba4 Cl0 3.643266 1_555
Ba4 Ga0 3.662095 1_655
Ba4 Se9 3.682553 1_655
Ba4 Se4 3.733468 1_655
Ba4 Se0 3.819769 1_556
Ba5 Cl2 3.395697 1_555
Ba5 Se15 3.406093 1_555
Ba5 Se6 3.440900 1_555
Ba5 Se13 3.448454 1_545
Ba5 Se11 3.449232 1_555
Ba5 Cl1 3.643266 1_545
Ba5 Ga1 3.662095 1_545
Ba5 Se8 3.682553 1_545
Ba5 Se5 3.733468 1_545
Ba5 Se1 3.819769 1_555
Ba6 Cl1 3.395697 1_455
Ba6 Se12 3.406093 1_454
Ba6 Se5 3.440900 1_555
Ba6 Se14 3.448454 1_565
Ba6 Se8 3.449232 1_555
Ba6 Cl2 3.643266 1_565
Ba6 Ga2 3.662095 1_465
Ba6 Se11 3.682553 1_465
Ba6 Se6 3.733468 1_465
Ba6 Se2 3.819769 1_554
Ba7 Cl0 3.395697 1_555
Ba7 Se13 3.406093 1_555
Ba7 Se4 3.440900 1_555
Ba7 Se15 3.448454 1_555
Ba7 Se9 3.449232 1_555
Ba7 Cl3 3.643266 1_555
Ba7 Ga3 3.662095 1_555
Ba7 Se10 3.682553 1_555
Ba7 Se7 3.733468 1_555
Ba7 Se3 3.819769 1_555
Ba8 Cl1 3.395697 1_455
Ba8 Se12 3.406093 1_454
Ba8 Se3 3.440900 1_555
Ba8 Se14 3.448454 1_555
Ba8 Se8 3.449232 1_555
Ba8 Cl2 3.643266 1_555
Ba8 Ga2 3.662095 1_455
Ba8 Se11 3.682553 1_455
Ba8 Se0 3.733468 1_455
Ba8 Se4 3.819769 1_554
Ba9 Cl0 3.395697 1_555
Ba9 Se13 3.406093 1_555
Ba9 Se2 3.440900 1_555
Ba9 Se15 3.448454 1_565
Ba9 Se9 3.449232 1_555
Ba9 Cl3 3.643266 1_565
Ba9 Ga3 3.662095 1_565
Ba9 Se10 3.682553 1_565
Ba9 Se1 3.733468 1_565
Ba9 Se5 3.819769 1_555
Ba10 Cl3 3.395697 1_655
Ba10 Se14 3.406093 1_656
Ba10 Se1 3.440900 1_555
Ba10 Se12 3.448454 1_545
Ba10 Se10 3.449232 1_555
Ba10 Cl0 3.643266 1_545
Ba10 Ga0 3.662095 1_645
Ba10 Se9 3.682553 1_645
Ba10 Se2 3.733468 1_645
Ba10 Se6 3.819769 1_556
Ba11 Cl2 3.395697 1_555
Ba11 Se15 3.406093 1_555
Ba11 Se0 3.440900 1_555
Ba11 Se13 3.448454 1_555
Ba11 Se11 3.449232 1_555
Ba11 Cl1 3.643266 1_555
Ba11 Ga1 3.662095 1_555
Ba11 Se8 3.682553 1_555
Ba11 Se3 3.733468 1_555
Ba11 Se7 3.819769 1_555
Ga0 Se4 2.388631 1_555
Ga0 Se2 2.388631 1_555
Ga0 Se9 2.426645 1_555
Ga0 Se12 2.427809 1_455
Ga1 Se5 2.388631 1_555
Ga1 Se3 2.388631 1_555
Ga1 Se8 2.426645 1_555
Ga1 Se13 2.427809 1_555
Ga2 Se0 2.388631 1_555
Ga2 Se6 2.388631 1_555
Ga2 Se11 2.426645 1_555
Ga2 Se14 2.427809 1_655
Ga3 Se1 2.388631 1_555
Ga3 Se7 2.388631 1_555
Ga3 Se10 2.426645 1_555
Ga3 Se15 2.427809 1_555
