# generated using pymatgen
data_Ba2Nd2Fe(CoO4)3
_symmetry_space_group_name_H-M   'P 1'
_cell_length_a   8.74784554
_cell_length_b   8.74784554
_cell_length_c   3.94028800
_cell_angle_alpha   90.00000000
_cell_angle_beta   90.00000000
_cell_angle_gamma   126.37113211
_symmetry_Int_Tables_number   1
_chemical_formula_structural   Ba2Nd2Fe(CoO4)3
_chemical_formula_sum   'Ba2 Nd2 Fe1 Co3 O12'
_cell_volume   242.78955448
_cell_formula_units_Z   1
loop_
 _symmetry_equiv_pos_site_id
 _symmetry_equiv_pos_as_xyz
  1  'x, y, z'
loop_
 _atom_site_type_symbol
 _atom_site_label
 _atom_site_symmetry_multiplicity
 _atom_site_fract_x
 _atom_site_fract_y
 _atom_site_fract_z
 _atom_site_occupancy
  Ba  Ba0  1  0.00235400  0.50420100  0.00000000  1
  Ba  Ba1  1  0.49579900  0.99764600  0.00000000  1
  Nd  Nd0  1  0.75270100  0.74974900  0.00000000  1
  Nd  Nd1  1  0.25025100  0.24729900  0.00000000  1
  Fe  Fe0  1  0.87814000  0.12186000  0.50000000  1
  Co  Co0  1  0.62348300  0.37651700  0.50000000  1
  Co  Co1  1  0.12386300  0.87613700  0.50000000  1
  Co  Co2  1  0.37764400  0.62235600  0.50000000  1
  O  O0  1  0.00170100  0.99829900  0.50000000  1
  O  O1  1  0.50459100  0.49540900  0.50000000  1
  O  O2  1  0.11066700  0.88933300  0.00000000  1
  O  O3  1  0.61014000  0.38986000  0.00000000  1
  O  O4  1  0.87452200  0.64650100  0.50000000  1
  O  O5  1  0.35349900  0.12547800  0.50000000  1
  O  O6  1  0.88390800  0.11609200  0.00000000  1
  O  O7  1  0.38820900  0.61179100  0.00000000  1
  O  O8  1  0.63712800  0.86124100  0.50000000  1
  O  O9  1  0.13875900  0.36287200  0.50000000  1
  O  O10  1  0.74252900  0.25747100  0.50000000  1
  O  O11  1  0.25011200  0.74988800  0.50000000  1
loop_
_geom_bond_atom_site_label_1
_geom_bond_atom_site_label_2
_geom_bond_distance
_geom_bond_site_symmetry_2
Ba0 O11 2.770089 1_554
Ba0 O11 2.770089 1_555
Ba0 O10 2.808512 1_454
Ba0 O10 2.808512 1_455
Ba0 O4 2.886609 1_454
Ba0 O4 2.886609 1_455
Ba0 O6 2.903131 1_455
Ba0 O2 2.909017 1_555
Ba0 O7 2.917414 1_555
Ba0 O9 2.929759 1_554
Ba0 O9 2.929759 1_555
Ba0 O3 2.949944 1_455
Ba1 O11 2.770089 1_554
Ba1 O11 2.770089 1_555
Ba1 O10 2.808512 1_564
Ba1 O10 2.808512 1_565
Ba1 O5 2.886609 1_565
Ba1 O5 2.886609 1_564
Ba1 O6 2.903131 1_565
Ba1 O2 2.909017 1_555
Ba1 O7 2.917414 1_555
Ba1 O8 2.929759 1_555
Ba1 O8 2.929759 1_554
Ba1 O3 2.949944 1_565
Nd0 O2 2.600362 1_655
Nd0 O3 2.609635 1_555
Nd0 O4 2.640919 1_555
Nd0 O4 2.640919 1_554
Nd0 O8 2.650349 1_555
Nd0 O8 2.650349 1_554
Nd0 O7 2.656926 1_555
Nd0 O6 2.687939 1_565
Nd0 O0 2.781455 1_654
Nd0 O0 2.781455 1_655
Nd0 O1 2.795559 1_554
Nd0 O1 2.795559 1_555
Nd1 O2 2.600362 1_545
Nd1 O3 2.609635 1_555
Nd1 O5 2.640919 1_554
Nd1 O5 2.640919 1_555
Nd1 O9 2.650349 1_554
Nd1 O9 2.650349 1_555
Nd1 O7 2.656926 1_555
Nd1 O6 2.687939 1_455
Nd1 O0 2.781455 1_544
Nd1 O0 2.781455 1_545
Nd1 O1 2.795559 1_555
Nd1 O1 2.795559 1_554
Fe0 O0 1.929333 1_645
Fe0 O6 1.972202 1_556
Fe0 O6 1.972202 1_555
Fe0 O9 1.985433 1_655
Fe0 O8 1.985433 1_545
Fe0 O10 2.117487 1_555
Co0 O1 1.856429 1_555
Co0 O10 1.858834 1_555
Co0 O3 1.981130 1_555
Co0 O3 1.981130 1_556
Co0 O4 2.061361 1_555
Co0 O5 2.061361 1_555
Co1 O4 1.896377 1_455
Co1 O5 1.896377 1_565
Co1 O0 1.907489 1_555
Co1 O11 1.971305 1_555
Co1 O2 1.980889 1_556
Co1 O2 1.980889 1_555
Co2 O8 1.973215 1_555
Co2 O9 1.973215 1_555
Co2 O7 1.977039 1_555
Co2 O7 1.977039 1_556
Co2 O1 1.982204 1_555
Co2 O11 1.991338 1_555
