# generated using pymatgen
data_Li4Zn(PS4)2
_symmetry_space_group_name_H-M   'P 1'
_cell_length_a   6.37707700
_cell_length_b   8.00441581
_cell_length_c   18.42789303
_cell_angle_alpha   90.01674693
_cell_angle_beta   90.21699695
_cell_angle_gamma   90.22878529
_symmetry_Int_Tables_number   1
_chemical_formula_structural   Li4Zn(PS4)2
_chemical_formula_sum   'Li12 Zn3 P6 S24'
_cell_volume   940.63338200
_cell_formula_units_Z   3
loop_
 _symmetry_equiv_pos_site_id
 _symmetry_equiv_pos_as_xyz
  1  'x, y, z'
loop_
 _atom_site_type_symbol
 _atom_site_label
 _atom_site_symmetry_multiplicity
 _atom_site_fract_x
 _atom_site_fract_y
 _atom_site_fract_z
 _atom_site_occupancy
  Li  Li0  1  0.69280100  0.23805400  0.66884600  1
  Li  Li1  1  0.68850200  0.23959100  0.33512600  1
  Li  Li2  1  0.29772900  0.27364300  0.83241700  1
  Li  Li3  1  0.30896500  0.26151600  0.16556200  1
  Li  Li4  1  0.68426100  0.75669700  0.33211800  1
  Li  Li5  1  0.69118300  0.75302000  0.00232200  1
  Li  Li6  1  0.30209000  0.74327900  0.83156500  1
  Li  Li7  1  0.30899800  0.73769700  0.50486600  1
  Li  Li8  1  0.30484200  0.74516100  0.16589500  1
  Li  Li9  1  0.85076500  0.99544700  0.84018400  1
  Li  Li10  1  0.85402500  0.00164800  0.17118200  1
  Li  Li11  1  0.13950600  0.50860100  0.34111700  1
  Zn  Zn0  1  0.69273200  0.26059400  0.99893300  1
  Zn  Zn1  1  0.30208100  0.24343300  0.50211900  1
  Zn  Zn2  1  0.69703300  0.74166600  0.66670900  1
  P  P0  1  0.19814200  0.99678800  0.66536700  1
  P  P1  1  0.17080300  0.99612500  0.33566500  1
  P  P2  1  0.19968500  0.01068600  0.99740100  1
  P  P3  1  0.82408200  0.51154100  0.83580600  1
  P  P4  1  0.80846800  0.48848700  0.50158700  1
  P  P5  1  0.82035800  0.49592600  0.16674500  1
  S  S0  1  0.32207700  0.21182300  0.70194400  1
  S  S1  1  0.31973200  0.21621000  0.37317400  1
  S  S2  1  0.33399800  0.23103800  0.03383800  1
  S  S3  1  0.67046500  0.29038900  0.86996700  1
  S  S4  1  0.66356700  0.27343100  0.53724000  1
  S  S5  1  0.67248800  0.28324800  0.20289700  1
  S  S6  1  0.33381700  0.77525300  0.69864400  1
  S  S7  1  0.32448000  0.78706700  0.37302400  1
  S  S8  1  0.32098900  0.79698300  0.03582100  1
  S  S9  1  0.66527000  0.71957700  0.87025800  1
  S  S10  1  0.68669200  0.71128800  0.53850800  1
  S  S11  1  0.67325700  0.71135900  0.20008600  1
  S  S12  1  0.20817600  0.01013700  0.88572300  1
  S  S13  1  0.17819300  0.99445900  0.55338400  1
  S  S14  1  0.20604600  0.00350600  0.22403000  1
  S  S15  1  0.81788300  0.49738500  0.72310700  1
  S  S16  1  0.78436800  0.49867500  0.39025300  1
  S  S17  1  0.83702600  0.49888700  0.05416800  1
  S  S18  1  0.88617800  0.98389800  0.70497700  1
  S  S19  1  0.87374600  0.99650500  0.37193700  1
  S  S20  1  0.88392400  0.01645200  0.03316500  1
  S  S21  1  0.11357400  0.50996500  0.87896500  1
  S  S22  1  0.11455700  0.48224100  0.53946600  1
  S  S23  1  0.12109800  0.50062200  0.20738200  1
loop_
_geom_bond_atom_site_label_1
_geom_bond_atom_site_label_2
_geom_bond_distance
_geom_bond_site_symmetry_2
Li0 S15 2.434035 1_555
Li0 S4 2.448273 1_555
Li0 S0 2.451992 1_555
Li0 S18 2.473321 1_545
Li1 S19 2.377963 1_545
Li1 S16 2.385455 1_555
Li1 S1 2.462936 1_555
Li1 S5 2.463525 1_555
Li2 S21 2.391147 1_555
Li2 S12 2.394932 1_555
Li2 S0 2.460199 1_555
Li2 S3 2.476226 1_555
Li3 S23 2.390959 1_555
Li3 S14 2.419216 1_555
Li3 S5 2.421230 1_555
Li3 S2 2.445435 1_555
Li4 S19 2.378460 1_555
Li4 S16 2.414002 1_555
Li4 S7 2.430807 1_555
Li4 S11 2.460579 1_555
Li5 S17 2.434181 1_555
Li5 S9 2.453139 1_554
Li5 S8 2.468932 1_555
Li5 S20 2.500675 1_565
Li6 S21 2.384723 1_555
Li6 S9 2.428882 1_555
Li6 S12 2.435342 1_565
Li6 S6 2.471835 1_555
Li7 S13 2.395294 1_555
Li7 S7 2.463898 1_555
Li7 S22 2.472178 1_555
Li7 S10 2.494621 1_555
Li8 S23 2.403791 1_555
Li8 S14 2.415589 1_565
Li8 S8 2.435228 1_555
Li8 S11 2.446198 1_555
Li9 S12 2.428230 1_665
Li9 S18 2.504358 1_555
Li9 S9 2.562674 1_555
Li9 S3 2.687469 1_565
Li10 S14 2.443613 1_655
Li10 S20 2.553969 1_555
Li10 S5 2.605319 1_555
Li10 S11 2.644931 1_545
Li11 S16 2.443233 1_455
Li11 S23 2.467600 1_555
Li11 S7 2.584259 1_555
Li11 S1 2.676679 1_555
P0 S0 2.006495 1_565
P0 S13 2.067121 1_555
P0 S6 2.068320 1_555
P0 S18 2.123825 1_455
P1 S19 2.011221 1_455
P1 S7 2.059918 1_555
P1 S14 2.071119 1_565
P1 S1 2.112850 1_565
P2 S8 2.008192 1_546
P2 S12 2.058911 1_555
P2 S2 2.068412 1_556
P2 S20 2.121786 1_456
P3 S21 2.007464 1_655
P3 S9 2.054113 1_555
P3 S15 2.080078 1_555
P3 S3 2.116841 1_555
P4 S16 2.058483 1_555
P4 S4 2.059439 1_555
P4 S10 2.064175 1_555
P4 S22 2.071315 1_655
P5 S5 2.055159 1_555
P5 S23 2.056415 1_655
P5 S11 2.061007 1_555
P5 S17 2.077817 1_555
S1 Zn1 2.389210 1_555
S2 Zn0 2.389576 1_554
S3 Zn0 2.392317 1_555
S4 Zn1 2.403077 1_555
S6 Zn2 2.408081 1_555
S10 Zn2 2.375524 1_555
S13 Zn1 2.341460 1_565
S15 Zn2 2.346173 1_555
S17 Zn0 2.344927 1_554
S18 Zn2 2.384474 1_555
S20 Zn0 2.391103 1_554
S22 Zn1 2.362488 1_555
