# generated using pymatgen
data_Ca2Nb2CoO9
_symmetry_space_group_name_H-M   'P 1'
_cell_length_a   5.36500100
_cell_length_b   9.41138300
_cell_length_c   16.50156035
_cell_angle_alpha   55.75885633
_cell_angle_beta   90.00000000
_cell_angle_gamma   90.00000000
_symmetry_Int_Tables_number   1
_chemical_formula_structural   Ca2Nb2CoO9
_chemical_formula_sum   'Ca8 Nb8 Co4 O36'
_cell_volume   688.78547684
_cell_formula_units_Z   4
loop_
 _symmetry_equiv_pos_site_id
 _symmetry_equiv_pos_as_xyz
  1  'x, y, z'
loop_
 _atom_site_type_symbol
 _atom_site_label
 _atom_site_symmetry_multiplicity
 _atom_site_fract_x
 _atom_site_fract_y
 _atom_site_fract_z
 _atom_site_occupancy
  Ca  Ca0  1  0.49228600  0.44394600  0.40617300  1
  Ca  Ca1  1  0.00771400  0.44394600  0.90617300  1
  Ca  Ca2  1  0.97665400  0.88028200  0.43508900  1
  Ca  Ca3  1  0.50771400  0.55605400  0.59382700  1
  Ca  Ca4  1  0.99228600  0.55605400  0.09382700  1
  Ca  Ca5  1  0.47665400  0.11971800  0.06491100  1
  Ca  Ca6  1  0.52334600  0.88028200  0.93508900  1
  Ca  Ca7  1  0.02334600  0.11971800  0.56491100  1
  Nb  Nb0  1  0.02018400  0.83920900  0.83417100  1
  Nb  Nb1  1  0.00194900  0.67532100  0.66681800  1
  Nb  Nb2  1  0.97981600  0.16079100  0.16582900  1
  Nb  Nb3  1  0.47981600  0.83920900  0.33417100  1
  Nb  Nb4  1  0.99805100  0.32467900  0.33318200  1
  Nb  Nb5  1  0.50194900  0.32467900  0.83318200  1
  Nb  Nb6  1  0.52018400  0.16079100  0.66582900  1
  Nb  Nb7  1  0.49805100  0.67532100  0.16681800  1
  Co  Co0  1  0.50000000  0.00000000  0.50000000  1
  Co  Co1  1  0.00000000  0.00000000  0.00000000  1
  Co  Co2  1  0.50000000  0.50000000  0.00000000  1
  Co  Co3  1  0.00000000  0.50000000  0.50000000  1
  O  O0  1  0.78877000  0.12094700  0.42489600  1
  O  O1  1  0.70945100  0.32589500  0.10117700  1
  O  O2  1  0.29313000  0.19816900  0.42530400  1
  O  O3  1  0.79313000  0.80183100  0.07469600  1
  O  O4  1  0.78593600  0.64680800  0.94692900  1
  O  O5  1  0.57460400  0.73808500  0.25720700  1
  O  O6  1  0.70687000  0.80183100  0.57469600  1
  O  O7  1  0.92539600  0.73808500  0.75720700  1
  O  O8  1  0.92351000  0.07792100  0.08121700  1
  O  O9  1  0.57071000  0.40443600  0.92696800  1
  O  O10  1  0.20687000  0.19816900  0.92530400  1
  O  O11  1  0.20945100  0.67410500  0.39882300  1
  O  O12  1  0.29561100  0.01445100  0.21987200  1
  O  O13  1  0.07649000  0.92207900  0.91878300  1
  O  O14  1  0.21123000  0.87905300  0.57510400  1
  O  O15  1  0.21985500  0.53318500  0.25144400  1
  O  O16  1  0.29054900  0.67410500  0.89882300  1
  O  O17  1  0.07071000  0.59556400  0.57303200  1
  O  O18  1  0.79561100  0.98554900  0.28012800  1
  O  O19  1  0.28593600  0.35319200  0.55307100  1
  O  O20  1  0.71406400  0.64680800  0.44692900  1
  O  O21  1  0.79054900  0.32589500  0.60117700  1
  O  O22  1  0.07460400  0.26191500  0.24279300  1
  O  O23  1  0.71985500  0.46681500  0.24855600  1
  O  O24  1  0.78014500  0.46681500  0.74855600  1
  O  O25  1  0.28877000  0.87905300  0.07510400  1
  O  O26  1  0.42351000  0.92207900  0.41878300  1
  O  O27  1  0.21406400  0.35319200  0.05307100  1
  O  O28  1  0.70438900  0.98554900  0.78012800  1
  O  O29  1  0.57649000  0.07792100  0.58121700  1
  O  O30  1  0.92929000  0.40443600  0.42696800  1
  O  O31  1  0.20438900  0.01445100  0.71987200  1
  O  O32  1  0.28014500  0.53318500  0.75144400  1
  O  O33  1  0.42539600  0.26191500  0.74279300  1
  O  O34  1  0.42929000  0.59556400  0.07303200  1
  O  O35  1  0.71123000  0.12094700  0.92489600  1
loop_
_geom_bond_atom_site_label_1
_geom_bond_atom_site_label_2
_geom_bond_distance
_geom_bond_site_symmetry_2
Ca0 O19 2.345454 1_555
Ca0 O30 2.368382 1_555
Ca0 O2 2.402076 1_555
Ca0 O5 2.498604 1_555
Ca0 O11 2.591070 1_555
Ca0 O15 2.635831 1_555
Ca0 O20 2.637819 1_555
Ca0 O23 2.769800 1_555
Ca1 O27 2.345454 1_556
Ca1 O9 2.368382 1_455
Ca1 O10 2.402076 1_555
Ca1 O7 2.498604 1_455
Ca1 O16 2.591070 1_555
Ca1 O32 2.635831 1_555
Ca1 O4 2.637819 1_455
Ca1 O24 2.769800 1_455
Ca2 O18 2.369128 1_555
Ca2 O0 2.397041 1_565
Ca2 O17 2.398371 1_655
Ca2 O26 2.419808 1_655
Ca2 O6 2.456242 1_555
Ca2 O20 2.523478 1_555
Ca2 O14 2.625288 1_655
Ca2 O11 2.643864 1_655
Ca3 O20 2.345454 1_555
Ca3 O17 2.368382 1_555
Ca3 O6 2.402076 1_555
Ca3 O33 2.498604 1_555
Ca3 O21 2.591070 1_555
Ca3 O24 2.635831 1_555
Ca3 O19 2.637819 1_555
Ca3 O32 2.769800 1_555
Ca4 O4 2.345454 1_554
Ca4 O34 2.368382 1_655
Ca4 O3 2.402076 1_555
Ca4 O22 2.498604 1_655
Ca4 O1 2.591070 1_555
Ca4 O23 2.635831 1_555
Ca4 O27 2.637819 1_655
Ca4 O15 2.769800 1_655
Ca5 O12 2.369128 1_555
Ca5 O25 2.397041 1_545
Ca5 O9 2.398371 1_554
Ca5 O8 2.419808 1_555
Ca5 O10 2.456242 1_554
Ca5 O27 2.523478 1_555
Ca5 O35 2.625288 1_554
Ca5 O1 2.643864 1_555
Ca6 O28 2.369128 1_555
Ca6 O35 2.397041 1_565
Ca6 O34 2.398371 1_556
Ca6 O13 2.419808 1_555
Ca6 O3 2.456242 1_556
Ca6 O4 2.523478 1_555
Ca6 O25 2.625288 1_556
Ca6 O16 2.643864 1_555
Ca7 O31 2.369128 1_555
Ca7 O14 2.397041 1_545
Ca7 O30 2.398371 1_455
Ca7 O29 2.419808 1_455
Ca7 O2 2.456242 1_555
Ca7 O19 2.523478 1_555
Ca7 O0 2.625288 1_455
Ca7 O21 2.643864 1_455
Nb0 O31 1.937400 1_565
Nb0 O16 1.947070 1_555
Nb0 O13 1.968360 1_555
Nb0 O7 2.034100 1_455
Nb0 O28 2.044602 1_455
Nb0 O4 2.128095 1_455
Nb1 O7 1.932318 1_455
Nb1 O32 1.965947 1_555
Nb1 O14 1.990463 1_555
Nb1 O24 2.026690 1_455
Nb1 O6 2.048866 1_455
Nb1 O17 2.098079 1_555
Nb2 O18 1.937400 1_545
Nb2 O1 1.947070 1_555
Nb2 O8 1.968360 1_555
Nb2 O22 2.034100 1_655
Nb2 O12 2.044602 1_655
Nb2 O27 2.128095 1_655
Nb3 O12 1.937400 1_565
Nb3 O11 1.947070 1_555
Nb3 O26 1.968360 1_555
Nb3 O5 2.034100 1_555
Nb3 O18 2.044602 1_555
Nb3 O20 2.128095 1_555
Nb4 O22 1.932318 1_655
Nb4 O23 1.965947 1_555
Nb4 O0 1.990463 1_555
Nb4 O15 2.026690 1_655
Nb4 O2 2.048866 1_655
Nb4 O30 2.098079 1_555
Nb5 O33 1.932318 1_555
Nb5 O24 1.965947 1_555
Nb5 O35 1.990463 1_555
Nb5 O32 2.026690 1_555
Nb5 O10 2.048866 1_555
Nb5 O9 2.098079 1_555
Nb6 O28 1.937400 1_545
Nb6 O21 1.947070 1_555
Nb6 O29 1.968360 1_555
Nb6 O33 2.034100 1_555
Nb6 O31 2.044602 1_555
Nb6 O19 2.128095 1_555
Nb7 O5 1.932318 1_555
Nb7 O15 1.965947 1_555
Nb7 O25 1.990463 1_555
Nb7 O23 2.026690 1_555
Nb7 O3 2.048866 1_555
Nb7 O34 2.098079 1_555
Co0 O29 1.899576 1_555
Co0 O26 1.899576 1_545
Co0 O2 1.908521 1_555
Co0 O6 1.908521 1_545
Co0 O14 1.908995 1_545
Co0 O0 1.908995 1_555
Co1 O8 1.899576 1_455
Co1 O13 1.899576 1_544
Co1 O10 1.908521 1_554
Co1 O3 1.908521 1_445
Co1 O25 1.908995 1_545
Co1 O35 1.908995 1_454
Co2 O34 1.903929 1_555
Co2 O9 1.903929 1_554
Co2 O1 1.912187 1_555
Co2 O16 1.912187 1_554
Co2 O4 1.915090 1_554
Co2 O27 1.915090 1_555
Co3 O17 1.903929 1_555
Co3 O30 1.903929 1_455
Co3 O21 1.912187 1_455
Co3 O11 1.912187 1_555
Co3 O19 1.915090 1_555
Co3 O20 1.915090 1_455
