# generated using pymatgen
data_CS2N2O
_symmetry_space_group_name_H-M   'P 1'
_cell_length_a   10.54498600
_cell_length_b   9.72755600
_cell_length_c   12.62161479
_cell_angle_alpha   81.61015799
_cell_angle_beta   90.00000000
_cell_angle_gamma   90.00000000
_symmetry_Int_Tables_number   1
_chemical_formula_structural   CS2N2O
_chemical_formula_sum   'C8 S16 N16 O8'
_cell_volume   1280.83118987
_cell_formula_units_Z   8
loop_
 _symmetry_equiv_pos_site_id
 _symmetry_equiv_pos_as_xyz
  1  'x, y, z'
loop_
 _atom_site_type_symbol
 _atom_site_label
 _atom_site_symmetry_multiplicity
 _atom_site_fract_x
 _atom_site_fract_y
 _atom_site_fract_z
 _atom_site_occupancy
  C  C0  1  0.58312600  0.86748200  0.72304600  1
  C  C1  1  0.08312600  0.63251800  0.27695400  1
  C  C2  1  0.41687400  0.13251800  0.27695400  1
  C  C3  1  0.91687400  0.36748200  0.72304600  1
  C  C4  1  0.29767100  0.40514800  0.00461700  1
  C  C5  1  0.79767100  0.09485200  0.99538300  1
  C  C6  1  0.70232900  0.59485200  0.99538300  1
  C  C7  1  0.20232900  0.90514800  0.00461700  1
  S  S0  1  0.55198600  0.24073400  0.58923000  1
  S  S1  1  0.05198600  0.25926600  0.41077000  1
  S  S2  1  0.44801400  0.75926600  0.41077000  1
  S  S3  1  0.94801400  0.74073400  0.58923000  1
  S  S4  1  0.51035600  0.47968200  0.67478600  1
  S  S5  1  0.01035600  0.02031800  0.32521400  1
  S  S6  1  0.48964400  0.52031800  0.32521400  1
  S  S7  1  0.98964400  0.97968200  0.67478600  1
  S  S8  1  0.49478600  0.22682600  0.80220300  1
  S  S9  1  0.99478600  0.27317400  0.19779700  1
  S  S10  1  0.50521400  0.77317400  0.19779700  1
  S  S11  1  0.00521400  0.72682600  0.80220300  1
  S  S12  1  0.31311100  0.30637800  0.65073300  1
  S  S13  1  0.81311100  0.19362200  0.34926700  1
  S  S14  1  0.68688900  0.69362200  0.34926700  1
  S  S15  1  0.18688900  0.80637800  0.65073300  1
  N  N0  1  0.58963800  0.40271100  0.58947100  1
  N  N1  1  0.08963800  0.09728900  0.41052900  1
  N  N2  1  0.41036200  0.59728900  0.41052900  1
  N  N3  1  0.91036200  0.90271100  0.58947100  1
  N  N4  1  0.53457000  0.38975600  0.79215700  1
  N  N5  1  0.03457000  0.11024400  0.20784300  1
  N  N6  1  0.46543000  0.61024400  0.20784300  1
  N  N7  1  0.96543000  0.88975600  0.79215700  1
  N  N8  1  0.34585900  0.22302800  0.76891200  1
  N  N9  1  0.84585900  0.27697200  0.23108800  1
  N  N10  1  0.65414100  0.77697200  0.23108800  1
  N  N11  1  0.15414100  0.72302800  0.76891200  1
  N  N12  1  0.40027500  0.23701000  0.56592700  1
  N  N13  1  0.90027500  0.26299000  0.43407300  1
  N  N14  1  0.59972500  0.76299000  0.43407300  1
  N  N15  1  0.09972500  0.73701000  0.56592700  1
  O  O0  1  0.65929800  0.93874200  0.74954500  1
  O  O1  1  0.15929800  0.56125800  0.25045500  1
  O  O2  1  0.34070200  0.06125800  0.25045500  1
  O  O3  1  0.84070200  0.43874200  0.74954500  1
  O  O4  1  0.36011500  0.31521200  0.04249400  1
  O  O5  1  0.86011500  0.18478800  0.95750600  1
  O  O6  1  0.63988500  0.68478800  0.95750600  1
  O  O7  1  0.13988500  0.81521200  0.04249400  1
loop_
_geom_bond_atom_site_label_1
_geom_bond_atom_site_label_2
_geom_bond_distance
_geom_bond_site_symmetry_2
C0 O0 1.142457 1_555
C1 O1 1.142457 1_555
C2 O2 1.142457 1_555
C3 O3 1.142457 1_555
C4 O4 1.142567 1_555
C5 O5 1.142567 1_555
C6 O6 1.142567 1_555
C7 O7 1.142567 1_555
N0 S0 1.625328 1_555
N0 S4 1.629220 1_555
N1 S1 1.625328 1_555
N1 S5 1.629220 1_555
N2 S2 1.625328 1_555
N2 S6 1.629220 1_555
N3 S3 1.625328 1_555
N3 S7 1.629220 1_555
N4 S8 1.626461 1_555
N4 S4 1.626906 1_555
N5 S9 1.626461 1_455
N5 S5 1.626906 1_555
N6 S10 1.626461 1_555
N6 S6 1.626906 1_555
N7 S11 1.626461 1_655
N7 S7 1.626906 1_555
N8 S12 1.627457 1_555
N8 S8 1.627486 1_555
N9 S13 1.627457 1_555
N9 S9 1.627486 1_555
N10 S14 1.627457 1_555
N10 S10 1.627486 1_555
N11 S15 1.627457 1_555
N11 S11 1.627486 1_555
N12 S0 1.627961 1_555
N12 S12 1.629926 1_555
N13 S1 1.627961 1_655
N13 S13 1.629926 1_555
N14 S2 1.627961 1_555
N14 S14 1.629926 1_555
N15 S3 1.627961 1_455
N15 S15 1.629926 1_555
