# generated using pymatgen
data_Sr3Ca2P3O12F
_symmetry_space_group_name_H-M   'P 1'
_cell_length_a   7.16272800
_cell_length_b   9.72650949
_cell_length_c   9.73040868
_cell_angle_alpha   119.91255891
_cell_angle_beta   90.06445947
_cell_angle_gamma   90.01821399
_symmetry_Int_Tables_number   1
_chemical_formula_structural   Sr3Ca2P3O12F
_chemical_formula_sum   'Sr6 Ca4 P6 O24 F2'
_cell_volume   587.59579368
_cell_formula_units_Z   2
loop_
 _symmetry_equiv_pos_site_id
 _symmetry_equiv_pos_as_xyz
  1  'x, y, z'
loop_
 _atom_site_type_symbol
 _atom_site_label
 _atom_site_symmetry_multiplicity
 _atom_site_fract_x
 _atom_site_fract_y
 _atom_site_fract_z
 _atom_site_occupancy
  Sr  Sr0  1  0.24260300  0.00716100  0.24292200  1
  Sr  Sr1  1  0.74244700  0.25527600  0.24360500  1
  Sr  Sr2  1  0.74377800  0.75632900  0.01043500  1
  Sr  Sr3  1  0.74356500  0.98730000  0.75056700  1
  Sr  Sr4  1  0.99564600  0.33351100  0.66814500  1
  Sr  Sr5  1  0.49375800  0.66745200  0.33231700  1
  Ca  Ca0  1  0.49271200  0.33234700  0.66664100  1
  Ca  Ca1  1  0.99345800  0.66778100  0.33290700  1
  Ca  Ca2  1  0.24320000  0.75330600  0.74568800  1
  Ca  Ca3  1  0.24273500  0.25017000  0.00158700  1
  P  P0  1  0.74583900  0.60170600  0.63055700  1
  P  P1  1  0.74612900  0.36894500  0.97139000  1
  P  P2  1  0.74441900  0.03264800  0.40368700  1
  P  P3  1  0.24422600  0.40144000  0.37035000  1
  P  P4  1  0.24555000  0.62635000  0.02874000  1
  P  P5  1  0.24464300  0.96706000  0.59912000  1
  O  O0  1  0.57423000  0.67438900  0.74133100  1
  O  O1  1  0.57408500  0.25828300  0.93343900  1
  O  O2  1  0.57262500  0.07471300  0.33538000  1
  O  O3  1  0.07244400  0.33922200  0.25840900  1
  O  O4  1  0.07172900  0.73543600  0.07949900  1
  O  O5  1  0.07245900  0.91534700  0.65928900  1
  O  O6  1  0.75555900  0.66027100  0.50864400  1
  O  O7  1  0.75609700  0.49057200  0.15183900  1
  O  O8  1  0.75527400  0.85083300  0.33912500  1
  O  O9  1  0.25442000  0.32976200  0.48109300  1
  O  O10  1  0.25633700  0.51981600  0.84586200  1
  O  O11  1  0.25458500  0.15022800  0.67411800  1
  O  O12  1  0.92579700  0.65064500  0.73489900  1
  O  O13  1  0.92564000  0.26513300  0.91620300  1
  O  O14  1  0.92129000  0.09192900  0.35674000  1
  O  O15  1  0.41782800  0.35398300  0.26014100  1
  O  O16  1  0.42090400  0.73475100  0.09385600  1
  O  O17  1  0.41999400  0.90210000  0.64237600  1
  O  O18  1  0.72845800  0.41731800  0.54373100  1
  O  O19  1  0.72857200  0.45671800  0.87436500  1
  O  O20  1  0.72880700  0.12482400  0.58788500  1
  O  O21  1  0.23278300  0.58600200  0.46775700  1
  O  O22  1  0.23402400  0.52639300  0.11345800  1
  O  O23  1  0.23064600  0.88132500  0.41483200  1
  F  F0  1  0.24878800  0.00040600  0.98208800  1
  F  F1  1  0.75591700  0.00081800  0.00498200  1
loop_
_geom_bond_atom_site_label_1
_geom_bond_atom_site_label_2
_geom_bond_distance
_geom_bond_site_symmetry_2
Ca0 O18 2.440118 1_555
Ca0 O19 2.440338 1_555
Ca0 O20 2.446145 1_555
Ca0 O10 2.463685 1_555
Ca0 O9 2.474128 1_555
Ca0 O11 2.485797 1_555
Ca1 O7 2.434790 1_555
Ca1 O6 2.442151 1_555
Ca1 O8 2.445201 1_555
Ca1 O23 2.485802 1_655
Ca1 O21 2.515896 1_655
Ca1 O22 2.549698 1_655
Ca1 O4 2.906630 1_655
Ca1 O5 2.927866 1_655
Ca1 O3 2.958020 1_655
Ca2 F0 2.356927 1_565
Ca2 O21 2.361697 1_555
Ca2 O5 2.450903 1_555
Ca2 O12 2.463784 1_455
Ca2 O17 2.482215 1_555
Ca2 O0 2.486348 1_555
Ca2 O10 2.885192 1_555
Ca3 F0 2.340921 1_554
Ca3 O22 2.343185 1_555
Ca3 O13 2.446763 1_454
Ca3 O1 2.476779 1_554
Ca3 O3 2.516280 1_555
Ca3 O15 2.525937 1_555
Ca3 O11 2.831384 1_554
O0 P0 1.554363 1_555
O0 Sr2 2.622472 1_556
O1 P1 1.554088 1_555
O1 Sr3 2.629875 1_545
O2 P2 1.546943 1_555
O2 Sr0 2.496715 1_555
O2 Sr1 2.631873 1_555
O3 P3 1.551029 1_555
O3 Sr1 2.480948 1_455
O4 P4 1.548996 1_555
O4 Sr2 2.478664 1_455
O4 Sr0 2.610307 1_565
O5 P5 1.552981 1_555
O5 Sr3 2.492819 1_455
O6 P0 1.552629 1_555
O6 Sr5 2.564643 1_555
O6 Sr3 2.863430 1_555
O7 P1 1.554210 1_554
O7 Sr5 2.563377 1_555
O7 Sr1 2.843025 1_555
O8 P2 1.555703 1_565
O8 Sr5 2.564046 1_555
O8 Sr2 2.854476 1_555
O9 P3 1.549736 1_555
O9 Sr4 2.586711 1_455
O9 Sr0 2.823200 1_555
O10 P4 1.551633 1_556
O10 Sr4 2.574097 1_455
O11 P5 1.553955 1_545
O11 Sr4 2.593560 1_455
O12 P0 1.559984 1_555
O12 Sr2 2.684144 1_556
O12 Sr4 2.861894 1_555
O13 P1 1.556522 1_555
O13 Sr3 2.692628 1_545
O13 Sr4 2.850143 1_555
O14 P2 1.552309 1_555
O14 Sr0 2.509855 1_655
O14 Sr1 2.668265 1_555
O14 Sr4 2.807294 1_555
O15 P3 1.555294 1_555
O15 Sr1 2.490418 1_555
O15 Sr5 2.819154 1_555
O16 P4 1.556210 1_555
O16 Sr2 2.495026 1_555
O16 Sr0 2.632222 1_565
O16 Sr5 2.756268 1_555
O17 P5 1.555132 1_555
O17 Sr3 2.507928 1_555
O17 Sr5 2.779787 1_555
O18 P0 1.560183 1_555
O18 Sr1 2.536284 1_555
O18 Sr4 2.602426 1_555
O19 P1 1.561934 1_555
O19 Sr2 2.531508 1_556
O19 Sr4 2.594964 1_555
O20 P2 1.557749 1_555
O20 Sr3 2.533323 1_545
O20 Sr4 2.606951 1_555
O21 P3 1.559140 1_555
O21 Sr5 2.627661 1_555
O22 P4 1.559174 1_555
O22 Sr5 2.637050 1_555
O23 P5 1.558572 1_555
O23 Sr0 2.519064 1_565
O23 Sr5 2.619894 1_555
F0 Sr0 2.506347 1_556
F1 Sr2 2.406470 1_545
F1 Sr1 2.407337 1_555
F1 Sr3 2.414206 1_544
