# generated using pymatgen
data_BaNd2FeS5
_symmetry_space_group_name_H-M   'P 1'
_cell_length_a   8.76646811
_cell_length_b   8.76646811
_cell_length_c   8.76646811
_cell_angle_alpha   126.45383576
_cell_angle_beta   126.45383576
_cell_angle_gamma   79.14350256
_symmetry_Int_Tables_number   1
_chemical_formula_structural   BaNd2FeS5
_chemical_formula_sum   'Ba2 Nd4 Fe2 S10'
_cell_volume   421.50236410
_cell_formula_units_Z   2
loop_
 _symmetry_equiv_pos_site_id
 _symmetry_equiv_pos_as_xyz
  1  'x, y, z'
loop_
 _atom_site_type_symbol
 _atom_site_label
 _atom_site_symmetry_multiplicity
 _atom_site_fract_x
 _atom_site_fract_y
 _atom_site_fract_z
 _atom_site_occupancy
  Ba  Ba0  1  0.25000000  0.25000000  0.00000000  1
  Ba  Ba1  1  0.75000000  0.75000000  0.00000000  1
  Nd  Nd0  1  0.33809200  0.16190800  0.50000000  1
  Nd  Nd1  1  0.16190800  0.66190800  0.82381600  1
  Nd  Nd2  1  0.83809200  0.33809200  0.17618400  1
  Nd  Nd3  1  0.66190800  0.83809200  0.50000000  1
  Fe  Fe0  1  0.75000000  0.25000000  0.50000000  1
  Fe  Fe1  1  0.25000000  0.75000000  0.50000000  1
  S  S0  1  0.48766200  0.98766200  0.20457900  1
  S  S1  1  0.21691600  0.71691600  0.20457900  1
  S  S2  1  0.51233800  0.01233800  0.79542100  1
  S  S3  1  0.01233800  0.21691600  0.50000000  1
  S  S4  1  0.71691600  0.51233800  0.50000000  1
  S  S5  1  0.98766200  0.78308400  0.50000000  1
  S  S6  1  0.28308400  0.48766200  0.50000000  1
  S  S7  1  0.78308400  0.28308400  0.79542100  1
  S  S8  1  0.50000000  0.50000000  0.00000000  1
  S  S9  1  0.00000000  0.00000000  0.00000000  1
loop_
_geom_bond_atom_site_label_1
_geom_bond_atom_site_label_2
_geom_bond_distance
_geom_bond_site_symmetry_2
Ba0 S8 3.378717 1_555
Ba0 S9 3.378717 1_555
Ba0 S7 3.391492 1_454
Ba0 S1 3.391492 1_555
Ba0 S3 3.391493 1_554
Ba0 S6 3.391493 1_555
Ba0 S4 3.391493 1_555
Ba0 S5 3.391493 1_444
Ba0 S0 3.391498 1_545
Ba0 S2 3.391498 1_554
Ba1 S8 3.378717 1_555
Ba1 S9 3.378717 1_665
Ba1 S7 3.391492 1_554
Ba1 S1 3.391492 1_655
Ba1 S3 3.391493 1_665
Ba1 S4 3.391493 1_554
Ba1 S6 3.391493 1_554
Ba1 S5 3.391493 1_555
Ba1 S0 3.391498 1_555
Ba1 S2 3.391498 1_564
Nd0 S6 2.805153 1_555
Nd0 S3 2.805153 1_555
Nd0 S9 2.960594 1_555
Nd0 S8 2.960594 1_556
Nd0 S2 3.056042 1_555
Nd0 S0 3.056042 1_545
Nd0 S1 3.056050 1_545
Nd0 S7 3.056050 1_555
Nd1 S0 2.805152 1_556
Nd1 S1 2.805161 1_556
Nd1 S8 2.960594 1_556
Nd1 S9 2.960594 1_566
Nd1 S3 3.056049 1_555
Nd1 S4 3.056049 1_455
Nd1 S6 3.056049 1_555
Nd1 S5 3.056049 1_455
Nd2 S2 2.805152 1_554
Nd2 S7 2.805161 1_554
Nd2 S8 2.960594 1_555
Nd2 S9 2.960594 1_655
Nd2 S5 3.056049 1_555
Nd2 S6 3.056049 1_655
Nd2 S4 3.056049 1_555
Nd2 S3 3.056049 1_655
Nd3 S4 2.805153 1_555
Nd3 S5 2.805153 1_555
Nd3 S9 2.960594 1_666
Nd3 S8 2.960594 1_555
Nd3 S2 3.056042 1_565
Nd3 S0 3.056042 1_555
Nd3 S1 3.056050 1_555
Nd3 S7 3.056050 1_565
Fe0 S7 2.263138 1_555
Fe0 S3 2.263147 1_655
Fe0 S4 2.263147 1_555
Fe0 S0 2.263148 1_545
Fe1 S1 2.263138 1_555
Fe1 S6 2.263147 1_555
Fe1 S5 2.263147 1_455
Fe1 S2 2.263148 1_565
