# generated using pymatgen
data_TmC6(OF)9
_symmetry_space_group_name_H-M   'P 1'
_cell_length_a   21.20018300
_cell_length_b   9.16334300
_cell_length_c   9.18020665
_cell_angle_alpha   73.37674352
_cell_angle_beta   90.00000000
_cell_angle_gamma   90.00000000
_symmetry_Int_Tables_number   1
_chemical_formula_structural   TmC6(OF)9
_chemical_formula_sum   'Tm4 C24 O36 F36'
_cell_volume   1708.85470580
_cell_formula_units_Z   4
loop_
 _symmetry_equiv_pos_site_id
 _symmetry_equiv_pos_as_xyz
  1  'x, y, z'
loop_
 _atom_site_type_symbol
 _atom_site_label
 _atom_site_symmetry_multiplicity
 _atom_site_fract_x
 _atom_site_fract_y
 _atom_site_fract_z
 _atom_site_occupancy
  Tm  Tm0  1  0.54910200  0.50284000  0.18645800  1
  Tm  Tm1  1  0.04910200  0.99716000  0.81354200  1
  Tm  Tm2  1  0.45089800  0.49716000  0.81354200  1
  Tm  Tm3  1  0.95089800  0.00284000  0.18645800  1
  C  C0  1  0.66089900  0.67279200  0.32220500  1
  C  C1  1  0.16089900  0.82720800  0.67779500  1
  C  C2  1  0.33910100  0.32720800  0.67779500  1
  C  C3  1  0.83910100  0.17279200  0.32220500  1
  C  C4  1  0.40870200  0.60574800  0.12665900  1
  C  C5  1  0.90870200  0.89425200  0.87334100  1
  C  C6  1  0.59129800  0.39425200  0.87334100  1
  C  C7  1  0.09129800  0.10574800  0.12665900  1
  C  C8  1  0.54071900  0.77329100  0.86175600  1
  C  C9  1  0.04071900  0.72670900  0.13824400  1
  C  C10  1  0.45928100  0.22670900  0.13824400  1
  C  C11  1  0.95928100  0.27329100  0.86175600  1
  C  C12  1  0.65523700  0.77494800  0.43190500  1
  C  C13  1  0.15523700  0.72505200  0.56809500  1
  C  C14  1  0.34476300  0.22505200  0.56809500  1
  C  C15  1  0.84476300  0.27494800  0.43190500  1
  C  C16  1  0.34420400  0.67176600  0.16081900  1
  C  C17  1  0.84420400  0.82823400  0.83918100  1
  C  C18  1  0.65579600  0.32823400  0.83918100  1
  C  C19  1  0.15579600  0.17176600  0.16081900  1
  C  C20  1  0.57080400  0.93321000  0.78943200  1
  C  C21  1  0.07080400  0.56679000  0.21056800  1
  C  C22  1  0.42919600  0.06679000  0.21056800  1
  C  C23  1  0.92919600  0.43321000  0.78943200  1
  O  O0  1  0.60967200  0.59487000  0.31883700  1
  O  O1  1  0.10967200  0.90513000  0.68116300  1
  O  O2  1  0.39032800  0.40513000  0.68116300  1
  O  O3  1  0.89032800  0.09487000  0.31883700  1
  O  O4  1  0.70859600  0.67550200  0.24680000  1
  O  O5  1  0.20859600  0.82449800  0.75320000  1
  O  O6  1  0.29140400  0.32449800  0.75320000  1
  O  O7  1  0.79140400  0.17550200  0.24680000  1
  O  O8  1  0.45291200  0.59501500  0.22077100  1
  O  O9  1  0.95291200  0.90498500  0.77922900  1
  O  O10  1  0.54708800  0.40498500  0.77922900  1
  O  O11  1  0.04708800  0.09501500  0.22077100  1
  O  O12  1  0.58782900  0.42945000  0.99662000  1
  O  O13  1  0.08782900  0.07055000  0.00338000  1
  O  O14  1  0.41217100  0.57055000  0.00338000  1
  O  O15  1  0.91217100  0.92945000  0.99662000  1
  O  O16  1  0.55231600  0.71728300  0.00199000  1
  O  O17  1  0.05231600  0.78271700  0.99801000  1
  O  O18  1  0.44768400  0.28271700  0.99801000  1
  O  O19  1  0.94768400  0.21728300  0.00199000  1
  O  O20  1  0.49206700  0.28482600  0.22178800  1
  O  O21  1  0.99206700  0.21517400  0.77821200  1
  O  O22  1  0.50793300  0.71517400  0.77821200  1
  O  O23  1  0.00793300  0.78482600  0.22178800  1
  O  O24  1  0.68615400  0.31935800  0.20951300  1
  O  O25  1  0.18615400  0.18064200  0.79048700  1
  O  O26  1  0.31384600  0.68064200  0.79048700  1
  O  O27  1  0.81384600  0.81935800  0.20951300  1
  O  O28  1  0.64023200  0.28881300  0.29647600  1
  O  O29  1  0.14023200  0.21118700  0.70352400  1
  O  O30  1  0.35976800  0.71118700  0.70352400  1
  O  O31  1  0.85976800  0.78881300  0.29647600  1
  O  O32  1  0.51279900  0.44703500  0.48232500  1
  O  O33  1  0.01279900  0.05296500  0.51767500  1
  O  O34  1  0.48720100  0.55296500  0.51767500  1
  O  O35  1  0.98720100  0.94703500  0.48232500  1
  F  F0  1  0.62903100  0.69810500  0.56883800  1
  F  F1  1  0.12903100  0.80189500  0.43116200  1
  F  F2  1  0.37096900  0.30189500  0.43116200  1
  F  F3  1  0.87096900  0.19810500  0.56883800  1
  F  F4  1  0.71150500  0.82971500  0.46072300  1
  F  F5  1  0.21150500  0.67028500  0.53927700  1
  F  F6  1  0.28849500  0.17028500  0.53927700  1
  F  F7  1  0.78849500  0.32971500  0.46072300  1
  F  F8  1  0.61678100  0.89582900  0.36670900  1
  F  F9  1  0.11678100  0.60417100  0.63329100  1
  F  F10  1  0.38321900  0.10417100  0.63329100  1
  F  F11  1  0.88321900  0.39582900  0.36670900  1
  F  F12  1  0.29574700  0.58048900  0.14651900  1
  F  F13  1  0.79574700  0.91951100  0.85348100  1
  F  F14  1  0.70425300  0.41951100  0.85348100  1
  F  F15  1  0.20425300  0.08048900  0.14651900  1
  F  F16  1  0.34269500  0.68784500  0.30262500  1
  F  F17  1  0.84269500  0.81215500  0.69737500  1
  F  F18  1  0.65730500  0.31215500  0.69737500  1
  F  F19  1  0.15730500  0.18784500  0.30262500  1
  F  F20  1  0.33565400  0.81057900  0.05857900  1
  F  F21  1  0.83565400  0.68942100  0.94142100  1
  F  F22  1  0.66434600  0.18942100  0.94142100  1
  F  F23  1  0.16434600  0.31057900  0.05857900  1
  F  F24  1  0.54838500  0.03168700  0.86410000  1
  F  F25  1  0.04838500  0.46831300  0.13590000  1
  F  F26  1  0.45161500  0.96831300  0.13590000  1
  F  F27  1  0.95161500  0.53168700  0.86410000  1
  F  F28  1  0.63441100  0.92543900  0.80557600  1
  F  F29  1  0.13441100  0.57456100  0.19442400  1
  F  F30  1  0.36558900  0.07456100  0.19442400  1
  F  F31  1  0.86558900  0.42543900  0.80557600  1
  F  F32  1  0.55700700  0.99026200  0.64048000  1
  F  F33  1  0.05700700  0.50973800  0.35952000  1
  F  F34  1  0.44299300  0.00973800  0.35952000  1
  F  F35  1  0.94299300  0.49026200  0.64048000  1
loop_
_geom_bond_atom_site_label_1
_geom_bond_atom_site_label_2
_geom_bond_distance
_geom_bond_site_symmetry_2
C0 O4 1.221664 1_555
C0 O0 1.304938 1_555
C1 O5 1.221664 1_555
C1 O1 1.304938 1_555
C2 O6 1.221664 1_555
C2 O2 1.304938 1_555
C3 O7 1.221664 1_555
C3 O3 1.304938 1_555
C4 O8 1.259346 1_555
C4 O14 1.264550 1_555
C5 O9 1.259346 1_555
C5 O15 1.264550 1_555
C6 O10 1.259346 1_555
C6 O12 1.264550 1_555
C7 O11 1.259346 1_555
C7 O13 1.264550 1_555
C8 O22 1.260408 1_555
C8 O16 1.266157 1_556
C9 O23 1.260408 1_555
C9 O17 1.266157 1_554
C10 O20 1.260408 1_555
C10 O18 1.266157 1_554
C11 O21 1.260408 1_555
C11 O19 1.266157 1_556
C12 F4 1.349369 1_555
C12 F8 1.367669 1_555
C12 F0 1.370496 1_555
C13 F5 1.349369 1_555
C13 F9 1.367669 1_555
C13 F1 1.370496 1_555
C14 F6 1.349369 1_555
C14 F10 1.367669 1_555
C14 F2 1.370496 1_555
C15 F7 1.349369 1_555
C15 F11 1.367669 1_555
C15 F3 1.370496 1_555
C16 F16 1.351732 1_555
C16 F12 1.354609 1_555
C16 F20 1.359661 1_555
C17 F17 1.351732 1_555
C17 F13 1.354609 1_555
C17 F21 1.359661 1_555
C18 F18 1.351732 1_555
C18 F14 1.354609 1_555
C18 F22 1.359661 1_555
C19 F19 1.351732 1_555
C19 F15 1.354609 1_555
C19 F23 1.359661 1_555
C20 F32 1.348948 1_555
C20 F28 1.356243 1_555
C20 F24 1.365268 1_565
C21 F33 1.348948 1_555
C21 F29 1.356243 1_555
C21 F25 1.365268 1_555
C22 F34 1.348948 1_555
C22 F30 1.356243 1_555
C22 F26 1.365268 1_545
C23 F35 1.348948 1_555
C23 F31 1.356243 1_555
C23 F27 1.365268 1_555
O0 Tm0 2.103164 1_555
O1 Tm1 2.103164 1_555
O2 Tm2 2.103164 1_555
O3 Tm3 2.103164 1_555
O8 Tm0 2.263488 1_555
O9 Tm1 2.263488 1_655
O10 Tm2 2.263488 1_555
O11 Tm3 2.263488 1_455
O12 Tm0 2.198653 1_556
O13 Tm1 2.198653 1_544
O14 Tm2 2.198653 1_554
O15 Tm3 2.198653 1_566
O16 Tm0 2.197675 1_555
O17 Tm1 2.197675 1_555
O18 Tm2 2.197675 1_555
O19 Tm3 2.197675 1_555
O20 Tm0 2.277603 1_555
O21 Tm1 2.277603 1_645
O22 Tm2 2.277603 1_555
O23 Tm3 2.277603 1_465
O24 O28 1.239212 1_555
O25 O29 1.239212 1_555
O26 O30 1.239212 1_555
O27 O31 1.239212 1_555
O28 Tm0 2.732323 1_555
O29 Tm1 2.732323 1_545
O30 Tm2 2.732323 1_555
O31 Tm3 2.732323 1_565
O32 O34 1.233797 1_555
O32 Tm0 2.726986 1_555
O33 O35 1.233797 1_445
O33 Tm1 2.726986 1_545
O34 Tm2 2.726986 1_555
O35 Tm3 2.726986 1_565
