# generated using pymatgen
data_SrMg30CuO32
_symmetry_space_group_name_H-M   'P 1'
_cell_length_a   8.62778700
_cell_length_b   8.62778700
_cell_length_c   8.53257500
_cell_angle_alpha   90.00000000
_cell_angle_beta   90.00000000
_cell_angle_gamma   90.00000000
_symmetry_Int_Tables_number   1
_chemical_formula_structural   SrMg30CuO32
_chemical_formula_sum   'Sr1 Mg30 Cu1 O32'
_cell_volume   635.15386333
_cell_formula_units_Z   1
loop_
 _symmetry_equiv_pos_site_id
 _symmetry_equiv_pos_as_xyz
  1  'x, y, z'
loop_
 _atom_site_type_symbol
 _atom_site_label
 _atom_site_symmetry_multiplicity
 _atom_site_fract_x
 _atom_site_fract_y
 _atom_site_fract_z
 _atom_site_occupancy
  Sr  Sr0  1  0.00000000  0.00000000  0.50000000  1
  Mg  Mg0  1  0.50000000  0.00000000  0.00000000  1
  Mg  Mg1  1  0.50000000  0.00000000  0.50000000  1
  Mg  Mg2  1  0.00000000  0.50000000  0.00000000  1
  Mg  Mg3  1  0.00000000  0.50000000  0.50000000  1
  Mg  Mg4  1  0.50000000  0.50000000  0.00000000  1
  Mg  Mg5  1  0.50000000  0.50000000  0.50000000  1
  Mg  Mg6  1  0.25639400  0.00000000  0.24386400  1
  Mg  Mg7  1  0.25639400  0.00000000  0.75613600  1
  Mg  Mg8  1  0.74360600  0.00000000  0.24386400  1
  Mg  Mg9  1  0.74360600  0.00000000  0.75613600  1
  Mg  Mg10  1  0.25046000  0.50000000  0.24922100  1
  Mg  Mg11  1  0.25046000  0.50000000  0.75077900  1
  Mg  Mg12  1  0.74954000  0.50000000  0.24922100  1
  Mg  Mg13  1  0.74954000  0.50000000  0.75077900  1
  Mg  Mg14  1  0.00000000  0.25639400  0.24386400  1
  Mg  Mg15  1  0.00000000  0.25639400  0.75613600  1
  Mg  Mg16  1  0.50000000  0.25046000  0.24922100  1
  Mg  Mg17  1  0.50000000  0.25046000  0.75077900  1
  Mg  Mg18  1  0.00000000  0.74360600  0.24386400  1
  Mg  Mg19  1  0.00000000  0.74360600  0.75613600  1
  Mg  Mg20  1  0.50000000  0.74954000  0.24922100  1
  Mg  Mg21  1  0.50000000  0.74954000  0.75077900  1
  Mg  Mg22  1  0.24950200  0.24950200  0.00000000  1
  Mg  Mg23  1  0.25496000  0.25496000  0.50000000  1
  Mg  Mg24  1  0.75049800  0.24950200  0.00000000  1
  Mg  Mg25  1  0.74504000  0.25496000  0.50000000  1
  Mg  Mg26  1  0.24950200  0.75049800  0.00000000  1
  Mg  Mg27  1  0.25496000  0.74504000  0.50000000  1
  Mg  Mg28  1  0.75049800  0.75049800  0.00000000  1
  Mg  Mg29  1  0.74504000  0.74504000  0.50000000  1
  Cu  Cu0  1  0.00000000  0.00000000  0.00000000  1
  O  O0  1  0.00000000  0.26102400  0.00000000  1
  O  O1  1  0.00000000  0.26933900  0.50000000  1
  O  O2  1  0.50000000  0.25157800  0.00000000  1
  O  O3  1  0.50000000  0.25362000  0.50000000  1
  O  O4  1  0.00000000  0.73897600  0.00000000  1
  O  O5  1  0.00000000  0.73066100  0.50000000  1
  O  O6  1  0.50000000  0.74842200  0.00000000  1
  O  O7  1  0.50000000  0.74638000  0.50000000  1
  O  O8  1  0.24900900  0.24900900  0.25038900  1
  O  O9  1  0.24900900  0.24900900  0.74961100  1
  O  O10  1  0.75099100  0.24900900  0.25038900  1
  O  O11  1  0.75099100  0.24900900  0.74961100  1
  O  O12  1  0.24900900  0.75099100  0.25038900  1
  O  O13  1  0.24900900  0.75099100  0.74961100  1
  O  O14  1  0.75099100  0.75099100  0.25038900  1
  O  O15  1  0.75099100  0.75099100  0.74961100  1
  O  O16  1  0.00000000  0.00000000  0.22613500  1
  O  O17  1  0.00000000  0.00000000  0.77386500  1
  O  O18  1  0.50000000  0.00000000  0.24762300  1
  O  O19  1  0.50000000  0.00000000  0.75237700  1
  O  O20  1  0.00000000  0.50000000  0.24762300  1
  O  O21  1  0.00000000  0.50000000  0.75237700  1
  O  O22  1  0.50000000  0.50000000  0.24948100  1
  O  O23  1  0.50000000  0.50000000  0.75051900  1
  O  O24  1  0.26102400  0.00000000  0.00000000  1
  O  O25  1  0.26933900  0.00000000  0.50000000  1
  O  O26  1  0.73897600  0.00000000  0.00000000  1
  O  O27  1  0.73066100  0.00000000  0.50000000  1
  O  O28  1  0.25157800  0.50000000  0.00000000  1
  O  O29  1  0.25362000  0.50000000  0.50000000  1
  O  O30  1  0.74842200  0.50000000  0.00000000  1
  O  O31  1  0.74638000  0.50000000  0.50000000  1
loop_
_geom_bond_atom_site_label_1
_geom_bond_atom_site_label_2
_geom_bond_distance
_geom_bond_site_symmetry_2
Mg0 O26 2.061834 1_555
Mg0 O24 2.061834 1_555
Mg0 O18 2.112862 1_555
Mg0 O19 2.112862 1_554
Mg0 O6 2.170561 1_545
Mg0 O2 2.170561 1_555
Mg1 O27 1.990094 1_555
Mg1 O25 1.990094 1_555
Mg1 O18 2.153426 1_555
Mg1 O19 2.153426 1_555
Mg1 O7 2.188179 1_545
Mg1 O3 2.188179 1_555
Mg2 O4 2.061834 1_555
Mg2 O0 2.061834 1_555
Mg2 O20 2.112862 1_555
Mg2 O21 2.112862 1_554
Mg2 O30 2.170561 1_455
Mg2 O28 2.170561 1_555
Mg3 O1 1.990094 1_555
Mg3 O5 1.990094 1_555
Mg3 O21 2.153426 1_555
Mg3 O20 2.153426 1_555
Mg3 O31 2.188179 1_455
Mg3 O29 2.188179 1_555
Mg4 O23 2.128715 1_554
Mg4 O22 2.128715 1_555
Mg4 O2 2.143332 1_555
Mg4 O28 2.143332 1_555
Mg4 O30 2.143332 1_555
Mg4 O6 2.143332 1_555
Mg5 O29 2.125714 1_555
Mg5 O3 2.125714 1_555
Mg5 O31 2.125714 1_555
Mg5 O7 2.125714 1_555
Mg5 O22 2.137572 1_555
Mg5 O23 2.137572 1_555
Mg6 O24 2.081171 1_555
Mg6 O18 2.102025 1_555
Mg6 O8 2.150062 1_555
Mg6 O12 2.150062 1_545
Mg6 O25 2.188352 1_555
Mg6 O16 2.217279 1_555
Mg7 O24 2.081171 1_556
Mg7 O19 2.102025 1_555
Mg7 O9 2.150062 1_555
Mg7 O13 2.150062 1_545
Mg7 O25 2.188352 1_555
Mg7 O17 2.217279 1_555
Mg8 O26 2.081171 1_555
Mg8 O18 2.102025 1_555
Mg8 O10 2.150062 1_555
Mg8 O14 2.150062 1_545
Mg8 O27 2.188352 1_555
Mg8 O16 2.217279 1_655
Mg9 O26 2.081171 1_556
Mg9 O19 2.102025 1_555
Mg9 O11 2.150062 1_555
Mg9 O15 2.150062 1_545
Mg9 O27 2.188352 1_555
Mg9 O17 2.217279 1_655
Mg10 O28 2.126519 1_555
Mg10 O29 2.139964 1_555
Mg10 O22 2.152979 1_555
Mg10 O20 2.160959 1_555
Mg10 O8 2.165556 1_555
Mg10 O12 2.165556 1_555
Mg11 O28 2.126519 1_556
Mg11 O29 2.139964 1_555
Mg11 O23 2.152979 1_555
Mg11 O21 2.160959 1_555
Mg11 O9 2.165556 1_555
Mg11 O13 2.165556 1_555
Mg12 O30 2.126519 1_555
Mg12 O31 2.139964 1_555
Mg12 O22 2.152979 1_555
Mg12 O20 2.160959 1_655
Mg12 O14 2.165556 1_555
Mg12 O10 2.165556 1_555
Mg13 O30 2.126519 1_556
Mg13 O31 2.139964 1_555
Mg13 O23 2.152979 1_555
Mg13 O21 2.160959 1_655
Mg13 O11 2.165556 1_555
Mg13 O15 2.165556 1_555
Mg14 O0 2.081171 1_555
Mg14 O20 2.102025 1_555
Mg14 O8 2.150062 1_555
Mg14 O10 2.150062 1_455
Mg14 O1 2.188352 1_555
Mg14 O16 2.217279 1_555
Mg15 O0 2.081171 1_556
Mg15 O21 2.102025 1_555
Mg15 O9 2.150062 1_555
Mg15 O11 2.150062 1_455
Mg15 O1 2.188352 1_555
Mg15 O17 2.217279 1_555
Mg16 O2 2.126519 1_555
Mg16 O3 2.139964 1_555
Mg16 O22 2.152979 1_555
Mg16 O18 2.160959 1_555
Mg16 O8 2.165556 1_555
Mg16 O10 2.165556 1_555
Mg17 O2 2.126519 1_556
Mg17 O3 2.139964 1_555
Mg17 O23 2.152979 1_555
Mg17 O19 2.160959 1_555
Mg17 O11 2.165556 1_555
Mg17 O9 2.165556 1_555
Mg18 O4 2.081171 1_555
Mg18 O20 2.102025 1_555
Mg18 O12 2.150062 1_555
Mg18 O14 2.150062 1_455
Mg18 O5 2.188352 1_555
Mg18 O16 2.217279 1_565
Mg19 O4 2.081171 1_556
Mg19 O21 2.102025 1_555
Mg19 O13 2.150062 1_555
Mg19 O15 2.150062 1_455
Mg19 O5 2.188352 1_555
Mg19 O17 2.217279 1_565
Mg20 O6 2.126519 1_555
Mg20 O7 2.139964 1_555
Mg20 O22 2.152979 1_555
Mg20 O18 2.160959 1_565
Mg20 O14 2.165556 1_555
Mg20 O12 2.165556 1_555
Mg21 O6 2.126519 1_556
Mg21 O7 2.139964 1_555
Mg21 O23 2.152979 1_555
Mg21 O19 2.160959 1_565
Mg21 O15 2.165556 1_555
Mg21 O13 2.165556 1_555
Mg22 O8 2.136471 1_555
Mg22 O9 2.136471 1_554
Mg22 O24 2.154944 1_555
Mg22 O0 2.154944 1_555
Mg22 O2 2.161318 1_555
Mg22 O28 2.161318 1_555
Mg23 O29 2.114185 1_555
Mg23 O3 2.114185 1_555
Mg23 O8 2.131062 1_555
Mg23 O9 2.131062 1_555
Mg23 O25 2.203236 1_555
Mg23 O1 2.203236 1_555
Mg24 O10 2.136471 1_555
Mg24 O11 2.136471 1_554
Mg24 O26 2.154944 1_555
Mg24 O0 2.154944 1_655
Mg24 O2 2.161318 1_555
Mg24 O30 2.161318 1_555
Mg25 O31 2.114185 1_555
Mg25 O3 2.114185 1_555
Mg25 O10 2.131062 1_555
Mg25 O11 2.131062 1_555
Mg25 O1 2.203236 1_655
Mg25 O27 2.203236 1_555
Mg26 O13 2.136471 1_554
Mg26 O12 2.136471 1_555
Mg26 O24 2.154944 1_565
Mg26 O4 2.154944 1_555
Mg26 O28 2.161318 1_555
Mg26 O6 2.161318 1_555
Mg27 O7 2.114185 1_555
Mg27 O29 2.114185 1_555
Mg27 O13 2.131062 1_555
Mg27 O12 2.131062 1_555
Mg27 O25 2.203236 1_565
Mg27 O5 2.203236 1_555
Mg28 O15 2.136471 1_554
Mg28 O14 2.136471 1_555
Mg28 O4 2.154944 1_655
Mg28 O26 2.154944 1_565
Mg28 O6 2.161318 1_555
Mg28 O30 2.161318 1_555
Mg29 O7 2.114185 1_555
Mg29 O31 2.114185 1_555
Mg29 O14 2.131062 1_555
Mg29 O15 2.131062 1_555
Mg29 O5 2.203236 1_655
Mg29 O27 2.203236 1_565
Cu0 O17 1.929514 1_554
Cu0 O16 1.929514 1_555
Cu0 O0 2.252059 1_555
Cu0 O24 2.252059 1_555
Cu0 O4 2.252059 1_545
Cu0 O26 2.252059 1_455
O1 Sr0 2.323800 1_555
O5 Sr0 2.323800 1_565
O16 Sr0 2.336774 1_555
O17 Sr0 2.336774 1_555
O25 Sr0 2.323800 1_555
O27 Sr0 2.323800 1_655
