# generated using pymatgen
data_YbAl2Cu3
_symmetry_space_group_name_H-M   'P 1'
_cell_length_a   5.18798363
_cell_length_b   5.18798363
_cell_length_c   3.93179664
_cell_angle_alpha   90.00000000
_cell_angle_beta   90.00000000
_cell_angle_gamma   120.00000740
_symmetry_Int_Tables_number   1
_chemical_formula_structural   YbAl2Cu3
_chemical_formula_sum   'Yb1 Al2 Cu3'
_cell_volume   91.64712424
_cell_formula_units_Z   1
loop_
 _symmetry_equiv_pos_site_id
 _symmetry_equiv_pos_as_xyz
  1  'x, y, z'
loop_
 _atom_site_type_symbol
 _atom_site_label
 _atom_site_symmetry_multiplicity
 _atom_site_fract_x
 _atom_site_fract_y
 _atom_site_fract_z
 _atom_site_occupancy
  Yb  Yb0  1  0.00000000  0.00000000  0.00000000  1
  Al  Al0  1  0.33333300  0.66666700  0.00000000  1
  Al  Al1  1  0.66666700  0.33333300  0.00000000  1
  Cu  Cu0  1  0.50000000  0.00000000  0.50000000  1
  Cu  Cu1  1  0.00000000  0.50000000  0.50000000  1
  Cu  Cu2  1  0.50000000  0.50000000  0.50000000  1
loop_
_geom_bond_atom_site_label_1
_geom_bond_atom_site_label_2
_geom_bond_distance
_geom_bond_site_symmetry_2
Al0 Cu1 2.471373 1_554
Al0 Cu1 2.471373 1_555
Al0 Cu0 2.471373 1_564
Al0 Cu0 2.471373 1_565
Al0 Cu2 2.471375 1_554
Al0 Cu2 2.471375 1_555
Al0 Yb0 2.995281 1_565
Al0 Yb0 2.995285 1_555
Al0 Yb0 2.995285 1_665
Al1 Cu0 2.471373 1_554
Al1 Cu0 2.471373 1_555
Al1 Cu1 2.471373 1_654
Al1 Cu1 2.471373 1_655
Al1 Cu2 2.471375 1_554
Al1 Cu2 2.471375 1_555
Al1 Yb0 2.995281 1_655
Al1 Yb0 2.995285 1_555
Al1 Yb0 2.995285 1_665
Cu0 Yb0 3.254773 1_555
Cu0 Yb0 3.254773 1_556
Cu0 Yb0 3.254773 1_655
Cu0 Yb0 3.254773 1_656
Cu1 Yb0 3.254773 1_555
Cu1 Yb0 3.254773 1_556
Cu1 Yb0 3.254773 1_565
Cu1 Yb0 3.254773 1_566
Cu2 Yb0 3.254773 1_666
Cu2 Yb0 3.254773 1_665
Cu2 Yb0 3.254773 1_555
Cu2 Yb0 3.254773 1_556
