# generated using pymatgen
data_ReNiO4
_symmetry_space_group_name_H-M   'P 1'
_cell_length_a   5.55212253
_cell_length_b   5.55212253
_cell_length_c   4.74782324
_cell_angle_alpha   87.77589124
_cell_angle_beta   87.77589124
_cell_angle_gamma   63.27925730
_symmetry_Int_Tables_number   1
_chemical_formula_structural   ReNiO4
_chemical_formula_sum   'Re2 Ni2 O8'
_cell_volume   130.59119038
_cell_formula_units_Z   2
loop_
 _symmetry_equiv_pos_site_id
 _symmetry_equiv_pos_as_xyz
  1  'x, y, z'
loop_
 _atom_site_type_symbol
 _atom_site_label
 _atom_site_symmetry_multiplicity
 _atom_site_fract_x
 _atom_site_fract_y
 _atom_site_fract_z
 _atom_site_occupancy
  Re  Re0  1  0.72886400  0.27113600  0.50000000  1
  Re  Re1  1  0.27113600  0.72886400  0.50000000  1
  Ni  Ni0  1  0.76170600  0.76170600  0.00863700  1
  Ni  Ni1  1  0.23829400  0.23829400  0.99136300  1
  O  O0  1  0.90973500  0.90973500  0.31850400  1
  O  O1  1  0.09026500  0.09026500  0.68149600  1
  O  O2  1  0.39020500  0.39020500  0.29049900  1
  O  O3  1  0.60979500  0.60979500  0.70950100  1
  O  O4  1  0.39801900  0.88222200  0.21601200  1
  O  O5  1  0.60198100  0.11777800  0.78398800  1
  O  O6  1  0.11777800  0.60198100  0.78398800  1
  O  O7  1  0.88222200  0.39801900  0.21601200  1
loop_
_geom_bond_atom_site_label_1
_geom_bond_atom_site_label_2
_geom_bond_distance
_geom_bond_site_symmetry_2
Ni0 O6 2.040967 1_654
Ni0 O5 2.040967 1_564
Ni0 O7 2.043580 1_555
Ni0 O4 2.043580 1_555
Ni0 O3 2.065312 1_554
Ni0 O0 2.076178 1_555
Ni1 O7 2.040967 1_456
Ni1 O4 2.040967 1_546
Ni1 O6 2.043580 1_555
Ni1 O5 2.043580 1_555
Ni1 O2 2.065312 1_556
Ni1 O1 2.076178 1_555
O0 Re0 2.008031 1_565
O0 Re1 2.008031 1_655
O1 Re0 2.008031 1_455
O1 Re1 2.008031 1_545
O2 Re0 1.984475 1_555
O2 Re1 1.984475 1_555
O3 Re0 1.984475 1_555
O3 Re1 1.984475 1_555
O4 Re1 1.848197 1_555
O5 Re0 1.848197 1_555
O6 Re1 1.848197 1_555
O7 Re0 1.848197 1_555
