# generated using pymatgen
data_HfVGe
_symmetry_space_group_name_H-M   'P 1'
_cell_length_a   3.67774647
_cell_length_b   3.67772591
_cell_length_c   7.60450274
_cell_angle_alpha   103.98009647
_cell_angle_beta   103.98021328
_cell_angle_gamma   90.00305755
_symmetry_Int_Tables_number   1
_chemical_formula_structural   HfVGe
_chemical_formula_sum   'Hf2 V2 Ge2'
_cell_volume   96.66690506
_cell_formula_units_Z   2
loop_
 _symmetry_equiv_pos_site_id
 _symmetry_equiv_pos_as_xyz
  1  'x, y, z'
loop_
 _atom_site_type_symbol
 _atom_site_label
 _atom_site_symmetry_multiplicity
 _atom_site_fract_x
 _atom_site_fract_y
 _atom_site_fract_z
 _atom_site_occupancy
  Hf  Hf0  1  0.67701460  0.67701495  0.35402380  1
  Hf  Hf1  1  0.32298613  0.32298671  0.64597754  1
  V  V0  1  0.99994337  0.49995120  0.99999724  1
  V  V1  1  0.50004984  0.00005196  0.00000114  1
  Ge  Ge0  1  0.12869562  0.12869022  0.25730089  1
  Ge  Ge1  1  0.87131045  0.87130497  0.74269939  1
loop_
_geom_bond_atom_site_label_1
_geom_bond_atom_site_label_2
_geom_bond_distance
_geom_bond_site_symmetry_2
Hf0 V0 3.127362 1_554
Hf0 V1 3.127563 1_565
Hf0 V1 3.128033 1_555
Hf0 V0 3.128291 1_454
Hf1 V1 3.127348 1_556
Hf1 V0 3.127562 1_455
Hf1 V0 3.128012 1_555
Hf1 V1 3.128259 1_566
V0 V1 2.599954 1_556
V0 V1 2.600607 1_566
V0 V1 2.600636 1_656
V0 V1 2.601012 1_666
Ge0 V0 2.600061 1_454
Ge0 V1 2.600287 1_555
Ge0 V1 2.600858 1_455
Ge0 V0 2.601109 1_444
Ge0 Hf0 2.690776 1_445
Ge0 Hf0 2.690808 1_555
Ge0 Hf0 2.690911 1_545
Ge0 Hf0 2.690941 1_455
Ge0 Hf1 2.777827 1_555
Ge1 V1 2.600056 1_566
Ge1 V0 2.600265 1_555
Ge1 V0 2.600845 1_565
Ge1 V1 2.601109 1_666
Ge1 Hf1 2.690774 1_665
Ge1 Hf1 2.690806 1_555
Ge1 Hf1 2.690909 1_655
Ge1 Hf1 2.690939 1_565
Ge1 Hf0 2.777819 1_555
