# generated using pymatgen
data_YMg6Co
_symmetry_space_group_name_H-M   'P 1'
_cell_length_a   4.87963500
_cell_length_b   6.22580100
_cell_length_c   11.35810700
_cell_angle_alpha   90.00000000
_cell_angle_beta   90.00000000
_cell_angle_gamma   90.00000000
_symmetry_Int_Tables_number   1
_chemical_formula_structural   YMg6Co
_chemical_formula_sum   'Y2 Mg12 Co2'
_cell_volume   345.05516156
_cell_formula_units_Z   2
loop_
 _symmetry_equiv_pos_site_id
 _symmetry_equiv_pos_as_xyz
  1  'x, y, z'
loop_
 _atom_site_type_symbol
 _atom_site_label
 _atom_site_symmetry_multiplicity
 _atom_site_fract_x
 _atom_site_fract_y
 _atom_site_fract_z
 _atom_site_occupancy
  Y  Y0  1  0.00000000  0.50000000  0.30780800  1
  Y  Y1  1  0.00000000  0.00000000  0.80780800  1
  Mg  Mg0  1  0.00000000  0.25730400  0.07514500  1
  Mg  Mg1  1  0.00000000  0.74269600  0.07514500  1
  Mg  Mg2  1  0.00000000  0.00000000  0.33849900  1
  Mg  Mg3  1  0.50000000  0.75417000  0.43083300  1
  Mg  Mg4  1  0.50000000  0.24583000  0.43083300  1
  Mg  Mg5  1  0.50000000  0.00000000  0.17717100  1
  Mg  Mg6  1  0.00000000  0.75730400  0.57514500  1
  Mg  Mg7  1  0.00000000  0.24269600  0.57514500  1
  Mg  Mg8  1  0.00000000  0.50000000  0.83849900  1
  Mg  Mg9  1  0.50000000  0.25417000  0.93083300  1
  Mg  Mg10  1  0.50000000  0.74583000  0.93083300  1
  Mg  Mg11  1  0.50000000  0.50000000  0.67717100  1
  Co  Co0  1  0.50000000  0.50000000  0.16456600  1
  Co  Co1  1  0.50000000  0.00000000  0.66456600  1
loop_
_geom_bond_atom_site_label_1
_geom_bond_atom_site_label_2
_geom_bond_distance
_geom_bond_site_symmetry_2
Mg0 Mg9 2.939349 1_554
Mg0 Mg9 2.939349 1_454
Mg0 Mg1 3.021954 1_555
Mg0 Y0 3.044084 1_555
Mg0 Mg8 3.083438 1_554
Mg0 Mg5 3.140340 1_455
Mg0 Mg5 3.140340 1_555
Mg0 Mg1 3.203847 1_545
Mg0 Mg2 3.393148 1_555
Mg0 Y1 3.433095 1_554
Mg1 Mg10 2.939349 1_454
Mg1 Mg10 2.939349 1_554
Mg1 Y0 3.044084 1_555
Mg1 Mg8 3.083438 1_554
Mg1 Mg5 3.140340 1_465
Mg1 Mg5 3.140340 1_565
Mg1 Mg2 3.393148 1_565
Mg1 Y1 3.433095 1_564
Mg2 Mg5 3.051283 1_455
Mg2 Mg5 3.051283 1_555
Mg2 Mg3 3.065120 1_545
Mg2 Mg3 3.065120 1_445
Mg2 Mg4 3.065120 1_555
Mg2 Mg4 3.065120 1_455
Mg2 Mg7 3.083438 1_555
Mg2 Mg6 3.083438 1_545
Mg2 Y0 3.132358 1_545
Mg2 Y0 3.132358 1_555
Mg3 Mg6 2.939349 1_655
Mg3 Mg6 2.939349 1_555
Mg3 Mg4 3.060977 1_565
Mg3 Mg4 3.164824 1_555
Mg3 Y0 3.226340 1_655
Mg3 Y0 3.226340 1_555
Mg3 Mg5 3.262399 1_565
Mg4 Mg7 2.939349 1_555
Mg4 Mg7 2.939349 1_655
Mg4 Y0 3.226340 1_655
Mg4 Y0 3.226340 1_555
Mg4 Mg5 3.262399 1_555
Mg5 Mg9 3.214414 1_554
Mg6 Mg7 3.021954 1_565
Mg6 Y1 3.044084 1_565
Mg6 Mg7 3.203847 1_555
Mg6 Mg8 3.393148 1_555
Mg6 Y0 3.433095 1_555
Mg7 Y1 3.044084 1_555
Mg7 Mg8 3.393148 1_555
Mg7 Y0 3.433095 1_555
Mg8 Mg9 3.065120 1_455
Mg8 Mg9 3.065120 1_555
Mg8 Y1 3.132358 1_565
Mg8 Y1 3.132358 1_555
Mg9 Y1 3.226340 1_555
Mg9 Y1 3.226340 1_655
Mg10 Mg9 3.060977 1_555
Mg10 Mg8 3.065120 1_555
Mg10 Mg8 3.065120 1_655
Mg10 Mg9 3.164824 1_565
Mg10 Mg5 3.214414 1_566
Mg10 Y1 3.226340 1_565
Mg10 Y1 3.226340 1_665
Mg10 Mg11 3.262399 1_555
Mg11 Mg8 3.051283 1_555
Mg11 Mg8 3.051283 1_655
Mg11 Mg6 3.140340 1_655
Mg11 Mg7 3.140340 1_555
Mg11 Mg6 3.140340 1_555
Mg11 Mg7 3.140340 1_655
Mg11 Mg3 3.214414 1_555
Mg11 Mg4 3.214414 1_555
Mg11 Mg9 3.262399 1_555
Co0 Y0 2.932525 1_555
Co0 Y0 2.932525 1_655
Co0 Mg1 3.044226 1_655
Co0 Mg1 3.044226 1_555
Co0 Mg0 3.044226 1_555
Co0 Mg0 3.044226 1_655
Co0 Mg9 3.064338 1_554
Co0 Mg10 3.064338 1_554
Co0 Mg5 3.116191 1_565
Co0 Mg5 3.116191 1_555
Co0 Mg3 3.413261 1_555
Co0 Mg4 3.413261 1_555
Co1 Y1 2.932525 1_555
Co1 Y1 2.932525 1_655
Co1 Mg6 3.044226 1_645
Co1 Mg6 3.044226 1_545
Co1 Mg7 3.044226 1_555
Co1 Mg7 3.044226 1_655
Co1 Mg3 3.064338 1_545
Co1 Mg4 3.064338 1_555
Co1 Mg11 3.116191 1_545
Co1 Mg11 3.116191 1_555
Co1 Mg10 3.413261 1_545
Co1 Mg9 3.413261 1_555
