# generated using pymatgen
data_MgSn2
_symmetry_space_group_name_H-M   'P 1'
_cell_length_a   16.05817664
_cell_length_b   16.05817664
_cell_length_c   11.51976600
_cell_angle_alpha   90.00000000
_cell_angle_beta   90.00000000
_cell_angle_gamma   155.29462345
_symmetry_Int_Tables_number   1
_chemical_formula_structural   MgSn2
_chemical_formula_sum   'Mg16 Sn32'
_cell_volume   1241.54614152
_cell_formula_units_Z   16
loop_
 _symmetry_equiv_pos_site_id
 _symmetry_equiv_pos_as_xyz
  1  'x, y, z'
loop_
 _atom_site_type_symbol
 _atom_site_label
 _atom_site_symmetry_multiplicity
 _atom_site_fract_x
 _atom_site_fract_y
 _atom_site_fract_z
 _atom_site_occupancy
  Mg  Mg0_0  1  0.13955150  0.36044850  0.12500000  1
  Mg  Mg0_1  1  0.13955150  0.36044850  0.62500000  1
  Mg  Mg0_2  1  0.13955150  0.86044850  0.12500000  1
  Mg  Mg0_3  1  0.13955150  0.86044850  0.62500000  1
  Mg  Mg0_4  1  0.63955150  0.36044850  0.12500000  1
  Mg  Mg0_5  1  0.63955150  0.36044850  0.62500000  1
  Mg  Mg0_6  1  0.63955150  0.86044850  0.12500000  1
  Mg  Mg0_7  1  0.63955150  0.86044850  0.62500000  1
  Mg  Mg1_0  1  0.36044850  0.13955150  0.37500000  1
  Mg  Mg1_1  1  0.36044850  0.13955150  0.87500000  1
  Mg  Mg1_2  1  0.36044850  0.63955150  0.37500000  1
  Mg  Mg1_3  1  0.36044850  0.63955150  0.87500000  1
  Mg  Mg1_4  1  0.86044850  0.13955150  0.37500000  1
  Mg  Mg1_5  1  0.86044850  0.13955150  0.87500000  1
  Mg  Mg1_6  1  0.86044850  0.63955150  0.37500000  1
  Mg  Mg1_7  1  0.86044850  0.63955150  0.87500000  1
  Sn  Sn0_0  1  0.30944150  0.19055850  0.12500000  1
  Sn  Sn0_1  1  0.30944150  0.19055850  0.62500000  1
  Sn  Sn0_2  1  0.30944150  0.69055850  0.12500000  1
  Sn  Sn0_3  1  0.30944150  0.69055850  0.62500000  1
  Sn  Sn0_4  1  0.80944150  0.19055850  0.12500000  1
  Sn  Sn0_5  1  0.80944150  0.19055850  0.62500000  1
  Sn  Sn0_6  1  0.80944150  0.69055850  0.12500000  1
  Sn  Sn0_7  1  0.80944150  0.69055850  0.62500000  1
  Sn  Sn1_0  1  0.47070250  0.02929750  0.12500000  1
  Sn  Sn1_1  1  0.47070250  0.02929750  0.62500000  1
  Sn  Sn1_2  1  0.47070250  0.52929750  0.12500000  1
  Sn  Sn1_3  1  0.47070250  0.52929750  0.62500000  1
  Sn  Sn1_4  1  0.97070250  0.02929750  0.12500000  1
  Sn  Sn1_5  1  0.97070250  0.02929750  0.62500000  1
  Sn  Sn1_6  1  0.97070250  0.52929750  0.12500000  1
  Sn  Sn1_7  1  0.97070250  0.52929750  0.62500000  1
  Sn  Sn2_0  1  0.02929750  0.47070250  0.37500000  1
  Sn  Sn2_1  1  0.02929750  0.47070250  0.87500000  1
  Sn  Sn2_2  1  0.02929750  0.97070250  0.37500000  1
  Sn  Sn2_3  1  0.02929750  0.97070250  0.87500000  1
  Sn  Sn2_4  1  0.52929750  0.47070250  0.37500000  1
  Sn  Sn2_5  1  0.52929750  0.47070250  0.87500000  1
  Sn  Sn2_6  1  0.52929750  0.97070250  0.37500000  1
  Sn  Sn2_7  1  0.52929750  0.97070250  0.87500000  1
  Sn  Sn3_0  1  0.19055850  0.30944150  0.37500000  1
  Sn  Sn3_1  1  0.19055850  0.30944150  0.87500000  1
  Sn  Sn3_2  1  0.19055850  0.80944150  0.37500000  1
  Sn  Sn3_3  1  0.19055850  0.80944150  0.87500000  1
  Sn  Sn3_4  1  0.69055850  0.30944150  0.37500000  1
  Sn  Sn3_5  1  0.69055850  0.30944150  0.87500000  1
  Sn  Sn3_6  1  0.69055850  0.80944150  0.37500000  1
  Sn  Sn3_7  1  0.69055850  0.80944150  0.87500000  1
loop_
_geom_bond_atom_site_label_1
_geom_bond_atom_site_label_2
_geom_bond_distance
_geom_bond_site_symmetry_2
Mg0_0 Sn0_4 3.044158 1_455
Mg0_0 Sn0_2 3.044158 1_555
Mg0_0 Sn1_2 3.071177 1_555
Mg0_0 Sn1_4 3.071177 1_455
Mg0_0 Sn3_0 3.294664 1_555
Mg0_0 Sn3_1 3.294664 1_554
Mg0_0 Mg0_6 3.435306 1_445
Mg0_0 Mg0_6 3.435306 1_555
Mg0_0 Mg1_4 3.475348 1_455
Mg0_0 Mg1_2 3.475348 1_555
Mg0_0 Mg1_5 3.475348 1_454
Mg0_0 Mg1_3 3.475348 1_554
Mg0_1 Sn0_5 3.044158 1_455
Mg0_1 Sn0_3 3.044158 1_555
Mg0_1 Sn1_3 3.071177 1_555
Mg0_1 Sn1_5 3.071177 1_455
Mg0_1 Sn3_1 3.294664 1_555
Mg0_1 Sn3_0 3.294664 1_555
Mg0_1 Mg0_7 3.435306 1_445
Mg0_1 Mg0_7 3.435306 1_555
Mg0_1 Mg1_3 3.475348 1_555
Mg0_1 Mg1_4 3.475348 1_455
Mg0_1 Mg1_5 3.475348 1_455
Mg0_1 Mg1_2 3.475348 1_555
Mg0_2 Sn0_0 3.044158 1_565
Mg0_2 Sn0_6 3.044158 1_455
Mg0_2 Sn1_0 3.071177 1_565
Mg0_2 Sn1_6 3.071177 1_455
Mg0_2 Sn3_2 3.294664 1_555
Mg0_2 Sn3_3 3.294664 1_554
Mg0_2 Mg0_4 3.435306 1_565
Mg0_2 Mg0_4 3.435306 1_455
Mg0_2 Mg1_6 3.475348 1_455
Mg0_2 Mg1_7 3.475348 1_454
Mg0_2 Mg1_1 3.475348 1_564
Mg0_2 Mg1_0 3.475348 1_565
Mg0_3 Sn0_1 3.044158 1_565
Mg0_3 Sn0_7 3.044158 1_455
Mg0_3 Sn1_1 3.071177 1_565
Mg0_3 Sn1_7 3.071177 1_455
Mg0_3 Sn3_3 3.294664 1_555
Mg0_3 Sn3_2 3.294664 1_555
Mg0_3 Mg0_5 3.435306 1_565
Mg0_3 Mg0_5 3.435306 1_455
Mg0_3 Mg1_7 3.475348 1_455
Mg0_3 Mg1_6 3.475348 1_455
Mg0_3 Mg1_1 3.475348 1_565
Mg0_3 Mg1_0 3.475348 1_565
Mg0_4 Sn0_6 3.044158 1_555
Mg0_4 Sn0_0 3.044158 1_555
Mg0_4 Sn1_6 3.071177 1_555
Mg0_4 Sn1_0 3.071177 1_555
Mg0_4 Sn3_4 3.294664 1_555
Mg0_4 Sn3_5 3.294664 1_554
Mg0_4 Mg1_6 3.475348 1_555
Mg0_4 Mg1_0 3.475348 1_555
Mg0_4 Mg1_7 3.475348 1_554
Mg0_4 Mg1_1 3.475348 1_554
Mg0_5 Sn0_7 3.044158 1_555
Mg0_5 Sn0_1 3.044158 1_555
Mg0_5 Sn1_7 3.071177 1_555
Mg0_5 Sn1_1 3.071177 1_555
Mg0_5 Sn3_5 3.294664 1_555
Mg0_5 Sn3_4 3.294664 1_555
Mg0_5 Mg1_7 3.475348 1_555
Mg0_5 Mg1_1 3.475348 1_555
Mg0_5 Mg1_0 3.475348 1_555
Mg0_5 Mg1_6 3.475348 1_555
Mg0_6 Sn0_2 3.044158 1_555
Mg0_6 Sn0_4 3.044158 1_565
Mg0_6 Sn1_4 3.071177 1_565
Mg0_6 Sn1_2 3.071177 1_555
Mg0_6 Sn3_6 3.294664 1_555
Mg0_6 Sn3_7 3.294664 1_554
Mg0_6 Mg1_4 3.475348 1_565
Mg0_6 Mg1_2 3.475348 1_555
Mg0_6 Mg1_5 3.475348 1_564
Mg0_6 Mg1_3 3.475348 1_554
Mg0_7 Sn0_3 3.044158 1_555
Mg0_7 Sn0_5 3.044158 1_565
Mg0_7 Sn1_5 3.071177 1_565
Mg0_7 Sn1_3 3.071177 1_555
Mg0_7 Sn3_7 3.294664 1_555
Mg0_7 Sn3_6 3.294664 1_555
Mg0_7 Mg1_5 3.475348 1_565
Mg0_7 Mg1_4 3.475348 1_565
Mg0_7 Mg1_3 3.475348 1_555
Mg0_7 Mg1_2 3.475348 1_555
Mg1_0 Sn3_4 3.044158 1_555
Mg1_0 Sn3_2 3.044158 1_545
Mg1_0 Sn2_4 3.071177 1_555
Mg1_0 Sn2_2 3.071177 1_545
Mg1_0 Sn0_0 3.294664 1_555
Mg1_0 Sn0_1 3.294664 1_555
Mg1_0 Mg1_6 3.435306 1_445
Mg1_0 Mg1_6 3.435306 1_555
Mg1_1 Sn3_3 3.044158 1_545
Mg1_1 Sn3_5 3.044158 1_555
Mg1_1 Sn2_5 3.071177 1_555
Mg1_1 Sn2_3 3.071177 1_545
Mg1_1 Sn0_0 3.294664 1_556
Mg1_1 Sn0_1 3.294664 1_555
Mg1_1 Mg1_7 3.435306 1_445
Mg1_1 Mg1_7 3.435306 1_555
Mg1_2 Sn3_6 3.044158 1_555
Mg1_2 Sn3_0 3.044158 1_555
Mg1_2 Sn2_6 3.071177 1_555
Mg1_2 Sn2_0 3.071177 1_555
Mg1_2 Sn0_2 3.294664 1_555
Mg1_2 Sn0_3 3.294664 1_555
Mg1_2 Mg1_4 3.435306 1_455
Mg1_2 Mg1_4 3.435306 1_565
Mg1_3 Sn3_7 3.044158 1_555
Mg1_3 Sn3_1 3.044158 1_555
Mg1_3 Sn2_7 3.071177 1_555
Mg1_3 Sn2_1 3.071177 1_555
Mg1_3 Sn0_3 3.294664 1_555
Mg1_3 Sn0_2 3.294664 1_556
Mg1_3 Mg1_5 3.435306 1_455
Mg1_3 Mg1_5 3.435306 1_565
Mg1_4 Sn3_6 3.044158 1_545
Mg1_4 Sn3_0 3.044158 1_655
Mg1_4 Sn2_0 3.071177 1_655
Mg1_4 Sn2_6 3.071177 1_545
Mg1_4 Sn0_4 3.294664 1_555
Mg1_4 Sn0_5 3.294664 1_555
Mg1_5 Sn3_7 3.044158 1_545
Mg1_5 Sn3_1 3.044158 1_655
Mg1_5 Sn2_1 3.071177 1_655
Mg1_5 Sn2_7 3.071177 1_545
Mg1_5 Sn0_5 3.294664 1_555
Mg1_5 Sn0_4 3.294664 1_556
Mg1_6 Sn3_4 3.044158 1_555
Mg1_6 Sn3_2 3.044158 1_655
Mg1_6 Sn2_2 3.071177 1_655
Mg1_6 Sn2_4 3.071177 1_555
Mg1_6 Sn0_6 3.294664 1_555
Mg1_6 Sn0_7 3.294664 1_555
Mg1_7 Sn3_3 3.044158 1_655
Mg1_7 Sn3_5 3.044158 1_555
Mg1_7 Sn2_3 3.071177 1_655
Mg1_7 Sn2_5 3.071177 1_555
Mg1_7 Sn0_6 3.294664 1_556
Mg1_7 Sn0_7 3.294664 1_555
Sn0_0 Sn1_2 3.271231 1_555
Sn0_0 Sn1_4 3.271231 1_455
Sn0_0 Sn0_6 3.435306 1_555
Sn0_0 Sn0_6 3.435306 1_445
Sn0_0 Sn2_4 3.484071 1_555
Sn0_0 Sn2_5 3.484071 1_554
Sn0_0 Sn2_2 3.484071 1_545
Sn0_0 Sn2_3 3.484071 1_544
Sn0_1 Sn1_3 3.271231 1_555
Sn0_1 Sn1_5 3.271231 1_455
Sn0_1 Sn0_7 3.435306 1_555
Sn0_1 Sn0_7 3.435306 1_445
Sn0_1 Sn2_5 3.484071 1_555
Sn0_1 Sn2_4 3.484071 1_555
Sn0_1 Sn2_3 3.484071 1_545
Sn0_1 Sn2_2 3.484071 1_545
Sn0_2 Sn1_0 3.271231 1_565
Sn0_2 Sn1_6 3.271231 1_455
Sn0_2 Sn0_4 3.435306 1_455
Sn0_2 Sn0_4 3.435306 1_565
Sn0_2 Sn2_6 3.484071 1_555
Sn0_2 Sn2_7 3.484071 1_554
Sn0_2 Sn2_0 3.484071 1_555
Sn0_2 Sn2_1 3.484071 1_554
Sn0_3 Sn1_1 3.271231 1_565
Sn0_3 Sn1_7 3.271231 1_455
Sn0_3 Sn0_5 3.435306 1_455
Sn0_3 Sn0_5 3.435306 1_565
Sn0_3 Sn2_7 3.484071 1_555
Sn0_3 Sn2_6 3.484071 1_555
Sn0_3 Sn2_1 3.484071 1_555
Sn0_3 Sn2_0 3.484071 1_555
Sn0_4 Sn1_6 3.271231 1_555
Sn0_4 Sn1_0 3.271231 1_555
Sn0_4 Sn2_0 3.484071 1_655
Sn0_4 Sn2_1 3.484071 1_654
Sn0_4 Sn2_6 3.484071 1_545
Sn0_4 Sn2_7 3.484071 1_544
Sn0_5 Sn1_7 3.271231 1_555
Sn0_5 Sn1_1 3.271231 1_555
Sn0_5 Sn2_1 3.484071 1_655
Sn0_5 Sn2_0 3.484071 1_655
Sn0_5 Sn2_7 3.484071 1_545
Sn0_5 Sn2_6 3.484071 1_545
Sn0_6 Sn1_4 3.271231 1_565
Sn0_6 Sn1_2 3.271231 1_555
Sn0_6 Sn2_2 3.484071 1_655
Sn0_6 Sn2_3 3.484071 1_654
Sn0_6 Sn2_4 3.484071 1_555
Sn0_6 Sn2_5 3.484071 1_554
Sn0_7 Sn1_5 3.271231 1_565
Sn0_7 Sn1_3 3.271231 1_555
Sn0_7 Sn2_3 3.484071 1_655
Sn0_7 Sn2_2 3.484071 1_655
Sn0_7 Sn2_5 3.484071 1_555
Sn0_7 Sn2_4 3.484071 1_555
Sn1_0 Sn2_6 3.416633 1_545
Sn1_0 Sn2_7 3.416633 1_544
Sn1_0 Sn1_6 3.435306 1_445
Sn1_0 Sn1_6 3.435306 1_555
Sn1_0 Sn3_2 3.484071 1_545
Sn1_0 Sn3_3 3.484071 1_544
Sn1_0 Sn3_4 3.484071 1_555
Sn1_0 Sn3_5 3.484071 1_554
Sn1_1 Sn2_7 3.416633 1_545
Sn1_1 Sn2_6 3.416633 1_545
Sn1_1 Sn1_7 3.435306 1_445
Sn1_1 Sn1_7 3.435306 1_555
Sn1_1 Sn3_3 3.484071 1_545
Sn1_1 Sn3_2 3.484071 1_545
Sn1_1 Sn3_4 3.484071 1_555
Sn1_1 Sn3_5 3.484071 1_555
Sn1_2 Sn2_4 3.416633 1_555
Sn1_2 Sn2_5 3.416633 1_554
Sn1_2 Sn1_4 3.435306 1_565
Sn1_2 Sn1_4 3.435306 1_455
Sn1_2 Sn3_0 3.484071 1_555
Sn1_2 Sn3_1 3.484071 1_554
Sn1_2 Sn3_6 3.484071 1_555
Sn1_2 Sn3_7 3.484071 1_554
Sn1_3 Sn2_4 3.416633 1_555
Sn1_3 Sn2_5 3.416633 1_555
Sn1_3 Sn1_5 3.435306 1_565
Sn1_3 Sn1_5 3.435306 1_455
Sn1_3 Sn3_1 3.484071 1_555
Sn1_3 Sn3_0 3.484071 1_555
Sn1_3 Sn3_6 3.484071 1_555
Sn1_3 Sn3_7 3.484071 1_555
Sn1_4 Sn2_3 3.416633 1_644
Sn1_4 Sn2_2 3.416633 1_645
Sn1_4 Sn3_6 3.484071 1_545
Sn1_4 Sn3_7 3.484071 1_544
Sn1_4 Sn3_1 3.484071 1_654
Sn1_4 Sn3_0 3.484071 1_655
Sn1_5 Sn2_3 3.416633 1_645
Sn1_5 Sn2_2 3.416633 1_645
Sn1_5 Sn3_7 3.484071 1_545
Sn1_5 Sn3_6 3.484071 1_545
Sn1_5 Sn3_1 3.484071 1_655
Sn1_5 Sn3_0 3.484071 1_655
Sn1_6 Sn2_0 3.416633 1_655
Sn1_6 Sn2_1 3.416633 1_654
Sn1_6 Sn3_5 3.484071 1_554
Sn1_6 Sn3_4 3.484071 1_555
Sn1_6 Sn3_2 3.484071 1_655
Sn1_6 Sn3_3 3.484071 1_654
Sn1_7 Sn2_1 3.416633 1_655
Sn1_7 Sn2_0 3.416633 1_655
Sn1_7 Sn3_5 3.484071 1_555
Sn1_7 Sn3_4 3.484071 1_555
Sn1_7 Sn3_3 3.484071 1_655
Sn1_7 Sn3_2 3.484071 1_655
Sn2_0 Sn3_4 3.271231 1_455
Sn2_0 Sn3_2 3.271231 1_555
Sn2_0 Sn2_6 3.435306 1_445
Sn2_0 Sn2_6 3.435306 1_555
Sn2_1 Sn3_5 3.271231 1_455
Sn2_1 Sn3_3 3.271231 1_555
Sn2_1 Sn2_7 3.435306 1_445
Sn2_1 Sn2_7 3.435306 1_555
Sn2_2 Sn3_6 3.271231 1_455
Sn2_2 Sn3_0 3.271231 1_565
Sn2_2 Sn2_4 3.435306 1_565
Sn2_2 Sn2_4 3.435306 1_455
Sn2_3 Sn3_7 3.271231 1_455
Sn2_3 Sn3_1 3.271231 1_565
Sn2_3 Sn2_5 3.435306 1_565
Sn2_3 Sn2_5 3.435306 1_455
Sn2_4 Sn3_0 3.271231 1_555
Sn2_4 Sn3_6 3.271231 1_555
Sn2_5 Sn3_1 3.271231 1_555
Sn2_5 Sn3_7 3.271231 1_555
Sn2_6 Sn3_2 3.271231 1_555
Sn2_6 Sn3_4 3.271231 1_565
Sn2_7 Sn3_3 3.271231 1_555
Sn2_7 Sn3_5 3.271231 1_565
Sn3_0 Sn3_6 3.435306 1_445
Sn3_0 Sn3_6 3.435306 1_555
Sn3_1 Sn3_7 3.435306 1_445
Sn3_1 Sn3_7 3.435306 1_555
Sn3_2 Sn3_4 3.435306 1_565
Sn3_2 Sn3_4 3.435306 1_455
Sn3_3 Sn3_5 3.435306 1_565
Sn3_3 Sn3_5 3.435306 1_455
