# generated using pymatgen
data_Mg2V3O8
_symmetry_space_group_name_H-M   'P 1'
_cell_length_a   5.91582400
_cell_length_b   5.91587182
_cell_length_c   9.50561500
_cell_angle_alpha   90.00171664
_cell_angle_beta   89.99775559
_cell_angle_gamma   120.00044125
_symmetry_Int_Tables_number   1
_chemical_formula_structural   Mg2V3O8
_chemical_formula_sum   'Mg4 V6 O16'
_cell_volume   288.09977635
_cell_formula_units_Z   2
loop_
 _symmetry_equiv_pos_site_id
 _symmetry_equiv_pos_as_xyz
  1  'x, y, z'
loop_
 _atom_site_type_symbol
 _atom_site_label
 _atom_site_symmetry_multiplicity
 _atom_site_fract_x
 _atom_site_fract_y
 _atom_site_fract_z
 _atom_site_occupancy
  Mg  Mg0  1  0.66665200  0.33332400  0.02221400  1
  Mg  Mg1  1  0.33333600  0.66666100  0.52225400  1
  Mg  Mg2  1  0.66665200  0.33335000  0.42152900  1
  Mg  Mg3  1  0.33335300  0.66667400  0.92152300  1
  V  V0  1  0.83767200  0.16380600  0.74438800  1
  V  V1  1  0.83620600  0.67382500  0.74439600  1
  V  V2  1  0.32618800  0.16234700  0.74439100  1
  V  V3  1  0.67373700  0.83650300  0.24416600  1
  V  V4  1  0.16272000  0.32625700  0.24415400  1
  V  V5  1  0.16348700  0.83726900  0.24416500  1
  O  O0  1  0.99999000  0.00002500  0.35311000  1
  O  O1  1  0.00002700  0.00000400  0.85340600  1
  O  O2  1  0.33331800  0.66667100  0.13175600  1
  O  O3  1  0.66668300  0.33331900  0.63191200  1
  O  O4  1  0.85156900  0.17814500  0.14557700  1
  O  O5  1  0.67343900  0.82201000  0.64587100  1
  O  O6  1  0.14861500  0.32655000  0.64585500  1
  O  O7  1  0.82183300  0.67344100  0.14558400  1
  O  O8  1  0.32654800  0.14841700  0.14557900  1
  O  O9  1  0.17797500  0.85138000  0.64586200  1
  O  O10  1  0.50561800  0.46841200  0.86497500  1
  O  O11  1  0.03718500  0.53167100  0.36479300  1
  O  O12  1  0.49444500  0.96281200  0.36480000  1
  O  O13  1  0.53159800  0.03718600  0.86497100  1
  O  O14  1  0.96282600  0.49439000  0.86497500  1
  O  O15  1  0.46833200  0.50555700  0.36479600  1
loop_
_geom_bond_atom_site_label_1
_geom_bond_atom_site_label_2
_geom_bond_distance
_geom_bond_site_symmetry_2
Mg0 O8 2.102097 1_555
Mg0 O4 2.102136 1_555
Mg0 O7 2.102209 1_555
Mg0 O10 2.131128 1_554
Mg0 O13 2.131162 1_554
Mg0 O14 2.131236 1_554
Mg1 O9 2.103245 1_555
Mg1 O6 2.103379 1_555
Mg1 O5 2.103448 1_555
Mg1 O15 2.132442 1_555
Mg1 O12 2.132645 1_555
Mg1 O11 2.132716 1_555
Mg2 O11 1.974945 1_655
Mg2 O15 1.974962 1_555
Mg2 O12 1.974976 1_545
Mg2 O3 1.999820 1_555
Mg3 O13 1.974383 1_565
Mg3 O10 1.974429 1_555
Mg3 O14 1.974440 1_455
Mg3 O2 1.998394 1_556
O0 V5 1.966261 1_645
O0 V4 1.966267 1_655
O0 V3 1.966301 1_545
O1 V2 1.966210 1_555
O1 V0 1.966282 1_455
O1 V1 1.966289 1_445
O2 V4 2.045289 1_555
O2 V5 2.045366 1_555
O2 V3 2.045373 1_555
O3 V2 2.046000 1_555
O3 V0 2.046094 1_555
O3 V1 2.046100 1_555
O4 V4 1.849654 1_655
O4 V3 1.985860 1_545
O5 V1 1.848524 1_555
O5 V0 1.986172 1_565
O6 V0 1.848452 1_455
O6 V2 1.986217 1_555
O7 V3 1.849672 1_555
O7 V5 1.985880 1_655
O8 V5 1.849684 1_545
O8 V4 1.985877 1_555
O9 V2 1.848561 1_565
O9 V1 1.986102 1_455
O10 V2 1.948584 1_555
O10 V1 2.058763 1_555
O11 V5 1.946978 1_555
O11 V4 2.060483 1_555
O12 V3 1.946969 1_555
O12 V5 2.060548 1_555
O13 V0 1.948595 1_555
O13 V2 2.058775 1_555
O14 V1 1.948569 1_555
O14 V0 2.058822 1_555
O15 V4 1.947109 1_555
O15 V3 2.060453 1_555
