# generated using pymatgen
data_Mg5Pd
_symmetry_space_group_name_H-M   'P 1'
_cell_length_a   5.25894248
_cell_length_b   5.25894248
_cell_length_c   4.82189956
_cell_angle_alpha   90.00000000
_cell_angle_beta   90.00000000
_cell_angle_gamma   119.99999292
_symmetry_Int_Tables_number   1
_chemical_formula_structural   Mg5Pd
_chemical_formula_sum   'Mg5 Pd1'
_cell_volume   115.49034095
_cell_formula_units_Z   1
loop_
 _symmetry_equiv_pos_site_id
 _symmetry_equiv_pos_as_xyz
  1  'x, y, z'
loop_
 _atom_site_type_symbol
 _atom_site_label
 _atom_site_symmetry_multiplicity
 _atom_site_fract_x
 _atom_site_fract_y
 _atom_site_fract_z
 _atom_site_occupancy
  Mg  Mg0  1  0.31303452  -0.00000000  0.50000000  1
  Mg  Mg1  1  0.68696548  0.68696548  0.50000000  1
  Mg  Mg2  1  -0.00000000  0.31303452  0.50000000  1
  Mg  Mg3  1  0.33333300  0.66666700  0.00000000  1
  Mg  Mg4  1  0.66666700  0.33333300  0.00000000  1
  Pd  Pd0  1  -0.00000000  -0.00000000  0.00000000  1
loop_
_geom_bond_atom_site_label_1
_geom_bond_atom_site_label_2
_geom_bond_distance
_geom_bond_site_symmetry_2
Mg0 Mg2 2.851355 1_555
Mg0 Mg1 2.851355 1_445
Mg0 Pd0 2.919376 1_555
Mg0 Pd0 2.919376 1_556
Mg0 Mg3 3.013990 1_545
Mg0 Mg3 3.013990 1_546
Mg0 Mg4 3.013992 1_555
Mg0 Mg4 3.013992 1_556
Mg0 Mg1 3.132795 1_545
Mg0 Mg2 3.132795 1_545
Mg0 Mg2 3.132795 1_655
Mg0 Mg1 3.132795 1_555
Mg1 Mg2 2.851355 1_665
Mg1 Pd0 2.919376 1_666
Mg1 Pd0 2.919376 1_665
Mg1 Mg3 3.013993 1_556
Mg1 Mg3 3.013993 1_555
Mg1 Mg4 3.013993 1_555
Mg1 Mg4 3.013993 1_556
Mg1 Mg2 3.132795 1_655
Mg1 Mg2 3.132795 1_555
Mg2 Pd0 2.919376 1_555
Mg2 Pd0 2.919376 1_556
Mg2 Mg4 3.013990 1_455
Mg2 Mg4 3.013990 1_456
Mg2 Mg3 3.013992 1_555
Mg2 Mg3 3.013992 1_556
Mg3 Pd0 3.036249 1_565
Mg3 Mg4 3.036249 1_455
Mg3 Mg4 3.036249 1_565
Mg3 Pd0 3.036254 1_665
Mg3 Pd0 3.036254 1_555
Mg3 Mg4 3.036258 1_555
Mg4 Pd0 3.036249 1_655
Mg4 Pd0 3.036254 1_665
Mg4 Pd0 3.036254 1_555
