# generated using pymatgen
data_FeCoSn4
_symmetry_space_group_name_H-M   'P 1'
_cell_length_a   5.27108443
_cell_length_b   5.27108443
_cell_length_c   5.27108443
_cell_angle_alpha   105.61405471
_cell_angle_beta   105.61405471
_cell_angle_gamma   117.49607483
_symmetry_Int_Tables_number   1
_chemical_formula_structural   FeCoSn4
_chemical_formula_sum   'Fe1 Co1 Sn4'
_cell_volume   111.05973908
_cell_formula_units_Z   1
loop_
 _symmetry_equiv_pos_site_id
 _symmetry_equiv_pos_as_xyz
  1  'x, y, z'
loop_
 _atom_site_type_symbol
 _atom_site_label
 _atom_site_symmetry_multiplicity
 _atom_site_fract_x
 _atom_site_fract_y
 _atom_site_fract_z
 _atom_site_occupancy
  Fe  Fe0  1  0.50000000  0.50000000  0.00000000  1
  Co  Co0  1  0.00000000  0.00000000  0.00000000  1
  Sn  Sn0  1  0.91577900  0.41577900  0.83155800  1
  Sn  Sn1  1  0.58422100  0.08422100  0.16844200  1
  Sn  Sn2  1  0.08422100  0.91577900  0.50000000  1
  Sn  Sn3  1  0.41577900  0.58422100  0.50000000  1
loop_
_geom_bond_atom_site_label_1
_geom_bond_atom_site_label_2
_geom_bond_distance
_geom_bond_site_symmetry_2
Fe0 Sn0 2.742666 1_454
Fe0 Sn3 2.742666 1_555
Fe0 Sn1 2.742666 1_555
Fe0 Sn3 2.742666 1_554
Fe0 Sn0 2.742666 1_554
Fe0 Sn2 2.742666 1_544
Fe0 Sn2 2.742666 1_655
Fe0 Sn1 2.742666 1_565
Co0 Fe0 2.734652 1_445
Co0 Fe0 2.734652 1_555
Co0 Sn2 2.742666 1_545
Co0 Sn1 2.742666 1_455
Co0 Sn0 2.742666 1_444
Co0 Sn3 2.742666 1_444
Co0 Sn0 2.742666 1_454
Co0 Sn3 2.742666 1_555
Co0 Sn1 2.742666 1_555
Co0 Sn2 2.742666 1_544
