# generated using pymatgen
data_Ca2MnO4
_symmetry_space_group_name_H-M   'P 1'
_cell_length_a   5.16536782
_cell_length_b   5.16538925
_cell_length_c   12.63785600
_cell_angle_alpha   78.20729154
_cell_angle_beta   78.20673821
_cell_angle_gamma   89.99861535
_symmetry_Int_Tables_number   1
_chemical_formula_structural   Ca2MnO4
_chemical_formula_sum   'Ca8 Mn4 O16'
_cell_volume   322.80118400
_cell_formula_units_Z   4
loop_
 _symmetry_equiv_pos_site_id
 _symmetry_equiv_pos_as_xyz
  1  'x, y, z'
loop_
 _atom_site_type_symbol
 _atom_site_label
 _atom_site_symmetry_multiplicity
 _atom_site_fract_x
 _atom_site_fract_y
 _atom_site_fract_z
 _atom_site_occupancy
  Ca  Ca0  1  0.44919774  0.69918337  0.10155290  1
  Ca  Ca1  1  0.30078446  0.55077450  0.39844063  1
  Ca  Ca2  1  0.80080812  0.05077021  0.39845030  1
  Ca  Ca3  1  0.94919957  0.19917302  0.10155518  1
  Ca  Ca4  1  0.19922272  0.94924600  0.60154948  1
  Ca  Ca5  1  0.05080506  0.80081431  0.89845260  1
  Ca  Ca6  1  0.55077560  0.30080904  0.89844800  1
  Ca  Ca7  1  0.69919060  0.44923412  0.60155248  1
  Mn  Mn0  1  0.12500481  0.37502987  0.74999858  1
  Mn  Mn1  1  0.87500457  0.62495826  0.24999949  1
  Mn  Mn2  1  0.62500556  0.87504274  0.75000128  1
  Mn  Mn3  1  0.37497986  0.12496656  0.25000002  1
  O  O0  1  0.54464248  0.79469699  0.91069820  1
  O  O1  1  0.20531251  0.45538382  0.58931549  1
  O  O2  1  0.70537164  0.95535012  0.58930507  1
  O  O3  1  0.04466772  0.29467416  0.91068495  1
  O  O4  1  0.29466666  0.04465710  0.41068578  1
  O  O5  1  0.95531511  0.70533283  0.08931011  1
  O  O6  1  0.45538561  0.20528453  0.08931116  1
  O  O7  1  0.79465579  0.54460451  0.41068885  1
  O  O8  1  0.08229645  0.33219454  0.24999537  1
  O  O9  1  0.66771564  0.91771282  0.25000536  1
  O  O10  1  0.58227840  0.41763919  0.24999795  1
  O  O11  1  0.16772404  0.83228137  0.25000194  1
  O  O12  1  0.41763638  0.58228502  0.75000541  1
  O  O13  1  0.83235693  0.16780144  0.74999482  1
  O  O14  1  0.91778291  0.66774211  0.74999808  1
  O  O15  1  0.33221607  0.08235945  0.74999950  1
loop_
_geom_bond_atom_site_label_1
_geom_bond_atom_site_label_2
_geom_bond_distance
_geom_bond_site_symmetry_2
Ca0 O0 2.309052 1_554
Ca0 O11 2.349125 1_555
Ca0 O10 2.349230 1_555
Ca0 O6 2.586835 1_565
Ca0 O5 2.586905 1_555
Ca0 O5 2.586951 1_455
Ca0 O6 2.587040 1_555
Ca0 O8 2.792458 1_555
Ca0 O9 2.792722 1_555
Ca1 O1 2.309296 1_555
Ca1 O11 2.349036 1_555
Ca1 O10 2.349201 1_555
Ca1 O7 2.586910 1_555
Ca1 O4 2.586913 1_555
Ca1 O7 2.586953 1_455
Ca1 O4 2.586968 1_565
Ca1 O9 2.792364 1_555
Ca1 O8 2.792703 1_555
Ca2 O2 2.309053 1_545
Ca2 O8 2.348926 1_655
Ca2 O9 2.349190 1_545
Ca2 O7 2.586697 1_555
Ca2 O4 2.586803 1_655
Ca2 O4 2.587043 1_555
Ca2 O7 2.587174 1_545
Ca2 O11 2.792354 1_645
Ca2 O10 2.792389 1_555
Ca3 O3 2.309240 1_654
Ca3 O9 2.348968 1_545
Ca3 O8 2.349061 1_655
Ca3 O6 2.586601 1_555
Ca3 O5 2.586749 1_545
Ca3 O5 2.587132 1_555
Ca3 O6 2.587257 1_655
Ca3 O10 2.792262 1_555
Ca3 O11 2.792394 1_645
Ca4 O4 2.309161 1_565
Ca4 O14 2.348956 1_455
Ca4 O15 2.349148 1_565
Ca4 O2 2.586793 1_455
Ca4 O1 2.586826 1_555
Ca4 O1 2.587039 1_565
Ca4 O2 2.587064 1_555
Ca4 O12 2.792350 1_555
Ca4 O13 2.792377 1_465
Ca5 O5 2.309086 1_456
Ca5 O15 2.349016 1_565
Ca5 O14 2.349171 1_455
Ca5 O0 2.586727 1_555
Ca5 O3 2.586808 1_565
Ca5 O3 2.587054 1_555
Ca5 O0 2.587133 1_455
Ca5 O12 2.792222 1_555
Ca5 O13 2.792534 1_465
Ca6 O6 2.309154 1_556
Ca6 O12 2.349185 1_555
Ca6 O13 2.349203 1_555
Ca6 O3 2.586867 1_555
Ca6 O0 2.586876 1_545
Ca6 O3 2.586981 1_655
Ca6 O0 2.587012 1_555
Ca6 O15 2.792573 1_555
Ca6 O14 2.792636 1_555
Ca7 O7 2.309160 1_555
Ca7 O13 2.349145 1_555
Ca7 O12 2.349239 1_555
Ca7 O2 2.586901 1_555
Ca7 O1 2.586909 1_555
Ca7 O1 2.586939 1_655
Ca7 O2 2.586982 1_545
Ca7 O15 2.792366 1_555
Ca7 O14 2.792798 1_555
Mn0 O15 1.852274 1_555
Mn0 O13 1.852284 1_455
Mn0 O12 1.852306 1_555
Mn0 O14 1.852482 1_455
Mn0 O1 1.944021 1_555
Mn0 O3 1.944061 1_555
Mn1 O11 1.852863 1_655
Mn1 O9 1.852864 1_555
Mn1 O10 1.852876 1_555
Mn1 O8 1.852911 1_655
Mn1 O7 1.944097 1_555
Mn1 O5 1.944097 1_555
Mn2 O14 1.852987 1_555
Mn2 O13 1.853084 1_565
Mn2 O15 1.853090 1_565
Mn2 O12 1.853141 1_555
Mn2 O2 1.944180 1_555
Mn2 O0 1.944188 1_555
Mn3 O8 1.852379 1_555
Mn3 O11 1.852505 1_545
Mn3 O10 1.852579 1_555
Mn3 O9 1.852677 1_545
Mn3 O4 1.944053 1_555
Mn3 O6 1.944091 1_555
