# generated using pymatgen
data_Pr2Ge2Ru
_symmetry_space_group_name_H-M   'P 1'
_cell_length_a   6.08578886
_cell_length_b   6.08578886
_cell_length_c   10.64969543
_cell_angle_alpha   62.60271291
_cell_angle_beta   62.60271291
_cell_angle_gamma   42.52898519
_symmetry_Int_Tables_number   1
_chemical_formula_structural   Pr2Ge2Ru
_chemical_formula_sum   'Pr4 Ge4 Ru2'
_cell_volume   231.85051725
_cell_formula_units_Z   2
loop_
 _symmetry_equiv_pos_site_id
 _symmetry_equiv_pos_as_xyz
  1  'x, y, z'
loop_
 _atom_site_type_symbol
 _atom_site_label
 _atom_site_symmetry_multiplicity
 _atom_site_fract_x
 _atom_site_fract_y
 _atom_site_fract_z
 _atom_site_occupancy
  Pr  Pr0  1  0.00054200  0.00054200  0.32660400  1
  Pr  Pr1  1  0.99945800  0.99945800  0.67339600  1
  Pr  Pr2  1  0.81595000  0.81595000  0.10798200  1
  Pr  Pr3  1  0.18405000  0.18405000  0.89201800  1
  Ge  Ge0  1  0.65560800  0.65560800  0.43158600  1
  Ge  Ge1  1  0.34439200  0.34439200  0.56841400  1
  Ge  Ge2  1  0.50165000  0.50165000  0.12795400  1
  Ge  Ge3  1  0.49835000  0.49835000  0.87204600  1
  Ru  Ru0  1  0.72837700  0.72837700  0.62017800  1
  Ru  Ru1  1  0.27162300  0.27162300  0.37982200  1
loop_
_geom_bond_atom_site_label_1
_geom_bond_atom_site_label_2
_geom_bond_distance
_geom_bond_site_symmetry_2
Pr0 Ru0 3.126268 1_445
Pr0 Ru1 3.237557 1_545
Pr0 Ru1 3.237557 1_455
Pr0 Ru1 3.390701 1_555
Pr1 Ru1 3.126268 1_665
Pr1 Ru0 3.237557 1_565
Pr1 Ru0 3.237557 1_655
Pr1 Ru0 3.390701 1_555
Pr2 Ru1 3.473897 1_655
Pr2 Ru1 3.473897 1_565
Pr3 Ru0 3.473897 1_455
Pr3 Ru0 3.473897 1_545
Ge0 Ru1 2.488119 1_655
Ge0 Ru1 2.488119 1_565
Ge0 Ru0 2.520381 1_555
Ge0 Pr2 2.999136 1_555
Ge0 Pr1 3.183697 1_545
Ge0 Pr1 3.183697 1_455
Ge0 Pr0 3.340247 1_565
Ge0 Pr0 3.340247 1_655
Ge1 Ru0 2.488119 1_455
Ge1 Ru0 2.488119 1_545
Ge1 Ru1 2.520381 1_555
Ge1 Pr3 2.999136 1_555
Ge1 Pr0 3.183697 1_565
Ge1 Pr0 3.183697 1_655
Ge1 Pr1 3.340247 1_545
Ge1 Pr1 3.340247 1_455
Ge2 Ru1 2.662911 1_555
Ge2 Ge3 2.744018 1_554
Ge2 Pr0 3.053038 1_565
Ge2 Pr0 3.053038 1_655
Ge2 Pr2 3.129861 1_455
Ge2 Pr2 3.129861 1_545
Ge2 Pr3 3.214288 1_564
Ge2 Pr3 3.214288 1_654
Ge2 Pr2 3.464986 1_555
Ge3 Ru0 2.662911 1_555
Ge3 Pr1 3.053038 1_545
Ge3 Pr1 3.053038 1_455
Ge3 Pr3 3.129861 1_655
Ge3 Pr3 3.129861 1_565
Ge3 Pr2 3.214288 1_546
Ge3 Pr2 3.214288 1_456
Ge3 Pr3 3.464986 1_555
