# generated using pymatgen
data_SrHf4SnO12
_symmetry_space_group_name_H-M   'P 1'
_cell_length_a   5.64325948
_cell_length_b   5.64325948
_cell_length_c   8.34829003
_cell_angle_alpha   90.00000000
_cell_angle_beta   90.00000000
_cell_angle_gamma   88.05820389
_symmetry_Int_Tables_number   1
_chemical_formula_structural   SrHf4SnO12
_chemical_formula_sum   'Sr1 Hf4 Sn1 O12'
_cell_volume   265.71012838
_cell_formula_units_Z   1
loop_
 _symmetry_equiv_pos_site_id
 _symmetry_equiv_pos_as_xyz
  1  'x, y, z'
loop_
 _atom_site_type_symbol
 _atom_site_label
 _atom_site_symmetry_multiplicity
 _atom_site_fract_x
 _atom_site_fract_y
 _atom_site_fract_z
 _atom_site_occupancy
  Sr  Sr0  1  0.00000000  0.00000000  0.50000000  1
  Hf  Hf0  1  0.00000000  0.50000000  0.24500425  1
  Hf  Hf1  1  0.00000000  0.50000000  0.75499575  1
  Hf  Hf2  1  0.50000000  0.00000000  0.75499575  1
  Hf  Hf3  1  0.50000000  0.00000000  0.24500425  1
  Sn  Sn0  1  0.50000000  0.50000000  -0.00000000  1
  O  O0  1  0.18968101  0.18968101  0.73005292  1
  O  O1  1  0.18968101  0.18968101  0.26994708  1
  O  O2  1  0.81031899  0.81031899  0.26994708  1
  O  O3  1  0.81031899  0.81031899  0.73005292  1
  O  O4  1  0.67472874  0.32527126  0.19357101  1
  O  O5  1  0.67472874  0.32527126  0.80642899  1
  O  O6  1  0.32527126  0.67472874  0.19357101  1
  O  O7  1  0.32527126  0.67472874  0.80642899  1
  O  O8  1  0.00000000  0.50000000  -0.00000000  1
  O  O9  1  0.00000000  0.50000000  0.50000000  1
  O  O10  1  0.50000000  0.00000000  -0.00000000  1
  O  O11  1  0.50000000  0.00000000  0.50000000  1
loop_
_geom_bond_atom_site_label_1
_geom_bond_atom_site_label_2
_geom_bond_distance
_geom_bond_site_symmetry_2
Hf0 O1 2.031960 1_555
Hf0 O2 2.031960 1_455
Hf0 O8 2.045367 1_555
Hf0 O9 2.128778 1_555
Hf0 O4 2.156082 1_455
Hf0 O6 2.156082 1_555
Hf1 O0 2.031960 1_555
Hf1 O3 2.031960 1_455
Hf1 O8 2.045367 1_556
Hf1 O9 2.128778 1_555
Hf1 O5 2.156082 1_455
Hf1 O7 2.156082 1_555
Hf2 O0 2.031960 1_555
Hf2 O3 2.031960 1_545
Hf2 O10 2.045367 1_556
Hf2 O11 2.128778 1_555
Hf2 O7 2.156082 1_545
Hf2 O5 2.156082 1_555
Hf3 O1 2.031960 1_555
Hf3 O2 2.031960 1_545
Hf3 O10 2.045367 1_555
Hf3 O11 2.128778 1_555
Hf3 O6 2.156082 1_545
Hf3 O4 2.156082 1_555
O0 Sr0 2.461250 1_555
O1 Sr0 2.461250 1_555
O2 Sr0 2.461250 1_665
O3 Sr0 2.461250 1_665
O4 Sn0 2.118979 1_555
O5 Sn0 2.118979 1_556
O6 Sn0 2.118979 1_555
O7 Sn0 2.118979 1_556
O9 Sr0 2.821630 1_565
O9 Sr0 2.821630 1_555
O11 Sr0 2.821630 1_555
O11 Sr0 2.821630 1_655
