# generated using pymatgen
data_Mg(NiO2)2
_symmetry_space_group_name_H-M   'P 1'
_cell_length_a   4.97789309
_cell_length_b   4.97789309
_cell_length_c   9.34475300
_cell_angle_alpha   90.00000000
_cell_angle_beta   90.00000000
_cell_angle_gamma   146.06313743
_symmetry_Int_Tables_number   1
_chemical_formula_structural   Mg(NiO2)2
_chemical_formula_sum   'Mg2 Ni4 O8'
_cell_volume   129.27372069
_cell_formula_units_Z   2
loop_
 _symmetry_equiv_pos_site_id
 _symmetry_equiv_pos_as_xyz
  1  'x, y, z'
loop_
 _atom_site_type_symbol
 _atom_site_label
 _atom_site_symmetry_multiplicity
 _atom_site_fract_x
 _atom_site_fract_y
 _atom_site_fract_z
 _atom_site_occupancy
  Mg  Mg0  1  0.60763500  0.39236500  0.75000000  1
  Mg  Mg1  1  0.39236500  0.60763500  0.25000000  1
  Ni  Ni0  1  0.13459400  0.86540600  0.06978600  1
  Ni  Ni1  1  0.86540600  0.13459400  0.93021400  1
  Ni  Ni2  1  0.13459400  0.86540600  0.43021400  1
  Ni  Ni3  1  0.86540600  0.13459400  0.56978600  1
  O  O0  1  0.77567300  0.22432700  0.38610500  1
  O  O1  1  0.22432700  0.77567300  0.61389500  1
  O  O2  1  0.22432700  0.77567300  0.88610500  1
  O  O3  1  0.77567300  0.22432700  0.11389500  1
  O  O4  1  0.04217600  0.95782400  0.25000000  1
  O  O5  1  0.95782400  0.04217600  0.75000000  1
  O  O6  1  0.50000000  0.50000000  0.00000000  1
  O  O7  1  0.50000000  0.50000000  0.50000000  1
loop_
_geom_bond_atom_site_label_1
_geom_bond_atom_site_label_2
_geom_bond_distance
_geom_bond_site_symmetry_2
Mg0 O5 2.036076 1_455
Mg0 O5 2.036076 1_565
Mg0 O2 2.227762 1_545
Mg0 O2 2.227762 1_655
Mg0 O1 2.227762 1_545
Mg0 O1 2.227762 1_655
Mg0 O6 2.551133 1_556
Mg0 O7 2.551133 1_555
Mg1 O4 2.036076 1_545
Mg1 O4 2.036076 1_655
Mg1 O0 2.227762 1_455
Mg1 O3 2.227762 1_455
Mg1 O3 2.227762 1_565
Mg1 O0 2.227762 1_565
Mg1 O6 2.551133 1_555
Mg1 O7 2.551133 1_555
Ni0 O4 1.900134 1_555
Ni0 O2 1.917377 1_554
Ni0 O3 2.021184 1_455
Ni0 O3 2.021184 1_565
Ni0 O6 2.044128 1_565
Ni0 O6 2.044128 1_455
Ni1 O5 1.900134 1_555
Ni1 O3 1.917377 1_556
Ni1 O2 2.021184 1_655
Ni1 O2 2.021184 1_545
Ni1 O6 2.044128 1_546
Ni1 O6 2.044128 1_656
Ni2 O4 1.900134 1_555
Ni2 O1 1.917377 1_555
Ni2 O0 2.021184 1_565
Ni2 O0 2.021184 1_455
Ni2 O7 2.044128 1_565
Ni2 O7 2.044128 1_455
Ni3 O5 1.900134 1_555
Ni3 O0 1.917377 1_555
Ni3 O1 2.021184 1_655
Ni3 O1 2.021184 1_545
Ni3 O7 2.044128 1_545
Ni3 O7 2.044128 1_655
