# generated using pymatgen
data_Al2O3
_symmetry_space_group_name_H-M   'P 1'
_cell_length_a   10.23889095
_cell_length_b   10.16428070
_cell_length_c   10.71694457
_cell_angle_alpha   91.48482686
_cell_angle_beta   88.91262897
_cell_angle_gamma   89.00883965
_symmetry_Int_Tables_number   1
_chemical_formula_structural   Al2O3
_chemical_formula_sum   'Al40 O60'
_cell_volume   1114.57085213
_cell_formula_units_Z   20
loop_
 _symmetry_equiv_pos_site_id
 _symmetry_equiv_pos_as_xyz
  1  'x, y, z'
loop_
 _atom_site_type_symbol
 _atom_site_label
 _atom_site_symmetry_multiplicity
 _atom_site_fract_x
 _atom_site_fract_y
 _atom_site_fract_z
 _atom_site_occupancy
  Al  Al0  1  0.77576300  0.53020500  0.58852000  1
  Al  Al1  1  0.85578500  0.69035600  0.34805000  1
  Al  Al2  1  0.51636600  0.89977400  0.78080900  1
  Al  Al3  1  0.79350400  0.71308400  0.01281200  1
  Al  Al4  1  0.81863300  0.49307700  0.18258900  1
  Al  Al5  1  0.28451700  0.80638100  0.53324500  1
  Al  Al6  1  0.20393200  0.49747300  0.60178200  1
  Al  Al7  1  0.95730700  0.25031400  0.51560000  1
  Al  Al8  1  0.32271700  0.43425800  0.36712400  1
  Al  Al9  1  0.81462800  0.25252400  0.95966800  1
  Al  Al10  1  0.61234700  0.75361800  0.54047300  1
  Al  Al11  1  0.31272900  0.70981500  0.78834400  1
  Al  Al12  1  0.56094300  0.21741200  0.40501600  1
  Al  Al13  1  0.85242100  0.94236300  0.47921800  1
  Al  Al14  1  0.69790000  0.00301700  0.99637400  1
  Al  Al15  1  0.02277900  0.63598000  0.80382900  1
  Al  Al16  1  0.32352200  0.20793600  0.17066900  1
  Al  Al17  1  0.06292900  0.02642100  0.67343500  1
  Al  Al18  1  0.63202900  0.61185900  0.80299400  1
  Al  Al19  1  0.52974800  0.03188700  0.56284200  1
  Al  Al20  1  0.65266300  0.20972900  0.72184600  1
  Al  Al21  1  0.09892500  0.38090400  0.03692500  1
  Al  Al22  1  0.91120900  0.39380600  0.76196200  1
  Al  Al23  1  0.11930500  0.84215100  0.29545900  1
  Al  Al24  1  0.28484000  0.61363700  0.13061200  1
  Al  Al25  1  0.45312800  0.45451700  0.67638400  1
  Al  Al26  1  0.01362800  0.06119300  0.07666300  1
  Al  Al27  1  0.59515800  0.34585300  0.18776300  1
  Al  Al28  1  0.82322000  0.85128800  0.75743200  1
  Al  Al29  1  0.23709500  0.09178800  0.49051100  1
  Al  Al30  1  0.82455900  0.12615200  0.29649600  1
  Al  Al31  1  0.51724400  0.64562400  0.24276600  1
  Al  Al32  1  0.61893100  0.92645300  0.31856000  1
  Al  Al33  1  0.49396500  0.25120400  0.92788500  1
  Al  Al34  1  0.25681800  0.02467400  0.92460300  1
  Al  Al35  1  0.46335800  0.89953000  0.07643400  1
  Al  Al36  1  0.09775800  0.17933400  0.26418700  1
  Al  Al37  1  0.27903700  0.20683200  0.73162600  1
  Al  Al38  1  0.08899600  0.76629000  0.00740000  1
  Al  Al39  1  0.05179200  0.44560700  0.31568500  1
  O  O0  1  0.07225800  0.99171000  0.22636100  1
  O  O1  1  0.15213700  0.19947800  0.07670700  1
  O  O2  1  0.64531000  0.16657100  0.94231900  1
  O  O3  1  0.97061400  0.81257800  0.39547700  1
  O  O4  1  0.36386800  0.12700200  0.59542500  1
  O  O5  1  0.80755800  0.25146800  0.78274800  1
  O  O6  1  0.02340200  0.29032700  0.37671000  1
  O  O7  1  0.09898500  0.17940600  0.58495100  1
  O  O8  1  0.74587000  0.36300400  0.08232500  1
  O  O9  1  0.15722400  0.50168200  0.43839600  1
  O  O10  1  0.46075200  0.29031700  0.08794100  1
  O  O11  1  0.89678700  0.97819100  0.65672500  1
  O  O12  1  0.87683300  0.11397800  0.45633700  1
  O  O13  1  0.63238600  0.51238500  0.23432100  1
  O  O14  1  0.17167600  0.69295600  0.87608700  1
  O  O15  1  0.68054900  0.91861700  0.51794100  1
  O  O16  1  0.68653400  0.23187200  0.29013500  1
  O  O17  1  0.97163000  0.34948800  0.92002800  1
  O  O18  1  0.79357300  0.53262700  0.75946700  1
  O  O19  1  0.17590000  0.94482000  0.56693400  1
  O  O20  1  0.51239200  0.04832000  0.39401600  1
  O  O21  1  0.86130300  0.08567500  0.99769500  1
  O  O22  1  0.42663800  0.73277700  0.11644600  1
  O  O23  1  0.79807800  0.86518300  0.92611000  1
  O  O24  1  0.60070200  0.55162200  0.61469700  1
  O  O25  1  0.34428800  0.03002800  0.08126800  1
  O  O26  1  0.94743800  0.74538900  0.71180500  1
  O  O27  1  0.05635100  0.49010100  0.71335500  1
  O  O28  1  0.14613500  0.72873300  0.15822100  1
  O  O29  1  0.15531200  0.09180200  0.79624700  1
  O  O30  1  0.60779900  0.95372300  0.15274900  1
  O  O31  1  0.37631000  0.46184900  0.52506900  1
  O  O32  1  0.45730800  0.31618700  0.31994500  1
  O  O33  1  0.88788500  0.51906000  0.34548900  1
  O  O34  1  0.61434900  0.21211800  0.55843600  1
  O  O35  1  0.93807500  0.18094100  0.19047200  1
  O  O36  1  0.10501300  0.93754900  0.98234000  1
  O  O37  1  0.26254300  0.81135900  0.37487400  1
  O  O38  1  0.36792900  0.56302500  0.26630600  1
  O  O39  1  0.25156700  0.12673200  0.33246600  1
  O  O40  1  0.57145500  0.76107500  0.35736300  1
  O  O41  1  0.36139000  0.16351300  0.87142100  1
  O  O42  1  0.23104800  0.49014400  0.02849200  1
  O  O43  1  0.54011700  0.33864400  0.78466300  1
  O  O44  1  0.45332000  0.84976800  0.58990000  1
  O  O45  1  0.44920300  0.60127100  0.79248500  1
  O  O46  1  0.24819300  0.67429400  0.63571200  1
  O  O47  1  0.81580200  0.68357400  0.17881800  1
  O  O48  1  0.66014300  0.62886500  0.96250300  1
  O  O49  1  0.77116500  0.67720400  0.49820600  1
  O  O50  1  0.34457000  0.87966800  0.82628300  1
  O  O51  1  0.58371900  0.04575800  0.72249900  1
  O  O52  1  0.86979900  0.38077500  0.58457600  1
  O  O53  1  0.65449900  0.78106800  0.72730800  1
  O  O54  1  0.28584700  0.37948400  0.71440900  1
  O  O55  1  0.99538300  0.45217600  0.15545700  1
  O  O56  1  0.55419500  0.91838600  0.93740500  1
  O  O57  1  0.95483900  0.66491400  0.96255800  1
  O  O58  1  0.21873700  0.34879400  0.24843500  1
  O  O59  1  0.78776300  0.95661800  0.30939300  1
loop_
_geom_bond_atom_site_label_1
_geom_bond_atom_site_label_2
_geom_bond_distance
_geom_bond_site_symmetry_2
Al0 O52 1.783326 1_555
Al0 O49 1.801589 1_555
Al0 O24 1.817456 1_555
Al0 O18 1.844096 1_555
Al1 O33 1.765670 1_555
Al1 O3 1.795677 1_555
Al1 O49 1.822183 1_555
Al1 O47 1.866641 1_555
Al2 O56 1.735806 1_555
Al2 O51 1.770568 1_565
Al2 O50 1.832597 1_555
Al2 O53 1.912903 1_555
Al2 O44 2.206487 1_555
Al3 O48 1.712437 1_554
Al3 O57 1.784127 1_554
Al3 O23 1.825079 1_554
Al3 O47 1.829730 1_555
Al4 O8 1.856994 1_555
Al4 O55 1.865533 1_555
Al4 O33 1.910463 1_555
Al4 O47 1.937461 1_555
Al4 O13 1.980828 1_555
Al5 O37 1.718255 1_555
Al5 O46 1.795798 1_555
Al5 O19 1.803184 1_555
Al5 O44 1.898069 1_555
Al6 O9 1.825238 1_555
Al6 O46 1.888995 1_555
Al6 O27 1.912765 1_555
Al6 O54 1.917613 1_555
Al6 O31 1.956906 1_555
Al7 O6 1.685707 1_655
Al7 O52 1.729326 1_555
Al7 O12 1.736770 1_555
Al7 O7 1.791275 1_655
Al8 O38 1.780443 1_555
Al8 O31 1.805803 1_555
Al8 O32 1.865436 1_555
Al8 O58 1.879398 1_555
Al8 O9 1.951374 1_555
Al9 O21 1.812655 1_555
Al9 O8 1.829098 1_556
Al9 O5 1.898555 1_555
Al9 O17 1.945906 1_555
Al9 O2 1.964565 1_555
Al10 O49 1.833799 1_555
Al10 O15 1.847622 1_555
Al10 O44 1.942244 1_555
Al10 O40 2.017368 1_555
Al10 O53 2.069139 1_555
Al10 O24 2.225280 1_555
Al11 O14 1.721847 1_555
Al11 O45 1.767286 1_555
Al11 O50 1.800083 1_555
Al11 O46 1.805914 1_555
Al12 O32 1.735631 1_555
Al12 O34 1.744411 1_555
Al12 O16 1.773919 1_555
Al12 O20 1.798950 1_555
Al13 O12 1.788928 1_565
Al13 O15 1.821939 1_555
Al13 O59 1.956469 1_555
Al13 O3 1.962733 1_555
Al13 O11 1.990090 1_555
Al14 O56 1.831725 1_545
Al14 O2 1.849302 1_555
Al14 O23 1.856924 1_545
Al14 O21 1.885240 1_555
Al14 O30 1.977739 1_546
Al15 O26 1.691275 1_455
Al15 O27 1.775405 1_555
Al15 O14 1.819721 1_555
Al15 O57 1.840158 1_455
Al16 O10 1.869049 1_555
Al16 O58 1.935604 1_555
Al16 O25 2.030351 1_555
Al16 O1 2.041692 1_555
Al16 O39 2.068190 1_555
Al16 O32 2.385467 1_555
Al17 O29 1.758501 1_555
Al17 O19 1.787802 1_545
Al17 O11 1.789421 1_445
Al17 O7 1.880554 1_555
Al18 O48 1.743571 1_555
Al18 O18 1.872739 1_555
Al18 O45 1.882220 1_555
Al18 O53 1.935916 1_555
Al18 O24 2.125389 1_555
Al19 O51 1.810793 1_555
Al19 O20 1.832997 1_555
Al19 O15 1.955172 1_545
Al19 O4 1.960722 1_555
Al19 O34 2.041157 1_555
Al19 O44 2.047530 1_545
Al20 O5 1.780293 1_555
Al20 O34 1.802590 1_555
Al20 O51 1.821316 1_555
Al20 O43 1.835939 1_555
Al20 O2 2.414335 1_555
Al21 O42 1.767374 1_555
Al21 O55 1.771162 1_455
Al21 O17 1.850893 1_454
Al21 O1 1.973318 1_555
Al22 O5 1.824799 1_555
Al22 O18 1.840323 1_555
Al22 O27 1.866864 1_655
Al22 O17 1.877471 1_555
Al22 O52 1.957227 1_555
Al23 O37 1.737387 1_555
Al23 O0 1.771396 1_555
Al23 O28 1.858346 1_555
Al23 O3 1.878213 1_455
Al24 O42 1.747073 1_555
Al24 O38 1.781504 1_555
Al24 O28 1.838939 1_555
Al24 O22 1.912948 1_555
Al25 O31 1.818386 1_555
Al25 O43 1.897568 1_555
Al25 O45 1.916932 1_555
Al25 O54 1.927720 1_555
Al25 O24 1.934379 1_555
Al26 O21 1.805047 1_454
Al26 O36 1.826016 1_544
Al26 O35 1.849917 1_455
Al26 O0 1.874446 1_545
Al26 O1 2.013903 1_555
Al27 O13 1.801439 1_555
Al27 O10 1.846180 1_555
Al27 O16 1.867758 1_555
Al27 O8 1.908349 1_555
Al27 O32 2.012649 1_555
Al28 O26 1.707947 1_555
Al28 O23 1.822605 1_555
Al28 O11 1.863033 1_555
Al28 O53 1.910455 1_555
Al29 O39 1.743675 1_555
Al29 O4 1.768542 1_555
Al29 O19 1.836084 1_545
Al29 O7 1.916388 1_555
Al30 O35 1.719637 1_555
Al30 O16 1.763932 1_555
Al30 O59 1.778555 1_545
Al30 O12 1.810985 1_555
Al31 O38 1.773848 1_555
Al31 O13 1.779464 1_555
Al31 O40 1.779652 1_555
Al31 O22 1.886644 1_555
Al32 O59 1.762200 1_555
Al32 O20 1.801687 1_565
Al32 O30 1.810973 1_555
Al32 O40 1.814287 1_555
Al32 O15 2.242398 1_555
Al33 O41 1.745935 1_555
Al33 O2 1.770616 1_555
Al33 O10 1.775903 1_556
Al33 O43 1.851169 1_555
Al34 O29 1.875182 1_555
Al34 O41 1.879766 1_555
Al34 O36 1.903287 1_545
Al34 O25 1.917815 1_556
Al34 O50 1.981825 1_545
Al35 O56 1.757877 1_554
Al35 O25 1.785071 1_565
Al35 O30 1.791718 1_555
Al35 O22 1.803217 1_555
Al36 O6 1.780872 1_555
Al36 O39 1.826552 1_555
Al36 O35 1.829285 1_455
Al36 O0 1.962287 1_545
Al36 O1 2.090853 1_555
Al36 O58 2.147230 1_555
Al37 O54 1.771736 1_555
Al37 O41 1.794068 1_555
Al37 O4 1.846493 1_555
Al37 O29 1.873857 1_555
Al37 O7 2.460137 1_555
Al38 O14 1.769538 1_554
Al38 O28 1.777834 1_555
Al38 O36 1.778082 1_554
Al38 O57 1.796632 1_454
Al39 O6 1.750836 1_555
Al39 O9 1.804430 1_555
Al39 O55 1.824530 1_455
Al39 O33 1.843860 1_455
Al39 O58 2.065881 1_555
