# generated using pymatgen
data_Nb3Se5Br7
_symmetry_space_group_name_H-M   'P 1'
_cell_length_a   13.18251145
_cell_length_b   8.11142678
_cell_length_c   8.59528376
_cell_angle_alpha   72.90826019
_cell_angle_beta   90.00000000
_cell_angle_gamma   90.00000000
_symmetry_Int_Tables_number   1
_chemical_formula_structural   Nb3Se5Br7
_chemical_formula_sum   'Nb6 Se10 Br14'
_cell_volume   878.49387435
_cell_formula_units_Z   2
loop_
 _symmetry_equiv_pos_site_id
 _symmetry_equiv_pos_as_xyz
  1  'x, y, z'
loop_
 _atom_site_type_symbol
 _atom_site_label
 _atom_site_symmetry_multiplicity
 _atom_site_fract_x
 _atom_site_fract_y
 _atom_site_fract_z
 _atom_site_occupancy
  Nb  Nb0  1  0.39376709  0.52152385  0.44325868  1
  Nb  Nb1  1  0.60623291  0.47847615  0.55674132  1
  Nb  Nb2  1  0.89376709  0.47847615  0.55674132  1
  Nb  Nb3  1  0.10623291  0.52152385  0.44325868  1
  Nb  Nb4  1  0.25000000  0.89699765  0.01573530  1
  Nb  Nb5  1  0.75000000  0.10300235  0.98426470  1
  Se  Se0  1  0.25000000  0.92101814  0.74495438  1
  Se  Se1  1  0.75000000  0.07898186  0.25504562  1
  Se  Se2  1  0.97007312  0.77097268  0.37324767  1
  Se  Se3  1  0.02992688  0.22902732  0.62675233  1
  Se  Se4  1  0.47007312  0.22902732  0.62675233  1
  Se  Se5  1  0.52992688  0.77097268  0.37324767  1
  Se  Se6  1  0.47523548  0.68211486  0.63940453  1
  Se  Se7  1  0.52476452  0.31788514  0.36059547  1
  Se  Se8  1  0.97523548  0.31788514  0.36059547  1
  Se  Se9  1  0.02476452  0.68211486  0.63940453  1
  Br  Br0  1  0.38643433  0.63881048  0.09802618  1
  Br  Br1  1  0.61356567  0.36118952  0.90197382  1
  Br  Br2  1  0.88643433  0.36118952  0.90197382  1
  Br  Br3  1  0.11356567  0.63881048  0.09802618  1
  Br  Br4  1  0.38526134  0.10230396  0.03981362  1
  Br  Br5  1  0.61473866  0.89769604  0.96018638  1
  Br  Br6  1  0.88526134  0.89769604  0.96018638  1
  Br  Br7  1  0.11473866  0.10230396  0.03981362  1
  Br  Br8  1  0.25000000  0.78737171  0.37247632  1
  Br  Br9  1  0.75000000  0.21262829  0.62752368  1
  Br  Br10  1  0.25000000  0.31674338  0.36182210  1
  Br  Br11  1  0.75000000  0.68325662  0.63817790  1
  Br  Br12  1  0.25000000  0.44601143  0.69074015  1
  Br  Br13  1  0.75000000  0.55398857  0.30925985  1
loop_
_geom_bond_atom_site_label_1
_geom_bond_atom_site_label_2
_geom_bond_distance
_geom_bond_site_symmetry_2
Nb0 Se7 2.627782 1_555
Nb0 Se4 2.632273 1_555
Nb0 Se5 2.638610 1_555
Nb0 Se6 2.642624 1_555
Nb1 Se6 2.627782 1_555
Nb1 Se5 2.632273 1_555
Nb1 Se4 2.638610 1_555
Nb1 Se7 2.642624 1_555
Nb2 Se9 2.627782 1_655
Nb2 Se2 2.632273 1_555
Nb2 Se3 2.638610 1_655
Nb2 Se8 2.642624 1_555
Nb3 Se8 2.627782 1_455
Nb3 Se3 2.632273 1_555
Nb3 Se2 2.638610 1_455
Nb3 Se9 2.642624 1_555
Nb4 Se0 2.277801 1_554
Nb5 Se1 2.277801 1_556
Se2 Se9 2.302958 1_655
Se3 Se8 2.302958 1_455
Se4 Se7 2.302958 1_555
Se5 Se6 2.302958 1_555
Br0 Nb4 2.692638 1_555
Br0 Nb0 2.839071 1_555
Br1 Nb5 2.692638 1_555
Br1 Nb1 2.839071 1_555
Br2 Nb5 2.692638 1_555
Br2 Nb2 2.839071 1_555
Br3 Nb4 2.692638 1_555
Br3 Nb3 2.839071 1_555
Br4 Nb4 2.489604 1_545
Br5 Nb5 2.489604 1_565
Br6 Nb5 2.489604 1_565
Br7 Nb4 2.489604 1_545
Br8 Nb3 2.800158 1_555
Br8 Nb0 2.800158 1_555
Br8 Nb4 2.930893 1_555
Br9 Nb1 2.800158 1_555
Br9 Nb2 2.800158 1_555
Br9 Nb5 2.930893 1_555
Br10 Nb0 2.743055 1_555
Br10 Nb3 2.743055 1_555
Br11 Nb1 2.743055 1_555
Br11 Nb2 2.743055 1_555
Br12 Nb3 2.779569 1_555
Br12 Nb0 2.779569 1_555
Br13 Nb1 2.779569 1_555
Br13 Nb2 2.779569 1_555
