# generated using pymatgen
data_Mn7BiO12
_symmetry_space_group_name_H-M   'P 1'
_cell_length_a   6.55021688
_cell_length_b   6.55021688
_cell_length_c   7.58876181
_cell_angle_alpha   54.87220055
_cell_angle_beta   54.87220055
_cell_angle_gamma   70.46887287
_symmetry_Int_Tables_number   1
_chemical_formula_structural   Mn7BiO12
_chemical_formula_sum   'Mn7 Bi1 O12'
_cell_volume   217.79426688
_cell_formula_units_Z   1
loop_
 _symmetry_equiv_pos_site_id
 _symmetry_equiv_pos_as_xyz
  1  'x, y, z'
loop_
 _atom_site_type_symbol
 _atom_site_label
 _atom_site_symmetry_multiplicity
 _atom_site_fract_x
 _atom_site_fract_y
 _atom_site_fract_z
 _atom_site_occupancy
  Mn  Mn0  1  0.50000000  0.50000000  0.50000000  1
  Mn  Mn1  1  0.00000000  0.00000000  0.50000000  1
  Mn  Mn2  1  0.50000000  0.50000000  0.00000000  1
  Mn  Mn3  1  0.00000000  0.50000000  0.00000000  1
  Mn  Mn4  1  0.50000000  0.00000000  0.00000000  1
  Mn  Mn5  1  0.50000000  0.00000000  0.50000000  1
  Mn  Mn6  1  0.00000000  0.50000000  0.50000000  1
  Bi  Bi0  1  0.00000000  0.00000000  0.00000000  1
  O  O0  1  0.81936100  0.17009100  0.31432700  1
  O  O1  1  0.82990900  0.18063900  0.68567300  1
  O  O2  1  0.18063900  0.82990900  0.68567300  1
  O  O3  1  0.17009100  0.81936100  0.31432700  1
  O  O4  1  0.30258300  0.30258300  0.86651200  1
  O  O5  1  0.69741700  0.69741700  0.13348800  1
  O  O6  1  0.68549900  0.68549900  0.49580000  1
  O  O7  1  0.31450100  0.31450100  0.50420000  1
  O  O8  1  0.13368200  0.51761800  0.16635200  1
  O  O9  1  0.48238200  0.86631800  0.83364800  1
  O  O10  1  0.86631800  0.48238200  0.83364800  1
  O  O11  1  0.51761800  0.13368200  0.16635200  1
loop_
_geom_bond_atom_site_label_1
_geom_bond_atom_site_label_2
_geom_bond_distance
_geom_bond_site_symmetry_2
Mn0 O6 1.962593 1_555
Mn0 O7 1.962593 1_555
Mn0 O4 1.979986 1_555
Mn0 O5 1.979986 1_555
Mn1 O1 1.963991 1_455
Mn1 O2 1.963991 1_545
Mn1 O0 1.963991 1_455
Mn1 O3 1.963991 1_545
Mn2 O9 1.964947 1_554
Mn2 O10 1.964947 1_554
Mn2 O11 1.964947 1_555
Mn2 O8 1.964947 1_555
Mn3 O8 1.970047 1_555
Mn3 O10 1.970047 1_454
Mn3 O5 2.027283 1_455
Mn3 O4 2.027283 1_554
Mn3 O0 2.071067 1_455
Mn3 O2 2.071067 1_554
Mn4 O11 1.970047 1_555
Mn4 O9 1.970047 1_544
Mn4 O5 2.027283 1_545
Mn4 O4 2.027283 1_554
Mn4 O3 2.071067 1_545
Mn4 O1 2.071067 1_554
Mn5 O0 1.990572 1_555
Mn5 O2 1.990572 1_545
Mn5 O7 2.019536 1_555
Mn5 O6 2.019536 1_545
Mn5 O9 2.090650 1_545
Mn5 O11 2.090650 1_555
Mn6 O3 1.990572 1_555
Mn6 O1 1.990572 1_455
Mn6 O7 2.019536 1_555
Mn6 O6 2.019536 1_455
Mn6 O10 2.090650 1_455
Mn6 O8 2.090650 1_555
Bi0 O4 2.624538 1_554
Bi0 O5 2.624538 1_445
Bi0 O11 2.678797 1_455
Bi0 O8 2.678797 1_545
Bi0 O9 2.678797 1_544
Bi0 O10 2.678797 1_454
Bi0 O0 2.694460 1_455
Bi0 O3 2.694460 1_545
Bi0 O1 2.694460 1_454
Bi0 O2 2.694460 1_544
Bi0 O6 2.764414 1_445
Bi0 O7 2.764414 1_554
