# generated using pymatgen
data_BaSrSi4
_symmetry_space_group_name_H-M   'P 1'
_cell_length_a   6.63728100
_cell_length_b   8.95659600
_cell_length_c   11.35300500
_cell_angle_alpha   90.00000000
_cell_angle_beta   90.00000000
_cell_angle_gamma   90.00000000
_symmetry_Int_Tables_number   1
_chemical_formula_structural   BaSrSi4
_chemical_formula_sum   'Ba4 Sr4 Si16'
_cell_volume   674.90713414
_cell_formula_units_Z   4
loop_
 _symmetry_equiv_pos_site_id
 _symmetry_equiv_pos_as_xyz
  1  'x, y, z'
loop_
 _atom_site_type_symbol
 _atom_site_label
 _atom_site_symmetry_multiplicity
 _atom_site_fract_x
 _atom_site_fract_y
 _atom_site_fract_z
 _atom_site_occupancy
  Ba  Ba0  1  0.25000000  0.01749800  0.30913600  1
  Ba  Ba1  1  0.25000000  0.51749800  0.19086400  1
  Ba  Ba2  1  0.75000000  0.98250200  0.69086400  1
  Ba  Ba3  1  0.75000000  0.48250200  0.80913600  1
  Sr  Sr0  1  0.25000000  0.84904300  0.90676700  1
  Sr  Sr1  1  0.25000000  0.34904300  0.59323300  1
  Sr  Sr2  1  0.75000000  0.15095700  0.09323300  1
  Sr  Sr3  1  0.75000000  0.65095700  0.40676700  1
  Si  Si0  1  0.25000000  0.19927600  0.03664500  1
  Si  Si1  1  0.25000000  0.69927600  0.46335500  1
  Si  Si2  1  0.75000000  0.80072400  0.96335500  1
  Si  Si3  1  0.75000000  0.30072400  0.53664500  1
  Si  Si4  1  0.25000000  0.41663000  0.90540000  1
  Si  Si5  1  0.25000000  0.91663000  0.59460000  1
  Si  Si6  1  0.75000000  0.58337000  0.09460000  1
  Si  Si7  1  0.75000000  0.08337000  0.40540000  1
  Si  Si8  1  0.06859000  0.19057200  0.85341800  1
  Si  Si9  1  0.43141000  0.69057200  0.64658200  1
  Si  Si10  1  0.56859000  0.80942800  0.14658200  1
  Si  Si11  1  0.93141000  0.30942800  0.35341800  1
  Si  Si12  1  0.93141000  0.80942800  0.14658200  1
  Si  Si13  1  0.56859000  0.30942800  0.35341800  1
  Si  Si14  1  0.43141000  0.19057200  0.85341800  1
  Si  Si15  1  0.06859000  0.69057200  0.64658200  1
loop_
_geom_bond_atom_site_label_1
_geom_bond_atom_site_label_2
_geom_bond_distance
_geom_bond_site_symmetry_2
Ba0 Si1 3.345001 1_545
Ba0 Si5 3.364440 1_545
Ba0 Si12 3.369005 1_445
Ba0 Si10 3.369005 1_545
Ba0 Si11 3.400118 1_455
Ba0 Si13 3.400118 1_555
Ba0 Si0 3.495863 1_555
Ba0 Si7 3.543425 1_555
Ba0 Si7 3.543425 1_455
Ba1 Si0 3.345001 1_555
Ba1 Si4 3.364440 1_554
Ba1 Si11 3.369005 1_455
Ba1 Si13 3.369005 1_555
Ba1 Si12 3.400118 1_455
Ba1 Si10 3.400118 1_555
Ba1 Si1 3.495863 1_555
Ba1 Si6 3.543425 1_555
Ba1 Si6 3.543425 1_455
Ba2 Si3 3.345001 1_565
Ba2 Si7 3.364440 1_565
Ba2 Si8 3.369005 1_665
Ba2 Si14 3.369005 1_565
Ba2 Si15 3.400118 1_655
Ba2 Si9 3.400118 1_555
Ba2 Si2 3.495863 1_555
Ba2 Si5 3.543425 1_655
Ba2 Si5 3.543425 1_555
Ba3 Si2 3.345001 1_555
Ba3 Si6 3.364440 1_556
Ba3 Si15 3.369005 1_655
Ba3 Si9 3.369005 1_555
Ba3 Si8 3.400118 1_655
Ba3 Si14 3.400118 1_555
Ba3 Si3 3.495863 1_555
Ba3 Si4 3.543425 1_655
Ba3 Si4 3.543425 1_555
Si0 Si8 2.404786 1_554
Si0 Si14 2.404786 1_554
Si0 Si4 2.451534 1_554
Si0 Sr2 3.407844 1_555
Si0 Sr2 3.407844 1_455
Si0 Sr0 3.466162 1_544
Si1 Si9 2.404786 1_555
Si1 Si15 2.404786 1_555
Si1 Si5 2.451534 1_555
Si1 Sr3 3.407844 1_455
Si1 Sr3 3.407844 1_555
Si1 Sr1 3.466162 1_555
Si2 Si6 2.451534 1_556
Si2 Sr0 3.407844 1_555
Si2 Sr0 3.407844 1_655
Si2 Sr2 3.466162 1_566
Si3 Si7 2.451534 1_555
Si3 Sr1 3.407844 1_655
Si3 Sr1 3.407844 1_555
Si3 Sr3 3.466162 1_555
Si4 Si8 2.428480 1_555
Si4 Sr1 3.595361 1_555
Si5 Si9 2.428480 1_555
Si5 Sr0 3.595361 1_555
Si6 Sr3 3.595361 1_555
Si7 Sr2 3.595361 1_555
Si8 Sr0 3.342711 1_545
Si8 Sr2 3.465540 1_456
Si8 Sr1 3.491387 1_555
Si9 Sr1 3.342711 1_555
Si9 Sr3 3.465540 1_555
Si9 Sr0 3.491387 1_555
Si10 Si2 2.404786 1_554
Si10 Si12 2.408138 1_555
Si10 Si6 2.428480 1_555
Si10 Sr2 3.342711 1_565
Si10 Sr0 3.465540 1_554
Si10 Sr3 3.491387 1_555
Si11 Si3 2.404786 1_555
Si11 Si13 2.408138 1_555
Si11 Si7 2.428480 1_555
Si11 Sr3 3.342711 1_555
Si11 Sr1 3.465540 1_655
Si11 Sr2 3.491387 1_555
Si12 Si2 2.404786 1_554
Si12 Si6 2.428480 1_555
Si12 Sr2 3.342711 1_565
Si12 Sr0 3.465540 1_654
Si12 Sr3 3.491387 1_555
Si13 Si3 2.404786 1_555
Si13 Si7 2.428480 1_555
Si13 Sr3 3.342711 1_555
Si13 Sr1 3.465540 1_555
Si13 Sr2 3.491387 1_555
Si14 Si8 2.408138 1_555
Si14 Si4 2.428480 1_555
Si14 Sr0 3.342711 1_545
Si14 Sr2 3.465540 1_556
Si14 Sr1 3.491387 1_555
Si15 Si9 2.408138 1_555
Si15 Si5 2.428480 1_555
Si15 Sr1 3.342711 1_555
Si15 Sr3 3.465540 1_455
Si15 Sr0 3.491387 1_555
