# generated using pymatgen
data_VCrO3
_symmetry_space_group_name_H-M   'P 1'
_cell_length_a   5.12699300
_cell_length_b   5.49904417
_cell_length_c   8.82791853
_cell_angle_alpha   105.45597249
_cell_angle_beta   89.97797843
_cell_angle_gamma   117.72080830
_symmetry_Int_Tables_number   1
_chemical_formula_structural   VCrO3
_chemical_formula_sum   'V4 Cr4 O12'
_cell_volume   210.11675665
_cell_formula_units_Z   4
loop_
 _symmetry_equiv_pos_site_id
 _symmetry_equiv_pos_as_xyz
  1  'x, y, z'
loop_
 _atom_site_type_symbol
 _atom_site_label
 _atom_site_symmetry_multiplicity
 _atom_site_fract_x
 _atom_site_fract_y
 _atom_site_fract_z
 _atom_site_occupancy
  V  V0  1  0.78011100  0.62904900  0.92421100  1
  V  V1  1  0.47679300  0.12295000  0.82531000  1
  V  V2  1  0.97312700  0.62321000  0.32438600  1
  V  V3  1  0.72183000  0.87120300  0.57543500  1
  Cr  Cr0  1  0.27198400  0.12283200  0.42498300  1
  Cr  Cr1  1  0.02374800  0.37286500  0.67473100  1
  Cr  Cr2  1  0.52503900  0.87512800  0.17493200  1
  Cr  Cr3  1  0.22804500  0.37860800  0.07511900  1
  O  O0  1  0.52389600  0.47274200  0.27678200  1
  O  O1  1  0.02472500  0.97485600  0.77692500  1
  O  O2  1  0.57109700  0.12645600  0.62496600  1
  O  O3  1  0.93277600  0.37630000  0.87464600  1
  O  O4  1  0.47746800  0.22694200  0.02653600  1
  O  O5  1  0.97418800  0.72370100  0.52753300  1
  O  O6  1  0.02477800  0.27506500  0.47295000  1
  O  O7  1  0.52546000  0.77582100  0.97521300  1
  O  O8  1  0.07602700  0.62688700  0.12395600  1
  O  O9  1  0.42628900  0.87489500  0.37447800  1
  O  O10  1  0.97400000  0.02751100  0.22371400  1
  O  O11  1  0.46862200  0.52298100  0.72319400  1
loop_
_geom_bond_atom_site_label_1
_geom_bond_atom_site_label_2
_geom_bond_distance
_geom_bond_site_symmetry_2
Cr0 O6 1.812236 1_555
Cr0 O9 1.833785 1_545
Cr0 O10 2.127545 1_455
Cr0 O2 2.328911 1_555
Cr0 O5 2.430721 1_445
Cr0 O0 2.471973 1_555
Cr1 O6 1.718820 1_555
Cr1 O3 1.822726 1_455
Cr1 O11 2.031669 1_555
Cr1 O2 2.042757 1_455
Cr2 O7 1.701373 1_554
Cr2 O9 1.832865 1_555
Cr2 O8 2.028629 1_555
Cr2 O10 2.049386 1_565
Cr3 O4 1.820985 1_555
Cr3 O8 1.825744 1_555
Cr3 O0 2.125672 1_555
Cr3 O3 2.322959 1_454
Cr3 O7 2.408580 1_554
Cr3 O10 2.480711 1_455
O0 V2 2.051449 1_555
O1 V1 2.068083 1_565
O1 V3 2.130415 1_455
O1 V0 2.444881 1_455
O2 V1 1.836029 1_555
O2 V3 1.854841 1_545
O3 V0 1.850278 1_555
O3 V1 2.059938 1_555
O4 V1 1.714460 1_554
O5 V2 1.729324 1_555
O5 V3 1.817651 1_555
O7 V0 1.828909 1_555
O8 V2 1.848748 1_455
O8 V0 2.332652 1_454
O9 V2 2.047463 1_455
O9 V3 2.343806 1_555
O10 V2 2.603199 1_545
O10 V0 2.769077 1_544
O11 V0 2.150256 1_555
O11 V3 2.463917 1_555
