# generated using pymatgen
data_Mg7Si4
_symmetry_space_group_name_H-M   'P 1'
_cell_length_a   5.40854100
_cell_length_b   6.14718616
_cell_length_c   13.71568531
_cell_angle_alpha   80.13406866
_cell_angle_beta   81.82526577
_cell_angle_gamma   80.49648788
_symmetry_Int_Tables_number   1
_chemical_formula_structural   Mg7Si4
_chemical_formula_sum   'Mg14 Si8'
_cell_volume   440.04512373
_cell_formula_units_Z   2
loop_
 _symmetry_equiv_pos_site_id
 _symmetry_equiv_pos_as_xyz
  1  'x, y, z'
loop_
 _atom_site_type_symbol
 _atom_site_label
 _atom_site_symmetry_multiplicity
 _atom_site_fract_x
 _atom_site_fract_y
 _atom_site_fract_z
 _atom_site_occupancy
  Mg  Mg0  1  0.99306900  0.10338100  0.70544200  1
  Mg  Mg1  1  0.79693500  0.57705800  0.82271600  1
  Mg  Mg2  1  0.55173400  0.92799600  0.62321800  1
  Mg  Mg3  1  0.39827300  0.44617700  0.68075100  1
  Mg  Mg4  1  0.71878300  0.34177900  0.07460400  1
  Mg  Mg5  1  0.66902000  0.70099000  0.42767400  1
  Mg  Mg6  1  0.43854200  0.07267100  0.27924800  1
  Mg  Mg7  1  0.29322100  0.35333900  0.46906500  1
  Mg  Mg8  1  0.27591000  0.34749900  0.93194700  1
  Mg  Mg9  1  0.41164400  0.77811500  0.00060100  1
  Mg  Mg10  1  0.89819200  0.99551500  0.93371800  1
  Mg  Mg11  1  0.78197100  0.74859400  0.15855400  1
  Mg  Mg12  1  0.88324800  0.28924100  0.31486600  1
  Mg  Mg13  1  0.12294800  0.88972500  0.49532800  1
  Si  Si0  1  0.12619500  0.03846600  0.12598100  1
  Si  Si1  1  0.51071400  0.05663000  0.81068200  1
  Si  Si2  1  0.27069800  0.75019800  0.81564700  1
  Si  Si3  1  0.39764800  0.51560300  0.26774700  1
  Si  Si4  1  0.19036700  0.41538400  0.12992200  1
  Si  Si5  1  0.78928900  0.27499600  0.52253200  1
  Si  Si6  1  0.91640100  0.54441900  0.61226100  1
  Si  Si7  1  0.06515400  0.82480300  0.30116700  1
loop_
_geom_bond_atom_site_label_1
_geom_bond_atom_site_label_2
_geom_bond_distance
_geom_bond_site_symmetry_2
Mg0 Si2 2.774421 1_645
Mg0 Si6 2.783472 1_555
Mg0 Si1 2.829603 1_555
Mg0 Si5 2.849007 1_555
Mg1 Si2 2.878489 1_555
Mg1 Si6 2.900876 1_555
Mg1 Si2 2.915897 1_655
Mg1 Si1 3.084381 1_565
Mg2 Si5 2.738399 1_565
Mg2 Si1 2.786058 1_565
Mg2 Si6 2.823800 1_555
Mg2 Si2 2.981612 1_555
Mg3 Si1 2.764926 1_555
Mg3 Si2 2.790708 1_555
Mg3 Si6 2.832254 1_455
Mg3 Si6 2.952277 1_555
Mg3 Si5 3.005258 1_555
Mg4 Si0 2.731863 1_655
Mg4 Si4 2.832365 1_555
Mg4 Si4 2.887026 1_655
Mg5 Si7 2.684957 1_655
Mg5 Si5 2.735671 1_555
Mg5 Si6 2.971407 1_555
Mg6 Si3 2.674180 1_555
Mg6 Si7 2.678954 1_545
Mg6 Si0 2.931871 1_555
Mg6 Si4 2.967170 1_555
Mg7 Si3 2.781534 1_555
Mg7 Si5 2.818202 1_455
Mg7 Si5 2.824900 1_555
Mg7 Si6 2.872712 1_455
Mg8 Si1 2.691609 1_555
Mg8 Si2 2.703656 1_555
Mg8 Si4 2.780049 1_556
Mg8 Si0 3.083773 1_556
Mg9 Si0 2.697102 1_565
Mg9 Si2 2.790718 1_554
Mg9 Si1 2.895062 1_564
Mg9 Si4 2.910754 1_555
Mg10 Si2 2.803829 1_655
Mg10 Si1 2.812345 1_565
Mg10 Si0 3.132916 1_666
Mg11 Si0 2.725251 1_665
Mg11 Si4 2.786331 1_655
Mg11 Si7 2.791826 1_655
Mg11 Si3 2.824479 1_555
Mg12 Si5 2.810021 1_555
Mg12 Si3 2.866975 1_555
Mg12 Si4 2.889282 1_655
Mg12 Si7 2.891008 1_645
Mg13 Si6 2.726307 1_455
Mg13 Si5 2.775762 1_465
Mg13 Si7 2.826826 1_555
Si0 Si4 2.409483 1_555
Si0 Si7 2.538429 1_545
Si1 Si2 2.444683 1_545
Si3 Si7 2.447890 1_555
Si3 Si4 2.537655 1_555
Si5 Si6 2.458724 1_555
