# generated using pymatgen
data_Pm3Cd
_symmetry_space_group_name_H-M   'P 1'
_cell_length_a   7.12875048
_cell_length_b   7.12875231
_cell_length_c   5.52673855
_cell_angle_alpha   90.00000000
_cell_angle_beta   90.00000000
_cell_angle_gamma   120.00001123
_symmetry_Int_Tables_number   1
_chemical_formula_structural   Pm3Cd
_chemical_formula_sum   'Pm6 Cd2'
_cell_volume   243.23520959
_cell_formula_units_Z   2
loop_
 _symmetry_equiv_pos_site_id
 _symmetry_equiv_pos_as_xyz
  1  'x, y, z'
loop_
 _atom_site_type_symbol
 _atom_site_label
 _atom_site_symmetry_multiplicity
 _atom_site_fract_x
 _atom_site_fract_y
 _atom_site_fract_z
 _atom_site_occupancy
  Pm  Pm0  1  0.17533734  0.35067568  0.24999900  1
  Pm  Pm1  1  0.64932532  0.82466266  0.24999900  1
  Pm  Pm2  1  0.17533734  0.82466266  0.24999900  1
  Pm  Pm3  1  0.82466366  0.64932432  0.75000000  1
  Pm  Pm4  1  0.35067468  0.17533634  0.75000000  1
  Pm  Pm5  1  0.82466266  0.17533634  0.75000000  1
  Cd  Cd0  1  0.33333400  0.66666700  0.75000000  1
  Cd  Cd1  1  0.66666600  0.33333300  0.24999900  1
loop_
_geom_bond_atom_site_label_1
_geom_bond_atom_site_label_2
_geom_bond_distance
_geom_bond_site_symmetry_2
Pm0 Pm2 3.378936 1_555
Pm0 Pm1 3.378938 1_555
Pm0 Pm5 3.510441 1_454
Pm0 Pm4 3.510449 1_554
Pm0 Pm5 3.510450 1_455
Pm0 Pm4 3.510458 1_555
Pm0 Pm1 3.749812 1_445
Pm0 Pm2 3.749817 1_545
Pm1 Pm2 3.378942 1_555
Pm1 Pm5 3.510438 1_564
Pm1 Pm5 3.510447 1_565
Pm1 Pm3 3.510449 1_554
Pm1 Pm3 3.510458 1_555
Pm1 Pm2 3.749808 1_655
Pm2 Pm3 3.510438 1_454
Pm2 Pm4 3.510438 1_564
Pm2 Pm3 3.510446 1_455
Pm2 Pm4 3.510447 1_565
Pm3 Pm5 3.378939 1_555
Pm3 Pm4 3.378945 1_555
Pm3 Pm4 3.749805 1_665
Pm3 Pm5 3.749813 1_565
Pm4 Pm5 3.378942 1_555
Pm4 Pm5 3.749808 1_455
Cd0 Pm1 3.382590 1_556
Cd0 Pm0 3.382590 1_556
Cd0 Pm2 3.382593 1_556
Cd0 Pm1 3.382599 1_555
Cd0 Pm0 3.382599 1_555
Cd0 Pm2 3.382602 1_555
Cd0 Pm5 3.565975 1_565
Cd0 Pm3 3.565976 1_455
Cd0 Pm4 3.565976 1_565
Cd0 Pm5 3.565990 1_455
Cd0 Pm3 3.565990 1_555
Cd0 Pm4 3.565991 1_555
Cd1 Pm4 3.382590 1_554
Cd1 Pm3 3.382590 1_554
Cd1 Pm5 3.382597 1_554
Cd1 Pm4 3.382599 1_555
Cd1 Pm3 3.382599 1_555
Cd1 Pm5 3.382606 1_555
Cd1 Pm2 3.565979 1_545
Cd1 Pm0 3.565983 1_655
Cd1 Pm0 3.565983 1_555
Cd1 Pm1 3.565983 1_545
Cd1 Pm1 3.565984 1_555
Cd1 Pm2 3.565986 1_655
