# generated using pymatgen
data_Nd3Bi4Au3
_symmetry_space_group_name_H-M   'P 1'
_cell_length_a   8.90112581
_cell_length_b   8.90112581
_cell_length_c   8.90112581
_cell_angle_alpha   109.47122063
_cell_angle_beta   109.47122063
_cell_angle_gamma   109.47122063
_symmetry_Int_Tables_number   1
_chemical_formula_structural   Nd3Bi4Au3
_chemical_formula_sum   'Nd6 Bi8 Au6'
_cell_volume   542.89135628
_cell_formula_units_Z   2
loop_
 _symmetry_equiv_pos_site_id
 _symmetry_equiv_pos_as_xyz
  1  'x, y, z'
loop_
 _atom_site_type_symbol
 _atom_site_label
 _atom_site_symmetry_multiplicity
 _atom_site_fract_x
 _atom_site_fract_y
 _atom_site_fract_z
 _atom_site_occupancy
  Nd  Nd0  1  0.87500000  0.25000000  0.12500000  1
  Nd  Nd1  1  0.62500000  0.75000000  0.37500000  1
  Nd  Nd2  1  0.25000000  0.12500000  0.87500000  1
  Nd  Nd3  1  0.75000000  0.37500000  0.62500000  1
  Nd  Nd4  1  0.12500000  0.87500000  0.25000000  1
  Nd  Nd5  1  0.37500000  0.62500000  0.75000000  1
  Bi  Bi0  1  0.67634838  0.50000000  0.00000000  1
  Bi  Bi1  1  0.50000000  0.00000000  0.67634838  1
  Bi  Bi2  1  0.00000000  0.67634838  0.50000000  1
  Bi  Bi3  1  0.82365162  0.82365162  0.82365162  1
  Bi  Bi4  1  0.50000000  -0.00000000  0.17634838  1
  Bi  Bi5  1  0.17634838  0.50000000  0.00000000  1
  Bi  Bi6  1  -0.00000000  0.17634838  0.50000000  1
  Bi  Bi7  1  0.32365162  0.32365162  0.32365162  1
  Au  Au0  1  0.37500000  0.25000000  0.62500000  1
  Au  Au1  1  0.12500000  0.75000000  0.87500000  1
  Au  Au2  1  0.25000000  0.62500000  0.37500000  1
  Au  Au3  1  0.75000000  0.87500000  0.12500000  1
  Au  Au4  1  0.62500000  0.37500000  0.25000000  1
  Au  Au5  1  0.87500000  0.12500000  0.75000000  1
loop_
_geom_bond_atom_site_label_1
_geom_bond_atom_site_label_2
_geom_bond_distance
_geom_bond_site_symmetry_2
Bi0 Nd4 3.504095 1_655
Bi0 Nd0 3.504095 1_555
Bi0 Nd3 3.504095 1_554
Bi0 Nd5 3.611892 1_554
Bi0 Nd1 3.611892 1_555
Bi0 Nd2 3.611892 1_554
Bi1 Nd0 3.504095 1_556
Bi1 Nd5 3.504095 1_545
Bi1 Nd2 3.504095 1_555
Bi1 Nd3 3.611892 1_555
Bi1 Nd4 3.611892 1_545
Bi1 Nd1 3.611892 1_545
Bi2 Nd4 3.504095 1_555
Bi2 Nd1 3.504095 1_455
Bi2 Nd2 3.504095 1_565
Bi2 Nd0 3.611892 1_455
Bi2 Nd3 3.611892 1_455
Bi2 Nd5 3.611892 1_555
Bi3 Nd3 3.504095 1_555
Bi3 Nd1 3.504095 1_555
Bi3 Nd5 3.504095 1_555
Bi3 Nd2 3.611892 1_665
Bi3 Nd4 3.611892 1_656
Bi3 Nd0 3.611892 1_566
Bi4 Nd3 3.504095 1_555
Bi4 Nd4 3.504095 1_545
Bi4 Nd1 3.504095 1_545
Bi4 Nd0 3.611892 1_555
Bi4 Nd5 3.611892 1_544
Bi4 Nd2 3.611892 1_554
Bi5 Nd1 3.504095 1_555
Bi5 Nd5 3.504095 1_554
Bi5 Nd2 3.504095 1_554
Bi5 Nd4 3.611892 1_555
Bi5 Nd0 3.611892 1_455
Bi5 Nd3 3.611892 1_454
Bi6 Nd0 3.504095 1_455
Bi6 Nd3 3.504095 1_455
Bi6 Nd5 3.504095 1_555
Bi6 Nd1 3.611892 1_445
Bi6 Nd4 3.611892 1_545
Bi6 Nd2 3.611892 1_555
Bi7 Nd0 3.504095 1_455
Bi7 Nd2 3.504095 1_554
Bi7 Nd4 3.504095 1_545
Bi7 Nd1 3.611892 1_555
Bi7 Nd5 3.611892 1_555
Bi7 Nd3 3.611892 1_555
Au0 Bi6 2.896274 1_555
Au0 Bi7 2.896274 1_555
Au0 Bi0 2.896274 1_556
Au0 Bi1 2.896274 1_555
Au0 Nd5 3.147023 1_555
Au0 Nd2 3.147023 1_555
Au0 Nd3 3.147023 1_555
Au0 Nd4 3.147023 1_545
Au1 Bi5 2.896274 1_556
Au1 Bi3 2.896274 1_455
Au1 Bi2 2.896274 1_555
Au1 Bi4 2.896274 1_566
Au1 Nd5 3.147023 1_555
Au1 Nd2 3.147023 1_565
Au1 Nd3 3.147023 1_455
Au1 Nd4 3.147023 1_556
Au2 Bi5 2.896274 1_555
Au2 Bi1 2.896274 1_565
Au2 Bi7 2.896274 1_555
Au2 Bi2 2.896274 1_555
Au2 Nd5 3.147023 1_555
Au2 Nd0 3.147023 1_455
Au2 Nd1 3.147023 1_555
Au2 Nd4 3.147023 1_555
Au3 Bi3 2.896274 1_554
Au3 Bi4 2.896274 1_565
Au3 Bi0 2.896274 1_555
Au3 Bi6 2.896274 1_665
Au3 Nd5 3.147023 1_554
Au3 Nd1 3.147023 1_555
Au3 Nd0 3.147023 1_565
Au3 Nd4 3.147023 1_655
Au4 Bi4 2.896274 1_555
Au4 Bi7 2.896274 1_555
Au4 Bi2 2.896274 1_655
Au4 Bi0 2.896274 1_555
Au4 Nd0 3.147023 1_555
Au4 Nd3 3.147023 1_555
Au4 Nd2 3.147023 1_554
Au4 Nd1 3.147023 1_555
Au5 Bi1 2.896274 1_555
Au5 Bi6 2.896274 1_655
Au5 Bi3 2.896274 1_545
Au5 Bi5 2.896274 1_656
Au5 Nd2 3.147023 1_655
Au5 Nd3 3.147023 1_555
Au5 Nd0 3.147023 1_556
Au5 Nd1 3.147023 1_545
