# generated using pymatgen
data_LiFeO2
_symmetry_space_group_name_H-M   'P 1'
_cell_length_a   5.10501430
_cell_length_b   5.10501562
_cell_length_c   5.10501577
_cell_angle_alpha   33.50014645
_cell_angle_beta   33.50014098
_cell_angle_gamma   33.50014137
_symmetry_Int_Tables_number   1
_chemical_formula_structural   LiFeO2
_chemical_formula_sum   'Li1 Fe1 O2'
_cell_volume   36.09736734
_cell_formula_units_Z   1
loop_
 _symmetry_equiv_pos_site_id
 _symmetry_equiv_pos_as_xyz
  1  'x, y, z'
loop_
 _atom_site_type_symbol
 _atom_site_label
 _atom_site_symmetry_multiplicity
 _atom_site_fract_x
 _atom_site_fract_y
 _atom_site_fract_z
 _atom_site_occupancy
  Li  Li0  1  0.00000000  0.00000000  -0.00000000  1
  Fe  Fe0  1  0.50000000  0.50000000  0.50000000  1
  O  O0  1  0.24430523  0.24430523  0.24430523  1
  O  O1  1  0.75569477  0.75569477  0.75569477  1
loop_
_geom_bond_atom_site_label_1
_geom_bond_atom_site_label_2
_geom_bond_distance
_geom_bond_site_symmetry_2
Li0 O0 2.130558 1_455
Li0 O1 2.130558 1_544
Li0 O0 2.130560 1_545
Li0 O1 2.130560 1_454
Li0 O0 2.130560 1_554
Li0 O1 2.130560 1_445
Fe0 O1 2.035522 1_455
Fe0 O0 2.035522 1_655
Fe0 O1 2.035523 1_545
Fe0 O0 2.035523 1_565
Fe0 O1 2.035523 1_554
Fe0 O0 2.035523 1_556
