# generated using pymatgen
data_SrLiNdCoO4
_symmetry_space_group_name_H-M   'P 1'
_cell_length_a   5.07207262
_cell_length_b   3.78434984
_cell_length_c   6.94099250
_cell_angle_alpha   82.55664472
_cell_angle_beta   64.58201397
_cell_angle_gamma   93.28200973
_symmetry_Int_Tables_number   1
_chemical_formula_structural   SrLiNdCoO4
_chemical_formula_sum   'Sr1 Li1 Nd1 Co1 O4'
_cell_volume   118.36729228
_cell_formula_units_Z   1
loop_
 _symmetry_equiv_pos_site_id
 _symmetry_equiv_pos_as_xyz
  1  'x, y, z'
loop_
 _atom_site_type_symbol
 _atom_site_label
 _atom_site_symmetry_multiplicity
 _atom_site_fract_x
 _atom_site_fract_y
 _atom_site_fract_z
 _atom_site_occupancy
  Sr  Sr0  1  0.27288500  0.35801100  0.24832500  1
  Li  Li0  1  0.92406100  0.29985500  0.80312200  1
  Nd  Nd0  1  0.46714100  0.79102600  0.69423100  1
  Co  Co0  1  0.85874900  0.87440000  0.12527500  1
  O  O0  1  0.30732000  0.28316900  0.59048400  1
  O  O1  1  0.90360400  0.81427600  0.39029600  1
  O  O2  1  0.59948700  0.93698400  0.96931900  1
  O  O3  1  0.02389800  0.44585000  0.01227900  1
loop_
_geom_bond_atom_site_label_1
_geom_bond_atom_site_label_2
_geom_bond_distance
_geom_bond_site_symmetry_2
Li0 O3 1.864437 1_656
Li0 O0 1.880539 1_655
Li0 O2 1.904506 1_545
Nd0 O0 2.229537 1_565
Nd0 O1 2.297720 1_555
Nd0 O0 2.355990 1_555
Nd0 O2 2.394266 1_555
Nd0 O3 2.508013 1_556
Co0 O1 1.934959 1_555
Co0 O3 1.966750 1_655
Co0 O2 2.036734 1_554
Co0 O3 2.186927 1_665
O0 Sr0 2.436893 1_555
O1 Sr0 2.482385 1_665
O1 Sr0 2.585992 1_655
O2 Sr0 2.650715 1_556
O2 Sr0 2.716782 1_566
O3 Sr0 2.464315 1_555
