# generated using pymatgen
data_Te(Br3N)2
_symmetry_space_group_name_H-M   'P 1'
_cell_length_a   17.88396935
_cell_length_b   17.88396935
_cell_length_c   17.88396935
_cell_angle_alpha   60.00000000
_cell_angle_beta   60.00000000
_cell_angle_gamma   60.00000000
_symmetry_Int_Tables_number   1
_chemical_formula_structural   Te(Br3N)2
_chemical_formula_sum   'Te8 Br48 N16'
_cell_volume   4044.61094398
_cell_formula_units_Z   8
loop_
 _symmetry_equiv_pos_site_id
 _symmetry_equiv_pos_as_xyz
  1  'x, y, z'
loop_
 _atom_site_type_symbol
 _atom_site_label
 _atom_site_symmetry_multiplicity
 _atom_site_fract_x
 _atom_site_fract_y
 _atom_site_fract_z
 _atom_site_occupancy
  Te  Te0  1  0.87500000  0.37500000  0.37500000  1
  Te  Te1  1  0.37500000  0.87500000  0.37500000  1
  Te  Te2  1  0.37500000  0.37500000  0.87500000  1
  Te  Te3  1  0.37500000  0.37500000  0.37500000  1
  Te  Te4  1  0.37500000  0.87500000  0.87500000  1
  Te  Te5  1  0.87500000  0.87500000  0.37500000  1
  Te  Te6  1  0.87500000  0.37500000  0.87500000  1
  Te  Te7  1  0.87500000  0.87500000  0.87500000  1
  Br  Br0  1  0.97603800  0.47586600  0.29265700  1
  Br  Br1  1  0.47586600  0.97603800  0.25544000  1
  Br  Br2  1  0.29265700  0.25544000  0.97603800  1
  Br  Br3  1  0.25544000  0.29265700  0.47586600  1
  Br  Br4  1  0.47586600  0.29265700  0.97603800  1
  Br  Br5  1  0.97603800  0.25544000  0.47586600  1
  Br  Br6  1  0.25544000  0.97603800  0.29265700  1
  Br  Br7  1  0.29265700  0.47586600  0.25544000  1
  Br  Br8  1  0.29265700  0.97603800  0.47586600  1
  Br  Br9  1  0.25544000  0.47586600  0.97603800  1
  Br  Br10  1  0.97603800  0.29265700  0.25544000  1
  Br  Br11  1  0.47586600  0.25544000  0.29265700  1
  Br  Br12  1  0.77396200  0.27413400  0.45734300  1
  Br  Br13  1  0.27413400  0.77396200  0.49456000  1
  Br  Br14  1  0.45734300  0.49456000  0.77396200  1
  Br  Br15  1  0.49456000  0.45734300  0.27413400  1
  Br  Br16  1  0.27413400  0.45734300  0.77396200  1
  Br  Br17  1  0.77396200  0.49456000  0.27413400  1
  Br  Br18  1  0.49456000  0.77396200  0.45734300  1
  Br  Br19  1  0.45734300  0.27413400  0.49456000  1
  Br  Br20  1  0.45734300  0.77396200  0.27413400  1
  Br  Br21  1  0.49456000  0.27413400  0.77396200  1
  Br  Br22  1  0.77396200  0.45734300  0.49456000  1
  Br  Br23  1  0.27413400  0.49456000  0.45734300  1
  Br  Br24  1  0.47603800  0.79265700  0.97586600  1
  Br  Br25  1  0.97586600  0.75544000  0.47603800  1
  Br  Br26  1  0.79265700  0.47603800  0.75544000  1
  Br  Br27  1  0.75544000  0.97586600  0.79265700  1
  Br  Br28  1  0.97586600  0.47603800  0.79265700  1
  Br  Br29  1  0.47603800  0.97586600  0.75544000  1
  Br  Br30  1  0.75544000  0.79265700  0.47603800  1
  Br  Br31  1  0.79265700  0.75544000  0.97586600  1
  Br  Br32  1  0.79265700  0.97586600  0.47603800  1
  Br  Br33  1  0.75544000  0.47603800  0.97586600  1
  Br  Br34  1  0.47603800  0.75544000  0.79265700  1
  Br  Br35  1  0.97586600  0.79265700  0.75544000  1
  Br  Br36  1  0.27396200  0.95734300  0.77413400  1
  Br  Br37  1  0.77413400  0.99456000  0.27396200  1
  Br  Br38  1  0.95734300  0.27396200  0.99456000  1
  Br  Br39  1  0.99456000  0.77413400  0.95734300  1
  Br  Br40  1  0.77413400  0.27396200  0.95734300  1
  Br  Br41  1  0.27396200  0.77413400  0.99456000  1
  Br  Br42  1  0.99456000  0.95734300  0.27396200  1
  Br  Br43  1  0.95734300  0.99456000  0.77413400  1
  Br  Br44  1  0.95734300  0.77413400  0.27396200  1
  Br  Br45  1  0.99456000  0.27396200  0.77413400  1
  Br  Br46  1  0.27396200  0.99456000  0.95734300  1
  Br  Br47  1  0.77413400  0.95734300  0.99456000  1
  N  N0  1  0.25000000  0.25000000  0.25000000  1
  N  N1  1  0.50000000  0.50000000  0.50000000  1
  N  N2  1  0.75000000  0.75000000  0.75000000  1
  N  N3  1  0.00000000  0.00000000  0.00000000  1
  N  N4  1  0.50000000  0.50000000  0.00000000  1
  N  N5  1  0.00000000  0.00000000  0.50000000  1
  N  N6  1  0.50000000  0.00000000  0.50000000  1
  N  N7  1  0.00000000  0.50000000  0.00000000  1
  N  N8  1  0.00000000  0.50000000  0.50000000  1
  N  N9  1  0.50000000  0.00000000  0.00000000  1
  N  N10  1  0.25000000  0.25000000  0.75000000  1
  N  N11  1  0.75000000  0.75000000  0.25000000  1
  N  N12  1  0.25000000  0.75000000  0.25000000  1
  N  N13  1  0.75000000  0.25000000  0.75000000  1
  N  N14  1  0.75000000  0.25000000  0.25000000  1
  N  N15  1  0.25000000  0.75000000  0.75000000  1
loop_
_geom_bond_atom_site_label_1
_geom_bond_atom_site_label_2
_geom_bond_distance
_geom_bond_site_symmetry_2
Br0 Te0 2.574852 1_555
Br1 Te1 2.574849 1_555
Br2 Te2 2.574838 1_555
Br3 Te3 2.574838 1_555
Br4 Te2 2.574852 1_555
Br5 Te0 2.574849 1_555
Br6 Te1 2.574838 1_555
Br7 Te3 2.574838 1_555
Br8 Te1 2.574852 1_555
Br9 Te2 2.574849 1_555
Br10 Te0 2.574838 1_555
Br11 Te3 2.574838 1_555
Br12 Te0 2.574852 1_555
Br13 Te1 2.574849 1_555
Br14 Te2 2.574838 1_555
Br15 Te3 2.574838 1_555
Br16 Te2 2.574852 1_555
Br17 Te0 2.574849 1_555
Br18 Te1 2.574838 1_555
Br19 Te3 2.574838 1_555
Br20 Te1 2.574852 1_555
Br21 Te2 2.574849 1_555
Br22 Te0 2.574838 1_555
Br23 Te3 2.574838 1_555
Br24 Te4 2.574852 1_555
Br25 Te5 2.574849 1_555
Br26 Te6 2.574838 1_555
Br27 Te7 2.574838 1_555
Br28 Te6 2.574852 1_555
Br29 Te4 2.574849 1_555
Br30 Te5 2.574838 1_555
Br31 Te7 2.574838 1_555
Br32 Te5 2.574852 1_555
Br33 Te6 2.574849 1_555
Br34 Te4 2.574838 1_555
Br35 Te7 2.574838 1_555
Br36 Te4 2.574852 1_555
Br37 Te5 2.574849 1_555
Br38 Te6 2.574838 1_555
Br39 Te7 2.574838 1_555
Br40 Te6 2.574852 1_555
Br41 Te4 2.574849 1_555
Br42 Te5 2.574838 1_555
Br43 Te7 2.574838 1_555
Br44 Te5 2.574852 1_555
Br45 Te6 2.574849 1_555
Br46 Te4 2.574838 1_555
Br47 Te7 2.574838 1_555
