# generated using pymatgen
data_Mg5Sn
_symmetry_space_group_name_H-M   'P 1'
_cell_length_a   12.36592887
_cell_length_b   12.36592887
_cell_length_c   14.31342017
_cell_angle_alpha   76.76357648
_cell_angle_beta   76.76357648
_cell_angle_gamma   31.73324976
_symmetry_Int_Tables_number   1
_chemical_formula_structural   Mg5Sn
_chemical_formula_sum   'Mg40 Sn8'
_cell_volume   1118.11778616
_cell_formula_units_Z   8
loop_
 _symmetry_equiv_pos_site_id
 _symmetry_equiv_pos_as_xyz
  1  'x, y, z'
loop_
 _atom_site_type_symbol
 _atom_site_label
 _atom_site_symmetry_multiplicity
 _atom_site_fract_x
 _atom_site_fract_y
 _atom_site_fract_z
 _atom_site_occupancy
  Mg  Mg0_0  1  0.49855050  0.49855050  0.00237050  1
  Mg  Mg0_1  1  0.49855050  0.49855050  0.50237050  1
  Mg  Mg0_2  1  0.49855050  0.99855050  0.00237050  1
  Mg  Mg0_3  1  0.49855050  0.99855050  0.50237050  1
  Mg  Mg0_4  1  0.99855050  0.49855050  0.00237050  1
  Mg  Mg0_5  1  0.99855050  0.49855050  0.50237050  1
  Mg  Mg0_6  1  0.99855050  0.99855050  0.00237050  1
  Mg  Mg0_7  1  0.99855050  0.99855050  0.50237050  1
  Mg  Mg1_0  1  0.16566100  0.16566100  0.16730450  1
  Mg  Mg1_1  1  0.16566100  0.16566100  0.66730450  1
  Mg  Mg1_2  1  0.16566100  0.66566100  0.16730450  1
  Mg  Mg1_3  1  0.16566100  0.66566100  0.66730450  1
  Mg  Mg1_4  1  0.66566100  0.16566100  0.16730450  1
  Mg  Mg1_5  1  0.66566100  0.16566100  0.66730450  1
  Mg  Mg1_6  1  0.66566100  0.66566100  0.16730450  1
  Mg  Mg1_7  1  0.66566100  0.66566100  0.66730450  1
  Mg  Mg2_0  1  0.47282850  0.47282850  0.30236900  1
  Mg  Mg2_1  1  0.47282850  0.47282850  0.80236900  1
  Mg  Mg2_2  1  0.47282850  0.97282850  0.30236900  1
  Mg  Mg2_3  1  0.47282850  0.97282850  0.80236900  1
  Mg  Mg2_4  1  0.97282850  0.47282850  0.30236900  1
  Mg  Mg2_5  1  0.97282850  0.47282850  0.80236900  1
  Mg  Mg2_6  1  0.97282850  0.97282850  0.30236900  1
  Mg  Mg2_7  1  0.97282850  0.97282850  0.80236900  1
  Mg  Mg3_0  1  0.33445250  0.33445250  0.33455750  1
  Mg  Mg3_1  1  0.33445250  0.33445250  0.83455750  1
  Mg  Mg3_2  1  0.33445250  0.83445250  0.33455750  1
  Mg  Mg3_3  1  0.33445250  0.83445250  0.83455750  1
  Mg  Mg3_4  1  0.83445250  0.33445250  0.33455750  1
  Mg  Mg3_5  1  0.83445250  0.33445250  0.83455750  1
  Mg  Mg3_6  1  0.83445250  0.83445250  0.33455750  1
  Mg  Mg3_7  1  0.83445250  0.83445250  0.83455750  1
  Mg  Mg4_0  1  0.13986600  0.13986600  0.47139300  1
  Mg  Mg4_1  1  0.13986600  0.13986600  0.97139300  1
  Mg  Mg4_2  1  0.13986600  0.63986600  0.47139300  1
  Mg  Mg4_3  1  0.13986600  0.63986600  0.97139300  1
  Mg  Mg4_4  1  0.63986600  0.13986600  0.47139300  1
  Mg  Mg4_5  1  0.63986600  0.13986600  0.97139300  1
  Mg  Mg4_6  1  0.63986600  0.63986600  0.47139300  1
  Mg  Mg4_7  1  0.63986600  0.63986600  0.97139300  1
  Sn  Sn0_0  1  0.30530850  0.30530850  0.13867200  1
  Sn  Sn0_1  1  0.30530850  0.30530850  0.63867200  1
  Sn  Sn0_2  1  0.30530850  0.80530850  0.13867200  1
  Sn  Sn0_3  1  0.30530850  0.80530850  0.63867200  1
  Sn  Sn0_4  1  0.80530850  0.30530850  0.13867200  1
  Sn  Sn0_5  1  0.80530850  0.30530850  0.63867200  1
  Sn  Sn0_6  1  0.80530850  0.80530850  0.13867200  1
  Sn  Sn0_7  1  0.80530850  0.80530850  0.63867200  1
loop_
_geom_bond_atom_site_label_1
_geom_bond_atom_site_label_2
_geom_bond_distance
_geom_bond_site_symmetry_2
Mg0_0 Sn0_2 3.121051 1_555
Mg0_0 Sn0_4 3.121051 1_555
Mg0_0 Mg1_4 3.178508 1_555
Mg0_0 Mg1_2 3.178508 1_555
Mg0_0 Mg4_5 3.207025 1_554
Mg0_0 Mg4_3 3.207025 1_554
Mg0_0 Mg4_7 3.284647 1_554
Mg0_1 Sn0_5 3.121051 1_555
Mg0_1 Sn0_3 3.121051 1_555
Mg0_1 Mg1_3 3.178508 1_555
Mg0_1 Mg1_5 3.178508 1_555
Mg0_1 Mg4_2 3.207025 1_555
Mg0_1 Mg4_4 3.207025 1_555
Mg0_1 Mg4_6 3.284647 1_555
Mg0_2 Sn0_6 3.121051 1_555
Mg0_2 Sn0_0 3.121051 1_565
Mg0_2 Mg1_0 3.178508 1_565
Mg0_2 Mg1_6 3.178508 1_555
Mg0_2 Mg4_7 3.207025 1_554
Mg0_2 Mg4_1 3.207025 1_564
Mg0_2 Mg4_5 3.284647 1_564
Mg0_3 Sn0_1 3.121051 1_565
Mg0_3 Sn0_7 3.121051 1_555
Mg0_3 Mg1_1 3.178508 1_565
Mg0_3 Mg1_7 3.178508 1_555
Mg0_3 Mg4_0 3.207025 1_565
Mg0_3 Mg4_6 3.207025 1_555
Mg0_3 Mg4_4 3.284647 1_565
Mg0_4 Sn0_6 3.121051 1_555
Mg0_4 Sn0_0 3.121051 1_655
Mg0_4 Mg1_0 3.178508 1_655
Mg0_4 Mg1_6 3.178508 1_555
Mg0_4 Mg4_7 3.207025 1_554
Mg0_4 Mg4_1 3.207025 1_654
Mg0_4 Mg4_3 3.284647 1_654
Mg0_5 Sn0_7 3.121051 1_555
Mg0_5 Sn0_1 3.121051 1_655
Mg0_5 Mg1_1 3.178508 1_655
Mg0_5 Mg1_7 3.178508 1_555
Mg0_5 Mg4_0 3.207025 1_655
Mg0_5 Mg4_6 3.207025 1_555
Mg0_5 Mg4_2 3.284647 1_655
Mg0_6 Sn0_2 3.121051 1_655
Mg0_6 Sn0_4 3.121051 1_565
Mg0_6 Mg1_2 3.178508 1_655
Mg0_6 Mg1_4 3.178508 1_565
Mg0_6 Mg4_3 3.207025 1_654
Mg0_6 Mg4_5 3.207025 1_564
Mg0_6 Mg4_1 3.284647 1_664
Mg0_7 Sn0_5 3.121051 1_565
Mg0_7 Sn0_3 3.121051 1_655
Mg0_7 Mg1_5 3.178508 1_565
Mg0_7 Mg1_3 3.178508 1_655
Mg0_7 Mg4_2 3.207025 1_655
Mg0_7 Mg4_4 3.207025 1_565
Mg0_7 Mg4_0 3.284647 1_665
Mg1_0 Mg4_1 3.009839 1_554
Mg1_0 Mg2_2 3.113868 1_545
Mg1_0 Mg2_4 3.113868 1_455
Mg1_0 Mg3_2 3.181043 1_545
Mg1_0 Mg3_4 3.181043 1_455
Mg1_0 Sn0_4 3.229484 1_455
Mg1_0 Sn0_2 3.229484 1_545
Mg1_0 Sn0_0 3.249077 1_555
Mg1_0 Mg1_6 3.380832 1_455
Mg1_0 Mg1_6 3.380832 1_545
Mg1_1 Mg4_0 3.009839 1_555
Mg1_1 Mg2_3 3.113868 1_545
Mg1_1 Mg2_5 3.113868 1_455
Mg1_1 Mg3_3 3.181043 1_545
Mg1_1 Mg3_5 3.181043 1_455
Mg1_1 Sn0_5 3.229484 1_455
Mg1_1 Sn0_3 3.229484 1_545
Mg1_1 Sn0_1 3.249077 1_555
Mg1_1 Mg1_7 3.380832 1_455
Mg1_1 Mg1_7 3.380832 1_545
Mg1_2 Mg4_3 3.009839 1_554
Mg1_2 Mg2_6 3.113868 1_455
Mg1_2 Mg2_0 3.113868 1_555
Mg1_2 Mg3_0 3.181043 1_555
Mg1_2 Mg3_6 3.181043 1_455
Mg1_2 Sn0_0 3.229484 1_555
Mg1_2 Sn0_6 3.229484 1_455
Mg1_2 Sn0_2 3.249077 1_555
Mg1_2 Mg1_4 3.380832 1_555
Mg1_2 Mg1_4 3.380832 1_465
Mg1_3 Mg4_2 3.009839 1_555
Mg1_3 Mg2_7 3.113868 1_455
Mg1_3 Mg2_1 3.113868 1_555
Mg1_3 Mg3_1 3.181043 1_555
Mg1_3 Mg3_7 3.181043 1_455
Mg1_3 Sn0_1 3.229484 1_555
Mg1_3 Sn0_7 3.229484 1_455
Mg1_3 Sn0_3 3.249077 1_555
Mg1_3 Mg1_5 3.380832 1_555
Mg1_3 Mg1_5 3.380832 1_465
Mg1_4 Mg4_5 3.009839 1_554
Mg1_4 Mg2_6 3.113868 1_545
Mg1_4 Mg2_0 3.113868 1_555
Mg1_4 Mg3_0 3.181043 1_555
Mg1_4 Mg3_6 3.181043 1_545
Mg1_4 Sn0_0 3.229484 1_555
Mg1_4 Sn0_6 3.229484 1_545
Mg1_4 Sn0_4 3.249077 1_555
Mg1_5 Mg4_4 3.009839 1_555
Mg1_5 Mg2_7 3.113868 1_545
Mg1_5 Mg2_1 3.113868 1_555
Mg1_5 Mg3_1 3.181043 1_555
Mg1_5 Mg3_7 3.181043 1_545
Mg1_5 Sn0_1 3.229484 1_555
Mg1_5 Sn0_7 3.229484 1_545
Mg1_5 Sn0_5 3.249077 1_555
Mg1_6 Mg4_7 3.009839 1_554
Mg1_6 Mg2_2 3.113868 1_555
Mg1_6 Mg2_4 3.113868 1_555
Mg1_6 Mg3_4 3.181043 1_555
Mg1_6 Mg3_2 3.181043 1_555
Mg1_6 Sn0_2 3.229484 1_555
Mg1_6 Sn0_4 3.229484 1_555
Mg1_6 Sn0_6 3.249077 1_555
Mg1_7 Mg4_6 3.009839 1_555
Mg1_7 Mg2_3 3.113868 1_555
Mg1_7 Mg2_5 3.113868 1_555
Mg1_7 Mg3_5 3.181043 1_555
Mg1_7 Mg3_3 3.181043 1_555
Mg1_7 Sn0_3 3.229484 1_555
Mg1_7 Sn0_5 3.229484 1_555
Mg1_7 Sn0_7 3.249077 1_555
Mg2_0 Sn0_4 3.163667 1_555
Mg2_0 Sn0_2 3.163667 1_555
Mg2_0 Mg4_4 3.214443 1_555
Mg2_0 Mg4_2 3.214443 1_555
Mg2_1 Sn0_5 3.163667 1_555
Mg2_1 Sn0_3 3.163667 1_555
Mg2_1 Mg4_3 3.214443 1_555
Mg2_1 Mg4_5 3.214443 1_555
Mg2_2 Sn0_6 3.163667 1_555
Mg2_2 Sn0_0 3.163667 1_565
Mg2_2 Mg4_0 3.214443 1_565
Mg2_2 Mg4_6 3.214443 1_555
Mg2_3 Sn0_1 3.163667 1_565
Mg2_3 Sn0_7 3.163667 1_555
Mg2_3 Mg4_7 3.214443 1_555
Mg2_3 Mg4_1 3.214443 1_565
Mg2_4 Sn0_6 3.163667 1_555
Mg2_4 Sn0_0 3.163667 1_655
Mg2_4 Mg4_0 3.214443 1_655
Mg2_4 Mg4_6 3.214443 1_555
Mg2_5 Sn0_1 3.163667 1_655
Mg2_5 Sn0_7 3.163667 1_555
Mg2_5 Mg4_7 3.214443 1_555
Mg2_5 Mg4_1 3.214443 1_655
Mg2_6 Sn0_2 3.163667 1_655
Mg2_6 Sn0_4 3.163667 1_565
Mg2_6 Mg4_2 3.214443 1_655
Mg2_6 Mg4_4 3.214443 1_565
Mg2_7 Sn0_3 3.163667 1_655
Mg2_7 Sn0_5 3.163667 1_565
Mg2_7 Mg4_3 3.214443 1_655
Mg2_7 Mg4_5 3.214443 1_565
Mg3_0 Sn0_0 3.044242 1_555
Mg3_0 Mg4_4 3.108147 1_555
Mg3_0 Mg4_2 3.108147 1_555
Mg3_1 Sn0_1 3.044242 1_555
Mg3_1 Mg4_3 3.108147 1_555
Mg3_1 Mg4_5 3.108147 1_555
Mg3_2 Sn0_2 3.044242 1_555
Mg3_2 Mg4_6 3.108147 1_555
Mg3_2 Mg4_0 3.108147 1_565
Mg3_3 Sn0_3 3.044242 1_555
Mg3_3 Mg4_1 3.108147 1_565
Mg3_3 Mg4_7 3.108147 1_555
Mg3_4 Sn0_4 3.044242 1_555
Mg3_4 Mg4_6 3.108147 1_555
Mg3_4 Mg4_0 3.108147 1_655
Mg3_5 Sn0_5 3.044242 1_555
Mg3_5 Mg4_1 3.108147 1_655
Mg3_5 Mg4_7 3.108147 1_555
Mg3_6 Sn0_6 3.044242 1_555
Mg3_6 Mg4_2 3.108147 1_655
Mg3_6 Mg4_4 3.108147 1_565
Mg3_7 Sn0_7 3.044242 1_555
Mg3_7 Mg4_3 3.108147 1_655
Mg3_7 Mg4_5 3.108147 1_565
Mg4_0 Sn0_3 3.216185 1_545
Mg4_0 Sn0_5 3.216185 1_455
Mg4_0 Mg4_6 3.380832 1_545
Mg4_0 Mg4_6 3.380832 1_455
Mg4_1 Sn0_2 3.216185 1_546
Mg4_1 Sn0_4 3.216185 1_456
Mg4_1 Mg4_7 3.380832 1_545
Mg4_1 Mg4_7 3.380832 1_455
Mg4_2 Sn0_1 3.216185 1_555
Mg4_2 Sn0_7 3.216185 1_455
Mg4_2 Mg4_4 3.380832 1_555
Mg4_2 Mg4_4 3.380832 1_465
Mg4_3 Sn0_0 3.216185 1_556
Mg4_3 Sn0_6 3.216185 1_456
Mg4_3 Mg4_5 3.380832 1_555
Mg4_3 Mg4_5 3.380832 1_465
Mg4_4 Sn0_1 3.216185 1_555
Mg4_4 Sn0_7 3.216185 1_545
Mg4_5 Sn0_0 3.216185 1_556
Mg4_5 Sn0_6 3.216185 1_546
Mg4_6 Sn0_5 3.216185 1_555
Mg4_6 Sn0_3 3.216185 1_555
Mg4_7 Sn0_2 3.216185 1_556
Mg4_7 Sn0_4 3.216185 1_556
