# generated using pymatgen
data_Eu5Si3H
_symmetry_space_group_name_H-M   'P 1'
_cell_length_a   9.05875639
_cell_length_b   9.05875639
_cell_length_c   9.05875639
_cell_angle_alpha   129.47639446
_cell_angle_beta   129.47639446
_cell_angle_gamma   74.24523314
_symmetry_Int_Tables_number   1
_chemical_formula_structural   Eu5Si3H
_chemical_formula_sum   'Eu10 Si6 H2'
_cell_volume   431.78718875
_cell_formula_units_Z   2
loop_
 _symmetry_equiv_pos_site_id
 _symmetry_equiv_pos_as_xyz
  1  'x, y, z'
loop_
 _atom_site_type_symbol
 _atom_site_label
 _atom_site_symmetry_multiplicity
 _atom_site_fract_x
 _atom_site_fract_y
 _atom_site_fract_z
 _atom_site_occupancy
  Eu  Eu0  1  0.50000000  0.50000000  0.00000000  1
  Eu  Eu1  1  0.00000000  0.00000000  0.00000000  1
  Eu  Eu2  1  0.52310500  0.02310500  0.84369100  1
  Eu  Eu3  1  0.17941400  0.67941400  0.15630900  1
  Eu  Eu4  1  0.02310500  0.17941400  0.50000000  1
  Eu  Eu5  1  0.67941400  0.52310500  0.50000000  1
  Eu  Eu6  1  0.47689500  0.97689500  0.15630900  1
  Eu  Eu7  1  0.82058600  0.32058600  0.84369100  1
  Eu  Eu8  1  0.97689500  0.82058600  0.50000000  1
  Eu  Eu9  1  0.32058600  0.47689500  0.50000000  1
  Si  Si0  1  0.25000000  0.25000000  0.00000000  1
  Si  Si1  1  0.75000000  0.75000000  0.00000000  1
  Si  Si2  1  0.89017700  0.39017700  0.28035300  1
  Si  Si3  1  0.10982300  0.60982300  0.71964700  1
  Si  Si4  1  0.39017700  0.10982300  0.50000000  1
  Si  Si5  1  0.60982300  0.89017700  0.50000000  1
  H  H0  1  0.25000000  0.75000000  0.50000000  1
  H  H1  1  0.75000000  0.25000000  0.50000000  1
loop_
_geom_bond_atom_site_label_1
_geom_bond_atom_site_label_2
_geom_bond_distance
_geom_bond_site_symmetry_2
Eu0 Si2 3.133968 1_555
Eu0 Si3 3.133968 1_554
Eu0 Si5 3.133971 1_555
Eu0 Si4 3.133971 1_554
Eu0 Si0 3.611480 1_555
Eu0 Si1 3.611480 1_555
Eu1 Si2 3.133968 1_455
Eu1 Si3 3.133968 1_544
Eu1 Si5 3.133971 1_444
Eu1 Si4 3.133971 1_555
Eu1 Si0 3.611480 1_555
Eu1 Si1 3.611480 1_445
Eu2 H0 2.381270 1_545
Eu2 Si4 3.096709 1_555
Eu2 Si5 3.096709 1_545
Eu2 Si2 3.211874 1_556
Eu2 Si0 3.215977 1_556
Eu2 Si1 3.215977 1_546
Eu3 H0 2.381270 1_555
Eu3 Si4 3.096709 1_565
Eu3 Si5 3.096709 1_555
Eu3 Si3 3.211864 1_554
Eu3 Si1 3.215977 1_455
Eu3 Si0 3.215977 1_555
Eu4 H1 2.381270 1_455
Eu4 Si3 3.096706 1_555
Eu4 Si2 3.096716 1_455
Eu4 Si4 3.211873 1_555
Eu4 Si1 3.215977 1_445
Eu4 Si0 3.215977 1_556
Eu5 H1 2.381270 1_555
Eu5 Si3 3.096706 1_655
Eu5 Si2 3.096716 1_555
Eu5 Si5 3.211873 1_555
Eu5 Si1 3.215977 1_556
Eu5 Si0 3.215977 1_555
Eu6 H1 2.381270 1_565
Eu6 Si4 3.096709 1_565
Eu6 Si5 3.096709 1_555
Eu6 Si3 3.211874 1_554
Eu6 Si0 3.215977 1_565
Eu6 Si1 3.215977 1_555
Eu7 H1 2.381270 1_555
Eu7 Si4 3.096709 1_555
Eu7 Si5 3.096709 1_545
Eu7 Si2 3.211864 1_556
Eu7 Si1 3.215977 1_556
Eu7 Si0 3.215977 1_656
Eu8 H0 2.381270 1_655
Eu8 Si2 3.096706 1_555
Eu8 Si3 3.096716 1_655
Eu8 Si5 3.211873 1_555
Eu8 Si1 3.215977 1_555
Eu8 Si0 3.215977 1_666
Eu9 H0 2.381270 1_555
Eu9 Si2 3.096706 1_455
Eu9 Si3 3.096716 1_555
Eu9 Si4 3.211873 1_555
Eu9 Si0 3.215977 1_555
Eu9 Si1 3.215977 1_556
Si2 Si3 2.401693 1_655
Si4 Si5 2.401682 1_545
