# generated using pymatgen
data_Ca2VP3O11
_symmetry_space_group_name_H-M   'P 1'
_cell_length_a   6.74557100
_cell_length_b   6.48841000
_cell_length_c   19.37163646
_cell_angle_alpha   80.76079252
_cell_angle_beta   90.00000000
_cell_angle_gamma   90.00000000
_symmetry_Int_Tables_number   1
_chemical_formula_structural   Ca2VP3O11
_chemical_formula_sum   'Ca8 V4 P12 O44'
_cell_volume   836.85878949
_cell_formula_units_Z   4
loop_
 _symmetry_equiv_pos_site_id
 _symmetry_equiv_pos_as_xyz
  1  'x, y, z'
loop_
 _atom_site_type_symbol
 _atom_site_label
 _atom_site_symmetry_multiplicity
 _atom_site_fract_x
 _atom_site_fract_y
 _atom_site_fract_z
 _atom_site_occupancy
  Ca  Ca0  1  0.14477900  0.33112100  0.57773300  1
  Ca  Ca1  1  0.64477900  0.66887900  0.92226700  1
  Ca  Ca2  1  0.85522100  0.66887900  0.42226700  1
  Ca  Ca3  1  0.35522100  0.33112100  0.07773300  1
  Ca  Ca4  1  0.48943500  0.32971000  0.77226800  1
  Ca  Ca5  1  0.98943500  0.67029000  0.72773200  1
  Ca  Ca6  1  0.51056500  0.67029000  0.22773200  1
  Ca  Ca7  1  0.01056500  0.32971000  0.27226800  1
  V  V0  1  0.64453400  0.05307400  0.62208700  1
  V  V1  1  0.14453400  0.94692600  0.87791300  1
  V  V2  1  0.35546600  0.94692600  0.37791300  1
  V  V3  1  0.85546600  0.05307400  0.12208700  1
  P  P0  1  0.65439400  0.57183000  0.58804200  1
  P  P1  1  0.15439400  0.42817000  0.91195800  1
  P  P2  1  0.34560600  0.42817000  0.41195800  1
  P  P3  1  0.84560600  0.57183000  0.08804200  1
  P  P4  1  0.29523400  0.82809200  0.54854600  1
  P  P5  1  0.79523400  0.17190800  0.95145400  1
  P  P6  1  0.70476600  0.17190800  0.45145400  1
  P  P7  1  0.20476600  0.82809200  0.04854600  1
  P  P8  1  0.48859400  0.81539300  0.77356400  1
  P  P9  1  0.98859400  0.18460700  0.72643600  1
  P  P10  1  0.51140600  0.18460700  0.22643600  1
  P  P11  1  0.01140600  0.81539300  0.27356400  1
  O  O0  1  0.37168300  0.01793600  0.58137400  1
  O  O1  1  0.87168300  0.98206400  0.91862600  1
  O  O2  1  0.62831700  0.98206400  0.41862600  1
  O  O3  1  0.12831700  0.01793600  0.08137400  1
  O  O4  1  0.70278300  0.72600200  0.63866800  1
  O  O5  1  0.20278300  0.27399800  0.86133200  1
  O  O6  1  0.29721700  0.27399800  0.36133200  1
  O  O7  1  0.79721700  0.72600200  0.13866800  1
  O  O8  1  0.15836200  0.69093700  0.59708600  1
  O  O9  1  0.65836200  0.30906300  0.90291400  1
  O  O10  1  0.84163800  0.30906300  0.40291400  1
  O  O11  1  0.34163800  0.69093700  0.09708600  1
  O  O12  1  0.55955500  0.36787700  0.62537400  1
  O  O13  1  0.05955500  0.63212300  0.87462600  1
  O  O14  1  0.44044500  0.63212300  0.37462600  1
  O  O15  1  0.94044500  0.36787700  0.12537400  1
  O  O16  1  0.82539100  0.53110800  0.54117600  1
  O  O17  1  0.32539100  0.46889200  0.95882400  1
  O  O18  1  0.17460900  0.46889200  0.45882400  1
  O  O19  1  0.67460900  0.53110800  0.04117600  1
  O  O20  1  0.78101600  0.09354400  0.52580600  1
  O  O21  1  0.28101600  0.90645600  0.97419400  1
  O  O22  1  0.21898400  0.90645600  0.47419400  1
  O  O23  1  0.71898400  0.09354400  0.02580600  1
  O  O24  1  0.48805900  0.68843900  0.53499000  1
  O  O25  1  0.98805900  0.31156100  0.96501000  1
  O  O26  1  0.51194100  0.31156100  0.46501000  1
  O  O27  1  0.01194100  0.68843900  0.03499000  1
  O  O28  1  0.53458300  0.01374200  0.71912800  1
  O  O29  1  0.03458300  0.98625800  0.78087200  1
  O  O30  1  0.46541700  0.98625800  0.28087200  1
  O  O31  1  0.96541700  0.01374200  0.21912800  1
  O  O32  1  0.33290000  0.67374500  0.74866500  1
  O  O33  1  0.83290000  0.32625500  0.75133500  1
  O  O34  1  0.66710000  0.32625500  0.25133500  1
  O  O35  1  0.16710000  0.67374500  0.24866500  1
  O  O36  1  0.91977000  0.09220700  0.65932700  1
  O  O37  1  0.41977000  0.90779300  0.84067300  1
  O  O38  1  0.08023000  0.90779300  0.34067300  1
  O  O39  1  0.58023000  0.09220700  0.15932700  1
  O  O40  1  0.67505400  0.68591800  0.79670400  1
  O  O41  1  0.17505400  0.31408200  0.70329600  1
  O  O42  1  0.32494600  0.31408200  0.20329600  1
  O  O43  1  0.82494600  0.68591800  0.29670400  1
loop_
_geom_bond_atom_site_label_1
_geom_bond_atom_site_label_2
_geom_bond_distance
_geom_bond_site_symmetry_2
Ca0 O18 2.341860 1_555
Ca0 O8 2.424977 1_555
Ca0 O41 2.425687 1_555
Ca0 O36 2.533441 1_455
Ca0 O0 2.535941 1_555
Ca0 O16 2.555750 1_455
Ca1 O19 2.341860 1_556
Ca1 O9 2.424977 1_555
Ca1 O40 2.425687 1_555
Ca1 O37 2.533441 1_555
Ca1 O1 2.535941 1_555
Ca1 O17 2.555750 1_555
Ca2 O16 2.341860 1_555
Ca2 O10 2.424977 1_555
Ca2 O43 2.425687 1_555
Ca2 O38 2.533441 1_655
Ca2 O2 2.535941 1_555
Ca2 O18 2.555750 1_655
Ca3 O17 2.341860 1_554
Ca3 O11 2.424977 1_555
Ca3 O42 2.425687 1_555
Ca3 O39 2.533441 1_555
Ca3 O3 2.535941 1_555
Ca3 O19 2.555750 1_555
Ca4 O33 2.352814 1_555
Ca4 O32 2.445235 1_555
Ca4 O28 2.456247 1_555
Ca4 O41 2.517187 1_555
Ca4 O5 2.577992 1_555
Ca4 O40 2.735857 1_555
Ca4 O9 2.759101 1_555
Ca4 O12 2.855885 1_555
Ca4 O37 2.882046 1_545
Ca5 O32 2.352814 1_655
Ca5 O33 2.445235 1_555
Ca5 O29 2.456247 1_655
Ca5 O40 2.517187 1_555
Ca5 O4 2.577992 1_555
Ca5 O41 2.735857 1_655
Ca5 O8 2.759101 1_655
Ca5 O13 2.855885 1_655
Ca5 O36 2.882046 1_565
Ca6 O35 2.352814 1_555
Ca6 O34 2.445235 1_555
Ca6 O30 2.456247 1_555
Ca6 O43 2.517187 1_555
Ca6 O7 2.577992 1_555
Ca6 O42 2.735857 1_555
Ca6 O11 2.759101 1_555
Ca6 O14 2.855885 1_555
Ca6 O39 2.882046 1_565
Ca7 O34 2.352814 1_455
Ca7 O35 2.445235 1_555
Ca7 O31 2.456247 1_455
Ca7 O42 2.517187 1_555
Ca7 O6 2.577992 1_555
Ca7 O43 2.735857 1_455
Ca7 O10 2.759101 1_455
Ca7 O15 2.855885 1_455
Ca7 O38 2.882046 1_545
O0 P4 1.561788 1_545
O0 V0 2.029607 1_555
O1 P5 1.561788 1_565
O1 V1 2.029607 1_655
O2 P6 1.561788 1_565
O2 V2 2.029607 1_555
O3 P7 1.561788 1_545
O3 V3 2.029607 1_455
O4 P0 1.544027 1_555
O4 V0 2.131269 1_565
O5 P1 1.544027 1_555
O5 V1 2.131269 1_545
O6 P2 1.544027 1_555
O6 V2 2.131269 1_545
O7 P3 1.544027 1_555
O7 V3 2.131269 1_565
O8 P4 1.503282 1_555
O9 P5 1.503282 1_555
O10 P6 1.503282 1_555
O11 P7 1.503282 1_555
O12 P0 1.541480 1_555
O12 V0 2.132254 1_555
O13 P1 1.541480 1_555
O13 V1 2.132254 1_555
O14 P2 1.541480 1_555
O14 V2 2.132254 1_555
O15 P3 1.541480 1_555
O15 V3 2.132254 1_555
O16 P0 1.517092 1_555
O17 P1 1.517092 1_555
O18 P2 1.517092 1_555
O19 P3 1.517092 1_555
O20 P6 1.537024 1_555
O20 V0 2.058629 1_555
O21 P7 1.537024 1_556
O21 V1 2.058629 1_555
O22 P4 1.537024 1_555
O22 V2 2.058629 1_555
O23 P5 1.537024 1_554
O23 V3 2.058629 1_555
O24 P0 1.624156 1_555
O24 P4 1.630427 1_555
O25 P1 1.624156 1_655
O25 P5 1.630427 1_555
O26 P2 1.624156 1_555
O26 P6 1.630427 1_555
O27 P3 1.624156 1_455
O27 P7 1.630427 1_555
O28 P8 1.558441 1_545
O28 V0 1.998744 1_555
O29 P9 1.558441 1_465
O29 V1 1.998744 1_555
O30 P10 1.558441 1_565
O30 V2 1.998744 1_555
O31 P11 1.558441 1_645
O31 V3 1.998744 1_555
O32 P8 1.524041 1_555
O33 P9 1.524041 1_555
O34 P10 1.524041 1_555
O35 P11 1.524041 1_555
O36 P9 1.585961 1_555
O36 V0 2.022563 1_555
O37 P8 1.585961 1_555
O37 V1 2.022563 1_555
O38 P11 1.585961 1_555
O38 V2 2.022563 1_555
O39 P10 1.585961 1_555
O39 V3 2.022563 1_555
O40 P8 1.538755 1_555
O41 P9 1.538755 1_455
O42 P10 1.538755 1_555
O43 P11 1.538755 1_655
