# generated using pymatgen
data_Mg(WO3)2
_symmetry_space_group_name_H-M   'P 1'
_cell_length_a   5.28008500
_cell_length_b   5.41927200
_cell_length_c   7.71895500
_cell_angle_alpha   90.00000000
_cell_angle_beta   90.00000000
_cell_angle_gamma   90.00000000
_symmetry_Int_Tables_number   1
_chemical_formula_structural   Mg(WO3)2
_chemical_formula_sum   'Mg2 W4 O12'
_cell_volume   220.87185182
_cell_formula_units_Z   2
loop_
 _symmetry_equiv_pos_site_id
 _symmetry_equiv_pos_as_xyz
  1  'x, y, z'
loop_
 _atom_site_type_symbol
 _atom_site_label
 _atom_site_symmetry_multiplicity
 _atom_site_fract_x
 _atom_site_fract_y
 _atom_site_fract_z
 _atom_site_occupancy
  Mg  Mg0  1  0.51033300  0.31034200  0.50000000  1
  Mg  Mg1  1  0.01033300  0.68965800  0.00000000  1
  W  W0  1  0.50591800  0.75666900  0.74997900  1
  W  W1  1  0.00591800  0.24333100  0.75002100  1
  W  W2  1  0.00591800  0.24333100  0.24997900  1
  W  W3  1  0.50591800  0.75666900  0.25002100  1
  O  O0  1  0.66581700  0.06438100  0.31387100  1
  O  O1  1  0.16581700  0.93561900  0.18612900  1
  O  O2  1  0.80237900  0.53451100  0.69947500  1
  O  O3  1  0.30237900  0.46548900  0.80052500  1
  O  O4  1  0.30237900  0.46548900  0.19947500  1
  O  O5  1  0.80237900  0.53451100  0.30052500  1
  O  O6  1  0.16581700  0.93561900  0.81387100  1
  O  O7  1  0.66581700  0.06438100  0.68612900  1
  O  O8  1  0.13621300  0.21733000  0.50000000  1
  O  O9  1  0.63621300  0.78267000  0.00000000  1
  O  O10  1  0.41663500  0.69114400  0.50000000  1
  O  O11  1  0.91663500  0.30885600  0.00000000  1
loop_
_geom_bond_atom_site_label_1
_geom_bond_atom_site_label_2
_geom_bond_distance
_geom_bond_site_symmetry_2
Mg0 O8 2.038681 1_555
Mg0 O10 2.122144 1_555
Mg0 O7 2.124820 1_555
Mg0 O0 2.124820 1_555
Mg0 O2 2.494887 1_555
Mg0 O5 2.494887 1_555
Mg0 O3 2.700693 1_555
Mg0 O4 2.700693 1_555
Mg1 O9 2.038681 1_455
Mg1 O11 2.122144 1_455
Mg1 O6 2.124820 1_554
Mg1 O1 2.124820 1_555
Mg1 O4 2.494887 1_555
Mg1 O3 2.494887 1_554
Mg1 O5 2.700693 1_455
Mg1 O2 2.700693 1_454
O0 W3 1.933009 1_545
O0 W2 2.099633 1_655
O1 W2 1.933009 1_565
O1 W3 2.099633 1_555
O2 W1 1.948652 1_655
O2 W0 2.012888 1_555
O3 W0 1.948652 1_555
O3 W1 2.012888 1_555
O4 W3 1.948652 1_555
O4 W2 2.012888 1_555
O5 W2 1.948652 1_655
O5 W3 2.012888 1_555
O6 W1 1.933009 1_565
O6 W0 2.099633 1_555
O7 W0 1.933009 1_545
O7 W1 2.099633 1_655
O8 W1 2.053697 1_555
O8 W2 2.053697 1_555
O9 W3 2.053697 1_555
O9 W0 2.053697 1_554
O10 W3 2.017820 1_555
O10 W0 2.017820 1_555
O11 W2 2.017820 1_655
O11 W1 2.017820 1_654
