# generated using pymatgen
data_Sr2MnMoO6
_symmetry_space_group_name_H-M   'P 1'
_cell_length_a   5.59681505
_cell_length_b   5.69930880
_cell_length_c   9.82922874
_cell_angle_alpha   89.21589423
_cell_angle_beta   73.24384932
_cell_angle_gamma   60.70266057
_symmetry_Int_Tables_number   1
_chemical_formula_structural   Sr2MnMoO6
_chemical_formula_sum   'Sr4 Mn2 Mo2 O12'
_cell_volume   258.75495645
_cell_formula_units_Z   2
loop_
 _symmetry_equiv_pos_site_id
 _symmetry_equiv_pos_as_xyz
  1  'x, y, z'
loop_
 _atom_site_type_symbol
 _atom_site_label
 _atom_site_symmetry_multiplicity
 _atom_site_fract_x
 _atom_site_fract_y
 _atom_site_fract_z
 _atom_site_occupancy
  Sr  Sr0  1  0.25360700  0.38155500  0.12301000  1
  Sr  Sr1  1  0.24830600  0.86668000  0.62474500  1
  Sr  Sr2  1  0.75228300  0.62413600  0.86238500  1
  Sr  Sr3  1  0.74437800  0.13013500  0.38628900  1
  Mn  Mn0  1  0.99862700  0.50031300  0.50014600  1
  Mn  Mn1  1  0.99903000  0.00022800  0.99975700  1
  Mo  Mo0  1  0.49705600  0.24605100  0.74907600  1
  Mo  Mo1  1  0.50291900  0.75424900  0.25169600  1
  O  O0  1  0.74396100  0.39963700  0.13507300  1
  O  O1  1  0.74611800  0.86812600  0.62204500  1
  O  O2  1  0.26581600  0.61225100  0.87147000  1
  O  O3  1  0.25443000  0.11459100  0.37456700  1
  O  O4  1  0.20385800  0.15986300  0.84073800  1
  O  O5  1  0.22283400  0.64660400  0.35372700  1
  O  O6  1  0.77849100  0.34535300  0.63834900  1
  O  O7  1  0.79007700  0.85287600  0.16655700  1
  O  O8  1  0.69096700  0.10046200  0.89439700  1
  O  O9  1  0.71343600  0.60326100  0.39747200  1
  O  O10  1  0.27483300  0.39926500  0.59820600  1
  O  O11  1  0.31897100  0.89436700  0.11029300  1
loop_
_geom_bond_atom_site_label_1
_geom_bond_atom_site_label_2
_geom_bond_distance
_geom_bond_site_symmetry_2
Mn0 O10 1.903430 1_655
Mn0 O9 1.976496 1_555
Mn0 O1 2.005055 1_555
Mn0 O6 2.051909 1_555
Mn0 O5 2.071431 1_655
Mn0 O3 2.093113 1_655
Mn1 O8 2.102616 1_555
Mn1 O2 2.113846 1_645
Mn1 O4 2.129247 1_655
Mn1 O7 2.139837 1_546
Mn1 O0 2.190081 1_556
Mn1 O11 2.190295 1_646
Mo0 O4 1.915756 1_555
Mo0 O6 1.962910 1_555
Mo0 O8 1.971479 1_555
Mo0 O2 2.001407 1_555
Mo0 O1 2.067139 1_545
Mo0 O10 2.115093 1_555
Mo1 O11 1.902491 1_555
Mo1 O7 1.922250 1_555
Mo1 O0 1.929237 1_555
Mo1 O5 1.964023 1_555
Mo1 O3 1.978529 1_565
Mo1 O9 2.032051 1_555
O0 Sr0 2.771005 1_655
O0 Sr0 2.832187 1_555
O0 Sr3 2.890065 1_555
O0 Sr2 2.952256 1_554
O1 Sr2 2.725023 1_555
O1 Sr3 2.739325 1_565
O1 Sr1 2.782679 1_555
O1 Sr1 2.814406 1_655
O2 Sr2 2.732327 1_555
O2 Sr0 2.783507 1_556
O2 Sr1 2.809841 1_555
O2 Sr2 2.868900 1_455
O3 Sr3 2.780894 1_455
O3 Sr1 2.819253 1_545
O3 Sr3 2.821472 1_555
O3 Sr0 2.885405 1_555
O4 Sr2 2.568031 1_455
O4 Sr1 2.597498 1_545
O4 Sr2 3.158467 1_545
O4 Sr0 3.202743 1_556
O5 Sr0 2.658622 1_555
O5 Sr3 2.678679 1_465
O5 Sr1 3.029080 1_555
O5 Sr3 3.064502 1_555
O6 Sr2 2.660207 1_555
O6 Sr1 2.676048 1_645
O6 Sr3 2.874783 1_555
O6 Sr1 3.039792 1_555
O7 Sr3 2.570304 1_565
O7 Sr0 2.588473 1_655
O7 Sr0 3.182581 1_565
O8 Sr2 2.576020 1_545
O8 Sr0 2.587822 1_556
O8 Sr1 3.129281 1_645
O8 Sr2 3.168426 1_555
O9 Sr3 2.617873 1_555
O9 Sr1 2.633413 1_555
O9 Sr3 3.089969 1_565
O9 Sr0 3.109081 1_655
O10 Sr3 2.565902 1_555
O10 Sr1 2.606970 1_555
O10 Sr2 2.997089 1_455
O10 Sr1 3.114576 1_545
O11 Sr0 2.616900 1_565
O11 Sr2 2.689053 1_554
O11 Sr0 3.114727 1_555
O11 Sr3 3.216717 1_465
