# generated using pymatgen
data_Li7Mn4CoO12
_symmetry_space_group_name_H-M   'P 1'
_cell_length_a   7.96633780
_cell_length_b   7.96633780
_cell_length_c   9.77079072
_cell_angle_alpha   81.83892067
_cell_angle_beta   81.83892067
_cell_angle_gamma   20.79725800
_symmetry_Int_Tables_number   1
_chemical_formula_structural   Li7Mn4CoO12
_chemical_formula_sum   'Li7 Mn4 Co1 O12'
_cell_volume   217.86155693
_cell_formula_units_Z   1
loop_
 _symmetry_equiv_pos_site_id
 _symmetry_equiv_pos_as_xyz
  1  'x, y, z'
loop_
 _atom_site_type_symbol
 _atom_site_label
 _atom_site_symmetry_multiplicity
 _atom_site_fract_x
 _atom_site_fract_y
 _atom_site_fract_z
 _atom_site_occupancy
  Li  Li0  1  0.74895800  0.74895800  0.74952700  1
  Li  Li1  1  0.92139700  0.92139700  0.24294400  1
  Li  Li2  1  0.07860300  0.07860300  0.75705600  1
  Li  Li3  1  0.41918000  0.41918000  0.75393200  1
  Li  Li4  1  0.58082000  0.58082000  0.24606800  1
  Li  Li5  1  0.25104200  0.25104200  0.25047300  1
  Li  Li6  1  0.50000000  0.50000000  0.00000000  1
  Mn  Mn0  1  0.16165300  0.16165300  0.00357700  1
  Mn  Mn1  1  0.83834700  0.83834700  0.99642300  1
  Mn  Mn2  1  0.33527200  0.33527200  0.49739500  1
  Mn  Mn3  1  0.66472800  0.66472800  0.50260500  1
  Co  Co0  1  0.00000000  0.00000000  0.50000000  1
  O  O0  1  0.63113800  0.63113800  0.88730800  1
  O  O1  1  0.79960300  0.79960300  0.38054000  1
  O  O2  1  0.94251500  0.94251500  0.88630100  1
  O  O3  1  0.28819400  0.28819400  0.89364300  1
  O  O4  1  0.46686700  0.46686700  0.38447900  1
  O  O5  1  0.13086800  0.13086800  0.38558400  1
  O  O6  1  0.86913200  0.86913200  0.61441600  1
  O  O7  1  0.05748500  0.05748500  0.11369900  1
  O  O8  1  0.20039700  0.20039700  0.61946000  1
  O  O9  1  0.53313300  0.53313300  0.61552100  1
  O  O10  1  0.71180600  0.71180600  0.10635700  1
  O  O11  1  0.36886200  0.36886200  0.11269200  1
loop_
_geom_bond_atom_site_label_1
_geom_bond_atom_site_label_2
_geom_bond_distance
_geom_bond_site_symmetry_2
Li0 O0 2.122235 1_555
Li0 O8 2.130936 1_655
Li0 O8 2.130936 1_565
Li0 O6 2.138165 1_555
Li0 O3 2.162944 1_565
Li0 O3 2.162944 1_655
Li1 O11 2.160422 1_565
Li1 O11 2.160422 1_655
Li1 O1 2.170175 1_555
Li1 O4 2.184524 1_565
Li1 O4 2.184524 1_655
Li1 O7 2.316349 1_665
Li2 O0 2.160422 1_455
Li2 O0 2.160422 1_545
Li2 O8 2.170175 1_555
Li2 O9 2.184524 1_545
Li2 O9 2.184524 1_455
Li2 O2 2.316349 1_445
Li3 O2 2.002629 1_545
Li3 O2 2.002629 1_455
Li3 O9 2.078645 1_555
Li3 O6 2.202165 1_455
Li3 O6 2.202165 1_545
Li3 O3 2.295240 1_555
Li4 O7 2.002629 1_655
Li4 O7 2.002629 1_565
Li4 O4 2.078645 1_555
Li4 O5 2.202165 1_655
Li4 O5 2.202165 1_565
Li4 O10 2.295240 1_555
Li5 O11 2.122235 1_555
Li5 O1 2.130936 1_545
Li5 O1 2.130936 1_455
Li5 O5 2.138165 1_555
Li5 O10 2.162944 1_455
Li5 O10 2.162944 1_545
Li6 O7 2.098116 1_565
Li6 O2 2.098116 1_454
Li6 O2 2.098116 1_544
Li6 O7 2.098116 1_655
Li6 O11 2.186896 1_555
Li6 O0 2.186896 1_554
Mn0 O7 1.820854 1_555
Mn0 O0 1.934839 1_454
Mn0 O0 1.934839 1_544
Mn0 O10 1.980295 1_455
Mn0 O10 1.980295 1_545
Mn0 O3 2.114548 1_554
Mn1 O2 1.820854 1_555
Mn1 O11 1.934839 1_566
Mn1 O11 1.934839 1_656
Mn1 O3 1.980295 1_655
Mn1 O3 1.980295 1_565
Mn1 O10 2.114548 1_556
Mn2 O6 1.957433 1_545
Mn2 O6 1.957433 1_455
Mn2 O1 1.966678 1_455
Mn2 O1 1.966678 1_545
Mn2 O4 2.193911 1_555
Mn2 O8 2.272052 1_555
Mn3 O5 1.957433 1_565
Mn3 O5 1.957433 1_655
Mn3 O8 1.966678 1_565
Mn3 O8 1.966678 1_655
Mn3 O9 2.193911 1_555
Mn3 O1 2.272052 1_555
Co0 O9 1.944306 1_455
Co0 O9 1.944306 1_545
Co0 O4 1.944306 1_545
Co0 O4 1.944306 1_455
Co0 O6 2.189496 1_445
Co0 O5 2.189496 1_555
