# generated using pymatgen
data_CaV2O8
_symmetry_space_group_name_H-M   'P 1'
_cell_length_a   6.55160235
_cell_length_b   7.36304363
_cell_length_c   8.77518847
_cell_angle_alpha   97.27010569
_cell_angle_beta   106.16983593
_cell_angle_gamma   112.32423135
_symmetry_Int_Tables_number   1
_chemical_formula_structural   CaV2O8
_chemical_formula_sum   'Ca2 V4 O16'
_cell_volume   363.00760896
_cell_formula_units_Z   2
loop_
 _symmetry_equiv_pos_site_id
 _symmetry_equiv_pos_as_xyz
  1  'x, y, z'
loop_
 _atom_site_type_symbol
 _atom_site_label
 _atom_site_symmetry_multiplicity
 _atom_site_fract_x
 _atom_site_fract_y
 _atom_site_fract_z
 _atom_site_occupancy
  Ca  Ca0  1  0.30851100  0.61582300  0.86201500  1
  Ca  Ca1  1  0.69148900  0.38417700  0.13798500  1
  V  V0  1  0.60222000  0.93672700  0.66202200  1
  V  V1  1  0.39778000  0.06327300  0.33797800  1
  V  V2  1  0.61630700  0.43124700  0.65321300  1
  V  V3  1  0.38369300  0.56875300  0.34678700  1
  O  O0  1  0.54524800  0.15751900  0.59139100  1
  O  O1  1  0.45475200  0.84248100  0.40860900  1
  O  O2  1  0.52007700  0.64208900  0.59784200  1
  O  O3  1  0.47992300  0.35791100  0.40215800  1
  O  O4  1  0.27054400  0.36227600  0.65139400  1
  O  O5  1  0.72945600  0.63772400  0.34860600  1
  O  O6  1  0.90733900  0.54476700  0.70158100  1
  O  O7  1  0.09266100  0.45523300  0.29841900  1
  O  O8  1  0.88847100  0.03513200  0.74856000  1
  O  O9  1  0.11152900  0.96486800  0.25144000  1
  O  O10  1  0.48276900  0.91471300  0.81188100  1
  O  O11  1  0.51723100  0.08528700  0.18811900  1
  O  O12  1  0.58672200  0.46138100  0.85480600  1
  O  O13  1  0.41327800  0.53861900  0.14519400  1
  O  O14  1  0.02028800  0.42293200  0.98638000  1
  O  O15  1  0.97971200  0.57706800  0.01362000  1
loop_
_geom_bond_atom_site_label_1
_geom_bond_atom_site_label_2
_geom_bond_distance
_geom_bond_site_symmetry_2
Ca0 O10 2.226263 1_555
Ca0 O4 2.341146 1_555
Ca0 O6 2.423177 1_455
Ca0 O12 2.498028 1_555
Ca0 O14 2.505304 1_555
Ca0 O13 2.583252 1_556
Ca0 O15 2.777944 1_456
Ca1 O11 2.226263 1_555
Ca1 O5 2.341146 1_555
Ca1 O7 2.423177 1_655
Ca1 O13 2.498028 1_555
Ca1 O15 2.505304 1_555
Ca1 O12 2.583252 1_554
Ca1 O14 2.777944 1_654
O0 V2 1.855517 1_555
O0 V0 1.937404 1_545
O0 V1 2.064827 1_555
O1 V3 1.855517 1_555
O1 V1 1.937404 1_565
O1 V0 2.064827 1_555
O2 V2 1.951277 1_555
O2 V0 1.987019 1_555
O2 V3 2.044359 1_555
O3 V3 1.951277 1_555
O3 V1 1.987019 1_555
O3 V2 2.044359 1_555
O4 V2 2.119811 1_555
O5 V3 2.119811 1_555
O6 V2 1.662259 1_555
O7 V3 1.662259 1_555
O8 V0 1.629115 1_545
O9 V1 1.629115 1_565
O10 V0 1.702600 1_555
O11 V1 1.702600 1_555
O12 V2 1.827711 1_555
O13 V3 1.827711 1_555
O14 O15 1.269552 1_456
