# generated using pymatgen
data_Hf8Mg(N2O)4
_symmetry_space_group_name_H-M   'P 1'
_cell_length_a   5.76416283
_cell_length_b   5.88616900
_cell_length_c   10.91215109
_cell_angle_alpha   90.56300297
_cell_angle_beta   72.51926660
_cell_angle_gamma   58.20569986
_symmetry_Int_Tables_number   1
_chemical_formula_structural   Hf8Mg(N2O)4
_chemical_formula_sum   'Hf8 Mg1 N8 O4'
_cell_volume   293.62555902
_cell_formula_units_Z   1
loop_
 _symmetry_equiv_pos_site_id
 _symmetry_equiv_pos_as_xyz
  1  'x, y, z'
loop_
 _atom_site_type_symbol
 _atom_site_label
 _atom_site_symmetry_multiplicity
 _atom_site_fract_x
 _atom_site_fract_y
 _atom_site_fract_z
 _atom_site_occupancy
  Hf  Hf0  1  0.17657000  0.31503700  0.28389000  1
  Hf  Hf1  1  0.00788800  0.93484500  0.94620000  1
  Hf  Hf2  1  0.33639700  0.29269800  0.99555600  1
  Hf  Hf3  1  0.61986900  0.40731800  0.56578600  1
  Hf  Hf4  1  0.49741500  0.66741400  0.30157600  1
  Hf  Hf5  1  0.85179900  0.96627600  0.23989800  1
  Hf  Hf6  1  0.66338900  0.60095900  0.99934400  1
  Hf  Hf7  1  0.85921700  0.79459100  0.68236700  1
  Mg  Mg0  1  0.28118400  0.08875700  0.57191400  1
  N  N0  1  0.46011700  0.01557000  0.36722000  1
  N  N1  1  0.58604900  0.23744600  0.12198500  1
  N  N2  1  0.24016100  0.76768800  0.60264100  1
  N  N3  1  0.77939600  0.31705300  0.36302200  1
  N  N4  1  0.39799100  0.56924300  0.91501800  1
  N  N5  1  0.90469300  0.56261000  0.14778500  1
  N  N6  1  0.90268400  0.45777100  0.61047300  1
  N  N7  1  0.72158500  0.87111100  0.89025300  1
  O  O0  1  0.30511300  0.91703200  0.15973900  1
  O  O1  1  0.10964800  0.68033700  0.34309400  1
  O  O2  1  0.07099000  0.23642000  0.90832600  1
  O  O3  1  0.55875600  0.11639600  0.63418500  1
loop_
_geom_bond_atom_site_label_1
_geom_bond_atom_site_label_2
_geom_bond_distance
_geom_bond_site_symmetry_2
Hf0 O1 2.034348 1_555
Hf0 N0 2.119865 1_555
Hf0 N3 2.184156 1_455
Hf0 N1 2.289970 1_555
Hf0 O0 2.319090 1_545
Hf0 N5 2.412410 1_455
Hf1 O2 2.014605 1_565
Hf1 N4 2.056700 1_555
Hf1 N7 2.118983 1_455
Hf1 N1 2.308992 1_466
Hf2 N4 1.999441 1_555
Hf2 O2 2.181489 1_555
Hf2 N5 2.185080 1_456
Hf2 N1 2.188217 1_556
Hf2 N7 2.239078 1_545
Hf3 N6 1.992078 1_555
Hf3 N2 2.003466 1_555
Hf3 O3 2.028878 1_555
Hf3 N3 2.064747 1_555
Hf4 N0 2.042879 1_565
Hf4 O1 2.102082 1_555
Hf4 N3 2.119961 1_555
Hf4 N5 2.189725 1_555
Hf4 O0 2.267648 1_555
Hf4 N1 2.906084 1_555
Hf5 N0 2.128169 1_565
Hf5 O1 2.171788 1_655
Hf5 N3 2.223292 1_565
Hf5 N1 2.279865 1_565
Hf5 O0 2.345331 1_655
Hf5 N5 2.398848 1_555
Hf6 O2 2.086770 1_655
Hf6 N4 2.089287 1_555
Hf6 N7 2.101813 1_555
Hf6 O0 2.122603 1_556
Hf6 N5 2.374716 1_556
Hf6 N1 2.696485 1_556
Hf7 N6 1.984132 1_555
Hf7 O3 1.993405 1_565
Hf7 N2 2.021584 1_655
Hf7 N7 2.121431 1_555
Mg0 O3 1.993332 1_555
Mg0 N6 2.022843 1_455
Mg0 N2 2.043442 1_545
Mg0 N0 2.089836 1_555
