# generated using pymatgen
data_HoCo(BO2)5
_symmetry_space_group_name_H-M   'P 1'
_cell_length_a   7.65823800
_cell_length_b   8.59580200
_cell_length_c   12.33018826
_cell_angle_alpha   49.78291332
_cell_angle_beta   90.00000000
_cell_angle_gamma   90.00000000
_symmetry_Int_Tables_number   1
_chemical_formula_structural   HoCo(BO2)5
_chemical_formula_sum   'Ho4 Co4 B20 O40'
_cell_volume   619.80187288
_cell_formula_units_Z   4
loop_
 _symmetry_equiv_pos_site_id
 _symmetry_equiv_pos_as_xyz
  1  'x, y, z'
loop_
 _atom_site_type_symbol
 _atom_site_label
 _atom_site_symmetry_multiplicity
 _atom_site_fract_x
 _atom_site_fract_y
 _atom_site_fract_z
 _atom_site_occupancy
  Ho  Ho0  1  0.31462300  0.94056900  0.74381900  1
  Ho  Ho1  1  0.81462300  0.05943100  0.75618100  1
  Ho  Ho2  1  0.68537700  0.05943100  0.25618100  1
  Ho  Ho3  1  0.18537700  0.94056900  0.24381900  1
  Co  Co0  1  0.09742400  0.47075600  0.63034400  1
  Co  Co1  1  0.59742400  0.52924400  0.86965600  1
  Co  Co2  1  0.90257600  0.52924400  0.36965600  1
  Co  Co3  1  0.40257600  0.47075600  0.13034400  1
  B  B0  1  0.18731300  0.52427600  0.91018100  1
  B  B1  1  0.68731300  0.47572400  0.58981900  1
  B  B2  1  0.81268700  0.47572400  0.08981900  1
  B  B3  1  0.31268700  0.52427600  0.41018100  1
  B  B4  1  0.89689800  0.84894600  0.48854400  1
  B  B5  1  0.39689800  0.15105400  0.01145600  1
  B  B6  1  0.10310200  0.15105400  0.51145600  1
  B  B7  1  0.60310200  0.84894600  0.98854400  1
  B  B8  1  0.96775800  0.28065400  0.94211900  1
  B  B9  1  0.46775800  0.71934600  0.55788100  1
  B  B10  1  0.03224200  0.71934600  0.05788100  1
  B  B11  1  0.53224200  0.28065400  0.44211900  1
  B  B12  1  0.17574100  0.08325900  0.89873000  1
  B  B13  1  0.67574100  0.91674100  0.60127000  1
  B  B14  1  0.82425900  0.91674100  0.10127000  1
  B  B15  1  0.32425900  0.08325900  0.39873000  1
  B  B16  1  0.92773500  0.66504000  0.75089400  1
  B  B17  1  0.42773500  0.33496000  0.74910600  1
  B  B18  1  0.07226500  0.33496000  0.24910600  1
  B  B19  1  0.57226500  0.66504000  0.25089400  1
  O  O0  1  0.05682000  0.11337500  0.63221900  1
  O  O1  1  0.55682000  0.88662500  0.86778100  1
  O  O2  1  0.94318000  0.88662500  0.36778100  1
  O  O3  1  0.44318000  0.11337500  0.13221900  1
  O  O4  1  0.84702500  0.41992600  0.57152700  1
  O  O5  1  0.34702500  0.58007400  0.92847300  1
  O  O6  1  0.15297500  0.58007400  0.42847300  1
  O  O7  1  0.65297500  0.41992600  0.07152700  1
  O  O8  1  0.12340100  0.33049400  0.98983700  1
  O  O9  1  0.62340100  0.66950600  0.51016300  1
  O  O10  1  0.87659900  0.66950600  0.01016300  1
  O  O11  1  0.37659900  0.33049400  0.48983700  1
  O  O12  1  0.26678400  0.02546100  0.02482500  1
  O  O13  1  0.76678400  0.97453900  0.47517500  1
  O  O14  1  0.73321600  0.97453900  0.97517500  1
  O  O15  1  0.23321600  0.02546100  0.52482500  1
  O  O16  1  0.11154500  0.90079000  0.92269900  1
  O  O17  1  0.61154500  0.09921000  0.57730100  1
  O  O18  1  0.88845500  0.09921000  0.07730100  1
  O  O19  1  0.38845500  0.90079000  0.42269900  1
  O  O20  1  0.03031700  0.23251600  0.85071100  1
  O  O21  1  0.53031700  0.76748400  0.64928900  1
  O  O22  1  0.96968300  0.76748400  0.14928900  1
  O  O23  1  0.46968300  0.23251600  0.35071100  1
  O  O24  1  0.85237100  0.45975400  0.85728400  1
  O  O25  1  0.35237100  0.54024600  0.64271600  1
  O  O26  1  0.14762900  0.54024600  0.14271600  1
  O  O27  1  0.64762900  0.45975400  0.35728400  1
  O  O28  1  0.09361900  0.68917600  0.79843700  1
  O  O29  1  0.59361900  0.31082400  0.70156300  1
  O  O30  1  0.90638100  0.31082400  0.20156300  1
  O  O31  1  0.40638100  0.68917600  0.29843700  1
  O  O32  1  0.96840600  0.69594400  0.61905800  1
  O  O33  1  0.46840600  0.30405600  0.88094200  1
  O  O34  1  0.03159400  0.30405600  0.38094200  1
  O  O35  1  0.53159400  0.69594400  0.11905800  1
  O  O36  1  0.79784100  0.81405300  0.72374800  1
  O  O37  1  0.29784100  0.18594700  0.77625200  1
  O  O38  1  0.20215900  0.18594700  0.27625200  1
  O  O39  1  0.70215900  0.81405300  0.22374800  1
loop_
_geom_bond_atom_site_label_1
_geom_bond_atom_site_label_2
_geom_bond_distance
_geom_bond_site_symmetry_2
Ho0 O1 2.253062 1_555
Ho0 O0 2.314804 1_565
Ho0 O15 2.380738 1_565
Ho0 O37 2.390504 1_565
Ho0 O5 2.395143 1_555
Ho0 O28 2.471516 1_555
Ho0 O16 2.535051 1_555
Ho0 O17 2.762272 1_565
Ho0 O11 2.777004 1_565
Ho0 O21 2.922346 1_555
Ho1 O0 2.253062 1_655
Ho1 O1 2.314804 1_545
Ho1 O14 2.380738 1_545
Ho1 O36 2.390504 1_545
Ho1 O4 2.395143 1_555
Ho1 O29 2.471516 1_555
Ho1 O17 2.535051 1_555
Ho1 O16 2.762272 1_645
Ho1 O10 2.777004 1_546
Ho1 O20 2.922346 1_655
Ho2 O3 2.253062 1_555
Ho2 O2 2.314804 1_545
Ho2 O13 2.380738 1_545
Ho2 O39 2.390504 1_545
Ho2 O7 2.395143 1_555
Ho2 O30 2.471516 1_555
Ho2 O18 2.535051 1_555
Ho2 O19 2.762272 1_545
Ho2 O9 2.777004 1_545
Ho2 O23 2.922346 1_555
Ho3 O2 2.253062 1_455
Ho3 O3 2.314804 1_565
Ho3 O12 2.380738 1_565
Ho3 O38 2.390504 1_565
Ho3 O6 2.395143 1_555
Ho3 O31 2.471516 1_555
Ho3 O19 2.535051 1_555
Ho3 O18 2.762272 1_465
Ho3 O8 2.777004 1_564
Ho3 O22 2.922346 1_455
Co0 O6 2.058925 1_555
Co0 O25 2.076000 1_555
Co0 O32 2.096326 1_455
Co0 O20 2.157584 1_555
Co0 O4 2.191642 1_455
Co0 O37 2.428612 1_555
Co1 O7 2.058925 1_556
Co1 O24 2.076000 1_555
Co1 O33 2.096326 1_555
Co1 O21 2.157584 1_555
Co1 O5 2.191642 1_555
Co1 O36 2.428612 1_555
Co2 O4 2.058925 1_555
Co2 O27 2.076000 1_555
Co2 O34 2.096326 1_655
Co2 O22 2.157584 1_555
Co2 O6 2.191642 1_655
Co2 O39 2.428612 1_555
Co3 O5 2.058925 1_554
Co3 O26 2.076000 1_555
Co3 O35 2.096326 1_555
Co3 O23 2.157584 1_555
Co3 O7 2.191642 1_555
Co3 O38 2.428612 1_555
B0 O8 1.366060 1_555
B0 O28 1.378539 1_555
B0 O5 1.384419 1_555
B1 O9 1.366060 1_555
B1 O29 1.378539 1_555
B1 O4 1.384419 1_555
B2 O10 1.366060 1_555
B2 O30 1.378539 1_555
B2 O7 1.384419 1_555
B3 O11 1.366060 1_555
B3 O31 1.378539 1_555
B3 O6 1.384419 1_555
B4 O2 1.350907 1_555
B4 O32 1.373378 1_555
B4 O13 1.398477 1_555
B5 O3 1.350907 1_555
B5 O33 1.373378 1_554
B5 O12 1.398477 1_555
B6 O0 1.350907 1_555
B6 O34 1.373378 1_555
B6 O15 1.398477 1_555
B7 O1 1.350907 1_555
B7 O35 1.373378 1_556
B7 O14 1.398477 1_555
B8 O24 1.471575 1_555
B8 O18 1.490813 1_556
B8 O20 1.507748 1_655
B8 O8 1.508635 1_655
B9 O25 1.471575 1_555
B9 O19 1.490813 1_555
B9 O21 1.507748 1_555
B9 O9 1.508635 1_555
B10 O26 1.471575 1_555
B10 O16 1.490813 1_554
B10 O22 1.507748 1_455
B10 O10 1.508635 1_455
B11 O27 1.471575 1_555
B11 O17 1.490813 1_555
B11 O23 1.507748 1_555
B11 O11 1.508635 1_555
B12 O12 1.467233 1_556
B12 O16 1.480041 1_545
B12 O37 1.487519 1_555
B12 O20 1.501982 1_555
B13 O13 1.467233 1_555
B13 O17 1.480041 1_565
B13 O36 1.487519 1_555
B13 O21 1.501982 1_555
B14 O14 1.467233 1_554
B14 O18 1.480041 1_565
B14 O39 1.487519 1_555
B14 O22 1.501982 1_555
B15 O15 1.467233 1_555
B15 O19 1.480041 1_545
B15 O38 1.487519 1_555
B15 O23 1.501982 1_555
B16 O28 1.468881 1_655
B16 O24 1.475965 1_555
B16 O36 1.479391 1_555
B16 O32 1.500797 1_555
B17 O29 1.468881 1_555
B17 O25 1.475965 1_555
B17 O37 1.479391 1_555
B17 O33 1.500797 1_555
B18 O30 1.468881 1_455
B18 O26 1.475965 1_555
B18 O38 1.479391 1_555
B18 O34 1.500797 1_555
B19 O31 1.468881 1_555
B19 O27 1.475965 1_555
B19 O39 1.479391 1_555
B19 O35 1.500797 1_555
