# generated using pymatgen
data_Cs8Zr(MoO4)6
_symmetry_space_group_name_H-M   'P 1'
_cell_length_a   11.32008535
_cell_length_b   11.32008535
_cell_length_c   8.57528827
_cell_angle_alpha   80.78844210
_cell_angle_beta   80.78844210
_cell_angle_gamma   123.45751162
_symmetry_Int_Tables_number   1
_chemical_formula_structural   Cs8Zr(MoO4)6
_chemical_formula_sum   'Cs8 Zr1 Mo6 O24'
_cell_volume   862.83748738
_cell_formula_units_Z   1
loop_
 _symmetry_equiv_pos_site_id
 _symmetry_equiv_pos_as_xyz
  1  'x, y, z'
loop_
 _atom_site_type_symbol
 _atom_site_label
 _atom_site_symmetry_multiplicity
 _atom_site_fract_x
 _atom_site_fract_y
 _atom_site_fract_z
 _atom_site_occupancy
  Cs  Cs0  1  0.21352800  0.21352800  0.35794700  1
  Cs  Cs1  1  0.78647200  0.78647200  0.64205300  1
  Cs  Cs2  1  0.66543800  0.33456200  0.50000000  1
  Cs  Cs3  1  0.33456200  0.66543800  0.50000000  1
  Cs  Cs4  1  0.86734700  0.52116400  0.88992400  1
  Cs  Cs5  1  0.52116400  0.86734700  0.88992400  1
  Cs  Cs6  1  0.13265300  0.47883600  0.11007600  1
  Cs  Cs7  1  0.47883600  0.13265300  0.11007600  1
  Zr  Zr0  1  0.00000000  0.00000000  0.00000000  1
  Mo  Mo0  1  0.94933500  0.25585100  0.72099700  1
  Mo  Mo1  1  0.25585100  0.94933500  0.72099700  1
  Mo  Mo2  1  0.05066500  0.74414900  0.27900300  1
  Mo  Mo3  1  0.74414900  0.05066500  0.27900300  1
  Mo  Mo4  1  0.37668200  0.37668200  0.79774600  1
  Mo  Mo5  1  0.62331800  0.62331800  0.20225400  1
  O  O0  1  0.94283200  0.09138700  0.81766600  1
  O  O1  1  0.09138700  0.94283200  0.81766600  1
  O  O2  1  0.05716800  0.90861300  0.18233400  1
  O  O3  1  0.90861300  0.05716800  0.18233400  1
  O  O4  1  0.76826900  0.21282800  0.77648100  1
  O  O5  1  0.21282800  0.76826900  0.77648100  1
  O  O6  1  0.23173100  0.78717200  0.22351900  1
  O  O7  1  0.78717200  0.23173100  0.22351900  1
  O  O8  1  0.06252300  0.40613700  0.79495600  1
  O  O9  1  0.40613700  0.06252300  0.79495600  1
  O  O10  1  0.93747700  0.59386300  0.20504400  1
  O  O11  1  0.59386300  0.93747700  0.20504400  1
  O  O12  1  0.02499600  0.31151000  0.50178100  1
  O  O13  1  0.31151000  0.02499600  0.50178100  1
  O  O14  1  0.97500400  0.68849000  0.49821900  1
  O  O15  1  0.68849000  0.97500400  0.49821900  1
  O  O16  1  0.39799800  0.54241000  0.81369000  1
  O  O17  1  0.54241000  0.39799800  0.81369000  1
  O  O18  1  0.60200200  0.45759000  0.18631000  1
  O  O19  1  0.45759000  0.60200200  0.18631000  1
  O  O20  1  0.20770900  0.20770900  0.96218200  1
  O  O21  1  0.79229100  0.79229100  0.03781800  1
  O  O22  1  0.35236500  0.35236500  0.60378200  1
  O  O23  1  0.64763500  0.64763500  0.39621800  1
loop_
_geom_bond_atom_site_label_1
_geom_bond_atom_site_label_2
_geom_bond_distance
_geom_bond_site_symmetry_2
Cs0 O22 2.963473 1_555
Cs0 O13 3.084109 1_555
Cs0 O12 3.084109 1_555
Cs0 O20 3.415393 1_554
Cs0 O19 3.516701 1_555
Cs0 O18 3.516701 1_555
Cs0 O2 3.618811 1_545
Cs0 O3 3.618811 1_455
Cs1 O23 2.963473 1_555
Cs1 O15 3.084109 1_555
Cs1 O14 3.084109 1_555
Cs1 O21 3.415393 1_556
Cs1 O17 3.516701 1_555
Cs1 O16 3.516701 1_555
Cs1 O0 3.618811 1_565
Cs1 O1 3.618811 1_655
Cs2 O9 3.107909 1_555
Cs2 O10 3.107909 1_555
Cs2 O17 3.195781 1_555
Cs2 O18 3.195781 1_555
Cs2 O7 3.237519 1_555
Cs2 O4 3.237519 1_555
Cs2 O13 3.579761 1_555
Cs2 O14 3.579761 1_555
Cs2 O22 3.637009 1_555
Cs2 O23 3.637009 1_555
Cs3 O8 3.107909 1_555
Cs3 O11 3.107909 1_555
Cs3 O16 3.195781 1_555
Cs3 O19 3.195781 1_555
Cs3 O6 3.237519 1_555
Cs3 O5 3.237519 1_555
Cs3 O12 3.579761 1_555
Cs3 O15 3.579761 1_555
Cs3 O22 3.637009 1_555
Cs3 O23 3.637009 1_555
Cs4 O10 3.047631 1_556
Cs4 O5 3.148669 1_655
Cs4 O8 3.189957 1_655
Cs4 O14 3.234637 1_555
Cs4 O18 3.253717 1_556
Cs4 O17 3.362753 1_555
Cs4 O4 3.392196 1_555
Cs4 O7 3.554034 1_556
Cs5 O11 3.047631 1_556
Cs5 O4 3.148669 1_565
Cs5 O9 3.189957 1_565
Cs5 O15 3.234637 1_555
Cs5 O19 3.253717 1_556
Cs5 O16 3.362753 1_555
Cs5 O5 3.392196 1_555
Cs5 O6 3.554034 1_556
Cs6 O8 3.047631 1_554
Cs6 O7 3.148669 1_455
Cs6 O10 3.189957 1_455
Cs6 O12 3.234637 1_555
Cs6 O16 3.253717 1_554
Cs6 O19 3.362753 1_555
Cs6 O6 3.392196 1_555
Cs6 O5 3.554034 1_554
Cs7 O9 3.047631 1_554
Cs7 O6 3.148669 1_545
Cs7 O11 3.189957 1_545
Cs7 O13 3.234637 1_555
Cs7 O17 3.253717 1_554
Cs7 O18 3.362753 1_555
Cs7 O7 3.392196 1_555
Cs7 O4 3.554034 1_554
Mo0 O8 1.772086 1_655
Mo0 O12 1.781752 1_655
Mo0 O4 1.782597 1_555
Mo0 O0 1.869207 1_555
Mo1 O9 1.772086 1_565
Mo1 O13 1.781752 1_565
Mo1 O5 1.782597 1_555
Mo1 O1 1.869207 1_555
Mo2 O10 1.772086 1_455
Mo2 O14 1.781752 1_455
Mo2 O6 1.782597 1_555
Mo2 O2 1.869207 1_555
Mo3 O11 1.772086 1_545
Mo3 O15 1.781752 1_545
Mo3 O7 1.782597 1_555
Mo3 O3 1.869207 1_555
Mo4 O22 1.768539 1_555
Mo4 O17 1.786066 1_555
Mo4 O16 1.786066 1_555
Mo4 O20 1.882686 1_555
Mo5 O23 1.768539 1_555
Mo5 O18 1.786066 1_555
Mo5 O19 1.786066 1_555
Mo5 O21 1.882686 1_555
O0 Zr0 2.116135 1_656
O1 Zr0 2.116135 1_566
O2 Zr0 2.116135 1_565
O3 Zr0 2.116135 1_655
O20 Zr0 2.139630 1_556
O21 Zr0 2.139630 1_665
