# generated using pymatgen
data_La6Co13Sb
_symmetry_space_group_name_H-M   'P 1'
_cell_length_a   12.87391814
_cell_length_b   12.87391814
_cell_length_c   12.87391814
_cell_angle_alpha   143.51485707
_cell_angle_beta   143.51485707
_cell_angle_gamma   52.55337162
_symmetry_Int_Tables_number   1
_chemical_formula_structural   La6Co13Sb
_chemical_formula_sum   'La12 Co26 Sb2'
_cell_volume   749.93698762
_cell_formula_units_Z   2
loop_
 _symmetry_equiv_pos_site_id
 _symmetry_equiv_pos_as_xyz
  1  'x, y, z'
loop_
 _atom_site_type_symbol
 _atom_site_label
 _atom_site_symmetry_multiplicity
 _atom_site_fract_x
 _atom_site_fract_y
 _atom_site_fract_z
 _atom_site_occupancy
  La  La0  1  0.59967700  0.59967700  0.00000000  1
  La  La1  1  0.09967700  0.09967700  0.00000000  1
  La  La2  1  0.40032300  0.40032300  0.00000000  1
  La  La3  1  0.90032300  0.90032300  0.00000000  1
  La  La4  1  0.48009800  0.98009800  0.82152600  1
  La  La5  1  0.15857200  0.65857200  0.17847400  1
  La  La6  1  0.98009800  0.15857200  0.50000000  1
  La  La7  1  0.65857200  0.48009800  0.50000000  1
  La  La8  1  0.51990200  0.01990200  0.17847400  1
  La  La9  1  0.84142800  0.34142800  0.82152600  1
  La  La10  1  0.01990200  0.84142800  0.50000000  1
  La  La11  1  0.34142800  0.51990200  0.50000000  1
  Co  Co0  1  0.50000000  0.00000000  0.50000000  1
  Co  Co1  1  0.00000000  0.50000000  0.50000000  1
  Co  Co2  1  0.56556200  0.71348800  0.27905000  1
  Co  Co3  1  0.43443800  0.28651200  0.72095000  1
  Co  Co4  1  0.06556300  0.78651200  0.85207500  1
  Co  Co5  1  0.93443700  0.21348800  0.14792500  1
  Co  Co6  1  0.28651200  0.56556200  0.85207500  1
  Co  Co7  1  0.71348800  0.43443700  0.14792500  1
  Co  Co8  1  0.21348800  0.06556200  0.27905000  1
  Co  Co9  1  0.78651200  0.93443800  0.72095000  1
  Co  Co10  1  0.62095500  0.12095500  0.85374800  1
  Co  Co11  1  0.26720700  0.76720700  0.14625200  1
  Co  Co12  1  0.12095500  0.26720700  0.50000000  1
  Co  Co13  1  0.76720700  0.62095500  0.50000000  1
  Co  Co14  1  0.37904500  0.87904500  0.14625200  1
  Co  Co15  1  0.73279300  0.23279300  0.85374800  1
  Co  Co16  1  0.87904500  0.73279300  0.50000000  1
  Co  Co17  1  0.23279300  0.37904500  0.50000000  1
  Co  Co18  1  0.79758400  0.29758400  0.27181900  1
  Co  Co19  1  0.02576500  0.52576500  0.72818100  1
  Co  Co20  1  0.29758400  0.02576500  0.50000000  1
  Co  Co21  1  0.52576500  0.79758400  0.50000000  1
  Co  Co22  1  0.20241600  0.70241600  0.72818100  1
  Co  Co23  1  0.97423500  0.47423500  0.27181900  1
  Co  Co24  1  0.70241600  0.97423500  0.50000000  1
  Co  Co25  1  0.47423500  0.20241600  0.50000000  1
  Sb  Sb0  1  0.25000000  0.25000000  0.00000000  1
  Sb  Sb1  1  0.75000000  0.75000000  0.00000000  1
loop_
_geom_bond_atom_site_label_1
_geom_bond_atom_site_label_2
_geom_bond_distance
_geom_bond_site_symmetry_2
La0 Sb1 3.470541 1_555
La1 Sb0 3.470541 1_555
La2 Sb0 3.470541 1_555
La3 Sb1 3.470541 1_555
La4 Sb1 3.423123 1_556
La4 Sb0 3.423123 1_566
La5 Sb1 3.423123 1_455
La5 Sb0 3.423123 1_555
La6 Sb0 3.423123 1_656
La6 Sb1 3.423123 1_545
La7 Sb1 3.423123 1_556
La7 Sb0 3.423123 1_555
La8 Sb0 3.423123 1_555
La8 Sb1 3.423123 1_545
La9 Sb0 3.423123 1_656
La9 Sb1 3.423123 1_556
La10 Sb0 3.423123 1_566
La10 Sb1 3.423123 1_455
La11 Sb1 3.423123 1_556
La11 Sb0 3.423123 1_555
Co0 Co9 2.369010 1_545
Co0 Co3 2.369010 1_555
Co0 Co2 2.369010 1_545
Co0 Co8 2.369010 1_555
Co0 Co10 2.394063 1_555
Co0 Co14 2.394063 1_545
Co0 Co15 2.394063 1_555
Co0 Co11 2.394063 1_545
Co0 Co21 2.418587 1_545
Co0 Co24 2.418587 1_545
Co0 Co20 2.418587 1_555
Co0 Co25 2.418587 1_555
Co1 Co5 2.369012 1_455
Co1 Co4 2.369012 1_555
Co1 Co7 2.369012 1_455
Co1 Co6 2.369015 1_555
Co1 Co12 2.394063 1_555
Co1 Co17 2.394063 1_555
Co1 Co16 2.394063 1_455
Co1 Co13 2.394063 1_455
Co1 Co19 2.418587 1_555
Co1 Co18 2.418587 1_455
Co1 Co23 2.418587 1_455
Co1 Co22 2.418587 1_555
Co2 Co24 2.498533 1_555
Co2 Co21 2.498533 1_555
Co2 Co9 2.518550 1_555
Co2 Co6 2.545653 1_554
Co2 Co7 2.545666 1_555
Co2 La2 2.921645 1_555
Co2 La0 2.921645 1_555
Co3 Co8 2.518550 1_555
Co3 Co7 2.545655 1_556
Co3 Co6 2.545660 1_555
Co3 La0 2.921645 1_556
Co3 La2 2.921645 1_556
Co4 Co6 2.518544 1_555
Co4 Co8 2.545655 1_566
Co4 Co9 2.545666 1_455
Co4 La3 2.921647 1_456
Co4 La1 2.921647 1_566
Co5 Co7 2.518538 1_555
Co5 Co9 2.545655 1_544
Co5 Co8 2.545666 1_655
Co5 La3 2.921647 1_545
Co5 La1 2.921647 1_655
Co6 La2 2.921635 1_556
Co6 La0 2.921653 1_556
Co7 La0 2.921647 1_555
Co7 La2 2.921647 1_555
Co8 La3 2.921645 1_445
Co8 La1 2.921645 1_555
Co9 La3 2.921645 1_556
Co9 La1 2.921645 1_666
Co10 Co5 2.462426 1_556
Co10 Co7 2.462426 1_556
Co10 Co18 2.497442 1_556
Co10 Co9 2.503198 1_545
Co10 Co3 2.503198 1_555
Co10 Co20 2.513136 1_555
Co10 Co21 2.513136 1_545
Co10 Co15 2.582029 1_555
Co10 La4 2.885888 1_545
Co10 La2 3.136255 1_556
Co10 La3 3.136255 1_546
Co11 Co6 2.462422 1_554
Co11 Co4 2.462426 1_554
Co11 Co19 2.497442 1_554
Co11 Co8 2.503198 1_565
Co11 Co2 2.503198 1_555
Co11 Co21 2.513136 1_555
Co11 Co20 2.513136 1_565
Co11 Co14 2.582029 1_555
Co11 La5 2.885888 1_555
Co11 La2 3.136255 1_555
Co11 La3 3.136255 1_455
Co12 Co8 2.462432 1_555
Co12 Co3 2.462432 1_555
Co12 Co20 2.497442 1_555
Co12 Co6 2.503196 1_555
Co12 Co5 2.503204 1_455
Co12 Co19 2.513136 1_555
Co12 Co18 2.513136 1_455
Co12 Co17 2.582029 1_555
Co12 La6 2.885888 1_455
Co12 La3 3.136255 1_445
Co12 La2 3.136255 1_556
Co13 Co9 2.462432 1_555
Co13 Co2 2.462432 1_555
Co13 Co21 2.497442 1_555
Co13 Co7 2.503204 1_555
Co13 Co4 2.503204 1_655
Co13 Co18 2.513136 1_555
Co13 Co19 2.513136 1_655
Co13 Co16 2.582029 1_555
Co13 La7 2.885888 1_555
Co13 La2 3.136255 1_555
Co13 La3 3.136255 1_556
Co14 Co4 2.462426 1_554
Co14 Co6 2.462435 1_554
Co14 Co22 2.497442 1_554
Co14 Co2 2.503198 1_555
Co14 Co8 2.503198 1_565
Co14 Co25 2.513136 1_565
Co14 Co24 2.513136 1_555
Co14 La8 2.885888 1_565
Co14 La0 3.136255 1_555
Co14 La1 3.136255 1_565
Co15 Co7 2.462426 1_556
Co15 Co5 2.462426 1_556
Co15 Co23 2.497442 1_556
Co15 Co9 2.503198 1_545
Co15 Co3 2.503198 1_555
Co15 Co24 2.513136 1_545
Co15 Co25 2.513136 1_555
Co15 La9 2.885888 1_555
Co15 La1 3.136255 1_656
Co15 La0 3.136255 1_556
Co16 Co9 2.462432 1_555
Co16 Co2 2.462432 1_555
Co16 Co24 2.497442 1_555
Co16 Co7 2.503204 1_555
Co16 Co4 2.503204 1_655
Co16 Co23 2.513136 1_555
Co16 Co22 2.513136 1_655
Co16 La10 2.885888 1_655
Co16 La0 3.136255 1_555
Co16 La1 3.136255 1_666
Co17 Co8 2.462432 1_555
Co17 Co3 2.462432 1_555
Co17 Co25 2.497442 1_555
Co17 Co5 2.503204 1_455
Co17 Co6 2.503208 1_555
Co17 Co23 2.513136 1_455
Co17 Co22 2.513136 1_555
Co17 La11 2.885888 1_555
Co17 La1 3.136255 1_555
Co17 La0 3.136255 1_556
Co18 Co5 2.498531 1_555
Co18 Co7 2.498531 1_555
Co18 Co19 2.600974 1_655
Co18 La7 3.097441 1_555
Co18 La6 3.097441 1_555
Co18 La2 3.254133 1_555
Co18 La3 3.254133 1_545
Co18 La4 3.336341 1_544
Co19 Co6 2.498525 1_555
Co19 Co4 2.498531 1_555
Co19 La7 3.097441 1_455
Co19 La6 3.097441 1_455
Co19 La2 3.254133 1_556
Co19 La3 3.254133 1_456
Co19 La5 3.336341 1_556
Co20 Co3 2.498533 1_555
Co20 Co8 2.498533 1_555
Co20 Co21 2.600974 1_545
Co20 La5 3.097441 1_545
Co20 La4 3.097441 1_545
Co20 La3 3.254133 1_445
Co20 La2 3.254133 1_556
Co20 La6 3.336341 1_455
Co21 Co9 2.498533 1_555
Co21 La4 3.097441 1_555
Co21 La5 3.097441 1_555
Co21 La2 3.254133 1_555
Co21 La3 3.254133 1_556
Co21 La7 3.336341 1_555
Co22 Co4 2.498531 1_555
Co22 Co6 2.498544 1_555
Co22 Co23 2.600974 1_455
Co22 La10 3.097441 1_555
Co22 La11 3.097441 1_555
Co22 La1 3.254133 1_566
Co22 La0 3.254133 1_556
Co22 La8 3.336341 1_566
Co23 Co7 2.498531 1_555
Co23 Co5 2.498531 1_555
Co23 La10 3.097441 1_655
Co23 La11 3.097441 1_655
Co23 La0 3.254133 1_555
Co23 La1 3.254133 1_655
Co23 La9 3.336341 1_554
Co24 Co9 2.498533 1_555
Co24 Co25 2.600974 1_565
Co24 La9 3.097441 1_565
Co24 La8 3.097441 1_565
Co24 La0 3.254133 1_555
Co24 La1 3.254133 1_666
Co24 La10 3.336341 1_655
Co25 Co8 2.498533 1_555
Co25 Co3 2.498533 1_555
Co25 La8 3.097441 1_555
Co25 La9 3.097441 1_555
Co25 La0 3.254133 1_556
Co25 La1 3.254133 1_555
Co25 La11 3.336341 1_555
