# generated using pymatgen
data_Fe2CO5
_symmetry_space_group_name_H-M   'P 1'
_cell_length_a   8.90255600
_cell_length_b   3.01192500
_cell_length_c   12.01806910
_cell_angle_alpha   84.74716469
_cell_angle_beta   90.00000000
_cell_angle_gamma   90.00000000
_symmetry_Int_Tables_number   1
_chemical_formula_structural   Fe2CO5
_chemical_formula_sum   'Fe8 C4 O20'
_cell_volume   320.89715001
_cell_formula_units_Z   4
loop_
 _symmetry_equiv_pos_site_id
 _symmetry_equiv_pos_as_xyz
  1  'x, y, z'
loop_
 _atom_site_type_symbol
 _atom_site_label
 _atom_site_symmetry_multiplicity
 _atom_site_fract_x
 _atom_site_fract_y
 _atom_site_fract_z
 _atom_site_occupancy
  Fe  Fe0  1  0.50019900  0.98151200  0.28388600  1
  Fe  Fe1  1  0.00019900  0.01848800  0.21611400  1
  Fe  Fe2  1  0.49980100  0.01848800  0.71611400  1
  Fe  Fe3  1  0.99980100  0.98151200  0.78388600  1
  Fe  Fe4  1  0.73976000  0.54734500  0.11389900  1
  Fe  Fe5  1  0.23976000  0.45265500  0.38610100  1
  Fe  Fe6  1  0.26024000  0.45265500  0.88610100  1
  Fe  Fe7  1  0.76024000  0.54734500  0.61389900  1
  C  C0  1  0.76829400  0.51040100  0.36294800  1
  C  C1  1  0.26829400  0.48959900  0.13705200  1
  C  C2  1  0.23170600  0.48959900  0.63705200  1
  C  C3  1  0.73170600  0.51040100  0.86294800  1
  O  O0  1  0.62233300  0.45506400  0.35147200  1
  O  O1  1  0.12233300  0.54493600  0.14852800  1
  O  O2  1  0.37766700  0.54493600  0.64852800  1
  O  O3  1  0.87766700  0.45506400  0.85147200  1
  O  O4  1  0.84975500  0.50624000  0.26778900  1
  O  O5  1  0.34975500  0.49376000  0.23221100  1
  O  O6  1  0.15024500  0.49376000  0.73221100  1
  O  O7  1  0.65024500  0.50624000  0.76778900  1
  O  O8  1  0.83170400  0.58291300  0.45083600  1
  O  O9  1  0.33170400  0.41708700  0.04916400  1
  O  O10  1  0.16829600  0.41708700  0.54916400  1
  O  O11  1  0.66829600  0.58291300  0.95083600  1
  O  O12  1  0.60808800  0.02655300  0.15285600  1
  O  O13  1  0.10808800  0.97344700  0.34714400  1
  O  O14  1  0.39191200  0.97344700  0.84714400  1
  O  O15  1  0.89191200  0.02655300  0.65285600  1
  O  O16  1  0.87439100  0.06058300  0.09047900  1
  O  O17  1  0.37439100  0.93941700  0.40952100  1
  O  O18  1  0.12560900  0.93941700  0.90952100  1
  O  O19  1  0.62560900  0.06058300  0.59047900  1
loop_
_geom_bond_atom_site_label_1
_geom_bond_atom_site_label_2
_geom_bond_distance
_geom_bond_site_symmetry_2
Fe0 O12 1.838911 1_565
Fe0 O17 1.874892 1_555
Fe0 O0 2.021993 1_565
Fe0 O0 2.029868 1_555
Fe0 O5 2.093909 1_565
Fe0 O5 2.122435 1_555
Fe1 O13 1.838911 1_545
Fe1 O16 1.874892 1_455
Fe1 O1 2.021993 1_545
Fe1 O1 2.029868 1_555
Fe1 O4 2.093909 1_445
Fe1 O4 2.122435 1_455
Fe2 O14 1.838911 1_545
Fe2 O19 1.874892 1_555
Fe2 O2 2.021993 1_545
Fe2 O2 2.029868 1_555
Fe2 O7 2.093909 1_545
Fe2 O7 2.122435 1_555
Fe3 O15 1.838911 1_565
Fe3 O18 1.874892 1_655
Fe3 O3 2.021993 1_565
Fe3 O3 2.029868 1_555
Fe3 O6 2.093909 1_665
Fe3 O6 2.122435 1_655
Fe4 O16 1.934101 1_555
Fe4 O12 1.949423 1_565
Fe4 O16 1.955941 1_565
Fe4 O12 1.979719 1_555
Fe4 O11 2.053834 1_554
Fe4 O4 2.086339 1_555
Fe5 O17 1.934101 1_555
Fe5 O13 1.949423 1_545
Fe5 O17 1.955941 1_545
Fe5 O13 1.979719 1_555
Fe5 O10 2.053834 1_555
Fe5 O5 2.086339 1_555
Fe6 O18 1.934101 1_555
Fe6 O14 1.949423 1_545
Fe6 O18 1.955941 1_545
Fe6 O14 1.979719 1_555
Fe6 O9 2.053834 1_556
Fe6 O6 2.086339 1_555
Fe7 O19 1.934101 1_555
Fe7 O15 1.949423 1_565
Fe7 O19 1.955941 1_565
Fe7 O15 1.979719 1_555
Fe7 O8 2.053834 1_555
Fe7 O7 2.086339 1_555
C0 O8 1.234610 1_555
C0 O0 1.318908 1_555
C0 O4 1.355211 1_555
C1 O9 1.234610 1_555
C1 O1 1.318908 1_555
C1 O5 1.355211 1_555
C2 O10 1.234610 1_555
C2 O2 1.318908 1_555
C2 O6 1.355211 1_555
C3 O11 1.234610 1_555
C3 O3 1.318908 1_555
C3 O7 1.355211 1_555
