# generated using pymatgen
data_CoH2(CN2)2
_symmetry_space_group_name_H-M   'P 1'
_cell_length_a   6.68715100
_cell_length_b   8.64841800
_cell_length_c   3.27388700
_cell_angle_alpha   90.00000000
_cell_angle_beta   90.00000000
_cell_angle_gamma   90.00000000
_symmetry_Int_Tables_number   1
_chemical_formula_structural   CoH2(CN2)2
_chemical_formula_sum   'Co2 H4 C4 N8'
_cell_volume   189.33961399
_cell_formula_units_Z   2
loop_
 _symmetry_equiv_pos_site_id
 _symmetry_equiv_pos_as_xyz
  1  'x, y, z'
loop_
 _atom_site_type_symbol
 _atom_site_label
 _atom_site_symmetry_multiplicity
 _atom_site_fract_x
 _atom_site_fract_y
 _atom_site_fract_z
 _atom_site_occupancy
  Co  Co0  1  0.50000000  0.50000000  0.50000000  1
  Co  Co1  1  0.00000000  0.00000000  0.00000000  1
  H  H0  1  0.29750400  0.93357000  0.50000000  1
  H  H1  1  0.70249600  0.06643000  0.50000000  1
  H  H2  1  0.79750400  0.56643000  0.00000000  1
  H  H3  1  0.20249600  0.43357000  0.00000000  1
  C  C0  1  0.67338800  0.84071300  0.50000000  1
  C  C1  1  0.32661200  0.15928700  0.50000000  1
  C  C2  1  0.17338800  0.65928700  0.00000000  1
  C  C3  1  0.82661200  0.34071300  0.00000000  1
  N  N0  1  0.78248700  0.96532300  0.50000000  1
  N  N1  1  0.21751300  0.03467700  0.50000000  1
  N  N2  1  0.28248700  0.53467700  0.00000000  1
  N  N3  1  0.71751300  0.46532300  0.00000000  1
  N  N4  1  0.58553300  0.72181000  0.50000000  1
  N  N5  1  0.41446700  0.27819000  0.50000000  1
  N  N6  1  0.08553300  0.77819000  0.00000000  1
  N  N7  1  0.91446700  0.22181000  0.00000000  1
loop_
_geom_bond_atom_site_label_1
_geom_bond_atom_site_label_2
_geom_bond_distance
_geom_bond_site_symmetry_2
Co0 N5 2.001761 1_555
Co0 N4 2.001761 1_555
Co0 N3 2.210253 1_555
Co0 N3 2.210253 1_556
Co0 N2 2.210253 1_556
Co0 N2 2.210253 1_555
Co1 N6 2.001761 1_545
Co1 N7 2.001761 1_455
Co1 N1 2.210253 1_554
Co1 N1 2.210253 1_555
Co1 N0 2.210253 1_445
Co1 N0 2.210253 1_444
H0 N1 1.025053 1_565
H1 N0 1.025053 1_545
H2 N3 1.025053 1_555
H3 N2 1.025053 1_555
C0 N4 1.184316 1_555
C0 N0 1.301404 1_555
C1 N5 1.184316 1_555
C1 N1 1.301404 1_555
C2 N6 1.184316 1_555
C2 N2 1.301404 1_555
C3 N7 1.184316 1_555
C3 N3 1.301404 1_555
