# generated using pymatgen
data_SrGaF5
_symmetry_space_group_name_H-M   'P 1'
_cell_length_a   11.01636542
_cell_length_b   11.01636542
_cell_length_c   11.01636542
_cell_angle_alpha   96.57105612
_cell_angle_beta   96.57105612
_cell_angle_gamma   140.45541339
_symmetry_Int_Tables_number   1
_chemical_formula_structural   SrGaF5
_chemical_formula_sum   'Sr8 Ga8 F40'
_cell_volume   801.02362286
_cell_formula_units_Z   8
loop_
 _symmetry_equiv_pos_site_id
 _symmetry_equiv_pos_as_xyz
  1  'x, y, z'
loop_
 _atom_site_type_symbol
 _atom_site_label
 _atom_site_symmetry_multiplicity
 _atom_site_fract_x
 _atom_site_fract_y
 _atom_site_fract_z
 _atom_site_occupancy
  Sr  Sr0  1  0.93082600  0.20439200  0.17580400  1
  Sr  Sr1  1  0.02858900  0.75502200  0.82419600  1
  Sr  Sr2  1  0.20439200  0.02858900  0.27356700  1
  Sr  Sr3  1  0.75502200  0.93082600  0.72643300  1
  Sr  Sr4  1  0.72510300  0.41008100  0.18106800  1
  Sr  Sr5  1  0.22901200  0.54403500  0.81893200  1
  Sr  Sr6  1  0.41008100  0.22901200  0.68497700  1
  Sr  Sr7  1  0.54403500  0.72510300  0.31502300  1
  Ga  Ga0  1  0.71726800  0.71726800  0.00000000  1
  Ga  Ga1  1  0.64698900  0.16448100  0.85204100  1
  Ga  Ga2  1  0.31244000  0.79494800  0.14795900  1
  Ga  Ga3  1  0.16448100  0.31244000  0.51749200  1
  Ga  Ga4  1  0.79494800  0.64698900  0.48250800  1
  Ga  Ga5  1  0.21916900  0.21916900  0.00000000  1
  Ga  Ga6  1  0.97205700  0.47205700  0.50000000  1
  Ga  Ga7  1  0.47205700  0.97205700  0.50000000  1
  F  F0  1  0.51508600  0.90424500  0.81247600  1
  F  F1  1  0.09176900  0.70261000  0.18752400  1
  F  F2  1  0.90424500  0.09176900  0.38916000  1
  F  F3  1  0.70261000  0.51508600  0.61084000  1
  F  F4  1  0.72203400  0.22203400  0.50000000  1
  F  F5  1  0.22203400  0.72203400  0.50000000  1
  F  F6  1  0.46752800  0.46752800  0.00000000  1
  F  F7  1  0.41134500  0.06939200  0.86317600  1
  F  F8  1  0.20621600  0.54817000  0.13682400  1
  F  F9  1  0.06939200  0.20621600  0.65804600  1
  F  F10  1  0.54817000  0.41134500  0.34195400  1
  F  F11  1  0.75626300  0.24420400  0.03266200  1
  F  F12  1  0.21154200  0.72360100  0.96733800  1
  F  F13  1  0.24420400  0.21154200  0.48794100  1
  F  F14  1  0.72360100  0.75626300  0.51205900  1
  F  F15  1  0.55560500  0.90515900  0.14178600  1
  F  F16  1  0.76337300  0.41381900  0.85821400  1
  F  F17  1  0.90515900  0.76337300  0.34955400  1
  F  F18  1  0.41381900  0.55560500  0.65044600  1
  F  F19  1  0.96817200  0.96817200  0.00000000  1
  F  F20  1  0.90835500  0.36283000  0.32098400  1
  F  F21  1  0.04184700  0.58737100  0.67901600  1
  F  F22  1  0.36283000  0.04184700  0.45447600  1
  F  F23  1  0.58737100  0.90835500  0.54552400  1
  F  F24  1  0.32876300  0.16153900  0.07593200  1
  F  F25  1  0.08560700  0.25283200  0.92406800  1
  F  F26  1  0.16153900  0.08560700  0.83277600  1
  F  F27  1  0.25283200  0.32876300  0.16722400  1
  F  F28  1  0.51879100  0.08953300  0.66883000  1
  F  F29  1  0.42070400  0.84996100  0.33117000  1
  F  F30  1  0.08953300  0.42070400  0.57074200  1
  F  F31  1  0.84996100  0.51879100  0.42925800  1
  F  F32  1  0.60371600  0.76832600  0.91845300  1
  F  F33  1  0.84987300  0.68526300  0.08154700  1
  F  F34  1  0.76832600  0.84987300  0.16461000  1
  F  F35  1  0.68526300  0.60371600  0.83539000  1
  F  F36  1  0.44290100  0.05542000  0.19569500  1
  F  F37  1  0.85972500  0.24720700  0.80430500  1
  F  F38  1  0.05542000  0.85972500  0.61251900  1
  F  F39  1  0.24720700  0.44290100  0.38748100  1
loop_
_geom_bond_atom_site_label_1
_geom_bond_atom_site_label_2
_geom_bond_distance
_geom_bond_site_symmetry_2
F0 Ga1 1.914320 1_565
F0 Sr5 2.551936 1_555
F0 Sr3 2.722883 1_555
F1 Ga2 1.914320 1_555
F1 Sr4 2.551935 1_455
F1 Sr2 2.722889 1_565
F2 Ga3 1.914315 1_655
F2 Sr7 2.551935 1_545
F2 Sr0 2.722888 1_555
F3 Ga4 1.914310 1_555
F3 Sr6 2.551939 1_555
F3 Sr1 2.722889 1_655
F4 Ga7 1.863153 1_545
F4 Ga6 1.863495 1_555
F5 Ga6 1.863153 1_455
F5 Ga7 1.863495 1_555
F6 Ga5 1.851093 1_555
F6 Ga0 1.861386 1_555
F7 Ga1 1.938982 1_555
F7 Sr1 2.584867 1_545
F7 Sr6 2.787046 1_555
F8 Ga2 1.938971 1_555
F8 Sr0 2.584880 1_455
F8 Sr7 2.787055 1_555
F9 Ga3 1.938971 1_555
F9 Sr3 2.584874 1_445
F9 Sr5 2.787055 1_555
F10 Ga4 1.938973 1_555
F10 Sr2 2.584871 1_555
F10 Sr4 2.787045 1_555
F11 Ga1 1.897630 1_554
F11 Sr4 2.557748 1_555
F11 Sr0 2.672474 1_555
F12 Ga2 1.897630 1_556
F12 Sr5 2.557740 1_555
F12 Sr1 2.672466 1_555
F13 Ga3 1.897630 1_555
F13 Sr6 2.557746 1_555
F13 Sr2 2.672460 1_555
F14 Ga4 1.897630 1_555
F14 Sr7 2.557740 1_555
F14 Sr3 2.672466 1_555
F15 Ga2 1.923337 1_555
F15 Sr0 2.537947 1_565
F15 Sr7 2.850450 1_555
F16 Ga1 1.923337 1_555
F16 Sr1 2.537947 1_655
F16 Sr6 2.850442 1_555
F17 Ga4 1.923337 1_555
F17 Sr2 2.537942 1_665
F17 Sr4 2.850442 1_555
F18 Ga3 1.923337 1_555
F18 Sr3 2.537947 1_555
F18 Sr5 2.850450 1_555
F19 Ga0 1.870062 1_555
F19 Ga5 1.870755 1_665
F20 Ga6 1.915044 1_555
F20 Sr0 2.404946 1_555
F20 Sr4 2.795412 1_555
F21 Ga6 1.915041 1_455
F21 Sr1 2.404946 1_555
F21 Sr5 2.795394 1_555
F22 Ga7 1.915051 1_545
F22 Sr2 2.404946 1_555
F22 Sr6 2.795384 1_555
F23 Ga7 1.915041 1_555
F23 Sr3 2.404946 1_555
F23 Sr7 2.795394 1_555
F24 Ga5 1.906036 1_555
F24 Sr2 2.660888 1_555
F24 Sr4 2.753455 1_555
F25 Ga5 1.906045 1_556
F25 Sr3 2.660888 1_445
F25 Sr5 2.753449 1_555
F26 Ga5 1.906036 1_556
F26 Sr1 2.660886 1_545
F26 Sr6 2.753465 1_555
F27 Ga5 1.906031 1_555
F27 Sr0 2.660891 1_455
F27 Sr7 2.753459 1_555
F28 Ga7 1.897757 1_545
F28 Ga1 1.979321 1_555
F28 Sr6 2.578963 1_555
F29 Ga7 1.897761 1_555
F29 Ga2 1.979324 1_555
F29 Sr7 2.578963 1_555
F30 Ga6 1.897747 1_455
F30 Ga3 1.979331 1_555
F30 Sr5 2.578974 1_555
F31 Ga6 1.897757 1_555
F31 Ga4 1.979321 1_555
F31 Sr4 2.578974 1_555
F32 Ga0 1.905740 1_556
F32 Sr5 2.638293 1_555
F32 Sr3 2.743996 1_555
F33 Ga0 1.905740 1_555
F33 Sr4 2.638284 1_555
F33 Sr2 2.743993 1_665
F34 Ga0 1.905740 1_555
F34 Sr7 2.638293 1_555
F34 Sr0 2.743986 1_565
F35 Ga0 1.905740 1_556
F35 Sr6 2.638295 1_555
F35 Sr1 2.743996 1_655
F36 Ga2 1.922828 1_545
F36 Sr4 2.545944 1_555
F36 Sr2 2.665186 1_555
F37 Ga1 1.922823 1_555
F37 Sr5 2.545936 1_655
F37 Sr3 2.665186 1_545
F38 Ga4 1.922828 1_455
F38 Sr6 2.545940 1_565
F38 Sr1 2.665175 1_555
F39 Ga3 1.922828 1_555
F39 Sr7 2.545933 1_555
F39 Sr0 2.665179 1_455
