# generated using pymatgen
data_AlCu3
_symmetry_space_group_name_H-M   'P 1'
_cell_length_a   5.13791729
_cell_length_b   5.13791729
_cell_length_c   4.20614006
_cell_angle_alpha   90.00000000
_cell_angle_beta   90.00000000
_cell_angle_gamma   119.99999804
_symmetry_Int_Tables_number   1
_chemical_formula_structural   AlCu3
_chemical_formula_sum   'Al2 Cu6'
_cell_volume   96.15870093
_cell_formula_units_Z   2
loop_
 _symmetry_equiv_pos_site_id
 _symmetry_equiv_pos_as_xyz
  1  'x, y, z'
loop_
 _atom_site_type_symbol
 _atom_site_label
 _atom_site_symmetry_multiplicity
 _atom_site_fract_x
 _atom_site_fract_y
 _atom_site_fract_z
 _atom_site_occupancy
  Al  Al0  1  0.33333300  0.66666700  0.75000000  1
  Al  Al1  1  0.66666700  0.33333300  0.25000000  1
  Cu  Cu0  1  0.16553236  0.33106571  0.25000000  1
  Cu  Cu1  1  0.66893429  0.83446764  0.25000000  1
  Cu  Cu2  1  0.16553236  0.83446764  0.25000000  1
  Cu  Cu3  1  0.83446764  0.66893429  0.75000000  1
  Cu  Cu4  1  0.33106571  0.16553236  0.75000000  1
  Cu  Cu5  1  0.83446764  0.16553236  0.75000000  1
loop_
_geom_bond_atom_site_label_1
_geom_bond_atom_site_label_2
_geom_bond_distance
_geom_bond_site_symmetry_2
Al0 Cu3 2.568973 1_455
Al0 Cu4 2.568973 1_565
Al0 Cu5 2.568979 1_455
Al0 Cu5 2.568979 1_565
Al0 Cu4 2.568984 1_555
Al0 Cu3 2.568984 1_555
Al0 Cu2 2.579300 1_556
Al0 Cu2 2.579300 1_555
Al0 Cu0 2.579300 1_556
Al0 Cu1 2.579300 1_556
Al0 Cu1 2.579300 1_555
Al0 Cu0 2.579300 1_555
Al1 Cu1 2.568973 1_545
Al1 Cu0 2.568973 1_655
Al1 Cu2 2.568979 1_545
Al1 Cu2 2.568979 1_655
Al1 Cu0 2.568984 1_555
Al1 Cu1 2.568984 1_555
Al1 Cu5 2.579300 1_555
Al1 Cu5 2.579300 1_554
Al1 Cu4 2.579300 1_554
Al1 Cu3 2.579300 1_554
Al1 Cu3 2.579300 1_555
Al1 Cu4 2.579300 1_555
Cu0 Cu2 2.551480 1_545
Cu0 Cu1 2.551480 1_445
Cu0 Cu5 2.567667 1_455
Cu0 Cu5 2.567667 1_454
Cu0 Cu4 2.567672 1_555
Cu0 Cu4 2.567672 1_554
Cu0 Cu2 2.586437 1_555
Cu0 Cu1 2.586438 1_555
Cu1 Cu2 2.551480 1_655
Cu1 Cu5 2.567667 1_564
Cu1 Cu5 2.567667 1_565
Cu1 Cu3 2.567672 1_555
Cu1 Cu3 2.567672 1_554
Cu1 Cu2 2.586437 1_555
Cu2 Cu3 2.567667 1_455
Cu2 Cu4 2.567667 1_565
Cu2 Cu4 2.567667 1_564
Cu2 Cu3 2.567667 1_454
Cu3 Cu5 2.551480 1_565
Cu3 Cu4 2.551480 1_665
Cu3 Cu5 2.586437 1_555
Cu3 Cu4 2.586438 1_555
Cu4 Cu5 2.551480 1_455
Cu4 Cu5 2.586437 1_555
