# generated using pymatgen
data_Li2Mn3SnO8
_symmetry_space_group_name_H-M   'P 1'
_cell_length_a   8.37614200
_cell_length_b   8.64700200
_cell_length_c   8.78560700
_cell_angle_alpha   90.00000000
_cell_angle_beta   90.00000000
_cell_angle_gamma   90.00000000
_symmetry_Int_Tables_number   1
_chemical_formula_structural   Li2Mn3SnO8
_chemical_formula_sum   'Li8 Mn12 Sn4 O32'
_cell_volume   636.32848267
_cell_formula_units_Z   4
loop_
 _symmetry_equiv_pos_site_id
 _symmetry_equiv_pos_as_xyz
  1  'x, y, z'
loop_
 _atom_site_type_symbol
 _atom_site_label
 _atom_site_symmetry_multiplicity
 _atom_site_fract_x
 _atom_site_fract_y
 _atom_site_fract_z
 _atom_site_occupancy
  Li  Li0  1  0.00003300  0.99570000  0.99751500  1
  Li  Li1  1  0.24937400  0.75149100  0.75321400  1
  Li  Li2  1  0.75062600  0.25149100  0.74678600  1
  Li  Li3  1  0.99996700  0.49570000  0.50248500  1
  Li  Li4  1  0.49996700  0.00430000  0.49751500  1
  Li  Li5  1  0.25062600  0.24850900  0.25321400  1
  Li  Li6  1  0.74937400  0.74850900  0.24678600  1
  Li  Li7  1  0.50003300  0.50430000  0.00248500  1
  Mn  Mn0  1  0.13361100  0.37622400  0.87555500  1
  Mn  Mn1  1  0.38387400  0.12662200  0.87213500  1
  Mn  Mn2  1  0.62513300  0.87748000  0.87311900  1
  Mn  Mn3  1  0.37486700  0.37748000  0.62688100  1
  Mn  Mn4  1  0.61612600  0.62662200  0.62786500  1
  Mn  Mn5  1  0.86638900  0.87622400  0.62444500  1
  Mn  Mn6  1  0.36638900  0.62377600  0.37555500  1
  Mn  Mn7  1  0.11612600  0.87337800  0.37213500  1
  Mn  Mn8  1  0.87486700  0.12252000  0.37311900  1
  Mn  Mn9  1  0.12513300  0.62252000  0.12688100  1
  Mn  Mn10  1  0.88387400  0.37337800  0.12786500  1
  Mn  Mn11  1  0.63361100  0.12377600  0.12444500  1
  Sn  Sn0  1  0.87491600  0.62525900  0.87451400  1
  Sn  Sn1  1  0.12508400  0.12525900  0.62548600  1
  Sn  Sn2  1  0.62508400  0.37474100  0.37451400  1
  Sn  Sn3  1  0.37491600  0.87474100  0.12548600  1
  O  O0  1  0.12280700  0.62120000  0.90286000  1
  O  O1  1  0.90100000  0.38453000  0.87541300  1
  O  O2  1  0.61641500  0.10492700  0.88349900  1
  O  O3  1  0.14883300  0.12923000  0.86338900  1
  O  O4  1  0.39213300  0.89129200  0.88233700  1
  O  O5  1  0.36615600  0.36376100  0.85273600  1
  O  O6  1  0.62782600  0.65120000  0.87283400  1
  O  O7  1  0.85537400  0.86864100  0.86557200  1
  O  O8  1  0.14462600  0.36864100  0.63442800  1
  O  O9  1  0.37217400  0.15120000  0.62716600  1
  O  O10  1  0.63384400  0.86376100  0.64726400  1
  O  O11  1  0.60786700  0.39129200  0.61766300  1
  O  O12  1  0.85116700  0.62923000  0.63661100  1
  O  O13  1  0.38358500  0.60492700  0.61650100  1
  O  O14  1  0.09900000  0.88453000  0.62458700  1
  O  O15  1  0.87719300  0.12120000  0.59714000  1
  O  O16  1  0.37719300  0.37880000  0.40286000  1
  O  O17  1  0.59900000  0.61547000  0.37541300  1
  O  O18  1  0.88358500  0.89507300  0.38349900  1
  O  O19  1  0.35116700  0.87077000  0.36338900  1
  O  O20  1  0.10786700  0.10870800  0.38233700  1
  O  O21  1  0.13384400  0.63623900  0.35273600  1
  O  O22  1  0.87217400  0.34880000  0.37283400  1
  O  O23  1  0.64462600  0.13135900  0.36557200  1
  O  O24  1  0.35537400  0.63135900  0.13442800  1
  O  O25  1  0.12782600  0.84880000  0.12716600  1
  O  O26  1  0.86615600  0.13623900  0.14726400  1
  O  O27  1  0.89213300  0.60870800  0.11766300  1
  O  O28  1  0.64883300  0.37077000  0.13661100  1
  O  O29  1  0.11641500  0.39507300  0.11650100  1
  O  O30  1  0.40100000  0.11547000  0.12458700  1
  O  O31  1  0.62280700  0.87880000  0.09714000  1
loop_
_geom_bond_atom_site_label_1
_geom_bond_atom_site_label_2
_geom_bond_distance
_geom_bond_site_symmetry_2
Li0 O7 2.004749 1_455
Li0 O25 2.014142 1_556
Li0 O3 2.067654 1_565
Li0 O26 2.113099 1_466
Li1 O0 2.030199 1_555
Li1 O4 2.044046 1_555
Li1 O14 2.046196 1_555
Li1 O13 2.076672 1_555
Li2 O15 2.030199 1_555
Li2 O11 2.044046 1_555
Li2 O1 2.046196 1_555
Li2 O2 2.076672 1_555
Li3 O8 2.004749 1_655
Li3 O22 2.014142 1_555
Li3 O12 2.067654 1_555
Li3 O21 2.113099 1_655
Li4 O23 2.004749 1_555
Li4 O9 2.014142 1_555
Li4 O19 2.067654 1_545
Li4 O10 2.113099 1_545
Li5 O16 2.030199 1_555
Li5 O20 2.044046 1_555
Li5 O30 2.046196 1_555
Li5 O29 2.076672 1_555
Li6 O31 2.030199 1_555
Li6 O27 2.044046 1_555
Li6 O17 2.046196 1_555
Li6 O18 2.076672 1_555
Li7 O24 2.004749 1_555
Li7 O6 2.014142 1_554
Li7 O28 2.067654 1_555
Li7 O5 2.113099 1_554
Mn0 O1 1.949706 1_455
Mn0 O5 1.961083 1_555
Mn0 O8 2.121469 1_555
Mn0 O29 2.128002 1_556
Mn0 O0 2.133768 1_555
Mn0 O3 2.142228 1_555
Mn1 O2 1.959355 1_555
Mn1 O3 1.970365 1_555
Mn1 O4 2.038046 1_545
Mn1 O5 2.062957 1_555
Mn1 O9 2.164888 1_555
Mn1 O30 2.224669 1_556
Mn2 O7 1.931184 1_555
Mn2 O6 1.956775 1_555
Mn2 O4 1.956969 1_555
Mn2 O31 1.968290 1_556
Mn2 O2 1.970202 1_565
Mn2 O10 1.989155 1_555
Mn3 O8 1.931184 1_555
Mn3 O9 1.956775 1_555
Mn3 O11 1.956969 1_555
Mn3 O16 1.968290 1_555
Mn3 O13 1.970202 1_555
Mn3 O5 1.989155 1_555
Mn4 O13 1.959355 1_555
Mn4 O12 1.970365 1_555
Mn4 O11 2.038046 1_555
Mn4 O10 2.062957 1_555
Mn4 O6 2.164888 1_555
Mn4 O17 2.224669 1_555
Mn5 O14 1.949706 1_655
Mn5 O10 1.961083 1_555
Mn5 O7 2.121469 1_555
Mn5 O18 2.128002 1_555
Mn5 O15 2.133768 1_565
Mn5 O12 2.142228 1_555
Mn6 O17 1.949706 1_555
Mn6 O21 1.961083 1_555
Mn6 O24 2.121469 1_555
Mn6 O13 2.128002 1_555
Mn6 O16 2.133768 1_555
Mn6 O19 2.142228 1_555
Mn7 O18 1.959355 1_455
Mn7 O19 1.970365 1_555
Mn7 O20 2.038046 1_565
Mn7 O21 2.062957 1_555
Mn7 O25 2.164888 1_555
Mn7 O14 2.224669 1_555
Mn8 O23 1.931184 1_555
Mn8 O22 1.956775 1_555
Mn8 O20 1.956969 1_655
Mn8 O15 1.968290 1_555
Mn8 O18 1.970202 1_545
Mn8 O26 1.989155 1_555
Mn9 O24 1.931184 1_555
Mn9 O25 1.956775 1_555
Mn9 O27 1.956969 1_455
Mn9 O0 1.968290 1_554
Mn9 O29 1.970202 1_555
Mn9 O21 1.989155 1_555
Mn10 O29 1.959355 1_655
Mn10 O28 1.970365 1_555
Mn10 O27 2.038046 1_555
Mn10 O26 2.062957 1_555
Mn10 O22 2.164888 1_555
Mn10 O1 2.224669 1_554
Mn11 O30 1.949706 1_555
Mn11 O26 1.961083 1_555
Mn11 O23 2.121469 1_555
Mn11 O2 2.128002 1_554
Mn11 O31 2.133768 1_545
Mn11 O28 2.142228 1_555
O0 Sn0 2.091546 1_455
O1 Sn0 2.093034 1_555
O3 Sn1 2.099848 1_555
O4 Sn3 2.145852 1_556
O6 Sn0 2.081833 1_555
O7 Sn0 2.112342 1_555
O8 Sn1 2.112342 1_555
O9 Sn1 2.081833 1_555
O11 Sn2 2.145852 1_555
O12 Sn0 2.099848 1_555
O14 Sn1 2.093034 1_565
O15 Sn1 2.091546 1_655
O16 Sn2 2.091546 1_555
O17 Sn2 2.093034 1_555
O19 Sn3 2.099848 1_555
O20 Sn1 2.145852 1_555
O22 Sn2 2.081833 1_555
O23 Sn2 2.112342 1_555
O24 Sn3 2.112342 1_555
O25 Sn3 2.081833 1_555
O27 Sn0 2.145852 1_554
O28 Sn2 2.099848 1_555
O30 Sn3 2.093034 1_545
O31 Sn3 2.091546 1_555
