# generated using pymatgen
data_Na2CaZr2Si10HO26
_symmetry_space_group_name_H-M   'P 1'
_cell_length_a   9.49199971
_cell_length_b   9.49199971
_cell_length_c   18.90366091
_cell_angle_alpha   98.05393236
_cell_angle_beta   98.05393236
_cell_angle_gamma   113.37634533
_symmetry_Int_Tables_number   1
_chemical_formula_structural   Na2CaZr2Si10HO26
_chemical_formula_sum   'Na4 Ca2 Zr4 Si20 H2 O52'
_cell_volume   1511.65420269
_cell_formula_units_Z   2
loop_
 _symmetry_equiv_pos_site_id
 _symmetry_equiv_pos_as_xyz
  1  'x, y, z'
loop_
 _atom_site_type_symbol
 _atom_site_label
 _atom_site_symmetry_multiplicity
 _atom_site_fract_x
 _atom_site_fract_y
 _atom_site_fract_z
 _atom_site_occupancy
  Na  Na0  1  0.89708040  0.96303250  0.80623626  1
  Na  Na1  1  0.96303250  0.89708040  0.30623626  1
  Na  Na2  1  0.73952247  0.67851016  0.98324253  1
  Na  Na3  1  0.67851016  0.73952247  0.48324253  1
  Ca  Ca0  1  0.27444470  0.50378551  0.89584066  1
  Ca  Ca1  1  0.50378551  0.27444470  0.39584066  1
  Zr  Zr0  1  0.39530154  0.89358902  0.88610278  1
  Zr  Zr1  1  0.89358902  0.39530154  0.38610278  1
  Zr  Zr2  1  0.36645614  0.85368733  0.38578281  1
  Zr  Zr3  1  0.85368733  0.36645614  0.88578281  1
  Si  Si0  1  0.02590808  0.60539825  0.77154019  1
  Si  Si1  1  0.60539825  0.02590808  0.27154019  1
  Si  Si2  1  0.73089388  0.12570070  0.00197565  1
  Si  Si3  1  0.12570070  0.73089388  0.50197565  1
  Si  Si4  1  0.57870328  0.17767218  0.62979691  1
  Si  Si5  1  0.17767218  0.57870328  0.12979691  1
  Si  Si6  1  0.72270547  0.11707255  0.49246805  1
  Si  Si7  1  0.11707255  0.72270547  0.99246805  1
  Si  Si8  1  0.26761482  0.06962909  0.51280098  1
  Si  Si9  1  0.06962909  0.26761482  0.01280098  1
  Si  Si10  1  0.06490749  0.26172116  0.50866975  1
  Si  Si11  1  0.26172116  0.06490749  0.00866975  1
  Si  Si12  1  0.61474560  0.02468819  0.76577895  1
  Si  Si13  1  0.02468819  0.61474560  0.26577895  1
  Si  Si14  1  0.16915187  0.57455258  0.63168740  1
  Si  Si15  1  0.57455258  0.16915187  0.13168740  1
  Si  Si16  1  0.47613782  0.67839488  0.75131897  1
  Si  Si17  1  0.67839488  0.47613782  0.25131897  1
  Si  Si18  1  0.48049595  0.68085534  0.25136604  1
  Si  Si19  1  0.68085534  0.48049595  0.75136604  1
  H  H0  1  0.49904508  0.40690636  0.94873981  1
  H  H1  1  0.40690636  0.49904508  0.44873981  1
  O  O0  1  0.39567337  0.11267702  0.58867882  1
  O  O1  1  0.11267702  0.39567337  0.08867882  1
  O  O2  1  0.24891390  0.73083326  0.94294963  1
  O  O3  1  0.73083326  0.24891390  0.44294963  1
  O  O4  1  0.68679800  0.17308127  0.57111606  1
  O  O5  1  0.17308127  0.68679800  0.07111606  1
  O  O6  1  0.05630508  0.56305039  0.69006883  1
  O  O7  1  0.56305039  0.05630508  0.19006883  1
  O  O8  1  0.62930526  0.85876896  0.26070821  1
  O  O9  1  0.85876896  0.62930526  0.76070821  1
  O  O10  1  0.20405056  0.20462601  0.51557242  1
  O  O11  1  0.20462601  0.20405056  0.01557242  1
  O  O12  1  0.47404879  0.02304075  0.31838857  1
  O  O13  1  0.02304075  0.47404879  0.81838857  1
  O  O14  1  0.15882027  0.70139647  0.58460180  1
  O  O15  1  0.70139647  0.15882027  0.08460180  1
  O  O16  1  0.68398906  0.39639876  0.81949306  1
  O  O17  1  0.39639876  0.68398906  0.31949306  1
  O  O18  1  0.10721907  0.40236471  0.57914906  1
  O  O19  1  0.40236471  0.10721907  0.07914906  1
  O  O20  1  0.89794844  0.11478347  0.50980369  1
  O  O21  1  0.11478347  0.89794844  0.00980369  1
  O  O22  1  0.59000093  0.06484419  0.68526877  1
  O  O23  1  0.06484419  0.59000093  0.18526877  1
  O  O24  1  0.78765428  0.14208349  0.81593044  1
  O  O25  1  0.14208349  0.78765428  0.31593044  1
  O  O26  1  0.31673423  0.04725531  0.93139225  1
  O  O27  1  0.04725531  0.31673423  0.43139225  1
  O  O28  1  0.62371906  0.84912614  0.75383380  1
  O  O29  1  0.84912614  0.62371906  0.25383380  1
  O  O30  1  0.59783157  0.95309384  0.95553430  1
  O  O31  1  0.95309384  0.59783157  0.45553430  1
  O  O32  1  0.90241108  0.11648732  0.00958696  1
  O  O33  1  0.11648732  0.90241108  0.50958696  1
  O  O34  1  0.73405608  0.26436166  0.96021713  1
  O  O35  1  0.26436166  0.73405608  0.46021713  1
  O  O36  1  0.34954005  0.63158586  0.67471637  1
  O  O37  1  0.63158586  0.34954005  0.17471637  1
  O  O38  1  0.06091234  0.34216533  0.94040136  1
  O  O39  1  0.34216533  0.06091234  0.44040136  1
  O  O40  1  0.35986462  0.64181882  0.17335044  1
  O  O41  1  0.64181882  0.35986462  0.67335044  1
  O  O42  1  0.50665690  0.49186170  0.45075147  1
  O  O43  1  0.49186170  0.50665690  0.95075147  1
  O  O44  1  0.39456678  0.68402016  0.82184138  1
  O  O45  1  0.68402016  0.39456678  0.32184138  1
  O  O46  1  0.46571682  0.00161541  0.80369191  1
  O  O47  1  0.00161541  0.46571682  0.30369191  1
  O  O48  1  0.55161640  0.55201130  0.75002022  1
  O  O49  1  0.55201130  0.55161640  0.25002022  1
  O  O50  1  0.59692557  0.93905951  0.45258531  1
  O  O51  1  0.93905951  0.59692557  0.95258531  1
loop_
_geom_bond_atom_site_label_1
_geom_bond_atom_site_label_2
_geom_bond_distance
_geom_bond_site_symmetry_2
Na0 O24 2.316847 1_565
Na0 O28 2.374112 1_555
Na0 O9 3.023536 1_555
Na1 O25 2.316847 1_655
Na1 O29 2.374112 1_555
Na1 O8 3.023536 1_555
Na2 O43 2.199113 1_555
Na2 O51 2.422504 1_555
Na3 O42 2.199113 1_555
Na3 O50 2.422504 1_555
Ca0 O43 2.164335 1_555
Ca0 O2 2.330992 1_555
Ca0 O38 2.354623 1_555
Ca0 O44 2.398595 1_555
Ca0 O13 2.507702 1_555
Ca1 O42 2.164335 1_555
Ca1 O3 2.330992 1_555
Ca1 O39 2.354623 1_555
Ca1 O45 2.398595 1_555
Ca1 O12 2.507702 1_555
H0 O43 0.971830 1_555
H1 O42 0.971830 1_555
O0 Si4 1.624737 1_555
O0 Si8 1.629410 1_555
O1 Si5 1.624737 1_555
O1 Si9 1.629410 1_555
O2 Si7 1.649293 1_555
O2 Zr0 2.156931 1_555
O3 Si6 1.649293 1_555
O3 Zr1 2.156931 1_555
O4 Si4 1.620499 1_555
O4 Si6 1.635080 1_555
O5 Si5 1.620499 1_555
O5 Si7 1.635080 1_554
O6 Si14 1.627715 1_555
O6 Si0 1.630900 1_555
O7 Si15 1.627715 1_555
O7 Si1 1.630900 1_555
O8 Si1 1.678700 1_565
O8 Si18 1.682822 1_555
O9 Si0 1.678700 1_655
O9 Si19 1.682822 1_555
O10 Si10 1.610783 1_555
O10 Si8 1.616259 1_555
O11 Si11 1.610783 1_555
O11 Si9 1.616259 1_555
O12 Si1 1.621324 1_555
O12 Zr2 2.210389 1_545
O13 Si0 1.621324 1_555
O13 Zr3 2.210389 1_455
O14 Si14 1.618959 1_555
O14 Si3 1.634524 1_555
O15 Si15 1.618959 1_555
O15 Si2 1.634524 1_555
O16 Si19 1.610223 1_555
O16 Zr3 2.035477 1_555
O17 Si18 1.610223 1_555
O17 Zr2 2.035477 1_555
O18 Si14 1.619371 1_555
O18 Si10 1.626276 1_555
O19 Si15 1.619371 1_555
O19 Si11 1.626276 1_555
O20 Si10 1.649594 1_655
O20 Si6 1.659131 1_555
O21 Si11 1.649594 1_565
O21 Si7 1.659131 1_554
O22 Si4 1.622461 1_555
O22 Si12 1.627934 1_555
O23 Si5 1.622461 1_555
O23 Si13 1.627934 1_555
O24 Si12 1.628156 1_555
O24 Zr3 2.143146 1_555
O25 Si13 1.628156 1_555
O25 Zr2 2.143146 1_555
O26 Si11 1.627686 1_556
O26 Zr0 2.027022 1_545
O27 Si10 1.627686 1_555
O27 Zr1 2.027022 1_455
O28 Si16 1.658065 1_555
O28 Si12 1.687552 1_565
O29 Si17 1.658065 1_555
O29 Si13 1.687552 1_655
O30 Si2 1.641474 1_566
O30 Zr0 1.990224 1_555
O31 Si3 1.641474 1_655
O31 Zr1 1.990224 1_555
O32 Si9 1.650017 1_655
O32 Si2 1.652192 1_555
O33 Si8 1.650017 1_565
O33 Si3 1.652192 1_555
O34 Si2 1.619493 1_556
O34 Zr3 2.040838 1_555
O35 Si3 1.619493 1_555
O35 Zr2 2.040838 1_555
O36 Si14 1.623966 1_555
O36 Si16 1.626887 1_555
O37 Si15 1.623966 1_555
O37 Si17 1.626887 1_555
O38 Si9 1.633038 1_556
O38 Zr3 2.201301 1_455
O39 Si8 1.633038 1_555
O39 Zr2 2.201301 1_545
O40 Si18 1.631070 1_555
O40 Si5 1.633451 1_555
O41 Si19 1.631070 1_555
O41 Si4 1.633451 1_555
O44 Si16 1.637585 1_555
O44 Zr0 2.177671 1_555
O45 Si17 1.637585 1_555
O45 Zr1 2.177671 1_555
O46 Si12 1.626308 1_555
O46 Zr0 2.029934 1_545
O47 Si13 1.626308 1_555
O47 Zr1 2.029934 1_455
O48 Si19 1.619640 1_555
O48 Si16 1.622254 1_555
O49 Si18 1.619640 1_555
O49 Si17 1.622254 1_555
O50 Si6 1.624463 1_565
O50 Zr2 2.137627 1_555
O51 Si7 1.624463 1_655
O51 Zr3 2.137627 1_555
