# generated using pymatgen
data_FeCo16NiS16
_symmetry_space_group_name_H-M   'P 1'
_cell_length_a   6.96361300
_cell_length_b   6.96361300
_cell_length_c   9.84424400
_cell_angle_alpha   90.00000000
_cell_angle_beta   90.00000000
_cell_angle_gamma   90.00000000
_symmetry_Int_Tables_number   1
_chemical_formula_structural   FeCo16NiS16
_chemical_formula_sum   'Fe1 Co16 Ni1 S16'
_cell_volume   477.36615482
_cell_formula_units_Z   1
loop_
 _symmetry_equiv_pos_site_id
 _symmetry_equiv_pos_as_xyz
  1  'x, y, z'
loop_
 _atom_site_type_symbol
 _atom_site_label
 _atom_site_symmetry_multiplicity
 _atom_site_fract_x
 _atom_site_fract_y
 _atom_site_fract_z
 _atom_site_occupancy
  Fe  Fe0  1  0.00000000  0.00000000  0.50000000  1
  Co  Co0  1  0.25307700  0.00000000  0.87260100  1
  Co  Co1  1  0.75168100  0.50000000  0.37475900  1
  Co  Co2  1  0.50000000  0.24831900  0.62524100  1
  Co  Co3  1  0.00000000  0.74692300  0.12739900  1
  Co  Co4  1  0.50000000  0.75168100  0.62524100  1
  Co  Co5  1  0.00000000  0.25307700  0.12739900  1
  Co  Co6  1  0.74692300  0.00000000  0.87260100  1
  Co  Co7  1  0.24831900  0.50000000  0.37475900  1
  Co  Co8  1  0.74692300  0.00000000  0.12739900  1
  Co  Co9  1  0.24831900  0.50000000  0.62524100  1
  Co  Co10  1  0.50000000  0.75168100  0.37475900  1
  Co  Co11  1  0.00000000  0.25307700  0.87260100  1
  Co  Co12  1  0.50000000  0.24831900  0.37475900  1
  Co  Co13  1  0.00000000  0.74692300  0.87260100  1
  Co  Co14  1  0.25307700  0.00000000  0.12739900  1
  Co  Co15  1  0.75168100  0.50000000  0.62524100  1
  Ni  Ni0  1  0.50000000  0.50000000  0.00000000  1
  S  S0  1  0.00000000  0.00000000  0.73614500  1
  S  S1  1  0.50000000  0.50000000  0.24262700  1
  S  S2  1  0.76311000  0.76311000  0.50000000  1
  S  S3  1  0.25733900  0.25733900  0.00000000  1
  S  S4  1  0.76311000  0.23689000  0.50000000  1
  S  S5  1  0.25733900  0.74266100  0.00000000  1
  S  S6  1  0.00000000  0.00000000  0.26385500  1
  S  S7  1  0.50000000  0.50000000  0.75737300  1
  S  S8  1  0.23689000  0.23689000  0.50000000  1
  S  S9  1  0.74266100  0.74266100  0.00000000  1
  S  S10  1  0.23689000  0.76311000  0.50000000  1
  S  S11  1  0.74266100  0.25733900  0.00000000  1
  S  S12  1  0.50000000  0.00000000  0.74768700  1
  S  S13  1  0.00000000  0.50000000  0.25231300  1
  S  S14  1  0.50000000  0.00000000  0.25231300  1
  S  S15  1  0.00000000  0.50000000  0.74768700  1
loop_
_geom_bond_atom_site_label_1
_geom_bond_atom_site_label_2
_geom_bond_distance
_geom_bond_site_symmetry_2
Fe0 S6 2.324669 1_555
Fe0 S0 2.324669 1_555
Fe0 S8 2.332901 1_555
Fe0 S10 2.332901 1_545
Fe0 S4 2.332901 1_455
Fe0 S2 2.332901 1_445
Co0 S12 2.113935 1_555
Co0 S3 2.187478 1_556
Co0 S5 2.187478 1_546
Co0 S0 2.215915 1_555
Co1 S13 2.107863 1_655
Co1 S1 2.182559 1_555
Co1 S2 2.209825 1_555
Co1 S4 2.209825 1_555
Co2 S12 2.107863 1_555
Co2 S7 2.182559 1_555
Co2 S4 2.209825 1_555
Co2 S8 2.209825 1_555
Co3 S13 2.113935 1_555
Co3 S5 2.187478 1_555
Co3 S9 2.187478 1_455
Co3 S6 2.215915 1_565
Co4 S12 2.107863 1_565
Co4 S7 2.182559 1_555
Co4 S2 2.209825 1_555
Co4 S10 2.209825 1_555
Co5 S13 2.113935 1_555
Co5 S3 2.187478 1_555
Co5 S11 2.187478 1_455
Co5 S6 2.215915 1_555
Co6 S12 2.113935 1_555
Co6 S11 2.187478 1_556
Co6 S9 2.187478 1_546
Co6 S0 2.215915 1_655
Co7 S13 2.107863 1_555
Co7 S1 2.182559 1_555
Co7 S10 2.209825 1_555
Co7 S8 2.209825 1_555
Co8 S14 2.113935 1_555
Co8 S11 2.187478 1_555
Co8 S9 2.187478 1_545
Co8 S6 2.215915 1_655
Co9 S15 2.107863 1_555
Co9 S7 2.182559 1_555
Co9 S10 2.209825 1_555
Co9 S8 2.209825 1_555
Co10 S14 2.107863 1_565
Co10 S1 2.182559 1_555
Co10 S2 2.209825 1_555
Co10 S10 2.209825 1_555
Co11 S15 2.113935 1_555
Co11 S3 2.187478 1_556
Co11 S11 2.187478 1_456
Co11 S0 2.215915 1_555
Co12 S14 2.107863 1_555
Co12 S1 2.182559 1_555
Co12 S4 2.209825 1_555
Co12 S8 2.209825 1_555
Co13 S15 2.113935 1_555
Co13 S5 2.187478 1_556
Co13 S9 2.187478 1_456
Co13 S0 2.215915 1_565
Co14 S14 2.113935 1_555
Co14 S5 2.187478 1_545
Co14 S3 2.187478 1_555
Co14 S6 2.215915 1_555
Co15 S15 2.107863 1_655
Co15 S7 2.182559 1_555
Co15 S2 2.209825 1_555
Co15 S4 2.209825 1_555
Ni0 S1 2.388479 1_555
Ni0 S7 2.388479 1_554
Ni0 S11 2.389734 1_555
Ni0 S5 2.389734 1_555
Ni0 S9 2.389734 1_555
Ni0 S3 2.389734 1_555
