# generated using pymatgen
data_YCu3(BiO3)4
_symmetry_space_group_name_H-M   'P 1'
_cell_length_a   7.09919648
_cell_length_b   7.09919648
_cell_length_c   7.09919648
_cell_angle_alpha   109.47122063
_cell_angle_beta   109.47122063
_cell_angle_gamma   109.47122063
_symmetry_Int_Tables_number   1
_chemical_formula_structural   YCu3(BiO3)4
_chemical_formula_sum   'Y1 Cu3 Bi4 O12'
_cell_volume   275.42648378
_cell_formula_units_Z   1
loop_
 _symmetry_equiv_pos_site_id
 _symmetry_equiv_pos_as_xyz
  1  'x, y, z'
loop_
 _atom_site_type_symbol
 _atom_site_label
 _atom_site_symmetry_multiplicity
 _atom_site_fract_x
 _atom_site_fract_y
 _atom_site_fract_z
 _atom_site_occupancy
  Y  Y0  1  0.00000000  0.00000000  0.00000000  1
  Cu  Cu0  1  0.00000000  0.50000000  0.50000000  1
  Cu  Cu1  1  0.50000000  0.00000000  0.50000000  1
  Cu  Cu2  1  0.50000000  0.50000000  0.00000000  1
  Bi  Bi0  1  0.00000000  0.00000000  0.50000000  1
  Bi  Bi1  1  0.00000000  0.50000000  0.00000000  1
  Bi  Bi2  1  0.50000000  0.00000000  0.00000000  1
  Bi  Bi3  1  0.50000000  0.50000000  0.50000000  1
  O  O0  1  0.31069500  0.15963300  0.84893800  1
  O  O1  1  0.68930500  0.84036700  0.15106200  1
  O  O2  1  0.68930500  0.53824300  0.84893800  1
  O  O3  1  0.46175700  0.15106200  0.31069500  1
  O  O4  1  0.15106200  0.31069500  0.46175700  1
  O  O5  1  0.84893800  0.31069500  0.15963300  1
  O  O6  1  0.84036700  0.15106200  0.68930500  1
  O  O7  1  0.84893800  0.68930500  0.53824300  1
  O  O8  1  0.31069500  0.46175700  0.15106200  1
  O  O9  1  0.53824300  0.84893800  0.68930500  1
  O  O10  1  0.15106200  0.68930500  0.84036700  1
  O  O11  1  0.15963300  0.84893800  0.31069500  1
loop_
_geom_bond_atom_site_label_1
_geom_bond_atom_site_label_2
_geom_bond_distance
_geom_bond_site_symmetry_2
Cu0 O7 1.985341 1_455
Cu0 O10 1.985341 1_555
Cu0 O5 1.985341 1_455
Cu0 O4 1.985341 1_555
Cu1 O11 1.985341 1_545
Cu1 O6 1.985341 1_555
Cu1 O9 1.985341 1_545
Cu1 O3 1.985341 1_555
Cu2 O1 1.985341 1_555
Cu2 O0 1.985341 1_554
Cu2 O8 1.985341 1_555
Cu2 O2 1.985341 1_554
Bi0 O1 2.259473 1_445
Bi0 O6 2.259473 1_455
Bi0 O11 2.259473 1_545
Bi0 O0 2.259473 1_555
Bi0 O4 2.259473 1_555
Bi0 O7 2.259473 1_445
Bi1 O8 2.259473 1_555
Bi1 O11 2.259473 1_555
Bi1 O5 2.259473 1_455
Bi1 O10 2.259473 1_554
Bi1 O6 2.259473 1_454
Bi1 O2 2.259473 1_454
Bi2 O10 2.259473 1_544
Bi2 O5 2.259473 1_555
Bi2 O1 2.259473 1_545
Bi2 O3 2.259473 1_555
Bi2 O0 2.259473 1_554
Bi2 O9 2.259473 1_544
Bi3 O9 2.259473 1_555
Bi3 O7 2.259473 1_555
Bi3 O4 2.259473 1_555
Bi3 O2 2.259473 1_555
Bi3 O8 2.259473 1_555
Bi3 O3 2.259473 1_555
O0 Y0 2.831991 1_556
O1 Y0 2.831991 1_665
O2 Y0 2.831991 1_666
O3 Y0 2.831991 1_555
O4 Y0 2.831991 1_555
O5 Y0 2.831991 1_655
O6 Y0 2.831991 1_656
O7 Y0 2.831991 1_666
O8 Y0 2.831991 1_555
O9 Y0 2.831991 1_666
O10 Y0 2.831991 1_566
O11 Y0 2.831991 1_565
