# generated using pymatgen
data_SrPrMgRuO6
_symmetry_space_group_name_H-M   'P 1'
_cell_length_a   5.67837437
_cell_length_b   5.60188344
_cell_length_c   7.92493453
_cell_angle_alpha   90.16872196
_cell_angle_beta   90.00000000
_cell_angle_gamma   90.00000000
_symmetry_Int_Tables_number   1
_chemical_formula_structural   SrPrMgRuO6
_chemical_formula_sum   'Sr2 Pr2 Mg2 Ru2 O12'
_cell_volume   252.08783551
_cell_formula_units_Z   2
loop_
 _symmetry_equiv_pos_site_id
 _symmetry_equiv_pos_as_xyz
  1  'x, y, z'
loop_
 _atom_site_type_symbol
 _atom_site_label
 _atom_site_symmetry_multiplicity
 _atom_site_fract_x
 _atom_site_fract_y
 _atom_site_fract_z
 _atom_site_occupancy
  Sr  Sr0  1  0.02978538  0.49554779  0.25075035  1
  Sr  Sr1  1  0.47021462  0.99554779  0.75075035  1
  Pr  Pr0  1  0.95093440  0.51253335  0.75107074  1
  Pr  Pr1  1  0.54906560  0.01253335  0.25107074  1
  Mg  Mg0  1  0.49360864  0.50075729  0.00104274  1
  Mg  Mg1  1  0.00639136  0.00075729  0.50104274  1
  Ru  Ru0  1  0.49760151  0.49980097  0.49974298  1
  Ru  Ru1  1  0.00239849  0.99980097  0.99974298  1
  O  O0  1  0.48675133  0.58747827  0.25631242  1
  O  O1  1  0.01324867  0.08747827  0.75631242  1
  O  O2  1  0.52267818  0.43700774  0.74373817  1
  O  O3  1  0.97732182  0.93700774  0.24373817  1
  O  O4  1  0.29892705  0.21459093  0.45644160  1
  O  O5  1  0.20107295  0.71459093  0.95644160  1
  O  O6  1  0.71703162  0.77106336  0.53637537  1
  O  O7  1  0.78296838  0.27106336  0.03637537  1
  O  O8  1  0.21347623  0.69716819  0.54347630  1
  O  O9  1  0.28652377  0.19716819  0.04347630  1
  O  O10  1  0.77172360  0.28405211  0.46104933  1
  O  O11  1  0.72827640  0.78405211  0.96104933  1
loop_
_geom_bond_atom_site_label_1
_geom_bond_atom_site_label_2
_geom_bond_distance
_geom_bond_site_symmetry_2
Mg0 O2 2.075695 1_554
Mg0 O5 2.078862 1_554
Mg0 O0 2.079481 1_555
Mg0 O9 2.095588 1_555
Mg0 O11 2.097040 1_554
Mg0 O7 2.106164 1_555
Mg1 O3 2.075695 1_445
Mg1 O4 2.078862 1_555
Mg1 O1 2.079481 1_555
Mg1 O8 2.095588 1_545
Mg1 O10 2.097040 1_455
Mg1 O6 2.106164 1_445
O0 Ru0 1.993067 1_555
O0 Pr1 2.407736 1_565
O0 Sr0 2.645775 1_555
O1 Ru1 1.993067 1_545
O1 Pr0 2.407736 1_455
O1 Sr1 2.645775 1_545
O2 Ru0 1.971549 1_555
O2 Pr0 2.468984 1_555
O2 Sr1 2.491668 1_545
O3 Ru1 1.971549 1_654
O3 Pr1 2.468984 1_565
O3 Sr0 2.491668 1_655
O4 Ru0 1.984927 1_555
O4 Pr1 2.436546 1_555
O4 Sr0 2.735889 1_555
O4 Sr1 2.812209 1_545
O5 Ru1 1.984927 1_555
O5 Pr0 2.436546 1_455
O5 Sr1 2.735889 1_555
O5 Sr0 2.812209 1_556
O6 Ru0 1.985784 1_555
O6 Sr1 2.533645 1_555
O6 Pr0 2.602106 1_555
O6 Pr1 2.805294 1_565
O7 Ru1 1.985784 1_644
O7 Sr0 2.533645 1_655
O7 Pr1 2.602106 1_555
O7 Pr0 2.805294 1_554
O8 Ru0 1.985759 1_555
O8 Pr0 2.451308 1_455
O8 Sr1 2.757044 1_555
O8 Sr0 2.780261 1_555
O9 Ru1 1.985759 1_544
O9 Pr1 2.451308 1_555
O9 Sr0 2.757044 1_555
O9 Sr1 2.780261 1_544
O10 Ru0 1.993857 1_555
O10 Sr0 2.517977 1_655
O10 Pr1 2.581907 1_555
O10 Pr0 2.817639 1_555
O11 Ru1 1.993857 1_655
O11 Sr1 2.517977 1_555
O11 Pr0 2.581907 1_555
O11 Pr1 2.817639 1_566
