# generated using pymatgen
data_Nd2InAu2
_symmetry_space_group_name_H-M   'P 1'
_cell_length_a   8.04285031
_cell_length_b   8.04285031
_cell_length_c   3.92047908
_cell_angle_alpha   90.00000000
_cell_angle_beta   90.00000000
_cell_angle_gamma   90.00000000
_symmetry_Int_Tables_number   1
_chemical_formula_structural   Nd2InAu2
_chemical_formula_sum   'Nd4 In2 Au4'
_cell_volume   253.60575961
_cell_formula_units_Z   2
loop_
 _symmetry_equiv_pos_site_id
 _symmetry_equiv_pos_as_xyz
  1  'x, y, z'
loop_
 _atom_site_type_symbol
 _atom_site_label
 _atom_site_symmetry_multiplicity
 _atom_site_fract_x
 _atom_site_fract_y
 _atom_site_fract_z
 _atom_site_occupancy
  Nd  Nd0  1  0.67350182  0.17350182  0.50000000  1
  Nd  Nd1  1  0.32649818  0.82649818  0.50000000  1
  Nd  Nd2  1  0.17350182  0.32649818  0.50000000  1
  Nd  Nd3  1  0.82649818  0.67350182  0.50000000  1
  In  In0  1  0.00000000  -0.00000000  0.00000000  1
  In  In1  1  0.50000000  0.50000000  0.00000000  1
  Au  Au0  1  0.12664536  0.62664536  0.00000000  1
  Au  Au1  1  0.87335464  0.37335464  -0.00000000  1
  Au  Au2  1  0.62664536  0.87335464  -0.00000000  1
  Au  Au3  1  0.37335464  0.12664536  0.00000000  1
loop_
_geom_bond_atom_site_label_1
_geom_bond_atom_site_label_2
_geom_bond_distance
_geom_bond_site_symmetry_2
In0 Nd0 3.561680 1_455
In0 Nd0 3.561680 1_454
In0 Nd3 3.561680 1_444
In0 Nd3 3.561680 1_445
In0 Nd1 3.561680 1_544
In0 Nd1 3.561680 1_545
In0 Nd2 3.561680 1_555
In0 Nd2 3.561680 1_554
In1 Nd2 3.561680 1_555
In1 Nd1 3.561680 1_554
In1 Nd0 3.561680 1_555
In1 Nd3 3.561680 1_555
In1 Nd2 3.561680 1_554
In1 Nd1 3.561680 1_555
In1 Nd0 3.561680 1_554
In1 Nd3 3.561680 1_554
Au0 Au1 2.881007 1_455
Au0 Nd1 3.001653 1_555
Au0 Nd1 3.001653 1_554
Au0 Nd2 3.132434 1_554
Au0 Nd2 3.132434 1_555
Au0 Nd3 3.132434 1_455
Au0 Nd3 3.132434 1_454
Au0 In0 3.170890 1_565
Au0 In1 3.170890 1_555
Au1 Nd0 3.001653 1_554
Au1 Nd0 3.001653 1_555
Au1 Nd3 3.132434 1_555
Au1 Nd3 3.132434 1_554
Au1 Nd2 3.132434 1_655
Au1 Nd2 3.132434 1_654
Au1 In0 3.170890 1_655
Au1 In1 3.170890 1_555
Au2 Au3 2.881007 1_565
Au2 Nd3 3.001653 1_555
Au2 Nd3 3.001653 1_554
Au2 Nd1 3.132434 1_555
Au2 Nd1 3.132434 1_554
Au2 Nd0 3.132434 1_565
Au2 Nd0 3.132434 1_564
Au2 In0 3.170890 1_665
Au2 In1 3.170890 1_555
Au3 Nd2 3.001653 1_555
Au3 Nd2 3.001653 1_554
Au3 Nd0 3.132434 1_554
Au3 Nd0 3.132434 1_555
Au3 Nd1 3.132434 1_544
Au3 Nd1 3.132434 1_545
Au3 In1 3.170890 1_555
Au3 In0 3.170890 1_555
