# generated using pymatgen
data_Ho2Co2I
_symmetry_space_group_name_H-M   'P 1'
_cell_length_a   3.96884537
_cell_length_b   3.96884537
_cell_length_c   16.82778491
_cell_angle_alpha   90.00000000
_cell_angle_beta   90.00000000
_cell_angle_gamma   119.99999645
_symmetry_Int_Tables_number   1
_chemical_formula_structural   Ho2Co2I
_chemical_formula_sum   'Ho4 Co4 I2'
_cell_volume   229.55457693
_cell_formula_units_Z   2
loop_
 _symmetry_equiv_pos_site_id
 _symmetry_equiv_pos_as_xyz
  1  'x, y, z'
loop_
 _atom_site_type_symbol
 _atom_site_label
 _atom_site_symmetry_multiplicity
 _atom_site_fract_x
 _atom_site_fract_y
 _atom_site_fract_z
 _atom_site_occupancy
  Ho  Ho0  1  -0.00000000  0.00000000  0.10400248  1
  Ho  Ho1  1  -0.00000000  0.00000000  0.89599752  1
  Ho  Ho2  1  -0.00000000  0.00000000  0.60400248  1
  Ho  Ho3  1  -0.00000000  0.00000000  0.39599752  1
  Co  Co0  1  0.33333300  0.66666700  0.50428603  1
  Co  Co1  1  0.66666700  0.33333300  0.49571397  1
  Co  Co2  1  0.66666700  0.33333300  0.00428603  1
  Co  Co3  1  0.33333300  0.66666700  0.99571397  1
  I  I0  1  0.33333300  0.66666700  0.25000000  1
  I  I1  1  0.66666700  0.33333300  0.75000000  1
loop_
_geom_bond_atom_site_label_1
_geom_bond_atom_site_label_2
_geom_bond_distance
_geom_bond_site_symmetry_2
Ho0 I0 3.359540 1_545
Ho0 I0 3.359542 1_445
Ho0 I0 3.359542 1_555
Ho1 I1 3.359540 1_455
Ho1 I1 3.359542 1_555
Ho1 I1 3.359542 1_445
Ho2 I1 3.359540 1_455
Ho2 I1 3.359542 1_555
Ho2 I1 3.359542 1_445
Ho3 I0 3.359540 1_545
Ho3 I0 3.359542 1_445
Ho3 I0 3.359542 1_555
Co0 Co1 2.295948 1_455
Co0 Co1 2.295948 1_565
Co0 Co1 2.295954 1_555
Co0 Ho2 2.840119 1_565
Co0 Ho2 2.840122 1_665
Co0 Ho2 2.840122 1_555
Co0 Ho3 2.927658 1_565
Co0 Ho3 2.927661 1_555
Co0 Ho3 2.927661 1_665
Co1 Ho3 2.840119 1_655
Co1 Ho3 2.840122 1_555
Co1 Ho3 2.840122 1_665
Co1 Ho2 2.927658 1_655
Co1 Ho2 2.927661 1_665
Co1 Ho2 2.927661 1_555
Co2 Co3 2.295948 1_544
Co2 Co3 2.295948 1_654
Co2 Co3 2.295954 1_554
Co2 Ho0 2.840119 1_655
Co2 Ho0 2.840122 1_665
Co2 Ho0 2.840122 1_555
Co2 Ho1 2.927658 1_654
Co2 Ho1 2.927661 1_554
Co2 Ho1 2.927661 1_664
Co3 Ho1 2.840119 1_565
Co3 Ho1 2.840122 1_665
Co3 Ho1 2.840122 1_555
Co3 Ho0 2.927658 1_566
Co3 Ho0 2.927661 1_666
Co3 Ho0 2.927661 1_556
