# generated using pymatgen
data_LuScHg2
_symmetry_space_group_name_H-M   'P 1'
_cell_length_a   5.03699769
_cell_length_b   5.03699769
_cell_length_c   5.03699769
_cell_angle_alpha   60.00000000
_cell_angle_beta   60.00000000
_cell_angle_gamma   60.00000000
_symmetry_Int_Tables_number   1
_chemical_formula_structural   LuScHg2
_chemical_formula_sum   'Lu1 Sc1 Hg2'
_cell_volume   90.36500063
_cell_formula_units_Z   1
loop_
 _symmetry_equiv_pos_site_id
 _symmetry_equiv_pos_as_xyz
  1  'x, y, z'
loop_
 _atom_site_type_symbol
 _atom_site_label
 _atom_site_symmetry_multiplicity
 _atom_site_fract_x
 _atom_site_fract_y
 _atom_site_fract_z
 _atom_site_occupancy
  Lu  Lu0  1  0.50000000  0.50000000  0.50000000  1
  Sc  Sc0  1  0.00000000  0.00000000  -0.00000000  1
  Hg  Hg0  1  0.25000000  0.25000000  0.25000000  1
  Hg  Hg1  1  0.75000000  0.75000000  0.75000000  1
loop_
_geom_bond_atom_site_label_1
_geom_bond_atom_site_label_2
_geom_bond_distance
_geom_bond_site_symmetry_2
Hg0 Sc0 3.084519 1_655
Hg0 Lu0 3.084519 1_455
Hg0 Lu0 3.084519 1_545
Hg0 Sc0 3.084519 1_565
Hg0 Lu0 3.084519 1_554
Hg0 Sc0 3.084519 1_555
Hg0 Sc0 3.084519 1_556
Hg0 Lu0 3.084519 1_555
Hg1 Sc0 3.084519 1_566
Hg1 Lu0 3.084519 1_655
Hg1 Sc0 3.084519 1_656
Hg1 Lu0 3.084519 1_565
Hg1 Sc0 3.084519 1_665
Hg1 Sc0 3.084519 1_666
Hg1 Lu0 3.084519 1_556
Hg1 Lu0 3.084519 1_555
