# generated using pymatgen
data_Li7Mn5O12
_symmetry_space_group_name_H-M   'P 1'
_cell_length_a   2.87168600
_cell_length_b   11.32001557
_cell_length_c   14.72966889
_cell_angle_alpha   71.61750510
_cell_angle_beta   84.40886613
_cell_angle_gamma   97.28651635
_symmetry_Int_Tables_number   1
_chemical_formula_structural   Li7Mn5O12
_chemical_formula_sum   'Li14 Mn10 O24'
_cell_volume   445.89300251
_cell_formula_units_Z   2
loop_
 _symmetry_equiv_pos_site_id
 _symmetry_equiv_pos_as_xyz
  1  'x, y, z'
loop_
 _atom_site_type_symbol
 _atom_site_label
 _atom_site_symmetry_multiplicity
 _atom_site_fract_x
 _atom_site_fract_y
 _atom_site_fract_z
 _atom_site_occupancy
  Li  Li0  1  0.66683400  0.25026200  0.91675500  1
  Li  Li1  1  0.66648600  0.74973900  0.41663500  1
  Li  Li2  1  0.50075500  0.12101600  0.11970700  1
  Li  Li3  1  0.50071300  0.62093100  0.61965700  1
  Li  Li4  1  0.83271400  0.37908800  0.71369100  1
  Li  Li5  1  0.83246600  0.87895400  0.21359900  1
  Li  Li6  1  0.51338300  0.40003000  0.37326800  1
  Li  Li7  1  0.51392500  0.90066400  0.87305000  1
  Li  Li8  1  0.82006800  0.59994100  0.96010000  1
  Li  Li9  1  0.81954500  0.09931500  0.46030700  1
  Li  Li10  1  0.15213500  0.34378300  0.03996000  1
  Li  Li11  1  0.15186600  0.84329100  0.53981600  1
  Li  Li12  1  0.18127700  0.65623500  0.29337400  1
  Li  Li13  1  0.18152000  0.15669400  0.79353300  1
  Mn  Mn0  1  0.01095900  0.01997500  0.99822600  1
  Mn  Mn1  1  0.01055600  0.51948000  0.49837000  1
  Mn  Mn2  1  0.32286700  0.48051600  0.83496700  1
  Mn  Mn3  1  0.32240200  0.98019600  0.33496500  1
  Mn  Mn4  1  0.99368700  0.73897600  0.75117800  1
  Mn  Mn5  1  0.99268400  0.23814700  0.25179100  1
  Mn  Mn6  1  0.33993300  0.76172700  0.08153000  1
  Mn  Mn7  1  0.33942200  0.26098900  0.58222000  1
  Mn  Mn8  1  0.66708100  0.00002600  0.66664600  1
  Mn  Mn9  1  0.66653600  0.50000000  0.16663400  1
  O  O0  1  0.43170100  0.45441500  0.59107700  1
  O  O1  1  0.43181500  0.95439900  0.09102500  1
  O  O2  1  0.90167300  0.54558600  0.74229500  1
  O  O3  1  0.90139000  0.04560700  0.24224500  1
  O  O4  1  0.41028200  0.66673100  0.84631300  1
  O  O5  1  0.40921700  0.16594100  0.34683700  1
  O  O6  1  0.92395500  0.83406100  0.98646700  1
  O  O7  1  0.92318100  0.33325300  0.48708400  1
  O  O8  1  0.07558300  0.17106200  0.02004600  1
  O  O9  1  0.07550300  0.67082000  0.51979500  1
  O  O10  1  0.25787400  0.32919100  0.81355800  1
  O  O11  1  0.25765700  0.82897100  0.31327300  1
  O  O12  1  0.08751300  0.43778200  0.26245000  1
  O  O13  1  0.08835400  0.93835500  0.76238800  1
  O  O14  1  0.24551900  0.56218300  0.07086800  1
  O  O15  1  0.24565900  0.06163400  0.57097400  1
  O  O16  1  0.76276300  0.70260900  0.17745800  1
  O  O17  1  0.76260300  0.20284300  0.67808700  1
  O  O18  1  0.57038600  0.29738100  0.15584200  1
  O  O19  1  0.57095500  0.79717100  0.65529500  1
  O  O20  1  0.75253200  0.43484400  0.92996400  1
  O  O21  1  0.75198900  0.93426600  0.42990000  1
  O  O22  1  0.58081500  0.56513800  0.40339000  1
  O  O23  1  0.58126900  0.06578200  0.90338800  1
loop_
_geom_bond_atom_site_label_1
_geom_bond_atom_site_label_2
_geom_bond_distance
_geom_bond_site_symmetry_2
Li0 O10 2.060467 1_555
Li0 O10 2.060495 1_655
Li0 O8 2.061794 1_656
Li0 O8 2.061935 1_556
Li0 O23 2.144483 1_555
Li0 O20 2.144671 1_555
Li1 O9 2.060086 1_555
Li1 O9 2.060192 1_655
Li1 O11 2.062355 1_655
Li1 O11 2.062739 1_555
Li1 O21 2.144393 1_555
Li1 O22 2.145100 1_555
Li2 O8 1.991687 1_555
Li2 O8 1.991697 1_655
Li2 O1 2.049204 1_545
Li2 O18 2.213324 1_555
Li2 O3 2.234308 1_555
Li2 O3 2.235881 1_455
Li3 O9 1.993393 1_655
Li3 O9 1.993631 1_555
Li3 O0 2.047332 1_555
Li3 O19 2.208056 1_555
Li3 O2 2.235855 1_555
Li3 O2 2.236162 1_455
Li4 O10 1.993534 1_555
Li4 O10 1.993592 1_655
Li4 O2 2.047312 1_555
Li4 O17 2.207845 1_555
Li4 O0 2.235652 1_555
Li4 O0 2.235842 1_655
Li5 O11 1.991769 1_655
Li5 O11 1.991804 1_555
Li5 O3 2.049333 1_565
Li5 O16 2.213152 1_555
Li5 O1 2.234807 1_555
Li5 O1 2.236188 1_655
Li6 O22 2.043423 1_555
Li6 O12 2.102915 1_655
Li6 O12 2.103403 1_555
Li6 O7 2.139303 1_455
Li6 O7 2.139543 1_555
Li7 O23 2.045172 1_565
Li7 O13 2.101029 1_555
Li7 O13 2.102138 1_655
Li7 O6 2.135351 1_455
Li7 O6 2.135381 1_555
Li8 O20 2.043408 1_555
Li8 O14 2.102018 1_656
Li8 O14 2.103259 1_556
Li8 O4 2.139073 1_655
Li8 O4 2.139236 1_555
Li9 O21 2.044939 1_545
Li9 O15 2.101136 1_555
Li9 O15 2.102147 1_655
Li9 O5 2.135241 1_655
Li9 O5 2.136569 1_555
Li10 O8 2.054861 1_555
Li10 O20 2.147510 1_554
Li10 O20 2.147891 1_454
Li10 O18 2.150828 1_555
Li10 O18 2.153277 1_455
Li11 O9 2.052794 1_555
Li11 O21 2.146229 1_555
Li11 O21 2.147344 1_455
Li11 O19 2.147655 1_555
Li11 O19 2.148205 1_455
Li12 O11 2.054928 1_555
Li12 O22 2.147846 1_455
Li12 O22 2.148085 1_555
Li12 O16 2.151697 1_455
Li12 O16 2.153126 1_555
Li13 O10 2.053110 1_555
Li13 O23 2.145903 1_455
Li13 O23 2.146289 1_555
Li13 O17 2.146972 1_455
Li13 O17 2.148190 1_555
Mn0 O8 1.827759 1_556
Mn0 O23 1.945305 1_455
Mn0 O23 1.945364 1_555
Mn0 O1 1.946614 1_446
Mn0 O1 1.946685 1_546
Mn0 O6 2.150933 1_445
Mn1 O9 1.827772 1_555
Mn1 O0 1.945035 1_455
Mn1 O0 1.945053 1_555
Mn1 O22 1.946525 1_555
Mn1 O22 1.946667 1_455
Mn1 O7 2.151658 1_455
Mn2 O10 1.827493 1_555
Mn2 O2 1.944677 1_555
Mn2 O2 1.944839 1_455
Mn2 O20 1.946700 1_555
Mn2 O20 1.946814 1_455
Mn2 O4 2.151876 1_555
Mn3 O11 1.828382 1_555
Mn3 O3 1.945608 1_565
Mn3 O3 1.945823 1_465
Mn3 O21 1.946249 1_555
Mn3 O21 1.946279 1_455
Mn3 O5 2.149708 1_565
Mn4 O19 1.962764 1_555
Mn4 O19 1.963841 1_655
Mn4 O4 1.977745 1_555
Mn4 O4 1.978818 1_655
Mn4 O2 2.218131 1_555
Mn4 O13 2.298533 1_655
Mn5 O18 1.964742 1_555
Mn5 O18 1.965320 1_655
Mn5 O5 1.977188 1_555
Mn5 O5 1.977736 1_655
Mn5 O3 2.212351 1_555
Mn5 O12 2.298224 1_655
Mn6 O16 1.964030 1_455
Mn6 O16 1.965398 1_555
Mn6 O6 1.977126 1_454
Mn6 O6 1.978590 1_554
Mn6 O1 2.213541 1_555
Mn6 O14 2.297222 1_555
Mn7 O17 1.962771 1_455
Mn7 O17 1.963445 1_555
Mn7 O7 1.978147 1_455
Mn7 O7 1.978508 1_555
Mn7 O0 2.218389 1_555
Mn7 O15 2.298473 1_555
Mn8 O15 1.965399 1_655
Mn8 O15 1.965545 1_555
Mn8 O13 1.966066 1_645
Mn8 O13 1.966266 1_545
Mn8 O19 2.338291 1_545
Mn8 O17 2.338386 1_555
Mn9 O14 1.966971 1_555
Mn9 O14 1.967121 1_655
Mn9 O12 1.967460 1_655
Mn9 O12 1.967599 1_555
Mn9 O18 2.332425 1_555
Mn9 O16 2.332497 1_555
