# generated using pymatgen
data_LiCo3(OF3)2
_symmetry_space_group_name_H-M   'P 1'
_cell_length_a   4.60214213
_cell_length_b   5.51893660
_cell_length_c   10.28063163
_cell_angle_alpha   97.34735278
_cell_angle_beta   89.33149482
_cell_angle_gamma   90.09430563
_symmetry_Int_Tables_number   1
_chemical_formula_structural   LiCo3(OF3)2
_chemical_formula_sum   'Li2 Co6 O4 F12'
_cell_volume   258.95541062
_cell_formula_units_Z   2
loop_
 _symmetry_equiv_pos_site_id
 _symmetry_equiv_pos_as_xyz
  1  'x, y, z'
loop_
 _atom_site_type_symbol
 _atom_site_label
 _atom_site_symmetry_multiplicity
 _atom_site_fract_x
 _atom_site_fract_y
 _atom_site_fract_z
 _atom_site_occupancy
  Li  Li0  1  0.00174700  0.99891600  0.99776000  1
  Li  Li1  1  0.50283600  0.00091400  0.50216200  1
  Co  Co0  1  0.50061200  0.49909100  0.00097900  1
  Co  Co1  1  0.00152100  0.50095400  0.49996600  1
  Co  Co2  1  0.02986600  0.26985200  0.75239500  1
  Co  Co3  1  0.96638200  0.73241900  0.24517200  1
  Co  Co4  1  0.47024300  0.26800600  0.25728500  1
  Co  Co5  1  0.52714300  0.72688700  0.74442300  1
  O  O0  1  0.69141700  0.52738000  0.17154500  1
  O  O1  1  0.18664400  0.46927300  0.33387600  1
  O  O2  1  0.81126700  0.53036400  0.66795500  1
  O  O3  1  0.30747300  0.47644600  0.82566300  1
  F  F0  1  0.19758600  0.71676600  0.07409800  1
  F  F1  1  0.68843300  0.27545500  0.42250600  1
  F  F2  1  0.31089600  0.72525500  0.57796800  1
  F  F3  1  0.80291400  0.28100300  0.92616800  1
  F  F4  1  0.30203200  0.22987100  0.07579700  1
  F  F5  1  0.79987100  0.77381700  0.42516800  1
  F  F6  1  0.20008900  0.22665600  0.57326000  1
  F  F7  1  0.69684800  0.76902700  0.92605300  1
  F  F8  1  0.77777700  0.03108200  0.18137500  1
  F  F9  1  0.27544400  0.96462300  0.31433200  1
  F  F10  1  0.72623400  0.03298200  0.68651500  1
  F  F11  1  0.22472400  0.97295900  0.81757700  1
loop_
_geom_bond_atom_site_label_1
_geom_bond_atom_site_label_2
_geom_bond_distance
_geom_bond_site_symmetry_2
Co0 F0 1.924363 1_555
Co0 F3 1.928607 1_554
Co0 O0 1.958511 1_555
Co0 F7 1.975138 1_554
Co0 F4 1.976333 1_555
Co0 O3 2.008378 1_554
Co1 O1 1.887376 1_555
Co1 O2 1.915491 1_455
Co1 F2 1.992380 1_555
Co1 F6 2.001734 1_555
Co1 F1 2.006610 1_455
Co1 F5 2.009415 1_455
Co2 O3 1.815932 1_555
Co2 F10 1.977346 1_455
Co2 F6 1.979080 1_555
Co2 O2 2.043811 1_455
Co2 F3 2.053001 1_455
Co2 F11 2.058573 1_545
Co3 O0 1.803698 1_555
Co3 F5 1.980663 1_555
Co3 F9 1.988830 1_655
Co3 F0 2.037303 1_655
Co3 F8 2.048163 1_565
Co3 O1 2.081694 1_655
Co4 O1 1.820542 1_555
Co4 F1 1.979130 1_555
Co4 F8 2.010275 1_555
Co4 F4 2.014338 1_555
Co4 O0 2.039396 1_555
Co4 F9 2.045741 1_545
Co5 O2 1.807411 1_555
Co5 O3 1.975075 1_555
Co5 F2 1.988640 1_555
Co5 F11 2.016812 1_555
Co5 F7 2.018197 1_555
Co5 F10 2.070538 1_565
F0 Li0 2.046139 1_554
F1 Li1 1.998177 1_555
F2 Li1 1.996219 1_565
F3 Li0 2.028844 1_645
F4 Li0 1.984094 1_544
F5 Li1 1.947492 1_565
F6 Li1 1.943373 1_555
F7 Li0 1.975134 1_655
F8 Li0 2.127619 1_644
F9 Li1 2.193537 1_565
F10 Li1 2.153936 1_555
F11 Li0 2.095990 1_555
