# generated using pymatgen
data_TiSiO4
_symmetry_space_group_name_H-M   'P 1'
_cell_length_a   9.75154824
_cell_length_b   9.75154824
_cell_length_c   9.75154824
_cell_angle_alpha   109.47122063
_cell_angle_beta   109.47122063
_cell_angle_gamma   109.47122063
_symmetry_Int_Tables_number   1
_chemical_formula_structural   TiSiO4
_chemical_formula_sum   'Ti12 Si12 O48'
_cell_volume   713.83662964
_cell_formula_units_Z   12
loop_
 _symmetry_equiv_pos_site_id
 _symmetry_equiv_pos_as_xyz
  1  'x, y, z'
loop_
 _atom_site_type_symbol
 _atom_site_label
 _atom_site_symmetry_multiplicity
 _atom_site_fract_x
 _atom_site_fract_y
 _atom_site_fract_z
 _atom_site_occupancy
  Ti  Ti0  1  0.87500000  0.62500000  0.25000000  1
  Ti  Ti1  1  0.62500000  0.25000000  0.87500000  1
  Ti  Ti2  1  0.87500000  0.75000000  0.62500000  1
  Ti  Ti3  1  0.75000000  0.62500000  0.87500000  1
  Ti  Ti4  1  0.25000000  0.87500000  0.62500000  1
  Ti  Ti5  1  0.62500000  0.87500000  0.75000000  1
  Ti  Ti6  1  0.12500000  0.37500000  0.75000000  1
  Ti  Ti7  1  0.37500000  0.75000000  0.12500000  1
  Ti  Ti8  1  0.12500000  0.25000000  0.37500000  1
  Ti  Ti9  1  0.25000000  0.37500000  0.12500000  1
  Ti  Ti10  1  0.75000000  0.12500000  0.37500000  1
  Ti  Ti11  1  0.37500000  0.12500000  0.25000000  1
  Si  Si0  1  0.12500000  0.87500000  0.25000000  1
  Si  Si1  1  0.25000000  0.12500000  0.87500000  1
  Si  Si2  1  0.75000000  0.37500000  0.62500000  1
  Si  Si3  1  0.62500000  0.37500000  0.25000000  1
  Si  Si4  1  0.62500000  0.75000000  0.37500000  1
  Si  Si5  1  0.37500000  0.62500000  0.75000000  1
  Si  Si6  1  0.12500000  0.75000000  0.87500000  1
  Si  Si7  1  0.75000000  0.87500000  0.12500000  1
  Si  Si8  1  0.87500000  0.25000000  0.12500000  1
  Si  Si9  1  0.37500000  0.25000000  0.62500000  1
  Si  Si10  1  0.25000000  0.62500000  0.37500000  1
  Si  Si11  1  0.87500000  0.12500000  0.75000000  1
  O  O0  1  0.46468200  0.36971600  0.27391300  1
  O  O1  1  0.30923100  0.90503500  0.03531800  1
  O  O2  1  0.59496500  0.90419600  0.13028400  1
  O  O3  1  0.59580400  0.19076900  0.22608700  1
  O  O4  1  0.13028400  0.03531800  0.22608700  1
  O  O5  1  0.19076900  0.22608700  0.59580400  1
  O  O6  1  0.19076900  0.46468200  0.59496500  1
  O  O7  1  0.22608700  0.59580400  0.19076900  1
  O  O8  1  0.36971600  0.59580400  0.90503500  1
  O  O9  1  0.90419600  0.27391300  0.30923100  1
  O  O10  1  0.27391300  0.30923100  0.90419600  1
  O  O11  1  0.22608700  0.13028400  0.03531800  1
  O  O12  1  0.46468200  0.59496500  0.19076900  1
  O  O13  1  0.90503500  0.36971600  0.59580400  1
  O  O14  1  0.03531800  0.22608700  0.13028400  1
  O  O15  1  0.59496500  0.19076900  0.46468200  1
  O  O16  1  0.59580400  0.90503500  0.36971600  1
  O  O17  1  0.03531800  0.30923100  0.90503500  1
  O  O18  1  0.90419600  0.13028400  0.59496500  1
  O  O19  1  0.63028400  0.40419600  0.09496500  1
  O  O20  1  0.36971600  0.27391300  0.46468200  1
  O  O21  1  0.27391300  0.46468200  0.36971600  1
  O  O22  1  0.90503500  0.03531800  0.30923100  1
  O  O23  1  0.30923100  0.90419600  0.27391300  1
  O  O24  1  0.53531800  0.63028400  0.72608700  1
  O  O25  1  0.69076900  0.09496500  0.96468200  1
  O  O26  1  0.40503500  0.09580400  0.86971600  1
  O  O27  1  0.40419600  0.80923100  0.77391300  1
  O  O28  1  0.86971600  0.96468200  0.77391300  1
  O  O29  1  0.80923100  0.77391300  0.40419600  1
  O  O30  1  0.80923100  0.53531800  0.40503500  1
  O  O31  1  0.77391300  0.40419600  0.80923100  1
  O  O32  1  0.69076900  0.09580400  0.72608700  1
  O  O33  1  0.09496500  0.96468200  0.69076900  1
  O  O34  1  0.72608700  0.53531800  0.63028400  1
  O  O35  1  0.63028400  0.72608700  0.53531800  1
  O  O36  1  0.86971600  0.40503500  0.09580400  1
  O  O37  1  0.09580400  0.86971600  0.40503500  1
  O  O38  1  0.96468200  0.69076900  0.09496500  1
  O  O39  1  0.40419600  0.09496500  0.63028400  1
  O  O40  1  0.40503500  0.80923100  0.53531800  1
  O  O41  1  0.96468200  0.77391300  0.86971600  1
  O  O42  1  0.09496500  0.63028400  0.40419600  1
  O  O43  1  0.53531800  0.40503500  0.80923100  1
  O  O44  1  0.77391300  0.86971600  0.96468200  1
  O  O45  1  0.72608700  0.69076900  0.09580400  1
  O  O46  1  0.09580400  0.72608700  0.69076900  1
  O  O47  1  0.13028400  0.59496500  0.90419600  1
loop_
_geom_bond_atom_site_label_1
_geom_bond_atom_site_label_2
_geom_bond_distance
_geom_bond_site_symmetry_2
O0 Si3 1.642691 1_555
O0 Ti9 2.142226 1_555
O0 Ti11 2.148409 1_555
O1 Si6 1.642694 1_554
O1 Ti11 2.142220 1_565
O1 Ti7 2.148418 1_555
O2 Si7 1.642697 1_555
O2 Ti7 2.142215 1_555
O2 Ti10 2.148413 1_565
O3 Si3 1.642694 1_555
O3 Ti10 2.142220 1_555
O3 Ti11 2.148418 1_555
O4 Si0 1.642691 1_545
O4 Ti8 2.142226 1_555
O4 Ti11 2.148409 1_555
O5 Si9 1.642694 1_555
O5 Ti6 2.142220 1_555
O5 Ti8 2.148418 1_555
O6 Si5 1.642694 1_555
O6 Ti8 2.142220 1_555
O6 Ti6 2.148418 1_555
O7 Si10 1.642694 1_555
O7 Ti7 2.142220 1_555
O7 Ti9 2.148418 1_555
O8 Si5 1.642697 1_555
O8 Ti7 2.142215 1_556
O8 Ti6 2.148413 1_555
O9 Si8 1.642694 1_555
O9 Ti10 2.142220 1_555
O9 Ti8 2.148418 1_655
O10 Si1 1.642694 1_555
O10 Ti6 2.142220 1_555
O10 Ti9 2.148418 1_556
O11 Si1 1.642691 1_554
O11 Ti11 2.142226 1_555
O11 Ti9 2.148409 1_555
O12 Si4 1.642694 1_555
O12 Ti9 2.142220 1_555
O12 Ti7 2.148418 1_555
O13 Si2 1.642697 1_555
O13 Ti6 2.142215 1_655
O13 Ti10 2.148413 1_555
O14 Si8 1.642691 1_455
O14 Ti9 2.142226 1_555
O14 Ti8 2.148409 1_555
O15 Si2 1.642694 1_555
O15 Ti11 2.142220 1_555
O15 Ti10 2.148418 1_555
O16 Si4 1.642697 1_555
O16 Ti10 2.142215 1_565
O16 Ti7 2.148413 1_555
O17 Si11 1.642694 1_455
O17 Ti9 2.142220 1_556
O17 Ti6 2.148418 1_555
O18 Si11 1.642697 1_555
O18 Ti10 2.142215 1_555
O18 Ti6 2.148413 1_655
O19 Si3 1.642697 1_555
O19 Ti1 2.142215 1_554
O19 Ti0 2.148413 1_555
O20 Si9 1.642691 1_555
O20 Ti11 2.142226 1_555
O20 Ti8 2.148409 1_555
O21 Si10 1.642691 1_555
O21 Ti8 2.142226 1_555
O21 Ti9 2.148409 1_555
O22 Si7 1.642694 1_545
O22 Ti8 2.142220 1_655
O22 Ti10 2.148418 1_555
O23 Si0 1.642694 1_555
O23 Ti7 2.142220 1_555
O23 Ti11 2.148418 1_565
O24 Si5 1.642691 1_555
O24 Ti3 2.142226 1_555
O24 Ti5 2.148409 1_555
O25 Si8 1.642694 1_556
O25 Ti5 2.142220 1_545
O25 Ti1 2.148418 1_555
O26 Si1 1.642697 1_555
O26 Ti1 2.142215 1_555
O26 Ti4 2.148413 1_545
O27 Si5 1.642694 1_555
O27 Ti4 2.142220 1_555
O27 Ti5 2.148418 1_555
O28 Si11 1.642691 1_565
O28 Ti2 2.142226 1_555
O28 Ti5 2.148409 1_555
O29 Si4 1.642694 1_555
O29 Ti0 2.142220 1_555
O29 Ti2 2.148418 1_555
O30 Si3 1.642694 1_555
O30 Ti2 2.142220 1_555
O30 Ti0 2.148418 1_555
O31 Si2 1.642694 1_555
O31 Ti1 2.142220 1_555
O31 Ti3 2.148418 1_555
O32 Si11 1.642694 1_555
O32 Ti1 2.142220 1_555
O32 Ti5 2.148418 1_545
O33 Si1 1.642694 1_565
O33 Ti2 2.142220 1_455
O33 Ti4 2.148418 1_555
O34 Si2 1.642691 1_555
O34 Ti2 2.142226 1_555
O34 Ti3 2.148409 1_555
O35 Si4 1.642691 1_555
O35 Ti5 2.142226 1_555
O35 Ti2 2.148409 1_555
O36 Si8 1.642697 1_555
O36 Ti0 2.142215 1_555
O36 Ti1 2.148413 1_554
O37 Si0 1.642697 1_555
O37 Ti4 2.142215 1_555
O37 Ti0 2.148413 1_455
O38 Si0 1.642694 1_655
O38 Ti3 2.142220 1_554
O38 Ti0 2.148418 1_555
O39 Si9 1.642697 1_555
O39 Ti4 2.142215 1_545
O39 Ti1 2.148413 1_555
O40 Si10 1.642694 1_555
O40 Ti5 2.142220 1_555
O40 Ti4 2.148418 1_555
O41 Si6 1.642691 1_655
O41 Ti3 2.142226 1_555
O41 Ti2 2.148409 1_555
O42 Si10 1.642697 1_555
O42 Ti0 2.142215 1_455
O42 Ti4 2.148413 1_555
O43 Si9 1.642694 1_555
O43 Ti3 2.142220 1_555
O43 Ti1 2.148418 1_555
O44 Si7 1.642691 1_556
O44 Ti5 2.142226 1_555
O44 Ti3 2.148409 1_555
O45 Si7 1.642694 1_555
O45 Ti0 2.142220 1_555
O45 Ti3 2.148418 1_554
O46 Si6 1.642694 1_555
O46 Ti4 2.142220 1_555
O46 Ti2 2.148418 1_455
O47 Si6 1.642697 1_555
O47 Ti6 2.142215 1_555
O47 Ti7 2.148413 1_556
