# generated using pymatgen
data_Bi5O7F
_symmetry_space_group_name_H-M   'P 1'
_cell_length_a   9.72370988
_cell_length_b   9.72370988
_cell_length_c   13.47213349
_cell_angle_alpha   70.90566001
_cell_angle_beta   70.90566001
_cell_angle_gamma   24.91694675
_symmetry_Int_Tables_number   1
_chemical_formula_structural   Bi5O7F
_chemical_formula_sum   'Bi10 O14 F2'
_cell_volume   505.64452785
_cell_formula_units_Z   2
loop_
 _symmetry_equiv_pos_site_id
 _symmetry_equiv_pos_as_xyz
  1  'x, y, z'
loop_
 _atom_site_type_symbol
 _atom_site_label
 _atom_site_symmetry_multiplicity
 _atom_site_fract_x
 _atom_site_fract_y
 _atom_site_fract_z
 _atom_site_occupancy
  Bi  Bi0  1  0.47157100  0.47157100  0.35155400  1
  Bi  Bi1  1  0.87853300  0.87853300  0.58361100  1
  Bi  Bi2  1  0.25292200  0.25292200  0.87077500  1
  Bi  Bi3  1  0.40262200  0.40262200  0.10653300  1
  Bi  Bi4  1  0.79569800  0.79569800  0.36220000  1
  Bi  Bi5  1  0.20430200  0.20430200  0.63780000  1
  Bi  Bi6  1  0.59737800  0.59737800  0.89346700  1
  Bi  Bi7  1  0.74707800  0.74707800  0.12922500  1
  Bi  Bi8  1  0.12146700  0.12146700  0.41638900  1
  Bi  Bi9  1  0.52842900  0.52842900  0.64844600  1
  O  O0  1  0.93524300  0.93524300  0.40209600  1
  O  O1  1  0.41234700  0.41234700  0.51670200  1
  O  O2  1  0.30238300  0.30238300  0.70484800  1
  O  O3  1  0.38196000  0.38196000  0.28579300  1
  O  O4  1  0.70755700  0.70755700  0.90305800  1
  O  O5  1  0.77202900  0.77202900  0.56480700  1
  O  O6  1  0.84856100  0.84856100  0.17349600  1
  O  O7  1  0.15143900  0.15143900  0.82650500  1
  O  O8  1  0.22797100  0.22797100  0.43519300  1
  O  O9  1  0.29244300  0.29244300  0.09694200  1
  O  O10  1  0.61804000  0.61804000  0.71420700  1
  O  O11  1  0.69761700  0.69761700  0.29515200  1
  O  O12  1  0.58765300  0.58765300  0.48329800  1
  O  O13  1  0.06475700  0.06475700  0.59790400  1
  F  F0  1  0.91959400  0.91959400  0.97186700  1
  F  F1  1  0.08040600  0.08040600  0.02813300  1
loop_
_geom_bond_atom_site_label_1
_geom_bond_atom_site_label_2
_geom_bond_distance
_geom_bond_site_symmetry_2
Bi0 O1 2.130358 1_555
Bi0 O3 2.165797 1_555
Bi0 O0 2.241698 1_545
Bi0 O0 2.241698 1_455
Bi1 O5 2.120800 1_555
Bi1 O1 2.288544 1_565
Bi1 O1 2.288544 1_655
Bi1 O0 2.318445 1_555
Bi1 O2 2.752579 1_655
Bi1 O2 2.752579 1_565
Bi2 O2 2.114799 1_555
Bi2 O7 2.199899 1_555
Bi2 O4 2.254027 1_545
Bi2 O4 2.254027 1_455
Bi3 O9 2.138997 1_555
Bi3 O3 2.313299 1_555
Bi3 O6 2.376471 1_545
Bi3 O6 2.376471 1_455
Bi3 F0 2.721023 1_544
Bi3 F0 2.721023 1_454
Bi4 O11 2.326387 1_555
Bi4 O6 2.400166 1_555
Bi4 O8 2.484772 1_655
Bi4 O8 2.484772 1_565
Bi4 O5 2.613512 1_555
Bi4 O3 2.648301 1_565
Bi4 O3 2.648301 1_655
Bi5 O2 2.326387 1_555
Bi5 O7 2.400178 1_555
Bi5 O5 2.484772 1_455
Bi5 O5 2.484772 1_545
Bi5 O8 2.613512 1_555
Bi5 O10 2.648301 1_455
Bi5 O10 2.648301 1_545
Bi6 O4 2.138997 1_555
Bi6 O10 2.313299 1_555
Bi6 O7 2.376468 1_565
Bi6 O7 2.376468 1_655
Bi6 F1 2.721023 1_566
Bi6 F1 2.721023 1_656
Bi7 O11 2.114799 1_555
Bi7 O6 2.199906 1_555
Bi7 O9 2.254027 1_655
Bi7 O9 2.254027 1_565
Bi8 O8 2.120800 1_555
Bi8 O12 2.288544 1_545
Bi8 O12 2.288544 1_455
Bi8 O13 2.318445 1_555
Bi8 O11 2.752579 1_545
Bi8 O11 2.752579 1_455
Bi9 O12 2.130358 1_555
Bi9 O10 2.165797 1_555
Bi9 O13 2.241698 1_655
Bi9 O13 2.241698 1_565
