# generated using pymatgen
data_Ca4VN4
_symmetry_space_group_name_H-M   'P 1'
_cell_length_a   5.94577000
_cell_length_b   6.05613642
_cell_length_c   8.82230165
_cell_angle_alpha   72.88848736
_cell_angle_beta   80.00183728
_cell_angle_gamma   68.15439763
_symmetry_Int_Tables_number   1
_chemical_formula_structural   Ca4VN4
_chemical_formula_sum   'Ca8 V2 N8'
_cell_volume   281.07465818
_cell_formula_units_Z   2
loop_
 _symmetry_equiv_pos_site_id
 _symmetry_equiv_pos_as_xyz
  1  'x, y, z'
loop_
 _atom_site_type_symbol
 _atom_site_label
 _atom_site_symmetry_multiplicity
 _atom_site_fract_x
 _atom_site_fract_y
 _atom_site_fract_z
 _atom_site_occupancy
  Ca  Ca0  1  0.78727100  0.57460400  0.17466100  1
  Ca  Ca1  1  0.21272900  0.42539600  0.82533900  1
  Ca  Ca2  1  0.73885200  0.21904100  0.97229200  1
  Ca  Ca3  1  0.26114800  0.78095900  0.02770800  1
  Ca  Ca4  1  0.73443100  0.47756000  0.57610100  1
  Ca  Ca5  1  0.26556900  0.52244000  0.42389900  1
  Ca  Ca6  1  0.22751300  0.96236200  0.61558100  1
  Ca  Ca7  1  0.77248700  0.03763800  0.38441900  1
  V  V0  1  0.71856500  0.84831800  0.75435500  1
  V  V1  1  0.28143500  0.15168200  0.24564500  1
  N  N0  1  0.95955100  0.71960200  0.61176400  1
  N  N1  1  0.04044900  0.28039800  0.38823600  1
  N  N2  1  0.88208000  0.81948400  0.92211400  1
  N  N3  1  0.11792000  0.18051600  0.07788600  1
  N  N4  1  0.52403500  0.64729000  0.80196200  1
  N  N5  1  0.47596500  0.35271000  0.19803800  1
  N  N6  1  0.46784500  0.83667700  0.35175300  1
  N  N7  1  0.53215500  0.16332300  0.64824700  1
loop_
_geom_bond_atom_site_label_1
_geom_bond_atom_site_label_2
_geom_bond_distance
_geom_bond_site_symmetry_2
Ca0 N2 2.392266 1_554
Ca0 N1 2.450343 1_655
Ca0 N6 2.598584 1_555
Ca0 N5 2.613406 1_555
Ca0 N3 2.722943 1_655
Ca1 N3 2.392266 1_556
Ca1 N0 2.450343 1_455
Ca1 N7 2.598584 1_555
Ca1 N4 2.613406 1_555
Ca1 N2 2.722943 1_455
Ca2 N2 2.396323 1_545
Ca2 N5 2.447671 1_556
Ca2 N3 2.492377 1_656
Ca2 N4 2.554145 1_555
Ca3 N3 2.396323 1_565
Ca3 N4 2.447671 1_554
Ca3 N2 2.492377 1_454
Ca3 N5 2.554145 1_555
Ca4 N0 2.432509 1_555
Ca4 N4 2.444344 1_555
Ca4 N1 2.446205 1_655
Ca4 N7 2.489571 1_555
Ca4 N6 2.674070 1_555
Ca5 N1 2.432509 1_555
Ca5 N5 2.444344 1_555
Ca5 N0 2.446205 1_455
Ca5 N6 2.489571 1_555
Ca5 N7 2.674070 1_555
Ca6 N1 2.424188 1_565
Ca6 N4 2.471782 1_555
Ca6 N0 2.547937 1_455
Ca6 N7 2.621724 1_565
Ca6 N6 2.667786 1_555
Ca7 N0 2.424188 1_545
Ca7 N5 2.471782 1_555
Ca7 N1 2.547937 1_655
Ca7 N6 2.621724 1_545
Ca7 N7 2.667786 1_555
N0 V0 1.833892 1_555
N1 V1 1.833892 1_555
N2 V0 1.840482 1_555
N3 V1 1.840482 1_555
N4 V0 1.890705 1_555
N5 V1 1.890705 1_555
N6 V1 1.865453 1_565
N7 V0 1.865453 1_545
