# generated using pymatgen
data_AlFe3
_symmetry_space_group_name_H-M   'P 1'
_cell_length_a   5.09770948
_cell_length_b   5.09770948
_cell_length_c   15.59365048
_cell_angle_alpha   90.00000000
_cell_angle_beta   90.00000000
_cell_angle_gamma   106.50002773
_symmetry_Int_Tables_number   1
_chemical_formula_structural   AlFe3
_chemical_formula_sum   'Al8 Fe24'
_cell_volume   388.53921668
_cell_formula_units_Z   8
loop_
 _symmetry_equiv_pos_site_id
 _symmetry_equiv_pos_as_xyz
  1  'x, y, z'
loop_
 _atom_site_type_symbol
 _atom_site_label
 _atom_site_symmetry_multiplicity
 _atom_site_fract_x
 _atom_site_fract_y
 _atom_site_fract_z
 _atom_site_occupancy
  Al  Al0_0  1  0.00000000  0.00000000  0.00000000  1
  Al  Al0_1  1  1.00000000  0.00000000  0.50000000  1
  Al  Al0_2  1  0.00000000  0.50000000  0.00000000  1
  Al  Al0_3  1  0.00000000  0.50000000  0.50000000  1
  Al  Al0_4  1  0.50000000  0.00000000  0.00000000  1
  Al  Al0_5  1  0.50000000  1.00000000  0.50000000  1
  Al  Al0_6  1  0.50000000  0.50000000  0.00000000  1
  Al  Al0_7  1  0.50000000  0.50000000  0.50000000  1
  Fe  Fe0_0  1  0.25000000  0.25000000  0.12557050  1
  Fe  Fe0_1  1  0.25000000  0.25000000  0.62557050  1
  Fe  Fe0_2  1  0.25000000  0.75000000  0.12557050  1
  Fe  Fe0_3  1  0.25000000  0.75000000  0.62557050  1
  Fe  Fe0_4  1  0.75000000  0.25000000  0.12557050  1
  Fe  Fe0_5  1  0.75000000  0.25000000  0.62557050  1
  Fe  Fe0_6  1  0.75000000  0.75000000  0.12557050  1
  Fe  Fe0_7  1  0.75000000  0.75000000  0.62557050  1
  Fe  Fe1_0  1  0.00000000  0.00000000  0.25000000  1
  Fe  Fe1_1  1  1.00000000  0.00000000  0.75000000  1
  Fe  Fe1_2  1  0.00000000  0.50000000  0.25000000  1
  Fe  Fe1_3  1  1.00000000  0.50000000  0.75000000  1
  Fe  Fe1_4  1  0.50000000  0.00000000  0.25000000  1
  Fe  Fe1_5  1  0.50000000  0.00000000  0.75000000  1
  Fe  Fe1_6  1  0.50000000  0.50000000  0.25000000  1
  Fe  Fe1_7  1  0.50000000  0.50000000  0.75000000  1
  Fe  Fe2_0  1  0.25000000  0.25000000  0.37442950  1
  Fe  Fe2_1  1  0.25000000  0.25000000  0.87442950  1
  Fe  Fe2_2  1  0.25000000  0.75000000  0.37442950  1
  Fe  Fe2_3  1  0.25000000  0.75000000  0.87442950  1
  Fe  Fe2_4  1  0.75000000  0.25000000  0.37442950  1
  Fe  Fe2_5  1  0.75000000  0.25000000  0.87442950  1
  Fe  Fe2_6  1  0.75000000  0.75000000  0.37442950  1
  Fe  Fe2_7  1  0.75000000  0.75000000  0.87442950  1
loop_
_geom_bond_atom_site_label_1
_geom_bond_atom_site_label_2
_geom_bond_distance
_geom_bond_site_symmetry_2
Al0_0 Fe0_0 2.481918 1_555
Al0_0 Fe0_6 2.481918 1_445
Al0_0 Fe2_1 2.481918 1_554
Al0_0 Fe2_7 2.481918 1_444
Al0_1 Fe0_1 2.481918 1_655
Al0_1 Fe0_7 2.481918 1_545
Al0_1 Fe2_6 2.481918 1_545
Al0_1 Fe2_0 2.481918 1_655
Al0_2 Fe0_2 2.481918 1_555
Al0_2 Fe0_4 2.481918 1_455
Al0_2 Fe2_3 2.481918 1_554
Al0_2 Fe2_5 2.481918 1_454
Al0_3 Fe0_3 2.481918 1_555
Al0_3 Fe0_5 2.481918 1_455
Al0_3 Fe2_2 2.481918 1_555
Al0_3 Fe2_4 2.481918 1_455
Al0_4 Fe0_4 2.481918 1_555
Al0_4 Fe0_2 2.481918 1_545
Al0_4 Fe2_3 2.481918 1_544
Al0_4 Fe2_5 2.481918 1_554
Al0_5 Fe0_3 2.481918 1_555
Al0_5 Fe0_5 2.481918 1_565
Al0_5 Fe2_2 2.481918 1_555
Al0_5 Fe2_4 2.481918 1_565
Al0_6 Fe0_0 2.481918 1_555
Al0_6 Fe0_6 2.481918 1_555
Al0_6 Fe2_7 2.481918 1_554
Al0_6 Fe2_1 2.481918 1_554
Al0_7 Fe0_1 2.481918 1_555
Al0_7 Fe0_7 2.481918 1_555
Al0_7 Fe2_6 2.481918 1_555
Al0_7 Fe2_0 2.481918 1_555
Fe0_0 Fe1_6 2.467905 1_555
Fe0_0 Fe1_0 2.467905 1_555
Fe0_1 Fe1_7 2.467905 1_555
Fe0_1 Fe1_1 2.467905 1_455
Fe0_2 Fe1_4 2.467905 1_565
Fe0_2 Fe1_2 2.467905 1_555
Fe0_3 Fe1_5 2.467905 1_565
Fe0_3 Fe1_3 2.467905 1_455
Fe0_4 Fe1_4 2.467905 1_555
Fe0_4 Fe1_2 2.467905 1_655
Fe0_5 Fe1_5 2.467905 1_555
Fe0_5 Fe1_3 2.467905 1_555
Fe0_6 Fe1_0 2.467905 1_665
Fe0_6 Fe1_6 2.467905 1_555
Fe0_7 Fe1_1 2.467905 1_565
Fe0_7 Fe1_7 2.467905 1_555
Fe1_0 Fe2_0 2.467905 1_555
Fe1_0 Fe2_6 2.467905 1_445
Fe1_0 Fe1_4 2.548855 1_555
Fe1_0 Fe1_2 2.548855 1_545
Fe1_0 Fe1_2 2.548855 1_555
Fe1_0 Fe1_4 2.548855 1_455
Fe1_1 Fe2_7 2.467905 1_545
Fe1_1 Fe2_1 2.467905 1_655
Fe1_1 Fe1_5 2.548855 1_655
Fe1_1 Fe1_3 2.548855 1_545
Fe1_1 Fe1_3 2.548855 1_555
Fe1_1 Fe1_5 2.548855 1_555
Fe1_2 Fe2_2 2.467905 1_555
Fe1_2 Fe2_4 2.467905 1_455
Fe1_2 Fe1_6 2.548855 1_555
Fe1_2 Fe1_6 2.548855 1_455
Fe1_3 Fe2_5 2.467905 1_555
Fe1_3 Fe2_3 2.467905 1_655
Fe1_3 Fe1_7 2.548855 1_655
Fe1_3 Fe1_7 2.548855 1_555
Fe1_4 Fe2_4 2.467905 1_555
Fe1_4 Fe2_2 2.467905 1_545
Fe1_4 Fe1_6 2.548855 1_545
Fe1_4 Fe1_6 2.548855 1_555
Fe1_5 Fe2_5 2.467905 1_555
Fe1_5 Fe2_3 2.467905 1_545
Fe1_5 Fe1_7 2.548855 1_555
Fe1_5 Fe1_7 2.548855 1_545
Fe1_6 Fe2_6 2.467905 1_555
Fe1_6 Fe2_0 2.467905 1_555
Fe1_7 Fe2_1 2.467905 1_555
Fe1_7 Fe2_7 2.467905 1_555
