# generated using pymatgen
data_Zn(SbO2)2
_symmetry_space_group_name_H-M   'P 1'
_cell_length_a   6.50205822
_cell_length_b   6.50205822
_cell_length_c   6.50205791
_cell_angle_alpha   63.01895977
_cell_angle_beta   63.01895977
_cell_angle_gamma   63.01895335
_symmetry_Int_Tables_number   1
_chemical_formula_structural   Zn(SbO2)2
_chemical_formula_sum   'Zn2 Sb4 O8'
_cell_volume   207.39920620
_cell_formula_units_Z   2
loop_
 _symmetry_equiv_pos_site_id
 _symmetry_equiv_pos_as_xyz
  1  'x, y, z'
loop_
 _atom_site_type_symbol
 _atom_site_label
 _atom_site_symmetry_multiplicity
 _atom_site_fract_x
 _atom_site_fract_y
 _atom_site_fract_z
 _atom_site_occupancy
  Zn  Zn0  1  0.00665400  0.00665400  0.00665400  1
  Zn  Zn1  1  0.62559100  0.62559100  0.62559100  1
  Sb  Sb0  1  0.22722200  0.22722200  0.22722200  1
  Sb  Sb1  1  0.62082900  0.12437300  0.62082900  1
  Sb  Sb2  1  0.62082900  0.62082900  0.12437300  1
  Sb  Sb3  1  0.12437300  0.62082900  0.62082900  1
  O  O0  1  0.84808100  0.40550000  0.40550000  1
  O  O1  1  0.40550000  0.40550000  0.84808100  1
  O  O2  1  0.40550000  0.84808100  0.40550000  1
  O  O3  1  0.35499400  0.35499400  0.35499400  1
  O  O4  1  0.86647300  0.86647300  0.86647300  1
  O  O5  1  0.87602200  0.39191400  0.87602200  1
  O  O6  1  0.87602200  0.87602200  0.39191400  1
  O  O7  1  0.39191400  0.87602200  0.87602200  1
loop_
_geom_bond_atom_site_label_1
_geom_bond_atom_site_label_2
_geom_bond_distance
_geom_bond_site_symmetry_2
O0 Zn1 2.071185 1_555
O0 Sb0 2.190412 1_655
O0 Sb2 2.395033 1_555
O0 Sb1 2.395033 1_555
O1 Zn1 2.071185 1_555
O1 Sb0 2.190412 1_556
O1 Sb3 2.395033 1_555
O1 Sb1 2.395033 1_555
O2 Zn1 2.071185 1_555
O2 Sb0 2.190412 1_565
O2 Sb2 2.395033 1_555
O2 Sb3 2.395033 1_555
O3 Sb0 1.987317 1_555
O3 Sb1 2.496207 1_555
O3 Sb3 2.496207 1_555
O3 Sb2 2.496208 1_555
O4 Zn0 2.180321 1_666
O4 Sb3 2.316940 1_655
O4 Sb1 2.316940 1_565
O4 Sb2 2.316941 1_556
O5 Zn0 2.123955 1_656
O5 Sb2 2.254953 1_556
O5 Sb3 2.254953 1_655
O5 Zn1 2.351040 1_555
O6 Zn0 2.123955 1_665
O6 Sb3 2.254953 1_655
O6 Sb1 2.254953 1_565
O6 Zn1 2.351040 1_555
O7 Zn0 2.123955 1_566
O7 Sb2 2.254953 1_556
O7 Sb1 2.254953 1_565
O7 Zn1 2.351040 1_555
