# generated using pymatgen
data_InHSeO4
_symmetry_space_group_name_H-M   'P 1'
_cell_length_a   4.93652500
_cell_length_b   6.42661400
_cell_length_c   11.77510400
_cell_angle_alpha   90.00000000
_cell_angle_beta   90.00000000
_cell_angle_gamma   90.00000000
_symmetry_Int_Tables_number   1
_chemical_formula_structural   InHSeO4
_chemical_formula_sum   'In4 H4 Se4 O16'
_cell_volume   373.56683088
_cell_formula_units_Z   4
loop_
 _symmetry_equiv_pos_site_id
 _symmetry_equiv_pos_as_xyz
  1  'x, y, z'
loop_
 _atom_site_type_symbol
 _atom_site_label
 _atom_site_symmetry_multiplicity
 _atom_site_fract_x
 _atom_site_fract_y
 _atom_site_fract_z
 _atom_site_occupancy
  In  In0  1  0.51303900  0.98603800  0.01023500  1
  In  In1  1  0.01303900  0.48603800  0.48976500  1
  In  In2  1  0.48696100  0.48603800  0.98976500  1
  In  In3  1  0.98696100  0.98603800  0.51023500  1
  H  H0  1  0.02018300  0.08350900  0.86837800  1
  H  H1  1  0.97981700  0.58350900  0.13162200  1
  H  H2  1  0.52018300  0.58350900  0.63162200  1
  H  H3  1  0.47981700  0.08350900  0.36837800  1
  Se  Se0  1  0.98201600  0.73663900  0.80526300  1
  Se  Se1  1  0.51798400  0.73663900  0.30526300  1
  Se  Se2  1  0.01798400  0.23663900  0.19473700  1
  Se  Se3  1  0.48201600  0.23663900  0.69473700  1
  O  O0  1  0.77192200  0.73251700  0.92574200  1
  O  O1  1  0.72807800  0.73251700  0.42574200  1
  O  O2  1  0.22807800  0.23251700  0.07425800  1
  O  O3  1  0.27192200  0.23251700  0.57425800  1
  O  O4  1  0.16441700  0.97960300  0.85043200  1
  O  O5  1  0.27799000  0.55846500  0.33469900  1
  O  O6  1  0.83558300  0.47960300  0.14956800  1
  O  O7  1  0.72201000  0.05846500  0.66530100  1
  O  O8  1  0.77799000  0.05846500  0.16530100  1
  O  O9  1  0.66441700  0.47960300  0.64956800  1
  O  O10  1  0.22201000  0.55846500  0.83469900  1
  O  O11  1  0.33558300  0.97960300  0.35043200  1
  O  O12  1  0.66683500  0.22983000  0.91640000  1
  O  O13  1  0.83316500  0.22983000  0.41640000  1
  O  O14  1  0.33316500  0.72983000  0.08360000  1
  O  O15  1  0.16683500  0.72983000  0.58360000  1
loop_
_geom_bond_atom_site_label_1
_geom_bond_atom_site_label_2
_geom_bond_distance
_geom_bond_site_symmetry_2
In0 O14 2.060552 1_555
In0 O12 2.062033 1_564
In0 O2 2.248626 1_565
In0 O8 2.293759 1_565
In0 O0 2.297314 1_554
In0 O4 2.550347 1_554
In1 O13 2.060552 1_455
In1 O15 2.062033 1_555
In1 O1 2.248626 1_455
In1 O5 2.293759 1_555
In1 O3 2.297314 1_555
In1 O9 2.550347 1_455
In2 O12 2.060552 1_555
In2 O14 2.062033 1_556
In2 O0 2.248626 1_555
In2 O10 2.293759 1_555
In2 O2 2.297314 1_556
In2 O6 2.550347 1_556
In3 O15 2.060552 1_655
In3 O13 2.062033 1_565
In3 O3 2.248626 1_665
In3 O7 2.293759 1_565
In3 O1 2.297314 1_555
In3 O11 2.550347 1_655
H0 O4 0.998763 1_545
H1 O6 0.998763 1_555
H2 O9 0.998763 1_555
H3 O11 0.998763 1_545
O0 Se0 1.757534 1_555
O1 Se1 1.757534 1_555
O2 Se2 1.757534 1_555
O3 Se3 1.757534 1_555
O4 Se0 1.879291 1_455
O5 Se1 1.683714 1_555
O6 Se2 1.879291 1_655
O7 Se3 1.683714 1_555
O8 Se2 1.683714 1_655
O9 Se3 1.879291 1_555
O10 Se0 1.683714 1_455
O11 Se1 1.879291 1_555
