# generated using pymatgen
data_LaNiO3
_symmetry_space_group_name_H-M   'P 1'
_cell_length_a   5.43389340
_cell_length_b   7.71836047
_cell_length_c   5.55643375
_cell_angle_alpha   89.90964166
_cell_angle_beta   90.12785684
_cell_angle_gamma   91.57863494
_symmetry_Int_Tables_number   1
_chemical_formula_structural   LaNiO3
_chemical_formula_sum   'La4 Ni4 O12'
_cell_volume   232.95169096
_cell_formula_units_Z   4
loop_
 _symmetry_equiv_pos_site_id
 _symmetry_equiv_pos_as_xyz
  1  'x, y, z'
loop_
 _atom_site_type_symbol
 _atom_site_label
 _atom_site_symmetry_multiplicity
 _atom_site_fract_x
 _atom_site_fract_y
 _atom_site_fract_z
 _atom_site_occupancy
  La  La0  1  0.49813600  0.75000900  0.00259100  1
  La  La1  1  0.99838600  0.24962600  0.50278000  1
  La  La2  1  0.50178500  0.25002300  0.99750000  1
  La  La3  1  0.00171000  0.75029800  0.49715800  1
  Ni  Ni0  1  0.49993500  0.99997800  0.50002600  1
  Ni  Ni1  1  0.99988100  0.00004700  0.00005200  1
  Ni  Ni2  1  0.00007700  0.50004500  0.99991300  1
  Ni  Ni3  1  0.50007900  0.49996600  0.50003900  1
  O  O0  1  0.77655200  0.46168200  0.73540500  1
  O  O1  1  0.27628100  0.96169700  0.23523900  1
  O  O2  1  0.99501200  0.25893300  0.07174200  1
  O  O3  1  0.49511500  0.75895800  0.57160100  1
  O  O4  1  0.73268800  0.53635300  0.22035500  1
  O  O5  1  0.23230300  0.03620300  0.72056500  1
  O  O6  1  0.22367900  0.53834000  0.26443900  1
  O  O7  1  0.72347800  0.03828700  0.76489300  1
  O  O8  1  0.26744500  0.46361100  0.77955400  1
  O  O9  1  0.76753300  0.96380600  0.27950300  1
  O  O10  1  0.00521200  0.74112700  0.92820500  1
  O  O11  1  0.50471300  0.24101000  0.42844000  1
loop_
_geom_bond_atom_site_label_1
_geom_bond_atom_site_label_2
_geom_bond_distance
_geom_bond_site_symmetry_2
La0 O3 2.395687 1_554
La0 O4 2.431168 1_555
La0 O1 2.432302 1_555
La0 O6 2.622609 1_555
La0 O9 2.664254 1_555
La0 O10 2.708304 1_554
La0 O10 2.789861 1_654
La0 O8 2.800477 1_554
La0 O7 2.835905 1_564
La0 O0 3.106648 1_554
La1 O2 2.396042 1_555
La1 O5 2.428114 1_655
La1 O0 2.434126 1_555
La1 O7 2.623239 1_555
La1 O8 2.663715 1_655
La1 O11 2.712291 1_555
La1 O11 2.785693 1_655
La1 O9 2.797975 1_545
La1 O6 2.840058 1_655
La1 O1 3.103915 1_645
La2 O11 2.395420 1_556
La2 O8 2.430683 1_555
La2 O7 2.431982 1_555
La2 O0 2.624255 1_555
La2 O5 2.664680 1_555
La2 O2 2.709810 1_556
La2 O2 2.788124 1_456
La2 O4 2.800111 1_556
La2 O1 2.836659 1_546
La2 O6 3.105077 1_556
La3 O10 2.396067 1_555
La3 O9 2.428974 1_455
La3 O6 2.434262 1_555
La3 O1 2.621907 1_555
La3 O4 2.663514 1_455
La3 O3 2.710937 1_555
La3 O3 2.787236 1_455
La3 O5 2.798204 1_565
La3 O0 2.838929 1_455
La3 O7 3.105701 1_465
Ni0 O3 1.901189 1_555
Ni0 O11 1.901295 1_565
Ni0 O7 1.924188 1_565
Ni0 O1 1.924196 1_555
Ni0 O9 1.930068 1_555
Ni0 O5 1.930333 1_565
Ni1 O7 2.016116 1_554
Ni1 O1 2.016345 1_645
Ni1 O9 2.017732 1_545
Ni1 O5 2.018059 1_654
Ni1 O2 2.039007 1_555
Ni1 O10 2.039540 1_644
Ni2 O10 1.901790 1_555
Ni2 O2 1.902160 1_456
Ni2 O0 1.922661 1_455
Ni2 O6 1.922927 1_556
Ni2 O8 1.928877 1_555
Ni2 O4 1.929095 1_456
Ni3 O0 2.017200 1_555
Ni3 O6 2.017860 1_555
Ni3 O8 2.019082 1_555
Ni3 O4 2.019750 1_555
Ni3 O11 2.039386 1_555
Ni3 O3 2.039691 1_555
