# generated using pymatgen
data_SrMg6Cu
_symmetry_space_group_name_H-M   'P 1'
_cell_length_a   4.88602500
_cell_length_b   6.31660800
_cell_length_c   12.82903900
_cell_angle_alpha   90.00000000
_cell_angle_beta   90.00000000
_cell_angle_gamma   90.00000000
_symmetry_Int_Tables_number   1
_chemical_formula_structural   SrMg6Cu
_chemical_formula_sum   'Sr2 Mg12 Cu2'
_cell_volume   395.94397262
_cell_formula_units_Z   2
loop_
 _symmetry_equiv_pos_site_id
 _symmetry_equiv_pos_as_xyz
  1  'x, y, z'
loop_
 _atom_site_type_symbol
 _atom_site_label
 _atom_site_symmetry_multiplicity
 _atom_site_fract_x
 _atom_site_fract_y
 _atom_site_fract_z
 _atom_site_occupancy
  Sr  Sr0  1  0.50000000  0.00000000  0.70287100  1
  Sr  Sr1  1  0.50000000  0.50000000  0.20287100  1
  Mg  Mg0  1  0.00000000  0.25137500  0.55560700  1
  Mg  Mg1  1  0.00000000  0.74862500  0.55560700  1
  Mg  Mg2  1  0.00000000  0.50000000  0.80904200  1
  Mg  Mg3  1  0.50000000  0.74907400  0.92683500  1
  Mg  Mg4  1  0.50000000  0.25092600  0.92683500  1
  Mg  Mg5  1  0.50000000  0.50000000  0.64325500  1
  Mg  Mg6  1  0.00000000  0.75137500  0.05560700  1
  Mg  Mg7  1  0.00000000  0.24862500  0.05560700  1
  Mg  Mg8  1  0.00000000  0.00000000  0.30904200  1
  Mg  Mg9  1  0.50000000  0.24907400  0.42683500  1
  Mg  Mg10  1  0.50000000  0.75092600  0.42683500  1
  Mg  Mg11  1  0.50000000  0.00000000  0.14325500  1
  Cu  Cu0  1  0.00000000  0.00000000  0.87994700  1
  Cu  Cu1  1  0.00000000  0.50000000  0.37994700  1
loop_
_geom_bond_atom_site_label_1
_geom_bond_atom_site_label_2
_geom_bond_distance
_geom_bond_site_symmetry_2
Mg0 Mg9 2.949185 1_455
Mg0 Mg9 2.949185 1_555
Mg0 Mg5 3.114328 1_455
Mg0 Mg5 3.114328 1_555
Mg0 Mg1 3.140933 1_555
Mg0 Mg1 3.175675 1_545
Mg0 Sr0 3.472582 1_455
Mg0 Sr0 3.472582 1_555
Mg1 Mg10 2.949185 1_455
Mg1 Mg10 2.949185 1_555
Mg1 Mg5 3.114328 1_455
Mg1 Mg5 3.114328 1_555
Mg1 Sr0 3.472582 1_465
Mg1 Sr0 3.472582 1_565
Mg2 Mg5 3.239130 1_555
Mg2 Mg5 3.239130 1_455
Mg2 Mg4 3.275245 1_555
Mg2 Mg3 3.275245 1_555
Mg2 Mg3 3.275245 1_455
Mg2 Mg4 3.275245 1_455
Mg3 Mg6 2.949185 1_556
Mg3 Mg6 2.949185 1_656
Mg3 Mg4 3.146606 1_555
Mg3 Mg4 3.170002 1_565
Mg3 Sr0 3.281426 1_565
Mg4 Mg7 2.949185 1_656
Mg4 Mg7 2.949185 1_556
Mg4 Sr0 3.281426 1_555
Mg5 Mg9 3.197024 1_555
Mg5 Sr0 3.249589 1_555
Mg5 Sr0 3.249589 1_565
Mg6 Mg7 3.140933 1_565
Mg6 Mg7 3.175675 1_555
Mg6 Sr1 3.472582 1_555
Mg6 Sr1 3.472582 1_455
Mg7 Sr1 3.472582 1_555
Mg7 Sr1 3.472582 1_455
Mg8 Mg9 3.275245 1_555
Mg8 Mg9 3.275245 1_455
Mg9 Sr1 3.281426 1_555
Mg10 Mg9 3.146606 1_565
Mg10 Mg9 3.170002 1_555
Mg10 Mg5 3.197024 1_555
Mg10 Mg8 3.275245 1_565
Mg10 Mg8 3.275245 1_665
Mg10 Sr1 3.281426 1_555
Mg11 Mg7 3.114328 1_655
Mg11 Mg7 3.114328 1_555
Mg11 Mg6 3.114328 1_645
Mg11 Mg6 3.114328 1_545
Mg11 Mg3 3.197024 1_544
Mg11 Mg4 3.197024 1_554
Mg11 Mg8 3.239130 1_655
Mg11 Mg8 3.239130 1_555
Mg11 Sr1 3.249589 1_545
Mg11 Sr1 3.249589 1_555
Cu0 Mg7 2.746789 1_556
Cu0 Mg6 2.746789 1_546
Cu0 Mg4 2.973613 1_455
Cu0 Mg3 2.973613 1_445
Cu0 Mg3 2.973613 1_545
Cu0 Mg4 2.973613 1_555
Cu0 Mg2 3.286691 1_555
Cu0 Mg2 3.286691 1_545
Cu0 Sr0 3.336015 1_455
Cu0 Sr0 3.336015 1_555
Cu1 Mg1 2.746789 1_555
Cu1 Mg0 2.746789 1_555
Cu1 Mg9 2.973613 1_555
Cu1 Mg10 2.973613 1_555
Cu1 Mg10 2.973613 1_455
Cu1 Mg9 2.973613 1_455
Cu1 Mg8 3.286691 1_565
Cu1 Mg8 3.286691 1_555
Cu1 Sr1 3.336015 1_455
Cu1 Sr1 3.336015 1_555
