# generated using pymatgen
data_Ho2CoGe6
_symmetry_space_group_name_H-M   'P 1'
_cell_length_a   4.06392800
_cell_length_b   3.99106000
_cell_length_c   10.92741272
_cell_angle_alpha   100.52222282
_cell_angle_beta   90.00000000
_cell_angle_gamma   90.00000000
_symmetry_Int_Tables_number   1
_chemical_formula_structural   Ho2CoGe6
_chemical_formula_sum   'Ho2 Co1 Ge6'
_cell_volume   174.25549311
_cell_formula_units_Z   1
loop_
 _symmetry_equiv_pos_site_id
 _symmetry_equiv_pos_as_xyz
  1  'x, y, z'
loop_
 _atom_site_type_symbol
 _atom_site_label
 _atom_site_symmetry_multiplicity
 _atom_site_fract_x
 _atom_site_fract_y
 _atom_site_fract_z
 _atom_site_occupancy
  Ho  Ho0  1  0.50000000  0.22219600  0.44439300  1
  Ho  Ho1  1  0.50000000  0.88651100  0.77302300  1
  Co  Co0  1  0.00000000  0.44519200  0.89038400  1
  Ge  Ge0  1  0.50000000  0.49975500  0.99950900  1
  Ge  Ge1  1  0.50000000  0.61646100  0.23292200  1
  Ge  Ge2  1  0.00000000  0.00083500  0.00167000  1
  Ge  Ge3  1  0.00000000  0.11848800  0.23697600  1
  Ge  Ge4  1  0.00000000  0.33906700  0.67813400  1
  Ge  Ge5  1  0.00000000  0.76449500  0.52899000  1
loop_
_geom_bond_atom_site_label_1
_geom_bond_atom_site_label_2
_geom_bond_distance
_geom_bond_site_symmetry_2
Co0 Ge4 2.280342 1_555
Co0 Ge2 2.326294 1_566
Co0 Ge2 2.326294 1_556
Co0 Ge0 2.345933 1_455
Co0 Ge0 2.345933 1_555
Co0 Ho1 3.114618 1_555
Co0 Ho1 3.114618 1_455
Co0 Ho1 3.114620 1_445
Co0 Ho1 3.114620 1_545
Ge0 Ge1 2.507710 1_556
Ge0 Ge2 2.848078 1_566
Ge0 Ge2 2.848078 1_666
Ge0 Ge2 2.848081 1_656
Ge0 Ge2 2.848081 1_556
Ge0 Ho1 3.146906 1_555
Ge0 Ho1 3.146911 1_545
Ge1 Ge3 2.848318 1_565
Ge1 Ge3 2.848318 1_665
Ge1 Ge3 2.848318 1_655
Ge1 Ge3 2.848318 1_555
Ge1 Ho0 3.023903 1_565
Ge1 Ho0 3.023906 1_555
Ge2 Ge3 2.528047 1_555
Ge2 Ho1 3.187993 1_444
Ge2 Ho1 3.187993 1_544
Ge3 Ho0 3.015746 1_455
Ge3 Ho0 3.015746 1_555
Ge4 Ge5 2.559233 1_545
Ge4 Ge5 2.559233 1_555
Ge4 Ho1 3.024946 1_455
Ge4 Ho1 3.024946 1_555
Ge4 Ho1 3.024949 1_545
Ge4 Ho1 3.024949 1_445
Ge4 Ho0 3.230352 1_455
Ge4 Ho0 3.230352 1_555
Ge5 Ho0 2.989494 1_465
Ge5 Ho0 2.989494 1_565
Ge5 Ho0 2.989497 1_455
Ge5 Ho0 2.989497 1_555
Ge5 Ho1 3.317040 1_455
Ge5 Ho1 3.317040 1_555
