# generated using pymatgen
data_Te2Mo2W(SeS)2
_symmetry_space_group_name_H-M   'P 1'
_cell_length_a   3.35153349
_cell_length_b   3.35153349
_cell_length_c   30.93880700
_cell_angle_alpha   90.00000000
_cell_angle_beta   90.00000000
_cell_angle_gamma   119.99998999
_symmetry_Int_Tables_number   1
_chemical_formula_structural   Te2Mo2W(SeS)2
_chemical_formula_sum   'Te2 Mo2 W1 Se2 S2'
_cell_volume   300.96872354
_cell_formula_units_Z   1
loop_
 _symmetry_equiv_pos_site_id
 _symmetry_equiv_pos_as_xyz
  1  'x, y, z'
loop_
 _atom_site_type_symbol
 _atom_site_label
 _atom_site_symmetry_multiplicity
 _atom_site_fract_x
 _atom_site_fract_y
 _atom_site_fract_z
 _atom_site_occupancy
  Te  Te0  1  0.33333300  0.66666700  0.51673200  1
  Te  Te1  1  0.33333300  0.66666700  0.63988600  1
  Mo  Mo0  1  0.00000000  0.00000000  0.11564900  1
  Mo  Mo1  1  0.33333300  0.66666700  0.34696300  1
  W  W0  1  0.00000000  0.00000000  0.57833400  1
  Se  Se0  1  0.33333300  0.66666700  0.06187400  1
  Se  Se1  1  0.33333300  0.66666700  0.16946000  1
  S  S0  1  0.00000000  0.00000000  0.39591100  1
  S  S1  1  0.00000000  0.00000000  0.29803300  1
loop_
_geom_bond_atom_site_label_1
_geom_bond_atom_site_label_2
_geom_bond_distance
_geom_bond_site_symmetry_2
Te0 W0 2.716004 1_565
Te0 W0 2.716006 1_555
Te0 W0 2.716006 1_665
Te1 W0 2.714919 1_565
Te1 W0 2.714921 1_555
Te1 W0 2.714921 1_665
Mo0 Se0 2.551914 1_545
Mo0 Se0 2.551916 1_555
Mo0 Se0 2.551916 1_445
Mo0 Se1 2.552640 1_545
Mo0 Se1 2.552642 1_445
Mo0 Se1 2.552642 1_555
Mo1 S1 2.456817 1_565
Mo1 S1 2.456820 1_665
Mo1 S1 2.456820 1_555
Mo1 S0 2.457160 1_565
Mo1 S0 2.457163 1_665
Mo1 S0 2.457163 1_555
