# generated using pymatgen
data_GaCo4Ge3
_symmetry_space_group_name_H-M   'P 1'
_cell_length_a   4.60856006
_cell_length_b   4.60855282
_cell_length_c   4.60854509
_cell_angle_alpha   89.47977773
_cell_angle_beta   89.47970340
_cell_angle_gamma   89.47980218
_symmetry_Int_Tables_number   1
_chemical_formula_structural   GaCo4Ge3
_chemical_formula_sum   'Ga1 Co4 Ge3'
_cell_volume   97.86790122
_cell_formula_units_Z   1
loop_
 _symmetry_equiv_pos_site_id
 _symmetry_equiv_pos_as_xyz
  1  'x, y, z'
loop_
 _atom_site_type_symbol
 _atom_site_label
 _atom_site_symmetry_multiplicity
 _atom_site_fract_x
 _atom_site_fract_y
 _atom_site_fract_z
 _atom_site_occupancy
  Ga  Ga0  1  0.34167684  0.34167684  0.34167684  1
  Co  Co0  1  0.64063293  0.64063393  0.64063493  1
  Co  Co1  1  0.13271007  0.36326230  0.86207131  1
  Co  Co2  1  0.36326230  0.86206831  0.13270907  1
  Co  Co3  1  0.86207031  0.13270907  0.36325930  1
  Ge  Ge0  1  0.84045214  0.65514877  0.16404764  1
  Ge  Ge1  1  0.65514777  0.16404664  0.84045314  1
  Ge  Ge2  1  0.16404764  0.84045314  0.65514877  1
loop_
_geom_bond_atom_site_label_1
_geom_bond_atom_site_label_2
_geom_bond_distance
_geom_bond_site_symmetry_2
Ga0 Ge1 2.836389 1_554
Ga0 Ge2 2.836391 1_545
Ga0 Ge0 2.836400 1_455
Ga0 Ge0 2.836463 1_555
Ga0 Ge1 2.836464 1_555
Ga0 Ge2 2.836464 1_555
Co0 Ge2 2.374503 1_555
Co0 Ge0 2.374504 1_555
Co0 Ge1 2.374506 1_555
Co0 Ga0 2.407919 1_555
Co0 Ge1 2.591419 1_565
Co0 Ge0 2.591419 1_556
Co0 Ge2 2.591433 1_655
Co1 Ge0 2.351043 1_456
Co1 Ge2 2.394101 1_555
Co1 Ge1 2.395623 1_455
Co1 Ga0 2.419838 1_556
Co1 Ge1 2.570397 1_555
Co1 Ga0 2.578689 1_555
Co1 Ge2 2.601598 1_545
Co2 Ge1 2.351040 1_564
Co2 Ge0 2.394096 1_555
Co2 Ge2 2.395607 1_554
Co2 Ga0 2.419853 1_565
Co2 Ge2 2.570396 1_555
Co2 Ga0 2.578682 1_555
Co2 Ge0 2.601601 1_455
Co3 Ge2 2.351051 1_645
Co3 Ge1 2.394110 1_555
Co3 Ge0 2.395603 1_545
Co3 Ga0 2.419848 1_655
Co3 Ge0 2.570395 1_555
Co3 Ga0 2.578694 1_555
Co3 Ge1 2.601584 1_554
