# generated using pymatgen
data_Nb2S3O14
_symmetry_space_group_name_H-M   'P 1'
_cell_length_a   9.00047700
_cell_length_b   10.08647400
_cell_length_c   12.03438500
_cell_angle_alpha   90.00000000
_cell_angle_beta   90.00000000
_cell_angle_gamma   90.00000000
_symmetry_Int_Tables_number   1
_chemical_formula_structural   Nb2S3O14
_chemical_formula_sum   'Nb8 S12 O56'
_cell_volume   1092.51850309
_cell_formula_units_Z   4
loop_
 _symmetry_equiv_pos_site_id
 _symmetry_equiv_pos_as_xyz
  1  'x, y, z'
loop_
 _atom_site_type_symbol
 _atom_site_label
 _atom_site_symmetry_multiplicity
 _atom_site_fract_x
 _atom_site_fract_y
 _atom_site_fract_z
 _atom_site_occupancy
  Nb  Nb0  1  0.57332300  0.56407400  0.62369700  1
  Nb  Nb1  1  0.07332300  0.43592600  0.37630300  1
  Nb  Nb2  1  0.07332300  0.93592600  0.12369700  1
  Nb  Nb3  1  0.57332300  0.06407400  0.87630300  1
  Nb  Nb4  1  0.60701800  0.11849000  0.38029900  1
  Nb  Nb5  1  0.10701800  0.88151000  0.61970100  1
  Nb  Nb6  1  0.10701800  0.38151000  0.88029900  1
  Nb  Nb7  1  0.60701800  0.61849000  0.11970100  1
  S  S0  1  0.71858700  0.83298200  0.49648900  1
  S  S1  1  0.21858700  0.16701800  0.50351100  1
  S  S2  1  0.21858700  0.66701800  0.99648900  1
  S  S3  1  0.71858700  0.33298200  0.00351100  1
  S  S4  1  0.67822800  0.24061500  0.64259800  1
  S  S5  1  0.17822800  0.75938500  0.35740200  1
  S  S6  1  0.17822800  0.25938500  0.14259800  1
  S  S7  1  0.67822800  0.74061500  0.85740200  1
  S  S8  1  0.99836100  0.55418800  0.63849600  1
  S  S9  1  0.49836100  0.44581200  0.36150400  1
  S  S10  1  0.49836100  0.94581200  0.13849600  1
  S  S11  1  0.99836100  0.05418800  0.86150400  1
  O  O0  1  0.60979500  0.37112100  0.67687100  1
  O  O1  1  0.10979500  0.62887900  0.32312900  1
  O  O2  1  0.10979500  0.12887900  0.17687100  1
  O  O3  1  0.60979500  0.87112100  0.82312900  1
  O  O4  1  0.83681100  0.24154900  0.64102100  1
  O  O5  1  0.33681100  0.75845100  0.35897900  1
  O  O6  1  0.33681100  0.25845100  0.14102100  1
  O  O7  1  0.83681100  0.74154900  0.85897900  1
  O  O8  1  0.05782600  0.68604600  0.67140500  1
  O  O9  1  0.55782600  0.31395400  0.32859500  1
  O  O10  1  0.55782600  0.81395400  0.17140500  1
  O  O11  1  0.05782600  0.18604600  0.82859500  1
  O  O12  1  0.08461800  0.50668500  0.54000200  1
  O  O13  1  0.58461800  0.49331500  0.45999800  1
  O  O14  1  0.58461800  0.99331500  0.04000200  1
  O  O15  1  0.08461800  0.00668500  0.95999800  1
  O  O16  1  0.61477000  0.13823400  0.71971900  1
  O  O17  1  0.11477000  0.86176600  0.28028100  1
  O  O18  1  0.11477000  0.36176600  0.21971900  1
  O  O19  1  0.61477000  0.63823400  0.78028100  1
  O  O20  1  0.60860800  0.74682400  0.56254300  1
  O  O21  1  0.10860800  0.25317600  0.43745700  1
  O  O22  1  0.10860800  0.75317600  0.06254300  1
  O  O23  1  0.60860800  0.24682400  0.93745700  1
  O  O24  1  0.84082700  0.55892400  0.61406200  1
  O  O25  1  0.34082700  0.44107600  0.38593800  1
  O  O26  1  0.34082700  0.94107600  0.11406200  1
  O  O27  1  0.84082700  0.05892400  0.88593800  1
  O  O28  1  0.61164400  0.94724000  0.46376000  1
  O  O29  1  0.11164400  0.05276000  0.53624000  1
  O  O30  1  0.11164400  0.55276000  0.96376000  1
  O  O31  1  0.61164400  0.44724000  0.03624000  1
  O  O32  1  0.38271400  0.56696900  0.63474700  1
  O  O33  1  0.88271400  0.43303100  0.36525300  1
  O  O34  1  0.88271400  0.93303100  0.13474700  1
  O  O35  1  0.38271400  0.06696900  0.86525300  1
  O  O36  1  0.02920700  0.46267100  0.73315600  1
  O  O37  1  0.52920700  0.53732900  0.26684400  1
  O  O38  1  0.52920700  0.03732900  0.23315600  1
  O  O39  1  0.02920700  0.96267100  0.76684400  1
  O  O40  1  0.82999500  0.88508700  0.57367000  1
  O  O41  1  0.32999500  0.11491300  0.42633000  1
  O  O42  1  0.32999500  0.61491300  0.07367000  1
  O  O43  1  0.82999500  0.38508700  0.92633000  1
  O  O44  1  0.77064900  0.76507300  0.39967700  1
  O  O45  1  0.27064900  0.23492700  0.60032300  1
  O  O46  1  0.27064900  0.73492700  0.89967700  1
  O  O47  1  0.77064900  0.26507300  0.10032300  1
  O  O48  1  0.79332900  0.12312200  0.34964700  1
  O  O49  1  0.29332900  0.87687800  0.65035300  1
  O  O50  1  0.29332900  0.37687800  0.84964700  1
  O  O51  1  0.79332900  0.62312200  0.15035300  1
  O  O52  1  0.60931000  0.21107700  0.53192500  1
  O  O53  1  0.10931000  0.78892300  0.46807500  1
  O  O54  1  0.10931000  0.28892300  0.03192500  1
  O  O55  1  0.60931000  0.71107700  0.96807500  1
loop_
_geom_bond_atom_site_label_1
_geom_bond_atom_site_label_2
_geom_bond_distance
_geom_bond_site_symmetry_2
Nb0 O32 1.720966 1_555
Nb0 O20 2.010037 1_555
Nb0 O19 2.061460 1_555
Nb0 O0 2.074851 1_555
Nb0 O13 2.097780 1_555
Nb0 O24 2.411014 1_555
Nb1 O33 1.720966 1_455
Nb1 O21 2.010037 1_555
Nb1 O18 2.061460 1_555
Nb1 O1 2.074851 1_555
Nb1 O12 2.097780 1_555
Nb1 O25 2.411014 1_555
Nb2 O34 1.720966 1_455
Nb2 O22 2.010037 1_555
Nb2 O17 2.061460 1_555
Nb2 O2 2.074851 1_565
Nb2 O15 2.097780 1_564
Nb2 O26 2.411014 1_555
Nb3 O35 1.720966 1_555
Nb3 O23 2.010037 1_555
Nb3 O16 2.061460 1_555
Nb3 O3 2.074851 1_545
Nb3 O14 2.097780 1_546
Nb3 O27 2.411014 1_555
Nb4 O48 1.717617 1_555
Nb4 O28 1.998537 1_545
Nb4 O52 2.049921 1_555
Nb4 O38 2.072744 1_555
Nb4 O9 2.114279 1_555
Nb4 O41 2.554390 1_555
Nb5 O49 1.717617 1_555
Nb5 O29 1.998537 1_565
Nb5 O53 2.049921 1_555
Nb5 O39 2.072744 1_555
Nb5 O8 2.114279 1_555
Nb5 O40 2.554390 1_455
Nb6 O50 1.717617 1_555
Nb6 O30 1.998537 1_555
Nb6 O54 2.049921 1_556
Nb6 O36 2.072744 1_555
Nb6 O11 2.114279 1_555
Nb6 O43 2.554390 1_455
Nb7 O51 1.717617 1_555
Nb7 O31 1.998537 1_555
Nb7 O55 2.049921 1_554
Nb7 O37 2.072744 1_555
Nb7 O10 2.114279 1_555
Nb7 O42 2.554390 1_555
O0 S4 1.510713 1_555
O1 S5 1.510713 1_555
O2 S6 1.510713 1_555
O3 S7 1.510713 1_555
O4 S4 1.427480 1_555
O5 S5 1.427480 1_555
O6 S6 1.427480 1_555
O7 S7 1.427480 1_555
O8 S8 1.487331 1_455
O9 S9 1.487331 1_555
O10 S10 1.487331 1_555
O11 S11 1.487331 1_455
O12 S8 1.495751 1_455
O13 S9 1.495751 1_555
O14 S10 1.495751 1_555
O15 S11 1.495751 1_455
O16 S4 1.501328 1_555
O17 S5 1.501328 1_555
O18 S6 1.501328 1_555
O19 S7 1.501328 1_555
O20 S0 1.538486 1_555
O21 S1 1.538486 1_555
O22 S2 1.538486 1_554
O23 S3 1.538486 1_556
O24 S8 1.448839 1_555
O25 S9 1.448839 1_555
O26 S10 1.448839 1_555
O27 S11 1.448839 1_555
O28 S0 1.552347 1_555
O29 S1 1.552347 1_555
O30 S2 1.552347 1_555
O31 S3 1.552347 1_555
O36 S8 1.492274 1_455
O37 S9 1.492274 1_555
O38 S10 1.492274 1_545
O39 S11 1.492274 1_465
O40 S0 1.464372 1_555
O41 S1 1.464372 1_555
O42 S2 1.464372 1_554
O43 S3 1.464372 1_556
O44 S0 1.430433 1_555
O45 S1 1.430433 1_555
O46 S2 1.430433 1_555
O47 S3 1.430433 1_555
O52 S4 1.499146 1_555
O53 S5 1.499146 1_555
O54 S6 1.499146 1_555
O55 S7 1.499146 1_555
