# generated using pymatgen
data_YTm3
_symmetry_space_group_name_H-M   'P 1'
_cell_length_a   7.19085993
_cell_length_b   7.19082564
_cell_length_c   5.53092451
_cell_angle_alpha   90.00000000
_cell_angle_beta   90.00000000
_cell_angle_gamma   119.99945650
_symmetry_Int_Tables_number   1
_chemical_formula_structural   YTm3
_chemical_formula_sum   'Y2 Tm6'
_cell_volume   247.67965196
_cell_formula_units_Z   2
loop_
 _symmetry_equiv_pos_site_id
 _symmetry_equiv_pos_as_xyz
  1  'x, y, z'
loop_
 _atom_site_type_symbol
 _atom_site_label
 _atom_site_symmetry_multiplicity
 _atom_site_fract_x
 _atom_site_fract_y
 _atom_site_fract_z
 _atom_site_occupancy
  Y  Y0  1  0.33333406  0.66666694  0.75000100  1
  Y  Y1  1  0.66666694  0.33333306  0.25000000  1
  Tm  Tm0  1  0.16529408  0.33059055  0.25000000  1
  Tm  Tm1  1  0.66940845  0.83470492  0.25000100  1
  Tm  Tm2  1  0.16529611  0.83470389  0.25000100  1
  Tm  Tm3  1  0.83470592  0.66940945  0.75000100  1
  Tm  Tm4  1  0.33059055  0.16529408  0.75000100  1
  Tm  Tm5  1  0.83470389  0.16529611  0.75000000  1
loop_
_geom_bond_atom_site_label_1
_geom_bond_atom_site_label_2
_geom_bond_distance
_geom_bond_site_symmetry_2
Tm0 Tm4 3.447635 1_554
Tm0 Tm5 3.447642 1_455
Tm0 Tm5 3.447642 1_454
Tm0 Tm4 3.447644 1_555
Tm0 Y0 3.468142 1_554
Tm0 Y0 3.468151 1_555
Tm0 Tm2 3.565842 1_545
Tm0 Tm1 3.565865 1_445
Tm0 Y1 3.595459 1_455
Tm0 Y1 3.595482 1_555
Tm0 Tm2 3.624984 1_555
Tm0 Tm1 3.625037 1_555
Tm1 Tm5 3.447636 1_565
Tm1 Tm3 3.447639 1_554
Tm1 Tm3 3.447639 1_555
Tm1 Tm5 3.447644 1_564
Tm1 Y0 3.468145 1_554
Tm1 Y0 3.468145 1_555
Tm1 Tm2 3.565862 1_655
Tm1 Y1 3.595445 1_565
Tm1 Y1 3.595461 1_555
Tm1 Tm2 3.624998 1_555
Tm2 Tm4 3.447636 1_564
Tm2 Tm4 3.447636 1_565
Tm2 Tm3 3.447642 1_454
Tm2 Tm3 3.447642 1_455
Tm2 Y0 3.468133 1_554
Tm2 Y0 3.468133 1_555
Tm2 Y1 3.595491 1_455
Tm2 Y1 3.595492 1_565
Tm3 Y1 3.468142 1_556
Tm3 Y1 3.468151 1_555
Tm3 Tm5 3.565842 1_565
Tm3 Tm4 3.565858 1_665
Tm3 Y0 3.595466 1_655
Tm3 Y0 3.595475 1_555
Tm3 Tm5 3.624984 1_555
Tm3 Tm4 3.625044 1_555
Tm4 Y1 3.468148 1_556
Tm4 Y1 3.468157 1_555
Tm4 Tm5 3.565859 1_455
Tm4 Y0 3.595445 1_545
Tm4 Y0 3.595461 1_555
Tm4 Tm5 3.625001 1_555
Tm5 Y1 3.468129 1_556
Tm5 Y1 3.468129 1_555
Tm5 Y0 3.595488 1_545
Tm5 Y0 3.595495 1_655
