# generated using pymatgen
data_Ba3GdIrRuO9
_symmetry_space_group_name_H-M   'P 1'
_cell_length_a   5.97676447
_cell_length_b   5.97676447
_cell_length_c   14.82660100
_cell_angle_alpha   90.00000000
_cell_angle_beta   90.00000000
_cell_angle_gamma   120.00000521
_symmetry_Int_Tables_number   1
_chemical_formula_structural   Ba3GdIrRuO9
_chemical_formula_sum   'Ba6 Gd2 Ir2 Ru2 O18'
_cell_volume   458.67439069
_cell_formula_units_Z   2
loop_
 _symmetry_equiv_pos_site_id
 _symmetry_equiv_pos_as_xyz
  1  'x, y, z'
loop_
 _atom_site_type_symbol
 _atom_site_label
 _atom_site_symmetry_multiplicity
 _atom_site_fract_x
 _atom_site_fract_y
 _atom_site_fract_z
 _atom_site_occupancy
  Ba  Ba0  1  0.66666700  0.33333300  0.40318200  1
  Ba  Ba1  1  0.33333300  0.66666700  0.59764500  1
  Ba  Ba2  1  0.33333300  0.66666700  0.90318200  1
  Ba  Ba3  1  0.66666700  0.33333300  0.09764500  1
  Ba  Ba4  1  0.00000000  0.00000000  0.74991300  1
  Ba  Ba5  1  0.00000000  0.00000000  0.24991300  1
  Gd  Gd0  1  0.00000000  0.00000000  0.50115200  1
  Gd  Gd1  1  0.00000000  0.00000000  0.00115200  1
  Ir  Ir0  1  0.66666700  0.33333300  0.66525700  1
  Ir  Ir1  1  0.33333300  0.66666700  0.16525700  1
  Ru  Ru0  1  0.33333300  0.66666700  0.33597100  1
  Ru  Ru1  1  0.66666700  0.33333300  0.83597100  1
  O  O0  1  0.51026700  0.02053400  0.75055600  1
  O  O1  1  0.51026700  0.48973300  0.75055600  1
  O  O2  1  0.97946600  0.48973300  0.75055600  1
  O  O3  1  0.48973300  0.97946600  0.25055600  1
  O  O4  1  0.48973300  0.51026700  0.25055600  1
  O  O5  1  0.02053400  0.51026700  0.25055600  1
  O  O6  1  0.82334100  0.64668200  0.90990700  1
  O  O7  1  0.82334100  0.17665900  0.90990700  1
  O  O8  1  0.35331800  0.17665900  0.90990700  1
  O  O9  1  0.17630700  0.35261300  0.08840700  1
  O  O10  1  0.17630700  0.82369300  0.08840700  1
  O  O11  1  0.64738700  0.82369300  0.08840700  1
  O  O12  1  0.17665900  0.35331800  0.40990700  1
  O  O13  1  0.17665900  0.82334100  0.40990700  1
  O  O14  1  0.64668200  0.82334100  0.40990700  1
  O  O15  1  0.82369300  0.64738700  0.58840700  1
  O  O16  1  0.82369300  0.17630700  0.58840700  1
  O  O17  1  0.35261300  0.17630700  0.58840700  1
loop_
_geom_bond_atom_site_label_1
_geom_bond_atom_site_label_2
_geom_bond_distance
_geom_bond_site_symmetry_2
Ba0 O5 2.911303 1_655
Ba0 O3 2.911303 1_545
Ba0 O4 2.911306 1_555
Ba0 O12 2.991831 1_655
Ba0 O14 2.991831 1_545
Ba0 O13 2.991834 1_655
Ba0 O13 2.991834 1_545
Ba0 O14 2.991837 1_555
Ba0 O12 2.991837 1_555
Ba0 O16 3.191288 1_555
Ba0 O15 3.191293 1_555
Ba0 O17 3.191293 1_555
Ba1 O0 2.914588 1_565
Ba1 O2 2.914588 1_455
Ba1 O1 2.914592 1_555
Ba1 O16 2.993183 1_565
Ba1 O16 2.993183 1_455
Ba1 O15 2.993183 1_455
Ba1 O17 2.993183 1_565
Ba1 O17 2.993184 1_555
Ba1 O15 2.993184 1_555
Ba1 O13 3.221571 1_555
Ba1 O14 3.221573 1_555
Ba1 O12 3.221573 1_555
Ba2 O2 2.911303 1_455
Ba2 O0 2.911303 1_565
Ba2 O1 2.911306 1_555
Ba2 O8 2.991831 1_565
Ba2 O6 2.991831 1_455
Ba2 O7 2.991834 1_565
Ba2 O7 2.991834 1_455
Ba2 O6 2.991837 1_555
Ba2 O8 2.991837 1_555
Ba2 O10 3.191288 1_556
Ba2 O11 3.191293 1_556
Ba2 O9 3.191293 1_556
Ba3 O3 2.914588 1_545
Ba3 O5 2.914588 1_655
Ba3 O4 2.914592 1_555
Ba3 O10 2.993183 1_655
Ba3 O10 2.993183 1_545
Ba3 O11 2.993183 1_545
Ba3 O9 2.993183 1_655
Ba3 O9 2.993184 1_555
Ba3 O11 2.993184 1_555
Ba3 O7 3.221571 1_554
Ba3 O6 3.221573 1_554
Ba3 O8 3.221573 1_554
Ba4 O1 2.990287 1_555
Ba4 O1 2.990287 1_445
Ba4 O2 2.990287 1_445
Ba4 O0 2.990287 1_555
Ba4 O2 2.990287 1_455
Ba4 O0 2.990287 1_455
Ba4 O8 2.995268 1_555
Ba4 O6 2.995268 1_445
Ba4 O7 2.995268 1_455
Ba4 O17 3.010840 1_555
Ba4 O15 3.010840 1_445
Ba4 O16 3.010843 1_455
Ba5 O4 2.990287 1_555
Ba5 O4 2.990287 1_445
Ba5 O3 2.990287 1_445
Ba5 O5 2.990287 1_555
Ba5 O5 2.990287 1_545
Ba5 O3 2.990287 1_545
Ba5 O12 2.995268 1_555
Ba5 O14 2.995268 1_445
Ba5 O13 2.995268 1_545
Ba5 O9 3.010840 1_555
Ba5 O11 3.010840 1_445
Ba5 O10 3.010843 1_545
Gd0 O17 2.237133 1_555
Gd0 O15 2.237133 1_445
Gd0 O16 2.237138 1_455
Gd0 O12 2.274789 1_555
Gd0 O14 2.274789 1_445
Gd0 O13 2.274789 1_545
Gd1 O9 2.237133 1_555
Gd1 O11 2.237133 1_445
Gd1 O10 2.237138 1_545
Gd1 O8 2.274789 1_554
Gd1 O6 2.274789 1_444
Gd1 O7 2.274789 1_454
Ir0 O16 1.985114 1_555
Ir0 O15 1.985122 1_555
Ir0 O17 1.985122 1_555
Ir0 O2 2.054458 1_555
Ir0 O0 2.054458 1_555
Ir0 O1 2.054462 1_555
Ir1 O10 1.985114 1_555
Ir1 O11 1.985122 1_555
Ir1 O9 1.985122 1_555
Ir1 O3 2.054458 1_555
Ir1 O5 2.054458 1_555
Ir1 O4 2.054462 1_555
O0 Ru1 2.055517 1_555
O1 Ru1 2.055521 1_555
O2 Ru1 2.055517 1_555
O3 Ru0 2.055517 1_555
O4 Ru0 2.055521 1_555
O5 Ru0 2.055517 1_555
O6 Ru1 1.957618 1_555
O7 Ru1 1.957614 1_555
O8 Ru1 1.957618 1_555
O12 Ru0 1.957618 1_555
O13 Ru0 1.957614 1_555
O14 Ru0 1.957618 1_555
