# generated using pymatgen
data_TmNi4Au
_symmetry_space_group_name_H-M   'P 1'
_cell_length_a   4.85036334
_cell_length_b   4.85038020
_cell_length_c   4.85036791
_cell_angle_alpha   60.00502211
_cell_angle_beta   60.00487928
_cell_angle_gamma   60.00499347
_symmetry_Int_Tables_number   1
_chemical_formula_structural   TmNi4Au
_chemical_formula_sum   'Tm1 Ni4 Au1'
_cell_volume   80.69722908
_cell_formula_units_Z   1
loop_
 _symmetry_equiv_pos_site_id
 _symmetry_equiv_pos_as_xyz
  1  'x, y, z'
loop_
 _atom_site_type_symbol
 _atom_site_label
 _atom_site_symmetry_multiplicity
 _atom_site_fract_x
 _atom_site_fract_y
 _atom_site_fract_z
 _atom_site_occupancy
  Tm  Tm0  1  -0.00000055  0.99999639  0.99999907  1
  Ni  Ni0  1  0.62421361  0.62421344  0.12736249  1
  Ni  Ni1  1  0.62421339  0.12736394  0.62421325  1
  Ni  Ni2  1  0.12736228  0.62421342  0.62421363  1
  Ni  Ni3  1  0.62421065  0.62421068  0.62421016  1
  Au  Au0  1  0.25000162  0.25000413  0.25000240  1
loop_
_geom_bond_atom_site_label_1
_geom_bond_atom_site_label_2
_geom_bond_distance
_geom_bond_site_symmetry_2
Ni0 Ni3 2.409880 1_555
Ni0 Ni2 2.410088 1_555
Ni0 Ni1 2.410092 1_555
Ni0 Ni3 2.440488 1_554
Ni0 Ni2 2.440635 1_654
Ni0 Ni1 2.440650 1_564
Ni0 Tm0 2.845370 1_654
Ni0 Tm0 2.845558 1_554
Ni0 Tm0 2.845577 1_644
Ni1 Ni3 2.409881 1_555
Ni1 Ni2 2.410091 1_555
Ni1 Ni3 2.440499 1_545
Ni1 Ni2 2.440647 1_645
Ni1 Tm0 2.845372 1_645
Ni1 Tm0 2.845562 1_545
Ni1 Tm0 2.845565 1_644
Ni2 Ni3 2.409880 1_555
Ni2 Ni3 2.440483 1_455
Ni2 Tm0 2.845371 1_555
Ni2 Tm0 2.845561 1_554
Ni2 Tm0 2.845576 1_545
Ni3 Tm0 2.845622 1_555
Ni3 Tm0 2.845623 1_654
Ni3 Tm0 2.845643 1_645
Au0 Ni2 2.842117 1_555
Au0 Ni0 2.842118 1_555
Au0 Ni1 2.842121 1_555
Au0 Ni1 2.842297 1_455
Au0 Ni0 2.842299 1_455
Au0 Ni1 2.842303 1_554
Au0 Ni2 2.842304 1_554
Au0 Ni2 2.842317 1_545
Au0 Ni0 2.842317 1_545
Au0 Ni3 2.842354 1_455
Au0 Ni3 2.842361 1_554
Au0 Ni3 2.842373 1_545
Au0 Tm0 2.970174 1_544
Au0 Tm0 2.970397 1_554
Au0 Tm0 2.970403 1_545
Au0 Tm0 2.970404 1_644
