# generated using pymatgen
data_Cs3Y(PO4)2
_symmetry_space_group_name_H-M   'P 1'
_cell_length_a   10.53033500
_cell_length_b   10.36975900
_cell_length_c   10.73143975
_cell_angle_alpha   72.49866858
_cell_angle_beta   90.00000000
_cell_angle_gamma   90.00000000
_symmetry_Int_Tables_number   1
_chemical_formula_structural   Cs3Y(PO4)2
_chemical_formula_sum   'Cs12 Y4 P8 O32'
_cell_volume   1117.59683103
_cell_formula_units_Z   4
loop_
 _symmetry_equiv_pos_site_id
 _symmetry_equiv_pos_as_xyz
  1  'x, y, z'
loop_
 _atom_site_type_symbol
 _atom_site_label
 _atom_site_symmetry_multiplicity
 _atom_site_fract_x
 _atom_site_fract_y
 _atom_site_fract_z
 _atom_site_occupancy
  Cs  Cs0  1  0.31305500  0.01042700  0.70509600  1
  Cs  Cs1  1  0.81305500  0.98957300  0.29490400  1
  Cs  Cs2  1  0.46273800  0.96547400  0.16519300  1
  Cs  Cs3  1  0.96273800  0.03452600  0.83480700  1
  Cs  Cs4  1  0.33209700  0.72099500  0.51909400  1
  Cs  Cs5  1  0.83209700  0.27900500  0.48090600  1
  Cs  Cs6  1  0.41417200  0.47781600  0.27785600  1
  Cs  Cs7  1  0.91417200  0.52218400  0.72214400  1
  Cs  Cs8  1  0.25135800  0.27501200  0.93450800  1
  Cs  Cs9  1  0.75135800  0.72498800  0.06549200  1
  Cs  Cs10  1  0.21231400  0.66796200  0.95532400  1
  Cs  Cs11  1  0.71231400  0.33203800  0.04467600  1
  Y  Y0  1  0.52241600  0.34409500  0.66108400  1
  Y  Y1  1  0.02241600  0.65590500  0.33891600  1
  Y  Y2  1  0.66625200  0.84183400  0.66130200  1
  Y  Y3  1  0.16625200  0.15816600  0.33869800  1
  P  P0  1  0.64175900  0.09938500  0.84730800  1
  P  P1  1  0.14175900  0.90061500  0.15269200  1
  P  P2  1  0.17822400  0.36290300  0.57460200  1
  P  P3  1  0.67822400  0.63709700  0.42539800  1
  P  P4  1  0.01117500  0.86758100  0.57594600  1
  P  P5  1  0.51117500  0.13241900  0.42405400  1
  P  P6  1  0.53834100  0.60184200  0.84364600  1
  P  P7  1  0.03834100  0.39815800  0.15635400  1
  O  O0  1  0.12264600  0.50537300  0.49967900  1
  O  O1  1  0.62264600  0.49462700  0.50032100  1
  O  O2  1  0.09465700  0.29293700  0.69323100  1
  O  O3  1  0.59465700  0.70706300  0.30676900  1
  O  O4  1  0.31521100  0.38676800  0.62121600  1
  O  O5  1  0.81521100  0.61323200  0.37878400  1
  O  O6  1  0.18686900  0.27795200  0.47884100  1
  O  O7  1  0.68686900  0.72204800  0.52115900  1
  O  O8  1  0.06107600  0.01125700  0.49804300  1
  O  O9  1  0.56107600  0.98874300  0.50195700  1
  O  O10  1  0.87299500  0.88850200  0.62170900  1
  O  O11  1  0.37299500  0.11149800  0.37829100  1
  O  O12  1  0.09599500  0.80300200  0.69486600  1
  O  O13  1  0.59599500  0.19699800  0.30513400  1
  O  O14  1  0.00695400  0.77888100  0.48184300  1
  O  O15  1  0.50695400  0.22111900  0.51815700  1
  O  O16  1  0.47375400  0.73360500  0.75299700  1
  O  O17  1  0.97375400  0.26639500  0.24700300  1
  O  O18  1  0.49539100  0.56712500  0.98657600  1
  O  O19  1  0.99539100  0.43287500  0.01342400  1
  O  O20  1  0.51221600  0.47961500  0.79016800  1
  O  O21  1  0.01221600  0.52038500  0.20983200  1
  O  O22  1  0.68483900  0.63746000  0.82977000  1
  O  O23  1  0.18483900  0.36254000  0.17023000  1
  O  O24  1  0.66150600  0.97771300  0.79173200  1
  O  O25  1  0.16150600  0.02228700  0.20826800  1
  O  O26  1  0.49773500  0.14269000  0.84017900  1
  O  O27  1  0.99773500  0.85731000  0.15982100  1
  O  O28  1  0.70883500  0.22955000  0.75484900  1
  O  O29  1  0.20883500  0.77045000  0.24515100  1
  O  O30  1  0.69490100  0.06096600  0.98733700  1
  O  O31  1  0.19490100  0.93903400  0.01266300  1
loop_
_geom_bond_atom_site_label_1
_geom_bond_atom_site_label_2
_geom_bond_distance
_geom_bond_site_symmetry_2
Cs0 O26 2.993393 1_555
Cs0 O12 3.163091 1_545
Cs0 O15 3.214161 1_555
Cs0 O16 3.237365 1_545
Cs0 O6 3.362406 1_555
Cs0 O31 3.394206 1_546
Cs0 O11 3.403786 1_555
Cs0 O9 3.452373 1_545
Cs0 O8 3.459250 1_555
Cs0 O2 3.696388 1_555
Cs1 O27 2.993393 1_555
Cs1 O13 3.163091 1_565
Cs1 O14 3.214161 1_655
Cs1 O17 3.237365 1_565
Cs1 O7 3.362406 1_555
Cs1 O30 3.394206 1_564
Cs1 O10 3.403786 1_555
Cs1 O8 3.452373 1_665
Cs1 O9 3.459250 1_555
Cs1 O3 3.696388 1_555
Cs2 O3 2.994989 1_555
Cs2 O30 3.076292 1_564
Cs2 O11 3.240121 1_565
Cs2 O25 3.284298 1_565
Cs2 O29 3.306215 1_555
Cs2 O31 3.313482 1_555
Cs2 O26 3.438464 1_564
Cs2 O13 3.486693 1_565
Cs3 O2 2.994989 1_655
Cs3 O31 3.076292 1_646
Cs3 O10 3.240121 1_545
Cs3 O24 3.284298 1_545
Cs3 O28 3.306215 1_555
Cs3 O30 3.313482 1_555
Cs3 O27 3.438464 1_546
Cs3 O12 3.486693 1_645
Cs4 O16 2.956409 1_555
Cs4 O29 3.111823 1_555
Cs4 O0 3.191817 1_555
Cs4 O4 3.310633 1_555
Cs4 O12 3.380442 1_555
Cs4 O14 3.478311 1_555
Cs4 O3 3.613175 1_555
Cs4 O9 3.639997 1_555
Cs5 O17 2.956409 1_555
Cs5 O28 3.111823 1_555
Cs5 O1 3.191817 1_555
Cs5 O5 3.310633 1_555
Cs5 O13 3.380442 1_555
Cs5 O15 3.478311 1_555
Cs5 O2 3.613175 1_655
Cs5 O8 3.639997 1_655
Cs6 O23 3.070069 1_555
Cs6 O18 3.101447 1_554
Cs6 O3 3.131025 1_555
Cs6 O15 3.249871 1_555
Cs6 O1 3.286272 1_555
Cs6 O13 3.423263 1_555
Cs6 O6 3.462378 1_555
Cs6 O11 3.649218 1_555
Cs6 O29 3.656018 1_555
Cs6 O4 3.669101 1_555
Cs7 O22 3.070069 1_555
Cs7 O19 3.101447 1_556
Cs7 O2 3.131025 1_655
Cs7 O14 3.249871 1_655
Cs7 O0 3.286272 1_655
Cs7 O12 3.423263 1_655
Cs7 O7 3.462378 1_555
Cs7 O10 3.649218 1_555
Cs7 O28 3.656018 1_555
Cs7 O5 3.669101 1_555
Cs8 O23 3.015706 1_556
Cs8 O2 3.028559 1_555
Cs8 O26 3.236358 1_555
Cs8 O4 3.279519 1_555
Cs8 O31 3.381968 1_546
Cs8 O19 3.390588 1_456
Cs8 O25 3.429792 1_556
Cs8 O20 3.531261 1_555
Cs9 O22 3.015706 1_554
Cs9 O3 3.028559 1_555
Cs9 O27 3.236358 1_555
Cs9 O5 3.279519 1_555
Cs9 O30 3.381968 1_564
Cs9 O18 3.390588 1_554
Cs9 O24 3.429792 1_554
Cs9 O21 3.531261 1_655
Cs10 O12 2.986578 1_555
Cs10 O31 3.058434 1_556
Cs10 O18 3.143356 1_555
Cs10 O19 3.261182 1_456
Cs10 O23 3.322675 1_556
Cs10 O21 3.424550 1_556
Cs10 O16 3.445007 1_555
Cs10 O29 3.576685 1_556
Cs11 O13 2.986578 1_555
Cs11 O30 3.058434 1_554
Cs11 O19 3.143356 1_555
Cs11 O18 3.261182 1_554
Cs11 O22 3.322675 1_554
Cs11 O20 3.424550 1_554
Cs11 O17 3.445007 1_555
Cs11 O28 3.576685 1_554
O0 P2 1.567544 1_555
O0 Y1 2.215239 1_555
O1 P3 1.567544 1_555
O1 Y0 2.215239 1_555
O2 P2 1.538156 1_555
O3 P3 1.538156 1_555
O4 P2 1.570604 1_555
O4 Y0 2.241840 1_555
O5 P3 1.570604 1_555
O5 Y1 2.241840 1_655
O6 P2 1.544302 1_555
O6 Y3 2.230581 1_555
O7 P3 1.544302 1_555
O7 Y2 2.230581 1_555
O8 P4 1.563856 1_545
O8 Y3 2.214659 1_555
O9 P5 1.563856 1_565
O9 Y2 2.214659 1_555
O10 P4 1.571493 1_655
O10 Y2 2.242923 1_555
O11 P5 1.571493 1_555
O11 Y3 2.242923 1_555
O12 P4 1.536509 1_555
O13 P5 1.536509 1_555
O14 P4 1.557721 1_555
O14 Y1 2.276342 1_555
O15 P5 1.557721 1_555
O15 Y0 2.276342 1_555
O16 P6 1.573648 1_555
O16 Y2 2.381732 1_555
O17 P7 1.573648 1_655
O17 Y3 2.381732 1_655
O18 P6 1.534509 1_555
O19 P7 1.534509 1_655
O20 P6 1.564928 1_555
O20 Y0 2.253050 1_555
O21 P7 1.564928 1_555
O21 Y1 2.253050 1_555
O22 P6 1.582831 1_555
O22 Y2 2.343889 1_555
O23 P7 1.582831 1_555
O23 Y3 2.343889 1_555
O24 P0 1.563154 1_565
O24 Y2 2.265666 1_555
O25 P1 1.563154 1_545
O25 Y3 2.265666 1_555
O26 P0 1.577018 1_555
O26 Y0 2.389370 1_555
O27 P1 1.577018 1_655
O27 Y1 2.389370 1_655
O28 P0 1.581073 1_555
O28 Y0 2.357563 1_555
O29 P1 1.581073 1_555
O29 Y1 2.357563 1_555
O30 P0 1.539462 1_555
O31 P1 1.539462 1_555
