# generated using pymatgen
data_Ca2CdP2
_symmetry_space_group_name_H-M   'P 1'
_cell_length_a   8.29689299
_cell_length_b   8.29689299
_cell_length_c   7.07489764
_cell_angle_alpha   90.00000000
_cell_angle_beta   90.00000000
_cell_angle_gamma   150.68276245
_symmetry_Int_Tables_number   1
_chemical_formula_structural   Ca2CdP2
_chemical_formula_sum   'Ca4 Cd2 P4'
_cell_volume   238.46919165
_cell_formula_units_Z   2
loop_
 _symmetry_equiv_pos_site_id
 _symmetry_equiv_pos_as_xyz
  1  'x, y, z'
loop_
 _atom_site_type_symbol
 _atom_site_label
 _atom_site_symmetry_multiplicity
 _atom_site_fract_x
 _atom_site_fract_y
 _atom_site_fract_z
 _atom_site_occupancy
  Ca  Ca0  1  0.29923592  0.70076408  0.92530569  1
  Ca  Ca1  1  0.70076408  0.29923592  0.42530569  1
  Ca  Ca2  1  0.46461887  0.53538113  0.26952148  1
  Ca  Ca3  1  0.53538113  0.46461887  0.76952148  1
  Cd  Cd0  1  0.09866881  0.90133119  0.10922703  1
  Cd  Cd1  1  0.90133119  0.09866881  0.60922703  1
  P  P0  1  0.06226481  0.93773519  0.47792326  1
  P  P1  1  0.93773519  0.06226481  0.97792326  1
  P  P2  1  0.32033545  0.67966455  0.50669255  1
  P  P3  1  0.67966455  0.32033545  0.00669255  1
loop_
_geom_bond_atom_site_label_1
_geom_bond_atom_site_label_2
_geom_bond_distance
_geom_bond_site_symmetry_2
Ca0 P3 2.902517 1_566
Ca0 P3 2.902517 1_456
Ca0 P2 2.980952 1_555
Ca0 P1 3.080670 1_565
Ca0 P1 3.080670 1_455
Ca1 P2 2.902517 1_655
Ca1 P2 2.902517 1_545
Ca1 P3 2.980952 1_555
Ca1 P0 3.080670 1_655
Ca1 P0 3.080670 1_545
Ca2 P2 2.860192 1_555
Ca2 P1 2.975011 1_564
Ca2 P1 2.975011 1_454
Ca2 P0 3.006585 1_545
Ca2 P0 3.006585 1_655
Ca3 P3 2.860192 1_556
Ca3 P0 2.975011 1_545
Ca3 P0 2.975011 1_655
Ca3 P1 3.006585 1_455
Ca3 P1 3.006585 1_565
Cd0 P3 2.573967 1_455
Cd0 P3 2.573967 1_565
Cd0 P0 2.673154 1_555
Cd0 P1 2.745511 1_464
Cd1 P2 2.573967 1_545
Cd1 P2 2.573967 1_655
Cd1 P1 2.673154 1_555
Cd1 P0 2.745511 1_645
