# generated using pymatgen
data_GdFeAsO
_symmetry_space_group_name_H-M   'P 1'
_cell_length_a   3.99652400
_cell_length_b   3.99652400
_cell_length_c   9.11060600
_cell_angle_alpha   90.00000000
_cell_angle_beta   90.00000000
_cell_angle_gamma   90.00000000
_symmetry_Int_Tables_number   1
_chemical_formula_structural   GdFeAsO
_chemical_formula_sum   'Gd2 Fe2 As2 O2'
_cell_volume   145.51645835
_cell_formula_units_Z   2
loop_
 _symmetry_equiv_pos_site_id
 _symmetry_equiv_pos_as_xyz
  1  'x, y, z'
loop_
 _atom_site_type_symbol
 _atom_site_label
 _atom_site_symmetry_multiplicity
 _atom_site_fract_x
 _atom_site_fract_y
 _atom_site_fract_z
 _atom_site_occupancy
  Gd  Gd0  1  0.50000000  0.00000000  0.62284100  1
  Gd  Gd1  1  0.00000000  0.50000000  0.37715900  1
  Fe  Fe0  1  0.00000000  0.00000000  0.00000000  1
  Fe  Fe1  1  0.50000000  0.50000000  0.00000000  1
  As  As0  1  0.00000000  0.50000000  0.81713700  1
  As  As1  1  0.50000000  0.00000000  0.18286300  1
  O  O0  1  0.00000000  0.00000000  0.50000000  1
  O  O1  1  0.50000000  0.50000000  0.50000000  1
loop_
_geom_bond_atom_site_label_1
_geom_bond_atom_site_label_2
_geom_bond_distance
_geom_bond_site_symmetry_2
Gd0 O1 2.290319 1_545
Gd0 O0 2.290319 1_655
Gd0 O1 2.290319 1_555
Gd0 O0 2.290319 1_555
Gd1 O1 2.290319 1_455
Gd1 O1 2.290319 1_555
Gd1 O0 2.290319 1_555
Gd1 O0 2.290319 1_565
As0 Fe1 2.601650 1_456
As0 Fe0 2.601650 1_556
As0 Fe1 2.601650 1_556
As0 Fe0 2.601650 1_566
As0 Gd0 3.334599 1_455
As0 Gd0 3.334599 1_465
As0 Gd0 3.334599 1_555
As0 Gd0 3.334599 1_565
As1 Fe1 2.601650 1_545
As1 Fe0 2.601650 1_555
As1 Fe0 2.601650 1_655
As1 Fe1 2.601650 1_555
As1 Gd1 3.334599 1_555
As1 Gd1 3.334599 1_545
As1 Gd1 3.334599 1_645
As1 Gd1 3.334599 1_655
