# generated using pymatgen
data_HoScSi
_symmetry_space_group_name_H-M   'P 1'
_cell_length_a   6.11643414
_cell_length_b   8.58011192
_cell_length_c   9.07651906
_cell_angle_alpha   58.06589602
_cell_angle_beta   89.99674033
_cell_angle_gamma   90.01910578
_symmetry_Int_Tables_number   1
_chemical_formula_structural   HoScSi
_chemical_formula_sum   'Ho6 Sc6 Si6'
_cell_volume   404.24321214
_cell_formula_units_Z   6
loop_
 _symmetry_equiv_pos_site_id
 _symmetry_equiv_pos_as_xyz
  1  'x, y, z'
loop_
 _atom_site_type_symbol
 _atom_site_label
 _atom_site_symmetry_multiplicity
 _atom_site_fract_x
 _atom_site_fract_y
 _atom_site_fract_z
 _atom_site_occupancy
  Ho  Ho0  1  0.75020900  0.27081100  0.70468000  1
  Ho  Ho1  1  0.74979100  0.72916900  0.97544300  1
  Ho  Ho2  1  0.74999700  0.00022300  0.30722100  1
  Ho  Ho3  1  0.24981500  0.74617500  0.25216500  1
  Ho  Ho4  1  0.25017600  0.25387400  0.99829000  1
  Ho  Ho5  1  0.25000200  0.99988700  0.75222900  1
  Sc  Sc0  1  0.49873600  0.30907100  0.34875700  1
  Sc  Sc1  1  0.49867300  0.69085700  0.65797000  1
  Sc  Sc2  1  0.00119700  0.69089900  0.65786400  1
  Sc  Sc3  1  0.00138500  0.30916400  0.34875000  1
  Sc  Sc4  1  0.74971400  0.63775600  0.35782700  1
  Sc  Sc5  1  0.75029600  0.36249100  0.99540000  1
  Si  Si0  1  0.55611500  0.99986500  0.02280900  1
  Si  Si1  1  0.94390800  0.99987300  0.02280900  1
  Si  Si2  1  0.74997800  0.00008000  0.61808300  1
  Si  Si3  1  0.25028700  0.40547100  0.58272200  1
  Si  Si4  1  0.24973800  0.59435700  0.98823200  1
  Si  Si5  1  0.24998400  0.99997800  0.40874900  1
loop_
_geom_bond_atom_site_label_1
_geom_bond_atom_site_label_2
_geom_bond_distance
_geom_bond_site_symmetry_2
Ho0 Si2 2.818716 1_555
Ho0 Si1 2.836648 1_546
Ho0 Si0 2.836892 1_546
Ho0 Sc4 3.055844 1_555
Ho0 Sc5 3.126898 1_555
Ho0 Si3 3.249584 1_555
Ho0 Si3 3.249639 1_655
Ho1 Si2 2.819204 1_565
Ho1 Si0 2.835615 1_556
Ho1 Si1 2.836177 1_556
Ho1 Sc5 3.054199 1_555
Ho1 Sc4 3.127502 1_556
Ho1 Si4 3.249872 1_555
Ho1 Si4 3.250000 1_655
Ho2 Si2 2.820896 1_555
Ho2 Si1 2.842280 1_545
Ho2 Si0 2.842361 1_545
Ho2 Sc5 2.892287 1_554
Ho2 Sc4 2.893428 1_545
Ho2 Si5 3.193695 1_645
Ho2 Si5 3.193745 1_545
Ho2 Sc0 3.253568 1_555
Ho2 Sc3 3.253785 1_655
Ho2 Sc1 3.255928 1_545
Ho2 Sc2 3.255943 1_645
Ho3 Si1 2.789661 1_455
Ho3 Si0 2.790115 1_555
Ho3 Si3 2.875581 1_555
Ho3 Si5 3.168003 1_555
Ho3 Sc4 3.192566 1_555
Ho3 Sc4 3.193051 1_455
Ho3 Si4 3.276713 1_554
Ho4 Si0 2.791180 1_546
Ho4 Si1 2.791487 1_446
Ho4 Si4 2.874141 1_555
Ho4 Si5 3.168530 1_546
Ho4 Sc5 3.192720 1_455
Ho4 Sc5 3.193528 1_555
Ho4 Si3 3.275512 1_555
Ho5 Si4 2.968261 1_555
Ho5 Si3 2.968707 1_565
Ho5 Si1 3.088022 1_456
Ho5 Si0 3.088233 1_556
Ho5 Si5 3.117190 1_555
Ho5 Si2 3.291160 1_565
Ho5 Si2 3.291563 1_465
Sc0 Si5 2.848561 1_545
Sc0 Si2 2.917715 1_555
Sc0 Si3 3.059677 1_555
Sc0 Si4 3.247863 1_554
Sc0 Sc4 3.249505 1_555
Sc0 Sc5 3.362710 1_554
Sc1 Si5 2.849810 1_555
Sc1 Si2 2.917891 1_565
Sc1 Si4 3.059839 1_555
Sc1 Si3 3.246114 1_555
Sc1 Sc5 3.249860 1_555
Sc1 Sc4 3.361528 1_555
Sc2 Si5 2.848575 1_555
Sc2 Si2 2.918607 1_465
Sc2 Si4 3.059801 1_555
Sc2 Sc5 3.247316 1_455
Sc2 Si3 3.248586 1_555
Sc2 Sc4 3.362121 1_455
Sc3 Si5 2.849682 1_545
Sc3 Si2 2.917562 1_455
Sc3 Si3 3.060445 1_555
Sc3 Si4 3.244860 1_554
Sc3 Sc4 3.251722 1_455
Sc3 Sc5 3.361938 1_454
Sc4 Si0 3.210932 1_555
Sc4 Si1 3.211415 1_555
Sc5 Si1 3.213740 1_546
Sc5 Si0 3.214311 1_546
Si0 Si1 2.371910 1_555
