# generated using pymatgen
data_Ce2AlRu
_symmetry_space_group_name_H-M   'P 1'
_cell_length_a   7.81510347
_cell_length_b   7.81510297
_cell_length_c   9.85634116
_cell_angle_alpha   90.00000000
_cell_angle_beta   90.00000000
_cell_angle_gamma   119.99999791
_symmetry_Int_Tables_number   1
_chemical_formula_structural   Ce2AlRu
_chemical_formula_sum   'Ce12 Al6 Ru6'
_cell_volume   521.33370703
_cell_formula_units_Z   6
loop_
 _symmetry_equiv_pos_site_id
 _symmetry_equiv_pos_as_xyz
  1  'x, y, z'
loop_
 _atom_site_type_symbol
 _atom_site_label
 _atom_site_symmetry_multiplicity
 _atom_site_fract_x
 _atom_site_fract_y
 _atom_site_fract_z
 _atom_site_occupancy
  Ce  Ce0  1  -0.00000000  0.57805324  0.49791432  1
  Ce  Ce1  1  0.57805324  0.00000000  0.49791432  1
  Ce  Ce2  1  0.42194676  0.42194676  0.49791432  1
  Ce  Ce3  1  0.00000000  0.42194676  -0.00208568  1
  Ce  Ce4  1  0.42194676  1.00000000  -0.00208568  1
  Ce  Ce5  1  0.57805324  0.57805324  -0.00208568  1
  Ce  Ce6  1  0.00000000  0.74475413  0.17970609  1
  Ce  Ce7  1  0.74475413  1.00000000  0.17970609  1
  Ce  Ce8  1  0.25524587  0.25524587  0.17970609  1
  Ce  Ce9  1  -0.00000000  0.25524587  0.67970609  1
  Ce  Ce10  1  0.25524587  0.00000000  0.67970609  1
  Ce  Ce11  1  0.74475413  0.74475413  0.67970609  1
  Al  Al0  1  0.66666700  0.33333300  0.26411554  1
  Al  Al1  1  0.33333300  0.66666700  0.26411554  1
  Al  Al2  1  0.33333300  0.66666700  0.76411554  1
  Al  Al3  1  0.66666700  0.33333300  0.76411554  1
  Al  Al4  1  0.00000000  -0.00000000  0.42726385  1
  Al  Al5  1  0.00000000  -0.00000000  0.92726385  1
  Ru  Ru0  1  0.00000000  0.34500865  0.34208960  1
  Ru  Ru1  1  0.34500865  1.00000000  0.34208960  1
  Ru  Ru2  1  0.65499135  0.65499135  0.34208960  1
  Ru  Ru3  1  -0.00000000  0.65499135  0.84208960  1
  Ru  Ru4  1  0.65499135  0.00000000  0.84208960  1
  Ru  Ru5  1  0.34500865  0.34500865  0.84208960  1
loop_
_geom_bond_atom_site_label_1
_geom_bond_atom_site_label_2
_geom_bond_distance
_geom_bond_site_symmetry_2
Ce0 Ru0 2.382412 1_555
Ce1 Ru1 2.382412 1_545
Ce2 Ru2 2.382412 1_555
Ce3 Ru3 2.382412 1_554
Ce4 Ru4 2.382412 1_564
Ce5 Ru5 2.382412 1_554
Ce6 Ru1 2.903824 1_555
Ce6 Ru2 2.903824 1_455
Ce7 Ru2 2.903824 1_555
Ce7 Ru0 2.903824 1_665
Ce8 Ru1 2.903824 1_545
Ce8 Ru0 2.903824 1_555
Ce9 Ru4 2.903824 1_455
Ce9 Ru5 2.903824 1_555
Ce10 Ru5 2.903824 1_555
Ce10 Ru3 2.903824 1_545
Ce11 Ru4 2.903824 1_565
Ce11 Ru3 2.903824 1_655
Al0 Ru0 2.673475 1_655
Al0 Ru1 2.673479 1_545
Al0 Ru2 2.673482 1_555
Al0 Ce7 3.072543 1_545
Al0 Ce6 3.072548 1_655
Al0 Ce8 3.072551 1_555
Al0 Ce1 3.282071 1_555
Al0 Ce0 3.282073 1_655
Al0 Ce2 3.282077 1_555
Al0 Ce3 3.513673 1_655
Al0 Ce4 3.513675 1_545
Al0 Ce5 3.513678 1_555
Al1 Ru1 2.673475 1_555
Al1 Ru0 2.673479 1_555
Al1 Ru2 2.673483 1_555
Al1 Ce6 3.072543 1_555
Al1 Ce7 3.072548 1_555
Al1 Ce8 3.072551 1_555
Al1 Ce0 3.282072 1_555
Al1 Ce1 3.282073 1_565
Al1 Ce2 3.282077 1_555
Al1 Ce4 3.513673 1_555
Al1 Ce3 3.513675 1_555
Al1 Ce5 3.513678 1_555
Al2 Ru3 2.673475 1_555
Al2 Ru4 2.673479 1_565
Al2 Ru5 2.673482 1_555
Al2 Ce10 3.072543 1_565
Al2 Ce9 3.072548 1_555
Al2 Ce11 3.072551 1_555
Al2 Ce4 3.282071 1_556
Al2 Ce3 3.282073 1_556
Al2 Ce5 3.282077 1_556
Al2 Ce0 3.513673 1_555
Al2 Ce1 3.513675 1_565
Al2 Ce2 3.513678 1_555
Al3 Ru4 2.673475 1_555
Al3 Ru3 2.673479 1_655
Al3 Ru5 2.673483 1_555
Al3 Ce9 3.072543 1_655
Al3 Ce10 3.072548 1_555
Al3 Ce11 3.072551 1_555
Al3 Ce3 3.282072 1_656
Al3 Ce4 3.282073 1_546
Al3 Ce5 3.282077 1_556
Al3 Ce1 3.513673 1_555
Al3 Ce0 3.513675 1_655
Al3 Ce2 3.513678 1_555
Al4 Ru0 2.823949 1_555
Al4 Ru2 2.823949 1_445
Al4 Ru1 2.823949 1_545
Al4 Ce6 3.151632 1_545
Al4 Ce8 3.151632 1_555
Al4 Ce7 3.151632 1_445
Al4 Ce9 3.189050 1_555
Al4 Ce11 3.189051 1_445
Al4 Ce10 3.189051 1_555
Al4 Ce0 3.370281 1_545
Al4 Ce2 3.370281 1_555
Al4 Ce1 3.370281 1_455
Al5 Ru3 2.823949 1_545
Al5 Ru5 2.823949 1_555
Al5 Ru4 2.823949 1_455
Al5 Ce9 3.151632 1_555
Al5 Ce11 3.151632 1_445
Al5 Ce10 3.151632 1_555
Al5 Ce6 3.189050 1_546
Al5 Ce8 3.189051 1_556
Al5 Ce7 3.189051 1_446
Al5 Ce3 3.370281 1_556
Al5 Ce5 3.370281 1_446
Al5 Ce4 3.370281 1_546
