# generated using pymatgen
data_Co2NiO4
_symmetry_space_group_name_H-M   'P 1'
_cell_length_a   6.40972680
_cell_length_b   5.86801145
_cell_length_c   5.85919133
_cell_angle_alpha   79.92531846
_cell_angle_beta   55.37496333
_cell_angle_gamma   55.30985716
_symmetry_Int_Tables_number   1
_chemical_formula_structural   Co2NiO4
_chemical_formula_sum   'Co4 Ni2 O8'
_cell_volume   145.47727143
_cell_formula_units_Z   2
loop_
 _symmetry_equiv_pos_site_id
 _symmetry_equiv_pos_as_xyz
  1  'x, y, z'
loop_
 _atom_site_type_symbol
 _atom_site_label
 _atom_site_symmetry_multiplicity
 _atom_site_fract_x
 _atom_site_fract_y
 _atom_site_fract_z
 _atom_site_occupancy
  Co  Co0  1  0.74998800  0.87501100  0.62504000  1
  Co  Co1  1  0.25003900  0.37500400  0.12494300  1
  Co  Co2  1  0.75006500  0.37503900  0.62495900  1
  Co  Co3  1  0.24995000  0.37501100  0.62502100  1
  Ni  Ni0  1  0.49883600  0.72273100  0.27798200  1
  Ni  Ni1  1  0.00091000  0.02698200  0.97248800  1
  O  O0  1  0.29084100  0.60196500  0.84102300  1
  O  O1  1  0.20925600  0.14800400  0.40876300  1
  O  O2  1  0.70994700  0.15750700  0.39761900  1
  O  O3  1  0.27863700  0.13378900  0.87774300  1
  O  O4  1  0.72165300  0.12270600  0.86712500  1
  O  O5  1  0.78997300  0.59269100  0.85238100  1
  O  O6  1  0.22132300  0.61624000  0.37226600  1
  O  O7  1  0.77858400  0.62732000  0.38264900  1
loop_
_geom_bond_atom_site_label_1
_geom_bond_atom_site_label_2
_geom_bond_distance
_geom_bond_site_symmetry_2
Co0 O5 1.927984 1_555
Co0 O2 1.928970 1_565
Co0 O6 2.026493 1_655
Co0 O3 2.026555 1_565
Co0 O4 2.070160 1_565
Co0 O7 2.070329 1_555
Co1 O1 1.932729 1_555
Co1 O0 1.932981 1_554
Co1 O7 2.026803 1_455
Co1 O4 2.027483 1_554
Co1 O3 2.062804 1_554
Co1 O6 2.062924 1_555
Co2 O4 1.875402 1_555
Co2 O7 1.875740 1_555
Co2 O1 1.983065 1_655
Co2 O0 1.983328 1_555
Co2 O5 2.197012 1_555
Co2 O2 2.197175 1_555
Co3 O3 1.873468 1_555
Co3 O6 1.873584 1_555
Co3 O5 1.985963 1_455
Co3 O2 1.986130 1_555
Co3 O0 2.192718 1_555
Co3 O1 2.193085 1_555
Ni0 O6 1.971677 1_555
Ni0 O7 1.972709 1_555
Ni0 O5 2.009899 1_554
Ni0 O1 2.010019 1_565
Ni1 O4 1.972448 1_455
Ni1 O3 1.973617 1_555
Ni1 O2 2.007941 1_456
Ni1 O0 2.009143 1_545
