# generated using pymatgen
data_RbSrMg6
_symmetry_space_group_name_H-M   'P 1'
_cell_length_a   5.56262100
_cell_length_b   7.18540800
_cell_length_c   12.45083400
_cell_angle_alpha   90.00000000
_cell_angle_beta   90.00000000
_cell_angle_gamma   90.00000000
_symmetry_Int_Tables_number   1
_chemical_formula_structural   RbSrMg6
_chemical_formula_sum   'Rb2 Sr2 Mg12'
_cell_volume   497.65611759
_cell_formula_units_Z   2
loop_
 _symmetry_equiv_pos_site_id
 _symmetry_equiv_pos_as_xyz
  1  'x, y, z'
loop_
 _atom_site_type_symbol
 _atom_site_label
 _atom_site_symmetry_multiplicity
 _atom_site_fract_x
 _atom_site_fract_y
 _atom_site_fract_z
 _atom_site_occupancy
  Rb  Rb0  1  0.00000000  0.50000000  0.34136800  1
  Rb  Rb1  1  0.00000000  0.00000000  0.84136800  1
  Sr  Sr0  1  0.50000000  0.50000000  0.15910500  1
  Sr  Sr1  1  0.50000000  0.00000000  0.65910500  1
  Mg  Mg0  1  0.00000000  0.24037000  0.08225700  1
  Mg  Mg1  1  0.00000000  0.75963000  0.08225700  1
  Mg  Mg2  1  0.00000000  0.00000000  0.33273000  1
  Mg  Mg3  1  0.50000000  0.77061600  0.41831000  1
  Mg  Mg4  1  0.50000000  0.22938400  0.41831000  1
  Mg  Mg5  1  0.50000000  0.00000000  0.16566200  1
  Mg  Mg6  1  0.00000000  0.74037000  0.58225700  1
  Mg  Mg7  1  0.00000000  0.25963000  0.58225700  1
  Mg  Mg8  1  0.00000000  0.50000000  0.83273000  1
  Mg  Mg9  1  0.50000000  0.27061600  0.91831000  1
  Mg  Mg10  1  0.50000000  0.72938400  0.91831000  1
  Mg  Mg11  1  0.50000000  0.50000000  0.66566200  1
loop_
_geom_bond_atom_site_label_1
_geom_bond_atom_site_label_2
_geom_bond_distance
_geom_bond_site_symmetry_2
Rb0 Sr0 3.589642 1_455
Rb0 Sr0 3.589642 1_555
Rb1 Sr1 3.589642 1_455
Rb1 Sr1 3.589642 1_555
Mg0 Mg5 3.434700 1_455
Mg0 Mg5 3.434700 1_555
Mg0 Mg1 3.454313 1_545
Mg0 Mg9 3.456838 1_554
Mg0 Mg9 3.456838 1_454
Mg0 Rb1 3.461024 1_554
Mg0 Sr0 3.483025 1_455
Mg0 Sr0 3.483025 1_555
Mg0 Mg2 3.564929 1_555
Mg0 Mg8 3.623892 1_554
Mg0 Rb0 3.726701 1_555
Mg1 Mg5 3.434700 1_565
Mg1 Mg5 3.434700 1_465
Mg1 Mg10 3.456838 1_554
Mg1 Mg10 3.456838 1_454
Mg1 Rb1 3.461024 1_564
Mg1 Sr0 3.483025 1_455
Mg1 Sr0 3.483025 1_555
Mg1 Mg2 3.564929 1_565
Mg1 Mg8 3.623892 1_554
Mg1 Rb0 3.726701 1_555
Mg2 Mg4 3.404070 1_455
Mg2 Mg4 3.404070 1_555
Mg2 Mg3 3.404070 1_545
Mg2 Mg3 3.404070 1_445
Mg2 Mg5 3.473133 1_555
Mg2 Mg5 3.473133 1_455
Mg2 Rb0 3.594313 1_545
Mg2 Rb0 3.594313 1_555
Mg2 Mg6 3.623892 1_545
Mg2 Mg7 3.623892 1_555
Mg3 Mg4 3.296435 1_565
Mg3 Sr1 3.421289 1_565
Mg3 Mg6 3.456838 1_555
Mg3 Mg6 3.456838 1_655
Mg3 Rb0 3.526254 1_555
Mg3 Rb0 3.526254 1_655
Mg3 Mg5 3.551326 1_565
Mg3 Sr0 3.767839 1_555
Mg4 Sr1 3.421289 1_555
Mg4 Mg7 3.456838 1_655
Mg4 Mg7 3.456838 1_555
Mg4 Rb0 3.526254 1_555
Mg4 Rb0 3.526254 1_655
Mg4 Mg5 3.551326 1_555
Mg4 Sr0 3.767839 1_555
Mg5 Sr0 3.593631 1_555
Mg5 Sr0 3.593631 1_545
Mg6 Mg7 3.454313 1_555
Mg6 Rb0 3.461024 1_555
Mg6 Sr1 3.483025 1_465
Mg6 Sr1 3.483025 1_565
Mg6 Mg8 3.564929 1_555
Mg6 Rb1 3.726701 1_565
Mg7 Rb0 3.461024 1_555
Mg7 Sr1 3.483025 1_555
Mg7 Sr1 3.483025 1_455
Mg7 Mg8 3.564929 1_555
Mg7 Rb1 3.726701 1_555
Mg8 Mg9 3.404070 1_455
Mg8 Mg9 3.404070 1_555
Mg8 Rb1 3.594313 1_565
Mg8 Rb1 3.594313 1_555
Mg9 Sr0 3.421289 1_556
Mg9 Rb1 3.526254 1_555
Mg9 Rb1 3.526254 1_655
Mg9 Sr1 3.767839 1_555
Mg10 Mg9 3.296435 1_555
Mg10 Mg8 3.404070 1_555
Mg10 Mg8 3.404070 1_655
Mg10 Sr0 3.421289 1_556
Mg10 Rb1 3.526254 1_665
Mg10 Rb1 3.526254 1_565
Mg10 Mg11 3.551326 1_555
Mg10 Sr1 3.767839 1_565
Mg11 Mg7 3.434700 1_655
Mg11 Mg7 3.434700 1_555
Mg11 Mg6 3.434700 1_555
Mg11 Mg6 3.434700 1_655
Mg11 Mg8 3.473133 1_555
Mg11 Mg8 3.473133 1_655
Mg11 Mg9 3.551326 1_555
Mg11 Sr1 3.593631 1_565
Mg11 Sr1 3.593631 1_555
