# generated using pymatgen
data_SmCuSn
_symmetry_space_group_name_H-M   'P 1'
_cell_length_a   4.55311366
_cell_length_b   4.55311366
_cell_length_c   7.64907000
_cell_angle_alpha   90.00000000
_cell_angle_beta   90.00000000
_cell_angle_gamma   119.99999509
_symmetry_Int_Tables_number   1
_chemical_formula_structural   SmCuSn
_chemical_formula_sum   'Sm2 Cu2 Sn2'
_cell_volume   137.32710745
_cell_formula_units_Z   2
loop_
 _symmetry_equiv_pos_site_id
 _symmetry_equiv_pos_as_xyz
  1  'x, y, z'
loop_
 _atom_site_type_symbol
 _atom_site_label
 _atom_site_symmetry_multiplicity
 _atom_site_fract_x
 _atom_site_fract_y
 _atom_site_fract_z
 _atom_site_occupancy
  Sm  Sm0  1  0.00000000  0.00000000  0.50000000  1
  Sm  Sm1  1  0.00000000  0.00000000  0.00000000  1
  Cu  Cu0  1  0.33333300  0.66666700  0.75000000  1
  Cu  Cu1  1  0.66666700  0.33333300  0.25000000  1
  Sn  Sn0  1  0.33333300  0.66666700  0.25000000  1
  Sn  Sn1  1  0.66666700  0.33333300  0.75000000  1
loop_
_geom_bond_atom_site_label_1
_geom_bond_atom_site_label_2
_geom_bond_distance
_geom_bond_site_symmetry_2
Sm0 Sn1 3.250697 1_455
Sm0 Sn0 3.250697 1_545
Sm0 Sn0 3.250701 1_445
Sm0 Sn0 3.250701 1_555
Sm0 Sn1 3.250701 1_445
Sm0 Sn1 3.250701 1_555
Sm1 Sn1 3.250697 1_454
Sm1 Sn0 3.250697 1_545
Sm1 Sn1 3.250701 1_554
Sm1 Sn0 3.250701 1_445
Sm1 Sn0 3.250701 1_555
Sm1 Sn1 3.250701 1_444
Cu0 Sn1 2.628739 1_455
Cu0 Sn1 2.628739 1_565
Cu0 Sn1 2.628747 1_555
Cu0 Sm0 3.250697 1_565
Cu0 Sm1 3.250697 1_566
Cu0 Sm0 3.250701 1_555
Cu0 Sm1 3.250701 1_666
Cu0 Sm0 3.250701 1_665
Cu0 Sm1 3.250701 1_556
Cu1 Sn0 2.628739 1_545
Cu1 Sn0 2.628739 1_655
Cu1 Sn0 2.628747 1_555
Cu1 Sm1 3.250697 1_655
Cu1 Sm0 3.250697 1_655
Cu1 Sm0 3.250701 1_555
Cu1 Sm0 3.250701 1_665
Cu1 Sm1 3.250701 1_665
Cu1 Sm1 3.250701 1_555
