# generated using pymatgen
data_Li2Mn2P3(HO4)3
_symmetry_space_group_name_H-M   'P 1'
_cell_length_a   12.19227300
_cell_length_b   7.24570400
_cell_length_c   12.87373058
_cell_angle_alpha   83.72102188
_cell_angle_beta   90.00000000
_cell_angle_gamma   90.00000000
_symmetry_Int_Tables_number   1
_chemical_formula_structural   Li2Mn2P3(HO4)3
_chemical_formula_sum   'Li8 Mn8 P12 H12 O48'
_cell_volume   1130.46356536
_cell_formula_units_Z   4
loop_
 _symmetry_equiv_pos_site_id
 _symmetry_equiv_pos_as_xyz
  1  'x, y, z'
loop_
 _atom_site_type_symbol
 _atom_site_label
 _atom_site_symmetry_multiplicity
 _atom_site_fract_x
 _atom_site_fract_y
 _atom_site_fract_z
 _atom_site_occupancy
  Li  Li0  1  0.64132400  0.48512900  0.19504000  1
  Li  Li1  1  0.85867600  0.98512900  0.19504000  1
  Li  Li2  1  0.37426900  0.08580000  0.26757300  1
  Li  Li3  1  0.12573100  0.58580000  0.26757300  1
  Li  Li4  1  0.87426900  0.41420000  0.73242700  1
  Li  Li5  1  0.62573100  0.91420000  0.73242700  1
  Li  Li6  1  0.14132400  0.01487100  0.80496000  1
  Li  Li7  1  0.35867600  0.51487100  0.80496000  1
  Mn  Mn0  1  0.41280200  0.16607600  0.03188200  1
  Mn  Mn1  1  0.08719800  0.66607600  0.03188200  1
  Mn  Mn2  1  0.05731300  0.13671300  0.34923200  1
  Mn  Mn3  1  0.44268700  0.63671300  0.34923200  1
  Mn  Mn4  1  0.55731300  0.36328700  0.65076800  1
  Mn  Mn5  1  0.94268700  0.86328700  0.65076800  1
  Mn  Mn6  1  0.91280200  0.33392400  0.96811800  1
  Mn  Mn7  1  0.58719800  0.83392400  0.96811800  1
  P  P0  1  0.18547300  0.99452200  0.15641400  1
  P  P1  1  0.31452700  0.49452200  0.15641400  1
  P  P2  1  0.90956400  0.40962100  0.17937500  1
  P  P3  1  0.59043600  0.90962100  0.17937500  1
  P  P4  1  0.63722400  0.38456600  0.43575500  1
  P  P5  1  0.86277600  0.88456600  0.43575500  1
  P  P6  1  0.13722400  0.11543400  0.56424500  1
  P  P7  1  0.36277600  0.61543400  0.56424500  1
  P  P8  1  0.40956400  0.09037900  0.82062500  1
  P  P9  1  0.09043600  0.59037900  0.82062500  1
  P  P10  1  0.68547300  0.50547800  0.84358600  1
  P  P11  1  0.81452700  0.00547800  0.84358600  1
  H  H0  1  0.15221200  0.27324100  0.08411800  1
  H  H1  1  0.34778800  0.77324100  0.08411800  1
  H  H2  1  0.78561500  0.40983200  0.31506300  1
  H  H3  1  0.71438500  0.90983200  0.31506300  1
  H  H4  1  0.82178300  0.17913700  0.46485400  1
  H  H5  1  0.67821700  0.67913700  0.46485400  1
  H  H6  1  0.32178300  0.32086300  0.53514600  1
  H  H7  1  0.17821700  0.82086300  0.53514600  1
  H  H8  1  0.28561500  0.09016800  0.68493700  1
  H  H9  1  0.21438500  0.59016800  0.68493700  1
  H  H10  1  0.65221200  0.22675900  0.91588200  1
  H  H11  1  0.84778800  0.72675900  0.91588200  1
  O  O0  1  0.12252300  0.14334600  0.07804000  1
  O  O1  1  0.56274800  0.05928400  0.08762000  1
  O  O2  1  0.37747700  0.64334600  0.07804000  1
  O  O3  1  0.88945200  0.22734300  0.12708500  1
  O  O4  1  0.93725200  0.55928400  0.08762000  1
  O  O5  1  0.19894300  0.46680200  0.10988600  1
  O  O6  1  0.38485200  0.31724300  0.16156500  1
  O  O7  1  0.61054800  0.72734300  0.12708500  1
  O  O8  1  0.30105700  0.96680200  0.10988600  1
  O  O9  1  0.11514800  0.81724300  0.16156500  1
  O  O10  1  0.70061100  0.96855300  0.22971000  1
  O  O11  1  0.79938900  0.46855300  0.22971000  1
  O  O12  1  0.19927700  0.06591700  0.26465700  1
  O  O13  1  0.00123200  0.38898000  0.26257800  1
  O  O14  1  0.30072300  0.56591700  0.26465700  1
  O  O15  1  0.49876800  0.88898000  0.26257800  1
  O  O16  1  0.56943500  0.43503600  0.33405000  1
  O  O17  1  0.75697500  0.34118800  0.40573800  1
  O  O18  1  0.93056500  0.93503600  0.33405000  1
  O  O19  1  0.74302500  0.84118800  0.40573800  1
  O  O20  1  0.09086800  0.26500800  0.48384800  1
  O  O21  1  0.86533700  0.06605400  0.49792400  1
  O  O22  1  0.40913200  0.76500800  0.48384800  1
  O  O23  1  0.63466300  0.56605400  0.49792400  1
  O  O24  1  0.36533700  0.43394600  0.50207600  1
  O  O25  1  0.59086800  0.23499200  0.51615200  1
  O  O26  1  0.13466300  0.93394600  0.50207600  1
  O  O27  1  0.90913200  0.73499200  0.51615200  1
  O  O28  1  0.25697500  0.15881200  0.59426200  1
  O  O29  1  0.06943500  0.06496400  0.66595000  1
  O  O30  1  0.24302500  0.65881200  0.59426200  1
  O  O31  1  0.43056500  0.56496400  0.66595000  1
  O  O32  1  0.50123200  0.11102000  0.73742200  1
  O  O33  1  0.69927700  0.43408300  0.73534300  1
  O  O34  1  0.99876800  0.61102000  0.73742200  1
  O  O35  1  0.80072300  0.93408300  0.73534300  1
  O  O36  1  0.20061100  0.53144700  0.77029000  1
  O  O37  1  0.29938900  0.03144700  0.77029000  1
  O  O38  1  0.88485200  0.18275700  0.83843500  1
  O  O39  1  0.69894300  0.03319800  0.89011400  1
  O  O40  1  0.38945200  0.27265700  0.87291500  1
  O  O41  1  0.61514800  0.68275700  0.83843500  1
  O  O42  1  0.80105700  0.53319800  0.89011400  1
  O  O43  1  0.06274800  0.44071600  0.91238000  1
  O  O44  1  0.11054800  0.77265700  0.87291500  1
  O  O45  1  0.62252300  0.35665400  0.92196000  1
  O  O46  1  0.43725200  0.94071600  0.91238000  1
  O  O47  1  0.87747700  0.85665400  0.92196000  1
loop_
_geom_bond_atom_site_label_1
_geom_bond_atom_site_label_2
_geom_bond_distance
_geom_bond_site_symmetry_2
Li0 O7 1.910590 1_555
Li0 O11 1.978864 1_555
Li0 O16 1.990096 1_555
Li1 O3 1.910590 1_565
Li1 O10 1.978864 1_555
Li1 O18 1.990096 1_555
Li2 O6 2.047125 1_555
Li2 O15 2.088553 1_545
Li2 O12 2.139015 1_555
Li2 O8 2.458465 1_545
Li3 O9 2.047125 1_555
Li3 O13 2.088553 1_555
Li3 O14 2.139015 1_555
Li3 O5 2.458465 1_555
Li4 O38 2.047125 1_555
Li4 O34 2.088553 1_555
Li4 O33 2.139015 1_555
Li4 O42 2.458465 1_555
Li5 O41 2.047125 1_555
Li5 O32 2.088553 1_565
Li5 O35 2.139015 1_555
Li5 O39 2.458465 1_565
Li6 O44 1.910590 1_545
Li6 O37 1.978864 1_555
Li6 O29 1.990096 1_555
Li7 O40 1.910590 1_555
Li7 O36 1.978864 1_555
Li7 O31 1.990096 1_555
Mn0 O1 2.081929 1_555
Mn0 O6 2.122044 1_555
Mn0 O40 2.126001 1_554
Mn0 O8 2.152268 1_545
Mn0 O46 2.381487 1_544
Mn1 O4 2.081929 1_455
Mn1 O9 2.122044 1_555
Mn1 O44 2.126001 1_554
Mn1 O5 2.152268 1_555
Mn1 O43 2.381487 1_554
Mn2 O20 2.094568 1_555
Mn2 O12 2.136977 1_555
Mn2 O13 2.146395 1_555
Mn2 O18 2.150382 1_445
Mn2 O26 2.507447 1_545
Mn3 O22 2.094568 1_555
Mn3 O14 2.136977 1_555
Mn3 O15 2.146395 1_555
Mn3 O16 2.150382 1_555
Mn3 O24 2.507447 1_555
Mn4 O25 2.094568 1_555
Mn4 O33 2.136977 1_555
Mn4 O32 2.146395 1_555
Mn4 O31 2.150382 1_555
Mn4 O23 2.507447 1_555
Mn5 O27 2.094568 1_555
Mn5 O35 2.136977 1_555
Mn5 O34 2.146395 1_555
Mn5 O29 2.150382 1_665
Mn5 O21 2.507447 1_565
Mn6 O43 2.081929 1_655
Mn6 O38 2.122044 1_555
Mn6 O3 2.126001 1_556
Mn6 O42 2.152268 1_555
Mn6 O4 2.381487 1_556
Mn7 O46 2.081929 1_555
Mn7 O41 2.122044 1_555
Mn7 O7 2.126001 1_556
Mn7 O39 2.152268 1_565
Mn7 O1 2.381487 1_566
H0 O0 1.019352 1_555
H0 O5 1.582214 1_555
H1 O2 1.019352 1_555
H1 O8 1.582214 1_555
H2 O11 1.146453 1_555
H2 O17 1.266871 1_555
H3 O10 1.146453 1_555
H3 O19 1.266871 1_555
H4 O21 1.028733 1_555
H4 O17 1.544912 1_555
H5 O23 1.028733 1_555
H5 O19 1.544912 1_555
H6 O24 1.028733 1_555
H6 O28 1.544912 1_555
H7 O26 1.028733 1_555
H7 O30 1.544912 1_555
H8 O37 1.146453 1_555
H8 O28 1.266871 1_555
H9 O36 1.146453 1_555
H9 O30 1.266871 1_555
H10 O45 1.019352 1_555
H10 O39 1.582214 1_555
H11 O47 1.019352 1_555
H11 O42 1.582214 1_555
O0 P0 1.591192 1_545
O1 P3 1.550814 1_545
O2 P1 1.591192 1_555
O3 P2 1.565916 1_555
O4 P2 1.550814 1_555
O5 P1 1.552861 1_555
O6 P1 1.539775 1_555
O7 P3 1.565916 1_555
O8 P0 1.552861 1_555
O9 P0 1.539775 1_555
O10 P3 1.570723 1_555
O11 P2 1.570723 1_555
O12 P0 1.547718 1_545
O13 P2 1.543948 1_455
O14 P1 1.547718 1_555
O15 P3 1.543948 1_555
O16 P4 1.557699 1_555
O17 P4 1.551255 1_555
O18 P5 1.557699 1_555
O19 P5 1.551255 1_555
O20 P6 1.523112 1_555
O21 P5 1.612759 1_545
O22 P7 1.523112 1_555
O23 P4 1.612759 1_555
O24 P7 1.612759 1_555
O25 P4 1.523112 1_555
O26 P6 1.612759 1_565
O27 P5 1.523112 1_555
O28 P6 1.551255 1_555
O29 P6 1.557699 1_555
O30 P7 1.551255 1_555
O31 P7 1.557699 1_555
O32 P8 1.543948 1_555
O33 P10 1.547718 1_555
O34 P9 1.543948 1_655
O35 P11 1.547718 1_565
O36 P9 1.570723 1_555
O37 P8 1.570723 1_555
O38 P11 1.539775 1_555
O39 P11 1.552861 1_555
O40 P8 1.565916 1_555
O41 P10 1.539775 1_555
O42 P10 1.552861 1_555
O43 P9 1.550814 1_555
O44 P9 1.565916 1_555
O45 P10 1.591192 1_555
O46 P8 1.550814 1_565
O47 P11 1.591192 1_565
