# generated using pymatgen
data_UReB4
_symmetry_space_group_name_H-M   'P 1'
_cell_length_a   3.61634707
_cell_length_b   5.94814108
_cell_length_c   5.94814108
_cell_angle_alpha   104.06280547
_cell_angle_beta   90.00000000
_cell_angle_gamma   90.00000000
_symmetry_Int_Tables_number   1
_chemical_formula_structural   UReB4
_chemical_formula_sum   'U2 Re2 B8'
_cell_volume   124.11314284
_cell_formula_units_Z   2
loop_
 _symmetry_equiv_pos_site_id
 _symmetry_equiv_pos_as_xyz
  1  'x, y, z'
loop_
 _atom_site_type_symbol
 _atom_site_label
 _atom_site_symmetry_multiplicity
 _atom_site_fract_x
 _atom_site_fract_y
 _atom_site_fract_z
 _atom_site_occupancy
  U  U0  1  0.00000000  0.30047867  0.69952133  1
  U  U1  1  0.00000000  0.69952133  0.30047867  1
  Re  Re0  1  -0.00000000  0.81297007  0.81297007  1
  Re  Re1  1  -0.00000000  0.18702993  0.18702993  1
  B  B0  1  0.50000000  0.93499499  0.61802625  1
  B  B1  1  0.50000000  0.06500501  0.38197375  1
  B  B2  1  0.50000000  0.61802625  0.93499499  1
  B  B3  1  0.50000000  0.38197375  0.06500501  1
  B  B4  1  0.50000000  0.62096185  0.62096185  1
  B  B5  1  0.50000000  0.37903815  0.37903815  1
  B  B6  1  0.50000000  0.09262731  0.90737269  1
  B  B7  1  0.50000000  0.90737269  0.09262731  1
loop_
_geom_bond_atom_site_label_1
_geom_bond_atom_site_label_2
_geom_bond_distance
_geom_bond_site_symmetry_2
Re0 Re1 2.737723 1_566
Re0 U1 2.957746 1_555
Re0 U0 2.957746 1_555
Re0 U1 3.132886 1_556
Re0 U0 3.132886 1_565
Re1 U1 2.957746 1_555
Re1 U0 2.957746 1_555
Re1 U1 3.132886 1_545
Re1 U0 3.132886 1_554
B0 B6 1.748430 1_565
B0 B1 1.759860 1_565
B0 B4 1.872233 1_555
B0 Re0 2.355818 1_555
B0 Re0 2.355818 1_655
B0 U1 2.741028 1_655
B0 U1 2.741028 1_555
B0 U0 2.778201 1_565
B0 U0 2.778201 1_665
B1 B7 1.748430 1_545
B1 B5 1.872233 1_555
B1 Re1 2.355818 1_555
B1 Re1 2.355818 1_655
B1 U0 2.741028 1_555
B1 U0 2.741028 1_655
B1 U1 2.778201 1_645
B1 U1 2.778201 1_545
B2 B7 1.748430 1_556
B2 B3 1.759860 1_556
B2 B4 1.872233 1_555
B2 Re0 2.355818 1_655
B2 Re0 2.355818 1_555
B2 U0 2.741028 1_655
B2 U0 2.741028 1_555
B2 U1 2.778201 1_656
B2 U1 2.778201 1_556
B3 B6 1.748430 1_554
B3 B5 1.872233 1_555
B3 Re1 2.355818 1_555
B3 Re1 2.355818 1_655
B3 U1 2.741028 1_555
B3 U1 2.741028 1_655
B3 U0 2.778201 1_654
B3 U0 2.778201 1_554
B4 B5 1.770626 1_555
B4 Re0 2.290055 1_555
B4 Re0 2.290055 1_655
B4 U1 2.748569 1_555
B4 U1 2.748569 1_655
B4 U0 2.748569 1_655
B4 U0 2.748569 1_555
B5 Re1 2.290055 1_555
B5 Re1 2.290055 1_655
B5 U1 2.748569 1_555
B5 U1 2.748569 1_655
B5 U0 2.748569 1_655
B5 U0 2.748569 1_555
B6 B7 1.737394 1_546
B6 Re0 2.428561 1_645
B6 Re1 2.428561 1_556
B6 Re1 2.428561 1_656
B6 Re0 2.428561 1_545
B6 U0 2.658820 1_655
B6 U0 2.658820 1_555
B7 Re1 2.428561 1_665
B7 Re0 2.428561 1_554
B7 Re1 2.428561 1_565
B7 Re0 2.428561 1_654
B7 U1 2.658820 1_555
B7 U1 2.658820 1_655
