# generated using pymatgen
data_Li7Co5O12
_symmetry_space_group_name_H-M   'P 1'
_cell_length_a   2.99070100
_cell_length_b   5.96594804
_cell_length_c   12.27388783
_cell_angle_alpha   76.87584850
_cell_angle_beta   89.56165613
_cell_angle_gamma   88.29573663
_symmetry_Int_Tables_number   1
_chemical_formula_structural   Li7Co5O12
_chemical_formula_sum   'Li7 Co5 O12'
_cell_volume   213.18069549
_cell_formula_units_Z   1
loop_
 _symmetry_equiv_pos_site_id
 _symmetry_equiv_pos_as_xyz
  1  'x, y, z'
loop_
 _atom_site_type_symbol
 _atom_site_label
 _atom_site_symmetry_multiplicity
 _atom_site_fract_x
 _atom_site_fract_y
 _atom_site_fract_z
 _atom_site_occupancy
  Li  Li0  1  0.99896900  0.17583300  0.66214000  1
  Li  Li1  1  0.50000000  0.00000000  0.50000000  1
  Li  Li2  1  0.49866200  0.33507600  0.83222900  1
  Li  Li3  1  0.00000000  0.50000000  0.00000000  1
  Li  Li4  1  0.50133800  0.66492400  0.16777100  1
  Li  Li5  1  0.00103100  0.82416700  0.33786000  1
  Li  Li6  1  0.50000000  0.50000000  0.50000000  1
  Co  Co0  1  0.00189500  0.65857200  0.66031000  1
  Co  Co1  1  0.99810500  0.34142800  0.33969000  1
  Co  Co2  1  0.50010400  0.16654900  0.16886700  1
  Co  Co3  1  0.00000000  0.00000000  0.00000000  1
  Co  Co4  1  0.49989600  0.83345100  0.83113300  1
  O  O0  1  0.53450700  0.90113800  0.67230100  1
  O  O1  1  0.00151000  0.74491100  0.51566400  1
  O  O2  1  0.99959400  0.06933900  0.83983800  1
  O  O3  1  0.49487200  0.23993100  0.00694700  1
  O  O4  1  0.99594500  0.39921700  0.17964700  1
  O  O5  1  0.52800800  0.56372600  0.33340100  1
  O  O6  1  0.47199200  0.43627400  0.66659900  1
  O  O7  1  0.99849000  0.25508900  0.48433600  1
  O  O8  1  0.00405500  0.60078300  0.82035300  1
  O  O9  1  0.50512800  0.76006900  0.99305300  1
  O  O10  1  0.00040600  0.93066100  0.16016200  1
  O  O11  1  0.46549300  0.09886200  0.32769900  1
loop_
_geom_bond_atom_site_label_1
_geom_bond_atom_site_label_2
_geom_bond_distance
_geom_bond_site_symmetry_2
Li0 O7 2.125468 1_555
Li0 O2 2.128692 1_555
Li0 O6 2.142209 1_655
Li0 O0 2.161184 1_545
Li0 O6 2.189231 1_555
Li0 O0 2.240674 1_645
Li1 O0 2.064992 1_545
Li1 O11 2.064992 1_555
Li1 O7 2.082872 1_455
Li1 O1 2.082872 1_645
Li1 O1 2.138520 1_545
Li1 O7 2.138520 1_555
Li2 O6 1.986426 1_555
Li2 O3 2.090048 1_556
Li2 O8 2.116855 1_555
Li2 O2 2.135457 1_555
Li2 O2 2.195735 1_455
Li2 O8 2.202923 1_655
Li3 O9 2.100073 1_454
Li3 O3 2.100073 1_555
Li3 O8 2.149769 1_554
Li3 O4 2.149769 1_455
Li3 O9 2.184982 1_554
Li3 O3 2.184982 1_455
Li4 O5 1.986426 1_555
Li4 O9 2.090048 1_554
Li4 O4 2.116855 1_555
Li4 O10 2.135457 1_555
Li4 O10 2.195735 1_655
Li4 O4 2.202923 1_455
Li5 O1 2.125468 1_555
Li5 O10 2.128692 1_555
Li5 O5 2.142209 1_455
Li5 O11 2.161184 1_565
Li5 O5 2.189231 1_555
Li5 O11 2.240674 1_465
Li6 O6 1.994760 1_555
Li6 O5 1.994760 1_555
Li6 O1 2.094769 1_555
Li6 O7 2.094769 1_555
Li6 O7 2.164206 1_455
Li6 O1 2.164206 1_655
Co0 O1 1.732618 1_555
Co0 O6 1.893591 1_555
Co0 O8 1.915747 1_555
Co0 O0 2.010724 1_455
Co0 O6 2.086384 1_455
Co0 O0 2.211461 1_555
Co1 O7 1.732618 1_555
Co1 O5 1.893591 1_555
Co1 O4 1.915747 1_555
Co1 O11 2.010724 1_655
Co1 O5 2.086384 1_655
Co1 O11 2.211461 1_555
Co2 O11 1.901624 1_555
Co2 O3 1.935606 1_555
Co2 O10 2.042366 1_645
Co2 O4 2.042933 1_455
Co2 O4 2.086183 1_555
Co2 O10 2.102639 1_545
Co3 O10 1.914745 1_545
Co3 O2 1.914745 1_454
Co3 O3 2.064759 1_455
Co3 O9 2.064759 1_544
Co3 O3 2.104764 1_555
Co3 O9 2.104764 1_444
Co4 O0 1.901624 1_555
Co4 O9 1.935606 1_555
Co4 O2 2.042366 1_465
Co4 O8 2.042933 1_655
Co4 O8 2.086183 1_555
Co4 O2 2.102639 1_565
