# generated using pymatgen
data_CsBi4Se7
_symmetry_space_group_name_H-M   'P 1'
_cell_length_a   11.10518671
_cell_length_b   11.10518671
_cell_length_c   19.81229541
_cell_angle_alpha   64.69126842
_cell_angle_beta   64.69126842
_cell_angle_gamma   23.13885558
_symmetry_Int_Tables_number   1
_chemical_formula_structural   CsBi4Se7
_chemical_formula_sum   'Cs2 Bi8 Se14'
_cell_volume   863.90896300
_cell_formula_units_Z   2
loop_
 _symmetry_equiv_pos_site_id
 _symmetry_equiv_pos_as_xyz
  1  'x, y, z'
loop_
 _atom_site_type_symbol
 _atom_site_label
 _atom_site_symmetry_multiplicity
 _atom_site_fract_x
 _atom_site_fract_y
 _atom_site_fract_z
 _atom_site_occupancy
  Cs  Cs0  1  0.46080300  0.46080300  0.79368500  1
  Cs  Cs1  1  0.53919700  0.53919700  0.20631500  1
  Bi  Bi0  1  0.63493500  0.63493500  0.42884100  1
  Bi  Bi1  1  0.36506500  0.36506500  0.57115900  1
  Bi  Bi2  1  0.71225200  0.71225200  0.75387500  1
  Bi  Bi3  1  0.28774800  0.28774800  0.24612500  1
  Bi  Bi4  1  0.16119900  0.16119900  0.59964000  1
  Bi  Bi5  1  0.83880100  0.83880100  0.40036000  1
  Bi  Bi6  1  0.23537600  0.23537600  0.92052500  1
  Bi  Bi7  1  0.76462400  0.76462400  0.07947500  1
  Se  Se0  1  0.11787500  0.11787500  0.75482400  1
  Se  Se1  1  0.88212500  0.88212500  0.24517700  1
  Se  Se2  1  0.65302800  0.65302800  0.90947500  1
  Se  Se3  1  0.34697200  0.34697200  0.09052500  1
  Se  Se4  1  0.77220800  0.77220800  0.57690400  1
  Se  Se5  1  0.22779200  0.22779200  0.42309600  1
  Se  Se6  1  0.58100200  0.58100200  0.59609600  1
  Se  Se7  1  0.41899800  0.41899800  0.40390400  1
  Se  Se8  1  0.83067400  0.83067400  0.92511500  1
  Se  Se9  1  0.16932600  0.16932600  0.07488500  1
  Se  Se10  1  0.31120400  0.31120400  0.73422500  1
  Se  Se11  1  0.68879600  0.68879600  0.26577500  1
  Se  Se12  1  0.03924400  0.03924400  0.43562200  1
  Se  Se13  1  0.96075600  0.96075600  0.56437800  1
loop_
_geom_bond_atom_site_label_1
_geom_bond_atom_site_label_2
_geom_bond_distance
_geom_bond_site_symmetry_2
Cs0 Se6 3.637281 1_555
Cs0 Se8 3.650156 1_455
Cs0 Se8 3.650156 1_545
Cs0 Se0 3.864935 1_565
Cs0 Se0 3.864935 1_655
Cs0 Se10 3.915398 1_555
Cs1 Se7 3.637281 1_555
Cs1 Se9 3.650156 1_655
Cs1 Se9 3.650156 1_565
Cs1 Se1 3.864931 1_455
Cs1 Se1 3.864931 1_545
Cs1 Se11 3.915398 1_555
Bi0 Se11 2.916612 1_555
Bi0 Se5 2.975743 1_565
Bi0 Se5 2.975743 1_655
Bi0 Se6 2.993999 1_555
Bi0 Se12 3.011596 1_655
Bi0 Se12 3.011596 1_565
Bi1 Se10 2.916612 1_555
Bi1 Se4 2.975743 1_545
Bi1 Se4 2.975743 1_455
Bi1 Se7 2.993999 1_555
Bi1 Se13 3.011596 1_545
Bi1 Se13 3.011596 1_455
Bi2 Se2 2.774386 1_555
Bi2 Se10 3.002720 1_565
Bi2 Se10 3.002720 1_655
Bi2 Se0 3.023937 1_655
Bi2 Se0 3.023937 1_565
Bi2 Se4 3.162821 1_555
Bi3 Se3 2.774386 1_555
Bi3 Se11 3.002720 1_455
Bi3 Se11 3.002720 1_545
Bi3 Se1 3.023943 1_545
Bi3 Se1 3.023943 1_455
Bi3 Se5 3.162821 1_555
Bi4 Se0 2.795009 1_555
Bi4 Se6 2.849100 1_455
Bi4 Se6 2.849100 1_545
Bi4 Se5 3.148117 1_555
Bi4 Se4 3.169891 1_545
Bi4 Se4 3.169891 1_455
Bi5 Se1 2.794990 1_555
Bi5 Se7 2.849100 1_655
Bi5 Se7 2.849100 1_565
Bi5 Se4 3.148117 1_555
Bi5 Se5 3.169891 1_655
Bi5 Se5 3.169891 1_565
Bi6 Se9 2.753620 1_556
Bi6 Se2 2.925974 1_545
Bi6 Se2 2.925974 1_455
Bi6 Se8 3.071333 1_545
Bi6 Se8 3.071333 1_455
Bi6 Se10 3.321317 1_555
Bi7 Se8 2.753620 1_554
Bi7 Se3 2.925974 1_565
Bi7 Se3 2.925974 1_655
Bi7 Se9 3.071333 1_655
Bi7 Se9 3.071333 1_565
Bi7 Se11 3.321317 1_555
Se12 Se13 2.371063 1_445
