# generated using pymatgen
data_Mg3WN4
_symmetry_space_group_name_H-M   'P 1'
_cell_length_a   15.98914243
_cell_length_b   27.69780936
_cell_length_c   9.02866248
_cell_angle_alpha   90.00000000
_cell_angle_beta   90.00565856
_cell_angle_gamma   90.00000000
_symmetry_Int_Tables_number   1
_chemical_formula_structural   Mg3WN4
_chemical_formula_sum   'Mg108 W36 N144'
_cell_volume   3998.47153812
_cell_formula_units_Z   36
loop_
 _symmetry_equiv_pos_site_id
 _symmetry_equiv_pos_as_xyz
  1  'x, y, z'
loop_
 _atom_site_type_symbol
 _atom_site_label
 _atom_site_symmetry_multiplicity
 _atom_site_fract_x
 _atom_site_fract_y
 _atom_site_fract_z
 _atom_site_occupancy
  Mg  Mg0  1  0.99998073  0.99995994  0.75405234  1
  Mg  Mg1  1  0.49998073  0.50004006  0.25405234  1
  Mg  Mg2  1  0.99999359  0.66664781  0.86153452  1
  Mg  Mg3  1  0.49999359  0.83335219  0.36153452  1
  Mg  Mg4  1  0.50003926  0.83335250  0.82863213  1
  Mg  Mg5  1  0.00003926  0.66664750  0.32863213  1
  Mg  Mg6  1  0.67388124  0.98405087  0.88517551  1
  Mg  Mg7  1  0.63913197  0.67108179  0.88513942  1
  Mg  Mg8  1  0.18698042  0.84489889  0.88529369  1
  Mg  Mg9  1  0.17388124  0.51594913  0.38517551  1
  Mg  Mg10  1  0.13913197  0.82891821  0.38513942  1
  Mg  Mg11  1  0.68698042  0.65510111  0.38529369  1
  Mg  Mg12  1  0.83988175  0.83041854  0.58588568  1
  Mg  Mg13  1  0.32580323  0.66486742  0.58647171  1
  Mg  Mg14  1  0.83437550  0.50470365  0.58612580  1
  Mg  Mg15  1  0.33988175  0.66958146  0.08588568  1
  Mg  Mg16  1  0.82580323  0.83513258  0.08647171  1
  Mg  Mg17  1  0.33437550  0.99529635  0.08612580  1
  Mg  Mg18  1  0.80275937  0.95166047  0.56584002  1
  Mg  Mg19  1  0.52610079  0.62284358  0.56543307  1
  Mg  Mg20  1  0.17105480  0.92554580  0.56551462  1
  Mg  Mg21  1  0.30275937  0.54833953  0.06584002  1
  Mg  Mg22  1  0.02610079  0.87715642  0.06543307  1
  Mg  Mg23  1  0.67105480  0.57445420  0.06551462  1
  Mg  Mg24  1  0.85437981  0.92917953  0.89568385  1
  Mg  Mg25  1  0.46658453  0.60823061  0.89533864  1
  Mg  Mg26  1  0.17897694  0.96257867  0.89552588  1
  Mg  Mg27  1  0.35437981  0.57082047  0.39568385  1
  Mg  Mg28  1  0.96658453  0.89176939  0.39533864  1
  Mg  Mg29  1  0.67897694  0.53742133  0.39552588  1
  Mg  Mg30  1  0.00944993  0.77630431  0.69227263  1
  Mg  Mg31  1  0.15978408  0.60709851  0.69238344  1
  Mg  Mg32  1  0.83077539  0.61655606  0.69236578  1
  Mg  Mg33  1  0.50944993  0.72369569  0.19227263  1
  Mg  Mg34  1  0.65978408  0.89290149  0.19238344  1
  Mg  Mg35  1  0.33077539  0.88344394  0.19236578  1
  Mg  Mg36  1  0.52651368  0.94463600  0.67097005  1
  Mg  Mg37  1  0.65370577  0.76443789  0.67094828  1
  Mg  Mg38  1  0.31976060  0.79098559  0.67091029  1
  Mg  Mg39  1  0.02651368  0.55536400  0.17097005  1
  Mg  Mg40  1  0.15370577  0.73556211  0.17094828  1
  Mg  Mg41  1  0.81976060  0.70901441  0.17091029  1
  Mg  Mg42  1  0.65942178  0.77887401  0.98150479  1
  Mg  Mg43  1  0.33859133  0.78088885  0.98147449  1
  Mg  Mg44  1  0.50200114  0.94028100  0.98151154  1
  Mg  Mg45  1  0.15942178  0.72112599  0.48150479  1
  Mg  Mg46  1  0.83859133  0.71911115  0.48147449  1
  Mg  Mg47  1  0.00200114  0.55971900  0.48151154  1
  Mg  Mg48  1  0.99561486  0.77845554  0.99160410  1
  Mg  Mg49  1  0.16995507  0.61294129  0.99176199  1
  Mg  Mg50  1  0.83445452  0.60855194  0.99169780  1
  Mg  Mg51  1  0.49561486  0.72154446  0.49160410  1
  Mg  Mg52  1  0.66995507  0.88705871  0.49176199  1
  Mg  Mg53  1  0.33445452  0.89144806  0.49169780  1
  Mg  Mg54  1  0.49998073  0.49995994  0.75405234  1
  Mg  Mg55  1  0.99998073  0.00004006  0.25405234  1
  Mg  Mg56  1  0.49999359  0.16664781  0.86153452  1
  Mg  Mg57  1  0.99999359  0.33335219  0.36153452  1
  Mg  Mg58  1  0.00003926  0.33335250  0.82863213  1
  Mg  Mg59  1  0.50003926  0.16664750  0.32863213  1
  Mg  Mg60  1  0.17388124  0.48405087  0.88517551  1
  Mg  Mg61  1  0.13913197  0.17108179  0.88513942  1
  Mg  Mg62  1  0.68698042  0.34489889  0.88529369  1
  Mg  Mg63  1  0.67388124  0.01594913  0.38517551  1
  Mg  Mg64  1  0.63913197  0.32891821  0.38513942  1
  Mg  Mg65  1  0.18698042  0.15510111  0.38529369  1
  Mg  Mg66  1  0.33988175  0.33041854  0.58588568  1
  Mg  Mg67  1  0.82580323  0.16486742  0.58647171  1
  Mg  Mg68  1  0.33437550  0.00470365  0.58612580  1
  Mg  Mg69  1  0.83988175  0.16958146  0.08588568  1
  Mg  Mg70  1  0.32580323  0.33513258  0.08647171  1
  Mg  Mg71  1  0.83437550  0.49529635  0.08612580  1
  Mg  Mg72  1  0.30275937  0.45166047  0.56584002  1
  Mg  Mg73  1  0.02610079  0.12284358  0.56543307  1
  Mg  Mg74  1  0.67105480  0.42554580  0.56551462  1
  Mg  Mg75  1  0.80275937  0.04833953  0.06584002  1
  Mg  Mg76  1  0.52610079  0.37715642  0.06543307  1
  Mg  Mg77  1  0.17105480  0.07445420  0.06551462  1
  Mg  Mg78  1  0.35437981  0.42917953  0.89568385  1
  Mg  Mg79  1  0.96658453  0.10823061  0.89533864  1
  Mg  Mg80  1  0.67897694  0.46257867  0.89552588  1
  Mg  Mg81  1  0.85437981  0.07082047  0.39568385  1
  Mg  Mg82  1  0.46658453  0.39176939  0.39533864  1
  Mg  Mg83  1  0.17897694  0.03742133  0.39552588  1
  Mg  Mg84  1  0.50944993  0.27630431  0.69227263  1
  Mg  Mg85  1  0.65978408  0.10709851  0.69238344  1
  Mg  Mg86  1  0.33077539  0.11655606  0.69236578  1
  Mg  Mg87  1  0.00944993  0.22369569  0.19227263  1
  Mg  Mg88  1  0.15978408  0.39290149  0.19238344  1
  Mg  Mg89  1  0.83077539  0.38344394  0.19236578  1
  Mg  Mg90  1  0.02651368  0.44463600  0.67097005  1
  Mg  Mg91  1  0.15370577  0.26443789  0.67094828  1
  Mg  Mg92  1  0.81976060  0.29098559  0.67091029  1
  Mg  Mg93  1  0.52651368  0.05536400  0.17097005  1
  Mg  Mg94  1  0.65370577  0.23556211  0.17094828  1
  Mg  Mg95  1  0.31976060  0.20901441  0.17091029  1
  Mg  Mg96  1  0.15942178  0.27887401  0.98150479  1
  Mg  Mg97  1  0.83859133  0.28088885  0.98147449  1
  Mg  Mg98  1  0.00200114  0.44028100  0.98151154  1
  Mg  Mg99  1  0.65942178  0.22112599  0.48150479  1
  Mg  Mg100  1  0.33859133  0.21911115  0.48147449  1
  Mg  Mg101  1  0.50200114  0.05971900  0.48151154  1
  Mg  Mg102  1  0.49561486  0.27845554  0.99160410  1
  Mg  Mg103  1  0.66995507  0.11294129  0.99176199  1
  Mg  Mg104  1  0.33445452  0.10855194  0.99169780  1
  Mg  Mg105  1  0.99561486  0.22154446  0.49160410  1
  Mg  Mg106  1  0.16995507  0.38705871  0.49176199  1
  Mg  Mg107  1  0.83445452  0.39144806  0.49169780  1
  W  W0  1  0.01367014  0.88797678  0.70307413  1
  W  W1  1  0.32520494  0.54911986  0.70326693  1
  W  W2  1  0.66111902  0.56281311  0.70325236  1
  W  W3  1  0.51367014  0.61202322  0.20307413  1
  W  W4  1  0.82520494  0.95088014  0.20326693  1
  W  W5  1  0.16111902  0.93718689  0.20325236  1
  W  W6  1  0.17791238  0.71707472  0.84104057  1
  W  W7  1  0.98666095  0.55249871  0.84104845  1
  W  W8  1  0.83543965  0.73042015  0.84102715  1
  W  W9  1  0.67791238  0.78292528  0.34104057  1
  W  W10  1  0.48666095  0.94750129  0.34104845  1
  W  W11  1  0.33543965  0.76957985  0.34102715  1
  W  W12  1  0.67686141  0.88053020  0.83768333  1
  W  W13  1  0.48236155  0.72136187  0.83744444  1
  W  W14  1  0.34077974  0.89814895  0.83757893  1
  W  W15  1  0.17686141  0.61946980  0.33768333  1
  W  W16  1  0.98236155  0.77863813  0.33744444  1
  W  W17  1  0.84077974  0.60185105  0.33757893  1
  W  W18  1  0.51367014  0.38797678  0.70307413  1
  W  W19  1  0.82520494  0.04911986  0.70326693  1
  W  W20  1  0.16111902  0.06281311  0.70325236  1
  W  W21  1  0.01367014  0.11202322  0.20307413  1
  W  W22  1  0.32520494  0.45088014  0.20326693  1
  W  W23  1  0.66111902  0.43718689  0.20325236  1
  W  W24  1  0.67791238  0.21707472  0.84104057  1
  W  W25  1  0.48666095  0.05249871  0.84104845  1
  W  W26  1  0.33543965  0.23042015  0.84102715  1
  W  W27  1  0.17791238  0.28292528  0.34104057  1
  W  W28  1  0.98666095  0.44750129  0.34104845  1
  W  W29  1  0.83543965  0.26957985  0.34102715  1
  W  W30  1  0.17686141  0.38053020  0.83768333  1
  W  W31  1  0.98236155  0.22136187  0.83744444  1
  W  W32  1  0.84077974  0.39814895  0.83757893  1
  W  W33  1  0.67686141  0.11946980  0.33768333  1
  W  W34  1  0.48236155  0.27863813  0.33744444  1
  W  W35  1  0.34077974  0.10185105  0.33757893  1
  N  N0  1  0.06770980  0.94064555  0.78797942  1
  N  N1  1  0.87713738  0.99572409  0.78805232  1
  N  N2  1  0.55518228  0.56341533  0.78853447  1
  N  N3  1  0.56770980  0.55935445  0.28797942  1
  N  N4  1  0.37713738  0.50427591  0.28805232  1
  N  N5  1  0.05518228  0.93658467  0.28853447  1
  N  N6  1  0.78579753  0.86564114  0.88127478  1
  N  N7  1  0.40552689  0.67431000  0.88065333  1
  N  N8  1  0.30861062  0.96006211  0.88094432  1
  N  N9  1  0.28579753  0.63435886  0.38127478  1
  N  N10  1  0.90552689  0.82569000  0.38065333  1
  N  N11  1  0.80861062  0.53993789  0.38094432  1
  N  N12  1  0.07713616  0.87248774  0.53835413  1
  N  N13  1  0.27024446  0.52516554  0.53849903  1
  N  N14  1  0.65251664  0.60229463  0.53853325  1
  N  N15  1  0.57713616  0.62751226  0.03835413  1
  N  N16  1  0.77024446  0.97483446  0.03849903  1
  N  N17  1  0.15251664  0.89770537  0.03853325  1
  N  N18  1  0.87730016  0.76022000  0.66820765  1
  N  N19  1  0.20169307  0.68122631  0.66829514  1
  N  N20  1  0.92100352  0.55853715  0.66825162  1
  N  N21  1  0.37730016  0.73978000  0.16820765  1
  N  N22  1  0.70169307  0.81877369  0.16829514  1
  N  N23  1  0.42100352  0.94146285  0.16825162  1
  N  N24  1  0.06029460  0.72956507  0.86000989  1
  N  N25  1  0.06424261  0.60504264  0.86013439  1
  N  N26  1  0.87545678  0.66536084  0.86009133  1
  N  N27  1  0.56029460  0.77043493  0.36000989  1
  N  N28  1  0.56424261  0.89495736  0.36013439  1
  N  N29  1  0.37545678  0.83463916  0.36009133  1
  N  N30  1  0.67473497  0.92805446  0.68035880  1
  N  N31  1  0.55477608  0.69869637  0.68018534  1
  N  N32  1  0.27061079  0.87328402  0.68025046  1
  N  N33  1  0.17473497  0.57194554  0.18035880  1
  N  N34  1  0.05477608  0.80130363  0.18018534  1
  N  N35  1  0.77061079  0.62671598  0.18025046  1
  N  N36  1  0.86565019  0.76442784  0.01270448  1
  N  N37  1  0.21383195  0.68495568  0.01270767  1
  N  N38  1  0.92052925  0.55059261  0.01270847  1
  N  N39  1  0.36565019  0.73557216  0.51270448  1
  N  N40  1  0.71383195  0.81504432  0.51270767  1
  N  N41  1  0.42052925  0.94940739  0.51270847  1
  N  N42  1  0.23131338  0.77630161  0.83690495  1
  N  N43  1  0.54879881  0.99618431  0.83690825  1
  N  N44  1  0.71987997  0.72752519  0.83693106  1
  N  N45  1  0.73131338  0.72369839  0.33690495  1
  N  N46  1  0.04879881  0.50381569  0.33690825  1
  N  N47  1  0.21987997  0.77247481  0.33693106  1
  N  N48  1  0.02003954  0.83707833  0.84654646  1
  N  N49  1  0.24566154  0.57140366  0.84666467  1
  N  N50  1  0.73435114  0.59145575  0.84658491  1
  N  N51  1  0.52003954  0.66292167  0.34654646  1
  N  N52  1  0.74566154  0.92859634  0.34666467  1
  N  N53  1  0.23435114  0.90854425  0.34658491  1
  N  N54  1  0.62210141  0.91356401  0.99114914  1
  N  N55  1  0.55925792  0.73218509  0.99102007  1
  N  N56  1  0.31855085  0.85428425  0.99112366  1
  N  N57  1  0.12210141  0.58643599  0.49114914  1
  N  N58  1  0.05925792  0.76781491  0.49102007  1
  N  N59  1  0.81855085  0.64571575  0.49112366  1
  N  N60  1  0.90387281  0.90156283  0.62417139  1
  N  N61  1  0.40058130  0.59720662  0.62452805  1
  N  N62  1  0.69561317  0.50113235  0.62431080  1
  N  N63  1  0.40387281  0.59843717  0.12417139  1
  N  N64  1  0.90058130  0.90279338  0.12452805  1
  N  N65  1  0.19561317  0.99886765  0.12431080  1
  N  N66  1  0.62040115  0.82145355  0.80172909  1
  N  N67  1  0.42197997  0.77913699  0.80166704  1
  N  N68  1  0.45764846  0.89946739  0.80176179  1
  N  N69  1  0.12040115  0.67854645  0.30172909  1
  N  N70  1  0.92197997  0.72086301  0.30166704  1
  N  N71  1  0.95764846  0.60053261  0.30176179  1
  N  N72  1  0.56770980  0.44064555  0.78797942  1
  N  N73  1  0.37713738  0.49572409  0.78805232  1
  N  N74  1  0.05518228  0.06341533  0.78853447  1
  N  N75  1  0.06770980  0.05935445  0.28797942  1
  N  N76  1  0.87713738  0.00427591  0.28805232  1
  N  N77  1  0.55518228  0.43658467  0.28853447  1
  N  N78  1  0.28579753  0.36564114  0.88127478  1
  N  N79  1  0.90552689  0.17431000  0.88065333  1
  N  N80  1  0.80861062  0.46006211  0.88094432  1
  N  N81  1  0.78579753  0.13435886  0.38127478  1
  N  N82  1  0.40552689  0.32569000  0.38065333  1
  N  N83  1  0.30861062  0.03993789  0.38094432  1
  N  N84  1  0.57713616  0.37248774  0.53835413  1
  N  N85  1  0.77024446  0.02516554  0.53849903  1
  N  N86  1  0.15251664  0.10229463  0.53853325  1
  N  N87  1  0.07713616  0.12751226  0.03835413  1
  N  N88  1  0.27024446  0.47483446  0.03849903  1
  N  N89  1  0.65251664  0.39770537  0.03853325  1
  N  N90  1  0.37730016  0.26022000  0.66820765  1
  N  N91  1  0.70169307  0.18122631  0.66829514  1
  N  N92  1  0.42100352  0.05853715  0.66825162  1
  N  N93  1  0.87730016  0.23978000  0.16820765  1
  N  N94  1  0.20169307  0.31877369  0.16829514  1
  N  N95  1  0.92100352  0.44146285  0.16825162  1
  N  N96  1  0.56029460  0.22956507  0.86000989  1
  N  N97  1  0.56424261  0.10504264  0.86013439  1
  N  N98  1  0.37545678  0.16536084  0.86009133  1
  N  N99  1  0.06029460  0.27043493  0.36000989  1
  N  N100  1  0.06424261  0.39495736  0.36013439  1
  N  N101  1  0.87545678  0.33463916  0.36009133  1
  N  N102  1  0.17473497  0.42805446  0.68035880  1
  N  N103  1  0.05477608  0.19869637  0.68018534  1
  N  N104  1  0.77061079  0.37328402  0.68025046  1
  N  N105  1  0.67473497  0.07194554  0.18035880  1
  N  N106  1  0.55477608  0.30130363  0.18018534  1
  N  N107  1  0.27061079  0.12671598  0.18025046  1
  N  N108  1  0.36565019  0.26442784  0.01270448  1
  N  N109  1  0.71383195  0.18495568  0.01270767  1
  N  N110  1  0.42052925  0.05059261  0.01270847  1
  N  N111  1  0.86565019  0.23557216  0.51270448  1
  N  N112  1  0.21383195  0.31504432  0.51270767  1
  N  N113  1  0.92052925  0.44940739  0.51270847  1
  N  N114  1  0.73131338  0.27630161  0.83690495  1
  N  N115  1  0.04879881  0.49618431  0.83690825  1
  N  N116  1  0.21987997  0.22752519  0.83693106  1
  N  N117  1  0.23131338  0.22369839  0.33690495  1
  N  N118  1  0.54879881  0.00381569  0.33690825  1
  N  N119  1  0.71987997  0.27247481  0.33693106  1
  N  N120  1  0.52003954  0.33707833  0.84654646  1
  N  N121  1  0.74566154  0.07140366  0.84666467  1
  N  N122  1  0.23435114  0.09145575  0.84658491  1
  N  N123  1  0.02003954  0.16292167  0.34654646  1
  N  N124  1  0.24566154  0.42859634  0.34666467  1
  N  N125  1  0.73435114  0.40854425  0.34658491  1
  N  N126  1  0.12210141  0.41356401  0.99114914  1
  N  N127  1  0.05925792  0.23218509  0.99102007  1
  N  N128  1  0.81855085  0.35428425  0.99112366  1
  N  N129  1  0.62210141  0.08643599  0.49114914  1
  N  N130  1  0.55925792  0.26781491  0.49102007  1
  N  N131  1  0.31855085  0.14571575  0.49112366  1
  N  N132  1  0.40387281  0.40156283  0.62417139  1
  N  N133  1  0.90058130  0.09720662  0.62452805  1
  N  N134  1  0.19561317  0.00113235  0.62431080  1
  N  N135  1  0.90387281  0.09843717  0.12417139  1
  N  N136  1  0.40058130  0.40279338  0.12452805  1
  N  N137  1  0.69561317  0.49886765  0.12431080  1
  N  N138  1  0.12040115  0.32145355  0.80172909  1
  N  N139  1  0.92197997  0.27913699  0.80166704  1
  N  N140  1  0.95764846  0.39946739  0.80176179  1
  N  N141  1  0.62040115  0.17854645  0.30172909  1
  N  N142  1  0.42197997  0.22086301  0.30166704  1
  N  N143  1  0.45764846  0.10053261  0.30176179  1
loop_
_geom_bond_atom_site_label_1
_geom_bond_atom_site_label_2
_geom_bond_distance
_geom_bond_site_symmetry_2
Mg0 N74 1.991223 1_665
Mg0 N0 1.991369 1_655
Mg0 N1 1.991492 1_555
Mg1 N77 1.991223 1_555
Mg1 N3 1.991369 1_555
Mg1 N4 1.991492 1_555
Mg2 N26 1.991597 1_555
Mg2 N24 1.991657 1_655
Mg2 N25 1.991742 1_655
Mg3 N29 1.991597 1_555
Mg3 N27 1.991657 1_555
Mg3 N28 1.991742 1_555
Mg4 N66 1.967574 1_555
Mg4 N68 1.967653 1_555
Mg4 N67 1.967720 1_555
Mg5 N69 1.967574 1_555
Mg5 N71 1.967653 1_455
Mg5 N70 1.967720 1_455
Mg6 N43 2.074253 1_555
Mg6 N16 2.086865 1_556
Mg6 N54 2.326513 1_555
Mg6 N30 2.413574 1_555
Mg6 N121 2.700387 1_565
Mg7 N44 2.073781 1_555
Mg7 N15 2.086330 1_556
Mg7 N55 2.325821 1_555
Mg7 N31 2.414111 1_555
Mg7 N50 2.702459 1_555
Mg8 N42 2.074457 1_555
Mg8 N17 2.087409 1_556
Mg8 N56 2.325019 1_555
Mg8 N32 2.415334 1_555
Mg8 N48 2.700735 1_555
Mg9 N46 2.074253 1_555
Mg9 N13 2.086865 1_555
Mg9 N57 2.326513 1_555
Mg9 N33 2.413574 1_555
Mg9 N124 2.700387 1_555
Mg10 N47 2.073781 1_555
Mg10 N12 2.086330 1_555
Mg10 N58 2.325821 1_555
Mg10 N34 2.414111 1_555
Mg10 N53 2.702459 1_555
Mg11 N45 2.074457 1_555
Mg11 N14 2.087409 1_555
Mg11 N59 2.325019 1_555
Mg11 N35 2.415334 1_555
Mg11 N51 2.700735 1_555
Mg12 N10 2.133712 1_555
Mg12 N40 2.163226 1_555
Mg12 N18 2.165819 1_555
Mg12 N60 2.247067 1_555
Mg13 N9 2.134318 1_555
Mg13 N39 2.164436 1_555
Mg13 N19 2.165469 1_555
Mg13 N61 2.249358 1_555
Mg14 N11 2.133957 1_555
Mg14 N113 2.163999 1_555
Mg14 N20 2.165967 1_555
Mg14 N62 2.247528 1_555
Mg15 N7 2.133712 1_554
Mg15 N37 2.163226 1_555
Mg15 N21 2.165819 1_555
Mg15 N63 2.247067 1_555
Mg16 N6 2.134318 1_554
Mg16 N36 2.164436 1_555
Mg16 N22 2.165469 1_555
Mg16 N64 2.249358 1_555
Mg17 N8 2.133957 1_554
Mg17 N110 2.163999 1_565
Mg17 N23 2.165967 1_555
Mg17 N65 2.247528 1_555
Mg18 N85 2.115703 1_565
Mg18 N60 2.194628 1_555
Mg18 N52 2.270925 1_555
Mg18 N30 2.384782 1_555
Mg18 N1 2.632208 1_555
Mg19 N14 2.113907 1_555
Mg19 N61 2.194756 1_555
Mg19 N51 2.268744 1_555
Mg19 N31 2.386956 1_555
Mg19 N2 2.642515 1_555
Mg20 N12 2.115372 1_555
Mg20 N134 2.195230 1_565
Mg20 N53 2.270136 1_555
Mg20 N32 2.387891 1_555
Mg20 N0 2.634445 1_555
Mg21 N88 2.115703 1_555
Mg21 N63 2.194628 1_555
Mg21 N49 2.270925 1_554
Mg21 N33 2.384782 1_555
Mg21 N4 2.632208 1_555
Mg22 N17 2.113907 1_555
Mg22 N64 2.194756 1_455
Mg22 N48 2.268744 1_554
Mg22 N34 2.386956 1_555
Mg22 N5 2.642515 1_555
Mg23 N15 2.115372 1_555
Mg23 N137 2.195230 1_555
Mg23 N50 2.270136 1_554
Mg23 N35 2.387891 1_555
Mg23 N3 2.634445 1_555
Mg24 N6 2.077624 1_555
Mg24 N1 2.115176 1_555
Mg24 N16 2.252053 1_556
Mg24 N64 2.312691 1_556
Mg24 N60 2.687203 1_555
Mg25 N7 2.078573 1_555
Mg25 N2 2.116056 1_555
Mg25 N15 2.253124 1_556
Mg25 N63 2.312572 1_556
Mg25 N61 2.680440 1_555
Mg26 N8 2.078090 1_555
Mg26 N0 2.115806 1_555
Mg26 N17 2.252748 1_556
Mg26 N65 2.312513 1_556
Mg26 N134 2.684655 1_565
Mg27 N9 2.077624 1_555
Mg27 N4 2.115176 1_555
Mg27 N13 2.252053 1_555
Mg27 N61 2.312691 1_555
Mg27 N63 2.687203 1_555
Mg28 N10 2.078573 1_555
Mg28 N5 2.116056 1_655
Mg28 N12 2.253124 1_655
Mg28 N60 2.312572 1_555
Mg28 N64 2.680440 1_555
Mg29 N11 2.078090 1_555
Mg29 N3 2.115806 1_555
Mg29 N14 2.252748 1_555
Mg29 N62 2.312513 1_555
Mg29 N137 2.684655 1_555
Mg30 N58 1.997861 1_555
Mg30 N24 2.151773 1_555
Mg30 N18 2.170298 1_455
Mg30 N48 2.191410 1_555
Mg31 N57 1.997844 1_555
Mg31 N25 2.152035 1_555
Mg31 N19 2.170688 1_555
Mg31 N49 2.191536 1_555
Mg32 N59 1.997935 1_555
Mg32 N26 2.151911 1_555
Mg32 N20 2.170530 1_555
Mg32 N50 2.190772 1_555
Mg33 N55 1.997861 1_554
Mg33 N27 2.151773 1_555
Mg33 N21 2.170298 1_555
Mg33 N51 2.191410 1_555
Mg34 N54 1.997844 1_554
Mg34 N28 2.152035 1_555
Mg34 N22 2.170688 1_555
Mg34 N52 2.191536 1_555
Mg35 N56 1.997935 1_554
Mg35 N29 2.151911 1_555
Mg35 N23 2.170530 1_555
Mg35 N53 2.190772 1_555
Mg36 N68 2.042624 1_555
Mg36 N43 2.100001 1_555
Mg36 N41 2.220447 1_555
Mg36 N30 2.415502 1_555
Mg37 N66 2.042505 1_555
Mg37 N44 2.100074 1_555
Mg37 N40 2.220453 1_555
Mg37 N31 2.413449 1_555
Mg38 N67 2.042622 1_555
Mg38 N42 2.100456 1_555
Mg38 N39 2.221389 1_555
Mg38 N32 2.412626 1_555
Mg39 N71 2.042624 1_455
Mg39 N46 2.100001 1_555
Mg39 N38 2.220447 1_455
Mg39 N33 2.415502 1_555
Mg40 N69 2.042505 1_555
Mg40 N47 2.100074 1_555
Mg40 N37 2.220453 1_555
Mg40 N34 2.413449 1_555
Mg41 N70 2.042622 1_555
Mg41 N45 2.100456 1_555
Mg41 N36 2.221389 1_555
Mg41 N35 2.412626 1_555
Mg42 N55 2.060251 1_555
Mg42 N66 2.101074 1_555
Mg42 N22 2.126519 1_556
Mg42 N44 2.159012 1_555
Mg43 N56 2.059835 1_555
Mg43 N67 2.101428 1_555
Mg43 N21 2.126442 1_556
Mg43 N42 2.159079 1_555
Mg44 N54 2.059780 1_555
Mg44 N68 2.101047 1_555
Mg44 N23 2.126354 1_556
Mg44 N43 2.159199 1_555
Mg45 N58 2.060251 1_555
Mg45 N69 2.101074 1_555
Mg45 N19 2.126519 1_555
Mg45 N47 2.159012 1_555
Mg46 N59 2.059835 1_555
Mg46 N70 2.101428 1_555
Mg46 N18 2.126442 1_555
Mg46 N45 2.159079 1_555
Mg47 N57 2.059780 1_555
Mg47 N71 2.101047 1_455
Mg47 N20 2.126354 1_455
Mg47 N46 2.159199 1_555
Mg48 N34 2.047911 1_656
Mg48 N24 2.077290 1_655
Mg48 N48 2.122344 1_655
Mg48 N36 2.122620 1_556
Mg49 N33 2.048074 1_556
Mg49 N25 2.077682 1_555
Mg49 N49 2.122598 1_555
Mg49 N37 2.122853 1_556
Mg50 N35 2.047827 1_556
Mg50 N26 2.077905 1_555
Mg50 N50 2.121836 1_555
Mg50 N38 2.123009 1_556
Mg51 N31 2.047911 1_555
Mg51 N27 2.077290 1_555
Mg51 N51 2.122344 1_555
Mg51 N39 2.122620 1_555
Mg52 N30 2.048074 1_555
Mg52 N28 2.077682 1_555
Mg52 N52 2.122598 1_555
Mg52 N40 2.122853 1_555
Mg53 N32 2.047827 1_555
Mg53 N29 2.077905 1_555
Mg53 N53 2.121836 1_555
Mg53 N41 2.123009 1_555
Mg54 N2 1.991223 1_555
Mg54 N72 1.991369 1_555
Mg54 N73 1.991492 1_555
Mg55 N5 1.991223 1_645
Mg55 N75 1.991369 1_655
Mg55 N76 1.991492 1_555
Mg56 N98 1.991597 1_555
Mg56 N96 1.991657 1_555
Mg56 N97 1.991742 1_555
Mg57 N101 1.991597 1_555
Mg57 N99 1.991657 1_655
Mg57 N100 1.991742 1_655
Mg58 N138 1.967574 1_555
Mg58 N140 1.967653 1_455
Mg58 N139 1.967720 1_455
Mg59 N141 1.967574 1_555
Mg59 N143 1.967653 1_555
Mg59 N142 1.967720 1_555
Mg60 N115 2.074253 1_555
Mg60 N88 2.086865 1_556
Mg60 N126 2.326513 1_555
Mg60 N102 2.413574 1_555
Mg60 N49 2.700387 1_555
Mg61 N116 2.073781 1_555
Mg61 N87 2.086330 1_556
Mg61 N127 2.325821 1_555
Mg61 N103 2.414111 1_555
Mg61 N122 2.702459 1_555
Mg62 N114 2.074457 1_555
Mg62 N89 2.087409 1_556
Mg62 N128 2.325019 1_555
Mg62 N104 2.415334 1_555
Mg62 N120 2.700735 1_555
Mg63 N118 2.074253 1_555
Mg63 N85 2.086865 1_555
Mg63 N129 2.326513 1_555
Mg63 N105 2.413574 1_555
Mg63 N52 2.700387 1_545
Mg64 N119 2.073781 1_555
Mg64 N84 2.086330 1_555
Mg64 N130 2.325821 1_555
Mg64 N106 2.414111 1_555
Mg64 N125 2.702459 1_555
Mg65 N117 2.074457 1_555
Mg65 N86 2.087409 1_555
Mg65 N131 2.325019 1_555
Mg65 N107 2.415334 1_555
Mg65 N123 2.700735 1_555
Mg66 N82 2.133712 1_555
Mg66 N112 2.163226 1_555
Mg66 N90 2.165819 1_555
Mg66 N132 2.247067 1_555
Mg67 N81 2.134318 1_555
Mg67 N111 2.164436 1_555
Mg67 N91 2.165469 1_555
Mg67 N133 2.249358 1_555
Mg68 N83 2.133957 1_555
Mg68 N41 2.163999 1_545
Mg68 N92 2.165967 1_555
Mg68 N134 2.247528 1_555
Mg69 N79 2.133712 1_554
Mg69 N109 2.163226 1_555
Mg69 N93 2.165819 1_555
Mg69 N135 2.247067 1_555
Mg70 N78 2.134318 1_554
Mg70 N108 2.164436 1_555
Mg70 N94 2.165469 1_555
Mg70 N136 2.249358 1_555
Mg71 N80 2.133957 1_554
Mg71 N38 2.163999 1_555
Mg71 N95 2.165967 1_555
Mg71 N137 2.247528 1_555
Mg72 N13 2.115703 1_555
Mg72 N132 2.194628 1_555
Mg72 N124 2.270925 1_555
Mg72 N102 2.384782 1_555
Mg72 N73 2.632208 1_555
Mg73 N86 2.113907 1_555
Mg73 N133 2.194756 1_455
Mg73 N123 2.268744 1_555
Mg73 N103 2.386956 1_555
Mg73 N74 2.642515 1_555
Mg74 N84 2.115372 1_555
Mg74 N62 2.195230 1_555
Mg74 N125 2.270136 1_555
Mg74 N104 2.387891 1_555
Mg74 N72 2.634445 1_555
Mg75 N16 2.115703 1_545
Mg75 N135 2.194628 1_555
Mg75 N121 2.270925 1_554
Mg75 N105 2.384782 1_555
Mg75 N76 2.632208 1_555
Mg76 N89 2.113907 1_555
Mg76 N136 2.194756 1_555
Mg76 N120 2.268744 1_554
Mg76 N106 2.386956 1_555
Mg76 N77 2.642515 1_555
Mg77 N87 2.115372 1_555
Mg77 N65 2.195230 1_545
Mg77 N122 2.270136 1_554
Mg77 N107 2.387891 1_555
Mg77 N75 2.634445 1_555
Mg78 N78 2.077624 1_555
Mg78 N73 2.115176 1_555
Mg78 N88 2.252053 1_556
Mg78 N136 2.312691 1_556
Mg78 N132 2.687203 1_555
Mg79 N79 2.078573 1_555
Mg79 N74 2.116056 1_655
Mg79 N87 2.253124 1_656
Mg79 N135 2.312572 1_556
Mg79 N133 2.680440 1_555
Mg80 N80 2.078090 1_555
Mg80 N72 2.115806 1_555
Mg80 N89 2.252748 1_556
Mg80 N137 2.312513 1_556
Mg80 N62 2.684655 1_555
Mg81 N81 2.077624 1_555
Mg81 N76 2.115176 1_555
Mg81 N85 2.252053 1_555
Mg81 N133 2.312691 1_555
Mg81 N135 2.687203 1_555
Mg82 N82 2.078573 1_555
Mg82 N77 2.116056 1_555
Mg82 N84 2.253124 1_555
Mg82 N132 2.312572 1_555
Mg82 N136 2.680440 1_555
Mg83 N83 2.078090 1_555
Mg83 N75 2.115806 1_555
Mg83 N86 2.252748 1_555
Mg83 N134 2.312513 1_555
Mg83 N65 2.684655 1_545
Mg84 N130 1.997861 1_555
Mg84 N96 2.151773 1_555
Mg84 N90 2.170298 1_555
Mg84 N120 2.191410 1_555
Mg85 N129 1.997844 1_555
Mg85 N97 2.152035 1_555
Mg85 N91 2.170688 1_555
Mg85 N121 2.191536 1_555
Mg86 N131 1.997935 1_555
Mg86 N98 2.151911 1_555
Mg86 N92 2.170530 1_555
Mg86 N122 2.190772 1_555
Mg87 N127 1.997861 1_554
Mg87 N99 2.151773 1_555
Mg87 N93 2.170298 1_455
Mg87 N123 2.191410 1_555
Mg88 N126 1.997844 1_554
Mg88 N100 2.152035 1_555
Mg88 N94 2.170688 1_555
Mg88 N124 2.191536 1_555
Mg89 N128 1.997935 1_554
Mg89 N101 2.151911 1_555
Mg89 N95 2.170530 1_555
Mg89 N125 2.190772 1_555
Mg90 N140 2.042624 1_455
Mg90 N115 2.100001 1_555
Mg90 N113 2.220447 1_455
Mg90 N102 2.415502 1_555
Mg91 N138 2.042505 1_555
Mg91 N116 2.100074 1_555
Mg91 N112 2.220453 1_555
Mg91 N103 2.413449 1_555
Mg92 N139 2.042622 1_555
Mg92 N114 2.100456 1_555
Mg92 N111 2.221389 1_555
Mg92 N104 2.412626 1_555
Mg93 N143 2.042624 1_555
Mg93 N118 2.100001 1_555
Mg93 N110 2.220447 1_555
Mg93 N105 2.415502 1_555
Mg94 N141 2.042505 1_555
Mg94 N119 2.100074 1_555
Mg94 N109 2.220453 1_555
Mg94 N106 2.413449 1_555
Mg95 N142 2.042622 1_555
Mg95 N117 2.100456 1_555
Mg95 N108 2.221389 1_555
Mg95 N107 2.412626 1_555
Mg96 N127 2.060251 1_555
Mg96 N138 2.101074 1_555
Mg96 N94 2.126519 1_556
Mg96 N116 2.159012 1_555
Mg97 N128 2.059835 1_555
Mg97 N139 2.101428 1_555
Mg97 N93 2.126442 1_556
Mg97 N114 2.159079 1_555
Mg98 N126 2.059780 1_555
Mg98 N140 2.101047 1_455
Mg98 N95 2.126354 1_456
Mg98 N115 2.159199 1_555
Mg99 N130 2.060251 1_555
Mg99 N141 2.101074 1_555
Mg99 N91 2.126519 1_555
Mg99 N119 2.159012 1_555
Mg100 N131 2.059835 1_555
Mg100 N142 2.101428 1_555
Mg100 N90 2.126442 1_555
Mg100 N117 2.159079 1_555
Mg101 N129 2.059780 1_555
Mg101 N143 2.101047 1_555
Mg101 N92 2.126354 1_555
Mg101 N118 2.159199 1_555
Mg102 N106 2.047911 1_556
Mg102 N96 2.077290 1_555
Mg102 N120 2.122344 1_555
Mg102 N108 2.122620 1_556
Mg103 N105 2.048074 1_556
Mg103 N97 2.077682 1_555
Mg103 N121 2.122598 1_555
Mg103 N109 2.122853 1_556
Mg104 N107 2.047827 1_556
Mg104 N98 2.077905 1_555
Mg104 N122 2.121836 1_555
Mg104 N110 2.123009 1_556
Mg105 N103 2.047911 1_655
Mg105 N99 2.077290 1_655
Mg105 N123 2.122344 1_655
Mg105 N111 2.122620 1_555
Mg106 N102 2.048074 1_555
Mg106 N100 2.077682 1_555
Mg106 N124 2.122598 1_555
Mg106 N112 2.122853 1_555
Mg107 N104 2.047827 1_555
Mg107 N101 2.077905 1_555
Mg107 N125 2.121836 1_555
Mg107 N113 2.123009 1_555
N0 W0 1.860704 1_555
N1 W19 1.860815 1_565
N2 W2 1.860778 1_555
N3 W3 1.860704 1_555
N4 W22 1.860815 1_555
N5 W5 1.860778 1_555
N6 W12 1.832671 1_555
N7 W13 1.833021 1_555
N8 W14 1.832659 1_555
N9 W15 1.832671 1_555
N10 W16 1.833021 1_555
N11 W17 1.832659 1_555
N12 W0 1.850911 1_555
N13 W1 1.850741 1_555
N14 W2 1.851075 1_555
N15 W3 1.850911 1_555
N16 W4 1.850741 1_555
N17 W5 1.851075 1_555
N18 W8 1.887878 1_555
N19 W6 1.887625 1_555
N20 W7 1.887784 1_555
N21 W11 1.887878 1_555
N22 W9 1.887625 1_555
N23 W10 1.887784 1_555
N24 W6 1.919835 1_555
N25 W7 1.920014 1_455
N26 W8 1.919949 1_555
N27 W9 1.919835 1_555
N28 W10 1.920014 1_555
N29 W11 1.919949 1_555
N30 W12 1.936869 1_555
N31 W13 1.936747 1_555
N32 W14 1.936614 1_555
N33 W15 1.936869 1_555
N34 W16 1.936747 1_455
N35 W17 1.936614 1_555
N36 W8 1.876960 1_554
N37 W6 1.877065 1_554
N38 W7 1.877032 1_554
N39 W11 1.876960 1_555
N40 W9 1.877065 1_555
N41 W10 1.877032 1_555
N42 W6 1.849738 1_555
N43 W25 1.849713 1_565
N44 W8 1.849805 1_555
N45 W9 1.849738 1_555
N46 W28 1.849713 1_455
N47 W11 1.849805 1_555
N48 W0 1.917232 1_555
N49 W1 1.917042 1_555
N50 W2 1.916986 1_555
N51 W3 1.917232 1_555
N52 W4 1.917042 1_555
N53 W5 1.916986 1_555
N54 W12 1.877199 1_555
N55 W13 1.877187 1_555
N56 W14 1.877332 1_555
N57 W15 1.877199 1_555
N58 W16 1.877187 1_455
N59 W17 1.877332 1_555
N60 W0 1.931544 1_655
N61 W1 1.931845 1_555
N62 W2 1.931570 1_555
N63 W3 1.931544 1_555
N64 W4 1.931845 1_555
N65 W5 1.931570 1_555
N66 W12 1.896770 1_555
N67 W13 1.896617 1_555
N68 W14 1.896789 1_555
N69 W15 1.896770 1_555
N70 W16 1.896617 1_555
N71 W17 1.896789 1_555
N72 W18 1.860704 1_555
N73 W1 1.860815 1_555
N74 W20 1.860778 1_555
N75 W21 1.860704 1_555
N76 W4 1.860815 1_545
N77 W23 1.860778 1_555
N78 W30 1.832671 1_555
N79 W31 1.833021 1_555
N80 W32 1.832659 1_555
N81 W33 1.832671 1_555
N82 W34 1.833021 1_555
N83 W35 1.832659 1_555
N84 W18 1.850911 1_555
N85 W19 1.850741 1_555
N86 W20 1.851075 1_555
N87 W21 1.850911 1_555
N88 W22 1.850741 1_555
N89 W23 1.851075 1_555
N90 W26 1.887878 1_555
N91 W24 1.887625 1_555
N92 W25 1.887784 1_555
N93 W29 1.887878 1_555
N94 W27 1.887625 1_555
N95 W28 1.887784 1_555
N96 W24 1.919835 1_555
N97 W25 1.920014 1_555
N98 W26 1.919949 1_555
N99 W27 1.919835 1_555
N100 W28 1.920014 1_455
N101 W29 1.919949 1_555
N102 W30 1.936869 1_555
N103 W31 1.936747 1_455
N104 W32 1.936614 1_555
N105 W33 1.936869 1_555
N106 W34 1.936747 1_555
N107 W35 1.936614 1_555
N108 W26 1.876960 1_554
N109 W24 1.877065 1_554
N110 W25 1.877032 1_554
N111 W29 1.876960 1_555
N112 W27 1.877065 1_555
N113 W28 1.877032 1_555
N114 W24 1.849738 1_555
N115 W7 1.849713 1_455
N116 W26 1.849805 1_555
N117 W27 1.849738 1_555
N118 W10 1.849713 1_545
N119 W29 1.849805 1_555
N120 W18 1.917232 1_555
N121 W19 1.917042 1_555
N122 W20 1.916986 1_555
N123 W21 1.917232 1_555
N124 W22 1.917042 1_555
N125 W23 1.916986 1_555
N126 W30 1.877199 1_555
N127 W31 1.877187 1_455
N128 W32 1.877332 1_555
N129 W33 1.877199 1_555
N130 W34 1.877187 1_555
N131 W35 1.877332 1_555
N132 W18 1.931544 1_555
N133 W19 1.931845 1_555
N134 W20 1.931570 1_555
N135 W21 1.931544 1_655
N136 W22 1.931845 1_555
N137 W23 1.931570 1_555
N138 W30 1.896770 1_555
N139 W31 1.896617 1_555
N140 W32 1.896789 1_555
N141 W33 1.896770 1_555
N142 W34 1.896617 1_555
N143 W35 1.896789 1_555
