# generated using pymatgen
data_Al3(V3C2)4
_symmetry_space_group_name_H-M   'P 1'
_cell_length_a   5.04137738
_cell_length_b   5.04137055
_cell_length_c   22.60489887
_cell_angle_alpha   90.00000000
_cell_angle_beta   90.00000000
_cell_angle_gamma   119.99997160
_symmetry_Int_Tables_number   1
_chemical_formula_structural   Al3(V3C2)4
_chemical_formula_sum   'Al6 V24 C16'
_cell_volume   497.54361017
_cell_formula_units_Z   2
loop_
 _symmetry_equiv_pos_site_id
 _symmetry_equiv_pos_as_xyz
  1  'x, y, z'
loop_
 _atom_site_type_symbol
 _atom_site_label
 _atom_site_symmetry_multiplicity
 _atom_site_fract_x
 _atom_site_fract_y
 _atom_site_fract_z
 _atom_site_occupancy
  Al  Al0  1  0.32884873  0.00000917  0.75000000  1
  Al  Al1  1  0.67115127  0.99999083  0.25000000  1
  Al  Al2  1  0.99999090  0.32883960  0.75000000  1
  Al  Al3  1  0.00000910  0.67116040  0.25000000  1
  Al  Al4  1  0.67116032  0.67115123  0.75000000  1
  Al  Al5  1  0.32883968  0.32884877  0.25000000  1
  V  V0  1  0.35467841  -0.00000150  0.55450409  1
  V  V1  1  0.64532159  0.00000150  0.44549591  1
  V  V2  1  0.00000304  0.35467985  0.55450435  1
  V  V3  1  0.64532159  0.00000150  0.05450409  1
  V  V4  1  0.00000304  0.35467985  0.94549565  1
  V  V5  1  -0.00000304  0.64532015  0.44549565  1
  V  V6  1  0.35467841  -0.00000150  0.94549591  1
  V  V7  1  -0.00000304  0.64532015  0.05450435  1
  V  V8  1  0.64531760  0.64532282  0.55450422  1
  V  V9  1  0.35468240  0.35467718  0.44549578  1
  V  V10  1  0.35468240  0.35467718  0.05450422  1
  V  V11  1  0.64531760  0.64532282  0.94549578  1
  V  V12  1  0.00000023  0.99999828  0.65295195  1
  V  V13  1  0.99999977  0.00000172  0.34704805  1
  V  V14  1  0.99999977  0.00000172  0.15295195  1
  V  V15  1  0.00000023  0.99999828  0.84704805  1
  V  V16  1  0.33333542  0.66666900  0.65645765  1
  V  V17  1  0.66666458  0.33333100  0.34354235  1
  V  V18  1  0.66666458  0.33333100  0.15645765  1
  V  V19  1  0.66666415  0.33333251  0.84353954  1
  V  V20  1  0.33333542  0.66666900  0.84354235  1
  V  V21  1  0.33333585  0.66666749  0.15646046  1
  V  V22  1  0.33333585  0.66666749  0.34353954  1
  V  V23  1  0.66666415  0.33333251  0.65646046  1
  C  C0  1  0.66678994  -0.00000168  0.60666733  1
  C  C1  1  0.33321006  0.00000168  0.39333267  1
  C  C2  1  0.99999980  0.66679369  0.60666737  1
  C  C3  1  0.33321006  0.00000168  0.10666733  1
  C  C4  1  0.99999980  0.66679369  0.89333263  1
  C  C5  1  0.00000020  0.33320631  0.39333263  1
  C  C6  1  0.66678994  -0.00000168  0.89333267  1
  C  C7  1  0.00000020  0.33320631  0.10666737  1
  C  C8  1  0.33321039  0.33320812  0.60666728  1
  C  C9  1  0.66678961  0.66679188  0.39333272  1
  C  C10  1  0.66678961  0.66679188  0.10666728  1
  C  C11  1  0.33321039  0.33320812  0.89333272  1
  C  C12  1  0.33333736  0.66666942  0.50000065  1
  C  C13  1  0.66666264  0.33333058  0.49999935  1
  C  C14  1  0.66666264  0.33333058  0.00000065  1
  C  C15  1  0.33333736  0.66666942  -0.00000065  1
loop_
_geom_bond_atom_site_label_1
_geom_bond_atom_site_label_2
_geom_bond_distance
_geom_bond_site_symmetry_2
Al0 V23 2.707997 1_555
Al0 V19 2.707997 1_555
Al0 V16 2.708090 1_545
Al0 V20 2.708090 1_545
Al0 V12 2.749720 1_545
Al0 V15 2.749720 1_545
Al0 Al2 2.871439 1_455
Al0 Al4 2.871443 1_445
Al0 Al4 2.930374 1_555
Al0 Al2 2.930378 1_555
Al0 Al2 2.930493 1_445
Al0 Al4 2.930494 1_545
Al1 V21 2.707997 1_555
Al1 V22 2.707997 1_555
Al1 V18 2.708090 1_565
Al1 V17 2.708090 1_565
Al1 V14 2.749720 1_565
Al1 V13 2.749720 1_565
Al1 Al3 2.871439 1_655
Al1 Al5 2.871443 1_665
Al1 Al5 2.930374 1_555
Al1 Al3 2.930378 1_555
Al1 Al3 2.930493 1_665
Al1 Al5 2.930494 1_565
Al2 V23 2.708009 1_555
Al2 V19 2.708009 1_555
Al2 V16 2.708102 1_655
Al2 V20 2.708102 1_655
Al2 V12 2.749728 1_645
Al2 V15 2.749728 1_645
Al2 Al4 2.871439 1_545
Al2 Al4 2.930375 1_555
Al2 Al4 2.930496 1_655
Al3 V21 2.708009 1_555
Al3 V22 2.708009 1_555
Al3 V18 2.708102 1_455
Al3 V17 2.708102 1_455
Al3 V13 2.749728 1_465
Al3 V14 2.749728 1_465
Al3 Al5 2.871439 1_565
Al3 Al5 2.930375 1_555
Al3 Al5 2.930496 1_455
Al4 V19 2.708000 1_555
Al4 V23 2.708000 1_555
Al4 V20 2.708092 1_555
Al4 V16 2.708092 1_555
Al4 V12 2.749721 1_655
Al4 V15 2.749721 1_655
Al5 V21 2.708000 1_555
Al5 V22 2.708000 1_555
Al5 V18 2.708092 1_555
Al5 V17 2.708092 1_555
Al5 V14 2.749721 1_455
Al5 V13 2.749721 1_455
C0 V0 1.966265 1_555
C0 V12 1.979019 1_645
C0 V16 2.022794 1_545
C0 V23 2.022850 1_555
C0 V8 2.098967 1_545
C0 V2 2.098999 1_655
C1 V1 1.966265 1_555
C1 V13 1.979019 1_455
C1 V17 2.022794 1_555
C1 V22 2.022850 1_545
C1 V9 2.098967 1_555
C1 V5 2.098999 1_545
C2 V2 1.966276 1_655
C2 V12 1.978991 1_655
C2 V16 2.022819 1_655
C2 V23 2.022856 1_555
C2 V0 2.098981 1_665
C2 V8 2.099000 1_555
C3 V3 1.966265 1_555
C3 V14 1.979019 1_455
C3 V18 2.022794 1_555
C3 V21 2.022850 1_545
C3 V10 2.098967 1_555
C3 V7 2.098999 1_545
C4 V4 1.966276 1_655
C4 V15 1.978991 1_655
C4 V20 2.022819 1_655
C4 V19 2.022856 1_555
C4 V6 2.098981 1_665
C4 V11 2.099000 1_555
C5 V5 1.966276 1_555
C5 V13 1.978991 1_455
C5 V17 2.022819 1_455
C5 V22 2.022856 1_555
C5 V1 2.098981 1_455
C5 V9 2.099000 1_555
C6 V6 1.966265 1_555
C6 V15 1.979019 1_645
C6 V20 2.022794 1_545
C6 V19 2.022850 1_555
C6 V11 2.098967 1_545
C6 V4 2.098999 1_655
C7 V7 1.966276 1_555
C7 V14 1.978991 1_455
C7 V18 2.022819 1_455
C7 V21 2.022856 1_555
C7 V3 2.098981 1_455
C7 V10 2.099000 1_555
C8 V8 1.966260 1_555
C8 V12 1.979018 1_545
C8 V16 2.022820 1_555
C8 V23 2.022829 1_555
C8 V2 2.098983 1_555
C8 V0 2.098985 1_555
C9 V9 1.966260 1_555
C9 V13 1.979018 1_565
C9 V17 2.022820 1_555
C9 V22 2.022829 1_555
C9 V5 2.098983 1_655
C9 V1 2.098985 1_565
C10 V10 1.966260 1_555
C10 V14 1.979018 1_565
C10 V18 2.022820 1_555
C10 V21 2.022829 1_555
C10 V7 2.098983 1_655
C10 V3 2.098985 1_565
C11 V11 1.966260 1_555
C11 V15 1.979018 1_545
C11 V20 2.022820 1_555
C11 V19 2.022829 1_555
C11 V4 2.098983 1_555
C11 V6 2.098985 1_555
C12 V8 2.042673 1_555
C12 V0 2.042689 1_565
C12 V1 2.042708 1_565
C12 V2 2.042708 1_555
C12 V9 2.042734 1_555
C12 V5 2.042743 1_555
C13 V9 2.042673 1_555
C13 V1 2.042689 1_555
C13 V0 2.042708 1_555
C13 V5 2.042708 1_655
C13 V8 2.042734 1_555
C13 V2 2.042743 1_655
C14 V10 2.042673 1_555
C14 V3 2.042689 1_555
C14 V6 2.042708 1_554
C14 V7 2.042708 1_655
C14 V11 2.042734 1_554
C14 V4 2.042743 1_654
C15 V11 2.042673 1_554
C15 V6 2.042689 1_564
C15 V3 2.042708 1_565
C15 V4 2.042708 1_554
C15 V10 2.042734 1_555
C15 V7 2.042743 1_555
