# generated using pymatgen
data_VH3O4
_symmetry_space_group_name_H-M   'P 1'
_cell_length_a   7.43805271
_cell_length_b   7.41883424
_cell_length_c   7.41883424
_cell_angle_alpha   90.00000000
_cell_angle_beta   60.08543481
_cell_angle_gamma   119.91456519
_symmetry_Int_Tables_number   1
_chemical_formula_structural   VH3O4
_chemical_formula_sum   'V4 H12 O16'
_cell_volume   290.22404418
_cell_formula_units_Z   4
loop_
 _symmetry_equiv_pos_site_id
 _symmetry_equiv_pos_as_xyz
  1  'x, y, z'
loop_
 _atom_site_type_symbol
 _atom_site_label
 _atom_site_symmetry_multiplicity
 _atom_site_fract_x
 _atom_site_fract_y
 _atom_site_fract_z
 _atom_site_occupancy
  V  V0  1  0.48739700  0.99343600  0.50630200  1
  V  V1  1  0.48739700  0.49396100  0.50630200  1
  V  V2  1  0.98739700  0.49369800  0.00656400  1
  V  V3  1  0.98739700  0.49369800  0.50603900  1
  H  H0  1  0.24786600  0.90818000  0.33205200  1
  H  H1  1  0.24786600  0.33968500  0.92008200  1
  H  H2  1  0.66819200  0.33409600  0.91590400  1
  H  H3  1  0.80721900  0.90361000  0.34639000  1
  H  H4  1  0.24786600  0.33968500  0.33205200  1
  H  H5  1  0.24786600  0.90818000  0.92008200  1
  H  H6  1  0.74786600  0.07991800  0.66031500  1
  H  H7  1  0.74786600  0.66794800  0.09182000  1
  H  H8  1  0.30721900  0.65361000  0.09639000  1
  H  H9  1  0.16819200  0.08409600  0.66590400  1
  H  H10  1  0.74786600  0.66794800  0.66031500  1
  H  H11  1  0.74786600  0.07991800  0.09182000  1
  O  O0  1  0.23926100  0.81246700  0.43641500  1
  O  O1  1  0.23926100  0.42679400  0.82432500  1
  O  O2  1  0.85378700  0.42689300  0.82310700  1
  O  O3  1  0.62129300  0.81064600  0.43935400  1
  O  O4  1  0.23926100  0.42679400  0.43641500  1
  O  O5  1  0.23926100  0.81246700  0.82432500  1
  O  O6  1  0.73926100  0.17567500  0.57320600  1
  O  O7  1  0.73926100  0.56358500  0.18753300  1
  O  O8  1  0.12129300  0.56064600  0.18935400  1
  O  O9  1  0.35378700  0.17689300  0.57310700  1
  O  O10  1  0.73926100  0.56358500  0.57320600  1
  O  O11  1  0.73926100  0.17567500  0.18753300  1
  O  O12  1  0.25090500  0.03431900  0.12454700  1
  O  O13  1  0.25090500  0.21658600  0.12454700  1
  O  O14  1  0.75090500  0.87545300  0.96568100  1
  O  O15  1  0.75090500  0.87545300  0.78341400  1
loop_
_geom_bond_atom_site_label_1
_geom_bond_atom_site_label_2
_geom_bond_distance
_geom_bond_site_symmetry_2
H0 O0 1.006487 1_555
H0 O12 1.786148 1_565
H1 O1 1.006487 1_555
H1 O13 1.786138 1_556
H2 O2 0.978652 1_555
H3 O3 0.980397 1_555
H4 O4 1.006492 1_555
H4 O13 1.786144 1_555
H5 O5 1.006482 1_555
H5 O12 1.786142 1_566
H6 O6 1.006487 1_555
H6 O15 1.786138 1_545
H7 O7 1.006487 1_555
H7 O14 1.786148 1_554
H8 O8 0.980397 1_555
H9 O9 0.978652 1_555
H10 O10 1.006492 1_555
H10 O15 1.786144 1_555
H11 O11 1.006482 1_555
H11 O14 1.786142 1_544
O0 V0 1.990149 1_555
O0 V3 1.996253 1_455
O1 V1 1.990149 1_555
O1 V2 1.996246 1_456
O2 V2 1.985831 1_556
O2 V3 1.985838 1_555
O3 V1 1.982726 1_555
O3 V0 1.982733 1_555
O4 V1 1.990149 1_555
O4 V3 1.996247 1_455
O5 V0 1.990149 1_555
O5 V2 1.996251 1_456
O6 V3 1.990149 1_555
O6 V0 1.996246 1_545
O7 V2 1.990149 1_555
O7 V1 1.996253 1_555
O8 V3 1.982726 1_455
O8 V2 1.982733 1_455
O9 V0 1.985831 1_545
O9 V1 1.985838 1_555
O10 V3 1.990149 1_555
O10 V1 1.996247 1_555
O11 V2 1.990149 1_555
O11 V0 1.996251 1_545
O12 O13 1.352209 1_555
O14 O15 1.352209 1_555
