# generated using pymatgen
data_Li9Mn2Co5O16
_symmetry_space_group_name_H-M   'P 1'
_cell_length_a   5.19450000
_cell_length_b   5.92209120
_cell_length_c   10.29335530
_cell_angle_alpha   104.65014715
_cell_angle_beta   95.17590866
_cell_angle_gamma   109.11438335
_symmetry_Int_Tables_number   1
_chemical_formula_structural   Li9Mn2Co5O16
_chemical_formula_sum   'Li9 Mn2 Co5 O16'
_cell_volume   284.22958583
_cell_formula_units_Z   1
loop_
 _symmetry_equiv_pos_site_id
 _symmetry_equiv_pos_as_xyz
  1  'x, y, z'
loop_
 _atom_site_type_symbol
 _atom_site_label
 _atom_site_symmetry_multiplicity
 _atom_site_fract_x
 _atom_site_fract_y
 _atom_site_fract_z
 _atom_site_occupancy
  Li  Li0  1  0.37450000  0.81115000  0.12062500  1
  Li  Li1  1  0.13053000  0.94237800  0.36981500  1
  Li  Li2  1  0.87010700  0.06585000  0.62975100  1
  Li  Li3  1  0.62677500  0.19517700  0.87774100  1
  Li  Li4  1  0.37552400  0.31842300  0.12248800  1
  Li  Li5  1  0.13104400  0.43170200  0.37361700  1
  Li  Li6  1  0.86825000  0.55720200  0.62956500  1
  Li  Li7  1  0.62566700  0.67760200  0.87743700  1
  Li  Li8  1  0.99997200  0.50114100  0.99884700  1
  Mn  Mn0  1  0.00294600  0.00558500  0.99864800  1
  Mn  Mn1  1  0.50234300  0.74692000  0.50084600  1
  Co  Co0  1  0.75529900  0.12240200  0.24986900  1
  Co  Co1  1  0.49805400  0.24685800  0.49958900  1
  Co  Co2  1  0.24038600  0.38289300  0.75384700  1
  Co  Co3  1  0.75881300  0.61569000  0.24113300  1
  Co  Co4  1  0.24610900  0.87079300  0.75195200  1
  O  O0  1  0.69453700  0.67562000  0.06727300  1
  O  O1  1  0.46214400  0.78935100  0.31827300  1
  O  O2  1  0.22952100  0.90223300  0.56056500  1
  O  O3  1  0.94579900  0.05505000  0.81900800  1
  O  O4  1  0.72038600  0.14440800  0.06955400  1
  O  O5  1  0.44338100  0.28107300  0.32431700  1
  O  O6  1  0.20082200  0.42055900  0.56740600  1
  O  O7  1  0.96146100  0.55570200  0.80739700  1
  O  O8  1  0.06637100  0.96460700  0.17550600  1
  O  O9  1  0.79765100  0.07468100  0.43476000  1
  O  O10  1  0.53559100  0.20147300  0.67850700  1
  O  O11  1  0.30199400  0.33197400  0.92894400  1
  O  O12  1  0.02872500  0.45205000  0.19923900  1
  O  O13  1  0.77267600  0.59229100  0.44075100  1
  O  O14  1  0.55260900  0.70451500  0.68108300  1
  O  O15  1  0.28001300  0.86264500  0.93164700  1
loop_
_geom_bond_atom_site_label_1
_geom_bond_atom_site_label_2
_geom_bond_distance
_geom_bond_site_symmetry_2
Li0 O15 2.084130 1_554
Li0 O1 2.089783 1_555
Li0 O0 2.127224 1_555
Li0 O8 2.136102 1_555
Li0 O4 2.402597 1_565
Li1 O8 2.042159 1_555
Li1 O2 2.076082 1_555
Li1 O9 2.209434 1_465
Li1 O1 2.239203 1_555
Li1 O5 2.315424 1_565
Li2 O3 1.973583 1_555
Li2 O9 2.025482 1_555
Li2 O10 2.187194 1_555
Li2 Mn1 2.211177 1_545
Li2 O14 2.448685 1_545
Li2 O2 2.450964 1_645
Li2 O6 2.508598 1_655
Li3 O10 2.075198 1_555
Li3 O4 2.109003 1_556
Li3 O11 2.149384 1_555
Li3 O3 2.151271 1_555
Li4 O11 2.021116 1_554
Li4 O5 2.154192 1_555
Li4 Mn0 2.194298 1_554
Li4 O12 2.317274 1_555
Li4 O4 2.380975 1_555
Li4 O8 2.408315 1_545
Li4 O0 2.454816 1_555
Li5 O12 1.870301 1_555
Li5 O6 2.016560 1_555
Li5 O5 2.133765 1_555
Li5 Mn1 2.206686 1_555
Li5 O13 2.430312 1_455
Li5 O1 2.483957 1_555
Li5 O9 2.517404 1_455
Li6 O7 1.853734 1_555
Li6 O13 2.040765 1_555
Li6 O14 2.142478 1_555
Li6 O6 2.213974 1_655
Li6 O2 2.581580 1_655
Li7 O0 1.958227 1_556
Li7 O14 2.078124 1_555
Li7 O7 2.207198 1_555
Li7 Mn0 2.238334 1_665
Li7 O11 2.398633 1_555
Li7 O15 2.428190 1_555
Li7 O3 2.559224 1_565
Li8 O7 2.078756 1_555
Li8 O12 2.153548 1_656
Li8 O11 2.202512 1_655
Li8 O0 2.233414 1_556
Li8 O4 2.461934 1_556
Mn0 O8 1.910270 1_546
Mn0 O3 1.955761 1_455
Mn0 O15 1.986263 1_545
Mn0 O4 2.010703 1_456
Mn1 O14 1.940200 1_555
Mn1 O1 1.959821 1_555
Mn1 O13 1.976221 1_555
Mn1 O2 1.989243 1_555
Co0 O4 1.889942 1_555
Co0 O9 1.996867 1_555
Co0 Li5 2.194776 1_655
Co0 O8 2.218202 1_645
Co0 O12 2.220874 1_655
Co0 O5 2.225384 1_555
Co0 Li0 2.230948 1_545
Co0 O1 2.373558 1_545
Co1 O5 1.872639 1_555
Co1 O10 1.929225 1_555
Co1 Li1 2.178866 1_545
Co1 O9 2.188458 1_555
Co1 O6 2.191050 1_555
Co1 Li6 2.200695 1_555
Co1 O2 2.333761 1_545
Co1 O13 2.336239 1_555
Co2 O11 1.917239 1_555
Co2 O6 1.987548 1_555
Co2 O7 2.068873 1_455
Co2 Li7 2.190840 1_555
Co2 Li2 2.198834 1_455
Co2 O10 2.231419 1_555
Co2 O3 2.336480 1_455
Co2 O14 2.395172 1_555
Co3 O0 1.931630 1_555
Co3 O12 1.969366 1_655
Co3 O13 2.090503 1_555
Co3 Li4 2.175540 1_555
Co3 O1 2.215547 1_555
Co3 Li1 2.240882 1_655
Co3 O8 2.452993 1_655
Co3 O5 2.515890 1_555
Co4 O15 1.856486 1_555
Co4 O2 2.021996 1_555
Co4 Li6 2.207183 1_455
Co4 O7 2.208604 1_455
Co4 O14 2.215757 1_555
Co4 O3 2.242470 1_465
Co4 Li3 2.251440 1_565
Co4 O10 2.386028 1_565
O10 O2 1.964767 1_545
