# generated using pymatgen
data_LiVSb
_symmetry_space_group_name_H-M   'P 1'
_cell_length_a   4.53324885
_cell_length_b   4.53324885
_cell_length_c   4.53324885
_cell_angle_alpha   60.00000000
_cell_angle_beta   60.00000000
_cell_angle_gamma   60.00000000
_symmetry_Int_Tables_number   1
_chemical_formula_structural   LiVSb
_chemical_formula_sum   'Li1 V1 Sb1'
_cell_volume   65.87394627
_cell_formula_units_Z   1
loop_
 _symmetry_equiv_pos_site_id
 _symmetry_equiv_pos_as_xyz
  1  'x, y, z'
loop_
 _atom_site_type_symbol
 _atom_site_label
 _atom_site_symmetry_multiplicity
 _atom_site_fract_x
 _atom_site_fract_y
 _atom_site_fract_z
 _atom_site_occupancy
  Li  Li0  1  0.00000000  0.00000000  0.00000000  1
  V  V0  1  0.25000000  0.25000000  0.25000000  1
  Sb  Sb0  1  0.50000000  0.50000000  0.50000000  1
loop_
_geom_bond_atom_site_label_1
_geom_bond_atom_site_label_2
_geom_bond_distance
_geom_bond_site_symmetry_2
Li0 V0 2.776037 1_554
Li0 V0 2.776037 1_555
Li0 V0 2.776037 1_455
Li0 V0 2.776037 1_545
Li0 Sb0 3.205491 1_544
Li0 Sb0 3.205491 1_445
Li0 Sb0 3.205491 1_455
Li0 Sb0 3.205491 1_454
Li0 Sb0 3.205491 1_545
Li0 Sb0 3.205491 1_554
Sb0 V0 2.776037 1_556
Sb0 V0 2.776037 1_655
Sb0 V0 2.776037 1_565
Sb0 V0 2.776037 1_555
