# generated using pymatgen
data_Al18Co5Ni3
_symmetry_space_group_name_H-M   'P 1'
_cell_length_a   4.06306800
_cell_length_b   6.40401511
_cell_length_c   14.88258347
_cell_angle_alpha   80.48905518
_cell_angle_beta   82.15439499
_cell_angle_gamma   71.50462103
_symmetry_Int_Tables_number   1
_chemical_formula_structural   Al18Co5Ni3
_chemical_formula_sum   'Al18 Co5 Ni3'
_cell_volume   360.72784866
_cell_formula_units_Z   1
loop_
 _symmetry_equiv_pos_site_id
 _symmetry_equiv_pos_as_xyz
  1  'x, y, z'
loop_
 _atom_site_type_symbol
 _atom_site_label
 _atom_site_symmetry_multiplicity
 _atom_site_fract_x
 _atom_site_fract_y
 _atom_site_fract_z
 _atom_site_occupancy
  Al  Al0  1  0.31952300  0.08942700  0.27152700  1
  Al  Al1  1  0.31892100  0.59043300  0.77172400  1
  Al  Al2  1  0.68112200  0.41114400  0.22661300  1
  Al  Al3  1  0.68092000  0.90945200  0.72870700  1
  Al  Al4  1  0.49626900  0.63916400  0.36829800  1
  Al  Al5  1  0.49643100  0.13871100  0.86842700  1
  Al  Al6  1  0.50543000  0.85918500  0.12995500  1
  Al  Al7  1  0.50372200  0.36102200  0.63153400  1
  Al  Al8  1  0.70031400  0.19520200  0.40417000  1
  Al  Al9  1  0.69912400  0.69498900  0.90676300  1
  Al  Al10  1  0.29624400  0.31159700  0.09591500  1
  Al  Al11  1  0.29969200  0.80511500  0.59550000  1
  Al  Al12  1  0.00082600  0.74890400  0.24944300  1
  Al  Al13  1  0.99985900  0.25030300  0.74998000  1
  Al  Al14  1  0.09747600  0.77671600  0.02833200  1
  Al  Al15  1  0.09550400  0.28183400  0.52715900  1
  Al  Al16  1  0.90457800  0.71800900  0.47283400  1
  Al  Al17  1  0.90357200  0.21894700  0.97390900  1
  Co  Co0  1  0.11303900  0.41815200  0.35576900  1
  Co  Co1  1  0.11356200  0.91858000  0.85429500  1
  Co  Co2  1  0.88646500  0.08180400  0.14526500  1
  Co  Co3  1  0.88654600  0.58200000  0.64490800  1
  Co  Co4  1  0.70611100  0.52498500  0.06279400  1
  Ni  Ni0  1  0.70608300  0.02474200  0.56309300  1
  Ni  Ni1  1  0.29370500  0.97540000  0.43719100  1
  Ni  Ni2  1  0.29496100  0.47418100  0.93589700  1
loop_
_geom_bond_atom_site_label_1
_geom_bond_atom_site_label_2
_geom_bond_distance
_geom_bond_site_symmetry_2
Al0 Ni1 2.450711 1_545
Al0 Co0 2.484337 1_555
Al0 Co2 2.759869 1_555
Al0 Co2 2.759872 1_455
Al1 Ni2 2.431758 1_555
Al1 Co1 2.466468 1_555
Al1 Co3 2.765921 1_455
Al1 Co3 2.765924 1_555
Al2 Co4 2.424435 1_555
Al2 Co2 2.462061 1_555
Al2 Co0 2.788525 1_655
Al2 Co0 2.788531 1_555
Al3 Ni0 2.451191 1_565
Al3 Co3 2.473677 1_555
Al3 Co1 2.754122 1_655
Al3 Co1 2.754122 1_555
Al4 Ni1 2.395829 1_555
Al4 Co0 2.455049 1_655
Al4 Co0 2.455052 1_555
Al5 Ni2 2.380445 1_555
Al5 Co1 2.455639 1_645
Al5 Co1 2.455642 1_545
Al6 Co4 2.371016 1_555
Al6 Co2 2.466829 1_565
Al6 Co2 2.466832 1_465
Al7 Ni0 2.392516 1_555
Al7 Co3 2.456788 1_555
Al7 Co3 2.456788 1_455
Al8 Ni0 2.435561 1_555
Al8 Ni1 2.444877 1_545
Al8 Ni1 2.444881 1_645
Al8 Co0 2.493776 1_655
Al8 Co0 2.493779 1_555
Al9 Co4 2.396113 1_556
Al9 Ni2 2.441402 1_655
Al9 Ni2 2.441402 1_555
Al9 Co1 2.509340 1_655
Al9 Co1 2.509344 1_555
Al10 Co4 2.425037 1_455
Al10 Co4 2.425041 1_555
Al10 Ni2 2.436406 1_554
Al10 Co2 2.518052 1_555
Al10 Co2 2.518056 1_455
Al11 Ni1 2.427034 1_555
Al11 Ni0 2.443178 1_465
Al11 Ni0 2.443184 1_565
Al11 Co3 2.497526 1_455
Al11 Co3 2.497529 1_555
Al12 Co2 2.374995 1_465
Al12 Co0 2.382225 1_555
Al13 Co1 2.370601 1_645
Al13 Co3 2.376509 1_555
Al14 Ni2 2.425511 1_554
Al14 Co4 2.553613 1_455
Al14 Co4 2.553616 1_555
Al14 Co1 2.598496 1_554
Al14 Co2 2.689685 1_465
Al15 Ni1 2.421503 1_545
Al15 Co0 2.554868 1_555
Al15 Ni0 2.575072 1_455
Al15 Ni0 2.575072 1_555
Al15 Co3 2.675531 1_455
Al16 Ni0 2.425807 1_565
Al16 Co3 2.564055 1_555
Al16 Ni1 2.575581 1_555
Al16 Ni1 2.575587 1_655
Al16 Co0 2.666665 1_655
Al17 Co4 2.409169 1_556
Al17 Co2 2.555379 1_556
Al17 Ni2 2.572646 1_555
Al17 Ni2 2.572646 1_655
Al17 Co1 2.696796 1_645
