# generated using pymatgen
data_ZrCrMo
_symmetry_space_group_name_H-M   'P 1'
_cell_length_a   5.23113779
_cell_length_b   5.23113779
_cell_length_c   5.23113779
_cell_angle_alpha   120.56175399
_cell_angle_beta   118.95057318
_cell_angle_gamma   90.42848012
_symmetry_Int_Tables_number   1
_chemical_formula_structural   ZrCrMo
_chemical_formula_sum   'Zr2 Cr2 Mo2'
_cell_volume   101.56677491
_cell_formula_units_Z   2
loop_
 _symmetry_equiv_pos_site_id
 _symmetry_equiv_pos_as_xyz
  1  'x, y, z'
loop_
 _atom_site_type_symbol
 _atom_site_label
 _atom_site_symmetry_multiplicity
 _atom_site_fract_x
 _atom_site_fract_y
 _atom_site_fract_z
 _atom_site_occupancy
  Zr  Zr0  1  0.37301000  0.12301000  0.25000000  1
  Zr  Zr1  1  0.62699000  0.87699000  0.75000000  1
  Cr  Cr0  1  0.00000000  0.50000000  0.00000000  1
  Cr  Cr1  1  0.00000000  0.00000000  0.50000000  1
  Mo  Mo0  1  0.50000000  0.50000000  0.00000000  1
  Mo  Mo1  1  0.00000000  0.50000000  0.50000000  1
loop_
_geom_bond_atom_site_label_1
_geom_bond_atom_site_label_2
_geom_bond_distance
_geom_bond_site_symmetry_2
Zr0 Zr1 3.198333 1_555
Zr0 Zr1 3.198333 1_544
Zr0 Zr1 3.216699 1_545
Zr0 Zr1 3.216699 1_444
Cr0 Cr1 2.593329 1_554
Cr0 Cr1 2.593329 1_565
Cr0 Mo0 2.615569 1_455
Cr0 Mo1 2.615569 1_554
Cr0 Mo0 2.615569 1_555
Cr0 Mo1 2.615569 1_555
Cr0 Zr1 3.039618 1_444
Cr0 Zr0 3.039618 1_565
Cr0 Zr0 3.101081 1_454
Cr0 Zr0 3.101081 1_555
Cr0 Zr1 3.101081 1_555
Cr0 Zr1 3.101081 1_454
Cr1 Mo0 2.615569 1_556
Cr1 Mo1 2.615569 1_545
Cr1 Mo0 2.615569 1_445
Cr1 Mo1 2.615569 1_555
Cr1 Zr1 3.039618 1_445
Cr1 Zr0 3.039618 1_555
Cr1 Zr0 3.101081 1_455
Cr1 Zr1 3.101081 1_444
Cr1 Zr0 3.101081 1_556
Cr1 Zr1 3.101081 1_545
Mo0 Mo1 2.656947 1_655
Mo0 Mo1 2.656947 1_554
Mo0 Zr0 3.051580 1_565
Mo0 Zr1 3.051580 1_544
Mo0 Zr0 3.051580 1_554
Mo0 Zr1 3.051580 1_555
Mo0 Zr0 3.079761 1_555
Mo0 Zr1 3.079761 1_554
Mo1 Zr0 3.051580 1_566
Mo1 Zr1 3.051580 1_444
Mo1 Zr0 3.051580 1_555
Mo1 Zr1 3.051580 1_455
Mo1 Zr0 3.079761 1_455
Mo1 Zr1 3.079761 1_555
