# generated using pymatgen
data_Cs3Yb
_symmetry_space_group_name_H-M   'P 1'
_cell_length_a   6.76674212
_cell_length_b   6.76674212
_cell_length_c   6.76674212
_cell_angle_alpha   90.00000000
_cell_angle_beta   90.00000000
_cell_angle_gamma   90.00000000
_symmetry_Int_Tables_number   1
_chemical_formula_structural   Cs3Yb
_chemical_formula_sum   'Cs3 Yb1'
_cell_volume   309.84099433
_cell_formula_units_Z   1
loop_
 _symmetry_equiv_pos_site_id
 _symmetry_equiv_pos_as_xyz
  1  'x, y, z'
loop_
 _atom_site_type_symbol
 _atom_site_label
 _atom_site_symmetry_multiplicity
 _atom_site_fract_x
 _atom_site_fract_y
 _atom_site_fract_z
 _atom_site_occupancy
  Cs  Cs0  1  0.00000000  0.50000000  0.50000000  1
  Cs  Cs1  1  0.50000000  0.00000000  0.50000000  1
  Cs  Cs2  1  0.50000000  0.50000000  0.00000000  1
  Yb  Yb0  1  0.00000000  0.00000000  0.00000000  1
loop_
_geom_bond_atom_site_label_1
_geom_bond_atom_site_label_2
_geom_bond_distance
_geom_bond_site_symmetry_2
Cs0 Cs1 4.784809 1_465
Cs0 Cs1 4.784809 1_565
Cs0 Cs1 4.784809 1_455
Cs0 Cs2 4.784809 1_555
Cs0 Yb0 4.784809 1_565
Cs0 Cs2 4.784809 1_556
Cs0 Yb0 4.784809 1_555
Cs0 Yb0 4.784809 1_556
Cs0 Yb0 4.784809 1_566
Cs0 Cs1 4.784809 1_555
Cs0 Cs2 4.784809 1_456
Cs0 Cs2 4.784809 1_455
Cs1 Cs2 4.784809 1_545
Cs1 Cs2 4.784809 1_555
Cs1 Cs2 4.784809 1_556
Cs1 Yb0 4.784809 1_555
Cs1 Yb0 4.784809 1_656
Cs1 Yb0 4.784809 1_556
Cs1 Yb0 4.784809 1_655
Cs1 Cs2 4.784809 1_546
Cs2 Yb0 4.784809 1_565
Cs2 Yb0 4.784809 1_555
Cs2 Yb0 4.784809 1_655
Cs2 Yb0 4.784809 1_665
