# generated using pymatgen
data_Na3TbTi2Nb2O12
_symmetry_space_group_name_H-M   'P 1'
_cell_length_a   5.44402300
_cell_length_b   5.59471136
_cell_length_c   7.78116526
_cell_angle_alpha   89.86383129
_cell_angle_beta   89.93146152
_cell_angle_gamma   89.26657664
_symmetry_Int_Tables_number   1
_chemical_formula_structural   Na3TbTi2Nb2O12
_chemical_formula_sum   'Na3 Tb1 Ti2 Nb2 O12'
_cell_volume   236.97644082
_cell_formula_units_Z   1
loop_
 _symmetry_equiv_pos_site_id
 _symmetry_equiv_pos_as_xyz
  1  'x, y, z'
loop_
 _atom_site_type_symbol
 _atom_site_label
 _atom_site_symmetry_multiplicity
 _atom_site_fract_x
 _atom_site_fract_y
 _atom_site_fract_z
 _atom_site_occupancy
  Na  Na0  1  0.49139200  0.52858400  0.74853300  1
  Na  Na1  1  0.00400500  0.01948200  0.74965900  1
  Na  Na2  1  0.50766300  0.46458600  0.25013500  1
  Tb  Tb0  1  0.99136000  0.93519100  0.25018800  1
  Ti  Ti0  1  0.48999800  0.98156800  0.00898200  1
  Ti  Ti1  1  0.00432500  0.47544700  0.49225400  1
  Nb  Nb0  1  0.49442300  0.99251200  0.51238700  1
  Nb  Nb1  1  0.00351200  0.47680900  0.98762000  1
  O  O0  1  0.20487300  0.80364900  0.97732500  1
  O  O1  1  0.29251200  0.30298900  0.53639500  1
  O  O2  1  0.80384400  0.21174400  0.44703300  1
  O  O3  1  0.71927400  0.73454900  0.05283700  1
  O  O4  1  0.80103700  0.20964700  0.05365000  1
  O  O5  1  0.72303400  0.73248200  0.44797700  1
  O  O6  1  0.20307300  0.80230000  0.52396900  1
  O  O7  1  0.29929000  0.29952900  0.96130500  1
  O  O8  1  0.56636900  0.98299200  0.75333000  1
  O  O9  1  0.91901200  0.48784700  0.74695500  1
  O  O10  1  0.40463500  0.02945600  0.24622100  1
  O  O11  1  0.07637100  0.52863600  0.25324400  1
loop_
_geom_bond_atom_site_label_1
_geom_bond_atom_site_label_2
_geom_bond_distance
_geom_bond_site_symmetry_2
Na0 O9 2.336218 1_555
Na0 O7 2.344587 1_555
Na0 O1 2.353542 1_555
Na0 O8 2.580359 1_555
Na0 O6 2.791840 1_555
Na0 O0 2.813459 1_555
Na0 O5 2.894493 1_555
Na0 O3 2.920644 1_556
Na1 O6 2.388879 1_545
Na1 O8 2.393964 1_445
Na1 O0 2.398503 1_545
Na1 O9 2.655105 1_455
Na1 O1 2.789539 1_555
Na1 O7 2.798962 1_555
Na1 O2 2.802414 1_455
Na1 O4 2.814892 1_456
Na2 O11 2.370716 1_555
Na2 O3 2.448366 1_555
Na2 O5 2.459934 1_555
Na2 O10 2.505455 1_555
Na2 O4 2.620856 1_555
Na2 O2 2.624014 1_555
Na2 O1 2.676202 1_555
Na2 O7 2.689485 1_554
Nb0 O8 1.916229 1_555
Nb0 O6 1.923222 1_555
Nb0 O5 1.967783 1_555
Nb0 O1 2.052461 1_565
Nb0 O10 2.137483 1_565
Nb0 O2 2.156016 1_565
Nb1 O7 1.891497 1_555
Nb1 O9 1.929521 1_455
Nb1 O4 1.936565 1_456
Nb1 O11 2.126284 1_556
Nb1 O0 2.145274 1_555
Nb1 O3 2.162347 1_456
O0 Ti0 1.871511 1_556
O0 Tb0 2.525921 1_456
O1 Ti1 1.863145 1_555
O2 Ti1 1.880495 1_655
O2 Tb0 2.397748 1_545
O3 Ti0 1.881210 1_555
O3 Tb0 2.422498 1_555
O4 Ti0 2.162217 1_545
O4 Tb0 2.392062 1_545
O5 Ti1 2.115237 1_655
O5 Tb0 2.411925 1_555
O6 Ti1 2.151509 1_555
O6 Tb0 2.529017 1_455
O7 Ti0 2.080989 1_546
O8 Ti0 2.031785 1_556
O9 Ti1 2.036163 1_655
O10 Ti0 1.921602 1_545
O10 Tb0 2.317580 1_445
O11 Ti1 1.923478 1_555
O11 Tb0 2.315423 1_455
