# generated using pymatgen
data_La2Mn3FeSi4
_symmetry_space_group_name_H-M   'P 1'
_cell_length_a   4.01745000
_cell_length_b   4.01745000
_cell_length_c   10.53390500
_cell_angle_alpha   90.00000000
_cell_angle_beta   90.00000000
_cell_angle_gamma   90.00000000
_symmetry_Int_Tables_number   1
_chemical_formula_structural   La2Mn3FeSi4
_chemical_formula_sum   'La2 Mn3 Fe1 Si4'
_cell_volume   170.01622074
_cell_formula_units_Z   1
loop_
 _symmetry_equiv_pos_site_id
 _symmetry_equiv_pos_as_xyz
  1  'x, y, z'
loop_
 _atom_site_type_symbol
 _atom_site_label
 _atom_site_symmetry_multiplicity
 _atom_site_fract_x
 _atom_site_fract_y
 _atom_site_fract_z
 _atom_site_occupancy
  La  La0  1  0.50000000  0.00000000  0.75197700  1
  La  La1  1  0.00000000  0.50000000  0.24802300  1
  Mn  Mn0  1  0.00000000  0.00000000  0.50000000  1
  Mn  Mn1  1  0.00000000  0.00000000  0.00000000  1
  Mn  Mn2  1  0.50000000  0.50000000  0.50000000  1
  Fe  Fe0  1  0.50000000  0.50000000  0.00000000  1
  Si  Si0  1  0.00000000  0.50000000  0.88234700  1
  Si  Si1  1  0.50000000  0.00000000  0.37788500  1
  Si  Si2  1  0.50000000  0.00000000  0.11765300  1
  Si  Si3  1  0.00000000  0.50000000  0.62211500  1
loop_
_geom_bond_atom_site_label_1
_geom_bond_atom_site_label_2
_geom_bond_distance
_geom_bond_site_symmetry_2
La0 Si3 3.152975 1_555
La0 Si3 3.152975 1_655
La0 Si3 3.152975 1_645
La0 Si3 3.152975 1_545
La0 Si0 3.155300 1_645
La0 Si0 3.155300 1_555
La0 Si0 3.155300 1_545
La0 Si0 3.155300 1_655
La0 Mn1 3.295591 1_656
La0 Mn1 3.295591 1_556
La0 Mn2 3.328708 1_555
La0 Mn0 3.328708 1_555
La0 Mn2 3.328708 1_545
La0 Mn0 3.328708 1_655
La1 Si1 3.152975 1_455
La1 Si1 3.152975 1_565
La1 Si1 3.152975 1_465
La1 Si1 3.152975 1_555
La1 Si2 3.155300 1_465
La1 Si2 3.155300 1_555
La1 Si2 3.155300 1_565
La1 Si2 3.155300 1_455
La1 Mn1 3.295591 1_565
La1 Mn1 3.295591 1_555
La1 Mn2 3.328708 1_555
La1 Mn0 3.328708 1_555
La1 Mn2 3.328708 1_455
La1 Mn0 3.328708 1_565
Mn0 Si1 2.385302 1_555
Mn0 Si3 2.385302 1_545
Mn0 Si3 2.385302 1_555
Mn0 Si1 2.385302 1_455
Mn1 Si0 2.360287 1_554
Mn1 Si2 2.360287 1_555
Mn1 Si0 2.360287 1_544
Mn1 Si2 2.360287 1_455
Mn2 Si1 2.385302 1_555
Mn2 Si3 2.385302 1_555
Mn2 Si3 2.385302 1_655
Mn2 Si1 2.385302 1_565
Fe0 Si0 2.360287 1_554
Fe0 Si2 2.360287 1_565
Fe0 Si2 2.360287 1_555
Fe0 Si0 2.360287 1_654
Fe0 Mn1 2.840766 1_555
Fe0 Mn1 2.840766 1_655
Fe0 Mn1 2.840766 1_665
Fe0 Mn1 2.840766 1_565
Fe0 La1 3.295591 1_555
Fe0 La1 3.295591 1_655
Fe0 La0 3.295591 1_564
Fe0 La0 3.295591 1_554
Si0 Si3 2.741259 1_555
Si1 Si2 2.741259 1_555
