# generated using pymatgen
data_Mn(BMo)2
_symmetry_space_group_name_H-M   'P 1'
_cell_length_a   5.82610854
_cell_length_b   5.82610723
_cell_length_c   3.15202873
_cell_angle_alpha   90.00000000
_cell_angle_beta   90.00000000
_cell_angle_gamma   90.00027762
_symmetry_Int_Tables_number   1
_chemical_formula_structural   Mn(BMo)2
_chemical_formula_sum   'Mn2 B4 Mo4'
_cell_volume   106.99099149
_cell_formula_units_Z   2
loop_
 _symmetry_equiv_pos_site_id
 _symmetry_equiv_pos_as_xyz
  1  'x, y, z'
loop_
 _atom_site_type_symbol
 _atom_site_label
 _atom_site_symmetry_multiplicity
 _atom_site_fract_x
 _atom_site_fract_y
 _atom_site_fract_z
 _atom_site_occupancy
  Mn  Mn0  1  0.50000000  0.50000000  0.00000000  1
  Mn  Mn1  1  -0.00000000  -0.00000000  0.00000000  1
  B  B0  1  0.11144815  0.61146724  0.00000000  1
  B  B1  1  0.88855185  0.38853276  0.00000000  1
  B  B2  1  0.61145353  0.88856542  0.00000000  1
  B  B3  1  0.38854647  0.11143458  0.00000000  1
  Mo  Mo0  1  0.67775318  0.17769210  0.50000000  1
  Mo  Mo1  1  0.32224682  0.82230790  0.50000000  1
  Mo  Mo2  1  0.17771912  0.32222032  0.50000000  1
  Mo  Mo3  1  0.82228088  0.67777968  0.50000000  1
loop_
_geom_bond_atom_site_label_1
_geom_bond_atom_site_label_2
_geom_bond_distance
_geom_bond_site_symmetry_2
Mn0 Mo2 2.661232 1_555
Mn0 Mo3 2.661232 1_555
Mn0 Mo3 2.661232 1_554
Mn0 Mo2 2.661232 1_554
Mn0 Mo0 2.661289 1_555
Mn0 Mo1 2.661289 1_555
Mn0 Mo1 2.661289 1_554
Mn0 Mo0 2.661289 1_554
Mn1 Mo2 2.660845 1_554
Mn1 Mo2 2.660845 1_555
Mn1 Mo3 2.660845 1_445
Mn1 Mo3 2.660845 1_444
Mn1 Mo1 2.660900 1_544
Mn1 Mo1 2.660900 1_545
Mn1 Mo0 2.660900 1_455
Mn1 Mo0 2.660900 1_454
B0 B1 1.836676 1_455
B0 Mo3 2.339096 1_454
B0 Mo3 2.339096 1_455
B0 Mo2 2.339390 1_554
B0 Mo2 2.339390 1_555
B0 Mo1 2.345430 1_555
B0 Mo1 2.345430 1_554
B0 Mn1 2.354921 1_565
B0 Mn0 2.355059 1_555
B1 Mo2 2.339096 1_655
B1 Mo2 2.339096 1_654
B1 Mo3 2.339390 1_555
B1 Mo3 2.339390 1_554
B1 Mo0 2.345430 1_555
B1 Mo0 2.345430 1_554
B1 Mn1 2.354921 1_655
B1 Mn0 2.355059 1_555
B2 B3 1.836460 1_565
B2 Mo0 2.338910 1_565
B2 Mo0 2.338910 1_564
B2 Mo1 2.339206 1_554
B2 Mo1 2.339206 1_555
B2 Mo3 2.345356 1_555
B2 Mo3 2.345356 1_554
B2 Mn1 2.354970 1_665
B2 Mn0 2.355107 1_555
B3 Mo1 2.338910 1_545
B3 Mo1 2.338910 1_544
B3 Mo0 2.339206 1_555
B3 Mo0 2.339206 1_554
B3 Mo2 2.345356 1_554
B3 Mo2 2.345356 1_555
B3 Mn1 2.354970 1_555
B3 Mn0 2.355107 1_555
