# generated using pymatgen
data_KZnH5(SO5)2
_symmetry_space_group_name_H-M   'P 1'
_cell_length_a   4.64112800
_cell_length_b   5.86723099
_cell_length_c   8.30451215
_cell_angle_alpha   103.34450743
_cell_angle_beta   99.53565792
_cell_angle_gamma   95.48657765
_symmetry_Int_Tables_number   1
_chemical_formula_structural   KZnH5(SO5)2
_chemical_formula_sum   'K1 Zn1 H5 S2 O10'
_cell_volume   214.86924445
_cell_formula_units_Z   1
loop_
 _symmetry_equiv_pos_site_id
 _symmetry_equiv_pos_as_xyz
  1  'x, y, z'
loop_
 _atom_site_type_symbol
 _atom_site_label
 _atom_site_symmetry_multiplicity
 _atom_site_fract_x
 _atom_site_fract_y
 _atom_site_fract_z
 _atom_site_occupancy
  K  K0  1  0.99929600  0.00198500  0.49663300  1
  Zn  Zn0  1  0.00328100  0.01021300  0.00851600  1
  H  H0  1  0.93310700  0.33897000  0.83702700  1
  H  H1  1  0.06462000  0.65928600  0.16447000  1
  H  H2  1  0.61723300  0.26688600  0.87413400  1
  H  H3  1  0.38470300  0.73253700  0.13023800  1
  H  H4  1  0.49825400  0.53268700  0.51462400  1
  S  S0  1  0.38799800  0.68254300  0.76307200  1
  S  S1  1  0.60844400  0.32011700  0.24415100  1
  O  O0  1  0.48873100  0.70213800  0.59496600  1
  O  O1  1  0.50844300  0.30768800  0.40532800  1
  O  O2  1  0.21403800  0.87977100  0.79664600  1
  O  O3  1  0.78471200  0.12117400  0.20571900  1
  O  O4  1  0.79679400  0.20516100  0.84750100  1
  O  O5  1  0.20040000  0.79120700  0.15014100  1
  O  O6  1  0.21837500  0.44708100  0.73150000  1
  O  O7  1  0.78119200  0.55347100  0.26639300  1
  O  O8  1  0.65113900  0.71450500  0.89763500  1
  O  O9  1  0.35023900  0.28757900  0.10230600  1
loop_
_geom_bond_atom_site_label_1
_geom_bond_atom_site_label_2
_geom_bond_distance
_geom_bond_site_symmetry_2
K0 O3 2.726412 1_555
K0 O2 2.802407 1_645
K0 O7 2.851704 1_545
K0 O6 2.853394 1_655
K0 O0 3.120015 1_645
K0 O1 3.128393 1_655
K0 O1 3.133477 1_555
K0 O0 3.143881 1_545
H0 O4 0.989417 1_555
H1 O5 0.992199 1_555
H2 O4 0.977947 1_555
H3 O5 0.976915 1_555
H4 O0 1.071228 1_555
H4 O1 1.428928 1_555
O0 S0 1.568683 1_555
O1 S1 1.502233 1_555
O2 S0 1.474097 1_555
O2 Zn0 2.174866 1_566
O3 S1 1.493561 1_555
O3 Zn0 2.078313 1_655
O4 Zn0 2.122666 1_656
O5 Zn0 2.106483 1_565
O6 S0 1.467480 1_555
O7 S1 1.475043 1_555
O8 S0 1.477407 1_555
O8 Zn0 2.179637 1_666
O9 S1 1.498278 1_555
O9 Zn0 2.084758 1_555
