# generated using pymatgen
data_VPbF5
_symmetry_space_group_name_H-M   'P 1'
_cell_length_a   11.27013880
_cell_length_b   11.27013880
_cell_length_c   11.27013880
_cell_angle_alpha   96.53242926
_cell_angle_beta   96.53242926
_cell_angle_gamma   140.57611370
_symmetry_Int_Tables_number   1
_chemical_formula_structural   VPbF5
_chemical_formula_sum   'V8 Pb8 F40'
_cell_volume   855.79906995
_cell_formula_units_Z   8
loop_
 _symmetry_equiv_pos_site_id
 _symmetry_equiv_pos_as_xyz
  1  'x, y, z'
loop_
 _atom_site_type_symbol
 _atom_site_label
 _atom_site_symmetry_multiplicity
 _atom_site_fract_x
 _atom_site_fract_y
 _atom_site_fract_z
 _atom_site_occupancy
  V  V0  1  0.71224300  0.71224300  0.00000000  1
  V  V1  1  0.31468000  0.79546700  0.15292400  1
  V  V2  1  0.64254300  0.16175500  0.84707600  1
  V  V3  1  0.79546700  0.64254300  0.48078800  1
  V  V4  1  0.16175500  0.31468000  0.51921200  1
  V  V5  1  0.22135200  0.22135200  0.00000000  1
  V  V6  1  0.97386300  0.47386300  0.50000000  1
  V  V7  1  0.47386300  0.97386300  0.50000000  1
  Pb  Pb0  1  0.04555800  0.76387900  0.82667500  1
  Pb  Pb1  1  0.93720400  0.21888300  0.17332500  1
  Pb  Pb2  1  0.76387900  0.93720400  0.71832000  1
  Pb  Pb3  1  0.21888300  0.04555800  0.28168000  1
  Pb  Pb4  1  0.24805900  0.56571200  0.83739200  1
  Pb  Pb5  1  0.72832000  0.41066700  0.16260800  1
  Pb  Pb6  1  0.56571200  0.72832000  0.31765300  1
  Pb  Pb7  1  0.41066700  0.24805900  0.68234700  1
  F  F0  1  0.08552700  0.69159700  0.18947100  1
  F  F1  1  0.50212600  0.89605600  0.81052900  1
  F  F2  1  0.69159700  0.50212600  0.60607000  1
  F  F3  1  0.89605600  0.08552700  0.39393000  1
  F  F4  1  0.72377900  0.22377900  0.50000000  1
  F  F5  1  0.22377900  0.72377900  0.50000000  1
  F  F6  1  0.46635500  0.46635500  0.00000000  1
  F  F7  1  0.19378400  0.54127500  0.13011400  1
  F  F8  1  0.41116100  0.06367000  0.86988600  1
  F  F9  1  0.54127500  0.41116100  0.34749100  1
  F  F10  1  0.06367000  0.19378400  0.65250900  1
  F  F11  1  0.20982300  0.72147700  0.96310500  1
  F  F12  1  0.75837200  0.24671800  0.03689500  1
  F  F13  1  0.72147700  0.75837200  0.51165400  1
  F  F14  1  0.24671800  0.20982300  0.48834600  1
  F  F15  1  0.76794700  0.41440500  0.86355000  1
  F  F16  1  0.55085500  0.90439700  0.13645000  1
  F  F17  1  0.41440500  0.55085500  0.64645800  1
  F  F18  1  0.90439700  0.76794700  0.35354200  1
  F  F19  1  0.96809900  0.96809900  0.00000000  1
  F  F20  1  0.04180200  0.59366000  0.68354600  1
  F  F21  1  0.91011500  0.35825700  0.31645400  1
  F  F22  1  0.59366000  0.91011500  0.55185800  1
  F  F23  1  0.35825700  0.04180200  0.44814200  1
  F  F24  1  0.09223500  0.25990100  0.92232500  1
  F  F25  1  0.33757600  0.16991000  0.07767500  1
  F  F26  1  0.25990100  0.33757600  0.16766600  1
  F  F27  1  0.16991000  0.09223500  0.83233400  1
  F  F28  1  0.42867000  0.85081100  0.33478600  1
  F  F29  1  0.51602600  0.09388400  0.66521400  1
  F  F30  1  0.85081100  0.51602600  0.42214200  1
  F  F31  1  0.09388400  0.42867000  0.57785800  1
  F  F32  1  0.84175100  0.67273600  0.08218100  1
  F  F33  1  0.59055500  0.75957100  0.91781900  1
  F  F34  1  0.67273600  0.59055500  0.83098400  1
  F  F35  1  0.75957100  0.84175100  0.16901600  1
  F  F36  1  0.85321900  0.23775400  0.80272800  1
  F  F37  1  0.43502600  0.05049100  0.19727200  1
  F  F38  1  0.23775400  0.43502600  0.38453500  1
  F  F39  1  0.05049100  0.85321900  0.61546500  1
loop_
_geom_bond_atom_site_label_1
_geom_bond_atom_site_label_2
_geom_bond_distance
_geom_bond_site_symmetry_2
F0 V1 1.972507 1_555
F0 Pb5 2.476995 1_455
F1 V2 1.972498 1_565
F1 Pb4 2.476995 1_555
F2 V3 1.972498 1_555
F2 Pb7 2.476995 1_555
F3 V4 1.972498 1_655
F3 Pb6 2.476995 1_545
F4 V7 1.900022 1_545
F4 V6 1.901300 1_555
F5 V6 1.900022 1_455
F5 V7 1.901300 1_555
F6 V5 1.862671 1_555
F6 V0 1.869399 1_555
F7 V1 1.962618 1_555
F7 Pb1 2.508289 1_455
F8 V2 1.962623 1_555
F8 Pb0 2.508289 1_545
F9 V3 1.962623 1_555
F9 Pb3 2.508289 1_555
F10 V4 1.962627 1_555
F10 Pb2 2.508282 1_445
F11 V1 2.040804 1_556
F11 Pb4 2.452858 1_555
F11 Pb0 2.627947 1_555
F12 V2 2.040803 1_554
F12 Pb5 2.452858 1_555
F12 Pb1 2.627947 1_555
F13 V3 2.040803 1_555
F13 Pb6 2.452858 1_555
F13 Pb2 2.627938 1_555
F14 V4 2.040813 1_555
F14 Pb7 2.452858 1_555
F14 Pb3 2.627938 1_555
F15 V2 1.934520 1_555
F15 Pb0 2.665443 1_655
F16 V1 1.934510 1_555
F16 Pb1 2.665443 1_565
F17 V4 1.934518 1_555
F17 Pb2 2.665444 1_555
F18 V3 1.934520 1_555
F18 Pb3 2.665437 1_665
F19 V5 1.925392 1_665
F19 V0 1.945182 1_555
F20 V6 2.023666 1_455
F20 Pb0 2.332158 1_555
F21 V6 2.023666 1_555
F21 Pb1 2.332158 1_555
F22 V7 2.023655 1_555
F22 Pb2 2.332157 1_555
F23 V7 2.023655 1_545
F23 Pb3 2.332156 1_555
F24 V5 1.961122 1_556
F24 Pb2 2.752499 1_445
F24 Pb4 2.767862 1_555
F25 V5 1.961122 1_555
F25 Pb3 2.752504 1_555
F25 Pb5 2.767862 1_555
F26 V5 1.961122 1_555
F26 Pb1 2.752493 1_455
F26 Pb6 2.767862 1_555
F27 V5 1.961122 1_556
F27 Pb0 2.752493 1_545
F27 Pb7 2.767862 1_555
F28 V7 1.937801 1_555
F28 V1 2.027907 1_555
F28 Pb6 2.762191 1_555
F29 V7 1.937797 1_545
F29 V2 2.027906 1_555
F29 Pb7 2.762201 1_555
F30 V6 1.937806 1_555
F30 V3 2.027896 1_555
F30 Pb5 2.762201 1_555
F31 V6 1.937797 1_455
F31 V4 2.027896 1_555
F31 Pb4 2.762201 1_555
F32 V0 1.994164 1_555
F32 Pb5 2.493753 1_555
F33 V0 1.994174 1_556
F33 Pb4 2.493749 1_555
F34 V0 1.994174 1_556
F34 Pb7 2.493749 1_555
F35 V0 1.994169 1_555
F35 Pb6 2.493750 1_555
F36 V2 1.961245 1_555
F36 Pb2 2.678059 1_545
F36 Pb4 2.735196 1_655
F37 V1 1.961250 1_545
F37 Pb3 2.678062 1_555
F37 Pb5 2.735196 1_555
F38 V4 1.961240 1_555
F38 Pb1 2.678057 1_455
F38 Pb6 2.735196 1_555
F39 V3 1.961245 1_455
F39 Pb0 2.678057 1_555
F39 Pb7 2.735196 1_565
