# generated using pymatgen
data_KLaDyBiO6
_symmetry_space_group_name_H-M   'P 1'
_cell_length_a   8.59461296
_cell_length_b   8.44907548
_cell_length_c   8.59981793
_cell_angle_alpha   90.00000000
_cell_angle_beta   90.00000000
_cell_angle_gamma   90.00000000
_symmetry_Int_Tables_number   1
_chemical_formula_structural   KLaDyBiO6
_chemical_formula_sum   'K4 La4 Dy4 Bi4 O24'
_cell_volume   624.48896784
_cell_formula_units_Z   4
loop_
 _symmetry_equiv_pos_site_id
 _symmetry_equiv_pos_as_xyz
  1  'x, y, z'
loop_
 _atom_site_type_symbol
 _atom_site_label
 _atom_site_symmetry_multiplicity
 _atom_site_fract_x
 _atom_site_fract_y
 _atom_site_fract_z
 _atom_site_occupancy
  K  K0  1  -0.00000000  0.50000000  0.50000000  1
  K  K1  1  0.50000000  0.50000000  -0.00000000  1
  K  K2  1  0.50000000  0.00000000  -0.00000000  1
  K  K3  1  0.00000000  0.00000000  0.50000000  1
  La  La0  1  0.50000000  0.00000000  0.50000000  1
  La  La1  1  -0.00000000  0.50000000  -0.00000000  1
  La  La2  1  0.00000000  0.00000000  -0.00000000  1
  La  La3  1  0.50000000  0.50000000  0.50000000  1
  Dy  Dy0  1  0.25000000  0.25000000  0.25000000  1
  Dy  Dy1  1  0.75000000  0.75000000  0.25000000  1
  Dy  Dy2  1  0.75000000  0.25000000  0.75000000  1
  Dy  Dy3  1  0.25000000  0.75000000  0.75000000  1
  Bi  Bi0  1  0.75000000  0.75000000  0.75000000  1
  Bi  Bi1  1  0.25000000  0.25000000  0.75000000  1
  Bi  Bi2  1  0.25000000  0.75000000  0.25000000  1
  Bi  Bi3  1  0.75000000  0.25000000  0.25000000  1
  O  O0  1  0.99356333  0.20942018  0.25945859  1
  O  O1  1  0.00643667  0.79057982  0.25945859  1
  O  O2  1  0.00643667  0.20942018  0.74054141  1
  O  O3  1  0.99356333  0.79057982  0.74054141  1
  O  O4  1  0.27476374  0.99382296  0.21189786  1
  O  O5  1  0.27476374  0.00617704  0.78810214  1
  O  O6  1  0.72523626  0.00617704  0.21189786  1
  O  O7  1  0.72523626  0.99382296  0.78810214  1
  O  O8  1  0.19153494  0.28218596  0.99470344  1
  O  O9  1  0.80846506  0.28218596  0.00529656  1
  O  O10  1  0.19153494  0.71781404  0.00529656  1
  O  O11  1  0.80846506  0.71781404  0.99470344  1
  O  O12  1  0.50643667  0.29057982  0.24054141  1
  O  O13  1  0.49356333  0.70942018  0.24054141  1
  O  O14  1  0.49356333  0.29057982  0.75945859  1
  O  O15  1  0.50643667  0.70942018  0.75945859  1
  O  O16  1  0.22523626  0.50617704  0.28810214  1
  O  O17  1  0.22523626  0.49382296  0.71189786  1
  O  O18  1  0.77476374  0.49382296  0.28810214  1
  O  O19  1  0.77476374  0.50617704  0.71189786  1
  O  O20  1  0.30846506  0.21781404  0.50529656  1
  O  O21  1  0.69153494  0.21781404  0.49470344  1
  O  O22  1  0.30846506  0.78218596  0.49470344  1
  O  O23  1  0.69153494  0.78218596  0.50529656  1
loop_
_geom_bond_atom_site_label_1
_geom_bond_atom_site_label_2
_geom_bond_distance
_geom_bond_site_symmetry_2
K0 O17 2.659104 1_555
K0 O18 2.659104 1_455
K0 O19 2.659104 1_455
K0 O16 2.659104 1_555
K0 O0 3.210901 1_455
K0 O2 3.210901 1_555
K0 O3 3.210901 1_455
K0 O1 3.210901 1_555
K1 O14 2.722686 1_554
K1 O13 2.722686 1_555
K1 O12 2.722686 1_555
K1 O15 2.722686 1_554
K1 O10 3.227601 1_555
K1 O8 3.227601 1_554
K1 O9 3.227601 1_555
K1 O11 3.227601 1_554
K2 O7 2.659104 1_544
K2 O6 2.659104 1_555
K2 O4 2.659104 1_545
K2 O5 2.659104 1_554
K2 O15 3.210901 1_544
K2 O13 3.210901 1_545
K2 O14 3.210901 1_554
K2 O12 3.210901 1_555
K3 O1 2.722686 1_545
K3 O0 2.722686 1_455
K3 O2 2.722686 1_555
K3 O3 2.722686 1_445
K3 O21 3.227601 1_455
K3 O23 3.227601 1_445
K3 O22 3.227601 1_545
K3 O20 3.227601 1_555
La0 O22 2.469565 1_545
La0 O23 2.469565 1_545
La0 O20 2.469565 1_555
La0 O21 2.469565 1_555
La1 O11 2.469565 1_454
La1 O9 2.469565 1_455
La1 O8 2.469565 1_554
La1 O10 2.469565 1_555
La2 O1 2.848253 1_545
La2 O2 2.848253 1_554
La2 O3 2.848253 1_444
La2 O0 2.848253 1_455
La2 O11 2.897655 1_444
La2 O10 2.897655 1_545
La2 O9 2.897655 1_455
La2 O8 2.897655 1_554
La2 O5 2.983298 1_554
La2 O4 2.983298 1_545
La2 O7 2.983298 1_444
La2 O6 2.983298 1_455
La3 O12 2.848253 1_555
La3 O15 2.848253 1_555
La3 O14 2.848253 1_555
La3 O13 2.848253 1_555
La3 O20 2.897655 1_555
La3 O21 2.897655 1_555
La3 O22 2.897655 1_555
La3 O23 2.897655 1_555
La3 O18 2.983298 1_555
La3 O19 2.983298 1_555
La3 O16 2.983298 1_555
La3 O17 2.983298 1_555
Dy0 O16 2.199443 1_555
Dy0 O4 2.199443 1_545
Dy0 O0 2.231966 1_455
Dy0 O12 2.231966 1_555
Dy0 O20 2.268630 1_555
Dy0 O8 2.268630 1_554
Dy1 O18 2.199443 1_555
Dy1 O6 2.199443 1_565
Dy1 O13 2.231966 1_555
Dy1 O1 2.231966 1_655
Dy1 O23 2.268630 1_555
Dy1 O11 2.268630 1_554
Dy2 O19 2.199443 1_555
Dy2 O7 2.199443 1_545
Dy2 O14 2.231966 1_555
Dy2 O2 2.231966 1_655
Dy2 O9 2.268630 1_556
Dy2 O21 2.268630 1_555
Dy3 O17 2.199443 1_555
Dy3 O5 2.199443 1_565
Dy3 O15 2.231966 1_555
Dy3 O3 2.231966 1_455
Dy3 O10 2.268630 1_556
Dy3 O22 2.268630 1_555
Bi0 O7 2.096805 1_555
Bi0 O19 2.096805 1_555
Bi0 O15 2.122784 1_555
Bi0 O3 2.122784 1_555
Bi0 O23 2.180588 1_555
Bi0 O11 2.180588 1_555
Bi1 O5 2.096805 1_555
Bi1 O17 2.096805 1_555
Bi1 O14 2.122784 1_555
Bi1 O2 2.122784 1_555
Bi1 O8 2.180588 1_555
Bi1 O20 2.180588 1_555
Bi2 O4 2.096805 1_555
Bi2 O16 2.096805 1_555
Bi2 O13 2.122784 1_555
Bi2 O1 2.122784 1_555
Bi2 O10 2.180588 1_555
Bi2 O22 2.180588 1_555
Bi3 O6 2.096805 1_555
Bi3 O18 2.096805 1_555
Bi3 O0 2.122784 1_555
Bi3 O12 2.122784 1_555
Bi3 O21 2.180588 1_555
Bi3 O9 2.180588 1_555
