# generated using pymatgen
data_Cu4Br6N4O
_symmetry_space_group_name_H-M   'P 1'
_cell_length_a   8.75730000
_cell_length_b   8.75730000
_cell_length_c   9.54966300
_cell_angle_alpha   90.00000000
_cell_angle_beta   90.00000000
_cell_angle_gamma   90.00000000
_symmetry_Int_Tables_number   1
_chemical_formula_structural   Cu4Br6N4O
_chemical_formula_sum   'Cu8 Br12 N8 O2'
_cell_volume   732.36655179
_cell_formula_units_Z   2
loop_
 _symmetry_equiv_pos_site_id
 _symmetry_equiv_pos_as_xyz
  1  'x, y, z'
loop_
 _atom_site_type_symbol
 _atom_site_label
 _atom_site_symmetry_multiplicity
 _atom_site_fract_x
 _atom_site_fract_y
 _atom_site_fract_z
 _atom_site_occupancy
  Cu  Cu0  1  0.66585200  0.56899900  0.61667100  1
  Cu  Cu1  1  0.16585200  0.93100100  0.88332900  1
  Cu  Cu2  1  0.33414800  0.43100100  0.61667100  1
  Cu  Cu3  1  0.83414800  0.06899900  0.88332900  1
  Cu  Cu4  1  0.56899900  0.33414800  0.38332900  1
  Cu  Cu5  1  0.93100100  0.83414800  0.11667100  1
  Cu  Cu6  1  0.43100100  0.66585200  0.38332900  1
  Cu  Cu7  1  0.06899900  0.16585200  0.11667100  1
  Br  Br0  1  0.50000000  0.50000000  0.81825000  1
  Br  Br1  1  0.00000000  0.00000000  0.68175000  1
  Br  Br2  1  0.50000000  0.50000000  0.18175000  1
  Br  Br3  1  0.00000000  0.00000000  0.31825000  1
  Br  Br4  1  0.62796600  0.82317600  0.50324600  1
  Br  Br5  1  0.12796600  0.67682400  0.99675400  1
  Br  Br6  1  0.37203400  0.17682400  0.50324600  1
  Br  Br7  1  0.87203400  0.32317600  0.99675400  1
  Br  Br8  1  0.82317600  0.37203400  0.49675400  1
  Br  Br9  1  0.67682400  0.87203400  0.00324600  1
  Br  Br10  1  0.17682400  0.62796600  0.49675400  1
  Br  Br11  1  0.32317600  0.12796600  0.00324600  1
  N  N0  1  0.81573100  0.63075700  0.72700100  1
  N  N1  1  0.31573100  0.86924300  0.77299900  1
  N  N2  1  0.18426900  0.36924300  0.72700100  1
  N  N3  1  0.68426900  0.13075700  0.77299900  1
  N  N4  1  0.63075700  0.18426900  0.27299900  1
  N  N5  1  0.86924300  0.68426900  0.22700100  1
  N  N6  1  0.36924300  0.81573100  0.27299900  1
  N  N7  1  0.13075700  0.31573100  0.22700100  1
  O  O0  1  0.50000000  0.50000000  0.50000000  1
  O  O1  1  0.00000000  0.00000000  0.00000000  1
loop_
_geom_bond_atom_site_label_1
_geom_bond_atom_site_label_2
_geom_bond_distance
_geom_bond_site_symmetry_2
Cu0 N0 1.767867 1_555
Cu0 O0 1.927692 1_555
Cu1 N1 1.767867 1_555
Cu1 O1 1.927692 1_566
Cu2 N2 1.767867 1_555
Cu2 O0 1.927692 1_555
Cu3 N3 1.767867 1_555
Cu3 O1 1.927692 1_656
Cu4 N4 1.767867 1_555
Cu4 O0 1.927692 1_555
Cu5 N5 1.767867 1_555
Cu5 O1 1.927692 1_665
Cu6 N6 1.767867 1_555
Cu6 O0 1.927692 1_555
Cu7 N7 1.767867 1_555
Cu7 O1 1.927692 1_555
Br0 Cu0 2.486019 1_555
Br0 Cu2 2.486019 1_555
Br1 Cu3 2.486019 1_455
Br1 Cu1 2.486019 1_545
Br2 Cu4 2.486019 1_555
Br2 Cu6 2.486019 1_555
Br3 Cu7 2.486019 1_555
Br3 Cu5 2.486019 1_445
Br4 Cu6 2.486920 1_555
Br4 Cu0 2.497596 1_555
Br5 Cu5 2.486920 1_456
Br5 Cu1 2.497596 1_555
Br6 Cu4 2.486920 1_555
Br6 Cu2 2.497596 1_555
Br7 Cu7 2.486920 1_656
Br7 Cu3 2.497596 1_555
Br8 Cu0 2.486920 1_555
Br8 Cu4 2.497596 1_555
Br9 Cu3 2.486920 1_564
Br9 Cu5 2.497596 1_555
Br10 Cu2 2.486920 1_555
Br10 Cu6 2.497596 1_555
Br11 Cu1 2.486920 1_544
Br11 Cu7 2.497596 1_555
