# generated using pymatgen
data_HoCoB4
_symmetry_space_group_name_H-M   'P 1'
_cell_length_a   3.38082184
_cell_length_b   5.86918921
_cell_length_c   11.37179411
_cell_angle_alpha   90.00000000
_cell_angle_beta   90.00000000
_cell_angle_gamma   90.00000000
_symmetry_Int_Tables_number   1
_chemical_formula_structural   HoCoB4
_chemical_formula_sum   'Ho4 Co4 B16'
_cell_volume   225.64690640
_cell_formula_units_Z   4
loop_
 _symmetry_equiv_pos_site_id
 _symmetry_equiv_pos_as_xyz
  1  'x, y, z'
loop_
 _atom_site_type_symbol
 _atom_site_label
 _atom_site_symmetry_multiplicity
 _atom_site_fract_x
 _atom_site_fract_y
 _atom_site_fract_z
 _atom_site_occupancy
  Ho  Ho0  1  0.50000000  0.37304244  0.15017537  1
  Ho  Ho1  1  0.50000000  0.62694749  0.84982681  1
  Ho  Ho2  1  0.50000000  0.12695756  0.65017537  1
  Ho  Ho3  1  0.50000000  0.87305251  0.34982681  1
  Co  Co0  1  0.50000000  0.36634843  0.41120254  1
  Co  Co1  1  0.50000000  0.63364404  0.58879268  1
  Co  Co2  1  0.50000000  0.13365157  0.91120254  1
  Co  Co3  1  0.50000000  0.86635596  0.08879268  1
  B  B0  1  0.00000000  0.11216419  0.04639272  1
  B  B1  1  0.00000000  0.88783478  0.95360417  1
  B  B2  1  0.00000000  0.38783581  0.54639272  1
  B  B3  1  0.00000000  0.61216522  0.45360417  1
  B  B4  1  0.00000000  0.13899777  0.46728588  1
  B  B5  1  0.00000000  0.86101470  0.53271697  1
  B  B6  1  0.00000000  0.36100223  0.96728588  1
  B  B7  1  0.00000000  0.63898530  0.03271697  1
  B  B8  1  0.00000000  0.02213926  0.19032585  1
  B  B9  1  0.00000000  0.97785408  0.80967611  1
  B  B10  1  0.00000000  0.47786074  0.69032585  1
  B  B11  1  0.00000000  0.52214592  0.30967611  1
  B  B12  1  0.00000000  0.21673760  0.31584067  1
  B  B13  1  0.00000000  0.78326634  0.68416122  1
  B  B14  1  0.00000000  0.28326240  0.81584067  1
  B  B15  1  0.00000000  0.71673366  0.18416122  1
loop_
_geom_bond_atom_site_label_1
_geom_bond_atom_site_label_2
_geom_bond_distance
_geom_bond_site_symmetry_2
B0 B1 1.687278 1_544
B0 B6 1.715299 1_554
B0 B8 1.719948 1_555
B0 Co3 2.274058 1_445
B0 Co3 2.274058 1_545
B0 Co2 2.288417 1_554
B0 Co2 2.288417 1_454
B0 Ho0 2.568025 1_555
B0 Ho0 2.568025 1_455
B1 B7 1.715392 1_556
B1 B9 1.719883 1_555
B1 Co2 2.274094 1_465
B1 Co2 2.274094 1_565
B1 Co3 2.288402 1_456
B1 Co3 2.288402 1_556
B1 Ho1 2.568029 1_555
B1 Ho1 2.568029 1_455
B2 B3 1.687278 1_555
B2 B4 1.715299 1_555
B2 Co1 2.274058 1_455
B2 Co1 2.274058 1_555
B2 Co0 2.288417 1_455
B2 Co0 2.288417 1_555
B2 Ho2 2.568025 1_455
B2 Ho2 2.568025 1_555
B3 B5 1.715392 1_555
B3 Co0 2.274094 1_555
B3 Co0 2.274094 1_455
B3 Co1 2.288402 1_455
B3 Co1 2.288402 1_555
B3 Ho3 2.568029 1_455
B3 Ho3 2.568029 1_555
B4 B5 1.793194 1_545
B4 Co0 2.246055 1_555
B4 Co0 2.246055 1_455
B4 Ho3 2.660450 1_545
B4 Ho3 2.660450 1_445
B4 Ho2 2.681040 1_555
B4 Ho2 2.681040 1_455
B5 Co1 2.246100 1_455
B5 Co1 2.246100 1_555
B5 Ho2 2.660438 1_565
B5 Ho2 2.660438 1_465
B5 Ho3 2.681045 1_455
B5 Ho3 2.681045 1_555
B6 B7 1.793194 1_556
B6 Co2 2.246055 1_555
B6 Co2 2.246055 1_455
B6 Ho1 2.660450 1_555
B6 Ho1 2.660450 1_455
B6 Ho0 2.681040 1_456
B6 Ho0 2.681040 1_556
B7 Co3 2.246100 1_455
B7 Co3 2.246100 1_555
B7 Ho0 2.660438 1_555
B7 Ho0 2.660438 1_455
B7 Ho1 2.681045 1_454
B7 Ho1 2.681045 1_554
B8 Co3 2.242010 1_445
B8 Co3 2.242010 1_545
B8 Ho3 2.629270 1_545
B8 Ho3 2.629270 1_445
B8 Ho0 2.703251 1_555
B8 Ho0 2.703251 1_455
B9 Co2 2.242004 1_565
B9 Co2 2.242004 1_465
B9 Ho2 2.629301 1_465
B9 Ho2 2.629301 1_565
B9 Ho1 2.703267 1_555
B9 Ho1 2.703267 1_455
B10 B2 1.719948 1_555
B10 B13 1.793854 1_555
B10 B14 1.828042 1_555
B10 Co1 2.242010 1_455
B10 Co1 2.242010 1_555
B10 Ho1 2.629270 1_555
B10 Ho1 2.629270 1_455
B10 Ho2 2.703251 1_455
B10 Ho2 2.703251 1_555
B11 B3 1.719883 1_555
B11 B12 1.793869 1_555
B11 B15 1.828004 1_555
B11 Co0 2.242004 1_455
B11 Co0 2.242004 1_555
B11 Ho0 2.629301 1_555
B11 Ho0 2.629301 1_455
B11 Ho3 2.703267 1_455
B11 Ho3 2.703267 1_555
B12 B4 1.781619 1_555
B12 B8 1.828042 1_555
B12 Co0 2.191926 1_455
B12 Co0 2.191926 1_555
B12 Ho3 2.660031 1_545
B12 Ho3 2.660031 1_445
B12 Ho0 2.692249 1_555
B12 Ho0 2.692249 1_455
B13 B5 1.781622 1_555
B13 B9 1.828004 1_555
B13 Co1 2.191990 1_455
B13 Co1 2.191990 1_555
B13 Ho2 2.660058 1_565
B13 Ho2 2.660058 1_465
B13 Ho1 2.692279 1_455
B13 Ho1 2.692279 1_555
B14 B6 1.781619 1_555
B14 B9 1.793869 1_545
B14 Co2 2.191926 1_555
B14 Co2 2.191926 1_455
B14 Ho1 2.660031 1_555
B14 Ho1 2.660031 1_455
B14 Ho2 2.692249 1_455
B14 Ho2 2.692249 1_555
B15 B7 1.781622 1_555
B15 B8 1.793854 1_565
B15 Co3 2.191990 1_555
B15 Co3 2.191990 1_455
B15 Ho0 2.660058 1_455
B15 Ho0 2.660058 1_555
B15 Ho3 2.692279 1_555
B15 Ho3 2.692279 1_455
