# generated using pymatgen
data_Nb3Se
_symmetry_space_group_name_H-M   'P 1'
_cell_length_a   5.76708019
_cell_length_b   5.76708019
_cell_length_c   4.92535600
_cell_angle_alpha   90.00000000
_cell_angle_beta   90.00000000
_cell_angle_gamma   120.00000213
_symmetry_Int_Tables_number   1
_chemical_formula_structural   Nb3Se
_chemical_formula_sum   'Nb6 Se2'
_cell_volume   141.86662223
_cell_formula_units_Z   2
loop_
 _symmetry_equiv_pos_site_id
 _symmetry_equiv_pos_as_xyz
  1  'x, y, z'
loop_
 _atom_site_type_symbol
 _atom_site_label
 _atom_site_symmetry_multiplicity
 _atom_site_fract_x
 _atom_site_fract_y
 _atom_site_fract_z
 _atom_site_occupancy
  Nb  Nb0  1  0.16052600  0.32105100  0.25000000  1
  Nb  Nb1  1  0.67894900  0.83947400  0.25000000  1
  Nb  Nb2  1  0.16052600  0.83947400  0.25000000  1
  Nb  Nb3  1  0.83947400  0.67894900  0.75000000  1
  Nb  Nb4  1  0.32105100  0.16052600  0.75000000  1
  Nb  Nb5  1  0.83947400  0.16052600  0.75000000  1
  Se  Se0  1  0.33333300  0.66666700  0.75000000  1
  Se  Se1  1  0.66666700  0.33333300  0.25000000  1
loop_
_geom_bond_atom_site_label_1
_geom_bond_atom_site_label_2
_geom_bond_distance
_geom_bond_site_symmetry_2
Nb0 Nb1 2.777293 1_445
Nb0 Nb2 2.777293 1_545
Nb0 Se1 2.884192 1_555
Nb0 Se1 2.884192 1_455
Nb0 Nb4 2.938687 1_554
Nb0 Nb4 2.938687 1_555
Nb0 Nb5 2.938692 1_455
Nb0 Nb5 2.938692 1_454
Nb0 Nb1 2.989787 1_555
Nb0 Nb2 2.989787 1_555
Nb0 Se0 3.007391 1_555
Nb0 Se0 3.007391 1_554
Nb1 Nb2 2.777293 1_655
Nb1 Se1 2.884192 1_555
Nb1 Se1 2.884192 1_565
Nb1 Nb3 2.938687 1_554
Nb1 Nb3 2.938687 1_555
Nb1 Nb5 2.938692 1_565
Nb1 Nb5 2.938692 1_564
Nb1 Nb2 2.989787 1_555
Nb1 Se0 3.007391 1_555
Nb1 Se0 3.007391 1_554
Nb2 Se1 2.884192 1_455
Nb2 Se1 2.884192 1_565
Nb2 Nb4 2.938692 1_565
Nb2 Nb4 2.938692 1_564
Nb2 Nb3 2.938692 1_455
Nb2 Nb3 2.938692 1_454
Nb2 Se0 3.007386 1_555
Nb2 Se0 3.007386 1_554
Nb3 Nb4 2.777293 1_665
Nb3 Nb5 2.777293 1_565
Nb3 Se0 2.884192 1_555
Nb3 Se0 2.884192 1_655
Nb3 Nb4 2.989787 1_555
Nb3 Nb5 2.989787 1_555
Nb3 Se1 3.007391 1_556
Nb3 Se1 3.007391 1_555
Nb4 Nb5 2.777293 1_455
Nb4 Se0 2.884192 1_555
Nb4 Se0 2.884192 1_545
Nb4 Nb5 2.989787 1_555
Nb4 Se1 3.007391 1_556
Nb4 Se1 3.007391 1_555
Nb5 Se0 2.884192 1_545
Nb5 Se0 2.884192 1_655
Nb5 Se1 3.007386 1_555
Nb5 Se1 3.007386 1_556
