# generated using pymatgen
data_SrHg3
_symmetry_space_group_name_H-M   'P 1'
_cell_length_a   9.93121800
_cell_length_b   6.86700800
_cell_length_c   6.79056800
_cell_angle_alpha   90.00000000
_cell_angle_beta   90.00000000
_cell_angle_gamma   90.00000000
_symmetry_Int_Tables_number   1
_chemical_formula_structural   SrHg3
_chemical_formula_sum   'Sr4 Hg12'
_cell_volume   463.10148229
_cell_formula_units_Z   4
loop_
 _symmetry_equiv_pos_site_id
 _symmetry_equiv_pos_as_xyz
  1  'x, y, z'
loop_
 _atom_site_type_symbol
 _atom_site_label
 _atom_site_symmetry_multiplicity
 _atom_site_fract_x
 _atom_site_fract_y
 _atom_site_fract_z
 _atom_site_occupancy
  Sr  Sr0  1  0.25000000  0.03309500  0.00889100  1
  Sr  Sr1  1  0.25000000  0.46690500  0.50889100  1
  Sr  Sr2  1  0.75000000  0.96690500  0.99110900  1
  Sr  Sr3  1  0.75000000  0.53309500  0.49110900  1
  Hg  Hg0  1  0.99016400  0.23045000  0.73236600  1
  Hg  Hg1  1  0.50983600  0.26955000  0.23236600  1
  Hg  Hg2  1  0.49016400  0.76955000  0.26763400  1
  Hg  Hg3  1  0.00983600  0.73045000  0.76763400  1
  Hg  Hg4  1  0.00983600  0.76955000  0.26763400  1
  Hg  Hg5  1  0.49016400  0.73045000  0.76763400  1
  Hg  Hg6  1  0.50983600  0.23045000  0.73236600  1
  Hg  Hg7  1  0.99016400  0.26955000  0.23236600  1
  Hg  Hg8  1  0.25000000  0.97157600  0.51299000  1
  Hg  Hg9  1  0.25000000  0.52842400  0.01299000  1
  Hg  Hg10  1  0.75000000  0.02842400  0.48701000  1
  Hg  Hg11  1  0.75000000  0.47157600  0.98701000  1
loop_
_geom_bond_atom_site_label_1
_geom_bond_atom_site_label_2
_geom_bond_distance
_geom_bond_site_symmetry_2
Hg0 Hg10 3.223252 1_555
Hg0 Hg11 3.379434 1_555
Hg0 Sr1 3.405630 1_655
Hg0 Hg7 3.405884 1_555
Hg0 Hg7 3.405884 1_556
Hg0 Hg3 3.447386 1_655
Hg0 Hg3 3.447386 1_645
Hg0 Sr0 3.467215 1_656
Hg0 Hg8 3.469621 1_645
Hg0 Sr2 3.471476 1_545
Hg0 Sr3 3.562573 1_555
Hg1 Hg11 3.223252 1_554
Hg1 Hg10 3.379434 1_555
Hg1 Sr0 3.405630 1_555
Hg1 Hg6 3.405884 1_554
Hg1 Hg6 3.405884 1_555
Hg1 Hg2 3.447386 1_545
Hg1 Hg2 3.447386 1_555
Hg1 Sr1 3.467215 1_555
Hg1 Hg9 3.469621 1_555
Hg1 Sr3 3.471476 1_555
Hg1 Sr2 3.562573 1_544
Hg2 Hg8 3.223252 1_555
Hg2 Hg9 3.379434 1_555
Hg2 Sr3 3.405630 1_555
Hg2 Hg5 3.405884 1_555
Hg2 Hg5 3.405884 1_554
Hg2 Sr2 3.467215 1_554
Hg2 Sr0 3.471476 1_565
Hg2 Sr1 3.562573 1_555
Hg3 Hg9 3.223252 1_556
Hg3 Hg8 3.379434 1_555
Hg3 Sr2 3.405630 1_455
Hg3 Hg4 3.405884 1_555
Hg3 Hg4 3.405884 1_556
Hg3 Sr3 3.467215 1_455
Hg3 Sr1 3.471476 1_555
Hg3 Sr0 3.562573 1_566
Hg4 Hg8 3.223252 1_555
Hg4 Hg9 3.379434 1_555
Hg4 Sr3 3.405630 1_455
Hg4 Hg7 3.447386 1_465
Hg4 Hg7 3.447386 1_455
Hg4 Sr2 3.467215 1_454
Hg4 Sr0 3.471476 1_565
Hg4 Sr1 3.562573 1_555
Hg5 Hg9 3.223252 1_556
Hg5 Hg8 3.379434 1_555
Hg5 Sr2 3.405630 1_555
Hg5 Hg6 3.447386 1_555
Hg5 Hg6 3.447386 1_565
Hg5 Sr3 3.467215 1_555
Hg5 Sr1 3.471476 1_555
Hg5 Sr0 3.562573 1_566
Hg6 Sr1 3.405630 1_555
Hg6 Sr0 3.467215 1_556
Hg6 Hg8 3.469621 1_545
Hg6 Sr2 3.471476 1_545
Hg6 Sr3 3.562573 1_555
Hg7 Sr0 3.405630 1_655
Hg7 Sr1 3.467215 1_655
Hg7 Hg9 3.469621 1_655
Hg7 Sr3 3.471476 1_555
Hg7 Sr2 3.562573 1_544
Hg8 Sr0 3.393845 1_566
Hg8 Sr1 3.401542 1_565
Hg8 Sr0 3.449088 1_565
Hg8 Sr1 3.465692 1_555
Hg9 Sr1 3.393845 1_555
Hg9 Sr0 3.401542 1_555
Hg9 Sr1 3.449088 1_554
Hg9 Sr0 3.465692 1_565
Hg10 Hg6 3.223252 1_555
Hg10 Hg7 3.379434 1_555
Hg10 Sr2 3.393845 1_544
Hg10 Sr3 3.401542 1_545
Hg10 Sr2 3.449088 1_545
Hg10 Sr3 3.465692 1_555
Hg10 Hg4 3.469621 1_645
Hg10 Hg2 3.469621 1_545
Hg11 Hg7 3.223252 1_556
Hg11 Hg6 3.379434 1_555
Hg11 Sr3 3.393845 1_555
Hg11 Sr2 3.401542 1_555
Hg11 Sr3 3.449088 1_556
Hg11 Sr2 3.465692 1_545
Hg11 Hg3 3.469621 1_655
Hg11 Hg5 3.469621 1_555
