# generated using pymatgen
data_Sc6Te2Ir
_symmetry_space_group_name_H-M   'P 1'
_cell_length_a   7.76692236
_cell_length_b   7.76679706
_cell_length_c   3.83007120
_cell_angle_alpha   90.00000000
_cell_angle_beta   90.00000000
_cell_angle_gamma   120.00363187
_symmetry_Int_Tables_number   1
_chemical_formula_structural   Sc6Te2Ir
_chemical_formula_sum   'Sc6 Te2 Ir1'
_cell_volume   200.08406657
_cell_formula_units_Z   1
loop_
 _symmetry_equiv_pos_site_id
 _symmetry_equiv_pos_as_xyz
  1  'x, y, z'
loop_
 _atom_site_type_symbol
 _atom_site_label
 _atom_site_symmetry_multiplicity
 _atom_site_fract_x
 _atom_site_fract_y
 _atom_site_fract_z
 _atom_site_occupancy
  Sc  Sc0  1  0.24094680  0.99999197  0.50000000  1
  Sc  Sc1  1  0.99998927  0.24094612  0.50000000  1
  Sc  Sc2  1  0.75904216  0.75904575  0.50000000  1
  Sc  Sc3  1  0.61297792  0.00000103  0.00000000  1
  Sc  Sc4  1  0.00000121  0.61298391  -0.00000000  1
  Sc  Sc5  1  0.38700230  0.38700218  0.00000000  1
  Te  Te0  1  0.33333385  0.66667919  0.50000000  1
  Te  Te1  1  0.66667670  0.33332859  0.50000000  1
  Ir  Ir0  1  0.00003080  0.00002128  -0.00000000  1
loop_
_geom_bond_atom_site_label_1
_geom_bond_atom_site_label_2
_geom_bond_distance
_geom_bond_site_symmetry_2
Sc0 Te0 3.012383 1_555
Sc0 Te1 3.012435 1_565
Sc1 Te1 3.012391 1_555
Sc1 Te0 3.012448 1_655
Sc2 Te0 3.012464 1_555
Sc2 Te1 3.012479 1_555
Sc3 Te0 3.076268 1_545
Sc3 Te0 3.076268 1_544
Sc3 Te1 3.076325 1_554
Sc3 Te1 3.076325 1_555
Sc4 Te1 3.076313 1_455
Sc4 Te1 3.076313 1_454
Sc4 Te0 3.076397 1_554
Sc4 Te0 3.076397 1_555
Sc5 Te0 3.076540 1_554
Sc5 Te0 3.076540 1_555
Sc5 Te1 3.076568 1_554
Sc5 Te1 3.076568 1_555
Ir0 Sc0 2.677515 1_544
Ir0 Sc0 2.677515 1_545
Ir0 Sc1 2.677575 1_455
Ir0 Sc1 2.677575 1_454
Ir0 Sc2 2.677712 1_445
Ir0 Sc2 2.677712 1_444
Ir0 Sc5 3.005425 1_555
Ir0 Sc4 3.005926 1_545
Ir0 Sc3 3.006131 1_455
