# generated using pymatgen
data_Er(GaCo)6
_symmetry_space_group_name_H-M   'P 1'
_cell_length_a   5.04505100
_cell_length_b   6.46060227
_cell_length_c   6.46060227
_cell_angle_alpha   83.84341323
_cell_angle_beta   67.01766266
_cell_angle_gamma   67.01766266
_symmetry_Int_Tables_number   1
_chemical_formula_structural   Er(GaCo)6
_chemical_formula_sum   'Er1 Ga6 Co6'
_cell_volume   178.22096610
_cell_formula_units_Z   1
loop_
 _symmetry_equiv_pos_site_id
 _symmetry_equiv_pos_as_xyz
  1  'x, y, z'
loop_
 _atom_site_type_symbol
 _atom_site_label
 _atom_site_symmetry_multiplicity
 _atom_site_fract_x
 _atom_site_fract_y
 _atom_site_fract_z
 _atom_site_occupancy
  Er  Er0  1  0.00000000  0.00000000  0.00000000  1
  Ga  Ga0  1  0.00000000  0.34484700  0.65515300  1
  Ga  Ga1  1  0.00000000  0.65515300  0.34484700  1
  Ga  Ga2  1  0.50000000  0.18857100  0.81142900  1
  Ga  Ga3  1  0.50000000  0.81142900  0.18857100  1
  Ga  Ga4  1  0.34008600  0.65991400  0.65991400  1
  Ga  Ga5  1  0.65991400  0.34008600  0.34008600  1
  Co  Co0  1  0.26246500  0.23753500  0.23753500  1
  Co  Co1  1  0.73753500  0.76246500  0.76246500  1
  Co  Co2  1  0.50000000  0.00000000  0.50000000  1
  Co  Co3  1  0.50000000  0.50000000  0.00000000  1
  Co  Co4  1  0.00000000  0.50000000  0.00000000  1
  Co  Co5  1  0.00000000  0.00000000  0.50000000  1
loop_
_geom_bond_atom_site_label_1
_geom_bond_atom_site_label_2
_geom_bond_distance
_geom_bond_site_symmetry_2
Er0 Ga5 2.783288 1_455
Er0 Ga4 2.783288 1_544
Er0 Ga1 2.977010 1_545
Er0 Ga0 2.977010 1_554
Er0 Ga2 3.002200 1_454
Er0 Ga3 3.002200 1_445
Er0 Ga3 3.002200 1_545
Er0 Ga2 3.002200 1_554
Ga0 Ga1 2.678823 1_555
Ga0 Ga2 2.860633 1_455
Ga0 Ga2 2.860633 1_555
Ga1 Ga3 2.860633 1_455
Ga1 Ga3 2.860633 1_555
Ga2 Ga5 2.990142 1_555
Ga2 Ga4 2.990142 1_555
Ga3 Ga5 2.990142 1_555
Ga3 Ga4 2.990142 1_555
Ga4 Ga5 2.617495 1_555
Co0 Co2 2.501812 1_555
Co0 Co3 2.501812 1_555
Co0 Co4 2.501812 1_555
Co0 Co5 2.501812 1_555
Co0 Ga0 2.531416 1_555
Co0 Ga1 2.531416 1_555
Co0 Ga3 2.535591 1_545
Co0 Ga2 2.535591 1_554
Co0 Ga5 2.658483 1_555
Co0 Ga5 2.658483 1_455
Co0 Er0 3.184695 1_555
Co0 Er0 3.184695 1_655
Co1 Co3 2.501812 1_556
Co1 Co2 2.501812 1_565
Co1 Co4 2.501812 1_656
Co1 Co5 2.501812 1_665
Co1 Ga0 2.531416 1_655
Co1 Ga1 2.531416 1_655
Co1 Ga3 2.535591 1_556
Co1 Ga2 2.535591 1_565
Co1 Ga4 2.658483 1_555
Co1 Ga4 2.658483 1_655
Co1 Er0 3.184695 1_666
Co1 Er0 3.184695 1_566
Co2 Ga2 2.461340 1_555
Co2 Ga3 2.461340 1_545
Co2 Co5 2.522525 1_555
Co2 Co5 2.522525 1_655
Co2 Ga0 2.539174 1_555
Co2 Ga1 2.539174 1_645
Co2 Ga5 2.606190 1_555
Co2 Ga4 2.606190 1_545
Co2 Er0 3.230301 1_556
Co2 Er0 3.230301 1_655
Co3 Ga3 2.461340 1_555
Co3 Ga2 2.461340 1_554
Co3 Co4 2.522525 1_655
Co3 Co4 2.522525 1_555
Co3 Ga1 2.539174 1_555
Co3 Ga0 2.539174 1_654
Co3 Ga5 2.606190 1_555
Co3 Ga4 2.606190 1_554
Co3 Er0 3.230301 1_655
Co3 Er0 3.230301 1_565
Co4 Ga3 2.461341 1_455
Co4 Ga2 2.461341 1_554
Co4 Ga1 2.539174 1_555
Co4 Ga0 2.539174 1_554
Co4 Ga5 2.606190 1_455
Co4 Ga4 2.606190 1_554
Co4 Er0 3.230301 1_555
Co4 Er0 3.230301 1_565
Co5 Ga2 2.461341 1_455
Co5 Ga3 2.461341 1_545
Co5 Ga0 2.539174 1_555
Co5 Ga1 2.539174 1_545
Co5 Ga5 2.606190 1_455
Co5 Ga4 2.606190 1_545
Co5 Er0 3.230301 1_556
Co5 Er0 3.230301 1_555
