# generated using pymatgen
data_CdIn3
_symmetry_space_group_name_H-M   'P 1'
_cell_length_a   5.26871198
_cell_length_b   5.26871198
_cell_length_c   5.26871198
_cell_angle_alpha   60.00000000
_cell_angle_beta   60.00000000
_cell_angle_gamma   60.00000000
_symmetry_Int_Tables_number   1
_chemical_formula_structural   CdIn3
_chemical_formula_sum   'Cd1 In3'
_cell_volume   103.41853385
_cell_formula_units_Z   1
loop_
 _symmetry_equiv_pos_site_id
 _symmetry_equiv_pos_as_xyz
  1  'x, y, z'
loop_
 _atom_site_type_symbol
 _atom_site_label
 _atom_site_symmetry_multiplicity
 _atom_site_fract_x
 _atom_site_fract_y
 _atom_site_fract_z
 _atom_site_occupancy
  Cd  Cd0  1  0.00000000  0.00000000  0.00000000  1
  In  In0  1  0.25000000  0.25000000  0.25000000  1
  In  In1  1  0.75000000  0.75000000  0.75000000  1
  In  In2  1  0.50000000  0.50000000  0.50000000  1
loop_
_geom_bond_atom_site_label_1
_geom_bond_atom_site_label_2
_geom_bond_distance
_geom_bond_site_symmetry_2
Cd0 In0 3.226414 1_455
Cd0 In0 3.226414 1_555
Cd0 In1 3.226414 1_454
Cd0 In1 3.226414 1_444
Cd0 In1 3.226414 1_544
Cd0 In0 3.226414 1_545
Cd0 In1 3.226414 1_445
Cd0 In0 3.226414 1_554
In0 In2 3.226414 1_545
In0 In2 3.226414 1_455
In0 In2 3.226414 1_554
In0 In2 3.226414 1_555
In1 In2 3.226414 1_655
In1 In2 3.226414 1_555
In1 In2 3.226414 1_556
In1 In2 3.226414 1_565
