# generated using pymatgen
data_BaLaEuWO6
_symmetry_space_group_name_H-M   'P 1'
_cell_length_a   11.01009289
_cell_length_b   10.53037467
_cell_length_c   10.01912260
_cell_angle_alpha   90.00000000
_cell_angle_beta   90.00000000
_cell_angle_gamma   90.00000000
_symmetry_Int_Tables_number   1
_chemical_formula_structural   BaLaEuWO6
_chemical_formula_sum   'Ba4 La4 Eu4 W4 O24'
_cell_volume   1161.62111479
_cell_formula_units_Z   4
loop_
 _symmetry_equiv_pos_site_id
 _symmetry_equiv_pos_as_xyz
  1  'x, y, z'
loop_
 _atom_site_type_symbol
 _atom_site_label
 _atom_site_symmetry_multiplicity
 _atom_site_fract_x
 _atom_site_fract_y
 _atom_site_fract_z
 _atom_site_occupancy
  Ba  Ba0  1  0.00000000  0.00000000  0.00000000  1
  Ba  Ba1  1  0.50000000  0.50000000  0.50000000  1
  Ba  Ba2  1  0.50000000  0.50000000  -0.00000000  1
  Ba  Ba3  1  -0.00000000  0.00000000  0.50000000  1
  La  La0  1  0.75000000  0.75000000  0.75000000  1
  La  La1  1  0.25000000  0.25000000  0.75000000  1
  La  La2  1  0.25000000  0.75000000  0.25000000  1
  La  La3  1  0.75000000  0.25000000  0.25000000  1
  Eu  Eu0  1  -0.00000000  0.50000000  0.50000000  1
  Eu  Eu1  1  0.50000000  0.00000000  0.50000000  1
  Eu  Eu2  1  0.50000000  0.00000000  0.00000000  1
  Eu  Eu3  1  -0.00000000  0.50000000  -0.00000000  1
  W  W0  1  0.25000000  0.25000000  0.25000000  1
  W  W1  1  0.75000000  0.75000000  0.25000000  1
  W  W2  1  0.75000000  0.25000000  0.75000000  1
  W  W3  1  0.25000000  0.75000000  0.75000000  1
  O  O0  1  -0.00299833  0.21128297  0.28562379  1
  O  O1  1  0.00299833  0.78871703  0.28562379  1
  O  O2  1  0.00299833  0.21128297  0.71437621  1
  O  O3  1  -0.00299833  0.78871703  0.71437621  1
  O  O4  1  0.29158522  0.02164601  0.20560610  1
  O  O5  1  0.29158522  0.97835399  0.79439390  1
  O  O6  1  0.70841478  0.97835399  0.20560610  1
  O  O7  1  0.70841478  0.02164601  0.79439390  1
  O  O8  1  0.20661478  0.29174906  0.02945168  1
  O  O9  1  0.79338522  0.29174906  0.97054832  1
  O  O10  1  0.20661478  0.70825094  0.97054832  1
  O  O11  1  0.79338522  0.70825094  0.02945168  1
  O  O12  1  0.50299833  0.28871703  0.21437621  1
  O  O13  1  0.49700167  0.71128297  0.21437621  1
  O  O14  1  0.49700167  0.28871703  0.78562379  1
  O  O15  1  0.50299833  0.71128297  0.78562379  1
  O  O16  1  0.20841478  0.47835399  0.29439390  1
  O  O17  1  0.20841478  0.52164601  0.70560610  1
  O  O18  1  0.79158522  0.52164601  0.29439390  1
  O  O19  1  0.79158522  0.47835399  0.70560610  1
  O  O20  1  0.29338522  0.20825094  0.47054832  1
  O  O21  1  0.70661478  0.20825094  0.52945168  1
  O  O22  1  0.29338522  0.79174906  0.52945168  1
  O  O23  1  0.70661478  0.79174906  0.47054832  1
loop_
_geom_bond_atom_site_label_1
_geom_bond_atom_site_label_2
_geom_bond_distance
_geom_bond_site_symmetry_2
Ba2 O12 3.092657 1_555
Ba2 O14 3.092657 1_554
Ba2 O15 3.092657 1_554
Ba2 O13 3.092657 1_555
Ba3 O1 3.092657 1_545
Ba3 O0 3.092657 1_555
Ba3 O3 3.092657 1_545
Ba3 O2 3.092657 1_555
La0 O15 2.772969 1_555
La0 O3 2.772969 1_655
La0 O11 2.874138 1_556
La0 O23 2.874138 1_555
La0 O19 2.930892 1_555
La0 O7 2.930892 1_565
La1 O14 2.772969 1_555
La1 O2 2.772969 1_555
La1 O20 2.874138 1_555
La1 O8 2.874138 1_556
La1 O5 2.930892 1_545
La1 O17 2.930892 1_555
La2 O13 2.772969 1_555
La2 O1 2.772969 1_555
La2 O22 2.874138 1_555
La2 O10 2.874138 1_554
La2 O16 2.930892 1_555
La2 O4 2.930892 1_565
La3 O12 2.772969 1_555
La3 O0 2.772969 1_655
La3 O21 2.874138 1_555
La3 O9 2.874138 1_554
La3 O18 2.930892 1_555
La3 O6 2.930892 1_545
Eu0 O17 3.092090 1_555
Eu0 O16 3.092090 1_555
Eu0 O18 3.092090 1_455
Eu0 O19 3.092090 1_455
Eu1 O21 3.173497 1_555
Eu1 O20 3.173497 1_555
Eu1 O23 3.173497 1_545
Eu1 O22 3.173497 1_545
Eu2 O4 3.092090 1_555
Eu2 O6 3.092090 1_545
Eu2 O5 3.092090 1_544
Eu2 O7 3.092090 1_554
Eu3 O11 3.173497 1_455
Eu3 O10 3.173497 1_554
Eu3 O9 3.173497 1_454
Eu3 O8 3.173497 1_555
O0 W0 2.837749 1_555
O1 W1 2.837749 1_455
O2 W2 2.837749 1_455
O3 W3 2.837749 1_555
O4 W0 2.487936 1_555
O5 W3 2.487936 1_555
O6 W1 2.487936 1_555
O7 W2 2.487936 1_555
O8 W0 2.303091 1_555
O9 W2 2.303091 1_555
O10 W3 2.303091 1_555
O11 W1 2.303091 1_555
O12 W0 2.837749 1_555
O13 W1 2.837749 1_555
O14 W2 2.837749 1_555
O15 W3 2.837749 1_555
O16 W0 2.487936 1_555
O17 W3 2.487936 1_555
O18 W1 2.487936 1_555
O19 W2 2.487936 1_555
O20 W0 2.303091 1_555
O21 W2 2.303091 1_555
O22 W3 2.303091 1_555
O23 W1 2.303091 1_555
