# generated using pymatgen
data_Mg14NiMo
_symmetry_space_group_name_H-M   'P 1'
_cell_length_a   6.25902337
_cell_length_b   6.25902292
_cell_length_c   9.73077184
_cell_angle_alpha   90.00000000
_cell_angle_beta   90.00000000
_cell_angle_gamma   120.00000243
_symmetry_Int_Tables_number   1
_chemical_formula_structural   Mg14NiMo
_chemical_formula_sum   'Mg14 Ni1 Mo1'
_cell_volume   330.13458675
_cell_formula_units_Z   1
loop_
 _symmetry_equiv_pos_site_id
 _symmetry_equiv_pos_as_xyz
  1  'x, y, z'
loop_
 _atom_site_type_symbol
 _atom_site_label
 _atom_site_symmetry_multiplicity
 _atom_site_fract_x
 _atom_site_fract_y
 _atom_site_fract_z
 _atom_site_occupancy
  Mg  Mg0  1  0.16482286  0.83241093  0.12500000  1
  Mg  Mg1  1  0.17168288  0.83584094  0.62500000  1
  Mg  Mg2  1  0.66758907  0.33517714  0.12500000  1
  Mg  Mg3  1  0.66415906  0.32831712  0.62500000  1
  Mg  Mg4  1  0.66758907  0.83241093  0.12500000  1
  Mg  Mg5  1  0.66415906  0.83584094  0.62500000  1
  Mg  Mg6  1  0.32314550  0.17685450  0.37175868  1
  Mg  Mg7  1  0.32314550  0.17685450  0.87824132  1
  Mg  Mg8  1  0.32314550  0.64629201  0.37175868  1
  Mg  Mg9  1  0.32314550  0.64629201  0.87824132  1
  Mg  Mg10  1  0.85370799  0.17685450  0.37175868  1
  Mg  Mg11  1  0.85370799  0.17685450  0.87824132  1
  Mg  Mg12  1  0.83333300  0.66666700  0.37836716  1
  Mg  Mg13  1  0.83333300  0.66666700  0.87163284  1
  Ni  Ni0  1  0.16666700  0.33333300  0.12500000  1
  Mo  Mo0  1  0.16666700  0.33333300  0.62500000  1
loop_
_geom_bond_atom_site_label_1
_geom_bond_atom_site_label_2
_geom_bond_distance
_geom_bond_site_symmetry_2
Mg0 Mg8 3.042848 1_555
Mg0 Mg9 3.042848 1_554
Mg0 Mg7 3.042855 1_564
Mg0 Mg6 3.042855 1_565
Mg0 Mg12 3.050752 1_455
Mg0 Mg13 3.050752 1_454
Mg0 Mg2 3.112198 1_455
Mg0 Mg4 3.112198 1_455
Mg0 Ni0 3.129527 1_565
Mg0 Ni0 3.129527 1_555
Mg0 Mg2 3.146825 1_565
Mg0 Mg4 3.146825 1_555
Mg1 Mg13 3.020475 1_455
Mg1 Mg12 3.020475 1_455
Mg1 Mg3 3.082420 1_565
Mg1 Mg5 3.082420 1_555
Mg1 Mg8 3.082758 1_555
Mg1 Mg9 3.082758 1_555
Mg1 Mg6 3.082765 1_565
Mg1 Mg7 3.082765 1_565
Mg1 Mo0 3.129630 1_555
Mg1 Mo0 3.129630 1_565
Mg1 Mg3 3.176603 1_455
Mg1 Mg5 3.176603 1_455
Mg2 Mg7 3.042855 1_554
Mg2 Mg6 3.042855 1_555
Mg2 Mg4 3.112198 1_555
Mg2 Ni0 3.129528 1_555
Mg2 Ni0 3.129528 1_655
Mg2 Mg4 3.146825 1_545
Mg3 Mg5 3.082420 1_545
Mg3 Mg6 3.082765 1_555
Mg3 Mg7 3.082765 1_555
Mg3 Mo0 3.129630 1_655
Mg3 Mo0 3.129630 1_555
Mg3 Mg5 3.176603 1_555
Mg4 Mg8 3.042855 1_555
Mg4 Mg9 3.042855 1_554
Mg4 Ni0 3.129527 1_665
Mg4 Ni0 3.129527 1_555
Mg5 Mg8 3.082765 1_555
Mg5 Mg9 3.082765 1_555
Mg5 Mo0 3.129630 1_555
Mg5 Mo0 3.129630 1_665
Mg6 Mg8 2.938220 1_555
Mg6 Ni0 2.939936 1_555
Mg6 Mo0 2.991678 1_555
Mg6 Mg8 3.320803 1_545
Mg7 Mg9 2.938220 1_555
Mg7 Ni0 2.939936 1_556
Mg7 Mo0 2.991678 1_555
Mg7 Mg9 3.320803 1_545
Mg8 Ni0 2.939942 1_555
Mg8 Mo0 2.991684 1_555
Mg9 Ni0 2.939942 1_556
Mg9 Mo0 2.991684 1_555
Mg10 Mg8 2.938220 1_655
Mg10 Mg6 2.938220 1_655
Mg10 Ni0 2.939942 1_655
Mg10 Mo0 2.991684 1_655
Mg10 Mg2 3.042848 1_555
Mg10 Mg4 3.042854 1_545
Mg10 Mg3 3.082758 1_555
Mg10 Mg5 3.082764 1_545
Mg10 Mg12 3.132120 1_555
Mg10 Mg12 3.132120 1_545
Mg10 Mg8 3.320803 1_545
Mg10 Mg6 3.320803 1_555
Mg11 Mg9 2.938220 1_655
Mg11 Mg7 2.938220 1_655
Mg11 Ni0 2.939942 1_656
Mg11 Mo0 2.991684 1_655
Mg11 Mg2 3.042848 1_556
Mg11 Mg4 3.042854 1_546
Mg11 Mg3 3.082758 1_555
Mg11 Mg5 3.082764 1_545
Mg11 Mg13 3.132120 1_555
Mg11 Mg13 3.132120 1_545
Mg11 Mg9 3.320803 1_545
Mg11 Mg7 3.320803 1_555
Mg12 Mg5 3.020469 1_555
Mg12 Mg3 3.020475 1_555
Mg12 Mg4 3.050746 1_555
Mg12 Mg2 3.050752 1_555
Mg12 Mg6 3.132120 1_665
Mg12 Mg6 3.132120 1_555
Mg12 Mg8 3.132120 1_655
Mg12 Mg8 3.132120 1_555
Mg13 Mg5 3.020469 1_555
Mg13 Mg3 3.020475 1_555
Mg13 Mg4 3.050746 1_556
Mg13 Mg2 3.050752 1_556
Mg13 Mg7 3.132120 1_665
Mg13 Mg7 3.132120 1_555
Mg13 Mg9 3.132120 1_655
Mg13 Mg9 3.132120 1_555
