# generated using pymatgen
data_Rb4Li(Se2O7)2
_symmetry_space_group_name_H-M   'P 1'
_cell_length_a   8.52025714
_cell_length_b   8.52025714
_cell_length_c   7.62566239
_cell_angle_alpha   97.82137085
_cell_angle_beta   97.82137085
_cell_angle_gamma   57.77580279
_symmetry_Int_Tables_number   1
_chemical_formula_structural   Rb4Li(Se2O7)2
_chemical_formula_sum   'Rb4 Li1 Se4 O14'
_cell_volume   462.62267358
_cell_formula_units_Z   1
loop_
 _symmetry_equiv_pos_site_id
 _symmetry_equiv_pos_as_xyz
  1  'x, y, z'
loop_
 _atom_site_type_symbol
 _atom_site_label
 _atom_site_symmetry_multiplicity
 _atom_site_fract_x
 _atom_site_fract_y
 _atom_site_fract_z
 _atom_site_occupancy
  Rb  Rb0  1  0.06601400  0.60786500  0.31866000  1
  Rb  Rb1  1  0.39213500  0.93398600  0.18134000  1
  Rb  Rb2  1  0.87412800  0.42550500  0.67445600  1
  Rb  Rb3  1  0.57449500  0.12587200  0.82554400  1
  Li  Li0  1  0.49541600  0.50458400  0.25000000  1
  Se  Se0  1  0.69674000  0.12233200  0.36517700  1
  Se  Se1  1  0.87766800  0.30326000  0.13482300  1
  Se  Se2  1  0.32665500  0.84606800  0.63754800  1
  Se  Se3  1  0.15393200  0.67334500  0.86245200  1
  O  O0  1  0.68055600  0.24217500  0.56020500  1
  O  O1  1  0.75782400  0.31944400  0.93979500  1
  O  O2  1  0.35504200  0.70543200  0.45577300  1
  O  O3  1  0.29456700  0.64495800  0.04422700  1
  O  O4  1  0.50768800  0.26021700  0.22976200  1
  O  O5  1  0.73978300  0.49231200  0.27023800  1
  O  O6  1  0.50861000  0.77328700  0.78346700  1
  O  O7  1  0.22671300  0.49139000  0.71653300  1
  O  O8  1  0.70060200  0.92446300  0.38746600  1
  O  O9  1  0.07553700  0.29939800  0.11253400  1
  O  O10  1  0.23370900  0.06355300  0.59392700  1
  O  O11  1  0.93644700  0.76629100  0.90607300  1
  O  O12  1  0.89623400  0.10376600  0.25000000  1
  O  O13  1  0.13783800  0.86216200  0.75000000  1
loop_
_geom_bond_atom_site_label_1
_geom_bond_atom_site_label_2
_geom_bond_distance
_geom_bond_site_symmetry_2
Li0 O4 2.013586 1_555
Li0 O5 2.013586 1_555
Li0 O2 2.101991 1_555
Li0 O3 2.101995 1_555
O0 Se0 1.663071 1_555
O0 Rb3 2.809093 1_555
O0 Rb2 2.811594 1_555
O1 Se1 1.663074 1_556
O1 Rb2 2.809099 1_555
O1 Rb3 2.811587 1_555
O2 Se2 1.657058 1_555
O2 Rb0 3.015709 1_555
O2 Rb1 3.196415 1_555
O3 Se3 1.657054 1_554
O3 Rb1 3.015715 1_555
O3 Rb0 3.196408 1_555
O4 Se0 1.703066 1_555
O4 Rb3 3.155628 1_554
O4 Rb1 3.372224 1_545
O4 Rb0 3.413942 1_555
O5 Se1 1.703066 1_555
O5 Rb2 3.155628 1_555
O5 Rb0 3.372224 1_655
O5 Rb1 3.413942 1_555
O6 Se2 1.648992 1_555
O6 Rb2 3.059896 1_555
O6 Rb1 3.210098 1_556
O6 Rb3 3.306037 1_565
O7 Se3 1.648992 1_555
O7 Rb3 3.059896 1_555
O7 Rb0 3.210098 1_555
O7 Rb2 3.306037 1_455
O8 Se0 1.699859 1_565
O8 Rb1 2.840375 1_555
O8 Rb0 2.889265 1_655
O9 Se1 1.699859 1_455
O9 Rb0 2.840375 1_555
O9 Rb1 2.889265 1_545
O10 Se2 1.643952 1_545
O10 Rb2 3.032230 1_455
O10 Rb1 3.400146 1_545
O10 Rb3 3.438818 1_555
O11 Se3 1.643952 1_655
O11 Rb3 3.032230 1_565
O11 Rb0 3.400146 1_656
O11 Rb2 3.438818 1_555
O12 Se0 1.940955 1_555
O12 Se1 1.940955 1_555
O13 Se2 1.857549 1_555
O13 Se3 1.857549 1_555
