# generated using pymatgen
data_Li7Co5O12
_symmetry_space_group_name_H-M   'P 1'
_cell_length_a   3.00258600
_cell_length_b   5.04151967
_cell_length_c   14.26909860
_cell_angle_alpha   86.83883939
_cell_angle_beta   88.78670799
_cell_angle_gamma   89.18768625
_symmetry_Int_Tables_number   1
_chemical_formula_structural   Li7Co5O12
_chemical_formula_sum   'Li7 Co5 O12'
_cell_volume   215.60451948
_cell_formula_units_Z   1
loop_
 _symmetry_equiv_pos_site_id
 _symmetry_equiv_pos_as_xyz
  1  'x, y, z'
loop_
 _atom_site_type_symbol
 _atom_site_label
 _atom_site_symmetry_multiplicity
 _atom_site_fract_x
 _atom_site_fract_y
 _atom_site_fract_z
 _atom_site_occupancy
  Li  Li0  1  0.00000000  0.00000000  0.00000000  1
  Li  Li1  1  0.49542200  0.83157800  0.16726900  1
  Li  Li2  1  0.00093700  0.66782000  0.33351100  1
  Li  Li3  1  0.50000000  0.50000000  0.50000000  1
  Li  Li4  1  0.99906300  0.33218000  0.66648900  1
  Li  Li5  1  0.50457800  0.16842200  0.83273100  1
  Li  Li6  1  0.50000000  0.50000000  0.00000000  1
  Co  Co0  1  0.99951200  0.66310100  0.84068800  1
  Co  Co1  1  0.00048800  0.33689900  0.15931200  1
  Co  Co2  1  0.50517300  0.17224300  0.33180600  1
  Co  Co3  1  0.00000000  0.00000000  0.50000000  1
  Co  Co4  1  0.49482700  0.82775700  0.66819400  1
  O  O0  1  0.53342800  0.82423800  0.91033500  1
  O  O1  1  0.99866500  0.63455000  0.09300800  1
  O  O2  1  0.54094800  0.47981200  0.24929100  1
  O  O3  1  0.00310800  0.31474000  0.41755800  1
  O  O4  1  0.49166500  0.14487200  0.58546200  1
  O  O5  1  0.98887600  0.96561300  0.75198900  1
  O  O6  1  0.46657200  0.17576200  0.08966500  1
  O  O7  1  0.01112400  0.03438700  0.24801100  1
  O  O8  1  0.50833500  0.85512800  0.41453800  1
  O  O9  1  0.99689200  0.68526000  0.58244200  1
  O  O10  1  0.45905200  0.52018800  0.75070900  1
  O  O11  1  0.00133500  0.36545000  0.90699200  1
loop_
_geom_bond_atom_site_label_1
_geom_bond_atom_site_label_2
_geom_bond_distance
_geom_bond_site_symmetry_2
Li0 O6 2.149622 1_555
Li0 O0 2.149622 1_444
Li0 O1 2.210464 1_445
Li0 O11 2.210464 1_554
Li0 O6 2.232821 1_455
Li0 O0 2.232821 1_544
Li1 O6 2.008119 1_565
Li1 O2 2.074737 1_555
Li1 O1 2.097249 1_555
Li1 O7 2.122301 1_565
Li1 O1 2.135248 1_455
Li1 O7 2.240721 1_665
Li2 O3 2.090807 1_555
Li2 O8 2.103464 1_455
Li2 O2 2.117364 1_455
Li2 O7 2.157781 1_565
Li2 O8 2.187548 1_555
Li2 O2 2.229611 1_555
Li3 O4 2.110067 1_555
Li3 O8 2.110067 1_555
Li3 O3 2.131689 1_655
Li3 O9 2.131689 1_455
Li3 O9 2.171902 1_555
Li3 O3 2.171902 1_555
Li4 O9 2.090807 1_555
Li4 O4 2.103464 1_655
Li4 O10 2.117364 1_655
Li4 O5 2.157781 1_545
Li4 O4 2.187548 1_555
Li4 O10 2.229611 1_555
Li5 O0 2.008119 1_545
Li5 O10 2.074737 1_555
Li5 O11 2.097249 1_555
Li5 O5 2.122301 1_545
Li5 O11 2.135248 1_655
Li5 O5 2.240721 1_445
Li6 O0 2.021800 1_554
Li6 O6 2.021800 1_555
Li6 O1 2.114972 1_455
Li6 O11 2.114972 1_654
Li6 O1 2.162300 1_555
Li6 O11 2.162300 1_554
Co0 O11 1.729271 1_655
Co0 O0 1.898415 1_555
Co0 O5 1.927780 1_555
Co0 O10 2.017486 1_655
Co0 O0 2.100250 1_655
Co0 O10 2.241514 1_555
Co1 O1 1.729271 1_455
Co1 O6 1.898415 1_555
Co1 O7 1.927780 1_555
Co1 O2 2.017486 1_455
Co1 O6 2.100250 1_455
Co1 O2 2.241514 1_555
Co2 O2 1.897435 1_555
Co2 O8 1.934312 1_545
Co2 O7 2.050688 1_655
Co2 O3 2.067358 1_555
Co2 O7 2.075867 1_555
Co2 O3 2.110328 1_655
Co3 O9 1.922462 1_445
Co3 O3 1.922462 1_555
Co3 O4 2.082785 1_455
Co3 O8 2.082785 1_545
Co3 O4 2.098797 1_555
Co3 O8 2.098797 1_445
Co4 O10 1.897435 1_555
Co4 O4 1.934312 1_565
Co4 O5 2.050688 1_455
Co4 O9 2.067358 1_555
Co4 O5 2.075867 1_555
Co4 O9 2.110328 1_455
