# generated using pymatgen
data_UCo
_symmetry_space_group_name_H-M   'P 1'
_cell_length_a   5.42150940
_cell_length_b   5.42150940
_cell_length_c   5.42150940
_cell_angle_alpha   109.47122063
_cell_angle_beta   109.47122063
_cell_angle_gamma   109.47122063
_symmetry_Int_Tables_number   1
_chemical_formula_structural   UCo
_chemical_formula_sum   'U4 Co4'
_cell_volume   122.67010978
_cell_formula_units_Z   4
loop_
 _symmetry_equiv_pos_site_id
 _symmetry_equiv_pos_as_xyz
  1  'x, y, z'
loop_
 _atom_site_type_symbol
 _atom_site_label
 _atom_site_symmetry_multiplicity
 _atom_site_fract_x
 _atom_site_fract_y
 _atom_site_fract_z
 _atom_site_occupancy
  U  U0  1  0.56855816  0.00000000  0.50000000  1
  U  U1  1  0.50000000  0.56855816  -0.00000000  1
  U  U2  1  -0.00000000  0.50000000  0.56855816  1
  U  U3  1  0.93144184  0.93144184  0.93144184  1
  Co  Co0  1  0.09240329  0.00000000  0.50000000  1
  Co  Co1  1  0.50000000  0.09240329  -0.00000000  1
  Co  Co2  1  0.00000000  0.50000000  0.09240329  1
  Co  Co3  1  0.40759671  0.40759671  0.40759671  1
loop_
_geom_bond_atom_site_label_1
_geom_bond_atom_site_label_2
_geom_bond_distance
_geom_bond_site_symmetry_2
U0 U2 2.734808 1_655
U0 U1 2.734808 1_545
U0 U3 2.734808 1_545
U1 U3 2.734808 1_554
U1 U2 2.734808 1_554
U2 U3 2.734808 1_455
Co0 U0 2.581478 1_555
Co0 Co2 2.616393 1_545
Co0 Co1 2.616393 1_556
Co0 Co3 2.616393 1_555
Co0 U1 2.761851 1_556
Co0 U3 2.761851 1_444
Co0 U2 2.761851 1_545
Co0 U0 2.840031 1_455
Co0 U1 2.845184 1_445
Co0 U2 2.845184 1_555
Co0 U3 2.845184 1_445
Co1 U1 2.581478 1_555
Co1 Co2 2.616393 1_655
Co1 Co3 2.616393 1_555
Co1 U0 2.761851 1_554
Co1 U3 2.761851 1_444
Co1 U2 2.761851 1_655
Co1 U1 2.840031 1_545
Co1 U0 2.845184 1_555
Co1 U3 2.845184 1_544
Co1 U2 2.845184 1_544
Co2 U2 2.581478 1_555
Co2 Co3 2.616393 1_555
Co2 U3 2.761851 1_444
Co2 U0 2.761851 1_565
Co2 U1 2.761851 1_455
Co2 U2 2.840031 1_554
Co2 U0 2.845184 1_454
Co2 U3 2.845184 1_454
Co2 U1 2.845184 1_555
Co3 U3 2.581478 1_444
Co3 U2 2.761851 1_555
Co3 U1 2.761851 1_555
Co3 U0 2.761851 1_555
Co3 U3 2.840031 1_555
Co3 U2 2.845184 1_655
Co3 U1 2.845184 1_556
Co3 U0 2.845184 1_565
