# generated using pymatgen
data_Li3Fe3O8
_symmetry_space_group_name_H-M   'P 1'
_cell_length_a   5.84209491
_cell_length_b   10.23798960
_cell_length_c   5.91174851
_cell_angle_alpha   72.31205492
_cell_angle_beta   60.39941885
_cell_angle_gamma   90.09453987
_symmetry_Int_Tables_number   1
_chemical_formula_structural   Li3Fe3O8
_chemical_formula_sum   'Li6 Fe6 O16'
_cell_volume   287.95303190
_cell_formula_units_Z   2
loop_
 _symmetry_equiv_pos_site_id
 _symmetry_equiv_pos_as_xyz
  1  'x, y, z'
loop_
 _atom_site_type_symbol
 _atom_site_label
 _atom_site_symmetry_multiplicity
 _atom_site_fract_x
 _atom_site_fract_y
 _atom_site_fract_z
 _atom_site_occupancy
  Li  Li0  1  0.49959300  0.49979000  0.00070400  1
  Li  Li1  1  0.99968500  0.99984300  0.00113700  1
  Li  Li2  1  0.56980900  0.18759700  0.84442800  1
  Li  Li3  1  0.08507000  0.68877300  0.84631400  1
  Li  Li4  1  0.42930000  0.81205900  0.15777000  1
  Li  Li5  1  0.91407000  0.31086000  0.15519500  1
  Fe  Fe0  1  0.49979800  0.99977700  0.50136600  1
  Fe  Fe1  1  0.49970600  0.49987600  0.50059200  1
  Fe  Fe2  1  0.99981600  0.99973400  0.50103500  1
  Fe  Fe3  1  0.24487600  0.24952400  0.49555200  1
  Fe  Fe4  1  0.75397400  0.75002900  0.50643300  1
  Fe  Fe5  1  0.99954000  0.49979300  0.50068800  1
  O  O0  1  0.11211900  0.38433900  0.73103900  1
  O  O1  1  0.65845000  0.88252100  0.73564700  1
  O  O2  1  0.88699100  0.61532900  0.27045400  1
  O  O3  1  0.34083300  0.11705000  0.26656300  1
  O  O4  1  0.87897200  0.61842000  0.71110500  1
  O  O5  1  0.37284800  0.12205300  0.70200500  1
  O  O6  1  0.42721400  0.62501300  0.70673200  1
  O  O7  1  0.91461600  0.12161400  0.70802300  1
  O  O8  1  0.64351400  0.39594700  0.71275300  1
  O  O9  1  0.14010100  0.89623600  0.71466400  1
  O  O10  1  0.12015900  0.38117200  0.29043400  1
  O  O11  1  0.62639400  0.87767100  0.30017600  1
  O  O12  1  0.57190600  0.37463300  0.29473800  1
  O  O13  1  0.08471400  0.87799600  0.29414200  1
  O  O14  1  0.35559300  0.60375300  0.28858100  1
  O  O15  1  0.85926900  0.10336400  0.28770200  1
loop_
_geom_bond_atom_site_label_1
_geom_bond_atom_site_label_2
_geom_bond_distance
_geom_bond_site_symmetry_2
Li0 O12 2.053206 1_555
Li0 O6 2.053417 1_554
Li0 O4 2.073026 1_554
Li0 O10 2.073290 1_555
Li0 O8 2.103270 1_554
Li0 O14 2.103859 1_555
Li1 O5 2.069601 1_664
Li1 O11 2.069857 1_555
Li1 O13 2.083838 1_655
Li1 O7 2.084215 1_564
Li1 O15 2.094567 1_565
Li1 O9 2.094811 1_654
Li2 O5 1.944509 1_555
Li2 O7 1.973620 1_555
Li2 O8 1.999563 1_555
Li2 O3 2.035317 1_556
Li3 O6 1.950531 1_555
Li3 O4 1.976156 1_455
Li3 O9 1.991612 1_555
Li3 O2 2.043669 1_456
Li4 O11 1.945383 1_555
Li4 O13 1.972340 1_555
Li4 O14 1.999353 1_555
Li4 O1 2.035329 1_554
Li5 O12 1.950684 1_555
Li5 O10 1.976055 1_655
Li5 O15 1.991920 1_555
Li5 O0 2.043753 1_654
Fe0 O5 1.886906 1_565
Fe0 O11 1.887322 1_555
Fe0 O15 1.920560 1_565
Fe0 O9 1.921519 1_555
Fe0 O1 2.116590 1_555
Fe0 O3 2.120204 1_565
Fe1 O8 1.908950 1_555
Fe1 O14 1.909499 1_555
Fe1 O12 1.935441 1_555
Fe1 O6 1.935580 1_555
Fe1 O2 2.083330 1_555
Fe1 O0 2.084890 1_555
Fe2 O3 1.893500 1_665
Fe2 O1 1.894491 1_555
Fe2 O9 1.897794 1_655
Fe2 O15 1.898202 1_565
Fe2 O13 1.903797 1_655
Fe2 O7 1.905335 1_565
Fe3 O12 1.878128 1_555
Fe3 O7 1.900844 1_455
Fe3 O5 1.920538 1_555
Fe3 O10 1.923746 1_555
Fe3 O3 2.086811 1_555
Fe3 O0 2.132867 1_555
Fe4 O6 1.876790 1_555
Fe4 O13 1.903111 1_655
Fe4 O11 1.919061 1_555
Fe4 O4 1.923084 1_555
Fe4 O1 2.088047 1_555
Fe4 O2 2.133884 1_555
Fe5 O10 1.889765 1_655
Fe5 O4 1.890447 1_555
Fe5 O2 1.895362 1_555
Fe5 O0 1.895629 1_655
Fe5 O8 1.906548 1_555
Fe5 O14 1.907072 1_655
