# generated using pymatgen
data_Sr2FeWO6
_symmetry_space_group_name_H-M   'P 1'
_cell_length_a   5.76283833
_cell_length_b   5.64325205
_cell_length_c   9.84789796
_cell_angle_alpha   106.15101140
_cell_angle_beta   89.41946674
_cell_angle_gamma   119.63250439
_symmetry_Int_Tables_number   1
_chemical_formula_structural   Sr2FeWO6
_chemical_formula_sum   'Sr4 Fe2 W2 O12'
_cell_volume   264.26029207
_cell_formula_units_Z   2
loop_
 _symmetry_equiv_pos_site_id
 _symmetry_equiv_pos_as_xyz
  1  'x, y, z'
loop_
 _atom_site_type_symbol
 _atom_site_label
 _atom_site_symmetry_multiplicity
 _atom_site_fract_x
 _atom_site_fract_y
 _atom_site_fract_z
 _atom_site_occupancy
  Sr  Sr0  1  0.37395600  0.75151000  0.12169900  1
  Sr  Sr1  1  0.87705800  0.75034000  0.62888400  1
  Sr  Sr2  1  0.12609100  0.24855200  0.37835200  1
  Sr  Sr3  1  0.62286400  0.24957600  0.87111800  1
  Fe  Fe0  1  0.24997100  0.49998400  0.75002300  1
  Fe  Fe1  1  0.75011100  0.50012300  0.24983100  1
  W  W0  1  0.99916700  0.00744200  0.00141300  1
  W  W1  1  0.50086600  0.99254400  0.49853900  1
  O  O0  1  0.35359700  0.24542600  0.12042700  1
  O  O1  1  0.85552100  0.22445100  0.61843300  1
  O  O2  1  0.14643000  0.75450200  0.37954000  1
  O  O3  1  0.64441000  0.77556300  0.88166300  1
  O  O4  1  0.59678000  0.70420500  0.40826000  1
  O  O5  1  0.08921900  0.71988100  0.90387500  1
  O  O6  1  0.90331100  0.29580400  0.09175100  1
  O  O7  1  0.41064900  0.28002400  0.59616000  1
  O  O8  1  0.85587500  0.81587400  0.14509800  1
  O  O9  1  0.35041700  0.79680400  0.64243600  1
  O  O10  1  0.64418600  0.18424900  0.35492800  1
  O  O11  1  0.14951900  0.20314900  0.85757100  1
loop_
_geom_bond_atom_site_label_1
_geom_bond_atom_site_label_2
_geom_bond_distance
_geom_bond_site_symmetry_2
Fe0 O11 2.068467 1_555
Fe0 O9 2.068684 1_555
Fe0 O1 2.169735 1_455
Fe0 O3 2.169900 1_555
Fe0 O7 2.180802 1_555
Fe0 O5 2.180834 1_555
Fe1 O6 2.124282 1_555
Fe1 O4 2.126053 1_555
Fe1 O8 2.132150 1_555
Fe1 O10 2.135161 1_555
Fe1 O0 2.168757 1_555
Fe1 O2 2.169220 1_655
O0 W0 1.951781 1_455
O0 Sr0 2.796284 1_555
O0 Sr2 2.846296 1_555
O0 Sr0 2.850571 1_545
O0 Sr3 2.890529 1_554
O1 W1 1.956586 1_545
O1 Sr1 2.768804 1_545
O1 Sr3 2.816746 1_555
O1 Sr2 2.816759 1_655
O1 Sr1 2.880881 1_555
O2 W1 1.951745 1_555
O2 Sr2 2.795813 1_555
O2 Sr0 2.845626 1_555
O2 Sr2 2.851038 1_565
O2 Sr1 2.891137 1_455
O3 W0 1.956405 1_566
O3 Sr3 2.768563 1_565
O3 Sr0 2.816032 1_556
O3 Sr1 2.817543 1_555
O3 Sr3 2.881178 1_555
O4 W1 1.954028 1_555
O4 Sr1 2.595721 1_555
O4 Sr2 2.598843 1_555
O5 W0 1.944441 1_466
O5 Sr3 2.618903 1_455
O5 Sr0 2.625752 1_556
O5 Sr1 3.064640 1_455
O5 Sr3 3.150060 1_565
O6 W0 1.954035 1_555
O6 Sr3 2.596128 1_554
O6 Sr0 2.598775 1_655
O7 W1 1.944916 1_545
O7 Sr1 2.619145 1_555
O7 Sr2 2.625421 1_555
O7 Sr3 3.064451 1_555
O7 Sr1 3.149756 1_445
O8 W0 1.948690 1_565
O8 Sr2 2.618304 1_665
O8 Sr0 2.620471 1_555
O8 Sr3 3.213833 1_554
O9 W1 1.969493 1_555
O9 Sr1 2.609320 1_455
O9 Sr3 2.639825 1_565
O9 Sr1 3.171233 1_555
O10 W1 1.948498 1_545
O10 Sr0 2.618298 1_545
O10 Sr2 2.620547 1_655
O10 Sr1 3.213104 1_555
O11 W0 1.968833 1_456
O11 Sr3 2.609328 1_555
O11 Sr1 2.639955 1_445
O11 Sr3 3.171200 1_455
