# generated using pymatgen
data_LiCoPO4
_symmetry_space_group_name_H-M   'P 1'
_cell_length_a   4.97257621
_cell_length_b   7.28377813
_cell_length_c   9.60198100
_cell_angle_alpha   90.00093679
_cell_angle_beta   89.99799416
_cell_angle_gamma   89.94277398
_symmetry_Int_Tables_number   1
_chemical_formula_structural   LiCoPO4
_chemical_formula_sum   'Li4 Co4 P4 O16'
_cell_volume   347.77533818
_cell_formula_units_Z   4
loop_
 _symmetry_equiv_pos_site_id
 _symmetry_equiv_pos_as_xyz
  1  'x, y, z'
loop_
 _atom_site_type_symbol
 _atom_site_label
 _atom_site_symmetry_multiplicity
 _atom_site_fract_x
 _atom_site_fract_y
 _atom_site_fract_z
 _atom_site_occupancy
  Li  Li0  1  0.10497700  0.23349800  0.43519500  1
  Li  Li1  1  0.89504000  0.76650400  0.93522200  1
  Li  Li2  1  0.60308300  0.26573500  0.65434500  1
  Li  Li3  1  0.39691400  0.73427800  0.15434100  1
  Co  Co0  1  0.70829400  0.91575600  0.52331800  1
  Co  Co1  1  0.79278700  0.41641100  0.07254500  1
  Co  Co2  1  0.29168100  0.08423000  0.02331000  1
  Co  Co3  1  0.20720800  0.58356100  0.57255000  1
  P  P0  1  0.86460000  0.00460200  0.19799200  1
  P  P1  1  0.13539700  0.99541600  0.69798600  1
  P  P2  1  0.36312300  0.49381600  0.89665000  1
  P  P3  1  0.63688600  0.50614800  0.39665100  1
  O  O0  1  0.90132400  0.01299200  0.35772300  1
  O  O1  1  0.09862300  0.98702100  0.85770600  1
  O  O2  1  0.56539300  0.98341200  0.15810600  1
  O  O3  1  0.43461000  0.01659900  0.65811000  1
  O  O4  1  0.96390600  0.14737300  0.62839000  1
  O  O5  1  0.03610600  0.85265300  0.12840400  1
  O  O6  1  0.98492600  0.19119300  0.13951100  1
  O  O7  1  0.01508400  0.80881800  0.63948000  1
  O  O8  1  0.48433900  0.30974800  0.95891400  1
  O  O9  1  0.51566700  0.69023400  0.45891400  1
  O  O10  1  0.60227100  0.51973700  0.23689000  1
  O  O11  1  0.39770600  0.48026500  0.73691900  1
  O  O12  1  0.06393000  0.51613700  0.93663800  1
  O  O13  1  0.93607800  0.48386400  0.43658900  1
  O  O14  1  0.46610300  0.35147100  0.46270400  1
  O  O15  1  0.53394100  0.64852700  0.96273300  1
loop_
_geom_bond_atom_site_label_1
_geom_bond_atom_site_label_2
_geom_bond_distance
_geom_bond_site_symmetry_2
Li0 O13 2.006999 1_455
Li0 O14 2.008953 1_555
Li0 O0 2.040039 1_455
Li0 O4 2.080303 1_455
Li1 O12 2.006989 1_655
Li1 O15 2.008835 1_555
Li1 O1 2.040076 1_655
Li1 O5 2.080262 1_656
Li2 O3 1.999780 1_555
Li2 O4 2.005358 1_555
Li2 O11 2.027315 1_555
Li2 O14 2.058956 1_555
Li3 O2 1.999779 1_555
Li3 O5 2.005330 1_555
Li3 O10 2.027281 1_555
Li3 O15 2.058722 1_554
Co0 O0 1.988077 1_565
Co0 O9 2.000341 1_555
Co0 O3 2.016083 1_565
Co0 O7 2.043484 1_655
Co0 O4 2.341771 1_565
Co1 O10 1.988097 1_555
Co1 O6 2.003567 1_555
Co1 O12 2.012540 1_654
Co1 O8 2.036911 1_554
Co1 O15 2.371224 1_554
Co2 O1 1.988179 1_544
Co2 O8 2.000363 1_554
Co2 O2 2.016212 1_545
Co2 O6 2.043555 1_455
Co2 O5 2.341537 1_545
Co3 O11 1.988227 1_555
Co3 O7 2.003614 1_555
Co3 O13 2.012802 1_455
Co3 O9 2.036961 1_555
Co3 O14 2.371302 1_555
O0 P0 1.545788 1_555
O1 P1 1.545703 1_555
O2 P0 1.544226 1_565
O3 P1 1.544201 1_545
O4 P1 1.548221 1_645
O5 P0 1.548146 1_465
O6 P0 1.588101 1_555
O7 P1 1.588204 1_555
O8 P2 1.586408 1_555
O9 P3 1.586488 1_555
O10 P3 1.546815 1_555
O11 P2 1.546479 1_555
O12 P2 1.544916 1_555
O13 P3 1.544791 1_555
O14 P3 1.547467 1_555
O15 P2 1.547870 1_555
