# generated using pymatgen
data_Mg4Si6H6O17
_symmetry_space_group_name_H-M   'P 1'
_cell_length_a   5.28365331
_cell_length_b   13.62339635
_cell_length_c   27.99561145
_cell_angle_alpha   90.00000000
_cell_angle_beta   90.00000000
_cell_angle_gamma   90.00000000
_symmetry_Int_Tables_number   1
_chemical_formula_structural   Mg4Si6H6O17
_chemical_formula_sum   'Mg16 Si24 H24 O68'
_cell_volume   2015.16059656
_cell_formula_units_Z   4
loop_
 _symmetry_equiv_pos_site_id
 _symmetry_equiv_pos_as_xyz
  1  'x, y, z'
loop_
 _atom_site_type_symbol
 _atom_site_label
 _atom_site_symmetry_multiplicity
 _atom_site_fract_x
 _atom_site_fract_y
 _atom_site_fract_z
 _atom_site_occupancy
  Mg  Mg0  1  0.25000000  -0.00000000  0.84739093  1
  Mg  Mg1  1  0.75000000  -0.00000000  0.15260907  1
  Mg  Mg2  1  0.25000000  0.50000000  0.65260907  1
  Mg  Mg3  1  0.75000000  0.50000000  0.34739093  1
  Mg  Mg4  1  0.25000000  -0.00000000  0.08551066  1
  Mg  Mg5  1  0.75000000  -0.00000000  0.91448934  1
  Mg  Mg6  1  0.25000000  0.50000000  0.41448934  1
  Mg  Mg7  1  0.75000000  0.50000000  0.58551066  1
  Mg  Mg8  1  0.25000000  -0.00000000  0.19311691  1
  Mg  Mg9  1  0.75000000  -0.00000000  0.80688309  1
  Mg  Mg10  1  0.25000000  0.50000000  0.30688309  1
  Mg  Mg11  1  0.75000000  0.50000000  0.69311691  1
  Mg  Mg12  1  0.25000000  -0.00000000  0.97760574  1
  Mg  Mg13  1  0.75000000  -0.00000000  0.02239426  1
  Mg  Mg14  1  0.25000000  0.50000000  0.52239426  1
  Mg  Mg15  1  0.75000000  0.50000000  0.47760574  1
  Si  Si0  1  0.56097643  0.20527792  0.19615426  1
  Si  Si1  1  0.43902357  0.79472208  0.80384574  1
  Si  Si2  1  0.93902357  0.79472208  0.19615426  1
  Si  Si3  1  0.93902357  0.70527792  0.30384574  1
  Si  Si4  1  0.06097643  0.20527792  0.80384574  1
  Si  Si5  1  0.06097643  0.29472208  0.69615426  1
  Si  Si6  1  0.56097643  0.29472208  0.30384574  1
  Si  Si7  1  0.43902357  0.70527792  0.69615426  1
  Si  Si8  1  0.06896544  0.20429185  0.13959039  1
  Si  Si9  1  0.93103456  0.79570815  0.86040961  1
  Si  Si10  1  0.43103456  0.79570815  0.13959039  1
  Si  Si11  1  0.43103456  0.70429185  0.36040961  1
  Si  Si12  1  0.56896544  0.20429185  0.86040961  1
  Si  Si13  1  0.56896544  0.29570815  0.63959039  1
  Si  Si14  1  0.06896544  0.29570815  0.36040961  1
  Si  Si15  1  0.93103456  0.70429185  0.63959039  1
  Si  Si16  1  0.07446942  0.20413848  0.02839800  1
  Si  Si17  1  0.92553058  0.79586152  0.97160200  1
  Si  Si18  1  0.42553058  0.79586152  0.02839800  1
  Si  Si19  1  0.42553058  0.70413848  0.47160200  1
  Si  Si20  1  0.57446942  0.20413848  0.97160200  1
  Si  Si21  1  0.57446942  0.29586152  0.52839800  1
  Si  Si22  1  0.07446942  0.29586152  0.47160200  1
  Si  Si23  1  0.92553058  0.70413848  0.52839800  1
  H  H0  1  0.25000000  -0.00000000  0.32865919  1
  H  H1  1  0.75000000  -0.00000000  0.67134081  1
  H  H2  1  0.25000000  0.50000000  0.17134081  1
  H  H3  1  0.75000000  0.50000000  0.82865919  1
  H  H4  1  0.99655071  0.08626790  0.24961661  1
  H  H5  1  0.00344929  0.91373210  0.75038339  1
  H  H6  1  0.50344929  0.91373210  0.24961661  1
  H  H7  1  0.50344929  0.58626790  0.25038339  1
  H  H8  1  0.49655071  0.08626790  0.75038339  1
  H  H9  1  0.49655071  0.41373210  0.74961661  1
  H  H10  1  0.99655071  0.41373210  0.25038339  1
  H  H11  1  0.00344929  0.58626790  0.74961661  1
  H  H12  1  0.25000000  -0.00000000  0.51583592  1
  H  H13  1  0.75000000  -0.00000000  0.48416408  1
  H  H14  1  0.25000000  0.50000000  0.98416408  1
  H  H15  1  0.75000000  0.50000000  0.01583592  1
  H  H16  1  0.07695978  0.58771842  0.08342279  1
  H  H17  1  0.92304022  0.41228158  0.91657721  1
  H  H18  1  0.42304022  0.41228158  0.08342279  1
  H  H19  1  0.42304022  0.08771842  0.41657721  1
  H  H20  1  0.57695978  0.58771842  0.91657721  1
  H  H21  1  0.57695978  0.91228158  0.58342279  1
  H  H22  1  0.07695978  0.91228158  0.41657721  1
  H  H23  1  0.92304022  0.08771842  0.58342279  1
  O  O0  1  0.65892724  0.04640371  0.08672883  1
  O  O1  1  0.34107276  0.95359629  0.91327117  1
  O  O2  1  0.84107276  0.95359629  0.08672883  1
  O  O3  1  0.84107276  0.54640371  0.41327117  1
  O  O4  1  0.15892724  0.04640371  0.91327117  1
  O  O5  1  0.15892724  0.45359629  0.58672883  1
  O  O6  1  0.65892724  0.45359629  0.41327117  1
  O  O7  1  0.34107276  0.54640371  0.58672883  1
  O  O8  1  0.08905048  0.08409987  0.14243385  1
  O  O9  1  0.91094952  0.91590013  0.85756615  1
  O  O10  1  0.41094952  0.91590013  0.14243385  1
  O  O11  1  0.41094952  0.58409987  0.35756615  1
  O  O12  1  0.58905048  0.08409987  0.85756615  1
  O  O13  1  0.58905048  0.41590013  0.64243385  1
  O  O14  1  0.08905048  0.41590013  0.35756615  1
  O  O15  1  0.91094952  0.58409987  0.64243385  1
  O  O16  1  0.32390569  0.24461710  0.99974527  1
  O  O17  1  0.67609431  0.75538290  0.00025473  1
  O  O18  1  0.17609431  0.75538290  0.99974527  1
  O  O19  1  0.17609431  0.74461710  0.50025473  1
  O  O20  1  0.82390569  0.24461710  0.00025473  1
  O  O21  1  0.82390569  0.25538290  0.49974527  1
  O  O22  1  0.32390569  0.25538290  0.50025473  1
  O  O23  1  0.67609431  0.74461710  0.49974527  1
  O  O24  1  0.31309175  0.24981764  0.16809751  1
  O  O25  1  0.68690825  0.75018236  0.83190249  1
  O  O26  1  0.18690825  0.75018236  0.16809751  1
  O  O27  1  0.18690825  0.74981764  0.33190249  1
  O  O28  1  0.81309175  0.24981764  0.83190249  1
  O  O29  1  0.81309175  0.25018236  0.66809751  1
  O  O30  1  0.31309175  0.25018236  0.33190249  1
  O  O31  1  0.68690825  0.74981764  0.66809751  1
  O  O32  1  0.07059019  0.24145141  0.08399372  1
  O  O33  1  0.92940981  0.75854859  0.91600628  1
  O  O34  1  0.42940981  0.75854859  0.08399372  1
  O  O35  1  0.42940981  0.74145141  0.41600628  1
  O  O36  1  0.57059019  0.24145141  0.91600628  1
  O  O37  1  0.57059019  0.25854859  0.58399372  1
  O  O38  1  0.07059019  0.25854859  0.41600628  1
  O  O39  1  0.92940981  0.74145141  0.58399372  1
  O  O40  1  0.09152288  0.08343394  0.02802821  1
  O  O41  1  0.90847712  0.91656606  0.97197179  1
  O  O42  1  0.40847712  0.91656606  0.02802821  1
  O  O43  1  0.40847712  0.58343394  0.47197179  1
  O  O44  1  0.59152288  0.08343394  0.97197179  1
  O  O45  1  0.59152288  0.41656606  0.52802821  1
  O  O46  1  0.09152288  0.41656606  0.47197179  1
  O  O47  1  0.90847712  0.58343394  0.52802821  1
  O  O48  1  0.55155311  0.08553586  0.19789166  1
  O  O49  1  0.44844689  0.91446414  0.80210834  1
  O  O50  1  0.94844689  0.91446414  0.19789166  1
  O  O51  1  0.94844689  0.58553586  0.30210834  1
  O  O52  1  0.05155311  0.08553586  0.80210834  1
  O  O53  1  0.05155311  0.41446414  0.69789166  1
  O  O54  1  0.55155311  0.41446414  0.30210834  1
  O  O55  1  0.44844689  0.58553586  0.69789166  1
  O  O56  1  0.56619380  0.25000000  0.25000000  1
  O  O57  1  0.43380620  0.75000000  0.75000000  1
  O  O58  1  0.93380620  0.75000000  0.25000000  1
  O  O59  1  0.06619380  0.25000000  0.75000000  1
  O  O60  1  0.31334700  0.25812270  0.66712775  1
  O  O61  1  0.68665300  0.74187730  0.33287225  1
  O  O62  1  0.18665300  0.74187730  0.66712775  1
  O  O63  1  0.18665300  0.75812270  0.83287225  1
  O  O64  1  0.81334700  0.25812270  0.33287225  1
  O  O65  1  0.81334700  0.24187730  0.16712775  1
  O  O66  1  0.31334700  0.24187730  0.83287225  1
  O  O67  1  0.68665300  0.75812270  0.16712775  1
loop_
_geom_bond_atom_site_label_1
_geom_bond_atom_site_label_2
_geom_bond_distance
_geom_bond_site_symmetry_2
Mg0 O1 2.008196 1_545
Mg0 O4 2.008196 1_555
Mg0 O49 2.016036 1_545
Mg0 O52 2.016036 1_555
Mg0 O9 2.145469 1_445
Mg0 O12 2.145469 1_555
Mg1 O2 2.008196 1_545
Mg1 O0 2.008196 1_555
Mg1 O48 2.016036 1_555
Mg1 O50 2.016036 1_545
Mg1 O10 2.145469 1_545
Mg1 O8 2.145469 1_655
Mg2 O5 2.008196 1_555
Mg2 O7 2.008196 1_555
Mg2 O53 2.016036 1_555
Mg2 O55 2.016036 1_555
Mg2 O15 2.145469 1_455
Mg2 O13 2.145469 1_555
Mg3 O6 2.008196 1_555
Mg3 O3 2.008196 1_555
Mg3 O51 2.016036 1_555
Mg3 O54 2.016036 1_555
Mg3 O11 2.145469 1_555
Mg3 O14 2.145469 1_655
Mg4 O10 2.139025 1_545
Mg4 O8 2.139025 1_555
Mg4 O40 2.140753 1_555
Mg4 O42 2.140753 1_545
Mg4 O2 2.251473 1_445
Mg4 O0 2.251473 1_555
Mg5 O9 2.139025 1_545
Mg5 O12 2.139025 1_555
Mg5 O44 2.140753 1_555
Mg5 O41 2.140753 1_545
Mg5 O4 2.251473 1_655
Mg5 O1 2.251473 1_545
Mg6 O11 2.139025 1_555
Mg6 O14 2.139025 1_555
Mg6 O46 2.140753 1_555
Mg6 O43 2.140753 1_555
Mg6 O6 2.251473 1_555
Mg6 O3 2.251473 1_455
Mg7 O15 2.139025 1_555
Mg7 O13 2.139025 1_555
Mg7 O45 2.140753 1_555
Mg7 O47 2.140753 1_555
Mg7 O5 2.251473 1_655
Mg7 O7 2.251473 1_555
Mg8 O50 1.978479 1_445
Mg8 O48 1.978479 1_555
Mg8 O10 2.012252 1_545
Mg8 O8 2.012252 1_555
Mg9 O52 1.978479 1_655
Mg9 O49 1.978479 1_545
Mg9 O9 2.012252 1_545
Mg9 O12 2.012252 1_555
Mg10 O51 1.978479 1_455
Mg10 O54 1.978479 1_555
Mg10 O11 2.012252 1_555
Mg10 O14 2.012252 1_555
Mg11 O55 1.978479 1_555
Mg11 O53 1.978479 1_655
Mg11 O15 2.012252 1_555
Mg11 O13 2.012252 1_555
Mg12 O1 1.968529 1_545
Mg12 O4 1.968529 1_555
Mg12 O40 1.996435 1_556
Mg12 O42 1.996435 1_546
Mg12 O44 2.138466 1_555
Mg12 O41 2.138466 1_445
Mg13 O2 1.968529 1_545
Mg13 O0 1.968529 1_555
Mg13 O44 1.996435 1_554
Mg13 O41 1.996435 1_544
Mg13 O42 2.138466 1_545
Mg13 O40 2.138466 1_655
Mg14 O5 1.968529 1_555
Mg14 O7 1.968529 1_555
Mg14 O46 1.996435 1_555
Mg14 O43 1.996435 1_555
Mg14 O45 2.138466 1_555
Mg14 O47 2.138466 1_455
Mg15 O6 1.968529 1_555
Mg15 O3 1.968529 1_555
Mg15 O45 1.996435 1_555
Mg15 O47 1.996435 1_555
Mg15 O43 2.138466 1_555
Mg15 O46 2.138466 1_655
H4 Mg8 2.382529 1_655
H5 Mg9 2.382529 1_465
H6 Mg8 2.382529 1_565
H7 Mg10 2.382529 1_555
H8 Mg9 2.382529 1_555
H9 Mg11 2.382529 1_555
H10 Mg10 2.382529 1_655
H11 Mg11 2.382529 1_455
O0 O2 1.588958 1_545
O1 O4 1.588958 1_565
O3 O6 1.588958 1_555
O5 O7 1.588958 1_555
O8 Si8 1.642788 1_555
O9 Si9 1.642788 1_555
O10 Si10 1.642788 1_555
O11 Si11 1.642788 1_555
O12 Si12 1.642788 1_555
O13 Si13 1.642788 1_555
O14 Si14 1.642788 1_555
O15 Si15 1.642788 1_555
O16 Si20 1.636326 1_555
O16 Si16 1.638445 1_556
O17 Si18 1.636326 1_555
O17 Si17 1.638445 1_554
O18 Si17 1.636326 1_455
O18 Si18 1.638445 1_556
O19 Si23 1.636326 1_455
O19 Si19 1.638445 1_555
O20 Si16 1.636326 1_655
O20 Si20 1.638445 1_554
O21 Si22 1.636326 1_655
O21 Si21 1.638445 1_555
O22 Si21 1.636326 1_555
O22 Si22 1.638445 1_555
O23 Si19 1.636326 1_555
O23 Si23 1.638445 1_555
O24 Si8 1.638712 1_555
O24 Si0 1.643336 1_555
O25 Si9 1.638712 1_555
O25 Si1 1.643336 1_555
O26 Si10 1.638712 1_555
O26 Si2 1.643336 1_455
O27 Si11 1.638712 1_555
O27 Si3 1.643336 1_455
O28 Si12 1.638712 1_555
O28 Si4 1.643336 1_655
O29 Si13 1.638712 1_555
O29 Si5 1.643336 1_655
O30 Si14 1.638712 1_555
O30 Si6 1.643336 1_555
O31 Si15 1.638712 1_555
O31 Si7 1.643336 1_555
O32 Si8 1.636743 1_555
O32 Si16 1.637471 1_555
O33 Si9 1.636743 1_555
O33 Si17 1.637471 1_555
O34 Si10 1.636743 1_555
O34 Si18 1.637471 1_555
O35 Si11 1.636743 1_555
O35 Si19 1.637471 1_555
O36 Si12 1.636743 1_555
O36 Si20 1.637471 1_555
O37 Si13 1.636743 1_555
O37 Si21 1.637471 1_555
O38 Si14 1.636743 1_555
O38 Si22 1.637471 1_555
O39 Si15 1.636743 1_555
O39 Si23 1.637471 1_555
O40 Si16 1.646905 1_555
O41 Si17 1.646905 1_555
O42 Si18 1.646905 1_555
O43 Si19 1.646905 1_555
O44 Si20 1.646905 1_555
O45 Si21 1.646905 1_555
O46 Si22 1.646905 1_555
O47 Si23 1.646905 1_555
O48 Si0 1.632778 1_555
O49 Si1 1.632778 1_555
O50 Si2 1.632778 1_555
O51 Si3 1.632778 1_555
O52 Si4 1.632778 1_555
O53 Si5 1.632778 1_555
O54 Si6 1.632778 1_555
O55 Si7 1.632778 1_555
O56 Si6 1.626147 1_555
O56 Si0 1.626147 1_555
O57 Si7 1.626147 1_555
O57 Si1 1.626147 1_555
O58 Si3 1.626147 1_555
O58 Si2 1.626147 1_555
O59 Si5 1.626147 1_555
O59 Si4 1.626147 1_555
O60 Si13 1.637263 1_555
O60 Si5 1.639211 1_555
O61 Si11 1.637263 1_555
O61 Si3 1.639211 1_555
O62 Si15 1.637263 1_455
O62 Si7 1.639211 1_555
O63 Si9 1.637263 1_455
O63 Si1 1.639211 1_555
O64 Si14 1.637263 1_655
O64 Si6 1.639211 1_555
O65 Si8 1.637263 1_655
O65 Si0 1.639211 1_555
O66 Si12 1.637263 1_555
O66 Si4 1.639211 1_555
O67 Si10 1.637263 1_555
O67 Si2 1.639211 1_555
