# generated using pymatgen
data_Dy4(SiS4)3
_symmetry_space_group_name_H-M   'P 1'
_cell_length_a   11.10975100
_cell_length_b   9.93735300
_cell_length_c   17.17991940
_cell_angle_alpha   69.48868276
_cell_angle_beta   90.00000000
_cell_angle_gamma   90.00000000
_symmetry_Int_Tables_number   1
_chemical_formula_structural   Dy4(SiS4)3
_chemical_formula_sum   'Dy16 Si12 S48'
_cell_volume   1776.44476219
_cell_formula_units_Z   4
loop_
 _symmetry_equiv_pos_site_id
 _symmetry_equiv_pos_as_xyz
  1  'x, y, z'
loop_
 _atom_site_type_symbol
 _atom_site_label
 _atom_site_symmetry_multiplicity
 _atom_site_fract_x
 _atom_site_fract_y
 _atom_site_fract_z
 _atom_site_occupancy
  Dy  Dy0  1  0.73705900  0.97062700  0.20920100  1
  Dy  Dy1  1  0.23705900  0.02937300  0.29079900  1
  Dy  Dy2  1  0.26294100  0.02937300  0.79079900  1
  Dy  Dy3  1  0.76294100  0.97062700  0.70920100  1
  Dy  Dy4  1  0.12778200  0.60823500  0.36489300  1
  Dy  Dy5  1  0.62778200  0.39176500  0.13510700  1
  Dy  Dy6  1  0.87221800  0.39176500  0.63510700  1
  Dy  Dy7  1  0.37221800  0.60823500  0.86489300  1
  Dy  Dy8  1  0.85051600  0.18596100  0.44081900  1
  Dy  Dy9  1  0.35051600  0.81403900  0.05918100  1
  Dy  Dy10  1  0.14948400  0.81403900  0.55918100  1
  Dy  Dy11  1  0.64948400  0.18596100  0.94081900  1
  Dy  Dy12  1  0.51858000  0.51740500  0.37442600  1
  Dy  Dy13  1  0.01858000  0.48259500  0.12557400  1
  Dy  Dy14  1  0.48142000  0.48259500  0.62557400  1
  Dy  Dy15  1  0.98142000  0.51740500  0.87442600  1
  Si  Si0  1  0.78591100  0.52572500  0.26693300  1
  Si  Si1  1  0.28591100  0.47427500  0.23306700  1
  Si  Si2  1  0.21408900  0.47427500  0.73306700  1
  Si  Si3  1  0.71408900  0.52572500  0.76693300  1
  Si  Si4  1  0.62030500  0.24420500  0.55913100  1
  Si  Si5  1  0.12030500  0.75579500  0.94086900  1
  Si  Si6  1  0.37969500  0.75579500  0.44086900  1
  Si  Si7  1  0.87969500  0.24420500  0.05913100  1
  Si  Si8  1  0.95133700  0.90059600  0.38078800  1
  Si  Si9  1  0.45133700  0.09940400  0.11921200  1
  Si  Si10  1  0.04866300  0.09940400  0.61921200  1
  Si  Si11  1  0.54866300  0.90059600  0.88078800  1
  S  S0  1  0.95832100  0.43576400  0.31386200  1
  S  S1  1  0.45832100  0.56423600  0.18613800  1
  S  S2  1  0.04167900  0.56423600  0.68613800  1
  S  S3  1  0.54167900  0.43576400  0.81386200  1
  S  S4  1  0.44524900  0.31732600  0.52573900  1
  S  S5  1  0.94524900  0.68267400  0.97426100  1
  S  S6  1  0.55475100  0.68267400  0.47426100  1
  S  S7  1  0.05475100  0.31732600  0.02573900  1
  S  S8  1  0.77448100  0.97971700  0.37094800  1
  S  S9  1  0.27448100  0.02028300  0.12905200  1
  S  S10  1  0.22551900  0.02028300  0.62905200  1
  S  S11  1  0.72551900  0.97971700  0.87094800  1
  S  S12  1  0.02076500  0.30540900  0.52695400  1
  S  S13  1  0.52076500  0.69459100  0.97304600  1
  S  S14  1  0.97923500  0.69459100  0.47304600  1
  S  S15  1  0.47923500  0.30540900  0.02695400  1
  S  S16  1  0.02778500  0.88309500  0.26973300  1
  S  S17  1  0.52778500  0.11690500  0.23026700  1
  S  S18  1  0.97221500  0.11690500  0.73026700  1
  S  S19  1  0.47221500  0.88309500  0.76973300  1
  S  S20  1  0.06503000  0.05502500  0.40705200  1
  S  S21  1  0.56503000  0.94497500  0.09294800  1
  S  S22  1  0.93497000  0.94497500  0.59294800  1
  S  S23  1  0.43497000  0.05502500  0.90705200  1
  S  S24  1  0.65971100  0.04332200  0.55143500  1
  S  S25  1  0.15971100  0.95667800  0.94856500  1
  S  S26  1  0.34028900  0.95667800  0.44856500  1
  S  S27  1  0.84028900  0.04332200  0.05143500  1
  S  S28  1  0.74206400  0.40500000  0.48621400  1
  S  S29  1  0.24206400  0.59500000  0.01378600  1
  S  S30  1  0.25793600  0.59500000  0.51378600  1
  S  S31  1  0.75793600  0.40500000  0.98621400  1
  S  S32  1  0.66622700  0.34347600  0.31367000  1
  S  S33  1  0.16622700  0.65652400  0.18633000  1
  S  S34  1  0.33377300  0.65652400  0.68633000  1
  S  S35  1  0.83377300  0.34347600  0.81367000  1
  S  S36  1  0.28973200  0.39684100  0.36422000  1
  S  S37  1  0.78973200  0.60315900  0.13578000  1
  S  S38  1  0.71026800  0.60315900  0.63578000  1
  S  S39  1  0.21026800  0.39684100  0.86422000  1
  S  S40  1  0.34780000  0.76557900  0.31586500  1
  S  S41  1  0.84780000  0.23442100  0.18413500  1
  S  S42  1  0.65220000  0.23442100  0.68413500  1
  S  S43  1  0.15220000  0.76557900  0.81586500  1
  S  S44  1  0.72064300  0.68981900  0.30795900  1
  S  S45  1  0.22064300  0.31018100  0.19204100  1
  S  S46  1  0.27935700  0.31018100  0.69204100  1
  S  S47  1  0.77935700  0.68981900  0.80795900  1
loop_
_geom_bond_atom_site_label_1
_geom_bond_atom_site_label_2
_geom_bond_distance
_geom_bond_site_symmetry_2
Dy0 S44 2.716774 1_555
Dy0 S41 2.789232 1_565
Dy0 S27 2.794874 1_565
Dy0 S17 2.831641 1_565
Dy0 S21 2.839599 1_555
Dy0 S8 2.842295 1_555
Dy0 S16 3.411214 1_655
Dy1 S45 2.716774 1_555
Dy1 S40 2.789232 1_545
Dy1 S26 2.794874 1_545
Dy1 S16 2.831641 1_545
Dy1 S20 2.839599 1_555
Dy1 S9 2.842295 1_555
Dy1 S17 3.411214 1_555
Dy2 S46 2.716774 1_555
Dy2 S43 2.789232 1_545
Dy2 S25 2.794874 1_545
Dy2 S19 2.831641 1_545
Dy2 S23 2.839599 1_555
Dy2 S10 2.842295 1_555
Dy2 S18 3.411214 1_455
Dy3 S47 2.716774 1_555
Dy3 S42 2.789232 1_565
Dy3 S24 2.794874 1_565
Dy3 S18 2.831641 1_565
Dy3 S22 2.839599 1_555
Dy3 S11 2.842295 1_555
Dy3 S19 3.411214 1_555
Dy4 S36 2.768987 1_555
Dy4 S14 2.833683 1_455
Dy4 S40 2.864637 1_555
Dy4 S16 2.870204 1_555
Dy4 S0 2.881584 1_455
Dy4 S30 2.900965 1_555
Dy4 S33 2.965106 1_555
Dy4 S12 3.514204 1_555
Dy5 S37 2.768987 1_555
Dy5 S15 2.833683 1_555
Dy5 S41 2.864637 1_555
Dy5 S17 2.870204 1_555
Dy5 S1 2.881584 1_555
Dy5 S31 2.900965 1_554
Dy5 S32 2.965106 1_555
Dy5 S13 3.514204 1_554
Dy6 S38 2.768987 1_555
Dy6 S12 2.833683 1_655
Dy6 S42 2.864637 1_555
Dy6 S18 2.870204 1_555
Dy6 S2 2.881584 1_655
Dy6 S28 2.900965 1_555
Dy6 S35 2.965106 1_555
Dy6 S14 3.514204 1_555
Dy7 S39 2.768987 1_555
Dy7 S13 2.833683 1_555
Dy7 S43 2.864637 1_555
Dy7 S19 2.870204 1_555
Dy7 S3 2.881584 1_555
Dy7 S29 2.900965 1_556
Dy7 S34 2.965106 1_555
Dy7 S15 3.514204 1_556
Dy8 S28 2.826205 1_555
Dy8 S8 2.842372 1_545
Dy8 S24 2.868176 1_555
Dy8 S20 2.870216 1_655
Dy8 S12 2.899511 1_655
Dy8 S0 2.925683 1_555
Dy8 S32 3.002913 1_555
Dy8 S22 3.009954 1_545
Dy9 S29 2.826205 1_555
Dy9 S9 2.842372 1_565
Dy9 S25 2.868176 1_554
Dy9 S21 2.870216 1_555
Dy9 S13 2.899511 1_554
Dy9 S1 2.925683 1_555
Dy9 S33 3.002913 1_555
Dy9 S23 3.009954 1_564
Dy10 S30 2.826205 1_555
Dy10 S10 2.842372 1_565
Dy10 S26 2.868176 1_555
Dy10 S22 2.870216 1_455
Dy10 S14 2.899511 1_455
Dy10 S2 2.925683 1_555
Dy10 S34 3.002913 1_555
Dy10 S20 3.009954 1_565
Dy11 S31 2.826205 1_555
Dy11 S11 2.842372 1_545
Dy11 S27 2.868176 1_556
Dy11 S23 2.870216 1_555
Dy11 S15 2.899511 1_556
Dy11 S3 2.925683 1_555
Dy11 S35 3.002913 1_555
Dy11 S21 3.009954 1_546
Dy12 S4 2.784325 1_555
Dy12 S6 2.788285 1_555
Dy12 S44 2.812089 1_555
Dy12 S32 2.834034 1_555
Dy12 S36 2.842076 1_555
Dy12 S40 2.992551 1_555
Dy12 S28 3.097947 1_555
Dy12 S1 3.173887 1_555
Dy13 S5 2.784325 1_454
Dy13 S7 2.788285 1_555
Dy13 S45 2.812089 1_555
Dy13 S33 2.834034 1_555
Dy13 S37 2.842076 1_455
Dy13 S41 2.992551 1_455
Dy13 S29 3.097947 1_555
Dy13 S0 3.173887 1_455
Dy14 S6 2.784325 1_555
Dy14 S4 2.788285 1_555
Dy14 S46 2.812089 1_555
Dy14 S34 2.834034 1_555
Dy14 S38 2.842076 1_555
Dy14 S42 2.992551 1_555
Dy14 S30 3.097947 1_555
Dy14 S3 3.173887 1_555
Dy15 S7 2.784325 1_656
Dy15 S5 2.788285 1_555
Dy15 S47 2.812089 1_555
Dy15 S35 2.834034 1_555
Dy15 S39 2.842076 1_655
Dy15 S43 2.992551 1_655
Dy15 S31 3.097947 1_555
Dy15 S2 3.173887 1_655
S0 Si0 2.147788 1_555
S1 Si1 2.147788 1_555
S2 Si2 2.147788 1_555
S3 Si3 2.147788 1_555
S4 Si4 2.085025 1_555
S5 Si5 2.085025 1_655
S6 Si6 2.085025 1_555
S7 Si7 2.085025 1_455
S8 Si8 2.100992 1_555
S9 Si9 2.100992 1_555
S10 Si10 2.100992 1_555
S11 Si11 2.100992 1_555
S12 Si10 2.127254 1_555
S13 Si11 2.127254 1_555
S14 Si8 2.127254 1_555
S15 Si9 2.127254 1_555
S16 Si8 2.150409 1_455
S17 Si9 2.150409 1_555
S18 Si10 2.150409 1_655
S19 Si11 2.150409 1_555
S20 Si8 2.153906 1_445
S21 Si9 2.153906 1_565
S22 Si10 2.153906 1_665
S23 Si11 2.153906 1_545
S24 Si4 2.092630 1_555
S25 Si5 2.092630 1_555
S26 Si6 2.092630 1_555
S27 Si7 2.092630 1_555
S28 Si4 2.132973 1_555
S29 Si5 2.132973 1_554
S30 Si6 2.132973 1_555
S31 Si7 2.132973 1_556
S32 Si0 2.161856 1_555
S33 Si1 2.161856 1_555
S34 Si2 2.161856 1_555
S35 Si3 2.161856 1_555
S36 Si1 2.110874 1_555
S37 Si0 2.110874 1_555
S38 Si3 2.110874 1_555
S39 Si2 2.110874 1_555
S40 Si6 2.144924 1_555
S41 Si7 2.144924 1_555
S42 Si4 2.144924 1_555
S43 Si5 2.144924 1_555
S44 Si0 2.118265 1_555
S45 Si1 2.118265 1_555
S46 Si2 2.118265 1_555
S47 Si3 2.118265 1_555
