# generated using pymatgen
data_Sm2Te3
_symmetry_space_group_name_H-M   'P 1'
_cell_length_a   4.37848266
_cell_length_b   12.00026808
_cell_length_c   12.21011587
_cell_angle_alpha   89.99992083
_cell_angle_beta   89.99999399
_cell_angle_gamma   89.99999808
_symmetry_Int_Tables_number   1
_chemical_formula_structural   Sm2Te3
_chemical_formula_sum   'Sm8 Te12'
_cell_volume   641.55569939
_cell_formula_units_Z   4
loop_
 _symmetry_equiv_pos_site_id
 _symmetry_equiv_pos_as_xyz
  1  'x, y, z'
loop_
 _atom_site_type_symbol
 _atom_site_label
 _atom_site_symmetry_multiplicity
 _atom_site_fract_x
 _atom_site_fract_y
 _atom_site_fract_z
 _atom_site_occupancy
  Sm  Sm0  1  0.24999986  0.18787640  0.48349540  1
  Sm  Sm1  1  0.24999989  0.31212990  0.98349289  1
  Sm  Sm2  1  0.74999989  0.81211969  0.51650583  1
  Sm  Sm3  1  0.74999987  0.68787361  0.01649488  1
  Sm  Sm4  1  0.75000012  0.50169917  0.69583541  1
  Sm  Sm5  1  0.75000004  0.99828653  0.19583647  1
  Sm  Sm6  1  0.25000009  0.49830833  0.30416726  1
  Sm  Sm7  1  0.24999986  0.00170880  0.80417097  1
  Te  Te0  1  0.24999997  0.62412102  0.54294129  1
  Te  Te1  1  0.24999989  0.87588625  0.04294570  1
  Te  Te2  1  0.74999992  0.37592458  0.45706317  1
  Te  Te3  1  0.75000027  0.12406921  0.95705884  1
  Te  Te4  1  0.74999985  0.05623805  0.61807961  1
  Te  Te5  1  0.74999968  0.44377164  0.11807534  1
  Te  Te6  1  0.25000033  0.94376544  0.38194732  1
  Te  Te7  1  0.25000010  0.55623292  0.88192530  1
  Te  Te8  1  0.25000017  0.30428996  0.72466140  1
  Te  Te9  1  0.24999967  0.19570832  0.22467199  1
  Te  Te10  1  0.75000038  0.69571814  0.27530975  1
  Te  Te11  1  0.75000016  0.80427002  0.77532320  1
loop_
_geom_bond_atom_site_label_1
_geom_bond_atom_site_label_2
_geom_bond_distance
_geom_bond_site_symmetry_2
Sm0 Te4 3.160476 1_455
Sm0 Te4 3.160476 1_555
Sm0 Te2 3.160587 1_455
Sm0 Te2 3.160587 1_555
Sm0 Te9 3.161661 1_555
Sm0 Te6 3.181000 1_545
Sm0 Te8 3.259241 1_555
Sm1 Te5 3.160487 1_556
Sm1 Te5 3.160488 1_456
Sm1 Te3 3.160696 1_455
Sm1 Te3 3.160698 1_555
Sm1 Te8 3.161763 1_555
Sm1 Te7 3.181002 1_555
Sm1 Te9 3.259424 1_556
Sm2 Te0 3.160167 1_555
Sm2 Te0 3.160167 1_655
Sm2 Te6 3.160356 1_555
Sm2 Te6 3.160358 1_655
Sm2 Te11 3.161594 1_555
Sm2 Te4 3.181204 1_565
Sm2 Te10 3.259511 1_555
Sm3 Te1 3.160306 1_555
Sm3 Te1 3.160306 1_655
Sm3 Te7 3.160399 1_554
Sm3 Te7 3.160400 1_654
Sm3 Te10 3.161561 1_555
Sm3 Te5 3.181052 1_555
Sm3 Te11 3.259212 1_554
Sm4 Te7 3.222397 1_555
Sm4 Te7 3.222397 1_655
Sm4 Te0 3.230504 1_655
Sm4 Te0 3.230505 1_555
Sm4 Te8 3.244787 1_555
Sm4 Te8 3.244787 1_655
Sm4 Te2 3.282965 1_555
Sm4 Te11 3.758410 1_555
Sm5 Te6 3.222545 1_555
Sm5 Te6 3.222547 1_655
Sm5 Te1 3.230365 1_655
Sm5 Te1 3.230366 1_555
Sm5 Te9 3.244910 1_665
Sm5 Te9 3.244912 1_565
Sm5 Te3 3.283064 1_564
Sm5 Te10 3.758334 1_555
Sm6 Te5 3.222421 1_555
Sm6 Te5 3.222423 1_455
Sm6 Te2 3.230309 1_555
Sm6 Te2 3.230309 1_455
Sm6 Te10 3.244834 1_455
Sm6 Te10 3.244835 1_555
Sm6 Te0 3.283194 1_555
Sm6 Te9 3.758772 1_555
Sm7 Te4 3.222398 1_555
Sm7 Te4 3.222398 1_455
Sm7 Te3 3.230126 1_455
Sm7 Te3 3.230129 1_555
Sm7 Te11 3.245075 1_445
Sm7 Te11 3.245077 1_545
Sm7 Te1 3.283253 1_546
Sm7 Te8 3.758596 1_555
