# generated using pymatgen
data_GePb7N6
_symmetry_space_group_name_H-M   'P 1'
_cell_length_a   12.76112400
_cell_length_b   7.32386400
_cell_length_c   12.78775900
_cell_angle_alpha   90.00000000
_cell_angle_beta   90.00000000
_cell_angle_gamma   90.00000000
_symmetry_Int_Tables_number   1
_chemical_formula_structural   GePb7N6
_chemical_formula_sum   'Ge4 Pb28 N24'
_cell_volume   1195.15337641
_cell_formula_units_Z   4
loop_
 _symmetry_equiv_pos_site_id
 _symmetry_equiv_pos_as_xyz
  1  'x, y, z'
loop_
 _atom_site_type_symbol
 _atom_site_label
 _atom_site_symmetry_multiplicity
 _atom_site_fract_x
 _atom_site_fract_y
 _atom_site_fract_z
 _atom_site_occupancy
  Ge  Ge0  1  0.00000000  0.84623600  0.75000000  1
  Ge  Ge1  1  0.50000000  0.65376400  0.25000000  1
  Ge  Ge2  1  0.00000000  0.15376400  0.25000000  1
  Ge  Ge3  1  0.50000000  0.34623600  0.75000000  1
  Pb  Pb0  1  0.00476200  0.76312800  0.02160800  1
  Pb  Pb1  1  0.49523800  0.73687200  0.52160800  1
  Pb  Pb2  1  0.50476200  0.73687200  0.97839200  1
  Pb  Pb3  1  0.99523800  0.76312800  0.47839200  1
  Pb  Pb4  1  0.99523800  0.23687200  0.97839200  1
  Pb  Pb5  1  0.50476200  0.26312800  0.47839200  1
  Pb  Pb6  1  0.49523800  0.26312800  0.02160800  1
  Pb  Pb7  1  0.00476200  0.23687200  0.52160800  1
  Pb  Pb8  1  0.21551500  0.81863200  0.62823000  1
  Pb  Pb9  1  0.28448500  0.68136800  0.12823000  1
  Pb  Pb10  1  0.71551500  0.68136800  0.37177000  1
  Pb  Pb11  1  0.78448500  0.81863200  0.87177000  1
  Pb  Pb12  1  0.78448500  0.18136800  0.37177000  1
  Pb  Pb13  1  0.71551500  0.31863200  0.87177000  1
  Pb  Pb14  1  0.28448500  0.31863200  0.62823000  1
  Pb  Pb15  1  0.21551500  0.18136800  0.12823000  1
  Pb  Pb16  1  0.25773000  0.53910800  0.86401100  1
  Pb  Pb17  1  0.24226900  0.96089200  0.36401100  1
  Pb  Pb18  1  0.75773000  0.96089200  0.13598900  1
  Pb  Pb19  1  0.74227000  0.53910800  0.63598900  1
  Pb  Pb20  1  0.74227000  0.46089200  0.13598900  1
  Pb  Pb21  1  0.75773000  0.03910800  0.63598900  1
  Pb  Pb22  1  0.24226900  0.03910800  0.86401100  1
  Pb  Pb23  1  0.25773000  0.46089200  0.36401100  1
  Pb  Pb24  1  0.00000000  0.43215300  0.75000000  1
  Pb  Pb25  1  0.50000000  0.06784700  0.25000000  1
  Pb  Pb26  1  0.00000000  0.56784700  0.25000000  1
  Pb  Pb27  1  0.50000000  0.93215300  0.75000000  1
  N  N0  1  0.11259800  0.67209200  0.76382700  1
  N  N1  1  0.38740200  0.82790800  0.26382700  1
  N  N2  1  0.61259800  0.82790800  0.23617300  1
  N  N3  1  0.88740200  0.67209200  0.73617300  1
  N  N4  1  0.88740200  0.32790800  0.23617300  1
  N  N5  1  0.61259800  0.17209200  0.73617300  1
  N  N6  1  0.38740200  0.17209200  0.76382700  1
  N  N7  1  0.11259800  0.32790800  0.26382700  1
  N  N8  1  0.17636400  0.70759800  0.46427100  1
  N  N9  1  0.32363600  0.79240200  0.96427100  1
  N  N10  1  0.67636400  0.79240200  0.53572900  1
  N  N11  1  0.82363600  0.70759800  0.03572900  1
  N  N12  1  0.82363600  0.29240200  0.53572900  1
  N  N13  1  0.67636400  0.20759800  0.03572900  1
  N  N14  1  0.32363600  0.20759800  0.46427100  1
  N  N15  1  0.17636400  0.29240200  0.96427100  1
  N  N16  1  0.46308600  0.45845300  0.62200000  1
  N  N17  1  0.03691400  0.04154700  0.12200000  1
  N  N18  1  0.96308600  0.04154700  0.37800000  1
  N  N19  1  0.53691400  0.45845300  0.87800000  1
  N  N20  1  0.53691400  0.54154700  0.37800000  1
  N  N21  1  0.96308600  0.95845300  0.87800000  1
  N  N22  1  0.03691400  0.95845300  0.62200000  1
  N  N23  1  0.46308600  0.54154700  0.12200000  1
loop_
_geom_bond_atom_site_label_1
_geom_bond_atom_site_label_2
_geom_bond_distance
_geom_bond_site_symmetry_2
Ge0 N21 1.891185 1_455
Ge0 N22 1.891185 1_555
Ge0 N3 1.929389 1_455
Ge0 N0 1.929389 1_555
Ge1 N23 1.891185 1_555
Ge1 N20 1.891185 1_555
Ge1 N1 1.929389 1_555
Ge1 N2 1.929389 1_555
Ge2 N17 1.891185 1_555
Ge2 N18 1.891185 1_455
Ge2 N4 1.929389 1_455
Ge2 N7 1.929389 1_555
Ge3 N19 1.891185 1_555
Ge3 N16 1.891185 1_555
Ge3 N6 1.929389 1_555
Ge3 N5 1.929389 1_555
N0 Pb24 2.276821 1_555
N0 Pb8 2.425570 1_555
N0 Pb16 2.453561 1_555
N1 Pb25 2.276821 1_565
N1 Pb9 2.425570 1_555
N1 Pb17 2.453571 1_555
N2 Pb25 2.276821 1_565
N2 Pb10 2.425570 1_555
N2 Pb18 2.453561 1_555
N3 Pb24 2.276821 1_655
N3 Pb11 2.425570 1_555
N3 Pb19 2.453561 1_555
N4 Pb26 2.276821 1_655
N4 Pb12 2.425570 1_555
N4 Pb20 2.453561 1_555
N5 Pb27 2.276821 1_545
N5 Pb13 2.425570 1_555
N5 Pb21 2.453561 1_555
N6 Pb27 2.276821 1_545
N6 Pb14 2.425570 1_555
N6 Pb22 2.453571 1_555
N7 Pb26 2.276821 1_555
N7 Pb15 2.425570 1_555
N7 Pb23 2.453561 1_555
N8 Pb8 2.303675 1_555
N8 Pb3 2.353815 1_455
N8 Pb17 2.406753 1_555
N8 Pb23 2.446747 1_555
N9 Pb9 2.303675 1_556
N9 Pb2 2.353815 1_555
N9 Pb16 2.406758 1_555
N9 Pb22 2.446752 1_565
N10 Pb10 2.303675 1_555
N10 Pb1 2.353815 1_555
N10 Pb19 2.406758 1_555
N10 Pb21 2.446747 1_565
N11 Pb11 2.303675 1_554
N11 Pb0 2.353815 1_655
N11 Pb18 2.406758 1_555
N11 Pb20 2.446747 1_555
N12 Pb12 2.303675 1_555
N12 Pb7 2.353815 1_655
N12 Pb21 2.406758 1_555
N12 Pb19 2.446747 1_555
N13 Pb13 2.303675 1_554
N13 Pb6 2.353815 1_555
N13 Pb20 2.406758 1_555
N13 Pb18 2.446747 1_545
N14 Pb14 2.303675 1_555
N14 Pb5 2.353815 1_555
N14 Pb23 2.406758 1_555
N14 Pb17 2.446752 1_545
N15 Pb15 2.303675 1_556
N15 Pb4 2.353815 1_455
N15 Pb22 2.406753 1_555
N15 Pb16 2.446747 1_555
N16 Pb5 2.387829 1_555
N16 Pb1 2.444258 1_555
N16 Pb14 2.499901 1_555
N17 Pb4 2.387829 1_454
N17 Pb0 2.444258 1_545
N17 Pb15 2.499901 1_555
N18 Pb7 2.387829 1_655
N18 Pb3 2.444258 1_545
N18 Pb12 2.499901 1_555
N19 Pb6 2.387829 1_556
N19 Pb2 2.444258 1_555
N19 Pb13 2.499901 1_555
N20 Pb1 2.387829 1_555
N20 Pb5 2.444258 1_555
N20 Pb10 2.499901 1_555
N21 Pb0 2.387829 1_656
N21 Pb4 2.444258 1_565
N21 Pb11 2.499901 1_555
N22 Pb3 2.387829 1_455
N22 Pb7 2.444258 1_565
N22 Pb8 2.499901 1_555
N23 Pb2 2.387829 1_554
N23 Pb6 2.444258 1_555
N23 Pb9 2.499901 1_555
