# generated using pymatgen
data_Na13Mn5(SiO3)12
_symmetry_space_group_name_H-M   'P 1'
_cell_length_a   10.39847300
_cell_length_b   7.49424400
_cell_length_c   10.41981602
_cell_angle_alpha   89.32456406
_cell_angle_beta   90.00000000
_cell_angle_gamma   90.00000000
_symmetry_Int_Tables_number   1
_chemical_formula_structural   Na13Mn5(SiO3)12
_chemical_formula_sum   'Na13 Mn5 Si12 O36'
_cell_volume   811.94623107
_cell_formula_units_Z   1
loop_
 _symmetry_equiv_pos_site_id
 _symmetry_equiv_pos_as_xyz
  1  'x, y, z'
loop_
 _atom_site_type_symbol
 _atom_site_label
 _atom_site_symmetry_multiplicity
 _atom_site_fract_x
 _atom_site_fract_y
 _atom_site_fract_z
 _atom_site_occupancy
  Na  Na0  1  0.74330400  0.76682600  0.48935200  1
  Na  Na1  1  0.25669600  0.76682600  0.48935200  1
  Na  Na2  1  0.75590300  0.23060200  0.99030700  1
  Na  Na3  1  0.24409700  0.23060200  0.99030700  1
  Na  Na4  1  0.76804500  0.26740500  0.52216400  1
  Na  Na5  1  0.23195500  0.26740500  0.52216400  1
  Na  Na6  1  0.73330000  0.72243400  0.02116500  1
  Na  Na7  1  0.26670000  0.72243400  0.02116500  1
  Na  Na8  1  0.00000000  0.75752600  0.24978300  1
  Na  Na9  1  0.50000000  0.25651500  0.76203900  1
  Na  Na10  1  0.50000000  0.25484700  0.24576700  1
  Na  Na11  1  0.00000000  0.76182900  0.75117100  1
  Na  Na12  1  0.50000000  0.48964200  0.01412100  1
  Mn  Mn0  1  0.50000000  0.74873100  0.25881800  1
  Mn  Mn1  1  0.00000000  0.25194800  0.75760500  1
  Mn  Mn2  1  0.00000000  0.51251700  0.52120000  1
  Mn  Mn3  1  0.50000000  0.02556300  0.49443000  1
  Mn  Mn4  1  0.00000000  0.98645700  0.99125600  1
  Si  Si0  1  0.50000000  0.49529600  0.52784500  1
  Si  Si1  1  0.00000000  0.50406200  0.03699800  1
  Si  Si2  1  0.00000000  0.00124300  0.47237600  1
  Si  Si3  1  0.50000000  0.98842400  0.98143400  1
  Si  Si4  1  0.76998600  0.03498800  0.25794100  1
  Si  Si5  1  0.23001400  0.03498800  0.25794100  1
  Si  Si6  1  0.72605900  0.96317900  0.76164100  1
  Si  Si7  1  0.27394100  0.96317900  0.76164100  1
  Si  Si8  1  0.77371700  0.46970500  0.25354200  1
  Si  Si9  1  0.22628300  0.46970500  0.25354200  1
  Si  Si10  1  0.73276200  0.53402100  0.74042700  1
  Si  Si11  1  0.26723800  0.53402100  0.74042700  1
  O  O0  1  0.50000000  0.30636300  0.45559300  1
  O  O1  1  0.00000000  0.69363000  0.95971100  1
  O  O2  1  0.50000000  0.81243000  0.07614200  1
  O  O3  1  0.00000000  0.18510700  0.55053700  1
  O  O4  1  0.87129200  0.00022000  0.37789300  1
  O  O5  1  0.12870800  0.00022000  0.37789300  1
  O  O6  1  0.62658600  0.96841600  0.88619000  1
  O  O7  1  0.37341400  0.96841600  0.88619000  1
  O  O8  1  0.50000000  0.18398700  0.03962500  1
  O  O9  1  0.00000000  0.80645400  0.54020600  1
  O  O10  1  0.87349200  0.51818300  0.13447600  1
  O  O11  1  0.12650800  0.51818300  0.13447600  1
  O  O12  1  0.62599000  0.49513300  0.62339200  1
  O  O13  1  0.37401000  0.49513300  0.62339200  1
  O  O14  1  0.74562300  0.25216200  0.24448000  1
  O  O15  1  0.25437700  0.25216200  0.24448000  1
  O  O16  1  0.75668400  0.75211700  0.73296300  1
  O  O17  1  0.24331600  0.75211700  0.73296300  1
  O  O18  1  0.63465900  0.95200300  0.31319800  1
  O  O19  1  0.36534100  0.95200300  0.31319800  1
  O  O20  1  0.85890600  0.04811600  0.81651800  1
  O  O21  1  0.14109400  0.04811600  0.81651800  1
  O  O22  1  0.83478900  0.96244600  0.12714900  1
  O  O23  1  0.16521100  0.96244600  0.12714900  1
  O  O24  1  0.65708500  0.04604300  0.63376300  1
  O  O25  1  0.34291500  0.04604300  0.63376300  1
  O  O26  1  0.50000000  0.68549700  0.44515300  1
  O  O27  1  0.00000000  0.31133600  0.96759600  1
  O  O28  1  0.83891100  0.52226600  0.38855200  1
  O  O29  1  0.16108900  0.52226600  0.38855200  1
  O  O30  1  0.67662000  0.46910100  0.87620400  1
  O  O31  1  0.32338000  0.46910100  0.87620400  1
  O  O32  1  0.63948500  0.56399200  0.21382100  1
  O  O33  1  0.36051500  0.56399200  0.21382100  1
  O  O34  1  0.86551100  0.45094000  0.68615900  1
  O  O35  1  0.13448900  0.45094000  0.68615900  1
loop_
_geom_bond_atom_site_label_1
_geom_bond_atom_site_label_2
_geom_bond_distance
_geom_bond_site_symmetry_2
Na0 O28 2.344365 1_555
Na0 O4 2.476196 1_565
Na0 O16 2.543284 1_555
Na0 O18 2.551701 1_555
Na0 O26 2.644061 1_555
Na0 O9 2.738169 1_655
Na0 O12 2.741826 1_555
Na0 O24 2.742426 1_565
Na1 O29 2.344365 1_555
Na1 O5 2.476196 1_565
Na1 O17 2.543284 1_555
Na1 O19 2.551701 1_555
Na1 O26 2.644061 1_555
Na1 O9 2.738169 1_555
Na1 O13 2.741826 1_555
Na1 O25 2.742426 1_565
Na2 O30 2.288629 1_555
Na2 O20 2.520928 1_555
Na2 O22 2.583994 1_546
Na2 O27 2.619416 1_655
Na2 O6 2.626065 1_545
Na2 O14 2.657411 1_556
Na2 O8 2.731814 1_556
Na2 O10 2.910839 1_556
Na3 O31 2.288629 1_555
Na3 O21 2.520928 1_555
Na3 O23 2.583994 1_546
Na3 O27 2.619416 1_555
Na3 O7 2.626065 1_545
Na3 O15 2.657411 1_556
Na3 O8 2.731814 1_556
Na3 O11 2.910839 1_556
Na4 O24 2.321657 1_555
Na4 O34 2.427851 1_555
Na4 O28 2.463056 1_555
Na4 O12 2.499927 1_555
Na4 O3 2.506220 1_655
Na4 O4 2.737308 1_555
Na4 O0 2.886250 1_555
Na4 O14 2.906383 1_555
Na5 O25 2.321657 1_555
Na5 O35 2.427851 1_555
Na5 O29 2.463056 1_555
Na5 O13 2.499927 1_555
Na5 O3 2.506220 1_555
Na5 O5 2.737308 1_555
Na5 O0 2.886250 1_555
Na5 O15 2.906383 1_555
Na6 O22 2.369696 1_555
Na6 O10 2.412382 1_555
Na6 O30 2.510169 1_554
Na6 O32 2.516984 1_555
Na6 O6 2.558619 1_554
Na6 O2 2.584077 1_555
Na6 O1 2.854984 1_654
Na7 O23 2.369696 1_555
Na7 O11 2.412382 1_555
Na7 O31 2.510169 1_554
Na7 O33 2.516984 1_555
Na7 O7 2.558619 1_554
Na7 O2 2.584077 1_555
Na7 O1 2.854984 1_554
Na8 O10 2.538152 1_455
Na8 O11 2.538152 1_555
Na8 O23 2.626086 1_555
Na8 O22 2.626086 1_455
Na8 O5 2.634092 1_565
Na8 O4 2.634092 1_465
Na8 O29 2.818698 1_555
Na8 O28 2.818698 1_455
Na9 O13 2.634470 1_555
Na9 O12 2.634470 1_555
Na9 O24 2.644304 1_555
Na9 O25 2.644304 1_555
Na9 O30 2.714957 1_555
Na9 O31 2.714957 1_555
Na9 O7 2.828767 1_545
Na9 O6 2.828767 1_545
Na9 O8 2.936720 1_556
Na10 O8 2.218702 1_555
Na10 O0 2.224651 1_555
Na10 O15 2.554220 1_555
Na10 O14 2.554220 1_555
Na10 O32 2.750267 1_555
Na10 O33 2.750267 1_555
Na10 O18 2.750963 1_545
Na10 O19 2.750963 1_545
Na11 O9 2.219610 1_555
Na11 O1 2.226375 1_555
Na11 O16 2.538326 1_455
Na11 O17 2.538326 1_555
Na11 O21 2.693293 1_565
Na11 O20 2.693293 1_465
Na11 O34 2.807165 1_455
Na11 O35 2.807165 1_555
Na12 O8 2.302903 1_555
Na12 O30 2.338184 1_554
Na12 O31 2.338184 1_554
Na12 O2 2.511236 1_555
Na12 O32 2.602199 1_555
Na12 O33 2.602199 1_555
Mn0 O2 1.956933 1_555
Mn0 O26 1.993138 1_555
Mn0 O32 2.062927 1_555
Mn0 O33 2.062927 1_555
Mn0 O18 2.150063 1_555
Mn0 O19 2.150063 1_555
Mn1 O35 2.169734 1_555
Mn1 O34 2.169734 1_455
Mn1 O21 2.200169 1_555
Mn1 O20 2.200169 1_455
Mn1 O3 2.220740 1_555
Mn1 O27 2.238009 1_555
Mn2 O28 2.172380 1_455
Mn2 O29 2.172380 1_555
Mn2 O9 2.214044 1_555
Mn2 O34 2.259297 1_455
Mn2 O35 2.259297 1_555
Mn2 O3 2.469080 1_555
Mn3 O0 2.138250 1_555
Mn3 O25 2.191973 1_555
Mn3 O24 2.191973 1_555
Mn3 O18 2.419755 1_545
Mn3 O19 2.419755 1_545
Mn3 O26 2.605673 1_545
Mn4 O1 2.222825 1_555
Mn4 O23 2.232196 1_556
Mn4 O22 2.232196 1_456
Mn4 O21 2.379357 1_565
Mn4 O20 2.379357 1_465
Mn4 O27 2.444279 1_565
O0 Si0 1.611434 1_555
O1 Si1 1.624765 1_556
O2 Si3 1.637918 1_554
O3 Si2 1.608854 1_555
O4 Si4 1.652912 1_555
O4 Si2 1.661533 1_655
O5 Si5 1.652912 1_555
O5 Si2 1.661533 1_555
O6 Si3 1.656366 1_555
O6 Si6 1.660387 1_555
O7 Si3 1.656366 1_555
O7 Si7 1.660387 1_555
O8 Si3 1.592662 1_544
O9 Si2 1.614377 1_565
O10 Si8 1.654385 1_555
O10 Si1 1.666103 1_655
O11 Si9 1.654385 1_555
O11 Si1 1.666103 1_555
O12 Si0 1.645457 1_555
O12 Si10 1.677243 1_555
O13 Si0 1.645457 1_555
O13 Si11 1.677243 1_555
O14 Si4 1.651486 1_555
O14 Si8 1.660070 1_555
O15 Si5 1.651486 1_555
O15 Si9 1.660070 1_555
O16 Si6 1.644318 1_555
O16 Si10 1.654208 1_555
O17 Si7 1.644318 1_555
O17 Si11 1.654208 1_555
O18 Si4 1.640132 1_565
O19 Si5 1.640132 1_565
O20 Si6 1.627578 1_545
O21 Si7 1.627578 1_545
O22 Si4 1.620000 1_565
O23 Si5 1.620000 1_565
O24 Si6 1.629727 1_545
O25 Si7 1.629727 1_545
O26 Si0 1.656883 1_555
O27 Si1 1.622863 1_556
O28 Si8 1.614567 1_555
O29 Si9 1.614567 1_555
O30 Si10 1.600896 1_555
O31 Si11 1.600896 1_555
O32 Si8 1.616163 1_555
O33 Si9 1.616163 1_555
O34 Si10 1.619007 1_555
O35 Si11 1.619007 1_555
