# generated using pymatgen
data_Mg15Cd
_symmetry_space_group_name_H-M   'P 1'
_cell_length_a   6.33671823
_cell_length_b   6.33671823
_cell_length_c   10.16935755
_cell_angle_alpha   90.00000000
_cell_angle_beta   90.00000000
_cell_angle_gamma   120.00001431
_symmetry_Int_Tables_number   1
_chemical_formula_structural   Mg15Cd
_chemical_formula_sum   'Mg15 Cd1'
_cell_volume   353.63307594
_cell_formula_units_Z   1
loop_
 _symmetry_equiv_pos_site_id
 _symmetry_equiv_pos_as_xyz
  1  'x, y, z'
loop_
 _atom_site_type_symbol
 _atom_site_label
 _atom_site_symmetry_multiplicity
 _atom_site_fract_x
 _atom_site_fract_y
 _atom_site_fract_z
 _atom_site_occupancy
  Mg  Mg0  1  0.66666700  0.33333300  0.50000000  1
  Mg  Mg1  1  0.16601478  0.33203057  -0.00000000  1
  Mg  Mg2  1  0.16700308  0.33400717  0.50000000  1
  Mg  Mg3  1  0.16601478  0.83398522  0.00000000  1
  Mg  Mg4  1  0.16700308  0.83299692  0.50000000  1
  Mg  Mg5  1  0.66796943  0.83398522  -0.00000000  1
  Mg  Mg6  1  0.66599283  0.83299692  0.50000000  1
  Mg  Mg7  1  0.99976619  0.49988260  0.24730902  1
  Mg  Mg8  1  0.99976619  0.49988260  0.75269098  1
  Mg  Mg9  1  0.50011740  0.49988260  0.24730902  1
  Mg  Mg10  1  0.50011740  0.49988260  0.75269098  1
  Mg  Mg11  1  0.50011740  0.00023381  0.24730902  1
  Mg  Mg12  1  0.50011740  0.00023381  0.75269098  1
  Mg  Mg13  1  0.00000000  0.00000000  0.25052291  1
  Mg  Mg14  1  0.00000000  0.00000000  0.74947709  1
  Cd  Cd0  1  0.66666700  0.33333300  -0.00000000  1
loop_
_geom_bond_atom_site_label_1
_geom_bond_atom_site_label_2
_geom_bond_distance
_geom_bond_site_symmetry_2
Mg0 Mg7 3.153546 1_555
Mg0 Mg8 3.153546 1_555
Mg0 Mg11 3.153546 1_555
Mg0 Mg12 3.153546 1_555
Mg0 Mg10 3.153546 1_555
Mg0 Mg9 3.153546 1_555
Mg0 Mg6 3.168355 1_545
Mg0 Mg2 3.168355 1_655
Mg0 Mg4 3.168361 1_545
Mg0 Mg4 3.168361 1_655
Mg0 Mg6 3.168368 1_555
Mg0 Mg2 3.168368 1_555
Mg1 Mg8 3.112348 1_454
Mg1 Mg7 3.112348 1_455
Mg1 Mg9 3.112354 1_555
Mg1 Mg10 3.112354 1_554
Mg1 Mg14 3.132191 1_554
Mg1 Mg13 3.132191 1_555
Mg1 Mg5 3.155972 1_445
Mg1 Mg3 3.155973 1_545
Mg1 Mg5 3.180744 1_555
Mg1 Mg3 3.180745 1_555
Mg2 Mg7 3.153591 1_455
Mg2 Mg8 3.153591 1_455
Mg2 Mg9 3.153597 1_555
Mg2 Mg6 3.161957 1_555
Mg2 Mg4 3.161957 1_555
Mg2 Mg6 3.174760 1_445
Mg2 Mg4 3.174761 1_545
Mg3 Mg8 3.112354 1_454
Mg3 Mg7 3.112354 1_455
Mg3 Mg5 3.155973 1_455
Mg3 Mg5 3.180745 1_555
Mg4 Mg7 3.153597 1_455
Mg4 Mg8 3.153597 1_455
Mg4 Mg6 3.161957 1_555
Mg4 Mg6 3.174761 1_455
Mg5 Mg9 3.112354 1_555
Mg6 Mg9 3.153597 1_555
Mg7 Mg9 3.166134 1_555
Mg7 Mg9 3.170585 1_655
Mg10 Mg5 3.112354 1_556
Mg10 Mg2 3.153597 1_555
Mg10 Mg6 3.153597 1_555
Mg10 Mg12 3.166134 1_555
Mg10 Mg8 3.166134 1_555
Mg10 Mg14 3.168527 1_555
Mg10 Mg14 3.168527 1_665
Mg10 Mg8 3.170585 1_455
Mg10 Mg12 3.170585 1_565
Mg11 Mg5 3.112348 1_545
Mg11 Mg3 3.112354 1_545
Mg11 Mg6 3.153591 1_545
Mg11 Mg4 3.153597 1_545
Mg11 Mg7 3.166133 1_555
Mg11 Mg9 3.166134 1_555
Mg11 Mg13 3.168525 1_655
Mg11 Mg13 3.168531 1_555
Mg11 Mg7 3.170584 1_445
Mg11 Mg9 3.170585 1_545
Mg12 Mg5 3.112348 1_546
Mg12 Mg3 3.112354 1_546
Mg12 Mg6 3.153591 1_545
Mg12 Mg4 3.153597 1_545
Mg12 Mg8 3.166133 1_555
Mg12 Mg14 3.168525 1_655
Mg12 Mg14 3.168531 1_555
Mg12 Mg8 3.170584 1_445
Mg13 Mg4 3.129883 1_545
Mg13 Mg2 3.129886 1_555
Mg13 Mg6 3.129886 1_445
Mg13 Mg3 3.132188 1_545
Mg13 Mg5 3.132191 1_445
Mg13 Mg7 3.168525 1_455
Mg13 Mg9 3.168527 1_555
Mg13 Mg9 3.168527 1_445
Mg13 Mg7 3.168531 1_445
Mg14 Mg4 3.129883 1_545
Mg14 Mg2 3.129886 1_555
Mg14 Mg6 3.129886 1_445
Mg14 Mg3 3.132188 1_546
Mg14 Mg5 3.132191 1_446
Mg14 Mg8 3.168525 1_455
Mg14 Mg8 3.168531 1_445
Cd0 Mg8 3.109109 1_554
Cd0 Mg11 3.109109 1_555
Cd0 Mg7 3.109109 1_555
Cd0 Mg12 3.109109 1_554
Cd0 Mg9 3.109109 1_555
Cd0 Mg10 3.109109 1_554
Cd0 Mg1 3.168361 1_655
Cd0 Mg5 3.168361 1_545
Cd0 Mg3 3.168367 1_655
Cd0 Mg3 3.168367 1_545
Cd0 Mg5 3.168374 1_555
Cd0 Mg1 3.168374 1_555
