# generated using pymatgen
data_CaNiF4
_symmetry_space_group_name_H-M   'P 1'
_cell_length_a   5.40429413
_cell_length_b   5.40452770
_cell_length_c   6.52948574
_cell_angle_alpha   114.63018340
_cell_angle_beta   114.54703774
_cell_angle_gamma   89.99537881
_symmetry_Int_Tables_number   1
_chemical_formula_structural   CaNiF4
_chemical_formula_sum   'Ca2 Ni2 F8'
_cell_volume   154.19885016
_cell_formula_units_Z   2
loop_
 _symmetry_equiv_pos_site_id
 _symmetry_equiv_pos_as_xyz
  1  'x, y, z'
loop_
 _atom_site_type_symbol
 _atom_site_label
 _atom_site_symmetry_multiplicity
 _atom_site_fract_x
 _atom_site_fract_y
 _atom_site_fract_z
 _atom_site_occupancy
  Ca  Ca0  1  0.25208900  0.25079200  0.49826300  1
  Ca  Ca1  1  0.75233600  0.75058500  0.49819700  1
  Ni  Ni0  1  0.00132900  0.50011600  0.99744900  1
  Ni  Ni1  1  0.50283100  0.00159700  0.99954900  1
  F  F0  1  0.93523700  0.43356600  0.24697800  1
  F  F1  1  0.68644300  0.18527900  0.74354300  1
  F  F2  1  0.06654300  0.56540600  0.74684400  1
  F  F3  1  0.18792000  0.06603000  0.74775500  1
  F  F4  1  0.31683400  0.81513700  0.25076300  1
  F  F5  1  0.43830700  0.31584200  0.25118100  1
  F  F6  1  0.81729100  0.93585900  0.25015800  1
  F  F7  1  0.56592900  0.68681700  0.74665100  1
loop_
_geom_bond_atom_site_label_1
_geom_bond_atom_site_label_2
_geom_bond_distance
_geom_bond_site_symmetry_2
Ca0 F1 2.355712 1_555
Ca0 F5 2.358183 1_555
Ca0 F4 2.361336 1_545
Ca0 F6 2.362701 1_445
Ca0 F2 2.362792 1_555
Ca0 F7 2.364248 1_555
Ca0 F3 2.365696 1_555
Ca0 F0 2.369869 1_455
Ca1 F1 2.355696 1_565
Ca1 F5 2.360024 1_555
Ca1 F6 2.360724 1_555
Ca1 F4 2.362528 1_555
Ca1 F2 2.363122 1_655
Ca1 F7 2.364185 1_555
Ca1 F3 2.366665 1_665
Ca1 F0 2.368036 1_555
F0 Ni0 1.970673 1_654
F1 Ni0 1.960798 1_655
F2 Ni0 1.971479 1_555
F3 Ni1 1.967978 1_555
F4 Ni0 1.962572 1_554
F5 Ni1 1.963564 1_554
F6 Ni1 1.966177 1_564
F7 Ni1 1.965571 1_565
