# generated using pymatgen
data_Na5Nd4Si4O16F
_symmetry_space_group_name_H-M   'P 1'
_cell_length_a   8.84880529
_cell_length_b   8.84880529
_cell_length_c   8.84880529
_cell_angle_alpha   95.50028521
_cell_angle_beta   95.50028521
_cell_angle_gamma   143.93003011
_symmetry_Int_Tables_number   1
_chemical_formula_structural   Na5Nd4Si4O16F
_chemical_formula_sum   'Na5 Nd4 Si4 O16 F1'
_cell_volume   387.90173375
_cell_formula_units_Z   1
loop_
 _symmetry_equiv_pos_site_id
 _symmetry_equiv_pos_as_xyz
  1  'x, y, z'
loop_
 _atom_site_type_symbol
 _atom_site_label
 _atom_site_symmetry_multiplicity
 _atom_site_fract_x
 _atom_site_fract_y
 _atom_site_fract_z
 _atom_site_occupancy
  Na  Na0  1  0.10510031  0.41177902  0.48294686  1
  Na  Na1  1  0.92883316  0.62215345  0.51705314  1
  Na  Na2  1  0.37784655  0.89489969  0.30667971  1
  Na  Na3  1  0.58822098  0.07116684  0.69332029  1
  Na  Na4  1  0.50000000  0.50000000  -0.00000000  1
  Nd  Nd0  1  0.13830971  0.83716096  0.93318119  1
  Nd  Nd1  1  0.90397977  0.20512852  0.06681881  1
  Nd  Nd2  1  0.79487148  0.86169029  0.69885125  1
  Nd  Nd3  1  0.16283904  0.09602023  0.30114875  1
  Si  Si0  1  0.24304619  0.59217360  0.85372126  1
  Si  Si1  1  0.73845234  0.38932493  0.14627874  1
  Si  Si2  1  0.61067507  0.75695381  0.34912741  1
  Si  Si3  1  0.40782640  0.26154766  0.65087259  1
  O  O0  1  0.14694411  0.63655623  0.72188549  1
  O  O1  1  0.91467075  0.42505862  0.27811451  1
  O  O2  1  0.57494138  0.85305589  0.48961212  1
  O  O3  1  0.36344377  0.08532925  0.51038788  1
  O  O4  1  0.53931870  0.76858244  0.86253062  1
  O  O5  1  0.90605182  0.67678808  0.13746938  1
  O  O6  1  0.32321192  0.46068130  0.22926374  1
  O  O7  1  0.23141756  0.09394818  0.77073626  1
  O  O8  1  0.02281390  0.27500921  0.82002268  1
  O  O9  1  0.45498653  0.20279122  0.17997732  1
  O  O10  1  0.79720878  0.97718610  0.25219531  1
  O  O11  1  0.72499079  0.54501347  0.74780469  1
  O  O12  1  0.24515782  0.67748601  0.02857710  1
  O  O13  1  0.64890891  0.21658071  0.97142290  1
  O  O14  1  0.78341929  0.75484218  0.43232920  1
  O  O15  1  0.32251399  0.35109109  0.56767080  1
  F  F0  1  0.00000000  0.00000000  -0.00000000  1
loop_
_geom_bond_atom_site_label_1
_geom_bond_atom_site_label_2
_geom_bond_distance
_geom_bond_site_symmetry_2
Na0 O1 2.431861 1_455
Na0 O15 2.454078 1_555
Na0 O2 2.490071 1_555
Na0 O0 2.533138 1_555
Na0 O10 2.621362 1_445
Na1 O0 2.431855 1_655
Na1 O14 2.454086 1_555
Na1 O3 2.490069 1_665
Na1 O1 2.533132 1_555
Na1 O11 2.621367 1_555
Na2 O3 2.431855 1_565
Na2 O12 2.454089 1_555
Na2 O1 2.490069 1_455
Na2 O2 2.533132 1_555
Na2 O9 2.621367 1_565
Na3 O2 2.431850 1_545
Na3 O13 2.454091 1_555
Na3 O0 2.490072 1_545
Na3 O3 2.533139 1_555
Na3 O8 2.621359 1_655
Na4 O4 2.558861 1_554
Na4 O5 2.558861 1_555
Na4 O6 2.558861 1_555
Na4 O7 2.558861 1_554
Na4 O11 2.973659 1_554
Na4 O10 2.973659 1_555
Na4 O9 2.973659 1_555
Na4 O8 2.973659 1_554
Nd0 O11 2.345731 1_455
Nd0 O7 2.394777 1_565
Nd0 O12 2.416222 1_556
Nd0 O9 2.430072 1_566
Nd0 O5 2.448393 1_456
Nd0 O0 2.502615 1_555
Nd0 O13 2.601352 1_565
Nd1 O10 2.345731 1_545
Nd1 O6 2.394777 1_655
Nd1 O13 2.416222 1_554
Nd1 O8 2.430072 1_654
Nd1 O4 2.448393 1_544
Nd1 O1 2.502615 1_555
Nd1 O12 2.601352 1_655
Nd2 O8 2.345731 1_665
Nd2 O4 2.394777 1_555
Nd2 O14 2.416214 1_555
Nd2 O11 2.430072 1_555
Nd2 O7 2.448393 1_665
Nd2 O2 2.502615 1_555
Nd2 O15 2.601353 1_555
Nd3 O9 2.345731 1_555
Nd3 O5 2.394777 1_445
Nd3 O15 2.416215 1_555
Nd3 O10 2.430072 1_445
Nd3 O6 2.448393 1_555
Nd3 O3 2.502615 1_555
Nd3 O14 2.601358 1_445
O0 Si0 1.635814 1_555
O1 Si1 1.635814 1_555
O2 Si2 1.635814 1_555
O3 Si3 1.635814 1_555
O4 Si0 1.624069 1_555
O5 Si1 1.624069 1_555
O6 Si2 1.624069 1_555
O7 Si3 1.624069 1_555
O8 Si0 1.627806 1_555
O9 Si1 1.627806 1_555
O10 Si2 1.627806 1_555
O11 Si3 1.627806 1_555
O12 Si0 1.646818 1_554
O13 Si1 1.646818 1_556
O14 Si2 1.646821 1_555
O15 Si3 1.646822 1_555
F0 Nd3 2.598086 1_555
F0 Nd2 2.598086 1_444
F0 Nd1 2.598086 1_455
F0 Nd0 2.598086 1_544
F0 Na4 2.739569 1_555
F0 Na4 2.739569 1_445
