# generated using pymatgen
data_CaScRh2
_symmetry_space_group_name_H-M   'P 1'
_cell_length_a   11.31410621
_cell_length_b   11.31410621
_cell_length_c   11.31410621
_cell_angle_alpha   130.30646778
_cell_angle_beta   116.80987188
_cell_angle_gamma   84.38133002
_symmetry_Int_Tables_number   1
_chemical_formula_structural   CaScRh2
_chemical_formula_sum   'Ca1 Sc1 Rh2'
_cell_volume   944.92219014
_cell_formula_units_Z   1
loop_
 _symmetry_equiv_pos_site_id
 _symmetry_equiv_pos_as_xyz
  1  'x, y, z'
loop_
 _atom_site_type_symbol
 _atom_site_label
 _atom_site_symmetry_multiplicity
 _atom_site_fract_x
 _atom_site_fract_y
 _atom_site_fract_z
 _atom_site_occupancy
  Ca  Ca0  1  0.00000000  0.00000000  0.00000000  1
  Sc  Sc0  1  0.00000000  0.50000000  0.50000000  1
  Rh  Rh0  1  0.00000000  0.27054300  0.27054300  1
  Rh  Rh1  1  0.00000000  0.72945700  0.72945700  1
loop_
_geom_bond_atom_site_label_1
_geom_bond_atom_site_label_2
_geom_bond_distance
_geom_bond_site_symmetry_2
Ca0 Rh1 2.572381 1_544
Ca0 Rh0 2.572381 1_555
Rh0 Sc0 2.181726 1_555
Rh1 Sc0 2.181726 1_555
