# generated using pymatgen
data_RbSc5Te8
_symmetry_space_group_name_H-M   'P 1'
_cell_length_a   4.18598155
_cell_length_b   10.34341675
_cell_length_c   10.96526372
_cell_angle_alpha   104.15401357
_cell_angle_beta   101.00383868
_cell_angle_gamma   89.99999634
_symmetry_Int_Tables_number   1
_chemical_formula_structural   RbSc5Te8
_chemical_formula_sum   'Rb1 Sc5 Te8'
_cell_volume   451.34634086
_cell_formula_units_Z   1
loop_
 _symmetry_equiv_pos_site_id
 _symmetry_equiv_pos_as_xyz
  1  'x, y, z'
loop_
 _atom_site_type_symbol
 _atom_site_label
 _atom_site_symmetry_multiplicity
 _atom_site_fract_x
 _atom_site_fract_y
 _atom_site_fract_z
 _atom_site_occupancy
  Rb  Rb0  1  -0.00000000  -0.00000000  -0.00000000  1
  Sc  Sc0  1  0.20504851  0.84419664  0.41009701  1
  Sc  Sc1  1  0.50000000  0.50000000  -0.00000000  1
  Sc  Sc2  1  0.84390456  0.52357564  0.68780711  1
  Sc  Sc3  1  0.15609544  0.47642436  0.31219289  1
  Sc  Sc4  1  0.79495149  0.15580336  0.58990299  1
  Te  Te0  1  0.92474478  0.33613907  0.84948955  1
  Te  Te1  1  0.07525522  0.66386093  0.15051045  1
  Te  Te2  1  0.58462338  0.31624404  0.16924577  1
  Te  Te3  1  0.41537662  0.68375596  0.83075423  1
  Te  Te4  1  0.66506190  0.99703654  0.33012481  1
  Te  Te5  1  0.33493810  0.00296346  0.66987519  1
  Te  Te6  1  0.73758043  0.65791317  0.47516186  1
  Te  Te7  1  0.26241957  0.34208683  0.52483814  1
loop_
_geom_bond_atom_site_label_1
_geom_bond_atom_site_label_2
_geom_bond_distance
_geom_bond_site_symmetry_2
Rb0 Te3 3.928118 1_544
Rb0 Te2 3.928118 1_455
Rb0 Te3 3.928121 1_444
Rb0 Te2 3.928121 1_555
Rb0 Te4 4.130631 1_545
Rb0 Te5 4.130631 1_454
Rb0 Te5 4.130633 1_554
Rb0 Te4 4.130633 1_445
Rb0 Te1 4.185586 1_545
Rb0 Te0 4.185586 1_454
Sc0 Te5 2.868377 1_565
Sc0 Te4 2.880756 1_555
Sc0 Te4 2.880759 1_455
Sc0 Te1 2.947827 1_555
Sc0 Te6 3.042361 1_555
Sc0 Te6 3.042364 1_455
Sc1 Te0 2.917152 1_454
Sc1 Te1 2.917152 1_655
Sc1 Te1 2.917152 1_555
Sc1 Te0 2.917152 1_554
Sc1 Te2 2.942140 1_555
Sc1 Te3 2.942140 1_554
Sc2 Te3 2.867566 1_655
Sc2 Te3 2.867575 1_555
Sc2 Te0 2.910033 1_555
Sc2 Te6 2.958724 1_555
Sc2 Te7 3.056300 1_655
Sc2 Te7 3.056302 1_555
Sc3 Te2 2.867566 1_455
Sc3 Te2 2.867575 1_555
Sc3 Te1 2.910033 1_555
Sc3 Te7 2.958724 1_555
Sc3 Te6 3.056300 1_455
Sc3 Te6 3.056302 1_555
Sc4 Te4 2.868377 1_545
Sc4 Te5 2.880756 1_555
Sc4 Te5 2.880759 1_655
Sc4 Te0 2.947827 1_555
Sc4 Te7 3.042361 1_555
Sc4 Te7 3.042364 1_655
