# generated using pymatgen
data_Nd2Sn3(PbS4)3
_symmetry_space_group_name_H-M   'P 1'
_cell_length_a   3.98980800
_cell_length_b   11.73732000
_cell_length_c   20.60730000
_cell_angle_alpha   90.00000000
_cell_angle_beta   90.00000000
_cell_angle_gamma   90.00000000
_symmetry_Int_Tables_number   1
_chemical_formula_structural   Nd2Sn3(PbS4)3
_chemical_formula_sum   'Nd4 Sn6 Pb6 S24'
_cell_volume   965.03271310
_cell_formula_units_Z   2
loop_
 _symmetry_equiv_pos_site_id
 _symmetry_equiv_pos_as_xyz
  1  'x, y, z'
loop_
 _atom_site_type_symbol
 _atom_site_label
 _atom_site_symmetry_multiplicity
 _atom_site_fract_x
 _atom_site_fract_y
 _atom_site_fract_z
 _atom_site_occupancy
  Nd  Nd0  1  0.50000000  0.65077600  0.41248600  1
  Nd  Nd1  1  0.50000000  0.15077600  0.58751400  1
  Nd  Nd2  1  0.50000000  0.82465300  0.89450300  1
  Nd  Nd3  1  0.50000000  0.32465300  0.10549700  1
  Sn  Sn0  1  0.00000000  0.00147900  0.74988500  1
  Sn  Sn1  1  0.00000000  0.50147900  0.25011500  1
  Sn  Sn2  1  0.00000000  0.51809800  0.91149100  1
  Sn  Sn3  1  0.00000000  0.01809800  0.08850900  1
  Sn  Sn4  1  0.00000000  0.99466500  0.42405200  1
  Sn  Sn5  1  0.00000000  0.49466500  0.57594800  1
  Pb  Pb0  1  0.50000000  0.40335800  0.74299500  1
  Pb  Pb1  1  0.50000000  0.90335800  0.25700500  1
  Pb  Pb2  1  0.50000000  0.19820900  0.91305000  1
  Pb  Pb3  1  0.50000000  0.69820900  0.08695000  1
  Pb  Pb4  1  0.50000000  0.77081300  0.62322500  1
  Pb  Pb5  1  0.50000000  0.27081300  0.37677500  1
  S  S0  1  0.00000000  0.99659600  0.87433100  1
  S  S1  1  0.00000000  0.49659600  0.12566900  1
  S  S2  1  0.00000000  0.98070900  0.62723100  1
  S  S3  1  0.00000000  0.48070900  0.37276900  1
  S  S4  1  0.00000000  0.68316400  0.51321200  1
  S  S5  1  0.00000000  0.18316400  0.48678800  1
  S  S6  1  0.50000000  0.64484600  0.25735400  1
  S  S7  1  0.50000000  0.14484600  0.74264600  1
  S  S8  1  0.50000000  0.85171400  0.75575700  1
  S  S9  1  0.50000000  0.35171400  0.24424300  1
  S  S10  1  0.50000000  0.59794800  0.84107000  1
  S  S11  1  0.50000000  0.09794800  0.15893000  1
  S  S12  1  0.50000000  0.43959400  0.98128400  1
  S  S13  1  0.50000000  0.93959400  0.01871600  1
  S  S14  1  0.50000000  0.93434800  0.48841300  1
  S  S15  1  0.50000000  0.43434800  0.51158700  1
  S  S16  1  0.00000000  0.33808800  0.84284300  1
  S  S17  1  0.00000000  0.83808800  0.15715700  1
  S  S18  1  0.00000000  0.70922600  0.97129600  1
  S  S19  1  0.00000000  0.20922600  0.02870400  1
  S  S20  1  0.00000000  0.80862700  0.35792000  1
  S  S21  1  0.00000000  0.30862700  0.64208000  1
  S  S22  1  0.00000000  0.60239000  0.67746600  1
  S  S23  1  0.00000000  0.10239000  0.32253400  1
loop_
_geom_bond_atom_site_label_1
_geom_bond_atom_site_label_2
_geom_bond_distance
_geom_bond_site_symmetry_2
Nd0 S4 2.903902 1_655
Nd0 S4 2.903902 1_555
Nd0 S3 2.938377 1_555
Nd0 S3 2.938377 1_655
Nd0 S20 2.945628 1_555
Nd0 S20 2.945628 1_655
Nd0 S6 3.197609 1_555
Nd0 S15 3.259393 1_555
Nd1 S5 2.903902 1_555
Nd1 S5 2.903902 1_655
Nd1 S2 2.938377 1_645
Nd1 S2 2.938377 1_545
Nd1 S21 2.945628 1_555
Nd1 S21 2.945628 1_655
Nd1 S7 3.197609 1_555
Nd1 S14 3.259393 1_545
Nd2 S0 2.867991 1_555
Nd2 S0 2.867991 1_655
Nd2 S8 2.876769 1_555
Nd2 S10 2.879736 1_555
Nd2 S18 2.884342 1_555
Nd2 S18 2.884342 1_655
Nd2 S13 2.893459 1_556
Nd3 S1 2.867991 1_555
Nd3 S1 2.867991 1_655
Nd3 S9 2.876769 1_555
Nd3 S11 2.879736 1_555
Nd3 S19 2.884342 1_555
Nd3 S19 2.884342 1_655
Nd3 S12 2.893459 1_554
Pb0 S16 2.966522 1_655
Pb0 S16 2.966522 1_555
Pb0 S7 3.034247 1_555
Pb0 S10 3.049784 1_555
Pb0 S21 3.088788 1_555
Pb0 S21 3.088788 1_655
Pb1 S17 2.966522 1_555
Pb1 S17 2.966522 1_655
Pb1 S6 3.034247 1_555
Pb1 S11 3.049784 1_565
Pb1 S20 3.088788 1_555
Pb1 S20 3.088788 1_655
Pb2 S16 2.961136 1_555
Pb2 S16 2.961136 1_655
Pb2 S19 3.110717 1_556
Pb2 S19 3.110717 1_656
Pb2 S12 3.162952 1_555
Pb2 S0 3.196265 1_645
Pb2 S0 3.196265 1_545
Pb3 S17 2.961136 1_555
Pb3 S17 2.961136 1_655
Pb3 S18 3.110717 1_654
Pb3 S18 3.110717 1_554
Pb3 S13 3.162952 1_555
Pb3 S1 3.196265 1_555
Pb3 S1 3.196265 1_655
Pb4 S8 2.891491 1_555
Pb4 S22 3.022732 1_655
Pb4 S22 3.022732 1_555
Pb4 S2 3.171098 1_655
Pb4 S2 3.171098 1_555
Pb4 S4 3.190236 1_555
Pb4 S4 3.190236 1_655
Pb5 S9 2.891491 1_555
Pb5 S23 3.022732 1_555
Pb5 S23 3.022732 1_655
Pb5 S3 3.171098 1_655
Pb5 S3 3.171098 1_555
Pb5 S5 3.190236 1_555
Pb5 S5 3.190236 1_655
S0 Sn0 2.565136 1_565
S1 Sn1 2.565136 1_555
S2 Sn0 2.539297 1_565
S3 Sn1 2.539297 1_555
S4 Sn5 2.562503 1_555
S5 Sn4 2.562503 1_545
S6 Sn1 2.614101 1_655
S6 Sn1 2.614101 1_555
S7 Sn0 2.614101 1_555
S7 Sn0 2.614101 1_655
S8 Sn0 2.661632 1_665
S8 Sn0 2.661632 1_565
S9 Sn1 2.661632 1_655
S9 Sn1 2.661632 1_555
S10 Sn2 2.638935 1_555
S10 Sn2 2.638935 1_655
S11 Sn3 2.638935 1_655
S11 Sn3 2.638935 1_555
S12 Sn2 2.626256 1_655
S12 Sn2 2.626256 1_555
S13 Sn3 2.626256 1_565
S13 Sn3 2.626256 1_665
S14 Sn4 2.497987 1_555
S14 Sn4 2.497987 1_655
S15 Sn5 2.497987 1_655
S15 Sn5 2.497987 1_555
S16 Sn2 2.542697 1_555
S17 Sn3 2.542697 1_565
S18 Sn2 2.559568 1_555
S19 Sn3 2.559568 1_555
S20 Sn4 2.573963 1_555
S21 Sn5 2.573963 1_555
S22 Sn5 2.444428 1_555
S23 Sn4 2.444428 1_545
