# generated using pymatgen
data_Na2FeH4(SO5)2
_symmetry_space_group_name_H-M   'P 1'
_cell_length_a   13.26184700
_cell_length_b   5.55047500
_cell_length_c   5.81428490
_cell_angle_alpha   73.48837708
_cell_angle_beta   90.00000000
_cell_angle_gamma   90.00000000
_symmetry_Int_Tables_number   1
_chemical_formula_structural   Na2FeH4(SO5)2
_chemical_formula_sum   'Na4 Fe2 H8 S4 O20'
_cell_volume   410.33761550
_cell_formula_units_Z   2
loop_
 _symmetry_equiv_pos_site_id
 _symmetry_equiv_pos_as_xyz
  1  'x, y, z'
loop_
 _atom_site_type_symbol
 _atom_site_label
 _atom_site_symmetry_multiplicity
 _atom_site_fract_x
 _atom_site_fract_y
 _atom_site_fract_z
 _atom_site_occupancy
  Na  Na0  1  0.61803600  0.24031700  0.57747100  1
  Na  Na1  1  0.11803600  0.25968300  0.42252900  1
  Na  Na2  1  0.38196400  0.75968300  0.42252900  1
  Na  Na3  1  0.88196400  0.74031700  0.57747100  1
  Fe  Fe0  1  0.50000000  0.50000000  0.00000000  1
  Fe  Fe1  1  0.00000000  0.00000000  0.00000000  1
  H  H0  1  0.20130000  0.99335300  0.09032000  1
  H  H1  1  0.70130000  0.50664700  0.90967900  1
  H  H2  1  0.79870000  0.00664700  0.90967900  1
  H  H3  1  0.29870000  0.49335300  0.09032000  1
  H  H4  1  0.15028800  0.81738300  0.32418900  1
  H  H5  1  0.65028800  0.68261700  0.67581100  1
  H  H6  1  0.84971200  0.18261700  0.67581100  1
  H  H7  1  0.34971200  0.31738300  0.32418900  1
  S  S0  1  0.61716000  0.92450200  0.22287600  1
  S  S1  1  0.11716000  0.57549800  0.77712400  1
  S  S2  1  0.38284000  0.07549800  0.77712400  1
  S  S3  1  0.88284000  0.42450200  0.22287600  1
  O  O0  1  0.67249600  0.98467100  0.99354900  1
  O  O1  1  0.17249600  0.51532900  0.00645100  1
  O  O2  1  0.32750400  0.01532900  0.00645100  1
  O  O3  1  0.82750400  0.48467100  0.99354900  1
  O  O4  1  0.55854400  0.68246200  0.26089200  1
  O  O5  1  0.05854400  0.81753800  0.73910800  1
  O  O6  1  0.44145600  0.31753800  0.73910800  1
  O  O7  1  0.94145600  0.18246200  0.26089200  1
  O  O8  1  0.54351200  0.12957600  0.22756000  1
  O  O9  1  0.04351200  0.37042400  0.77244000  1
  O  O10  1  0.45648800  0.87042400  0.77244000  1
  O  O11  1  0.95648800  0.62957600  0.22756000  1
  O  O12  1  0.68723800  0.89619600  0.43008400  1
  O  O13  1  0.18723800  0.60380400  0.56991600  1
  O  O14  1  0.31276200  0.10380400  0.56991600  1
  O  O15  1  0.81276200  0.39619600  0.43008400  1
  O  O16  1  0.63868500  0.52687800  0.81172500  1
  O  O17  1  0.13868500  0.97312200  0.18827500  1
  O  O18  1  0.36131500  0.47312200  0.18827500  1
  O  O19  1  0.86131500  0.02687800  0.81172500  1
loop_
_geom_bond_atom_site_label_1
_geom_bond_atom_site_label_2
_geom_bond_distance
_geom_bond_site_symmetry_2
Na0 O16 2.385652 1_555
Na0 O12 2.480977 1_545
Na0 O8 2.490892 1_555
Na0 O0 2.536995 1_545
Na0 O6 2.603810 1_555
Na0 O4 2.732320 1_555
Na0 O15 2.780363 1_555
Na1 O17 2.385652 1_545
Na1 O13 2.480977 1_555
Na1 O9 2.490892 1_555
Na1 O1 2.536995 1_555
Na1 O7 2.603810 1_455
Na1 O5 2.732320 1_545
Na1 O14 2.780363 1_555
Na2 O18 2.385652 1_555
Na2 O14 2.480977 1_565
Na2 O10 2.490892 1_555
Na2 O2 2.536995 1_565
Na2 O4 2.603810 1_555
Na2 O6 2.732320 1_555
Na2 O13 2.780363 1_555
Na3 O19 2.385652 1_565
Na3 O15 2.480977 1_555
Na3 O11 2.490892 1_555
Na3 O3 2.536995 1_555
Na3 O5 2.603810 1_655
Na3 O7 2.732320 1_565
Na3 O12 2.780363 1_555
Fe0 O16 2.123791 1_554
Fe0 O18 2.123791 1_555
Fe0 O10 2.182783 1_554
Fe0 O8 2.182783 1_555
Fe0 O6 2.191502 1_554
Fe0 O4 2.191502 1_555
Fe1 O19 2.123791 1_454
Fe1 O17 2.123791 1_545
Fe1 O9 2.182783 1_554
Fe1 O11 2.182783 1_445
Fe1 O5 2.191502 1_544
Fe1 O7 2.191502 1_455
H0 O17 0.995077 1_555
H0 O2 1.737851 1_565
H1 O16 0.995074 1_555
H1 O3 1.737852 1_555
H2 O19 0.995074 1_555
H2 O0 1.737852 1_545
H3 O18 0.995077 1_555
H3 O1 1.737851 1_555
H4 O17 1.003545 1_555
H4 O13 1.650447 1_555
H5 O16 1.003545 1_555
H5 O12 1.650447 1_555
H6 O19 1.003545 1_555
H6 O15 1.650447 1_555
H7 O18 1.003545 1_555
H7 O14 1.650447 1_555
O0 S0 1.474735 1_556
O1 S1 1.474735 1_554
O2 S2 1.474735 1_554
O3 S3 1.474735 1_556
O4 S0 1.513001 1_555
O5 S1 1.513001 1_555
O6 S2 1.513001 1_555
O7 S3 1.513001 1_555
O8 S0 1.505973 1_545
O9 S1 1.505973 1_555
O10 S2 1.505973 1_565
O11 S3 1.505973 1_555
O12 S0 1.494079 1_555
O13 S1 1.494079 1_555
O14 S2 1.494079 1_555
O15 S3 1.494079 1_555
