# generated using pymatgen
data_MgTi2NiO6
_symmetry_space_group_name_H-M   'P 1'
_cell_length_a   5.51834262
_cell_length_b   8.81155540
_cell_length_c   9.06158125
_cell_angle_alpha   99.31340637
_cell_angle_beta   84.79835500
_cell_angle_gamma   105.44613638
_symmetry_Int_Tables_number   1
_chemical_formula_structural   MgTi2NiO6
_chemical_formula_sum   'Mg4 Ti8 Ni4 O24'
_cell_volume   418.58360028
_cell_formula_units_Z   4
loop_
 _symmetry_equiv_pos_site_id
 _symmetry_equiv_pos_as_xyz
  1  'x, y, z'
loop_
 _atom_site_type_symbol
 _atom_site_label
 _atom_site_symmetry_multiplicity
 _atom_site_fract_x
 _atom_site_fract_y
 _atom_site_fract_z
 _atom_site_occupancy
  Mg  Mg0  1  0.54520700  0.67671800  0.51510200  1
  Mg  Mg1  1  0.79516800  0.17666400  0.26505900  1
  Mg  Mg2  1  0.29516400  0.17666100  0.76505600  1
  Mg  Mg3  1  0.04520300  0.67671700  0.01510500  1
  Ti  Ti0  1  0.92785000  0.42836500  0.64262000  1
  Ti  Ti1  1  0.17786100  0.92851100  0.39271300  1
  Ti  Ti2  1  0.67788500  0.92850600  0.89270200  1
  Ti  Ti3  1  0.42781300  0.42837900  0.14261500  1
  Ti  Ti4  1  0.82270600  0.07167500  0.60745700  1
  Ti  Ti5  1  0.07269000  0.57173300  0.35757100  1
  Ti  Ti6  1  0.57270900  0.57173900  0.85756200  1
  Ti  Ti7  1  0.32270600  0.07168100  0.10743500  1
  Ni  Ni0  1  0.21058300  0.82458000  0.73692000  1
  Ni  Ni1  1  0.46056300  0.32458800  0.48685900  1
  Ni  Ni2  1  0.96044300  0.32455500  0.98681600  1
  Ni  Ni3  1  0.71051700  0.82456100  0.23692600  1
  O  O0  1  0.60965000  0.52418900  0.64875600  1
  O  O1  1  0.85980200  0.02423200  0.39844600  1
  O  O2  1  0.35981800  0.02423900  0.89848200  1
  O  O3  1  0.10972000  0.52420300  0.14872000  1
  O  O4  1  0.59724300  0.88660000  0.66130600  1
  O  O5  1  0.84703000  0.38654300  0.41127300  1
  O  O6  1  0.34706000  0.38653600  0.91130800  1
  O  O7  1  0.09724600  0.88661300  0.16130600  1
  O  O8  1  0.87481200  0.71794300  0.38353100  1
  O  O9  1  0.12500800  0.21807700  0.13333000  1
  O  O10  1  0.62500500  0.21808200  0.63333800  1
  O  O11  1  0.37482500  0.71794600  0.88353300  1
  O  O12  1  0.13746800  0.97436600  0.60152600  1
  O  O13  1  0.38738500  0.47452800  0.35125800  1
  O  O14  1  0.88739000  0.47452500  0.85126800  1
  O  O15  1  0.63747100  0.97437000  0.10152500  1
  O  O16  1  0.15039400  0.61426600  0.58838600  1
  O  O17  1  0.40068800  0.11439600  0.33803900  1
  O  O18  1  0.90068800  0.11439200  0.83804700  1
  O  O19  1  0.65038300  0.61425400  0.08839000  1
  O  O20  1  0.87385800  0.78123000  0.86508800  1
  O  O21  1  0.12411400  0.28079000  0.61473300  1
  O  O22  1  0.62402700  0.28081100  0.11475600  1
  O  O23  1  0.37385600  0.78124000  0.36513700  1
loop_
_geom_bond_atom_site_label_1
_geom_bond_atom_site_label_2
_geom_bond_distance
_geom_bond_site_symmetry_2
Mg0 O4 2.061785 1_555
Mg0 O8 2.063184 1_555
Mg0 O0 2.063782 1_555
Mg0 O13 2.165346 1_555
Mg0 O23 2.165869 1_555
Mg0 O16 2.169773 1_555
Mg1 O1 2.061813 1_555
Mg1 O5 2.061851 1_555
Mg1 O9 2.065010 1_655
Mg1 O15 2.164079 1_545
Mg1 O22 2.165299 1_555
Mg1 O17 2.167341 1_555
Mg2 O6 2.061992 1_555
Mg2 O2 2.062038 1_555
Mg2 O10 2.064965 1_555
Mg2 O12 2.164062 1_545
Mg2 O21 2.165026 1_555
Mg2 O18 2.167347 1_455
Mg3 O7 2.061863 1_555
Mg3 O11 2.063263 1_554
Mg3 O3 2.063590 1_555
Mg3 O14 2.165307 1_454
Mg3 O20 2.166144 1_454
Mg3 O19 2.169814 1_455
Ni0 O16 2.074149 1_555
Ni0 O12 2.075467 1_555
Ni0 O20 2.078882 1_455
Ni0 O2 2.128353 1_565
Ni0 O11 2.131985 1_555
Ni0 O4 2.134452 1_555
Ni1 O17 2.074727 1_555
Ni1 O21 2.076467 1_555
Ni1 O13 2.078010 1_555
Ni1 O0 2.129644 1_555
Ni1 O10 2.131018 1_555
Ni1 O5 2.133398 1_555
Ni2 O18 2.074309 1_555
Ni2 O22 2.076608 1_556
Ni2 O14 2.077588 1_555
Ni2 O3 2.130174 1_656
Ni2 O9 2.131496 1_656
Ni2 O6 2.133963 1_655
Ni3 O19 2.074118 1_555
Ni3 O15 2.075512 1_555
Ni3 O23 2.078790 1_555
Ni3 O1 2.128257 1_565
Ni3 O8 2.132015 1_555
Ni3 O7 2.134822 1_655
O0 Ti6 1.875142 1_555
O0 Ti0 2.134525 1_555
O1 Ti4 1.876913 1_555
O1 Ti1 2.133665 1_645
O2 Ti7 1.876413 1_556
O2 Ti2 2.133722 1_545
O3 Ti5 1.875557 1_555
O3 Ti3 2.134010 1_555
O4 Ti4 1.874112 1_565
O4 Ti2 2.135900 1_555
O5 Ti5 1.874847 1_655
O5 Ti0 2.135746 1_555
O6 Ti6 1.875043 1_555
O6 Ti3 2.135293 1_556
O7 Ti7 1.874127 1_565
O7 Ti1 2.135963 1_555
O8 Ti5 1.874090 1_655
O8 Ti1 2.137450 1_655
O9 Ti7 1.874712 1_555
O9 Ti3 2.135144 1_555
O10 Ti4 1.874809 1_555
O10 Ti0 2.135158 1_555
O11 Ti6 1.874089 1_555
O11 Ti2 2.137441 1_555
O12 Ti1 1.875450 1_555
O12 Ti4 2.125235 1_465
O13 Ti3 1.874202 1_555
O13 Ti5 2.123937 1_555
O14 Ti0 1.874269 1_555
O14 Ti6 2.123934 1_555
O15 Ti2 1.875554 1_554
O15 Ti7 2.125283 1_565
O16 Ti0 1.874182 1_455
O16 Ti5 2.126548 1_555
O17 Ti1 1.876076 1_545
O17 Ti7 2.125004 1_555
O18 Ti2 1.875971 1_545
O18 Ti4 2.124879 1_555
O19 Ti3 1.874041 1_555
O19 Ti6 2.126628 1_554
O20 Ti2 1.873400 1_555
O20 Ti6 2.125945 1_555
O21 Ti0 1.876702 1_455
O21 Ti4 2.124655 1_455
O22 Ti3 1.876452 1_555
O22 Ti7 2.124459 1_555
O23 Ti1 1.873466 1_555
O23 Ti5 2.126075 1_555
