# generated using pymatgen
data_BaSi(HO2)2
_symmetry_space_group_name_H-M   'P 1'
_cell_length_a   7.19790700
_cell_length_b   7.55421988
_cell_length_c   7.70287646
_cell_angle_alpha   89.91687622
_cell_angle_beta   89.67604097
_cell_angle_gamma   78.14443979
_symmetry_Int_Tables_number   1
_chemical_formula_structural   BaSi(HO2)2
_chemical_formula_sum   'Ba4 Si4 H8 O16'
_cell_volume   409.89959677
_cell_formula_units_Z   4
loop_
 _symmetry_equiv_pos_site_id
 _symmetry_equiv_pos_as_xyz
  1  'x, y, z'
loop_
 _atom_site_type_symbol
 _atom_site_label
 _atom_site_symmetry_multiplicity
 _atom_site_fract_x
 _atom_site_fract_y
 _atom_site_fract_z
 _atom_site_occupancy
  Ba  Ba0  1  0.08338200  0.78648900  0.20494900  1
  Ba  Ba1  1  0.91661800  0.21351100  0.79505100  1
  Ba  Ba2  1  0.41405400  0.71795100  0.70517300  1
  Ba  Ba3  1  0.58594600  0.28204900  0.29482700  1
  Si  Si0  1  0.59501700  0.74843900  0.23574000  1
  Si  Si1  1  0.40498300  0.25156100  0.76426000  1
  Si  Si2  1  0.09452700  0.25640200  0.26444100  1
  Si  Si3  1  0.90547300  0.74359800  0.73555900  1
  H  H0  1  0.77319800  0.58420600  0.00979100  1
  H  H1  1  0.22680200  0.41579400  0.99020900  1
  H  H2  1  0.27336100  0.09803500  0.49080500  1
  H  H3  1  0.72663900  0.90196500  0.50919500  1
  H  H4  1  0.09752200  0.53300700  0.56631800  1
  H  H5  1  0.90247800  0.46699300  0.43368200  1
  H  H6  1  0.59419600  0.03466900  0.92138800  1
  H  H7  1  0.40580400  0.96533100  0.07861200  1
  O  O0  1  0.70566900  0.89878500  0.31021100  1
  O  O1  1  0.29433100  0.10121500  0.68978900  1
  O  O2  1  0.96890900  0.16189900  0.13570200  1
  O  O3  1  0.03109100  0.83810100  0.86429800  1
  O  O4  1  0.74909000  0.57803900  0.14256800  1
  O  O5  1  0.25091000  0.42196100  0.85743200  1
  O  O6  1  0.45683700  0.83687900  0.06190200  1
  O  O7  1  0.54316300  0.16312100  0.93809800  1
  O  O8  1  0.95598000  0.33764800  0.44140700  1
  O  O9  1  0.04402000  0.66235200  0.55859300  1
  O  O10  1  0.20075100  0.40944200  0.18767100  1
  O  O11  1  0.79924900  0.59055800  0.81232900  1
  O  O12  1  0.46620600  0.65977200  0.36768400  1
  O  O13  1  0.53379400  0.34022800  0.63231600  1
  O  O14  1  0.25458200  0.09076900  0.35751600  1
  O  O15  1  0.74541800  0.90923100  0.64248400  1
loop_
_geom_bond_atom_site_label_1
_geom_bond_atom_site_label_2
_geom_bond_distance
_geom_bond_site_symmetry_2
Ba0 O3 2.669629 1_554
Ba0 O0 2.792497 1_455
Ba0 O10 2.802735 1_555
Ba0 O2 2.836615 1_465
Ba0 O9 2.910890 1_555
Ba0 O6 2.995097 1_555
Ba0 O12 3.005390 1_555
Ba0 O14 3.061249 1_565
Ba0 H7 3.068739 1_555
Ba0 O4 3.173711 1_455
Ba1 O2 2.669629 1_556
Ba1 O1 2.792497 1_655
Ba1 O11 2.802735 1_555
Ba1 O3 2.836615 1_645
Ba1 O8 2.910890 1_555
Ba1 O7 2.995097 1_555
Ba1 O13 3.005390 1_555
Ba1 O15 3.061249 1_545
Ba1 H6 3.068739 1_555
Ba1 O5 3.173711 1_655
Ba2 O12 2.648900 1_555
Ba2 O1 2.848541 1_565
Ba2 O13 2.861534 1_555
Ba2 O11 2.867395 1_555
Ba2 O6 2.929676 1_556
Ba2 O5 2.968126 1_555
Ba2 O3 2.976855 1_555
Ba2 O9 3.006718 1_555
Ba2 O15 3.067737 1_555
Ba3 O13 2.648900 1_555
Ba3 O0 2.848541 1_545
Ba3 O12 2.861534 1_555
Ba3 O10 2.867395 1_555
Ba3 O7 2.929676 1_554
Ba3 O4 2.968126 1_555
Ba3 O2 2.976855 1_555
Ba3 O8 3.006718 1_555
Ba3 O14 3.067737 1_555
H0 O4 1.038993 1_555
H0 O11 1.533376 1_554
H1 O5 1.038993 1_555
H1 O10 1.533376 1_556
H2 O14 1.039325 1_555
H2 O1 1.541718 1_555
H3 O15 1.039325 1_555
H3 O0 1.541718 1_555
H4 O9 0.975730 1_555
H5 O8 0.975730 1_555
H6 O7 0.972860 1_555
H7 O6 0.972860 1_555
O0 Si0 1.622368 1_555
O1 Si1 1.622368 1_555
O2 Si2 1.608731 1_655
O3 Si3 1.608731 1_455
O4 Si0 1.676027 1_555
O5 Si1 1.676027 1_555
O6 Si0 1.722814 1_555
O7 Si1 1.722814 1_555
O8 Si2 1.721897 1_655
O9 Si3 1.721897 1_455
O10 Si2 1.620790 1_555
O11 Si3 1.620790 1_555
O12 Si0 1.607419 1_555
O13 Si1 1.607419 1_555
O14 Si2 1.679663 1_555
O15 Si3 1.679663 1_555
