# generated using pymatgen
data_MgGa2
_symmetry_space_group_name_H-M   'P 1'
_cell_length_a   6.14929825
_cell_length_b   6.14929825
_cell_length_c   29.19605400
_cell_angle_alpha   90.00000000
_cell_angle_beta   90.00000000
_cell_angle_gamma   119.99998122
_symmetry_Int_Tables_number   1
_chemical_formula_structural   MgGa2
_chemical_formula_sum   'Mg16 Ga32'
_cell_volume   956.10587695
_cell_formula_units_Z   16
loop_
 _symmetry_equiv_pos_site_id
 _symmetry_equiv_pos_as_xyz
  1  'x, y, z'
loop_
 _atom_site_type_symbol
 _atom_site_label
 _atom_site_symmetry_multiplicity
 _atom_site_fract_x
 _atom_site_fract_y
 _atom_site_fract_z
 _atom_site_occupancy
  Mg  Mg0_0  1  0.16666650  0.33333350  0.45382300  1
  Mg  Mg0_1  1  0.16666650  0.33333350  0.95382300  1
  Mg  Mg0_2  1  0.16666650  0.83333350  0.45382300  1
  Mg  Mg0_3  1  0.16666650  0.83333350  0.95382300  1
  Mg  Mg0_4  1  0.66666650  0.33333350  0.45382300  1
  Mg  Mg0_5  1  0.66666650  0.33333350  0.95382300  1
  Mg  Mg0_6  1  0.66666650  0.83333350  0.45382300  1
  Mg  Mg0_7  1  0.66666650  0.83333350  0.95382300  1
  Mg  Mg1_0  1  0.33333350  0.16666650  0.04617700  1
  Mg  Mg1_1  1  0.33333350  0.16666650  0.54617700  1
  Mg  Mg1_2  1  0.33333350  0.66666650  0.04617700  1
  Mg  Mg1_3  1  0.33333350  0.66666650  0.54617700  1
  Mg  Mg1_4  1  0.83333350  0.16666650  0.04617700  1
  Mg  Mg1_5  1  0.83333350  0.16666650  0.54617700  1
  Mg  Mg1_6  1  0.83333350  0.66666650  0.04617700  1
  Mg  Mg1_7  1  0.83333350  0.66666650  0.54617700  1
  Ga  Ga0_0  1  0.33333350  0.16666650  0.37241550  1
  Ga  Ga0_1  1  0.33333350  0.16666650  0.87241550  1
  Ga  Ga0_2  1  0.33333350  0.66666650  0.37241550  1
  Ga  Ga0_3  1  0.33333350  0.66666650  0.87241550  1
  Ga  Ga0_4  1  0.83333350  0.16666650  0.37241550  1
  Ga  Ga0_5  1  0.83333350  0.16666650  0.87241550  1
  Ga  Ga0_6  1  0.83333350  0.66666650  0.37241550  1
  Ga  Ga0_7  1  0.83333350  0.66666650  0.87241550  1
  Ga  Ga1_0  1  0.16666650  0.33333350  0.29259750  1
  Ga  Ga1_1  1  0.16666650  0.33333350  0.79259750  1
  Ga  Ga1_2  1  0.16666650  0.83333350  0.29259750  1
  Ga  Ga1_3  1  0.16666650  0.83333350  0.79259750  1
  Ga  Ga1_4  1  0.66666650  0.33333350  0.29259750  1
  Ga  Ga1_5  1  0.66666650  0.33333350  0.79259750  1
  Ga  Ga1_6  1  0.66666650  0.83333350  0.29259750  1
  Ga  Ga1_7  1  0.66666650  0.83333350  0.79259750  1
  Ga  Ga2_0  1  0.33333350  0.16666650  0.20740250  1
  Ga  Ga2_1  1  0.33333350  0.16666650  0.70740250  1
  Ga  Ga2_2  1  0.33333350  0.66666650  0.20740250  1
  Ga  Ga2_3  1  0.33333350  0.66666650  0.70740250  1
  Ga  Ga2_4  1  0.83333350  0.16666650  0.20740250  1
  Ga  Ga2_5  1  0.83333350  0.16666650  0.70740250  1
  Ga  Ga2_6  1  0.83333350  0.66666650  0.20740250  1
  Ga  Ga2_7  1  0.83333350  0.66666650  0.70740250  1
  Ga  Ga3_0  1  0.16666650  0.33333350  0.12758450  1
  Ga  Ga3_1  1  0.16666650  0.33333350  0.62758450  1
  Ga  Ga3_2  1  0.16666650  0.83333350  0.12758450  1
  Ga  Ga3_3  1  0.16666650  0.83333350  0.62758450  1
  Ga  Ga3_4  1  0.66666650  0.33333350  0.12758450  1
  Ga  Ga3_5  1  0.66666650  0.33333350  0.62758450  1
  Ga  Ga3_6  1  0.66666650  0.83333350  0.12758450  1
  Ga  Ga3_7  1  0.66666650  0.83333350  0.62758450  1
loop_
_geom_bond_atom_site_label_1
_geom_bond_atom_site_label_2
_geom_bond_distance
_geom_bond_site_symmetry_2
Ga0_0 Ga1_2 2.929467 1_545
Ga0_0 Ga1_4 2.929467 1_555
Ga0_0 Ga1_0 2.929470 1_555
Ga0_0 Mg0_2 2.966517 1_545
Ga0_0 Mg0_4 2.966517 1_555
Ga0_0 Mg0_0 2.966520 1_555
Ga0_1 Ga1_3 2.929467 1_545
Ga0_1 Ga1_5 2.929467 1_555
Ga0_1 Ga1_1 2.929470 1_555
Ga0_1 Mg0_5 2.966517 1_555
Ga0_1 Mg0_3 2.966517 1_545
Ga0_1 Mg0_1 2.966520 1_555
Ga0_2 Ga1_0 2.929467 1_555
Ga0_2 Ga1_6 2.929467 1_555
Ga0_2 Ga1_2 2.929470 1_555
Ga0_2 Mg0_0 2.966517 1_555
Ga0_2 Mg0_6 2.966517 1_555
Ga0_2 Mg0_2 2.966520 1_555
Ga0_3 Ga1_7 2.929467 1_555
Ga0_3 Ga1_1 2.929467 1_555
Ga0_3 Ga1_3 2.929470 1_555
Ga0_3 Mg0_1 2.966517 1_555
Ga0_3 Mg0_7 2.966517 1_555
Ga0_3 Mg0_3 2.966520 1_555
Ga0_4 Ga1_6 2.929467 1_545
Ga0_4 Ga1_0 2.929467 1_655
Ga0_4 Ga1_4 2.929470 1_555
Ga0_4 Mg0_6 2.966517 1_545
Ga0_4 Mg0_0 2.966517 1_655
Ga0_4 Mg0_4 2.966520 1_555
Ga0_5 Ga1_7 2.929467 1_545
Ga0_5 Ga1_1 2.929467 1_655
Ga0_5 Ga1_5 2.929470 1_555
Ga0_5 Mg0_7 2.966517 1_545
Ga0_5 Mg0_1 2.966517 1_655
Ga0_5 Mg0_5 2.966520 1_555
Ga0_6 Ga1_2 2.929467 1_655
Ga0_6 Ga1_4 2.929467 1_555
Ga0_6 Ga1_6 2.929470 1_555
Ga0_6 Mg0_2 2.966517 1_655
Ga0_6 Mg0_4 2.966517 1_555
Ga0_6 Mg0_6 2.966520 1_555
Ga0_7 Ga1_3 2.929467 1_655
Ga0_7 Ga1_5 2.929467 1_555
Ga0_7 Ga1_7 2.929470 1_555
Ga0_7 Mg0_3 2.966517 1_655
Ga0_7 Mg0_5 2.966517 1_555
Ga0_7 Mg0_7 2.966520 1_555
Ga1_0 Ga2_4 3.055830 1_455
Ga1_0 Ga2_2 3.055830 1_555
Ga1_0 Ga2_0 3.055833 1_555
Ga1_0 Ga1_2 3.074649 1_545
Ga1_0 Ga1_4 3.074649 1_455
Ga1_0 Ga1_2 3.074649 1_555
Ga1_0 Ga1_4 3.074649 1_555
Ga1_0 Ga1_6 3.074650 1_445
Ga1_0 Ga1_6 3.074650 1_555
Ga1_1 Ga2_5 3.055830 1_455
Ga1_1 Ga2_3 3.055830 1_555
Ga1_1 Ga2_1 3.055833 1_555
Ga1_1 Ga1_3 3.074649 1_545
Ga1_1 Ga1_5 3.074649 1_455
Ga1_1 Ga1_5 3.074649 1_555
Ga1_1 Ga1_3 3.074649 1_555
Ga1_1 Ga1_7 3.074650 1_445
Ga1_1 Ga1_7 3.074650 1_555
Ga1_2 Ga2_6 3.055830 1_455
Ga1_2 Ga2_0 3.055830 1_565
Ga1_2 Ga2_2 3.055833 1_555
Ga1_2 Ga1_6 3.074649 1_455
Ga1_2 Ga1_6 3.074649 1_555
Ga1_2 Ga1_4 3.074650 1_565
Ga1_2 Ga1_4 3.074650 1_455
Ga1_3 Ga2_7 3.055830 1_455
Ga1_3 Ga2_1 3.055830 1_565
Ga1_3 Ga2_3 3.055833 1_555
Ga1_3 Ga1_7 3.074649 1_455
Ga1_3 Ga1_7 3.074649 1_555
Ga1_3 Ga1_5 3.074650 1_565
Ga1_3 Ga1_5 3.074650 1_455
Ga1_4 Ga2_6 3.055830 1_555
Ga1_4 Ga2_0 3.055830 1_555
Ga1_4 Ga2_4 3.055833 1_555
Ga1_4 Ga1_6 3.074649 1_555
Ga1_4 Ga1_6 3.074649 1_545
Ga1_5 Ga2_7 3.055830 1_555
Ga1_5 Ga2_1 3.055830 1_555
Ga1_5 Ga2_5 3.055833 1_555
Ga1_5 Ga1_7 3.074649 1_555
Ga1_5 Ga1_7 3.074649 1_545
Ga1_6 Ga2_4 3.055830 1_565
Ga1_6 Ga2_2 3.055830 1_555
Ga1_6 Ga2_6 3.055833 1_555
Ga1_7 Ga2_5 3.055830 1_565
Ga1_7 Ga2_3 3.055830 1_555
Ga1_7 Ga2_7 3.055833 1_555
Ga2_0 Ga3_2 2.929467 1_545
Ga2_0 Ga3_4 2.929467 1_555
Ga2_0 Ga3_0 2.929470 1_555
Ga2_0 Ga2_4 3.074649 1_455
Ga2_0 Ga2_2 3.074649 1_545
Ga2_0 Ga2_4 3.074649 1_555
Ga2_0 Ga2_2 3.074649 1_555
Ga2_0 Ga2_6 3.074650 1_445
Ga2_0 Ga2_6 3.074650 1_555
Ga2_1 Ga3_3 2.929467 1_545
Ga2_1 Ga3_5 2.929467 1_555
Ga2_1 Ga3_1 2.929470 1_555
Ga2_1 Ga2_3 3.074649 1_545
Ga2_1 Ga2_5 3.074649 1_455
Ga2_1 Ga2_3 3.074649 1_555
Ga2_1 Ga2_5 3.074649 1_555
Ga2_1 Ga2_7 3.074650 1_445
Ga2_1 Ga2_7 3.074650 1_555
Ga2_2 Ga3_0 2.929467 1_555
Ga2_2 Ga3_6 2.929467 1_555
Ga2_2 Ga3_2 2.929470 1_555
Ga2_2 Ga2_6 3.074649 1_555
Ga2_2 Ga2_6 3.074649 1_455
Ga2_2 Ga2_4 3.074650 1_565
Ga2_2 Ga2_4 3.074650 1_455
Ga2_3 Ga3_1 2.929467 1_555
Ga2_3 Ga3_7 2.929467 1_555
Ga2_3 Ga3_3 2.929470 1_555
Ga2_3 Ga2_7 3.074649 1_455
Ga2_3 Ga2_7 3.074649 1_555
Ga2_3 Ga2_5 3.074650 1_565
Ga2_3 Ga2_5 3.074650 1_455
Ga2_4 Ga3_0 2.929467 1_655
Ga2_4 Ga3_6 2.929467 1_545
Ga2_4 Ga3_4 2.929470 1_555
Ga2_4 Ga2_6 3.074649 1_545
Ga2_4 Ga2_6 3.074649 1_555
Ga2_5 Ga3_7 2.929467 1_545
Ga2_5 Ga3_1 2.929467 1_655
Ga2_5 Ga3_5 2.929470 1_555
Ga2_5 Ga2_7 3.074649 1_545
Ga2_5 Ga2_7 3.074649 1_555
Ga2_6 Ga3_2 2.929467 1_655
Ga2_6 Ga3_4 2.929467 1_555
Ga2_6 Ga3_6 2.929470 1_555
Ga2_7 Ga3_3 2.929467 1_655
Ga2_7 Ga3_5 2.929467 1_555
Ga2_7 Ga3_7 2.929470 1_555
Ga3_0 Mg1_4 2.966517 1_455
Ga3_0 Mg1_2 2.966517 1_555
Ga3_0 Mg1_0 2.966520 1_555
Ga3_1 Mg1_3 2.966517 1_555
Ga3_1 Mg1_5 2.966517 1_455
Ga3_1 Mg1_1 2.966520 1_555
Ga3_2 Mg1_0 2.966517 1_565
Ga3_2 Mg1_6 2.966517 1_455
Ga3_2 Mg1_2 2.966520 1_555
Ga3_3 Mg1_7 2.966517 1_455
Ga3_3 Mg1_1 2.966517 1_565
Ga3_3 Mg1_3 2.966520 1_555
Ga3_4 Mg1_0 2.966517 1_555
Ga3_4 Mg1_6 2.966517 1_555
Ga3_4 Mg1_4 2.966520 1_555
Ga3_5 Mg1_1 2.966517 1_555
Ga3_5 Mg1_7 2.966517 1_555
Ga3_5 Mg1_5 2.966520 1_555
Ga3_6 Mg1_4 2.966517 1_565
Ga3_6 Mg1_2 2.966517 1_555
Ga3_6 Mg1_6 2.966520 1_555
Ga3_7 Mg1_5 2.966517 1_565
Ga3_7 Mg1_3 2.966517 1_555
Ga3_7 Mg1_7 2.966520 1_555
