# generated using pymatgen
data_ReIrBr6N5Cl
_symmetry_space_group_name_H-M   'P 1'
_cell_length_a   8.37874100
_cell_length_b   11.43134732
_cell_length_c   16.11511095
_cell_angle_alpha   76.07767085
_cell_angle_beta   89.12653420
_cell_angle_gamma   89.49825098
_symmetry_Int_Tables_number   1
_chemical_formula_structural   ReIrBr6N5Cl
_chemical_formula_sum   'Re4 Ir4 Br24 N20 Cl4'
_cell_volume   1497.97142686
_cell_formula_units_Z   4
loop_
 _symmetry_equiv_pos_site_id
 _symmetry_equiv_pos_as_xyz
  1  'x, y, z'
loop_
 _atom_site_type_symbol
 _atom_site_label
 _atom_site_symmetry_multiplicity
 _atom_site_fract_x
 _atom_site_fract_y
 _atom_site_fract_z
 _atom_site_occupancy
  Re  Re0  1  0.75789500  0.21601400  0.85863900  1
  Re  Re1  1  0.24210500  0.78398600  0.14136100  1
  Re  Re2  1  0.75443000  0.19895000  0.36308300  1
  Re  Re3  1  0.24557000  0.80105000  0.63691700  1
  Ir  Ir0  1  0.73130500  0.72890300  0.86538300  1
  Ir  Ir1  1  0.26869500  0.27109700  0.13461700  1
  Ir  Ir2  1  0.72965000  0.71666400  0.38115000  1
  Ir  Ir3  1  0.27035000  0.28333600  0.61885000  1
  Br  Br0  1  0.75255900  0.02190500  0.97267100  1
  Br  Br1  1  0.24744100  0.97809500  0.02732900  1
  Br  Br2  1  0.77511500  0.33301000  0.96449700  1
  Br  Br3  1  0.22488500  0.66699000  0.03550300  1
  Br  Br4  1  0.46688500  0.22378700  0.86260900  1
  Br  Br5  1  0.53311500  0.77621300  0.13739100  1
  Br  Br6  1  0.74319900  0.09076500  0.75232700  1
  Br  Br7  1  0.25680100  0.90923500  0.24767300  1
  Br  Br8  1  0.04840800  0.20291700  0.85024300  1
  Br  Br9  1  0.95159200  0.79708300  0.14975700  1
  Br  Br10  1  0.75992700  0.39936500  0.74160600  1
  Br  Br11  1  0.24007300  0.60063500  0.25839400  1
  Br  Br12  1  0.97310500  0.33833400  0.36146400  1
  Br  Br13  1  0.02689500  0.66166600  0.63853600  1
  Br  Br14  1  0.73879000  0.15529400  0.51856400  1
  Br  Br15  1  0.26121000  0.84470600  0.48143600  1
  Br  Br16  1  0.55130800  0.35564400  0.35294700  1
  Br  Br17  1  0.44869200  0.64435600  0.64705300  1
  Br  Br18  1  0.77052700  0.24406800  0.20387800  1
  Br  Br19  1  0.22947300  0.75593200  0.79612200  1
  Br  Br20  1  0.95095100  0.03323200  0.37063500  1
  Br  Br21  1  0.04904900  0.96676800  0.62936500  1
  Br  Br22  1  0.54363500  0.04966700  0.36069500  1
  Br  Br23  1  0.45636500  0.95033300  0.63930500  1
  N  N0  1  0.71736200  0.79205200  0.75709800  1
  N  N1  1  0.28263800  0.20794800  0.24290200  1
  N  N2  1  0.54048600  0.77284900  0.91766800  1
  N  N3  1  0.45951400  0.22715100  0.08233200  1
  N  N4  1  0.63098000  0.56815900  0.87601600  1
  N  N5  1  0.36902000  0.43184100  0.12398400  1
  N  N6  1  0.93598300  0.62459600  0.86249400  1
  N  N7  1  0.06401700  0.37540400  0.13750600  1
  N  N8  1  0.86913400  0.82744400  0.90943900  1
  N  N9  1  0.13086600  0.17255600  0.09056100  1
  N  N10  1  0.75620600  0.85512900  0.30830100  1
  N  N11  1  0.24379400  0.14487100  0.69169900  1
  N  N12  1  0.75578000  0.60157700  0.31708000  1
  N  N13  1  0.24422000  0.39842300  0.68292000  1
  N  N14  1  0.51153800  0.70256900  0.40641600  1
  N  N15  1  0.48846200  0.29743100  0.59358400  1
  N  N16  1  0.76752400  0.76261800  0.49054600  1
  N  N17  1  0.23247600  0.23738200  0.50945400  1
  N  N18  1  0.97712500  0.67106000  0.40385100  1
  N  N19  1  0.02287500  0.32894000  0.59614900  1
  Cl  Cl0  1  0.77277300  0.61551600  0.02662700  1
  Cl  Cl1  1  0.22722700  0.38448400  0.97337300  1
  Cl  Cl2  1  0.73097800  0.51527800  0.49814800  1
  Cl  Cl3  1  0.26902200  0.48472200  0.50185200  1
loop_
_geom_bond_atom_site_label_1
_geom_bond_atom_site_label_2
_geom_bond_distance
_geom_bond_site_symmetry_2
Ir0 N0 1.725811 1_555
Ir0 N8 1.881283 1_555
Ir0 N2 1.914965 1_555
Ir0 N4 1.995894 1_555
Ir0 N6 2.086483 1_555
Ir1 N1 1.725811 1_555
Ir1 N9 1.881283 1_555
Ir1 N3 1.914965 1_555
Ir1 N5 1.995894 1_555
Ir1 N7 2.086483 1_555
Ir2 N10 1.742731 1_555
Ir2 N14 1.866123 1_555
Ir2 N12 1.867217 1_555
Ir2 N16 1.987511 1_555
Ir2 N18 2.148847 1_555
Ir3 N11 1.742731 1_555
Ir3 N15 1.866123 1_555
Ir3 N13 1.867217 1_555
Ir3 N17 1.987511 1_555
Ir3 N19 2.148847 1_555
Br0 Re0 2.517856 1_555
Br1 Re1 2.517856 1_555
Br2 Re0 2.414216 1_555
Br3 Re1 2.414216 1_555
Br4 Re0 2.439563 1_555
Br5 Re1 2.439563 1_555
Br6 Re0 2.488006 1_555
Br7 Re1 2.488006 1_555
Br8 Re0 2.441117 1_455
Br9 Re1 2.441117 1_655
Br10 Re0 2.459211 1_555
Br11 Re1 2.459211 1_555
Br12 Re2 2.434366 1_555
Br13 Re3 2.434366 1_555
Br14 Re2 2.435907 1_555
Br15 Re3 2.435907 1_555
Br16 Re2 2.438429 1_555
Br17 Re3 2.438429 1_555
Br18 Re2 2.494082 1_555
Br19 Re3 2.494082 1_555
Br20 Re2 2.480990 1_555
Br21 Re3 2.480990 1_555
Br22 Re2 2.473774 1_555
Br23 Re3 2.473774 1_555
Cl0 Ir0 2.636604 1_554
Cl1 Ir1 2.636604 1_556
Cl2 Ir2 2.601194 1_555
Cl3 Ir3 2.601194 1_555
