# generated using pymatgen
data_Yb3Ga8
_symmetry_space_group_name_H-M   'P 1'
_cell_length_a   4.19561700
_cell_length_b   4.31360400
_cell_length_c   13.31739415
_cell_angle_alpha   80.67968258
_cell_angle_beta   80.93679142
_cell_angle_gamma   90.00000000
_symmetry_Int_Tables_number   1
_chemical_formula_structural   Yb3Ga8
_chemical_formula_sum   'Yb3 Ga8'
_cell_volume   234.78949963
_cell_formula_units_Z   1
loop_
 _symmetry_equiv_pos_site_id
 _symmetry_equiv_pos_as_xyz
  1  'x, y, z'
loop_
 _atom_site_type_symbol
 _atom_site_label
 _atom_site_symmetry_multiplicity
 _atom_site_fract_x
 _atom_site_fract_y
 _atom_site_fract_z
 _atom_site_occupancy
  Yb  Yb0  1  0.85091200  0.35091200  0.29817600  1
  Yb  Yb1  1  0.14908800  0.64908800  0.70182400  1
  Yb  Yb2  1  0.00000000  0.00000000  0.00000000  1
  Ga  Ga0  1  0.25016100  0.25016100  0.49967800  1
  Ga  Ga1  1  0.74983900  0.74983900  0.50032200  1
  Ga  Ga2  1  0.59488300  0.09488300  0.81023400  1
  Ga  Ga3  1  0.40511700  0.90511700  0.18976600  1
  Ga  Ga4  1  0.69082000  0.19082000  0.61836100  1
  Ga  Ga5  1  0.30918000  0.80918000  0.38163900  1
  Ga  Ga6  1  0.45144400  0.45144400  0.09711200  1
  Ga  Ga7  1  0.54855600  0.54855600  0.90288800  1
loop_
_geom_bond_atom_site_label_1
_geom_bond_atom_site_label_2
_geom_bond_distance
_geom_bond_site_symmetry_2
Ga0 Ga4 2.602194 1_455
Ga0 Ga4 2.602197 1_555
Ga0 Ga5 2.645137 1_555
Ga0 Ga5 2.645140 1_545
Ga0 Ga1 3.008765 1_445
Ga0 Ga1 3.008765 1_455
Ga0 Ga1 3.008765 1_545
Ga0 Ga1 3.008765 1_555
Ga0 Yb0 3.351762 1_555
Ga0 Yb0 3.351762 1_455
Ga0 Yb1 3.395446 1_545
Ga0 Yb1 3.395446 1_555
Ga1 Ga5 2.602194 1_655
Ga1 Ga5 2.602197 1_555
Ga1 Ga4 2.645137 1_555
Ga1 Ga4 2.645140 1_565
Ga1 Yb1 3.351762 1_555
Ga1 Yb1 3.351762 1_655
Ga1 Yb0 3.395446 1_565
Ga1 Yb0 3.395446 1_555
Ga2 Ga7 2.469132 1_545
Ga2 Ga7 2.469132 1_555
Ga2 Ga4 2.489181 1_555
Ga2 Yb2 3.234422 1_556
Ga2 Yb2 3.234422 1_656
Ga2 Yb1 3.321232 1_645
Ga2 Yb1 3.321232 1_655
Ga2 Yb1 3.321232 1_545
Ga2 Yb1 3.321232 1_555
Ga3 Ga6 2.469132 1_555
Ga3 Ga6 2.469132 1_565
Ga3 Ga5 2.489181 1_555
Ga3 Yb2 3.234422 1_665
Ga3 Yb2 3.234422 1_565
Ga3 Yb0 3.321232 1_455
Ga3 Yb0 3.321232 1_465
Ga3 Yb0 3.321232 1_555
Ga3 Yb0 3.321232 1_565
Ga4 Yb1 3.197651 1_655
Ga4 Yb1 3.197653 1_555
Ga4 Yb1 3.197654 1_645
Ga4 Yb1 3.197656 1_545
Ga5 Yb0 3.197651 1_455
Ga5 Yb0 3.197653 1_555
Ga5 Yb0 3.197654 1_465
Ga5 Yb0 3.197656 1_565
Ga6 Ga7 2.519680 1_554
Ga6 Yb2 3.261869 1_665
Ga6 Yb2 3.261869 1_655
Ga6 Yb2 3.261870 1_565
Ga6 Yb2 3.261870 1_555
Ga6 Yb0 3.347332 1_455
Ga6 Yb0 3.347333 1_555
Ga7 Yb2 3.261869 1_556
Ga7 Yb2 3.261869 1_566
Ga7 Yb2 3.261870 1_666
Ga7 Yb2 3.261870 1_656
Ga7 Yb1 3.347332 1_655
Ga7 Yb1 3.347333 1_555
