# generated using pymatgen
data_Ca2LaRuO6
_symmetry_space_group_name_H-M   'P 1'
_cell_length_a   5.65444986
_cell_length_b   5.91143600
_cell_length_c   8.14967729
_cell_angle_alpha   90.00000000
_cell_angle_beta   90.21030420
_cell_angle_gamma   90.00000000
_symmetry_Int_Tables_number   1
_chemical_formula_structural   Ca2LaRuO6
_chemical_formula_sum   'Ca4 La2 Ru2 O12'
_cell_volume   272.40861383
_cell_formula_units_Z   2
loop_
 _symmetry_equiv_pos_site_id
 _symmetry_equiv_pos_as_xyz
  1  'x, y, z'
loop_
 _atom_site_type_symbol
 _atom_site_label
 _atom_site_symmetry_multiplicity
 _atom_site_fract_x
 _atom_site_fract_y
 _atom_site_fract_z
 _atom_site_occupancy
  Ca  Ca0  1  0.98474400  0.05799500  0.24745900  1
  Ca  Ca1  1  0.48474400  0.44200500  0.74745900  1
  Ca  Ca2  1  0.50027100  0.00460100  0.49925700  1
  Ca  Ca3  1  0.00027100  0.49539900  0.99925700  1
  La  La0  1  0.01482400  0.94402000  0.75279500  1
  La  La1  1  0.51482400  0.55598000  0.25279500  1
  Ru  Ru0  1  0.00055800  0.49943900  0.50063600  1
  Ru  Ru1  1  0.50055800  0.00056100  0.00063600  1
  O  O0  1  0.28665500  0.67954600  0.55331600  1
  O  O1  1  0.78665500  0.82045400  0.05331600  1
  O  O2  1  0.71533900  0.32004600  0.44711500  1
  O  O3  1  0.21533900  0.17995400  0.94711500  1
  O  O4  1  0.11024000  0.45010400  0.27076700  1
  O  O5  1  0.61024000  0.04989600  0.77076700  1
  O  O6  1  0.88608500  0.54567800  0.72880100  1
  O  O7  1  0.38608500  0.95432200  0.22880100  1
  O  O8  1  0.17370100  0.21874200  0.56487500  1
  O  O9  1  0.67370100  0.28125800  0.06487500  1
  O  O10  1  0.82758300  0.78148600  0.43497900  1
  O  O11  1  0.32758300  0.71851400  0.93497900  1
loop_
_geom_bond_atom_site_label_1
_geom_bond_atom_site_label_2
_geom_bond_distance
_geom_bond_site_symmetry_2
Ca0 O7 2.356110 1_645
Ca0 O1 2.390972 1_545
Ca0 O10 2.409765 1_545
Ca0 O4 2.431343 1_655
Ca0 O9 2.651437 1_555
Ca0 O2 2.717722 1_555
Ca0 O3 2.869598 1_654
Ca0 O8 2.952285 1_655
Ca1 O6 2.356110 1_555
Ca1 O0 2.390972 1_555
Ca1 O11 2.409765 1_555
Ca1 O5 2.431343 1_555
Ca1 O8 2.651437 1_555
Ca1 O3 2.717722 1_555
Ca1 O2 2.869598 1_555
Ca1 O9 2.952285 1_556
Ca2 O2 2.267262 1_555
Ca2 O8 2.303370 1_555
Ca2 O5 2.311790 1_555
Ca2 O0 2.312856 1_545
Ca2 O7 2.313645 1_545
Ca2 O10 2.333764 1_545
Ca3 O3 2.267262 1_555
Ca3 O9 2.303370 1_456
Ca3 O4 2.311790 1_556
Ca3 O1 2.312856 1_456
Ca3 O6 2.313645 1_455
Ca3 O11 2.333764 1_555
La0 O5 2.376806 1_465
La0 O3 2.392796 1_565
La0 O8 2.408317 1_565
La0 O6 2.472258 1_455
La0 O11 2.662661 1_555
La0 O0 2.732770 1_555
La0 O1 2.866989 1_456
La0 O10 2.955092 1_455
La1 O4 2.376806 1_555
La1 O2 2.392796 1_555
La1 O9 2.408317 1_555
La1 O7 2.472258 1_555
La1 O10 2.662661 1_555
La1 O1 2.732770 1_555
La1 O0 2.866989 1_555
La1 O11 2.955092 1_554
O0 Ru0 1.982375 1_555
O1 Ru1 1.982375 1_565
O2 Ru0 1.977541 1_655
O3 Ru1 1.977541 1_556
O4 Ru0 1.996921 1_555
O5 Ru1 1.996921 1_556
O6 Ru0 1.990014 1_655
O7 Ru1 1.990014 1_565
O8 Ru0 1.995536 1_555
O9 Ru1 1.995536 1_555
O10 Ru0 2.004746 1_655
O11 Ru1 2.004746 1_566
