# generated using pymatgen
data_La4Sm4Co7AgO20
_symmetry_space_group_name_H-M   'P 1'
_cell_length_a   10.77460862
_cell_length_b   11.45922384
_cell_length_c   17.69349558
_cell_angle_alpha   108.92212737
_cell_angle_beta   107.69853581
_cell_angle_gamma   89.96437697
_symmetry_Int_Tables_number   1
_chemical_formula_structural   La4Sm4Co7AgO20
_chemical_formula_sum   'La16 Sm16 Co28 Ag4 O80'
_cell_volume   1957.05991720
_cell_formula_units_Z   4
loop_
 _symmetry_equiv_pos_site_id
 _symmetry_equiv_pos_as_xyz
  1  'x, y, z'
loop_
 _atom_site_type_symbol
 _atom_site_label
 _atom_site_symmetry_multiplicity
 _atom_site_fract_x
 _atom_site_fract_y
 _atom_site_fract_z
 _atom_site_occupancy
  La  La0  1  0.30904925  0.06199581  0.61135418  1
  La  La1  1  0.31070087  0.56538249  0.61593463  1
  La  La2  1  0.80581557  0.06575669  0.60972172  1
  La  La3  1  0.80831138  0.56686930  0.61418304  1
  La  La4  1  0.19699794  0.43327190  0.38649635  1
  La  La5  1  0.19382552  0.43778852  0.88740869  1
  La  La6  1  0.69633265  0.43320318  0.38684833  1
  La  La7  1  0.69172855  0.93270134  0.38407525  1
  La  La8  1  0.05771803  0.29663370  0.61139493  1
  La  La9  1  0.05757709  0.80171468  0.61444302  1
  La  La10  1  0.55887673  0.29701466  0.61334355  1
  La  La11  1  0.44476448  0.20334217  0.38578471  1
  La  La12  1  0.44578906  0.19966661  0.88806801  1
  La  La13  1  0.94476343  0.20079474  0.38486323  1
  La  La14  1  0.94480744  0.20497488  0.88998493  1
  La  La15  1  0.94479586  0.70199549  0.38617153  1
  Sm  Sm0  1  0.30180371  0.06917851  0.10911619  1
  Sm  Sm1  1  0.30297168  0.56686981  0.11074346  1
  Sm  Sm2  1  0.80423178  0.06716513  0.11015677  1
  Sm  Sm3  1  0.80523252  0.56344442  0.11047501  1
  Sm  Sm4  1  0.19652370  0.93050235  0.38702722  1
  Sm  Sm5  1  0.19248795  0.93704296  0.89149741  1
  Sm  Sm6  1  0.69471204  0.43428569  0.89041518  1
  Sm  Sm7  1  0.69392053  0.93397964  0.89048463  1
  Sm  Sm8  1  0.05401185  0.29295224  0.11009057  1
  Sm  Sm9  1  0.05615000  0.79377750  0.11128823  1
  Sm  Sm10  1  0.55404043  0.29352410  0.10996319  1
  Sm  Sm11  1  0.55385054  0.79330273  0.11044196  1
  Sm  Sm12  1  0.55718598  0.79233369  0.61044362  1
  Sm  Sm13  1  0.44629824  0.70791115  0.38848551  1
  Sm  Sm14  1  0.44596564  0.70566869  0.89130886  1
  Sm  Sm15  1  0.94256712  0.70832231  0.89141043  1
  Co  Co0  1  0.00628657  0.00029821  0.00225312  1
  Co  Co1  1  0.00786999  0.99981947  0.50094723  1
  Co  Co2  1  0.00490831  0.50140246  0.00058541  1
  Co  Co3  1  0.00407093  0.49853939  0.49496459  1
  Co  Co4  1  0.50954564  0.00115166  0.00702317  1
  Co  Co5  1  0.50365150  0.99755776  0.49700471  1
  Co  Co6  1  0.50991990  0.50266014  0.00603908  1
  Co  Co7  1  0.50407426  0.50071353  0.49748277  1
  Co  Co8  1  0.25773229  0.25301001  0.00356554  1
  Co  Co9  1  0.25420814  0.24535189  0.49409730  1
  Co  Co10  1  0.25982650  0.75586435  0.00715175  1
  Co  Co11  1  0.25438345  0.74604496  0.49504077  1
  Co  Co12  1  0.75725857  0.25187575  0.00352879  1
  Co  Co13  1  0.75437146  0.25025268  0.49945471  1
  Co  Co14  1  0.75580986  0.74868166  0.99859831  1
  Co  Co15  1  0.75459534  0.74954936  0.49926632  1
  Co  Co16  1  0.10704464  0.09198940  0.24631629  1
  Co  Co17  1  0.10387338  0.09945191  0.75291458  1
  Co  Co18  1  0.10811211  0.59392840  0.24668241  1
  Co  Co19  1  0.59847350  0.09317929  0.24546757  1
  Co  Co20  1  0.61288495  0.09468576  0.75149687  1
  Co  Co21  1  0.60308491  0.59310433  0.24671812  1
  Co  Co22  1  0.61826383  0.60009733  0.75364002  1
  Co  Co23  1  0.35624331  0.40726237  0.24705611  1
  Co  Co24  1  0.35865558  0.90505751  0.24741836  1
  Co  Co25  1  0.85532612  0.40201517  0.24528352  1
  Co  Co26  1  0.85961948  0.40864882  0.75339355  1
  Co  Co27  1  0.86156179  0.90536614  0.75256536  1
  Ag  Ag0  1  0.12045397  0.62052612  0.75293986  1
  Ag  Ag1  1  0.37357159  0.38378847  0.75170050  1
  Ag  Ag2  1  0.36572084  0.88248067  0.75191208  1
  Ag  Ag3  1  0.86665295  0.88342381  0.24703175  1
  O  O0  1  0.12168956  0.11310928  0.47857905  1
  O  O1  1  0.12111574  0.11827768  0.98552899  1
  O  O2  1  0.11705931  0.61340612  0.47187016  1
  O  O3  1  0.11781610  0.62606583  0.98519773  1
  O  O4  1  0.61916837  0.11732239  0.48277528  1
  O  O5  1  0.62263018  0.12068348  0.98719901  1
  O  O6  1  0.61752513  0.62148075  0.48225389  1
  O  O7  1  0.61860629  0.61855694  0.98002442  1
  O  O8  1  0.13926376  0.38467180  0.02491128  1
  O  O9  1  0.13445842  0.37616262  0.50968214  1
  O  O10  1  0.13941792  0.88603115  0.02313468  1
  O  O11  1  0.14109925  0.88031203  0.51971374  1
  O  O12  1  0.64391289  0.38559988  0.02872018  1
  O  O13  1  0.63529927  0.38274257  0.51567295  1
  O  O14  1  0.64385094  0.88289022  0.02731051  1
  O  O15  1  0.63256580  0.87661268  0.51598682  1
  O  O16  1  0.36484721  0.10508506  0.47366435  1
  O  O17  1  0.36793026  0.11037327  0.98547415  1
  O  O18  1  0.37111608  0.61337274  0.47349715  1
  O  O19  1  0.37499003  0.61942490  0.99013313  1
  O  O20  1  0.87015950  0.11440202  0.48367584  1
  O  O21  1  0.86774033  0.11028792  0.98350983  1
  O  O22  1  0.86764498  0.61521272  0.47981844  1
  O  O23  1  0.86336336  0.60709469  0.97226482  1
  O  O24  1  0.39262778  0.39205922  0.02833690  1
  O  O25  1  0.38507617  0.38544760  0.51248952  1
  O  O26  1  0.39504699  0.89460958  0.03310094  1
  O  O27  1  0.38637344  0.88021550  0.51036054  1
  O  O28  1  0.88805498  0.38924718  0.02137835  1
  O  O29  1  0.88454642  0.38567286  0.51460799  1
  O  O30  1  0.88775184  0.88693365  0.01792685  1
  O  O31  1  0.88674364  0.88380715  0.51743407  1
  O  O32  1  0.09870420  0.11320642  0.13927269  1
  O  O33  1  0.08743895  0.10450577  0.64010337  1
  O  O34  1  0.09623929  0.61377789  0.13900966  1
  O  O35  1  0.08562945  0.60538767  0.62321171  1
  O  O36  1  0.60196177  0.11618890  0.14194733  1
  O  O37  1  0.58927748  0.10718736  0.63880486  1
  O  O38  1  0.60026249  0.61401808  0.14109880  1
  O  O39  1  0.58822300  0.61064505  0.63854074  1
  O  O40  1  0.44819506  0.39084878  0.35686248  1
  O  O41  1  0.46858709  0.39499381  0.87959729  1
  O  O42  1  0.44790427  0.88921932  0.35845792  1
  O  O43  1  0.47376569  0.89412732  0.87973705  1
  O  O44  1  0.94125468  0.39172395  0.35724300  1
  O  O45  1  0.95000995  0.39017303  0.86312047  1
  O  O46  1  0.96724148  0.89429800  0.37382495  1
  O  O47  1  0.95822193  0.89094402  0.86291655  1
  O  O48  1  0.34869026  0.27888026  0.14105943  1
  O  O49  1  0.33464373  0.27076723  0.62217394  1
  O  O50  1  0.34232675  0.77495077  0.14084260  1
  O  O51  1  0.34634110  0.76868507  0.62397955  1
  O  O52  1  0.85048552  0.27776878  0.13853531  1
  O  O53  1  0.83173360  0.28379676  0.64012939  1
  O  O54  1  0.84782775  0.76190590  0.12282469  1
  O  O55  1  0.83436801  0.78202973  0.63987819  1
  O  O56  1  0.20011729  0.21698245  0.35710112  1
  O  O57  1  0.20068352  0.22138225  0.86406870  1
  O  O58  1  0.20372028  0.71913032  0.35529981  1
  O  O59  1  0.22437435  0.73783122  0.87990139  1
  O  O60  1  0.69376545  0.21564077  0.35746120  1
  O  O61  1  0.70312860  0.22278817  0.86288293  1
  O  O62  1  0.69219559  0.71718089  0.35792055  1
  O  O63  1  0.71059800  0.72880278  0.86338317  1
  O  O64  1  0.40668751  0.07324103  0.24427413  1
  O  O65  1  0.42610714  0.08863762  0.75055790  1
  O  O66  1  0.41289645  0.57566373  0.24858774  1
  O  O67  1  0.43181236  0.59608223  0.75655805  1
  O  O68  1  0.91962165  0.09038862  0.24470311  1
  O  O69  1  0.91053101  0.07459869  0.75034015  1
  O  O70  1  0.91662741  0.56728347  0.24416651  1
  O  O71  1  0.88381714  0.58098207  0.75561764  1
  O  O72  1  0.16394227  0.42501192  0.24329113  1
  O  O73  1  0.13227500  0.40903727  0.74963610  1
  O  O74  1  0.16691338  0.92480551  0.24858913  1
  O  O75  1  0.14001877  0.93236247  0.75664994  1
  O  O76  1  0.66359807  0.42561723  0.24425567  1
  O  O77  1  0.66655627  0.42830247  0.75521529  1
  O  O78  1  0.63196790  0.92421541  0.24538442  1
  O  O79  1  0.66935591  0.92568418  0.75178372  1
loop_
_geom_bond_atom_site_label_1
_geom_bond_atom_site_label_2
_geom_bond_distance
_geom_bond_site_symmetry_2
La0 O65 2.318263 1_555
La0 O49 2.346862 1_555
La0 O11 2.503898 1_545
La0 O27 2.591384 1_545
La0 O33 2.602653 1_555
La0 O0 2.818646 1_555
La0 O16 2.865567 1_555
La0 O37 2.927066 1_555
La1 O51 2.312571 1_555
La1 O67 2.340105 1_555
La1 O35 2.501563 1_555
La1 O25 2.585692 1_555
La1 O9 2.651905 1_555
La1 O39 2.917265 1_555
La1 O2 2.971217 1_555
La1 O18 2.995739 1_555
La2 O69 2.367149 1_555
La2 O53 2.376545 1_555
La2 O31 2.535596 1_545
La2 O37 2.550247 1_555
La2 O15 2.593116 1_545
La2 O20 2.740801 1_555
La2 O4 2.747988 1_555
La2 O33 2.923817 1_655
La3 O71 2.334570 1_555
La3 O55 2.358137 1_555
La3 O39 2.557430 1_555
La3 O29 2.568124 1_555
La3 O13 2.570811 1_555
La3 O6 2.845082 1_555
La3 O22 2.854160 1_555
La3 O35 2.968861 1_655
La4 O56 2.364131 1_555
La4 O72 2.419039 1_555
La4 O2 2.459903 1_555
La4 O18 2.517336 1_555
La4 O44 2.657474 1_455
La4 O25 2.724105 1_555
La4 O9 2.729757 1_555
La4 O40 2.921054 1_555
La5 O73 2.233179 1_555
La5 O57 2.383229 1_555
La5 O45 2.558692 1_455
La5 O3 2.599528 1_555
La5 O19 2.615403 1_555
La5 O8 2.909570 1_556
La5 O24 2.946012 1_556
La5 O41 3.037575 1_555
La6 O60 2.374290 1_555
La6 O76 2.411233 1_555
La6 O22 2.529144 1_555
La6 O40 2.576287 1_555
La6 O6 2.594719 1_555
La6 O29 2.743898 1_555
La6 O13 2.780099 1_555
La6 O44 2.853377 1_555
La7 O78 2.308768 1_555
La7 O62 2.360877 1_555
La7 O42 2.546876 1_555
La7 O4 2.562940 1_565
La7 O20 2.588875 1_565
La7 O31 2.852732 1_555
La7 O15 2.853936 1_555
La7 O46 3.051683 1_555
La8 O73 2.247318 1_555
La8 O33 2.415222 1_555
La8 O29 2.577443 1_455
La8 O9 2.592755 1_555
La8 O53 2.647728 1_455
La8 O20 2.778368 1_455
La8 O0 2.863224 1_555
La8 O49 2.952399 1_555
La9 O35 2.318156 1_555
La9 O75 2.358167 1_555
La9 O11 2.515455 1_555
La9 O31 2.518577 1_455
La9 O55 2.600383 1_455
La9 O22 2.858182 1_455
La10 O37 2.363687 1_555
La10 O77 2.385939 1_555
La10 O49 2.492577 1_555
La10 O13 2.568423 1_555
La10 O25 2.618522 1_555
La10 O4 2.797263 1_555
La10 O53 2.844214 1_555
La10 O16 2.941874 1_555
La11 O40 2.367446 1_555
La11 O64 2.369657 1_555
La11 O16 2.525404 1_555
La11 O56 2.543210 1_555
La11 O4 2.565517 1_555
La11 O25 2.763145 1_555
La11 O13 2.791928 1_555
La11 O60 2.886634 1_555
La12 O65 2.293978 1_555
La12 O41 2.309420 1_555
La12 O5 2.553738 1_555
La12 O57 2.569542 1_555
La12 O17 2.597101 1_555
La12 O12 2.937096 1_556
La12 O24 2.943174 1_556
La12 O61 2.964043 1_555
La13 O68 2.319726 1_555
La13 O44 2.389412 1_555
La13 O0 2.559188 1_655
La13 O20 2.580884 1_555
La13 O60 2.614098 1_555
La13 O9 2.734128 1_655
La13 O29 2.815821 1_555
La13 O56 2.954152 1_655
La14 O45 2.324546 1_555
La14 O69 2.350549 1_555
La14 O61 2.521111 1_555
La14 O1 2.566680 1_655
La14 O21 2.570255 1_555
La14 O28 2.813618 1_556
La14 O8 2.846962 1_656
La14 O57 2.944773 1_655
La15 O46 2.303742 1_555
La15 O70 2.410284 1_555
La15 O2 2.461617 1_655
La15 O22 2.516465 1_555
La15 O62 2.629880 1_555
La15 O31 2.805221 1_555
La15 O11 2.840302 1_655
La15 O58 3.019394 1_655
Co0 O30 1.961303 1_445
Co0 O21 1.973507 1_454
Co0 O10 1.974303 1_545
Co0 O1 1.982484 1_554
Co0 O32 2.245549 1_555
Co0 O47 2.266564 1_444
Co1 O0 1.994059 1_565
Co1 O20 2.000285 1_465
Co1 O31 2.010183 1_455
Co1 O11 2.012209 1_555
Co1 O46 2.085881 1_455
Co1 O33 2.244664 1_565
Co2 O28 1.990637 1_455
Co2 O23 1.992623 1_454
Co2 O3 2.012618 1_554
Co2 O8 2.015520 1_555
Co2 O45 2.237368 1_454
Co2 O34 2.261831 1_555
Co3 O22 2.002619 1_455
Co3 O29 2.004459 1_455
Co3 O9 2.004995 1_555
Co3 O2 2.008717 1_555
Co3 O35 2.099374 1_555
Co3 O44 2.226655 1_455
Co4 O26 1.984630 1_545
Co4 O17 1.998369 1_554
Co4 O14 2.014116 1_545
Co4 O5 2.014288 1_554
Co4 O43 2.099083 1_544
Co4 O36 2.223427 1_555
Co5 O27 1.962253 1_555
Co5 O16 1.969194 1_565
Co5 O4 1.978080 1_565
Co5 O15 1.994693 1_555
Co5 O42 2.245699 1_555
Co5 O37 2.296519 1_565
Co6 O19 1.994031 1_554
Co6 O24 1.997130 1_555
Co6 O12 2.009788 1_555
Co6 O7 2.018215 1_554
Co6 O41 2.080940 1_554
Co6 O38 2.212674 1_555
Co7 O18 1.970381 1_555
Co7 O25 1.973742 1_555
Co7 O6 1.981472 1_555
Co7 O13 1.983263 1_555
Co7 O40 2.279589 1_555
Co7 O39 2.285709 1_555
Co8 O8 1.992343 1_555
Co8 O24 2.001531 1_555
Co8 O1 2.012451 1_554
Co8 O17 2.018215 1_554
Co8 O48 2.247134 1_555
Co8 O57 2.258050 1_554
Co9 O0 1.976107 1_555
Co9 O9 1.983332 1_555
Co9 O16 2.004528 1_555
Co9 O25 2.014052 1_555
Co9 O49 2.085518 1_555
Co9 O56 2.225099 1_555
Co10 O10 1.983707 1_555
Co10 O3 1.992780 1_554
Co10 O26 1.996006 1_555
Co10 O19 1.998572 1_554
Co10 O59 2.105543 1_554
Co10 O50 2.195364 1_555
Co11 O2 1.974178 1_555
Co11 O11 1.983362 1_555
Co11 O18 1.987932 1_555
Co11 O27 1.989442 1_555
Co11 O51 2.120324 1_555
Co11 O58 2.278463 1_555
Co12 O5 1.978356 1_554
Co12 O12 1.980901 1_555
Co12 O28 1.993371 1_555
Co12 O21 2.014004 1_554
Co12 O52 2.210175 1_555
Co12 O61 2.285560 1_554
Co13 O29 1.987828 1_555
Co13 O13 1.993040 1_555
Co13 O4 1.994849 1_555
Co13 O20 1.996323 1_555
Co13 O53 2.270732 1_555
Co13 O60 2.291775 1_555
Co14 O7 1.976463 1_555
Co14 O14 1.985466 1_556
Co14 O30 2.000913 1_556
Co14 O23 2.007016 1_555
Co14 O54 2.072753 1_556
Co14 O63 2.225079 1_555
Co15 O6 1.967593 1_555
Co15 O22 1.969971 1_555
Co15 O15 1.972587 1_555
Co15 O31 1.975173 1_555
Co15 O55 2.273030 1_555
Co15 O62 2.284832 1_555
Co16 O32 1.962007 1_555
Co16 O56 1.971082 1_555
Co16 O68 2.010927 1_455
Co16 O74 2.029941 1_545
Co17 O33 1.969488 1_555
Co17 O57 1.969896 1_555
Co17 O75 1.971718 1_545
Co17 O69 2.087460 1_455
Co18 O58 1.955210 1_555
Co18 O34 1.957132 1_555
Co18 O72 2.014294 1_555
Co18 O70 2.070753 1_455
Co19 O36 1.944458 1_555
Co19 O78 1.968934 1_545
Co19 O60 1.977703 1_555
Co19 O64 2.072115 1_555
Co20 O37 1.984380 1_555
Co20 O61 1.986131 1_555
Co20 O65 2.008523 1_555
Co20 O79 2.030713 1_545
Co21 O38 1.951047 1_555
Co21 O62 1.963015 1_555
Co21 O76 2.017944 1_555
Co21 O66 2.070337 1_555
Co22 O63 1.976170 1_555
Co22 O39 2.006378 1_555
Co22 O67 2.026166 1_555
Co22 O77 2.042681 1_555
Co23 O48 1.950936 1_555
Co23 O40 1.964195 1_555
Co23 O66 2.013644 1_555
Co23 O72 2.064752 1_555
Co24 O50 1.945475 1_555
Co24 O42 1.974828 1_555
Co24 O64 2.018295 1_565
Co24 O74 2.083789 1_555
Co25 O52 1.947645 1_555
Co25 O44 1.957426 1_555
Co25 O70 2.014217 1_555
Co25 O76 2.078615 1_555
Co26 O45 1.969585 1_555
Co26 O71 1.978226 1_555
Co26 O53 1.981978 1_555
Co26 O77 2.101045 1_555
Co27 O55 1.968862 1_555
Co27 O47 1.974059 1_555
Co27 O69 2.025868 1_565
Co27 O79 2.080212 1_555
Ag0 O59 2.149661 1_555
Ag0 O35 2.158161 1_555
Ag0 O73 2.409408 1_555
Ag0 O71 2.607146 1_455
Ag1 O41 2.142097 1_555
Ag1 O49 2.143996 1_555
Ag1 O67 2.480485 1_555
Ag1 O73 2.606258 1_555
Ag2 O51 2.160180 1_555
Ag2 O43 2.166048 1_555
Ag2 O65 2.460271 1_565
Ag2 O75 2.517699 1_555
Ag3 O54 2.134116 1_555
Ag3 O46 2.136254 1_555
Ag3 O68 2.455916 1_565
Ag3 O78 2.564356 1_555
O0 Sm4 2.499291 1_545
O1 Sm5 2.491489 1_545
O1 Sm0 2.663931 1_556
O1 Sm8 2.737252 1_556
O3 Sm15 2.512911 1_455
O3 Sm9 2.689077 1_556
O3 Sm1 2.766875 1_556
O5 Sm7 2.553103 1_545
O5 Sm2 2.685767 1_556
O5 Sm10 2.714982 1_556
O6 Sm13 2.517854 1_555
O6 Sm12 2.723077 1_555
O7 Sm14 2.481758 1_555
O7 Sm6 2.502416 1_555
O7 Sm11 2.793152 1_556
O7 Sm3 2.809198 1_556
O8 Sm8 2.467813 1_555
O8 Sm1 2.469043 1_555
O10 Sm0 2.468951 1_565
O10 Sm9 2.505343 1_555
O10 Sm5 2.790464 1_554
O10 Sm15 2.828265 1_454
O11 Sm4 2.815606 1_555
O12 Sm3 2.414671 1_555
O12 Sm10 2.438970 1_555
O12 Sm6 2.880856 1_554
O14 Sm11 2.450633 1_555
O14 Sm2 2.459827 1_565
O14 Sm14 2.859571 1_554
O14 Sm7 2.865029 1_554
O15 Sm12 2.501725 1_555
O15 Sm13 2.697751 1_555
O16 Sm4 2.442652 1_545
O17 Sm5 2.496963 1_545
O17 Sm0 2.670999 1_556
O17 Sm10 2.756634 1_556
O18 Sm13 2.427151 1_555
O18 Sm12 2.815110 1_555
O19 Sm14 2.560015 1_555
O19 Sm11 2.641015 1_556
O19 Sm1 2.712896 1_556
O21 Sm7 2.504436 1_545
O21 Sm2 2.717466 1_556
O21 Sm8 2.767176 1_656
O23 Sm6 2.421818 1_555
O23 Sm15 2.437267 1_555
O23 Sm3 2.889216 1_556
O23 Sm9 2.903066 1_656
O24 Sm10 2.431767 1_555
O24 Sm1 2.455925 1_555
O26 Sm11 2.398369 1_555
O26 Sm0 2.427777 1_565
O26 Sm14 2.931771 1_554
O26 Sm5 2.956543 1_554
O27 Sm12 2.590346 1_555
O27 Sm13 2.654997 1_555
O27 Sm4 2.716316 1_555
O28 Sm3 2.465434 1_555
O28 Sm8 2.508608 1_655
O28 Sm6 2.795488 1_554
O30 Sm2 2.538311 1_565
O30 Sm9 2.545451 1_655
O30 Sm15 2.716578 1_554
O30 Sm7 2.767773 1_554
O32 Sm8 2.297476 1_555
O32 Sm0 2.421147 1_555
O32 Sm2 3.072874 1_455
O34 Sm9 2.282091 1_555
O34 Sm1 2.449927 1_555
O34 Sm3 3.044620 1_455
O36 Sm10 2.298536 1_555
O36 Sm2 2.433222 1_555
O36 Sm0 3.121522 1_555
O38 Sm11 2.306875 1_555
O38 Sm3 2.455429 1_555
O38 Sm1 3.099794 1_555
O39 Sm12 2.294143 1_555
O41 Sm6 2.416066 1_555
O42 Sm13 2.306676 1_555
O42 Sm4 2.913968 1_555
O43 Sm14 2.262816 1_555
O43 Sm7 2.354198 1_555
O43 Sm5 3.128137 1_555
O45 Sm6 2.950077 1_555
O46 Sm4 2.432538 1_655
O47 Sm15 2.323455 1_555
O47 Sm5 2.440962 1_655
O47 Sm7 3.045913 1_555
O48 Sm0 2.301348 1_555
O48 Sm10 2.454965 1_555
O48 Sm8 3.066924 1_555
O50 Sm1 2.278020 1_555
O50 Sm11 2.519349 1_555
O50 Sm9 2.986567 1_555
O51 Sm12 2.380213 1_555
O52 Sm2 2.321248 1_555
O52 Sm8 2.412627 1_655
O52 Sm10 3.093057 1_555
O54 Sm3 2.246877 1_555
O54 Sm9 2.353972 1_655
O54 Sm11 3.136589 1_555
O55 Sm12 2.880671 1_555
O58 Sm4 2.309192 1_555
O58 Sm13 2.511586 1_555
O59 Sm5 2.260415 1_555
O59 Sm14 2.373007 1_555
O59 Sm15 3.130046 1_455
O61 Sm6 2.319531 1_555
O62 Sm13 2.869166 1_555
O63 Sm7 2.260723 1_555
O63 Sm15 2.422608 1_555
O63 Sm14 3.063801 1_555
O64 Sm0 2.298439 1_555
O66 Sm1 2.333622 1_555
O66 Sm13 2.362052 1_555
O67 Sm14 2.263193 1_555
O68 Sm2 2.252498 1_555
O70 Sm3 2.290041 1_555
O71 Sm15 2.259490 1_555
O72 Sm8 2.288944 1_555
O74 Sm9 2.335404 1_555
O74 Sm4 2.350966 1_555
O75 Sm5 2.260980 1_555
O76 Sm10 2.301021 1_555
O77 Sm6 2.295990 1_555
O78 Sm11 2.261908 1_555
O79 Sm7 2.357014 1_555
O79 Sm12 2.394972 1_555
