# generated using pymatgen
data_RbLiCu2H3(SO5)2
_symmetry_space_group_name_H-M   'P 1'
_cell_length_a   5.93216975
_cell_length_b   5.92723735
_cell_length_c   7.79515509
_cell_angle_alpha   74.74008437
_cell_angle_beta   82.56761922
_cell_angle_gamma   118.98070984
_symmetry_Int_Tables_number   1
_chemical_formula_structural   RbLiCu2H3(SO5)2
_chemical_formula_sum   'Rb1 Li1 Cu2 H3 S2 O10'
_cell_volume   220.33825578
_cell_formula_units_Z   1
loop_
 _symmetry_equiv_pos_site_id
 _symmetry_equiv_pos_as_xyz
  1  'x, y, z'
loop_
 _atom_site_type_symbol
 _atom_site_label
 _atom_site_symmetry_multiplicity
 _atom_site_fract_x
 _atom_site_fract_y
 _atom_site_fract_z
 _atom_site_occupancy
  Rb  Rb0  1  0.51291000  0.96288100  0.52452200  1
  Li  Li0  1  0.38531900  0.34435900  0.26996000  1
  Cu  Cu0  1  0.00629700  0.49842000  0.99402000  1
  Cu  Cu1  1  0.50801600  0.00013300  0.99402200  1
  H  H0  1  0.75414800  0.50986400  0.73569800  1
  H  H1  1  0.20294100  0.56770100  0.22943600  1
  H  H2  1  0.58415000  0.50907700  0.90745700  1
  S  S0  1  0.09018000  0.18456000  0.72506600  1
  S  S1  1  0.91341100  0.79052600  0.29530200  1
  O  O0  1  0.78574400  0.01760600  0.79083300  1
  O  O1  1  0.19076300  0.42329800  0.79088900  1
  O  O2  1  0.22169300  0.96517100  0.22792700  1
  O  O3  1  0.80670600  0.54983500  0.22752100  1
  O  O4  1  0.69164500  0.43266600  0.87580200  1
  O  O5  1  0.30091000  0.59116300  0.10799800  1
  O  O6  1  0.19135000  0.00726400  0.80135400  1
  O  O7  1  0.81181700  0.96651100  0.22109600  1
  O  O8  1  0.18557000  0.29753500  0.51702600  1
  O  O9  1  0.82460200  0.67235000  0.50140400  1
loop_
_geom_bond_atom_site_label_1
_geom_bond_atom_site_label_2
_geom_bond_distance
_geom_bond_site_symmetry_2
Li0 O5 1.971250 1_555
Li0 O8 1.999956 1_555
Li0 O2 2.111127 1_545
Li0 O3 2.113111 1_555
Cu0 O5 1.968211 1_556
Cu0 O1 2.073164 1_555
Cu0 O4 2.101026 1_455
Cu0 O3 2.211759 1_456
Cu0 O6 2.556925 1_565
Cu1 O5 1.967953 1_546
Cu1 O0 2.075327 1_555
Cu1 O4 2.097369 1_555
Cu1 O2 2.216129 1_546
Cu1 O6 2.561186 1_555
H0 O4 1.003683 1_555
H1 O5 0.981456 1_555
H1 Li0 2.068548 1_555
H2 O4 0.985206 1_555
O0 S0 1.505066 1_655
O0 Rb0 2.783744 1_545
O1 S0 1.504959 1_555
O1 Rb0 2.783380 1_555
O2 S1 1.524043 1_455
O2 Rb0 3.060963 1_555
O3 S1 1.524258 1_555
O3 Rb0 3.056419 1_545
O6 S0 1.480777 1_555
O6 Rb0 2.843384 1_545
O7 S1 1.472290 1_555
O7 Rb0 2.755034 1_555
O8 S0 1.490738 1_555
O9 S1 1.476616 1_555
O9 Rb0 3.095057 1_555
