# generated using pymatgen
data_MgSi2
_symmetry_space_group_name_H-M   'P 1'
_cell_length_a   6.22338500
_cell_length_b   6.86236991
_cell_length_c   10.26336528
_cell_angle_alpha   90.26324443
_cell_angle_beta   91.51756555
_cell_angle_gamma   90.75317595
_symmetry_Int_Tables_number   1
_chemical_formula_structural   MgSi2
_chemical_formula_sum   'Mg8 Si16'
_cell_volume   438.12233211
_cell_formula_units_Z   8
loop_
 _symmetry_equiv_pos_site_id
 _symmetry_equiv_pos_as_xyz
  1  'x, y, z'
loop_
 _atom_site_type_symbol
 _atom_site_label
 _atom_site_symmetry_multiplicity
 _atom_site_fract_x
 _atom_site_fract_y
 _atom_site_fract_z
 _atom_site_occupancy
  Mg  Mg0  1  0.68132400  0.89102000  0.13039500  1
  Mg  Mg1  1  0.43402500  0.13088400  0.62585400  1
  Mg  Mg2  1  0.72538600  0.45363300  0.35329900  1
  Mg  Mg3  1  0.11260100  0.32748400  0.89788800  1
  Mg  Mg4  1  0.26654200  0.52930800  0.40667700  1
  Mg  Mg5  1  0.62834100  0.44479100  0.86349400  1
  Mg  Mg6  1  0.18467600  0.97644900  0.11602700  1
  Mg  Mg7  1  0.94257300  0.24270000  0.60882800  1
  Si  Si0  1  0.90539700  0.27357600  0.13491100  1
  Si  Si1  1  0.62134100  0.51175400  0.60498600  1
  Si  Si2  1  0.94415600  0.81944600  0.35734500  1
  Si  Si3  1  0.29964500  0.73116200  0.88356700  1
  Si  Si4  1  0.03874600  0.16148500  0.34755600  1
  Si  Si5  1  0.43933400  0.07151900  0.90495000  1
  Si  Si6  1  0.01869900  0.60982300  0.16696200  1
  Si  Si7  1  0.76182000  0.83869500  0.63714100  1
  Si  Si8  1  0.56059000  0.84106600  0.41631900  1
  Si  Si9  1  0.92790800  0.72346500  0.93504800  1
  Si  Si10  1  0.52042500  0.27136200  0.11124500  1
  Si  Si11  1  0.25690100  0.53340400  0.67766100  1
  Si  Si12  1  0.39078400  0.60025900  0.10916900  1
  Si  Si13  1  0.13287300  0.83782600  0.57581700  1
  Si  Si14  1  0.42570200  0.15344100  0.32801900  1
  Si  Si15  1  0.79984200  0.02528800  0.83759200  1
loop_
_geom_bond_atom_site_label_1
_geom_bond_atom_site_label_2
_geom_bond_distance
_geom_bond_site_symmetry_2
Mg0 Si12 2.679252 1_555
Mg0 Si9 2.808010 1_554
Mg0 Si10 2.813654 1_565
Mg0 Si2 2.858690 1_555
Mg0 Si6 2.888654 1_655
Mg0 Si0 2.955987 1_565
Mg0 Si5 3.007802 1_564
Mg0 Si8 3.068041 1_555
Mg0 Si14 3.178105 1_565
Mg1 Si13 2.767879 1_545
Mg1 Si1 2.859084 1_555
Mg1 Si7 2.879690 1_545
Mg1 Si5 2.894525 1_555
Mg1 Si11 3.037332 1_555
Mg1 Si8 3.048326 1_545
Mg1 Si14 3.060519 1_555
Mg2 Si1 2.708682 1_555
Mg2 Si14 2.767290 1_555
Mg2 Si4 2.816686 1_655
Mg2 Si0 2.819498 1_555
Mg2 Si2 2.839613 1_555
Mg2 Si6 2.879351 1_655
Mg2 Si8 2.937674 1_555
Mg2 Si10 3.020746 1_555
Mg3 Si5 2.704174 1_555
Mg3 Si0 2.807022 1_456
Mg3 Si11 2.831190 1_555
Mg3 Si15 2.879300 1_455
Mg3 Si9 2.991072 1_455
Mg3 Si3 2.996427 1_555
Mg4 Si11 2.783464 1_555
Mg4 Si8 2.796634 1_555
Mg4 Si13 2.876965 1_555
Mg4 Si2 2.882085 1_455
Mg4 Si14 2.894170 1_555
Mg4 Si6 2.927668 1_555
Mg4 Si4 2.931809 1_555
Mg4 Si1 2.967107 1_555
Mg5 Si1 2.694056 1_555
Mg5 Si9 2.737334 1_555
Mg5 Si5 2.843128 1_555
Mg5 Si3 2.865862 1_555
Mg5 Si10 2.903505 1_556
Mg5 Si11 3.027394 1_555
Mg5 Si15 3.096129 1_555
Mg6 Si0 2.706160 1_465
Mg6 Si6 2.764503 1_555
Mg6 Si5 2.792509 1_564
Mg6 Si4 2.863684 1_565
Mg6 Si14 2.866018 1_565
Mg6 Si10 2.891253 1_565
Mg6 Si12 2.899110 1_555
Mg6 Si9 2.959356 1_454
Mg6 Si3 3.020362 1_554
Mg6 Si2 3.116741 1_455
Mg7 Si1 2.738739 1_555
Mg7 Si4 2.817710 1_655
Mg7 Si11 2.848982 1_655
Mg7 Si15 2.938599 1_555
Mg7 Si7 2.996487 1_545
Mg7 Si13 3.055482 1_645
Si0 Si10 2.401543 1_555
Si0 Si6 2.422334 1_655
Si0 Si4 2.445356 1_655
Si1 Si11 2.412452 1_555
Si1 Si7 2.415218 1_555
Si2 Si4 2.415562 1_665
Si2 Si6 2.478357 1_655
Si2 Si8 2.484255 1_555
Si3 Si9 2.386600 1_455
Si3 Si5 2.488173 1_565
Si6 Si9 2.559350 1_454
Si7 Si8 2.560392 1_555
Si10 Si12 2.406845 1_555
Si10 Si14 2.454727 1_555
Si10 Si5 2.552806 1_554
Si11 Si13 2.464192 1_555
Si11 Si3 2.512533 1_555
Si12 Si6 2.407210 1_555
Si12 Si3 2.540246 1_554
Si13 Si7 2.409545 1_455
Si13 Si2 2.505395 1_455
Si14 Si4 2.423125 1_555
Si14 Si8 2.479116 1_545
Si15 Si5 2.389786 1_555
Si15 Si7 2.422835 1_545
Si15 Si9 2.438409 1_545
