# generated using pymatgen
data_Tb3Sc
_symmetry_space_group_name_H-M   'P 1'
_cell_length_a   4.94020091
_cell_length_b   4.94020091
_cell_length_c   4.94020091
_cell_angle_alpha   90.00000000
_cell_angle_beta   90.00000000
_cell_angle_gamma   90.00000000
_symmetry_Int_Tables_number   1
_chemical_formula_structural   Tb3Sc
_chemical_formula_sum   'Tb3 Sc1'
_cell_volume   120.56849338
_cell_formula_units_Z   1
loop_
 _symmetry_equiv_pos_site_id
 _symmetry_equiv_pos_as_xyz
  1  'x, y, z'
loop_
 _atom_site_type_symbol
 _atom_site_label
 _atom_site_symmetry_multiplicity
 _atom_site_fract_x
 _atom_site_fract_y
 _atom_site_fract_z
 _atom_site_occupancy
  Tb  Tb0  1  -0.00000000  0.50000000  0.50000000  1
  Tb  Tb1  1  0.50000000  0.00000000  0.50000000  1
  Tb  Tb2  1  0.50000000  0.50000000  0.00000000  1
  Sc  Sc0  1  -0.00000000  0.00000000  0.00000000  1
loop_
_geom_bond_atom_site_label_1
_geom_bond_atom_site_label_2
_geom_bond_distance
_geom_bond_site_symmetry_2
Tb0 Tb1 3.493250 1_455
Tb0 Tb2 3.493250 1_456
Tb0 Tb1 3.493250 1_565
Tb0 Tb1 3.493250 1_555
Tb0 Tb2 3.493250 1_455
Tb0 Tb1 3.493250 1_465
Tb0 Tb2 3.493250 1_555
Tb0 Tb2 3.493250 1_556
Tb1 Tb2 3.493250 1_545
Tb1 Tb2 3.493250 1_546
Tb1 Tb2 3.493250 1_555
Tb1 Tb2 3.493250 1_556
Sc0 Tb1 3.493250 1_554
Sc0 Tb0 3.493250 1_545
Sc0 Tb1 3.493250 1_455
Sc0 Tb1 3.493250 1_454
Sc0 Tb2 3.493250 1_545
Sc0 Tb0 3.493250 1_544
Sc0 Tb1 3.493250 1_555
Sc0 Tb2 3.493250 1_455
Sc0 Tb2 3.493250 1_555
Sc0 Tb2 3.493250 1_445
Sc0 Tb0 3.493250 1_555
Sc0 Tb0 3.493250 1_554
