# generated using pymatgen
data_Cd3B4(PbO4)3
_symmetry_space_group_name_H-M   'P 1'
_cell_length_a   10.14711220
_cell_length_b   10.14711220
_cell_length_c   7.11982800
_cell_angle_alpha   90.00000000
_cell_angle_beta   90.00000000
_cell_angle_gamma   120.00000132
_symmetry_Int_Tables_number   1
_chemical_formula_structural   Cd3B4(PbO4)3
_chemical_formula_sum   'Cd6 B8 Pb6 O24'
_cell_volume   634.87036223
_cell_formula_units_Z   2
loop_
 _symmetry_equiv_pos_site_id
 _symmetry_equiv_pos_as_xyz
  1  'x, y, z'
loop_
 _atom_site_type_symbol
 _atom_site_label
 _atom_site_symmetry_multiplicity
 _atom_site_fract_x
 _atom_site_fract_y
 _atom_site_fract_z
 _atom_site_occupancy
  Cd  Cd0  1  0.50000000  0.00000000  0.00000000  1
  Cd  Cd1  1  0.50000000  0.50000000  0.00000000  1
  Cd  Cd2  1  0.00000000  0.50000000  0.00000000  1
  Cd  Cd3  1  0.50000000  0.00000000  0.50000000  1
  Cd  Cd4  1  0.50000000  0.50000000  0.50000000  1
  Cd  Cd5  1  0.00000000  0.50000000  0.50000000  1
  B  B0  1  0.60781500  0.80885300  0.75000000  1
  B  B1  1  0.20103900  0.39218500  0.75000000  1
  B  B2  1  0.19114700  0.79896100  0.75000000  1
  B  B3  1  0.39218500  0.19114700  0.25000000  1
  B  B4  1  0.79896100  0.60781500  0.25000000  1
  B  B5  1  0.80885300  0.20103900  0.25000000  1
  B  B6  1  0.66666700  0.33333300  0.75000000  1
  B  B7  1  0.33333300  0.66666700  0.25000000  1
  Pb  Pb0  1  0.84747300  0.13316400  0.75000000  1
  Pb  Pb1  1  0.28569200  0.15252700  0.75000000  1
  Pb  Pb2  1  0.86683600  0.71430800  0.75000000  1
  Pb  Pb3  1  0.15252700  0.86683600  0.25000000  1
  Pb  Pb4  1  0.71430800  0.84747300  0.25000000  1
  Pb  Pb5  1  0.13316400  0.28569200  0.25000000  1
  O  O0  1  0.65093700  0.18843000  0.75000000  1
  O  O1  1  0.53749300  0.34906300  0.75000000  1
  O  O2  1  0.81157000  0.46250700  0.75000000  1
  O  O3  1  0.34906300  0.81157000  0.25000000  1
  O  O4  1  0.46250700  0.65093700  0.25000000  1
  O  O5  1  0.18843000  0.53749300  0.25000000  1
  O  O6  1  0.34583400  0.89351000  0.75000000  1
  O  O7  1  0.54767500  0.65416600  0.75000000  1
  O  O8  1  0.10649000  0.45232500  0.75000000  1
  O  O9  1  0.65416600  0.10649000  0.25000000  1
  O  O10  1  0.45232500  0.34583400  0.25000000  1
  O  O11  1  0.89351000  0.54767500  0.25000000  1
  O  O12  1  0.64829100  0.89402400  0.91674600  1
  O  O13  1  0.24573300  0.35170900  0.91674600  1
  O  O14  1  0.10597600  0.75426700  0.91674600  1
  O  O15  1  0.35170900  0.10597600  0.41674600  1
  O  O16  1  0.75426700  0.64829100  0.41674600  1
  O  O17  1  0.89402400  0.24573300  0.41674600  1
  O  O18  1  0.35170900  0.10597600  0.08325400  1
  O  O19  1  0.75426700  0.64829100  0.08325400  1
  O  O20  1  0.89402400  0.24573300  0.08325400  1
  O  O21  1  0.64829100  0.89402400  0.58325400  1
  O  O22  1  0.24573300  0.35170900  0.58325400  1
  O  O23  1  0.10597600  0.75426700  0.58325400  1
loop_
_geom_bond_atom_site_label_1
_geom_bond_atom_site_label_2
_geom_bond_distance
_geom_bond_site_symmetry_2
Cd0 O6 2.256691 1_544
Cd0 O9 2.256691 1_555
Cd0 O12 2.321646 1_544
Cd0 O18 2.321646 1_555
Cd0 O3 2.498277 1_545
Cd0 O0 2.498277 1_554
Cd1 O10 2.256693 1_555
Cd1 O7 2.256693 1_554
Cd1 O19 2.321646 1_555
Cd1 O13 2.321646 1_554
Cd1 O1 2.498277 1_554
Cd1 O4 2.498277 1_555
Cd2 O11 2.256687 1_455
Cd2 O8 2.256687 1_554
Cd2 O14 2.321646 1_554
Cd2 O20 2.321646 1_455
Cd2 O5 2.498277 1_555
Cd2 O2 2.498277 1_454
Cd3 O6 2.256691 1_545
Cd3 O9 2.256691 1_555
Cd3 O21 2.321646 1_545
Cd3 O15 2.321646 1_555
Cd3 O3 2.498277 1_545
Cd3 O0 2.498277 1_555
Cd4 O7 2.256693 1_555
Cd4 O10 2.256693 1_555
Cd4 O16 2.321646 1_555
Cd4 O22 2.321646 1_555
Cd4 O4 2.498277 1_555
Cd4 O1 2.498277 1_555
Cd5 O11 2.256687 1_455
Cd5 O8 2.256687 1_555
Cd5 O17 2.321646 1_455
Cd5 O23 2.321646 1_555
Cd5 O2 2.498277 1_455
Cd5 O5 2.498277 1_555
B0 O7 1.370499 1_555
B0 O21 1.403599 1_555
B0 O12 1.403599 1_555
B1 O8 1.370518 1_555
B1 O13 1.403595 1_555
B1 O22 1.403595 1_555
B2 O6 1.370502 1_555
B2 O23 1.403599 1_555
B2 O14 1.403599 1_555
B3 O10 1.370499 1_555
B3 O18 1.403599 1_555
B3 O15 1.403599 1_555
B4 O11 1.370518 1_555
B4 O16 1.403595 1_555
B4 O19 1.403595 1_555
B5 O9 1.370502 1_555
B5 O17 1.403599 1_555
B5 O20 1.403599 1_555
B6 O0 1.397394 1_555
B6 O2 1.397398 1_555
B6 O1 1.397404 1_555
B7 O3 1.397394 1_555
B7 O5 1.397398 1_555
B7 O4 1.397404 1_555
O0 Pb0 2.325936 1_555
O1 Pb1 2.325929 1_555
O2 Pb2 2.325926 1_555
O3 Pb3 2.325936 1_555
O4 Pb4 2.325929 1_555
O5 Pb5 2.325926 1_555
O12 Pb0 2.545243 1_565
O12 Pb4 2.572556 1_556
O13 Pb1 2.545249 1_555
O13 Pb5 2.572560 1_556
O14 Pb2 2.545240 1_455
O14 Pb3 2.572560 1_556
O15 Pb3 2.545243 1_545
O15 Pb1 2.572556 1_555
O16 Pb4 2.545249 1_555
O16 Pb2 2.572560 1_555
O17 Pb5 2.545240 1_655
O17 Pb0 2.572560 1_555
O18 Pb3 2.545243 1_545
O18 Pb1 2.572556 1_554
O19 Pb4 2.545249 1_555
O19 Pb2 2.572560 1_554
O20 Pb5 2.545240 1_655
O20 Pb0 2.572560 1_554
O21 Pb0 2.545243 1_565
O21 Pb4 2.572556 1_555
O22 Pb1 2.545249 1_555
O22 Pb5 2.572560 1_555
O23 Pb2 2.545240 1_455
O23 Pb3 2.572560 1_555
