# generated using pymatgen
data_Na4Eu(SiSe3)2
_symmetry_space_group_name_H-M   'P 1'
_cell_length_a   7.13244855
_cell_length_b   7.13244855
_cell_length_c   8.01079317
_cell_angle_alpha   81.37338686
_cell_angle_beta   81.37338686
_cell_angle_gamma   119.81066896
_symmetry_Int_Tables_number   1
_chemical_formula_structural   Na4Eu(SiSe3)2
_chemical_formula_sum   'Na4 Eu1 Si2 Se6'
_cell_volume   337.40644991
_cell_formula_units_Z   1
loop_
 _symmetry_equiv_pos_site_id
 _symmetry_equiv_pos_as_xyz
  1  'x, y, z'
loop_
 _atom_site_type_symbol
 _atom_site_label
 _atom_site_symmetry_multiplicity
 _atom_site_fract_x
 _atom_site_fract_y
 _atom_site_fract_z
 _atom_site_occupancy
  Na  Na0  1  0.82691400  0.17308600  0.00000000  1
  Na  Na1  1  0.17301200  0.82698800  0.00000000  1
  Na  Na2  1  0.50008700  0.49991300  0.00000000  1
  Na  Na3  1  0.66591400  0.33408600  0.50000000  1
  Eu  Eu0  1  0.33403500  0.66596500  0.50000000  1
  Si  Si0  1  0.04977900  0.04988100  0.34602700  1
  Si  Si1  1  0.95011900  0.95022100  0.65397300  1
  Se  Se0  1  0.77361200  0.77448000  0.25488800  1
  Se  Se1  1  0.22552000  0.22638800  0.74511200  1
  Se  Se2  1  0.08205800  0.38986000  0.25421100  1
  Se  Se3  1  0.38880200  0.07999200  0.25378100  1
  Se  Se4  1  0.92000800  0.61119800  0.74621900  1
  Se  Se5  1  0.61014000  0.91794200  0.74578900  1
loop_
_geom_bond_atom_site_label_1
_geom_bond_atom_site_label_2
_geom_bond_distance
_geom_bond_site_symmetry_2
Na0 Se5 3.017945 1_544
Na0 Se2 3.017945 1_655
Na0 Se1 3.057381 1_654
Na0 Se0 3.057381 1_545
Na0 Se3 3.156695 1_555
Na0 Se4 3.156695 1_554
Na1 Se4 3.005992 1_454
Na1 Se3 3.005992 1_565
Na1 Se0 3.064219 1_455
Na1 Se1 3.064219 1_564
Na1 Se5 3.158565 1_554
Na1 Se2 3.158565 1_555
Na2 Se2 3.004163 1_555
Na2 Se5 3.004163 1_554
Na2 Se3 3.009835 1_555
Na2 Se4 3.009835 1_554
Na2 Se1 3.225861 1_554
Na2 Se0 3.225861 1_555
Na3 Se0 3.100044 1_555
Na3 Se1 3.100044 1_555
Na3 Se5 3.111707 1_545
Na3 Se2 3.111707 1_655
Na3 Se3 3.124376 1_555
Na3 Se4 3.124376 1_555
Eu0 Se0 3.093376 1_555
Eu0 Se1 3.093376 1_555
Eu0 Se4 3.104512 1_455
Eu0 Se3 3.104512 1_565
Eu0 Se5 3.112995 1_555
Eu0 Se2 3.112995 1_555
Si0 Si1 2.354069 1_445
Se0 Si0 2.299133 1_665
Se1 Si1 2.299133 1_445
Se2 Si0 2.309356 1_555
Se3 Si0 2.310679 1_555
Se4 Si1 2.310679 1_555
Se5 Si1 2.309356 1_555
