# generated using pymatgen
data_ZrIn3
_symmetry_space_group_name_H-M   'P 1'
_cell_length_a   4.32620847
_cell_length_b   4.32620847
_cell_length_c   10.03126679
_cell_angle_alpha   102.45909710
_cell_angle_beta   102.45909710
_cell_angle_gamma   89.95568407
_symmetry_Int_Tables_number   1
_chemical_formula_structural   ZrIn3
_chemical_formula_sum   'Zr2 In6'
_cell_volume   178.80099120
_cell_formula_units_Z   2
loop_
 _symmetry_equiv_pos_site_id
 _symmetry_equiv_pos_as_xyz
  1  'x, y, z'
loop_
 _atom_site_type_symbol
 _atom_site_label
 _atom_site_symmetry_multiplicity
 _atom_site_fract_x
 _atom_site_fract_y
 _atom_site_fract_z
 _atom_site_occupancy
  Zr  Zr0  1  0.88126078  0.88126078  0.76227756  1
  Zr  Zr1  1  0.11873922  0.11873922  0.23772244  1
  In  In0  1  0.50000000  0.00000000  0.99999900  1
  In  In1  1  -0.00000000  0.50000000  0.99999900  1
  In  In2  1  0.24995650  0.75004450  0.50000100  1
  In  In3  1  0.75004450  0.24995650  0.50000100  1
  In  In4  1  0.62396628  0.62396628  0.24798259  1
  In  In5  1  0.37603372  0.37603372  0.75201741  1
loop_
_geom_bond_atom_site_label_1
_geom_bond_atom_site_label_2
_geom_bond_distance
_geom_bond_site_symmetry_2
In0 In1 3.057908 1_645
In0 In1 3.057908 1_555
In0 In1 3.060274 1_545
In0 In1 3.060274 1_655
In0 Zr0 3.136074 1_445
In0 Zr1 3.136085 1_656
In0 Zr0 3.136601 1_545
In0 Zr1 3.136618 1_556
In0 In5 3.207996 1_555
In0 In4 3.208013 1_546
In0 In5 3.208055 1_545
In0 In4 3.208066 1_556
In1 Zr0 3.136074 1_445
In1 Zr1 3.136085 1_566
In1 Zr0 3.136601 1_455
In1 Zr1 3.136618 1_556
In1 In5 3.207996 1_555
In1 In4 3.208013 1_456
In1 In5 3.208055 1_455
In1 In4 3.208066 1_556
In2 In3 3.057370 1_465
In2 In3 3.058446 1_555
In2 In3 3.060274 1_455
In2 In3 3.060274 1_565
In2 In5 3.236548 1_555
In2 In4 3.236562 1_555
In2 In5 3.236643 1_565
In2 In4 3.236657 1_455
In2 Zr0 3.309583 1_455
In2 Zr1 3.309598 1_565
In2 Zr0 3.310730 1_555
In2 Zr1 3.310744 1_555
In3 In5 3.236548 1_555
In3 In4 3.236562 1_555
In3 In5 3.236643 1_655
In3 In4 3.236657 1_545
In3 Zr0 3.309583 1_545
In3 Zr1 3.309598 1_655
In3 Zr0 3.310730 1_555
In3 Zr1 3.310744 1_555
In4 Zr1 3.059479 1_565
In4 Zr1 3.059479 1_655
In4 Zr1 3.061241 1_665
In4 Zr1 3.062446 1_555
In5 Zr0 3.059479 1_545
In5 Zr0 3.059479 1_455
In5 Zr0 3.061241 1_445
In5 Zr0 3.062446 1_555
