# generated using pymatgen
data_Ta8Cr3O24
_symmetry_space_group_name_H-M   'P 1'
_cell_length_a   9.57266108
_cell_length_b   6.77717472
_cell_length_c   9.22201290
_cell_angle_alpha   89.99281224
_cell_angle_beta   89.99358629
_cell_angle_gamma   45.01678742
_symmetry_Int_Tables_number   1
_chemical_formula_structural   Ta8Cr3O24
_chemical_formula_sum   'Ta8 Cr3 O24'
_cell_volume   423.17431368
_cell_formula_units_Z   1
loop_
 _symmetry_equiv_pos_site_id
 _symmetry_equiv_pos_as_xyz
  1  'x, y, z'
loop_
 _atom_site_type_symbol
 _atom_site_label
 _atom_site_symmetry_multiplicity
 _atom_site_fract_x
 _atom_site_fract_y
 _atom_site_fract_z
 _atom_site_occupancy
  Ta  Ta0  1  0.00057600  0.50122700  0.17028300  1
  Ta  Ta1  1  0.99986800  0.00163000  0.33055000  1
  Ta  Ta2  1  0.50098100  0.99828200  0.01067800  1
  Ta  Ta3  1  0.50116100  0.99851100  0.63797200  1
  Ta  Ta4  1  0.50034400  0.49921300  0.82930000  1
  Ta  Ta5  1  0.49988900  0.49943300  0.19220400  1
  Ta  Ta6  1  0.99986900  0.99905100  0.66589900  1
  Ta  Ta7  1  0.00112500  0.49741300  0.83618800  1
  Cr  Cr0  1  0.00014300  0.99989300  0.99869400  1
  Cr  Cr1  1  0.99997100  0.50019000  0.50331600  1
  Cr  Cr2  1  0.49997400  0.50012100  0.49891500  1
  O  O0  1  0.00061800  0.69109300  0.99780400  1
  O  O1  1  0.00095300  0.69858700  0.33072200  1
  O  O2  1  0.00007600  0.70087600  0.67215200  1
  O  O3  1  0.30116500  0.19799500  0.83492400  1
  O  O4  1  0.28866100  0.21037000  0.14562100  1
  O  O5  1  0.28704200  0.21221400  0.51666100  1
  O  O6  1  0.19138800  0.80969200  0.50017300  1
  O  O7  1  0.20005000  0.80090500  0.82612300  1
  O  O8  1  0.19609000  0.80478400  0.17138900  1
  O  O9  1  0.49843500  0.31099500  0.33362100  1
  O  O10  1  0.49993000  0.30201500  0.67353400  1
  O  O11  1  0.49902400  0.30411500  0.99499300  1
  O  O12  1  0.50061600  0.69618400  0.99499300  1
  O  O13  1  0.50070900  0.68932400  0.33313000  1
  O  O14  1  0.50152700  0.69621600  0.67356100  1
  O  O15  1  0.80057400  0.19881000  0.82678300  1
  O  O16  1  0.80367800  0.19539900  0.17156500  1
  O  O17  1  0.80849500  0.19078800  0.49998600  1
  O  O18  1  0.71258800  0.78841400  0.51469500  1
  O  O19  1  0.69717300  0.80365900  0.83482500  1
  O  O20  1  0.71113800  0.79017500  0.14626900  1
  O  O21  1  0.99927400  0.30241000  0.33048700  1
  O  O22  1  0.99841700  0.30022500  0.67204200  1
  O  O23  1  0.99845700  0.30988900  0.99814000  1
loop_
_geom_bond_atom_site_label_1
_geom_bond_atom_site_label_2
_geom_bond_distance
_geom_bond_site_symmetry_2
Cr0 O8 2.072857 1_556
Cr0 O16 2.076283 1_466
Cr0 O15 2.083129 1_465
Cr0 O7 2.089181 1_555
Cr0 O23 2.089525 1_465
Cr0 O0 2.089597 1_555
Cr1 O5 1.947640 1_655
Cr1 O18 1.948678 1_555
Cr1 O2 2.067986 1_655
Cr1 O22 2.070233 1_555
Cr1 O21 2.085706 1_555
Cr1 O1 2.087746 1_655
Cr2 O9 1.998472 1_555
Cr2 O13 1.998488 1_555
Cr2 O17 2.088999 1_555
Cr2 O6 2.089453 1_555
Cr2 O14 2.094958 1_555
Cr2 O10 2.096669 1_555
O0 Ta7 1.983885 1_555
O0 Ta0 2.045966 1_556
O1 Ta0 1.996368 1_555
O1 Ta1 2.046447 1_465
O2 Ta6 2.020200 1_455
O2 Ta7 2.042002 1_555
O3 Ta7 2.031567 1_555
O3 Ta2 2.111297 1_546
O3 Ta3 2.265498 1_545
O4 Ta2 1.901368 1_545
O4 Ta0 1.963916 1_555
O5 Ta3 1.831259 1_545
O6 Ta6 2.004339 1_455
O6 Ta1 2.031911 1_465
O7 Ta6 2.005156 1_455
O7 Ta4 2.033504 1_555
O8 Ta1 1.979765 1_465
O8 Ta5 2.065974 1_555
O9 Ta5 1.832112 1_555
O10 Ta4 1.964061 1_555
O10 Ta3 2.074712 1_545
O11 Ta4 2.026418 1_555
O11 Ta2 2.064539 1_546
O11 Ta5 2.252992 1_556
O12 Ta4 2.030336 1_555
O12 Ta2 2.054958 1_556
O12 Ta5 2.257911 1_556
O13 Ta5 1.833018 1_555
O14 Ta4 1.966297 1_555
O14 Ta3 2.072344 1_555
O15 Ta6 2.005510 1_545
O15 Ta4 2.032956 1_555
O16 Ta1 1.978525 1_555
O16 Ta5 2.065704 1_555
O17 Ta6 2.005050 1_545
O17 Ta1 2.029918 1_555
O18 Ta3 1.828037 1_555
O19 Ta7 2.058145 1_655
O19 Ta2 2.096312 1_556
O19 Ta3 2.248820 1_555
O20 Ta2 1.894358 1_555
O20 Ta0 1.972229 1_655
O21 Ta0 2.005405 1_655
O21 Ta1 2.034423 1_555
O22 Ta7 2.031632 1_655
O22 Ta6 2.032104 1_545
O23 Ta7 1.972768 1_655
O23 Ta0 2.059079 1_656
