# generated using pymatgen
data_Na3GdBr6
_symmetry_space_group_name_H-M   'P 1'
_cell_length_a   7.88292028
_cell_length_b   7.88291893
_cell_length_c   7.88291891
_cell_angle_alpha   55.45012217
_cell_angle_beta   55.45013001
_cell_angle_gamma   55.45012878
_symmetry_Int_Tables_number   1
_chemical_formula_structural   Na3GdBr6
_chemical_formula_sum   'Na3 Gd1 Br6'
_cell_volume   309.77595040
_cell_formula_units_Z   1
loop_
 _symmetry_equiv_pos_site_id
 _symmetry_equiv_pos_as_xyz
  1  'x, y, z'
loop_
 _atom_site_type_symbol
 _atom_site_label
 _atom_site_symmetry_multiplicity
 _atom_site_fract_x
 _atom_site_fract_y
 _atom_site_fract_z
 _atom_site_occupancy
  Na  Na0  1  0.68524909  0.68524909  0.68524909  1
  Na  Na1  1  0.49118748  0.49118748  0.49118748  1
  Na  Na2  1  0.19162280  0.19162280  0.19162280  1
  Gd  Gd0  1  0.99786387  0.99786387  0.99786387  1
  Br  Br0  1  0.61172669  0.89383385  0.26195337  1
  Br  Br1  1  0.26195337  0.61172669  0.89383385  1
  Br  Br2  1  0.89383385  0.26195337  0.61172669  1
  Br  Br3  1  0.08876982  0.78363886  0.38895516  1
  Br  Br4  1  0.78363886  0.38895516  0.08876982  1
  Br  Br5  1  0.38895516  0.08876982  0.78363886  1
loop_
_geom_bond_atom_site_label_1
_geom_bond_atom_site_label_2
_geom_bond_distance
_geom_bond_site_symmetry_2
Br0 Gd0 2.824726 1_554
Br0 Na2 2.928082 1_565
Br0 Na0 3.010528 1_555
Br0 Na1 3.034872 1_555
Br1 Gd0 2.824726 1_455
Br1 Na2 2.928081 1_556
Br1 Na0 3.010529 1_555
Br1 Na1 3.034872 1_555
Br2 Gd0 2.824726 1_545
Br2 Na2 2.928082 1_655
Br2 Na0 3.010528 1_555
Br2 Na1 3.034872 1_555
Br3 Gd0 2.845683 1_454
Br3 Na0 2.914065 1_455
Br3 Na1 2.919702 1_555
Br3 Na2 3.045175 1_565
Br4 Gd0 2.845683 1_544
Br4 Na0 2.914064 1_554
Br4 Na1 2.919702 1_555
Br4 Na2 3.045175 1_655
Br5 Gd0 2.845683 1_445
Br5 Na0 2.914064 1_545
Br5 Na1 2.919701 1_555
Br5 Na2 3.045175 1_556
