# generated using pymatgen
data_Dy3GaCoS7
_symmetry_space_group_name_H-M   'P 1'
_cell_length_a   9.54081461
_cell_length_b   9.54081461
_cell_length_c   6.13363800
_cell_angle_alpha   90.00000000
_cell_angle_beta   90.00000000
_cell_angle_gamma   120.00000422
_symmetry_Int_Tables_number   1
_chemical_formula_structural   Dy3GaCoS7
_chemical_formula_sum   'Dy6 Ga2 Co2 S14'
_cell_volume   483.52581773
_cell_formula_units_Z   2
loop_
 _symmetry_equiv_pos_site_id
 _symmetry_equiv_pos_as_xyz
  1  'x, y, z'
loop_
 _atom_site_type_symbol
 _atom_site_label
 _atom_site_symmetry_multiplicity
 _atom_site_fract_x
 _atom_site_fract_y
 _atom_site_fract_z
 _atom_site_occupancy
  Dy  Dy0  1  0.15446000  0.37329300  0.82436700  1
  Dy  Dy1  1  0.21883300  0.84554000  0.82436700  1
  Dy  Dy2  1  0.62670700  0.78116700  0.82436700  1
  Dy  Dy3  1  0.84554000  0.62670700  0.32436700  1
  Dy  Dy4  1  0.78116700  0.15446000  0.32436700  1
  Dy  Dy5  1  0.37329300  0.21883300  0.32436700  1
  Ga  Ga0  1  0.66666700  0.33333300  0.89610700  1
  Ga  Ga1  1  0.33333300  0.66666700  0.39610700  1
  Co  Co0  1  0.00000000  0.00000000  0.49037100  1
  Co  Co1  1  0.00000000  0.00000000  0.99037100  1
  S  S0  1  0.43309000  0.51880000  0.55383300  1
  S  S1  1  0.08571000  0.56691000  0.55383300  1
  S  S2  1  0.48120000  0.91429000  0.55383300  1
  S  S3  1  0.56691000  0.48120000  0.05383300  1
  S  S4  1  0.91429000  0.43309000  0.05383300  1
  S  S5  1  0.51880000  0.08571000  0.05383300  1
  S  S6  1  0.66666700  0.33333300  0.52928000  1
  S  S7  1  0.33333300  0.66666700  0.02928000  1
  S  S8  1  0.87196000  0.09556200  0.73389100  1
  S  S9  1  0.22360200  0.12804000  0.73389100  1
  S  S10  1  0.90443800  0.77639800  0.73389100  1
  S  S11  1  0.12804000  0.90443800  0.23389100  1
  S  S12  1  0.77639800  0.87196000  0.23389100  1
  S  S13  1  0.09556200  0.22360200  0.23389100  1
loop_
_geom_bond_atom_site_label_1
_geom_bond_atom_site_label_2
_geom_bond_distance
_geom_bond_site_symmetry_2
Dy0 S8 2.729823 1_455
Dy0 S7 2.747711 1_556
Dy0 S9 2.786019 1_555
Dy0 S1 2.794240 1_555
Dy0 S13 2.803999 1_556
Dy0 S0 2.838504 1_555
Dy0 S4 2.977299 1_456
Dy1 S9 2.729823 1_565
Dy1 S7 2.747704 1_556
Dy1 S10 2.786019 1_455
Dy1 S2 2.794240 1_555
Dy1 S11 2.803999 1_556
Dy1 S1 2.838504 1_555
Dy1 S5 2.977298 1_566
Dy2 S10 2.729823 1_555
Dy2 S7 2.747712 1_556
Dy2 S8 2.786018 1_565
Dy2 S0 2.794239 1_555
Dy2 S12 2.803999 1_556
Dy2 S2 2.838504 1_555
Dy2 S3 2.977299 1_556
Dy3 S11 2.729823 1_655
Dy3 S6 2.747711 1_555
Dy3 S12 2.786019 1_555
Dy3 S4 2.794240 1_555
Dy3 S10 2.803999 1_555
Dy3 S3 2.838504 1_555
Dy3 S1 2.977299 1_655
Dy4 S12 2.729823 1_545
Dy4 S6 2.747704 1_555
Dy4 S13 2.786019 1_655
Dy4 S5 2.794240 1_555
Dy4 S8 2.803999 1_555
Dy4 S4 2.838504 1_555
Dy4 S2 2.977298 1_545
Dy5 S13 2.729823 1_555
Dy5 S6 2.747712 1_555
Dy5 S11 2.786018 1_545
Dy5 S3 2.794239 1_555
Dy5 S9 2.803999 1_555
Dy5 S5 2.838504 1_555
Dy5 S0 2.977299 1_555
Ga0 S6 2.249984 1_555
Ga0 S4 2.274806 1_556
Ga0 S5 2.274807 1_556
Ga0 S3 2.274814 1_556
Ga1 S7 2.249984 1_555
Ga1 S1 2.274806 1_555
Ga1 S2 2.274807 1_555
Ga1 S0 2.274814 1_555
Co0 S9 2.380841 1_555
Co0 S10 2.380841 1_445
Co0 S8 2.380842 1_455
Co0 S12 2.431500 1_445
Co0 S13 2.431500 1_555
Co0 S11 2.431500 1_545
Co1 S12 2.380841 1_446
Co1 S13 2.380841 1_556
Co1 S11 2.380842 1_546
Co1 S9 2.431500 1_555
Co1 S10 2.431500 1_445
Co1 S8 2.431500 1_455
