# generated using pymatgen
data_CaFeAs2O7
_symmetry_space_group_name_H-M   'P 1'
_cell_length_a   9.17433400
_cell_length_b   7.54914100
_cell_length_c   9.56394390
_cell_angle_alpha   68.83037813
_cell_angle_beta   90.00000000
_cell_angle_gamma   90.00000000
_symmetry_Int_Tables_number   1
_chemical_formula_structural   CaFeAs2O7
_chemical_formula_sum   'Ca4 Fe4 As8 O28'
_cell_volume   617.68224520
_cell_formula_units_Z   4
loop_
 _symmetry_equiv_pos_site_id
 _symmetry_equiv_pos_as_xyz
  1  'x, y, z'
loop_
 _atom_site_type_symbol
 _atom_site_label
 _atom_site_symmetry_multiplicity
 _atom_site_fract_x
 _atom_site_fract_y
 _atom_site_fract_z
 _atom_site_occupancy
  Ca  Ca0  1  0.06713400  0.74311200  0.92948000  1
  Ca  Ca1  1  0.56713400  0.25688800  0.57052000  1
  Ca  Ca2  1  0.93286600  0.25688800  0.07052000  1
  Ca  Ca3  1  0.43286600  0.74311200  0.42948000  1
  Fe  Fe0  1  0.94487700  0.19786400  0.69261400  1
  Fe  Fe1  1  0.44487700  0.80213600  0.80738600  1
  Fe  Fe2  1  0.05512300  0.80213600  0.30738600  1
  Fe  Fe3  1  0.55512300  0.19786400  0.19261400  1
  As  As0  1  0.76197100  0.58048500  0.73553100  1
  As  As1  1  0.26197100  0.41951500  0.76446900  1
  As  As2  1  0.23802900  0.41951500  0.26446900  1
  As  As3  1  0.73802900  0.58048500  0.23553100  1
  As  As4  1  0.70502200  0.98367000  0.95501000  1
  As  As5  1  0.20502200  0.01633000  0.54499000  1
  As  As6  1  0.29497800  0.01633000  0.04499000  1
  As  As7  1  0.79497800  0.98367000  0.45501000  1
  O  O0  1  0.69139000  0.14458800  0.04220600  1
  O  O1  1  0.19139000  0.85541200  0.45779400  1
  O  O2  1  0.30861000  0.85541200  0.95779400  1
  O  O3  1  0.80861000  0.14458800  0.54220600  1
  O  O4  1  0.58658400  0.65679100  0.72737600  1
  O  O5  1  0.08658400  0.34320900  0.77262400  1
  O  O6  1  0.41341600  0.34320900  0.27262400  1
  O  O7  1  0.91341600  0.65679100  0.22737600  1
  O  O8  1  0.86573000  0.56726200  0.88651900  1
  O  O9  1  0.36573000  0.43273800  0.61348100  1
  O  O10  1  0.13427000  0.43273800  0.11348100  1
  O  O11  1  0.63427000  0.56726200  0.38651900  1
  O  O12  1  0.85367100  0.75424700  0.57721000  1
  O  O13  1  0.35367100  0.24575300  0.92279000  1
  O  O14  1  0.14632900  0.24575300  0.42279000  1
  O  O15  1  0.64632900  0.75424700  0.07721000  1
  O  O16  1  0.91133700  0.01580800  0.30995800  1
  O  O17  1  0.41133700  0.98419200  0.19004200  1
  O  O18  1  0.08866300  0.98419200  0.69004200  1
  O  O19  1  0.58866300  0.01580800  0.80995800  1
  O  O20  1  0.73497500  0.37488500  0.20087100  1
  O  O21  1  0.23497500  0.62511500  0.29912900  1
  O  O22  1  0.26502500  0.62511500  0.79912900  1
  O  O23  1  0.76502500  0.37488500  0.70087100  1
  O  O24  1  0.61613100  0.98782900  0.40521800  1
  O  O25  1  0.11613100  0.01217100  0.09478200  1
  O  O26  1  0.38386900  0.01217100  0.59478200  1
  O  O27  1  0.88386900  0.98782900  0.90521800  1
loop_
_geom_bond_atom_site_label_1
_geom_bond_atom_site_label_2
_geom_bond_distance
_geom_bond_site_symmetry_2
Ca0 O18 2.363277 1_555
Ca0 O8 2.395672 1_455
Ca0 O2 2.421934 1_555
Ca0 O27 2.446224 1_455
Ca0 O10 2.447045 1_556
Ca0 O22 2.538867 1_555
Ca1 O19 2.363277 1_555
Ca1 O9 2.395672 1_555
Ca1 O3 2.421934 1_555
Ca1 O26 2.446224 1_555
Ca1 O11 2.447045 1_555
Ca1 O23 2.538867 1_555
Ca2 O16 2.363277 1_555
Ca2 O10 2.395672 1_655
Ca2 O0 2.421934 1_555
Ca2 O25 2.446224 1_655
Ca2 O8 2.447045 1_554
Ca2 O20 2.538867 1_555
Ca3 O17 2.363277 1_555
Ca3 O11 2.395672 1_555
Ca3 O1 2.421934 1_555
Ca3 O24 2.446224 1_555
Ca3 O9 2.447045 1_555
Ca3 O21 2.538867 1_555
Fe0 O5 2.021399 1_655
Fe0 O3 2.052261 1_555
Fe0 O18 2.090764 1_645
Fe0 O23 2.142634 1_555
Fe0 O27 2.152489 1_545
Fe1 O4 2.021399 1_555
Fe1 O2 2.052261 1_555
Fe1 O19 2.090764 1_565
Fe1 O22 2.142634 1_555
Fe1 O26 2.152489 1_565
Fe2 O7 2.021399 1_455
Fe2 O1 2.052261 1_555
Fe2 O16 2.090764 1_465
Fe2 O21 2.142634 1_555
Fe2 O25 2.152489 1_565
Fe3 O6 2.021399 1_555
Fe3 O0 2.052261 1_555
Fe3 O17 2.090764 1_545
Fe3 O20 2.142634 1_555
Fe3 O24 2.152489 1_545
As0 O23 1.700381 1_555
As0 O4 1.701332 1_555
As0 O8 1.702133 1_555
As0 O12 1.812901 1_555
As1 O22 1.700381 1_555
As1 O5 1.701332 1_555
As1 O9 1.702133 1_555
As1 O13 1.812901 1_555
As2 O21 1.700381 1_555
As2 O6 1.701332 1_555
As2 O10 1.702133 1_555
As2 O14 1.812901 1_555
As3 O20 1.700381 1_555
As3 O7 1.701332 1_555
As3 O11 1.702133 1_555
As3 O15 1.812901 1_555
As4 O19 1.697020 1_565
As4 O27 1.705636 1_555
As4 O0 1.708364 1_566
As4 O15 1.787041 1_556
As5 O18 1.697020 1_545
As5 O26 1.705636 1_555
As5 O1 1.708364 1_545
As5 O14 1.787041 1_555
As6 O17 1.697020 1_545
As6 O25 1.705636 1_555
As6 O2 1.708364 1_544
As6 O13 1.787041 1_554
As7 O16 1.697020 1_565
As7 O24 1.705636 1_555
As7 O3 1.708364 1_565
As7 O12 1.787041 1_555
