# generated using pymatgen
data_Ba3Mn4PtO12
_symmetry_space_group_name_H-M   'P 1'
_cell_length_a   5.97436200
_cell_length_b   5.15379600
_cell_length_c   10.29121774
_cell_angle_alpha   89.65207714
_cell_angle_beta   90.00000000
_cell_angle_gamma   90.00000000
_symmetry_Int_Tables_number   1
_chemical_formula_structural   Ba3Mn4PtO12
_chemical_formula_sum   'Ba3 Mn4 Pt1 O12'
_cell_volume   316.86736903
_cell_formula_units_Z   1
loop_
 _symmetry_equiv_pos_site_id
 _symmetry_equiv_pos_as_xyz
  1  'x, y, z'
loop_
 _atom_site_type_symbol
 _atom_site_label
 _atom_site_symmetry_multiplicity
 _atom_site_fract_x
 _atom_site_fract_y
 _atom_site_fract_z
 _atom_site_occupancy
  Ba  Ba0  1  0.00000000  0.23284300  0.17023900  1
  Ba  Ba1  1  0.50000000  0.19353200  0.66292000  1
  Ba  Ba2  1  0.50000000  0.73991500  0.33400500  1
  Mn  Mn0  1  0.50000000  0.63001800  0.00288100  1
  Mn  Mn1  1  0.00000000  0.60253900  0.49603600  1
  Mn  Mn2  1  0.50000000  0.10980900  0.00783000  1
  Mn  Mn3  1  0.00000000  0.09358900  0.49233500  1
  Pt  Pt0  1  0.00000000  0.38753400  0.83523200  1
  O  O0  1  0.29249500  0.87192800  0.08482900  1
  O  O1  1  0.78185000  0.85196300  0.55741100  1
  O  O2  1  0.00000000  0.84892400  0.34825900  1
  O  O3  1  0.50000000  0.87768100  0.86683000  1
  O  O4  1  0.70750500  0.87192800  0.08482900  1
  O  O5  1  0.21815000  0.85196300  0.55741100  1
  O  O6  1  0.21400900  0.35112600  0.43038100  1
  O  O7  1  0.71029700  0.37244200  0.92564000  1
  O  O8  1  0.50000000  0.37147900  0.14214100  1
  O  O9  1  0.00000000  0.35041500  0.64476100  1
  O  O10  1  0.78599100  0.35112600  0.43038100  1
  O  O11  1  0.28970300  0.37244200  0.92564000  1
loop_
_geom_bond_atom_site_label_1
_geom_bond_atom_site_label_2
_geom_bond_distance
_geom_bond_site_symmetry_2
Ba0 O2 2.688377 1_545
Ba0 O0 2.702963 1_545
Ba0 O4 2.702963 1_445
Ba0 O6 3.032071 1_555
Ba0 O10 3.032071 1_455
Ba0 O8 3.084618 1_555
Ba0 O8 3.084618 1_455
Ba0 O11 3.134912 1_554
Ba0 O7 3.134912 1_454
Ba1 O3 2.648014 1_545
Ba1 O1 2.671436 1_545
Ba1 O5 2.671436 1_545
Ba1 O10 3.046705 1_555
Ba1 O6 3.046705 1_555
Ba1 O9 3.100013 1_555
Ba1 O9 3.100013 1_655
Ba1 O7 3.125546 1_555
Ba1 O11 3.125546 1_555
Ba2 O8 2.747699 1_555
Ba2 O10 2.809611 1_555
Ba2 O6 2.809611 1_555
Ba2 O5 2.910495 1_555
Ba2 O1 2.910495 1_555
Ba2 O4 2.924783 1_555
Ba2 O0 2.924783 1_555
Ba2 O2 3.043255 1_555
Ba2 O2 3.043255 1_655
Mn0 O3 1.888881 1_554
Mn0 O8 1.950944 1_555
Mn0 O4 1.953274 1_555
Mn0 O0 1.953274 1_555
Mn0 O7 1.996358 1_554
Mn0 O11 1.996358 1_554
Mn1 O1 1.939041 1_455
Mn1 O5 1.939041 1_555
Mn1 O6 1.944432 1_555
Mn1 O10 1.944432 1_455
Mn1 O2 1.975306 1_555
Mn1 O9 2.001723 1_555
Mn2 O3 1.886238 1_544
Mn2 O4 1.912081 1_545
Mn2 O0 1.912081 1_545
Mn2 O8 1.936979 1_555
Mn2 O7 2.027848 1_554
Mn2 O11 2.027848 1_554
Mn3 O1 1.920350 1_445
Mn3 O5 1.920350 1_545
Mn3 O6 1.947479 1_555
Mn3 O10 1.947479 1_455
Mn3 O2 1.952220 1_545
Mn3 O9 2.058609 1_555
O7 Pt0 1.966333 1_655
O9 Pt0 1.970647 1_555
O11 Pt0 1.966333 1_555
