# generated using pymatgen
data_Li9Mn2Co5O16
_symmetry_space_group_name_H-M   'P 1'
_cell_length_a   5.88402500
_cell_length_b   6.46750262
_cell_length_c   8.08978180
_cell_angle_alpha   90.95743224
_cell_angle_beta   89.76764419
_cell_angle_gamma   114.74329890
_symmetry_Int_Tables_number   1
_chemical_formula_structural   Li9Mn2Co5O16
_chemical_formula_sum   'Li9 Mn2 Co5 O16'
_cell_volume   279.55209692
_cell_formula_units_Z   1
loop_
 _symmetry_equiv_pos_site_id
 _symmetry_equiv_pos_as_xyz
  1  'x, y, z'
loop_
 _atom_site_type_symbol
 _atom_site_label
 _atom_site_symmetry_multiplicity
 _atom_site_fract_x
 _atom_site_fract_y
 _atom_site_fract_z
 _atom_site_occupancy
  Li  Li0  1  0.23574300  0.49554300  0.01012800  1
  Li  Li1  1  0.86898600  0.25227300  0.74893300  1
  Li  Li2  1  0.62057100  0.74774200  0.25437000  1
  Li  Li3  1  0.99989800  0.00736900  0.48932200  1
  Li  Li4  1  0.38022000  0.25037100  0.74425000  1
  Li  Li5  1  0.75786200  0.49100900  0.01099600  1
  Li  Li6  1  0.12738100  0.74571500  0.25227500  1
  Li  Li7  1  0.50556300  0.00791100  0.49055900  1
  Li  Li8  1  0.87483200  0.25241500  0.25219000  1
  Mn  Mn0  1  0.00297300  0.00616500  0.00502000  1
  Mn  Mn1  1  0.62946200  0.75128400  0.74919600  1
  Co  Co0  1  0.23711900  0.49086500  0.49390300  1
  Co  Co1  1  0.50987100  0.00785900  0.00483200  1
  Co  Co2  1  0.12630400  0.74852600  0.74732500  1
  Co  Co3  1  0.74581000  0.49287600  0.49663800  1
  Co  Co4  1  0.37166800  0.24984400  0.24979600  1
  O  O0  1  0.88592600  0.23697700  0.99633200  1
  O  O1  1  0.50903400  0.98907700  0.76603000  1
  O  O2  1  0.25862600  0.49282700  0.26300300  1
  O  O3  1  0.63209100  0.73967100  0.51402500  1
  O  O4  1  0.98178600  0.97373500  0.75690900  1
  O  O5  1  0.35304200  0.22668000  0.00528800  1
  O  O6  1  0.71494600  0.47807300  0.26419800  1
  O  O7  1  0.13881900  0.74131000  0.51479900  1
  O  O8  1  0.65103000  0.77407700  0.99320900  1
  O  O9  1  0.28133300  0.53133700  0.74426200  1
  O  O10  1  0.02141700  0.01113500  0.23522300  1
  O  O11  1  0.35599700  0.25568100  0.48674100  1
  O  O12  1  0.74276000  0.51174600  0.74218000  1
  O  O13  1  0.11850000  0.76001600  0.98315400  1
  O  O14  1  0.49052800  0.01064300  0.23027100  1
  O  O15  1  0.86989800  0.26924500  0.50464500  1
loop_
_geom_bond_atom_site_label_1
_geom_bond_atom_site_label_2
_geom_bond_distance
_geom_bond_site_symmetry_2
Li0 O0 2.039587 1_454
Li0 O2 2.051525 1_555
Li0 O13 2.109678 1_554
Li0 O5 2.122200 1_555
Li0 O9 2.170589 1_554
Li0 O8 2.357014 1_554
Li1 O15 1.980974 1_555
Li1 O0 2.010430 1_555
Li1 O1 2.095229 1_545
Li1 O12 2.101791 1_555
Li1 O4 2.166797 1_545
Li1 O9 2.341252 1_655
Li2 O6 2.042608 1_555
Li2 O2 2.078942 1_555
Li2 O3 2.104144 1_555
Li2 O8 2.123248 1_554
Li2 O14 2.148479 1_565
Li2 O10 2.265241 1_665
Li3 O11 2.038072 1_655
Li3 O10 2.058912 1_655
Li3 O15 2.132078 1_555
Li3 O3 2.143043 1_545
Li3 O4 2.176959 1_545
Li3 O7 2.205048 1_645
Li4 O11 2.090473 1_555
Li4 O12 2.095330 1_555
Li4 O5 2.120392 1_556
Li4 O9 2.127360 1_555
Li4 O1 2.131809 1_545
Li4 O4 2.280499 1_445
Li5 O6 2.061637 1_555
Li5 O0 2.076124 1_554
Li5 O13 2.121149 1_654
Li5 O8 2.177235 1_554
Li5 O12 2.185482 1_554
Li5 O5 2.277707 1_555
Li6 O10 2.063751 1_565
Li6 O2 2.083635 1_555
Li6 O14 2.115556 1_565
Li6 O7 2.126145 1_555
Li6 O13 2.182402 1_554
Li6 O6 2.319931 1_455
Li7 O15 2.104236 1_555
Li7 O14 2.108568 1_555
Li7 O11 2.127368 1_555
Li7 O7 2.135719 1_545
Li7 O3 2.166410 1_545
Li7 O1 2.234500 1_545
Li8 O6 2.041651 1_555
Li8 O15 2.044123 1_555
Li8 O0 2.072656 1_554
Li8 O10 2.077601 1_655
Li8 O2 2.140726 1_655
Li8 O14 2.150317 1_555
Mn0 O10 1.864849 1_555
Mn0 O0 1.890016 1_454
Mn0 O5 1.953874 1_555
Mn0 O13 1.980716 1_544
Mn0 O8 1.986292 1_444
Mn0 O4 2.013532 1_444
Mn1 O3 1.902965 1_555
Mn1 O12 1.925877 1_555
Mn1 O9 1.944380 1_555
Mn1 O1 1.946884 1_555
Mn1 O4 1.967935 1_555
Mn1 O8 1.977677 1_555
Co0 O2 1.871596 1_555
Co0 O11 1.921874 1_555
Co0 O7 1.939339 1_555
Co0 O15 2.034907 1_455
Co0 O9 2.041517 1_555
Co0 O3 2.209240 1_555
Co1 O14 1.827097 1_555
Co1 O1 1.933541 1_544
Co1 O5 1.986813 1_555
Co1 O8 2.007658 1_544
Co1 O0 2.086639 1_554
Co1 O13 2.192503 1_544
Co2 O7 1.882790 1_555
Co2 O13 1.909125 1_555
Co2 O9 1.969030 1_555
Co2 O4 1.970562 1_455
Co2 O12 2.132021 1_455
Co2 O1 2.139347 1_555
Co3 O15 1.875286 1_555
Co3 O6 1.886851 1_555
Co3 O3 1.975091 1_555
Co3 O12 1.988560 1_555
Co3 O11 2.161617 1_555
Co3 O7 2.198933 1_655
Co4 O11 1.919177 1_555
Co4 O6 1.942305 1_555
Co4 O2 1.947365 1_555
Co4 O14 1.950394 1_555
Co4 O5 1.981190 1_555
Co4 O10 1.994264 1_555
