# generated using pymatgen
data_Te2Mo2WS4
_symmetry_space_group_name_H-M   'P 1'
_cell_length_a   3.30001987
_cell_length_b   3.30001987
_cell_length_c   30.26710600
_cell_angle_alpha   90.00000000
_cell_angle_beta   90.00000000
_cell_angle_gamma   119.99999734
_symmetry_Int_Tables_number   1
_chemical_formula_structural   Te2Mo2WS4
_chemical_formula_sum   'Te2 Mo2 W1 S4'
_cell_volume   285.45302527
_cell_formula_units_Z   1
loop_
 _symmetry_equiv_pos_site_id
 _symmetry_equiv_pos_as_xyz
  1  'x, y, z'
loop_
 _atom_site_type_symbol
 _atom_site_label
 _atom_site_symmetry_multiplicity
 _atom_site_fract_x
 _atom_site_fract_y
 _atom_site_fract_z
 _atom_site_occupancy
  Te  Te0  1  0.33333300  0.66666700  0.05235200  1
  Te  Te1  1  0.33333300  0.66666700  0.17887500  1
  Mo  Mo0  1  0.00000000  0.00000000  0.11559100  1
  Mo  Mo1  1  0.33333300  0.66666700  0.34704900  1
  W  W0  1  0.00000000  0.00000000  0.57831200  1
  S  S0  1  0.00000000  0.00000000  0.39755300  1
  S  S1  1  0.33333300  0.66666700  0.52757500  1
  S  S2  1  0.33333300  0.66666700  0.62903700  1
  S  S3  1  0.00000000  0.00000000  0.29649600  1
loop_
_geom_bond_atom_site_label_1
_geom_bond_atom_site_label_2
_geom_bond_distance
_geom_bond_site_symmetry_2
Mo0 Te0 2.700679 1_545
Mo0 Te0 2.700681 1_445
Mo0 Te0 2.700681 1_555
Mo0 Te1 2.701645 1_545
Mo0 Te1 2.701647 1_445
Mo0 Te1 2.701647 1_555
Mo1 S0 2.442680 1_565
Mo1 S0 2.442682 1_555
Mo1 S0 2.442682 1_665
Mo1 S3 2.443608 1_565
Mo1 S3 2.443610 1_665
Mo1 S3 2.443610 1_555
S1 W0 2.447099 1_565
S1 W0 2.447102 1_555
S1 W0 2.447102 1_665
S2 W0 2.446871 1_565
S2 W0 2.446874 1_555
S2 W0 2.446874 1_665
