# generated using pymatgen
data_V3Se2ClO8
_symmetry_space_group_name_H-M   'P 1'
_cell_length_a   6.71510200
_cell_length_b   7.91606842
_cell_length_c   9.92606171
_cell_angle_alpha   90.11109193
_cell_angle_beta   91.31044546
_cell_angle_gamma   90.60575909
_symmetry_Int_Tables_number   1
_chemical_formula_structural   V3Se2ClO8
_chemical_formula_sum   'V6 Se4 Cl2 O16'
_cell_volume   527.47297784
_cell_formula_units_Z   2
loop_
 _symmetry_equiv_pos_site_id
 _symmetry_equiv_pos_as_xyz
  1  'x, y, z'
loop_
 _atom_site_type_symbol
 _atom_site_label
 _atom_site_symmetry_multiplicity
 _atom_site_fract_x
 _atom_site_fract_y
 _atom_site_fract_z
 _atom_site_occupancy
  V  V0  1  0.50000000  0.00000000  0.00000000  1
  V  V1  1  0.50000000  0.00000000  0.50000000  1
  V  V2  1  0.00000000  0.00000000  0.00000000  1
  V  V3  1  0.27839300  0.18888900  0.25079300  1
  V  V4  1  0.72160700  0.81111100  0.74920700  1
  V  V5  1  0.00000000  0.00000000  0.50000000  1
  Se  Se0  1  0.25115200  0.35472600  0.94570700  1
  Se  Se1  1  0.74884800  0.64527400  0.05429300  1
  Se  Se2  1  0.25414500  0.35743900  0.55182900  1
  Se  Se3  1  0.74585500  0.64256100  0.44817100  1
  Cl  Cl0  1  0.63721600  0.12912900  0.26544700  1
  Cl  Cl1  1  0.36278400  0.87087100  0.73455300  1
  O  O0  1  0.74700100  0.97314300  0.89995900  1
  O  O1  1  0.75880200  0.62185300  0.88237300  1
  O  O2  1  0.24760100  0.38135800  0.37932200  1
  O  O3  1  0.45590200  0.23149700  0.92305800  1
  O  O4  1  0.54505700  0.77011000  0.41929200  1
  O  O5  1  0.95391300  0.77714000  0.42697100  1
  O  O6  1  0.25299900  0.02685700  0.10004100  1
  O  O7  1  0.04781700  0.21489900  0.91648400  1
  O  O8  1  0.04608700  0.22286000  0.57302900  1
  O  O9  1  0.95218300  0.78510100  0.08351600  1
  O  O10  1  0.75382400  0.97308500  0.60170500  1
  O  O11  1  0.24617600  0.02691500  0.39829500  1
  O  O12  1  0.54409800  0.76850300  0.07694200  1
  O  O13  1  0.45494300  0.22989000  0.58070800  1
  O  O14  1  0.24119800  0.37814700  0.11762700  1
  O  O15  1  0.75239900  0.61864200  0.62067800  1
loop_
_geom_bond_atom_site_label_1
_geom_bond_atom_site_label_2
_geom_bond_distance
_geom_bond_site_symmetry_2
Cl0 V3 2.461531 1_555
Cl0 V1 2.720622 1_555
Cl0 V0 2.948710 1_555
Cl1 V4 2.461531 1_555
Cl1 V1 2.720622 1_565
Cl1 V0 2.948710 1_566
O0 V2 1.957540 1_666
O0 V0 1.965788 1_566
O0 V4 1.972227 1_555
O1 Se1 1.719069 1_556
O1 V4 2.013606 1_555
O2 Se2 1.722730 1_555
O2 V3 2.000731 1_555
O3 Se0 1.712941 1_555
O3 V0 2.008919 1_556
O4 Se3 1.712307 1_555
O4 V1 2.015481 1_565
O5 Se3 1.764665 1_555
O5 V5 1.925303 1_665
O6 V2 1.957540 1_555
O6 V0 1.965788 1_555
O6 V3 1.972227 1_555
O7 Se0 1.767021 1_555
O7 V2 1.921026 1_556
O8 Se2 1.764665 1_555
O8 V5 1.925303 1_555
O9 Se1 1.767021 1_555
O9 V2 1.921026 1_665
O10 V4 1.962235 1_555
O10 V5 1.966467 1_665
O10 V1 1.974720 1_565
O11 V3 1.962235 1_555
O11 V5 1.966467 1_555
O11 V1 1.974720 1_555
O12 Se1 1.712941 1_555
O12 V0 2.008919 1_565
O13 Se2 1.712307 1_555
O13 V1 2.015481 1_555
O14 Se0 1.719069 1_554
O14 V3 2.013606 1_555
O15 Se3 1.722730 1_555
O15 V4 2.000731 1_555
