# generated using pymatgen
data_Rb3SbF6
_symmetry_space_group_name_H-M   'P 1'
_cell_length_a   7.25541300
_cell_length_b   7.27719075
_cell_length_c   7.34578838
_cell_angle_alpha   100.56956493
_cell_angle_beta   107.09671945
_cell_angle_gamma   100.76202129
_symmetry_Int_Tables_number   1
_chemical_formula_structural   Rb3SbF6
_chemical_formula_sum   'Rb3 Sb1 F6'
_cell_volume   352.26537891
_cell_formula_units_Z   1
loop_
 _symmetry_equiv_pos_site_id
 _symmetry_equiv_pos_as_xyz
  1  'x, y, z'
loop_
 _atom_site_type_symbol
 _atom_site_label
 _atom_site_symmetry_multiplicity
 _atom_site_fract_x
 _atom_site_fract_y
 _atom_site_fract_z
 _atom_site_occupancy
  Rb  Rb0  1  0.00000000  0.50000000  0.00000000  1
  Rb  Rb1  1  0.50000000  0.00000000  0.00000000  1
  Rb  Rb2  1  0.00000000  0.00000000  0.50000000  1
  Sb  Sb0  1  0.00000000  0.00000000  0.00000000  1
  F  F0  1  0.03991100  0.77671900  0.77449700  1
  F  F1  1  0.96008900  0.22328100  0.22550300  1
  F  F2  1  0.79328800  0.79069800  0.08437000  1
  F  F3  1  0.20671200  0.20930200  0.91563000  1
  F  F4  1  0.76270500  0.08299900  0.79023000  1
  F  F5  1  0.23729500  0.91700100  0.20977000  1
loop_
_geom_bond_atom_site_label_1
_geom_bond_atom_site_label_2
_geom_bond_distance
_geom_bond_site_symmetry_2
F0 Sb0 2.222234 1_566
F0 Rb2 2.797184 1_565
F0 Rb0 2.858493 1_556
F0 Rb1 3.203587 1_566
F1 Sb0 2.222234 1_655
F1 Rb2 2.797184 1_655
F1 Rb0 2.858493 1_655
F1 Rb1 3.203587 1_555
F2 Sb0 2.234523 1_665
F2 Rb1 2.830797 1_565
F2 Rb0 2.891206 1_655
F2 Rb2 2.939288 1_665
F3 Sb0 2.234523 1_556
F3 Rb1 2.830797 1_556
F3 Rb0 2.891206 1_556
F3 Rb2 2.939288 1_555
F4 Sb0 2.207568 1_656
F4 Rb1 2.830306 1_556
F4 Rb0 3.053011 1_656
F4 Rb2 3.154107 1_655
F5 Sb0 2.207568 1_565
F5 Rb1 2.830306 1_565
F5 Rb0 3.053011 1_555
F5 Rb2 3.154107 1_565
