# generated using pymatgen
data_NaSbWO6
_symmetry_space_group_name_H-M   'P 1'
_cell_length_a   7.35427458
_cell_length_b   7.35427458
_cell_length_c   7.35427458
_cell_angle_alpha   120.74811604
_cell_angle_beta   119.30869164
_cell_angle_gamma   89.95533424
_symmetry_Int_Tables_number   1
_chemical_formula_structural   NaSbWO6
_chemical_formula_sum   'Na2 Sb2 W2 O12'
_cell_volume   281.08141835
_cell_formula_units_Z   2
loop_
 _symmetry_equiv_pos_site_id
 _symmetry_equiv_pos_as_xyz
  1  'x, y, z'
loop_
 _atom_site_type_symbol
 _atom_site_label
 _atom_site_symmetry_multiplicity
 _atom_site_fract_x
 _atom_site_fract_y
 _atom_site_fract_z
 _atom_site_occupancy
  Na  Na0  1  0.00000000  0.50000000  0.50000000  1
  Na  Na1  1  0.50000000  0.50000000  0.00000000  1
  Sb  Sb0  1  0.00000000  0.50000000  0.00000000  1
  Sb  Sb1  1  0.00000000  0.00000000  0.50000000  1
  W  W0  1  0.50000000  0.00000000  0.50000000  1
  W  W1  1  0.00000000  0.00000000  0.00000000  1
  O  O0  1  0.32066700  0.06981700  0.63547000  1
  O  O1  1  0.32066700  0.68519700  0.25085000  1
  O  O2  1  0.30437500  0.05437500  0.25000000  1
  O  O3  1  0.93434700  0.68519700  0.86453000  1
  O  O4  1  0.93434700  0.06981700  0.24915000  1
  O  O5  1  0.91939900  0.66939900  0.25000000  1
  O  O6  1  0.67933300  0.93018300  0.36453000  1
  O  O7  1  0.67933300  0.31480300  0.74915000  1
  O  O8  1  0.69562500  0.94562500  0.75000000  1
  O  O9  1  0.06565300  0.31480300  0.13547000  1
  O  O10  1  0.06565300  0.93018300  0.75085000  1
  O  O11  1  0.08060100  0.33060100  0.75000000  1
loop_
_geom_bond_atom_site_label_1
_geom_bond_atom_site_label_2
_geom_bond_distance
_geom_bond_site_symmetry_2
Na0 O5 2.560803 1_455
Na0 O11 2.560803 1_555
Na0 O3 2.609174 1_455
Na0 O10 2.609174 1_555
Na0 O9 2.609174 1_555
Na0 O4 2.609174 1_455
Na1 O5 2.560803 1_555
Na1 O11 2.560803 1_554
Na1 O0 2.609174 1_554
Na1 O6 2.609174 1_555
Na1 O7 2.609174 1_554
Na1 O1 2.609174 1_555
O0 W0 1.938530 1_555
O0 Sb1 1.999062 1_555
O1 W0 1.938530 1_565
O1 Sb0 1.999062 1_555
O2 W0 1.941982 1_555
O2 W1 1.941982 1_555
O3 W1 1.938530 1_666
O3 Sb0 1.999062 1_656
O4 W1 1.938530 1_655
O4 Sb1 1.999062 1_655
O5 Sb0 2.001864 1_655
O5 Sb1 2.001864 1_665
O6 W0 1.938530 1_565
O6 Sb1 1.999062 1_665
O7 W0 1.938530 1_555
O7 Sb0 1.999062 1_656
O8 W0 1.941982 1_565
O8 W1 1.941982 1_666
O9 W1 1.938530 1_555
O9 Sb0 1.999062 1_555
O10 W1 1.938530 1_566
O10 Sb1 1.999062 1_565
O11 Sb0 2.001864 1_556
O11 Sb1 2.001864 1_555
