# generated using pymatgen
data_CsMnInTe3
_symmetry_space_group_name_H-M   'P 1'
_cell_length_a   8.87602626
_cell_length_b   8.87602626
_cell_length_c   24.52194378
_cell_angle_alpha   84.80896158
_cell_angle_beta   84.80896158
_cell_angle_gamma   90.00412041
_symmetry_Int_Tables_number   1
_chemical_formula_structural   CsMnInTe3
_chemical_formula_sum   'Cs8 Mn8 In8 Te24'
_cell_volume   1916.05162130
_cell_formula_units_Z   8
loop_
 _symmetry_equiv_pos_site_id
 _symmetry_equiv_pos_as_xyz
  1  'x, y, z'
loop_
 _atom_site_type_symbol
 _atom_site_label
 _atom_site_symmetry_multiplicity
 _atom_site_fract_x
 _atom_site_fract_y
 _atom_site_fract_z
 _atom_site_occupancy
  Cs  Cs0  1  0.76988116  0.39472640  0.42008771  1
  Cs  Cs1  1  0.60527360  0.23011884  0.07991229  1
  Cs  Cs2  1  0.23011884  0.60527360  0.57991229  1
  Cs  Cs3  1  0.39472640  0.76988116  0.92008771  1
  Cs  Cs4  1  0.10466619  0.22990057  0.07991920  1
  Cs  Cs5  1  0.77009943  0.89533381  0.42008080  1
  Cs  Cs6  1  0.89533381  0.77009943  0.92008080  1
  Cs  Cs7  1  0.22990057  0.10466619  0.57991920  1
  Mn  Mn0  1  0.06312289  0.93687711  0.25000000  1
  Mn  Mn1  1  0.93687711  0.06312289  0.75000000  1
  Mn  Mn2  1  0.06379861  0.43907209  0.24991129  1
  Mn  Mn3  1  0.56092791  0.93620139  0.25008871  1
  Mn  Mn4  1  0.93620139  0.56092791  0.75008871  1
  Mn  Mn5  1  0.43907209  0.06379861  0.74991129  1
  Mn  Mn6  1  0.56121930  0.43878070  0.25000000  1
  Mn  Mn7  1  0.43878070  0.56121930  0.75000000  1
  In  In0  1  0.84403472  0.71913664  0.12361479  1
  In  In1  1  0.28086336  0.15596528  0.37638521  1
  In  In2  1  0.15596528  0.28086336  0.87638521  1
  In  In3  1  0.71913664  0.84403472  0.62361479  1
  In  In4  1  0.28079316  0.65602220  0.37592489  1
  In  In5  1  0.34397780  0.71920684  0.12407511  1
  In  In6  1  0.71920684  0.34397780  0.62407511  1
  In  In7  1  0.65602220  0.28079316  0.87592489  1
  Te  Te0  1  0.26314451  0.38866173  0.44739556  1
  Te  Te1  1  0.61133827  0.73685549  0.05260444  1
  Te  Te2  1  0.73685549  0.61133827  0.55260444  1
  Te  Te3  1  0.38866173  0.26314451  0.94739556  1
  Te  Te4  1  0.11202408  0.73698158  0.05265871  1
  Te  Te5  1  0.26301842  0.88797592  0.44734129  1
  Te  Te6  1  0.88797592  0.26301842  0.94734129  1
  Te  Te7  1  0.73698158  0.11202408  0.55265871  1
  Te  Te8  1  0.32902318  0.43545480  0.18430799  1
  Te  Te9  1  0.56454520  0.67097682  0.31569201  1
  Te  Te10  1  0.67097682  0.56454520  0.81569201  1
  Te  Te11  1  0.43545480  0.32902318  0.68430799  1
  Te  Te12  1  0.02865452  0.17154085  0.31545052  1
  Te  Te13  1  0.82845915  0.97134548  0.18454948  1
  Te  Te14  1  0.97134548  0.82845915  0.68454948  1
  Te  Te15  1  0.17154085  0.02865452  0.81545052  1
  Te  Te16  1  0.02775479  0.67140378  0.31549624  1
  Te  Te17  1  0.32859622  0.97224521  0.18450376  1
  Te  Te18  1  0.97224521  0.32859622  0.68450376  1
  Te  Te19  1  0.67140378  0.02775479  0.81549624  1
  Te  Te20  1  0.82875420  0.43627568  0.18464454  1
  Te  Te21  1  0.56372432  0.17124580  0.31535546  1
  Te  Te22  1  0.17124580  0.56372432  0.81535546  1
  Te  Te23  1  0.43627568  0.82875420  0.68464454  1
loop_
_geom_bond_atom_site_label_1
_geom_bond_atom_site_label_2
_geom_bond_distance
_geom_bond_site_symmetry_2
Cs0 Te2 3.911583 1_555
Cs0 Te7 3.911786 1_555
Cs0 Te9 3.949262 1_555
Cs0 Te12 3.954477 1_655
Cs0 Te16 3.955406 1_655
Cs0 Te21 3.956094 1_555
Cs1 Te3 3.911583 1_554
Cs1 Te6 3.911786 1_554
Cs1 Te8 3.949262 1_555
Cs1 Te13 3.954477 1_545
Cs1 Te17 3.955406 1_545
Cs1 Te20 3.956094 1_555
Cs2 Te0 3.911583 1_555
Cs2 Te5 3.911786 1_555
Cs2 Te11 3.949262 1_555
Cs2 Te14 3.954477 1_455
Cs2 Te18 3.955406 1_455
Cs2 Te23 3.956094 1_555
Cs3 Te1 3.911583 1_556
Cs3 Te4 3.911786 1_556
Cs3 Te10 3.949262 1_555
Cs3 Te15 3.954477 1_565
Cs3 Te19 3.955406 1_565
Cs3 Te22 3.956094 1_555
Cs4 Te6 3.913280 1_454
Cs4 Te3 3.917409 1_554
Cs4 Te8 3.951478 1_555
Cs4 Te17 3.952183 1_545
Cs4 Te13 3.956725 1_445
Cs4 Te20 3.957508 1_455
Cs5 Te7 3.913280 1_565
Cs5 Te2 3.917409 1_555
Cs5 Te9 3.951478 1_555
Cs5 Te16 3.952183 1_655
Cs5 Te12 3.956725 1_665
Cs5 Te21 3.957508 1_565
Cs6 Te4 3.913280 1_656
Cs6 Te1 3.917409 1_556
Cs6 Te10 3.951478 1_555
Cs6 Te19 3.952183 1_565
Cs6 Te15 3.956725 1_665
Cs6 Te22 3.957508 1_655
Cs7 Te5 3.913280 1_545
Cs7 Te0 3.917409 1_555
Cs7 Te11 3.951478 1_555
Cs7 Te18 3.952183 1_455
Cs7 Te14 3.956725 1_445
Cs7 Te23 3.957508 1_545
Mn0 Te16 2.730257 1_555
Mn0 Te17 2.730257 1_555
Mn0 Te12 2.743009 1_565
Mn0 Te13 2.743009 1_455
Mn1 Te19 2.730257 1_555
Mn1 Te18 2.730257 1_555
Mn1 Te14 2.743009 1_545
Mn1 Te15 2.743009 1_655
Mn2 Te16 2.729215 1_555
Mn2 Te8 2.730393 1_555
Mn2 Te20 2.743352 1_455
Mn2 Te12 2.745473 1_555
Mn3 Te17 2.729215 1_555
Mn3 Te9 2.730393 1_555
Mn3 Te21 2.743352 1_565
Mn3 Te13 2.745473 1_555
Mn4 Te18 2.729215 1_555
Mn4 Te10 2.730393 1_555
Mn4 Te22 2.743352 1_655
Mn4 Te14 2.745473 1_555
Mn5 Te19 2.729215 1_555
Mn5 Te11 2.730393 1_555
Mn5 Te23 2.743352 1_545
Mn5 Te15 2.745473 1_555
Mn6 Te8 2.729992 1_555
Mn6 Te9 2.729992 1_555
Mn6 Te21 2.743302 1_555
Mn6 Te20 2.743302 1_555
Mn7 Te11 2.729992 1_555
Mn7 Te10 2.729992 1_555
Mn7 Te22 2.743302 1_555
Mn7 Te23 2.743302 1_555
In0 Te13 2.798428 1_555
In0 Te20 2.800881 1_555
In0 Te4 2.812806 1_655
In0 Te1 2.814988 1_555
In1 Te12 2.798428 1_555
In1 Te21 2.800881 1_555
In1 Te5 2.812806 1_545
In1 Te0 2.814988 1_555
In2 Te15 2.798428 1_555
In2 Te22 2.800881 1_555
In2 Te6 2.812806 1_455
In2 Te3 2.814988 1_555
In3 Te14 2.798428 1_555
In3 Te23 2.800881 1_555
In3 Te7 2.812806 1_565
In3 Te2 2.814988 1_555
In4 Te16 2.797237 1_555
In4 Te9 2.798901 1_555
In4 Te0 2.815210 1_555
In4 Te5 2.816575 1_555
In5 Te17 2.797237 1_555
In5 Te8 2.798901 1_555
In5 Te1 2.815210 1_555
In5 Te4 2.816575 1_555
In6 Te18 2.797237 1_555
In6 Te11 2.798901 1_555
In6 Te2 2.815210 1_555
In6 Te7 2.816575 1_555
In7 Te19 2.797237 1_555
In7 Te10 2.798901 1_555
In7 Te3 2.815210 1_555
In7 Te6 2.816575 1_555
