# generated using pymatgen
data_RbNa2Al3Ge3O13
_symmetry_space_group_name_H-M   'P 1'
_cell_length_a   5.32609900
_cell_length_b   8.35782300
_cell_length_c   15.84961900
_cell_angle_alpha   90.00000000
_cell_angle_beta   89.99974439
_cell_angle_gamma   90.00000000
_symmetry_Int_Tables_number   1
_chemical_formula_structural   RbNa2Al3Ge3O13
_chemical_formula_sum   'Rb2 Na4 Al6 Ge6 O26'
_cell_volume   705.53933459
_cell_formula_units_Z   2
loop_
 _symmetry_equiv_pos_site_id
 _symmetry_equiv_pos_as_xyz
  1  'x, y, z'
loop_
 _atom_site_type_symbol
 _atom_site_label
 _atom_site_symmetry_multiplicity
 _atom_site_fract_x
 _atom_site_fract_y
 _atom_site_fract_z
 _atom_site_occupancy
  Rb  Rb0  1  0.60931400  0.06418900  0.24740400  1
  Rb  Rb1  1  0.10931400  0.93581100  0.74740400  1
  Na  Na0  1  0.56853900  0.32775100  0.99941200  1
  Na  Na1  1  0.06853900  0.67224900  0.49941200  1
  Na  Na2  1  0.06828300  0.67659300  0.00059200  1
  Na  Na3  1  0.56828300  0.32340700  0.50059200  1
  Al  Al0  1  0.52988400  0.60732700  0.35599200  1
  Al  Al1  1  0.53043700  0.60548900  0.64400500  1
  Al  Al2  1  0.03043700  0.39451100  0.14400500  1
  Al  Al3  1  0.02988400  0.39267300  0.85599200  1
  Al  Al4  1  0.53432100  0.89628700  0.99939900  1
  Al  Al5  1  0.03432100  0.10371300  0.49939900  1
  Ge  Ge0  1  0.52928600  0.61242100  0.14331600  1
  Ge  Ge1  1  0.52973400  0.61079800  0.85644900  1
  Ge  Ge2  1  0.02973400  0.38920200  0.35644900  1
  Ge  Ge3  1  0.02928600  0.38757900  0.64331600  1
  Ge  Ge4  1  0.03340200  0.10878600  0.00056900  1
  Ge  Ge5  1  0.53340200  0.89121400  0.50056900  1
  O  O0  1  0.33329300  0.45199000  0.11055600  1
  O  O1  1  0.33153100  0.45314700  0.88991000  1
  O  O2  1  0.83153100  0.54685300  0.38991000  1
  O  O3  1  0.83329300  0.54801000  0.61055600  1
  O  O4  1  0.36009800  0.07662500  0.00050000  1
  O  O5  1  0.86009800  0.92337500  0.50050000  1
  O  O6  1  0.49737400  0.65615000  0.24990300  1
  O  O7  1  0.49558000  0.65722100  0.74996800  1
  O  O8  1  0.99558000  0.34277900  0.24996800  1
  O  O9  1  0.99737400  0.34385000  0.74990300  1
  O  O10  1  0.86195500  0.92858400  0.99975700  1
  O  O11  1  0.36195500  0.07141600  0.49975700  1
  O  O12  1  0.83299300  0.55386200  0.11159200  1
  O  O13  1  0.83499400  0.55510700  0.88786800  1
  O  O14  1  0.33499400  0.44489300  0.38786800  1
  O  O15  1  0.33299300  0.44613800  0.61159200  1
  O  O16  1  0.43810900  0.78500800  0.08829800  1
  O  O17  1  0.43524800  0.78464500  0.91077000  1
  O  O18  1  0.93524800  0.21535500  0.41077000  1
  O  O19  1  0.93810900  0.21499200  0.58829800  1
  O  O20  1  0.93471700  0.22107700  0.08885200  1
  O  O21  1  0.93712600  0.22095200  0.91217600  1
  O  O22  1  0.43712600  0.77904800  0.41217600  1
  O  O23  1  0.43471700  0.77892300  0.58885200  1
  O  O24  1  0.61110200  0.06600400  0.75271300  1
  O  O25  1  0.11110200  0.93399600  0.25271300  1
loop_
_geom_bond_atom_site_label_1
_geom_bond_atom_site_label_2
_geom_bond_distance
_geom_bond_site_symmetry_2
Na0 O4 2.374454 1_556
Na0 O1 2.388317 1_555
Na0 O0 2.398177 1_556
Na0 O21 2.561708 1_555
Na0 O20 2.570630 1_556
Na1 O5 2.374454 1_455
Na1 O2 2.388317 1_455
Na1 O3 2.398177 1_455
Na1 O22 2.561708 1_555
Na1 O23 2.570630 1_555
Na2 O10 2.375594 1_454
Na2 O12 2.391190 1_455
Na2 O13 2.401434 1_454
Na2 O16 2.575519 1_555
Na2 O17 2.581149 1_554
Na2 O1 2.920773 1_554
Na2 O0 2.924684 1_555
Na3 O11 2.375594 1_555
Na3 O15 2.391190 1_555
Na3 O14 2.401434 1_555
Na3 O19 2.575519 1_555
Na3 O18 2.581149 1_555
Na3 O2 2.920773 1_555
Na3 O3 2.924684 1_555
Al0 O6 1.738918 1_555
Al0 O22 1.759798 1_555
Al0 O2 1.767947 1_555
Al0 O14 1.782066 1_555
Al1 O7 1.744143 1_555
Al1 O3 1.764579 1_555
Al1 O23 1.767823 1_555
Al1 O15 1.773011 1_555
Al2 O8 1.744143 1_455
Al2 O0 1.764579 1_555
Al2 O20 1.767823 1_455
Al2 O12 1.773011 1_455
Al3 O9 1.738918 1_455
Al3 O21 1.759798 1_455
Al3 O1 1.767947 1_555
Al3 O13 1.782066 1_455
Al4 O16 1.764341 1_556
Al4 O10 1.765775 1_555
Al4 O17 1.767024 1_555
Al4 O4 1.770059 1_566
Al5 O19 1.764341 1_455
Al5 O11 1.765775 1_555
Al5 O18 1.767024 1_455
Al5 O5 1.770059 1_445
Ge0 O6 1.736781 1_555
Ge0 O16 1.754111 1_555
Ge0 O12 1.763206 1_555
Ge0 O0 1.776845 1_555
Ge1 O7 1.741238 1_555
Ge1 O17 1.762291 1_555
Ge1 O13 1.762955 1_555
Ge1 O1 1.769682 1_555
Ge2 O8 1.741238 1_455
Ge2 O18 1.762291 1_455
Ge2 O14 1.762955 1_555
Ge2 O2 1.769682 1_455
Ge3 O9 1.736781 1_455
Ge3 O19 1.754111 1_455
Ge3 O15 1.763206 1_555
Ge3 O3 1.776845 1_455
Ge4 O4 1.760655 1_555
Ge4 O10 1.761341 1_444
Ge4 O21 1.761979 1_454
Ge4 O20 1.764925 1_455
Ge5 O5 1.760655 1_555
Ge5 O11 1.761341 1_565
Ge5 O22 1.761979 1_555
Ge5 O23 1.764925 1_555
O24 Rb1 2.869200 1_645
O24 Rb1 2.886824 1_545
O25 Rb0 2.869200 1_565
O25 Rb0 2.886824 1_465
