# generated using pymatgen
data_Sr(BS2)2
_symmetry_space_group_name_H-M   'P 1'
_cell_length_a   8.84988972
_cell_length_b   8.84988973
_cell_length_c   8.84988962
_cell_angle_alpha   58.72104899
_cell_angle_beta   58.72104893
_cell_angle_gamma   58.72104481
_symmetry_Int_Tables_number   1
_chemical_formula_structural   Sr(BS2)2
_chemical_formula_sum   'Sr3 B6 S12'
_cell_volume   475.79421013
_cell_formula_units_Z   3
loop_
 _symmetry_equiv_pos_site_id
 _symmetry_equiv_pos_as_xyz
  1  'x, y, z'
loop_
 _atom_site_type_symbol
 _atom_site_label
 _atom_site_symmetry_multiplicity
 _atom_site_fract_x
 _atom_site_fract_y
 _atom_site_fract_z
 _atom_site_occupancy
  Sr  Sr0  1  0.19325264  0.19325264  0.19325264  1
  Sr  Sr1  1  0.80674736  0.80674736  0.80674736  1
  Sr  Sr2  1  -0.00000000  -0.00000000  0.00000000  1
  B  B0  1  0.63473297  0.23583955  0.38650803  1
  B  B1  1  0.23583955  0.38650803  0.63473297  1
  B  B2  1  0.38650803  0.63473297  0.23583955  1
  B  B3  1  0.61349197  0.36526703  0.76416045  1
  B  B4  1  0.36526703  0.76416045  0.61349197  1
  B  B5  1  0.76416045  0.61349197  0.36526703  1
  S  S0  1  0.14398557  0.95222530  0.62614774  1
  S  S1  1  0.04777470  0.37385226  0.85601443  1
  S  S2  1  0.37385226  0.85601443  0.04777470  1
  S  S3  1  0.38880308  0.55017659  0.81474860  1
  S  S4  1  0.81474860  0.38880308  0.55017659  1
  S  S5  1  0.55017659  0.81474860  0.38880308  1
  S  S6  1  0.61119692  0.44982341  0.18525140  1
  S  S7  1  0.18525140  0.61119692  0.44982341  1
  S  S8  1  0.44982341  0.18525140  0.61119692  1
  S  S9  1  0.62614774  0.14398557  0.95222530  1
  S  S10  1  0.85601443  0.04777470  0.37385226  1
  S  S11  1  0.95222530  0.62614774  0.14398557  1
loop_
_geom_bond_atom_site_label_1
_geom_bond_atom_site_label_2
_geom_bond_distance
_geom_bond_site_symmetry_2
B0 S10 1.788549 1_555
B0 S6 1.809719 1_555
B0 S8 1.813756 1_555
B1 S1 1.788549 1_555
B1 S8 1.809719 1_555
B1 S7 1.813756 1_555
B2 S2 1.788549 1_555
B2 S7 1.809719 1_555
B2 S6 1.813756 1_555
B3 S9 1.788549 1_555
B3 S4 1.809719 1_555
B3 S3 1.813756 1_555
B4 S0 1.788549 1_555
B4 S3 1.809719 1_555
B4 S5 1.813756 1_555
B5 S11 1.788549 1_555
B5 S5 1.809719 1_555
B5 S4 1.813756 1_555
S0 Sr2 3.043725 1_566
S0 Sr1 3.165341 1_455
S0 Sr0 3.187883 1_565
S1 Sr2 3.043725 1_556
S1 Sr0 3.165341 1_556
S1 Sr1 3.187883 1_455
S2 Sr2 3.043725 1_565
S2 Sr0 3.165341 1_565
S2 Sr1 3.187883 1_554
S3 Sr0 3.586462 1_556
S4 Sr0 3.586462 1_655
S5 Sr0 3.586462 1_565
S6 Sr1 3.586462 1_554
S7 Sr1 3.586462 1_455
S8 Sr1 3.586462 1_545
S9 Sr2 3.043725 1_656
S9 Sr1 3.165341 1_545
S9 Sr0 3.187883 1_556
S10 Sr2 3.043725 1_655
S10 Sr0 3.165341 1_655
S10 Sr1 3.187883 1_545
S11 Sr2 3.043725 1_665
S11 Sr1 3.165341 1_554
S11 Sr0 3.187883 1_655
