# generated using pymatgen
data_Ba3Y2(B2O5)3
_symmetry_space_group_name_H-M   'P 1'
_cell_length_a   12.50099357
_cell_length_b   12.50099357
_cell_length_c   12.50099357
_cell_angle_alpha   109.47122063
_cell_angle_beta   109.47122063
_cell_angle_gamma   109.47122063
_symmetry_Int_Tables_number   1
_chemical_formula_structural   Ba3Y2(B2O5)3
_chemical_formula_sum   'Ba12 Y8 B24 O60'
_cell_volume   1503.87487647
_cell_formula_units_Z   4
loop_
 _symmetry_equiv_pos_site_id
 _symmetry_equiv_pos_as_xyz
  1  'x, y, z'
loop_
 _atom_site_type_symbol
 _atom_site_label
 _atom_site_symmetry_multiplicity
 _atom_site_fract_x
 _atom_site_fract_y
 _atom_site_fract_z
 _atom_site_occupancy
  Ba  Ba0  1  0.11939300  0.75000000  0.86939300  1
  Ba  Ba1  1  0.38060700  0.25000000  0.63060700  1
  Ba  Ba2  1  0.25000000  0.63060700  0.38060700  1
  Ba  Ba3  1  0.75000000  0.86939300  0.11939300  1
  Ba  Ba4  1  0.86939300  0.11939300  0.75000000  1
  Ba  Ba5  1  0.63060700  0.38060700  0.25000000  1
  Ba  Ba6  1  0.88060700  0.25000000  0.13060700  1
  Ba  Ba7  1  0.61939300  0.75000000  0.36939300  1
  Ba  Ba8  1  0.75000000  0.36939300  0.61939300  1
  Ba  Ba9  1  0.25000000  0.13060700  0.88060700  1
  Ba  Ba10  1  0.13060700  0.88060700  0.25000000  1
  Ba  Ba11  1  0.36939300  0.61939300  0.75000000  1
  Y  Y0  1  0.50000000  0.50000000  0.50000000  1
  Y  Y1  1  0.00000000  0.00000000  0.50000000  1
  Y  Y2  1  0.00000000  0.50000000  0.00000000  1
  Y  Y3  1  0.50000000  0.00000000  0.00000000  1
  Y  Y4  1  0.00000000  0.50000000  0.50000000  1
  Y  Y5  1  0.00000000  0.00000000  0.00000000  1
  Y  Y6  1  0.50000000  0.00000000  0.50000000  1
  Y  Y7  1  0.50000000  0.50000000  0.00000000  1
  B  B0  1  0.80419800  0.62837300  0.54813800  1
  B  B1  1  0.91976500  0.87162700  0.67582500  1
  B  B2  1  0.69580200  0.24394000  0.82417500  1
  B  B3  1  0.58023500  0.25606000  0.95186200  1
  B  B4  1  0.25606000  0.95186200  0.58023500  1
  B  B5  1  0.24394000  0.82417500  0.69580200  1
  B  B6  1  0.87162700  0.67582500  0.91976500  1
  B  B7  1  0.62837300  0.54813800  0.80419800  1
  B  B8  1  0.67582500  0.91976500  0.87162700  1
  B  B9  1  0.54813800  0.80419800  0.62837300  1
  B  B10  1  0.95186200  0.58023500  0.25606000  1
  B  B11  1  0.82417500  0.69580200  0.24394000  1
  B  B12  1  0.19580200  0.37162700  0.45186200  1
  B  B13  1  0.08023500  0.12837300  0.32417500  1
  B  B14  1  0.30419800  0.75606000  0.17582500  1
  B  B15  1  0.41976500  0.74394000  0.04813800  1
  B  B16  1  0.74394000  0.04813800  0.41976500  1
  B  B17  1  0.75606000  0.17582500  0.30419800  1
  B  B18  1  0.12837300  0.32417500  0.08023500  1
  B  B19  1  0.37162700  0.45186200  0.19580200  1
  B  B20  1  0.32417500  0.08023500  0.12837300  1
  B  B21  1  0.45186200  0.19580200  0.37162700  1
  B  B22  1  0.04813800  0.41976500  0.74394000  1
  B  B23  1  0.17582500  0.30419800  0.75606000  1
  O  O0  1  0.67999000  0.60951600  0.48819600  1
  O  O1  1  0.87867900  0.89048400  0.57047400  1
  O  O2  1  0.82001000  0.30820500  0.92952600  1
  O  O3  1  0.62132100  0.19179400  0.01180400  1
  O  O4  1  0.19179500  0.01180400  0.62132100  1
  O  O5  1  0.30820600  0.92952600  0.82001000  1
  O  O6  1  0.89048400  0.57047400  0.87867900  1
  O  O7  1  0.60951600  0.48819600  0.67999000  1
  O  O8  1  0.57047400  0.87867900  0.89048400  1
  O  O9  1  0.48819600  0.67999000  0.60951600  1
  O  O10  1  0.01180400  0.62132100  0.19179500  1
  O  O11  1  0.92952600  0.82001000  0.30820600  1
  O  O12  1  0.32001000  0.39048400  0.51180400  1
  O  O13  1  0.12132100  0.10951600  0.42952600  1
  O  O14  1  0.17999000  0.69179400  0.07047400  1
  O  O15  1  0.37867900  0.80820500  0.98819600  1
  O  O16  1  0.80820600  0.98819600  0.37867900  1
  O  O17  1  0.69179500  0.07047400  0.17999000  1
  O  O18  1  0.10951600  0.42952600  0.12132100  1
  O  O19  1  0.39048400  0.51180400  0.32001000  1
  O  O20  1  0.42952600  0.12132100  0.10951600  1
  O  O21  1  0.51180400  0.32001000  0.39048400  1
  O  O22  1  0.98819600  0.37867900  0.80820600  1
  O  O23  1  0.07047400  0.17999000  0.69179500  1
  O  O24  1  0.90836100  0.75000000  0.65836100  1
  O  O25  1  0.59163900  0.25000000  0.84163900  1
  O  O26  1  0.25000000  0.84163900  0.59163900  1
  O  O27  1  0.75000000  0.65836100  0.90836100  1
  O  O28  1  0.65836100  0.90836100  0.75000000  1
  O  O29  1  0.84163900  0.59163900  0.25000000  1
  O  O30  1  0.09163900  0.25000000  0.34163900  1
  O  O31  1  0.40836100  0.75000000  0.15836100  1
  O  O32  1  0.75000000  0.15836100  0.40836100  1
  O  O33  1  0.25000000  0.34163900  0.09163900  1
  O  O34  1  0.34163900  0.09163900  0.25000000  1
  O  O35  1  0.15836100  0.40836100  0.75000000  1
  O  O36  1  0.83227900  0.53022800  0.50851000  1
  O  O37  1  0.97828200  0.96977200  0.80205000  1
  O  O38  1  0.66772200  0.17623200  0.69795000  1
  O  O39  1  0.52171800  0.32376800  0.99149000  1
  O  O40  1  0.32376800  0.99149000  0.52171800  1
  O  O41  1  0.17623200  0.69795000  0.66772100  1
  O  O42  1  0.96977200  0.80205000  0.97828200  1
  O  O43  1  0.53022800  0.50851000  0.83227900  1
  O  O44  1  0.80205000  0.97828200  0.96977200  1
  O  O45  1  0.50851000  0.83227800  0.53022800  1
  O  O46  1  0.99149000  0.52171800  0.32376800  1
  O  O47  1  0.69795000  0.66772100  0.17623200  1
  O  O48  1  0.16772200  0.46977200  0.49149000  1
  O  O49  1  0.02171800  0.03022800  0.19795000  1
  O  O50  1  0.33227800  0.82376800  0.30205000  1
  O  O51  1  0.47828200  0.67623200  0.00851000  1
  O  O52  1  0.67623200  0.00851000  0.47828200  1
  O  O53  1  0.82376800  0.30205000  0.33227800  1
  O  O54  1  0.03022800  0.19795000  0.02171800  1
  O  O55  1  0.46977200  0.49149000  0.16772200  1
  O  O56  1  0.19795000  0.02171800  0.03022800  1
  O  O57  1  0.49149000  0.16772100  0.46977200  1
  O  O58  1  0.00851000  0.47828200  0.67623200  1
  O  O59  1  0.30205000  0.33227800  0.82376800  1
loop_
_geom_bond_atom_site_label_1
_geom_bond_atom_site_label_2
_geom_bond_distance
_geom_bond_site_symmetry_2
Ba0 O42 2.773622 1_455
Ba0 O41 2.773634 1_555
Ba0 O15 2.781973 1_555
Ba0 O14 2.781981 1_556
Ba0 O56 2.907170 1_566
Ba0 O58 2.907170 1_555
Ba0 O24 3.046227 1_455
Ba0 O6 3.058196 1_455
Ba0 O5 3.058203 1_555
Ba1 O40 2.773622 1_545
Ba1 O43 2.773626 1_555
Ba1 O13 2.781972 1_555
Ba1 O12 2.781981 1_555
Ba1 O59 2.907170 1_555
Ba1 O57 2.907174 1_555
Ba1 O25 3.046227 1_555
Ba1 O7 3.058203 1_555
Ba1 O4 3.058205 1_555
Ba2 O46 2.773622 1_455
Ba2 O45 2.773622 1_555
Ba2 O18 2.781972 1_555
Ba2 O19 2.781981 1_555
Ba2 O48 2.907170 1_555
Ba2 O50 2.907170 1_555
Ba2 O26 3.046227 1_555
Ba2 O9 3.058203 1_555
Ba2 O10 3.058205 1_555
Ba3 O44 2.773622 1_554
Ba3 O47 2.773634 1_555
Ba3 O16 2.781969 1_555
Ba3 O17 2.781972 1_565
Ba3 O49 2.907170 1_665
Ba3 O51 2.907170 1_555
Ba3 O27 3.046227 1_554
Ba3 O8 3.058196 1_554
Ba3 O11 3.058203 1_555
Ba4 O37 2.773622 1_545
Ba4 O38 2.773622 1_555
Ba4 O22 2.781969 1_555
Ba4 O23 2.781972 1_655
Ba4 O54 2.907170 1_656
Ba4 O52 2.907170 1_555
Ba4 O28 3.046227 1_545
Ba4 O2 3.058196 1_555
Ba4 O1 3.058196 1_545
Ba5 O39 2.773622 1_554
Ba5 O36 2.773626 1_555
Ba5 O20 2.781972 1_555
Ba5 O21 2.781981 1_555
Ba5 O55 2.907170 1_555
Ba5 O53 2.907170 1_555
Ba5 O29 3.046227 1_555
Ba5 O0 3.058203 1_555
Ba5 O3 3.058210 1_555
Ba6 O53 2.773622 1_555
Ba6 O54 2.773622 1_655
Ba6 O3 2.781969 1_555
Ba6 O2 2.781972 1_554
Ba6 O46 2.907170 1_555
Ba6 O44 2.907170 1_544
Ba6 O30 3.046227 1_655
Ba6 O18 3.058196 1_655
Ba6 O17 3.058196 1_555
Ba7 O55 2.773622 1_555
Ba7 O52 2.773622 1_565
Ba7 O1 2.781972 1_555
Ba7 O0 2.781981 1_555
Ba7 O45 2.907170 1_555
Ba7 O47 2.907172 1_555
Ba7 O31 3.046227 1_555
Ba7 O19 3.058203 1_555
Ba7 O16 3.058210 1_555
Ba8 O58 2.773622 1_655
Ba8 O57 2.773626 1_555
Ba8 O6 2.781972 1_555
Ba8 O7 2.781981 1_555
Ba8 O38 2.907170 1_555
Ba8 O36 2.907174 1_555
Ba8 O32 3.046227 1_555
Ba8 O21 3.058203 1_555
Ba8 O22 3.058210 1_555
Ba9 O59 2.773622 1_555
Ba9 O56 2.773622 1_556
Ba9 O4 2.781973 1_555
Ba9 O5 2.781981 1_545
Ba9 O39 2.907170 1_555
Ba9 O37 2.907170 1_445
Ba9 O33 3.046227 1_556
Ba9 O20 3.058196 1_556
Ba9 O23 3.058196 1_555
Ba10 O50 2.773622 1_555
Ba10 O49 2.773622 1_565
Ba10 O10 2.781973 1_555
Ba10 O11 2.781981 1_455
Ba10 O40 2.907170 1_555
Ba10 O42 2.907170 1_454
Ba10 O34 3.046227 1_565
Ba10 O13 3.058196 1_565
Ba10 O14 3.058203 1_555
Ba11 O48 2.773622 1_555
Ba11 O51 2.773622 1_556
Ba11 O8 2.781972 1_555
Ba11 O9 2.781981 1_555
Ba11 O41 2.907172 1_555
Ba11 O43 2.907174 1_555
Ba11 O35 3.046227 1_555
Ba11 O12 3.058203 1_555
Ba11 O15 3.058205 1_555
B0 O36 1.368142 1_555
B0 O0 1.374980 1_555
B0 O24 1.411818 1_555
B1 O37 1.368134 1_555
B1 O1 1.374982 1_555
B1 O24 1.411818 1_555
B2 O38 1.368134 1_555
B2 O2 1.374982 1_555
B2 O25 1.411818 1_555
B3 O39 1.368134 1_555
B3 O3 1.374985 1_556
B3 O25 1.411818 1_555
B4 O40 1.368134 1_555
B4 O4 1.374974 1_565
B4 O26 1.411818 1_555
B5 O41 1.368130 1_555
B5 O5 1.374980 1_555
B5 O26 1.411818 1_555
B6 O42 1.368134 1_555
B6 O6 1.374982 1_555
B6 O27 1.411818 1_555
B7 O43 1.368142 1_555
B7 O7 1.374980 1_555
B7 O27 1.411818 1_555
B8 O44 1.368134 1_555
B8 O8 1.374982 1_555
B8 O28 1.411818 1_555
B9 O45 1.368134 1_555
B9 O9 1.374980 1_555
B9 O28 1.411818 1_555
B10 O46 1.368134 1_555
B10 O10 1.374974 1_655
B10 O29 1.411818 1_555
B11 O47 1.368130 1_555
B11 O11 1.374980 1_555
B11 O29 1.411818 1_555
B12 O48 1.368134 1_555
B12 O12 1.374980 1_555
B12 O30 1.411818 1_555
B13 O49 1.368134 1_555
B13 O13 1.374982 1_555
B13 O30 1.411818 1_555
B14 O50 1.368134 1_555
B14 O14 1.374980 1_555
B14 O31 1.411818 1_555
B15 O51 1.368134 1_555
B15 O15 1.374974 1_554
B15 O31 1.411818 1_555
B16 O52 1.368134 1_555
B16 O16 1.374985 1_545
B16 O32 1.411818 1_555
B17 O53 1.368134 1_555
B17 O17 1.374982 1_555
B17 O32 1.411818 1_555
B18 O54 1.368134 1_555
B18 O18 1.374982 1_555
B18 O33 1.411818 1_555
B19 O55 1.368134 1_555
B19 O19 1.374980 1_555
B19 O33 1.411818 1_555
B20 O56 1.368134 1_555
B20 O20 1.374982 1_555
B20 O34 1.411818 1_555
B21 O57 1.368142 1_555
B21 O21 1.374980 1_555
B21 O34 1.411818 1_555
B22 O58 1.368134 1_555
B22 O22 1.374985 1_455
B22 O35 1.411818 1_555
B23 O59 1.368134 1_555
B23 O23 1.374982 1_555
B23 O35 1.411818 1_555
O0 Y0 2.293737 1_555
O1 Y1 2.293744 1_665
O2 Y2 2.293744 1_656
O3 Y3 2.293741 1_555
O4 Y1 2.293751 1_555
O5 Y3 2.293737 1_566
O6 Y2 2.293744 1_656
O7 Y0 2.293737 1_555
O8 Y3 2.293744 1_566
O9 Y0 2.293737 1_555
O10 Y2 2.293751 1_555
O11 Y1 2.293737 1_665
O12 Y0 2.293737 1_555
O13 Y1 2.293744 1_555
O14 Y2 2.293737 1_555
O15 Y3 2.293751 1_566
O16 Y1 2.293741 1_665
O17 Y3 2.293744 1_555
O18 Y2 2.293744 1_555
O19 Y0 2.293737 1_555
O20 Y3 2.293744 1_555
O21 Y0 2.293737 1_555
O22 Y2 2.293741 1_656
O23 Y1 2.293744 1_555
O36 Y4 2.280410 1_655
O37 Y5 2.280423 1_666
O38 Y6 2.280423 1_555
O39 Y7 2.280423 1_556
O40 Y6 2.280423 1_565
O41 Y4 2.280420 1_555
O42 Y5 2.280423 1_666
O43 Y7 2.280410 1_556
O44 Y5 2.280423 1_666
O45 Y6 2.280423 1_565
O46 Y4 2.280423 1_655
O47 Y7 2.280420 1_555
O48 Y4 2.280423 1_555
O49 Y5 2.280423 1_555
O50 Y6 2.280423 1_565
O51 Y7 2.280423 1_555
O52 Y6 2.280423 1_555
O53 Y4 2.280423 1_655
O54 Y5 2.280423 1_555
O55 Y7 2.280423 1_555
O56 Y5 2.280423 1_555
O57 Y6 2.280410 1_555
O58 Y4 2.280423 1_555
O59 Y7 2.280423 1_556
