# generated using pymatgen
data_Cd3Ga5O12
_symmetry_space_group_name_H-M   'P 1'
_cell_length_a   10.79782817
_cell_length_b   10.79782817
_cell_length_c   10.79782817
_cell_angle_alpha   109.47122063
_cell_angle_beta   109.47122063
_cell_angle_gamma   109.47122063
_symmetry_Int_Tables_number   1
_chemical_formula_structural   Cd3Ga5O12
_chemical_formula_sum   'Cd12 Ga20 O48'
_cell_volume   969.14184441
_cell_formula_units_Z   4
loop_
 _symmetry_equiv_pos_site_id
 _symmetry_equiv_pos_as_xyz
  1  'x, y, z'
loop_
 _atom_site_type_symbol
 _atom_site_label
 _atom_site_symmetry_multiplicity
 _atom_site_fract_x
 _atom_site_fract_y
 _atom_site_fract_z
 _atom_site_occupancy
  Cd  Cd0  1  0.25000000  0.37500000  0.12500000  1
  Cd  Cd1  1  0.75000000  0.62500000  0.87500000  1
  Cd  Cd2  1  0.75000000  0.12500000  0.37500000  1
  Cd  Cd3  1  0.12500000  0.25000000  0.37500000  1
  Cd  Cd4  1  0.37500000  0.75000000  0.12500000  1
  Cd  Cd5  1  0.25000000  0.87500000  0.62500000  1
  Cd  Cd6  1  0.87500000  0.75000000  0.62500000  1
  Cd  Cd7  1  0.62500000  0.25000000  0.87500000  1
  Cd  Cd8  1  0.37500000  0.12500000  0.25000000  1
  Cd  Cd9  1  0.62500000  0.87500000  0.75000000  1
  Cd  Cd10  1  0.12500000  0.37500000  0.75000000  1
  Cd  Cd11  1  0.87500000  0.62500000  0.25000000  1
  Ga  Ga0  1  0.25000000  0.62500000  0.37500000  1
  Ga  Ga1  1  0.75000000  0.37500000  0.62500000  1
  Ga  Ga2  1  0.75000000  0.87500000  0.12500000  1
  Ga  Ga3  1  0.37500000  0.25000000  0.62500000  1
  Ga  Ga4  1  0.62500000  0.75000000  0.37500000  1
  Ga  Ga5  1  0.25000000  0.12500000  0.87500000  1
  Ga  Ga6  1  0.12500000  0.75000000  0.87500000  1
  Ga  Ga7  1  0.87500000  0.25000000  0.12500000  1
  Ga  Ga8  1  0.62500000  0.37500000  0.25000000  1
  Ga  Ga9  1  0.37500000  0.62500000  0.75000000  1
  Ga  Ga10  1  0.87500000  0.12500000  0.75000000  1
  Ga  Ga11  1  0.12500000  0.87500000  0.25000000  1
  Ga  Ga12  1  0.00000000  0.00000000  0.00000000  1
  Ga  Ga13  1  0.50000000  0.00000000  0.50000000  1
  Ga  Ga14  1  0.00000000  0.50000000  0.50000000  1
  Ga  Ga15  1  0.50000000  0.00000000  0.00000000  1
  Ga  Ga16  1  0.50000000  0.50000000  0.00000000  1
  Ga  Ga17  1  0.50000000  0.50000000  0.50000000  1
  Ga  Ga18  1  0.00000000  0.00000000  0.50000000  1
  Ga  Ga19  1  0.00000000  0.50000000  0.00000000  1
  O  O0  1  0.47700800  0.38087600  0.29919600  1
  O  O1  1  0.52299200  0.61912400  0.70080400  1
  O  O2  1  0.58168000  0.17781200  0.20080400  1
  O  O3  1  0.91832000  0.11912400  0.59613200  1
  O  O4  1  0.29919600  0.47700800  0.38087600  1
  O  O5  1  0.32218700  0.91832000  0.29919600  1
  O  O6  1  0.41832000  0.82218700  0.79919600  1
  O  O7  1  0.08168000  0.88087600  0.40386800  1
  O  O8  1  0.70080400  0.52299200  0.61912400  1
  O  O9  1  0.67781200  0.08168000  0.70080400  1
  O  O10  1  0.02299200  0.32218700  0.90386800  1
  O  O11  1  0.20080400  0.58168000  0.17781200  1
  O  O12  1  0.11912400  0.02299200  0.20080400  1
  O  O13  1  0.97700800  0.67781200  0.09613200  1
  O  O14  1  0.79919600  0.41832000  0.82218700  1
  O  O15  1  0.88087600  0.97700800  0.79919600  1
  O  O16  1  0.59613200  0.91832000  0.11912400  1
  O  O17  1  0.17781200  0.47700800  0.59613200  1
  O  O18  1  0.40386800  0.08168000  0.88087600  1
  O  O19  1  0.82218700  0.52299200  0.40386800  1
  O  O20  1  0.90386800  0.02299200  0.32218700  1
  O  O21  1  0.38087600  0.58168000  0.90386800  1
  O  O22  1  0.09613200  0.97700800  0.67781300  1
  O  O23  1  0.61912400  0.41832000  0.09613200  1
  O  O24  1  0.38087600  0.29919600  0.47700800  1
  O  O25  1  0.58168000  0.90386800  0.38087600  1
  O  O26  1  0.61912400  0.70080400  0.52299200  1
  O  O27  1  0.41832000  0.09613200  0.61912400  1
  O  O28  1  0.11912400  0.59613200  0.91832000  1
  O  O29  1  0.02299200  0.20080400  0.11912400  1
  O  O30  1  0.88087600  0.40386800  0.08168000  1
  O  O31  1  0.97700800  0.79919600  0.88087600  1
  O  O32  1  0.32218700  0.90386800  0.02299200  1
  O  O33  1  0.91832000  0.29919600  0.32218700  1
  O  O34  1  0.67781200  0.09613200  0.97700800  1
  O  O35  1  0.08168000  0.70080400  0.67781300  1
  O  O36  1  0.17781200  0.20080400  0.58168000  1
  O  O37  1  0.47700800  0.59613200  0.17781300  1
  O  O38  1  0.82218700  0.79919600  0.41832000  1
  O  O39  1  0.52299200  0.40386800  0.82218700  1
  O  O40  1  0.29919600  0.32218700  0.91832000  1
  O  O41  1  0.70080400  0.67781200  0.08168000  1
  O  O42  1  0.20080400  0.11912400  0.02299200  1
  O  O43  1  0.79919600  0.88087600  0.97700800  1
  O  O44  1  0.90386800  0.38087600  0.58168000  1
  O  O45  1  0.09613200  0.61912400  0.41832000  1
  O  O46  1  0.59613200  0.17781200  0.47700800  1
  O  O47  1  0.40386800  0.82218700  0.52299200  1
loop_
_geom_bond_atom_site_label_1
_geom_bond_atom_site_label_2
_geom_bond_distance
_geom_bond_site_symmetry_2
Cd0 O42 2.394096 1_555
Cd0 O4 2.394096 1_555
Cd0 O11 2.394096 1_555
Cd0 O40 2.394096 1_554
Cd0 O10 2.508653 1_554
Cd0 O37 2.508653 1_555
Cd0 O0 2.508658 1_555
Cd0 O29 2.508658 1_555
Cd1 O41 2.394096 1_556
Cd1 O8 2.394096 1_555
Cd1 O43 2.394096 1_555
Cd1 O14 2.394096 1_555
Cd1 O39 2.508653 1_555
Cd1 O13 2.508658 1_556
Cd1 O31 2.508658 1_555
Cd1 O1 2.508658 1_555
Cd2 O16 2.394096 1_545
Cd2 O44 2.394096 1_555
Cd2 O46 2.394096 1_555
Cd2 O20 2.394100 1_555
Cd2 O25 2.508658 1_545
Cd2 O3 2.508658 1_555
Cd2 O2 2.508658 1_555
Cd2 O33 2.508666 1_555
Cd3 O29 2.394096 1_555
Cd3 O24 2.394096 1_555
Cd3 O36 2.394096 1_555
Cd3 O33 2.394096 1_455
Cd3 O20 2.508653 1_455
Cd3 O4 2.508658 1_555
Cd3 O17 2.508658 1_555
Cd3 O12 2.508658 1_555
Cd4 O28 2.394096 1_554
Cd4 O25 2.394096 1_555
Cd4 O32 2.394100 1_555
Cd4 O37 2.394100 1_555
Cd4 O21 2.508658 1_554
Cd4 O16 2.508658 1_555
Cd4 O11 2.508658 1_555
Cd4 O5 2.508666 1_555
Cd5 O18 2.394096 1_565
Cd5 O45 2.394096 1_555
Cd5 O47 2.394100 1_555
Cd5 O22 2.394100 1_555
Cd5 O27 2.508658 1_565
Cd5 O7 2.508658 1_555
Cd5 O35 2.508666 1_555
Cd5 O6 2.508666 1_555
Cd6 O31 2.394096 1_555
Cd6 O26 2.394096 1_555
Cd6 O38 2.394096 1_555
Cd6 O35 2.394096 1_655
Cd6 O22 2.508653 1_655
Cd6 O19 2.508653 1_555
Cd6 O8 2.508658 1_555
Cd6 O15 2.508658 1_555
Cd7 O27 2.394096 1_555
Cd7 O30 2.394096 1_556
Cd7 O34 2.394096 1_555
Cd7 O39 2.394100 1_555
Cd7 O18 2.508658 1_555
Cd7 O23 2.508658 1_556
Cd7 O9 2.508658 1_555
Cd7 O14 2.508666 1_555
Cd8 O12 2.394096 1_555
Cd8 O0 2.394096 1_555
Cd8 O2 2.394096 1_555
Cd8 O5 2.394096 1_545
Cd8 O32 2.508653 1_545
Cd8 O24 2.508658 1_555
Cd8 O46 2.508658 1_555
Cd8 O42 2.508658 1_555
Cd9 O9 2.394096 1_565
Cd9 O1 2.394096 1_555
Cd9 O15 2.394096 1_555
Cd9 O6 2.394096 1_555
Cd9 O47 2.508653 1_555
Cd9 O34 2.508658 1_565
Cd9 O43 2.508658 1_555
Cd9 O26 2.508658 1_555
Cd10 O17 2.394096 1_555
Cd10 O21 2.394096 1_555
Cd10 O3 2.394096 1_455
Cd10 O10 2.394100 1_555
Cd10 O44 2.508658 1_455
Cd10 O28 2.508658 1_555
Cd10 O36 2.508658 1_555
Cd10 O40 2.508666 1_555
Cd11 O23 2.394096 1_555
Cd11 O13 2.394096 1_555
Cd11 O7 2.394096 1_655
Cd11 O19 2.394100 1_555
Cd11 O45 2.508658 1_655
Cd11 O30 2.508658 1_555
Cd11 O41 2.508658 1_555
Cd11 O38 2.508666 1_555
Ga0 O47 1.857634 1_555
Ga0 O4 1.857640 1_555
Ga0 O11 1.857640 1_555
Ga0 O45 1.857640 1_555
Ga1 O14 1.857629 1_555
Ga1 O44 1.857640 1_555
Ga1 O46 1.857640 1_555
Ga1 O8 1.857640 1_555
Ga2 O20 1.857634 1_565
Ga2 O16 1.857640 1_555
Ga2 O43 1.857640 1_554
Ga2 O41 1.857640 1_555
Ga3 O39 1.857634 1_555
Ga3 O24 1.857640 1_555
Ga3 O36 1.857640 1_555
Ga3 O27 1.857640 1_555
Ga4 O38 1.857629 1_555
Ga4 O37 1.857634 1_555
Ga4 O25 1.857640 1_555
Ga4 O26 1.857640 1_555
Ga5 O40 1.857629 1_555
Ga5 O22 1.857634 1_545
Ga5 O18 1.857640 1_555
Ga5 O42 1.857640 1_556
Ga6 O35 1.857629 1_555
Ga6 O32 1.857634 1_556
Ga6 O28 1.857640 1_555
Ga6 O31 1.857640 1_455
Ga7 O33 1.857629 1_555
Ga7 O30 1.857640 1_555
Ga7 O34 1.857640 1_554
Ga7 O29 1.857640 1_655
Ga8 O19 1.857634 1_555
Ga8 O0 1.857640 1_555
Ga8 O2 1.857640 1_555
Ga8 O23 1.857640 1_555
Ga9 O6 1.857629 1_555
Ga9 O21 1.857640 1_555
Ga9 O17 1.857640 1_555
Ga9 O1 1.857640 1_555
Ga10 O10 1.857634 1_655
Ga10 O9 1.857640 1_555
Ga10 O15 1.857640 1_545
Ga10 O3 1.857640 1_555
Ga11 O5 1.857629 1_555
Ga11 O7 1.857640 1_555
Ga11 O13 1.857640 1_455
Ga11 O12 1.857640 1_565
Ga12 O42 1.996591 1_555
Ga12 O12 1.996591 1_555
Ga12 O29 1.996591 1_555
Ga12 O31 1.996591 1_444
Ga12 O15 1.996591 1_444
Ga12 O43 1.996591 1_444
Ga13 O27 1.996591 1_555
Ga13 O9 1.996591 1_555
Ga13 O46 1.996591 1_555
Ga13 O25 1.996591 1_545
Ga13 O5 1.996596 1_545
Ga13 O47 1.996600 1_545
Ga14 O45 1.996591 1_555
Ga14 O17 1.996591 1_555
Ga14 O44 1.996591 1_455
Ga14 O35 1.996596 1_555
Ga14 O33 1.996596 1_455
Ga14 O19 1.996600 1_455
Ga15 O2 1.996591 1_555
Ga15 O16 1.996591 1_545
Ga15 O34 1.996591 1_554
Ga15 O18 1.996591 1_554
Ga15 O6 1.996596 1_544
Ga15 O32 1.996600 1_545
Ga16 O23 1.996591 1_555
Ga16 O41 1.996591 1_555
Ga16 O21 1.996591 1_554
Ga16 O40 1.996596 1_554
Ga16 O39 1.996600 1_554
Ga16 O37 1.996600 1_555
Ga17 O8 1.996591 1_555
Ga17 O26 1.996591 1_555
Ga17 O1 1.996591 1_555
Ga17 O0 1.996591 1_555
Ga17 O4 1.996591 1_555
Ga17 O24 1.996591 1_555
Ga18 O36 1.996591 1_555
Ga18 O3 1.996591 1_455
Ga18 O7 1.996591 1_545
Ga18 O38 1.996596 1_445
Ga18 O20 1.996600 1_455
Ga18 O22 1.996600 1_545
Ga19 O11 1.996591 1_555
Ga19 O28 1.996591 1_554
Ga19 O13 1.996591 1_455
Ga19 O30 1.996591 1_455
Ga19 O14 1.996596 1_454
Ga19 O10 1.996600 1_554
