# generated using pymatgen
data_CeO
_symmetry_space_group_name_H-M   'P 1'
_cell_length_a   3.51169262
_cell_length_b   3.51169217
_cell_length_c   3.51169223
_cell_angle_alpha   59.99999950
_cell_angle_beta   60.00000381
_cell_angle_gamma   59.99999268
_symmetry_Int_Tables_number   1
_chemical_formula_structural   CeO
_chemical_formula_sum   'Ce1 O1'
_cell_volume   30.62205766
_cell_formula_units_Z   1
loop_
 _symmetry_equiv_pos_site_id
 _symmetry_equiv_pos_as_xyz
  1  'x, y, z'
loop_
 _atom_site_type_symbol
 _atom_site_label
 _atom_site_symmetry_multiplicity
 _atom_site_fract_x
 _atom_site_fract_y
 _atom_site_fract_z
 _atom_site_occupancy
  Ce  Ce0  1  0.00000000  0.00000000  0.00000000  1
  O  O0  1  0.50000000  0.50000000  0.50000000  1
loop_
_geom_bond_atom_site_label_1
_geom_bond_atom_site_label_2
_geom_bond_distance
_geom_bond_site_symmetry_2
Ce0 O0 2.483141 1_455
Ce0 O0 2.483141 1_544
Ce0 O0 2.483141 1_545
Ce0 O0 2.483141 1_454
Ce0 O0 2.483142 1_445
Ce0 O0 2.483142 1_554
