# generated using pymatgen
data_PuUSn6
_symmetry_space_group_name_H-M   'P 1'
_cell_length_a   4.61560200
_cell_length_b   4.61560200
_cell_length_c   9.24640200
_cell_angle_alpha   90.00000000
_cell_angle_beta   90.00000000
_cell_angle_gamma   90.00000000
_symmetry_Int_Tables_number   1
_chemical_formula_structural   PuUSn6
_chemical_formula_sum   'Pu1 U1 Sn6'
_cell_volume   196.98333085
_cell_formula_units_Z   1
loop_
 _symmetry_equiv_pos_site_id
 _symmetry_equiv_pos_as_xyz
  1  'x, y, z'
loop_
 _atom_site_type_symbol
 _atom_site_label
 _atom_site_symmetry_multiplicity
 _atom_site_fract_x
 _atom_site_fract_y
 _atom_site_fract_z
 _atom_site_occupancy
  Pu  Pu0  1  0.00000000  0.00000000  0.00000000  1
  U  U0  1  0.00000000  0.00000000  0.50000000  1
  Sn  Sn0  1  0.50000000  0.50000000  0.00000000  1
  Sn  Sn1  1  0.50000000  0.50000000  0.50000000  1
  Sn  Sn2  1  0.50000000  0.00000000  0.24843600  1
  Sn  Sn3  1  0.50000000  0.00000000  0.75156400  1
  Sn  Sn4  1  0.00000000  0.50000000  0.24843600  1
  Sn  Sn5  1  0.00000000  0.50000000  0.75156400  1
loop_
_geom_bond_atom_site_label_1
_geom_bond_atom_site_label_2
_geom_bond_distance
_geom_bond_site_symmetry_2
Pu0 Sn4 3.256193 1_555
Pu0 Sn3 3.256193 1_554
Pu0 Sn4 3.256193 1_545
Pu0 Sn3 3.256193 1_454
Pu0 Sn2 3.256193 1_455
Pu0 Sn5 3.256193 1_544
Pu0 Sn2 3.256193 1_555
Pu0 Sn5 3.256193 1_554
Pu0 Sn0 3.263723 1_455
Pu0 Sn0 3.263723 1_555
Pu0 Sn0 3.263723 1_545
Pu0 Sn0 3.263723 1_445
Sn0 Sn4 3.256193 1_555
Sn0 Sn3 3.256193 1_554
Sn0 Sn2 3.256193 1_565
Sn0 Sn4 3.256193 1_655
Sn0 Sn2 3.256193 1_555
Sn0 Sn5 3.256193 1_554
Sn0 Sn5 3.256193 1_654
Sn0 Sn3 3.256193 1_564
Sn1 U0 3.263723 1_555
Sn1 U0 3.263723 1_565
Sn1 U0 3.263723 1_655
Sn1 U0 3.263723 1_665
Sn1 Sn3 3.276661 1_555
Sn1 Sn4 3.276661 1_555
Sn1 Sn3 3.276661 1_565
Sn1 Sn4 3.276661 1_655
Sn1 Sn2 3.276661 1_565
Sn1 Sn5 3.276661 1_555
Sn1 Sn2 3.276661 1_555
Sn1 Sn5 3.276661 1_655
Sn2 Sn4 3.263723 1_645
Sn2 Sn4 3.263723 1_555
Sn2 Sn4 3.263723 1_655
Sn2 Sn4 3.263723 1_545
Sn2 U0 3.276661 1_555
Sn2 U0 3.276661 1_655
Sn3 Sn5 3.263723 1_655
Sn3 Sn5 3.263723 1_645
Sn3 Sn5 3.263723 1_555
Sn3 Sn5 3.263723 1_545
Sn3 U0 3.276661 1_555
Sn3 U0 3.276661 1_655
Sn4 U0 3.276661 1_555
Sn4 U0 3.276661 1_565
Sn5 U0 3.276661 1_555
Sn5 U0 3.276661 1_565
