# generated using pymatgen
data_Sr2VN3
_symmetry_space_group_name_H-M   'P 1'
_cell_length_a   6.20293795
_cell_length_b   6.20293795
_cell_length_c   12.31504217
_cell_angle_alpha   89.59908484
_cell_angle_beta   89.59908484
_cell_angle_gamma   125.11808116
_symmetry_Int_Tables_number   1
_chemical_formula_structural   Sr2VN3
_chemical_formula_sum   'Sr8 V4 N12'
_cell_volume   387.54053875
_cell_formula_units_Z   4
loop_
 _symmetry_equiv_pos_site_id
 _symmetry_equiv_pos_as_xyz
  1  'x, y, z'
loop_
 _atom_site_type_symbol
 _atom_site_label
 _atom_site_symmetry_multiplicity
 _atom_site_fract_x
 _atom_site_fract_y
 _atom_site_fract_z
 _atom_site_occupancy
  Sr  Sr0  1  0.55639956  0.95158390  0.85379829  1
  Sr  Sr1  1  0.95158390  0.55639956  0.35379829  1
  Sr  Sr2  1  0.44360044  0.04841610  0.14620171  1
  Sr  Sr3  1  0.04841610  0.44360044  0.64620171  1
  Sr  Sr4  1  0.64461534  0.86589460  0.42272369  1
  Sr  Sr5  1  0.13410540  0.35538466  0.07727631  1
  Sr  Sr6  1  0.35538466  0.13410540  0.57727631  1
  Sr  Sr7  1  0.86589460  0.64461534  0.92272369  1
  V  V0  1  0.74141420  0.74649236  0.66403952  1
  V  V1  1  0.25858580  0.25350764  0.33596048  1
  V  V2  1  0.25350764  0.25858580  0.83596048  1
  V  V3  1  0.74649236  0.74141420  0.16403952  1
  N  N0  1  0.67313146  0.85195996  0.04645030  1
  N  N1  1  0.14804004  0.32686854  0.45354970  1
  N  N2  1  0.32686854  0.14804004  0.95354970  1
  N  N3  1  0.85195996  0.67313146  0.54645030  1
  N  N4  1  0.97936601  0.02063399  0.25000000  1
  N  N5  1  0.02063399  0.97936601  0.75000000  1
  N  N6  1  0.44641181  0.55358819  0.25000000  1
  N  N7  1  0.12038101  0.44153463  0.86704408  1
  N  N8  1  0.44153463  0.12038101  0.36704408  1
  N  N9  1  0.87961899  0.55846537  0.13295592  1
  N  N10  1  0.55846537  0.87961899  0.63295592  1
  N  N11  1  0.55358819  0.44641181  0.75000000  1
loop_
_geom_bond_atom_site_label_1
_geom_bond_atom_site_label_2
_geom_bond_distance
_geom_bond_site_symmetry_2
N0 V3 1.768796 1_555
N0 Sr2 2.648364 1_565
N0 Sr0 2.655812 1_554
N0 Sr7 2.678951 1_554
N0 Sr5 2.798255 1_665
N0 Sr5 2.987966 1_555
N1 V1 1.768796 1_555
N1 Sr1 2.648364 1_455
N1 Sr3 2.655812 1_555
N1 Sr6 2.678951 1_555
N1 Sr4 2.798255 1_445
N1 Sr4 2.987966 1_555
N2 V2 1.768796 1_555
N2 Sr0 2.648364 1_545
N2 Sr2 2.655812 1_556
N2 Sr5 2.678951 1_556
N2 Sr7 2.798255 1_445
N2 Sr7 2.987966 1_555
N3 V0 1.768796 1_555
N3 Sr3 2.648364 1_655
N3 Sr1 2.655812 1_555
N3 Sr4 2.678951 1_555
N3 Sr6 2.798255 1_665
N3 Sr6 2.987966 1_555
N4 V1 1.837283 1_655
N4 V3 1.837283 1_545
N4 Sr4 2.715511 1_545
N4 Sr5 2.715511 1_655
N4 Sr1 3.054563 1_545
N4 Sr2 3.054563 1_655
N5 V2 1.837283 1_565
N5 V0 1.837283 1_455
N5 Sr7 2.715511 1_455
N5 Sr6 2.715511 1_565
N5 Sr0 3.054563 1_455
N5 Sr3 3.054563 1_565
N6 V3 1.844685 1_555
N6 V1 1.844685 1_555
N6 Sr4 2.672630 1_555
N6 Sr5 2.672630 1_555
N7 V2 1.787758 1_555
N7 Sr7 2.614126 1_455
N7 Sr5 2.651772 1_556
N7 Sr0 2.737310 1_555
N7 Sr3 2.760288 1_555
N7 Sr0 3.046957 1_445
N8 V1 1.787758 1_555
N8 Sr4 2.614126 1_545
N8 Sr6 2.651772 1_555
N8 Sr1 2.737310 1_555
N8 Sr2 2.760288 1_555
N8 Sr1 3.046957 1_445
N9 V3 1.787758 1_555
N9 Sr5 2.614126 1_655
N9 Sr7 2.651772 1_554
N9 Sr2 2.737310 1_555
N9 Sr1 2.760288 1_555
N9 Sr2 3.046957 1_665
N10 V0 1.787758 1_555
N10 Sr6 2.614126 1_565
N10 Sr4 2.651772 1_555
N10 Sr3 2.737310 1_555
N10 Sr0 2.760288 1_555
N10 Sr3 3.046957 1_665
N11 V0 1.844685 1_555
N11 V2 1.844685 1_555
N11 Sr7 2.672630 1_555
N11 Sr6 2.672630 1_555
