# generated using pymatgen
data_Tb4CdPt
_symmetry_space_group_name_H-M   'P 1'
_cell_length_a   9.68201039
_cell_length_b   9.68198556
_cell_length_c   9.68209749
_cell_angle_alpha   60.00058399
_cell_angle_beta   60.00065026
_cell_angle_gamma   60.00048741
_symmetry_Int_Tables_number   1
_chemical_formula_structural   Tb4CdPt
_chemical_formula_sum   'Tb16 Cd4 Pt4'
_cell_volume   641.78576335
_cell_formula_units_Z   4
loop_
 _symmetry_equiv_pos_site_id
 _symmetry_equiv_pos_as_xyz
  1  'x, y, z'
loop_
 _atom_site_type_symbol
 _atom_site_label
 _atom_site_symmetry_multiplicity
 _atom_site_fract_x
 _atom_site_fract_y
 _atom_site_fract_z
 _atom_site_occupancy
  Tb  Tb0  1  0.35192528  0.35192647  0.35192244  1
  Tb  Tb1  1  0.35192119  0.35192281  0.94423133  1
  Tb  Tb2  1  0.35192469  0.94422701  0.35192130  1
  Tb  Tb3  1  0.94422776  0.35192470  0.35192078  1
  Tb  Tb4  1  0.80966097  0.19033345  0.19033629  1
  Tb  Tb5  1  0.19033567  0.80967344  0.80965683  1
  Tb  Tb6  1  0.19033349  0.80966215  0.19033596  1
  Tb  Tb7  1  0.80967215  0.19033540  0.80965739  1
  Tb  Tb8  1  0.19033487  0.19033462  0.80965399  1
  Tb  Tb9  1  0.80966363  0.80966628  0.19033672  1
  Tb  Tb10  1  0.93592172  0.56407777  0.56407882  1
  Tb  Tb11  1  0.56408170  0.93591844  0.93591852  1
  Tb  Tb12  1  0.56407752  0.93592236  0.56407846  1
  Tb  Tb13  1  0.93591788  0.56408232  0.93591819  1
  Tb  Tb14  1  0.56408085  0.56408054  0.93591931  1
  Tb  Tb15  1  0.93592106  0.93592082  0.56408016  1
  Cd  Cd0  1  0.58130630  0.58130205  0.58132101  1
  Cd  Cd1  1  0.58132284  0.58131853  0.25604660  1
  Cd  Cd2  1  0.58131057  0.25606575  0.58132860  1
  Cd  Cd3  1  0.25606051  0.58130883  0.58133251  1
  Pt  Pt0  1  0.14319915  0.14319989  0.14319719  1
  Pt  Pt1  1  0.14319358  0.14319393  0.57041735  1
  Pt  Pt2  1  0.14319640  0.57040846  0.14319621  1
  Pt  Pt3  1  0.57041022  0.14319700  0.14319502  1
loop_
_geom_bond_atom_site_label_1
_geom_bond_atom_site_label_2
_geom_bond_distance
_geom_bond_site_symmetry_2
Tb0 Tb12 3.511989 1_545
Tb0 Tb10 3.511992 1_455
Tb0 Tb14 3.512015 1_554
Tb1 Tb14 3.511983 1_555
Tb1 Tb11 3.511998 1_545
Tb1 Tb13 3.511999 1_455
Tb10 Tb3 3.511978 1_555
Tb10 Tb15 3.600182 1_555
Tb10 Tb13 3.600188 1_555
Tb10 Tb14 3.600217 1_555
Tb10 Tb12 3.600223 1_555
Tb10 Tb7 3.626938 1_555
Tb10 Tb8 3.626942 1_655
Tb10 Tb6 3.626989 1_655
Tb10 Tb9 3.627007 1_555
Tb11 Tb2 3.512018 1_556
Tb11 Tb14 3.600129 1_555
Tb11 Tb13 3.600143 1_555
Tb11 Tb12 3.600193 1_555
Tb11 Tb15 3.600199 1_555
Tb11 Tb9 3.627001 1_556
Tb11 Tb7 3.627008 1_565
Tb11 Tb6 3.627027 1_556
Tb11 Tb8 3.627053 1_565
Tb12 Tb2 3.511979 1_555
Tb12 Tb15 3.600194 1_555
Tb12 Tb14 3.600215 1_555
Tb12 Tb5 3.626938 1_555
Tb12 Tb8 3.626942 1_565
Tb12 Tb4 3.626979 1_565
Tb12 Tb9 3.626996 1_555
Tb13 Tb3 3.512018 1_556
Tb13 Tb14 3.600133 1_555
Tb13 Tb15 3.600185 1_555
Tb13 Tb9 3.627010 1_556
Tb13 Tb5 3.627020 1_655
Tb13 Tb4 3.627028 1_556
Tb13 Tb8 3.627053 1_655
Tb14 Tb4 3.626998 1_556
Tb14 Tb6 3.627009 1_556
Tb14 Tb7 3.627020 1_555
Tb14 Tb5 3.627029 1_555
Tb15 Tb3 3.511980 1_565
Tb15 Tb2 3.511987 1_655
Tb15 Tb7 3.626940 1_565
Tb15 Tb5 3.626944 1_655
Tb15 Tb6 3.627029 1_655
Tb15 Tb4 3.627031 1_565
Cd0 Cd2 3.148876 1_555
Cd0 Cd3 3.148945 1_555
Cd0 Cd1 3.149179 1_555
Cd0 Tb14 3.275003 1_555
Cd0 Tb10 3.275052 1_555
Cd0 Tb12 3.275069 1_555
Cd0 Tb1 3.396511 1_555
Cd0 Tb3 3.396604 1_555
Cd0 Tb2 3.396629 1_555
Cd0 Tb7 3.500745 1_555
Cd0 Tb5 3.500788 1_555
Cd0 Tb9 3.500917 1_555
Cd1 Cd2 3.149280 1_555
Cd1 Cd3 3.149353 1_555
Cd1 Tb13 3.274896 1_554
Cd1 Tb11 3.274912 1_554
Cd1 Tb14 3.274937 1_554
Cd1 Tb3 3.396533 1_555
Cd1 Tb2 3.396558 1_555
Cd1 Tb0 3.396589 1_555
Cd1 Tb9 3.500705 1_555
Cd1 Tb4 3.500779 1_555
Cd1 Tb6 3.500823 1_555
Cd2 Cd3 3.149060 1_555
Cd2 Tb11 3.274949 1_545
Cd2 Tb15 3.275026 1_545
Cd2 Tb12 3.275075 1_545
Cd2 Tb1 3.396466 1_555
Cd2 Tb3 3.396568 1_555
Cd2 Tb0 3.396680 1_555
Cd2 Tb7 3.500652 1_555
Cd2 Tb8 3.500795 1_555
Cd2 Tb4 3.500965 1_555
Cd3 Tb13 3.274913 1_455
Cd3 Tb15 3.275009 1_455
Cd3 Tb10 3.275046 1_455
Cd3 Tb1 3.396448 1_555
Cd3 Tb2 3.396591 1_555
Cd3 Tb0 3.396669 1_555
Cd3 Tb5 3.500660 1_555
Cd3 Tb8 3.500752 1_555
Cd3 Tb6 3.500977 1_555
Pt0 Tb6 2.847058 1_545
Pt0 Tb4 2.847073 1_455
Pt0 Tb8 2.847158 1_554
Pt0 Tb1 2.859489 1_554
Pt0 Tb3 2.859521 1_455
Pt0 Tb2 2.859531 1_545
Pt0 Tb13 3.511754 1_454
Pt0 Tb11 3.511762 1_544
Pt0 Tb15 3.511779 1_445
Pt1 Tb8 2.846864 1_555
Pt1 Tb5 2.846897 1_545
Pt1 Tb7 2.846913 1_455
Pt1 Tb3 2.859624 1_455
Pt1 Tb2 2.859627 1_545
Pt1 Tb0 2.859627 1_555
Pt1 Tb15 3.511678 1_445
Pt1 Tb10 3.511705 1_455
Pt1 Tb12 3.511714 1_545
Pt2 Tb6 2.846970 1_555
Pt2 Tb9 2.847027 1_455
Pt2 Tb5 2.847114 1_554
Pt2 Tb1 2.859538 1_554
Pt2 Tb3 2.859542 1_455
Pt2 Tb0 2.859570 1_555
Pt2 Tb13 3.511724 1_454
Pt2 Tb14 3.511753 1_554
Pt2 Tb10 3.511762 1_455
Pt3 Tb4 2.846953 1_555
Pt3 Tb9 2.846996 1_545
Pt3 Tb7 2.847097 1_554
Pt3 Tb1 2.859555 1_554
Pt3 Tb2 2.859564 1_545
Pt3 Tb0 2.859582 1_555
Pt3 Tb11 3.511722 1_544
Pt3 Tb14 3.511730 1_554
Pt3 Tb12 3.511762 1_545
