# generated using pymatgen
data_AlVF5
_symmetry_space_group_name_H-M   'P 1'
_cell_length_a   5.30636590
_cell_length_b   5.30636590
_cell_length_c   5.30636590
_cell_angle_alpha   140.33371567
_cell_angle_beta   106.76234584
_cell_angle_gamma   86.66476867
_symmetry_Int_Tables_number   1
_chemical_formula_structural   AlVF5
_chemical_formula_sum   'Al1 V1 F5'
_cell_volume   87.97900634
_cell_formula_units_Z   1
loop_
 _symmetry_equiv_pos_site_id
 _symmetry_equiv_pos_as_xyz
  1  'x, y, z'
loop_
 _atom_site_type_symbol
 _atom_site_label
 _atom_site_symmetry_multiplicity
 _atom_site_fract_x
 _atom_site_fract_y
 _atom_site_fract_z
 _atom_site_occupancy
  Al  Al0  1  0.50000000  0.50000000  0.00000000  1
  V  V0  1  0.00000000  0.00000000  0.00000000  1
  F  F0  1  0.79531700  0.50000000  0.29531700  1
  F  F1  1  0.20468300  0.50000000  0.70468300  1
  F  F2  1  0.26816000  0.26816000  0.00000000  1
  F  F3  1  0.73184000  0.73184000  0.00000000  1
  F  F4  1  0.50000000  0.00000000  0.50000000  1
loop_
_geom_bond_atom_site_label_1
_geom_bond_atom_site_label_2
_geom_bond_distance
_geom_bond_site_symmetry_2
Al0 F2 1.789699 1_555
Al0 F3 1.789699 1_555
Al0 F4 1.800355 1_554
Al0 F4 1.800355 1_565
Al0 F0 1.869467 1_555
Al0 F1 1.869467 1_554
F0 V0 2.218145 1_666
F0 V0 2.218145 1_655
F1 V0 2.218145 1_555
F1 V0 2.218145 1_566
F2 V0 2.070072 1_555
F3 V0 2.070072 1_665
