# generated using pymatgen
data_Zr2Fe
_symmetry_space_group_name_H-M   'P 1'
_cell_length_a   8.59643290
_cell_length_b   8.59643290
_cell_length_c   8.59643290
_cell_angle_alpha   60.00000000
_cell_angle_beta   60.00000000
_cell_angle_gamma   60.00000000
_symmetry_Int_Tables_number   1
_chemical_formula_structural   Zr2Fe
_chemical_formula_sum   'Zr16 Fe8'
_cell_volume   449.20009095
_cell_formula_units_Z   8
loop_
 _symmetry_equiv_pos_site_id
 _symmetry_equiv_pos_as_xyz
  1  'x, y, z'
loop_
 _atom_site_type_symbol
 _atom_site_label
 _atom_site_symmetry_multiplicity
 _atom_site_fract_x
 _atom_site_fract_y
 _atom_site_fract_z
 _atom_site_occupancy
  Zr  Zr0  1  0.12500000  0.62500000  0.62500000  1
  Zr  Zr1  1  0.62500000  0.12500000  0.62500000  1
  Zr  Zr2  1  0.62500000  0.62500000  0.12500000  1
  Zr  Zr3  1  0.62500000  0.62500000  0.62500000  1
  Zr  Zr4  1  0.81180400  0.81180400  0.18819600  1
  Zr  Zr5  1  0.18819600  0.18819600  0.81180400  1
  Zr  Zr6  1  0.81180400  0.18819600  0.81180400  1
  Zr  Zr7  1  0.18819600  0.81180400  0.18819600  1
  Zr  Zr8  1  0.18819600  0.81180400  0.81180400  1
  Zr  Zr9  1  0.81180400  0.18819600  0.18819600  1
  Zr  Zr10  1  0.43819600  0.43819600  0.06180400  1
  Zr  Zr11  1  0.06180400  0.06180400  0.43819600  1
  Zr  Zr12  1  0.43819600  0.06180400  0.43819600  1
  Zr  Zr13  1  0.06180400  0.43819600  0.06180400  1
  Zr  Zr14  1  0.06180400  0.43819600  0.43819600  1
  Zr  Zr15  1  0.43819600  0.06180400  0.06180400  1
  Fe  Fe0  1  0.78133100  0.40622300  0.40622300  1
  Fe  Fe1  1  0.40622300  0.78133100  0.40622300  1
  Fe  Fe2  1  0.40622300  0.40622300  0.78133100  1
  Fe  Fe3  1  0.40622300  0.40622300  0.40622300  1
  Fe  Fe4  1  0.46866900  0.84377700  0.84377700  1
  Fe  Fe5  1  0.84377700  0.46866900  0.84377700  1
  Fe  Fe6  1  0.84377700  0.84377700  0.46866900  1
  Fe  Fe7  1  0.84377700  0.84377700  0.84377700  1
loop_
_geom_bond_atom_site_label_1
_geom_bond_atom_site_label_2
_geom_bond_distance
_geom_bond_site_symmetry_2
Fe0 Zr2 2.713346 1_555
Fe0 Zr3 2.713346 1_555
Fe0 Zr1 2.713346 1_555
Fe0 Zr14 2.713901 1_655
Fe0 Zr13 2.713901 1_655
Fe0 Zr11 2.713901 1_655
Fe0 Zr6 3.102444 1_555
Fe0 Zr4 3.102444 1_555
Fe0 Zr9 3.102444 1_555
Fe1 Zr3 2.713346 1_555
Fe1 Zr2 2.713346 1_555
Fe1 Zr0 2.713346 1_555
Fe1 Zr12 2.713901 1_565
Fe1 Zr15 2.713901 1_565
Fe1 Zr11 2.713901 1_565
Fe1 Zr8 3.102444 1_555
Fe1 Zr4 3.102444 1_555
Fe1 Zr7 3.102444 1_555
Fe2 Zr3 2.713346 1_555
Fe2 Zr0 2.713346 1_555
Fe2 Zr1 2.713346 1_555
Fe2 Zr10 2.713901 1_556
Fe2 Zr15 2.713901 1_556
Fe2 Zr13 2.713901 1_556
Fe2 Zr8 3.102444 1_555
Fe2 Zr6 3.102444 1_555
Fe2 Zr5 3.102444 1_555
Fe3 Zr2 2.713346 1_555
Fe3 Zr0 2.713346 1_555
Fe3 Zr1 2.713346 1_555
Fe3 Zr12 2.713901 1_555
Fe3 Zr14 2.713901 1_555
Fe3 Zr10 2.713901 1_555
Fe3 Zr9 3.102444 1_555
Fe3 Zr7 3.102444 1_555
Fe3 Zr5 3.102444 1_555
Fe4 Zr2 2.713346 1_556
Fe4 Zr1 2.713346 1_565
Fe4 Zr3 2.713346 1_555
Fe4 Zr5 2.713901 1_565
Fe4 Zr7 2.713901 1_556
Fe4 Zr8 2.713901 1_555
Fe4 Zr15 3.102444 1_566
Fe4 Zr12 3.102444 1_565
Fe4 Zr10 3.102444 1_556
Fe5 Zr3 2.713346 1_555
Fe5 Zr2 2.713346 1_556
Fe5 Zr0 2.713346 1_655
Fe5 Zr9 2.713901 1_556
Fe5 Zr5 2.713901 1_655
Fe5 Zr6 2.713901 1_555
Fe5 Zr13 3.102444 1_656
Fe5 Zr14 3.102444 1_655
Fe5 Zr10 3.102444 1_556
Fe6 Zr3 2.713346 1_555
Fe6 Zr1 2.713346 1_565
Fe6 Zr0 2.713346 1_655
Fe6 Zr9 2.713901 1_565
Fe6 Zr4 2.713901 1_555
Fe6 Zr7 2.713901 1_655
Fe6 Zr11 3.102444 1_665
Fe6 Zr14 3.102444 1_655
Fe6 Zr12 3.102444 1_565
Fe7 Zr2 2.713346 1_556
Fe7 Zr1 2.713346 1_565
Fe7 Zr0 2.713346 1_655
Fe7 Zr8 2.713901 1_655
Fe7 Zr6 2.713901 1_565
Fe7 Zr4 2.713901 1_556
Fe7 Zr15 3.102444 1_566
Fe7 Zr11 3.102444 1_665
Fe7 Zr13 3.102444 1_656
