# generated using pymatgen
data_BaYMg14O16
_symmetry_space_group_name_H-M   'P 1'
_cell_length_a   4.57350300
_cell_length_b   8.84231400
_cell_length_c   9.06399600
_cell_angle_alpha   90.00000000
_cell_angle_beta   90.00000000
_cell_angle_gamma   90.00000000
_symmetry_Int_Tables_number   1
_chemical_formula_structural   BaYMg14O16
_chemical_formula_sum   'Ba1 Y1 Mg14 O16'
_cell_volume   366.55116707
_cell_formula_units_Z   1
loop_
 _symmetry_equiv_pos_site_id
 _symmetry_equiv_pos_as_xyz
  1  'x, y, z'
loop_
 _atom_site_type_symbol
 _atom_site_label
 _atom_site_symmetry_multiplicity
 _atom_site_fract_x
 _atom_site_fract_y
 _atom_site_fract_z
 _atom_site_occupancy
  Ba  Ba0  1  0.00000000  0.00000000  0.50000000  1
  Y  Y0  1  0.00000000  0.00000000  0.00000000  1
  Mg  Mg0  1  0.00000000  0.50000000  0.00000000  1
  Mg  Mg1  1  0.00000000  0.50000000  0.50000000  1
  Mg  Mg2  1  0.50000000  0.00000000  0.24938000  1
  Mg  Mg3  1  0.50000000  0.00000000  0.75062000  1
  Mg  Mg4  1  0.50000000  0.50000000  0.25038600  1
  Mg  Mg5  1  0.50000000  0.50000000  0.74961400  1
  Mg  Mg6  1  0.50000000  0.26485600  0.00000000  1
  Mg  Mg7  1  0.50000000  0.26682100  0.50000000  1
  Mg  Mg8  1  0.50000000  0.73514400  0.00000000  1
  Mg  Mg9  1  0.50000000  0.73317900  0.50000000  1
  Mg  Mg10  1  0.00000000  0.26656500  0.24977200  1
  Mg  Mg11  1  0.00000000  0.26656500  0.75022800  1
  Mg  Mg12  1  0.00000000  0.73343500  0.24977200  1
  Mg  Mg13  1  0.00000000  0.73343500  0.75022800  1
  O  O0  1  0.00000000  0.26191000  0.00000000  1
  O  O1  1  0.00000000  0.28202000  0.50000000  1
  O  O2  1  0.00000000  0.73809000  0.00000000  1
  O  O3  1  0.00000000  0.71798000  0.50000000  1
  O  O4  1  0.50000000  0.25082300  0.25020100  1
  O  O5  1  0.50000000  0.25082300  0.74979900  1
  O  O6  1  0.50000000  0.74917700  0.25020100  1
  O  O7  1  0.50000000  0.74917700  0.74979900  1
  O  O8  1  0.50000000  0.00000000  0.00000000  1
  O  O9  1  0.50000000  0.00000000  0.50000000  1
  O  O10  1  0.50000000  0.50000000  0.00000000  1
  O  O11  1  0.50000000  0.50000000  0.50000000  1
  O  O12  1  0.00000000  0.00000000  0.23306600  1
  O  O13  1  0.00000000  0.00000000  0.76693400  1
  O  O14  1  0.00000000  0.50000000  0.24271000  1
  O  O15  1  0.00000000  0.50000000  0.75729000  1
loop_
_geom_bond_atom_site_label_1
_geom_bond_atom_site_label_2
_geom_bond_distance
_geom_bond_site_symmetry_2
Ba0 O9 2.286751 1_455
Ba0 O9 2.286751 1_555
Ba0 O13 2.419489 1_555
Ba0 O12 2.419489 1_555
Ba0 O1 2.493709 1_555
Ba0 O3 2.493709 1_545
Mg0 O0 2.105267 1_555
Mg0 O2 2.105267 1_555
Mg0 O15 2.199922 1_554
Mg0 O14 2.199922 1_555
Mg0 O10 2.286751 1_455
Mg0 O10 2.286751 1_555
Mg1 O3 1.927448 1_555
Mg1 O1 1.927448 1_555
Mg1 O11 2.286751 1_555
Mg1 O11 2.286751 1_455
Mg1 O14 2.332076 1_555
Mg1 O15 2.332076 1_555
Mg2 O4 2.217868 1_555
Mg2 O6 2.217868 1_545
Mg2 O8 2.260379 1_555
Mg2 O9 2.271619 1_555
Mg2 O12 2.291527 1_655
Mg2 O12 2.291527 1_555
Mg3 O7 2.217868 1_545
Mg3 O5 2.217868 1_555
Mg3 O8 2.260379 1_556
Mg3 O9 2.271619 1_555
Mg3 O13 2.291527 1_655
Mg3 O13 2.291527 1_555
Mg4 O4 2.203302 1_555
Mg4 O6 2.203302 1_555
Mg4 O11 2.262500 1_555
Mg4 O10 2.269498 1_555
Mg4 O14 2.287810 1_555
Mg4 O14 2.287810 1_655
Mg5 O5 2.203302 1_555
Mg5 O7 2.203302 1_555
Mg5 O11 2.262500 1_555
Mg5 O10 2.269498 1_556
Mg5 O15 2.287810 1_655
Mg5 O15 2.287810 1_555
Mg6 O10 2.079217 1_555
Mg6 O4 2.271213 1_555
Mg6 O5 2.271213 1_554
Mg6 O0 2.286900 1_555
Mg6 O0 2.286900 1_655
Mg6 O8 2.341940 1_555
Mg7 O11 2.061842 1_555
Mg7 O4 2.268592 1_555
Mg7 O5 2.268592 1_555
Mg7 O1 2.290697 1_555
Mg7 O1 2.290697 1_655
Mg7 O9 2.359315 1_555
Mg8 O10 2.079217 1_555
Mg8 O6 2.271213 1_555
Mg8 O7 2.271213 1_554
Mg8 O2 2.286900 1_655
Mg8 O2 2.286900 1_555
Mg8 O8 2.341940 1_565
Mg9 O11 2.061842 1_555
Mg9 O6 2.268592 1_555
Mg9 O7 2.268592 1_555
Mg9 O3 2.290697 1_655
Mg9 O3 2.290697 1_555
Mg9 O9 2.359315 1_565
Mg10 O14 2.065098 1_555
Mg10 O0 2.264307 1_555
Mg10 O1 2.272179 1_555
Mg10 O4 2.290987 1_555
Mg10 O4 2.290987 1_455
Mg10 O12 2.361910 1_555
Mg11 O15 2.065098 1_555
Mg11 O0 2.264307 1_556
Mg11 O1 2.272179 1_555
Mg11 O5 2.290987 1_455
Mg11 O5 2.290987 1_555
Mg11 O13 2.361910 1_555
Mg12 O14 2.065098 1_555
Mg12 O2 2.264307 1_555
Mg12 O3 2.272179 1_555
Mg12 O6 2.290987 1_455
Mg12 O6 2.290987 1_555
Mg12 O12 2.361910 1_565
Mg13 O15 2.065098 1_555
Mg13 O2 2.264307 1_556
Mg13 O3 2.272179 1_555
Mg13 O7 2.290987 1_555
Mg13 O7 2.290987 1_455
Mg13 O13 2.361910 1_565
O0 Y0 2.315890 1_555
O2 Y0 2.315890 1_565
O8 Y0 2.286751 1_555
O8 Y0 2.286751 1_655
O12 Y0 2.112509 1_555
O13 Y0 2.112509 1_556
