# generated using pymatgen
data_Li7Mn5O12
_symmetry_space_group_name_H-M   'P 1'
_cell_length_a   5.29580078
_cell_length_b   15.06175872
_cell_length_c   6.05727076
_cell_angle_alpha   82.29515740
_cell_angle_beta   68.99707866
_cell_angle_gamma   93.88660962
_symmetry_Int_Tables_number   1
_chemical_formula_structural   Li7Mn5O12
_chemical_formula_sum   'Li14 Mn10 O24'
_cell_volume   443.46325581
_cell_formula_units_Z   2
loop_
 _symmetry_equiv_pos_site_id
 _symmetry_equiv_pos_as_xyz
  1  'x, y, z'
loop_
 _atom_site_type_symbol
 _atom_site_label
 _atom_site_symmetry_multiplicity
 _atom_site_fract_x
 _atom_site_fract_y
 _atom_site_fract_z
 _atom_site_occupancy
  Li  Li0  1  0.77504000  0.25737800  0.00906000  1
  Li  Li1  1  0.22496200  0.74262700  0.99091700  1
  Li  Li2  1  0.75776000  0.25317300  0.49869100  1
  Li  Li3  1  0.24232300  0.74684700  0.50125000  1
  Li  Li4  1  0.00003300  0.00000000  0.49999200  1
  Li  Li5  1  0.49997500  0.49998100  0.50001100  1
  Li  Li6  1  0.58618100  0.07930900  0.82854900  1
  Li  Li7  1  0.08491300  0.57705600  0.82385200  1
  Li  Li8  1  0.91507000  0.42295800  0.17607000  1
  Li  Li9  1  0.41389500  0.92072100  0.17144800  1
  Li  Li10  1  0.59335100  0.08348200  0.35140300  1
  Li  Li11  1  0.10806700  0.58154600  0.35891600  1
  Li  Li12  1  0.89197300  0.41848800  0.64104300  1
  Li  Li13  1  0.40667800  0.91653700  0.64859100  1
  Mn  Mn0  1  0.50000500  0.50001600  0.00021000  1
  Mn  Mn1  1  0.00006400  0.00000500  0.99994200  1
  Mn  Mn2  1  0.33741200  0.33632700  0.82906500  1
  Mn  Mn3  1  0.83418500  0.83537300  0.83571600  1
  Mn  Mn4  1  0.16596100  0.16467900  0.16426100  1
  Mn  Mn5  1  0.66241400  0.66373300  0.17105400  1
  Mn  Mn6  1  0.34347800  0.33642400  0.33786200  1
  Mn  Mn7  1  0.84017700  0.83521700  0.34121800  1
  Mn  Mn8  1  0.15980200  0.16479700  0.65885500  1
  Mn  Mn9  1  0.65649900  0.66351300  0.66217700  1
  O  O0  1  0.27661600  0.04471100  0.68070500  1
  O  O1  1  0.77741600  0.54522200  0.68220400  1
  O  O2  1  0.22255000  0.45475700  0.31766200  1
  O  O3  1  0.72342300  0.95527100  0.31922700  1
  O  O4  1  0.40514100  0.20521900  0.82274300  1
  O  O5  1  0.93920700  0.71423000  0.85072100  1
  O  O6  1  0.06072500  0.28573700  0.14933000  1
  O  O7  1  0.59483800  0.79475100  0.17730400  1
  O  O8  1  0.61877100  0.38000000  0.01686700  1
  O  O9  1  0.11974300  0.88110200  0.02273000  1
  O  O10  1  0.88022800  0.11888100  0.97727700  1
  O  O11  1  0.38113600  0.61998800  0.98315600  1
  O  O12  1  0.25059300  0.04276900  0.14548000  1
  O  O13  1  0.75136200  0.54214500  0.14313200  1
  O  O14  1  0.24856300  0.45786600  0.85684400  1
  O  O15  1  0.74937400  0.95719200  0.85450900  1
  O  O16  1  0.44451300  0.20871900  0.34768800  1
  O  O17  1  0.94841400  0.71467700  0.34837900  1
  O  O18  1  0.05163400  0.28530400  0.65161400  1
  O  O19  1  0.55547600  0.79128200  0.65233600  1
  O  O20  1  0.61146600  0.37220100  0.51853300  1
  O  O21  1  0.08247900  0.86966400  0.49964800  1
  O  O22  1  0.91753900  0.13031900  0.50043200  1
  O  O23  1  0.38857400  0.62780300  0.48132400  1
loop_
_geom_bond_atom_site_label_1
_geom_bond_atom_site_label_2
_geom_bond_distance
_geom_bond_site_symmetry_2
Li0 O6 2.030883 1_655
Li0 O8 2.073819 1_555
Li0 O18 2.099821 1_654
Li0 O16 2.158154 1_555
Li0 O10 2.210688 1_554
Li1 O5 2.031013 1_455
Li1 O11 2.073828 1_555
Li1 O17 2.099823 1_456
Li1 O19 2.157939 1_555
Li1 O9 2.210435 1_556
Li2 O20 2.002004 1_555
Li2 O22 2.086501 1_555
Li2 O6 2.115221 1_655
Li2 O18 2.136767 1_655
Li2 O4 2.161298 1_555
Li2 O16 2.266751 1_555
Li3 O23 2.002152 1_555
Li3 O21 2.086126 1_555
Li3 O5 2.116030 1_455
Li3 O17 2.136838 1_455
Li3 O7 2.160542 1_555
Li3 O19 2.266593 1_555
Li4 O22 2.039704 1_455
Li4 O21 2.039853 1_545
Li4 O12 2.063388 1_555
Li4 O15 2.063618 1_445
Li4 O0 2.238393 1_555
Li4 O3 2.238836 1_445
Li5 O20 2.051557 1_555
Li5 O23 2.052014 1_555
Li5 O14 2.074090 1_555
Li5 O13 2.074363 1_555
Li5 O1 2.251497 1_555
Li5 O2 2.252068 1_555
Li6 O12 2.070070 1_556
Li6 O15 2.095233 1_545
Li6 O22 2.127786 1_555
Li6 O10 2.148379 1_555
Li6 O4 2.183951 1_555
Li6 O0 2.196102 1_555
Li7 O14 2.062204 1_555
Li7 O13 2.071116 1_456
Li7 O23 2.119303 1_555
Li7 O1 2.150328 1_455
Li7 O11 2.219255 1_555
Li7 O5 2.259836 1_455
Li8 O13 2.062279 1_555
Li8 O14 2.070765 1_654
Li8 O20 2.118955 1_555
Li8 O2 2.149892 1_655
Li8 O8 2.219267 1_555
Li8 O6 2.260348 1_655
Li9 O15 2.069718 1_554
Li9 O12 2.094595 1_565
Li9 O21 2.128354 1_555
Li9 O9 2.149014 1_555
Li9 O7 2.184520 1_555
Li9 O3 2.195477 1_555
Li10 O0 2.071181 1_555
Li10 O16 2.093507 1_555
Li10 O3 2.103942 1_545
Li10 O10 2.196861 1_554
Li10 O22 2.318960 1_555
Li11 O23 2.007403 1_555
Li11 O2 2.062317 1_555
Li11 O1 2.079685 1_455
Li11 O11 2.186488 1_554
Li11 O17 2.230224 1_455
Li12 O20 2.007980 1_555
Li12 O1 2.061564 1_555
Li12 O2 2.079769 1_655
Li12 O8 2.187032 1_556
Li12 O18 2.230987 1_655
Li13 O3 2.071389 1_555
Li13 O19 2.093668 1_555
Li13 O0 2.103355 1_565
Li13 O9 2.197045 1_556
Li13 O21 2.318814 1_555
Mn0 O13 1.944965 1_555
Mn0 O14 1.947417 1_554
Mn0 O2 1.951561 1_555
Mn0 O1 1.953587 1_554
Mn0 O11 1.955231 1_554
Mn0 O8 1.955529 1_555
Mn1 O10 1.943710 1_455
Mn1 O9 1.943793 1_546
Mn1 O0 1.955671 1_555
Mn1 O3 1.956110 1_446
Mn1 O12 1.956301 1_556
Mn1 O15 1.956782 1_445
Mn2 O20 1.897544 1_555
Mn2 O14 1.934781 1_555
Mn2 O6 1.976270 1_556
Mn2 O4 2.033734 1_555
Mn2 O8 2.286857 1_556
Mn2 O18 2.294841 1_555
Mn3 O15 1.926728 1_555
Mn3 O5 1.943243 1_555
Mn3 O21 1.961355 1_655
Mn3 O7 1.984326 1_556
Mn3 O19 2.256890 1_555
Mn3 O9 2.310959 1_656
Mn4 O12 1.927796 1_555
Mn4 O6 1.942430 1_555
Mn4 O22 1.962103 1_455
Mn4 O4 1.983628 1_554
Mn4 O16 2.256191 1_555
Mn4 O10 2.311903 1_454
Mn5 O23 1.896109 1_555
Mn5 O13 1.935755 1_555
Mn5 O5 1.976463 1_554
Mn5 O7 2.032170 1_555
Mn5 O11 2.287294 1_554
Mn5 O17 2.294795 1_555
Mn6 O2 1.937558 1_555
Mn6 O8 1.957771 1_555
Mn6 O18 1.983470 1_555
Mn6 O16 2.030071 1_555
Mn6 O20 2.161015 1_555
Mn6 O6 2.331048 1_555
Mn7 O19 1.938080 1_555
Mn7 O21 1.939755 1_655
Mn7 O17 1.940213 1_555
Mn7 O3 1.953392 1_555
Mn7 O9 1.961547 1_655
Mn7 O7 2.006238 1_555
Mn8 O16 1.938263 1_555
Mn8 O18 1.939607 1_555
Mn8 O22 1.939688 1_455
Mn8 O0 1.953924 1_555
Mn8 O10 1.961376 1_455
Mn8 O4 2.005901 1_555
Mn9 O1 1.936882 1_555
Mn9 O11 1.957724 1_555
Mn9 O17 1.983936 1_555
Mn9 O19 2.030976 1_555
Mn9 O23 2.161320 1_555
Mn9 O5 2.331072 1_555
