# generated using pymatgen
data_Cr5B3
_symmetry_space_group_name_H-M   'P 1'
_cell_length_a   5.41047970
_cell_length_b   5.41047971
_cell_length_c   6.24193626
_cell_angle_alpha   115.68337672
_cell_angle_beta   115.68337693
_cell_angle_gamma   89.99999386
_symmetry_Int_Tables_number   1
_chemical_formula_structural   Cr5B3
_chemical_formula_sum   'Cr10 B6'
_cell_volume   144.37733614
_cell_formula_units_Z   2
loop_
 _symmetry_equiv_pos_site_id
 _symmetry_equiv_pos_as_xyz
  1  'x, y, z'
loop_
 _atom_site_type_symbol
 _atom_site_label
 _atom_site_symmetry_multiplicity
 _atom_site_fract_x
 _atom_site_fract_y
 _atom_site_fract_z
 _atom_site_occupancy
  Cr  Cr0  1  0.68287865  0.18287865  0.70802760  1
  Cr  Cr1  1  0.97485004  0.47485004  0.29197240  1
  Cr  Cr2  1  -0.00000000  -0.00000000  -0.00000000  1
  Cr  Cr3  1  0.50000000  0.50000000  -0.00000000  1
  Cr  Cr4  1  0.02514996  0.52514996  0.70802760  1
  Cr  Cr5  1  0.18287865  0.02514996  0.70802760  1
  Cr  Cr6  1  0.52514996  0.68287865  0.70802760  1
  Cr  Cr7  1  0.81712135  0.97485004  0.29197240  1
  Cr  Cr8  1  0.47485004  0.31712135  0.29197240  1
  Cr  Cr9  1  0.31712135  0.81712135  0.29197240  1
  B  B0  1  0.38187472  0.88187472  -0.00000000  1
  B  B1  1  0.11812528  0.38187472  0.00000000  1
  B  B2  1  0.88187472  0.61812528  -0.00000000  1
  B  B3  1  0.61812528  0.11812528  0.00000000  1
  B  B4  1  0.75000000  0.75000000  0.50000000  1
  B  B5  1  0.25000000  0.25000000  0.50000000  1
loop_
_geom_bond_atom_site_label_1
_geom_bond_atom_site_label_2
_geom_bond_distance
_geom_bond_site_symmetry_2
B0 B3 1.807689 1_565
B0 Cr7 2.145989 1_555
B0 Cr8 2.145989 1_565
B0 Cr5 2.145993 1_564
B0 Cr6 2.145993 1_554
B0 Cr4 2.161888 1_554
B0 Cr9 2.161894 1_555
B0 Cr2 2.162716 1_565
B0 Cr3 2.162716 1_555
B1 B2 1.807688 1_455
B1 Cr0 2.145989 1_454
B1 Cr9 2.145989 1_555
B1 Cr4 2.145993 1_554
B1 Cr1 2.145993 1_455
B1 Cr8 2.161891 1_555
B1 Cr5 2.161891 1_554
B1 Cr3 2.162716 1_555
B1 Cr2 2.162716 1_555
B2 Cr9 2.145989 1_655
B2 Cr0 2.145989 1_554
B2 Cr1 2.145993 1_555
B2 Cr4 2.145993 1_654
B2 Cr6 2.161891 1_554
B2 Cr7 2.161891 1_555
B2 Cr3 2.162716 1_555
B2 Cr2 2.162716 1_665
B3 Cr5 2.145989 1_554
B3 Cr6 2.145989 1_544
B3 Cr7 2.145993 1_545
B3 Cr8 2.145993 1_555
B3 Cr1 2.161888 1_555
B3 Cr0 2.161894 1_554
B3 Cr2 2.162716 1_655
B3 Cr3 2.162716 1_555
B4 Cr7 2.252990 1_555
B4 Cr6 2.252990 1_555
B4 Cr4 2.252992 1_655
B4 Cr1 2.252992 1_555
B4 Cr9 2.252994 1_555
B4 Cr0 2.252994 1_565
B4 Cr5 2.252996 1_665
B4 Cr8 2.252996 1_555
B4 Cr3 2.466025 1_555
B4 Cr2 2.466025 1_666
B5 Cr5 2.252990 1_555
B5 Cr8 2.252990 1_555
B5 Cr1 2.252992 1_455
B5 Cr4 2.252992 1_555
B5 Cr0 2.252994 1_555
B5 Cr9 2.252994 1_545
B5 Cr7 2.252996 1_445
B5 Cr6 2.252996 1_555
B5 Cr3 2.466025 1_556
B5 Cr2 2.466025 1_555
