# generated using pymatgen
data_KLa2N7
_symmetry_space_group_name_H-M   'P 1'
_cell_length_a   8.78054400
_cell_length_b   8.33384100
_cell_length_c   11.38536300
_cell_angle_alpha   90.00000000
_cell_angle_beta   90.00000000
_cell_angle_gamma   90.00000000
_symmetry_Int_Tables_number   1
_chemical_formula_structural   KLa2N7
_chemical_formula_sum   'K4 La8 N28'
_cell_volume   833.13142442
_cell_formula_units_Z   4
loop_
 _symmetry_equiv_pos_site_id
 _symmetry_equiv_pos_as_xyz
  1  'x, y, z'
loop_
 _atom_site_type_symbol
 _atom_site_label
 _atom_site_symmetry_multiplicity
 _atom_site_fract_x
 _atom_site_fract_y
 _atom_site_fract_z
 _atom_site_occupancy
  K  K0  1  0.83624800  0.79176400  0.50000000  1
  K  K1  1  0.16375200  0.20823600  0.50000000  1
  K  K2  1  0.33624800  0.70823600  0.00000000  1
  K  K3  1  0.66375200  0.29176400  0.00000000  1
  La  La0  1  0.70587800  0.24178300  0.67973500  1
  La  La1  1  0.29412200  0.75821700  0.67973500  1
  La  La2  1  0.20587800  0.25821700  0.82026500  1
  La  La3  1  0.79412200  0.74178300  0.82026500  1
  La  La4  1  0.29412200  0.75821700  0.32026500  1
  La  La5  1  0.70587800  0.24178300  0.32026500  1
  La  La6  1  0.79412200  0.74178300  0.17973500  1
  La  La7  1  0.20587800  0.25821700  0.17973500  1
  N  N0  1  0.50000000  0.50000000  0.74609000  1
  N  N1  1  0.00000000  0.00000000  0.75391000  1
  N  N2  1  0.50000000  0.50000000  0.25391000  1
  N  N3  1  0.00000000  0.00000000  0.24609000  1
  N  N4  1  0.97601700  0.33965900  0.70411000  1
  N  N5  1  0.02398300  0.66034100  0.70411000  1
  N  N6  1  0.47601700  0.16034100  0.79589000  1
  N  N7  1  0.52398300  0.83965900  0.79589000  1
  N  N8  1  0.02398300  0.66034100  0.29589000  1
  N  N9  1  0.97601700  0.33965900  0.29589000  1
  N  N10  1  0.52398300  0.83965900  0.20411000  1
  N  N11  1  0.47601700  0.16034100  0.20411000  1
  N  N12  1  0.42599700  0.18638600  0.69642700  1
  N  N13  1  0.57400300  0.81361400  0.69642700  1
  N  N14  1  0.92599700  0.31361400  0.80357300  1
  N  N15  1  0.07400300  0.68638600  0.80357300  1
  N  N16  1  0.57400300  0.81361400  0.30357300  1
  N  N17  1  0.42599700  0.18638600  0.30357300  1
  N  N18  1  0.07400300  0.68638600  0.19642700  1
  N  N19  1  0.92599700  0.31361400  0.19642700  1
  N  N20  1  0.36731100  0.49789700  0.79772600  1
  N  N21  1  0.63268900  0.50210300  0.79772600  1
  N  N22  1  0.86731100  0.00210300  0.70227400  1
  N  N23  1  0.13268900  0.99789700  0.70227400  1
  N  N24  1  0.63268900  0.50210300  0.20227400  1
  N  N25  1  0.36731100  0.49789700  0.20227400  1
  N  N26  1  0.13268900  0.99789700  0.29772600  1
  N  N27  1  0.86731100  0.00210300  0.29772600  1
loop_
_geom_bond_atom_site_label_1
_geom_bond_atom_site_label_2
_geom_bond_distance
_geom_bond_site_symmetry_2
K0 N22 2.907026 1_565
K0 N27 2.907026 1_565
K0 N8 3.052412 1_655
K0 N5 3.052412 1_655
K0 N13 3.215093 1_555
K0 N16 3.215093 1_555
K1 N23 2.907026 1_545
K1 N26 2.907026 1_545
K1 N9 3.052412 1_455
K1 N4 3.052412 1_455
K1 N17 3.215093 1_555
K1 N12 3.215093 1_555
K2 N25 2.907026 1_555
K2 N20 2.907026 1_554
K2 N7 3.052412 1_554
K2 N10 3.052412 1_555
K2 N15 3.215093 1_554
K2 N18 3.215093 1_555
K3 N24 2.907026 1_555
K3 N21 2.907026 1_554
K3 N6 3.052412 1_554
K3 N11 3.052412 1_555
K3 N14 3.215093 1_554
K3 N19 3.215093 1_555
La0 N22 2.462701 1_555
La0 N14 2.466144 1_555
La0 N6 2.506619 1_555
La0 N12 2.507708 1_555
La0 N4 2.523605 1_555
La0 N21 2.631389 1_555
La1 N23 2.462701 1_555
La1 N15 2.466144 1_555
La1 N7 2.506619 1_555
La1 N13 2.507708 1_555
La1 N5 2.523605 1_555
La1 N20 2.631389 1_555
La2 N20 2.462701 1_555
La2 N12 2.466144 1_555
La2 N4 2.506619 1_455
La2 N14 2.507708 1_455
La2 N6 2.523605 1_555
La2 N23 2.631389 1_545
La3 N21 2.462701 1_555
La3 N13 2.466144 1_555
La3 N5 2.506619 1_655
La3 N15 2.507708 1_655
La3 N7 2.523605 1_555
La3 N22 2.631389 1_565
La4 N26 2.462701 1_555
La4 N18 2.466144 1_555
La4 N10 2.506619 1_555
La4 N16 2.507708 1_555
La4 N8 2.523605 1_555
La4 N25 2.631389 1_555
La5 N27 2.462701 1_555
La5 N19 2.466144 1_555
La5 N11 2.506619 1_555
La5 N17 2.507708 1_555
La5 N9 2.523605 1_555
La5 N24 2.631389 1_555
La6 N24 2.462701 1_555
La6 N16 2.466144 1_555
La6 N8 2.506619 1_655
La6 N18 2.507708 1_655
La6 N10 2.523605 1_555
La6 N27 2.631389 1_565
La7 N25 2.462701 1_555
La7 N17 2.466144 1_555
La7 N9 2.506619 1_455
La7 N19 2.507708 1_455
La7 N11 2.523605 1_555
La7 N26 2.631389 1_545
N0 N21 1.305122 1_555
N0 N20 1.305122 1_555
N1 N23 1.305122 1_545
N1 N22 1.305122 1_455
N2 N24 1.305122 1_555
N2 N25 1.305122 1_555
N10 N16 1.233853 1_555
N11 N17 1.233853 1_555
N12 N6 1.233853 1_555
N13 N7 1.233853 1_555
N14 N4 1.233853 1_555
N15 N5 1.233853 1_555
N18 N8 1.233853 1_555
N19 N9 1.233853 1_555
N26 N3 1.305122 1_565
N27 N3 1.305122 1_655
