# generated using pymatgen
data_Ca5Zr4Ti(GeO5)5
_symmetry_space_group_name_H-M   'P 1'
_cell_length_a   5.79321034
_cell_length_b   25.12194918
_cell_length_c   7.90718020
_cell_angle_alpha   81.00680626
_cell_angle_beta   72.96507588
_cell_angle_gamma   87.57986407
_symmetry_Int_Tables_number   1
_chemical_formula_structural   Ca5Zr4Ti(GeO5)5
_chemical_formula_sum   'Ca10 Zr8 Ti2 Ge10 O50'
_cell_volume   1086.76228278
_cell_formula_units_Z   2
loop_
 _symmetry_equiv_pos_site_id
 _symmetry_equiv_pos_as_xyz
  1  'x, y, z'
loop_
 _atom_site_type_symbol
 _atom_site_label
 _atom_site_symmetry_multiplicity
 _atom_site_fract_x
 _atom_site_fract_y
 _atom_site_fract_z
 _atom_site_occupancy
  Ca  Ca0  1  0.70661900  0.88076400  0.46382800  1
  Ca  Ca1  1  0.10502500  0.07954900  0.06494700  1
  Ca  Ca2  1  0.49816600  0.27921600  0.67527800  1
  Ca  Ca3  1  0.89909000  0.47956000  0.27434700  1
  Ca  Ca4  1  0.29981000  0.68047000  0.87430400  1
  Ca  Ca5  1  0.29338100  0.11923600  0.53617200  1
  Ca  Ca6  1  0.70019000  0.31953000  0.12569600  1
  Ca  Ca7  1  0.10091000  0.52044000  0.72565300  1
  Ca  Ca8  1  0.50183400  0.72078400  0.32472200  1
  Ca  Ca9  1  0.89497500  0.92045100  0.93505300  1
  Zr  Zr0  1  0.10016000  0.29914300  0.39972600  1
  Zr  Zr1  1  0.50000000  0.50000000  0.00000000  1
  Zr  Zr2  1  0.89984000  0.70085700  0.60027400  1
  Zr  Zr3  1  0.00000000  0.00000000  0.50000000  1
  Zr  Zr4  1  0.40312800  0.19828900  0.09947400  1
  Zr  Zr5  1  0.80015200  0.39981100  0.69969600  1
  Zr  Zr6  1  0.19984800  0.60018900  0.30030400  1
  Zr  Zr7  1  0.59687200  0.80171100  0.90052600  1
  Ti  Ti0  1  0.29980800  0.90080300  0.20006000  1
  Ti  Ti1  1  0.70019200  0.09919700  0.79994000  1
  Ge  Ge0  1  0.00442300  0.78763800  0.17769200  1
  Ge  Ge1  1  0.19938600  0.38581900  0.97731300  1
  Ge  Ge2  1  0.59976100  0.58610000  0.57711700  1
  Ge  Ge3  1  0.40544100  0.98533500  0.78325400  1
  Ge  Ge4  1  0.80041900  0.18366400  0.38318600  1
  Ge  Ge5  1  0.19958100  0.81633600  0.61681400  1
  Ge  Ge6  1  0.40023900  0.41390000  0.42288300  1
  Ge  Ge7  1  0.80061400  0.61418100  0.02268700  1
  Ge  Ge8  1  0.59455900  0.01466500  0.21674600  1
  Ge  Ge9  1  0.99557700  0.21236200  0.82230800  1
  O  O0  1  0.54411800  0.86923100  0.02911300  1
  O  O1  1  0.76893100  0.46850800  0.81323800  1
  O  O2  1  0.16807600  0.66873300  0.41457200  1
  O  O3  1  0.94384600  0.06806600  0.62586900  1
  O  O4  1  0.36739600  0.26743400  0.21100500  1
  O  O5  1  0.63260400  0.73256600  0.78899500  1
  O  O6  1  0.83192400  0.33126700  0.58542800  1
  O  O7  1  0.23106900  0.53149200  0.18676200  1
  O  O8  1  0.05615400  0.93193400  0.37413100  1
  O  O9  1  0.45588200  0.13076900  0.97088700  1
  O  O10  1  0.81356000  0.76595600  0.06282700  1
  O  O11  1  0.01251800  0.36262000  0.86283100  1
  O  O12  1  0.41281000  0.56285300  0.46264600  1
  O  O13  1  0.20952500  0.96555400  0.66876100  1
  O  O14  1  0.60873900  0.16234600  0.26858700  1
  O  O15  1  0.39126100  0.83765400  0.73141300  1
  O  O16  1  0.58719000  0.43714700  0.53735400  1
  O  O17  1  0.98748200  0.63738000  0.13716900  1
  O  O18  1  0.79047500  0.03444600  0.33123900  1
  O  O19  1  0.18644000  0.23404400  0.93717300  1
  O  O20  1  0.24676800  0.96046800  0.01038600  1
  O  O21  1  0.43888700  0.56310300  0.80384100  1
  O  O22  1  0.83924600  0.76386300  0.40330900  1
  O  O23  1  0.64671000  0.15926600  0.61112000  1
  O  O24  1  0.03910000  0.36258300  0.20401600  1
  O  O25  1  0.96090000  0.63741700  0.79598400  1
  O  O26  1  0.16075400  0.23613700  0.59669100  1
  O  O27  1  0.56111300  0.43689700  0.19615900  1
  O  O28  1  0.35329000  0.84073400  0.38888000  1
  O  O29  1  0.75323200  0.03953200  0.98961400  1
  O  O30  1  0.19204300  0.74466300  0.63588800  1
  O  O31  1  0.39021800  0.34252200  0.44047800  1
  O  O32  1  0.79064600  0.54290500  0.04106600  1
  O  O33  1  0.58035100  0.94295800  0.23310900  1
  O  O34  1  0.97913600  0.14096100  0.83716900  1
  O  O35  1  0.02086400  0.85903900  0.16283100  1
  O  O36  1  0.20935400  0.45709500  0.95893400  1
  O  O37  1  0.60978200  0.65747800  0.55952200  1
  O  O38  1  0.41964900  0.05704200  0.76689100  1
  O  O39  1  0.80795700  0.25533700  0.36411200  1
  O  O40  1  0.90398300  0.84128800  0.70156100  1
  O  O41  1  0.10624100  0.43992000  0.49888000  1
  O  O42  1  0.50614800  0.64004000  0.09871300  1
  O  O43  1  0.30309700  0.04156100  0.30223500  1
  O  O44  1  0.70556800  0.24026900  0.89942400  1
  O  O45  1  0.29443200  0.75973100  0.10057600  1
  O  O46  1  0.49385200  0.35996000  0.90128700  1
  O  O47  1  0.89375900  0.56008000  0.50112000  1
  O  O48  1  0.69690300  0.95843900  0.69776500  1
  O  O49  1  0.09601700  0.15871200  0.29843900  1
loop_
_geom_bond_atom_site_label_1
_geom_bond_atom_site_label_2
_geom_bond_distance
_geom_bond_site_symmetry_2
Ca0 O8 2.312830 1_655
Ca0 O33 2.469561 1_555
Ca0 O15 2.484604 1_555
Ca0 O40 2.530840 1_555
Ca0 O28 2.573566 1_555
Ca0 O35 2.657098 1_655
Ca0 O48 2.879377 1_555
Ca0 O22 3.078537 1_555
Ca1 O9 2.318672 1_554
Ca1 O34 2.441689 1_454
Ca1 O18 2.493686 1_455
Ca1 O43 2.521316 1_555
Ca1 O29 2.567193 1_454
Ca1 O38 2.647451 1_554
Ca1 O49 2.906741 1_555
Ca2 O6 2.251975 1_555
Ca2 O31 2.457745 1_555
Ca2 O19 2.466718 1_555
Ca2 O44 2.479622 1_555
Ca2 O26 2.545345 1_555
Ca2 O39 2.723575 1_555
Ca2 O46 2.900307 1_555
Ca3 O7 2.242660 1_655
Ca3 O16 2.448114 1_555
Ca3 O32 2.450806 1_555
Ca3 O41 2.485691 1_655
Ca3 O27 2.541304 1_555
Ca3 O36 2.738113 1_654
Ca3 O47 2.899025 1_555
Ca3 O24 3.106188 1_655
Ca4 O5 2.249433 1_555
Ca4 O17 2.454466 1_456
Ca4 O42 2.487151 1_556
Ca4 O30 2.489678 1_555
Ca4 O25 2.551338 1_455
Ca4 O37 2.738002 1_555
Ca4 O45 2.871035 1_556
Ca5 O3 2.312830 1_455
Ca5 O38 2.469561 1_555
Ca5 O14 2.484604 1_555
Ca5 O49 2.530840 1_555
Ca5 O23 2.573566 1_555
Ca5 O34 2.657098 1_455
Ca5 O43 2.879377 1_555
Ca5 O26 3.078537 1_555
Ca6 O4 2.249433 1_555
Ca6 O11 2.454466 1_654
Ca6 O46 2.487151 1_554
Ca6 O39 2.489678 1_555
Ca6 O24 2.551338 1_655
Ca6 O31 2.738002 1_555
Ca6 O44 2.871035 1_554
Ca7 O1 2.242660 1_455
Ca7 O12 2.448114 1_555
Ca7 O36 2.450806 1_555
Ca7 O47 2.485691 1_455
Ca7 O21 2.541304 1_555
Ca7 O32 2.738113 1_456
Ca7 O41 2.899025 1_555
Ca7 O25 3.106188 1_455
Ca8 O2 2.251975 1_555
Ca8 O37 2.457745 1_555
Ca8 O10 2.466718 1_555
Ca8 O45 2.479622 1_555
Ca8 O22 2.545345 1_555
Ca8 O30 2.723575 1_555
Ca8 O42 2.900307 1_555
Ca9 O0 2.318672 1_556
Ca9 O35 2.441689 1_656
Ca9 O13 2.493686 1_655
Ca9 O48 2.521316 1_555
Ca9 O20 2.567193 1_656
Ca9 O33 2.647451 1_556
Ca9 O40 2.906741 1_555
Ge0 O45 1.766336 1_555
Ge0 O10 1.771485 1_455
Ge0 O22 1.780442 1_455
Ge0 O35 1.783909 1_555
Ge1 O46 1.766679 1_555
Ge1 O11 1.767327 1_555
Ge1 O36 1.775707 1_555
Ge1 O24 1.777557 1_556
Ge2 O47 1.765891 1_555
Ge2 O12 1.768161 1_555
Ge2 O21 1.777366 1_555
Ge2 O37 1.778818 1_555
Ge3 O48 1.772629 1_555
Ge3 O13 1.773428 1_555
Ge3 O20 1.786396 1_556
Ge3 O38 1.789425 1_565
Ge4 O14 1.769892 1_555
Ge4 O49 1.772799 1_655
Ge4 O23 1.782514 1_555
Ge4 O39 1.784537 1_555
Ge5 O15 1.769892 1_555
Ge5 O40 1.772799 1_455
Ge5 O28 1.782514 1_555
Ge5 O30 1.784537 1_555
Ge6 O41 1.765891 1_555
Ge6 O16 1.768161 1_555
Ge6 O27 1.777366 1_555
Ge6 O31 1.778818 1_555
Ge7 O42 1.766679 1_555
Ge7 O17 1.767327 1_555
Ge7 O32 1.775707 1_555
Ge7 O25 1.777557 1_554
Ge8 O43 1.772629 1_555
Ge8 O18 1.773428 1_555
Ge8 O29 1.786396 1_554
Ge8 O33 1.789425 1_545
Ge9 O44 1.766336 1_555
Ge9 O19 1.771485 1_655
Ge9 O26 1.780442 1_655
Ge9 O34 1.783909 1_555
O0 Ti0 1.891783 1_555
O0 Zr7 2.077921 1_554
O1 Zr1 2.036452 1_556
O1 Zr5 2.044516 1_555
O2 Zr2 2.037109 1_455
O2 Zr6 2.043920 1_555
O3 Ti1 1.898302 1_555
O3 Zr3 2.077426 1_655
O4 Zr0 2.042559 1_555
O4 Zr4 2.044396 1_555
O5 Zr2 2.042559 1_555
O5 Zr7 2.044396 1_555
O6 Zr0 2.037109 1_655
O6 Zr5 2.043920 1_555
O7 Zr1 2.036452 1_555
O7 Zr6 2.044516 1_555
O8 Ti0 1.898302 1_555
O8 Zr3 2.077426 1_565
O9 Ti1 1.891783 1_555
O9 Zr4 2.077921 1_556
O10 Zr7 2.125538 1_554
O11 Zr5 2.122836 1_455
O12 Zr6 2.122126 1_555
O13 Zr3 2.121836 1_565
O14 Zr4 2.118303 1_555
O15 Zr7 2.118303 1_555
O16 Zr5 2.122126 1_555
O17 Zr6 2.122836 1_655
O18 Zr3 2.121836 1_655
O19 Zr4 2.125538 1_556
O20 Ti0 2.029479 1_555
O21 Zr1 2.133038 1_556
O22 Zr2 2.134691 1_555
O23 Ti1 2.032128 1_555
O24 Zr0 2.135880 1_555
O25 Zr2 2.135880 1_555
O26 Zr0 2.134691 1_555
O27 Zr1 2.133038 1_555
O28 Ti0 2.032128 1_555
O29 Ti1 2.029479 1_555
O30 Zr2 2.165515 1_455
O31 Zr0 2.167197 1_555
O32 Zr1 2.164566 1_555
O33 Ti0 2.076523 1_555
O34 Ti1 2.077818 1_555
O35 Ti0 2.077818 1_555
O36 Zr1 2.164566 1_556
O37 Zr2 2.167197 1_555
O38 Ti1 2.076523 1_555
O39 Zr0 2.165515 1_655
O40 Zr7 2.156254 1_555
O41 Zr5 2.163792 1_455
O42 Zr6 2.164656 1_555
O43 Zr3 2.157377 1_555
O44 Zr4 2.166774 1_556
O45 Zr7 2.166774 1_554
O46 Zr5 2.164656 1_555
O47 Zr6 2.163792 1_655
O48 Zr3 2.157377 1_665
O49 Zr4 2.156254 1_555
