# generated using pymatgen
data_Li7Mn2(CoO4)3
_symmetry_space_group_name_H-M   'P 1'
_cell_length_a   5.76276000
_cell_length_b   5.91688715
_cell_length_c   7.74695301
_cell_angle_alpha   68.53446651
_cell_angle_beta   79.08108337
_cell_angle_gamma   60.91484440
_symmetry_Int_Tables_number   1
_chemical_formula_structural   Li7Mn2(CoO4)3
_chemical_formula_sum   'Li7 Mn2 Co3 O12'
_cell_volume   214.80908173
_cell_formula_units_Z   1
loop_
 _symmetry_equiv_pos_site_id
 _symmetry_equiv_pos_as_xyz
  1  'x, y, z'
loop_
 _atom_site_type_symbol
 _atom_site_label
 _atom_site_symmetry_multiplicity
 _atom_site_fract_x
 _atom_site_fract_y
 _atom_site_fract_z
 _atom_site_occupancy
  Li  Li0  1  0.66519000  0.83961900  0.65564600  1
  Li  Li1  1  0.82884100  0.16962600  0.34257400  1
  Li  Li2  1  0.16769800  0.83873100  0.65655000  1
  Li  Li3  1  0.32661400  0.17499400  0.35090000  1
  Li  Li4  1  0.50220900  0.49329500  0.99971500  1
  Li  Li5  1  0.00603400  0.49193100  0.99642500  1
  Li  Li6  1  0.16573700  0.33704800  0.66620000  1
  Mn  Mn0  1  0.00541900  0.99130400  0.99600700  1
  Mn  Mn1  1  0.50125400  0.99820300  0.99435400  1
  Co  Co0  1  0.32984800  0.66288700  0.34576300  1
  Co  Co1  1  0.66788600  0.33165700  0.66707500  1
  Co  Co2  1  0.83192800  0.65931500  0.34579700  1
  O  O0  1  0.96895100  0.28368700  0.50044200  1
  O  O1  1  0.15413300  0.60944000  0.16245600  1
  O  O2  1  0.50376400  0.27963600  0.50336100  1
  O  O3  1  0.64190300  0.62194600  0.16825300  1
  O  O4  1  0.83566000  0.90071500  0.85362300  1
  O  O5  1  0.33199600  0.91253300  0.85211400  1
  O  O6  1  0.37128300  0.36835600  0.83683500  1
  O  O7  1  0.49249900  0.76817200  0.49252900  1
  O  O8  1  0.84321200  0.36602500  0.83753200  1
  O  O9  1  0.00443900  0.75651900  0.48454500  1
  O  O10  1  0.17307800  0.07999900  0.14143600  1
  O  O11  1  0.68042400  0.06436100  0.14987000  1
loop_
_geom_bond_atom_site_label_1
_geom_bond_atom_site_label_2
_geom_bond_distance
_geom_bond_site_symmetry_2
Li0 O7 2.010555 1_555
Li0 O9 2.093211 1_655
Li0 O5 2.181195 1_555
Li0 O4 2.184005 1_555
Li0 O2 2.201969 1_565
Li0 O8 2.398575 1_555
Li1 O2 2.002131 1_555
Li1 O0 2.027578 1_555
Li1 O9 2.063400 1_645
Li1 O11 2.242824 1_555
Li1 O10 2.248442 1_655
Li1 O3 2.291257 1_555
Li2 O7 2.004954 1_555
Li2 O9 2.071626 1_555
Li2 O4 2.178877 1_455
Li2 O5 2.193632 1_555
Li2 O0 2.229033 1_465
Li2 O6 2.382092 1_555
Li3 O7 2.034486 1_545
Li3 O0 2.087086 1_455
Li3 O2 2.104062 1_555
Li3 O1 2.246356 1_555
Li3 O11 2.292745 1_555
Li3 O10 2.329576 1_555
Li4 O6 2.072098 1_555
Li4 O8 2.079846 1_555
Li4 O5 2.099124 1_555
Li4 O1 2.102660 1_556
Li4 O11 2.146365 1_556
Li4 O3 2.157223 1_556
Li5 O4 2.045095 1_455
Li5 O10 2.062520 1_556
Li5 O1 2.124506 1_556
Li5 O6 2.161715 1_555
Li5 O8 2.176900 1_455
Li5 O3 2.211079 1_456
Li6 O8 2.041519 1_455
Li6 O6 2.042192 1_555
Li6 O0 2.056984 1_455
Li6 O2 2.059301 1_555
Li6 O9 2.168146 1_555
Li6 O5 2.199284 1_545
Mn0 O8 1.929899 1_465
Mn0 O5 1.932465 1_555
Mn0 O4 1.952523 1_455
Mn0 O10 1.953530 1_566
Mn0 O11 1.964580 1_466
Mn0 O1 1.976372 1_556
Mn1 O6 1.908467 1_565
Mn1 O5 1.928538 1_555
Mn1 O10 1.951041 1_566
Mn1 O4 1.954141 1_555
Mn1 O11 1.969814 1_566
Mn1 O3 1.972924 1_556
Co0 O9 1.908276 1_555
Co0 O2 1.965968 1_555
Co0 O7 2.012264 1_555
Co0 O3 2.016696 1_555
Co0 O1 2.080081 1_555
Co0 O10 2.219837 1_565
Co1 O2 1.902891 1_555
Co1 O6 1.922191 1_555
Co1 O0 1.923022 1_555
Co1 O8 1.925537 1_555
Co1 O7 2.223648 1_555
Co1 O4 2.227231 1_545
Co2 O0 1.924029 1_555
Co2 O9 1.971706 1_655
Co2 O7 2.000440 1_555
Co2 O3 2.041676 1_555
Co2 O1 2.080156 1_655
Co2 O11 2.148309 1_565
