# generated using pymatgen
data_La2ZnBi4
_symmetry_space_group_name_H-M   'P 1'
_cell_length_a   4.61014528
_cell_length_b   4.61014528
_cell_length_c   10.22480059
_cell_angle_alpha   90.00000000
_cell_angle_beta   90.00000000
_cell_angle_gamma   90.00000000
_symmetry_Int_Tables_number   1
_chemical_formula_structural   La2ZnBi4
_chemical_formula_sum   'La2 Zn1 Bi4'
_cell_volume   217.31218077
_cell_formula_units_Z   1
loop_
 _symmetry_equiv_pos_site_id
 _symmetry_equiv_pos_as_xyz
  1  'x, y, z'
loop_
 _atom_site_type_symbol
 _atom_site_label
 _atom_site_symmetry_multiplicity
 _atom_site_fract_x
 _atom_site_fract_y
 _atom_site_fract_z
 _atom_site_occupancy
  La  La0  1  0.50000000  0.00000000  0.74169485  1
  La  La1  1  -0.00000000  0.50000000  0.25830515  1
  Zn  Zn0  1  0.50000000  0.50000000  0.50000000  1
  Bi  Bi0  1  0.50000000  0.00000000  0.34736632  1
  Bi  Bi1  1  -0.00000000  0.50000000  0.65263368  1
  Bi  Bi2  1  0.50000000  0.50000000  0.00000000  1
  Bi  Bi3  1  -0.00000000  0.00000000  0.00000000  1
loop_
_geom_bond_atom_site_label_1
_geom_bond_atom_site_label_2
_geom_bond_distance
_geom_bond_site_symmetry_2
La0 Zn0 3.379437 1_555
La0 Zn0 3.379437 1_545
La1 Zn0 3.379437 1_555
La1 Zn0 3.379437 1_455
Bi0 Zn0 2.783700 1_545
Bi0 Zn0 2.783700 1_555
Bi0 La1 3.384667 1_555
Bi0 La1 3.384667 1_545
Bi0 La1 3.384667 1_645
Bi0 La1 3.384667 1_655
Bi1 Zn0 2.783700 1_455
Bi1 Zn0 2.783700 1_555
Bi1 La0 3.384667 1_555
Bi1 La0 3.384667 1_565
Bi1 La0 3.384667 1_465
Bi1 La0 3.384667 1_455
Bi2 Bi3 3.259865 1_665
Bi2 Bi3 3.259865 1_565
Bi2 Bi3 3.259865 1_555
Bi2 Bi3 3.259865 1_655
Bi2 La1 3.505548 1_555
Bi2 La1 3.505548 1_655
Bi2 La0 3.505548 1_564
Bi2 La0 3.505548 1_554
Bi3 La1 3.505548 1_555
Bi3 La1 3.505548 1_545
Bi3 La0 3.505548 1_454
Bi3 La0 3.505548 1_554
