# generated using pymatgen
data_Li4MnCo3O8
_symmetry_space_group_name_H-M   'P 1'
_cell_length_a   5.02530800
_cell_length_b   5.16791038
_cell_length_c   5.89733925
_cell_angle_alpha   107.04143074
_cell_angle_beta   88.79062783
_cell_angle_gamma   99.64603802
_symmetry_Int_Tables_number   1
_chemical_formula_structural   Li4MnCo3O8
_chemical_formula_sum   'Li4 Mn1 Co3 O8'
_cell_volume   144.29731478
_cell_formula_units_Z   1
loop_
 _symmetry_equiv_pos_site_id
 _symmetry_equiv_pos_as_xyz
  1  'x, y, z'
loop_
 _atom_site_type_symbol
 _atom_site_label
 _atom_site_symmetry_multiplicity
 _atom_site_fract_x
 _atom_site_fract_y
 _atom_site_fract_z
 _atom_site_occupancy
  Li  Li0  1  0.24814000  0.50291500  0.62456800  1
  Li  Li1  1  0.74936100  0.49757800  0.87330800  1
  Li  Li2  1  0.25063900  0.50242200  0.12669200  1
  Li  Li3  1  0.75186000  0.49708500  0.37543200  1
  Mn  Mn0  1  0.50000000  0.00000000  0.00000000  1
  Co  Co0  1  0.98909800  0.00298100  0.25708400  1
  Co  Co1  1  0.50000000  0.00000000  0.50000000  1
  Co  Co2  1  0.01090200  0.99701900  0.74291600  1
  O  O0  1  0.37409500  0.22750700  0.82619400  1
  O  O1  1  0.85477600  0.22374800  0.05241600  1
  O  O2  1  0.37476300  0.22667200  0.29442900  1
  O  O3  1  0.88394800  0.23767100  0.55793200  1
  O  O4  1  0.11605200  0.76232900  0.44206800  1
  O  O5  1  0.62523700  0.77332800  0.70557100  1
  O  O6  1  0.14522400  0.77625200  0.94758400  1
  O  O7  1  0.62590500  0.77249300  0.17380600  1
loop_
_geom_bond_atom_site_label_1
_geom_bond_atom_site_label_2
_geom_bond_distance
_geom_bond_site_symmetry_2
Li0 O3 2.063214 1_455
Li0 O6 2.125486 1_555
Li0 O5 2.128779 1_555
Li0 O4 2.137830 1_555
Li0 O2 2.203757 1_555
Li0 O0 2.272851 1_555
Li1 O7 2.077771 1_556
Li1 O0 2.119975 1_555
Li1 O3 2.123163 1_555
Li1 O5 2.132732 1_555
Li1 O1 2.133040 1_556
Li1 O6 2.220430 1_655
Li2 O0 2.077771 1_554
Li2 O7 2.119975 1_555
Li2 O4 2.123163 1_555
Li2 O2 2.132732 1_555
Li2 O6 2.133040 1_554
Li2 O1 2.220430 1_455
Li3 O4 2.063214 1_655
Li3 O1 2.125486 1_555
Li3 O2 2.128779 1_555
Li3 O3 2.137830 1_555
Li3 O5 2.203757 1_555
Li3 O7 2.272851 1_555
Mn0 O1 1.932378 1_555
Mn0 O6 1.932378 1_544
Mn0 O2 1.947300 1_555
Mn0 O5 1.947300 1_544
Mn0 O0 1.953539 1_554
Mn0 O7 1.953539 1_545
Co0 O3 1.952429 1_555
Co0 O7 1.989374 1_545
Co0 O4 2.057746 1_645
Co0 O2 2.063738 1_655
Co0 O1 2.076957 1_555
Co0 O6 2.077029 1_644
Co1 O3 2.082264 1_555
Co1 O4 2.082264 1_545
Co1 O2 2.085591 1_555
Co1 O5 2.085591 1_545
Co1 O0 2.086976 1_555
Co1 O7 2.086976 1_545
Co2 O4 1.952429 1_555
Co2 O0 1.989374 1_565
Co2 O3 2.057746 1_465
Co2 O5 2.063738 1_455
Co2 O6 2.076957 1_555
Co2 O1 2.077029 1_466
