# generated using pymatgen
data_Rb3FeMo4O15
_symmetry_space_group_name_H-M   'P 1'
_cell_length_a   14.04711900
_cell_length_b   10.01850800
_cell_length_c   11.87336972
_cell_angle_alpha   86.94122522
_cell_angle_beta   90.00000000
_cell_angle_gamma   90.00000000
_symmetry_Int_Tables_number   1
_chemical_formula_structural   Rb3FeMo4O15
_chemical_formula_sum   'Rb12 Fe4 Mo16 O60'
_cell_volume   1668.57269183
_cell_formula_units_Z   4
loop_
 _symmetry_equiv_pos_site_id
 _symmetry_equiv_pos_as_xyz
  1  'x, y, z'
loop_
 _atom_site_type_symbol
 _atom_site_label
 _atom_site_symmetry_multiplicity
 _atom_site_fract_x
 _atom_site_fract_y
 _atom_site_fract_z
 _atom_site_occupancy
  Rb  Rb0  1  0.05194300  0.18160200  0.73958400  1
  Rb  Rb1  1  0.55194300  0.31839800  0.26041600  1
  Rb  Rb2  1  0.94805700  0.81839800  0.26041600  1
  Rb  Rb3  1  0.44805700  0.68160200  0.73958400  1
  Rb  Rb4  1  0.81499300  0.10629600  0.50090000  1
  Rb  Rb5  1  0.31499300  0.39370400  0.49910000  1
  Rb  Rb6  1  0.18500700  0.89370400  0.49910000  1
  Rb  Rb7  1  0.68500700  0.60629600  0.50090000  1
  Rb  Rb8  1  0.68590300  0.61849100  0.00790500  1
  Rb  Rb9  1  0.18590300  0.88150900  0.99209500  1
  Rb  Rb10  1  0.31409700  0.38150900  0.99209500  1
  Rb  Rb11  1  0.81409700  0.11849100  0.00790500  1
  Fe  Fe0  1  0.50000000  0.00000000  0.50000000  1
  Fe  Fe1  1  0.00000000  0.50000000  0.50000000  1
  Fe  Fe2  1  0.50000000  0.00000000  0.00000000  1
  Fe  Fe3  1  0.00000000  0.50000000  0.00000000  1
  Mo  Mo0  1  0.55950300  0.27733000  0.60116100  1
  Mo  Mo1  1  0.05950300  0.22267000  0.39883900  1
  Mo  Mo2  1  0.44049700  0.72267000  0.39883900  1
  Mo  Mo3  1  0.94049700  0.77733000  0.60116100  1
  Mo  Mo4  1  0.56897600  0.30143400  0.90197100  1
  Mo  Mo5  1  0.06897600  0.19856600  0.09802900  1
  Mo  Mo6  1  0.43102400  0.69856600  0.09802900  1
  Mo  Mo7  1  0.93102400  0.80143400  0.90197100  1
  Mo  Mo8  1  0.63382000  0.94263400  0.26417800  1
  Mo  Mo9  1  0.13382000  0.55736600  0.73582200  1
  Mo  Mo10  1  0.36618000  0.05736600  0.73582200  1
  Mo  Mo11  1  0.86618000  0.44263400  0.26417800  1
  Mo  Mo12  1  0.64759100  0.99126200  0.76805900  1
  Mo  Mo13  1  0.14759100  0.50873800  0.23194100  1
  Mo  Mo14  1  0.35240900  0.00873800  0.23194100  1
  Mo  Mo15  1  0.85240900  0.49126200  0.76805900  1
  O  O0  1  0.51335200  0.43830900  0.61210600  1
  O  O1  1  0.01335200  0.06169100  0.38789400  1
  O  O2  1  0.48664800  0.56169100  0.38789400  1
  O  O3  1  0.98664800  0.93830900  0.61210600  1
  O  O4  1  0.66617600  0.30705000  0.52671900  1
  O  O5  1  0.16617600  0.19295000  0.47328100  1
  O  O6  1  0.33382400  0.69295000  0.47328100  1
  O  O7  1  0.83382400  0.80705000  0.52671900  1
  O  O8  1  0.48273000  0.20178900  0.49338800  1
  O  O9  1  0.98273000  0.29821100  0.50661200  1
  O  O10  1  0.51727000  0.79821100  0.50661200  1
  O  O11  1  0.01727000  0.70178900  0.49338800  1
  O  O12  1  0.61034100  0.24741000  0.75923100  1
  O  O13  1  0.11034100  0.25259000  0.24076900  1
  O  O14  1  0.38965900  0.75259000  0.24076900  1
  O  O15  1  0.88965900  0.74741000  0.75923100  1
  O  O16  1  0.57689800  0.05030500  0.63611800  1
  O  O17  1  0.07689800  0.44969500  0.36388200  1
  O  O18  1  0.42310200  0.94969500  0.36388200  1
  O  O19  1  0.92310200  0.55030500  0.63611800  1
  O  O20  1  0.40716800  0.22542000  0.71721800  1
  O  O21  1  0.90716800  0.27458000  0.28278200  1
  O  O22  1  0.59283200  0.77458000  0.28278200  1
  O  O23  1  0.09283200  0.72542000  0.71721800  1
  O  O24  1  0.51778100  0.45967900  0.88093700  1
  O  O25  1  0.01778100  0.04032100  0.11906300  1
  O  O26  1  0.48221900  0.54032100  0.11906300  1
  O  O27  1  0.98221900  0.95967900  0.88093700  1
  O  O28  1  0.66612300  0.32320600  0.99268300  1
  O  O29  1  0.16612300  0.17679400  0.00731700  1
  O  O30  1  0.33387700  0.67679400  0.00731700  1
  O  O31  1  0.83387700  0.82320600  0.99268300  1
  O  O32  1  0.47772000  0.19984300  0.97634100  1
  O  O33  1  0.97772000  0.30015700  0.02365900  1
  O  O34  1  0.52228000  0.80015700  0.02365900  1
  O  O35  1  0.02228000  0.69984400  0.97634100  1
  O  O36  1  0.75575400  0.94510600  0.22936100  1
  O  O37  1  0.25575400  0.55489400  0.77063900  1
  O  O38  1  0.24424600  0.05489400  0.77063900  1
  O  O39  1  0.74424600  0.44510600  0.22936100  1
  O  O40  1  0.56475200  0.03164800  0.15260100  1
  O  O41  1  0.06475200  0.46835200  0.84739900  1
  O  O42  1  0.43524800  0.96835200  0.84739900  1
  O  O43  1  0.93524800  0.53164800  0.15260100  1
  O  O44  1  0.61849000  0.02525000  0.39683700  1
  O  O45  1  0.11849000  0.47475000  0.60316300  1
  O  O46  1  0.38151000  0.97475000  0.60316300  1
  O  O47  1  0.88151000  0.52525000  0.39683700  1
  O  O48  1  0.63603500  0.81797900  0.77075100  1
  O  O49  1  0.13603500  0.68202100  0.22924900  1
  O  O50  1  0.36396500  0.18202100  0.22924900  1
  O  O51  1  0.86396500  0.31797900  0.77075100  1
  O  O52  1  0.76802400  0.02479300  0.74438700  1
  O  O53  1  0.26802400  0.47520700  0.25561300  1
  O  O54  1  0.23197600  0.97520700  0.25561300  1
  O  O55  1  0.73197600  0.52479300  0.74438700  1
  O  O56  1  0.62167000  0.03692400  0.91536600  1
  O  O57  1  0.12167000  0.46307600  0.08463400  1
  O  O58  1  0.37833000  0.96307600  0.08463400  1
  O  O59  1  0.87833000  0.53692400  0.91536600  1
loop_
_geom_bond_atom_site_label_1
_geom_bond_atom_site_label_2
_geom_bond_distance
_geom_bond_site_symmetry_2
Fe0 O16 2.029724 1_555
Fe0 O18 2.029724 1_545
Fe0 O8 2.033481 1_555
Fe0 O10 2.033481 1_545
Fe0 O44 2.074044 1_555
Fe0 O46 2.074044 1_545
Fe1 O19 2.029724 1_455
Fe1 O17 2.029724 1_555
Fe1 O11 2.033481 1_555
Fe1 O9 2.033481 1_455
Fe1 O47 2.074044 1_455
Fe1 O45 2.074044 1_555
Fe2 O56 2.006999 1_554
Fe2 O58 2.006999 1_545
Fe2 O34 2.031098 1_545
Fe2 O32 2.031098 1_554
Fe2 O42 2.066909 1_544
Fe2 O40 2.066909 1_555
Fe3 O59 2.006999 1_454
Fe3 O57 2.006999 1_555
Fe3 O33 2.031098 1_455
Fe3 O35 2.031108 1_554
Fe3 O41 2.066909 1_554
Fe3 O43 2.066909 1_455
Mo0 O0 1.749445 1_555
Mo0 O4 1.757030 1_555
Mo0 O8 1.864562 1_555
Mo0 O12 2.015504 1_555
Mo0 O16 2.303120 1_555
Mo0 O20 2.582996 1_555
Mo1 O1 1.749445 1_555
Mo1 O5 1.757030 1_555
Mo1 O9 1.864562 1_455
Mo1 O13 2.015504 1_555
Mo1 O17 2.303120 1_555
Mo1 O21 2.582996 1_455
Mo2 O2 1.749445 1_555
Mo2 O6 1.757030 1_555
Mo2 O10 1.864562 1_555
Mo2 O14 2.015504 1_555
Mo2 O18 2.303120 1_555
Mo2 O22 2.582996 1_555
Mo3 O3 1.749445 1_555
Mo3 O7 1.757030 1_555
Mo3 O11 1.864562 1_655
Mo3 O15 2.015504 1_555
Mo3 O19 2.303120 1_555
Mo3 O23 2.582996 1_655
Mo4 O24 1.746628 1_555
Mo4 O28 1.759242 1_555
Mo4 O32 1.833832 1_555
Mo4 O12 1.897585 1_555
Mo5 O25 1.746628 1_555
Mo5 O29 1.759242 1_555
Mo5 O33 1.833832 1_455
Mo5 O13 1.897585 1_555
Mo6 O26 1.746628 1_555
Mo6 O30 1.759242 1_555
Mo6 O34 1.833832 1_555
Mo6 O14 1.897585 1_555
Mo7 O27 1.746628 1_555
Mo7 O31 1.759242 1_555
Mo7 O35 1.833826 1_655
Mo7 O15 1.897585 1_555
Mo8 O36 1.761866 1_555
Mo8 O22 1.781933 1_555
Mo8 O44 1.830722 1_565
Mo8 O40 1.834553 1_565
Mo9 O37 1.761866 1_555
Mo9 O23 1.781933 1_555
Mo9 O45 1.830722 1_555
Mo9 O41 1.834553 1_555
Mo10 O38 1.761866 1_555
Mo10 O20 1.781933 1_555
Mo10 O46 1.830722 1_545
Mo10 O42 1.834553 1_545
Mo11 O39 1.761866 1_555
Mo11 O21 1.781933 1_555
Mo11 O47 1.830722 1_555
Mo11 O43 1.834553 1_555
Mo12 O48 1.742204 1_555
Mo12 O52 1.744633 1_565
Mo12 O56 1.867177 1_565
Mo12 O16 1.921277 1_565
Mo13 O49 1.742204 1_555
Mo13 O53 1.744633 1_555
Mo13 O57 1.867177 1_555
Mo13 O17 1.921277 1_555
Mo14 O50 1.742204 1_555
Mo14 O54 1.744633 1_545
Mo14 O58 1.867177 1_545
Mo14 O18 1.921277 1_545
Mo15 O51 1.742204 1_555
Mo15 O55 1.744633 1_555
Mo15 O59 1.867177 1_555
Mo15 O19 1.921277 1_555
O0 Rb3 3.076855 1_555
O0 Rb5 3.134946 1_555
O0 Rb7 3.186355 1_555
O1 Rb2 3.076855 1_445
O1 Rb4 3.134946 1_455
O1 Rb6 3.186355 1_545
O2 Rb1 3.076855 1_555
O2 Rb7 3.134946 1_555
O2 Rb5 3.186355 1_555
O3 Rb0 3.076855 1_665
O3 Rb6 3.134946 1_655
O3 Rb4 3.186355 1_565
O4 Rb4 2.928295 1_555
O4 Rb7 3.008964 1_555
O4 Rb1 3.542195 1_555
O5 Rb5 2.928295 1_555
O5 Rb6 3.008964 1_545
O5 Rb0 3.542195 1_555
O6 Rb6 2.928295 1_555
O6 Rb5 3.008964 1_555
O6 Rb3 3.542195 1_555
O7 Rb7 2.928295 1_555
O7 Rb4 3.008964 1_565
O7 Rb2 3.542195 1_555
O8 Rb5 3.044188 1_555
O8 Rb1 3.101103 1_555
O9 Rb4 3.044188 1_555
O9 Rb0 3.101103 1_655
O10 Rb7 3.044188 1_555
O10 Rb3 3.101103 1_555
O11 Rb6 3.044188 1_555
O11 Rb2 3.101103 1_455
O20 Rb5 3.280244 1_555
O21 Rb4 3.280244 1_555
O22 Rb7 3.280244 1_555
O23 Rb6 3.280244 1_555
O24 Rb3 2.884628 1_555
O24 Rb10 3.229744 1_555
O24 Rb8 3.261505 1_556
O25 Rb2 2.884628 1_445
O25 Rb11 3.229744 1_455
O25 Rb9 3.261505 1_544
O26 Rb1 2.884628 1_555
O26 Rb8 3.229744 1_555
O26 Rb10 3.261505 1_554
O27 Rb0 2.884628 1_665
O27 Rb9 3.229744 1_655
O27 Rb11 3.261505 1_566
O28 Rb11 2.918916 1_556
O28 Rb8 2.986395 1_556
O28 Rb1 3.558628 1_556
O29 Rb10 2.918916 1_554
O29 Rb9 2.986395 1_544
O29 Rb0 3.558628 1_554
O30 Rb9 2.918916 1_554
O30 Rb10 2.986395 1_554
O30 Rb3 3.558628 1_554
O31 Rb8 2.918916 1_556
O31 Rb11 2.986395 1_566
O31 Rb2 3.558628 1_556
O32 Rb10 2.943907 1_555
O33 Rb11 2.943907 1_555
O34 Rb8 2.943907 1_555
O35 Rb9 2.943901 1_555
O36 Rb2 2.999081 1_555
O36 Rb11 3.180486 1_565
O37 Rb3 2.999081 1_555
O37 Rb10 3.180486 1_555
O38 Rb0 2.999081 1_555
O38 Rb9 3.180486 1_545
O39 Rb1 2.999081 1_555
O39 Rb8 3.180486 1_555
O40 Rb1 3.211945 1_555
O41 Rb0 3.211945 1_555
O42 Rb3 3.211945 1_555
O43 Rb2 3.211945 1_555
O44 Rb4 3.148374 1_555
O44 Rb1 3.408115 1_555
O45 Rb5 3.148374 1_555
O45 Rb0 3.408115 1_555
O46 Rb6 3.148374 1_555
O46 Rb3 3.408115 1_555
O47 Rb7 3.148374 1_555
O47 Rb2 3.408115 1_555
O48 Rb3 3.005023 1_555
O48 Rb8 3.437039 1_556
O49 Rb2 3.005023 1_455
O49 Rb9 3.437039 1_554
O50 Rb1 3.005023 1_555
O50 Rb10 3.437039 1_554
O51 Rb0 3.005023 1_655
O51 Rb11 3.437039 1_556
O52 Rb4 3.034479 1_555
O52 Rb11 3.376858 1_556
O53 Rb5 3.034479 1_555
O53 Rb10 3.376858 1_554
O54 Rb6 3.034479 1_555
O54 Rb9 3.376858 1_554
O55 Rb7 3.034479 1_555
O55 Rb8 3.376858 1_556
O56 Rb11 3.045867 1_556
O57 Rb10 3.045867 1_554
O58 Rb9 3.045867 1_554
O59 Rb8 3.045867 1_556
