# generated using pymatgen
data_Te3W2Se
_symmetry_space_group_name_H-M   'P 1'
_cell_length_a   3.49734781
_cell_length_b   3.49734781
_cell_length_c   39.67434100
_cell_angle_alpha   90.00000000
_cell_angle_beta   90.00000000
_cell_angle_gamma   119.99999650
_symmetry_Int_Tables_number   1
_chemical_formula_structural   Te3W2Se
_chemical_formula_sum   'Te6 W4 Se2'
_cell_volume   420.25996475
_cell_formula_units_Z   2
loop_
 _symmetry_equiv_pos_site_id
 _symmetry_equiv_pos_as_xyz
  1  'x, y, z'
loop_
 _atom_site_type_symbol
 _atom_site_label
 _atom_site_symmetry_multiplicity
 _atom_site_fract_x
 _atom_site_fract_y
 _atom_site_fract_z
 _atom_site_occupancy
  Te  Te0  1  0.33333300  0.66666700  0.70396000  1
  Te  Te1  1  0.66666700  0.33333300  0.04750400  1
  Te  Te2  1  0.66666700  0.33333300  0.42323700  1
  Te  Te3  1  0.66666700  0.33333300  0.14035100  1
  Te  Te4  1  0.66666700  0.33333300  0.51608000  1
  Te  Te5  1  0.33333300  0.66666700  0.61110700  1
  W  W0  1  0.33333300  0.66666700  0.09391800  1
  W  W1  1  0.33333300  0.66666700  0.46964300  1
  W  W2  1  0.66666700  0.33333300  0.28179900  1
  W  W3  1  0.66666700  0.33333300  0.65755100  1
  Se  Se0  1  0.33333300  0.66666700  0.32271300  1
  Se  Se1  1  0.33333300  0.66666700  0.24088600  1
loop_
_geom_bond_atom_site_label_1
_geom_bond_atom_site_label_2
_geom_bond_distance
_geom_bond_site_symmetry_2
Te0 W3 2.732641 1_455
Te0 W3 2.732641 1_565
Te0 W3 2.732646 1_555
Te1 W0 2.732775 1_545
Te1 W0 2.732775 1_655
Te1 W0 2.732779 1_555
Te2 W1 2.732561 1_545
Te2 W1 2.732561 1_655
Te2 W1 2.732565 1_555
Te3 W0 2.733283 1_545
Te3 W0 2.733283 1_655
Te3 W0 2.733287 1_555
Te4 W1 2.733390 1_655
Te4 W1 2.733390 1_545
Te4 W1 2.733394 1_555
Te5 W3 2.733577 1_455
Te5 W3 2.733577 1_565
Te5 W3 2.733581 1_555
Se0 W2 2.590759 1_455
Se0 W2 2.590759 1_565
Se0 W2 2.590764 1_555
Se1 W2 2.590735 1_455
Se1 W2 2.590735 1_565
Se1 W2 2.590739 1_555
