# generated using pymatgen
data_Te2Pb3(BrO3)2
_symmetry_space_group_name_H-M   'P 1'
_cell_length_a   9.08830129
_cell_length_b   9.08830129
_cell_length_c   11.25645594
_cell_angle_alpha   75.76773866
_cell_angle_beta   75.76773866
_cell_angle_gamma   37.04130818
_symmetry_Int_Tables_number   1
_chemical_formula_structural   Te2Pb3(BrO3)2
_chemical_formula_sum   'Te4 Pb6 Br4 O12'
_cell_volume   540.92035922
_cell_formula_units_Z   2
loop_
 _symmetry_equiv_pos_site_id
 _symmetry_equiv_pos_as_xyz
  1  'x, y, z'
loop_
 _atom_site_type_symbol
 _atom_site_label
 _atom_site_symmetry_multiplicity
 _atom_site_fract_x
 _atom_site_fract_y
 _atom_site_fract_z
 _atom_site_occupancy
  Te  Te0  1  0.60077900  0.60077900  0.94793200  1
  Te  Te1  1  0.39922100  0.39922100  0.05206800  1
  Te  Te2  1  0.86995700  0.86995700  0.58498900  1
  Te  Te3  1  0.13004300  0.13004300  0.41501100  1
  Pb  Pb0  1  0.26012100  0.26012100  0.79089800  1
  Pb  Pb1  1  0.73987900  0.73987900  0.20910200  1
  Pb  Pb2  1  0.02554500  0.02554500  0.80241300  1
  Pb  Pb3  1  0.97445500  0.97445500  0.19758700  1
  Pb  Pb4  1  0.66464300  0.66464300  0.60965400  1
  Pb  Pb5  1  0.33535700  0.33535700  0.39034600  1
  Br  Br0  1  0.81840600  0.81840600  0.90025900  1
  Br  Br1  1  0.18159400  0.18159400  0.09974100  1
  Br  Br2  1  0.46020800  0.46020800  0.69048400  1
  Br  Br3  1  0.53979200  0.53979200  0.30951600  1
  O  O0  1  0.86318500  0.40104600  0.81651400  1
  O  O1  1  0.40104600  0.86318500  0.81651400  1
  O  O2  1  0.13681500  0.59895400  0.18348600  1
  O  O3  1  0.59895400  0.13681500  0.18348600  1
  O  O4  1  0.71345700  0.28654300  0.00000000  1
  O  O5  1  0.28654300  0.71345700  0.00000000  1
  O  O6  1  0.88880700  0.88880700  0.41238400  1
  O  O7  1  0.11119300  0.11119300  0.58761600  1
  O  O8  1  0.02843700  0.55231100  0.61188500  1
  O  O9  1  0.55231100  0.02843700  0.61188500  1
  O  O10  1  0.97156300  0.44768900  0.38811500  1
  O  O11  1  0.44768900  0.97156300  0.38811500  1
loop_
_geom_bond_atom_site_label_1
_geom_bond_atom_site_label_2
_geom_bond_distance
_geom_bond_site_symmetry_2
Br2 Pb0 3.338972 1_555
Br2 Pb4 3.402988 1_555
Br2 Pb2 3.453294 1_565
Br2 Pb2 3.453294 1_655
Br3 Pb1 3.338972 1_555
Br3 Pb5 3.402988 1_555
Br3 Pb3 3.453294 1_545
Br3 Pb3 3.453294 1_455
O0 Te0 1.961029 1_555
O0 Pb2 2.441530 1_655
O0 Pb4 2.615192 1_555
O0 Pb0 2.651711 1_655
O1 Te0 1.961029 1_555
O1 Pb2 2.441530 1_565
O1 Pb4 2.615192 1_555
O1 Pb0 2.651711 1_565
O2 Te1 1.961029 1_555
O2 Pb3 2.441530 1_455
O2 Pb5 2.615192 1_555
O2 Pb1 2.651711 1_455
O3 Te1 1.961029 1_555
O3 Pb3 2.441530 1_545
O3 Pb5 2.615192 1_555
O3 Pb1 2.651711 1_545
O4 Te0 2.086028 1_554
O4 Te1 2.086028 1_555
O4 Pb2 2.714759 1_654
O4 Pb3 2.714759 1_545
O5 Te0 2.086028 1_554
O5 Te1 2.086028 1_555
O5 Pb2 2.714759 1_564
O5 Pb3 2.714759 1_455
O6 Te2 1.884983 1_555
O6 Pb3 2.484802 1_555
O7 Te3 1.884983 1_555
O7 Pb2 2.484802 1_555
O8 Te2 1.909705 1_455
O8 Pb0 2.464687 1_555
O8 Pb4 2.571776 1_455
O9 Te2 1.909705 1_545
O9 Pb0 2.464687 1_555
O9 Pb4 2.571776 1_545
O10 Te3 1.909705 1_655
O10 Pb1 2.464687 1_555
O10 Pb5 2.571776 1_655
O11 Te3 1.909705 1_565
O11 Pb1 2.464687 1_555
O11 Pb5 2.571776 1_565
