# generated using pymatgen
data_Er3Pd4
_symmetry_space_group_name_H-M   'P 1'
_cell_length_a   5.68100705
_cell_length_b   7.75000303
_cell_length_c   7.75000196
_cell_angle_alpha   114.23270696
_cell_angle_beta   104.14310195
_cell_angle_gamma   104.14309993
_symmetry_Int_Tables_number   1
_chemical_formula_structural   Er3Pd4
_chemical_formula_sum   'Er6 Pd8'
_cell_volume   277.85877144
_cell_formula_units_Z   2
loop_
 _symmetry_equiv_pos_site_id
 _symmetry_equiv_pos_as_xyz
  1  'x, y, z'
loop_
 _atom_site_type_symbol
 _atom_site_label
 _atom_site_symmetry_multiplicity
 _atom_site_fract_x
 _atom_site_fract_y
 _atom_site_fract_z
 _atom_site_occupancy
  Er  Er0  1  0.40552003  0.12928956  0.38097447  1
  Er  Er1  1  0.02454456  0.61902553  0.74831509  1
  Er  Er2  1  0.27622947  0.25168491  0.87071044  1
  Er  Er3  1  0.59447997  0.87071044  0.61902553  1
  Er  Er4  1  0.97545544  0.38097447  0.25168491  1
  Er  Er5  1  0.72377053  0.74831509  0.12928956  1
  Pd  Pd0  1  -0.00000000  -0.00000000  -0.00000000  1
  Pd  Pd1  1  0.50000000  -0.00000000  -0.00000000  1
  Pd  Pd2  1  0.22813904  0.68043262  0.16545584  1
  Pd  Pd3  1  0.06268420  0.83454416  0.51497678  1
  Pd  Pd4  1  0.54770742  0.48502322  0.31956738  1
  Pd  Pd5  1  0.77186096  0.31956738  0.83454416  1
  Pd  Pd6  1  0.93731580  0.16545584  0.48502322  1
  Pd  Pd7  1  0.45229258  0.51497678  0.68043262  1
loop_
_geom_bond_atom_site_label_1
_geom_bond_atom_site_label_2
_geom_bond_distance
_geom_bond_site_symmetry_2
Er0 Pd7 2.829711 1_555
Er0 Pd6 2.840102 1_555
Er0 Pd0 2.854507 1_555
Er0 Pd2 2.932754 1_545
Er0 Pd1 2.935708 1_555
Er0 Pd4 2.942156 1_555
Er0 Pd6 3.005111 1_455
Er0 Pd5 3.087430 1_555
Er0 Pd3 3.294154 1_545
Er0 Er3 3.419120 1_545
Er1 Pd5 2.829707 1_455
Er1 Pd7 2.840108 1_555
Er1 Pd0 2.854506 1_566
Er1 Pd3 2.932754 1_555
Er1 Pd1 2.935710 1_566
Er1 Pd2 2.942156 1_556
Er1 Pd7 3.005105 1_455
Er1 Pd6 3.087431 1_455
Er1 Pd4 3.294150 1_455
Er1 Er4 3.419124 1_455
Er2 Pd6 2.829708 1_455
Er2 Pd5 2.840113 1_555
Er2 Pd0 2.854505 1_556
Er2 Pd4 2.932754 1_556
Er2 Pd1 2.935711 1_556
Er2 Pd3 2.942156 1_545
Er2 Pd5 3.005100 1_455
Er2 Pd7 3.087431 1_555
Er2 Pd2 3.294154 1_556
Er2 Er5 3.419124 1_556
Er3 Pd4 2.829711 1_555
Er3 Pd3 2.840102 1_555
Er3 Pd0 2.854507 1_666
Er3 Pd5 2.932754 1_565
Er3 Pd1 2.935708 1_566
Er3 Pd7 2.942156 1_555
Er3 Pd3 3.005111 1_655
Er3 Pd2 3.087430 1_555
Er3 Pd6 3.294154 1_565
Er4 Pd2 2.829707 1_655
Er4 Pd4 2.840108 1_555
Er4 Pd0 2.854506 1_655
Er4 Pd6 2.932754 1_555
Er4 Pd1 2.935710 1_555
Er4 Pd5 2.942156 1_554
Er4 Pd4 3.005105 1_655
Er4 Pd3 3.087431 1_655
Er4 Pd7 3.294150 1_655
Er5 Pd3 2.829708 1_655
Er5 Pd2 2.840113 1_555
Er5 Pd0 2.854505 1_665
Er5 Pd7 2.932754 1_554
Er5 Pd1 2.935711 1_565
Er5 Pd6 2.942156 1_565
Er5 Pd2 3.005100 1_655
Er5 Pd4 3.087431 1_555
Er5 Pd5 3.294154 1_554
Pd0 Pd1 2.840504 1_455
Pd0 Pd1 2.840504 1_555
Pd2 Pd5 2.904931 1_454
Pd2 Pd3 2.963888 1_555
Pd2 Pd4 2.963895 1_555
Pd3 Pd6 2.904937 1_465
Pd3 Pd4 2.963891 1_455
Pd4 Pd7 2.904937 1_555
Pd5 Pd6 2.963888 1_555
Pd5 Pd7 2.963895 1_555
Pd6 Pd7 2.963891 1_655
