# generated using pymatgen
data_CeGa3Cu
_symmetry_space_group_name_H-M   'P 1'
_cell_length_a   7.28696400
_cell_length_b   7.28696400
_cell_length_c   16.19738959
_cell_angle_alpha   102.99949949
_cell_angle_beta   102.99949949
_cell_angle_gamma   90.00000000
_symmetry_Int_Tables_number   1
_chemical_formula_structural   CeGa3Cu
_chemical_formula_sum   'Ce8 Ga24 Cu8'
_cell_volume   815.39908565
_cell_formula_units_Z   8
loop_
 _symmetry_equiv_pos_site_id
 _symmetry_equiv_pos_as_xyz
  1  'x, y, z'
loop_
 _atom_site_type_symbol
 _atom_site_label
 _atom_site_symmetry_multiplicity
 _atom_site_fract_x
 _atom_site_fract_y
 _atom_site_fract_z
 _atom_site_occupancy
  Ce  Ce0_0  1  0.09271800  0.09271800  0.18543650  1
  Ce  Ce0_1  1  0.09271800  0.09271800  0.68543650  1
  Ce  Ce0_2  1  0.09271800  0.59271800  0.18543650  1
  Ce  Ce0_3  1  0.09271800  0.59271800  0.68543650  1
  Ce  Ce0_4  1  0.59271800  0.09271800  0.18543650  1
  Ce  Ce0_5  1  0.59271800  0.09271800  0.68543650  1
  Ce  Ce0_6  1  0.59271800  0.59271800  0.18543650  1
  Ce  Ce0_7  1  0.59271800  0.59271800  0.68543650  1
  Ga  Ga0_0  1  0.17652300  0.42652300  0.35304650  1
  Ga  Ga0_1  1  0.17652300  0.42652300  0.85304650  1
  Ga  Ga0_2  1  0.17652300  0.92652300  0.35304650  1
  Ga  Ga0_3  1  0.17652300  0.92652300  0.85304650  1
  Ga  Ga0_4  1  0.67652300  0.42652300  0.35304650  1
  Ga  Ga0_5  1  0.67652300  0.42652300  0.85304650  1
  Ga  Ga0_6  1  0.67652300  0.92652300  0.35304650  1
  Ga  Ga0_7  1  0.67652300  0.92652300  0.85304650  1
  Ga  Ga1_0  1  0.42652300  0.17652300  0.35304650  1
  Ga  Ga1_1  1  0.42652300  0.17652300  0.85304650  1
  Ga  Ga1_2  1  0.42652300  0.67652300  0.35304650  1
  Ga  Ga1_3  1  0.42652300  0.67652300  0.85304650  1
  Ga  Ga1_4  1  0.92652300  0.17652300  0.35304650  1
  Ga  Ga1_5  1  0.92652300  0.17652300  0.85304650  1
  Ga  Ga1_6  1  0.92652300  0.67652300  0.35304650  1
  Ga  Ga1_7  1  0.92652300  0.67652300  0.85304650  1
  Ga  Ga2_0  1  0.49779250  0.49779250  0.49558500  1
  Ga  Ga2_1  1  0.49779250  0.49779250  0.99558500  1
  Ga  Ga2_2  1  0.49779250  0.99779250  0.49558500  1
  Ga  Ga2_3  1  0.49779250  0.99779250  0.99558500  1
  Ga  Ga2_4  1  0.99779250  0.49779250  0.49558500  1
  Ga  Ga2_5  1  0.99779250  0.49779250  0.99558500  1
  Ga  Ga2_6  1  0.99779250  0.99779250  0.49558500  1
  Ga  Ga2_7  1  0.99779250  0.99779250  0.99558500  1
  Cu  Cu0_0  1  0.28534300  0.28534300  0.07068600  1
  Cu  Cu0_1  1  0.28534300  0.28534300  0.57068600  1
  Cu  Cu0_2  1  0.28534300  0.78534300  0.07068600  1
  Cu  Cu0_3  1  0.28534300  0.78534300  0.57068600  1
  Cu  Cu0_4  1  0.78534300  0.28534300  0.07068600  1
  Cu  Cu0_5  1  0.78534300  0.28534300  0.57068600  1
  Cu  Cu0_6  1  0.78534300  0.78534300  0.07068600  1
  Cu  Cu0_7  1  0.78534300  0.78534300  0.57068600  1
loop_
_geom_bond_atom_site_label_1
_geom_bond_atom_site_label_2
_geom_bond_distance
_geom_bond_site_symmetry_2
Ce0_0 Ga2_7 2.915352 1_444
Ce0_0 Cu0_6 3.121294 1_445
Ce0_0 Cu0_4 3.121296 1_455
Ce0_0 Cu0_2 3.121296 1_545
Ce0_0 Cu0_0 3.121299 1_555
Ce0_0 Ga1_4 3.153292 1_455
Ce0_0 Ga0_2 3.153292 1_545
Ce0_0 Ga1_0 3.153292 1_555
Ce0_0 Ga0_0 3.153292 1_555
Ce0_0 Ce0_2 3.643482 1_545
Ce0_0 Ce0_2 3.643482 1_555
Ce0_0 Ce0_4 3.643482 1_455
Ce0_0 Ce0_4 3.643482 1_555
Ce0_1 Ga2_6 2.915352 1_445
Ce0_1 Cu0_7 3.121294 1_445
Ce0_1 Cu0_5 3.121296 1_455
Ce0_1 Cu0_3 3.121296 1_545
Ce0_1 Cu0_1 3.121299 1_555
Ce0_1 Ga1_5 3.153292 1_455
Ce0_1 Ga0_1 3.153292 1_555
Ce0_1 Ga0_3 3.153292 1_545
Ce0_1 Ga1_1 3.153292 1_555
Ce0_1 Ce0_5 3.643482 1_555
Ce0_1 Ce0_5 3.643482 1_455
Ce0_1 Ce0_3 3.643482 1_545
Ce0_1 Ce0_3 3.643482 1_555
Ce0_2 Ga2_5 2.915352 1_454
Ce0_2 Cu0_4 3.121294 1_455
Ce0_2 Cu0_6 3.121296 1_455
Ce0_2 Cu0_0 3.121296 1_555
Ce0_2 Cu0_2 3.121299 1_555
Ce0_2 Ga0_2 3.153292 1_555
Ce0_2 Ga0_0 3.153292 1_555
Ce0_2 Ga1_6 3.153292 1_455
Ce0_2 Ga1_2 3.153292 1_555
Ce0_2 Ce0_6 3.643482 1_455
Ce0_2 Ce0_6 3.643482 1_555
Ce0_3 Ga2_4 2.915352 1_455
Ce0_3 Cu0_5 3.121294 1_455
Ce0_3 Cu0_1 3.121296 1_555
Ce0_3 Cu0_7 3.121296 1_455
Ce0_3 Cu0_3 3.121299 1_555
Ce0_3 Ga0_1 3.153292 1_555
Ce0_3 Ga1_7 3.153292 1_455
Ce0_3 Ga1_3 3.153292 1_555
Ce0_3 Ga0_3 3.153292 1_555
Ce0_3 Ce0_7 3.643482 1_455
Ce0_3 Ce0_7 3.643482 1_555
Ce0_4 Ga2_3 2.915352 1_544
Ce0_4 Cu0_2 3.121294 1_545
Ce0_4 Cu0_6 3.121296 1_545
Ce0_4 Cu0_0 3.121296 1_555
Ce0_4 Cu0_4 3.121299 1_555
Ce0_4 Ga1_0 3.153292 1_555
Ce0_4 Ga1_4 3.153292 1_555
Ce0_4 Ga0_6 3.153292 1_545
Ce0_4 Ga0_4 3.153292 1_555
Ce0_4 Ce0_6 3.643482 1_555
Ce0_4 Ce0_6 3.643482 1_545
Ce0_5 Ga2_2 2.915352 1_545
Ce0_5 Cu0_3 3.121294 1_545
Ce0_5 Cu0_1 3.121296 1_555
Ce0_5 Cu0_7 3.121296 1_545
Ce0_5 Cu0_5 3.121299 1_555
Ce0_5 Ga1_1 3.153292 1_555
Ce0_5 Ga0_7 3.153292 1_545
Ce0_5 Ga0_5 3.153292 1_555
Ce0_5 Ga1_5 3.153292 1_555
Ce0_5 Ce0_7 3.643482 1_545
Ce0_5 Ce0_7 3.643482 1_555
Ce0_6 Ga2_1 2.915352 1_554
Ce0_6 Cu0_0 3.121294 1_555
Ce0_6 Cu0_2 3.121296 1_555
Ce0_6 Cu0_4 3.121296 1_555
Ce0_6 Cu0_6 3.121299 1_555
Ce0_6 Ga1_6 3.153292 1_555
Ce0_6 Ga1_2 3.153292 1_555
Ce0_6 Ga0_6 3.153292 1_555
Ce0_6 Ga0_4 3.153292 1_555
Ce0_7 Ga2_0 2.915352 1_555
Ce0_7 Cu0_1 3.121294 1_555
Ce0_7 Cu0_3 3.121296 1_555
Ce0_7 Cu0_5 3.121296 1_555
Ce0_7 Cu0_7 3.121299 1_555
Ce0_7 Ga1_3 3.153292 1_555
Ce0_7 Ga0_5 3.153292 1_555
Ce0_7 Ga0_7 3.153292 1_555
Ce0_7 Ga1_7 3.153292 1_555
Ga0_0 Ga1_6 2.576331 1_455
Ga0_0 Ga1_2 2.576331 1_555
Ga0_0 Ga1_4 2.576331 1_455
Ga0_0 Ga1_0 2.576331 1_555
Ga0_0 Ga2_4 2.847744 1_455
Ga0_0 Ga2_0 2.847747 1_555
Ga0_1 Ga1_7 2.576331 1_455
Ga0_1 Ga1_3 2.576331 1_555
Ga0_1 Ga1_5 2.576331 1_455
Ga0_1 Ga1_1 2.576331 1_555
Ga0_1 Ga2_5 2.847744 1_455
Ga0_1 Ga2_1 2.847747 1_555
Ga0_2 Ga1_4 2.576331 1_465
Ga0_2 Ga1_0 2.576331 1_565
Ga0_2 Ga1_6 2.576331 1_455
Ga0_2 Ga1_2 2.576331 1_555
Ga0_2 Ga2_6 2.847744 1_455
Ga0_2 Ga2_2 2.847747 1_555
Ga0_3 Ga1_5 2.576331 1_465
Ga0_3 Ga1_7 2.576331 1_455
Ga0_3 Ga1_1 2.576331 1_565
Ga0_3 Ga1_3 2.576331 1_555
Ga0_3 Ga2_7 2.847744 1_455
Ga0_3 Ga2_3 2.847747 1_555
Ga0_4 Ga1_2 2.576331 1_555
Ga0_4 Ga1_0 2.576331 1_555
Ga0_4 Ga1_6 2.576331 1_555
Ga0_4 Ga1_4 2.576331 1_555
Ga0_4 Ga2_0 2.847744 1_555
Ga0_4 Ga2_4 2.847747 1_555
Ga0_5 Ga1_3 2.576331 1_555
Ga0_5 Ga1_7 2.576331 1_555
Ga0_5 Ga1_1 2.576331 1_555
Ga0_5 Ga1_5 2.576331 1_555
Ga0_5 Ga2_1 2.847744 1_555
Ga0_5 Ga2_5 2.847747 1_555
Ga0_6 Ga1_0 2.576331 1_565
Ga0_6 Ga1_2 2.576331 1_555
Ga0_6 Ga1_4 2.576331 1_565
Ga0_6 Ga1_6 2.576331 1_555
Ga0_6 Ga2_2 2.847744 1_555
Ga0_6 Ga2_6 2.847747 1_555
Ga0_7 Ga1_1 2.576331 1_565
Ga0_7 Ga1_3 2.576331 1_555
Ga0_7 Ga1_5 2.576331 1_565
Ga0_7 Ga1_7 2.576331 1_555
Ga0_7 Ga2_3 2.847744 1_555
Ga0_7 Ga2_7 2.847747 1_555
Ga1_0 Ga2_2 2.847744 1_545
Ga1_0 Ga2_0 2.847747 1_555
Ga1_1 Ga2_3 2.847744 1_545
Ga1_1 Ga2_1 2.847747 1_555
Ga1_2 Ga2_0 2.847744 1_555
Ga1_2 Ga2_2 2.847747 1_555
Ga1_3 Ga2_1 2.847744 1_555
Ga1_3 Ga2_3 2.847747 1_555
Ga1_4 Ga2_6 2.847744 1_545
Ga1_4 Ga2_4 2.847747 1_555
Ga1_5 Ga2_7 2.847744 1_545
Ga1_5 Ga2_5 2.847747 1_555
Ga1_6 Ga2_4 2.847744 1_555
Ga1_6 Ga2_6 2.847747 1_555
Ga1_7 Ga2_5 2.847744 1_555
Ga1_7 Ga2_7 2.847747 1_555
Cu0_0 Ga2_1 2.822669 1_554
Cu0_0 Ga2_3 2.822669 1_544
Cu0_0 Ga2_5 2.822669 1_454
Cu0_0 Ga2_7 2.822669 1_444
Cu0_1 Ga2_0 2.822669 1_555
Cu0_1 Ga2_4 2.822669 1_455
Cu0_1 Ga2_2 2.822669 1_545
Cu0_1 Ga2_6 2.822669 1_445
Cu0_2 Ga2_3 2.822669 1_554
Cu0_2 Ga2_7 2.822669 1_454
Cu0_2 Ga2_1 2.822669 1_554
Cu0_2 Ga2_5 2.822669 1_454
Cu0_3 Ga2_2 2.822669 1_555
Cu0_3 Ga2_0 2.822669 1_555
Cu0_3 Ga2_6 2.822669 1_455
Cu0_3 Ga2_4 2.822669 1_455
Cu0_4 Ga2_5 2.822669 1_554
Cu0_4 Ga2_7 2.822669 1_544
Cu0_4 Ga2_1 2.822669 1_554
Cu0_4 Ga2_3 2.822669 1_544
Cu0_5 Ga2_4 2.822669 1_555
Cu0_5 Ga2_6 2.822669 1_545
Cu0_5 Ga2_0 2.822669 1_555
Cu0_5 Ga2_2 2.822669 1_545
Cu0_6 Ga2_7 2.822669 1_554
Cu0_6 Ga2_5 2.822669 1_554
Cu0_6 Ga2_3 2.822669 1_554
Cu0_6 Ga2_1 2.822669 1_554
Cu0_7 Ga2_6 2.822669 1_555
Cu0_7 Ga2_2 2.822669 1_555
Cu0_7 Ga2_4 2.822669 1_555
Cu0_7 Ga2_0 2.822669 1_555
