# generated using pymatgen
data_K2B(CN)3
_symmetry_space_group_name_H-M   'P 1'
_cell_length_a   8.77531281
_cell_length_b   8.29190022
_cell_length_c   7.06917849
_cell_angle_alpha   69.15177715
_cell_angle_beta   62.01194787
_cell_angle_gamma   48.83627498
_symmetry_Int_Tables_number   1
_chemical_formula_structural   K2B(CN)3
_chemical_formula_sum   'K4 B2 C6 N6'
_cell_volume   341.09739374
_cell_formula_units_Z   2
loop_
 _symmetry_equiv_pos_site_id
 _symmetry_equiv_pos_as_xyz
  1  'x, y, z'
loop_
 _atom_site_type_symbol
 _atom_site_label
 _atom_site_symmetry_multiplicity
 _atom_site_fract_x
 _atom_site_fract_y
 _atom_site_fract_z
 _atom_site_occupancy
  K  K0  1  0.36726000  0.04222100  0.46513700  1
  K  K1  1  0.12538300  0.46513700  0.04222100  1
  K  K2  1  0.20777900  0.88274000  0.12461700  1
  K  K3  1  0.78486300  0.12461700  0.88274000  1
  B  B0  1  0.53713800  0.46286200  0.46286200  1
  B  B1  1  0.78713800  0.71286200  0.71286200  1
  C  C0  1  0.37220900  0.62779100  0.62779100  1
  C  C1  1  0.62220900  0.87779100  0.87779100  1
  C  C2  1  0.46495500  0.42217200  0.33970700  1
  C  C3  1  0.77316600  0.33970700  0.42217200  1
  C  C4  1  0.82782800  0.78504500  0.47683400  1
  C  C5  1  0.91029300  0.47683400  0.78504500  1
  N  N0  1  0.24173100  0.75826900  0.75826900  1
  N  N1  1  0.49173100  0.00826900  0.00826900  1
  N  N2  1  0.40362900  0.39699100  0.24169100  1
  N  N3  1  0.95768900  0.24169100  0.39699100  1
  N  N4  1  0.85300900  0.84637100  0.29231100  1
  N  N5  1  0.00830900  0.29231100  0.84637100  1
loop_
_geom_bond_atom_site_label_1
_geom_bond_atom_site_label_2
_geom_bond_distance
_geom_bond_site_symmetry_2
K0 N1 2.938458 1_555
K0 N2 2.950585 1_555
K0 N0 2.974926 1_545
K0 N5 2.982744 1_555
K0 N3 3.019548 1_455
K0 N4 3.116293 1_545
K1 N1 2.938456 1_555
K1 N3 2.950589 1_455
K1 N0 2.974921 1_554
K1 N4 2.982742 1_455
K1 N2 3.019540 1_555
K1 N5 3.116300 1_554
K2 N0 2.938451 1_554
K2 N4 2.950584 1_455
K2 N1 2.974927 1_565
K2 N3 2.982748 1_465
K2 N5 3.019544 1_564
K2 N2 3.116293 1_555
K3 N0 2.938456 1_645
K3 N5 2.950592 1_655
K3 N1 2.974919 1_556
K3 N2 2.982746 1_556
K3 N4 3.019546 1_546
K3 N3 3.116295 1_555
B0 C0 1.506602 1_555
B0 C3 1.510310 1_555
B0 C2 1.510310 1_555
B1 C1 1.506602 1_555
B1 C4 1.510310 1_555
B1 C5 1.510310 1_555
C0 N0 1.191897 1_555
C0 K1 3.189173 1_556
C0 K0 3.189177 1_565
C1 N1 1.191897 1_566
C1 K3 3.189169 1_565
C1 K2 3.189177 1_556
C2 N2 1.189195 1_555
C2 K2 3.119515 1_555
C3 N3 1.189195 1_555
C3 K3 3.119514 1_555
C4 N4 1.189195 1_555
C4 K0 3.119512 1_565
C5 N5 1.189195 1_655
C5 K1 3.119520 1_656
