# generated using pymatgen
data_HfMg14CO16
_symmetry_space_group_name_H-M   'P 1'
_cell_length_a   8.73878181
_cell_length_b   8.91944318
_cell_length_c   4.18770106
_cell_angle_alpha   90.00000000
_cell_angle_beta   90.00000000
_cell_angle_gamma   90.00000000
_symmetry_Int_Tables_number   1
_chemical_formula_structural   HfMg14CO16
_chemical_formula_sum   'Hf1 Mg14 C1 O16'
_cell_volume   326.41064312
_cell_formula_units_Z   1
loop_
 _symmetry_equiv_pos_site_id
 _symmetry_equiv_pos_as_xyz
  1  'x, y, z'
loop_
 _atom_site_type_symbol
 _atom_site_label
 _atom_site_symmetry_multiplicity
 _atom_site_fract_x
 _atom_site_fract_y
 _atom_site_fract_z
 _atom_site_occupancy
  Hf  Hf0  1  0.00000000  0.50000000  0.00000000  1
  Mg  Mg0  1  0.50000000  0.00000000  0.00000000  1
  Mg  Mg1  1  0.50000000  0.50000000  0.00000000  1
  Mg  Mg2  1  0.00000000  0.22409833  0.50000000  1
  Mg  Mg3  1  0.00000000  0.77590167  0.50000000  1
  Mg  Mg4  1  0.50000000  0.24292550  0.50000000  1
  Mg  Mg5  1  0.50000000  0.75707450  0.50000000  1
  Mg  Mg6  1  0.24763974  -0.00000000  0.50000000  1
  Mg  Mg7  1  0.26271491  0.50000000  0.50000000  1
  Mg  Mg8  1  0.75236026  0.00000000  0.50000000  1
  Mg  Mg9  1  0.73728509  0.50000000  0.50000000  1
  Mg  Mg10  1  0.24892764  0.22995821  -0.00000000  1
  Mg  Mg11  1  0.24892764  0.77004179  0.00000000  1
  Mg  Mg12  1  0.75107236  0.22995821  -0.00000000  1
  Mg  Mg13  1  0.75107236  0.77004179  0.00000000  1
  C  C0  1  0.00000000  0.00000000  0.00000000  1
  O  O0  1  0.28115166  0.00000000  -0.00000000  1
  O  O1  1  0.24408539  0.50000000  -0.00000000  1
  O  O2  1  0.71884834  0.00000000  -0.00000000  1
  O  O3  1  0.75591461  0.50000000  0.00000000  1
  O  O4  1  0.24639901  0.25047247  0.50000000  1
  O  O5  1  0.24639901  0.74952753  0.50000000  1
  O  O6  1  0.75360099  0.25047247  0.50000000  1
  O  O7  1  0.75360099  0.74952753  0.50000000  1
  O  O8  1  0.00000000  0.00000000  0.50000000  1
  O  O9  1  0.00000000  0.50000000  0.50000000  1
  O  O10  1  0.50000000  0.00000000  0.50000000  1
  O  O11  1  0.50000000  0.50000000  0.50000000  1
  O  O12  1  0.00000000  0.27656913  0.00000000  1
  O  O13  1  0.00000000  0.72343087  0.00000000  1
  O  O14  1  0.50000000  0.26024206  0.00000000  1
  O  O15  1  0.50000000  0.73975794  -0.00000000  1
loop_
_geom_bond_atom_site_label_1
_geom_bond_atom_site_label_2
_geom_bond_distance
_geom_bond_site_symmetry_2
Hf0 O13 1.992879 1_555
Hf0 O12 1.992879 1_555
Hf0 O9 2.093851 1_555
Hf0 O9 2.093851 1_554
Hf0 O3 2.133009 1_455
Hf0 O1 2.133009 1_555
Mg0 O0 1.912468 1_555
Mg0 O2 1.912468 1_555
Mg0 O10 2.093851 1_555
Mg0 O10 2.093851 1_554
Mg0 O14 2.321214 1_555
Mg0 O15 2.321214 1_545
Mg1 O11 2.093851 1_554
Mg1 O11 2.093851 1_555
Mg1 O15 2.138507 1_555
Mg1 O14 2.138507 1_555
Mg1 O1 2.236382 1_555
Mg1 O3 2.236382 1_555
Mg2 O8 1.998832 1_555
Mg2 O12 2.145517 1_555
Mg2 O12 2.145517 1_556
Mg2 O4 2.166039 1_555
Mg2 O6 2.166039 1_455
Mg2 O9 2.460889 1_555
Mg3 O8 1.998832 1_565
Mg3 O13 2.145517 1_555
Mg3 O13 2.145517 1_556
Mg3 O5 2.166039 1_555
Mg3 O7 2.166039 1_455
Mg3 O9 2.460889 1_555
Mg4 O14 2.099539 1_555
Mg4 O14 2.099539 1_556
Mg4 O10 2.166760 1_555
Mg4 O4 2.217186 1_555
Mg4 O6 2.217186 1_555
Mg4 O11 2.292961 1_555
Mg5 O15 2.099539 1_556
Mg5 O15 2.099539 1_555
Mg5 O10 2.166760 1_565
Mg5 O5 2.217186 1_555
Mg5 O7 2.217186 1_555
Mg5 O11 2.292961 1_555
Mg6 O0 2.114231 1_555
Mg6 O0 2.114231 1_556
Mg6 O8 2.164070 1_555
Mg6 O10 2.205321 1_555
Mg6 O5 2.234101 1_545
Mg6 O4 2.234101 1_555
Mg7 O11 2.073583 1_555
Mg7 O1 2.100170 1_556
Mg7 O1 2.100170 1_555
Mg7 O4 2.230209 1_555
Mg7 O5 2.230209 1_555
Mg7 O9 2.295808 1_555
Mg8 O2 2.114231 1_556
Mg8 O2 2.114231 1_555
Mg8 O8 2.164070 1_655
Mg8 O10 2.205321 1_555
Mg8 O7 2.234101 1_545
Mg8 O6 2.234101 1_555
Mg9 O11 2.073583 1_555
Mg9 O3 2.100170 1_556
Mg9 O3 2.100170 1_555
Mg9 O6 2.230209 1_555
Mg9 O7 2.230209 1_555
Mg9 O9 2.295808 1_655
Mg10 O0 2.070340 1_555
Mg10 O4 2.101946 1_554
Mg10 O4 2.101946 1_555
Mg10 O14 2.210631 1_555
Mg10 O12 2.214696 1_555
Mg10 O1 2.408994 1_555
Mg11 O0 2.070340 1_565
Mg11 O5 2.101946 1_555
Mg11 O5 2.101946 1_554
Mg11 O15 2.210631 1_555
Mg11 O13 2.214696 1_555
Mg11 O1 2.408994 1_555
Mg12 O2 2.070340 1_555
Mg12 O6 2.101946 1_555
Mg12 O6 2.101946 1_554
Mg12 O14 2.210631 1_555
Mg12 O12 2.214696 1_655
Mg12 O3 2.408994 1_555
Mg13 O2 2.070340 1_565
Mg13 O7 2.101946 1_555
Mg13 O7 2.101946 1_554
Mg13 O15 2.210631 1_555
Mg13 O13 2.214696 1_655
Mg13 O3 2.408994 1_555
C0 O8 2.093851 1_555
C0 O8 2.093851 1_554
