# generated using pymatgen
data_YbAl2Ni
_symmetry_space_group_name_H-M   'P 1'
_cell_length_a   5.31733679
_cell_length_b   5.31733679
_cell_length_c   7.13615700
_cell_angle_alpha   90.00000000
_cell_angle_beta   90.00000000
_cell_angle_gamma   134.62481655
_symmetry_Int_Tables_number   1
_chemical_formula_structural   YbAl2Ni
_chemical_formula_sum   'Yb2 Al4 Ni2'
_cell_volume   143.60284230
_cell_formula_units_Z   2
loop_
 _symmetry_equiv_pos_site_id
 _symmetry_equiv_pos_as_xyz
  1  'x, y, z'
loop_
 _atom_site_type_symbol
 _atom_site_label
 _atom_site_symmetry_multiplicity
 _atom_site_fract_x
 _atom_site_fract_y
 _atom_site_fract_z
 _atom_site_occupancy
  Yb  Yb0  1  0.44648600  0.55351400  0.25000000  1
  Yb  Yb1  1  0.55351400  0.44648600  0.75000000  1
  Al  Al0  1  0.83685600  0.16314400  0.94300400  1
  Al  Al1  1  0.16314400  0.83685600  0.05699600  1
  Al  Al2  1  0.16314400  0.83685600  0.44300400  1
  Al  Al3  1  0.83685600  0.16314400  0.55699600  1
  Ni  Ni0  1  0.71995300  0.28004700  0.25000000  1
  Ni  Ni1  1  0.28004700  0.71995300  0.75000000  1
loop_
_geom_bond_atom_site_label_1
_geom_bond_atom_site_label_2
_geom_bond_distance
_geom_bond_site_symmetry_2
Al0 Ni0 2.472883 1_556
Al0 Ni1 2.532584 1_655
Al0 Ni1 2.532584 1_545
Al1 Ni1 2.472883 1_554
Al1 Ni0 2.532584 1_565
Al1 Ni0 2.532584 1_455
Al2 Ni1 2.472883 1_555
Al2 Ni0 2.532584 1_565
Al2 Ni0 2.532584 1_455
Al3 Ni0 2.472883 1_555
Al3 Ni1 2.532584 1_655
Al3 Ni1 2.532584 1_545
Ni0 Yb0 2.683198 1_555
Ni0 Yb0 3.024347 1_655
Ni0 Yb0 3.024347 1_545
Ni1 Yb1 2.683198 1_555
Ni1 Yb1 3.024347 1_565
Ni1 Yb1 3.024347 1_455
