# generated using pymatgen
data_HfAsRu
_symmetry_space_group_name_H-M   'P 1'
_cell_length_a   3.88829580
_cell_length_b   6.54919067
_cell_length_c   6.54921615
_cell_angle_alpha   119.99987079
_cell_angle_beta   90.00000000
_cell_angle_gamma   90.00000000
_symmetry_Int_Tables_number   1
_chemical_formula_structural   HfAsRu
_chemical_formula_sum   'Hf3 As3 Ru3'
_cell_volume   144.43333917
_cell_formula_units_Z   3
loop_
 _symmetry_equiv_pos_site_id
 _symmetry_equiv_pos_as_xyz
  1  'x, y, z'
loop_
 _atom_site_type_symbol
 _atom_site_label
 _atom_site_symmetry_multiplicity
 _atom_site_fract_x
 _atom_site_fract_y
 _atom_site_fract_z
 _atom_site_occupancy
  Hf  Hf0  1  0.50000000  0.58088599  0.00000000  1
  Hf  Hf1  1  0.50000000  0.41908368  0.41909465  1
  Hf  Hf2  1  0.50000000  0.99998902  0.58090535  1
  As  As0  1  -0.00000000  0.33332252  0.66668795  1
  As  As1  1  -0.00000000  0.66663456  0.33331205  1
  As  As2  1  0.50000000  0.00001097  0.00000000  1
  Ru  Ru0  1  -0.00000000  0.24581433  0.00000000  1
  Ru  Ru1  1  0.00000000  0.75416620  0.75417246  1
  Ru  Ru2  1  0.00000000  0.99999274  0.24582754  1
loop_
_geom_bond_atom_site_label_1
_geom_bond_atom_site_label_2
_geom_bond_distance
_geom_bond_site_symmetry_2
Hf0 Ru0 2.931777 1_655
Hf0 Ru0 2.931777 1_555
Hf0 Ru2 3.080041 1_655
Hf0 Ru2 3.080041 1_555
Hf0 Ru1 3.080046 1_654
Hf0 Ru1 3.080046 1_554
Hf1 Ru1 2.931825 1_555
Hf1 Ru1 2.931825 1_655
Hf1 Ru2 3.079973 1_645
Hf1 Ru2 3.079973 1_545
Hf1 Ru0 3.079997 1_555
Hf1 Ru0 3.079997 1_655
Hf2 Ru2 2.931822 1_555
Hf2 Ru2 2.931822 1_655
Hf2 Ru1 3.079968 1_555
Hf2 Ru1 3.079968 1_655
Hf2 Ru0 3.079997 1_566
Hf2 Ru0 3.079997 1_666
As0 Ru0 2.518868 1_556
As0 Ru1 2.519062 1_555
As0 Ru2 2.519084 1_545
As0 Hf0 2.763040 1_556
As0 Hf0 2.763040 1_456
As0 Hf2 2.763087 1_445
As0 Hf2 2.763087 1_545
As0 Hf1 2.763212 1_455
As0 Hf1 2.763212 1_555
As1 Ru0 2.518868 1_555
As1 Ru2 2.519055 1_555
As1 Ru1 2.519082 1_555
As1 Hf0 2.763040 1_455
As1 Hf0 2.763040 1_555
As1 Hf1 2.763087 1_555
As1 Hf1 2.763087 1_455
As1 Hf2 2.763212 1_555
As1 Hf2 2.763212 1_455
As2 Ru0 2.524125 1_555
As2 Ru0 2.524125 1_655
As2 Ru1 2.524266 1_644
As2 Ru1 2.524266 1_544
As2 Ru2 2.524269 1_545
As2 Ru2 2.524269 1_645
As2 Hf2 2.744670 1_544
As2 Hf1 2.744670 1_555
As2 Hf0 2.744929 1_545
Ru0 Ru1 2.788517 1_544
Ru0 Ru2 2.788522 1_545
Ru1 Ru2 2.788567 1_556
