# generated using pymatgen
data_Zr6Al2FeH10
_symmetry_space_group_name_H-M   'P 1'
_cell_length_a   8.12779976
_cell_length_b   8.12779976
_cell_length_c   7.16744100
_cell_angle_alpha   90.00000000
_cell_angle_beta   90.00000000
_cell_angle_gamma   119.99999805
_symmetry_Int_Tables_number   1
_chemical_formula_structural   Zr6Al2FeH10
_chemical_formula_sum   'Zr12 Al4 Fe2 H20'
_cell_volume   410.05372186
_cell_formula_units_Z   2
loop_
 _symmetry_equiv_pos_site_id
 _symmetry_equiv_pos_as_xyz
  1  'x, y, z'
loop_
 _atom_site_type_symbol
 _atom_site_label
 _atom_site_symmetry_multiplicity
 _atom_site_fract_x
 _atom_site_fract_y
 _atom_site_fract_z
 _atom_site_occupancy
  Zr  Zr0  1  0.74086600  0.00000000  0.00000000  1
  Zr  Zr1  1  0.00000000  0.74086600  0.00000000  1
  Zr  Zr2  1  0.74086600  0.00000000  0.50000000  1
  Zr  Zr3  1  0.25913400  0.25913400  0.00000000  1
  Zr  Zr4  1  0.00000000  0.74086600  0.50000000  1
  Zr  Zr5  1  0.25913400  0.25913400  0.50000000  1
  Zr  Zr6  1  0.42632400  0.04883900  0.25000000  1
  Zr  Zr7  1  0.95116100  0.37748500  0.25000000  1
  Zr  Zr8  1  0.04883900  0.42632400  0.75000000  1
  Zr  Zr9  1  0.62251500  0.57367600  0.25000000  1
  Zr  Zr10  1  0.37748500  0.95116100  0.75000000  1
  Zr  Zr11  1  0.57367600  0.62251500  0.75000000  1
  Al  Al0  1  0.33333300  0.66666700  0.05268100  1
  Al  Al1  1  0.33333300  0.66666700  0.44731900  1
  Al  Al2  1  0.66666700  0.33333300  0.94731900  1
  Al  Al3  1  0.66666700  0.33333300  0.55268100  1
  Fe  Fe0  1  0.00000000  0.00000000  0.25000000  1
  Fe  Fe1  1  0.00000000  0.00000000  0.75000000  1
  H  H0  1  0.28270100  0.00000000  0.00000000  1
  H  H1  1  0.00000000  0.28270100  0.00000000  1
  H  H2  1  0.28270100  0.00000000  0.50000000  1
  H  H3  1  0.71729900  0.71729900  0.00000000  1
  H  H4  1  0.00000000  0.28270100  0.50000000  1
  H  H5  1  0.71729900  0.71729900  0.50000000  1
  H  H6  1  0.40865700  0.29147800  0.25000000  1
  H  H7  1  0.70852200  0.11717900  0.25000000  1
  H  H8  1  0.29147800  0.40865700  0.75000000  1
  H  H9  1  0.88282100  0.59134300  0.25000000  1
  H  H10  1  0.11717900  0.70852200  0.75000000  1
  H  H11  1  0.59134300  0.88282100  0.75000000  1
  H  H12  1  0.11628200  0.23598700  0.25000000  1
  H  H13  1  0.76401300  0.88029500  0.25000000  1
  H  H14  1  0.23598700  0.11628200  0.75000000  1
  H  H15  1  0.11970500  0.88371800  0.25000000  1
  H  H16  1  0.88029500  0.76401300  0.75000000  1
  H  H17  1  0.88371800  0.11970500  0.75000000  1
  H  H18  1  0.00000000  0.00000000  0.00000000  1
  H  H19  1  0.00000000  0.00000000  0.50000000  1
loop_
_geom_bond_atom_site_label_1
_geom_bond_atom_site_label_2
_geom_bond_distance
_geom_bond_site_symmetry_2
Al0 Al1 2.828545 1_555
Al0 Zr10 3.058148 1_554
Al0 Zr8 3.058151 1_554
Al0 Zr11 3.058154 1_554
Al0 Zr1 3.079005 1_555
Al0 Zr0 3.079010 1_565
Al0 Zr3 3.079013 1_555
Al0 Zr6 3.142020 1_565
Al0 Zr7 3.142022 1_455
Al0 Zr9 3.142027 1_555
Al1 Zr10 3.058148 1_555
Al1 Zr8 3.058151 1_555
Al1 Zr11 3.058154 1_555
Al1 Zr4 3.079005 1_555
Al1 Zr2 3.079010 1_565
Al1 Zr5 3.079013 1_555
Al1 Zr6 3.142020 1_565
Al1 Zr7 3.142022 1_455
Al1 Zr9 3.142027 1_555
Al2 Al3 2.828545 1_555
Al2 Zr7 3.058148 1_556
Al2 Zr6 3.058151 1_556
Al2 Zr9 3.058154 1_556
Al2 Zr0 3.079005 1_556
Al2 Zr1 3.079010 1_656
Al2 Zr3 3.079013 1_556
Al2 Zr8 3.142020 1_655
Al2 Zr10 3.142022 1_545
Al2 Zr11 3.142027 1_555
Al3 Zr7 3.058148 1_555
Al3 Zr6 3.058151 1_555
Al3 Zr9 3.058154 1_555
Al3 Zr2 3.079005 1_555
Al3 Zr4 3.079010 1_655
Al3 Zr5 3.079013 1_555
Al3 Zr8 3.142020 1_655
Al3 Zr10 3.142022 1_545
Al3 Zr11 3.142027 1_555
Fe0 H15 1.661143 1_545
Fe0 H12 1.661143 1_555
Fe0 H13 1.661143 1_445
Fe0 H18 1.791860 1_555
Fe0 H19 1.791860 1_555
Fe1 H17 1.661143 1_455
Fe1 H14 1.661143 1_555
Fe1 H16 1.661143 1_445
Fe1 H18 1.791860 1_556
Fe1 H19 1.791860 1_555
H0 Zr10 2.065826 1_544
H0 Zr6 2.065826 1_555
H0 Zr3 2.208203 1_555
H0 Zr1 2.208203 1_545
H1 Zr7 2.065826 1_455
H1 Zr8 2.065826 1_554
H1 Zr3 2.208203 1_555
H1 Zr0 2.208203 1_455
H2 Zr10 2.065826 1_545
H2 Zr6 2.065826 1_555
H2 Zr5 2.208203 1_555
H2 Zr4 2.208203 1_545
H3 Zr9 2.065826 1_555
H3 Zr11 2.065826 1_554
H3 Zr0 2.208203 1_565
H3 Zr1 2.208203 1_655
H4 Zr7 2.065826 1_455
H4 Zr8 2.065826 1_555
H4 Zr5 2.208203 1_555
H4 Zr2 2.208203 1_455
H5 Zr9 2.065826 1_555
H5 Zr11 2.065826 1_555
H5 Zr4 2.208203 1_655
H5 Zr2 2.208203 1_565
H6 Zr6 2.047698 1_555
H6 Zr9 2.072520 1_555
H6 Zr5 2.106496 1_555
H6 Zr3 2.106496 1_555
H7 Zr7 2.047698 1_555
H7 Zr6 2.072520 1_555
H7 Zr0 2.106496 1_555
H7 Zr2 2.106496 1_555
H8 Zr8 2.047698 1_555
H8 Zr11 2.072520 1_555
H8 Zr3 2.106496 1_556
H8 Zr5 2.106496 1_555
H9 Zr9 2.047698 1_555
H9 Zr7 2.072520 1_555
H9 Zr4 2.106496 1_655
H9 Zr1 2.106496 1_655
H10 Zr10 2.047698 1_555
H10 Zr8 2.072520 1_555
H10 Zr1 2.106496 1_556
H10 Zr4 2.106496 1_555
H11 Zr11 2.047698 1_555
H11 Zr10 2.072520 1_555
H11 Zr2 2.106496 1_565
H11 Zr0 2.106496 1_566
H12 Zr3 2.091844 1_555
H12 Zr5 2.091844 1_555
H12 Zr7 2.160389 1_455
H13 Zr2 2.091844 1_565
H13 Zr0 2.091844 1_565
H13 Zr9 2.160389 1_555
H14 Zr3 2.091844 1_556
H14 Zr5 2.091844 1_555
H14 Zr10 2.160389 1_545
H15 Zr1 2.091844 1_555
H15 Zr4 2.091844 1_555
H15 Zr6 2.160389 1_565
H16 Zr1 2.091844 1_656
H16 Zr4 2.091844 1_655
H16 Zr11 2.160389 1_555
H17 Zr2 2.091844 1_555
H17 Zr0 2.091844 1_556
H17 Zr8 2.160389 1_655
H18 Zr1 2.106189 1_545
H18 Zr0 2.106189 1_455
H18 Zr3 2.106189 1_555
H19 Zr2 2.106189 1_455
H19 Zr4 2.106189 1_545
H19 Zr5 2.106189 1_555
