# generated using pymatgen
data_U2(Mo3Se4)5
_symmetry_space_group_name_H-M   'P 1'
_cell_length_a   9.68917200
_cell_length_b   11.65903590
_cell_length_c   15.04881355
_cell_angle_alpha   105.15814378
_cell_angle_beta   107.14936902
_cell_angle_gamma   90.96099341
_symmetry_Int_Tables_number   1
_chemical_formula_structural   U2(Mo3Se4)5
_chemical_formula_sum   'U4 Mo30 Se40'
_cell_volume   1559.76652908
_cell_formula_units_Z   2
loop_
 _symmetry_equiv_pos_site_id
 _symmetry_equiv_pos_as_xyz
  1  'x, y, z'
loop_
 _atom_site_type_symbol
 _atom_site_label
 _atom_site_symmetry_multiplicity
 _atom_site_fract_x
 _atom_site_fract_y
 _atom_site_fract_z
 _atom_site_occupancy
  U  U0  1  0.89953400  0.60043200  0.80161500  1
  U  U1  1  0.30029000  0.19925700  0.59968200  1
  U  U2  1  0.69971000  0.80074300  0.40031800  1
  U  U3  1  0.10046600  0.39956800  0.19838500  1
  Mo  Mo0  1  0.54887700  0.39104700  0.07954700  1
  Mo  Mo1  1  0.94867800  0.99276300  0.87902900  1
  Mo  Mo2  1  0.34677300  0.59210700  0.67981200  1
  Mo  Mo3  1  0.74789900  0.19192900  0.47950400  1
  Mo  Mo4  1  0.14781200  0.79202900  0.27978600  1
  Mo  Mo5  1  0.63956000  0.43478600  0.93702200  1
  Mo  Mo6  1  0.04152600  0.03523300  0.73920000  1
  Mo  Mo7  1  0.44057600  0.63528200  0.53782200  1
  Mo  Mo8  1  0.83976600  0.23663400  0.33760800  1
  Mo  Mo9  1  0.24212700  0.83574300  0.13821400  1
  Mo  Mo10  1  0.65089400  0.61599800  0.09624200  1
  Mo  Mo11  1  0.05358000  0.21437300  0.89594500  1
  Mo  Mo12  1  0.45318200  0.81583800  0.69718900  1
  Mo  Mo13  1  0.85188300  0.41596800  0.49592100  1
  Mo  Mo14  1  0.25192200  0.01677700  0.29571800  1
  Mo  Mo15  1  0.45112300  0.60895300  0.92045300  1
  Mo  Mo16  1  0.85218800  0.20797100  0.72021400  1
  Mo  Mo17  1  0.25210100  0.80807100  0.52049600  1
  Mo  Mo18  1  0.65322700  0.40789300  0.32018800  1
  Mo  Mo19  1  0.05132200  0.00723700  0.12097100  1
  Mo  Mo20  1  0.36044000  0.56521400  0.06297800  1
  Mo  Mo21  1  0.75787300  0.16425700  0.86178600  1
  Mo  Mo22  1  0.16023400  0.76336600  0.66239200  1
  Mo  Mo23  1  0.55942400  0.36471800  0.46217800  1
  Mo  Mo24  1  0.95847400  0.96476700  0.26080000  1
  Mo  Mo25  1  0.34910600  0.38400200  0.90375800  1
  Mo  Mo26  1  0.74807800  0.98322300  0.70428200  1
  Mo  Mo27  1  0.14811700  0.58403200  0.50407900  1
  Mo  Mo28  1  0.54681800  0.18416200  0.30281100  1
  Mo  Mo29  1  0.94642000  0.78562700  0.10405500  1
  Se  Se0  1  0.01420500  0.24730100  0.50494800  1
  Se  Se1  1  0.41448600  0.84811800  0.30555200  1
  Se  Se2  1  0.81447200  0.44722300  0.10419500  1
  Se  Se3  1  0.21714100  0.04782900  0.90576600  1
  Se  Se4  1  0.61396800  0.64706400  0.70496500  1
  Se  Se5  1  0.38603200  0.35293600  0.29503500  1
  Se  Se6  1  0.78285900  0.95217100  0.09423400  1
  Se  Se7  1  0.18552800  0.55277700  0.89580500  1
  Se  Se8  1  0.58551400  0.15188200  0.69444800  1
  Se  Se9  1  0.98579500  0.75269900  0.49505200  1
  Se  Se10  1  0.71986200  0.01917700  0.32293200  1
  Se  Se11  1  0.11997100  0.61868100  0.12444000  1
  Se  Se12  1  0.52461400  0.22289400  0.92538400  1
  Se  Se13  1  0.92133800  0.81860100  0.72413900  1
  Se  Se14  1  0.32084500  0.41842300  0.52374500  1
  Se  Se15  1  0.92724100  0.45183700  0.34585500  1
  Se  Se16  1  0.32660200  0.04982100  0.14939600  1
  Se  Se17  1  0.72577300  0.65339500  0.94621700  1
  Se  Se18  1  0.12694600  0.25155500  0.74601400  1
  Se  Se19  1  0.52624800  0.85087900  0.54520700  1
  Se  Se20  1  0.74943900  0.38045800  0.62900600  1
  Se  Se21  1  0.14896000  0.98023700  0.42916000  1
  Se  Se22  1  0.54953900  0.58096400  0.22946800  1
  Se  Se23  1  0.94681700  0.17978600  0.02851200  1
  Se  Se24  1  0.35104700  0.77671500  0.82640900  1
  Se  Se25  1  0.67915500  0.58157700  0.47625500  1
  Se  Se26  1  0.07866200  0.18139900  0.27586100  1
  Se  Se27  1  0.47538600  0.77710600  0.07461600  1
  Se  Se28  1  0.88002900  0.38131900  0.87556000  1
  Se  Se29  1  0.28013800  0.98082300  0.67706800  1
  Se  Se30  1  0.47375200  0.14912100  0.45479300  1
  Se  Se31  1  0.87305400  0.74844500  0.25398600  1
  Se  Se32  1  0.27422700  0.34660500  0.05378300  1
  Se  Se33  1  0.67339800  0.95017900  0.85060400  1
  Se  Se34  1  0.07275900  0.54816300  0.65414500  1
  Se  Se35  1  0.64895300  0.22328500  0.17359100  1
  Se  Se36  1  0.05318300  0.82021400  0.97148800  1
  Se  Se37  1  0.45046100  0.41903600  0.77053200  1
  Se  Se38  1  0.85104000  0.01976300  0.57084000  1
  Se  Se39  1  0.25056100  0.61954200  0.37099400  1
loop_
_geom_bond_atom_site_label_1
_geom_bond_atom_site_label_2
_geom_bond_distance
_geom_bond_site_symmetry_2
Mo0 Se2 2.538192 1_555
Mo0 Se12 2.562300 1_554
Mo0 Se32 2.596276 1_555
Mo0 Se22 2.715052 1_555
Mo0 Se35 2.733288 1_555
Mo1 Se3 2.555760 1_665
Mo1 Se33 2.591388 1_555
Mo1 Se13 2.601746 1_555
Mo1 Se23 2.697292 1_566
Mo1 Se36 2.776649 1_655
Mo2 Se4 2.548694 1_555
Mo2 Se34 2.589722 1_555
Mo2 Se14 2.612948 1_555
Mo2 Se24 2.638402 1_555
Mo2 Se37 2.764901 1_555
Mo3 Se0 2.540366 1_655
Mo3 Se30 2.592110 1_555
Mo3 Se10 2.608559 1_555
Mo3 Se20 2.699320 1_555
Mo3 Se38 2.759941 1_555
Mo4 Se1 2.544435 1_555
Mo4 Se31 2.595774 1_455
Mo4 Se11 2.600301 1_555
Mo4 Se21 2.696863 1_555
Mo4 Se39 2.761193 1_555
Mo5 Se2 2.551248 1_556
Mo5 Se37 2.590186 1_555
Mo5 Se17 2.624716 1_555
Mo5 Se12 2.634508 1_555
Mo5 Se28 2.773231 1_555
Mo6 Se3 2.546340 1_555
Mo6 Se18 2.607914 1_555
Mo6 Se38 2.617320 1_455
Mo6 Se13 2.689434 1_445
Mo6 Se29 2.763262 1_545
Mo7 Se4 2.547080 1_555
Mo7 Se39 2.597713 1_555
Mo7 Se19 2.597954 1_555
Mo7 Se14 2.694422 1_555
Mo7 Se25 2.757234 1_555
Mo8 Se0 2.555958 1_655
Mo8 Se35 2.575456 1_555
Mo8 Se15 2.594788 1_555
Mo8 Se10 2.698793 1_555
Mo8 Se26 2.764327 1_655
Mo9 Se1 2.544229 1_555
Mo9 Se16 2.560972 1_565
Mo9 Se36 2.592686 1_554
Mo9 Se11 2.707207 1_555
Mo9 Se27 2.734343 1_555
Mo10 Se2 2.552315 1_555
Mo10 Se27 2.574184 1_555
Mo10 Se22 2.593604 1_555
Mo10 Se17 2.698860 1_554
Mo10 Se31 2.758852 1_555
Mo11 Se3 2.533551 1_555
Mo11 Se28 2.613083 1_455
Mo11 Se23 2.614643 1_456
Mo11 Se18 2.689071 1_555
Mo11 Se32 2.751181 1_556
Mo12 Se4 2.535437 1_555
Mo12 Se24 2.559780 1_555
Mo12 Se29 2.591592 1_555
Mo12 Se19 2.707949 1_555
Mo12 Se33 2.725408 1_555
Mo13 Se0 2.544916 1_655
Mo13 Se25 2.594568 1_555
Mo13 Se20 2.599989 1_555
Mo13 Se15 2.695196 1_555
Mo13 Se34 2.755017 1_655
Mo14 Se1 2.547199 1_545
Mo14 Se26 2.589114 1_555
Mo14 Se21 2.612271 1_545
Mo14 Se16 2.625760 1_555
Mo14 Se30 2.766580 1_555
Mo15 Se7 2.538192 1_555
Mo15 Se27 2.562300 1_556
Mo15 Se17 2.596276 1_555
Mo15 Se37 2.715052 1_555
Mo15 Se24 2.733288 1_555
Mo16 Se8 2.544435 1_555
Mo16 Se18 2.595774 1_655
Mo16 Se28 2.600301 1_555
Mo16 Se38 2.696863 1_555
Mo16 Se20 2.761193 1_555
Mo17 Se9 2.540366 1_455
Mo17 Se19 2.592110 1_555
Mo17 Se29 2.608559 1_555
Mo17 Se39 2.699320 1_555
Mo17 Se21 2.759941 1_555
Mo18 Se5 2.548694 1_555
Mo18 Se15 2.589722 1_555
Mo18 Se25 2.612948 1_555
Mo18 Se35 2.638402 1_555
Mo18 Se22 2.764901 1_555
Mo19 Se6 2.555760 1_445
Mo19 Se16 2.591388 1_555
Mo19 Se26 2.601746 1_555
Mo19 Se36 2.697292 1_544
Mo19 Se23 2.776649 1_455
Mo20 Se7 2.551248 1_554
Mo20 Se22 2.590186 1_555
Mo20 Se32 2.624716 1_555
Mo20 Se27 2.634508 1_555
Mo20 Se11 2.773231 1_555
Mo21 Se8 2.544229 1_555
Mo21 Se33 2.560972 1_545
Mo21 Se23 2.592686 1_556
Mo21 Se28 2.707207 1_555
Mo21 Se12 2.734343 1_555
Mo22 Se9 2.555958 1_455
Mo22 Se24 2.575456 1_555
Mo22 Se34 2.594788 1_555
Mo22 Se29 2.698793 1_555
Mo22 Se13 2.764327 1_455
Mo23 Se5 2.547080 1_555
Mo23 Se20 2.597713 1_555
Mo23 Se30 2.597954 1_555
Mo23 Se25 2.694422 1_555
Mo23 Se14 2.757234 1_555
Mo24 Se6 2.546340 1_555
Mo24 Se31 2.607914 1_555
Mo24 Se21 2.617320 1_655
Mo24 Se26 2.689434 1_665
Mo24 Se10 2.763262 1_565
Mo25 Se7 2.552315 1_555
Mo25 Se12 2.574184 1_555
Mo25 Se37 2.593604 1_555
Mo25 Se32 2.698860 1_556
Mo25 Se18 2.758852 1_555
Mo26 Se8 2.547199 1_565
Mo26 Se13 2.589114 1_555
Mo26 Se38 2.612271 1_565
Mo26 Se33 2.625760 1_555
Mo26 Se19 2.766580 1_555
Mo27 Se9 2.544916 1_455
Mo27 Se14 2.594568 1_555
Mo27 Se39 2.599989 1_555
Mo27 Se34 2.695196 1_555
Mo27 Se15 2.755017 1_455
Mo28 Se5 2.535437 1_555
Mo28 Se35 2.559780 1_555
Mo28 Se10 2.591592 1_555
Mo28 Se30 2.707949 1_555
Mo28 Se16 2.725408 1_555
Mo29 Se6 2.533551 1_555
Mo29 Se11 2.613083 1_655
Mo29 Se36 2.614643 1_654
Mo29 Se31 2.689071 1_555
Mo29 Se17 2.751181 1_554
Se0 U1 2.858150 1_555
Se1 U2 2.848721 1_555
Se2 U3 2.853721 1_655
Se4 U0 2.856138 1_555
Se5 U3 2.856138 1_555
Se7 U0 2.853721 1_455
Se8 U1 2.848721 1_555
Se9 U2 2.858150 1_555
Se10 U2 3.090086 1_545
Se11 U3 3.065082 1_555
Se13 U0 3.090680 1_555
Se14 U1 3.085319 1_555
Se15 U3 3.104375 1_655
Se17 U0 3.073090 1_555
Se18 U1 3.091175 1_555
Se19 U2 3.073787 1_555
Se20 U0 3.098879 1_555
Se21 U1 3.079658 1_565
Se22 U2 3.084950 1_555
Se23 U3 3.085365 1_655
Se25 U2 3.085319 1_555
Se26 U3 3.090680 1_555
Se28 U0 3.065082 1_555
Se29 U1 3.090086 1_565
Se30 U1 3.073787 1_555
Se31 U2 3.091175 1_555
Se32 U3 3.073090 1_555
Se34 U0 3.104375 1_455
Se36 U0 3.085365 1_455
Se37 U1 3.084950 1_555
Se38 U2 3.079658 1_545
Se39 U3 3.098879 1_555
