# generated using pymatgen
data_K3RhCl6O
_symmetry_space_group_name_H-M   'P 1'
_cell_length_a   12.42619000
_cell_length_b   12.60133900
_cell_length_c   15.56522900
_cell_angle_alpha   90.00000000
_cell_angle_beta   90.00000000
_cell_angle_gamma   90.00000000
_symmetry_Int_Tables_number   1
_chemical_formula_structural   K3RhCl6O
_chemical_formula_sum   'K24 Rh8 Cl48 O8'
_cell_volume   2437.30679582
_cell_formula_units_Z   8
loop_
 _symmetry_equiv_pos_site_id
 _symmetry_equiv_pos_as_xyz
  1  'x, y, z'
loop_
 _atom_site_type_symbol
 _atom_site_label
 _atom_site_symmetry_multiplicity
 _atom_site_fract_x
 _atom_site_fract_y
 _atom_site_fract_z
 _atom_site_occupancy
  K  K0  1  0.88393600  0.10894900  0.92542300  1
  K  K1  1  0.38393600  0.39105100  0.57457700  1
  K  K2  1  0.11606400  0.60894900  0.57457700  1
  K  K3  1  0.61606400  0.89105100  0.92542300  1
  K  K4  1  0.11606400  0.89105100  0.07457700  1
  K  K5  1  0.61606400  0.60894900  0.42542300  1
  K  K6  1  0.88393600  0.39105100  0.42542300  1
  K  K7  1  0.38393600  0.10894900  0.07457700  1
  K  K8  1  0.73549400  0.26537500  0.66447900  1
  K  K9  1  0.23549400  0.23462500  0.83552100  1
  K  K10  1  0.26450600  0.76537500  0.83552100  1
  K  K11  1  0.76450600  0.73462500  0.66447900  1
  K  K12  1  0.26450600  0.73462500  0.33552100  1
  K  K13  1  0.76450600  0.76537500  0.16447900  1
  K  K14  1  0.73549400  0.23462500  0.16447900  1
  K  K15  1  0.23549400  0.26537500  0.33552100  1
  K  K16  1  0.97354000  0.46606600  0.84023500  1
  K  K17  1  0.47354000  0.03393400  0.65976500  1
  K  K18  1  0.02646000  0.96606600  0.65976500  1
  K  K19  1  0.52646000  0.53393400  0.84023500  1
  K  K20  1  0.02646000  0.53393400  0.15976500  1
  K  K21  1  0.52646000  0.96606600  0.34023500  1
  K  K22  1  0.97354000  0.03393400  0.34023500  1
  K  K23  1  0.47354000  0.46606600  0.15976500  1
  Rh  Rh0  1  0.55792000  0.21535600  0.87126200  1
  Rh  Rh1  1  0.05792000  0.28464400  0.62873800  1
  Rh  Rh2  1  0.44208000  0.71535600  0.62873800  1
  Rh  Rh3  1  0.94208000  0.78464400  0.87126200  1
  Rh  Rh4  1  0.44208000  0.78464400  0.12873800  1
  Rh  Rh5  1  0.94208000  0.71535600  0.37126200  1
  Rh  Rh6  1  0.55792000  0.28464400  0.37126200  1
  Rh  Rh7  1  0.05792000  0.21535600  0.12873800  1
  Cl  Cl0  1  0.69570900  0.34539900  0.86735400  1
  Cl  Cl1  1  0.19570900  0.15460100  0.63264600  1
  Cl  Cl2  1  0.30429100  0.84539900  0.63264600  1
  Cl  Cl3  1  0.80429100  0.65460100  0.86735400  1
  Cl  Cl4  1  0.30429100  0.65460100  0.13264600  1
  Cl  Cl5  1  0.80429100  0.84539900  0.36735400  1
  Cl  Cl6  1  0.69570900  0.15460100  0.36735400  1
  Cl  Cl7  1  0.19570900  0.34539900  0.13264600  1
  Cl  Cl8  1  0.42317100  0.07906800  0.87130200  1
  Cl  Cl9  1  0.92317100  0.42093200  0.62869800  1
  Cl  Cl10  1  0.57682900  0.57906800  0.62869800  1
  Cl  Cl11  1  0.07682900  0.92093200  0.87130200  1
  Cl  Cl12  1  0.57682900  0.92093200  0.12869800  1
  Cl  Cl13  1  0.07682900  0.57906800  0.37130200  1
  Cl  Cl14  1  0.42317100  0.42093200  0.37130200  1
  Cl  Cl15  1  0.92317100  0.07906800  0.12869800  1
  Cl  Cl16  1  0.48110300  0.28593600  0.74350600  1
  Cl  Cl17  1  0.98110300  0.21406400  0.75649400  1
  Cl  Cl18  1  0.51889700  0.78593600  0.75649400  1
  Cl  Cl19  1  0.01889700  0.71406400  0.74350600  1
  Cl  Cl20  1  0.51889700  0.71406400  0.25649400  1
  Cl  Cl21  1  0.01889700  0.78593600  0.24350600  1
  Cl  Cl22  1  0.48110300  0.21406400  0.24350600  1
  Cl  Cl23  1  0.98110300  0.28593600  0.25649400  1
  Cl  Cl24  1  0.63374800  0.14137000  0.99639900  1
  Cl  Cl25  1  0.13374800  0.35863000  0.50360100  1
  Cl  Cl26  1  0.36625200  0.64137000  0.50360100  1
  Cl  Cl27  1  0.86625200  0.85863000  0.99639900  1
  Cl  Cl28  1  0.36625200  0.85863000  0.00360100  1
  Cl  Cl29  1  0.86625200  0.64137000  0.49639900  1
  Cl  Cl30  1  0.63374800  0.35863000  0.49639900  1
  Cl  Cl31  1  0.13374800  0.14137000  0.00360100  1
  Cl  Cl32  1  0.66723200  0.09765300  0.79195100  1
  Cl  Cl33  1  0.16723200  0.40234700  0.70804900  1
  Cl  Cl34  1  0.33276800  0.59765300  0.70804900  1
  Cl  Cl35  1  0.83276800  0.90234700  0.79195100  1
  Cl  Cl36  1  0.33276800  0.90234700  0.20804900  1
  Cl  Cl37  1  0.83276800  0.59765300  0.29195100  1
  Cl  Cl38  1  0.66723200  0.40234700  0.29195100  1
  Cl  Cl39  1  0.16723200  0.09765300  0.20804900  1
  Cl  Cl40  1  0.44473700  0.32541200  0.95393200  1
  Cl  Cl41  1  0.94473700  0.17458800  0.54606800  1
  Cl  Cl42  1  0.55526300  0.82541200  0.54606800  1
  Cl  Cl43  1  0.05526300  0.67458800  0.95393200  1
  Cl  Cl44  1  0.55526300  0.67458800  0.04606800  1
  Cl  Cl45  1  0.05526300  0.82541200  0.45393200  1
  Cl  Cl46  1  0.44473700  0.17458800  0.45393200  1
  Cl  Cl47  1  0.94473700  0.32541200  0.04606800  1
  O  O0  1  0.66679500  0.08575600  0.57118200  1
  O  O1  1  0.16679500  0.41424400  0.92881800  1
  O  O2  1  0.33320500  0.58575600  0.92881800  1
  O  O3  1  0.83320500  0.91424400  0.57118200  1
  O  O4  1  0.33320500  0.91424400  0.42881800  1
  O  O5  1  0.83320500  0.58575600  0.07118200  1
  O  O6  1  0.66679500  0.41424400  0.07118200  1
  O  O7  1  0.16679500  0.08575600  0.42881800  1
loop_
_geom_bond_atom_site_label_1
_geom_bond_atom_site_label_2
_geom_bond_distance
_geom_bond_site_symmetry_2
K8 O0 2.821482 1_555
K9 O1 2.821482 1_555
K10 O2 2.821482 1_555
K11 O3 2.821482 1_555
K12 O4 2.821482 1_555
K13 O5 2.821482 1_555
K14 O6 2.821482 1_555
K15 O7 2.821482 1_555
K16 O1 2.845067 1_655
K17 O0 2.845067 1_555
K18 O3 2.845067 1_455
K19 O2 2.845067 1_555
K20 O5 2.845067 1_455
K21 O4 2.845067 1_555
K22 O7 2.845067 1_655
K23 O6 2.845067 1_555
Cl0 Rh0 2.370800 1_555
Cl0 K19 3.200889 1_555
Cl0 K8 3.351563 1_555
Cl0 K16 3.795950 1_555
Cl1 Rh1 2.370800 1_555
Cl1 K18 3.200889 1_545
Cl1 K9 3.351563 1_555
Cl1 K17 3.795950 1_555
Cl2 Rh2 2.370800 1_555
Cl2 K17 3.200889 1_565
Cl2 K10 3.351563 1_555
Cl2 K18 3.795950 1_555
Cl3 Rh3 2.370800 1_555
Cl3 K16 3.200889 1_555
Cl3 K11 3.351563 1_555
Cl3 K19 3.795950 1_555
Cl4 Rh4 2.370800 1_555
Cl4 K23 3.200889 1_555
Cl4 K12 3.351563 1_555
Cl4 K20 3.795950 1_555
Cl5 Rh5 2.370800 1_555
Cl5 K22 3.200889 1_565
Cl5 K13 3.351563 1_555
Cl5 K21 3.795950 1_555
Cl6 Rh6 2.370800 1_555
Cl6 K21 3.200889 1_545
Cl6 K14 3.351563 1_555
Cl6 K22 3.795950 1_555
Cl7 Rh7 2.370800 1_555
Cl7 K20 3.200889 1_555
Cl7 K15 3.351563 1_555
Cl7 K23 3.795950 1_555
Cl8 Rh0 2.398577 1_555
Cl8 K9 3.097000 1_555
Cl8 K7 3.223432 1_556
Cl8 K17 3.399497 1_555
Cl8 K3 3.473949 1_545
Cl9 Rh1 2.398577 1_655
Cl9 K8 3.097000 1_555
Cl9 K6 3.223432 1_555
Cl9 K16 3.399497 1_555
Cl9 K2 3.473949 1_655
Cl10 Rh2 2.398577 1_555
Cl10 K11 3.097000 1_555
Cl10 K5 3.223432 1_555
Cl10 K19 3.399497 1_555
Cl10 K1 3.473949 1_555
Cl11 Rh3 2.398577 1_455
Cl11 K10 3.097000 1_555
Cl11 K4 3.223432 1_556
Cl11 K18 3.399497 1_555
Cl11 K0 3.473949 1_465
Cl12 Rh4 2.398577 1_555
Cl12 K13 3.097000 1_555
Cl12 K3 3.223432 1_554
Cl12 K21 3.399497 1_555
Cl12 K7 3.473949 1_565
Cl13 Rh5 2.398577 1_455
Cl13 K12 3.097000 1_555
Cl13 K2 3.223432 1_555
Cl13 K20 3.399497 1_555
Cl13 K6 3.473949 1_455
Cl14 Rh6 2.398577 1_555
Cl14 K15 3.097000 1_555
Cl14 K1 3.223432 1_555
Cl14 K23 3.399497 1_555
Cl14 K5 3.473949 1_555
Cl15 Rh7 2.398577 1_655
Cl15 K14 3.097000 1_555
Cl15 K0 3.223432 1_554
Cl15 K22 3.399497 1_555
Cl15 K4 3.473949 1_645
Cl16 Rh0 2.378345 1_555
Cl16 K1 3.182174 1_555
Cl16 K8 3.401887 1_555
Cl16 K9 3.432780 1_555
Cl16 K17 3.433949 1_555
Cl16 K19 3.514372 1_555
Cl17 Rh1 2.378345 1_655
Cl17 K0 3.182174 1_555
Cl17 K9 3.401887 1_655
Cl17 K8 3.432780 1_555
Cl17 K16 3.433949 1_555
Cl17 K18 3.514372 1_645
Cl18 Rh2 2.378345 1_555
Cl18 K3 3.182174 1_555
Cl18 K10 3.401887 1_555
Cl18 K11 3.432780 1_555
Cl18 K19 3.433949 1_555
Cl18 K17 3.514372 1_565
Cl19 Rh3 2.378345 1_455
Cl19 K2 3.182174 1_555
Cl19 K11 3.401887 1_455
Cl19 K10 3.432780 1_555
Cl19 K18 3.433949 1_555
Cl19 K16 3.514372 1_455
Cl20 Rh4 2.378345 1_555
Cl20 K5 3.182174 1_555
Cl20 K12 3.401887 1_555
Cl20 K13 3.432780 1_555
Cl20 K21 3.433949 1_555
Cl20 K23 3.514372 1_555
Cl21 Rh5 2.378345 1_455
Cl21 K4 3.182174 1_555
Cl21 K13 3.401887 1_455
Cl21 K12 3.432780 1_555
Cl21 K20 3.433949 1_555
Cl21 K22 3.514372 1_465
Cl22 Rh6 2.378345 1_555
Cl22 K7 3.182174 1_555
Cl22 K14 3.401887 1_555
Cl22 K15 3.432780 1_555
Cl22 K23 3.433949 1_555
Cl22 K21 3.514372 1_545
Cl23 Rh7 2.378345 1_655
Cl23 K6 3.182174 1_555
Cl23 K15 3.401887 1_655
Cl23 K14 3.432780 1_555
Cl23 K22 3.433949 1_555
Cl23 K20 3.514372 1_655
Cl24 Rh0 2.356043 1_555
Cl24 K14 3.134320 1_556
Cl24 K0 3.324539 1_555
Cl24 K3 3.349437 1_545
Cl24 K7 3.359134 1_556
Cl25 Rh1 2.356043 1_555
Cl25 K15 3.134320 1_555
Cl25 K1 3.324539 1_555
Cl25 K2 3.349437 1_555
Cl25 K6 3.359134 1_455
Cl26 Rh2 2.356043 1_555
Cl26 K12 3.134320 1_555
Cl26 K2 3.324539 1_555
Cl26 K1 3.349437 1_555
Cl26 K5 3.359134 1_555
Cl27 Rh3 2.356043 1_555
Cl27 K13 3.134320 1_556
Cl27 K3 3.324539 1_555
Cl27 K0 3.349437 1_565
Cl27 K4 3.359134 1_656
Cl28 Rh4 2.356043 1_555
Cl28 K10 3.134320 1_554
Cl28 K4 3.324539 1_555
Cl28 K7 3.349437 1_565
Cl28 K3 3.359134 1_554
Cl29 Rh5 2.356043 1_555
Cl29 K11 3.134320 1_555
Cl29 K5 3.324539 1_555
Cl29 K6 3.349437 1_555
Cl29 K2 3.359134 1_655
Cl30 Rh6 2.356043 1_555
Cl30 K8 3.134320 1_555
Cl30 K6 3.324539 1_555
Cl30 K5 3.349437 1_555
Cl30 K1 3.359134 1_555
Cl31 Rh7 2.356043 1_555
Cl31 K9 3.134320 1_554
Cl31 K7 3.324539 1_555
Cl31 K4 3.349437 1_545
Cl31 K0 3.359134 1_454
Cl32 Rh0 2.359866 1_555
Cl32 K8 3.020473 1_555
Cl32 K17 3.266649 1_555
Cl32 K3 3.390927 1_545
Cl32 K0 3.404051 1_555
Cl33 Rh1 2.359866 1_555
Cl33 K9 3.020473 1_555
Cl33 K16 3.266649 1_455
Cl33 K2 3.390927 1_555
Cl33 K1 3.404051 1_555
Cl34 Rh2 2.359866 1_555
Cl34 K10 3.020473 1_555
Cl34 K19 3.266649 1_555
Cl34 K1 3.390927 1_555
Cl34 K2 3.404051 1_555
Cl35 Rh3 2.359866 1_555
Cl35 K11 3.020473 1_555
Cl35 K18 3.266649 1_655
Cl35 K0 3.390927 1_565
Cl35 K3 3.404051 1_555
Cl36 Rh4 2.359866 1_555
Cl36 K12 3.020473 1_555
Cl36 K21 3.266649 1_555
Cl36 K7 3.390927 1_565
Cl36 K4 3.404051 1_555
Cl37 Rh5 2.359866 1_555
Cl37 K13 3.020473 1_555
Cl37 K20 3.266649 1_655
Cl37 K6 3.390927 1_555
Cl37 K5 3.404051 1_555
Cl38 Rh6 2.359866 1_555
Cl38 K14 3.020473 1_555
Cl38 K23 3.266649 1_555
Cl38 K5 3.390927 1_555
Cl38 K6 3.404051 1_555
Cl39 Rh7 2.359866 1_555
Cl39 K15 3.020473 1_555
Cl39 K22 3.266649 1_455
Cl39 K4 3.390927 1_545
Cl39 K7 3.404051 1_555
Cl40 Rh0 2.357374 1_555
Cl40 K19 3.326821 1_555
Cl40 K9 3.386193 1_555
Cl40 K7 3.396716 1_556
Cl40 K23 3.678883 1_556
Cl41 Rh1 2.357374 1_655
Cl41 K18 3.326821 1_645
Cl41 K8 3.386193 1_555
Cl41 K6 3.396716 1_555
Cl41 K22 3.678883 1_555
Cl42 Rh2 2.357374 1_555
Cl42 K17 3.326821 1_565
Cl42 K11 3.386193 1_555
Cl42 K5 3.396716 1_555
Cl42 K21 3.678883 1_555
Cl43 Rh3 2.357374 1_455
Cl43 K16 3.326821 1_455
Cl43 K10 3.386193 1_555
Cl43 K4 3.396716 1_556
Cl43 K20 3.678883 1_556
Cl44 Rh4 2.357374 1_555
Cl44 K23 3.326821 1_555
Cl44 K13 3.386193 1_555
Cl44 K3 3.396716 1_554
Cl44 K19 3.678883 1_554
Cl45 Rh5 2.357374 1_455
Cl45 K22 3.326821 1_465
Cl45 K12 3.386193 1_555
Cl45 K2 3.396716 1_555
Cl45 K18 3.678883 1_555
Cl46 Rh6 2.357374 1_555
Cl46 K21 3.326821 1_545
Cl46 K15 3.386193 1_555
Cl46 K1 3.396716 1_555
Cl46 K17 3.678883 1_555
Cl47 Rh7 2.357374 1_655
Cl47 K20 3.326821 1_655
Cl47 K14 3.386193 1_555
Cl47 K0 3.396716 1_554
Cl47 K16 3.678883 1_554
