# generated using pymatgen
data_LiMg30WO32
_symmetry_space_group_name_H-M   'P 1'
_cell_length_a   8.53371900
_cell_length_b   8.53371900
_cell_length_c   8.54903400
_cell_angle_alpha   90.00000000
_cell_angle_beta   90.00000000
_cell_angle_gamma   90.00000000
_symmetry_Int_Tables_number   1
_chemical_formula_structural   LiMg30WO32
_chemical_formula_sum   'Li1 Mg30 W1 O32'
_cell_volume   622.57792942
_cell_formula_units_Z   1
loop_
 _symmetry_equiv_pos_site_id
 _symmetry_equiv_pos_as_xyz
  1  'x, y, z'
loop_
 _atom_site_type_symbol
 _atom_site_label
 _atom_site_symmetry_multiplicity
 _atom_site_fract_x
 _atom_site_fract_y
 _atom_site_fract_z
 _atom_site_occupancy
  Li  Li0  1  0.00000000  0.00000000  0.00000000  1
  Mg  Mg0  1  0.00000000  0.50000000  0.00000000  1
  Mg  Mg1  1  0.00000000  0.50000000  0.50000000  1
  Mg  Mg2  1  0.50000000  0.00000000  0.00000000  1
  Mg  Mg3  1  0.50000000  0.00000000  0.50000000  1
  Mg  Mg4  1  0.50000000  0.50000000  0.00000000  1
  Mg  Mg5  1  0.50000000  0.50000000  0.50000000  1
  Mg  Mg6  1  0.00000000  0.25075900  0.24198300  1
  Mg  Mg7  1  0.00000000  0.25075900  0.75801700  1
  Mg  Mg8  1  0.00000000  0.74924100  0.24198300  1
  Mg  Mg9  1  0.00000000  0.74924100  0.75801700  1
  Mg  Mg10  1  0.50000000  0.24978100  0.24854600  1
  Mg  Mg11  1  0.50000000  0.24978100  0.75145400  1
  Mg  Mg12  1  0.50000000  0.75021900  0.24854600  1
  Mg  Mg13  1  0.50000000  0.75021900  0.75145400  1
  Mg  Mg14  1  0.25075900  0.00000000  0.24198300  1
  Mg  Mg15  1  0.25075900  0.00000000  0.75801700  1
  Mg  Mg16  1  0.24978100  0.50000000  0.24854600  1
  Mg  Mg17  1  0.24978100  0.50000000  0.75145400  1
  Mg  Mg18  1  0.74924100  0.00000000  0.24198300  1
  Mg  Mg19  1  0.74924100  0.00000000  0.75801700  1
  Mg  Mg20  1  0.75021900  0.50000000  0.24854600  1
  Mg  Mg21  1  0.75021900  0.50000000  0.75145400  1
  Mg  Mg22  1  0.24737900  0.24737900  0.00000000  1
  Mg  Mg23  1  0.25347800  0.25347800  0.50000000  1
  Mg  Mg24  1  0.24737900  0.75262100  0.00000000  1
  Mg  Mg25  1  0.25347800  0.74652200  0.50000000  1
  Mg  Mg26  1  0.75262100  0.24737900  0.00000000  1
  Mg  Mg27  1  0.74652200  0.25347800  0.50000000  1
  Mg  Mg28  1  0.75262100  0.75262100  0.00000000  1
  Mg  Mg29  1  0.74652200  0.74652200  0.50000000  1
  W  W0  1  0.00000000  0.00000000  0.50000000  1
  O  O0  1  0.25721900  0.00000000  0.00000000  1
  O  O1  1  0.25410500  0.00000000  0.50000000  1
  O  O2  1  0.25109200  0.50000000  0.00000000  1
  O  O3  1  0.25017200  0.50000000  0.50000000  1
  O  O4  1  0.74278100  0.00000000  0.00000000  1
  O  O5  1  0.74589500  0.00000000  0.50000000  1
  O  O6  1  0.74890800  0.50000000  0.00000000  1
  O  O7  1  0.74982800  0.50000000  0.50000000  1
  O  O8  1  0.24933500  0.24933500  0.25122000  1
  O  O9  1  0.24933500  0.24933500  0.74878000  1
  O  O10  1  0.24933500  0.75066500  0.25122000  1
  O  O11  1  0.24933500  0.75066500  0.74878000  1
  O  O12  1  0.75066500  0.24933500  0.25122000  1
  O  O13  1  0.75066500  0.24933500  0.74878000  1
  O  O14  1  0.75066500  0.75066500  0.25122000  1
  O  O15  1  0.75066500  0.75066500  0.74878000  1
  O  O16  1  0.00000000  0.00000000  0.24859500  1
  O  O17  1  0.00000000  0.00000000  0.75140500  1
  O  O18  1  0.00000000  0.50000000  0.25196900  1
  O  O19  1  0.00000000  0.50000000  0.74803100  1
  O  O20  1  0.50000000  0.00000000  0.25196900  1
  O  O21  1  0.50000000  0.00000000  0.74803100  1
  O  O22  1  0.50000000  0.50000000  0.25099500  1
  O  O23  1  0.50000000  0.50000000  0.74900500  1
  O  O24  1  0.00000000  0.25721900  0.00000000  1
  O  O25  1  0.00000000  0.25410500  0.50000000  1
  O  O26  1  0.00000000  0.74278100  0.00000000  1
  O  O27  1  0.00000000  0.74589500  0.50000000  1
  O  O28  1  0.50000000  0.25109200  0.00000000  1
  O  O29  1  0.50000000  0.25017200  0.50000000  1
  O  O30  1  0.50000000  0.74890800  0.00000000  1
  O  O31  1  0.50000000  0.74982800  0.50000000  1
loop_
_geom_bond_atom_site_label_1
_geom_bond_atom_site_label_2
_geom_bond_distance
_geom_bond_site_symmetry_2
Li0 O16 2.125247 1_555
Li0 O17 2.125247 1_554
Li0 O24 2.195035 1_555
Li0 O0 2.195035 1_555
Li0 O26 2.195035 1_545
Li0 O4 2.195035 1_455
Mg0 O26 2.071825 1_555
Mg0 O24 2.071825 1_555
Mg0 O2 2.142749 1_555
Mg0 O6 2.142749 1_455
Mg0 O19 2.154092 1_554
Mg0 O18 2.154092 1_555
Mg1 O27 2.098399 1_555
Mg1 O25 2.098399 1_555
Mg1 O18 2.120425 1_555
Mg1 O19 2.120425 1_555
Mg1 O3 2.134898 1_555
Mg1 O7 2.134898 1_455
Mg2 O4 2.071825 1_555
Mg2 O0 2.071825 1_555
Mg2 O28 2.142749 1_555
Mg2 O30 2.142749 1_545
Mg2 O20 2.154092 1_555
Mg2 O21 2.154092 1_554
Mg3 O5 2.098399 1_555
Mg3 O1 2.098399 1_555
Mg3 O21 2.120425 1_555
Mg3 O20 2.120425 1_555
Mg3 O29 2.134898 1_555
Mg3 O31 2.134898 1_545
Mg4 O30 2.124111 1_555
Mg4 O2 2.124111 1_555
Mg4 O28 2.124111 1_555
Mg4 O6 2.124111 1_555
Mg4 O22 2.145765 1_555
Mg4 O23 2.145765 1_554
Mg5 O23 2.128752 1_555
Mg5 O22 2.128752 1_555
Mg5 O7 2.131962 1_555
Mg5 O31 2.131962 1_555
Mg5 O3 2.131962 1_555
Mg5 O29 2.131962 1_555
Mg6 O24 2.069455 1_555
Mg6 O18 2.128665 1_555
Mg6 O8 2.129254 1_555
Mg6 O12 2.129254 1_455
Mg6 O16 2.140653 1_555
Mg6 O25 2.205981 1_555
Mg7 O24 2.069455 1_556
Mg7 O19 2.128665 1_555
Mg7 O9 2.129254 1_555
Mg7 O13 2.129254 1_455
Mg7 O17 2.140653 1_555
Mg7 O25 2.205981 1_555
Mg8 O26 2.069455 1_555
Mg8 O18 2.128665 1_555
Mg8 O10 2.129254 1_555
Mg8 O14 2.129254 1_455
Mg8 O16 2.140653 1_565
Mg8 O27 2.205981 1_555
Mg9 O26 2.069455 1_556
Mg9 O19 2.128665 1_555
Mg9 O11 2.129254 1_555
Mg9 O15 2.129254 1_455
Mg9 O17 2.140653 1_565
Mg9 O27 2.205981 1_555
Mg10 O28 2.124858 1_555
Mg10 O20 2.131762 1_555
Mg10 O22 2.135401 1_555
Mg10 O12 2.139230 1_555
Mg10 O8 2.139230 1_555
Mg10 O29 2.149691 1_555
Mg11 O28 2.124858 1_556
Mg11 O21 2.131762 1_555
Mg11 O23 2.135401 1_555
Mg11 O13 2.139230 1_555
Mg11 O9 2.139230 1_555
Mg11 O29 2.149691 1_555
Mg12 O30 2.124858 1_555
Mg12 O20 2.131762 1_565
Mg12 O22 2.135401 1_555
Mg12 O14 2.139230 1_555
Mg12 O10 2.139230 1_555
Mg12 O31 2.149691 1_555
Mg13 O30 2.124858 1_556
Mg13 O21 2.131762 1_565
Mg13 O23 2.135401 1_555
Mg13 O15 2.139230 1_555
Mg13 O11 2.139230 1_555
Mg13 O31 2.149691 1_555
Mg14 O0 2.069455 1_555
Mg14 O20 2.128665 1_555
Mg14 O8 2.129254 1_555
Mg14 O10 2.129254 1_545
Mg14 O16 2.140653 1_555
Mg14 O1 2.205981 1_555
Mg15 O0 2.069455 1_556
Mg15 O21 2.128665 1_555
Mg15 O9 2.129254 1_555
Mg15 O11 2.129254 1_545
Mg15 O17 2.140653 1_555
Mg15 O1 2.205981 1_555
Mg16 O2 2.124858 1_555
Mg16 O18 2.131762 1_555
Mg16 O22 2.135401 1_555
Mg16 O10 2.139230 1_555
Mg16 O8 2.139230 1_555
Mg16 O3 2.149691 1_555
Mg17 O2 2.124858 1_556
Mg17 O19 2.131762 1_555
Mg17 O23 2.135401 1_555
Mg17 O11 2.139230 1_555
Mg17 O9 2.139230 1_555
Mg17 O3 2.149691 1_555
Mg18 O4 2.069455 1_555
Mg18 O20 2.128665 1_555
Mg18 O12 2.129254 1_555
Mg18 O14 2.129254 1_545
Mg18 O16 2.140653 1_655
Mg18 O5 2.205981 1_555
Mg19 O4 2.069455 1_556
Mg19 O21 2.128665 1_555
Mg19 O13 2.129254 1_555
Mg19 O15 2.129254 1_545
Mg19 O17 2.140653 1_655
Mg19 O5 2.205981 1_555
Mg20 O6 2.124858 1_555
Mg20 O18 2.131762 1_655
Mg20 O22 2.135401 1_555
Mg20 O14 2.139230 1_555
Mg20 O12 2.139230 1_555
Mg20 O7 2.149691 1_555
Mg21 O6 2.124858 1_556
Mg21 O19 2.131762 1_655
Mg21 O23 2.135401 1_555
Mg21 O15 2.139230 1_555
Mg21 O13 2.139230 1_555
Mg21 O7 2.149691 1_555
Mg22 O0 2.112732 1_555
Mg22 O24 2.112732 1_555
Mg22 O9 2.147818 1_554
Mg22 O8 2.147818 1_555
Mg22 O28 2.156029 1_555
Mg22 O2 2.156029 1_555
Mg23 O3 2.103939 1_555
Mg23 O29 2.103939 1_555
Mg23 O8 2.127416 1_555
Mg23 O9 2.127416 1_555
Mg23 O1 2.163117 1_555
Mg23 O25 2.163117 1_555
Mg24 O0 2.112732 1_565
Mg24 O26 2.112732 1_555
Mg24 O11 2.147818 1_554
Mg24 O10 2.147818 1_555
Mg24 O30 2.156029 1_555
Mg24 O2 2.156029 1_555
Mg25 O3 2.103939 1_555
Mg25 O31 2.103939 1_555
Mg25 O10 2.127416 1_555
Mg25 O11 2.127416 1_555
Mg25 O27 2.163117 1_555
Mg25 O1 2.163117 1_565
Mg26 O24 2.112732 1_655
Mg26 O4 2.112732 1_555
Mg26 O13 2.147818 1_554
Mg26 O12 2.147818 1_555
Mg26 O28 2.156029 1_555
Mg26 O6 2.156029 1_555
Mg27 O7 2.103939 1_555
Mg27 O29 2.103939 1_555
Mg27 O12 2.127416 1_555
Mg27 O13 2.127416 1_555
Mg27 O25 2.163117 1_655
Mg27 O5 2.163117 1_555
Mg28 O26 2.112732 1_655
Mg28 O4 2.112732 1_565
Mg28 O15 2.147818 1_554
Mg28 O14 2.147818 1_555
Mg28 O30 2.156029 1_555
Mg28 O6 2.156029 1_555
Mg29 O7 2.103939 1_555
Mg29 O31 2.103939 1_555
Mg29 O14 2.127416 1_555
Mg29 O15 2.127416 1_555
Mg29 O5 2.163117 1_565
Mg29 O27 2.163117 1_655
O1 W0 2.168461 1_555
O5 W0 2.168461 1_655
O16 W0 2.149270 1_555
O17 W0 2.149270 1_555
O25 W0 2.168461 1_555
O27 W0 2.168461 1_565
