# generated using pymatgen
data_YMg14Cu
_symmetry_space_group_name_H-M   'P 1'
_cell_length_a   6.47779629
_cell_length_b   6.23076834
_cell_length_c   10.25069512
_cell_angle_alpha   90.00000000
_cell_angle_beta   90.00000000
_cell_angle_gamma   118.74634242
_symmetry_Int_Tables_number   1
_chemical_formula_structural   YMg14Cu
_chemical_formula_sum   'Y1 Mg14 Cu1'
_cell_volume   362.74520209
_cell_formula_units_Z   1
loop_
 _symmetry_equiv_pos_site_id
 _symmetry_equiv_pos_as_xyz
  1  'x, y, z'
loop_
 _atom_site_type_symbol
 _atom_site_label
 _atom_site_symmetry_multiplicity
 _atom_site_fract_x
 _atom_site_fract_y
 _atom_site_fract_z
 _atom_site_occupancy
  Y  Y0  1  0.13196636  0.31598268  0.12500000  1
  Mg  Mg0  1  0.16903387  0.33451643  0.62500000  1
  Mg  Mg1  1  0.16219342  0.83109621  0.62500000  1
  Mg  Mg2  1  0.62839401  0.30280052  0.12500000  1
  Mg  Mg3  1  0.66546764  0.33715945  0.62500000  1
  Mg  Mg4  1  0.62839401  0.82559250  0.12500000  1
  Mg  Mg5  1  0.66546764  0.82830719  0.62500000  1
  Mg  Mg6  1  0.33912756  0.16868899  0.37504903  1
  Mg  Mg7  1  0.33912756  0.16868899  0.87495097  1
  Mg  Mg8  1  0.33912756  0.67043956  0.37504903  1
  Mg  Mg9  1  0.33912756  0.67043956  0.87495097  1
  Mg  Mg10  1  0.83278097  0.16639099  0.38431996  1
  Mg  Mg11  1  0.83278097  0.16639099  0.86568004  1
  Mg  Mg12  1  0.86086120  0.68043110  0.34857025  1
  Mg  Mg13  1  0.86086120  0.68043110  0.90142975  1
  Cu  Cu0  1  0.20528847  0.85264373  0.12500000  1
loop_
_geom_bond_atom_site_label_1
_geom_bond_atom_site_label_2
_geom_bond_distance
_geom_bond_site_symmetry_2
Mg0 Mg1 3.115626 1_545
Mg0 Mg1 3.115626 1_555
Mg0 Mg11 3.119912 1_455
Mg0 Mg10 3.119912 1_455
Mg0 Mg6 3.152992 1_555
Mg0 Mg7 3.152992 1_555
Mg0 Mg9 3.152998 1_555
Mg0 Mg8 3.152998 1_555
Mg0 Mg5 3.207909 1_555
Mg0 Mg3 3.207909 1_555
Mg0 Mg5 3.269951 1_445
Mg0 Mg3 3.269951 1_455
Mg1 Mg8 3.159739 1_555
Mg1 Mg9 3.159739 1_555
Mg1 Mg6 3.159745 1_565
Mg1 Mg7 3.159745 1_565
Mg1 Mg3 3.209367 1_455
Mg1 Mg5 3.209367 1_455
Mg1 Mg3 3.268501 1_565
Mg1 Mg5 3.268501 1_555
Mg1 Mg12 3.310313 1_455
Mg1 Mg13 3.310313 1_455
Mg2 Mg7 3.045195 1_554
Mg2 Mg6 3.045195 1_555
Mg2 Y0 3.223342 1_655
Mg2 Y0 3.256055 1_555
Mg3 Mg5 3.060228 1_555
Mg3 Mg7 3.162441 1_555
Mg3 Mg6 3.162441 1_555
Mg3 Mg5 3.170541 1_545
Mg4 Mg9 3.045195 1_554
Mg4 Mg8 3.045195 1_555
Mg4 Y0 3.223342 1_665
Mg4 Y0 3.256055 1_555
Mg5 Mg8 3.162441 1_555
Mg5 Mg9 3.162441 1_555
Mg6 Mg8 3.104477 1_545
Mg6 Mg8 3.126292 1_555
Mg6 Y0 3.224528 1_555
Mg7 Mg9 3.104477 1_545
Mg7 Mg9 3.126292 1_555
Mg7 Y0 3.224528 1_556
Mg8 Y0 3.224534 1_555
Mg9 Y0 3.224534 1_556
Mg10 Mg3 3.082662 1_555
Mg10 Mg5 3.082668 1_545
Mg10 Mg12 3.140915 1_555
Mg10 Mg12 3.140915 1_545
Mg10 Y0 3.154900 1_655
Mg10 Mg8 3.206106 1_545
Mg10 Mg6 3.206106 1_555
Mg10 Mg2 3.259413 1_555
Mg10 Mg4 3.259418 1_545
Mg10 Mg8 3.274527 1_655
Mg10 Mg6 3.274527 1_655
Mg11 Mg3 3.082662 1_555
Mg11 Mg5 3.082668 1_545
Mg11 Mg13 3.140915 1_555
Mg11 Mg13 3.140915 1_545
Mg11 Y0 3.154900 1_656
Mg11 Mg9 3.206106 1_545
Mg11 Mg7 3.206106 1_555
Mg11 Mg2 3.259413 1_556
Mg11 Mg4 3.259418 1_546
Mg11 Mg9 3.274527 1_655
Mg11 Mg7 3.274527 1_655
Mg12 Mg6 3.140281 1_665
Mg12 Mg8 3.140281 1_655
Mg12 Mg6 3.361165 1_555
Mg12 Mg8 3.361166 1_555
Mg12 Mg5 3.406171 1_555
Mg12 Mg3 3.406177 1_555
Mg13 Mg7 3.140281 1_665
Mg13 Mg9 3.140281 1_655
Mg13 Mg7 3.361165 1_555
Mg13 Mg9 3.361166 1_555
Mg13 Mg5 3.406171 1_555
Mg13 Mg3 3.406177 1_555
Cu0 Mg2 2.825719 1_565
Cu0 Mg4 2.825720 1_555
Cu0 Mg13 3.013085 1_454
Cu0 Mg12 3.013085 1_455
Cu0 Mg8 3.091456 1_555
Cu0 Mg9 3.091456 1_554
Cu0 Mg6 3.091462 1_565
Cu0 Mg7 3.091462 1_564
Cu0 Y0 3.143093 1_555
Cu0 Y0 3.143093 1_565
