# generated using pymatgen
data_NbVO4
_symmetry_space_group_name_H-M   'P 1'
_cell_length_a   6.16014853
_cell_length_b   6.16014853
_cell_length_c   4.95856538
_cell_angle_alpha   68.92375170
_cell_angle_beta   68.92375170
_cell_angle_gamma   114.81022441
_symmetry_Int_Tables_number   1
_chemical_formula_structural   NbVO4
_chemical_formula_sum   'Nb2 V2 O8'
_cell_volume   127.16890739
_cell_formula_units_Z   2
loop_
 _symmetry_equiv_pos_site_id
 _symmetry_equiv_pos_as_xyz
  1  'x, y, z'
loop_
 _atom_site_type_symbol
 _atom_site_label
 _atom_site_symmetry_multiplicity
 _atom_site_fract_x
 _atom_site_fract_y
 _atom_site_fract_z
 _atom_site_occupancy
  Nb  Nb0  1  0.13173900  0.86826100  0.25000000  1
  Nb  Nb1  1  0.86826100  0.13173900  0.75000000  1
  V  V0  1  0.59365000  0.40635000  0.25000000  1
  V  V1  1  0.40635000  0.59365000  0.75000000  1
  O  O0  1  0.26936000  0.20038400  0.76152200  1
  O  O1  1  0.20038400  0.26936000  0.26152200  1
  O  O2  1  0.47853600  0.89765000  0.83598400  1
  O  O3  1  0.89765000  0.47853600  0.33598400  1
  O  O4  1  0.10235000  0.52146400  0.66401600  1
  O  O5  1  0.52146400  0.10235000  0.16401600  1
  O  O6  1  0.79961600  0.73064000  0.73847800  1
  O  O7  1  0.73064000  0.79961600  0.23847800  1
loop_
_geom_bond_atom_site_label_1
_geom_bond_atom_site_label_2
_geom_bond_distance
_geom_bond_site_symmetry_2
Nb0 O5 1.985230 1_565
Nb0 O3 1.985230 1_455
Nb0 O6 2.067544 1_455
Nb0 O0 2.067544 1_564
Nb0 O2 2.250549 1_554
Nb0 O4 2.250549 1_555
Nb0 O7 2.351411 1_455
Nb0 O1 2.351411 1_565
Nb1 O4 1.985230 1_655
Nb1 O2 1.985230 1_545
Nb1 O1 2.067544 1_655
Nb1 O7 2.067544 1_546
Nb1 O3 2.250549 1_555
Nb1 O5 2.250549 1_556
Nb1 O6 2.351411 1_545
Nb1 O0 2.351411 1_655
O0 V0 1.986956 1_555
O0 V1 2.175860 1_555
O1 V1 1.986956 1_554
O1 V0 2.175860 1_555
O2 V1 1.974390 1_555
O3 V0 1.974390 1_555
O4 V1 1.974390 1_555
O5 V0 1.974390 1_555
O6 V0 1.986956 1_556
O6 V1 2.175860 1_555
O7 V1 1.986956 1_555
O7 V0 2.175860 1_555
