# generated using pymatgen
data_LaFeAsO
_symmetry_space_group_name_H-M   'P 1'
_cell_length_a   5.81271049
_cell_length_b   5.87984532
_cell_length_c   10.06860207
_cell_angle_alpha   73.02418969
_cell_angle_beta   73.22561390
_cell_angle_gamma   89.99805782
_symmetry_Int_Tables_number   1
_chemical_formula_structural   LaFeAsO
_chemical_formula_sum   'La4 Fe4 As4 O4'
_cell_volume   313.78820488
_cell_formula_units_Z   4
loop_
 _symmetry_equiv_pos_site_id
 _symmetry_equiv_pos_as_xyz
  1  'x, y, z'
loop_
 _atom_site_type_symbol
 _atom_site_label
 _atom_site_symmetry_multiplicity
 _atom_site_fract_x
 _atom_site_fract_y
 _atom_site_fract_z
 _atom_site_occupancy
  La  La0  1  0.06522100  0.31537400  0.86922600  1
  La  La1  1  0.56522900  0.81538600  0.86920100  1
  La  La2  1  0.43442800  0.18458900  0.13080500  1
  La  La3  1  0.93444500  0.68460600  0.13078200  1
  Fe  Fe0  1  0.98480800  0.75006800  0.49997000  1
  Fe  Fe1  1  0.48469700  0.74997700  0.50003200  1
  Fe  Fe2  1  0.51572200  0.24999500  0.50001600  1
  Fe  Fe3  1  0.01567000  0.24998300  0.49999100  1
  As  As0  1  0.33529000  0.58521800  0.32933200  1
  As  As1  1  0.83525600  0.08523900  0.32929900  1
  As  As2  1  0.16477400  0.91480100  0.67068800  1
  As  As3  1  0.66481100  0.41477600  0.67065800  1
  O  O0  1  0.24993200  0.99937800  0.99999000  1
  O  O1  1  0.74990600  0.50062700  0.00001500  1
  O  O2  1  0.74990500  0.00062900  0.99997800  1
  O  O3  1  0.24990500  0.49935400  0.00001800  1
loop_
_geom_bond_atom_site_label_1
_geom_bond_atom_site_label_2
_geom_bond_distance
_geom_bond_site_symmetry_2
La0 O2 2.387919 1_455
La0 O3 2.388476 1_556
La0 O1 2.392534 1_456
La0 O0 2.392858 1_545
La1 O0 2.387910 1_555
La1 O1 2.388495 1_556
La1 O3 2.392669 1_556
La1 O2 2.392891 1_565
La2 O3 2.387848 1_555
La2 O2 2.388608 1_554
La2 O0 2.392451 1_544
La2 O1 2.393206 1_555
La3 O1 2.387755 1_555
La3 O0 2.388663 1_654
La3 O2 2.392535 1_564
La3 O3 2.392925 1_655
As0 Fe3 2.543492 1_555
As0 Fe1 2.545693 1_555
As0 Fe0 2.644565 1_455
As0 Fe2 2.645882 1_555
As0 La3 3.430235 1_555
As0 La3 3.431209 1_455
As0 La2 3.458503 1_555
As0 La2 3.459683 1_565
As1 Fe2 2.544058 1_555
As1 Fe0 2.545016 1_545
As1 Fe1 2.644405 1_545
As1 Fe3 2.646559 1_655
As1 La2 3.430183 1_655
As1 La2 3.430714 1_555
As1 La3 3.458450 1_545
As1 La3 3.459640 1_555
As2 Fe3 2.543800 1_565
As2 Fe1 2.545146 1_555
As2 Fe0 2.645232 1_455
As2 Fe2 2.645373 1_565
As2 La1 3.429017 1_555
As2 La1 3.432066 1_455
As2 La0 3.458305 1_565
As2 La0 3.459989 1_555
As3 Fe2 2.544261 1_555
As3 Fe0 2.544929 1_555
As3 Fe1 2.644412 1_555
As3 Fe3 2.645812 1_655
As3 La0 3.429199 1_655
As3 La0 3.432420 1_555
As3 La1 3.458526 1_555
As3 La1 3.459816 1_545
