# generated using pymatgen
data_Te2MoW2(SeS)2
_symmetry_space_group_name_H-M   'P 1'
_cell_length_a   3.35205407
_cell_length_b   3.35205407
_cell_length_c   31.02074000
_cell_angle_alpha   90.00000000
_cell_angle_beta   90.00000000
_cell_angle_gamma   120.00000139
_symmetry_Int_Tables_number   1
_chemical_formula_structural   Te2MoW2(SeS)2
_chemical_formula_sum   'Te2 Mo1 W2 Se2 S2'
_cell_volume   301.85947343
_cell_formula_units_Z   1
loop_
 _symmetry_equiv_pos_site_id
 _symmetry_equiv_pos_as_xyz
  1  'x, y, z'
loop_
 _atom_site_type_symbol
 _atom_site_label
 _atom_site_symmetry_multiplicity
 _atom_site_fract_x
 _atom_site_fract_y
 _atom_site_fract_z
 _atom_site_occupancy
  Te  Te0  1  0.33333300  0.66666700  0.51698500  1
  Te  Te1  1  0.33333300  0.66666700  0.63974000  1
  Mo  Mo0  1  0.00000000  0.00000000  0.11566200  1
  W  W0  1  0.00000000  0.00000000  0.57838900  1
  W  W1  1  0.33333300  0.66666700  0.34691500  1
  Se  Se0  1  0.00000000  0.00000000  0.40084600  1
  Se  Se1  1  0.00000000  0.00000000  0.29298800  1
  S  S0  1  0.33333300  0.66666700  0.06679600  1
  S  S1  1  0.33333300  0.66666700  0.16451900  1
loop_
_geom_bond_atom_site_label_1
_geom_bond_atom_site_label_2
_geom_bond_distance
_geom_bond_site_symmetry_2
Te0 W0 2.715450 1_565
Te0 W0 2.715452 1_555
Te0 W0 2.715452 1_665
Te1 W0 2.714297 1_565
Te1 W0 2.714299 1_555
Te1 W0 2.714299 1_665
Mo0 S1 2.458129 1_545
Mo0 S1 2.458131 1_445
Mo0 S1 2.458131 1_555
Mo0 S0 2.458301 1_545
Mo0 S0 2.458303 1_555
Mo0 S0 2.458303 1_445
Se0 W1 2.558178 1_545
Se0 W1 2.558180 1_555
Se0 W1 2.558180 1_445
Se1 W1 2.558097 1_545
Se1 W1 2.558099 1_555
Se1 W1 2.558099 1_445
