# generated using pymatgen
data_Fe2SiO4
_symmetry_space_group_name_H-M   'P 1'
_cell_length_a   4.88556103
_cell_length_b   6.18080863
_cell_length_c   10.58924758
_cell_angle_alpha   89.91400206
_cell_angle_beta   90.11504714
_cell_angle_gamma   89.56736192
_symmetry_Int_Tables_number   1
_chemical_formula_structural   Fe2SiO4
_chemical_formula_sum   'Fe8 Si4 O16'
_cell_volume   319.75039284
_cell_formula_units_Z   4
loop_
 _symmetry_equiv_pos_site_id
 _symmetry_equiv_pos_as_xyz
  1  'x, y, z'
loop_
 _atom_site_type_symbol
 _atom_site_label
 _atom_site_symmetry_multiplicity
 _atom_site_fract_x
 _atom_site_fract_y
 _atom_site_fract_z
 _atom_site_occupancy
  Fe  Fe0  1  0.49975500  0.49997000  0.49991200  1
  Fe  Fe1  1  0.00006800  0.50005900  0.00007900  1
  Fe  Fe2  1  0.49997800  0.99999100  0.50006100  1
  Fe  Fe3  1  0.00013300  0.99986800  0.99992800  1
  Fe  Fe4  1  0.48121300  0.75050500  0.22036600  1
  Fe  Fe5  1  0.98015600  0.24985400  0.27951200  1
  Fe  Fe6  1  0.51876200  0.24960900  0.77956600  1
  Fe  Fe7  1  0.01984000  0.75018100  0.72060600  1
  Si  Si0  1  0.92637600  0.74777600  0.40422000  1
  Si  Si1  1  0.42545800  0.24819600  0.09550900  1
  Si  Si2  1  0.07359800  0.25219100  0.59580100  1
  Si  Si3  1  0.57456200  0.75181200  0.90446900  1
  O  O0  1  0.79018700  0.74260200  0.54888500  1
  O  O1  1  0.29028900  0.24269900  0.95052100  1
  O  O2  1  0.20986700  0.25737000  0.45112200  1
  O  O3  1  0.70970200  0.75730400  0.04946700  1
  O  O4  1  0.23938200  0.75473600  0.90630600  1
  O  O5  1  0.73843700  0.25397300  0.59398300  1
  O  O6  1  0.76062500  0.24526500  0.09370400  1
  O  O7  1  0.26159400  0.74591500  0.40600700  1
  O  O8  1  0.21618900  0.46071600  0.66810100  1
  O  O9  1  0.72035300  0.53381300  0.84099900  1
  O  O10  1  0.77969200  0.96537200  0.34048000  1
  O  O11  1  0.28272700  0.03975000  0.16801300  1
  O  O12  1  0.78377500  0.53926200  0.33191600  1
  O  O13  1  0.27970200  0.46627700  0.15897700  1
  O  O14  1  0.22034800  0.03461300  0.65951600  1
  O  O15  1  0.71723300  0.96032000  0.83197800  1
loop_
_geom_bond_atom_site_label_1
_geom_bond_atom_site_label_2
_geom_bond_distance
_geom_bond_site_symmetry_2
Fe0 O2 2.133679 1_555
Fe0 O0 2.136066 1_555
Fe0 O7 2.148854 1_555
Fe0 O5 2.151253 1_555
Fe0 O12 2.272175 1_555
Fe0 O8 2.272393 1_555
Fe1 O13 2.174074 1_555
Fe1 O9 2.175795 1_454
Fe1 O3 2.187554 1_455
Fe1 O1 2.188048 1_554
Fe1 O4 2.204222 1_554
Fe1 O6 2.204374 1_455
Fe2 O2 2.183725 1_565
Fe2 O0 2.183792 1_555
Fe2 O14 2.183839 1_565
Fe2 O10 2.185127 1_555
Fe2 O5 2.199628 1_565
Fe2 O7 2.200482 1_555
Fe3 O1 2.137444 1_565
Fe3 O3 2.137521 1_456
Fe3 O4 2.151065 1_555
Fe3 O6 2.153651 1_466
Fe3 O15 2.264838 1_455
Fe3 O11 2.265284 1_566
Fe4 O11 2.100591 1_565
Fe4 O13 2.122496 1_555
Fe4 O3 2.128723 1_555
Fe4 O7 2.241691 1_555
Fe4 O12 2.290039 1_555
Fe4 O10 2.352620 1_555
Fe5 O12 2.099372 1_555
Fe5 O10 2.119634 1_545
Fe5 O2 2.134662 1_655
Fe5 O6 2.239331 1_555
Fe5 O11 2.290897 1_655
Fe5 O13 2.364766 1_655
Fe6 O15 2.100952 1_545
Fe6 O9 2.122699 1_555
Fe6 O1 2.129202 1_555
Fe6 O5 2.241263 1_555
Fe6 O8 2.289136 1_555
Fe6 O14 2.352510 1_555
Fe7 O8 2.099886 1_555
Fe7 O14 2.119871 1_565
Fe7 O0 2.135524 1_455
Fe7 O4 2.238349 1_555
Fe7 O15 2.290436 1_455
Fe7 O9 2.363580 1_455
O0 Si0 1.671733 1_555
O1 Si1 1.670588 1_556
O2 Si2 1.672026 1_555
O3 Si3 1.670629 1_554
O4 Si3 1.637661 1_555
O5 Si2 1.637478 1_655
O6 Si1 1.637592 1_555
O7 Si0 1.637753 1_455
O8 Si2 1.657399 1_555
O9 Si3 1.662741 1_555
O10 Si0 1.660939 1_555
O11 Si1 1.657814 1_555
O12 Si0 1.657387 1_555
O13 Si1 1.663070 1_555
O14 Si2 1.660879 1_555
O15 Si3 1.657924 1_555
