# generated using pymatgen
data_CeYMg6
_symmetry_space_group_name_H-M   'P 1'
_cell_length_a   5.32635800
_cell_length_b   6.71639800
_cell_length_c   11.55733200
_cell_angle_alpha   90.00000000
_cell_angle_beta   90.00000000
_cell_angle_gamma   90.00000000
_symmetry_Int_Tables_number   1
_chemical_formula_structural   CeYMg6
_chemical_formula_sum   'Ce2 Y2 Mg12'
_cell_volume   413.45130405
_cell_formula_units_Z   2
loop_
 _symmetry_equiv_pos_site_id
 _symmetry_equiv_pos_as_xyz
  1  'x, y, z'
loop_
 _atom_site_type_symbol
 _atom_site_label
 _atom_site_symmetry_multiplicity
 _atom_site_fract_x
 _atom_site_fract_y
 _atom_site_fract_z
 _atom_site_occupancy
  Ce  Ce0  1  0.50000000  0.50000000  0.83582100  1
  Ce  Ce1  1  0.50000000  0.00000000  0.33582100  1
  Y  Y0  1  0.50000000  0.50000000  0.33708000  1
  Y  Y1  1  0.50000000  0.00000000  0.83708000  1
  Mg  Mg0  1  0.50000000  0.24864900  0.08265500  1
  Mg  Mg1  1  0.50000000  0.75135100  0.08265500  1
  Mg  Mg2  1  0.00000000  0.25025000  0.91812500  1
  Mg  Mg3  1  0.00000000  0.74975000  0.91812500  1
  Mg  Mg4  1  0.00000000  0.50000000  0.16300600  1
  Mg  Mg5  1  0.00000000  0.50000000  0.66253800  1
  Mg  Mg6  1  0.50000000  0.74864900  0.58265500  1
  Mg  Mg7  1  0.50000000  0.25135100  0.58265500  1
  Mg  Mg8  1  0.00000000  0.75025000  0.41812500  1
  Mg  Mg9  1  0.00000000  0.24975000  0.41812500  1
  Mg  Mg10  1  0.00000000  0.00000000  0.66300600  1
  Mg  Mg11  1  0.00000000  0.00000000  0.16253800  1
loop_
_geom_bond_atom_site_label_1
_geom_bond_atom_site_label_2
_geom_bond_distance
_geom_bond_site_symmetry_2
Ce0 Mg2 3.288019 1_555
Ce0 Mg2 3.288019 1_655
Ce0 Mg3 3.288019 1_555
Ce0 Mg3 3.288019 1_655
Ce0 Mg1 3.314826 1_556
Ce0 Mg0 3.314826 1_556
Ce0 Mg5 3.332159 1_655
Ce0 Mg5 3.332159 1_555
Ce0 Y1 3.358231 1_565
Ce0 Y1 3.358231 1_555
Ce0 Mg7 3.368978 1_555
Ce0 Mg6 3.368978 1_555
Ce1 Mg8 3.288019 1_545
Ce1 Mg8 3.288019 1_645
Ce1 Mg9 3.288019 1_555
Ce1 Mg9 3.288019 1_655
Ce1 Mg6 3.314826 1_545
Ce1 Mg7 3.314826 1_555
Ce1 Mg11 3.332159 1_555
Ce1 Mg11 3.332159 1_655
Ce1 Y0 3.358231 1_545
Ce1 Y0 3.358231 1_555
Ce1 Mg0 3.368978 1_555
Ce1 Mg1 3.368978 1_545
Mg0 Mg2 3.272376 1_654
Mg0 Mg2 3.272376 1_554
Mg0 Mg11 3.276258 1_555
Mg0 Mg11 3.276258 1_655
Mg0 Mg4 3.287070 1_655
Mg0 Mg4 3.287070 1_555
Mg0 Y1 3.293071 1_554
Mg0 Mg1 3.340051 1_545
Mg0 Mg1 3.376347 1_555
Mg0 Y0 3.390622 1_555
Mg1 Mg3 3.272376 1_554
Mg1 Mg3 3.272376 1_654
Mg1 Mg11 3.276258 1_665
Mg1 Mg11 3.276258 1_565
Mg1 Mg4 3.287070 1_655
Mg1 Mg4 3.287070 1_555
Mg1 Y1 3.293071 1_564
Mg1 Y0 3.390622 1_555
Mg2 Y1 3.285556 1_455
Mg2 Y1 3.285556 1_555
Mg2 Mg4 3.289925 1_556
Mg2 Mg3 3.354841 1_555
Mg2 Mg3 3.361557 1_545
Mg2 Mg5 3.396953 1_555
Mg3 Y1 3.285556 1_565
Mg3 Y1 3.285556 1_465
Mg3 Mg4 3.289925 1_556
Mg3 Mg5 3.396953 1_555
Mg4 Y0 3.337662 1_455
Mg4 Y0 3.337662 1_555
Mg4 Mg9 3.393912 1_555
Mg4 Mg8 3.393912 1_555
Mg5 Mg7 3.276258 1_555
Mg5 Mg6 3.276258 1_455
Mg5 Mg6 3.276258 1_555
Mg5 Mg7 3.276258 1_455
Mg5 Mg9 3.286989 1_555
Mg5 Mg8 3.286989 1_555
Mg6 Mg8 3.272376 1_555
Mg6 Mg8 3.272376 1_655
Mg6 Y0 3.293071 1_555
Mg6 Mg7 3.340051 1_555
Mg6 Mg7 3.376347 1_565
Mg6 Y1 3.390622 1_565
Mg7 Mg9 3.272376 1_555
Mg7 Mg9 3.272376 1_655
Mg7 Y0 3.293071 1_555
Mg7 Y1 3.390622 1_555
Mg8 Y0 3.285556 1_455
Mg8 Y0 3.285556 1_555
Mg8 Mg9 3.354841 1_565
Mg8 Mg9 3.361557 1_555
Mg9 Y0 3.285556 1_555
Mg9 Y0 3.285556 1_455
Mg10 Mg7 3.287070 1_555
Mg10 Mg6 3.287070 1_545
Mg10 Mg6 3.287070 1_445
Mg10 Mg7 3.287070 1_455
Mg10 Mg8 3.289925 1_545
Mg10 Mg9 3.289925 1_555
Mg10 Y1 3.337662 1_555
Mg10 Y1 3.337662 1_455
Mg10 Mg5 3.358203 1_545
Mg10 Mg5 3.358203 1_555
Mg10 Mg3 3.393912 1_545
Mg10 Mg2 3.393912 1_555
Mg11 Mg3 3.286989 1_544
Mg11 Mg2 3.286989 1_554
Mg11 Mg4 3.358203 1_555
Mg11 Mg4 3.358203 1_545
Mg11 Mg8 3.396953 1_545
Mg11 Mg9 3.396953 1_555
