# generated using pymatgen
data_La4Nb(CoO4)3
_symmetry_space_group_name_H-M   'P 1'
_cell_length_a   5.62924400
_cell_length_b   5.73785785
_cell_length_c   8.03154368
_cell_angle_alpha   89.94548933
_cell_angle_beta   89.92925365
_cell_angle_gamma   89.51231886
_symmetry_Int_Tables_number   1
_chemical_formula_structural   La4Nb(CoO4)3
_chemical_formula_sum   'La4 Nb1 Co3 O12'
_cell_volume   259.40755975
_cell_formula_units_Z   1
loop_
 _symmetry_equiv_pos_site_id
 _symmetry_equiv_pos_as_xyz
  1  'x, y, z'
loop_
 _atom_site_type_symbol
 _atom_site_label
 _atom_site_symmetry_multiplicity
 _atom_site_fract_x
 _atom_site_fract_y
 _atom_site_fract_z
 _atom_site_occupancy
  La  La0  1  0.99149600  0.04118700  0.73607200  1
  La  La1  1  0.48787100  0.44316400  0.26059700  1
  La  La2  1  0.00850400  0.95881300  0.26392800  1
  La  La3  1  0.51212900  0.55683600  0.73940300  1
  Nb  Nb0  1  0.00000000  0.50000000  0.00000000  1
  Co  Co0  1  0.00000000  0.50000000  0.50000000  1
  Co  Co1  1  0.50000000  0.00000000  0.00000000  1
  Co  Co2  1  0.50000000  0.00000000  0.50000000  1
  O  O0  1  0.09376400  0.47374100  0.75709000  1
  O  O1  1  0.59462700  0.03208900  0.24966400  1
  O  O2  1  0.90623600  0.52625900  0.24291000  1
  O  O3  1  0.40537300  0.96791100  0.75033600  1
  O  O4  1  0.79536100  0.79249500  0.54673500  1
  O  O5  1  0.28451100  0.69655000  0.05121900  1
  O  O6  1  0.20463900  0.20750500  0.45326500  1
  O  O7  1  0.71548900  0.30345000  0.94878100  1
  O  O8  1  0.69431800  0.28153200  0.54677900  1
  O  O9  1  0.19755500  0.21332500  0.05382100  1
  O  O10  1  0.30568200  0.71846800  0.45322100  1
  O  O11  1  0.80244500  0.78667500  0.94617900  1
loop_
_geom_bond_atom_site_label_1
_geom_bond_atom_site_label_2
_geom_bond_distance
_geom_bond_site_symmetry_2
La0 O3 2.366818 1_645
La0 O4 2.367015 1_545
La0 O11 2.475907 1_545
La0 O0 2.558373 1_655
La0 O8 2.640975 1_555
La0 O6 2.741915 1_655
La0 O7 2.748750 1_555
La0 O9 2.977490 1_656
La1 O2 2.410822 1_555
La1 O1 2.430722 1_555
La1 O10 2.431812 1_555
La1 O5 2.494781 1_555
La1 O6 2.606066 1_555
La1 O9 2.686183 1_555
La1 O8 2.734575 1_555
La1 O7 2.921417 1_554
La2 O1 2.366818 1_465
La2 O6 2.367015 1_565
La2 O9 2.475907 1_565
La2 O2 2.558373 1_455
La2 O10 2.640975 1_555
La2 O4 2.741915 1_455
La2 O5 2.748750 1_555
La2 O11 2.977490 1_454
La3 O0 2.410822 1_555
La3 O3 2.430722 1_555
La3 O8 2.431812 1_555
La3 O7 2.494781 1_555
La3 O4 2.606066 1_555
La3 O11 2.686183 1_555
La3 O10 2.734575 1_555
La3 O5 2.921417 1_556
Nb0 O5 2.009832 1_555
Nb0 O7 2.009832 1_454
Nb0 O9 2.024347 1_555
Nb0 O11 2.024347 1_454
Nb0 O2 2.025866 1_455
Nb0 O0 2.025866 1_554
Co0 O6 2.061990 1_555
Co0 O4 2.061990 1_455
Co0 O0 2.136718 1_555
Co0 O2 2.136718 1_455
Co0 O10 2.169735 1_555
Co0 O8 2.169735 1_455
Co1 O1 2.084091 1_555
Co1 O3 2.084091 1_544
Co1 O9 2.132474 1_555
Co1 O11 2.132474 1_544
Co1 O5 2.169254 1_545
Co1 O7 2.169254 1_554
Co2 O8 1.994851 1_555
Co2 O10 1.994851 1_545
Co2 O4 2.071214 1_545
Co2 O6 2.071214 1_555
Co2 O1 2.087682 1_555
Co2 O3 2.087682 1_545
