# generated using pymatgen
data_RbC2N3
_symmetry_space_group_name_H-M   'P 1'
_cell_length_a   8.66824226
_cell_length_b   8.66824226
_cell_length_c   14.62391335
_cell_angle_alpha   68.56943028
_cell_angle_beta   68.56943028
_cell_angle_gamma   71.98714114
_symmetry_Int_Tables_number   1
_chemical_formula_structural   RbC2N3
_chemical_formula_sum   'Rb8 C16 N24'
_cell_volume   932.34164136
_cell_formula_units_Z   8
loop_
 _symmetry_equiv_pos_site_id
 _symmetry_equiv_pos_as_xyz
  1  'x, y, z'
loop_
 _atom_site_type_symbol
 _atom_site_label
 _atom_site_symmetry_multiplicity
 _atom_site_fract_x
 _atom_site_fract_y
 _atom_site_fract_z
 _atom_site_occupancy
  Rb  Rb0  1  0.84003000  0.82850400  0.37081900  1
  Rb  Rb1  1  0.17149600  0.15997000  0.12918100  1
  Rb  Rb2  1  0.15997000  0.17149600  0.62918100  1
  Rb  Rb3  1  0.82850400  0.84003000  0.87081900  1
  Rb  Rb4  1  0.66148200  0.30081200  0.08611700  1
  Rb  Rb5  1  0.69918800  0.33851800  0.41388300  1
  Rb  Rb6  1  0.33851800  0.69918800  0.91388300  1
  Rb  Rb7  1  0.30081200  0.66148200  0.58611700  1
  C  C0  1  0.93176800  0.84208000  0.10924300  1
  C  C1  1  0.15792000  0.06823200  0.39075700  1
  C  C2  1  0.06823200  0.15792000  0.89075700  1
  C  C3  1  0.84208000  0.93176800  0.60924300  1
  C  C4  1  0.89275000  0.58368300  0.12330000  1
  C  C5  1  0.41631700  0.10725000  0.37670000  1
  C  C6  1  0.10725000  0.41631700  0.87670000  1
  C  C7  1  0.58368300  0.89275000  0.62330000  1
  C  C8  1  0.19265200  0.51284200  0.38224000  1
  C  C9  1  0.48715800  0.80734800  0.11776000  1
  C  C10  1  0.80734800  0.48715800  0.61776000  1
  C  C11  1  0.51284200  0.19265200  0.88224000  1
  C  C12  1  0.21906000  0.48297700  0.22642300  1
  C  C13  1  0.51702300  0.78094000  0.27357700  1
  C  C14  1  0.78094000  0.51702300  0.77357700  1
  C  C15  1  0.48297700  0.21906000  0.72642300  1
  N  N0  1  0.92882400  0.95359700  0.13866100  1
  N  N1  1  0.04640300  0.07117600  0.36133900  1
  N  N2  1  0.07117600  0.04640300  0.86133900  1
  N  N3  1  0.95359700  0.92882400  0.63866100  1
  N  N4  1  0.94038500  0.72715100  0.06882000  1
  N  N5  1  0.27284900  0.05961500  0.43118000  1
  N  N6  1  0.05961500  0.27284900  0.93118000  1
  N  N7  1  0.72715100  0.94038500  0.56882000  1
  N  N8  1  0.85277900  0.45064000  0.16493500  1
  N  N9  1  0.54936000  0.14722100  0.33506500  1
  N  N10  1  0.14722100  0.54936000  0.83506500  1
  N  N11  1  0.45064000  0.85277900  0.66493500  1
  N  N12  1  0.22878700  0.49939700  0.45587800  1
  N  N13  1  0.50060300  0.77121300  0.04412200  1
  N  N14  1  0.77121300  0.50060300  0.54412200  1
  N  N15  1  0.49939700  0.22878700  0.95587800  1
  N  N16  1  0.13518200  0.53867300  0.30597900  1
  N  N17  1  0.46132700  0.86481800  0.19402100  1
  N  N18  1  0.86481800  0.46132700  0.69402100  1
  N  N19  1  0.53867300  0.13518200  0.80597900  1
  N  N20  1  0.28290900  0.43812000  0.15113500  1
  N  N21  1  0.56188000  0.71709100  0.34886500  1
  N  N22  1  0.71709100  0.56188000  0.84886500  1
  N  N23  1  0.43812000  0.28290900  0.65113500  1
loop_
_geom_bond_atom_site_label_1
_geom_bond_atom_site_label_2
_geom_bond_distance
_geom_bond_site_symmetry_2
C0 N0 1.183539 1_555
C0 N4 1.303675 1_555
C1 N1 1.183539 1_555
C1 N5 1.303675 1_555
C2 N2 1.183539 1_555
C2 N6 1.303675 1_555
C3 N3 1.183539 1_555
C3 N7 1.303675 1_555
C4 N8 1.183470 1_555
C4 N4 1.305751 1_555
C5 N9 1.183470 1_555
C5 N5 1.305751 1_555
C6 N10 1.183470 1_555
C6 N6 1.305751 1_555
C7 N11 1.183470 1_555
C7 N7 1.305751 1_555
C8 N12 1.184716 1_555
C8 N16 1.302524 1_555
C9 N13 1.184716 1_555
C9 N17 1.302524 1_555
C10 N14 1.184716 1_555
C10 N18 1.302524 1_555
C11 N15 1.184716 1_555
C11 N19 1.302524 1_555
C12 N20 1.184978 1_555
C12 N16 1.300188 1_555
C13 N21 1.184978 1_555
C13 N17 1.300188 1_555
C14 N22 1.184978 1_555
C14 N18 1.300188 1_555
C15 N23 1.184978 1_555
C15 N19 1.300188 1_555
N0 Rb0 3.034978 1_555
N0 Rb1 3.094700 1_665
N0 Rb4 3.211994 1_565
N1 Rb1 3.034978 1_555
N1 Rb0 3.094700 1_445
N1 Rb5 3.211994 1_455
N2 Rb2 3.034978 1_555
N2 Rb3 3.094700 1_445
N2 Rb6 3.211994 1_545
N3 Rb3 3.034978 1_555
N3 Rb2 3.094700 1_665
N3 Rb7 3.211994 1_655
N4 Rb3 3.110780 1_554
N4 Rb6 3.357474 1_654
N5 Rb2 3.110780 1_555
N5 Rb7 3.357474 1_545
N6 Rb1 3.110780 1_556
N6 Rb4 3.357474 1_456
N7 Rb0 3.110780 1_555
N7 Rb5 3.357474 1_565
N8 Rb4 3.096359 1_555
N8 Rb1 3.139491 1_655
N8 Rb5 3.262485 1_555
N9 Rb5 3.096359 1_555
N9 Rb0 3.139491 1_545
N9 Rb4 3.262485 1_555
N10 Rb6 3.096359 1_555
N10 Rb3 3.139491 1_455
N10 Rb7 3.262485 1_555
N11 Rb7 3.096359 1_555
N11 Rb2 3.139491 1_565
N11 Rb6 3.262485 1_555
N12 Rb7 3.059115 1_555
N12 Rb2 3.088300 1_555
N13 Rb6 3.059115 1_554
N13 Rb3 3.088300 1_554
N14 Rb5 3.059115 1_555
N14 Rb0 3.088300 1_555
N15 Rb4 3.059115 1_556
N15 Rb1 3.088300 1_556
N16 Rb0 3.122393 1_455
N17 Rb1 3.122393 1_565
N18 Rb2 3.122393 1_655
N19 Rb3 3.122393 1_545
N20 Rb1 3.013527 1_555
N20 Rb4 3.036557 1_555
N20 Rb6 3.332612 1_554
N21 Rb0 3.013527 1_555
N21 Rb5 3.036557 1_555
N21 Rb7 3.332612 1_555
N22 Rb3 3.013527 1_555
N22 Rb6 3.036557 1_555
N22 Rb4 3.332612 1_556
N23 Rb2 3.013527 1_555
N23 Rb7 3.036557 1_555
N23 Rb5 3.332612 1_555
