# generated using pymatgen
data_Tm4MgCo
_symmetry_space_group_name_H-M   'P 1'
_cell_length_a   9.41177033
_cell_length_b   9.41161608
_cell_length_c   9.41174239
_cell_angle_alpha   60.00003171
_cell_angle_beta   59.99981547
_cell_angle_gamma   59.99953040
_symmetry_Int_Tables_number   1
_chemical_formula_structural   Tm4MgCo
_chemical_formula_sum   'Tm16 Mg4 Co4'
_cell_volume   589.50638703
_cell_formula_units_Z   4
loop_
 _symmetry_equiv_pos_site_id
 _symmetry_equiv_pos_as_xyz
  1  'x, y, z'
loop_
 _atom_site_type_symbol
 _atom_site_label
 _atom_site_symmetry_multiplicity
 _atom_site_fract_x
 _atom_site_fract_y
 _atom_site_fract_z
 _atom_site_occupancy
  Tm  Tm0  1  0.34316693  0.34325043  0.34316928  1
  Tm  Tm1  1  0.34316472  0.34324622  0.97042411  1
  Tm  Tm2  1  0.34319689  0.97040376  0.34320198  1
  Tm  Tm3  1  0.97042650  0.34324646  0.34316360  1
  Tm  Tm4  1  0.81368904  0.18631907  0.18631624  1
  Tm  Tm5  1  0.18630871  0.81364100  0.81374978  1
  Tm  Tm6  1  0.18630842  0.81363968  0.18631186  1
  Tm  Tm7  1  0.81369219  0.18631862  0.81368304  1
  Tm  Tm8  1  0.18631403  0.18631830  0.81368619  1
  Tm  Tm9  1  0.81374986  0.81363821  0.18631144  1
  Tm  Tm10  1  0.93793083  0.56208102  0.56205073  1
  Tm  Tm11  1  0.56208307  0.93791051  0.93792542  1
  Tm  Tm12  1  0.56208126  0.93790518  0.56208263  1
  Tm  Tm13  1  0.93793708  0.56208157  0.93793309  1
  Tm  Tm14  1  0.56205190  0.56208287  0.93792820  1
  Tm  Tm15  1  0.93792960  0.93791084  0.56208211  1
  Mg  Mg0  1  0.57852097  0.57851615  0.57851947  1
  Mg  Mg1  1  0.57851160  0.57850565  0.26443860  1
  Mg  Mg2  1  0.57850595  0.26444763  0.57850505  1
  Mg  Mg3  1  0.26443429  0.57850806  0.57851225  1
  Co  Co0  1  0.14015585  0.14017068  0.14017120  1
  Co  Co1  1  0.14016872  0.14016888  0.57950665  1
  Co  Co2  1  0.14016481  0.57951908  0.14015671  1
  Co  Co3  1  0.57950881  0.14017013  0.14017037  1
loop_
_geom_bond_atom_site_label_1
_geom_bond_atom_site_label_2
_geom_bond_distance
_geom_bond_site_symmetry_2
Tm0 Tm10 3.400380 1_455
Tm0 Tm14 3.400445 1_554
Tm0 Tm12 3.401280 1_545
Tm1 Tm13 3.400382 1_455
Tm1 Tm14 3.400396 1_555
Tm1 Tm11 3.401230 1_545
Tm10 Tm3 3.400363 1_555
Tm10 Tm9 3.531387 1_555
Tm10 Tm6 3.531453 1_655
Tm10 Tm7 3.531809 1_555
Tm10 Tm8 3.531900 1_655
Tm10 Tm12 3.537236 1_555
Tm10 Tm15 3.537308 1_555
Tm10 Tm14 3.537664 1_555
Tm10 Tm13 3.537740 1_555
Tm11 Tm2 3.400783 1_556
Tm11 Tm8 3.531889 1_565
Tm11 Tm7 3.531943 1_565
Tm11 Tm6 3.532090 1_556
Tm11 Tm9 3.532151 1_556
Tm11 Tm14 3.537279 1_555
Tm11 Tm13 3.537280 1_555
Tm11 Tm15 3.537351 1_555
Tm11 Tm12 3.537369 1_555
Tm12 Tm2 3.400738 1_555
Tm12 Tm8 3.531891 1_565
Tm12 Tm4 3.531942 1_565
Tm12 Tm9 3.532022 1_555
Tm12 Tm5 3.532043 1_555
Tm12 Tm14 3.537230 1_555
Tm12 Tm15 3.537422 1_555
Tm13 Tm3 3.400407 1_556
Tm13 Tm9 3.531446 1_556
Tm13 Tm5 3.531452 1_655
Tm13 Tm8 3.531826 1_655
Tm13 Tm4 3.531854 1_556
Tm13 Tm15 3.537288 1_555
Tm13 Tm14 3.537762 1_555
Tm14 Tm5 3.531401 1_555
Tm14 Tm6 3.531458 1_556
Tm14 Tm7 3.531826 1_555
Tm14 Tm4 3.531934 1_556
Tm15 Tm2 3.400721 1_655
Tm15 Tm3 3.401244 1_565
Tm15 Tm7 3.531867 1_565
Tm15 Tm4 3.531876 1_565
Tm15 Tm6 3.532034 1_655
Tm15 Tm5 3.532111 1_655
Mg0 Mg2 2.956031 1_555
Mg0 Mg1 2.956142 1_555
Mg0 Mg3 2.956184 1_555
Mg0 Tm12 3.235125 1_555
Mg0 Tm14 3.235247 1_555
Mg0 Tm10 3.235260 1_555
Mg0 Tm2 3.461456 1_555
Mg0 Tm3 3.461462 1_555
Mg0 Tm7 3.461468 1_555
Mg0 Tm1 3.461487 1_555
Mg0 Tm9 3.461600 1_555
Mg0 Tm5 3.461607 1_555
Mg1 Mg2 2.955854 1_555
Mg1 Mg3 2.955994 1_555
Mg1 Tm14 3.235182 1_554
Mg1 Tm11 3.235232 1_554
Mg1 Tm13 3.235325 1_554
Mg1 Tm0 3.461234 1_555
Mg1 Tm4 3.461290 1_555
Mg1 Tm6 3.461497 1_555
Mg1 Tm2 3.461548 1_555
Mg1 Tm3 3.461584 1_555
Mg1 Tm9 3.461818 1_555
Mg2 Mg3 2.955872 1_555
Mg2 Tm12 3.235261 1_545
Mg2 Tm15 3.235416 1_545
Mg2 Tm11 3.235421 1_545
Mg2 Tm4 3.461379 1_555
Mg2 Tm8 3.461426 1_555
Mg2 Tm0 3.461568 1_555
Mg2 Tm7 3.461779 1_555
Mg2 Tm1 3.461903 1_555
Mg2 Tm3 3.461935 1_555
Mg3 Tm10 3.235158 1_455
Mg3 Tm15 3.235166 1_455
Mg3 Tm13 3.235266 1_455
Mg3 Tm0 3.461211 1_555
Mg3 Tm8 3.461332 1_555
Mg3 Tm6 3.461477 1_555
Mg3 Tm2 3.461550 1_555
Mg3 Tm1 3.461587 1_555
Mg3 Tm5 3.461800 1_555
Co0 Tm4 2.708862 1_455
Co0 Tm8 2.708985 1_554
Co0 Tm6 2.709401 1_545
Co0 Tm3 2.720514 1_455
Co0 Tm2 2.720534 1_545
Co0 Tm1 2.720634 1_554
Co0 Tm13 3.394102 1_454
Co0 Tm15 3.394212 1_445
Co0 Tm11 3.394335 1_544
Co1 Tm8 2.708918 1_555
Co1 Tm7 2.708919 1_455
Co1 Tm5 2.709414 1_545
Co1 Tm2 2.720491 1_545
Co1 Tm0 2.720607 1_555
Co1 Tm3 2.720653 1_455
Co1 Tm10 3.394088 1_455
Co1 Tm12 3.394224 1_545
Co1 Tm15 3.394294 1_445
Co2 Tm5 2.708325 1_554
Co2 Tm9 2.708350 1_455
Co2 Tm6 2.708379 1_555
Co2 Tm1 2.720056 1_554
Co2 Tm3 2.720113 1_455
Co2 Tm0 2.720138 1_555
Co2 Tm14 3.393997 1_554
Co2 Tm13 3.394012 1_454
Co2 Tm10 3.394041 1_455
Co3 Tm4 2.708933 1_555
Co3 Tm7 2.709009 1_554
Co3 Tm9 2.709419 1_545
Co3 Tm2 2.720574 1_545
Co3 Tm0 2.720584 1_555
Co3 Tm1 2.720684 1_554
Co3 Tm14 3.394106 1_554
Co3 Tm12 3.394220 1_545
Co3 Tm11 3.394349 1_544
