# generated using pymatgen
data_Li2V2(PO4)3
_symmetry_space_group_name_H-M   'P 1'
_cell_length_a   8.63631300
_cell_length_b   8.76140400
_cell_length_c   12.10594700
_cell_angle_alpha   90.00000000
_cell_angle_beta   90.00000000
_cell_angle_gamma   90.00000000
_symmetry_Int_Tables_number   1
_chemical_formula_structural   Li2V2(PO4)3
_chemical_formula_sum   'Li8 V8 P12 O48'
_cell_volume   916.01133694
_cell_formula_units_Z   4
loop_
 _symmetry_equiv_pos_site_id
 _symmetry_equiv_pos_as_xyz
  1  'x, y, z'
loop_
 _atom_site_type_symbol
 _atom_site_label
 _atom_site_symmetry_multiplicity
 _atom_site_fract_x
 _atom_site_fract_y
 _atom_site_fract_z
 _atom_site_occupancy
  Li  Li0  1  0.71251300  0.77956100  0.31658200  1
  Li  Li1  1  0.78748700  0.27956100  0.18341800  1
  Li  Li2  1  0.78748700  0.22043900  0.81658200  1
  Li  Li3  1  0.71251300  0.72043900  0.68341800  1
  Li  Li4  1  0.28748700  0.22043900  0.68341800  1
  Li  Li5  1  0.21251300  0.72043900  0.81658200  1
  Li  Li6  1  0.21251300  0.77956100  0.18341800  1
  Li  Li7  1  0.28748700  0.27956100  0.31658200  1
  V  V0  1  0.74668400  0.96601800  0.11265700  1
  V  V1  1  0.75331600  0.46601800  0.38734300  1
  V  V2  1  0.75331600  0.03398200  0.61265700  1
  V  V3  1  0.74668400  0.53398200  0.88734300  1
  V  V4  1  0.25331600  0.03398200  0.88734300  1
  V  V5  1  0.24668400  0.53398200  0.61265700  1
  V  V6  1  0.24668400  0.96601800  0.38734300  1
  V  V7  1  0.25331600  0.46601800  0.11265700  1
  P  P0  1  0.89465700  0.60682700  0.14628300  1
  P  P1  1  0.60534300  0.10682700  0.35371700  1
  P  P2  1  0.60534300  0.39317300  0.64628300  1
  P  P3  1  0.89465700  0.89317300  0.85371700  1
  P  P4  1  0.10534300  0.39317300  0.85371700  1
  P  P5  1  0.39465700  0.89317300  0.64628300  1
  P  P6  1  0.39465700  0.60682700  0.35371700  1
  P  P7  1  0.10534300  0.10682700  0.14628300  1
  P  P8  1  0.96266600  0.75000000  0.50000000  1
  P  P9  1  0.53733400  0.25000000  0.00000000  1
  P  P10  1  0.03733400  0.25000000  0.50000000  1
  P  P11  1  0.46266600  0.75000000  0.00000000  1
  O  O0  1  0.83690000  0.76846200  0.17620900  1
  O  O1  1  0.66310000  0.26846200  0.32379100  1
  O  O2  1  0.66310000  0.23153800  0.67620900  1
  O  O3  1  0.83690000  0.73153800  0.82379100  1
  O  O4  1  0.16310000  0.23153800  0.82379100  1
  O  O5  1  0.33690000  0.73153800  0.67620900  1
  O  O6  1  0.33690000  0.76846200  0.32379100  1
  O  O7  1  0.16310000  0.26846200  0.17620900  1
  O  O8  1  0.85567400  0.66596100  0.41739900  1
  O  O9  1  0.64432600  0.16596100  0.08260100  1
  O  O10  1  0.64432600  0.33403900  0.91739900  1
  O  O11  1  0.85567400  0.83403900  0.58260100  1
  O  O12  1  0.14432600  0.33403900  0.58260100  1
  O  O13  1  0.35567400  0.83403900  0.91739900  1
  O  O14  1  0.35567400  0.66596100  0.08260100  1
  O  O15  1  0.14432600  0.16596100  0.41739900  1
  O  O16  1  0.57396400  0.60562200  0.34431900  1
  O  O17  1  0.92603600  0.10562200  0.15568100  1
  O  O18  1  0.92603600  0.39437800  0.84431900  1
  O  O19  1  0.57396400  0.89437800  0.65568100  1
  O  O20  1  0.42603600  0.39437800  0.65568100  1
  O  O21  1  0.07396400  0.89437800  0.84431900  1
  O  O22  1  0.07396400  0.60562200  0.15568100  1
  O  O23  1  0.42603600  0.10562200  0.34431900  1
  O  O24  1  0.84509600  0.55686400  0.02995600  1
  O  O25  1  0.65490400  0.05686400  0.47004400  1
  O  O26  1  0.65490400  0.44313600  0.52995600  1
  O  O27  1  0.84509600  0.94313600  0.97004400  1
  O  O28  1  0.15490400  0.44313600  0.97004400  1
  O  O29  1  0.34509600  0.94313600  0.52995600  1
  O  O30  1  0.34509600  0.55686400  0.47004400  1
  O  O31  1  0.15490400  0.05686400  0.02995600  1
  O  O32  1  0.56056600  0.86249800  0.06731000  1
  O  O33  1  0.93943400  0.36249800  0.43269000  1
  O  O34  1  0.93943400  0.13750200  0.56731000  1
  O  O35  1  0.56056600  0.63750200  0.93269000  1
  O  O36  1  0.43943400  0.13750200  0.93269000  1
  O  O37  1  0.06056600  0.63750200  0.56731000  1
  O  O38  1  0.06056600  0.86249800  0.43269000  1
  O  O39  1  0.43943400  0.36249800  0.06731000  1
  O  O40  1  0.67367900  0.98792100  0.27139000  1
  O  O41  1  0.82632100  0.48792100  0.22861000  1
  O  O42  1  0.82632100  0.01207900  0.77139000  1
  O  O43  1  0.67367900  0.51207900  0.72861000  1
  O  O44  1  0.32632100  0.01207900  0.72861000  1
  O  O45  1  0.17367900  0.51207900  0.77139000  1
  O  O46  1  0.17367900  0.98792100  0.22861000  1
  O  O47  1  0.32632100  0.48792100  0.27139000  1
loop_
_geom_bond_atom_site_label_1
_geom_bond_atom_site_label_2
_geom_bond_distance
_geom_bond_site_symmetry_2
Li0 O40 1.935029 1_555
Li0 O16 1.966446 1_555
Li0 O8 2.002209 1_555
Li0 O0 2.012770 1_555
Li1 O41 1.935029 1_555
Li1 O17 1.966446 1_555
Li1 O9 2.002209 1_555
Li1 O1 2.012770 1_555
Li2 O42 1.935029 1_555
Li2 O18 1.966446 1_555
Li2 O10 2.002209 1_555
Li2 O2 2.012770 1_555
Li3 O43 1.935029 1_555
Li3 O19 1.966446 1_555
Li3 O11 2.002209 1_555
Li3 O3 2.012770 1_555
Li4 O44 1.935029 1_555
Li4 O20 1.966446 1_555
Li4 O12 2.002209 1_555
Li4 O4 2.012770 1_555
Li5 O45 1.935029 1_555
Li5 O21 1.966446 1_555
Li5 O13 2.002209 1_555
Li5 O5 2.012770 1_555
Li6 O46 1.935029 1_555
Li6 O22 1.966446 1_555
Li6 O14 2.002209 1_555
Li6 O6 2.012770 1_555
Li7 O47 1.935029 1_555
Li7 O23 1.966446 1_555
Li7 O15 2.002209 1_555
Li7 O7 2.012770 1_555
O0 P0 1.544518 1_555
O0 V0 2.048137 1_555
O1 P1 1.544518 1_555
O1 V1 2.048137 1_555
O2 P2 1.544518 1_555
O2 V2 2.048137 1_555
O3 P3 1.544518 1_555
O3 V3 2.048137 1_555
O4 P4 1.544518 1_555
O4 V4 2.048137 1_555
O5 P5 1.544518 1_555
O5 V5 2.048137 1_555
O6 P6 1.544518 1_555
O6 V6 2.048137 1_555
O7 P7 1.544518 1_555
O7 V7 2.048137 1_555
O8 P8 1.547860 1_555
O8 V1 1.995640 1_555
O9 P9 1.547860 1_555
O9 V0 1.995640 1_545
O10 P9 1.547860 1_556
O10 V3 1.995640 1_555
O11 P8 1.547860 1_555
O11 V2 1.995640 1_565
O12 P10 1.547860 1_555
O12 V5 1.995640 1_555
O13 P11 1.547860 1_556
O13 V4 1.995640 1_565
O14 P11 1.547860 1_555
O14 V7 1.995640 1_555
O15 P10 1.547860 1_555
O15 V6 1.995640 1_545
O16 P6 1.552761 1_555
O16 V1 2.041209 1_555
O17 P7 1.552761 1_655
O17 V0 2.041209 1_545
O18 P4 1.552761 1_655
O18 V3 2.041209 1_555
O19 P5 1.552761 1_555
O19 V2 2.041209 1_565
O20 P2 1.552761 1_555
O20 V5 2.041209 1_555
O21 P3 1.552761 1_455
O21 V4 2.041209 1_565
O22 P0 1.552761 1_455
O22 V7 2.041209 1_555
O23 P1 1.552761 1_555
O23 V6 2.041209 1_545
O24 P0 1.535575 1_555
O24 V3 1.934744 1_554
O25 P1 1.535575 1_555
O25 V2 1.934744 1_555
O26 P2 1.535575 1_555
O26 V1 1.934744 1_555
O27 P3 1.535575 1_555
O27 V0 1.934744 1_556
O28 P4 1.535575 1_555
O28 V7 1.934744 1_556
O29 P5 1.535575 1_555
O29 V6 1.934744 1_555
O30 P6 1.535575 1_555
O30 V5 1.934744 1_555
O31 P7 1.535575 1_555
O31 V4 1.934744 1_554
O32 P11 1.533079 1_555
O32 V0 1.925520 1_555
O33 P10 1.533079 1_655
O33 V1 1.925520 1_555
O34 P10 1.533079 1_655
O34 V2 1.925520 1_555
O35 P11 1.533079 1_556
O35 V3 1.925520 1_555
O36 P9 1.533079 1_556
O36 V4 1.925520 1_555
O37 P8 1.533079 1_455
O37 V5 1.925520 1_555
O38 P8 1.533079 1_455
O38 V6 1.925520 1_555
O39 P9 1.533079 1_555
O39 V7 1.925520 1_555
O40 P1 1.557857 1_565
O40 V0 2.031489 1_555
O41 P0 1.557857 1_555
O41 V1 2.031489 1_555
O42 P3 1.557857 1_545
O42 V2 2.031489 1_555
O43 P2 1.557857 1_555
O43 V3 2.031489 1_555
O44 P5 1.557857 1_545
O44 V4 2.031489 1_555
O45 P4 1.557857 1_555
O45 V5 2.031489 1_555
O46 P7 1.557857 1_565
O46 V6 2.031489 1_555
O47 P6 1.557857 1_555
O47 V7 2.031489 1_555
