# generated using pymatgen
data_Sr4Ga2O7
_symmetry_space_group_name_H-M   'P 1'
_cell_length_a   13.18094328
_cell_length_b   15.92953238
_cell_length_c   16.00032353
_cell_angle_alpha   90.00000000
_cell_angle_beta   90.72714109
_cell_angle_gamma   90.00000000
_symmetry_Int_Tables_number   1
_chemical_formula_structural   Sr4Ga2O7
_chemical_formula_sum   'Sr64 Ga32 O112'
_cell_volume   3359.25759468
_cell_formula_units_Z   16
loop_
 _symmetry_equiv_pos_site_id
 _symmetry_equiv_pos_as_xyz
  1  'x, y, z'
loop_
 _atom_site_type_symbol
 _atom_site_label
 _atom_site_symmetry_multiplicity
 _atom_site_fract_x
 _atom_site_fract_y
 _atom_site_fract_z
 _atom_site_occupancy
  Sr  Sr0  1  0.43060564  0.12893391  0.32941591  1
  Sr  Sr1  1  0.43060564  0.87106609  0.82941591  1
  Sr  Sr2  1  0.44674058  0.12688795  0.08369536  1
  Sr  Sr3  1  0.44674058  0.87311205  0.58369536  1
  Sr  Sr4  1  0.59971891  0.98808746  0.21824486  1
  Sr  Sr5  1  0.59971891  0.01191254  0.71824486  1
  Sr  Sr6  1  0.74933129  0.11527025  0.08269419  1
  Sr  Sr7  1  0.74933129  0.88472975  0.58269419  1
  Sr  Sr8  1  0.75818862  0.35749498  0.05411191  1
  Sr  Sr9  1  0.75818862  0.64250502  0.55411191  1
  Sr  Sr10  1  0.14166754  0.10908737  0.08114509  1
  Sr  Sr11  1  0.14166754  0.89091263  0.58114509  1
  Sr  Sr12  1  0.44318644  0.37044792  0.33290425  1
  Sr  Sr13  1  0.44318644  0.62955208  0.83290425  1
  Sr  Sr14  1  0.10235481  0.12292849  0.33209994  1
  Sr  Sr15  1  0.10235481  0.87707151  0.83209994  1
  Sr  Sr16  1  0.43211109  0.38436767  0.81985255  1
  Sr  Sr17  1  0.43211109  0.61563233  0.31985255  1
  Sr  Sr18  1  0.59264574  0.47904836  0.20260267  1
  Sr  Sr19  1  0.59264574  0.52095164  0.70260267  1
  Sr  Sr20  1  0.08443808  0.34882054  0.32473651  1
  Sr  Sr21  1  0.08443808  0.65117946  0.82473651  1
  Sr  Sr22  1  0.77092621  0.62096255  0.08592309  1
  Sr  Sr23  1  0.77092621  0.37903745  0.58592309  1
  Sr  Sr24  1  0.77793155  0.33667773  0.33354770  1
  Sr  Sr25  1  0.77793155  0.66332227  0.83354770  1
  Sr  Sr26  1  0.93781949  0.49739042  0.95459719  1
  Sr  Sr27  1  0.93781949  0.50260958  0.45459719  1
  Sr  Sr28  1  0.75540839  0.40214147  0.82178762  1
  Sr  Sr29  1  0.75540839  0.59785853  0.32178762  1
  Sr  Sr30  1  0.25858963  0.25224889  0.94288239  1
  Sr  Sr31  1  0.25858963  0.74775111  0.44288239  1
  Sr  Sr32  1  0.74992338  0.17250456  0.85835182  1
  Sr  Sr33  1  0.74992338  0.82749544  0.35835182  1
  Sr  Sr34  1  0.13199283  0.37099095  0.09677318  1
  Sr  Sr35  1  0.13199283  0.62900905  0.59677318  1
  Sr  Sr36  1  0.94265070  0.23397221  0.15302544  1
  Sr  Sr37  1  0.94265070  0.76602779  0.65302544  1
  Sr  Sr38  1  0.94717286  0.25692717  0.72663551  1
  Sr  Sr39  1  0.94717286  0.74307283  0.22663551  1
  Sr  Sr40  1  0.45333963  0.86955338  0.07330947  1
  Sr  Sr41  1  0.45333963  0.13044662  0.57330947  1
  Sr  Sr42  1  0.46104117  0.62559069  0.07540051  1
  Sr  Sr43  1  0.46104117  0.37440931  0.57540051  1
  Sr  Sr44  1  0.08934006  0.36678876  0.56954298  1
  Sr  Sr45  1  0.08934006  0.63321124  0.06954298  1
  Sr  Sr46  1  0.28671273  0.25275063  0.46203910  1
  Sr  Sr47  1  0.28671273  0.74724937  0.96203910  1
  Sr  Sr48  1  0.77324010  0.88086865  0.05995919  1
  Sr  Sr49  1  0.77324010  0.11913135  0.55995919  1
  Sr  Sr50  1  0.11449640  0.10365067  0.78558882  1
  Sr  Sr51  1  0.11449640  0.89634933  0.28558882  1
  Sr  Sr52  1  0.09763012  0.43205241  0.80753062  1
  Sr  Sr53  1  0.09763012  0.56794759  0.30753062  1
  Sr  Sr54  1  0.08820619  0.87968347  0.06354790  1
  Sr  Sr55  1  0.08820619  0.12031653  0.56354790  1
  Sr  Sr56  1  0.42945127  0.12534907  0.83581847  1
  Sr  Sr57  1  0.42945127  0.87465093  0.33581847  1
  Sr  Sr58  1  0.80827787  0.88876058  0.82722484  1
  Sr  Sr59  1  0.80827787  0.11123942  0.32722484  1
  Sr  Sr60  1  0.41846904  0.38354425  0.05877248  1
  Sr  Sr61  1  0.41846904  0.61645575  0.55877248  1
  Sr  Sr62  1  0.94381513  0.03773190  0.94350020  1
  Sr  Sr63  1  0.94381513  0.96226810  0.44350020  1
  Ga  Ga0  1  0.62084569  0.24581228  0.19405185  1
  Ga  Ga1  1  0.62084569  0.75418772  0.69405185  1
  Ga  Ga2  1  0.61743242  0.01790075  0.95138872  1
  Ga  Ga3  1  0.61743242  0.98209925  0.45138872  1
  Ga  Ga4  1  0.57549550  0.25410886  0.96760308  1
  Ga  Ga5  1  0.57549550  0.74589114  0.46760308  1
  Ga  Ga6  1  0.25385382  0.26512613  0.69828949  1
  Ga  Ga7  1  0.25385382  0.73487387  0.19828949  1
  Ga  Ga8  1  0.26114203  0.00009996  0.44141256  1
  Ga  Ga9  1  0.26114203  -0.00009996  0.94141256  1
  Ga  Ga10  1  0.96329748  0.25541392  0.94079013  1
  Ga  Ga11  1  0.96329748  0.74458608  0.44079013  1
  Ga  Ga12  1  0.25019835  0.51241652  0.96296434  1
  Ga  Ga13  1  0.25019835  0.48758348  0.46296434  1
  Ga  Ga14  1  0.27480340  0.50670699  0.19234944  1
  Ga  Ga15  1  0.27480340  0.49329301  0.69234944  1
  Ga  Ga16  1  0.91212651  0.47962616  0.19389141  1
  Ga  Ga17  1  0.91212651  0.52037384  0.69389141  1
  Ga  Ga18  1  0.91978951  0.99590371  0.18905178  1
  Ga  Ga19  1  0.91978951  0.00409629  0.68905178  1
  Ga  Ga20  1  0.61136982  0.25166345  0.46673388  1
  Ga  Ga21  1  0.61136982  0.74833655  0.96673388  1
  Ga  Ga22  1  0.26163419  0.23482981  0.20473824  1
  Ga  Ga23  1  0.26163419  0.76517019  0.70473824  1
  Ga  Ga24  1  0.62782170  0.74372650  0.19873151  1
  Ga  Ga25  1  0.62782170  0.25627350  0.69873151  1
  Ga  Ga26  1  0.29173020  0.00671242  0.20760196  1
  Ga  Ga27  1  0.29173020  0.99328758  0.70760196  1
  Ga  Ga28  1  0.95260764  0.76342541  0.94051800  1
  Ga  Ga29  1  0.95260764  0.23657459  0.44051800  1
  Ga  Ga30  1  0.62103613  0.51455196  0.95566968  1
  Ga  Ga31  1  0.62103613  0.48544804  0.45566968  1
  O  O0  1  0.76300868  0.23351841  0.18970770  1
  O  O1  1  0.76300868  0.76648159  0.68970770  1
  O  O2  1  0.60209348  0.33575763  0.26308937  1
  O  O3  1  0.60209348  0.66424237  0.76308937  1
  O  O4  1  0.55949736  0.14263180  0.20840798  1
  O  O5  1  0.55949736  0.85736820  0.70840798  1
  O  O6  1  0.57706024  0.28426401  0.08354073  1
  O  O7  1  0.57706024  0.71573599  0.58354073  1
  O  O8  1  0.75998214  0.48830247  0.96108389  1
  O  O9  1  0.75998214  0.51169753  0.46108389  1
  O  O10  1  0.11856442  0.23021804  0.20829380  1
  O  O11  1  0.11856442  0.76978196  0.70829380  1
  O  O12  1  0.12055302  0.00262142  0.95738936  1
  O  O13  1  0.12055302  0.99737858  0.45738936  1
  O  O14  1  0.59784625  0.13721214  0.97203548  1
  O  O15  1  0.59784625  0.86278786  0.47203548  1
  O  O16  1  0.60071746  0.97813472  0.05916828  1
  O  O17  1  0.60071746  0.02186528  0.55916828  1
  O  O18  1  0.27045307  0.20530673  0.79707483  1
  O  O19  1  0.27045307  0.79469327  0.29707483  1
  O  O20  1  0.53399436  0.99236520  0.86420638  1
  O  O21  1  0.53399436  0.00763480  0.36420638  1
  O  O22  1  0.10027613  0.75783508  0.95058133  1
  O  O23  1  0.10027613  0.24216492  0.45058133  1
  O  O24  1  0.08279696  0.24664970  0.00533928  1
  O  O25  1  0.08279696  0.75335030  0.50533928  1
  O  O26  1  0.44535280  0.27293248  0.93127745  1
  O  O27  1  0.44535280  0.72706752  0.43127745  1
  O  O28  1  0.17043473  0.44446115  0.23684015  1
  O  O29  1  0.17043473  0.55553885  0.73684015  1
  O  O30  1  0.95173549  0.07549463  0.10420807  1
  O  O31  1  0.95173549  0.92450537  0.60420807  1
  O  O32  1  0.97475601  0.02409517  0.29449095  1
  O  O33  1  0.97475601  0.97590483  0.79449095  1
  O  O34  1  0.26433430  0.00256017  0.32267473  1
  O  O35  1  0.26433430  0.99743983  0.82267473  1
  O  O36  1  0.30500201  0.12235861  0.18464602  1
  O  O37  1  0.30500201  0.87764139  0.68464602  1
  O  O38  1  0.94664065  0.35775222  0.88102766  1
  O  O39  1  0.94664065  0.64224778  0.38102766  1
  O  O40  1  0.41722290  0.96486164  0.18857965  1
  O  O41  1  0.41722290  0.03513836  0.68857965  1
  O  O42  1  0.95905723  0.17196260  0.85583470  1
  O  O43  1  0.95905723  0.82803740  0.35583470  1
  O  O44  1  0.11915577  0.24385502  0.66312448  1
  O  O45  1  0.11915577  0.75614498  0.16312448  1
  O  O46  1  0.31131635  0.25887539  0.30888540  1
  O  O47  1  0.31131635  0.74112461  0.80888540  1
  O  O48  1  0.76759937  0.72153559  0.21910454  1
  O  O49  1  0.76759937  0.27846441  0.71910454  1
  O  O50  1  0.93259464  0.75963577  0.82318717  1
  O  O51  1  0.93259464  0.24036423  0.32318717  1
  O  O52  1  0.77783022  0.01066988  0.19670664  1
  O  O53  1  0.77783022  0.98933012  0.69670664  1
  O  O54  1  0.97106275  0.58640614  0.17386996  1
  O  O55  1  0.97106275  0.41359386  0.67386996  1
  O  O56  1  0.11448375  0.53803503  0.93643954  1
  O  O57  1  0.11448375  0.46196497  0.43643954  1
  O  O58  1  0.92662210  0.87520422  0.96716224  1
  O  O59  1  0.92662210  0.12479578  0.46716224  1
  O  O60  1  0.40713969  0.47635570  0.20926944  1
  O  O61  1  0.40713969  0.52364430  0.70926944  1
  O  O62  1  0.85266480  0.22541373  0.00878863  1
  O  O63  1  0.85266480  0.77458627  0.50878863  1
  O  O64  1  0.72298636  0.20580340  0.42017311  1
  O  O65  1  0.72298636  0.79419660  0.92017311  1
  O  O66  1  0.68057476  0.30448617  0.91508439  1
  O  O67  1  0.68057476  0.69551383  0.41508439  1
  O  O68  1  0.93626767  0.45028256  0.30658537  1
  O  O69  1  0.93626767  0.54971744  0.80658537  1
  O  O70  1  0.77079879  0.49717969  0.18499334  1
  O  O71  1  0.77079879  0.50282031  0.68499334  1
  O  O72  1  0.56511988  0.63969321  0.20659477  1
  O  O73  1  0.56511988  0.36030679  0.70659477  1
  O  O74  1  0.47725007  0.23418865  0.44044275  1
  O  O75  1  0.47725007  0.76581135  0.94044275  1
  O  O76  1  0.34618574  0.25535358  0.61270016  1
  O  O77  1  0.34618574  0.74464642  0.11270016  1
  O  O78  1  0.94432627  0.39848273  0.11154707  1
  O  O79  1  0.94432627  0.60151727  0.61154707  1
  O  O80  1  0.94344080  0.88425445  0.16082423  1
  O  O81  1  0.94344080  0.11574555  0.66082423  1
  O  O82  1  0.31273504  0.89814914  0.47794096  1
  O  O83  1  0.31273504  0.10185086  0.97794096  1
  O  O84  1  0.29556455  0.28254804  0.10354775  1
  O  O85  1  0.29556455  0.71745196  0.60354775  1
  O  O86  1  0.62427913  0.77779434  0.08370167  1
  O  O87  1  0.62427913  0.22220566  0.58370167  1
  O  O88  1  0.25551943  0.38205957  0.73103233  1
  O  O89  1  0.25551943  0.61794043  0.23103233  1
  O  O90  1  0.56480130  0.48918582  0.85393507  1
  O  O91  1  0.56480130  0.51081418  0.35393507  1
  O  O92  1  0.59195691  0.83606187  0.26121401  1
  O  O93  1  0.59195691  0.16393813  0.76121401  1
  O  O94  1  0.34197719  0.59804684  0.95455522  1
  O  O95  1  0.34197719  0.40195316  0.45455522  1
  O  O96  1  0.28396651  0.40565463  0.92831999  1
  O  O97  1  0.28396651  0.59434537  0.42831999  1
  O  O98  1  0.55565791  0.48474625  0.05234429  1
  O  O99  1  0.55565791  0.51525375  0.55234429  1
  O  O100  1  0.23670094  0.49984137  0.08007476  1
  O  O101  1  0.23670094  0.50015863  0.58007476  1
  O  O102  1  0.17042411  0.97523267  0.16088040  1
  O  O103  1  0.17042411  0.02476733  0.66088040  1
  O  O104  1  0.63045522  0.63229861  0.97323087  1
  O  O105  1  0.63045522  0.36770139  0.47323087  1
  O  O106  1  0.75870830  0.01957054  0.93325097  1
  O  O107  1  0.75870830  0.98042946  0.43325097  1
  O  O108  1  0.91189639  0.66482301  0.99408377  1
  O  O109  1  0.91189639  0.33517699  0.49408377  1
  O  O110  1  0.31424971  0.10222543  0.47035913  1
  O  O111  1  0.31424971  0.89777457  0.97035913  1
loop_
_geom_bond_atom_site_label_1
_geom_bond_atom_site_label_2
_geom_bond_distance
_geom_bond_site_symmetry_2
Ga0 O2 1.827866 1_555
Ga0 O4 1.847386 1_555
Ga0 O0 1.886206 1_555
Ga0 O6 1.951650 1_555
Ga1 O3 1.827866 1_555
Ga1 O5 1.847386 1_555
Ga1 O1 1.886206 1_555
Ga1 O7 1.951650 1_555
Ga2 O20 1.811612 1_545
Ga2 O16 1.852937 1_546
Ga2 O106 1.888451 1_555
Ga2 O14 1.946826 1_555
Ga3 O21 1.811612 1_565
Ga3 O17 1.852937 1_565
Ga3 O107 1.888451 1_555
Ga3 O15 1.946826 1_555
Ga4 O66 1.816041 1_555
Ga4 O26 1.828943 1_555
Ga4 O14 1.886464 1_555
Ga4 O6 1.916082 1_556
Ga5 O67 1.816041 1_555
Ga5 O27 1.828943 1_555
Ga5 O15 1.886464 1_555
Ga5 O7 1.916082 1_555
Ga6 O76 1.850160 1_555
Ga6 O18 1.856176 1_555
Ga6 O44 1.886332 1_555
Ga6 O88 1.935017 1_555
Ga7 O77 1.850160 1_555
Ga7 O19 1.856176 1_555
Ga7 O45 1.886332 1_555
Ga7 O89 1.935017 1_555
Ga8 O110 1.828335 1_555
Ga8 O82 1.852415 1_545
Ga8 O13 1.874357 1_545
Ga8 O34 1.901247 1_555
Ga9 O111 1.828335 1_545
Ga9 O83 1.852415 1_555
Ga9 O12 1.874357 1_555
Ga9 O35 1.901247 1_545
Ga10 O24 1.877733 1_656
Ga10 O62 1.891787 1_556
Ga10 O38 1.901259 1_555
Ga10 O42 1.901599 1_555
Ga11 O25 1.877733 1_655
Ga11 O63 1.891787 1_555
Ga11 O39 1.901259 1_555
Ga11 O43 1.901599 1_555
Ga12 O94 1.829295 1_555
Ga12 O96 1.844970 1_555
Ga12 O56 1.878127 1_555
Ga12 O100 1.895094 1_556
Ga13 O95 1.829295 1_555
Ga13 O97 1.844970 1_555
Ga13 O57 1.878127 1_555
Ga13 O101 1.895094 1_555
Ga14 O60 1.826938 1_555
Ga14 O28 1.845877 1_555
Ga14 O100 1.862380 1_555
Ga14 O89 1.895074 1_555
Ga15 O61 1.826938 1_555
Ga15 O29 1.845877 1_555
Ga15 O101 1.862380 1_555
Ga15 O88 1.895074 1_555
Ga16 O68 1.885867 1_555
Ga16 O70 1.887292 1_555
Ga16 O78 1.897626 1_555
Ga16 O54 1.898858 1_555
Ga17 O69 1.885867 1_555
Ga17 O71 1.887292 1_555
Ga17 O79 1.897626 1_555
Ga17 O55 1.898858 1_555
Ga18 O80 1.862225 1_555
Ga18 O32 1.881950 1_565
Ga18 O52 1.891395 1_565
Ga18 O30 1.908436 1_565
Ga19 O81 1.862225 1_555
Ga19 O33 1.881950 1_545
Ga19 O53 1.891395 1_545
Ga19 O31 1.908436 1_545
Ga20 O64 1.811342 1_555
Ga20 O74 1.833242 1_555
Ga20 O105 1.868187 1_555
Ga20 O87 1.934854 1_555
Ga21 O65 1.811342 1_555
Ga21 O75 1.833242 1_555
Ga21 O104 1.868187 1_555
Ga21 O86 1.934854 1_556
Ga22 O46 1.823378 1_555
Ga22 O84 1.848679 1_555
Ga22 O10 1.888803 1_555
Ga22 O36 1.909098 1_555
Ga23 O47 1.823378 1_555
Ga23 O85 1.848679 1_555
Ga23 O11 1.888803 1_555
Ga23 O37 1.909098 1_555
Ga24 O92 1.843469 1_555
Ga24 O72 1.856835 1_555
Ga24 O48 1.900109 1_555
Ga24 O86 1.918854 1_555
Ga25 O93 1.843469 1_555
Ga25 O73 1.856835 1_555
Ga25 O49 1.900109 1_555
Ga25 O87 1.918854 1_555
Ga26 O40 1.812717 1_545
Ga26 O102 1.826620 1_545
Ga26 O34 1.881932 1_555
Ga26 O36 1.887010 1_555
Ga27 O41 1.812717 1_565
Ga27 O103 1.826620 1_565
Ga27 O35 1.881932 1_555
Ga27 O37 1.887010 1_555
Ga28 O58 1.863665 1_555
Ga28 O108 1.871166 1_555
Ga28 O50 1.893418 1_555
Ga28 O22 1.953052 1_655
Ga29 O59 1.863665 1_555
Ga29 O109 1.871166 1_555
Ga29 O51 1.893418 1_555
Ga29 O23 1.953052 1_655
Ga30 O90 1.825310 1_555
Ga30 O98 1.842426 1_556
Ga30 O8 1.879492 1_555
Ga30 O104 1.900405 1_555
Ga31 O91 1.825310 1_555
Ga31 O99 1.842426 1_555
Ga31 O9 1.879492 1_555
Ga31 O105 1.900405 1_555
O0 Sr36 2.446739 1_555
O0 Sr6 2.550404 1_555
O0 Sr24 2.832739 1_555
O0 Sr8 2.933903 1_555
O0 Sr59 2.993030 1_555
O1 Sr37 2.446739 1_555
O1 Sr7 2.550404 1_555
O1 Sr25 2.832739 1_555
O1 Sr9 2.933903 1_555
O1 Sr58 2.993030 1_555
O2 Sr12 2.449427 1_555
O2 Sr18 2.481764 1_555
O2 Sr24 2.564491 1_555
O3 Sr13 2.449427 1_555
O3 Sr19 2.481764 1_555
O3 Sr25 2.564491 1_555
O4 Sr2 2.485624 1_555
O4 Sr4 2.522752 1_545
O4 Sr0 2.601182 1_555
O5 Sr3 2.485624 1_555
O5 Sr5 2.522752 1_565
O5 Sr1 2.601182 1_555
O6 Sr60 2.647041 1_555
O6 Sr8 2.703875 1_555
O6 Sr2 3.038982 1_555
O7 Sr61 2.647041 1_555
O7 Sr9 2.703875 1_555
O7 Sr3 3.038982 1_555
O8 Sr26 2.352135 1_555
O8 Sr8 2.561022 1_556
O8 Sr28 2.617533 1_555
O8 Sr22 2.910162 1_556
O9 Sr27 2.352135 1_555
O9 Sr9 2.561022 1_555
O9 Sr29 2.617533 1_555
O9 Sr23 2.910162 1_555
O10 Sr36 2.471831 1_455
O10 Sr14 2.627059 1_555
O10 Sr20 2.695221 1_555
O10 Sr10 2.823209 1_555
O10 Sr34 2.872607 1_555
O11 Sr37 2.471831 1_455
O11 Sr15 2.627059 1_555
O11 Sr21 2.695221 1_555
O11 Sr11 2.823209 1_555
O11 Sr35 2.872607 1_555
O12 Sr62 2.403323 1_455
O12 Sr10 2.619284 1_556
O12 Sr54 2.630669 1_546
O12 Sr15 2.839691 1_545
O12 Sr50 3.185445 1_555
O13 Sr63 2.403323 1_455
O13 Sr11 2.619284 1_555
O13 Sr55 2.630669 1_565
O13 Sr14 2.839691 1_565
O13 Sr51 3.185445 1_555
O14 Sr6 2.674742 1_556
O14 Sr2 2.697445 1_556
O14 Sr32 2.781254 1_555
O14 Sr56 3.096750 1_555
O15 Sr7 2.674742 1_555
O15 Sr3 2.697445 1_555
O15 Sr33 2.781254 1_555
O15 Sr57 3.096750 1_555
O16 Sr4 2.550410 1_555
O16 Sr40 2.612978 1_555
O16 Sr48 2.751582 1_555
O16 Sr6 2.955032 1_565
O16 Sr2 3.147729 1_565
O17 Sr5 2.550410 1_555
O17 Sr41 2.612978 1_555
O17 Sr49 2.751582 1_555
O17 Sr7 2.955032 1_545
O17 Sr3 3.147729 1_545
O18 Sr30 2.456747 1_555
O18 Sr56 2.523043 1_555
O18 Sr50 2.621478 1_555
O19 Sr31 2.456747 1_555
O19 Sr57 2.523043 1_555
O19 Sr51 2.621478 1_555
O20 Sr1 2.425134 1_555
O20 Sr5 2.520525 1_565
O20 Sr56 2.564516 1_565
O21 Sr0 2.425134 1_555
O21 Sr4 2.520525 1_545
O21 Sr57 2.564516 1_545
O22 Sr47 2.467686 1_555
O22 Sr21 2.640803 1_555
O22 Sr54 2.658403 1_556
O22 Sr15 2.683943 1_555
O22 Sr45 2.755320 1_556
O23 Sr46 2.467686 1_555
O23 Sr20 2.640803 1_555
O23 Sr55 2.658403 1_555
O23 Sr14 2.683943 1_555
O23 Sr44 2.755320 1_555
O24 Sr30 2.536612 1_554
O24 Sr34 2.541625 1_555
O24 Sr10 2.617484 1_555
O24 Sr36 3.024539 1_455
O25 Sr31 2.536612 1_555
O25 Sr35 2.541625 1_555
O25 Sr11 2.617484 1_555
O25 Sr37 3.024539 1_455
O26 Sr30 2.492925 1_555
O26 Sr16 2.520334 1_555
O26 Sr60 2.722128 1_556
O26 Sr56 2.809906 1_555
O27 Sr31 2.492925 1_555
O27 Sr17 2.520334 1_555
O27 Sr61 2.722128 1_555
O27 Sr57 2.809906 1_555
O28 Sr20 2.371557 1_555
O28 Sr53 2.469246 1_555
O28 Sr34 2.572982 1_555
O29 Sr21 2.371557 1_555
O29 Sr52 2.469246 1_555
O29 Sr35 2.572982 1_555
O30 Sr10 2.591023 1_655
O30 Sr62 2.641576 1_554
O30 Sr36 2.645711 1_555
O30 Sr6 2.759387 1_555
O31 Sr11 2.591023 1_655
O31 Sr63 2.641576 1_555
O31 Sr37 2.645711 1_555
O31 Sr7 2.759387 1_555
O32 Sr14 2.375659 1_655
O32 Sr63 2.616367 1_545
O32 Sr59 2.654358 1_555
O32 Sr51 2.749641 1_645
O33 Sr15 2.375659 1_655
O33 Sr62 2.616367 1_565
O33 Sr58 2.654358 1_555
O33 Sr50 2.749641 1_665
O34 Sr51 2.661859 1_545
O34 Sr14 2.875028 1_555
O34 Sr0 2.976789 1_555
O34 Sr57 2.986781 1_545
O35 Sr50 2.661859 1_565
O35 Sr15 2.875028 1_555
O35 Sr1 2.976789 1_555
O35 Sr56 2.986781 1_565
O36 Sr2 2.486194 1_555
O36 Sr10 2.707708 1_555
O36 Sr0 2.831980 1_555
O37 Sr3 2.486194 1_555
O37 Sr11 2.707708 1_555
O37 Sr1 2.831980 1_555
O38 Sr26 2.520014 1_555
O38 Sr52 2.608445 1_655
O38 Sr28 2.773323 1_555
O38 Sr38 2.946614 1_555
O39 Sr27 2.520014 1_555
O39 Sr53 2.608445 1_655
O39 Sr29 2.773323 1_555
O39 Sr39 2.946614 1_555
O40 Sr40 2.440401 1_555
O40 Sr4 2.473759 1_555
O40 Sr57 2.762511 1_555
O40 Sr2 3.105773 1_565
O41 Sr41 2.440401 1_555
O41 Sr5 2.473759 1_555
O41 Sr56 2.762511 1_555
O41 Sr3 3.105773 1_545
O42 Sr38 2.474181 1_555
O42 Sr62 2.566526 1_555
O42 Sr50 2.589127 1_655
O42 Sr32 2.757400 1_555
O43 Sr39 2.474181 1_555
O43 Sr63 2.566526 1_555
O43 Sr51 2.589127 1_655
O43 Sr33 2.757400 1_555
O44 Sr44 2.493265 1_555
O44 Sr38 2.504657 1_455
O44 Sr55 2.561457 1_555
O44 Sr50 2.972268 1_555
O45 Sr45 2.493265 1_555
O45 Sr39 2.504657 1_455
O45 Sr54 2.561457 1_555
O45 Sr51 2.972268 1_555
O46 Sr46 2.477873 1_555
O46 Sr12 2.512125 1_555
O46 Sr0 2.617553 1_555
O47 Sr47 2.477873 1_555
O47 Sr13 2.512125 1_555
O47 Sr1 2.617553 1_555
O48 Sr39 2.393204 1_555
O48 Sr29 2.571616 1_555
O48 Sr22 2.666813 1_555
O48 Sr33 2.807209 1_555
O49 Sr38 2.393204 1_555
O49 Sr28 2.571616 1_555
O49 Sr23 2.666813 1_555
O49 Sr32 2.807209 1_555
O50 Sr25 2.558482 1_555
O50 Sr58 2.631110 1_555
O50 Sr21 2.643846 1_655
O50 Sr37 2.729447 1_555
O50 Sr15 2.918663 1_655
O51 Sr24 2.558482 1_555
O51 Sr59 2.631110 1_555
O51 Sr20 2.643846 1_655
O51 Sr36 2.729447 1_555
O51 Sr14 2.918663 1_655
O52 Sr4 2.404221 1_545
O52 Sr6 2.495574 1_555
O52 Sr59 2.658461 1_555
O52 Sr48 3.010470 1_545
O53 Sr5 2.404221 1_565
O53 Sr7 2.495574 1_555
O53 Sr58 2.658461 1_555
O53 Sr49 3.010470 1_565
O54 Sr45 2.416381 1_655
O54 Sr39 2.654589 1_555
O54 Sr53 2.711590 1_655
O54 Sr22 3.024554 1_555
O55 Sr44 2.416381 1_655
O55 Sr38 2.654589 1_555
O55 Sr52 2.711590 1_655
O55 Sr23 3.024554 1_555
O56 Sr26 2.437859 1_455
O56 Sr21 2.565479 1_555
O56 Sr45 2.638553 1_556
O56 Sr52 2.672485 1_555
O57 Sr27 2.437859 1_455
O57 Sr20 2.565479 1_555
O57 Sr44 2.638553 1_555
O57 Sr53 2.672485 1_555
O58 Sr48 2.525125 1_556
O58 Sr54 2.614630 1_656
O58 Sr62 2.626736 1_565
O58 Sr58 2.721131 1_555
O59 Sr49 2.525125 1_555
O59 Sr55 2.614630 1_655
O59 Sr63 2.626736 1_545
O59 Sr59 2.721131 1_555
O60 Sr18 2.449198 1_555
O60 Sr12 2.638434 1_555
O60 Sr60 2.831198 1_555
O60 Sr17 2.854198 1_555
O61 Sr19 2.449198 1_555
O61 Sr13 2.638434 1_555
O61 Sr61 2.831198 1_555
O61 Sr16 2.854198 1_555
O62 Sr6 2.524429 1_555
O62 Sr8 2.554670 1_555
O62 Sr36 2.584965 1_555
O62 Sr32 2.873217 1_554
O63 Sr7 2.524429 1_555
O63 Sr9 2.554670 1_555
O63 Sr37 2.584965 1_555
O63 Sr33 2.873217 1_555
O64 Sr59 2.405661 1_555
O64 Sr24 2.611002 1_555
O64 Sr49 2.703668 1_555
O65 Sr58 2.405661 1_555
O65 Sr25 2.611002 1_555
O65 Sr48 2.703668 1_556
O66 Sr28 2.378782 1_555
O66 Sr32 2.469960 1_555
O66 Sr8 2.578793 1_556
O67 Sr29 2.378782 1_555
O67 Sr33 2.469960 1_555
O67 Sr9 2.578793 1_555
O68 Sr27 2.510485 1_555
O68 Sr20 2.548823 1_655
O68 Sr24 2.799915 1_555
O68 Sr53 2.834844 1_655
O69 Sr26 2.510485 1_555
O69 Sr21 2.548823 1_655
O69 Sr25 2.799915 1_555
O69 Sr52 2.834844 1_655
O70 Sr18 2.386160 1_555
O70 Sr22 2.529980 1_555
O70 Sr29 2.723073 1_555
O70 Sr8 3.058653 1_555
O71 Sr19 2.386160 1_555
O71 Sr23 2.529980 1_555
O71 Sr28 2.723073 1_555
O71 Sr9 3.058653 1_555
O72 Sr42 2.503157 1_555
O72 Sr17 2.566147 1_555
O72 Sr18 2.585493 1_555
O72 Sr29 3.164624 1_555
O73 Sr43 2.503157 1_555
O73 Sr16 2.566147 1_555
O73 Sr19 2.585493 1_555
O73 Sr28 3.164624 1_555
O74 Sr0 2.513423 1_555
O74 Sr46 2.556619 1_555
O74 Sr41 2.714183 1_555
O74 Sr12 2.802480 1_555
O74 Sr43 3.115993 1_555
O75 Sr1 2.513423 1_555
O75 Sr47 2.556619 1_555
O75 Sr40 2.714183 1_556
O75 Sr13 2.802480 1_555
O75 Sr42 3.115993 1_556
O76 Sr43 2.503544 1_555
O76 Sr41 2.524602 1_555
O76 Sr46 2.525745 1_555
O77 Sr42 2.503544 1_555
O77 Sr40 2.524602 1_555
O77 Sr47 2.525745 1_554
O78 Sr34 2.526126 1_655
O78 Sr8 2.689445 1_555
O78 Sr36 2.703466 1_555
O78 Sr26 2.964899 1_554
O79 Sr35 2.526126 1_655
O79 Sr9 2.689445 1_555
O79 Sr37 2.703466 1_555
O79 Sr27 2.964899 1_555
O80 Sr54 2.478758 1_655
O80 Sr39 2.483491 1_555
O80 Sr48 2.747448 1_555
O80 Sr51 2.998590 1_655
O81 Sr55 2.478758 1_655
O81 Sr38 2.483491 1_555
O81 Sr49 2.747448 1_555
O81 Sr50 2.998590 1_655
O82 Sr3 2.462987 1_555
O82 Sr31 2.559994 1_555
O82 Sr57 2.786894 1_555
O82 Sr11 2.814044 1_555
O83 Sr2 2.462987 1_556
O83 Sr30 2.559994 1_555
O83 Sr56 2.786894 1_555
O83 Sr10 2.814044 1_556
O84 Sr60 2.399044 1_555
O84 Sr34 2.576655 1_555
O84 Sr30 2.654649 1_554
O85 Sr61 2.399044 1_555
O85 Sr35 2.576655 1_555
O85 Sr31 2.654649 1_555
O86 Sr48 2.591194 1_555
O86 Sr40 2.689108 1_555
O86 Sr22 3.158653 1_555
O87 Sr49 2.591194 1_555
O87 Sr41 2.689108 1_555
O87 Sr23 3.158653 1_555
O88 Sr52 2.555018 1_555
O88 Sr16 2.712009 1_555
O89 Sr53 2.555018 1_555
O89 Sr17 2.712009 1_555
O90 Sr16 2.473869 1_555
O90 Sr19 2.505260 1_555
O90 Sr13 2.769242 1_555
O90 Sr28 2.920964 1_555
O91 Sr17 2.473869 1_555
O91 Sr18 2.505260 1_555
O91 Sr12 2.769242 1_555
O91 Sr29 2.920964 1_555
O92 Sr4 2.519832 1_555
O92 Sr57 2.540814 1_555
O92 Sr33 2.586014 1_555
O93 Sr5 2.519832 1_555
O93 Sr56 2.540814 1_555
O93 Sr32 2.586014 1_555
O94 Sr13 2.426130 1_555
O94 Sr47 2.489177 1_555
O94 Sr42 2.513384 1_556
O95 Sr12 2.426130 1_555
O95 Sr46 2.489177 1_555
O95 Sr43 2.513384 1_555
O96 Sr30 2.477849 1_555
O96 Sr16 2.650658 1_555
O96 Sr60 2.744074 1_556
O96 Sr52 3.134315 1_555
O97 Sr31 2.477849 1_555
O97 Sr17 2.650658 1_555
O97 Sr61 2.744074 1_555
O97 Sr53 3.134315 1_555
O98 Sr60 2.425704 1_555
O98 Sr18 2.448729 1_555
O98 Sr42 2.595535 1_555
O99 Sr61 2.425704 1_555
O99 Sr19 2.448729 1_555
O99 Sr43 2.595535 1_555
O100 Sr34 2.489665 1_555
O100 Sr45 2.882086 1_555
O100 Sr60 3.051080 1_555
O101 Sr35 2.489665 1_555
O101 Sr44 2.882086 1_555
O101 Sr61 3.051080 1_555
O102 Sr54 2.423548 1_555
O102 Sr51 2.478159 1_555
O102 Sr10 2.511075 1_565
O103 Sr55 2.423548 1_555
O103 Sr50 2.478159 1_555
O103 Sr11 2.511075 1_545
O104 Sr22 2.574352 1_556
O104 Sr42 2.786202 1_556
O104 Sr25 3.021303 1_555
O105 Sr23 2.574352 1_555
O105 Sr43 2.786202 1_555
O105 Sr24 3.021303 1_555
O106 Sr62 2.460378 1_555
O106 Sr32 2.716797 1_555
O106 Sr58 2.770372 1_545
O106 Sr6 2.839768 1_556
O106 Sr48 3.003126 1_546
O107 Sr63 2.460378 1_555
O107 Sr33 2.716797 1_555
O107 Sr59 2.770372 1_565
O107 Sr7 2.839768 1_555
O107 Sr49 3.003126 1_565
O108 Sr22 2.483822 1_556
O108 Sr45 2.666455 1_656
O108 Sr26 2.763140 1_555
O108 Sr25 3.098596 1_555
O109 Sr23 2.483822 1_555
O109 Sr44 2.666455 1_655
O109 Sr27 2.763140 1_555
O109 Sr24 3.098596 1_555
O110 Sr46 2.428511 1_555
O110 Sr41 2.489972 1_555
O110 Sr0 2.776079 1_555
O111 Sr47 2.428511 1_555
O111 Sr40 2.489972 1_556
O111 Sr1 2.776079 1_555
