# generated using pymatgen
data_Dy2TiSi2
_symmetry_space_group_name_H-M   'P 1'
_cell_length_a   2.91797900
_cell_length_b   2.91797900
_cell_length_c   14.04249000
_cell_angle_alpha   90.00000000
_cell_angle_beta   90.00000000
_cell_angle_gamma   90.00000000
_symmetry_Int_Tables_number   1
_chemical_formula_structural   Dy2TiSi2
_chemical_formula_sum   'Dy2 Ti1 Si2'
_cell_volume   119.56620564
_cell_formula_units_Z   1
loop_
 _symmetry_equiv_pos_site_id
 _symmetry_equiv_pos_as_xyz
  1  'x, y, z'
loop_
 _atom_site_type_symbol
 _atom_site_label
 _atom_site_symmetry_multiplicity
 _atom_site_fract_x
 _atom_site_fract_y
 _atom_site_fract_z
 _atom_site_occupancy
  Dy  Dy0  1  0.50000000  0.50000000  0.62306100  1
  Dy  Dy1  1  0.50000000  0.50000000  0.37693900  1
  Ti  Ti0  1  0.50000000  0.50000000  0.00000000  1
  Si  Si0  1  0.50000000  0.50000000  0.17550700  1
  Si  Si1  1  0.50000000  0.50000000  0.82449300  1
loop_
_geom_bond_atom_site_label_1
_geom_bond_atom_site_label_2
_geom_bond_distance
_geom_bond_site_symmetry_2
Dy0 Si1 2.828607 1_555
Dy1 Si0 2.828607 1_555
Si0 Ti0 2.464555 1_555
Si1 Ti0 2.464555 1_556
