# generated using pymatgen
data_SrCaMn(PO4)2
_symmetry_space_group_name_H-M   'P 1'
_cell_length_a   5.75864474
_cell_length_b   6.96803585
_cell_length_c   9.69410152
_cell_angle_alpha   109.50956292
_cell_angle_beta   101.38552603
_cell_angle_gamma   98.63742117
_symmetry_Int_Tables_number   1
_chemical_formula_structural   SrCaMn(PO4)2
_chemical_formula_sum   'Sr2 Ca2 Mn2 P4 O16'
_cell_volume   349.47238848
_cell_formula_units_Z   2
loop_
 _symmetry_equiv_pos_site_id
 _symmetry_equiv_pos_as_xyz
  1  'x, y, z'
loop_
 _atom_site_type_symbol
 _atom_site_label
 _atom_site_symmetry_multiplicity
 _atom_site_fract_x
 _atom_site_fract_y
 _atom_site_fract_z
 _atom_site_occupancy
  Sr  Sr0  1  0.26247500  0.80735900  0.05555400  1
  Sr  Sr1  1  0.73752500  0.19264100  0.94444600  1
  Ca  Ca0  1  0.00263100  0.42008900  0.66232100  1
  Ca  Ca1  1  0.99736900  0.57991100  0.33767900  1
  Mn  Mn0  1  0.63669400  0.84172100  0.56195000  1
  Mn  Mn1  1  0.36330600  0.15827900  0.43805000  1
  P  P0  1  0.38761400  0.41306400  0.21829900  1
  P  P1  1  0.61238600  0.58693600  0.78170100  1
  P  P2  1  0.83699600  0.03323800  0.29833300  1
  P  P3  1  0.16300400  0.96676200  0.70166700  1
  O  O0  1  0.84055400  0.55300600  0.88018900  1
  O  O1  1  0.61903200  0.45134600  0.16463100  1
  O  O2  1  0.66642300  0.80825500  0.77640100  1
  O  O3  1  0.96673800  0.10010700  0.69132100  1
  O  O4  1  0.38096800  0.54865400  0.83536900  1
  O  O5  1  0.02312700  0.73392200  0.59704200  1
  O  O6  1  0.97687300  0.26607800  0.40295800  1
  O  O7  1  0.26819600  0.99623700  0.86672200  1
  O  O8  1  0.33357800  0.19174500  0.22359900  1
  O  O9  1  0.73180400  0.00376300  0.13327800  1
  O  O10  1  0.15944600  0.44699400  0.11981100  1
  O  O11  1  0.41972800  0.57599300  0.38250300  1
  O  O12  1  0.58027200  0.42400700  0.61749700  1
  O  O13  1  0.62995500  0.96717100  0.36908800  1
  O  O14  1  0.03326200  0.89989300  0.30867900  1
  O  O15  1  0.37004500  0.03282900  0.63091200  1
loop_
_geom_bond_atom_site_label_1
_geom_bond_atom_site_label_2
_geom_bond_distance
_geom_bond_site_symmetry_2
Ca0 O4 2.308772 1_555
Ca0 O3 2.322986 1_455
Ca0 O6 2.344791 1_455
Ca0 O12 2.390780 1_455
Ca0 O0 2.433312 1_455
Ca0 O5 2.464298 1_555
Ca1 O1 2.308772 1_555
Ca1 O14 2.322986 1_655
Ca1 O5 2.344791 1_655
Ca1 O11 2.390780 1_655
Ca1 O10 2.433312 1_655
Ca1 O6 2.464298 1_555
Mn0 O11 2.076350 1_555
Mn0 O2 2.144954 1_555
Mn0 O3 2.224782 1_565
Mn0 O15 2.236727 1_565
Mn0 O13 2.309603 1_555
Mn0 O5 2.450694 1_655
Mn1 O12 2.076350 1_555
Mn1 O8 2.144955 1_555
Mn1 O14 2.224782 1_545
Mn1 O13 2.236727 1_545
Mn1 O15 2.309603 1_555
Mn1 O6 2.450694 1_455
O0 P1 1.562903 1_555
O0 Sr0 2.645360 1_656
O0 Sr1 2.790792 1_555
O1 P0 1.541901 1_555
O1 Sr1 2.577938 1_554
O2 P1 1.546875 1_555
O2 Sr1 2.547205 1_565
O3 P3 1.575979 1_645
O3 Sr1 2.942262 1_555
O4 P1 1.541901 1_555
O4 Sr0 2.577938 1_556
O5 P3 1.579755 1_555
O6 P2 1.579755 1_555
O7 P3 1.526360 1_555
O7 Sr0 2.589234 1_556
O7 Sr1 2.672359 1_565
O8 P0 1.546874 1_555
O8 Sr0 2.547204 1_545
O9 P2 1.526360 1_555
O9 Sr1 2.589234 1_554
O9 Sr0 2.672359 1_545
O10 P0 1.562903 1_555
O10 Sr1 2.645360 1_454
O10 Sr0 2.790792 1_555
O11 P0 1.571815 1_555
O12 P1 1.571815 1_555
O13 P2 1.572527 1_565
O13 Sr0 3.073833 1_555
O14 P2 1.575979 1_465
O14 Sr0 2.942262 1_555
O15 P3 1.572527 1_545
O15 Sr1 3.073833 1_555
