# generated using pymatgen
data_Mg5Si9
_symmetry_space_group_name_H-M   'P 1'
_cell_length_a   6.05335100
_cell_length_b   6.86101553
_cell_length_c   13.56817621
_cell_angle_alpha   104.50489579
_cell_angle_beta   93.15392587
_cell_angle_gamma   106.82664569
_symmetry_Int_Tables_number   1
_chemical_formula_structural   Mg5Si9
_chemical_formula_sum   'Mg10 Si18'
_cell_volume   517.22800525
_cell_formula_units_Z   2
loop_
 _symmetry_equiv_pos_site_id
 _symmetry_equiv_pos_as_xyz
  1  'x, y, z'
loop_
 _atom_site_type_symbol
 _atom_site_label
 _atom_site_symmetry_multiplicity
 _atom_site_fract_x
 _atom_site_fract_y
 _atom_site_fract_z
 _atom_site_occupancy
  Mg  Mg0  1  0.41048200  0.78200700  0.69032400  1
  Mg  Mg1  1  0.76295100  0.40413400  0.40646300  1
  Mg  Mg2  1  0.62239200  0.63226300  0.53813400  1
  Mg  Mg3  1  0.23880000  0.33232100  0.40065000  1
  Mg  Mg4  1  0.96053400  0.03412300  0.60628000  1
  Mg  Mg5  1  0.20445500  0.86392200  0.45213400  1
  Mg  Mg6  1  0.54104000  0.53565300  0.12442600  1
  Mg  Mg7  1  0.17269300  0.35440800  0.92613100  1
  Mg  Mg8  1  0.49392800  0.01668100  0.08587100  1
  Mg  Mg9  1  0.40189100  0.25719100  0.75928800  1
  Si  Si0  1  0.14991700  0.18218300  0.13448000  1
  Si  Si1  1  0.59733700  0.56892900  0.88563600  1
  Si  Si2  1  0.44418500  0.75446800  0.33040500  1
  Si  Si3  1  0.84317000  0.33271700  0.68570800  1
  Si  Si4  1  0.80334200  0.86307000  0.25503700  1
  Si  Si5  1  0.94845100  0.06824600  0.82192000  1
  Si  Si6  1  0.84759000  0.26830400  0.21222800  1
  Si  Si7  1  0.17668900  0.82679200  0.82850000  1
  Si  Si8  1  0.03155300  0.63044200  0.24388700  1
  Si  Si9  1  0.13712600  0.48371600  0.57509700  1
  Si  Si10  1  0.64188600  0.90752600  0.92425100  1
  Si  Si11  1  0.96981600  0.86361100  0.07628700  1
  Si  Si12  1  0.44959300  0.13588300  0.28333300  1
  Si  Si13  1  0.81480500  0.63509600  0.74360300  1
  Si  Si14  1  0.83510700  0.38608800  0.02111600  1
  Si  Si15  1  0.17491500  0.68665600  0.01086600  1
  Si  Si16  1  0.50469700  0.17748200  0.57410200  1
  Si  Si17  1  0.82053800  0.01603400  0.40365300  1
loop_
_geom_bond_atom_site_label_1
_geom_bond_atom_site_label_2
_geom_bond_distance
_geom_bond_site_symmetry_2
Mg0 Si9 2.350057 1_555
Mg0 Si7 2.422253 1_555
Mg0 Mg2 2.637569 1_555
Mg0 Si13 3.021167 1_555
Mg1 Si12 2.422058 1_555
Mg1 Mg2 2.429622 1_555
Mg1 Si6 2.696505 1_555
Mg1 Si17 2.775116 1_555
Mg1 Si9 2.958298 1_655
Mg2 Mg4 2.809623 1_565
Mg2 Mg3 2.817865 1_555
Mg2 Si9 2.933247 1_555
Mg2 Si13 2.954911 1_555
Mg2 Si16 3.161610 1_555
Mg3 Si12 2.474452 1_555
Mg3 Si9 2.521696 1_555
Mg3 Si17 2.827704 1_455
Mg4 Si3 2.384134 1_555
Mg4 Si17 2.793549 1_555
Mg4 Si5 2.882888 1_555
Mg5 Si2 2.381411 1_555
Mg5 Si16 2.508392 1_565
Mg5 Si8 2.842848 1_555
Mg5 Si17 2.915933 1_465
Mg6 Si4 2.517771 1_555
Mg6 Si14 2.607331 1_555
Mg6 Si0 2.895269 1_555
Mg6 Si2 2.999408 1_555
Mg7 Si5 2.133505 1_455
Mg7 Si15 2.277300 1_556
Mg7 Si14 2.508150 1_456
Mg7 Si1 2.728709 1_555
Mg8 Si10 2.440000 1_544
Mg8 Si15 2.447409 1_545
Mg8 Si6 2.544922 1_555
Mg8 Si12 2.650960 1_555
Mg8 Si0 2.684367 1_555
Mg9 Si1 2.321275 1_555
Mg9 Si16 2.584662 1_555
Mg9 Si3 2.855139 1_555
Mg9 Si13 3.098130 1_555
Si0 Si11 2.061695 1_445
Si0 Si6 2.310290 1_455
Si1 Si10 2.180861 1_555
Si1 Si13 2.454436 1_555
Si2 Si4 2.452773 1_555
Si2 Si8 2.507503 1_555
Si3 Si9 2.549005 1_655
Si4 Si8 2.378497 1_655
Si6 Si8 2.325695 1_655
Si11 Si15 2.063358 1_655
Si11 Si4 2.677488 1_555
Si13 Si3 2.086946 1_555
Si13 Si7 2.269547 1_655
Si13 Si5 2.747199 1_565
Si16 Si3 2.283136 1_555
Si17 Si4 2.007960 1_545
Si17 Si2 2.426708 1_545
