# generated using pymatgen
data_CaLaCrNiO6
_symmetry_space_group_name_H-M   'P 1'
_cell_length_a   5.47014820
_cell_length_b   5.54912819
_cell_length_c   7.65036325
_cell_angle_alpha   90.00403739
_cell_angle_beta   89.96548981
_cell_angle_gamma   90.02977489
_symmetry_Int_Tables_number   1
_chemical_formula_structural   CaLaCrNiO6
_chemical_formula_sum   'Ca2 La2 Cr2 Ni2 O12'
_cell_volume   232.22328725
_cell_formula_units_Z   2
loop_
 _symmetry_equiv_pos_site_id
 _symmetry_equiv_pos_as_xyz
  1  'x, y, z'
loop_
 _atom_site_type_symbol
 _atom_site_label
 _atom_site_symmetry_multiplicity
 _atom_site_fract_x
 _atom_site_fract_y
 _atom_site_fract_z
 _atom_site_occupancy
  Ca  Ca0  1  0.48891100  0.45316200  0.75022200  1
  Ca  Ca1  1  0.98902300  0.04688900  0.25031700  1
  La  La0  1  0.00850100  0.96341700  0.74900500  1
  La  La1  1  0.50865100  0.53650500  0.24916000  1
  Cr  Cr0  1  0.00129700  0.49881400  0.99899300  1
  Cr  Cr1  1  0.50129100  0.00114000  0.49895500  1
  Ni  Ni0  1  0.00086700  0.50018000  0.50044600  1
  Ni  Ni1  1  0.50084300  0.99988600  0.00043700  1
  O  O0  1  0.07136300  0.47926900  0.23681200  1
  O  O1  1  0.57144900  0.02083200  0.73671500  1
  O  O2  1  0.20465700  0.22200200  0.95905300  1
  O  O3  1  0.70451700  0.27789400  0.45912600  1
  O  O4  1  0.22622700  0.20511600  0.53918300  1
  O  O5  1  0.72643800  0.29493500  0.03922500  1
  O  O6  1  0.27671000  0.69789300  0.95771700  1
  O  O7  1  0.77688600  0.80213800  0.45770500  1
  O  O8  1  0.30203500  0.72058100  0.54465100  1
  O  O9  1  0.80187100  0.77943900  0.04476900  1
  O  O10  1  0.41917200  0.98253500  0.26378900  1
  O  O11  1  0.91928500  0.51737200  0.76371700  1
loop_
_geom_bond_atom_site_label_1
_geom_bond_atom_site_label_2
_geom_bond_distance
_geom_bond_site_symmetry_2
Ca0 O11 2.383135 1_555
Ca0 O6 2.389700 1_555
Ca0 O8 2.392543 1_555
Ca0 O1 2.443568 1_555
Ca0 O4 2.562507 1_555
Ca0 O2 2.571151 1_555
Ca0 O3 2.700760 1_555
Ca0 O5 2.711543 1_556
Ca1 O10 2.382400 1_645
Ca1 O7 2.388491 1_545
Ca1 O9 2.392383 1_545
Ca1 O0 2.443194 1_655
Ca1 O5 2.563383 1_555
Ca1 O3 2.572145 1_555
Ca1 O2 2.701249 1_654
Ca1 O4 2.709303 1_655
La0 O4 2.406322 1_565
La0 O2 2.406814 1_565
La0 O1 2.413928 1_465
La0 O11 2.525069 1_455
La0 O8 2.614788 1_555
La0 O6 2.622674 1_555
La0 O7 2.715610 1_455
La0 O9 2.726850 1_456
La1 O3 2.406573 1_555
La1 O5 2.407229 1_555
La1 O0 2.414764 1_555
La1 O10 2.525720 1_555
La1 O9 2.613437 1_555
La1 O7 2.621332 1_555
La1 O6 2.718078 1_554
La1 O8 2.725610 1_555
Cr0 O11 1.858149 1_455
Cr0 O0 1.862738 1_556
Cr0 O6 1.894083 1_555
Cr0 O5 1.906039 1_456
Cr0 O2 1.921358 1_555
Cr0 O9 1.933613 1_456
Cr1 O10 1.857450 1_545
Cr1 O1 1.862411 1_555
Cr1 O7 1.895479 1_545
Cr1 O4 1.908139 1_555
Cr1 O3 1.919651 1_555
Cr1 O8 1.931809 1_545
Ni0 O0 2.056481 1_555
Ni0 O3 2.061022 1_455
Ni0 O11 2.064912 1_455
Ni0 O4 2.071477 1_555
Ni0 O8 2.079119 1_555
Ni0 O7 2.101998 1_455
Ni1 O1 2.057259 1_564
Ni1 O2 2.060862 1_564
Ni1 O10 2.065654 1_555
Ni1 O5 2.071187 1_565
Ni1 O9 2.079856 1_555
Ni1 O6 2.101561 1_554
