# generated using pymatgen
data_Zn2SiHO5
_symmetry_space_group_name_H-M   'P 1'
_cell_length_a   5.17676500
_cell_length_b   8.46097700
_cell_length_c   10.81191200
_cell_angle_alpha   90.00000000
_cell_angle_beta   90.00000000
_cell_angle_gamma   90.00000000
_symmetry_Int_Tables_number   1
_chemical_formula_structural   Zn2SiHO5
_chemical_formula_sum   'Zn8 Si4 H4 O20'
_cell_volume   473.56703911
_cell_formula_units_Z   4
loop_
 _symmetry_equiv_pos_site_id
 _symmetry_equiv_pos_as_xyz
  1  'x, y, z'
loop_
 _atom_site_type_symbol
 _atom_site_label
 _atom_site_symmetry_multiplicity
 _atom_site_fract_x
 _atom_site_fract_y
 _atom_site_fract_z
 _atom_site_occupancy
  Zn  Zn0  1  0.49602400  0.73734300  0.35513100  1
  Zn  Zn1  1  0.49602400  0.26265700  0.64486900  1
  Zn  Zn2  1  0.99602400  0.76265700  0.85513100  1
  Zn  Zn3  1  0.99602400  0.23734300  0.14486900  1
  Zn  Zn4  1  0.99315000  0.82756300  0.17512200  1
  Zn  Zn5  1  0.99315000  0.17243700  0.82487800  1
  Zn  Zn6  1  0.49315000  0.67243700  0.67512200  1
  Zn  Zn7  1  0.49315000  0.32756300  0.32487800  1
  Si  Si0  1  0.00389500  0.52568800  0.35496300  1
  Si  Si1  1  0.00389500  0.47431200  0.64503700  1
  Si  Si2  1  0.50389500  0.97431200  0.85496300  1
  Si  Si3  1  0.50389500  0.02568800  0.14503700  1
  H  H0  1  0.67136100  0.88481300  0.53480200  1
  H  H1  1  0.67136100  0.11518700  0.46519800  1
  H  H2  1  0.17136100  0.61518700  0.03480200  1
  H  H3  1  0.17136100  0.38481300  0.96519800  1
  O  O0  1  0.13178700  0.69517900  0.31204400  1
  O  O1  1  0.13178700  0.30482100  0.68795600  1
  O  O2  1  0.63178700  0.80482100  0.81204400  1
  O  O3  1  0.63178700  0.19517900  0.18795600  1
  O  O4  1  0.63277000  0.87769500  0.22264200  1
  O  O5  1  0.63277000  0.12230500  0.77735800  1
  O  O6  1  0.13277000  0.62230500  0.72264200  1
  O  O7  1  0.13277000  0.37769500  0.27735800  1
  O  O8  1  0.68995600  0.53053600  0.33555900  1
  O  O9  1  0.68995600  0.46946400  0.66444100  1
  O  O10  1  0.18995600  0.96946400  0.83555900  1
  O  O11  1  0.18995600  0.03053600  0.16444100  1
  O  O12  1  0.54047500  0.80141900  0.52628900  1
  O  O13  1  0.54047500  0.19858100  0.47371100  1
  O  O14  1  0.04047500  0.69858100  0.02628900  1
  O  O15  1  0.04047500  0.30141900  0.97371100  1
  O  O16  1  0.09177800  0.50000000  0.50000000  1
  O  O17  1  0.59177800  0.00000000  0.00000000  1
  O  O18  1  0.00328700  0.00000000  0.50000000  1
  O  O19  1  0.50328700  0.50000000  0.00000000  1
loop_
_geom_bond_atom_site_label_1
_geom_bond_atom_site_label_2
_geom_bond_distance
_geom_bond_site_symmetry_2
H0 O12 0.982564 1_555
H1 O13 0.982564 1_555
H2 O14 0.982564 1_555
H3 O15 0.982564 1_555
O0 Si0 1.646265 1_555
O0 Zn0 1.974756 1_555
O0 Zn4 1.990289 1_455
O1 Si1 1.646265 1_555
O1 Zn1 1.974756 1_555
O1 Zn5 1.990289 1_455
O2 Si2 1.646265 1_555
O2 Zn2 1.974756 1_555
O2 Zn6 1.990289 1_555
O3 Si3 1.646265 1_555
O3 Zn3 1.974756 1_555
O3 Zn7 1.990289 1_555
O4 Si3 1.648343 1_565
O4 Zn4 1.981000 1_555
O4 Zn0 1.990793 1_555
O5 Si2 1.648343 1_545
O5 Zn5 1.981000 1_555
O5 Zn1 1.990793 1_555
O6 Si1 1.648343 1_555
O6 Zn6 1.981000 1_555
O6 Zn2 1.990793 1_455
O7 Si0 1.648343 1_555
O7 Zn7 1.981000 1_555
O7 Zn3 1.990793 1_455
O8 Si0 1.639187 1_655
O8 Zn7 2.000154 1_555
O8 Zn0 2.028408 1_555
O9 Si1 1.639187 1_655
O9 Zn6 2.000154 1_555
O9 Zn1 2.028408 1_555
O10 Si2 1.639187 1_555
O10 Zn5 2.000154 1_465
O10 Zn2 2.028408 1_455
O11 Si3 1.639187 1_555
O11 Zn4 2.000154 1_445
O11 Zn3 2.028408 1_455
O12 Zn0 1.942007 1_555
O12 Zn6 1.959697 1_555
O13 Zn1 1.942007 1_555
O13 Zn7 1.959697 1_555
O14 Zn2 1.942007 1_454
O14 Zn4 1.959697 1_455
O15 Zn3 1.942007 1_456
O15 Zn5 1.959697 1_455
O16 Si0 1.647192 1_555
O16 Si1 1.647192 1_555
O17 Si3 1.647192 1_555
O17 Si2 1.647192 1_544
