# generated using pymatgen
data_MgVInS4
_symmetry_space_group_name_H-M   'P 1'
_cell_length_a   7.49140263
_cell_length_b   7.53067266
_cell_length_c   7.53342893
_cell_angle_alpha   57.67180263
_cell_angle_beta   60.17677320
_cell_angle_gamma   60.14389082
_symmetry_Int_Tables_number   1
_chemical_formula_structural   MgVInS4
_chemical_formula_sum   'Mg2 V2 In2 S8'
_cell_volume   295.56897219
_cell_formula_units_Z   2
loop_
 _symmetry_equiv_pos_site_id
 _symmetry_equiv_pos_as_xyz
  1  'x, y, z'
loop_
 _atom_site_type_symbol
 _atom_site_label
 _atom_site_symmetry_multiplicity
 _atom_site_fract_x
 _atom_site_fract_y
 _atom_site_fract_z
 _atom_site_occupancy
  Mg  Mg0  1  0.87591200  0.87414800  0.87424400  1
  Mg  Mg1  1  0.12407800  0.12585600  0.12576000  1
  V  V0  1  0.50000500  0.50000700  0.99999300  1
  V  V1  1  0.50001200  0.99998900  0.50000800  1
  In  In0  1  0.49996000  0.50003500  0.50000100  1
  In  In1  1  0.00003200  0.49997100  0.49999400  1
  S  S0  1  0.73180400  0.74554100  0.74522200  1
  S  S1  1  0.27410700  0.22866000  0.72281300  1
  S  S2  1  0.27430800  0.72305600  0.22859100  1
  S  S3  1  0.72262800  0.25476800  0.25442200  1
  S  S4  1  0.72567600  0.27694600  0.77140100  1
  S  S5  1  0.27736100  0.74523800  0.74558300  1
  S  S6  1  0.26820800  0.25444700  0.25477600  1
  S  S7  1  0.72591300  0.77133300  0.27719300  1
loop_
_geom_bond_atom_site_label_1
_geom_bond_atom_site_label_2
_geom_bond_distance
_geom_bond_site_symmetry_2
Mg0 S4 2.454137 1_565
Mg0 S7 2.456950 1_556
Mg0 S5 2.475195 1_655
Mg0 S0 2.477849 1_555
Mg1 S2 2.454161 1_545
Mg1 S1 2.456947 1_554
Mg1 S3 2.475201 1_455
Mg1 S6 2.477850 1_555
In0 S2 2.607161 1_555
In0 S4 2.607398 1_555
In0 S1 2.608768 1_555
In0 S7 2.608867 1_555
In0 S5 2.670696 1_555
In0 S3 2.671008 1_555
In1 S1 2.605955 1_555
In1 S7 2.606126 1_455
In1 S2 2.609421 1_555
In1 S4 2.609575 1_455
In1 S6 2.670338 1_555
In1 S0 2.670652 1_455
S0 V1 2.488240 1_555
S0 V0 2.490840 1_555
S1 V1 2.451778 1_545
S2 V0 2.452729 1_554
S3 V0 2.488552 1_554
S3 V1 2.491129 1_545
S4 V0 2.452761 1_555
S5 V0 2.488558 1_555
S5 V1 2.491160 1_555
S6 V1 2.488395 1_545
S6 V0 2.490965 1_554
S7 V1 2.451750 1_555
