# generated using pymatgen
data_Mg6AlGa
_symmetry_space_group_name_H-M   'P 1'
_cell_length_a   4.96768000
_cell_length_b   6.32470900
_cell_length_c   10.76902500
_cell_angle_alpha   90.00000000
_cell_angle_beta   90.00000000
_cell_angle_gamma   90.00000000
_symmetry_Int_Tables_number   1
_chemical_formula_structural   Mg6AlGa
_chemical_formula_sum   'Mg12 Al2 Ga2'
_cell_volume   338.35340081
_cell_formula_units_Z   2
loop_
 _symmetry_equiv_pos_site_id
 _symmetry_equiv_pos_as_xyz
  1  'x, y, z'
loop_
 _atom_site_type_symbol
 _atom_site_label
 _atom_site_symmetry_multiplicity
 _atom_site_fract_x
 _atom_site_fract_y
 _atom_site_fract_z
 _atom_site_occupancy
  Mg  Mg0  1  0.50000000  0.75001500  0.08337200  1
  Mg  Mg1  1  0.50000000  0.24998500  0.08337200  1
  Mg  Mg2  1  0.00000000  0.75049400  0.91462400  1
  Mg  Mg3  1  0.00000000  0.24950600  0.91462400  1
  Mg  Mg4  1  0.00000000  0.50000000  0.16920300  1
  Mg  Mg5  1  0.00000000  0.50000000  0.66842700  1
  Mg  Mg6  1  0.50000000  0.25001500  0.58337200  1
  Mg  Mg7  1  0.50000000  0.74998500  0.58337200  1
  Mg  Mg8  1  0.00000000  0.25049400  0.41462400  1
  Mg  Mg9  1  0.00000000  0.74950600  0.41462400  1
  Mg  Mg10  1  0.00000000  0.00000000  0.66920300  1
  Mg  Mg11  1  0.00000000  0.00000000  0.16842700  1
  Al  Al0  1  0.50000000  0.50000000  0.33330900  1
  Al  Al1  1  0.50000000  0.00000000  0.83330900  1
  Ga  Ga0  1  0.50000000  0.50000000  0.83307400  1
  Ga  Ga1  1  0.50000000  0.00000000  0.33307400  1
loop_
_geom_bond_atom_site_label_1
_geom_bond_atom_site_label_2
_geom_bond_distance
_geom_bond_site_symmetry_2
Mg0 Mg2 3.077641 1_654
Mg0 Mg2 3.077641 1_554
Mg0 Mg11 3.083547 1_565
Mg0 Mg11 3.083547 1_665
Mg0 Mg4 3.086137 1_555
Mg0 Mg4 3.086137 1_655
Mg0 Mg1 3.162165 1_565
Mg0 Mg1 3.162544 1_555
Mg1 Mg3 3.077641 1_654
Mg1 Mg3 3.077641 1_554
Mg1 Mg11 3.083547 1_555
Mg1 Mg11 3.083547 1_655
Mg1 Mg4 3.086137 1_655
Mg1 Mg4 3.086137 1_555
Mg2 Mg5 3.088594 1_555
Mg2 Mg3 3.156106 1_565
Mg2 Mg4 3.166418 1_556
Mg2 Mg3 3.168603 1_555
Mg3 Mg5 3.088594 1_555
Mg3 Mg4 3.166418 1_556
Mg4 Mg9 3.078215 1_555
Mg4 Mg8 3.078215 1_555
Mg5 Mg7 3.083547 1_555
Mg5 Mg6 3.083547 1_455
Mg5 Mg6 3.083547 1_555
Mg5 Mg7 3.083547 1_455
Mg5 Mg8 3.156056 1_555
Mg5 Mg9 3.156056 1_555
Mg6 Mg8 3.077641 1_655
Mg6 Mg8 3.077641 1_555
Mg6 Mg7 3.162165 1_555
Mg6 Mg7 3.162544 1_545
Mg7 Mg9 3.077641 1_555
Mg7 Mg9 3.077641 1_655
Mg8 Mg9 3.156106 1_555
Mg8 Mg9 3.168603 1_545
Mg10 Mg3 3.078215 1_555
Mg10 Mg2 3.078215 1_545
Mg10 Mg6 3.086137 1_555
Mg10 Mg7 3.086137 1_545
Mg10 Mg7 3.086137 1_445
Mg10 Mg6 3.086137 1_455
Mg10 Mg5 3.162366 1_545
Mg10 Mg5 3.162366 1_555
Mg10 Mg9 3.166418 1_545
Mg10 Mg8 3.166418 1_555
Mg11 Mg8 3.088594 1_555
Mg11 Mg9 3.088594 1_545
Mg11 Mg3 3.156056 1_554
Mg11 Mg2 3.156056 1_544
Mg11 Mg4 3.162366 1_545
Mg11 Mg4 3.162366 1_555
Al0 Mg4 3.048389 1_655
Al0 Mg4 3.048389 1_555
Al0 Mg9 3.070266 1_655
Al0 Mg8 3.070266 1_555
Al0 Mg9 3.070266 1_555
Al0 Mg8 3.070266 1_655
Al0 Mg0 3.121700 1_555
Al0 Mg1 3.121700 1_555
Al0 Mg6 3.122774 1_555
Al0 Mg7 3.122774 1_555
Al0 Ga1 3.162356 1_565
Al0 Ga1 3.162356 1_555
Al1 Mg10 3.048389 1_555
Al1 Mg10 3.048389 1_655
Al1 Mg3 3.070266 1_555
Al1 Mg3 3.070266 1_655
Al1 Mg2 3.070266 1_645
Al1 Mg2 3.070266 1_545
Al1 Mg6 3.121700 1_555
Al1 Mg7 3.121700 1_545
Al1 Mg1 3.122774 1_556
Al1 Mg0 3.122774 1_546
Al1 Ga0 3.162356 1_555
Al1 Ga0 3.162356 1_545
Ga0 Mg5 3.051770 1_655
Ga0 Mg5 3.051770 1_555
Ga0 Mg2 3.074204 1_555
Ga0 Mg2 3.074204 1_655
Ga0 Mg3 3.074204 1_655
Ga0 Mg3 3.074204 1_555
Ga0 Mg6 3.119422 1_555
Ga0 Mg7 3.119422 1_555
Ga0 Mg0 3.125053 1_556
Ga0 Mg1 3.125053 1_556
Ga1 Mg11 3.051770 1_555
Ga1 Mg11 3.051770 1_655
Ga1 Mg8 3.074204 1_555
Ga1 Mg9 3.074204 1_645
Ga1 Mg8 3.074204 1_655
Ga1 Mg9 3.074204 1_545
Ga1 Mg1 3.119422 1_555
Ga1 Mg0 3.119422 1_545
Ga1 Mg6 3.125053 1_555
Ga1 Mg7 3.125053 1_545
