# generated using pymatgen
data_KGa(PH)2
_symmetry_space_group_name_H-M   'P 1'
_cell_length_a   5.32493200
_cell_length_b   7.97831000
_cell_length_c   11.90174300
_cell_angle_alpha   90.00000000
_cell_angle_beta   90.00000000
_cell_angle_gamma   90.00000000
_symmetry_Int_Tables_number   1
_chemical_formula_structural   KGa(PH)2
_chemical_formula_sum   'K4 Ga4 P8 H8'
_cell_volume   505.63315242
_cell_formula_units_Z   4
loop_
 _symmetry_equiv_pos_site_id
 _symmetry_equiv_pos_as_xyz
  1  'x, y, z'
loop_
 _atom_site_type_symbol
 _atom_site_label
 _atom_site_symmetry_multiplicity
 _atom_site_fract_x
 _atom_site_fract_y
 _atom_site_fract_z
 _atom_site_occupancy
  K  K0  1  0.25000000  0.73436500  0.19360600  1
  K  K1  1  0.75000000  0.26563500  0.80639400  1
  K  K2  1  0.75000000  0.23436500  0.30639400  1
  K  K3  1  0.25000000  0.76563500  0.69360600  1
  Ga  Ga0  1  0.25000000  0.19005000  0.00669900  1
  Ga  Ga1  1  0.75000000  0.80995000  0.99330100  1
  Ga  Ga2  1  0.75000000  0.69005000  0.49330100  1
  Ga  Ga3  1  0.25000000  0.30995000  0.50669900  1
  P  P0  1  0.96435100  0.40813800  0.06812000  1
  P  P1  1  0.03564900  0.59186200  0.93188000  1
  P  P2  1  0.03564900  0.90813800  0.43188000  1
  P  P3  1  0.46435100  0.59186200  0.93188000  1
  P  P4  1  0.96435100  0.09186200  0.56812000  1
  P  P5  1  0.53564900  0.40813800  0.06812000  1
  P  P6  1  0.53564900  0.09186200  0.56812000  1
  P  P7  1  0.46435100  0.90813800  0.43188000  1
  H  H0  1  0.25000000  0.36250500  0.37731400  1
  H  H1  1  0.75000000  0.63749500  0.62268600  1
  H  H2  1  0.75000000  0.86250500  0.12268600  1
  H  H3  1  0.25000000  0.13749500  0.87731400  1
  H  H4  1  0.25000000  0.04773700  0.09903700  1
  H  H5  1  0.75000000  0.95226300  0.90096300  1
  H  H6  1  0.75000000  0.54773700  0.40096300  1
  H  H7  1  0.25000000  0.45226300  0.59903700  1
loop_
_geom_bond_atom_site_label_1
_geom_bond_atom_site_label_2
_geom_bond_distance
_geom_bond_site_symmetry_2
K0 P2 3.356656 1_555
K0 P7 3.356656 1_555
K0 P0 3.364288 1_455
K0 P5 3.364288 1_555
K0 P3 3.506939 1_554
K0 P1 3.506939 1_554
K1 P4 3.356656 1_555
K1 P6 3.356656 1_555
K1 P3 3.364288 1_555
K1 P1 3.364288 1_655
K1 P0 3.506939 1_556
K1 P5 3.506939 1_556
K2 P0 3.356656 1_555
K2 P5 3.356656 1_555
K2 P7 3.364288 1_545
K2 P2 3.364288 1_645
K2 P6 3.506939 1_555
K2 P4 3.506939 1_555
K3 P1 3.356656 1_555
K3 P3 3.356656 1_555
K3 P6 3.364288 1_565
K3 P4 3.364288 1_465
K3 P7 3.506939 1_555
K3 P2 3.506939 1_555
Ga0 H4 1.580170 1_555
Ga0 H3 1.595972 1_554
Ga0 P5 2.423948 1_555
Ga0 P0 2.423948 1_455
Ga1 H5 1.580170 1_555
Ga1 H2 1.595972 1_556
Ga1 P3 2.423948 1_555
Ga1 P1 2.423948 1_655
Ga2 H6 1.580170 1_555
Ga2 H1 1.595972 1_555
Ga2 P7 2.423948 1_555
Ga2 P2 2.423948 1_655
Ga3 H7 1.580170 1_555
Ga3 H0 1.595972 1_555
Ga3 P4 2.423948 1_455
Ga3 P6 2.423948 1_555
P0 P1 2.218551 1_654
P0 P5 2.282809 1_555
P1 P3 2.282809 1_555
P2 P4 2.218551 1_465
P2 P7 2.282809 1_555
P3 P5 2.218551 1_556
P4 P6 2.282809 1_555
P6 P7 2.218551 1_545
H0 K2 2.974284 1_455
H0 K2 2.974284 1_555
H1 K3 2.974284 1_555
H1 K3 2.974284 1_655
H2 K0 2.974284 1_555
H2 K0 2.974284 1_655
H3 K1 2.974284 1_555
H3 K1 2.974284 1_455
H4 K0 2.741847 1_545
H5 K1 2.741847 1_565
H6 K2 2.741847 1_555
H7 K3 2.741847 1_555
