# generated using pymatgen
data_YMo(WO4)2
_symmetry_space_group_name_H-M   'P 1'
_cell_length_a   5.82203500
_cell_length_b   5.38522300
_cell_length_c   11.10792828
_cell_angle_alpha   63.53074678
_cell_angle_beta   90.00000000
_cell_angle_gamma   90.00000000
_symmetry_Int_Tables_number   1
_chemical_formula_structural   YMo(WO4)2
_chemical_formula_sum   'Y2 Mo2 W4 O16'
_cell_volume   311.75890965
_cell_formula_units_Z   2
loop_
 _symmetry_equiv_pos_site_id
 _symmetry_equiv_pos_as_xyz
  1  'x, y, z'
loop_
 _atom_site_type_symbol
 _atom_site_label
 _atom_site_symmetry_multiplicity
 _atom_site_fract_x
 _atom_site_fract_y
 _atom_site_fract_z
 _atom_site_occupancy
  Y  Y0  1  0.66954700  0.50000000  0.25000000  1
  Y  Y1  1  0.33045300  0.50000000  0.75000000  1
  Mo  Mo0  1  0.33987800  0.00000000  0.25000000  1
  Mo  Mo1  1  0.66012200  0.00000000  0.75000000  1
  W  W0  1  0.15603000  0.74398100  0.00339700  1
  W  W1  1  0.15603000  0.25601900  0.49660300  1
  W  W2  1  0.84397000  0.25601900  0.99660300  1
  W  W3  1  0.84397000  0.74398100  0.50339700  1
  O  O0  1  0.36430000  0.23232500  0.36275400  1
  O  O1  1  0.36430000  0.76767500  0.13724600  1
  O  O2  1  0.63570000  0.76767500  0.63724600  1
  O  O3  1  0.63570000  0.23232500  0.86275400  1
  O  O4  1  0.89352000  0.67183600  0.88955400  1
  O  O5  1  0.89352000  0.32816400  0.61044600  1
  O  O6  1  0.10648000  0.32816400  0.11044600  1
  O  O7  1  0.10648000  0.67183600  0.38955400  1
  O  O8  1  0.62568200  0.74871700  0.37380800  1
  O  O9  1  0.62568200  0.25128300  0.12619200  1
  O  O10  1  0.37431800  0.25128300  0.62619200  1
  O  O11  1  0.37431800  0.74871700  0.87380800  1
  O  O12  1  0.88822800  0.17440900  0.40302100  1
  O  O13  1  0.11177200  0.82559100  0.59697900  1
  O  O14  1  0.88822800  0.82559100  0.09697900  1
  O  O15  1  0.11177200  0.17440900  0.90302100  1
loop_
_geom_bond_atom_site_label_1
_geom_bond_atom_site_label_2
_geom_bond_distance
_geom_bond_site_symmetry_2
Mo0 O0 2.133319 1_555
Mo0 O1 2.133319 1_545
Mo0 O8 2.198250 1_545
Mo0 O9 2.198250 1_555
Mo0 O7 2.220474 1_545
Mo0 O6 2.220474 1_555
Mo1 O3 2.133319 1_555
Mo1 O2 2.133319 1_545
Mo1 O11 2.198250 1_545
Mo1 O10 2.198250 1_555
Mo1 O4 2.220474 1_545
Mo1 O5 2.220474 1_555
O0 W1 1.966269 1_555
O0 Y0 2.279351 1_555
O1 W0 1.966269 1_555
O1 Y0 2.279351 1_555
O2 W3 1.966269 1_555
O2 Y1 2.279351 1_555
O3 W2 1.966269 1_555
O3 Y1 2.279351 1_555
O4 W2 2.034173 1_555
O4 W0 2.126935 1_656
O5 W3 2.034173 1_555
O5 W1 2.126935 1_655
O6 W0 2.034173 1_555
O6 W2 2.126935 1_454
O7 W1 2.034173 1_555
O7 W3 2.126935 1_455
O8 W3 1.911837 1_555
O8 Y0 2.322186 1_555
O9 W2 1.911837 1_554
O9 Y0 2.322186 1_555
O10 W1 1.911837 1_555
O10 Y1 2.322186 1_555
O11 W0 1.911837 1_556
O11 Y1 2.322186 1_555
O12 W1 2.027788 1_655
O12 W3 2.092506 1_545
O12 Y0 2.219841 1_555
O13 W3 2.027788 1_455
O13 W1 2.092506 1_565
O13 Y1 2.219841 1_555
O14 W0 2.027788 1_655
O14 W2 2.092506 1_564
O14 Y0 2.219841 1_555
O15 W2 2.027788 1_455
O15 W0 2.092506 1_546
O15 Y1 2.219841 1_555
