# generated using pymatgen
data_PrTl2InTe4
_symmetry_space_group_name_H-M   'P 1'
_cell_length_a   7.16570940
_cell_length_b   7.16570940
_cell_length_c   7.16570940
_cell_angle_alpha   106.90741176
_cell_angle_beta   106.90741176
_cell_angle_gamma   114.73033820
_symmetry_Int_Tables_number   1
_chemical_formula_structural   PrTl2InTe4
_chemical_formula_sum   'Pr1 Tl2 In1 Te4'
_cell_volume   281.43427375
_cell_formula_units_Z   1
loop_
 _symmetry_equiv_pos_site_id
 _symmetry_equiv_pos_as_xyz
  1  'x, y, z'
loop_
 _atom_site_type_symbol
 _atom_site_label
 _atom_site_symmetry_multiplicity
 _atom_site_fract_x
 _atom_site_fract_y
 _atom_site_fract_z
 _atom_site_occupancy
  Pr  Pr0  1  0.50000000  0.50000000  0.00000000  1
  Tl  Tl0  1  0.50000000  0.00000000  0.50000000  1
  Tl  Tl1  1  0.00000000  0.50000000  0.50000000  1
  In  In0  1  0.00000000  0.00000000  0.00000000  1
  Te  Te0  1  0.58851900  0.96500100  0.00000000  1
  Te  Te1  1  0.96500100  0.58851900  0.00000000  1
  Te  Te2  1  0.03499900  0.03499900  0.62351800  1
  Te  Te3  1  0.41148100  0.41148100  0.37648200  1
loop_
_geom_bond_atom_site_label_1
_geom_bond_atom_site_label_2
_geom_bond_distance
_geom_bond_site_symmetry_2
Pr0 Te3 3.120351 1_555
Pr0 Te1 3.120351 1_555
Pr0 Te0 3.120351 1_555
Pr0 Te2 3.120351 1_554
In0 Te2 2.852744 1_554
In0 Te0 2.852744 1_445
In0 Te3 2.852744 1_555
In0 Te1 2.852744 1_445
Te0 Tl0 3.554710 1_564
Te0 Tl1 3.554710 1_665
Te1 Tl0 3.554710 1_665
Te1 Tl1 3.554710 1_654
Te2 Tl0 3.554710 1_455
Te2 Tl1 3.554710 1_545
Te3 Tl0 3.554710 1_555
Te3 Tl1 3.554710 1_555
