# generated using pymatgen
data_MgCuF5
_symmetry_space_group_name_H-M   'P 1'
_cell_length_a   5.13475024
_cell_length_b   5.13475024
_cell_length_c   7.13383026
_cell_angle_alpha   69.74888235
_cell_angle_beta   69.74888235
_cell_angle_gamma   72.20251987
_symmetry_Int_Tables_number   1
_chemical_formula_structural   MgCuF5
_chemical_formula_sum   'Mg2 Cu2 F10'
_cell_volume   161.82108422
_cell_formula_units_Z   2
loop_
 _symmetry_equiv_pos_site_id
 _symmetry_equiv_pos_as_xyz
  1  'x, y, z'
loop_
 _atom_site_type_symbol
 _atom_site_label
 _atom_site_symmetry_multiplicity
 _atom_site_fract_x
 _atom_site_fract_y
 _atom_site_fract_z
 _atom_site_occupancy
  Mg  Mg0  1  0.53464237  0.46535763  0.25000000  1
  Mg  Mg1  1  0.46535763  0.53464237  0.75000000  1
  Cu  Cu0  1  0.00000000  -0.00000000  0.50000000  1
  Cu  Cu1  1  0.00000000  -0.00000000  -0.00000000  1
  F  F0  1  0.11133138  0.88866862  0.75000000  1
  F  F1  1  0.88866862  0.11133138  0.25000000  1
  F  F2  1  0.20451911  0.28441777  0.86526118  1
  F  F3  1  0.71558223  0.79548089  0.63473882  1
  F  F4  1  0.71765925  0.32686733  0.53739998  1
  F  F5  1  0.67313267  0.28234075  0.96260002  1
  F  F6  1  0.28234075  0.67313267  0.46260002  1
  F  F7  1  0.32686733  0.71765925  0.03739998  1
  F  F8  1  0.28441777  0.20451911  0.36526118  1
  F  F9  1  0.79548089  0.71558223  0.13473882  1
loop_
_geom_bond_atom_site_label_1
_geom_bond_atom_site_label_2
_geom_bond_distance
_geom_bond_site_symmetry_2
Cu0 F8 1.851086 1_555
Cu0 F3 1.851086 1_445
Cu0 F6 1.882738 1_545
Cu0 F4 1.882738 1_455
Cu0 F1 1.906446 1_455
Cu0 F0 1.906446 1_545
Cu1 F2 1.851086 1_554
Cu1 F9 1.851086 1_445
Cu1 F5 1.882738 1_454
Cu1 F7 1.882738 1_545
Cu1 F0 1.906446 1_544
Cu1 F1 1.906446 1_455
F0 Mg1 2.142190 1_555
F1 Mg0 2.142190 1_555
F2 Mg1 1.918064 1_555
F3 Mg1 1.918064 1_555
F4 Mg1 2.007941 1_555
F4 Mg0 2.346992 1_555
F5 Mg1 2.007941 1_555
F5 Mg0 2.346992 1_556
F6 Mg0 2.007941 1_555
F6 Mg1 2.346992 1_555
F7 Mg0 2.007941 1_555
F7 Mg1 2.346992 1_554
F8 Mg0 1.918064 1_555
F9 Mg0 1.918064 1_555
