# generated using pymatgen
data_Rb4B2S4O17
_symmetry_space_group_name_H-M   'P 1'
_cell_length_a   8.19588700
_cell_length_b   10.81275300
_cell_length_c   20.77285900
_cell_angle_alpha   90.00000000
_cell_angle_beta   90.00000000
_cell_angle_gamma   90.00000000
_symmetry_Int_Tables_number   1
_chemical_formula_structural   Rb4B2S4O17
_chemical_formula_sum   'Rb16 B8 S16 O68'
_cell_volume   1840.89287815
_cell_formula_units_Z   4
loop_
 _symmetry_equiv_pos_site_id
 _symmetry_equiv_pos_as_xyz
  1  'x, y, z'
loop_
 _atom_site_type_symbol
 _atom_site_label
 _atom_site_symmetry_multiplicity
 _atom_site_fract_x
 _atom_site_fract_y
 _atom_site_fract_z
 _atom_site_occupancy
  Rb  Rb0  1  0.75000000  0.00000000  0.96167600  1
  Rb  Rb1  1  0.75000000  0.50000000  0.53832400  1
  Rb  Rb2  1  0.25000000  0.00000000  0.03832400  1
  Rb  Rb3  1  0.25000000  0.50000000  0.46167600  1
  Rb  Rb4  1  0.50384400  0.62356600  0.90692200  1
  Rb  Rb5  1  0.99615600  0.37643400  0.90692200  1
  Rb  Rb6  1  0.50384400  0.87643400  0.59307800  1
  Rb  Rb7  1  0.99615600  0.12356600  0.59307800  1
  Rb  Rb8  1  0.49615600  0.37643400  0.09307800  1
  Rb  Rb9  1  0.00384400  0.62356600  0.09307800  1
  Rb  Rb10  1  0.49615600  0.12356600  0.40692200  1
  Rb  Rb11  1  0.00384400  0.87643400  0.40692200  1
  Rb  Rb12  1  0.65658500  0.25000000  0.75000000  1
  Rb  Rb13  1  0.84341500  0.75000000  0.75000000  1
  Rb  Rb14  1  0.34341500  0.75000000  0.25000000  1
  Rb  Rb15  1  0.15658500  0.25000000  0.25000000  1
  B  B0  1  0.19773200  0.89786900  0.85407800  1
  B  B1  1  0.30226800  0.10213100  0.85407800  1
  B  B2  1  0.19773200  0.60213100  0.64592200  1
  B  B3  1  0.30226800  0.39786900  0.64592200  1
  B  B4  1  0.80226800  0.10213100  0.14592200  1
  B  B5  1  0.69773200  0.89786900  0.14592200  1
  B  B6  1  0.80226800  0.39786900  0.35407800  1
  B  B7  1  0.69773200  0.60213100  0.35407800  1
  S  S0  1  0.45666800  0.27628800  0.93040100  1
  S  S1  1  0.04333200  0.72371200  0.93040100  1
  S  S2  1  0.45666800  0.22371200  0.56959900  1
  S  S3  1  0.04333200  0.77628800  0.56959900  1
  S  S4  1  0.54333200  0.72371200  0.06959900  1
  S  S5  1  0.95666800  0.27628800  0.06959900  1
  S  S6  1  0.54333200  0.77628800  0.43040100  1
  S  S7  1  0.95666800  0.22371200  0.43040100  1
  S  S8  1  0.49026600  0.93361600  0.79775800  1
  S  S9  1  0.00973400  0.06638400  0.79775800  1
  S  S10  1  0.49026600  0.56638400  0.70224200  1
  S  S11  1  0.00973400  0.43361600  0.70224200  1
  S  S12  1  0.50973400  0.06638400  0.20224200  1
  S  S13  1  0.99026600  0.93361600  0.20224200  1
  S  S14  1  0.50973400  0.43361600  0.29775800  1
  S  S15  1  0.99026600  0.56638400  0.29775800  1
  O  O0  1  0.75000000  0.00000000  0.10794900  1
  O  O1  1  0.75000000  0.50000000  0.39205100  1
  O  O2  1  0.25000000  0.00000000  0.89205100  1
  O  O3  1  0.25000000  0.50000000  0.60794900  1
  O  O4  1  0.18465200  0.77806200  0.88457200  1
  O  O5  1  0.31534800  0.22193800  0.88457200  1
  O  O6  1  0.18465200  0.72193800  0.61542800  1
  O  O7  1  0.31534800  0.27806200  0.61542800  1
  O  O8  1  0.81534800  0.22193800  0.11542800  1
  O  O9  1  0.68465200  0.77806200  0.11542800  1
  O  O10  1  0.81534800  0.27806200  0.38457200  1
  O  O11  1  0.68465200  0.72193800  0.38457200  1
  O  O12  1  0.46234800  0.07037300  0.81967400  1
  O  O13  1  0.03765200  0.92962700  0.81967400  1
  O  O14  1  0.46234800  0.42962700  0.68032600  1
  O  O15  1  0.03765200  0.57037300  0.68032600  1
  O  O16  1  0.53765200  0.92962700  0.18032600  1
  O  O17  1  0.96234800  0.07037300  0.18032600  1
  O  O18  1  0.53765200  0.57037300  0.31967400  1
  O  O19  1  0.96234800  0.42962700  0.31967400  1
  O  O20  1  0.31934500  0.87497700  0.79752800  1
  O  O21  1  0.18065500  0.12502300  0.79752800  1
  O  O22  1  0.31934500  0.62502300  0.70247200  1
  O  O23  1  0.18065500  0.37497700  0.70247200  1
  O  O24  1  0.68065500  0.12502300  0.20247200  1
  O  O25  1  0.81934500  0.87497700  0.20247200  1
  O  O26  1  0.68065500  0.37497700  0.29752800  1
  O  O27  1  0.81934500  0.62502300  0.29752800  1
  O  O28  1  0.62212400  0.61346000  0.04263700  1
  O  O29  1  0.87787600  0.38654000  0.04263700  1
  O  O30  1  0.62212400  0.88654000  0.45736300  1
  O  O31  1  0.87787600  0.11346000  0.45736300  1
  O  O32  1  0.37787600  0.38654000  0.95736300  1
  O  O33  1  0.12212400  0.61346000  0.95736300  1
  O  O34  1  0.37787600  0.11346000  0.54263700  1
  O  O35  1  0.12212400  0.88654000  0.54263700  1
  O  O36  1  0.50855600  0.81864000  0.02080400  1
  O  O37  1  0.99144400  0.18136000  0.02080400  1
  O  O38  1  0.50855600  0.68136000  0.47919600  1
  O  O39  1  0.99144400  0.31864000  0.47919600  1
  O  O40  1  0.49144400  0.18136000  0.97919600  1
  O  O41  1  0.00855600  0.81864000  0.97919600  1
  O  O42  1  0.49144400  0.31864000  0.52080400  1
  O  O43  1  0.00855600  0.68136000  0.52080400  1
  O  O44  1  0.59678100  0.30527000  0.88924900  1
  O  O45  1  0.90321900  0.69473000  0.88924900  1
  O  O46  1  0.59678100  0.19473000  0.61075100  1
  O  O47  1  0.90321900  0.80527000  0.61075100  1
  O  O48  1  0.40321900  0.69473000  0.11075100  1
  O  O49  1  0.09678100  0.30527000  0.11075100  1
  O  O50  1  0.40321900  0.80527000  0.38924900  1
  O  O51  1  0.09678100  0.19473000  0.38924900  1
  O  O52  1  0.59561000  0.87227200  0.84416200  1
  O  O53  1  0.90439000  0.12772800  0.84416200  1
  O  O54  1  0.59561000  0.62772800  0.65583800  1
  O  O55  1  0.90439000  0.37227200  0.65583800  1
  O  O56  1  0.40439000  0.12772800  0.15583800  1
  O  O57  1  0.09561000  0.87227200  0.15583800  1
  O  O58  1  0.40439000  0.37227200  0.34416200  1
  O  O59  1  0.09561000  0.62772800  0.34416200  1
  O  O60  1  0.55192000  0.56425900  0.76755000  1
  O  O61  1  0.94808000  0.43574100  0.76755000  1
  O  O62  1  0.55192000  0.93574100  0.73245000  1
  O  O63  1  0.94808000  0.06425900  0.73245000  1
  O  O64  1  0.44808000  0.43574100  0.23245000  1
  O  O65  1  0.05192000  0.56425900  0.23245000  1
  O  O66  1  0.44808000  0.06425900  0.26755000  1
  O  O67  1  0.05192000  0.93574100  0.26755000  1
loop_
_geom_bond_atom_site_label_1
_geom_bond_atom_site_label_2
_geom_bond_distance
_geom_bond_site_symmetry_2
B0 O2 1.423111 1_565
B0 O4 1.446002 1_555
B0 O13 1.532973 1_555
B0 O20 1.560341 1_555
B1 O2 1.423111 1_555
B1 O5 1.446002 1_555
B1 O12 1.532973 1_555
B1 O21 1.560341 1_555
B2 O3 1.423111 1_555
B2 O6 1.446002 1_555
B2 O15 1.532973 1_555
B2 O22 1.560341 1_555
B3 O3 1.423111 1_555
B3 O7 1.446002 1_555
B3 O14 1.532973 1_555
B3 O23 1.560341 1_555
B4 O0 1.423111 1_555
B4 O8 1.446002 1_555
B4 O17 1.532973 1_555
B4 O24 1.560341 1_555
B5 O0 1.423111 1_565
B5 O9 1.446002 1_555
B5 O16 1.532973 1_555
B5 O25 1.560341 1_555
B6 O1 1.423111 1_555
B6 O10 1.446002 1_555
B6 O19 1.532973 1_555
B6 O26 1.560341 1_555
B7 O1 1.423111 1_555
B7 O11 1.446002 1_555
B7 O18 1.532973 1_555
B7 O27 1.560341 1_555
O0 Rb0 3.038508 1_554
O1 Rb1 3.038508 1_555
O2 Rb2 3.038508 1_556
O3 Rb3 3.038508 1_555
O4 S1 1.610338 1_555
O4 Rb4 3.138469 1_555
O5 S0 1.610338 1_555
O5 Rb5 3.138469 1_455
O6 S3 1.610338 1_555
O6 Rb6 3.138469 1_555
O7 S2 1.610338 1_555
O7 Rb7 3.138469 1_455
O8 S5 1.610338 1_555
O8 Rb8 3.138469 1_555
O9 S4 1.610338 1_555
O9 Rb9 3.138469 1_655
O10 S7 1.610338 1_555
O10 Rb10 3.138469 1_555
O11 S6 1.610338 1_555
O11 Rb11 3.138469 1_655
O12 S8 1.564042 1_545
O12 Rb12 2.898522 1_555
O13 S9 1.564042 1_565
O13 Rb13 2.898522 1_455
O14 S10 1.564042 1_555
O14 Rb12 2.898522 1_555
O15 S11 1.564042 1_555
O15 Rb13 2.898522 1_455
O16 S12 1.564042 1_565
O16 Rb14 2.898522 1_555
O17 S13 1.564042 1_545
O17 Rb15 2.898522 1_655
O18 S14 1.564042 1_555
O18 Rb14 2.898522 1_555
O19 S15 1.564042 1_555
O19 Rb15 2.898522 1_655
O20 S8 1.537667 1_555
O21 S9 1.537667 1_555
O22 S10 1.537667 1_555
O23 S11 1.537667 1_555
O24 S12 1.537667 1_555
O25 S13 1.537667 1_555
O26 S14 1.537667 1_555
O27 S15 1.537667 1_555
O28 S4 1.466927 1_555
O28 Rb8 2.955039 1_555
O28 Rb4 2.983206 1_554
O28 Rb9 3.301145 1_655
O29 S5 1.466927 1_555
O29 Rb9 2.955039 1_655
O29 Rb5 2.983206 1_554
O29 Rb8 3.301145 1_555
O30 S6 1.466927 1_555
O30 Rb10 2.955039 1_565
O30 Rb6 2.983206 1_555
O30 Rb11 3.301145 1_655
O31 S7 1.466927 1_555
O31 Rb11 2.955039 1_645
O31 Rb7 2.983206 1_555
O31 Rb10 3.301145 1_555
O32 S0 1.466927 1_555
O32 Rb4 2.955039 1_555
O32 Rb8 2.983206 1_556
O32 Rb5 3.301145 1_455
O33 S1 1.466927 1_555
O33 Rb5 2.955039 1_455
O33 Rb9 2.983206 1_556
O33 Rb4 3.301145 1_555
O34 S2 1.466927 1_555
O34 Rb6 2.955039 1_545
O34 Rb10 2.983206 1_555
O34 Rb7 3.301145 1_455
O35 S3 1.466927 1_555
O35 Rb7 2.955039 1_465
O35 Rb11 2.983206 1_555
O35 Rb6 3.301145 1_555
O36 S4 1.470445 1_555
O36 Rb2 2.910076 1_565
O36 Rb0 3.044664 1_564
O36 Rb4 3.169685 1_554
O37 S5 1.470445 1_555
O37 Rb2 2.910076 1_655
O37 Rb0 3.044664 1_554
O37 Rb5 3.169685 1_554
O38 S6 1.470445 1_555
O38 Rb3 2.910076 1_555
O38 Rb1 3.044664 1_555
O38 Rb6 3.169685 1_555
O39 S7 1.470445 1_555
O39 Rb3 2.910076 1_655
O39 Rb1 3.044664 1_555
O39 Rb7 3.169685 1_555
O40 S0 1.470445 1_555
O40 Rb0 2.910076 1_555
O40 Rb2 3.044664 1_556
O40 Rb8 3.169685 1_556
O41 S1 1.470445 1_555
O41 Rb0 2.910076 1_465
O41 Rb2 3.044664 1_566
O41 Rb9 3.169685 1_556
O42 S2 1.470445 1_555
O42 Rb1 2.910076 1_555
O42 Rb3 3.044664 1_555
O42 Rb10 3.169685 1_555
O43 S3 1.470445 1_555
O43 Rb1 2.910076 1_455
O43 Rb3 3.044664 1_555
O43 Rb11 3.169685 1_555
O44 S0 1.465494 1_555
O44 Rb12 2.994082 1_555
O44 Rb5 3.382443 1_555
O44 Rb4 3.544004 1_555
O45 S1 1.465494 1_655
O45 Rb13 2.994082 1_555
O45 Rb4 3.382443 1_555
O45 Rb5 3.544004 1_555
O46 S2 1.465494 1_555
O46 Rb12 2.994082 1_555
O46 Rb7 3.382443 1_555
O46 Rb6 3.544004 1_545
O47 S3 1.465494 1_655
O47 Rb13 2.994082 1_555
O47 Rb6 3.382443 1_555
O47 Rb7 3.544004 1_565
O48 S4 1.465494 1_555
O48 Rb14 2.994082 1_555
O48 Rb9 3.382443 1_555
O48 Rb8 3.544004 1_555
O49 S5 1.465494 1_455
O49 Rb15 2.994082 1_555
O49 Rb8 3.382443 1_555
O49 Rb9 3.544004 1_555
O50 S6 1.465494 1_555
O50 Rb14 2.994082 1_555
O50 Rb11 3.382443 1_555
O50 Rb10 3.544004 1_565
O51 S7 1.465494 1_455
O51 Rb15 2.994082 1_555
O51 Rb10 3.382443 1_555
O51 Rb11 3.544004 1_545
O52 S8 1.454163 1_555
O52 Rb0 3.076936 1_565
O52 Rb4 3.081734 1_555
O52 Rb13 3.114293 1_555
O53 S9 1.454163 1_655
O53 Rb0 3.076936 1_555
O53 Rb5 3.081734 1_555
O53 Rb12 3.114293 1_555
O54 S10 1.454163 1_555
O54 Rb1 3.076936 1_555
O54 Rb6 3.081734 1_555
O54 Rb13 3.114293 1_555
O55 S11 1.454163 1_655
O55 Rb1 3.076936 1_555
O55 Rb7 3.081734 1_555
O55 Rb12 3.114293 1_555
O56 S12 1.454163 1_555
O56 Rb2 3.076936 1_555
O56 Rb8 3.081734 1_555
O56 Rb15 3.114293 1_555
O57 S13 1.454163 1_455
O57 Rb2 3.076936 1_565
O57 Rb9 3.081734 1_555
O57 Rb14 3.114293 1_555
O58 S14 1.454163 1_555
O58 Rb3 3.076936 1_555
O58 Rb10 3.081734 1_555
O58 Rb15 3.114293 1_555
O59 S15 1.454163 1_455
O59 Rb3 3.076936 1_555
O59 Rb11 3.081734 1_555
O59 Rb14 3.114293 1_555
O60 S10 1.447868 1_555
O60 Rb4 2.991389 1_555
O60 Rb13 3.142303 1_555
O61 S11 1.447868 1_655
O61 Rb5 2.991389 1_555
O61 Rb12 3.142303 1_555
O62 S8 1.447868 1_555
O62 Rb6 2.991389 1_555
O62 Rb13 3.142303 1_555
O63 S9 1.447868 1_655
O63 Rb7 2.991389 1_555
O63 Rb12 3.142303 1_555
O64 S14 1.447868 1_555
O64 Rb8 2.991389 1_555
O64 Rb15 3.142303 1_555
O65 S15 1.447868 1_455
O65 Rb9 2.991389 1_555
O65 Rb14 3.142303 1_555
O66 S12 1.447868 1_555
O66 Rb10 2.991389 1_555
O66 Rb15 3.142303 1_555
O67 S13 1.447868 1_455
O67 Rb11 2.991389 1_555
O67 Rb14 3.142303 1_555
