# generated using pymatgen
data_Sr4Mn3O10
_symmetry_space_group_name_H-M   'P 1'
_cell_length_a   6.80079115
_cell_length_b   6.80079115
_cell_length_c   12.57810987
_cell_angle_alpha   90.00000000
_cell_angle_beta   90.00000000
_cell_angle_gamma   132.54037209
_symmetry_Int_Tables_number   1
_chemical_formula_structural   Sr4Mn3O10
_chemical_formula_sum   'Sr8 Mn6 O20'
_cell_volume   428.63194422
_cell_formula_units_Z   2
loop_
 _symmetry_equiv_pos_site_id
 _symmetry_equiv_pos_as_xyz
  1  'x, y, z'
loop_
 _atom_site_type_symbol
 _atom_site_label
 _atom_site_symmetry_multiplicity
 _atom_site_fract_x
 _atom_site_fract_y
 _atom_site_fract_z
 _atom_site_occupancy
  Sr  Sr0  1  0.76243373  0.23756627  0.88735146  1
  Sr  Sr1  1  0.26243373  0.73756627  0.61264854  1
  Sr  Sr2  1  0.73756627  0.26243373  0.38735146  1
  Sr  Sr3  1  0.02987012  0.97012988  0.35726976  1
  Sr  Sr4  1  0.23756627  0.76243373  0.11264854  1
  Sr  Sr5  1  0.47012988  0.52987012  0.85726976  1
  Sr  Sr6  1  0.97012988  0.02987012  0.64273024  1
  Sr  Sr7  1  0.52987012  0.47012988  0.14273024  1
  Mn  Mn0  1  -0.00000000  -0.00000000  -0.00000000  1
  Mn  Mn1  1  0.13233083  0.86766917  0.84778655  1
  Mn  Mn2  1  0.86766917  0.13233083  0.15221345  1
  Mn  Mn3  1  0.36766917  0.63233083  0.34778655  1
  Mn  Mn4  1  0.50000000  0.50000000  0.50000000  1
  Mn  Mn5  1  0.63233083  0.36766917  0.65221345  1
  O  O0  1  0.77526398  0.22473602  0.65383861  1
  O  O1  1  0.22473602  0.77526398  0.34616139  1
  O  O2  1  0.38068439  0.16265693  0.53657563  1
  O  O3  1  0.33734307  0.11931561  0.96342437  1
  O  O4  1  0.27526398  0.72473602  0.84616139  1
  O  O5  1  0.16265693  0.38068439  0.46342437  1
  O  O6  1  0.66265693  0.88068439  0.03657563  1
  O  O7  1  0.83734307  0.61931561  0.53657563  1
  O  O8  1  0.63274159  0.86725841  0.25000000  1
  O  O9  1  0.03590500  0.96409500  0.14599191  1
  O  O10  1  0.88068439  0.66265693  0.96342437  1
  O  O11  1  0.11931561  0.33734307  0.03657563  1
  O  O12  1  0.72473602  0.27526398  0.15383861  1
  O  O13  1  0.36725841  0.13274159  0.75000000  1
  O  O14  1  0.46409500  0.53590500  0.64599191  1
  O  O15  1  0.96409500  0.03590500  0.85400809  1
  O  O16  1  0.13274159  0.36725841  0.25000000  1
  O  O17  1  0.53590500  0.46409500  0.35400809  1
  O  O18  1  0.61931561  0.83734307  0.46342437  1
  O  O19  1  0.86725841  0.63274159  0.75000000  1
loop_
_geom_bond_atom_site_label_1
_geom_bond_atom_site_label_2
_geom_bond_distance
_geom_bond_site_symmetry_2
Mn0 O9 1.889942 1_545
Mn0 O15 1.889942 1_454
Mn0 O6 1.901614 1_445
Mn0 O10 1.901614 1_444
Mn0 O3 1.901614 1_554
Mn0 O11 1.901614 1_555
Mn1 O4 1.779866 1_555
Mn1 O19 1.849479 1_455
Mn1 O13 1.849479 1_565
Mn1 O3 1.939547 1_565
Mn1 O10 1.939547 1_455
Mn1 O15 2.096269 1_465
Mn2 O12 1.779866 1_555
Mn2 O16 1.849479 1_655
Mn2 O8 1.849479 1_545
Mn2 O6 1.939547 1_545
Mn2 O11 1.939547 1_655
Mn2 O9 2.096269 1_645
Mn3 O1 1.779866 1_555
Mn3 O16 1.849479 1_555
Mn3 O8 1.849479 1_555
Mn3 O18 1.939547 1_555
Mn3 O5 1.939547 1_555
Mn3 O17 2.096269 1_555
Mn4 O17 1.889942 1_555
Mn4 O14 1.889942 1_555
Mn4 O7 1.901614 1_555
Mn4 O2 1.901614 1_555
Mn4 O18 1.901614 1_555
Mn4 O5 1.901614 1_555
Mn5 O0 1.779866 1_555
Mn5 O13 1.849479 1_555
Mn5 O19 1.849479 1_555
Mn5 O7 1.939547 1_555
Mn5 O2 1.939547 1_555
Mn5 O14 2.096269 1_555
O0 Sr6 2.430414 1_555
O0 Sr1 2.789988 1_655
O0 Sr1 2.789988 1_545
O0 Sr0 2.941492 1_555
O1 Sr3 2.430414 1_555
O1 Sr2 2.789988 1_565
O1 Sr2 2.789988 1_455
O1 Sr4 2.941492 1_555
O2 Sr1 2.603102 1_545
O2 Sr6 2.642844 1_455
O2 Sr2 2.765345 1_555
O2 Sr3 2.875565 1_545
O3 Sr0 2.603102 1_555
O3 Sr5 2.642844 1_555
O3 Sr4 2.765345 1_546
O3 Sr7 2.875565 1_556
O4 Sr5 2.430414 1_555
O4 Sr0 2.789988 1_565
O4 Sr0 2.789988 1_455
O4 Sr1 2.941492 1_555
O5 Sr2 2.603102 1_455
O5 Sr3 2.642844 1_545
O5 Sr1 2.765345 1_555
O5 Sr6 2.875565 1_455
O6 Sr4 2.603102 1_555
O6 Sr7 2.642844 1_555
O6 Sr0 2.765345 1_564
O6 Sr5 2.875565 1_554
O7 Sr1 2.603102 1_655
O7 Sr6 2.642844 1_565
O7 Sr2 2.765345 1_555
O7 Sr3 2.875565 1_655
O8 Sr3 2.655029 1_655
O8 Sr7 2.655029 1_555
O8 Sr2 2.850414 1_565
O8 Sr4 2.850414 1_555
O9 Sr4 2.545792 1_555
O9 Sr3 2.658538 1_555
O9 Sr7 2.738142 1_455
O9 Sr7 2.738142 1_565
O10 Sr0 2.603102 1_555
O10 Sr5 2.642844 1_555
O10 Sr4 2.765345 1_656
O10 Sr7 2.875565 1_556
O11 Sr4 2.603102 1_555
O11 Sr7 2.642844 1_555
O11 Sr0 2.765345 1_454
O11 Sr5 2.875565 1_554
O12 Sr7 2.430414 1_555
O12 Sr4 2.789988 1_655
O12 Sr4 2.789988 1_545
O12 Sr2 2.941492 1_555
O13 Sr6 2.655029 1_455
O13 Sr5 2.655029 1_555
O13 Sr1 2.850414 1_545
O13 Sr0 2.850414 1_555
O14 Sr1 2.545792 1_555
O14 Sr5 2.658538 1_555
O14 Sr6 2.738142 1_455
O14 Sr6 2.738142 1_565
O15 Sr0 2.545792 1_555
O15 Sr6 2.658538 1_555
O15 Sr5 2.738142 1_655
O15 Sr5 2.738142 1_545
O16 Sr3 2.655029 1_545
O16 Sr7 2.655029 1_555
O16 Sr4 2.850414 1_555
O16 Sr2 2.850414 1_455
O17 Sr2 2.545792 1_555
O17 Sr7 2.658538 1_555
O17 Sr3 2.738142 1_545
O17 Sr3 2.738142 1_655
O18 Sr2 2.603102 1_565
O18 Sr3 2.642844 1_655
O18 Sr1 2.765345 1_555
O18 Sr6 2.875565 1_565
O19 Sr5 2.655029 1_555
O19 Sr6 2.655029 1_565
O19 Sr1 2.850414 1_655
O19 Sr0 2.850414 1_555
