# generated using pymatgen
data_LaS2
_symmetry_space_group_name_H-M   'P 1'
_cell_length_a   4.15752600
_cell_length_b   8.17193300
_cell_length_c   16.42150400
_cell_angle_alpha   90.00000000
_cell_angle_beta   90.00000000
_cell_angle_gamma   90.00000000
_symmetry_Int_Tables_number   1
_chemical_formula_structural   LaS2
_chemical_formula_sum   'La8 S16'
_cell_volume   557.92099117
_cell_formula_units_Z   8
loop_
 _symmetry_equiv_pos_site_id
 _symmetry_equiv_pos_as_xyz
  1  'x, y, z'
loop_
 _atom_site_type_symbol
 _atom_site_label
 _atom_site_symmetry_multiplicity
 _atom_site_fract_x
 _atom_site_fract_y
 _atom_site_fract_z
 _atom_site_occupancy
  La  La0  1  0.28070900  0.63916600  0.14151100  1
  La  La1  1  0.71929100  0.36083400  0.64151100  1
  La  La2  1  0.78070900  0.86083400  0.64151100  1
  La  La3  1  0.21929100  0.13916600  0.14151100  1
  La  La4  1  0.78124300  0.87082500  0.36429300  1
  La  La5  1  0.21875700  0.12917500  0.86429300  1
  La  La6  1  0.28124300  0.62917500  0.86429300  1
  La  La7  1  0.71875700  0.37082500  0.36429300  1
  S  S0  1  0.35578000  0.89710900  0.00331900  1
  S  S1  1  0.64422000  0.10289100  0.50331900  1
  S  S2  1  0.85578000  0.60289100  0.50331900  1
  S  S3  1  0.14422000  0.39710900  0.00331900  1
  S  S4  1  0.83793100  0.60364500  0.00279000  1
  S  S5  1  0.16206900  0.39635500  0.50279000  1
  S  S6  1  0.33793100  0.89635500  0.50279000  1
  S  S7  1  0.66206900  0.10364500  0.00279000  1
  S  S8  1  0.26042500  0.62768800  0.32035900  1
  S  S9  1  0.73957500  0.37231200  0.82035900  1
  S  S10  1  0.76042500  0.87231200  0.82035900  1
  S  S11  1  0.23957500  0.12768800  0.32035900  1
  S  S12  1  0.76302300  0.88337300  0.18572700  1
  S  S13  1  0.23697700  0.11662700  0.68572700  1
  S  S14  1  0.26302300  0.61662700  0.68572700  1
  S  S15  1  0.73697700  0.38337300  0.18572700  1
loop_
_geom_bond_atom_site_label_1
_geom_bond_atom_site_label_2
_geom_bond_distance
_geom_bond_site_symmetry_2
La0 S15 2.914630 1_555
La0 S12 2.920747 1_555
La0 S8 2.939660 1_555
La0 S4 2.943187 1_455
La0 S12 3.023602 1_455
La0 S3 3.063429 1_555
La0 S0 3.112947 1_555
La0 S15 3.163366 1_455
La0 S4 3.261980 1_555
La1 S14 2.914630 1_555
La1 S13 2.920747 1_555
La1 S9 2.939660 1_555
La1 S5 2.943187 1_655
La1 S13 3.023602 1_655
La1 S2 3.063429 1_555
La1 S1 3.112947 1_555
La1 S14 3.163366 1_655
La1 S5 3.261980 1_555
La2 S13 2.914630 1_665
La2 S14 2.920747 1_655
La2 S10 2.939660 1_555
La2 S6 2.943187 1_555
La2 S14 3.023602 1_555
La2 S1 3.063429 1_565
La2 S2 3.112947 1_555
La2 S13 3.163366 1_565
La2 S6 3.261980 1_655
La3 S12 2.914630 1_445
La3 S15 2.920747 1_455
La3 S11 2.939660 1_555
La3 S7 2.943187 1_555
La3 S15 3.023602 1_555
La3 S0 3.063429 1_545
La3 S3 3.112947 1_555
La3 S12 3.163366 1_545
La3 S7 3.261980 1_455
La4 S8 2.904683 1_655
La4 S11 2.925342 1_665
La4 S6 2.934799 1_555
La4 S12 2.935092 1_555
La4 S1 3.022107 1_565
La4 S8 3.026031 1_555
La4 S11 3.161976 1_565
La4 S2 3.178407 1_555
La4 S6 3.251577 1_655
La5 S9 2.904683 1_455
La5 S10 2.925342 1_445
La5 S7 2.934799 1_556
La5 S13 2.935092 1_555
La5 S0 3.022107 1_546
La5 S9 3.026031 1_555
La5 S10 3.161976 1_545
La5 S3 3.178407 1_556
La5 S7 3.251577 1_456
La6 S10 2.904683 1_555
La6 S9 2.925342 1_555
La6 S4 2.934799 1_456
La6 S14 2.935092 1_555
La6 S3 3.022107 1_556
La6 S10 3.026031 1_455
La6 S9 3.161976 1_455
La6 S0 3.178407 1_556
La6 S4 3.251577 1_556
La7 S11 2.904683 1_555
La7 S8 2.925342 1_555
La7 S5 2.934799 1_655
La7 S15 2.935092 1_555
La7 S2 3.022107 1_555
La7 S11 3.026031 1_655
La7 S8 3.161976 1_655
La7 S1 3.178407 1_555
La7 S5 3.251577 1_555
S0 S7 2.114308 1_565
S1 S6 2.114308 1_545
S2 S5 2.114308 1_655
S3 S4 2.114308 1_455
