# generated using pymatgen
data_Sr14Nb19O57
_symmetry_space_group_name_H-M   'P 1'
_cell_length_a   4.04116200
_cell_length_b   4.04116200
_cell_length_c   77.53393700
_cell_angle_alpha   90.00000000
_cell_angle_beta   90.00000000
_cell_angle_gamma   90.00000000
_symmetry_Int_Tables_number   1
_chemical_formula_structural   Sr14Nb19O57
_chemical_formula_sum   'Sr14 Nb19 O57'
_cell_volume   1266.20597386
_cell_formula_units_Z   1
loop_
 _symmetry_equiv_pos_site_id
 _symmetry_equiv_pos_as_xyz
  1  'x, y, z'
loop_
 _atom_site_type_symbol
 _atom_site_label
 _atom_site_symmetry_multiplicity
 _atom_site_fract_x
 _atom_site_fract_y
 _atom_site_fract_z
 _atom_site_occupancy
  Sr  Sr0  1  0.00000000  0.00000000  0.94746700  1
  Sr  Sr1  1  0.00000000  0.00000000  0.42102100  1
  Sr  Sr2  1  0.00000000  0.00000000  0.47370200  1
  Sr  Sr3  1  0.00000000  0.00000000  0.57897900  1
  Sr  Sr4  1  0.00000000  0.00000000  0.68473400  1
  Sr  Sr5  1  0.00000000  0.00000000  0.84251900  1
  Sr  Sr6  1  0.00000000  0.00000000  0.05253300  1
  Sr  Sr7  1  0.00000000  0.00000000  0.15748100  1
  Sr  Sr8  1  0.00000000  0.00000000  0.26011900  1
  Sr  Sr9  1  0.00000000  0.00000000  0.31526600  1
  Sr  Sr10  1  0.00000000  0.00000000  0.36832800  1
  Sr  Sr11  1  0.00000000  0.00000000  0.52629800  1
  Sr  Sr12  1  0.00000000  0.00000000  0.63167200  1
  Sr  Sr13  1  0.00000000  0.00000000  0.73988100  1
  Nb  Nb0  1  0.50000000  0.50000000  0.87036900  1
  Nb  Nb1  1  0.50000000  0.50000000  0.81626000  1
  Nb  Nb2  1  0.50000000  0.50000000  0.97486000  1
  Nb  Nb3  1  0.50000000  0.50000000  0.92073100  1
  Nb  Nb4  1  0.50000000  0.50000000  0.07926900  1
  Nb  Nb5  1  0.50000000  0.50000000  0.02514000  1
  Nb  Nb6  1  0.50000000  0.50000000  0.12963100  1
  Nb  Nb7  1  0.50000000  0.50000000  0.18374000  1
  Nb  Nb8  1  0.50000000  0.50000000  0.23417000  1
  Nb  Nb9  1  0.50000000  0.50000000  0.28867600  1
  Nb  Nb10  1  0.50000000  0.50000000  0.34199900  1
  Nb  Nb11  1  0.50000000  0.50000000  0.44738200  1
  Nb  Nb12  1  0.50000000  0.50000000  0.39466800  1
  Nb  Nb13  1  0.50000000  0.50000000  0.55261800  1
  Nb  Nb14  1  0.50000000  0.50000000  0.50000000  1
  Nb  Nb15  1  0.50000000  0.50000000  0.60533200  1
  Nb  Nb16  1  0.50000000  0.50000000  0.65800100  1
  Nb  Nb17  1  0.50000000  0.50000000  0.71132400  1
  Nb  Nb18  1  0.50000000  0.50000000  0.76583000  1
  O  O0  1  0.00000000  0.50000000  0.76075600  1
  O  O1  1  0.50000000  0.50000000  0.78949400  1
  O  O2  1  0.50000000  0.50000000  0.84163500  1
  O  O3  1  0.50000000  0.50000000  0.89461100  1
  O  O4  1  0.50000000  0.50000000  0.94711900  1
  O  O5  1  0.50000000  0.50000000  0.00000000  1
  O  O6  1  0.50000000  0.50000000  0.05288100  1
  O  O7  1  0.50000000  0.50000000  0.10538900  1
  O  O8  1  0.50000000  0.50000000  0.15836500  1
  O  O9  1  0.50000000  0.50000000  0.21050600  1
  O  O10  1  0.50000000  0.50000000  0.26365700  1
  O  O11  1  0.50000000  0.50000000  0.31555900  1
  O  O12  1  0.50000000  0.50000000  0.36840200  1
  O  O13  1  0.50000000  0.50000000  0.42106100  1
  O  O14  1  0.50000000  0.50000000  0.47367300  1
  O  O15  1  0.50000000  0.50000000  0.52632700  1
  O  O16  1  0.50000000  0.50000000  0.57893900  1
  O  O17  1  0.50000000  0.00000000  0.81722300  1
  O  O18  1  0.50000000  0.00000000  0.86626900  1
  O  O19  1  0.50000000  0.00000000  0.92267500  1
  O  O20  1  0.50000000  0.50000000  0.63159800  1
  O  O21  1  0.50000000  0.50000000  0.68444100  1
  O  O22  1  0.50000000  0.00000000  0.97181900  1
  O  O23  1  0.50000000  0.00000000  0.02818100  1
  O  O24  1  0.50000000  0.50000000  0.73634300  1
  O  O25  1  0.50000000  0.00000000  0.07732500  1
  O  O26  1  0.50000000  0.00000000  0.18277700  1
  O  O27  1  0.50000000  0.00000000  0.13373100  1
  O  O28  1  0.50000000  0.00000000  0.23924400  1
  O  O29  1  0.50000000  0.00000000  0.29006600  1
  O  O30  1  0.50000000  0.00000000  0.34214100  1
  O  O31  1  0.50000000  0.00000000  0.44738000  1
  O  O32  1  0.50000000  0.00000000  0.39476800  1
  O  O33  1  0.50000000  0.00000000  0.50000000  1
  O  O34  1  0.50000000  0.00000000  0.60523200  1
  O  O35  1  0.50000000  0.00000000  0.55262000  1
  O  O36  1  0.50000000  0.00000000  0.65785900  1
  O  O37  1  0.50000000  0.00000000  0.76075600  1
  O  O38  1  0.50000000  0.00000000  0.70993400  1
  O  O39  1  0.00000000  0.50000000  0.81722300  1
  O  O40  1  0.00000000  0.50000000  0.86626900  1
  O  O41  1  0.00000000  0.50000000  0.92267500  1
  O  O42  1  0.00000000  0.50000000  0.97181900  1
  O  O43  1  0.00000000  0.50000000  0.02818100  1
  O  O44  1  0.00000000  0.50000000  0.07732500  1
  O  O45  1  0.00000000  0.50000000  0.13373100  1
  O  O46  1  0.00000000  0.50000000  0.18277700  1
  O  O47  1  0.00000000  0.50000000  0.23924400  1
  O  O48  1  0.00000000  0.50000000  0.29006600  1
  O  O49  1  0.00000000  0.50000000  0.34214100  1
  O  O50  1  0.00000000  0.50000000  0.39476800  1
  O  O51  1  0.00000000  0.50000000  0.44738000  1
  O  O52  1  0.00000000  0.50000000  0.50000000  1
  O  O53  1  0.00000000  0.50000000  0.55262000  1
  O  O54  1  0.00000000  0.50000000  0.60523200  1
  O  O55  1  0.00000000  0.50000000  0.65785900  1
  O  O56  1  0.00000000  0.50000000  0.70993400  1
loop_
_geom_bond_atom_site_label_1
_geom_bond_atom_site_label_2
_geom_bond_distance
_geom_bond_site_symmetry_2
Nb0 O3 1.879578 1_555
Nb0 O40 2.045434 1_555
Nb0 O40 2.045434 1_655
Nb0 O18 2.045434 1_555
Nb0 O18 2.045434 1_565
Nb0 O2 2.227860 1_555
Nb1 O2 1.967424 1_555
Nb1 O17 2.021960 1_555
Nb1 O17 2.021960 1_565
Nb1 O39 2.021960 1_655
Nb1 O39 2.021960 1_555
Nb1 O1 2.075273 1_555
Nb2 O5 1.949203 1_556
Nb2 O42 2.034291 1_555
Nb2 O22 2.034291 1_565
Nb2 O42 2.034291 1_655
Nb2 O22 2.034291 1_555
Nb2 O4 2.150869 1_555
Nb3 O3 2.025186 1_555
Nb3 O41 2.026195 1_555
Nb3 O19 2.026195 1_555
Nb3 O19 2.026195 1_565
Nb3 O41 2.026195 1_655
Nb3 O4 2.045966 1_555
Nb4 O7 2.025186 1_555
Nb4 O44 2.026195 1_655
Nb4 O25 2.026195 1_565
Nb4 O44 2.026195 1_555
Nb4 O25 2.026195 1_555
Nb4 O6 2.045966 1_555
Nb5 O5 1.949203 1_555
Nb5 O23 2.034291 1_565
Nb5 O43 2.034291 1_555
Nb5 O43 2.034291 1_655
Nb5 O23 2.034291 1_555
Nb5 O6 2.150869 1_555
Nb6 O7 1.879578 1_555
Nb6 O45 2.045434 1_555
Nb6 O45 2.045434 1_655
Nb6 O27 2.045434 1_555
Nb6 O27 2.045434 1_565
Nb6 O8 2.227860 1_555
Nb7 O8 1.967424 1_555
Nb7 O46 2.021960 1_655
Nb7 O26 2.021960 1_555
Nb7 O26 2.021960 1_565
Nb7 O46 2.021960 1_555
Nb7 O9 2.075273 1_555
Nb8 O9 1.834763 1_555
Nb8 O47 2.058523 1_555
Nb8 O28 2.058523 1_555
Nb8 O47 2.058523 1_655
Nb8 O28 2.058523 1_565
Nb8 O10 2.286243 1_555
Nb9 O10 1.939822 1_555
Nb9 O48 2.023453 1_555
Nb9 O29 2.023453 1_555
Nb9 O48 2.023453 1_655
Nb9 O29 2.023453 1_565
Nb9 O11 2.084345 1_555
Nb10 O30 2.020611 1_555
Nb10 O49 2.020611 1_555
Nb10 O49 2.020611 1_655
Nb10 O30 2.020611 1_565
Nb10 O12 2.047129 1_555
Nb10 O11 2.049997 1_555
Nb11 O51 2.020581 1_655
Nb11 O31 2.020581 1_555
Nb11 O51 2.020581 1_555
Nb11 O31 2.020581 1_565
Nb11 O14 2.038445 1_555
Nb11 O13 2.040771 1_555
Nb12 O50 2.020596 1_555
Nb12 O50 2.020596 1_655
Nb12 O32 2.020596 1_555
Nb12 O32 2.020596 1_565
Nb12 O12 2.036506 1_555
Nb12 O13 2.046353 1_555
Nb13 O53 2.020581 1_555
Nb13 O53 2.020581 1_655
Nb13 O35 2.020581 1_555
Nb13 O35 2.020581 1_565
Nb13 O15 2.038445 1_555
Nb13 O16 2.040771 1_555
Nb14 O33 2.020581 1_555
Nb14 O52 2.020581 1_555
Nb14 O33 2.020581 1_565
Nb14 O52 2.020581 1_655
Nb14 O15 2.041236 1_555
Nb14 O14 2.041236 1_555
Nb15 O54 2.020596 1_655
Nb15 O34 2.020596 1_565
Nb15 O54 2.020596 1_555
Nb15 O34 2.020596 1_555
Nb15 O20 2.036506 1_555
Nb15 O16 2.046353 1_555
Nb16 O55 2.020611 1_555
Nb16 O36 2.020611 1_555
Nb16 O55 2.020611 1_655
Nb16 O36 2.020611 1_565
Nb16 O20 2.047129 1_555
Nb16 O21 2.049997 1_555
Nb17 O24 1.939822 1_555
Nb17 O56 2.023453 1_555
Nb17 O56 2.023453 1_655
Nb17 O38 2.023453 1_555
Nb17 O38 2.023453 1_565
Nb17 O21 2.084345 1_555
Nb18 O1 1.834763 1_555
Nb18 O0 2.058523 1_655
Nb18 O37 2.058523 1_555
Nb18 O37 2.058523 1_565
Nb18 O0 2.058523 1_555
Nb18 O24 2.286243 1_555
O0 Sr13 2.588891 1_555
O0 Sr13 2.588891 1_565
O2 Sr5 2.858355 1_565
O2 Sr5 2.858355 1_555
O2 Sr5 2.858355 1_665
O2 Sr5 2.858355 1_655
O4 Sr0 2.857660 1_555
O4 Sr0 2.857660 1_665
O4 Sr0 2.857660 1_565
O4 Sr0 2.857660 1_655
O6 Sr6 2.857660 1_555
O6 Sr6 2.857660 1_565
O6 Sr6 2.857660 1_665
O6 Sr6 2.857660 1_655
O8 Sr7 2.858355 1_665
O8 Sr7 2.858355 1_655
O8 Sr7 2.858355 1_565
O8 Sr7 2.858355 1_555
O10 Sr8 2.870670 1_555
O10 Sr8 2.870670 1_565
O10 Sr8 2.870670 1_655
O10 Sr8 2.870670 1_665
O11 Sr9 2.857623 1_665
O11 Sr9 2.857623 1_555
O11 Sr9 2.857623 1_655
O11 Sr9 2.857623 1_565
O12 Sr10 2.857539 1_655
O12 Sr10 2.857539 1_555
O12 Sr10 2.857539 1_565
O12 Sr10 2.857539 1_665
O13 Sr1 2.857535 1_555
O13 Sr1 2.857535 1_655
O13 Sr1 2.857535 1_565
O13 Sr1 2.857535 1_665
O14 Sr2 2.857534 1_665
O14 Sr2 2.857534 1_555
O14 Sr2 2.857534 1_655
O14 Sr2 2.857534 1_565
O15 Sr11 2.857534 1_565
O15 Sr11 2.857534 1_555
O15 Sr11 2.857534 1_655
O15 Sr11 2.857534 1_665
O16 Sr3 2.857535 1_665
O16 Sr3 2.857535 1_555
O16 Sr3 2.857535 1_655
O16 Sr3 2.857535 1_565
O17 Sr5 2.815926 1_555
O17 Sr5 2.815926 1_655
O18 Sr5 2.733791 1_555
O18 Sr5 2.733791 1_655
O19 Sr0 2.788850 1_555
O19 Sr0 2.788850 1_655
O20 Sr12 2.857539 1_565
O20 Sr12 2.857539 1_555
O20 Sr12 2.857539 1_655
O20 Sr12 2.857539 1_665
O21 Sr4 2.857623 1_565
O21 Sr4 2.857623 1_655
O21 Sr4 2.857623 1_665
O21 Sr4 2.857623 1_555
O22 Sr0 2.765446 1_555
O22 Sr0 2.765446 1_655
O23 Sr6 2.765446 1_555
O23 Sr6 2.765446 1_655
O24 Sr13 2.870670 1_565
O24 Sr13 2.870670 1_655
O24 Sr13 2.870670 1_665
O24 Sr13 2.870670 1_555
O25 Sr6 2.788850 1_555
O25 Sr6 2.788850 1_655
O26 Sr7 2.815926 1_555
O26 Sr7 2.815926 1_655
O27 Sr7 2.733791 1_655
O27 Sr7 2.733791 1_555
O28 Sr8 2.588891 1_555
O28 Sr8 2.588891 1_655
O29 Sr9 2.810747 1_555
O29 Sr9 2.810747 1_655
O29 Sr8 3.077988 1_555
O29 Sr8 3.077988 1_655
O30 Sr10 2.864471 1_655
O30 Sr10 2.864471 1_555
O30 Sr9 2.902526 1_555
O30 Sr9 2.902526 1_655
O31 Sr2 2.871900 1_555
O31 Sr2 2.871900 1_655
O31 Sr1 2.873939 1_655
O31 Sr1 2.873939 1_555
O32 Sr1 2.868101 1_555
O32 Sr1 2.868101 1_655
O32 Sr10 2.878409 1_655
O32 Sr10 2.878409 1_555
O33 Sr2 2.870578 1_555
O33 Sr2 2.870578 1_655
O33 Sr11 2.870578 1_555
O33 Sr11 2.870578 1_655
O34 Sr3 2.868101 1_555
O34 Sr3 2.868101 1_655
O34 Sr12 2.878409 1_555
O34 Sr12 2.878409 1_655
O35 Sr11 2.871900 1_555
O35 Sr11 2.871900 1_655
O35 Sr3 2.873939 1_555
O35 Sr3 2.873939 1_655
O36 Sr12 2.864471 1_555
O36 Sr12 2.864471 1_655
O36 Sr4 2.902526 1_555
O36 Sr4 2.902526 1_655
O37 Sr13 2.588891 1_655
O37 Sr13 2.588891 1_555
O38 Sr4 2.810747 1_555
O38 Sr4 2.810747 1_655
O38 Sr13 3.077988 1_655
O38 Sr13 3.077988 1_555
O39 Sr5 2.815926 1_555
O39 Sr5 2.815926 1_565
O40 Sr5 2.733791 1_565
O40 Sr5 2.733791 1_555
O41 Sr0 2.788850 1_565
O41 Sr0 2.788850 1_555
O42 Sr0 2.765446 1_555
O42 Sr0 2.765446 1_565
O43 Sr6 2.765446 1_555
O43 Sr6 2.765446 1_565
O44 Sr6 2.788850 1_555
O44 Sr6 2.788850 1_565
O45 Sr7 2.733791 1_565
O45 Sr7 2.733791 1_555
O46 Sr7 2.815926 1_555
O46 Sr7 2.815926 1_565
O47 Sr8 2.588891 1_565
O47 Sr8 2.588891 1_555
O48 Sr9 2.810747 1_565
O48 Sr9 2.810747 1_555
O48 Sr8 3.077988 1_555
O48 Sr8 3.077988 1_565
O49 Sr10 2.864471 1_565
O49 Sr10 2.864471 1_555
O49 Sr9 2.902526 1_555
O49 Sr9 2.902526 1_565
O50 Sr1 2.868101 1_555
O50 Sr1 2.868101 1_565
O50 Sr10 2.878409 1_565
O50 Sr10 2.878409 1_555
O51 Sr2 2.871900 1_555
O51 Sr2 2.871900 1_565
O51 Sr1 2.873939 1_565
O51 Sr1 2.873939 1_555
O52 Sr2 2.870578 1_565
O52 Sr2 2.870578 1_555
O52 Sr11 2.870578 1_555
O52 Sr11 2.870578 1_565
O53 Sr11 2.871900 1_555
O53 Sr11 2.871900 1_565
O53 Sr3 2.873939 1_555
O53 Sr3 2.873939 1_565
O54 Sr3 2.868101 1_555
O54 Sr3 2.868101 1_565
O54 Sr12 2.878409 1_555
O54 Sr12 2.878409 1_565
O55 Sr12 2.864471 1_565
O55 Sr12 2.864471 1_555
O55 Sr4 2.902526 1_555
O55 Sr4 2.902526 1_565
O56 Sr4 2.810747 1_555
O56 Sr4 2.810747 1_565
O56 Sr13 3.077988 1_565
O56 Sr13 3.077988 1_555
