# generated using pymatgen
data_Mg(MoO2)4
_symmetry_space_group_name_H-M   'P 1'
_cell_length_a   6.18680188
_cell_length_b   6.18680188
_cell_length_c   6.18680179
_cell_angle_alpha   62.69026335
_cell_angle_beta   62.69026335
_cell_angle_gamma   62.69026607
_symmetry_Int_Tables_number   1
_chemical_formula_structural   Mg(MoO2)4
_chemical_formula_sum   'Mg1 Mo4 O8'
_cell_volume   177.47415072
_cell_formula_units_Z   1
loop_
 _symmetry_equiv_pos_site_id
 _symmetry_equiv_pos_as_xyz
  1  'x, y, z'
loop_
 _atom_site_type_symbol
 _atom_site_label
 _atom_site_symmetry_multiplicity
 _atom_site_fract_x
 _atom_site_fract_y
 _atom_site_fract_z
 _atom_site_occupancy
  Mg  Mg0  1  0.50000000  0.50000000  0.50000000  1
  Mo  Mo0  1  0.00000000  0.50000000  0.50000000  1
  Mo  Mo1  1  0.50000000  0.00000000  0.50000000  1
  Mo  Mo2  1  0.50000000  0.50000000  0.00000000  1
  Mo  Mo3  1  0.00000000  0.00000000  0.00000000  1
  O  O0  1  0.27651600  0.75075000  0.75075000  1
  O  O1  1  0.24925000  0.24925000  0.72348400  1
  O  O2  1  0.72348400  0.24925000  0.24925000  1
  O  O3  1  0.24925000  0.72348400  0.24925000  1
  O  O4  1  0.27104000  0.27104000  0.27104000  1
  O  O5  1  0.72896000  0.72896000  0.72896000  1
  O  O6  1  0.75075000  0.27651600  0.75075000  1
  O  O7  1  0.75075000  0.75075000  0.27651600  1
loop_
_geom_bond_atom_site_label_1
_geom_bond_atom_site_label_2
_geom_bond_distance
_geom_bond_site_symmetry_2
Mg0 O7 2.235386 1_555
Mg0 O1 2.235386 1_555
Mg0 O2 2.235386 1_555
Mg0 O6 2.235386 1_555
Mg0 O3 2.235386 1_555
Mg0 O0 2.235386 1_555
Mo0 O4 2.075333 1_555
Mo0 O5 2.075333 1_455
Mo0 O6 2.118824 1_455
Mo0 O3 2.118824 1_555
Mo0 O7 2.118824 1_455
Mo0 O1 2.118824 1_555
Mo1 O5 2.075333 1_545
Mo1 O4 2.075333 1_555
Mo1 O0 2.118824 1_545
Mo1 O2 2.118824 1_555
Mo1 O7 2.118824 1_545
Mo1 O1 2.118824 1_555
Mo2 O5 2.075332 1_554
Mo2 O4 2.075332 1_555
Mo2 O2 2.118824 1_555
Mo2 O3 2.118824 1_555
Mo2 O6 2.118824 1_554
Mo2 O0 2.118824 1_554
Mo3 O1 2.241242 1_554
Mo3 O7 2.241242 1_445
Mo3 O6 2.241242 1_454
Mo3 O0 2.241242 1_544
Mo3 O3 2.241242 1_545
Mo3 O2 2.241242 1_455
