# generated using pymatgen
data_Ba3SrSn12
_symmetry_space_group_name_H-M   'P 1'
_cell_length_a   5.34104100
_cell_length_b   7.35414300
_cell_length_c   12.98047200
_cell_angle_alpha   90.00000000
_cell_angle_beta   90.00000000
_cell_angle_gamma   90.00000000
_symmetry_Int_Tables_number   1
_chemical_formula_structural   Ba3SrSn12
_chemical_formula_sum   'Ba3 Sr1 Sn12'
_cell_volume   509.85709468
_cell_formula_units_Z   1
loop_
 _symmetry_equiv_pos_site_id
 _symmetry_equiv_pos_as_xyz
  1  'x, y, z'
loop_
 _atom_site_type_symbol
 _atom_site_label
 _atom_site_symmetry_multiplicity
 _atom_site_fract_x
 _atom_site_fract_y
 _atom_site_fract_z
 _atom_site_occupancy
  Ba  Ba0  1  0.00000000  0.00000000  0.66727000  1
  Ba  Ba1  1  0.50000000  0.00000000  0.33263200  1
  Ba  Ba2  1  0.50000000  0.50000000  0.83350500  1
  Sr  Sr0  1  0.00000000  0.50000000  0.16663300  1
  Sn  Sn0  1  0.50000000  0.50000000  0.35411400  1
  Sn  Sn1  1  0.50000000  0.00000000  0.85881600  1
  Sn  Sn2  1  0.50000000  0.78198000  0.07259000  1
  Sn  Sn3  1  0.50000000  0.28754600  0.57005300  1
  Sn  Sn4  1  0.50000000  0.21802000  0.07259000  1
  Sn  Sn5  1  0.50000000  0.71245400  0.57005300  1
  Sn  Sn6  1  0.00000000  0.00000000  0.14316100  1
  Sn  Sn7  1  0.00000000  0.50000000  0.64226800  1
  Sn  Sn8  1  0.00000000  0.71219200  0.42767000  1
  Sn  Sn9  1  0.00000000  0.21419300  0.93048600  1
  Sn  Sn10  1  0.00000000  0.28780800  0.42767000  1
  Sn  Sn11  1  0.00000000  0.78580700  0.93048600  1
loop_
_geom_bond_atom_site_label_1
_geom_bond_atom_site_label_2
_geom_bond_distance
_geom_bond_site_symmetry_2
Ba0 Sn3 3.632615 1_555
Ba0 Sn3 3.632615 1_455
Ba0 Sn5 3.632615 1_545
Ba0 Sn5 3.632615 1_445
Ba0 Sn1 3.648788 1_555
Ba0 Sn1 3.648788 1_455
Ba0 Sn7 3.691366 1_555
Ba0 Sn7 3.691366 1_545
Ba0 Sn10 3.762017 1_555
Ba0 Sn8 3.762017 1_545
Ba0 Sn9 3.762299 1_555
Ba0 Sn11 3.762299 1_545
Ba1 Sn10 3.624011 1_655
Ba1 Sn10 3.624011 1_555
Ba1 Sn8 3.624011 1_645
Ba1 Sn8 3.624011 1_545
Ba1 Sn6 3.630488 1_555
Ba1 Sn6 3.630488 1_655
Ba1 Sn0 3.687629 1_555
Ba1 Sn0 3.687629 1_545
Ba1 Sn2 3.736913 1_545
Ba1 Sn4 3.736913 1_555
Ba1 Sn3 3.737577 1_555
Ba1 Sn5 3.737577 1_545
Ba2 Sn11 3.624120 1_655
Ba2 Sn11 3.624120 1_555
Ba2 Sn9 3.624120 1_555
Ba2 Sn9 3.624120 1_655
Ba2 Sn7 3.646056 1_555
Ba2 Sn7 3.646056 1_655
Ba2 Sn1 3.691720 1_555
Ba2 Sn1 3.691720 1_565
Ba2 Sn2 3.732511 1_556
Ba2 Sn4 3.732511 1_556
Ba2 Sn5 3.759749 1_555
Ba2 Sn3 3.759749 1_555
Sn0 Sn5 3.209034 1_555
Sn0 Sn3 3.209034 1_555
Sn0 Sn8 3.237041 1_655
Sn0 Sn8 3.237041 1_555
Sn0 Sn10 3.237041 1_555
Sn0 Sn10 3.237041 1_655
Sn0 Sr0 3.613039 1_655
Sn0 Sr0 3.613039 1_555
Sn1 Sn4 3.204798 1_556
Sn1 Sn2 3.204798 1_546
Sn1 Sn9 3.237040 1_555
Sn1 Sn9 3.237040 1_655
Sn1 Sn11 3.237040 1_545
Sn1 Sn11 3.237040 1_645
Sn2 Sn4 3.206701 1_565
Sn2 Sn6 3.246775 1_565
Sn2 Sn6 3.246775 1_665
Sn2 Sr0 3.594741 1_555
Sn2 Sr0 3.594741 1_655
Sn3 Sn5 3.124834 1_555
Sn3 Sn7 3.232881 1_655
Sn3 Sn7 3.232881 1_555
Sn4 Sn9 3.245757 1_554
Sn4 Sn9 3.245757 1_654
Sn4 Sn6 3.246775 1_655
Sn4 Sn6 3.246775 1_555
Sn4 Sr0 3.594741 1_555
Sn4 Sr0 3.594741 1_655
Sn5 Sn7 3.232881 1_555
Sn5 Sn7 3.232881 1_655
Sn5 Sn8 3.247695 1_555
Sn5 Sn8 3.247695 1_655
Sn6 Sn9 3.178413 1_554
Sn6 Sr0 3.689673 1_555
Sn6 Sr0 3.689673 1_545
Sn7 Sn8 3.192899 1_555
Sn8 Sr0 3.730452 1_555
Sn9 Sr0 3.716706 1_556
Sn10 Sn8 3.120981 1_555
Sn10 Sn7 3.192899 1_555
Sn10 Sn3 3.247695 1_455
Sn10 Sn3 3.247695 1_555
Sn10 Sr0 3.730452 1_555
Sn11 Sn9 3.150412 1_565
Sn11 Sn6 3.178413 1_566
Sn11 Sn2 3.245757 1_556
Sn11 Sn2 3.245757 1_456
Sn11 Sr0 3.716706 1_556
