# generated using pymatgen
data_NaYbCl4
_symmetry_space_group_name_H-M   'P 1'
_cell_length_a   5.98582987
_cell_length_b   7.24118391
_cell_length_c   8.25943900
_cell_angle_alpha   90.00000000
_cell_angle_beta   90.00000000
_cell_angle_gamma   86.41790909
_symmetry_Int_Tables_number   1
_chemical_formula_structural   NaYbCl4
_chemical_formula_sum   'Na2 Yb2 Cl8'
_cell_volume   357.30178724
_cell_formula_units_Z   2
loop_
 _symmetry_equiv_pos_site_id
 _symmetry_equiv_pos_as_xyz
  1  'x, y, z'
loop_
 _atom_site_type_symbol
 _atom_site_label
 _atom_site_symmetry_multiplicity
 _atom_site_fract_x
 _atom_site_fract_y
 _atom_site_fract_z
 _atom_site_occupancy
  Na  Na0  1  0.00000000  0.75000000  0.83563700  1
  Na  Na1  1  0.00000000  0.25000000  0.16436300  1
  Yb  Yb0  1  0.50000000  0.75000000  0.38539300  1
  Yb  Yb1  1  0.50000000  0.25000000  0.61460700  1
  Cl  Cl0  1  0.80742500  0.35478500  0.85770900  1
  Cl  Cl1  1  0.19257500  0.64521500  0.14229100  1
  Cl  Cl2  1  0.19257500  0.14521500  0.85770900  1
  Cl  Cl3  1  0.80742500  0.85478500  0.14229100  1
  Cl  Cl4  1  0.72536200  0.91845400  0.61801000  1
  Cl  Cl5  1  0.27463800  0.08154600  0.38199000  1
  Cl  Cl6  1  0.27463800  0.58154600  0.61801000  1
  Cl  Cl7  1  0.72536200  0.41845400  0.38199000  1
loop_
_geom_bond_atom_site_label_1
_geom_bond_atom_site_label_2
_geom_bond_distance
_geom_bond_site_symmetry_2
Cl0 Yb1 2.857993 1_555
Cl0 Na1 2.865349 1_656
Cl0 Na0 3.156621 1_655
Cl1 Yb0 2.857993 1_555
Cl1 Na0 2.865349 1_554
Cl1 Na1 3.156621 1_555
Cl2 Yb1 2.857993 1_555
Cl2 Na1 2.865349 1_556
Cl2 Na0 3.156621 1_545
Cl3 Yb0 2.857993 1_555
Cl3 Na0 2.865349 1_654
Cl3 Na1 3.156621 1_665
Cl4 Na0 2.677836 1_655
Cl4 Yb1 2.679481 1_565
Cl4 Yb0 2.684144 1_555
Cl5 Na1 2.677836 1_555
Cl5 Yb0 2.679481 1_545
Cl5 Yb1 2.684144 1_555
Cl6 Na0 2.677836 1_555
Cl6 Yb1 2.679481 1_555
Cl6 Yb0 2.684144 1_555
Cl7 Na1 2.677836 1_655
Cl7 Yb0 2.679481 1_555
Cl7 Yb1 2.684144 1_555
