# generated using pymatgen
data_Ba4Mg(GeO3)4
_symmetry_space_group_name_H-M   'P 1'
_cell_length_a   4.78388617
_cell_length_b   6.07490160
_cell_length_c   13.29934636
_cell_angle_alpha   93.98012405
_cell_angle_beta   91.31434156
_cell_angle_gamma   88.42318474
_symmetry_Int_Tables_number   1
_chemical_formula_structural   Ba4Mg(GeO3)4
_chemical_formula_sum   'Ba4 Mg1 Ge4 O12'
_cell_volume   385.33692052
_cell_formula_units_Z   1
loop_
 _symmetry_equiv_pos_site_id
 _symmetry_equiv_pos_as_xyz
  1  'x, y, z'
loop_
 _atom_site_type_symbol
 _atom_site_label
 _atom_site_symmetry_multiplicity
 _atom_site_fract_x
 _atom_site_fract_y
 _atom_site_fract_z
 _atom_site_occupancy
  Ba  Ba0  1  0.21455900  0.75722000  0.83573900  1
  Ba  Ba1  1  0.74751300  0.67570600  0.13622800  1
  Ba  Ba2  1  0.67979700  0.29486900  0.68161400  1
  Ba  Ba3  1  0.18419200  0.13000000  0.32370600  1
  Mg  Mg0  1  0.16478300  0.47955400  0.53327600  1
  Ge  Ge0  1  0.79197600  0.24624100  0.92838200  1
  Ge  Ge1  1  0.30212700  0.18686100  0.07905000  1
  Ge  Ge2  1  0.24459300  0.94995400  0.58088200  1
  Ge  Ge3  1  0.71837200  0.74121700  0.43421700  1
  O  O0  1  0.72223500  0.51849900  0.89680000  1
  O  O1  1  0.24722600  0.92433100  0.12112100  1
  O  O2  1  0.32969100  0.18473300  0.50983700  1
  O  O3  1  0.85919400  0.47011300  0.42831400  1
  O  O4  1  0.72021500  0.03402600  0.83662700  1
  O  O5  1  0.23562100  0.40807400  0.16756900  1
  O  O6  1  0.16504300  0.49373300  0.68079100  1
  O  O7  1  0.72460600  0.87664500  0.32093600  1
  O  O8  1  0.36065600  0.72764200  0.47475200  1
  O  O9  1  0.86603300  0.89661300  0.54297100  1
  O  O10  1  0.67745600  0.20281900  0.05509800  1
  O  O11  1  0.16911200  0.21781500  0.95249600  1
loop_
_geom_bond_atom_site_label_1
_geom_bond_atom_site_label_2
_geom_bond_distance
_geom_bond_site_symmetry_2
Ba0 O6 2.530870 1_555
Ba0 O4 2.863593 1_465
Ba0 O0 2.922352 1_555
Ba0 O0 2.957842 1_455
Ba0 O4 2.983149 1_565
Ba0 O11 3.109096 1_565
Ba1 O7 2.669301 1_555
Ba1 O1 2.805473 1_555
Ba1 O5 2.847815 1_655
Ba1 O1 2.880848 1_655
Ba1 O10 3.022460 1_555
Ba1 O5 3.028842 1_555
Ba1 O0 3.260763 1_554
Ba2 O6 2.646816 1_655
Ba2 O4 2.686401 1_555
Ba2 O6 2.713020 1_555
Ba2 O2 2.854089 1_555
Ba2 O9 3.063393 1_545
Ba2 O0 3.086376 1_555
Ba3 O2 2.557769 1_555
Ba3 O7 2.716381 1_445
Ba3 O5 2.785565 1_555
Ba3 O3 2.853968 1_455
Ba3 O1 2.908639 1_545
Ba3 O7 2.971765 1_545
Mg0 O2 1.945062 1_555
Mg0 O6 1.957734 1_555
Mg0 O3 1.997233 1_455
Mg0 O8 2.007295 1_555
Ge0 O4 1.748053 1_555
Ge0 O0 1.755815 1_555
Ge0 O10 1.822574 1_556
Ge0 O11 1.830770 1_655
Ge1 O5 1.751310 1_555
Ge1 O1 1.754775 1_545
Ge1 O11 1.805898 1_554
Ge1 O10 1.837092 1_555
Ge2 O2 1.824655 1_565
Ge2 O9 1.899110 1_455
Ge2 O8 1.963282 1_555
Ge3 O3 1.759488 1_555
Ge3 O7 1.767188 1_555
Ge3 O8 1.811665 1_555
Ge3 O9 1.811737 1_555
