# generated using pymatgen
data_Ba4Sc2Cu2O9
_symmetry_space_group_name_H-M   'P 1'
_cell_length_a   8.98307146
_cell_length_b   8.96697213
_cell_length_c   5.88367772
_cell_angle_alpha   71.01405422
_cell_angle_beta   70.71782301
_cell_angle_gamma   38.26812277
_symmetry_Int_Tables_number   1
_chemical_formula_structural   Ba4Sc2Cu2O9
_chemical_formula_sum   'Ba4 Sc2 Cu2 O9'
_cell_volume   275.28736169
_cell_formula_units_Z   1
loop_
 _symmetry_equiv_pos_site_id
 _symmetry_equiv_pos_as_xyz
  1  'x, y, z'
loop_
 _atom_site_type_symbol
 _atom_site_label
 _atom_site_symmetry_multiplicity
 _atom_site_fract_x
 _atom_site_fract_y
 _atom_site_fract_z
 _atom_site_occupancy
  Ba  Ba0  1  0.87825706  0.38557692  0.12174294  1
  Ba  Ba1  1  0.38557692  0.87825706  0.61442308  1
  Ba  Ba2  1  0.61442308  0.12174294  0.38557692  1
  Ba  Ba3  1  0.12174294  0.61442308  0.87825706  1
  Sc  Sc0  1  0.50000000  0.00000000  -0.00000000  1
  Sc  Sc1  1  0.00000000  0.50000000  0.50000000  1
  Cu  Cu0  1  0.72749902  0.27250098  0.72749902  1
  Cu  Cu1  1  0.27250098  0.72749902  0.27250098  1
  O  O0  1  0.88018395  0.34258302  0.65741698  1
  O  O1  1  0.34258302  0.88018395  0.11981605  1
  O  O2  1  0.65741698  0.11981605  0.88018395  1
  O  O3  1  0.11981605  0.65741698  0.34258302  1
  O  O4  1  0.74408764  0.74408764  0.25591236  1
  O  O5  1  0.25591236  0.25591236  0.74408764  1
  O  O6  1  0.25000000  0.25000000  0.25000000  1
  O  O7  1  0.75000000  0.75000000  0.75000000  1
  O  O8  1  0.50000000  0.50000000  0.50000000  1
loop_
_geom_bond_atom_site_label_1
_geom_bond_atom_site_label_2
_geom_bond_distance
_geom_bond_site_symmetry_2
Ba0 O4 2.710956 1_555
Ba0 O7 2.809190 1_554
Ba0 O6 2.809190 1_655
Ba0 O0 2.873334 1_554
Ba0 O1 2.873334 1_645
Ba0 O5 2.882188 1_654
Ba0 O8 2.927209 1_555
Ba0 O1 3.052424 1_555
Ba0 O0 3.052424 1_555
Ba1 O4 2.710956 1_555
Ba1 O6 2.809190 1_565
Ba1 O7 2.809190 1_555
Ba1 O0 2.873334 1_465
Ba1 O1 2.873334 1_556
Ba1 O5 2.882188 1_565
Ba1 O8 2.927209 1_555
Ba1 O0 3.052424 1_555
Ba1 O1 3.052424 1_555
Ba2 O5 2.710956 1_555
Ba2 O7 2.809190 1_545
Ba2 O6 2.809190 1_555
Ba2 O2 2.873334 1_554
Ba2 O3 2.873334 1_645
Ba2 O4 2.882188 1_545
Ba2 O8 2.927209 1_555
Ba2 O2 3.052424 1_555
Ba2 O3 3.052424 1_555
Ba3 O5 2.710956 1_555
Ba3 O6 2.809190 1_556
Ba3 O7 2.809190 1_455
Ba3 O3 2.873334 1_556
Ba3 O2 2.873334 1_465
Ba3 O4 2.882188 1_456
Ba3 O8 2.927209 1_555
Ba3 O3 3.052424 1_555
Ba3 O2 3.052424 1_555
Cu0 O2 1.804853 1_555
Cu0 O0 1.804853 1_555
Cu0 O8 1.900853 1_555
Cu1 O3 1.804853 1_555
Cu1 O1 1.804853 1_555
Cu1 O8 1.900853 1_555
O0 Sc1 2.210285 1_655
O1 Sc0 2.210285 1_565
O2 Sc0 2.210285 1_556
O3 Sc1 2.210285 1_555
O4 Sc1 2.090974 1_655
O4 Sc0 2.090974 1_565
O5 Sc0 2.090974 1_556
O5 Sc1 2.090974 1_555
O6 Sc1 2.071493 1_555
O6 Sc0 2.071493 1_555
O7 Sc0 2.071493 1_566
O7 Sc1 2.071493 1_655
