# generated using pymatgen
data_CrAg3
_symmetry_space_group_name_H-M   'P 1'
_cell_length_a   5.07364426
_cell_length_b   5.07364426
_cell_length_c   5.07364426
_cell_angle_alpha   131.97376835
_cell_angle_beta   131.97376835
_cell_angle_gamma   70.27046008
_symmetry_Int_Tables_number   1
_chemical_formula_structural   CrAg3
_chemical_formula_sum   'Cr1 Ag3'
_cell_volume   70.75189278
_cell_formula_units_Z   1
loop_
 _symmetry_equiv_pos_site_id
 _symmetry_equiv_pos_as_xyz
  1  'x, y, z'
loop_
 _atom_site_type_symbol
 _atom_site_label
 _atom_site_symmetry_multiplicity
 _atom_site_fract_x
 _atom_site_fract_y
 _atom_site_fract_z
 _atom_site_occupancy
  Cr  Cr0  1  0.00000000  0.00000000  0.00000000  1
  Ag  Ag0  1  0.75000000  0.25000000  0.50000000  1
  Ag  Ag1  1  0.25000000  0.75000000  0.50000000  1
  Ag  Ag2  1  0.50000000  0.50000000  0.00000000  1
loop_
_geom_bond_atom_site_label_1
_geom_bond_atom_site_label_2
_geom_bond_distance
_geom_bond_site_symmetry_2
Ag0 Ag1 2.919924 1_544
Ag0 Ag1 2.919924 1_656
Ag0 Ag1 2.919924 1_555
Ag0 Ag1 2.919924 1_645
Ag0 Ag2 2.926936 1_656
Ag0 Cr0 2.926936 1_655
Ag0 Cr0 2.926936 1_666
Ag0 Cr0 2.926936 1_656
Ag0 Ag2 2.926936 1_545
Ag0 Ag2 2.926936 1_555
Ag0 Cr0 2.926936 1_555
Ag0 Ag2 2.926936 1_556
Ag1 Cr0 2.926936 1_565
Ag1 Cr0 2.926936 1_666
Ag1 Ag2 2.926936 1_566
Ag1 Ag2 2.926936 1_455
Ag1 Cr0 2.926936 1_566
Ag1 Ag2 2.926936 1_555
Ag1 Cr0 2.926936 1_555
Ag1 Ag2 2.926936 1_556
Ag2 Cr0 2.919924 1_565
Ag2 Cr0 2.919924 1_666
Ag2 Cr0 2.919924 1_655
Ag2 Cr0 2.919924 1_554
