# generated using pymatgen
data_Ba2Sr3Nb10O30
_symmetry_space_group_name_H-M   'P 1'
_cell_length_a   4.06464200
_cell_length_b   12.69938456
_cell_length_c   12.70100883
_cell_angle_alpha   90.13118148
_cell_angle_beta   90.01655581
_cell_angle_gamma   90.05361702
_symmetry_Int_Tables_number   1
_chemical_formula_structural   Ba2Sr3Nb10O30
_chemical_formula_sum   'Ba2 Sr3 Nb10 O30'
_cell_volume   655.60437954
_cell_formula_units_Z   1
loop_
 _symmetry_equiv_pos_site_id
 _symmetry_equiv_pos_as_xyz
  1  'x, y, z'
loop_
 _atom_site_type_symbol
 _atom_site_label
 _atom_site_symmetry_multiplicity
 _atom_site_fract_x
 _atom_site_fract_y
 _atom_site_fract_z
 _atom_site_occupancy
  Ba  Ba0  1  0.49943700  0.67049100  0.82702400  1
  Ba  Ba1  1  0.49888700  0.83233300  0.33170300  1
  Sr  Sr0  1  0.51313800  0.32658500  0.17061800  1
  Sr  Sr1  1  0.50165500  0.50086800  0.50111300  1
  Sr  Sr2  1  0.50140800  0.00135300  0.00086000  1
  Nb  Nb0  1  0.01721400  0.41891500  0.70991800  1
  Nb  Nb1  1  0.01144400  0.57499900  0.28814000  1
  Nb  Nb2  1  0.01441400  0.92747700  0.78740700  1
  Nb  Nb3  1  0.00977600  0.07973100  0.21207400  1
  Nb  Nb4  1  0.00890900  0.71253400  0.57657400  1
  Nb  Nb5  1  0.01495700  0.28882900  0.42479700  1
  Nb  Nb6  1  0.01030000  0.78941900  0.07561400  1
  Nb  Nb7  1  0.01772300  0.21076800  0.91979500  1
  Nb  Nb8  1  0.02074300  0.49643100  0.99963600  1
  Nb  Nb9  1  0.02913300  0.00396900  0.50276500  1
  O  O0  1  0.47757100  0.49729400  0.00114100  1
  O  O1  1  0.47845300  0.99323900  0.49280900  1
  O  O2  1  0.97325600  0.36804400  0.56118300  1
  O  O3  1  0.97019500  0.63834300  0.43427000  1
  O  O4  1  0.96957300  0.85789800  0.93596400  1
  O  O5  1  0.96894800  0.13528300  0.06660800  1
  O  O6  1  0.96976300  0.56771900  0.63889400  1
  O  O7  1  0.96844500  0.43760700  0.36166600  1
  O  O8  1  0.97103700  0.93435900  0.13873100  1
  O  O9  1  0.97239400  0.06139000  0.86879200  1
  O  O10  1  0.97205300  0.50480600  0.84341900  1
  O  O11  1  0.96788200  0.48917200  0.15794100  1
  O  O12  1  0.97222100  0.99646300  0.65535600  1
  O  O13  1  0.97326900  0.99452100  0.34106400  1
  O  O14  1  0.97395200  0.84224600  0.49280200  1
  O  O15  1  0.97159000  0.15642100  0.49373000  1
  O  O16  1  0.97221400  0.65371000  0.99638300  1
  O  O17  1  0.96813900  0.33920100  0.01149200  1
  O  O18  1  0.47419400  0.42915600  0.70072400  1
  O  O19  1  0.47466400  0.58048300  0.29735800  1
  O  O20  1  0.47420900  0.91560800  0.80280600  1
  O  O21  1  0.47543400  0.08185900  0.20336600  1
  O  O22  1  0.47536500  0.70267700  0.57922400  1
  O  O23  1  0.47432800  0.30233700  0.41281200  1
  O  O24  1  0.47506600  0.79794300  0.08050900  1
  O  O25  1  0.47406700  0.20121500  0.92937200  1
  O  O26  1  0.97496800  0.28815400  0.78866200  1
  O  O27  1  0.97520200  0.71913600  0.21975100  1
  O  O28  1  0.97677100  0.77936900  0.72111500  1
  O  O29  1  0.97574000  0.22804500  0.27241700  1
loop_
_geom_bond_atom_site_label_1
_geom_bond_atom_site_label_2
_geom_bond_distance
_geom_bond_site_symmetry_2
Ba0 O28 2.736895 1_555
Ba0 O10 2.858361 1_555
Ba0 O28 2.871741 1_455
Ba0 O16 2.892341 1_555
Ba0 O10 3.009908 1_455
Ba0 O16 3.044435 1_455
Ba0 O0 3.123822 1_556
Ba0 O20 3.130469 1_555
Ba0 O22 3.176160 1_555
Ba1 O27 2.798935 1_555
Ba1 O14 2.815525 1_555
Ba1 O13 2.822356 1_555
Ba1 O1 2.889749 1_555
Ba1 O27 2.932981 1_455
Ba1 O14 2.959199 1_455
Ba1 O13 2.971216 1_455
Nb0 O18 1.865597 1_555
Nb0 O26 1.947936 1_455
Nb0 O2 2.002978 1_455
Nb0 O10 2.022522 1_455
Nb0 O6 2.104844 1_455
Nb0 O18 2.214195 1_455
Nb1 O19 1.887636 1_555
Nb1 O11 1.986239 1_455
Nb1 O7 1.988447 1_455
Nb1 O3 2.028187 1_455
Nb1 O27 2.033334 1_455
Nb1 O19 2.186157 1_455
Nb2 O20 1.885263 1_555
Nb2 O12 1.901764 1_455
Nb2 O9 1.995577 1_465
Nb2 O28 2.064505 1_455
Nb2 O4 2.093233 1_455
Nb2 O20 2.209527 1_455
Nb3 O21 1.896165 1_555
Nb3 O13 1.971037 1_445
Nb3 O5 1.986138 1_455
Nb3 O29 2.036672 1_455
Nb3 O8 2.071775 1_445
Nb3 O21 2.174888 1_455
Nb4 O22 1.900515 1_555
Nb4 O14 1.968276 1_455
Nb4 O6 2.010017 1_455
Nb4 O28 2.025067 1_455
Nb4 O3 2.042287 1_455
Nb4 O22 2.172433 1_455
Nb5 O23 1.881127 1_555
Nb5 O15 1.905603 1_455
Nb5 O2 2.008455 1_455
Nb5 O7 2.063002 1_455
Nb5 O29 2.087993 1_455
Nb5 O23 2.209542 1_455
Nb6 O24 1.893100 1_555
Nb6 O4 1.984147 1_454
Nb6 O16 1.999570 1_454
Nb6 O8 2.012453 1_455
Nb6 O27 2.043478 1_455
Nb6 O24 2.179225 1_455
Nb7 O25 1.862910 1_555
Nb7 O26 1.943609 1_455
Nb7 O9 2.011435 1_455
Nb7 O17 2.012286 1_456
Nb7 O5 2.107912 1_456
Nb7 O25 2.216372 1_455
Nb8 O0 1.856957 1_556
Nb8 O10 1.996989 1_455
Nb8 O16 2.007765 1_455
Nb8 O17 2.013926 1_456
Nb8 O11 2.024443 1_456
Nb8 O0 2.207925 1_456
Nb9 O1 1.835903 1_545
Nb9 O15 1.953970 1_455
Nb9 O12 1.954415 1_445
Nb9 O14 2.069365 1_445
Nb9 O13 2.069411 1_445
Nb9 O1 2.245842 1_445
O0 Sr0 3.062000 1_555
O2 Sr1 2.667001 1_555
O2 Sr1 2.835530 1_655
O3 Sr1 2.719772 1_555
O3 Sr1 2.906539 1_655
O4 Sr2 2.760423 1_566
O4 Sr2 2.942117 1_666
O5 Sr2 2.681070 1_555
O5 Sr2 2.876734 1_655
O6 Sr1 2.718746 1_555
O6 Sr1 2.907911 1_655
O7 Sr1 2.716694 1_555
O7 Sr1 2.909897 1_655
O8 Sr2 2.727987 1_565
O8 Sr2 2.905700 1_665
O9 Sr2 2.657975 1_556
O9 Sr2 2.832912 1_656
O11 Sr0 2.774917 1_555
O11 Sr0 3.034942 1_655
O17 Sr0 2.744774 1_555
O17 Sr0 3.002855 1_655
O18 Sr1 2.698134 1_555
O19 Sr1 2.782715 1_555
O20 Sr2 2.740927 1_566
O21 Sr2 2.767681 1_555
O21 Sr0 3.140128 1_555
O22 Sr1 2.748234 1_555
O23 Sr1 2.759192 1_555
O23 Sr0 3.096236 1_555
O24 Sr2 2.778342 1_565
O25 Sr2 2.699974 1_556
O29 Sr0 2.604553 1_555
O29 Sr0 2.830714 1_655
