# generated using pymatgen
data_MgMn8(SO3)8
_symmetry_space_group_name_H-M   'P 1'
_cell_length_a   5.47694457
_cell_length_b   8.52889922
_cell_length_c   12.98032055
_cell_angle_alpha   88.95057656
_cell_angle_beta   89.73071943
_cell_angle_gamma   101.44038684
_symmetry_Int_Tables_number   1
_chemical_formula_structural   MgMn8(SO3)8
_chemical_formula_sum   'Mg1 Mn8 S8 O24'
_cell_volume   594.17255561
_cell_formula_units_Z   1
loop_
 _symmetry_equiv_pos_site_id
 _symmetry_equiv_pos_as_xyz
  1  'x, y, z'
loop_
 _atom_site_type_symbol
 _atom_site_label
 _atom_site_symmetry_multiplicity
 _atom_site_fract_x
 _atom_site_fract_y
 _atom_site_fract_z
 _atom_site_occupancy
  Mg  Mg0  1  0.62410125  0.99164709  0.99712743  1
  Mn  Mn0  1  0.35176744  0.61025346  0.91447742  1
  Mn  Mn1  1  0.66920679  0.88295509  0.42960234  1
  Mn  Mn2  1  0.67883243  0.39580817  0.08534495  1
  Mn  Mn3  1  0.33481924  0.11935120  0.57182436  1
  Mn  Mn4  1  0.10928521  0.18631749  0.25743944  1
  Mn  Mn5  1  0.89387395  0.32329187  0.75033511  1
  Mn  Mn6  1  0.88250061  0.81891464  0.74311481  1
  Mn  Mn7  1  0.11108356  0.67532943  0.25017356  1
  S  S0  1  0.49223786  0.49209424  0.68384536  1
  S  S1  1  0.51956796  0.01876267  0.20222967  1
  S  S2  1  0.51774074  0.51438100  0.31893709  1
  S  S3  1  0.45685549  0.97764532  0.79597239  1
  S  S4  1  0.08151831  0.73789241  0.50974512  1
  S  S5  1  0.93885597  0.75391336  0.01312867  1
  S  S6  1  0.91953830  0.26111877  0.49031676  1
  S  S7  1  0.09676461  0.24756531  0.99114523  1
  O  O0  1  0.72594162  0.03306966  0.28576830  1
  O  O1  1  0.28460842  0.46375546  0.76920959  1
  O  O2  1  0.24606965  0.97774639  0.71321462  1
  O  O3  1  0.72443763  0.52910237  0.23342410  1
  O  O4  1  0.34404712  0.37513745  0.99310123  1
  O  O5  1  0.68439115  0.12548203  0.49424258  1
  O  O6  1  0.68833570  0.62862206  0.01005992  1
  O  O7  1  0.31615497  0.87383143  0.50647022  1
  O  O8  1  0.92798687  0.33385736  0.92344661  1
  O  O9  1  0.10960938  0.18419396  0.42779688  1
  O  O10  1  0.10726362  0.66074549  0.07804675  1
  O  O11  1  0.88673811  0.81218214  0.57079729  1
  O  O12  1  0.70534459  0.06112623  0.74406110  1
  O  O13  1  0.26892514  0.44525086  0.26267180  1
  O  O14  1  0.26478415  0.94450832  0.25195051  1
  O  O15  1  0.73865561  0.55548638  0.74468769  1
  O  O16  1  0.04920596  0.75134615  0.90247949  1
  O  O17  1  0.96585670  0.73897506  0.40041298  1
  O  O18  1  0.97811630  0.25675884  0.10186810  1
  O  O19  1  0.03813512  0.26036415  0.59877857  1
  O  O20  1  0.49699590  0.80048362  0.79452039  1
  O  O21  1  0.47487084  0.68777337  0.33208908  1
  O  O22  1  0.48080645  0.19296823  0.18571588  1
  O  O23  1  0.54035929  0.32342946  0.66000960  1
loop_
_geom_bond_atom_site_label_1
_geom_bond_atom_site_label_2
_geom_bond_distance
_geom_bond_site_symmetry_2
Mg0 S1 2.744052 1_566
Mg0 S3 2.767930 1_555
Mg0 S5 2.915594 1_556
Mg0 S7 3.036812 1_665
Mn0 O6 2.208147 1_556
Mn0 O4 2.226091 1_555
Mn0 O16 2.237182 1_555
Mn0 O20 2.252423 1_555
Mn0 O1 2.272123 1_555
Mn0 O10 2.592715 1_556
Mn1 O7 2.158684 1_555
Mn1 O21 2.212047 1_555
Mn1 O0 2.229497 1_565
Mn1 O5 2.232835 1_565
Mn1 O17 2.256992 1_555
Mn1 O11 2.325528 1_555
Mn2 O4 2.174157 1_554
Mn2 O6 2.188130 1_555
Mn2 O18 2.214597 1_555
Mn2 O3 2.240816 1_555
Mn2 O22 2.241975 1_555
Mn2 O8 2.618652 1_554
Mn3 O5 2.150053 1_555
Mn3 O2 2.177321 1_545
Mn3 O23 2.216959 1_555
Mn3 O19 2.234851 1_555
Mn3 O7 2.257422 1_545
Mn3 O9 2.361526 1_555
Mn4 O13 2.210487 1_555
Mn4 O9 2.211049 1_555
Mn4 O22 2.223703 1_555
Mn4 O18 2.257278 1_455
Mn4 O0 2.266760 1_455
Mn4 O14 2.384394 1_545
Mn5 O19 2.230402 1_655
Mn5 O1 2.252467 1_655
Mn5 O8 2.257634 1_555
Mn5 O23 2.268399 1_555
Mn5 O12 2.272447 1_555
Mn5 O15 2.305005 1_555
Mn6 O20 2.186128 1_555
Mn6 O2 2.203226 1_655
Mn6 O15 2.228225 1_555
Mn6 O11 2.238654 1_555
Mn6 O16 2.372273 1_655
Mn6 O12 2.450522 1_565
Mn7 O17 2.219438 1_455
Mn7 O10 2.239960 1_555
Mn7 O21 2.247629 1_555
Mn7 O3 2.248029 1_455
Mn7 O14 2.283709 1_555
Mn7 O13 2.299340 1_555
O0 S1 1.558829 1_555
O1 S0 1.564827 1_555
O2 S3 1.580745 1_555
O3 S2 1.567197 1_555
O4 S7 1.560618 1_555
O5 S6 1.551035 1_555
O6 S5 1.564142 1_555
O7 S4 1.550524 1_555
O8 S7 1.556336 1_655
O9 S6 1.566916 1_455
O10 S5 1.570276 1_455
O11 S4 1.564011 1_655
O12 S3 1.550034 1_545
O13 S2 1.563492 1_555
O14 S1 1.546234 1_565
O15 S0 1.572796 1_555
O16 S5 1.557834 1_456
O17 S4 1.557465 1_655
O18 S7 1.584167 1_654
O19 S6 1.553696 1_455
O20 S3 1.569896 1_555
O21 S2 1.554951 1_555
O22 S1 1.553207 1_555
O23 S0 1.549349 1_555
