# generated using pymatgen
data_MgTiMn5(PO4)6
_symmetry_space_group_name_H-M   'P 1'
_cell_length_a   8.87668358
_cell_length_b   8.69698871
_cell_length_c   8.76153759
_cell_angle_alpha   60.02184100
_cell_angle_beta   57.64030235
_cell_angle_gamma   59.67681861
_symmetry_Int_Tables_number   1
_chemical_formula_structural   MgTiMn5(PO4)6
_chemical_formula_sum   'Mg1 Ti1 Mn5 P6 O24'
_cell_volume   468.13305634
_cell_formula_units_Z   1
loop_
 _symmetry_equiv_pos_site_id
 _symmetry_equiv_pos_as_xyz
  1  'x, y, z'
loop_
 _atom_site_type_symbol
 _atom_site_label
 _atom_site_symmetry_multiplicity
 _atom_site_fract_x
 _atom_site_fract_y
 _atom_site_fract_z
 _atom_site_occupancy
  Mg  Mg0  1  0.73976600  0.37556300  0.75513000  1
  Ti  Ti0  1  0.54670500  0.13369500  0.16357100  1
  Mn  Mn0  1  0.01158100  0.97748700  0.01751600  1
  Mn  Mn1  1  0.06899700  0.64539400  0.64381700  1
  Mn  Mn2  1  0.49963500  0.49674600  0.48995800  1
  Mn  Mn3  1  0.44103900  0.85827200  0.85494400  1
  Mn  Mn4  1  0.93557800  0.36086900  0.34222400  1
  P  P0  1  0.21241500  0.26119200  0.56754400  1
  P  P1  1  0.24063300  0.94936800  0.25690800  1
  P  P2  1  0.27893400  0.53866900  0.94198500  1
  P  P3  1  0.77044300  0.45114600  0.02517900  1
  P  P4  1  0.74492500  0.03867900  0.75791100  1
  P  P5  1  0.73998000  0.76914600  0.46156200  1
  O  O0  1  0.05776600  0.10026600  0.31353500  1
  O  O1  1  0.10623400  0.49917600  0.11115800  1
  O  O2  1  0.01932800  0.32361500  0.56209700  1
  O  O3  1  0.21649500  0.10095100  0.75292700  1
  O  O4  1  0.37527600  0.20414000  0.38227200  1
  O  O5  1  0.25659700  0.42424000  0.54835900  1
  O  O6  1  0.25059500  0.91145900  0.09559300  1
  O  O7  1  0.26886800  0.76066700  0.41942600  1
  O  O8  1  0.63622200  0.59040400  0.91929700  1
  O  O9  1  0.30087700  0.54552900  0.75314500  1
  O  O10  1  0.78276100  0.25185700  0.04837500  1
  O  O11  1  0.56545400  0.99806200  0.83470500  1
  O  O12  1  0.41369100  0.00928600  0.19000200  1
  O  O13  1  0.26766300  0.73279600  0.92314200  1
  O  O14  1  0.71075700  0.46421600  0.22058200  1
  O  O15  1  0.46618400  0.37747000  0.97509000  1
  O  O16  1  0.72431300  0.23995800  0.60648100  1
  O  O17  1  0.75693800  0.07332300  0.91269600  1
  O  O18  1  0.70471500  0.59078200  0.49877200  1
  O  O19  1  0.56461800  0.87803300  0.59375100  1
  O  O20  1  0.74842900  0.90899200  0.25349900  1
  O  O21  1  0.92394000  0.71848600  0.47399600  1
  O  O22  1  0.96771900  0.47271000  0.89075300  1
  O  O23  1  0.92678000  0.88141200  0.69990600  1
loop_
_geom_bond_atom_site_label_1
_geom_bond_atom_site_label_2
_geom_bond_distance
_geom_bond_site_symmetry_2
Mg0 O2 2.088418 1_655
Mg0 O15 2.143186 1_555
Mg0 O18 2.145664 1_555
Mg0 O16 2.235058 1_555
Mg0 O17 2.243382 1_555
Mg0 O10 2.403542 1_556
Mg0 O8 2.437476 1_555
Mn0 O3 2.192356 1_564
Mn0 O10 2.248441 1_465
Mn0 O20 2.256205 1_455
Mn0 O6 2.286911 1_555
Mn0 O13 2.289420 1_554
Mn0 O17 2.490447 1_464
Mn1 O23 1.943177 1_455
Mn1 O22 1.943894 1_455
Mn1 O5 2.013572 1_555
Mn1 O7 2.027435 1_555
Mn1 O21 2.134254 1_455
Mn1 O9 2.320043 1_555
Mn2 O9 2.115862 1_555
Mn2 O14 2.135326 1_555
Mn2 O7 2.244189 1_555
Mn2 O5 2.276677 1_555
Mn2 O16 2.326166 1_555
Mn2 O18 2.388661 1_555
Mn3 O19 1.892079 1_555
Mn3 O11 1.913078 1_555
Mn3 O6 1.971523 1_556
Mn3 O13 1.994055 1_555
Mn3 O8 2.098660 1_555
Mn3 O3 2.236148 1_565
Mn4 O1 1.990896 1_655
Mn4 O0 2.042469 1_655
Mn4 O16 2.212134 1_555
Mn4 O2 2.243852 1_655
Mn4 O14 2.331243 1_555
Mn4 O18 2.381882 1_555
O0 P1 1.496961 1_545
O1 P2 1.501863 1_554
O2 P0 1.535188 1_555
O3 P0 1.526946 1_555
O4 P0 1.593635 1_555
O4 Ti0 1.863627 1_555
O5 P0 1.563860 1_555
O6 P1 1.554531 1_555
O7 P1 1.554045 1_555
O8 P3 1.533056 1_556
O9 P2 1.532016 1_555
O10 P3 1.593017 1_555
O10 Ti0 2.310704 1_555
O11 P4 1.516173 1_565
O12 P1 1.585598 1_545
O12 Ti0 1.834480 1_555
O13 P2 1.567247 1_555
O14 P3 1.545110 1_555
O15 P2 1.602836 1_555
O15 Ti0 1.991827 1_556
O16 P4 1.572753 1_555
O17 P4 1.592762 1_555
O17 Ti0 2.088697 1_556
O18 P5 1.576794 1_555
O19 P5 1.529359 1_555
O20 P5 1.593138 1_555
O20 Ti0 2.020966 1_565
O21 P5 1.512783 1_555
O22 P3 1.546595 1_556
O23 P4 1.523772 1_565
