# generated using pymatgen
data_Nd2(ReB2)3
_symmetry_space_group_name_H-M   'P 1'
_cell_length_a   6.32091155
_cell_length_b   6.32091155
_cell_length_c   7.62509722
_cell_angle_alpha   90.45884083
_cell_angle_beta   90.45884083
_cell_angle_gamma   114.76860942
_symmetry_Int_Tables_number   1
_chemical_formula_structural   Nd2(ReB2)3
_chemical_formula_sum   'Nd4 Re6 B12'
_cell_volume   276.59615567
_cell_formula_units_Z   2
loop_
 _symmetry_equiv_pos_site_id
 _symmetry_equiv_pos_as_xyz
  1  'x, y, z'
loop_
 _atom_site_type_symbol
 _atom_site_label
 _atom_site_symmetry_multiplicity
 _atom_site_fract_x
 _atom_site_fract_y
 _atom_site_fract_z
 _atom_site_occupancy
  Nd  Nd0  1  0.09329900  0.44091700  0.32543300  1
  Nd  Nd1  1  0.55908300  0.90670100  0.17456700  1
  Nd  Nd2  1  0.90670100  0.55908300  0.67456700  1
  Nd  Nd3  1  0.44091700  0.09329900  0.82543300  1
  Re  Re0  1  0.58383600  0.41616400  0.25000000  1
  Re  Re1  1  0.41616400  0.58383600  0.75000000  1
  Re  Re2  1  0.98909000  0.80369200  0.08726100  1
  Re  Re3  1  0.19630800  0.01091000  0.41273900  1
  Re  Re4  1  0.01091000  0.19630800  0.91273900  1
  Re  Re5  1  0.80369200  0.98909000  0.58726100  1
  B  B0  1  0.24259900  0.15149100  0.13182800  1
  B  B1  1  0.84850900  0.75740100  0.36817200  1
  B  B2  1  0.75740100  0.84850900  0.86817200  1
  B  B3  1  0.15149100  0.24259900  0.63182800  1
  B  B4  1  0.58624200  0.15898900  0.48032000  1
  B  B5  1  0.84101100  0.41375800  0.01968000  1
  B  B6  1  0.41375800  0.84101100  0.51968000  1
  B  B7  1  0.15898900  0.58624200  0.98032000  1
  B  B8  1  0.44090100  0.34966800  0.53403500  1
  B  B9  1  0.65033200  0.55909900  0.96596500  1
  B  B10  1  0.55909900  0.65033200  0.46596500  1
  B  B11  1  0.34966800  0.44090100  0.03403500  1
loop_
_geom_bond_atom_site_label_1
_geom_bond_atom_site_label_2
_geom_bond_distance
_geom_bond_site_symmetry_2
B0 B11 1.831144 1_555
B0 Re2 2.131609 1_445
B0 Re0 2.276897 1_555
B0 Re3 2.299117 1_555
B0 Re4 2.309070 1_554
B0 Nd3 2.753986 1_554
B0 Nd0 2.800436 1_555
B0 Nd1 3.015531 1_545
B1 B10 1.831144 1_555
B1 Re3 2.131609 1_665
B1 Re0 2.276897 1_555
B1 Re2 2.299117 1_555
B1 Re5 2.309070 1_555
B1 Nd2 2.753986 1_555
B1 Nd1 2.800436 1_555
B1 Nd0 3.015531 1_655
B2 B9 1.831144 1_555
B2 Re4 2.131609 1_665
B2 Re1 2.276897 1_555
B2 Re5 2.299117 1_555
B2 Re2 2.309070 1_556
B2 Nd1 2.753986 1_556
B2 Nd2 2.800436 1_555
B2 Nd3 3.015531 1_565
B3 B8 1.831144 1_555
B3 Re5 2.131609 1_445
B3 Re1 2.276897 1_555
B3 Re4 2.299117 1_555
B3 Re3 2.309070 1_555
B3 Nd0 2.753986 1_555
B3 Nd3 2.800436 1_555
B3 Nd2 3.015531 1_455
B4 B8 1.841280 1_555
B4 B6 1.870094 1_545
B4 Re5 2.222685 1_545
B4 Re3 2.292479 1_555
B4 Re0 2.406873 1_555
B4 Nd3 2.770872 1_555
B4 Nd1 2.777152 1_545
B4 Nd2 2.879603 1_555
B4 Nd0 3.186141 1_655
B5 B9 1.841280 1_554
B5 B7 1.870094 1_654
B5 Re4 2.222685 1_654
B5 Re2 2.292479 1_555
B5 Re0 2.406873 1_555
B5 Nd2 2.770872 1_554
B5 Nd0 2.777152 1_655
B5 Nd3 2.879603 1_554
B5 Nd1 3.186141 1_545
B6 Re3 2.222685 1_565
B6 Re5 2.292479 1_555
B6 Re1 2.406873 1_555
B6 Nd1 2.770872 1_555
B6 Nd3 2.777152 1_565
B6 Nd0 2.879603 1_555
B6 Nd2 3.186141 1_455
B7 Re2 2.222685 1_456
B7 Re4 2.292479 1_555
B7 Re1 2.406873 1_555
B7 Nd0 2.770872 1_556
B7 Nd2 2.777152 1_455
B7 Nd1 2.879603 1_556
B7 Nd3 3.186141 1_565
B8 Re3 2.236554 1_555
B8 Re1 2.255242 1_555
B8 Re0 2.326227 1_555
B8 Nd3 2.760577 1_555
B8 Nd2 2.868860 1_555
B8 Nd0 2.951408 1_555
B9 Re2 2.236554 1_556
B9 Re1 2.255242 1_555
B9 Re0 2.326227 1_556
B9 Nd2 2.760577 1_555
B9 Nd3 2.868860 1_555
B9 Nd1 2.951408 1_556
B10 B8 1.808773 1_555
B10 B6 1.841280 1_555
B10 Re5 2.236554 1_555
B10 Re0 2.255242 1_555
B10 Re1 2.326227 1_555
B10 Nd1 2.760577 1_555
B10 Nd0 2.868860 1_555
B10 Nd2 2.951408 1_555
B11 B9 1.808773 1_554
B11 B7 1.841280 1_554
B11 Re4 2.236554 1_554
B11 Re0 2.255242 1_555
B11 Re1 2.326227 1_554
B11 Nd0 2.760577 1_555
B11 Nd1 2.868860 1_555
B11 Nd3 2.951408 1_554
