# generated using pymatgen
data_Rb2UBr5
_symmetry_space_group_name_H-M   'P 1'
_cell_length_a   8.65044998
_cell_length_b   9.41000362
_cell_length_c   13.82912759
_cell_angle_alpha   90.00000000
_cell_angle_beta   90.00000000
_cell_angle_gamma   90.00000000
_symmetry_Int_Tables_number   1
_chemical_formula_structural   Rb2UBr5
_chemical_formula_sum   'Rb8 U4 Br20'
_cell_volume   1125.70157377
_cell_formula_units_Z   4
loop_
 _symmetry_equiv_pos_site_id
 _symmetry_equiv_pos_as_xyz
  1  'x, y, z'
loop_
 _atom_site_type_symbol
 _atom_site_label
 _atom_site_symmetry_multiplicity
 _atom_site_fract_x
 _atom_site_fract_y
 _atom_site_fract_z
 _atom_site_occupancy
  Rb  Rb0  1  0.55778956  0.49384670  0.82840618  1
  Rb  Rb1  1  0.44221044  0.50615330  0.17159382  1
  Rb  Rb2  1  0.05778956  0.50615330  0.67159382  1
  Rb  Rb3  1  0.44221044  -0.00615330  0.17159382  1
  Rb  Rb4  1  0.94221044  0.49384670  0.32840618  1
  Rb  Rb5  1  0.55778956  0.00615330  0.82840618  1
  Rb  Rb6  1  0.94221044  0.00615330  0.32840618  1
  Rb  Rb7  1  0.05778956  -0.00615330  0.67159382  1
  U  U0  1  0.57354361  0.75000000  0.50400977  1
  U  U1  1  0.42645639  0.25000000  0.49599023  1
  U  U2  1  0.07354361  0.25000000  0.99599023  1
  U  U3  1  0.92645639  0.75000000  0.00400977  1
  Br  Br0  1  0.84132628  0.75000000  0.79724429  1
  Br  Br1  1  0.15867372  0.25000000  0.20275571  1
  Br  Br2  1  0.34132628  0.25000000  0.70275571  1
  Br  Br3  1  0.65867372  0.75000000  0.29724429  1
  Br  Br4  1  0.38012720  0.75000000  0.67965785  1
  Br  Br5  1  0.61987280  0.25000000  0.32034215  1
  Br  Br6  1  0.88012720  0.25000000  0.82034215  1
  Br  Br7  1  0.11987280  0.75000000  0.17965785  1
  Br  Br8  1  0.91904559  0.75000000  0.50807653  1
  Br  Br9  1  0.08095441  0.25000000  0.49192347  1
  Br  Br10  1  0.41904559  0.25000000  0.99192347  1
  Br  Br11  1  0.58095441  0.75000000  0.00807653  1
  Br  Br12  1  0.66528307  0.04390625  0.57450707  1
  Br  Br13  1  0.33471693  0.95609375  0.42549293  1
  Br  Br14  1  0.16528307  0.95609375  0.92549293  1
  Br  Br15  1  0.33471693  0.54390625  0.42549293  1
  Br  Br16  1  0.83471693  0.04390625  0.07450707  1
  Br  Br17  1  0.66528307  0.45609375  0.57450707  1
  Br  Br18  1  0.83471693  0.45609375  0.07450707  1
  Br  Br19  1  0.16528307  0.54390625  0.92549293  1
loop_
_geom_bond_atom_site_label_1
_geom_bond_atom_site_label_2
_geom_bond_distance
_geom_bond_site_symmetry_2
Br0 U3 2.952693 1_556
Br0 Rb2 3.433779 1_655
Br0 Rb7 3.433779 1_665
Br0 Rb0 3.465774 1_555
Br0 Rb5 3.465774 1_565
Br1 U2 2.952693 1_554
Br1 Rb6 3.433779 1_455
Br1 Rb4 3.433779 1_455
Br1 Rb1 3.465774 1_555
Br1 Rb3 3.465774 1_555
Br2 U1 2.952693 1_555
Br2 Rb5 3.433779 1_555
Br2 Rb0 3.433779 1_555
Br2 Rb7 3.465774 1_555
Br2 Rb2 3.465774 1_555
Br3 U0 2.952693 1_555
Br3 Rb1 3.433779 1_555
Br3 Rb3 3.433779 1_565
Br3 Rb4 3.465774 1_555
Br3 Rb6 3.465774 1_565
Br4 U0 2.949530 1_555
Br4 Rb0 3.521857 1_555
Br4 Rb5 3.521857 1_565
Br4 Rb2 3.612838 1_555
Br4 Rb7 3.612838 1_565
Br5 U1 2.949530 1_555
Br5 Rb3 3.521857 1_555
Br5 Rb1 3.521857 1_555
Br5 Rb6 3.612838 1_555
Br5 Rb4 3.612838 1_555
Br6 U2 2.949530 1_655
Br6 Rb7 3.521857 1_655
Br6 Rb2 3.521857 1_655
Br6 Rb5 3.612838 1_555
Br6 Rb0 3.612838 1_555
Br7 U3 2.949530 1_455
Br7 Rb4 3.521857 1_455
Br7 Rb6 3.521857 1_465
Br7 Rb3 3.612838 1_565
Br7 Rb1 3.612838 1_555
Br8 U0 2.989277 1_555
Br8 Rb2 3.437898 1_655
Br8 Rb7 3.437898 1_665
Br8 Rb4 3.467543 1_555
Br8 Rb6 3.467543 1_565
Br9 U1 2.989277 1_555
Br9 Rb6 3.437898 1_455
Br9 Rb4 3.437898 1_455
Br9 Rb2 3.467543 1_555
Br9 Rb7 3.467543 1_555
Br10 U2 2.989277 1_555
Br10 Rb5 3.437898 1_555
Br10 Rb0 3.437898 1_555
Br10 Rb3 3.467543 1_556
Br10 Rb1 3.467543 1_556
Br11 U3 2.989277 1_555
Br11 Rb1 3.437898 1_555
Br11 Rb3 3.437898 1_565
Br11 Rb0 3.467543 1_554
Br11 Rb5 3.467543 1_564
Br12 U1 3.034508 1_555
Br12 U0 3.037945 1_545
Br12 Rb5 3.649576 1_555
Br12 Rb7 3.681439 1_655
Br13 U0 3.034508 1_555
Br13 U1 3.037945 1_565
Br13 Rb3 3.649576 1_565
Br13 Rb6 3.681439 1_465
Br14 U3 3.034508 1_456
Br14 U2 3.037945 1_565
Br14 Rb7 3.649576 1_565
Br14 Rb5 3.681439 1_565
Br15 U0 3.034508 1_555
Br15 U1 3.037945 1_555
Br15 Rb1 3.649576 1_555
Br15 Rb4 3.681439 1_455
Br16 U2 3.034508 1_654
Br16 U3 3.037945 1_545
Br16 Rb6 3.649576 1_555
Br16 Rb3 3.681439 1_555
Br17 U1 3.034508 1_555
Br17 U0 3.037945 1_555
Br17 Rb0 3.649576 1_555
Br17 Rb2 3.681439 1_655
Br18 U2 3.034508 1_654
Br18 U3 3.037945 1_555
Br18 Rb4 3.649576 1_555
Br18 Rb1 3.681439 1_555
Br19 U3 3.034508 1_456
Br19 U2 3.037945 1_555
Br19 Rb2 3.649576 1_555
Br19 Rb0 3.681439 1_555
