# generated using pymatgen
data_Sr4LiMn2Ga2O11
_symmetry_space_group_name_H-M   'P 1'
_cell_length_a   5.75174254
_cell_length_b   5.81251282
_cell_length_c   8.52835781
_cell_angle_alpha   71.37116481
_cell_angle_beta   71.61535509
_cell_angle_gamma   93.63196035
_symmetry_Int_Tables_number   1
_chemical_formula_structural   Sr4LiMn2Ga2O11
_chemical_formula_sum   'Sr4 Li1 Mn2 Ga2 O11'
_cell_volume   252.08759186
_cell_formula_units_Z   1
loop_
 _symmetry_equiv_pos_site_id
 _symmetry_equiv_pos_as_xyz
  1  'x, y, z'
loop_
 _atom_site_type_symbol
 _atom_site_label
 _atom_site_symmetry_multiplicity
 _atom_site_fract_x
 _atom_site_fract_y
 _atom_site_fract_z
 _atom_site_occupancy
  Sr  Sr0  1  0.13777300  0.63253500  0.73938600  1
  Sr  Sr1  1  0.61983700  0.12923200  0.74033600  1
  Sr  Sr2  1  0.40797100  0.82069600  0.26537300  1
  Sr  Sr3  1  0.82628200  0.41380900  0.26699100  1
  Li  Li0  1  0.12924900  0.12953700  0.23814400  1
  Mn  Mn0  1  0.24058000  0.24091900  0.50735200  1
  Mn  Mn1  1  0.75013900  0.75224300  0.50728600  1
  Ga  Ga0  1  0.53117700  0.47513200  0.99346000  1
  Ga  Ga1  1  0.97587700  0.03020900  0.99358000  1
  O  O0  1  0.16155600  0.06318300  0.75612900  1
  O  O1  1  0.57949100  0.68154400  0.75676700  1
  O  O2  1  0.32280900  0.40346000  0.24464000  1
  O  O3  1  0.93569100  0.84934700  0.24221000  1
  O  O4  1  0.53021000  0.00477500  0.46506400  1
  O  O5  1  0.96760900  0.49398800  0.53719600  1
  O  O6  1  0.00392600  0.00304500  0.49068600  1
  O  O7  1  0.49777300  0.49940300  0.50167500  1
  O  O8  1  0.75321900  0.25221100  0.99654500  1
  O  O9  1  0.74058700  0.74075000  0.01735400  1
  O  O10  1  0.25729100  0.25303200  0.98982600  1
loop_
_geom_bond_atom_site_label_1
_geom_bond_atom_site_label_2
_geom_bond_distance
_geom_bond_site_symmetry_2
Li0 O10 1.876304 1_554
Li0 O3 1.898117 1_445
Li0 O6 1.908080 1_555
Li0 O2 1.910038 1_555
Mn0 O0 1.925407 1_555
Mn0 O6 1.947781 1_555
Mn0 O2 2.014635 1_555
Mn0 O7 2.018611 1_555
Mn0 O5 2.230096 1_455
Mn0 O4 2.239686 1_555
Mn1 O1 1.931892 1_555
Mn1 O6 1.934984 1_665
Mn1 O4 2.017247 1_565
Mn1 O5 2.019282 1_555
Mn1 O7 2.021775 1_555
Mn1 O3 2.038331 1_555
Ga0 O8 1.876097 1_555
Ga0 O1 1.909997 1_555
Ga0 O2 1.986426 1_556
Ga0 O10 1.986926 1_555
Ga0 O9 1.999037 1_556
Ga1 O8 1.875008 1_555
Ga1 O0 1.907901 1_655
Ga1 O3 1.972472 1_546
Ga1 O10 1.993395 1_655
Ga1 O9 2.005956 1_546
O0 Sr0 2.549928 1_545
O0 Sr1 2.593912 1_555
O1 Sr1 2.552433 1_565
O1 Sr0 2.594389 1_555
O2 Sr2 2.516114 1_555
O2 Sr3 2.807453 1_455
O2 Sr3 2.959617 1_555
O3 Sr3 2.494390 1_555
O4 Sr2 2.522620 1_545
O4 Sr3 2.552004 1_555
O4 Sr0 2.840063 1_545
O4 Sr1 2.846317 1_555
O5 Sr1 2.535298 1_555
O5 Sr0 2.536080 1_655
O5 Sr3 2.829833 1_555
O5 Sr2 2.875748 1_655
O6 Sr0 2.837448 1_545
O6 Sr1 2.861387 1_455
O7 Sr2 2.487993 1_555
O7 Sr3 2.488648 1_555
O7 Sr0 2.748372 1_555
O7 Sr1 2.749567 1_555
O8 Sr0 2.795049 1_655
O8 Sr1 2.803519 1_555
O9 Sr2 2.556957 1_555
O9 Sr3 2.565681 1_555
O9 Sr0 2.992150 1_654
O9 Sr1 2.998024 1_564
O10 Sr1 2.786211 1_555
O10 Sr0 2.829937 1_555
