# generated using pymatgen
data_Ba2LaCu2HgO7
_symmetry_space_group_name_H-M   'P 1'
_cell_length_a   3.93008400
_cell_length_b   3.93008400
_cell_length_c   12.96513600
_cell_angle_alpha   90.00000000
_cell_angle_beta   90.00000000
_cell_angle_gamma   90.00000000
_symmetry_Int_Tables_number   1
_chemical_formula_structural   Ba2LaCu2HgO7
_chemical_formula_sum   'Ba2 La1 Cu2 Hg1 O7'
_cell_volume   200.25378920
_cell_formula_units_Z   1
loop_
 _symmetry_equiv_pos_site_id
 _symmetry_equiv_pos_as_xyz
  1  'x, y, z'
loop_
 _atom_site_type_symbol
 _atom_site_label
 _atom_site_symmetry_multiplicity
 _atom_site_fract_x
 _atom_site_fract_y
 _atom_site_fract_z
 _atom_site_occupancy
  Ba  Ba0  1  0.50000000  0.50000000  0.19883900  1
  Ba  Ba1  1  0.50000000  0.50000000  0.80116100  1
  La  La0  1  0.50000000  0.50000000  0.50000000  1
  Cu  Cu0  1  0.00000000  0.00000000  0.36075400  1
  Cu  Cu1  1  0.00000000  0.00000000  0.63924600  1
  Hg  Hg0  1  0.00000000  0.00000000  0.00000000  1
  O  O0  1  0.00000000  0.00000000  0.16305000  1
  O  O1  1  0.00000000  0.00000000  0.83695000  1
  O  O2  1  0.00000000  0.50000000  0.37817500  1
  O  O3  1  0.00000000  0.50000000  0.62182500  1
  O  O4  1  0.50000000  0.00000000  0.37817500  1
  O  O5  1  0.50000000  0.00000000  0.62182500  1
  O  O6  1  0.50000000  0.50000000  0.00000000  1
loop_
_geom_bond_atom_site_label_1
_geom_bond_atom_site_label_2
_geom_bond_distance
_geom_bond_site_symmetry_2
Ba0 O6 2.577975 1_555
Ba0 O0 2.817461 1_655
Ba0 O0 2.817461 1_555
Ba0 O0 2.817461 1_565
Ba0 O0 2.817461 1_665
Ba0 O4 3.044266 1_555
Ba0 O2 3.044266 1_555
Ba0 O2 3.044266 1_655
Ba0 O4 3.044266 1_565
Ba1 O6 2.577975 1_556
Ba1 O1 2.817461 1_555
Ba1 O1 2.817461 1_565
Ba1 O1 2.817461 1_665
Ba1 O1 2.817461 1_655
Ba1 O5 3.044266 1_565
Ba1 O3 3.044266 1_555
Ba1 O3 3.044266 1_655
Ba1 O5 3.044266 1_555
La0 O5 2.521139 1_565
La0 O3 2.521139 1_555
La0 O3 2.521139 1_655
La0 O5 2.521139 1_555
La0 O4 2.521139 1_555
La0 O2 2.521139 1_555
La0 O2 2.521139 1_655
La0 O4 2.521139 1_565
Cu0 O4 1.977980 1_555
Cu0 O2 1.977980 1_555
Cu0 O4 1.977980 1_455
Cu0 O2 1.977980 1_545
Cu0 O0 2.563259 1_555
Cu1 O3 1.977980 1_545
Cu1 O5 1.977980 1_555
Cu1 O3 1.977980 1_555
Cu1 O5 1.977980 1_455
Cu1 O1 2.563259 1_555
Hg0 O1 2.113965 1_554
Hg0 O0 2.113965 1_555
