# generated using pymatgen
data_MoPRu
_symmetry_space_group_name_H-M   'P 1'
_cell_length_a   12.67771700
_cell_length_b   5.70473800
_cell_length_c   6.10519900
_cell_angle_alpha   90.00000000
_cell_angle_beta   90.00000000
_cell_angle_gamma   90.00000000
_symmetry_Int_Tables_number   1
_chemical_formula_structural   MoPRu
_chemical_formula_sum   'Mo4 P4 Ru4'
_cell_volume   441.54663649
_cell_formula_units_Z   4
loop_
 _symmetry_equiv_pos_site_id
 _symmetry_equiv_pos_as_xyz
  1  'x, y, z'
loop_
 _atom_site_type_symbol
 _atom_site_label
 _atom_site_symmetry_multiplicity
 _atom_site_fract_x
 _atom_site_fract_y
 _atom_site_fract_z
 _atom_site_occupancy
  Mo  Mo0  1  0.75000000  0.07176900  0.15761200  1
  Mo  Mo1  1  0.25000000  0.92823100  0.84238800  1
  Mo  Mo2  1  0.75000000  0.57176900  0.34238800  1
  Mo  Mo3  1  0.25000000  0.42823100  0.65761200  1
  P  P0  1  0.25000000  0.29530300  0.02099100  1
  P  P1  1  0.75000000  0.70469700  0.97900900  1
  P  P2  1  0.25000000  0.79530300  0.47900900  1
  P  P3  1  0.75000000  0.20469700  0.52099100  1
  Ru  Ru0  1  0.25000000  0.66775100  0.12991400  1
  Ru  Ru1  1  0.75000000  0.33224900  0.87008600  1
  Ru  Ru2  1  0.25000000  0.16775100  0.37008600  1
  Ru  Ru3  1  0.75000000  0.83224900  0.62991400  1
loop_
_geom_bond_atom_site_label_1
_geom_bond_atom_site_label_2
_geom_bond_distance
_geom_bond_site_symmetry_2
Mo0 Ru1 2.299902 1_554
Mo0 P3 2.344525 1_555
Mo0 P1 2.360939 1_544
Mo1 Ru0 2.299902 1_556
Mo1 P2 2.344525 1_555
Mo1 P0 2.360939 1_566
Mo2 Ru3 2.299902 1_555
Mo2 P1 2.344525 1_554
Mo2 P3 2.360939 1_555
Mo3 Ru2 2.299902 1_555
Mo3 P0 2.344525 1_556
Mo3 P2 2.360939 1_555
P0 Ru0 2.226353 1_555
P0 Ru2 2.252086 1_555
P1 Ru1 2.226353 1_555
P1 Ru3 2.252086 1_555
P2 Ru2 2.226353 1_565
P2 Ru0 2.252086 1_555
P3 Ru3 2.226353 1_545
P3 Ru1 2.252086 1_555
