# generated using pymatgen
data_MoW3(SeS)4
_symmetry_space_group_name_H-M   'P 1'
_cell_length_a   3.25173688
_cell_length_b   3.25173688
_cell_length_c   37.14788700
_cell_angle_alpha   90.00000000
_cell_angle_beta   90.00000000
_cell_angle_gamma   120.00001793
_symmetry_Int_Tables_number   1
_chemical_formula_structural   MoW3(SeS)4
_chemical_formula_sum   'Mo1 W3 Se4 S4'
_cell_volume   340.16957127
_cell_formula_units_Z   1
loop_
 _symmetry_equiv_pos_site_id
 _symmetry_equiv_pos_as_xyz
  1  'x, y, z'
loop_
 _atom_site_type_symbol
 _atom_site_label
 _atom_site_symmetry_multiplicity
 _atom_site_fract_x
 _atom_site_fract_y
 _atom_site_fract_z
 _atom_site_occupancy
  Mo  Mo0  1  0.00000000  0.00000000  0.09391200  1
  W  W0  1  0.00000000  0.00000000  0.46964100  1
  W  W1  1  0.33333300  0.66666700  0.28179400  1
  W  W2  1  0.33333300  0.66666700  0.65754800  1
  Se  Se0  1  0.00000000  0.00000000  0.70352700  1
  Se  Se1  1  0.33333300  0.66666700  0.04822700  1
  Se  Se2  1  0.33333300  0.66666700  0.13961000  1
  Se  Se3  1  0.00000000  0.00000000  0.61157700  1
  S  S0  1  0.00000000  0.00000000  0.32359900  1
  S  S1  1  0.33333300  0.66666700  0.42786300  1
  S  S2  1  0.33333300  0.66666700  0.51144800  1
  S  S3  1  0.00000000  0.00000000  0.24000200  1
loop_
_geom_bond_atom_site_label_1
_geom_bond_atom_site_label_2
_geom_bond_distance
_geom_bond_site_symmetry_2
Mo0 Se1 2.530760 1_545
Mo0 Se1 2.530761 1_445
Mo0 Se1 2.530761 1_555
Mo0 Se2 2.531083 1_545
Mo0 Se2 2.531085 1_445
Mo0 Se2 2.531085 1_555
Se0 W2 2.538096 1_545
Se0 W2 2.538098 1_555
Se0 W2 2.538098 1_445
Se3 W2 2.537896 1_545
Se3 W2 2.537898 1_555
Se3 W2 2.537898 1_445
S0 W1 2.436452 1_545
S0 W1 2.436454 1_555
S0 W1 2.436454 1_445
S1 W0 2.435813 1_565
S1 W0 2.435815 1_665
S1 W0 2.435815 1_555
S2 W0 2.436499 1_565
S2 W0 2.436501 1_555
S2 W0 2.436501 1_665
S3 W1 2.436144 1_545
S3 W1 2.436146 1_555
S3 W1 2.436146 1_445
