# generated using pymatgen
data_AlCr2
_symmetry_space_group_name_H-M   'P 1'
_cell_length_a   5.86155792
_cell_length_b   5.86155942
_cell_length_c   9.56981448
_cell_angle_alpha   107.83351860
_cell_angle_beta   107.83351753
_cell_angle_gamma   90.00001894
_symmetry_Int_Tables_number   1
_chemical_formula_structural   AlCr2
_chemical_formula_sum   'Al8 Cr16'
_cell_volume   296.36014786
_cell_formula_units_Z   8
loop_
 _symmetry_equiv_pos_site_id
 _symmetry_equiv_pos_as_xyz
  1  'x, y, z'
loop_
 _atom_site_type_symbol
 _atom_site_label
 _atom_site_symmetry_multiplicity
 _atom_site_fract_x
 _atom_site_fract_y
 _atom_site_fract_z
 _atom_site_occupancy
  Al  Al0_0  1  0.00000000  0.00000000  0.00000000  1
  Al  Al0_1  1  0.00000000  0.00000000  0.50000000  1
  Al  Al0_2  1  0.00000000  0.50000000  0.00000000  1
  Al  Al0_3  1  0.00000000  0.50000000  0.50000000  1
  Al  Al0_4  1  0.50000000  0.00000000  0.00000000  1
  Al  Al0_5  1  0.50000000  0.00000000  0.50000000  1
  Al  Al0_6  1  0.50000000  0.50000000  0.00000000  1
  Al  Al0_7  1  0.50000000  0.50000000  0.50000000  1
  Cr  Cr0_0  1  0.15774662  0.15774662  0.31549273  1
  Cr  Cr0_1  1  0.15774662  0.15774661  0.81549273  1
  Cr  Cr0_2  1  0.15774662  0.65774661  0.31549273  1
  Cr  Cr0_3  1  0.15774662  0.65774662  0.81549273  1
  Cr  Cr0_4  1  0.65774662  0.15774662  0.31549273  1
  Cr  Cr0_5  1  0.65774661  0.15774661  0.81549273  1
  Cr  Cr0_6  1  0.65774661  0.65774661  0.31549273  1
  Cr  Cr0_7  1  0.65774661  0.65774662  0.81549273  1
  Cr  Cr1_0  1  0.34225339  0.34225339  0.18450727  1
  Cr  Cr1_1  1  0.34225339  0.34225339  0.68450727  1
  Cr  Cr1_2  1  0.34225338  0.84225339  0.18450727  1
  Cr  Cr1_3  1  0.34225338  0.84225338  0.68450727  1
  Cr  Cr1_4  1  0.84225339  0.34225339  0.18450727  1
  Cr  Cr1_5  1  0.84225338  0.34225339  0.68450727  1
  Cr  Cr1_6  1  0.84225338  0.84225338  0.18450727  1
  Cr  Cr1_7  1  0.84225338  0.84225338  0.68450727  1
loop_
_geom_bond_atom_site_label_1
_geom_bond_atom_site_label_2
_geom_bond_distance
_geom_bond_site_symmetry_2
Al0_0 Cr0_7 2.612968 1_444
Al0_0 Cr1_0 2.612968 1_555
Al0_0 Cr0_5 2.612970 1_454
Al0_0 Cr1_2 2.612970 1_545
Al0_0 Cr0_3 2.612970 1_544
Al0_0 Cr1_4 2.612970 1_455
Al0_0 Cr0_1 2.612971 1_554
Al0_0 Cr1_6 2.612971 1_445
Al0_0 Cr1_7 2.721341 1_444
Al0_0 Cr0_0 2.721341 1_555
Al0_0 Al0_4 2.930779 1_455
Al0_0 Al0_4 2.930779 1_555
Al0_0 Al0_2 2.930780 1_555
Al0_0 Al0_2 2.930780 1_545
Al0_1 Cr0_6 2.612968 1_445
Al0_1 Cr1_1 2.612968 1_555
Al0_1 Cr0_4 2.612970 1_455
Al0_1 Cr1_3 2.612970 1_545
Al0_1 Cr0_2 2.612970 1_545
Al0_1 Cr1_5 2.612970 1_455
Al0_1 Cr0_0 2.612971 1_555
Al0_1 Cr1_7 2.612971 1_445
Al0_1 Cr1_6 2.721341 1_445
Al0_1 Cr0_1 2.721341 1_555
Al0_1 Al0_5 2.930779 1_555
Al0_1 Al0_5 2.930779 1_455
Al0_1 Al0_3 2.930780 1_545
Al0_1 Al0_3 2.930780 1_555
Al0_2 Cr1_2 2.612968 1_555
Al0_2 Cr0_5 2.612968 1_454
Al0_2 Cr1_0 2.612970 1_555
Al0_2 Cr0_7 2.612970 1_454
Al0_2 Cr0_1 2.612970 1_554
Al0_2 Cr1_6 2.612970 1_455
Al0_2 Cr0_3 2.612971 1_554
Al0_2 Cr1_4 2.612971 1_455
Al0_2 Cr1_5 2.721341 1_454
Al0_2 Cr0_2 2.721341 1_555
Al0_2 Al0_6 2.930779 1_555
Al0_2 Al0_6 2.930779 1_455
Al0_3 Cr1_3 2.612968 1_555
Al0_3 Cr0_4 2.612968 1_455
Al0_3 Cr1_1 2.612970 1_555
Al0_3 Cr0_6 2.612970 1_455
Al0_3 Cr1_7 2.612970 1_455
Al0_3 Cr0_0 2.612970 1_555
Al0_3 Cr1_5 2.612971 1_455
Al0_3 Cr0_2 2.612971 1_555
Al0_3 Cr0_3 2.721341 1_555
Al0_3 Cr1_4 2.721341 1_455
Al0_3 Al0_7 2.930779 1_555
Al0_3 Al0_7 2.930779 1_455
Al0_4 Cr0_3 2.612968 1_544
Al0_4 Cr1_4 2.612968 1_555
Al0_4 Cr0_1 2.612970 1_554
Al0_4 Cr1_6 2.612970 1_545
Al0_4 Cr0_7 2.612970 1_544
Al0_4 Cr1_0 2.612970 1_555
Al0_4 Cr0_5 2.612971 1_554
Al0_4 Cr1_2 2.612971 1_545
Al0_4 Cr0_4 2.721341 1_555
Al0_4 Cr1_3 2.721341 1_544
Al0_4 Al0_6 2.930780 1_555
Al0_4 Al0_6 2.930780 1_545
Al0_5 Cr1_5 2.612968 1_555
Al0_5 Cr0_2 2.612968 1_545
Al0_5 Cr1_7 2.612970 1_545
Al0_5 Cr0_0 2.612970 1_555
Al0_5 Cr1_1 2.612970 1_555
Al0_5 Cr0_6 2.612970 1_545
Al0_5 Cr1_3 2.612971 1_545
Al0_5 Cr0_4 2.612971 1_555
Al0_5 Cr0_5 2.721341 1_555
Al0_5 Cr1_2 2.721341 1_545
Al0_5 Al0_7 2.930780 1_545
Al0_5 Al0_7 2.930780 1_555
Al0_6 Cr1_6 2.612968 1_555
Al0_6 Cr0_1 2.612968 1_554
Al0_6 Cr0_3 2.612970 1_554
Al0_6 Cr1_4 2.612970 1_555
Al0_6 Cr0_5 2.612970 1_554
Al0_6 Cr1_2 2.612970 1_555
Al0_6 Cr1_0 2.612971 1_555
Al0_6 Cr0_7 2.612971 1_554
Al0_6 Cr1_1 2.721341 1_554
Al0_6 Cr0_6 2.721341 1_555
Al0_7 Cr1_7 2.612968 1_555
Al0_7 Cr0_0 2.612968 1_555
Al0_7 Cr0_2 2.612970 1_555
Al0_7 Cr1_5 2.612970 1_555
Al0_7 Cr1_3 2.612970 1_555
Al0_7 Cr0_4 2.612970 1_555
Al0_7 Cr1_1 2.612971 1_555
Al0_7 Cr0_6 2.612971 1_555
Al0_7 Cr0_7 2.721341 1_555
Al0_7 Cr1_0 2.721341 1_555
Cr0_0 Cr1_0 2.360350 1_555
Cr0_0 Cr1_4 2.360354 1_455
Cr0_0 Cr1_2 2.360354 1_545
Cr0_0 Cr1_6 2.360357 1_445
Cr0_1 Cr1_1 2.360350 1_555
Cr0_1 Cr1_5 2.360354 1_455
Cr0_1 Cr1_3 2.360354 1_545
Cr0_1 Cr1_7 2.360357 1_445
Cr0_2 Cr1_2 2.360350 1_555
Cr0_2 Cr1_6 2.360354 1_455
Cr0_2 Cr1_0 2.360354 1_555
Cr0_2 Cr1_4 2.360357 1_455
Cr0_3 Cr1_3 2.360350 1_555
Cr0_3 Cr1_7 2.360354 1_455
Cr0_3 Cr1_1 2.360354 1_555
Cr0_3 Cr1_5 2.360357 1_455
Cr0_4 Cr1_4 2.360350 1_555
Cr0_4 Cr1_0 2.360354 1_555
Cr0_4 Cr1_6 2.360354 1_545
Cr0_4 Cr1_2 2.360357 1_545
Cr0_5 Cr1_5 2.360350 1_555
Cr0_5 Cr1_1 2.360354 1_555
Cr0_5 Cr1_7 2.360354 1_545
Cr0_5 Cr1_3 2.360357 1_545
Cr0_6 Cr1_6 2.360350 1_555
Cr0_6 Cr1_2 2.360354 1_555
Cr0_6 Cr1_4 2.360354 1_555
Cr0_6 Cr1_0 2.360357 1_555
Cr0_7 Cr1_7 2.360350 1_555
Cr0_7 Cr1_3 2.360354 1_555
Cr0_7 Cr1_5 2.360354 1_555
Cr0_7 Cr1_1 2.360357 1_555
