# generated using pymatgen
data_Al2ZnS4
_symmetry_space_group_name_H-M   'P 1'
_cell_length_a   3.75141035
_cell_length_b   7.44747917
_cell_length_c   7.33144402
_cell_angle_alpha   58.79112870
_cell_angle_beta   104.82360244
_cell_angle_gamma   120.24612150
_symmetry_Int_Tables_number   1
_chemical_formula_structural   Al2ZnS4
_chemical_formula_sum   'Al2 Zn1 S4'
_cell_volume   151.33568943
_cell_formula_units_Z   1
loop_
 _symmetry_equiv_pos_site_id
 _symmetry_equiv_pos_as_xyz
  1  'x, y, z'
loop_
 _atom_site_type_symbol
 _atom_site_label
 _atom_site_symmetry_multiplicity
 _atom_site_fract_x
 _atom_site_fract_y
 _atom_site_fract_z
 _atom_site_occupancy
  Al  Al0  1  0.66827500  0.90483200  0.52688600  1
  Al  Al1  1  0.66314700  0.39590300  0.53448800  1
  Zn  Zn0  1  0.34381600  0.87382700  0.93997800  1
  S  S0  1  0.33522600  0.65007500  0.37030100  1
  S  S1  1  0.63693600  0.69837700  0.87711800  1
  S  S2  1  0.33372900  0.14485400  0.37774900  1
  S  S3  1  0.68553800  0.24879800  0.87348000  1
loop_
_geom_bond_atom_site_label_1
_geom_bond_atom_site_label_2
_geom_bond_distance
_geom_bond_site_symmetry_2
Al0 S1 2.202725 1_555
Al0 S2 2.344866 1_565
Al0 S2 2.344869 1_665
Al0 S0 2.369347 1_555
Al1 S3 2.132658 1_555
Al1 S2 2.348523 1_555
Al1 S0 2.402580 1_555
Al1 S0 2.402583 1_655
S0 Zn0 2.698319 1_554
S1 Zn0 2.336611 1_655
S1 Zn0 2.336611 1_555
S3 Zn0 2.232030 1_545
