# generated using pymatgen
data_Y8Cu3(SiS7)3
_symmetry_space_group_name_H-M   'P 1'
_cell_length_a   17.29832600
_cell_length_b   9.81804800
_cell_length_c   9.87130042
_cell_angle_alpha   60.20680405
_cell_angle_beta   90.00000000
_cell_angle_gamma   90.00000000
_symmetry_Int_Tables_number   1
_chemical_formula_structural   Y8Cu3(SiS7)3
_chemical_formula_sum   'Y16 Cu6 Si6 S42'
_cell_volume   1454.90784857
_cell_formula_units_Z   2
loop_
 _symmetry_equiv_pos_site_id
 _symmetry_equiv_pos_as_xyz
  1  'x, y, z'
loop_
 _atom_site_type_symbol
 _atom_site_label
 _atom_site_symmetry_multiplicity
 _atom_site_fract_x
 _atom_site_fract_y
 _atom_site_fract_z
 _atom_site_occupancy
  Y  Y0  1  0.74838400  0.23591000  0.64016100  1
  Y  Y1  1  0.42109900  0.23435400  0.64673200  1
  Y  Y2  1  0.08325000  0.23476500  0.63154200  1
  Y  Y3  1  0.92109900  0.76564600  0.35326800  1
  Y  Y4  1  0.58325000  0.76523500  0.36845800  1
  Y  Y5  1  0.24838400  0.76409000  0.35983900  1
  Y  Y6  1  0.75401300  0.64129400  0.12633400  1
  Y  Y7  1  0.41965900  0.63646600  0.13077800  1
  Y  Y8  1  0.91972000  0.86853600  0.77115400  1
  Y  Y9  1  0.58476500  0.86881800  0.76506000  1
  Y  Y10  1  0.24794900  0.86620300  0.77265800  1
  Y  Y11  1  0.91965900  0.36353400  0.86922200  1
  Y  Y12  1  0.25401300  0.35870600  0.87366600  1
  Y  Y13  1  0.74794900  0.13379700  0.22734200  1
  Y  Y14  1  0.41972000  0.13146400  0.22884600  1
  Y  Y15  1  0.08476500  0.13118200  0.23494000  1
  Cu  Cu0  1  0.76817800  0.99688400  0.99914800  1
  Cu  Cu1  1  0.43048100  0.99977000  0.00081300  1
  Cu  Cu2  1  0.09823900  0.98748100  0.00380700  1
  Cu  Cu3  1  0.93048100  0.00023000  0.99918700  1
  Cu  Cu4  1  0.59823900  0.01251900  0.99619300  1
  Cu  Cu5  1  0.26817800  0.00311600  0.00085200  1
  Si  Si0  1  0.72297700  0.66187600  0.67080100  1
  Si  Si1  1  0.39245400  0.67287700  0.66249300  1
  Si  Si2  1  0.05565800  0.66383200  0.66901500  1
  Si  Si3  1  0.89245400  0.32712300  0.33750700  1
  Si  Si4  1  0.55565800  0.33616800  0.33098500  1
  Si  Si5  1  0.22297700  0.33812400  0.32919900  1
  S  S0  1  0.75850400  0.90918600  0.83140800  1
  S  S1  1  0.42790000  0.90760800  0.83519400  1
  S  S2  1  0.09082200  0.91430300  0.82730000  1
  S  S3  1  0.83690100  0.10519000  0.47995000  1
  S  S4  1  0.50705400  0.10796800  0.47848700  1
  S  S5  1  0.17460800  0.10820500  0.47831200  1
  S  S6  1  0.67832300  0.33532900  0.33416800  1
  S  S7  1  0.34593700  0.33284700  0.33438700  1
  S  S8  1  0.01279300  0.32652200  0.33753800  1
  S  S9  1  0.91727900  0.74465900  0.08743000  1
  S  S10  1  0.59428000  0.75063900  0.08984200  1
  S  S11  1  0.26688400  0.74491800  0.09274800  1
  S  S12  1  0.84210900  0.41168800  0.10983900  1
  S  S13  1  0.50950900  0.41435400  0.10656300  1
  S  S14  1  0.17418600  0.41275700  0.10559700  1
  S  S15  1  0.67460800  0.89179500  0.52168800  1
  S  S16  1  0.33690100  0.89481000  0.52005000  1
  S  S17  1  0.00705400  0.89203200  0.52151300  1
  S  S18  1  0.67418600  0.58724300  0.89440300  1
  S  S19  1  0.34210900  0.58831200  0.89016100  1
  S  S20  1  0.00950900  0.58564600  0.89343700  1
  S  S21  1  0.76688400  0.25508200  0.90725200  1
  S  S22  1  0.41727900  0.25534100  0.91257000  1
  S  S23  1  0.09428000  0.24936100  0.91015800  1
  S  S24  1  0.75992800  0.83817600  0.25674000  1
  S  S25  1  0.42769800  0.83464100  0.25828500  1
  S  S26  1  0.09302000  0.84002900  0.25953100  1
  S  S27  1  0.84593700  0.66715300  0.66561300  1
  S  S28  1  0.51279300  0.67347800  0.66246200  1
  S  S29  1  0.17832300  0.66467100  0.66583200  1
  S  S30  1  0.67755300  0.52390600  0.57804400  1
  S  S31  1  0.34128100  0.52248200  0.58614600  1
  S  S32  1  0.00791300  0.51999100  0.58298700  1
  S  S33  1  0.92769800  0.16535900  0.74171500  1
  S  S34  1  0.59302000  0.15997100  0.74046900  1
  S  S35  1  0.25992800  0.16182400  0.74326000  1
  S  S36  1  0.84128100  0.47751800  0.41385400  1
  S  S37  1  0.50791300  0.48000900  0.41701300  1
  S  S38  1  0.17755300  0.47609400  0.42195600  1
  S  S39  1  0.92790000  0.09239200  0.16480600  1
  S  S40  1  0.59082200  0.08569700  0.17270000  1
  S  S41  1  0.25850400  0.09081400  0.16859200  1
loop_
_geom_bond_atom_site_label_1
_geom_bond_atom_site_label_2
_geom_bond_distance
_geom_bond_site_symmetry_2
Cu0 S0 2.219876 1_555
Cu0 S21 2.228099 1_565
Cu0 S24 2.230847 1_556
Cu1 S22 2.221491 1_564
Cu1 S1 2.227919 1_554
Cu1 S25 2.235097 1_555
Cu2 S2 2.193726 1_554
Cu2 S26 2.201049 1_555
Cu2 S23 2.260110 1_564
Cu3 S9 2.221491 1_546
Cu3 S39 2.227919 1_556
Cu3 S33 2.235097 1_555
Cu4 S40 2.193726 1_556
Cu4 S34 2.201049 1_555
Cu4 S10 2.260110 1_546
Cu5 S41 2.219876 1_555
Cu5 S11 2.228099 1_545
Cu5 S35 2.230847 1_554
S0 Y6 2.791098 1_556
S0 Y0 2.804750 1_565
S0 Y8 2.919961 1_555
S0 Y9 3.142670 1_555
S1 Y1 2.799178 1_565
S1 Y7 2.811005 1_556
S1 Y9 2.872185 1_555
S1 Y10 3.238140 1_555
S2 Y2 2.758389 1_565
S2 Y10 2.855661 1_555
S2 Y8 3.084940 1_455
S3 Si3 2.145637 1_555
S3 Y13 2.822846 1_555
S3 Y0 2.917162 1_555
S3 Y8 3.012791 1_545
S4 Si4 2.145897 1_555
S4 Y14 2.800588 1_555
S4 Y1 2.925187 1_555
S4 Y9 2.953296 1_545
S5 Si5 2.158804 1_555
S5 Y15 2.774739 1_555
S5 Y2 2.863055 1_555
S5 Y10 2.972680 1_545
S6 Si4 2.122087 1_555
S6 Y13 2.924229 1_555
S6 Y0 2.935196 1_555
S6 Y6 2.970327 1_555
S7 Si5 2.127630 1_555
S7 Y7 2.932255 1_555
S7 Y14 2.944600 1_555
S7 Y1 3.028057 1_555
S8 Si3 2.081671 1_455
S8 Y2 2.849849 1_555
S8 Y15 2.860788 1_555
S9 Y8 2.730358 1_554
S9 Y3 2.733204 1_555
S9 Y6 2.960804 1_555
S10 Y9 2.820514 1_554
S10 Y4 2.830683 1_555
S10 Y6 2.921092 1_555
S10 Y7 3.177110 1_555
S11 Y5 2.753604 1_555
S11 Y10 2.787473 1_554
S11 Y7 2.803857 1_555
S12 Si3 2.155052 1_555
S12 Y6 2.792020 1_555
S12 Y13 2.880531 1_555
S12 Y11 2.963209 1_554
S13 Si4 2.108160 1_555
S13 Y7 2.783222 1_555
S13 Y14 2.872625 1_555
S14 Si5 2.124605 1_555
S14 Y15 2.856190 1_555
S14 Y12 2.938948 1_554
S15 Si0 2.158804 1_555
S15 Y9 2.774739 1_555
S15 Y4 2.863055 1_555
S15 Y13 2.972680 1_565
S16 Si1 2.145637 1_555
S16 Y10 2.822846 1_555
S16 Y5 2.917162 1_555
S16 Y14 3.012791 1_565
S17 Si2 2.145897 1_555
S17 Y8 2.800588 1_455
S17 Y3 2.925187 1_455
S17 Y15 2.953296 1_565
S18 Si0 2.124605 1_555
S18 Y9 2.856190 1_555
S18 Y6 2.938948 1_556
S19 Si1 2.155052 1_555
S19 Y12 2.792020 1_555
S19 Y10 2.880531 1_555
S19 Y7 2.963209 1_556
S20 Si2 2.108160 1_555
S20 Y11 2.783222 1_455
S20 Y8 2.872625 1_455
S21 Y0 2.753604 1_555
S21 Y13 2.787473 1_556
S21 Y11 2.803857 1_555
S22 Y14 2.730358 1_556
S22 Y1 2.733204 1_555
S22 Y12 2.960804 1_555
S23 Y15 2.820514 1_556
S23 Y2 2.830683 1_555
S23 Y12 2.921092 1_555
S23 Y11 3.177110 1_455
S24 Y13 2.777445 1_565
S24 Y6 2.806556 1_555
S24 Y3 2.917811 1_555
S24 Y4 3.206988 1_555
S25 Y14 2.784710 1_565
S25 Y7 2.796948 1_555
S25 Y4 2.854997 1_555
S25 Y5 3.227393 1_555
S26 Y15 2.749744 1_565
S26 Y5 2.832940 1_555
S26 Y3 3.092306 1_455
S27 Si0 2.127630 1_555
S27 Y11 2.932255 1_555
S27 Y8 2.944600 1_555
S27 Y3 3.028057 1_555
S28 Si1 2.081671 1_555
S28 Y4 2.849849 1_555
S28 Y9 2.860788 1_555
S29 Si2 2.122087 1_555
S29 Y10 2.924229 1_555
S29 Y5 2.935196 1_555
S29 Y12 2.970327 1_555
S30 Si0 2.126800 1_555
S30 Y4 2.772010 1_555
S30 Y0 2.854713 1_555
S31 Si1 2.153539 1_555
S31 Y5 2.816694 1_555
S31 Y12 2.895619 1_555
S31 Y1 2.930057 1_555
S32 Si2 2.142306 1_555
S32 Y3 2.789161 1_455
S32 Y11 2.891481 1_455
S32 Y2 2.904528 1_555
S33 Y8 2.784710 1_545
S33 Y11 2.796948 1_555
S33 Y2 2.854997 1_655
S33 Y0 3.227393 1_555
S34 Y9 2.749744 1_545
S34 Y0 2.832940 1_555
S34 Y1 3.092306 1_555
S35 Y10 2.777445 1_545
S35 Y12 2.806556 1_555
S35 Y1 2.917811 1_555
S35 Y2 3.206988 1_555
S36 Si3 2.153539 1_555
S36 Y0 2.816694 1_555
S36 Y6 2.895619 1_555
S36 Y3 2.930057 1_555
S37 Si4 2.142306 1_555
S37 Y1 2.789161 1_555
S37 Y7 2.891481 1_555
S37 Y4 2.904528 1_555
S38 Si5 2.126800 1_555
S38 Y2 2.772010 1_555
S38 Y5 2.854713 1_555
S39 Y3 2.799178 1_545
S39 Y11 2.811005 1_554
S39 Y15 2.872185 1_655
S39 Y13 3.238140 1_555
S40 Y4 2.758389 1_545
S40 Y13 2.855661 1_555
S40 Y14 3.084940 1_555
S41 Y12 2.791098 1_554
S41 Y5 2.804750 1_545
S41 Y14 2.919961 1_555
S41 Y15 3.142670 1_555
