# generated using pymatgen
data_ZrAlPt2
_symmetry_space_group_name_H-M   'P 1'
_cell_length_a   4.54126041
_cell_length_b   4.54126041
_cell_length_c   8.25913900
_cell_angle_alpha   90.00000000
_cell_angle_beta   90.00000000
_cell_angle_gamma   120.00000599
_symmetry_Int_Tables_number   1
_chemical_formula_structural   ZrAlPt2
_chemical_formula_sum   'Zr2 Al2 Pt4'
_cell_volume   147.50888961
_cell_formula_units_Z   2
loop_
 _symmetry_equiv_pos_site_id
 _symmetry_equiv_pos_as_xyz
  1  'x, y, z'
loop_
 _atom_site_type_symbol
 _atom_site_label
 _atom_site_symmetry_multiplicity
 _atom_site_fract_x
 _atom_site_fract_y
 _atom_site_fract_z
 _atom_site_occupancy
  Zr  Zr0  1  0.33333300  0.66666700  0.25000000  1
  Zr  Zr1  1  0.66666700  0.33333300  0.75000000  1
  Al  Al0  1  0.00000000  0.00000000  0.25000000  1
  Al  Al1  1  0.00000000  0.00000000  0.75000000  1
  Pt  Pt0  1  0.66666700  0.33333300  0.08348100  1
  Pt  Pt1  1  0.33333300  0.66666700  0.91651900  1
  Pt  Pt2  1  0.33333300  0.66666700  0.58348100  1
  Pt  Pt3  1  0.66666700  0.33333300  0.41651900  1
loop_
_geom_bond_atom_site_label_1
_geom_bond_atom_site_label_2
_geom_bond_distance
_geom_bond_site_symmetry_2
Al0 Zr0 2.621895 1_545
Al0 Zr0 2.621899 1_555
Al0 Zr0 2.621899 1_445
Al0 Pt3 2.960709 1_455
Al0 Pt0 2.960709 1_455
Al0 Pt3 2.960712 1_445
Al0 Pt0 2.960712 1_445
Al0 Pt0 2.960712 1_555
Al0 Pt3 2.960712 1_555
Al1 Zr1 2.621895 1_455
Al1 Zr1 2.621899 1_445
Al1 Zr1 2.621899 1_555
Al1 Pt2 2.960709 1_545
Al1 Pt1 2.960709 1_545
Al1 Pt2 2.960712 1_555
Al1 Pt1 2.960712 1_555
Al1 Pt2 2.960712 1_445
Al1 Pt1 2.960712 1_445
Pt0 Pt3 2.750607 1_555
Pt0 Zr1 2.754266 1_554
Pt0 Zr0 2.960708 1_545
Pt0 Zr0 2.960708 1_655
Pt0 Zr0 2.960716 1_555
Pt0 Pt1 2.962410 1_544
Pt0 Pt1 2.962410 1_654
Pt0 Pt1 2.962417 1_554
Pt1 Pt2 2.750607 1_555
Pt1 Zr0 2.754266 1_556
Pt1 Zr1 2.960708 1_455
Pt1 Zr1 2.960708 1_565
Pt1 Zr1 2.960716 1_555
Pt2 Zr0 2.754266 1_555
Pt2 Zr1 2.960708 1_455
Pt2 Zr1 2.960708 1_565
Pt2 Zr1 2.960716 1_555
Pt2 Pt3 2.962410 1_455
Pt2 Pt3 2.962410 1_565
Pt2 Pt3 2.962417 1_555
Pt3 Zr1 2.754266 1_555
Pt3 Zr0 2.960708 1_545
Pt3 Zr0 2.960708 1_655
Pt3 Zr0 2.960716 1_555
