# generated using pymatgen
data_ZnCoO2
_symmetry_space_group_name_H-M   'P 1'
_cell_length_a   3.05529058
_cell_length_b   3.00929089
_cell_length_c   19.89446675
_cell_angle_alpha   85.73453833
_cell_angle_beta   90.85117817
_cell_angle_gamma   119.41945467
_symmetry_Int_Tables_number   1
_chemical_formula_structural   ZnCoO2
_chemical_formula_sum   'Zn4 Co4 O8'
_cell_volume   158.83665212
_cell_formula_units_Z   4
loop_
 _symmetry_equiv_pos_site_id
 _symmetry_equiv_pos_as_xyz
  1  'x, y, z'
loop_
 _atom_site_type_symbol
 _atom_site_label
 _atom_site_symmetry_multiplicity
 _atom_site_fract_x
 _atom_site_fract_y
 _atom_site_fract_z
 _atom_site_occupancy
  Zn  Zn0  1  0.01292400  0.00615800  0.00140400  1
  Zn  Zn1  1  0.23848900  0.49196200  0.24907400  1
  Zn  Zn2  1  0.51177800  0.00341000  0.50093200  1
  Zn  Zn3  1  0.73661300  0.49841700  0.74860000  1
  Co  Co0  1  0.37499900  0.75187400  0.87499700  1
  Co  Co1  1  0.62553300  0.24946500  0.12520700  1
  Co  Co2  1  0.87503100  0.74801400  0.37500300  1
  Co  Co3  1  0.12444700  0.25062800  0.62479500  1
  O  O0  1  0.89496600  0.84863900  0.18578300  1
  O  O1  1  0.19069000  0.37472800  0.43752100  1
  O  O2  1  0.39342000  0.85953900  0.68537700  1
  O  O3  1  0.69428300  0.37601200  0.93788000  1
  O  O4  1  0.85552800  0.64193300  0.56421000  1
  O  O5  1  0.05592600  0.12753300  0.81210300  1
  O  O6  1  0.35597000  0.65029300  0.06463200  1
  O  O7  1  0.55940300  0.12139400  0.31248300  1
loop_
_geom_bond_atom_site_label_1
_geom_bond_atom_site_label_2
_geom_bond_distance
_geom_bond_site_symmetry_2
Co0 O3 2.134869 1_565
Co0 O5 2.135427 1_555
Co0 O5 2.151724 1_565
Co0 O3 2.152490 1_555
Co0 O3 2.173873 1_455
Co0 O5 2.174446 1_665
Co1 O6 2.053429 1_545
Co1 O0 2.053462 1_555
Co1 O0 2.077176 1_545
Co1 O6 2.077438 1_555
Co1 O6 2.259835 1_655
Co1 O0 2.260137 1_445
Co2 O7 2.135326 1_555
Co2 O1 2.135360 1_655
Co2 O1 2.135500 1_665
Co2 O7 2.135514 1_565
Co2 O1 2.177741 1_555
Co2 O7 2.177831 1_665
Co3 O2 2.054937 1_545
Co3 O4 2.055330 1_455
Co3 O4 2.074509 1_445
Co3 O2 2.074939 1_555
Co3 O2 2.261166 1_445
Co3 O4 2.261315 1_555
O0 Zn1 2.125911 1_555
O0 Zn1 2.169215 1_655
O0 Zn1 2.182227 1_665
O1 Zn2 2.151287 1_565
O1 Zn2 2.152412 1_555
O1 Zn2 2.175708 1_455
O2 Zn3 2.125857 1_455
O2 Zn3 2.172065 1_565
O2 Zn3 2.177011 1_555
O3 Zn0 2.145312 1_656
O3 Zn0 2.155725 1_666
O3 Zn0 2.182270 1_556
O4 Zn2 2.125289 1_665
O4 Zn2 2.172093 1_555
O4 Zn2 2.179557 1_565
O5 Zn3 2.148687 1_455
O5 Zn3 2.153307 1_445
O5 Zn3 2.180575 1_555
O6 Zn0 2.126233 1_665
O6 Zn0 2.165812 1_565
O6 Zn0 2.183075 1_555
O7 Zn1 2.150439 1_555
O7 Zn1 2.152832 1_545
O7 Zn1 2.176059 1_655
