# generated using pymatgen
data_Li9Mn7O16
_symmetry_space_group_name_H-M   'P 1'
_cell_length_a   5.30210200
_cell_length_b   6.08637857
_cell_length_c   10.41891860
_cell_angle_alpha   103.55333303
_cell_angle_beta   95.69905282
_cell_angle_gamma   110.67403141
_symmetry_Int_Tables_number   1
_chemical_formula_structural   Li9Mn7O16
_chemical_formula_sum   'Li9 Mn7 O16'
_cell_volume   299.62542766
_cell_formula_units_Z   1
loop_
 _symmetry_equiv_pos_site_id
 _symmetry_equiv_pos_as_xyz
  1  'x, y, z'
loop_
 _atom_site_type_symbol
 _atom_site_label
 _atom_site_symmetry_multiplicity
 _atom_site_fract_x
 _atom_site_fract_y
 _atom_site_fract_z
 _atom_site_occupancy
  Li  Li0  1  0.37382000  0.80656500  0.11984300  1
  Li  Li1  1  0.12171900  0.93787200  0.37684600  1
  Li  Li2  1  0.87828100  0.06212800  0.62315400  1
  Li  Li3  1  0.62618000  0.19343500  0.88015700  1
  Li  Li4  1  0.37350900  0.32249800  0.12176600  1
  Li  Li5  1  0.12497700  0.43810400  0.37221000  1
  Li  Li6  1  0.87502300  0.56189600  0.62779000  1
  Li  Li7  1  0.62649100  0.67750200  0.87823400  1
  Li  Li8  1  0.00000000  0.50000000  0.00000000  1
  Mn  Mn0  1  0.00000000  0.00000000  0.00000000  1
  Mn  Mn1  1  0.24284700  0.87410400  0.75377900  1
  Mn  Mn2  1  0.75715300  0.12589600  0.24622100  1
  Mn  Mn3  1  0.49884000  0.25070800  0.49882800  1
  Mn  Mn4  1  0.24056200  0.38061400  0.75446800  1
  Mn  Mn5  1  0.75943800  0.61938600  0.24553200  1
  Mn  Mn6  1  0.50116000  0.74929200  0.50117200  1
  O  O0  1  0.70018700  0.67145400  0.06830300  1
  O  O1  1  0.46599100  0.78760500  0.31671600  1
  O  O2  1  0.20003900  0.92458100  0.56684600  1
  O  O3  1  0.93864800  0.04767300  0.82274600  1
  O  O4  1  0.72697100  0.13542700  0.06472300  1
  O  O5  1  0.44733900  0.29549900  0.31576300  1
  O  O6  1  0.19730700  0.42139100  0.57162200  1
  O  O7  1  0.96800900  0.54424000  0.80694200  1
  O  O8  1  0.06135200  0.95232700  0.17725400  1
  O  O9  1  0.79996100  0.07541900  0.43315400  1
  O  O10  1  0.53400900  0.21239500  0.68328400  1
  O  O11  1  0.29981300  0.32854600  0.93169700  1
  O  O12  1  0.03199100  0.45576000  0.19305800  1
  O  O13  1  0.80269300  0.57860900  0.42837800  1
  O  O14  1  0.55266100  0.70450100  0.68423700  1
  O  O15  1  0.27302900  0.86457300  0.93527700  1
loop_
_geom_bond_atom_site_label_1
_geom_bond_atom_site_label_2
_geom_bond_distance
_geom_bond_site_symmetry_2
Li0 O15 2.086965 1_554
Li0 O1 2.100299 1_555
Li0 O8 2.208065 1_555
Li0 O0 2.222914 1_555
Li0 Mn2 2.263161 1_565
Li1 O2 2.008306 1_555
Li1 O8 2.099544 1_555
Li1 Mn3 2.216205 1_565
Li1 Mn5 2.219216 1_455
Li1 O9 2.220916 1_465
Li1 O1 2.387106 1_555
Li1 O13 2.459620 1_455
Li1 O5 2.517452 1_565
Li2 O9 2.008306 1_555
Li2 O3 2.099544 1_555
Li2 Mn6 2.216205 1_545
Li2 Mn4 2.219216 1_655
Li2 O2 2.220916 1_645
Li2 O10 2.387106 1_555
Li2 O6 2.459620 1_655
Li2 O14 2.517452 1_545
Li3 O4 2.086965 1_556
Li3 O10 2.100299 1_555
Li3 O3 2.208065 1_555
Li3 O11 2.222914 1_555
Li3 Mn1 2.263161 1_545
Li4 O11 1.991562 1_554
Li4 O5 2.075958 1_555
Li4 Mn5 2.210901 1_555
Li4 Mn0 2.230090 1_555
Li4 O12 2.347390 1_555
Li4 O0 2.443318 1_555
Li4 O8 2.513383 1_545
Li4 O4 2.563699 1_555
Li5 O12 1.920249 1_555
Li5 O6 2.107709 1_555
Li5 Mn2 2.200702 1_455
Li5 Mn6 2.231238 1_555
Li5 O13 2.233738 1_455
Li5 O5 2.242421 1_555
Li5 O1 2.489330 1_555
Li5 O9 2.536511 1_455
Li6 O7 1.920249 1_555
Li6 O13 2.107709 1_555
Li6 Mn1 2.200702 1_655
Li6 Mn3 2.231238 1_555
Li6 O6 2.233738 1_655
Li6 O14 2.242421 1_555
Li6 O10 2.489330 1_555
Li6 O2 2.536511 1_655
Li7 O0 1.991562 1_556
Li7 O14 2.075958 1_555
Li7 Mn4 2.210901 1_555
Li7 Mn0 2.230090 1_666
Li7 O7 2.347390 1_555
Li7 O11 2.443318 1_555
Li7 O3 2.513383 1_565
Li7 O15 2.563699 1_555
Li8 O12 2.089394 1_555
Li8 O7 2.089394 1_454
Li8 O11 2.273823 1_554
Li8 O0 2.273823 1_455
Mn0 O3 1.949141 1_454
Mn0 O8 1.949141 1_545
Mn0 O15 2.001416 1_544
Mn0 O4 2.001416 1_455
Mn1 O15 1.898097 1_555
Mn1 O2 2.044772 1_555
Mn1 O7 2.253175 1_455
Mn1 O3 2.304615 1_465
Mn1 O14 2.317767 1_555
Mn1 O10 2.419016 1_565
Mn2 O4 1.898097 1_555
Mn2 O9 2.044772 1_555
Mn2 O12 2.253175 1_655
Mn2 O8 2.304615 1_645
Mn2 O5 2.317767 1_555
Mn2 O1 2.419016 1_545
Mn3 O10 1.988005 1_555
Mn3 O5 1.994908 1_555
Mn3 O9 2.287580 1_555
Mn3 O6 2.292316 1_555
Mn3 O2 2.369373 1_545
Mn3 O13 2.401748 1_555
Mn4 O11 1.959125 1_555
Mn4 O6 1.979510 1_555
Mn4 O7 2.072906 1_455
Mn4 O10 2.239907 1_555
Mn4 O14 2.402699 1_555
Mn4 O3 2.405458 1_455
Mn5 O0 1.959125 1_555
Mn5 O13 1.979510 1_555
Mn5 O12 2.072906 1_655
Mn5 O1 2.239907 1_555
Mn5 O5 2.402699 1_555
Mn5 O8 2.405458 1_655
Mn6 O1 1.988005 1_555
Mn6 O14 1.994908 1_555
Mn6 O2 2.287580 1_555
Mn6 O13 2.292316 1_555
Mn6 O9 2.369373 1_565
Mn6 O6 2.401748 1_555
