# generated using pymatgen
data_Ho2Fe4Si9
_symmetry_space_group_name_H-M   'P 1'
_cell_length_a   3.93945826
_cell_length_b   3.93945826
_cell_length_c   15.99747800
_cell_angle_alpha   90.00000000
_cell_angle_beta   90.00000000
_cell_angle_gamma   120.00000429
_symmetry_Int_Tables_number   1
_chemical_formula_structural   Ho2Fe4Si9
_chemical_formula_sum   'Ho2 Fe4 Si9'
_cell_volume   215.00825781
_cell_formula_units_Z   1
loop_
 _symmetry_equiv_pos_site_id
 _symmetry_equiv_pos_as_xyz
  1  'x, y, z'
loop_
 _atom_site_type_symbol
 _atom_site_label
 _atom_site_symmetry_multiplicity
 _atom_site_fract_x
 _atom_site_fract_y
 _atom_site_fract_z
 _atom_site_occupancy
  Ho  Ho0  1  0.33333300  0.66666700  0.24100500  1
  Ho  Ho1  1  0.66666700  0.33333300  0.75899500  1
  Fe  Fe0  1  0.33333300  0.66666700  0.58965700  1
  Fe  Fe1  1  0.66666700  0.33333300  0.41034300  1
  Fe  Fe2  1  0.66666700  0.33333300  0.10159000  1
  Fe  Fe3  1  0.33333300  0.66666700  0.89841000  1
  Si  Si0  1  0.33333300  0.66666700  0.43501400  1
  Si  Si1  1  0.66666700  0.33333300  0.56498600  1
  Si  Si2  1  0.66666700  0.33333300  0.95676100  1
  Si  Si3  1  0.33333300  0.66666700  0.04323900  1
  Si  Si4  1  0.00000000  0.00000000  0.65072200  1
  Si  Si5  1  0.00000000  0.00000000  0.34927800  1
  Si  Si6  1  0.00000000  0.00000000  0.12685000  1
  Si  Si7  1  0.00000000  0.00000000  0.87315000  1
  Si  Si8  1  0.00000000  0.00000000  0.50000000  1
loop_
_geom_bond_atom_site_label_1
_geom_bond_atom_site_label_2
_geom_bond_distance
_geom_bond_site_symmetry_2
Ho0 Si5 2.858890 1_565
Ho0 Si5 2.858893 1_555
Ho0 Si5 2.858893 1_665
Ho0 Si6 2.916861 1_565
Ho0 Si6 2.916864 1_555
Ho0 Si6 2.916864 1_665
Ho0 Si0 3.103655 1_555
Ho0 Si3 3.163757 1_555
Ho1 Si4 2.858890 1_655
Ho1 Si4 2.858893 1_665
Ho1 Si4 2.858893 1_555
Ho1 Si7 2.916861 1_655
Ho1 Si7 2.916864 1_555
Ho1 Si7 2.916864 1_665
Ho1 Si1 3.103655 1_555
Ho1 Si2 3.163757 1_555
Fe0 Si1 2.308434 1_455
Fe0 Si1 2.308434 1_565
Fe0 Si1 2.308441 1_555
Fe0 Si0 2.473898 1_555
Fe0 Si4 2.475360 1_565
Fe0 Si4 2.475363 1_555
Fe0 Si4 2.475363 1_665
Fe0 Si8 2.688917 1_565
Fe0 Si8 2.688920 1_555
Fe0 Si8 2.688920 1_665
Fe1 Si0 2.308434 1_545
Fe1 Si0 2.308434 1_655
Fe1 Si0 2.308441 1_555
Fe1 Si1 2.473898 1_555
Fe1 Si5 2.475360 1_655
Fe1 Si5 2.475363 1_665
Fe1 Si5 2.475363 1_555
Fe1 Si8 2.688917 1_655
Fe1 Si8 2.688920 1_555
Fe1 Si8 2.688920 1_665
Fe2 Si6 2.310064 1_655
Fe2 Si6 2.310067 1_555
Fe2 Si6 2.310067 1_665
Fe2 Si2 2.316899 1_554
Fe2 Si3 2.458549 1_545
Fe2 Si3 2.458549 1_655
Fe2 Si3 2.458556 1_555
Fe2 Ho0 3.185480 1_545
Fe2 Ho0 3.185480 1_655
Fe2 Ho0 3.185485 1_555
Fe3 Si7 2.310064 1_565
Fe3 Si7 2.310067 1_555
Fe3 Si7 2.310067 1_665
Fe3 Si3 2.316899 1_556
Fe3 Si2 2.458549 1_455
Fe3 Si2 2.458549 1_565
Fe3 Si2 2.458556 1_555
Fe3 Ho1 3.185480 1_455
Fe3 Ho1 3.185480 1_565
Fe3 Ho1 3.185485 1_555
Si0 Si8 2.500779 1_565
Si0 Si8 2.500782 1_555
Si0 Si8 2.500782 1_665
Si0 Si5 2.655989 1_565
Si0 Si5 2.655992 1_555
Si0 Si5 2.655992 1_665
Si1 Si8 2.500779 1_655
Si1 Si8 2.500782 1_555
Si1 Si8 2.500782 1_665
Si1 Si4 2.655989 1_655
Si1 Si4 2.655992 1_665
Si1 Si4 2.655992 1_555
Si2 Si7 2.638594 1_655
Si2 Si7 2.638597 1_555
Si2 Si7 2.638597 1_665
Si2 Si3 2.662138 1_546
Si2 Si3 2.662138 1_656
Si2 Si3 2.662144 1_556
Si3 Si6 2.638594 1_565
Si3 Si6 2.638597 1_555
Si3 Si6 2.638597 1_665
Si4 Si8 2.411172 1_555
Si5 Si8 2.411172 1_555
