# generated using pymatgen
data_Li3MnFeCo(PO4)3
_symmetry_space_group_name_H-M   'P 1'
_cell_length_a   6.07833600
_cell_length_b   10.47589900
_cell_length_c   14.29658487
_cell_angle_alpha   89.95782344
_cell_angle_beta   90.00000000
_cell_angle_gamma   90.00000000
_symmetry_Int_Tables_number   1
_chemical_formula_structural   Li3MnFeCo(PO4)3
_chemical_formula_sum   'Li12 Mn4 Fe4 Co4 P12 O48'
_cell_volume   910.34957818
_cell_formula_units_Z   4
loop_
 _symmetry_equiv_pos_site_id
 _symmetry_equiv_pos_as_xyz
  1  'x, y, z'
loop_
 _atom_site_type_symbol
 _atom_site_label
 _atom_site_symmetry_multiplicity
 _atom_site_fract_x
 _atom_site_fract_y
 _atom_site_fract_z
 _atom_site_occupancy
  Li  Li0  1  0.74959900  0.00146200  0.66739700  1
  Li  Li1  1  0.24833800  0.00090700  0.99950100  1
  Li  Li2  1  0.75166200  0.00090700  0.99950100  1
  Li  Li3  1  0.24919100  0.00094200  0.33345200  1
  Li  Li4  1  0.75080900  0.00094200  0.33345200  1
  Li  Li5  1  0.25040100  0.00146200  0.66739700  1
  Li  Li6  1  0.24975300  0.49884600  0.50051100  1
  Li  Li7  1  0.75024700  0.49884600  0.50051100  1
  Li  Li8  1  0.24925800  0.49843900  0.16748800  1
  Li  Li9  1  0.75074200  0.49843900  0.16748800  1
  Li  Li10  1  0.25043600  0.49884200  0.83276700  1
  Li  Li11  1  0.74956400  0.49884200  0.83276700  1
  Mn  Mn0  1  0.50000000  0.78184000  0.16056200  1
  Mn  Mn1  1  0.50000000  0.78103400  0.82633800  1
  Mn  Mn2  1  0.00000000  0.71906300  0.65995800  1
  Mn  Mn3  1  0.50000000  0.27953200  0.00676300  1
  Fe  Fe0  1  0.50000000  0.78153000  0.49224400  1
  Fe  Fe1  1  0.00000000  0.71949800  0.99252800  1
  Fe  Fe2  1  0.00000000  0.71856200  0.32600300  1
  Fe  Fe3  1  0.50000000  0.28030100  0.34195100  1
  Co  Co0  1  0.50000000  0.27644600  0.67321100  1
  Co  Co1  1  0.00000000  0.22281700  0.83934600  1
  Co  Co2  1  0.00000000  0.21999600  0.50674200  1
  Co  Co3  1  0.00000000  0.21949700  0.17354300  1
  P  P0  1  0.00000000  0.90997100  0.80614300  1
  P  P1  1  0.00000000  0.90751900  0.13812200  1
  P  P2  1  0.00000000  0.90793100  0.47195300  1
  P  P3  1  0.50000000  0.59239300  0.30732800  1
  P  P4  1  0.50000000  0.59098800  0.63736000  1
  P  P5  1  0.50000000  0.59264100  0.97301800  1
  P  P6  1  0.00000000  0.40430900  0.36114300  1
  P  P7  1  0.00000000  0.40489100  0.02889500  1
  P  P8  1  0.00000000  0.40271700  0.69395000  1
  P  P9  1  0.50000000  0.09469700  0.85954400  1
  P  P10  1  0.50000000  0.09616400  0.19497200  1
  P  P11  1  0.50000000  0.09644600  0.52719200  1
  O  O0  1  0.50000000  0.95990800  0.23835600  1
  O  O1  1  0.50000000  0.95917500  0.56910300  1
  O  O2  1  0.50000000  0.95833200  0.90274300  1
  O  O3  1  0.00000000  0.90615900  0.57939700  1
  O  O4  1  0.00000000  0.90395700  0.91361500  1
  O  O5  1  0.00000000  0.90252500  0.24575600  1
  O  O6  1  0.20222000  0.83776200  0.09258700  1
  O  O7  1  0.79778000  0.83776200  0.09258700  1
  O  O8  1  0.20303200  0.83626900  0.42793800  1
  O  O9  1  0.79696800  0.83626900  0.42793800  1
  O  O10  1  0.20210400  0.84002400  0.76050800  1
  O  O11  1  0.79789600  0.84002400  0.76050800  1
  O  O12  1  0.70203800  0.66169800  0.59217300  1
  O  O13  1  0.29796200  0.66169800  0.59217300  1
  O  O14  1  0.70343300  0.66333300  0.26315600  1
  O  O15  1  0.29656700  0.66333300  0.26315600  1
  O  O16  1  0.70355600  0.66382200  0.92956400  1
  O  O17  1  0.29644400  0.66382200  0.92956400  1
  O  O18  1  0.50000000  0.59488200  0.41472400  1
  O  O19  1  0.50000000  0.59294300  0.08048100  1
  O  O20  1  0.50000000  0.59575800  0.74498000  1
  O  O21  1  0.00000000  0.54157300  0.40264800  1
  O  O22  1  0.00000000  0.54324100  0.06828900  1
  O  O23  1  0.00000000  0.53952700  0.73692400  1
  O  O24  1  0.50000000  0.45573100  0.26522700  1
  O  O25  1  0.50000000  0.45681900  0.92939200  1
  O  O26  1  0.50000000  0.45273500  0.59801700  1
  O  O27  1  0.00000000  0.40238800  0.25360500  1
  O  O28  1  0.00000000  0.39927500  0.92117300  1
  O  O29  1  0.00000000  0.40260500  0.58635500  1
  O  O30  1  0.20119700  0.33508000  0.07514700  1
  O  O31  1  0.20162800  0.33267000  0.40613700  1
  O  O32  1  0.20375600  0.33166600  0.73787200  1
  O  O33  1  0.79624400  0.33166600  0.73787200  1
  O  O34  1  0.79880300  0.33508000  0.07514700  1
  O  O35  1  0.79837200  0.33267000  0.40613700  1
  O  O36  1  0.70479400  0.16470000  0.90297600  1
  O  O37  1  0.29520600  0.16470000  0.90297600  1
  O  O38  1  0.70442100  0.16757900  0.23808600  1
  O  O39  1  0.70378400  0.16817500  0.57118700  1
  O  O40  1  0.29557900  0.16757900  0.23808600  1
  O  O41  1  0.29621600  0.16817500  0.57118700  1
  O  O42  1  0.50000000  0.09653900  0.75176800  1
  O  O43  1  0.50000000  0.09713400  0.41969500  1
  O  O44  1  0.50000000  0.09460800  0.08735800  1
  O  O45  1  0.00000000  0.04785100  0.76605300  1
  O  O46  1  0.00000000  0.04602700  0.09839900  1
  O  O47  1  0.00000000  0.04509500  0.43023900  1
loop_
_geom_bond_atom_site_label_1
_geom_bond_atom_site_label_2
_geom_bond_distance
_geom_bond_site_symmetry_2
Li0 O1 2.115106 1_545
Li0 O45 2.131449 1_655
Li0 O11 2.171420 1_545
Li0 O42 2.179567 1_555
Li0 O3 2.213139 1_645
Li0 O39 2.239664 1_555
Li1 O2 2.110289 1_545
Li1 O46 2.121806 1_556
Li1 O6 2.183411 1_546
Li1 O4 2.195353 1_545
Li1 O44 2.209745 1_556
Li1 O37 2.219516 1_555
Li2 O2 2.110289 1_545
Li2 O46 2.121806 1_656
Li2 O7 2.183411 1_546
Li2 O4 2.195353 1_645
Li2 O44 2.209745 1_556
Li2 O36 2.219516 1_555
Li3 O0 2.087612 1_545
Li3 O47 2.103282 1_555
Li3 O43 2.204910 1_555
Li3 O8 2.208163 1_545
Li3 O5 2.220583 1_545
Li3 O40 2.232096 1_555
Li4 O0 2.087612 1_545
Li4 O47 2.103282 1_655
Li4 O43 2.204910 1_555
Li4 O9 2.208163 1_545
Li4 O5 2.220583 1_645
Li4 O38 2.232096 1_555
Li5 O1 2.115106 1_545
Li5 O45 2.131449 1_555
Li5 O10 2.171420 1_545
Li5 O42 2.179567 1_555
Li5 O3 2.213139 1_545
Li5 O41 2.239664 1_555
Li6 O21 2.112227 1_555
Li6 O26 2.118796 1_555
Li6 O13 2.171855 1_555
Li6 O29 2.196690 1_555
Li6 O18 2.197329 1_555
Li6 O31 2.222604 1_555
Li7 O21 2.112227 1_655
Li7 O26 2.118796 1_555
Li7 O12 2.171855 1_555
Li7 O29 2.196690 1_655
Li7 O18 2.197329 1_555
Li7 O35 2.222604 1_555
Li8 O24 2.115338 1_555
Li8 O22 2.127454 1_555
Li8 O30 2.181777 1_555
Li8 O27 2.195884 1_555
Li8 O19 2.201925 1_555
Li8 O15 2.222791 1_555
Li9 O24 2.115338 1_555
Li9 O22 2.127454 1_655
Li9 O34 2.181777 1_555
Li9 O27 2.195884 1_655
Li9 O19 2.201925 1_555
Li9 O14 2.222791 1_555
Li10 O23 2.091774 1_555
Li10 O25 2.098161 1_555
Li10 O20 2.214762 1_555
Li10 O17 2.232461 1_555
Li10 O32 2.234209 1_555
Li10 O28 2.236218 1_555
Li11 O23 2.091774 1_655
Li11 O25 2.098161 1_555
Li11 O20 2.214762 1_555
Li11 O16 2.232461 1_555
Li11 O33 2.234209 1_555
Li11 O28 2.236218 1_655
Mn0 O6 2.136095 1_555
Mn0 O7 2.136095 1_555
Mn0 O0 2.172514 1_555
Mn0 O14 2.284494 1_555
Mn0 O15 2.284494 1_555
Mn0 O19 2.286921 1_555
Mn1 O10 2.132010 1_555
Mn1 O11 2.132010 1_555
Mn1 O2 2.155445 1_555
Mn1 O20 2.263502 1_555
Mn1 O16 2.283389 1_555
Mn1 O17 2.283389 1_555
Mn2 O13 2.140391 1_555
Mn2 O12 2.140391 1_455
Mn2 O23 2.178334 1_555
Mn2 O3 2.272618 1_555
Mn2 O10 2.276837 1_555
Mn2 O11 2.276837 1_455
Mn3 O30 2.143350 1_555
Mn3 O34 2.143350 1_555
Mn3 O25 2.160987 1_554
Mn3 O44 2.253281 1_555
Mn3 O37 2.280563 1_554
Mn3 O36 2.280563 1_554
Fe0 O9 2.105126 1_555
Fe0 O8 2.105126 1_555
Fe0 O1 2.161876 1_555
Fe0 O18 2.248261 1_555
Fe0 O13 2.263272 1_555
Fe0 O12 2.263272 1_555
Fe1 O17 2.097155 1_555
Fe1 O16 2.097155 1_455
Fe1 O22 2.139998 1_556
Fe1 O4 2.236887 1_555
Fe1 O7 2.257146 1_456
Fe1 O6 2.257146 1_556
Fe2 O15 2.095781 1_555
Fe2 O14 2.095781 1_455
Fe2 O21 2.153012 1_555
Fe2 O5 2.242088 1_555
Fe2 O8 2.273748 1_555
Fe2 O9 2.273748 1_455
Fe3 O31 2.105456 1_555
Fe3 O35 2.105456 1_555
Fe3 O24 2.139547 1_555
Fe3 O43 2.216794 1_555
Fe3 O40 2.268457 1_555
Fe3 O38 2.268457 1_555
Co0 O33 2.105330 1_555
Co0 O32 2.105330 1_555
Co0 O26 2.136202 1_555
Co0 O42 2.193234 1_555
Co0 O41 2.225022 1_555
Co0 O39 2.225022 1_555
Co1 O36 2.101696 1_455
Co1 O37 2.101696 1_555
Co1 O45 2.111969 1_555
Co1 O28 2.188352 1_555
Co1 O32 2.221785 1_555
Co1 O33 2.221785 1_455
Co2 O41 2.093955 1_555
Co2 O39 2.093955 1_455
Co2 O47 2.134554 1_555
Co2 O29 2.226709 1_555
Co2 O31 2.227440 1_555
Co2 O35 2.227440 1_455
Co3 O40 2.091508 1_555
Co3 O38 2.091508 1_455
Co3 O46 2.111732 1_555
Co3 O30 2.222180 1_555
Co3 O34 2.222180 1_455
Co3 O27 2.232537 1_555
O0 P10 1.555918 1_565
O1 P11 1.557467 1_565
O2 P9 1.555915 1_565
O3 P2 1.536181 1_555
O4 P0 1.537727 1_555
O5 P1 1.539649 1_555
O6 P1 1.571417 1_555
O7 P1 1.571417 1_655
O8 P2 1.575833 1_555
O9 P2 1.575833 1_655
O10 P0 1.572387 1_555
O11 P0 1.572387 1_655
O12 P4 1.572726 1_555
O13 P4 1.572726 1_555
O14 P3 1.574616 1_555
O15 P3 1.574616 1_555
O16 P5 1.572315 1_555
O17 P5 1.572315 1_555
O18 P3 1.535637 1_555
O19 P5 1.536359 1_554
O20 P4 1.539446 1_555
O21 P6 1.555987 1_555
O22 P7 1.555308 1_555
O23 P8 1.559758 1_555
O24 P3 1.553446 1_555
O25 P5 1.553974 1_555
O26 P4 1.554097 1_555
O27 P6 1.537573 1_555
O28 P7 1.541223 1_556
O29 P8 1.538242 1_555
O30 P7 1.570660 1_555
O31 P6 1.574262 1_555
O32 P8 1.575280 1_555
O33 P8 1.575280 1_655
O34 P7 1.570660 1_655
O35 P6 1.574262 1_655
O36 P9 1.572756 1_555
O37 P9 1.572756 1_555
O38 P10 1.576141 1_555
O39 P11 1.579635 1_555
O40 P10 1.576141 1_555
O41 P11 1.579635 1_555
O42 P9 1.540935 1_555
O43 P11 1.536852 1_555
O44 P10 1.538611 1_555
O45 P0 1.553584 1_545
O46 P1 1.557784 1_545
O47 P2 1.555352 1_545
