# generated using pymatgen
data_Sr4RhN4
_symmetry_space_group_name_H-M   'P 1'
_cell_length_a   10.88088700
_cell_length_b   4.05115800
_cell_length_c   16.16752200
_cell_angle_alpha   90.00000000
_cell_angle_beta   90.00000000
_cell_angle_gamma   90.00000000
_symmetry_Int_Tables_number   1
_chemical_formula_structural   Sr4RhN4
_chemical_formula_sum   'Sr16 Rh4 N16'
_cell_volume   712.66748067
_cell_formula_units_Z   4
loop_
 _symmetry_equiv_pos_site_id
 _symmetry_equiv_pos_as_xyz
  1  'x, y, z'
loop_
 _atom_site_type_symbol
 _atom_site_label
 _atom_site_symmetry_multiplicity
 _atom_site_fract_x
 _atom_site_fract_y
 _atom_site_fract_z
 _atom_site_occupancy
  Sr  Sr0  1  0.58396600  0.25000000  0.91662400  1
  Sr  Sr1  1  0.08396600  0.25000000  0.58337600  1
  Sr  Sr2  1  0.41603400  0.75000000  0.08337600  1
  Sr  Sr3  1  0.91603400  0.75000000  0.41662400  1
  Sr  Sr4  1  0.65128800  0.25000000  0.52417600  1
  Sr  Sr5  1  0.15128800  0.25000000  0.97582400  1
  Sr  Sr6  1  0.34871200  0.75000000  0.47582400  1
  Sr  Sr7  1  0.84871200  0.75000000  0.02417600  1
  Sr  Sr8  1  0.71913000  0.25000000  0.73682300  1
  Sr  Sr9  1  0.21913000  0.25000000  0.76317700  1
  Sr  Sr10  1  0.28087000  0.75000000  0.26317700  1
  Sr  Sr11  1  0.78087000  0.75000000  0.23682300  1
  Sr  Sr12  1  0.03180200  0.25000000  0.17353300  1
  Sr  Sr13  1  0.53180200  0.25000000  0.32646700  1
  Sr  Sr14  1  0.96819800  0.75000000  0.82646700  1
  Sr  Sr15  1  0.46819700  0.75000000  0.67353300  1
  Rh  Rh0  1  0.62610400  0.25000000  0.13073800  1
  Rh  Rh1  1  0.12610400  0.25000000  0.36926200  1
  Rh  Rh2  1  0.37389600  0.75000000  0.86926200  1
  Rh  Rh3  1  0.87389600  0.75000000  0.63073800  1
  N  N0  1  0.30554900  0.25000000  0.36731200  1
  N  N1  1  0.80555000  0.25000000  0.13268800  1
  N  N2  1  0.69445000  0.75000000  0.63268800  1
  N  N3  1  0.19445000  0.75000000  0.86731200  1
  N  N4  1  0.93816400  0.25000000  0.92274700  1
  N  N5  1  0.43816400  0.25000000  0.57725300  1
  N  N6  1  0.06183600  0.75000000  0.07725300  1
  N  N7  1  0.56183600  0.75000000  0.42274700  1
  N  N8  1  0.95927900  0.25000000  0.32434800  1
  N  N9  1  0.45927900  0.25000000  0.17565200  1
  N  N10  1  0.04072100  0.75000000  0.67565200  1
  N  N11  1  0.54072100  0.75000000  0.82434800  1
  N  N12  1  0.82597700  0.25000000  0.88989900  1
  N  N13  1  0.32597700  0.25000000  0.61010100  1
  N  N14  1  0.17402300  0.75000000  0.11010100  1
  N  N15  1  0.67402300  0.75000000  0.38989900  1
loop_
_geom_bond_atom_site_label_1
_geom_bond_atom_site_label_2
_geom_bond_distance
_geom_bond_site_symmetry_2
Rh0 Sr11 3.143322 1_545
Rh0 Sr11 3.143322 1_555
Rh1 Sr10 3.143322 1_555
Rh1 Sr10 3.143322 1_545
Rh2 Sr9 3.143322 1_555
Rh2 Sr9 3.143322 1_565
Rh3 Sr8 3.143322 1_565
Rh3 Sr8 3.143322 1_555
N0 Rh1 1.952775 1_555
N0 Sr13 2.548863 1_555
N0 Sr10 2.647566 1_545
N0 Sr10 2.647566 1_555
N0 Sr6 2.720544 1_545
N0 Sr6 2.720544 1_555
N1 Rh0 1.952786 1_555
N1 Sr12 2.548852 1_655
N1 Sr11 2.647567 1_555
N1 Sr11 2.647567 1_545
N1 Sr7 2.720542 1_545
N1 Sr7 2.720542 1_555
N2 Rh3 1.952786 1_555
N2 Sr15 2.548863 1_555
N2 Sr8 2.647567 1_565
N2 Sr8 2.647567 1_555
N2 Sr4 2.720542 1_565
N2 Sr4 2.720542 1_555
N3 Rh2 1.952786 1_555
N3 Sr14 2.548852 1_455
N3 Sr9 2.647567 1_555
N3 Sr9 2.647567 1_565
N3 Sr5 2.720542 1_555
N3 Sr5 2.720542 1_565
N4 Sr5 2.472658 1_655
N4 Sr14 2.575422 1_555
N4 Sr14 2.575422 1_545
N4 Sr7 2.781985 1_546
N4 Sr7 2.781985 1_556
N5 Sr4 2.472658 1_555
N5 Sr15 2.575421 1_555
N5 Sr15 2.575421 1_545
N5 Sr6 2.781985 1_555
N5 Sr6 2.781985 1_545
N6 Sr7 2.472658 1_455
N6 Sr12 2.575422 1_565
N6 Sr12 2.575422 1_555
N6 Sr5 2.781985 1_554
N6 Sr5 2.781985 1_564
N7 Sr6 2.472658 1_555
N7 Sr13 2.575422 1_555
N7 Sr13 2.575422 1_565
N7 Sr4 2.781985 1_555
N7 Sr4 2.781985 1_565
N8 Rh1 1.955059 1_655
N8 Sr3 2.559311 1_545
N8 Sr3 2.559311 1_555
N8 Sr12 2.562817 1_655
N8 Sr11 3.142263 1_545
N8 Sr11 3.142263 1_555
N9 Rh0 1.955059 1_555
N9 Sr2 2.559311 1_545
N9 Sr2 2.559311 1_555
N9 Sr13 2.562817 1_555
N9 Sr10 3.142263 1_545
N9 Sr10 3.142263 1_555
N10 Rh3 1.955059 1_455
N10 Sr1 2.559311 1_565
N10 Sr1 2.559311 1_555
N10 Sr14 2.562817 1_455
N10 Sr9 3.142263 1_555
N10 Sr9 3.142263 1_565
N11 Rh2 1.955059 1_555
N11 Sr0 2.559311 1_565
N11 Sr0 2.559311 1_555
N11 Sr15 2.562821 1_555
N11 Sr8 3.142263 1_555
N11 Sr8 3.142263 1_565
N12 N4 1.331214 1_555
N12 Sr0 2.668507 1_555
N12 Sr8 2.734327 1_555
N12 Sr14 2.747622 1_545
N12 Sr14 2.747622 1_555
N12 Sr7 2.979444 1_546
N12 Sr7 2.979444 1_556
N13 N5 1.331214 1_555
N13 Sr1 2.668507 1_555
N13 Sr9 2.734327 1_555
N13 Sr15 2.747616 1_545
N13 Sr15 2.747616 1_555
N13 Sr6 2.979444 1_555
N13 Sr6 2.979444 1_545
N14 N6 1.331214 1_555
N14 Sr2 2.668507 1_555
N14 Sr10 2.734327 1_555
N14 Sr12 2.747622 1_565
N14 Sr12 2.747622 1_555
N14 Sr5 2.979444 1_554
N14 Sr5 2.979444 1_564
N15 N7 1.331214 1_555
N15 Sr3 2.668507 1_555
N15 Sr11 2.734327 1_555
N15 Sr13 2.747622 1_555
N15 Sr13 2.747622 1_565
N15 Sr4 2.979444 1_565
N15 Sr4 2.979444 1_555
