# generated using pymatgen
data_Ce2MgS4
_symmetry_space_group_name_H-M   'P 1'
_cell_length_a   3.97408300
_cell_length_b   13.13427100
_cell_length_c   13.92465800
_cell_angle_alpha   90.00000000
_cell_angle_beta   90.00000000
_cell_angle_gamma   90.00000000
_symmetry_Int_Tables_number   1
_chemical_formula_structural   Ce2MgS4
_chemical_formula_sum   'Ce8 Mg4 S16'
_cell_volume   726.82096088
_cell_formula_units_Z   4
loop_
 _symmetry_equiv_pos_site_id
 _symmetry_equiv_pos_as_xyz
  1  'x, y, z'
loop_
 _atom_site_type_symbol
 _atom_site_label
 _atom_site_symmetry_multiplicity
 _atom_site_fract_x
 _atom_site_fract_y
 _atom_site_fract_z
 _atom_site_occupancy
  Ce  Ce0  1  0.25000000  0.12257100  0.07174300  1
  Ce  Ce1  1  0.75000000  0.87742900  0.92825700  1
  Ce  Ce2  1  0.75000000  0.37742900  0.57174300  1
  Ce  Ce3  1  0.25000000  0.62257100  0.42825700  1
  Ce  Ce4  1  0.25000000  0.12782900  0.70763500  1
  Ce  Ce5  1  0.75000000  0.87217100  0.29236500  1
  Ce  Ce6  1  0.75000000  0.37217100  0.20763500  1
  Ce  Ce7  1  0.25000000  0.62782900  0.79236500  1
  Mg  Mg0  1  0.75000000  0.10642600  0.46547400  1
  Mg  Mg1  1  0.25000000  0.89357400  0.53452600  1
  Mg  Mg2  1  0.25000000  0.39357400  0.96547400  1
  Mg  Mg3  1  0.75000000  0.60642600  0.03452600  1
  S  S0  1  0.75000000  0.99769800  0.61409700  1
  S  S1  1  0.25000000  0.00230200  0.38590300  1
  S  S2  1  0.25000000  0.50230200  0.11409700  1
  S  S3  1  0.75000000  0.49769800  0.88590300  1
  S  S4  1  0.25000000  0.02481100  0.88626100  1
  S  S5  1  0.75000000  0.97518900  0.11373900  1
  S  S6  1  0.75000000  0.47518900  0.38626100  1
  S  S7  1  0.25000000  0.52481100  0.61373900  1
  S  S8  1  0.25000000  0.23283000  0.24145600  1
  S  S9  1  0.75000000  0.76717000  0.75854400  1
  S  S10  1  0.75000000  0.26717000  0.74145600  1
  S  S11  1  0.25000000  0.73283000  0.25854400  1
  S  S12  1  0.75000000  0.27270200  0.01877800  1
  S  S13  1  0.25000000  0.72729800  0.98122200  1
  S  S14  1  0.25000000  0.22729800  0.51877800  1
  S  S15  1  0.75000000  0.77270200  0.48122200  1
loop_
_geom_bond_atom_site_label_1
_geom_bond_atom_site_label_2
_geom_bond_distance
_geom_bond_site_symmetry_2
Ce0 S8 2.771623 1_555
Ce0 S5 2.835040 1_445
Ce0 S5 2.835040 1_545
Ce0 S4 2.884335 1_554
Ce0 S12 2.894910 1_455
Ce0 S12 2.894910 1_555
Ce1 S9 2.771623 1_555
Ce1 S4 2.835040 1_565
Ce1 S4 2.835040 1_665
Ce1 S5 2.884335 1_556
Ce1 S13 2.894910 1_555
Ce1 S13 2.894910 1_655
Ce2 S10 2.771623 1_555
Ce2 S7 2.835040 1_555
Ce2 S7 2.835040 1_655
Ce2 S6 2.884335 1_555
Ce2 S14 2.894910 1_655
Ce2 S14 2.894910 1_555
Ce3 S11 2.771623 1_555
Ce3 S6 2.835040 1_455
Ce3 S6 2.835040 1_555
Ce3 S7 2.884335 1_555
Ce3 S15 2.894910 1_455
Ce3 S15 2.894910 1_555
Ce4 S10 2.742179 1_555
Ce4 S10 2.742179 1_455
Ce4 S4 2.831515 1_555
Ce4 S0 2.926787 1_445
Ce4 S0 2.926787 1_545
Ce4 S14 2.936410 1_555
Ce5 S11 2.742179 1_655
Ce5 S11 2.742179 1_555
Ce5 S5 2.831515 1_555
Ce5 S1 2.926787 1_565
Ce5 S1 2.926787 1_665
Ce5 S15 2.936410 1_555
Ce6 S8 2.742179 1_555
Ce6 S8 2.742179 1_655
Ce6 S6 2.831515 1_555
Ce6 S2 2.926787 1_555
Ce6 S2 2.926787 1_655
Ce6 S12 2.936410 1_555
Ce7 S9 2.742179 1_455
Ce7 S9 2.742179 1_555
Ce7 S7 2.831515 1_555
Ce7 S3 2.926787 1_455
Ce7 S3 2.926787 1_555
Ce7 S13 2.936410 1_555
Mg0 S0 2.514418 1_545
Mg0 S14 2.649456 1_655
Mg0 S14 2.649456 1_555
Mg0 S1 2.654488 1_555
Mg0 S1 2.654488 1_655
Mg1 S1 2.514418 1_565
Mg1 S15 2.649456 1_455
Mg1 S15 2.649456 1_555
Mg1 S0 2.654488 1_455
Mg1 S0 2.654488 1_555
Mg2 S2 2.514418 1_556
Mg2 S12 2.649456 1_556
Mg2 S12 2.649456 1_456
Mg2 S3 2.654488 1_455
Mg2 S3 2.654488 1_555
Mg3 S3 2.514418 1_554
Mg3 S13 2.649456 1_554
Mg3 S13 2.649456 1_654
Mg3 S2 2.654488 1_555
Mg3 S2 2.654488 1_655
