# generated using pymatgen
data_V2CrO6
_symmetry_space_group_name_H-M   'P 1'
_cell_length_a   5.52775392
_cell_length_b   7.10483048
_cell_length_c   6.76814225
_cell_angle_alpha   96.40839286
_cell_angle_beta   71.57788423
_cell_angle_gamma   101.85575318
_symmetry_Int_Tables_number   1
_chemical_formula_structural   V2CrO6
_chemical_formula_sum   'V4 Cr2 O12'
_cell_volume   246.49673601
_cell_formula_units_Z   2
loop_
 _symmetry_equiv_pos_site_id
 _symmetry_equiv_pos_as_xyz
  1  'x, y, z'
loop_
 _atom_site_type_symbol
 _atom_site_label
 _atom_site_symmetry_multiplicity
 _atom_site_fract_x
 _atom_site_fract_y
 _atom_site_fract_z
 _atom_site_occupancy
  V  V0  1  0.74506000  0.21174900  0.61229100  1
  V  V1  1  0.25488300  0.78826600  0.38765000  1
  V  V2  1  0.18559100  0.39176500  0.83689700  1
  V  V3  1  0.81430600  0.60822400  0.16318900  1
  Cr  Cr0  1  0.74597700  0.08280900  0.08191300  1
  Cr  Cr1  1  0.25425800  0.91718700  0.91802600  1
  O  O0  1  0.63941100  0.03727800  0.80935700  1
  O  O1  1  0.13192700  0.16736500  0.96483400  1
  O  O2  1  0.86812600  0.83257800  0.03510900  1
  O  O3  1  0.36065500  0.96273300  0.19057800  1
  O  O4  1  0.76440600  0.10706700  0.36950100  1
  O  O5  1  0.78118500  0.37196700  0.04293200  1
  O  O6  1  0.21886100  0.62802500  0.95715800  1
  O  O7  1  0.23559000  0.89298300  0.63037500  1
  O  O8  1  0.53126100  0.37207200  0.67557600  1
  O  O9  1  0.05545400  0.33531900  0.60942800  1
  O  O10  1  0.94441500  0.66472800  0.39067800  1
  O  O11  1  0.46863500  0.62788500  0.32450800  1
loop_
_geom_bond_atom_site_label_1
_geom_bond_atom_site_label_2
_geom_bond_distance
_geom_bond_site_symmetry_2
Cr0 O4 1.967719 1_555
Cr0 O2 1.987297 1_545
Cr0 O1 2.012839 1_654
Cr0 O3 2.051537 1_545
Cr0 O5 2.062127 1_555
Cr0 O0 2.080829 1_554
Cr1 O7 1.968615 1_555
Cr1 O1 1.987415 1_565
Cr1 O2 2.013768 1_456
Cr1 O0 2.050780 1_565
Cr1 O6 2.062212 1_555
Cr1 O3 2.080307 1_556
O0 V0 1.798857 1_555
O1 V2 1.825141 1_555
O2 V3 1.825209 1_555
O3 V1 1.798831 1_555
O4 V0 1.706933 1_555
O5 V3 1.782271 1_555
O5 V2 2.214943 1_654
O6 V2 1.782345 1_555
O6 V3 2.215590 1_456
O7 V1 1.706669 1_555
O8 V0 1.732613 1_555
O8 V2 1.902613 1_555
O9 V0 1.754678 1_455
O9 V2 1.868720 1_555
O10 V1 1.754696 1_655
O10 V3 1.868769 1_555
O11 V1 1.732779 1_555
O11 V3 1.902565 1_555
