# generated using pymatgen
data_Ca10Si6F
_symmetry_space_group_name_H-M   'P 1'
_cell_length_a   9.12119508
_cell_length_b   9.12119450
_cell_length_c   9.12079066
_cell_angle_alpha   130.49136281
_cell_angle_beta   130.49136780
_cell_angle_gamma   72.62237595
_symmetry_Int_Tables_number   1
_chemical_formula_structural   Ca10Si6F
_chemical_formula_sum   'Ca10 Si6 F1'
_cell_volume   428.83910534
_cell_formula_units_Z   1
loop_
 _symmetry_equiv_pos_site_id
 _symmetry_equiv_pos_as_xyz
  1  'x, y, z'
loop_
 _atom_site_type_symbol
 _atom_site_label
 _atom_site_symmetry_multiplicity
 _atom_site_fract_x
 _atom_site_fract_y
 _atom_site_fract_z
 _atom_site_occupancy
  Ca  Ca0  1  0.76897360  0.43330952  0.99999285  1
  Ca  Ca1  1  0.43330978  0.76897353  0.99999278  1
  Ca  Ca2  1  0.92962699  0.92962678  0.64011153  1
  Ca  Ca3  1  0.28953337  0.28953366  0.35994397  1
  Ca  Ca4  1  0.71044528  0.07042671  -0.00000163  1
  Ca  Ca5  1  0.07042686  0.71044612  -0.00000085  1
  Ca  Ca6  1  0.56664599  0.56664573  0.33560901  1
  Ca  Ca7  1  0.23103970  0.23103946  0.66436577  1
  Ca  Ca8  1  0.24999350  0.74999602  0.49999932  1
  Ca  Ca9  1  0.74999619  0.24999333  0.49999878  1
  Si  Si0  1  0.00001050  0.49999636  0.50000070  1
  Si  Si1  1  0.49999650  0.00001046  0.50000089  1
  Si  Si2  1  0.13573791  0.35890041  -0.00000078  1
  Si  Si3  1  0.35890054  0.13573779  -0.00000080  1
  Si  Si4  1  0.86425581  0.86425582  0.22314111  1
  Si  Si5  1  0.64110671  0.64110670  0.77685071  1
  F  F0  1  0.50000176  0.50000161  -0.00000237  1
loop_
_geom_bond_atom_site_label_1
_geom_bond_atom_site_label_2
_geom_bond_distance
_geom_bond_site_symmetry_2
Ca0 F0 2.344693 1_556
Ca0 Si5 3.114697 1_555
Ca0 Si4 3.114857 1_556
Ca0 Si0 3.207986 1_656
Ca0 Si1 3.208026 1_555
Ca0 Si2 3.208648 1_656
Ca1 F0 2.344694 1_556
Ca1 Si5 3.114694 1_555
Ca1 Si4 3.114854 1_556
Ca1 Si1 3.207989 1_566
Ca1 Si0 3.208028 1_555
Ca1 Si3 3.208647 1_566
Ca2 Si3 3.054812 1_666
Ca2 Si2 3.054812 1_666
Ca2 Si4 3.081747 1_555
Ca2 Si0 3.234334 1_655
Ca2 Si1 3.234336 1_565
Ca3 Si2 3.054942 1_555
Ca3 Si3 3.054944 1_555
Ca3 Si5 3.081742 1_555
Ca3 Si0 3.234022 1_555
Ca3 Si1 3.234025 1_555
Ca4 Si4 3.055026 1_545
Ca4 Si5 3.055173 1_544
Ca4 Si3 3.081491 1_555
Ca4 Si1 3.233953 1_554
Ca4 Si0 3.234106 1_655
Ca5 Si4 3.055023 1_455
Ca5 Si5 3.055174 1_454
Ca5 Si2 3.081496 1_555
Ca5 Si0 3.233959 1_554
Ca5 Si1 3.234103 1_565
Ca6 F0 2.344522 1_555
Ca6 Si3 3.114525 1_555
Ca6 Si2 3.114525 1_555
Ca6 Si0 3.208398 1_655
Ca6 Si1 3.208400 1_565
Ca6 Si5 3.208606 1_555
Ca7 F0 2.344606 1_556
Ca7 Si3 3.114601 1_556
Ca7 Si2 3.114601 1_556
Ca7 Si1 3.208075 1_555
Ca7 Si0 3.208077 1_555
Ca7 Si4 3.208847 1_445
Ca8 Si3 3.087111 1_566
Ca8 Si2 3.087130 1_555
Ca8 Si4 3.087234 1_455
Ca8 Si5 3.087242 1_555
Ca9 Si2 3.087113 1_656
Ca9 Si3 3.087128 1_555
Ca9 Si4 3.087231 1_545
Ca9 Si5 3.087245 1_555
Si2 Si3 2.410738 1_555
Si4 Si5 2.410447 1_554
