# generated using pymatgen
data_ReTeN
_symmetry_space_group_name_H-M   'P 1'
_cell_length_a   3.46825200
_cell_length_b   3.46825200
_cell_length_c   9.61183900
_cell_angle_alpha   90.00000000
_cell_angle_beta   90.00000000
_cell_angle_gamma   90.00000000
_symmetry_Int_Tables_number   1
_chemical_formula_structural   ReTeN
_chemical_formula_sum   'Re2 Te2 N2'
_cell_volume   115.61861921
_cell_formula_units_Z   2
loop_
 _symmetry_equiv_pos_site_id
 _symmetry_equiv_pos_as_xyz
  1  'x, y, z'
loop_
 _atom_site_type_symbol
 _atom_site_label
 _atom_site_symmetry_multiplicity
 _atom_site_fract_x
 _atom_site_fract_y
 _atom_site_fract_z
 _atom_site_occupancy
  Re  Re0  1  0.50000000  0.00000000  0.11305400  1
  Re  Re1  1  0.00000000  0.50000000  0.88694600  1
  Te  Te0  1  0.50000000  0.00000000  0.71283700  1
  Te  Te1  1  0.00000000  0.50000000  0.28716300  1
  N  N0  1  0.50000000  0.50000000  0.00000000  1
  N  N1  1  0.00000000  0.00000000  0.00000000  1
loop_
_geom_bond_atom_site_label_1
_geom_bond_atom_site_label_2
_geom_bond_distance
_geom_bond_site_symmetry_2
Re0 Te1 2.969009 1_555
Re0 Te1 2.969009 1_655
Re0 Te1 2.969009 1_645
Re0 Te1 2.969009 1_545
Re1 Te0 2.969009 1_455
Re1 Te0 2.969009 1_555
Re1 Te0 2.969009 1_465
Re1 Te0 2.969009 1_565
N0 Re0 2.046464 1_565
N0 Re1 2.046464 1_654
N0 Re0 2.046464 1_555
N0 Re1 2.046464 1_554
N1 Re1 2.046464 1_544
N1 Re0 2.046464 1_555
N1 Re0 2.046464 1_455
N1 Re1 2.046464 1_554
