# generated using pymatgen
data_HoMgSe3
_symmetry_space_group_name_H-M   'P 1'
_cell_length_a   6.89047100
_cell_length_b   6.89047081
_cell_length_c   19.27840100
_cell_angle_alpha   90.00000000
_cell_angle_beta   90.00000000
_cell_angle_gamma   119.99999611
_symmetry_Int_Tables_number   1
_chemical_formula_structural   HoMgSe3
_chemical_formula_sum   'Ho6 Mg6 Se18'
_cell_volume   792.68285486
_cell_formula_units_Z   6
loop_
 _symmetry_equiv_pos_site_id
 _symmetry_equiv_pos_as_xyz
  1  'x, y, z'
loop_
 _atom_site_type_symbol
 _atom_site_label
 _atom_site_symmetry_multiplicity
 _atom_site_fract_x
 _atom_site_fract_y
 _atom_site_fract_z
 _atom_site_occupancy
  Ho  Ho0  1  0.00000000  0.00000000  0.34480700  1
  Ho  Ho1  1  0.00000000  0.00000000  0.65519300  1
  Ho  Ho2  1  0.66666700  0.33333300  0.67814000  1
  Ho  Ho3  1  0.66666700  0.33333300  0.98852600  1
  Ho  Ho4  1  0.33333300  0.66666700  0.01147400  1
  Ho  Ho5  1  0.33333300  0.66666700  0.32186000  1
  Mg  Mg0  1  0.00000000  0.00000000  0.15978800  1
  Mg  Mg1  1  0.00000000  0.00000000  0.84021200  1
  Mg  Mg2  1  0.66666700  0.33333300  0.49312100  1
  Mg  Mg3  1  0.66666700  0.33333300  0.17354500  1
  Mg  Mg4  1  0.33333300  0.66666700  0.82645500  1
  Mg  Mg5  1  0.33333300  0.66666700  0.50687900  1
  Se  Se0  1  0.99001800  0.34929800  0.58227700  1
  Se  Se1  1  0.00998200  0.65070200  0.41772300  1
  Se  Se2  1  0.65070200  0.64071900  0.58227700  1
  Se  Se3  1  0.34929800  0.35928100  0.41772300  1
  Se  Se4  1  0.35928100  0.00998200  0.58227700  1
  Se  Se5  1  0.64071900  0.99001800  0.41772300  1
  Se  Se6  1  0.65668500  0.68263100  0.91561000  1
  Se  Se7  1  0.67664900  0.98403500  0.75105600  1
  Se  Se8  1  0.31736900  0.97405200  0.91561000  1
  Se  Se9  1  0.01596500  0.69261300  0.75105600  1
  Se  Se10  1  0.02594700  0.34331500  0.91561000  1
  Se  Se11  1  0.30738700  0.32335100  0.75105600  1
  Se  Se12  1  0.32335100  0.01596500  0.24894400  1
  Se  Se13  1  0.34331500  0.31736900  0.08439000  1
  Se  Se14  1  0.98403500  0.30738700  0.24894400  1
  Se  Se15  1  0.68263100  0.02594700  0.08439000  1
  Se  Se16  1  0.69261300  0.67664900  0.24894400  1
  Se  Se17  1  0.97405200  0.65668500  0.08439000  1
loop_
_geom_bond_atom_site_label_1
_geom_bond_atom_site_label_2
_geom_bond_distance
_geom_bond_site_symmetry_2
Ho0 Se1 2.817640 1_545
Ho0 Se3 2.817644 1_555
Ho0 Se5 2.817646 1_445
Ho0 Se12 2.854223 1_555
Ho0 Se16 2.854225 1_445
Ho0 Se14 2.854228 1_455
Ho1 Se0 2.817640 1_455
Ho1 Se2 2.817644 1_445
Ho1 Se4 2.817646 1_555
Ho1 Se7 2.854223 1_445
Ho1 Se11 2.854225 1_555
Ho1 Se9 2.854228 1_545
Ho2 Se7 2.817640 1_545
Ho2 Se11 2.817640 1_555
Ho2 Se9 2.817640 1_655
Ho2 Se2 2.854223 1_555
Ho2 Se0 2.854223 1_555
Ho2 Se4 2.854223 1_555
Ho3 Se6 2.817640 1_555
Ho3 Se10 2.817640 1_655
Ho3 Se8 2.817644 1_545
Ho3 Se15 2.854232 1_556
Ho3 Se17 2.854236 1_556
Ho3 Se13 2.854243 1_556
Ho4 Se13 2.817640 1_555
Ho4 Se15 2.817640 1_565
Ho4 Se17 2.817646 1_455
Ho4 Se8 2.854227 1_554
Ho4 Se10 2.854238 1_554
Ho4 Se6 2.854243 1_554
Ho5 Se12 2.817640 1_565
Ho5 Se16 2.817640 1_555
Ho5 Se14 2.817640 1_455
Ho5 Se3 2.854223 1_555
Ho5 Se1 2.854223 1_555
Ho5 Se5 2.854223 1_555
Mg0 Se17 2.705162 1_445
Mg0 Se13 2.705167 1_555
Mg0 Se15 2.705170 1_455
Mg0 Se12 2.772254 1_555
Mg0 Se16 2.772256 1_445
Mg0 Se14 2.772259 1_455
Mg1 Se10 2.705164 1_555
Mg1 Se6 2.705167 1_445
Mg1 Se8 2.705174 1_545
Mg1 Se7 2.772254 1_445
Mg1 Se11 2.772256 1_555
Mg1 Se9 2.772259 1_545
Mg2 Se5 2.705162 1_545
Mg2 Se1 2.705167 1_655
Mg2 Se3 2.705174 1_555
Mg2 Se2 2.772254 1_555
Mg2 Se0 2.772254 1_555
Mg2 Se4 2.772254 1_555
Mg3 Se14 2.705172 1_555
Mg3 Se12 2.705178 1_555
Mg3 Se16 2.705183 1_555
Mg3 Se15 2.772239 1_555
Mg3 Se17 2.772242 1_555
Mg3 Se13 2.772250 1_555
Mg4 Se9 2.705172 1_555
Mg4 Se7 2.705178 1_555
Mg4 Se11 2.705183 1_555
Mg4 Se8 2.772233 1_555
Mg4 Se10 2.772245 1_555
Mg4 Se6 2.772250 1_555
Mg5 Se4 2.705162 1_565
Mg5 Se0 2.705167 1_455
Mg5 Se2 2.705174 1_555
Mg5 Se3 2.772254 1_555
Mg5 Se1 2.772254 1_555
Mg5 Se5 2.772254 1_555
