# generated using pymatgen
data_MgNi2O5
_symmetry_space_group_name_H-M   'P 1'
_cell_length_a   5.73545906
_cell_length_b   5.73545906
_cell_length_c   10.73115600
_cell_angle_alpha   90.00000000
_cell_angle_beta   90.00000000
_cell_angle_gamma   140.60706782
_symmetry_Int_Tables_number   1
_chemical_formula_structural   MgNi2O5
_chemical_formula_sum   'Mg2 Ni4 O10'
_cell_volume   224.03043548
_cell_formula_units_Z   2
loop_
 _symmetry_equiv_pos_site_id
 _symmetry_equiv_pos_as_xyz
  1  'x, y, z'
loop_
 _atom_site_type_symbol
 _atom_site_label
 _atom_site_symmetry_multiplicity
 _atom_site_fract_x
 _atom_site_fract_y
 _atom_site_fract_z
 _atom_site_occupancy
  Mg  Mg0  1  0.12117600  0.87882400  0.75000000  1
  Mg  Mg1  1  0.87882400  0.12117600  0.25000000  1
  Ni  Ni0  1  0.75969700  0.24030300  0.59730600  1
  Ni  Ni1  1  0.24030300  0.75969700  0.40269400  1
  Ni  Ni2  1  0.24030300  0.75969700  0.09730600  1
  Ni  Ni3  1  0.75969700  0.24030300  0.90269400  1
  O  O0  1  0.33371400  0.66628600  0.25000000  1
  O  O1  1  0.66628600  0.33371400  0.75000000  1
  O  O2  1  0.77719600  0.22280400  0.08204500  1
  O  O3  1  0.22280400  0.77719600  0.91795500  1
  O  O4  1  0.22280400  0.77719600  0.58204500  1
  O  O5  1  0.77719600  0.22280400  0.41795500  1
  O  O6  1  0.92989300  0.07010700  0.68680500  1
  O  O7  1  0.07010700  0.92989300  0.31319500  1
  O  O8  1  0.92989300  0.07010700  0.81319500  1
  O  O9  1  0.07010700  0.92989300  0.18680500  1
loop_
_geom_bond_atom_site_label_1
_geom_bond_atom_site_label_2
_geom_bond_distance
_geom_bond_site_symmetry_2
Mg0 O1 1.993508 1_565
Mg0 O1 1.993508 1_455
Mg0 O4 2.110238 1_555
Mg0 O3 2.110238 1_555
Mg0 O8 2.174276 1_465
Mg0 O6 2.174276 1_465
Mg1 O0 1.993508 1_545
Mg1 O0 1.993508 1_655
Mg1 O2 2.110238 1_555
Mg1 O5 2.110238 1_555
Mg1 O7 2.174276 1_645
Mg1 O9 2.174276 1_645
Ni0 O1 1.924232 1_555
Ni0 O5 1.933900 1_555
Ni0 O4 1.980481 1_545
Ni0 O4 1.980481 1_655
Ni0 O6 2.073873 1_555
Ni1 O0 1.924232 1_555
Ni1 O4 1.933900 1_555
Ni1 O5 1.980481 1_455
Ni1 O5 1.980481 1_565
Ni1 O7 2.073873 1_555
Ni2 O0 1.924232 1_555
Ni2 O3 1.933900 1_554
Ni2 O2 1.980481 1_455
Ni2 O2 1.980481 1_565
Ni2 O9 2.073873 1_555
Ni3 O1 1.924232 1_555
Ni3 O2 1.933900 1_556
Ni3 O3 1.980481 1_545
Ni3 O3 1.980481 1_655
Ni3 O8 2.073873 1_555
O6 O8 1.356311 1_555
O7 O9 1.356311 1_555
