# generated using pymatgen
data_BiWO2
_symmetry_space_group_name_H-M   'P 1'
_cell_length_a   7.85074687
_cell_length_b   7.85074687
_cell_length_c   7.85074687
_cell_angle_alpha   131.28541871
_cell_angle_beta   131.28541871
_cell_angle_gamma   71.35999917
_symmetry_Int_Tables_number   1
_chemical_formula_structural   BiWO2
_chemical_formula_sum   'Bi4 W4 O8'
_cell_volume   267.41974890
_cell_formula_units_Z   4
loop_
 _symmetry_equiv_pos_site_id
 _symmetry_equiv_pos_as_xyz
  1  'x, y, z'
loop_
 _atom_site_type_symbol
 _atom_site_label
 _atom_site_symmetry_multiplicity
 _atom_site_fract_x
 _atom_site_fract_y
 _atom_site_fract_z
 _atom_site_occupancy
  Bi  Bi0  1  0.87500000  0.62500000  0.25000000  1
  Bi  Bi1  1  0.37500000  0.62500000  0.75000000  1
  Bi  Bi2  1  0.37500000  0.62500000  0.25000000  1
  Bi  Bi3  1  0.37500000  0.12500000  0.75000000  1
  W  W0  1  0.37500000  0.12500000  0.25000000  1
  W  W1  1  0.87500000  0.12500000  0.75000000  1
  W  W2  1  0.87500000  0.12500000  0.25000000  1
  W  W3  1  0.87500000  0.62500000  0.75000000  1
  O  O0  1  0.18652500  0.38243600  0.19591100  1
  O  O1  1  0.18652500  0.99061400  0.80408900  1
  O  O2  1  0.13243600  0.43652500  0.69591100  1
  O  O3  1  0.56347500  0.86756400  0.30408900  1
  O  O4  1  0.74061400  0.43652500  0.30408900  1
  O  O5  1  0.56347500  0.25938600  0.69591100  1
  O  O6  1  0.61756400  0.81347500  0.80408900  1
  O  O7  1  0.00938600  0.81347500  0.19591100  1
loop_
_geom_bond_atom_site_label_1
_geom_bond_atom_site_label_2
_geom_bond_distance
_geom_bond_site_symmetry_2
Bi0 O7 2.429218 1_655
Bi0 O4 2.429218 1_555
Bi0 O1 2.667277 1_655
Bi0 O5 2.667277 1_554
Bi0 O3 2.667277 1_555
Bi0 O0 2.667277 1_655
Bi1 O6 2.429218 1_555
Bi1 O2 2.429218 1_555
Bi1 O1 2.667277 1_555
Bi1 O5 2.667277 1_555
Bi1 O3 2.667277 1_556
Bi1 O0 2.667277 1_555
Bi2 O3 2.429218 1_555
Bi2 O0 2.429218 1_555
Bi2 O7 2.667277 1_555
Bi2 O4 2.667277 1_555
Bi2 O6 2.667277 1_555
Bi2 O2 2.667277 1_554
Bi3 O5 2.429218 1_555
Bi3 O1 2.429218 1_545
Bi3 O4 2.667277 1_556
Bi3 O2 2.667277 1_555
Bi3 O7 2.667277 1_545
Bi3 O6 2.667277 1_545
O0 W1 2.201400 1_454
O0 W0 2.201400 1_555
O1 W0 2.201400 1_566
O1 W1 2.201400 1_465
O2 W2 2.201400 1_455
O2 W3 2.201400 1_455
O3 W0 2.201400 1_565
O3 W1 2.201400 1_565
O4 W2 2.201400 1_555
O4 W3 2.201400 1_555
O5 W1 2.201400 1_555
O5 W0 2.201400 1_555
O6 W3 2.201400 1_555
O6 W2 2.201400 1_566
O7 W3 2.201400 1_454
O7 W2 2.201400 1_465
