# generated using pymatgen
data_CoTeMo
_symmetry_space_group_name_H-M   'P 1'
_cell_length_a   3.79229800
_cell_length_b   4.83085700
_cell_length_c   5.88399200
_cell_angle_alpha   90.00000000
_cell_angle_beta   90.00000000
_cell_angle_gamma   90.00000000
_symmetry_Int_Tables_number   1
_chemical_formula_structural   CoTeMo
_chemical_formula_sum   'Co2 Te2 Mo2'
_cell_volume   107.79502375
_cell_formula_units_Z   2
loop_
 _symmetry_equiv_pos_site_id
 _symmetry_equiv_pos_as_xyz
  1  'x, y, z'
loop_
 _atom_site_type_symbol
 _atom_site_label
 _atom_site_symmetry_multiplicity
 _atom_site_fract_x
 _atom_site_fract_y
 _atom_site_fract_z
 _atom_site_occupancy
  Co  Co0  1  0.00000000  0.50000000  0.25109300  1
  Co  Co1  1  0.50000000  0.00000000  0.74890700  1
  Te  Te0  1  0.50000000  0.50000000  0.95160900  1
  Te  Te1  1  0.00000000  0.00000000  0.04839100  1
  Mo  Mo0  1  0.50000000  0.50000000  0.50020900  1
  Mo  Mo1  1  0.00000000  0.00000000  0.49979100  1
loop_
_geom_bond_atom_site_label_1
_geom_bond_atom_site_label_2
_geom_bond_distance
_geom_bond_site_symmetry_2
Co0 Mo0 2.396652 1_455
Co0 Mo0 2.396652 1_555
Co0 Te0 2.588551 1_454
Co0 Te0 2.588551 1_554
Co0 Te1 2.693849 1_555
Co0 Te1 2.693849 1_565
Co0 Mo1 2.824119 1_565
Co0 Mo1 2.824119 1_555
Co1 Mo1 2.396652 1_555
Co1 Mo1 2.396652 1_655
Co1 Te1 2.588551 1_656
Co1 Te1 2.588551 1_556
Co1 Te0 2.693849 1_545
Co1 Te0 2.693849 1_555
Co1 Mo0 2.824119 1_545
Co1 Mo0 2.824119 1_555
Mo0 Te0 2.656034 1_555
Mo1 Te1 2.656034 1_555
