# generated using pymatgen
data_KSnPS4
_symmetry_space_group_name_H-M   'P 1'
_cell_length_a   12.29583800
_cell_length_b   6.91589500
_cell_length_c   11.12610513
_cell_angle_alpha   53.68080840
_cell_angle_beta   90.00000000
_cell_angle_gamma   90.00000000
_symmetry_Int_Tables_number   1
_chemical_formula_structural   KSnPS4
_chemical_formula_sum   'K4 Sn4 P4 S16'
_cell_volume   762.32328218
_cell_formula_units_Z   4
loop_
 _symmetry_equiv_pos_site_id
 _symmetry_equiv_pos_as_xyz
  1  'x, y, z'
loop_
 _atom_site_type_symbol
 _atom_site_label
 _atom_site_symmetry_multiplicity
 _atom_site_fract_x
 _atom_site_fract_y
 _atom_site_fract_z
 _atom_site_occupancy
  K  K0  1  0.39920100  0.36846400  0.87038600  1
  K  K1  1  0.89920100  0.63153600  0.62961400  1
  K  K2  1  0.60079900  0.63153600  0.12961400  1
  K  K3  1  0.10079900  0.36846400  0.37038600  1
  Sn  Sn0  1  0.12964600  0.93082200  0.88518300  1
  Sn  Sn1  1  0.62964600  0.06917800  0.61481700  1
  Sn  Sn2  1  0.87035400  0.06917800  0.11481700  1
  Sn  Sn3  1  0.37035400  0.93082200  0.38518300  1
  P  P0  1  0.33983000  0.09536500  0.63002700  1
  P  P1  1  0.83983000  0.90463500  0.86997300  1
  P  P2  1  0.66017000  0.90463500  0.36997300  1
  P  P3  1  0.16017000  0.09536500  0.13002700  1
  S  S0  1  0.45380600  0.92519500  0.80040700  1
  S  S1  1  0.95380600  0.07480500  0.69959300  1
  S  S2  1  0.54619400  0.07480500  0.19959300  1
  S  S3  1  0.04619400  0.92519500  0.30040700  1
  S  S4  1  0.07776800  0.28005500  0.92800000  1
  S  S5  1  0.57776800  0.71994500  0.57200000  1
  S  S6  1  0.92223200  0.71994500  0.07200000  1
  S  S7  1  0.42223200  0.28005500  0.42800000  1
  S  S8  1  0.24973200  0.32978400  0.64447000  1
  S  S9  1  0.74973200  0.67021600  0.85553000  1
  S  S10  1  0.75026800  0.67021600  0.35553000  1
  S  S11  1  0.25026800  0.32978400  0.14447000  1
  S  S12  1  0.23835300  0.85227100  0.64375200  1
  S  S13  1  0.73835300  0.14772900  0.85624800  1
  S  S14  1  0.76164700  0.14772900  0.35624800  1
  S  S15  1  0.26164700  0.85227100  0.14375200  1
loop_
_geom_bond_atom_site_label_1
_geom_bond_atom_site_label_2
_geom_bond_distance
_geom_bond_site_symmetry_2
K0 S8 3.250192 1_555
K0 S12 3.386888 1_555
K0 S11 3.429010 1_556
K0 S15 3.463211 1_546
K0 S2 3.463465 1_556
K0 S5 3.491670 1_555
K0 S0 3.511503 1_555
K0 S0 3.644491 1_545
K1 S9 3.250192 1_555
K1 S13 3.386888 1_555
K1 S10 3.429010 1_555
K1 S14 3.463211 1_565
K1 S3 3.463465 1_655
K1 S4 3.491670 1_655
K1 S1 3.511503 1_555
K1 S1 3.644491 1_565
K2 S10 3.250192 1_555
K2 S14 3.386888 1_555
K2 S9 3.429010 1_554
K2 S13 3.463211 1_564
K2 S0 3.463465 1_554
K2 S7 3.491670 1_555
K2 S2 3.511503 1_555
K2 S2 3.644491 1_565
K3 S11 3.250192 1_555
K3 S15 3.386888 1_555
K3 S8 3.429010 1_555
K3 S12 3.463211 1_545
K3 S1 3.463465 1_455
K3 S6 3.491670 1_455
K3 S3 3.511503 1_555
K3 S3 3.644491 1_545
P0 S12 2.025475 1_545
P0 S8 2.046964 1_555
P0 S0 2.073613 1_545
P0 S7 2.075951 1_555
P1 S13 2.025475 1_565
P1 S9 2.046964 1_555
P1 S1 2.073613 1_565
P1 S6 2.075951 1_556
P2 S14 2.025475 1_565
P2 S10 2.046964 1_555
P2 S2 2.073613 1_565
P2 S5 2.075951 1_555
P3 S15 2.025475 1_545
P3 S11 2.046964 1_555
P3 S3 2.073613 1_545
P3 S4 2.075951 1_554
S0 Sn1 2.737584 1_565
S1 Sn0 2.737584 1_645
S2 Sn3 2.737584 1_545
S3 Sn2 2.737584 1_465
S4 Sn0 2.798262 1_545
S4 Sn2 3.059514 1_456
S5 Sn1 2.798262 1_565
S5 Sn3 3.059514 1_555
S6 Sn2 2.798262 1_565
S6 Sn0 3.059514 1_654
S7 Sn3 2.798262 1_545
S7 Sn1 3.059514 1_555
S8 Sn0 2.865752 1_545
S9 Sn1 2.865752 1_565
S10 Sn2 2.865752 1_565
S11 Sn3 2.865752 1_545
S12 Sn3 3.058513 1_555
S13 Sn2 3.058513 1_556
S14 Sn1 3.058513 1_555
S15 Sn0 3.058513 1_554
