# generated using pymatgen
data_Mg3Ti4
_symmetry_space_group_name_H-M   'P 1'
_cell_length_a   7.96489886
_cell_length_b   7.96489886
_cell_length_c   4.89479200
_cell_angle_alpha   90.00000000
_cell_angle_beta   90.00000000
_cell_angle_gamma   120.00000715
_symmetry_Int_Tables_number   1
_chemical_formula_structural   Mg3Ti4
_chemical_formula_sum   'Mg6 Ti8'
_cell_volume   268.92140577
_cell_formula_units_Z   2
loop_
 _symmetry_equiv_pos_site_id
 _symmetry_equiv_pos_as_xyz
  1  'x, y, z'
loop_
 _atom_site_type_symbol
 _atom_site_label
 _atom_site_symmetry_multiplicity
 _atom_site_fract_x
 _atom_site_fract_y
 _atom_site_fract_z
 _atom_site_occupancy
  Mg  Mg0  1  0.47146800  0.37835000  0.25000000  1
  Mg  Mg1  1  0.90688100  0.52853200  0.25000000  1
  Mg  Mg2  1  0.37835000  0.90688100  0.75000000  1
  Mg  Mg3  1  0.62165000  0.09311900  0.25000000  1
  Mg  Mg4  1  0.09311900  0.47146800  0.75000000  1
  Mg  Mg5  1  0.52853200  0.62165000  0.75000000  1
  Ti  Ti0  1  0.22580500  0.18150000  0.75000000  1
  Ti  Ti1  1  0.95569500  0.77419500  0.75000000  1
  Ti  Ti2  1  0.18150000  0.95569500  0.25000000  1
  Ti  Ti3  1  0.66666700  0.33333300  0.75000000  1
  Ti  Ti4  1  0.33333300  0.66666700  0.25000000  1
  Ti  Ti5  1  0.81850000  0.04430500  0.75000000  1
  Ti  Ti6  1  0.04430500  0.22580500  0.25000000  1
  Ti  Ti7  1  0.77419500  0.81850000  0.25000000  1
loop_
_geom_bond_atom_site_label_1
_geom_bond_atom_site_label_2
_geom_bond_distance
_geom_bond_site_symmetry_2
Mg0 Ti2 2.981919 1_545
Mg0 Ti6 2.986323 1_555
Mg0 Ti4 3.001770 1_555
Mg0 Mg5 3.011785 1_555
Mg0 Mg5 3.011785 1_554
Mg0 Ti3 3.015458 1_554
Mg0 Ti3 3.015458 1_555
Mg0 Ti0 3.034595 1_555
Mg0 Ti0 3.034595 1_554
Mg0 Mg1 3.051169 1_555
Mg0 Mg3 3.051169 1_555
Mg0 Ti7 3.106620 1_555
Mg1 Ti7 2.981913 1_555
Mg1 Ti2 2.986324 1_655
Mg1 Ti4 3.001770 1_655
Mg1 Mg4 3.011795 1_654
Mg1 Mg4 3.011795 1_655
Mg1 Ti3 3.015452 1_554
Mg1 Ti3 3.015452 1_555
Mg1 Ti1 3.034593 1_554
Mg1 Ti1 3.034593 1_555
Mg1 Mg3 3.051169 1_555
Mg1 Ti6 3.106627 1_655
Mg2 Ti1 2.981920 1_455
Mg2 Ti0 2.986331 1_565
Mg2 Ti3 3.001770 1_565
Mg2 Mg3 3.011788 1_566
Mg2 Mg3 3.011788 1_565
Mg2 Ti4 3.015449 1_556
Mg2 Ti4 3.015449 1_555
Mg2 Ti2 3.034598 1_556
Mg2 Ti2 3.034598 1_555
Mg2 Mg4 3.051169 1_555
Mg2 Mg5 3.051169 1_555
Mg2 Ti5 3.106619 1_565
Mg3 Ti6 2.981920 1_655
Mg3 Ti7 2.986331 1_545
Mg3 Ti4 3.001770 1_545
Mg3 Ti3 3.015449 1_555
Mg3 Ti3 3.015449 1_554
Mg3 Ti5 3.034598 1_554
Mg3 Ti5 3.034598 1_555
Mg3 Ti2 3.106619 1_545
Mg4 Ti0 2.981913 1_555
Mg4 Ti5 2.986324 1_455
Mg4 Ti3 3.001770 1_455
Mg4 Ti4 3.015452 1_556
Mg4 Ti4 3.015452 1_555
Mg4 Ti6 3.034593 1_555
Mg4 Ti6 3.034593 1_556
Mg4 Mg5 3.051169 1_555
Mg4 Ti1 3.106627 1_455
Mg5 Ti5 2.981919 1_565
Mg5 Ti1 2.986323 1_555
Mg5 Ti3 3.001770 1_555
Mg5 Ti4 3.015458 1_556
Mg5 Ti4 3.015458 1_555
Mg5 Ti7 3.034595 1_556
Mg5 Ti7 3.034595 1_555
Mg5 Ti0 3.106620 1_555
Ti0 Ti1 2.858939 1_445
Ti0 Ti5 2.858940 1_455
Ti0 Ti2 2.951992 1_546
Ti0 Ti2 2.951992 1_545
Ti0 Ti6 2.951992 1_556
Ti0 Ti6 2.951992 1_555
Ti0 Ti3 3.089674 1_555
Ti1 Ti5 2.858940 1_565
Ti1 Ti2 2.951992 1_655
Ti1 Ti2 2.951992 1_656
Ti1 Ti7 2.951992 1_555
Ti1 Ti7 2.951992 1_556
Ti1 Ti3 3.089672 1_555
Ti2 Ti7 2.858940 1_455
Ti2 Ti6 2.858940 1_565
Ti2 Ti4 3.089667 1_555
Ti3 Ti5 3.089667 1_555
Ti4 Ti6 3.089672 1_555
Ti4 Ti7 3.089674 1_555
Ti5 Ti6 2.951992 1_655
Ti5 Ti6 2.951992 1_656
Ti5 Ti7 2.951992 1_545
Ti5 Ti7 2.951992 1_546
Ti6 Ti7 2.858939 1_445
