# generated using pymatgen
data_TePHO5
_symmetry_space_group_name_H-M   'P 1'
_cell_length_a   5.42154600
_cell_length_b   5.48602015
_cell_length_c   7.81219052
_cell_angle_alpha   109.57180061
_cell_angle_beta   104.59900830
_cell_angle_gamma   96.34663778
_symmetry_Int_Tables_number   1
_chemical_formula_structural   TePHO5
_chemical_formula_sum   'Te2 P2 H2 O10'
_cell_volume   206.96171013
_cell_formula_units_Z   2
loop_
 _symmetry_equiv_pos_site_id
 _symmetry_equiv_pos_as_xyz
  1  'x, y, z'
loop_
 _atom_site_type_symbol
 _atom_site_label
 _atom_site_symmetry_multiplicity
 _atom_site_fract_x
 _atom_site_fract_y
 _atom_site_fract_z
 _atom_site_occupancy
  Te  Te0  1  0.50000000  0.00000000  0.50000000  1
  Te  Te1  1  0.00000000  0.00000000  0.00000000  1
  P  P0  1  0.56308800  0.64392500  0.22648700  1
  P  P1  1  0.43691200  0.35607500  0.77351300  1
  H  H0  1  0.96966500  0.96156100  0.33788600  1
  H  H1  1  0.03033500  0.03843900  0.66211400  1
  O  O0  1  0.88681900  0.95133900  0.71766200  1
  O  O1  1  0.67625200  0.80870800  0.36205000  1
  O  O2  1  0.34884500  0.64479000  0.66011100  1
  O  O3  1  0.68029200  0.75081100  0.05791500  1
  O  O4  1  0.26185500  0.66084000  0.15012500  1
  O  O5  1  0.73814500  0.33916000  0.84987500  1
  O  O6  1  0.31970900  0.24918900  0.94208500  1
  O  O7  1  0.65115500  0.35521000  0.33988900  1
  O  O8  1  0.32374800  0.19129200  0.63795000  1
  O  O9  1  0.11318100  0.04866100  0.28233800  1
loop_
_geom_bond_atom_site_label_1
_geom_bond_atom_site_label_2
_geom_bond_distance
_geom_bond_site_symmetry_2
H0 O9 1.117578 1_665
H1 O0 1.117578 1_445
O0 Te1 2.049347 1_666
O1 P0 1.106175 1_555
O1 Te0 1.777338 1_565
O2 P1 2.101338 1_555
O3 P0 1.827211 1_555
O3 Te1 2.315980 1_665
O4 P0 1.615898 1_555
O5 P1 1.615898 1_555
O6 P1 1.827208 1_555
O6 Te1 2.315984 1_556
O7 P0 2.101338 1_555
O8 P1 1.106175 1_555
O8 Te0 1.777338 1_555
O9 Te1 2.049347 1_555
