# generated using pymatgen
data_Sr2La6FeCu7O20
_symmetry_space_group_name_H-M   'P 1'
_cell_length_a   3.98041300
_cell_length_b   10.73597315
_cell_length_c   10.76652210
_cell_angle_alpha   90.01742891
_cell_angle_beta   90.00000000
_cell_angle_gamma   90.00000000
_symmetry_Int_Tables_number   1
_chemical_formula_structural   Sr2La6FeCu7O20
_chemical_formula_sum   'Sr2 La6 Fe1 Cu7 O20'
_cell_volume   460.09230394
_cell_formula_units_Z   1
loop_
 _symmetry_equiv_pos_site_id
 _symmetry_equiv_pos_as_xyz
  1  'x, y, z'
loop_
 _atom_site_type_symbol
 _atom_site_label
 _atom_site_symmetry_multiplicity
 _atom_site_fract_x
 _atom_site_fract_y
 _atom_site_fract_z
 _atom_site_occupancy
  Sr  Sr0  1  0.50000000  0.97718900  0.74757600  1
  Sr  Sr1  1  0.50000000  0.52463300  0.25924900  1
  La  La0  1  0.50000000  0.02103700  0.25077800  1
  La  La1  1  0.50000000  0.24424600  0.97226700  1
  La  La2  1  0.50000000  0.74761500  0.02413100  1
  La  La3  1  0.50000000  0.26647800  0.46937900  1
  La  La4  1  0.50000000  0.74326900  0.52436100  1
  La  La5  1  0.50000000  0.47704100  0.74208100  1
  Fe  Fe0  1  0.00000000  0.99970900  0.99761700  1
  Cu  Cu0  1  0.00000000  0.99605300  0.49664300  1
  Cu  Cu1  1  0.00000000  0.50224000  0.99671200  1
  Cu  Cu2  1  0.00000000  0.77664000  0.27688500  1
  Cu  Cu3  1  0.00000000  0.72470300  0.77812500  1
  Cu  Cu4  1  0.00000000  0.22549200  0.72485400  1
  Cu  Cu5  1  0.00000000  0.27355600  0.22381600  1
  Cu  Cu6  1  0.00000000  0.50087300  0.50097700  1
  O  O0  1  0.00000000  0.39495200  0.34882200  1
  O  O1  1  0.00000000  0.63139100  0.11627400  1
  O  O2  1  0.00000000  0.09647700  0.84434800  1
  O  O3  1  0.00000000  0.33781700  0.59238500  1
  O  O4  1  0.00000000  0.86765300  0.61646000  1
  O  O5  1  0.00000000  0.83643300  0.91476800  1
  O  O6  1  0.50000000  0.00002600  0.01065700  1
  O  O7  1  0.50000000  0.26847100  0.22349000  1
  O  O8  1  0.50000000  0.78039600  0.27776000  1
  O  O9  1  0.50000000  0.50108600  0.50601300  1
  O  O10  1  0.50000000  0.99667800  0.49284600  1
  O  O11  1  0.50000000  0.23135300  0.72451400  1
  O  O12  1  0.50000000  0.50092300  0.99276400  1
  O  O13  1  0.50000000  0.71917100  0.77953400  1
  O  O14  1  0.00000000  0.12297300  0.37515300  1
  O  O15  1  0.00000000  0.16788300  0.08396800  1
  O  O16  1  0.00000000  0.37654500  0.87466700  1
  O  O17  1  0.00000000  0.59172200  0.66454200  1
  O  O18  1  0.00000000  0.66276700  0.40969900  1
  O  O19  1  0.00000000  0.91451200  0.16588600  1
loop_
_geom_bond_atom_site_label_1
_geom_bond_atom_site_label_2
_geom_bond_distance
_geom_bond_site_symmetry_2
La0 O19 2.470547 1_645
La0 O19 2.470547 1_545
La0 O6 2.595022 1_555
La0 O8 2.599885 1_545
La0 O10 2.619398 1_545
La0 O14 2.636447 1_555
La0 O14 2.636447 1_655
La0 O7 2.672731 1_555
La1 O15 2.465759 1_656
La1 O15 2.465759 1_556
La1 O6 2.654442 1_556
La1 O16 2.661476 1_655
La1 O16 2.661476 1_555
La1 O11 2.670985 1_555
La1 O7 2.717194 1_556
La1 O12 2.764433 1_555
La1 O2 2.893647 1_555
La1 O2 2.893647 1_655
La2 O5 2.501453 1_554
La2 O5 2.501453 1_654
La2 O1 2.550060 1_655
La2 O1 2.550060 1_555
La2 O13 2.651013 1_554
La2 O12 2.669821 1_554
La2 O6 2.713802 1_565
La2 O8 2.753182 1_555
La3 O3 2.510138 1_655
La3 O3 2.510138 1_555
La3 O9 2.549322 1_555
La3 O7 2.647462 1_555
La3 O14 2.713449 1_555
La3 O14 2.713449 1_655
La3 O0 2.747583 1_555
La3 O0 2.747583 1_655
La3 O11 2.772794 1_555
La3 O10 2.907641 1_545
La4 O18 2.496247 1_655
La4 O18 2.496247 1_555
La4 O4 2.593570 1_555
La4 O4 2.593570 1_655
La4 O9 2.607504 1_555
La4 O8 2.684908 1_555
La4 O10 2.741772 1_555
La4 O13 2.759559 1_555
La4 O17 2.981179 1_555
La4 O17 2.981179 1_655
La5 O17 2.484827 1_655
La5 O17 2.484827 1_555
La5 O9 2.554785 1_555
La5 O13 2.630470 1_555
La5 O11 2.644415 1_555
La5 O16 2.676502 1_555
La5 O16 2.676502 1_655
La5 O12 2.711058 1_555
La5 O3 2.964995 1_555
La5 O3 2.964995 1_655
Fe0 O2 1.950238 1_565
Fe0 O5 1.966585 1_555
Fe0 O6 1.995155 1_566
Fe0 O6 1.995155 1_466
Fe0 O19 2.029726 1_556
Fe0 O15 2.030565 1_566
Cu0 O4 1.888246 1_555
Cu0 O14 1.889105 1_565
Cu0 O10 1.990638 1_555
Cu0 O10 1.990638 1_455
Cu1 O16 1.883230 1_555
Cu1 O1 1.891699 1_556
Cu1 O12 1.990710 1_555
Cu1 O12 1.990710 1_455
Cu2 O18 1.881596 1_555
Cu2 O19 1.902693 1_555
Cu2 O8 1.990637 1_455
Cu2 O8 1.990637 1_555
Cu2 O1 2.328146 1_555
Cu3 O17 1.879542 1_555
Cu3 O5 1.897930 1_555
Cu3 O13 1.991150 1_555
Cu3 O13 1.991150 1_455
Cu3 O4 2.320891 1_555
Cu4 O3 1.867998 1_555
Cu4 O2 1.890704 1_555
Cu4 O11 1.991204 1_455
Cu4 O11 1.991204 1_555
Cu4 O16 2.286915 1_555
Cu5 O0 1.873213 1_555
Cu5 O15 1.884972 1_555
Cu5 O7 1.990958 1_555
Cu5 O7 1.990958 1_455
Cu5 O14 2.295655 1_555
Cu6 O9 1.990946 1_455
Cu6 O9 1.990946 1_555
Cu6 O0 1.993902 1_555
Cu6 O18 1.996944 1_555
Cu6 O3 2.008499 1_555
Cu6 O17 2.012829 1_555
O0 Sr1 2.613456 1_455
O0 Sr1 2.613456 1_555
O1 Sr1 2.765002 1_455
O1 Sr1 2.765002 1_555
O2 Sr0 2.585688 1_445
O2 Sr0 2.585688 1_545
O4 Sr0 2.708436 1_455
O4 Sr0 2.708436 1_555
O5 Sr0 3.080006 1_555
O5 Sr0 3.080006 1_455
O6 Sr0 2.842985 1_544
O7 Sr1 2.776850 1_555
O8 Sr1 2.753027 1_555
O9 Sr1 2.668867 1_555
O10 Sr0 2.750589 1_555
O11 Sr0 2.740047 1_545
O12 Sr1 2.880309 1_556
O13 Sr0 2.791466 1_555
O18 Sr1 2.963543 1_555
O18 Sr1 2.963543 1_455
