# generated using pymatgen
data_VPO5
_symmetry_space_group_name_H-M   'P 1'
_cell_length_a   10.02580986
_cell_length_b   8.73521237
_cell_length_c   6.95391422
_cell_angle_alpha   78.53695211
_cell_angle_beta   58.63768474
_cell_angle_gamma   42.82536315
_symmetry_Int_Tables_number   1
_chemical_formula_structural   VPO5
_chemical_formula_sum   'V4 P4 O20'
_cell_volume   335.47347857
_cell_formula_units_Z   4
loop_
 _symmetry_equiv_pos_site_id
 _symmetry_equiv_pos_as_xyz
  1  'x, y, z'
loop_
 _atom_site_type_symbol
 _atom_site_label
 _atom_site_symmetry_multiplicity
 _atom_site_fract_x
 _atom_site_fract_y
 _atom_site_fract_z
 _atom_site_occupancy
  V  V0  1  0.87808700  0.38617500  0.40093500  1
  V  V1  1  0.33480300  0.40093500  0.38617500  1
  V  V2  1  0.86382500  0.37191300  0.91519700  1
  V  V3  1  0.84906500  0.91519700  0.37191300  1
  P  P0  1  0.02973700  0.54091600  0.96797900  1
  P  P1  1  0.70908400  0.22026300  0.78863200  1
  P  P2  1  0.46136800  0.96797900  0.54091600  1
  P  P3  1  0.28202100  0.78863200  0.22026300  1
  O  O0  1  0.60753700  0.71245300  0.43432500  1
  O  O1  1  0.66834000  0.17336500  0.33598900  1
  O  O2  1  0.31547400  0.63664000  0.39215600  1
  O  O3  1  0.81567500  0.00431400  0.64246300  1
  O  O4  1  0.21229200  0.10258200  0.75777700  1
  O  O5  1  0.42447800  0.11690800  0.36676600  1
  O  O6  1  0.07663500  0.58166000  0.42769500  1
  O  O7  1  0.82230500  0.33598900  0.17336500  1
  O  O8  1  0.91401100  0.42769500  0.58166000  1
  O  O9  1  0.14741800  0.03770800  0.32265200  1
  O  O10  1  0.24568600  0.43432500  0.71245300  1
  O  O11  1  0.49222300  0.32265200  0.03770800  1
  O  O12  1  0.92734800  0.75777700  0.10258200  1
  O  O13  1  0.13309200  0.82552200  0.15815200  1
  O  O14  1  0.09184800  0.36676600  0.11690800  1
  O  O15  1  0.88323400  0.15815200  0.82552200  1
  O  O16  1  0.85784400  0.59427000  0.93452600  1
  O  O17  1  0.65573000  0.39215600  0.63664000  1
  O  O18  1  0.53754700  0.64246300  0.00431400  1
  O  O19  1  0.61336000  0.93452600  0.59427000  1
loop_
_geom_bond_atom_site_label_1
_geom_bond_atom_site_label_2
_geom_bond_distance
_geom_bond_site_symmetry_2
O0 P2 1.551763 1_555
O0 V0 1.949863 1_555
O1 V3 1.638471 1_545
O1 V1 2.136781 1_555
O2 P3 1.561205 1_555
O2 V1 1.928436 1_555
O3 P1 1.551771 1_555
O3 V3 1.949859 1_545
O4 P2 1.539667 1_545
O4 V2 1.981193 1_455
O5 P2 1.558852 1_545
O5 V1 1.927919 1_555
O6 V1 1.638468 1_555
O6 V3 2.136784 1_455
O7 V2 1.638470 1_554
O7 V0 2.136789 1_555
O8 V0 1.638476 1_555
O8 V2 2.136782 1_555
O9 P3 1.539669 1_545
O9 V0 1.981193 1_455
O10 P0 1.551767 1_555
O10 V1 1.949866 1_555
O11 P1 1.539665 1_554
O11 V1 1.981192 1_555
O12 P0 1.539661 1_654
O12 V3 1.981199 1_555
O13 P3 1.558852 1_555
O13 V3 1.927919 1_455
O14 P0 1.558852 1_554
O14 V0 1.927919 1_455
O15 P1 1.558852 1_555
O15 V2 1.927919 1_555
O16 P0 1.561205 1_655
O16 V2 1.928436 1_555
O17 P1 1.561205 1_555
O17 V0 1.928436 1_555
O18 P3 1.551765 1_555
O18 V2 1.949865 1_554
O19 P2 1.561205 1_555
O19 V3 1.928436 1_555
