# generated using pymatgen
data_LaNdCuO4
_symmetry_space_group_name_H-M   'P 1'
_cell_length_a   7.02376353
_cell_length_b   7.02376353
_cell_length_c   5.42239428
_cell_angle_alpha   89.75431193
_cell_angle_beta   89.75431193
_cell_angle_gamma   44.71020863
_symmetry_Int_Tables_number   1
_chemical_formula_structural   LaNdCuO4
_chemical_formula_sum   'La2 Nd2 Cu2 O8'
_cell_volume   188.19299886
_cell_formula_units_Z   2
loop_
 _symmetry_equiv_pos_site_id
 _symmetry_equiv_pos_as_xyz
  1  'x, y, z'
loop_
 _atom_site_type_symbol
 _atom_site_label
 _atom_site_symmetry_multiplicity
 _atom_site_fract_x
 _atom_site_fract_y
 _atom_site_fract_z
 _atom_site_occupancy
  La  La0  1  0.13971200  0.13971200  0.50960500  1
  La  La1  1  0.86028800  0.86028800  0.49039500  1
  Nd  Nd0  1  0.36289900  0.36289900  0.01356400  1
  Nd  Nd1  1  0.63710100  0.63710100  0.98643600  1
  Cu  Cu0  1  0.00000000  0.00000000  0.00000000  1
  Cu  Cu1  1  0.50000000  0.50000000  0.50000000  1
  O  O0  1  0.24413400  0.73866800  0.75393200  1
  O  O1  1  0.26133200  0.75586600  0.24606800  1
  O  O2  1  0.75586600  0.26133200  0.24606800  1
  O  O3  1  0.73866800  0.24413400  0.75393200  1
  O  O4  1  0.18643200  0.18643200  0.96153600  1
  O  O5  1  0.81356800  0.81356800  0.03846400  1
  O  O6  1  0.31539700  0.31539700  0.45708200  1
  O  O7  1  0.68460300  0.68460300  0.54291800  1
loop_
_geom_bond_atom_site_label_1
_geom_bond_atom_site_label_2
_geom_bond_distance
_geom_bond_site_symmetry_2
La0 O6 2.298849 1_555
La0 O4 2.527330 1_555
La0 O2 2.605677 1_455
La0 O1 2.605677 1_545
La0 O0 2.695842 1_545
La0 O3 2.695842 1_455
La0 O7 2.740518 1_545
La0 O7 2.740518 1_455
La0 O4 3.030439 1_554
La1 O7 2.298849 1_555
La1 O5 2.527330 1_555
La1 O0 2.605677 1_655
La1 O3 2.605677 1_565
La1 O1 2.695842 1_655
La1 O2 2.695842 1_565
La1 O6 2.740518 1_565
La1 O6 2.740518 1_655
La1 O5 3.030439 1_556
Nd0 O4 2.311210 1_554
Nd0 O6 2.480076 1_555
Nd0 O3 2.548075 1_554
Nd0 O0 2.548075 1_554
Nd0 O1 2.634392 1_555
Nd0 O2 2.634392 1_555
Nd0 O5 2.750431 1_455
Nd0 O5 2.750431 1_545
Nd0 O6 3.082729 1_554
Nd1 O5 2.311210 1_556
Nd1 O7 2.480076 1_555
Nd1 O1 2.548075 1_556
Nd1 O2 2.548075 1_556
Nd1 O3 2.634392 1_555
Nd1 O0 2.634392 1_555
Nd1 O4 2.750431 1_565
Nd1 O4 2.750431 1_655
Nd1 O7 3.082729 1_556
Cu0 O0 1.901987 1_544
Cu0 O3 1.901987 1_454
Cu0 O2 1.901987 1_455
Cu0 O1 1.901987 1_545
Cu0 O4 2.430082 1_554
Cu0 O5 2.430082 1_445
Cu1 O1 1.911109 1_555
Cu1 O0 1.911109 1_555
Cu1 O2 1.911109 1_555
Cu1 O3 1.911109 1_555
Cu1 O7 2.410659 1_555
Cu1 O6 2.410659 1_555
