# generated using pymatgen
data_UGePd
_symmetry_space_group_name_H-M   'P 1'
_cell_length_a   4.51563900
_cell_length_b   6.69312700
_cell_length_c   7.71707600
_cell_angle_alpha   90.00000000
_cell_angle_beta   90.00000000
_cell_angle_gamma   90.00000000
_symmetry_Int_Tables_number   1
_chemical_formula_structural   UGePd
_chemical_formula_sum   'U4 Ge4 Pd4'
_cell_volume   233.23893959
_cell_formula_units_Z   4
loop_
 _symmetry_equiv_pos_site_id
 _symmetry_equiv_pos_as_xyz
  1  'x, y, z'
loop_
 _atom_site_type_symbol
 _atom_site_label
 _atom_site_symmetry_multiplicity
 _atom_site_fract_x
 _atom_site_fract_y
 _atom_site_fract_z
 _atom_site_occupancy
  U  U0  1  0.25000000  0.99571700  0.78339200  1
  U  U1  1  0.25000000  0.49571700  0.71660800  1
  U  U2  1  0.75000000  0.00428300  0.21660800  1
  U  U3  1  0.75000000  0.50428300  0.28339200  1
  Ge  Ge0  1  0.25000000  0.78477600  0.41180800  1
  Ge  Ge1  1  0.25000000  0.28477600  0.08819200  1
  Ge  Ge2  1  0.75000000  0.21522400  0.58819200  1
  Ge  Ge3  1  0.75000000  0.71522400  0.91180800  1
  Pd  Pd0  1  0.25000000  0.19807900  0.41889900  1
  Pd  Pd1  1  0.25000000  0.69807900  0.08110100  1
  Pd  Pd2  1  0.75000000  0.80192100  0.58110100  1
  Pd  Pd3  1  0.75000000  0.30192100  0.91889900  1
loop_
_geom_bond_atom_site_label_1
_geom_bond_atom_site_label_2
_geom_bond_distance
_geom_bond_site_symmetry_2
Ge0 Pd2 2.611077 1_555
Ge0 Pd2 2.611077 1_455
Ge0 Pd1 2.617229 1_555
Ge0 Pd0 2.766831 1_565
Ge0 U1 3.045616 1_555
Ge0 U2 3.086328 1_465
Ge0 U2 3.086328 1_565
Ge0 U3 3.099090 1_555
Ge0 U3 3.099090 1_455
Ge0 U0 3.196268 1_555
Ge1 Pd3 2.611077 1_554
Ge1 Pd3 2.611077 1_454
Ge1 Pd0 2.617229 1_555
Ge1 Pd1 2.766831 1_555
Ge1 U0 3.045616 1_544
Ge1 U3 3.086328 1_455
Ge1 U3 3.086328 1_555
Ge1 U2 3.099090 1_555
Ge1 U2 3.099090 1_455
Ge1 U1 3.196268 1_554
Ge2 Pd0 2.611077 1_555
Ge2 Pd0 2.611077 1_655
Ge2 Pd3 2.617229 1_555
Ge2 Pd2 2.766831 1_545
Ge2 U3 3.045616 1_555
Ge2 U0 3.086328 1_545
Ge2 U0 3.086328 1_645
Ge2 U1 3.099090 1_555
Ge2 U1 3.099090 1_655
Ge2 U2 3.196268 1_555
Ge3 Pd1 2.611077 1_656
Ge3 Pd1 2.611077 1_556
Ge3 Pd2 2.617229 1_555
Ge3 Pd3 2.766831 1_555
Ge3 U2 3.045616 1_566
Ge3 U1 3.086328 1_655
Ge3 U1 3.086328 1_555
Ge3 U0 3.099090 1_655
Ge3 U0 3.099090 1_555
Ge3 U3 3.196268 1_556
Pd0 U2 3.035990 1_555
Pd0 U2 3.035990 1_455
Pd0 U1 3.040859 1_555
Pd0 U0 3.121931 1_545
Pd0 U3 3.223596 1_455
Pd0 U3 3.223596 1_555
Pd1 U3 3.035990 1_455
Pd1 U3 3.035990 1_555
Pd1 U0 3.040859 1_554
Pd1 U1 3.121931 1_554
Pd1 U2 3.223596 1_465
Pd1 U2 3.223596 1_565
Pd2 U0 3.035990 1_655
Pd2 U0 3.035990 1_555
Pd2 U3 3.040859 1_555
Pd2 U2 3.121931 1_565
Pd2 U1 3.223596 1_555
Pd2 U1 3.223596 1_655
Pd3 U1 3.035990 1_655
Pd3 U1 3.035990 1_555
Pd3 U2 3.040859 1_556
Pd3 U3 3.121931 1_556
Pd3 U0 3.223596 1_645
Pd3 U0 3.223596 1_545
