# generated using pymatgen
data_Ho12In3Fe2
_symmetry_space_group_name_H-M   'P 1'
_cell_length_a   8.42112116
_cell_length_b   8.42112179
_cell_length_c   8.42111934
_cell_angle_alpha   110.11209296
_cell_angle_beta   110.11212551
_cell_angle_gamma   108.19690694
_symmetry_Int_Tables_number   1
_chemical_formula_structural   Ho12In3Fe2
_chemical_formula_sum   'Ho12 In3 Fe2'
_cell_volume   459.54399487
_cell_formula_units_Z   1
loop_
 _symmetry_equiv_pos_site_id
 _symmetry_equiv_pos_as_xyz
  1  'x, y, z'
loop_
 _atom_site_type_symbol
 _atom_site_label
 _atom_site_symmetry_multiplicity
 _atom_site_fract_x
 _atom_site_fract_y
 _atom_site_fract_z
 _atom_site_occupancy
  Ho  Ho0  1  0.45429097  0.20597428  0.24831669  1
  Ho  Ho1  1  0.54570903  0.79402572  0.75168331  1
  Ho  Ho2  1  0.95765859  0.20597428  0.75168331  1
  Ho  Ho3  1  0.20597428  0.95765859  0.75168431  1
  Ho  Ho4  1  0.04234141  0.79402572  0.24831669  1
  Ho  Ho5  1  0.79402572  0.04234141  0.24831569  1
  Ho  Ho6  1  0.20597428  0.45428997  0.24831569  1
  Ho  Ho7  1  0.79402572  0.54571003  0.75168431  1
  Ho  Ho8  1  0.30645145  0.30645145  0.61290290  1
  Ho  Ho9  1  0.69354855  0.69354855  0.38709710  1
  Ho  Ho10  1  0.30645145  0.69354855  0.00000000  1
  Ho  Ho11  1  0.69354855  0.30645145  -0.00000000  1
  In  In0  1  0.50000000  -0.00000000  0.50000000  1
  In  In1  1  -0.00000000  0.50000000  0.50000000  1
  In  In2  1  -0.00000000  -0.00000000  -0.00000000  1
  Fe  Fe0  1  0.38420796  0.38420796  -0.00000000  1
  Fe  Fe1  1  0.61579204  0.61579204  0.00000000  1
loop_
_geom_bond_atom_site_label_1
_geom_bond_atom_site_label_2
_geom_bond_distance
_geom_bond_site_symmetry_2
Ho0 In2 3.142672 1_555
Ho0 In0 3.167497 1_555
Ho0 Ho3 3.387691 1_544
Ho0 Ho6 3.387691 1_555
Ho0 Ho11 3.492517 1_555
Ho0 Ho9 3.492518 1_555
Ho0 Ho7 3.542043 1_555
Ho0 Ho5 3.542044 1_555
Ho0 Ho8 3.632112 1_555
Ho0 Ho10 3.632113 1_545
Ho0 In1 3.785138 1_655
Ho1 In2 3.142672 1_666
Ho1 In0 3.167497 1_565
Ho1 Ho5 3.387691 1_566
Ho1 Ho7 3.387691 1_555
Ho1 Ho10 3.492517 1_556
Ho1 Ho8 3.492518 1_555
Ho1 Ho6 3.542043 1_555
Ho1 Ho3 3.542044 1_555
Ho1 Ho9 3.632112 1_555
Ho1 Ho11 3.632113 1_566
Ho1 In1 3.785138 1_555
Ho2 In2 3.142671 1_656
Ho2 In0 3.167504 1_555
Ho2 Ho3 3.387684 1_645
Ho2 Ho6 3.387691 1_656
Ho2 Ho8 3.492510 1_655
Ho2 Ho5 3.542041 1_555
Ho2 Ho7 3.542049 1_555
Ho2 Ho9 3.632113 1_545
Ho2 In1 3.785137 1_655
Ho3 In2 3.142665 1_566
Ho3 In1 3.167505 1_555
Ho3 Ho8 3.492515 1_565
Ho3 Ho4 3.542041 1_555
Ho3 Ho9 3.632113 1_455
Ho3 In0 3.785144 1_565
Ho4 In2 3.142671 1_565
Ho4 In0 3.167504 1_565
Ho4 Ho5 3.387684 1_465
Ho4 Ho7 3.387691 1_454
Ho4 Ho9 3.492510 1_455
Ho4 Ho6 3.542049 1_555
Ho4 Ho8 3.632113 1_565
Ho4 In1 3.785137 1_555
Ho5 In2 3.142665 1_655
Ho5 In1 3.167505 1_655
Ho5 Ho9 3.492515 1_545
Ho5 Ho8 3.632113 1_655
Ho5 In0 3.785144 1_555
Ho6 In2 3.142666 1_555
Ho6 In1 3.167505 1_555
Ho6 Ho9 3.492515 1_555
Ho6 Ho8 3.632113 1_555
Ho6 In0 3.785145 1_565
Ho7 In2 3.142666 1_666
Ho7 In1 3.167505 1_655
Ho7 Ho8 3.492515 1_555
Ho7 Ho9 3.632113 1_555
Ho7 In0 3.785145 1_555
Ho8 In1 3.496533 1_555
Ho8 In0 3.496534 1_555
Ho9 In1 3.496533 1_655
Ho9 In0 3.496534 1_565
Ho10 Ho6 3.492515 1_555
Ho10 Ho2 3.492515 1_454
Ho10 Ho5 3.492516 1_565
Ho10 In1 3.496533 1_554
Ho10 In0 3.496533 1_565
Ho10 Ho3 3.632113 1_554
Ho10 Ho7 3.632113 1_454
Ho10 Ho4 3.632120 1_555
Ho11 Ho7 3.492515 1_554
Ho11 Ho4 3.492515 1_655
Ho11 Ho3 3.492516 1_544
Ho11 In1 3.496533 1_655
Ho11 In0 3.496533 1_554
Ho11 Ho5 3.632113 1_555
Ho11 Ho6 3.632113 1_655
Ho11 Ho2 3.632120 1_554
Fe0 Fe1 2.287169 1_555
Fe0 Ho8 2.877517 1_554
Fe0 Ho9 2.877517 1_555
Fe0 Ho11 2.877518 1_555
Fe0 Ho10 2.877518 1_555
Fe0 Ho6 2.972668 1_555
Fe0 Ho2 2.972668 1_454
Fe0 Ho3 2.972668 1_544
Fe0 Ho0 2.972675 1_555
Fe1 Ho9 2.877517 1_555
Fe1 Ho8 2.877517 1_554
Fe1 Ho10 2.877518 1_555
Fe1 Ho11 2.877518 1_555
Fe1 Ho7 2.972668 1_554
Fe1 Ho4 2.972668 1_655
Fe1 Ho5 2.972668 1_565
Fe1 Ho1 2.972675 1_554
