# generated using pymatgen
data_Li6V3P8O29
_symmetry_space_group_name_H-M   'P 1'
_cell_length_a   9.83200994
_cell_length_b   9.83200994
_cell_length_c   13.93774960
_cell_angle_alpha   89.89784097
_cell_angle_beta   89.89784097
_cell_angle_gamma   60.21632077
_symmetry_Int_Tables_number   1
_chemical_formula_structural   Li6V3P8O29
_chemical_formula_sum   'Li12 V6 P16 O58'
_cell_volume   1169.36350439
_cell_formula_units_Z   2
loop_
 _symmetry_equiv_pos_site_id
 _symmetry_equiv_pos_as_xyz
  1  'x, y, z'
loop_
 _atom_site_type_symbol
 _atom_site_label
 _atom_site_symmetry_multiplicity
 _atom_site_fract_x
 _atom_site_fract_y
 _atom_site_fract_z
 _atom_site_occupancy
  Li  Li0  1  0.90699200  0.31562100  0.80996300  1
  Li  Li1  1  0.90406100  0.77410900  0.30915500  1
  Li  Li2  1  0.66512800  0.66269200  0.63378100  1
  Li  Li3  1  0.77471700  0.91406000  0.81166000  1
  Li  Li4  1  0.31797200  0.77401700  0.81255600  1
  Li  Li5  1  0.68437900  0.09300800  0.19003700  1
  Li  Li6  1  0.31952400  0.90820900  0.30934800  1
  Li  Li7  1  0.22589100  0.09593900  0.69084500  1
  Li  Li8  1  0.33730800  0.33487200  0.36621900  1
  Li  Li9  1  0.08594000  0.22528300  0.18834000  1
  Li  Li10  1  0.22598300  0.68202800  0.18744400  1
  Li  Li11  1  0.09179100  0.68047600  0.69065200  1
  V  V0  1  0.56852400  0.00229200  0.00018500  1
  V  V1  1  0.43542300  0.99988600  0.50061800  1
  V  V2  1  0.57075700  0.42924300  0.50000000  1
  V  V3  1  0.43598200  0.56401800  0.00000000  1
  V  V4  1  0.99770800  0.43147600  0.99981500  1
  V  V5  1  0.00011400  0.56457700  0.49938200  1
  P  P0  1  0.91125100  0.31822000  0.59074100  1
  P  P1  1  0.76649700  0.31797800  0.09337800  1
  P  P2  1  0.91133000  0.76738800  0.09172000  1
  P  P3  1  0.66803900  0.66765600  0.87596000  1
  P  P4  1  0.66459700  0.66811800  0.37725400  1
  P  P5  1  0.77099700  0.90894900  0.59364600  1
  P  P6  1  0.68178000  0.08874900  0.40925900  1
  P  P7  1  0.32058500  0.76860200  0.59318500  1
  P  P8  1  0.68202200  0.23350300  0.90662200  1
  P  P9  1  0.32146700  0.91151400  0.09059400  1
  P  P10  1  0.23261200  0.08867000  0.90828000  1
  P  P11  1  0.33234400  0.33196100  0.12404000  1
  P  P12  1  0.33188200  0.33540300  0.62274600  1
  P  P13  1  0.09105100  0.22900300  0.40635400  1
  P  P14  1  0.23139800  0.67941500  0.40681500  1
  P  P15  1  0.08848600  0.67853300  0.90940600  1
  O  O0  1  0.00625600  0.24178700  0.31554200  1
  O  O1  1  0.91417000  0.33867300  0.08875400  1
  O  O2  1  0.76671100  0.23803900  0.81956100  1
  O  O3  1  0.74769700  0.33808700  0.58933000  1
  O  O4  1  0.89193200  0.48511600  0.57545500  1
  O  O5  1  0.81403100  0.51256400  0.91391800  1
  O  O6  1  0.89920800  0.62026200  0.07427400  1
  O  O7  1  0.00116500  0.75657600  0.81875600  1
  O  O8  1  0.92006500  0.74479100  0.58990700  1
  O  O9  1  0.65843300  0.52647000  0.42473300  1
  O  O10  1  0.61908100  0.47896300  0.07496600  1
  O  O11  1  0.81662800  0.66686500  0.41780100  1
  O  O12  1  0.66859000  0.66751700  0.76767900  1
  O  O13  1  0.66009400  0.67345000  0.27112600  1
  O  O14  1  0.67562600  0.81357200  0.91469200  1
  O  O15  1  0.48590200  0.62575400  0.57932400  1
  O  O16  1  0.51397200  0.67408900  0.91429600  1
  O  O17  1  0.74774800  0.91695000  0.09088600  1
  O  O18  1  0.78690500  0.99777400  0.50050500  1
  O  O19  1  0.75750400  0.99598300  0.31937500  1
  O  O20  1  0.75821300  0.99374400  0.68445800  1
  O  O21  1  0.62615000  0.88617400  0.57543600  1
  O  O22  1  0.51488700  0.82064500  0.41944700  1
  O  O23  1  0.66132700  0.08583000  0.91124600  1
  O  O24  1  0.48055900  0.90192700  0.07239200  1
  O  O25  1  0.33809200  0.74649000  0.08930600  1
  O  O26  1  0.78832300  0.21167700  0.00000000  1
  O  O27  1  0.76196100  0.23328900  0.18043900  1
  O  O28  1  0.24344600  0.75972500  0.31803600  1
  O  O29  1  0.66191300  0.25230300  0.41067000  1
  O  O30  1  0.51488400  0.10806800  0.42454500  1
  O  O31  1  0.33189600  0.91994300  0.59329200  1
  O  O32  1  0.48743600  0.18596900  0.08608200  1
  O  O33  1  0.37973800  0.10079200  0.92572600  1
  O  O34  1  0.24159200  0.99995700  0.81819900  1
  O  O35  1  0.24342400  0.99883500  0.18124400  1
  O  O36  1  0.21101600  0.99974800  0.99967700  1
  O  O37  1  0.25520900  0.07993500  0.41009300  1
  O  O38  1  0.47353000  0.34156700  0.57526700  1
  O  O39  1  0.52103700  0.38091900  0.92503400  1
  O  O40  1  0.33313500  0.18337200  0.58219900  1
  O  O41  1  0.32655000  0.33990600  0.72887400  1
  O  O42  1  0.33248300  0.33141000  0.23232100  1
  O  O43  1  0.18642800  0.32437400  0.08530800  1
  O  O44  1  0.37424600  0.51409800  0.42067600  1
  O  O45  1  0.32591100  0.48602800  0.08570400  1
  O  O46  1  0.08305000  0.25225200  0.90911400  1
  O  O47  1  0.00222600  0.21309500  0.49949500  1
  O  O48  1  0.00401700  0.24249600  0.68062500  1
  O  O49  1  0.11382600  0.37385000  0.42456400  1
  O  O50  1  0.17935500  0.48511300  0.58055300  1
  O  O51  1  0.09807300  0.51944100  0.92760800  1
  O  O52  1  0.25351000  0.66190800  0.91069400  1
  O  O53  1  0.24027500  0.75655400  0.68196400  1
  O  O54  1  0.21690800  0.78309200  0.50000000  1
  O  O55  1  0.08005700  0.66810400  0.40670800  1
  O  O56  1  0.00004300  0.75840800  0.18180100  1
  O  O57  1  0.00025200  0.78898400  0.00032300  1
loop_
_geom_bond_atom_site_label_1
_geom_bond_atom_site_label_2
_geom_bond_distance
_geom_bond_site_symmetry_2
Li0 O2 1.883140 1_555
Li0 O48 1.998428 1_655
Li0 O46 2.056295 1_655
Li0 O5 2.220628 1_555
Li1 O19 1.932096 1_555
Li1 O56 1.978736 1_655
Li1 O55 2.034917 1_655
Li1 O11 2.243657 1_555
Li2 O12 1.867725 1_555
Li2 O15 2.110616 1_555
Li2 O21 2.189605 1_555
Li2 O4 2.193747 1_555
Li3 O20 1.911312 1_555
Li3 O7 1.984875 1_655
Li3 O23 2.038137 1_565
Li3 O14 2.221204 1_555
Li4 O34 1.961645 1_555
Li4 O53 2.015540 1_555
Li4 O52 2.042831 1_555
Li4 O16 2.193978 1_555
Li5 O27 1.883140 1_555
Li5 O19 1.998428 1_545
Li5 O17 2.056295 1_545
Li5 O32 2.220628 1_555
Li6 O28 1.946629 1_555
Li6 O35 1.969387 1_555
Li6 O37 2.041292 1_565
Li6 O22 2.269019 1_555
Li7 O48 1.932096 1_555
Li7 O34 1.978736 1_545
Li7 O31 2.034917 1_545
Li7 O40 2.243657 1_555
Li8 O42 1.867725 1_555
Li8 O44 2.110616 1_555
Li8 O49 2.189605 1_555
Li8 O30 2.193747 1_555
Li9 O0 1.911312 1_555
Li9 O35 1.984875 1_545
Li9 O1 2.038137 1_455
Li9 O43 2.221204 1_555
Li10 O56 1.961645 1_555
Li10 O28 2.015540 1_555
Li10 O25 2.042831 1_555
Li10 O45 2.193978 1_555
Li11 O53 1.946629 1_555
Li11 O7 1.969387 1_555
Li11 O8 2.041292 1_455
Li11 O50 2.269019 1_555
O0 P13 1.487276 1_555
O1 P1 1.564208 1_555
O1 V4 1.944389 1_554
O2 P8 1.483521 1_555
O3 P0 1.520678 1_555
O3 V2 1.958233 1_555
O4 P0 1.569507 1_555
O4 V5 1.919503 1_655
O5 P3 1.578240 1_555
O5 V4 1.975908 1_555
O6 P2 1.529201 1_555
O6 V4 1.917720 1_554
O7 P15 1.506036 1_555
O8 P5 1.551060 1_555
O8 V5 1.992460 1_655
O9 P4 1.568942 1_555
O9 V2 1.889253 1_555
O10 P1 1.546823 1_555
O10 V3 1.881456 1_555
O11 P4 1.593286 1_555
O11 V5 1.938987 1_655
O12 P3 1.509194 1_555
O13 P4 1.479983 1_555
O14 P3 1.569849 1_555
O14 V0 2.008460 1_566
O15 P7 1.543944 1_555
O15 V2 2.013539 1_555
O16 P3 1.576747 1_555
O16 V3 2.000648 1_556
O17 P2 1.549090 1_555
O17 V0 1.985587 1_565
O18 P6 1.602478 1_565
O18 P5 1.613493 1_555
O19 P6 1.510559 1_565
O20 P5 1.487276 1_555
O21 P5 1.568767 1_555
O21 V1 1.942645 1_555
O22 P4 1.602659 1_555
O22 V1 1.905820 1_555
O23 P8 1.564208 1_555
O23 V0 1.944389 1_556
O24 P9 1.540177 1_555
O24 V0 1.890984 1_565
O25 P9 1.547973 1_555
O25 V3 1.995650 1_555
O26 P1 1.616565 1_555
O26 P8 1.616565 1_554
O27 P1 1.483521 1_555
O28 P14 1.502510 1_555
O29 P6 1.520678 1_555
O29 V2 1.958233 1_555
O30 P6 1.569507 1_555
O30 V1 1.919503 1_545
O31 P7 1.546246 1_555
O31 V1 2.027013 1_555
O32 P11 1.578240 1_555
O32 V0 1.975908 1_555
O33 P10 1.529201 1_555
O33 V0 1.917720 1_556
O34 P10 1.507291 1_565
O35 P9 1.506036 1_555
O36 P9 1.613287 1_556
O36 P10 1.616070 1_565
O37 P13 1.551060 1_555
O37 V1 1.992460 1_545
O38 P12 1.568942 1_555
O38 V2 1.889253 1_555
O39 P8 1.546823 1_555
O39 V3 1.881456 1_556
O40 P12 1.593286 1_555
O40 V1 1.938987 1_545
O41 P12 1.479983 1_555
O42 P11 1.509194 1_555
O43 P11 1.569849 1_555
O43 V4 2.008460 1_454
O44 P14 1.543944 1_555
O44 V2 2.013539 1_555
O45 P11 1.576747 1_555
O45 V3 2.000648 1_555
O46 P10 1.549090 1_555
O46 V4 1.985587 1_455
O47 P0 1.602478 1_455
O47 P13 1.613493 1_555
O48 P0 1.510559 1_455
O49 P13 1.568767 1_555
O49 V5 1.942645 1_555
O50 P12 1.602659 1_555
O50 V5 1.905820 1_555
O51 P15 1.540177 1_555
O51 V4 1.890984 1_455
O52 P15 1.547973 1_555
O52 V3 1.995650 1_556
O53 P7 1.502510 1_555
O54 P7 1.614317 1_555
O54 P14 1.614317 1_555
O55 P14 1.546246 1_555
O55 V5 2.027013 1_555
O56 P2 1.507291 1_455
O57 P15 1.613287 1_554
O57 P2 1.616070 1_455
