# generated using pymatgen
data_Li2MnV3O8
_symmetry_space_group_name_H-M   'P 1'
_cell_length_a   5.96760651
_cell_length_b   5.96775318
_cell_length_c   10.47772473
_cell_angle_alpha   89.99982696
_cell_angle_beta   106.54289521
_cell_angle_gamma   60.00164229
_symmetry_Int_Tables_number   1
_chemical_formula_structural   Li2MnV3O8
_chemical_formula_sum   'Li4 Mn2 V6 O16'
_cell_volume   305.19342891
_cell_formula_units_Z   2
loop_
 _symmetry_equiv_pos_site_id
 _symmetry_equiv_pos_as_xyz
  1  'x, y, z'
loop_
 _atom_site_type_symbol
 _atom_site_label
 _atom_site_symmetry_multiplicity
 _atom_site_fract_x
 _atom_site_fract_y
 _atom_site_fract_z
 _atom_site_occupancy
  Li  Li0  1  0.12055200  0.93971000  0.18090800  1
  Li  Li1  1  0.12076500  0.43960400  0.68122800  1
  Li  Li2  1  0.50168000  0.74915600  0.75244100  1
  Li  Li3  1  0.50113800  0.24945100  0.25167600  1
  Mn  Mn0  1  0.87850500  0.06079500  0.81777500  1
  Mn  Mn1  1  0.87917800  0.56040500  0.31870200  1
  V  V0  1  0.49231400  0.50504300  0.50124300  1
  V  V1  1  0.50695400  0.00466600  0.00094400  1
  V  V2  1  0.50381300  0.99118100  0.50125100  1
  V  V3  1  0.48929900  0.50600800  0.00095500  1
  V  V4  1  0.00623200  0.00266600  0.50123900  1
  V  V5  1  0.00565600  0.48835200  0.00095900  1
  O  O0  1  0.25938300  0.87031300  0.38903000  1
  O  O1  1  0.25933400  0.37033500  0.88895500  1
  O  O2  1  0.73940200  0.63029100  0.10912800  1
  O  O3  1  0.73906800  0.13046200  0.60865400  1
  O  O4  1  0.70819100  0.66109400  0.60449200  1
  O  O5  1  0.70805600  0.13121600  0.10454400  1
  O  O6  1  0.26558400  0.63070100  0.60448800  1
  O  O7  1  0.23574200  0.16071600  0.10454500  1
  O  O8  1  0.23518700  0.10366100  0.60448300  1
  O  O9  1  0.26525600  0.60353300  0.10453900  1
  O  O10  1  0.73379200  0.40128500  0.89481500  1
  O  O11  1  0.76007800  0.90098400  0.39446600  1
  O  O12  1  0.75979300  0.83893900  0.89481700  1
  O  O13  1  0.73343100  0.36557900  0.39446800  1
  O  O14  1  0.29611900  0.86492600  0.89480600  1
  O  O15  1  0.29550100  0.33892600  0.39446100  1
loop_
_geom_bond_atom_site_label_1
_geom_bond_atom_site_label_2
_geom_bond_distance
_geom_bond_site_symmetry_2
Li0 O5 2.017698 1_465
Li0 O7 2.017923 1_565
Li0 O9 2.017929 1_555
Li0 O0 2.059417 1_555
Li1 O4 2.018396 1_455
Li1 O6 2.018710 1_555
Li1 O8 2.018906 1_555
Li1 O1 2.055509 1_555
Li2 O10 2.098007 1_555
Li2 O14 2.098034 1_555
Li2 O12 2.098048 1_555
Li2 O4 2.153659 1_555
Li2 O8 2.154040 1_565
Li2 O6 2.154090 1_555
Li3 O15 2.102262 1_555
Li3 O13 2.102362 1_555
Li3 O11 2.102595 1_545
Li3 O5 2.147550 1_555
Li3 O9 2.147819 1_555
Li3 O7 2.147923 1_555
Mn0 O10 2.041694 1_555
Mn0 O12 2.042046 1_545
Mn0 O14 2.042108 1_645
Mn0 O3 2.069302 1_555
Mn1 O13 2.035408 1_555
Mn1 O15 2.035409 1_655
Mn1 O11 2.035473 1_555
Mn1 O2 2.073785 1_555
O0 V0 2.026241 1_555
O0 V2 2.026310 1_555
O0 V4 2.026483 1_565
O1 V3 2.027307 1_556
O1 V5 2.027448 1_556
O1 V1 2.027462 1_556
O2 V3 2.050837 1_555
O2 V1 2.050901 1_565
O2 V5 2.050927 1_655
O3 V2 2.048272 1_545
O3 V4 2.048456 1_655
O3 V0 2.048580 1_555
O4 V2 1.839656 1_555
O4 V0 2.025651 1_555
O5 V1 1.831212 1_555
O5 V3 2.039194 1_555
O6 V0 1.839080 1_555
O6 V4 2.025907 1_565
O7 V5 1.831140 1_555
O7 V1 2.039213 1_555
O8 V4 1.839037 1_555
O8 V2 2.025269 1_545
O9 V3 1.830976 1_555
O9 V5 2.039040 1_555
O10 V3 1.941230 1_556
O10 V5 1.988567 1_656
O11 V4 1.932125 1_665
O11 V2 2.007880 1_555
O12 V5 1.941162 1_656
O12 V1 1.988591 1_566
O13 V0 1.932340 1_555
O13 V4 2.007388 1_655
O14 V1 1.941028 1_566
O14 V3 1.988607 1_556
O15 V2 1.931899 1_545
O15 V0 2.007480 1_555
