# generated using pymatgen
data_Ca2CoWO6
_symmetry_space_group_name_H-M   'P 1'
_cell_length_a   5.46875067
_cell_length_b   5.65691700
_cell_length_c   7.82982167
_cell_angle_alpha   89.99993375
_cell_angle_beta   90.33329102
_cell_angle_gamma   89.99704185
_symmetry_Int_Tables_number   1
_chemical_formula_structural   Ca2CoWO6
_chemical_formula_sum   'Ca4 Co2 W2 O12'
_cell_volume   242.22136799
_cell_formula_units_Z   2
loop_
 _symmetry_equiv_pos_site_id
 _symmetry_equiv_pos_as_xyz
  1  'x, y, z'
loop_
 _atom_site_type_symbol
 _atom_site_label
 _atom_site_symmetry_multiplicity
 _atom_site_fract_x
 _atom_site_fract_y
 _atom_site_fract_z
 _atom_site_occupancy
  Ca  Ca0  1  0.98613300  0.05552500  0.25315700  1
  Ca  Ca1  1  0.51387900  0.55553100  0.24683400  1
  Ca  Ca2  1  0.01386800  0.94447400  0.74684400  1
  Ca  Ca3  1  0.48611900  0.44446700  0.75316700  1
  Co  Co0  1  0.49999900  0.00000000  0.00000000  1
  Co  Co1  1  0.00000000  0.49999900  0.50000000  1
  W  W0  1  0.49999700  0.00000200  0.49999700  1
  W  W1  1  0.00000800  0.50000100  0.00000000  1
  O  O0  1  0.68762900  0.28406600  0.44536200  1
  O  O1  1  0.81235300  0.78406600  0.05463700  1
  O  O2  1  0.31237400  0.71593500  0.55464100  1
  O  O3  1  0.18764800  0.21593700  0.94535900  1
  O  O4  1  0.21064800  0.19315600  0.54579000  1
  O  O5  1  0.28932300  0.69316500  0.95420900  1
  O  O6  1  0.78935400  0.80684200  0.45421200  1
  O  O7  1  0.71067100  0.30683400  0.04578700  1
  O  O8  1  0.09649600  0.46657400  0.23962200  1
  O  O9  1  0.40351800  0.96657300  0.26037600  1
  O  O10  1  0.59648200  0.03342800  0.73962800  1
  O  O11  1  0.90350400  0.53342600  0.76037800  1
loop_
_geom_bond_atom_site_label_1
_geom_bond_atom_site_label_2
_geom_bond_distance
_geom_bond_site_symmetry_2
Ca0 O9 2.337718 1_645
Ca0 O6 2.373845 1_545
Ca0 O1 2.379153 1_545
Ca0 O8 2.404843 1_655
Ca0 O0 2.574779 1_555
Ca0 O7 2.626406 1_555
Ca0 O4 2.707576 1_655
Ca0 O3 2.806606 1_654
Ca1 O8 2.337763 1_555
Ca1 O7 2.373819 1_555
Ca1 O0 2.379085 1_555
Ca1 O9 2.404745 1_555
Ca1 O1 2.574703 1_555
Ca1 O6 2.626577 1_555
Ca1 O5 2.707590 1_554
Ca1 O2 2.806595 1_555
Ca2 O10 2.337725 1_465
Ca2 O4 2.373839 1_565
Ca2 O3 2.379142 1_565
Ca2 O11 2.404839 1_455
Ca2 O2 2.574771 1_555
Ca2 O5 2.626360 1_555
Ca2 O6 2.707568 1_455
Ca2 O1 2.806565 1_456
Ca3 O11 2.337776 1_555
Ca3 O5 2.373806 1_555
Ca3 O2 2.379075 1_555
Ca3 O10 2.404730 1_555
Ca3 O3 2.574656 1_555
Ca3 O4 2.626560 1_555
Ca3 O7 2.707546 1_556
Ca3 O0 2.806587 1_555
Co0 O7 2.112834 1_555
Co0 O5 2.112855 1_544
Co0 O10 2.117274 1_554
Co0 O9 2.117301 1_545
Co0 O1 2.141099 1_545
Co0 O3 2.141102 1_554
Co1 O6 2.112701 1_455
Co1 O4 2.112709 1_555
Co1 O8 2.117331 1_555
Co1 O11 2.117332 1_455
Co1 O0 2.141273 1_455
Co1 O2 2.141300 1_555
O0 W0 1.955350 1_555
O1 W1 1.955338 1_655
O2 W0 1.955354 1_565
O3 W1 1.955297 1_556
O4 W0 1.957753 1_555
O5 W1 1.957722 1_556
O6 W0 1.957796 1_565
O7 W1 1.957823 1_655
O8 W1 1.955193 1_555
O9 W0 1.955179 1_565
O10 W0 1.955261 1_555
O11 W1 1.955215 1_656
