# generated using pymatgen
data_Sc5Re24
_symmetry_space_group_name_H-M   'P 1'
_cell_length_a   8.41402048
_cell_length_b   8.41402105
_cell_length_c   8.41402096
_cell_angle_alpha   109.47121801
_cell_angle_beta   109.47121937
_cell_angle_gamma   109.47122398
_symmetry_Int_Tables_number   1
_chemical_formula_structural   Sc5Re24
_chemical_formula_sum   'Sc5 Re24'
_cell_volume   458.55228378
_cell_formula_units_Z   1
loop_
 _symmetry_equiv_pos_site_id
 _symmetry_equiv_pos_as_xyz
  1  'x, y, z'
loop_
 _atom_site_type_symbol
 _atom_site_label
 _atom_site_symmetry_multiplicity
 _atom_site_fract_x
 _atom_site_fract_y
 _atom_site_fract_z
 _atom_site_occupancy
  Sc  Sc0  1  0.00000000  0.00000000  0.36709920  1
  Sc  Sc1  1  -0.00000000  0.36709920  0.00000000  1
  Sc  Sc2  1  0.36709920  -0.00000000  -0.00000000  1
  Sc  Sc3  1  0.63290080  0.63290080  0.63290080  1
  Sc  Sc4  1  0.00000000  -0.00000000  -0.00000000  1
  Re  Re0  1  0.67683887  0.27979324  0.67683887  1
  Re  Re1  1  0.32316113  -0.00000000  0.60295437  1
  Re  Re2  1  0.60295437  -0.00000000  0.32316113  1
  Re  Re3  1  0.00000000  0.60295437  0.32316113  1
  Re  Re4  1  0.72020676  0.39704563  0.39704563  1
  Re  Re5  1  0.39704563  0.72020676  0.39704563  1
  Re  Re6  1  0.67683887  0.67683887  0.27979324  1
  Re  Re7  1  0.37761033  0.37761033  0.18539871  1
  Re  Re8  1  0.62238967  0.80778838  0.00000000  1
  Re  Re9  1  0.80778838  0.62238967  -0.00000000  1
  Re  Re10  1  -0.00000000  0.80778838  0.62238967  1
  Re  Re11  1  0.81460129  0.19221162  0.19221162  1
  Re  Re12  1  0.19221162  0.81460129  0.19221162  1
  Re  Re13  1  0.80778838  -0.00000000  0.62238967  1
  Re  Re14  1  0.62238967  0.00000000  0.80778838  1
  Re  Re15  1  0.00000000  0.62238967  0.80778838  1
  Re  Re16  1  0.18539871  0.37761033  0.37761033  1
  Re  Re17  1  0.37761033  0.18539871  0.37761033  1
  Re  Re18  1  0.19221162  0.19221162  0.81460129  1
  Re  Re19  1  0.27979324  0.67683887  0.67683887  1
  Re  Re20  1  0.00000000  0.32316113  0.60295437  1
  Re  Re21  1  0.32316113  0.60295437  -0.00000000  1
  Re  Re22  1  0.60295437  0.32316113  -0.00000000  1
  Re  Re23  1  0.39704563  0.39704563  0.72020676  1
loop_
_geom_bond_atom_site_label_1
_geom_bond_atom_site_label_2
_geom_bond_distance
_geom_bond_site_symmetry_2
Sc0 Sc4 3.088780 1_555
Sc1 Sc4 3.088780 1_555
Sc2 Sc4 3.088780 1_555
Sc3 Sc4 3.088780 1_666
Re0 Re17 2.533071 1_555
Re0 Re15 2.752601 1_655
Re0 Re9 2.752601 1_556
Re0 Sc1 2.781059 1_656
Re0 Re1 2.811562 1_555
Re0 Re2 2.811562 1_555
Re0 Re14 2.883195 1_555
Re0 Re13 2.883195 1_555
Re0 Re20 2.920568 1_655
Re0 Re23 2.920568 1_555
Re0 Re4 2.920568 1_555
Re0 Re22 2.920568 1_556
Re0 Sc3 3.236343 1_555
Re1 Re14 2.533071 1_555
Re1 Re10 2.752601 1_545
Re1 Re18 2.752601 1_555
Re1 Sc0 2.781059 1_555
Re1 Re5 2.811562 1_545
Re1 Re17 2.883195 1_555
Re1 Re12 2.883195 1_545
Re1 Re3 2.920568 1_545
Re1 Re19 2.920568 1_545
Re1 Re23 2.920568 1_555
Re1 Re22 2.920568 1_556
Re1 Sc2 3.236343 1_556
Re2 Re8 2.752601 1_545
Re2 Sc2 2.781059 1_555
Re2 Re5 2.811562 1_545
Re2 Re20 2.920568 1_655
Re2 Re4 2.920568 1_555
Re2 Re21 2.920568 1_545
Re2 Re6 2.920568 1_545
Re2 Sc0 3.236342 1_655
Re3 Re9 2.752601 1_455
Re3 Sc1 2.781059 1_555
Re3 Re4 2.811562 1_455
Re3 Re5 2.920568 1_555
Re3 Re6 2.920568 1_455
Re3 Sc0 3.236343 1_565
Re4 Re7 2.752601 1_555
Re4 Sc3 2.781059 1_555
Re4 Re6 2.920568 1_555
Re4 Sc2 3.236343 1_555
Re5 Re7 2.752601 1_555
Re5 Sc3 2.781059 1_555
Re5 Re6 2.920568 1_555
Re5 Sc1 3.236342 1_555
Re6 Re7 2.533071 1_555
Re6 Sc0 2.781059 1_665
Re6 Re9 2.883195 1_555
Re6 Re8 2.883195 1_555
Re6 Sc3 3.236342 1_555
Re7 Sc1 2.992071 1_555
Re7 Sc2 2.992071 1_555
Re7 Sc4 3.047078 1_555
Re7 Sc3 3.089581 1_555
Re8 Re9 2.547385 1_555
Re8 Sc0 2.992071 1_665
Re8 Sc3 2.992071 1_554
Re8 Sc4 3.047078 1_665
Re8 Sc2 3.089581 1_565
Re9 Sc3 2.992071 1_554
Re9 Sc0 2.992071 1_665
Re9 Sc4 3.047078 1_665
Re9 Sc1 3.089581 1_655
Re10 Re3 2.533071 1_555
Re10 Re15 2.547385 1_555
Re10 Re13 2.640995 1_465
Re10 Re18 2.640995 1_565
Re10 Re6 2.752601 1_455
Re10 Re19 2.883195 1_555
Re10 Re4 2.883195 1_455
Re10 Sc3 2.992071 1_455
Re10 Sc2 2.992071 1_566
Re10 Sc4 3.047078 1_566
Re10 Sc0 3.089581 1_565
Re11 Re4 2.533071 1_555
Re11 Re16 2.547385 1_655
Re11 Re8 2.640995 1_545
Re11 Re14 2.640995 1_554
Re11 Re2 2.752601 1_555
Re11 Re22 2.752601 1_555
Re11 Re3 2.883195 1_655
Re11 Re20 2.883195 1_655
Re11 Sc1 2.992071 1_655
Re11 Sc0 2.992071 1_655
Re11 Sc4 3.047078 1_655
Re11 Sc2 3.089581 1_555
Re12 Re5 2.533071 1_555
Re12 Re17 2.547385 1_565
Re12 Re9 2.640995 1_455
Re12 Re15 2.640995 1_554
Re12 Re3 2.752601 1_555
Re12 Re21 2.752601 1_555
Re12 Re2 2.883195 1_565
Re12 Sc2 2.992071 1_565
Re12 Sc0 2.992071 1_565
Re12 Sc4 3.047078 1_565
Re12 Sc1 3.089581 1_555
Re13 Re2 2.533071 1_555
Re13 Re14 2.547385 1_555
Re13 Re18 2.640995 1_655
Re13 Re20 2.752601 1_655
Re13 Re6 2.752601 1_545
Re13 Re5 2.883195 1_545
Re13 Sc3 2.992071 1_545
Re13 Sc1 2.992071 1_656
Re13 Sc4 3.047078 1_656
Re13 Sc0 3.089581 1_655
Re14 Re8 2.640995 1_546
Re14 Re19 2.752601 1_545
Re14 Re22 2.752601 1_556
Re14 Re5 2.883195 1_545
Re14 Sc1 2.992071 1_656
Re14 Sc3 2.992071 1_545
Re14 Sc4 3.047078 1_656
Re14 Sc2 3.089581 1_556
Re15 Re20 2.533071 1_555
Re15 Re9 2.640995 1_456
Re15 Re21 2.752601 1_556
Re15 Re19 2.883195 1_555
Re15 Re4 2.883195 1_455
Re15 Sc2 2.992071 1_566
Re15 Sc3 2.992071 1_455
Re15 Sc4 3.047078 1_566
Re15 Sc1 3.089581 1_556
Re16 Re19 2.533071 1_555
Re16 Re7 2.640995 1_555
Re16 Re17 2.640995 1_555
Re16 Re5 2.752601 1_555
Re16 Re23 2.752601 1_555
Re16 Re20 2.883195 1_555
Re16 Re3 2.883195 1_555
Re16 Sc0 2.992071 1_555
Re16 Sc1 2.992071 1_555
Re16 Sc4 3.047078 1_555
Re16 Sc3 3.089581 1_555
Re17 Re7 2.640995 1_555
Re17 Re4 2.752601 1_555
Re17 Re23 2.752601 1_555
Re17 Re2 2.883195 1_555
Re17 Sc0 2.992071 1_555
Re17 Sc2 2.992071 1_555
Re17 Sc4 3.047078 1_555
Re17 Sc3 3.089581 1_555
Re18 Re23 2.533071 1_555
Re18 Re7 2.547386 1_556
Re18 Re20 2.752601 1_555
Re18 Re22 2.883195 1_556
Re18 Re21 2.883195 1_556
Re18 Sc1 2.992071 1_556
Re18 Sc2 2.992071 1_556
Re18 Sc4 3.047078 1_556
Re18 Sc0 3.089581 1_555
Re19 Re8 2.752601 1_556
Re19 Sc2 2.781059 1_566
Re19 Re20 2.811562 1_555
Re19 Re3 2.811562 1_555
Re19 Re5 2.920568 1_555
Re19 Re21 2.920568 1_556
Re19 Re23 2.920568 1_555
Re19 Sc3 3.236342 1_555
Re20 Sc0 2.781059 1_555
Re20 Re4 2.811562 1_455
Re20 Re23 2.920568 1_555
Re20 Re21 2.920568 1_556
Re20 Sc1 3.236343 1_556
Re21 Re8 2.533071 1_555
Re21 Sc1 2.781059 1_555
Re21 Re6 2.811562 1_555
Re21 Re23 2.811562 1_554
Re21 Re7 2.883195 1_555
Re21 Re5 2.920568 1_555
Re21 Sc2 3.236343 1_565
Re22 Re9 2.533071 1_555
Re22 Sc2 2.781059 1_555
Re22 Re23 2.811562 1_554
Re22 Re6 2.811562 1_555
Re22 Re7 2.883195 1_555
Re22 Re3 2.920568 1_655
Re22 Re4 2.920568 1_555
Re22 Sc1 3.236342 1_655
Re23 Sc3 2.781059 1_555
Re23 Re9 2.883195 1_556
Re23 Re8 2.883195 1_556
Re23 Sc0 3.236342 1_555
