# generated using pymatgen
data_Eu5Sn3H
_symmetry_space_group_name_H-M   'P 1'
_cell_length_a   9.67634695
_cell_length_b   9.67634695
_cell_length_c   9.67634695
_cell_angle_alpha   128.32418524
_cell_angle_beta   128.32418524
_cell_angle_gamma   76.10044635
_symmetry_Int_Tables_number   1
_chemical_formula_structural   Eu5Sn3H
_chemical_formula_sum   'Eu10 Sn6 H2'
_cell_volume   542.07119523
_cell_formula_units_Z   2
loop_
 _symmetry_equiv_pos_site_id
 _symmetry_equiv_pos_as_xyz
  1  'x, y, z'
loop_
 _atom_site_type_symbol
 _atom_site_label
 _atom_site_symmetry_multiplicity
 _atom_site_fract_x
 _atom_site_fract_y
 _atom_site_fract_z
 _atom_site_occupancy
  Eu  Eu0  1  0.50000000  0.50000000  0.00000000  1
  Eu  Eu1  1  -0.00000000  -0.00000000  0.00000000  1
  Eu  Eu2  1  0.51314014  0.01314014  0.82887181  1
  Eu  Eu3  1  0.18426833  0.68426833  0.17112819  1
  Eu  Eu4  1  0.01314014  0.18426833  0.50000000  1
  Eu  Eu5  1  0.68426833  0.51314014  0.50000000  1
  Eu  Eu6  1  0.48685986  0.98685986  0.17112819  1
  Eu  Eu7  1  0.81573167  0.31573167  0.82887181  1
  Eu  Eu8  1  0.98685986  0.81573167  0.50000000  1
  Eu  Eu9  1  0.31573167  0.48685986  0.50000000  1
  Sn  Sn0  1  0.25000000  0.25000000  0.00000000  1
  Sn  Sn1  1  0.75000000  0.75000000  0.00000000  1
  Sn  Sn2  1  0.87671137  0.37671137  0.25342273  1
  Sn  Sn3  1  0.12328863  0.62328863  0.74657727  1
  Sn  Sn4  1  0.37671137  0.12328863  0.50000000  1
  Sn  Sn5  1  0.62328863  0.87671137  0.50000000  1
  H  H0  1  0.25000000  0.75000000  0.50000000  1
  H  H1  1  0.75000000  0.25000000  0.50000000  1
loop_
_geom_bond_atom_site_label_1
_geom_bond_atom_site_label_2
_geom_bond_distance
_geom_bond_site_symmetry_2
Eu0 Sn3 3.343176 1_554
Eu0 Sn2 3.343176 1_555
Eu0 Sn5 3.343176 1_555
Eu0 Sn4 3.343176 1_554
Eu0 Sn1 3.809920 1_555
Eu0 Sn0 3.809920 1_555
Eu1 Sn2 3.343176 1_455
Eu1 Sn3 3.343176 1_544
Eu1 Sn5 3.343176 1_444
Eu1 Sn4 3.343176 1_555
Eu1 Sn1 3.809920 1_445
Eu1 Sn0 3.809920 1_555
Eu2 H0 2.471798 1_545
Eu2 Sn4 3.365413 1_555
Eu2 Sn5 3.365413 1_545
Eu2 Sn2 3.424538 1_556
Eu2 Sn0 3.492387 1_556
Eu2 Sn1 3.492387 1_546
Eu3 H0 2.471798 1_555
Eu3 Sn4 3.365413 1_565
Eu3 Sn5 3.365413 1_555
Eu3 Sn3 3.424538 1_554
Eu3 Sn0 3.492387 1_555
Eu3 Sn1 3.492387 1_455
Eu4 H1 2.471798 1_455
Eu4 Sn3 3.365413 1_555
Eu4 Sn2 3.365413 1_455
Eu4 Sn4 3.424538 1_555
Eu4 Sn1 3.492387 1_445
Eu4 Sn0 3.492387 1_556
Eu5 H1 2.471798 1_555
Eu5 Sn3 3.365413 1_655
Eu5 Sn2 3.365413 1_555
Eu5 Sn5 3.424538 1_555
Eu5 Sn1 3.492387 1_556
Eu5 Sn0 3.492387 1_555
Eu6 H1 2.471798 1_565
Eu6 Sn4 3.365413 1_565
Eu6 Sn5 3.365413 1_555
Eu6 Sn3 3.424538 1_554
Eu6 Sn0 3.492387 1_565
Eu6 Sn1 3.492387 1_555
Eu7 H1 2.471798 1_555
Eu7 Sn4 3.365413 1_555
Eu7 Sn5 3.365413 1_545
Eu7 Sn2 3.424538 1_556
Eu7 Sn1 3.492387 1_556
Eu7 Sn0 3.492387 1_656
Eu8 H0 2.471798 1_655
Eu8 Sn2 3.365413 1_555
Eu8 Sn3 3.365413 1_655
Eu8 Sn5 3.424538 1_555
Eu8 Sn1 3.492387 1_555
Eu8 Sn0 3.492387 1_666
Eu9 H0 2.471798 1_555
Eu9 Sn2 3.365413 1_455
Eu9 Sn3 3.365413 1_555
Eu9 Sn4 3.424538 1_555
Eu9 Sn0 3.492387 1_555
Eu9 Sn1 3.492387 1_556
Sn2 Sn3 2.941191 1_655
Sn4 Sn5 2.941191 1_545
