# generated using pymatgen
data_BaS5O8
_symmetry_space_group_name_H-M   'P 1'
_cell_length_a   5.37408300
_cell_length_b   10.51637115
_cell_length_c   11.67600142
_cell_angle_alpha   108.30519768
_cell_angle_beta   97.53162338
_cell_angle_gamma   89.38482670
_symmetry_Int_Tables_number   1
_chemical_formula_structural   BaS5O8
_chemical_formula_sum   'Ba2 S10 O16'
_cell_volume   620.75767130
_cell_formula_units_Z   2
loop_
 _symmetry_equiv_pos_site_id
 _symmetry_equiv_pos_as_xyz
  1  'x, y, z'
loop_
 _atom_site_type_symbol
 _atom_site_label
 _atom_site_symmetry_multiplicity
 _atom_site_fract_x
 _atom_site_fract_y
 _atom_site_fract_z
 _atom_site_occupancy
  Ba  Ba0  1  0.25393400  0.78691100  0.10104000  1
  Ba  Ba1  1  0.74606600  0.21308900  0.89896000  1
  S  S0  1  0.18761700  0.77441300  0.63191600  1
  S  S1  1  0.81238300  0.22558700  0.36808400  1
  S  S2  1  0.41421700  0.62196000  0.64475800  1
  S  S3  1  0.58578300  0.37804000  0.35524200  1
  S  S4  1  0.19577900  0.45975200  0.63154300  1
  S  S5  1  0.80422100  0.54024800  0.36845700  1
  S  S6  1  0.25148000  0.92072300  0.81522600  1
  S  S7  1  0.74852000  0.07927700  0.18477400  1
  S  S8  1  0.24925200  0.44911900  0.81734200  1
  S  S9  1  0.75074800  0.55088100  0.18265800  1
  O  O0  1  0.52204000  0.94908800  0.84437100  1
  O  O1  1  0.47796000  0.05091200  0.15562900  1
  O  O2  1  0.10713600  0.03158400  0.79098500  1
  O  O3  1  0.89286400  0.96841600  0.20901500  1
  O  O4  1  0.14335200  0.85903100  0.89365900  1
  O  O5  1  0.85664800  0.14096900  0.10634100  1
  O  O6  1  0.51952000  0.43722900  0.84725700  1
  O  O7  1  0.48048000  0.56277100  0.15274300  1
  O  O8  1  0.10386500  0.32354400  0.79528900  1
  O  O9  1  0.89613500  0.67645600  0.20471100  1
  O  O10  1  0.14264300  0.56857700  0.89341800  1
  O  O11  1  0.85735700  0.43142300  0.10658200  1
  O  O12  1  0.73781700  0.75793200  0.01678900  1
  O  O13  1  0.26218300  0.24206800  0.98321100  1
  O  O14  1  0.40468300  0.86869500  0.36761300  1
  O  O15  1  0.59531700  0.13130500  0.63238700  1
loop_
_geom_bond_atom_site_label_1
_geom_bond_atom_site_label_2
_geom_bond_distance
_geom_bond_site_symmetry_2
Ba0 O4 2.749214 1_554
Ba0 O10 2.767564 1_554
Ba0 O12 2.805050 1_455
Ba0 O7 2.835903 1_555
Ba0 O3 2.836936 1_455
Ba0 O9 2.837809 1_455
Ba0 O12 2.878898 1_555
Ba0 O1 2.884921 1_565
Ba0 O14 2.959075 1_555
Ba1 O5 2.749214 1_556
Ba1 O11 2.767564 1_556
Ba1 O13 2.805050 1_655
Ba1 O6 2.835903 1_555
Ba1 O2 2.836936 1_655
Ba1 O8 2.837809 1_655
Ba1 O13 2.878898 1_555
Ba1 O0 2.884921 1_545
Ba1 O15 2.959075 1_555
S0 S2 2.033980 1_555
S0 S6 2.194619 1_555
S1 S3 2.033980 1_555
S1 S7 2.194619 1_555
S2 S4 2.035173 1_555
S3 S5 2.035173 1_555
S4 S8 2.188515 1_555
S5 S9 2.188515 1_555
O0 S6 1.461087 1_555
O1 S7 1.461087 1_555
O2 S6 1.473557 1_545
O3 S7 1.473557 1_565
O4 S6 1.455350 1_555
O5 S7 1.455350 1_555
O6 S8 1.462111 1_555
O7 S9 1.462111 1_555
O8 S8 1.475313 1_555
O9 S9 1.475313 1_555
O10 S8 1.453428 1_555
O11 S9 1.453428 1_555
