# generated using pymatgen
data_KCu2H3(SO5)2
_symmetry_space_group_name_H-M   'P 1'
_cell_length_a   5.56320668
_cell_length_b   5.56320668
_cell_length_c   7.81966441
_cell_angle_alpha   67.06923742
_cell_angle_beta   67.06923742
_cell_angle_gamma   70.20279313
_symmetry_Int_Tables_number   1
_chemical_formula_structural   KCu2H3(SO5)2
_chemical_formula_sum   'K1 Cu2 H3 S2 O10'
_cell_volume   200.22983381
_cell_formula_units_Z   1
loop_
 _symmetry_equiv_pos_site_id
 _symmetry_equiv_pos_as_xyz
  1  'x, y, z'
loop_
 _atom_site_type_symbol
 _atom_site_label
 _atom_site_symmetry_multiplicity
 _atom_site_fract_x
 _atom_site_fract_y
 _atom_site_fract_z
 _atom_site_occupancy
  K  K0  1  0.50013400  0.50013400  0.49998700  1
  Cu  Cu0  1  0.50355000  0.99494800  0.99778400  1
  Cu  Cu1  1  0.99494800  0.50355000  0.99778400  1
  H  H0  1  0.29708400  0.29708400  0.21794900  1
  H  H1  1  0.70342400  0.70342400  0.78528700  1
  H  H2  1  0.47935200  0.47935200  0.01219100  1
  S  S0  1  0.92124500  0.92124500  0.28492000  1
  S  S1  1  0.07929900  0.07929900  0.71461000  1
  O  O0  1  0.83697800  0.22325800  0.22630400  1
  O  O1  1  0.22325800  0.83697800  0.22630400  1
  O  O2  1  0.16371500  0.77738500  0.77340400  1
  O  O3  1  0.77738500  0.16371500  0.77340400  1
  O  O4  1  0.81689600  0.81689600  0.49646000  1
  O  O5  1  0.18353400  0.18353400  0.50296100  1
  O  O6  1  0.34443300  0.34443300  0.07472100  1
  O  O7  1  0.65570400  0.65570400  0.92820800  1
  O  O8  1  0.81607000  0.81607000  0.18666800  1
  O  O9  1  0.18423000  0.18423000  0.81315600  1
loop_
_geom_bond_atom_site_label_1
_geom_bond_atom_site_label_2
_geom_bond_distance
_geom_bond_site_symmetry_2
K0 O9 2.749375 1_555
K0 O8 2.750016 1_555
K0 O3 2.819421 1_555
K0 O2 2.819421 1_555
K0 O0 2.820050 1_555
K0 O1 2.820050 1_555
K0 O4 2.870426 1_555
K0 O5 2.870981 1_555
Cu0 O3 1.970569 1_565
Cu0 O1 1.982487 1_556
Cu0 O7 1.983298 1_555
Cu0 O6 2.063090 1_566
Cu0 O8 2.424530 1_556
Cu0 O9 2.428102 1_565
Cu1 O2 1.970569 1_655
Cu1 O0 1.982487 1_556
Cu1 O7 1.983298 1_555
Cu1 O6 2.063090 1_656
Cu1 O8 2.424530 1_556
Cu1 O9 2.428102 1_655
H0 O6 0.990141 1_555
H1 O7 0.987584 1_555
H2 O6 1.084196 1_555
H2 O7 1.415700 1_554
O0 S0 1.512149 1_545
O1 S0 1.512149 1_455
O2 S1 1.511692 1_565
O3 S1 1.511692 1_655
O4 S0 1.463557 1_555
O5 S1 1.464143 1_555
O8 S0 1.485762 1_555
O9 S1 1.485680 1_555
