# generated using pymatgen
data_Zr5(Te2P)2
_symmetry_space_group_name_H-M   'P 1'
_cell_length_a   21.16056559
_cell_length_b   21.16056559
_cell_length_c   21.16056539
_cell_angle_alpha   10.37697741
_cell_angle_beta   10.37697741
_cell_angle_gamma   10.37697879
_symmetry_Int_Tables_number   1
_chemical_formula_structural   Zr5(Te2P)2
_chemical_formula_sum   'Zr5 Te4 P2'
_cell_volume   266.95663065
_cell_formula_units_Z   1
loop_
 _symmetry_equiv_pos_site_id
 _symmetry_equiv_pos_as_xyz
  1  'x, y, z'
loop_
 _atom_site_type_symbol
 _atom_site_label
 _atom_site_symmetry_multiplicity
 _atom_site_fract_x
 _atom_site_fract_y
 _atom_site_fract_z
 _atom_site_occupancy
  Zr  Zr0  1  0.56299300  0.56299300  0.56299300  1
  Zr  Zr1  1  0.05941200  0.05941200  0.05941200  1
  Zr  Zr2  1  0.43700700  0.43700700  0.43700700  1
  Zr  Zr3  1  0.94058800  0.94058800  0.94058800  1
  Zr  Zr4  1  0.50000000  0.50000000  0.50000000  1
  Te  Te0  1  0.86372700  0.86372700  0.86372700  1
  Te  Te1  1  0.36214400  0.36214400  0.36214400  1
  Te  Te2  1  0.13627300  0.13627300  0.13627300  1
  Te  Te3  1  0.63785600  0.63785600  0.63785600  1
  P  P0  1  0.74846700  0.74846700  0.74846700  1
  P  P1  1  0.25153300  0.25153300  0.25153300  1
loop_
_geom_bond_atom_site_label_1
_geom_bond_atom_site_label_2
_geom_bond_distance
_geom_bond_site_symmetry_2
Te0 Zr4 2.926543 1_556
Te0 Zr4 2.926543 1_655
Te0 Zr4 2.926543 1_565
Te0 Zr0 3.019680 1_556
Te0 Zr0 3.019681 1_655
Te0 Zr0 3.019681 1_565
Te1 Zr1 2.935156 1_556
Te1 Zr1 2.935156 1_655
Te1 Zr1 2.935156 1_565
Te2 Zr4 2.926543 1_554
Te2 Zr4 2.926543 1_545
Te2 Zr4 2.926543 1_455
Te2 Zr2 3.019680 1_554
Te2 Zr2 3.019681 1_455
Te2 Zr2 3.019681 1_545
Te3 Zr3 2.935156 1_554
Te3 Zr3 2.935156 1_545
Te3 Zr3 2.935156 1_455
P0 Zr2 2.605679 1_556
P0 Zr2 2.605680 1_655
P0 Zr2 2.605680 1_565
P0 Zr1 2.623056 1_665
P0 Zr1 2.623057 1_656
P0 Zr1 2.623057 1_566
P1 Zr0 2.605679 1_554
P1 Zr0 2.605680 1_545
P1 Zr0 2.605680 1_455
P1 Zr3 2.623056 1_445
P1 Zr3 2.623057 1_544
P1 Zr3 2.623057 1_454
