# generated using pymatgen
data_Mg14CoSi
_symmetry_space_group_name_H-M   'P 1'
_cell_length_a   6.19572137
_cell_length_b   6.27594200
_cell_length_c   9.92026248
_cell_angle_alpha   90.00000000
_cell_angle_beta   90.00000000
_cell_angle_gamma   120.42924547
_symmetry_Int_Tables_number   1
_chemical_formula_structural   Mg14CoSi
_chemical_formula_sum   'Mg14 Co1 Si1'
_cell_volume   332.60579902
_cell_formula_units_Z   1
loop_
 _symmetry_equiv_pos_site_id
 _symmetry_equiv_pos_as_xyz
  1  'x, y, z'
loop_
 _atom_site_type_symbol
 _atom_site_label
 _atom_site_symmetry_multiplicity
 _atom_site_fract_x
 _atom_site_fract_y
 _atom_site_fract_z
 _atom_site_occupancy
  Mg  Mg0  1  0.17247684  0.33623792  0.62500000  1
  Mg  Mg1  1  0.17307452  0.83653676  0.62500000  1
  Mg  Mg2  1  0.70492121  0.35129659  0.12500000  1
  Mg  Mg3  1  0.66460065  0.33090062  0.62500000  1
  Mg  Mg4  1  0.70492121  0.85362362  0.12500000  1
  Mg  Mg5  1  0.66460065  0.83369903  0.62500000  1
  Mg  Mg6  1  0.31829410  0.16446117  0.34408800  1
  Mg  Mg7  1  0.31829410  0.16446117  0.90591200  1
  Mg  Mg8  1  0.31829410  0.65383393  0.34408800  1
  Mg  Mg9  1  0.31829410  0.65383393  0.90591200  1
  Mg  Mg10  1  0.83960429  0.16980264  0.36827342  1
  Mg  Mg11  1  0.83960429  0.16980264  0.88172658  1
  Mg  Mg12  1  0.83261637  0.66630868  0.37525972  1
  Mg  Mg13  1  0.83261637  0.66630868  0.87474028  1
  Co  Co0  1  0.14677728  0.32338814  0.12500000  1
  Si  Si0  1  0.15100994  0.82550447  0.12500000  1
loop_
_geom_bond_atom_site_label_1
_geom_bond_atom_site_label_2
_geom_bond_distance
_geom_bond_site_symmetry_2
Mg0 Mg5 3.066163 1_555
Mg0 Mg3 3.066163 1_555
Mg0 Mg10 3.106208 1_455
Mg0 Mg11 3.106208 1_455
Mg0 Mg5 3.129827 1_445
Mg0 Mg3 3.129827 1_455
Mg0 Mg1 3.137973 1_555
Mg0 Mg1 3.137973 1_545
Mg0 Mg7 3.275792 1_555
Mg0 Mg6 3.275792 1_555
Mg0 Mg8 3.275798 1_555
Mg0 Mg9 3.275798 1_555
Mg1 Mg3 3.054417 1_565
Mg1 Mg5 3.054418 1_555
Mg1 Mg13 3.073448 1_455
Mg1 Mg12 3.073448 1_455
Mg1 Mg3 3.141380 1_455
Mg1 Mg5 3.141380 1_455
Mg1 Mg8 3.306832 1_555
Mg1 Mg9 3.306832 1_555
Mg1 Mg6 3.306838 1_565
Mg1 Mg7 3.306838 1_565
Mg2 Si0 2.857276 1_655
Mg3 Mg5 3.120408 1_545
Mg3 Mg5 3.155534 1_555
Mg3 Mg6 3.345198 1_555
Mg3 Mg7 3.345198 1_555
Mg4 Si0 2.857276 1_655
Mg5 Mg8 3.345198 1_555
Mg5 Mg9 3.345198 1_555
Mg6 Si0 2.844270 1_545
Mg7 Si0 2.844270 1_546
Mg8 Si0 2.844263 1_555
Mg9 Si0 2.844263 1_556
Mg10 Mg3 3.129610 1_555
Mg10 Mg5 3.129616 1_545
Mg10 Mg12 3.138958 1_545
Mg10 Mg12 3.138958 1_555
Mg11 Mg3 3.129610 1_555
Mg11 Mg5 3.129616 1_545
Mg11 Mg13 3.138958 1_545
Mg11 Mg13 3.138958 1_555
Mg12 Si0 3.009443 1_655
Mg12 Mg4 3.018866 1_555
Mg12 Mg2 3.018872 1_555
Mg12 Mg6 3.065162 1_665
Mg12 Mg8 3.065162 1_655
Mg12 Mg5 3.071310 1_555
Mg12 Mg3 3.071317 1_555
Mg12 Mg6 3.162822 1_555
Mg12 Mg8 3.162822 1_555
Mg13 Si0 3.009443 1_656
Mg13 Mg4 3.018866 1_556
Mg13 Mg2 3.018872 1_556
Mg13 Mg7 3.065162 1_665
Mg13 Mg9 3.065162 1_655
Mg13 Mg5 3.071310 1_555
Mg13 Mg3 3.071317 1_555
Mg13 Mg7 3.162822 1_555
Mg13 Mg9 3.162822 1_555
Co0 Mg7 2.814511 1_554
Co0 Mg6 2.814511 1_555
Co0 Mg9 2.814517 1_554
Co0 Mg8 2.814517 1_555
Co0 Mg4 2.830359 1_445
Co0 Mg2 2.830359 1_455
Co0 Mg11 2.918407 1_454
Co0 Mg10 2.918407 1_455
