# generated using pymatgen
data_Eu3(MgGe)5
_symmetry_space_group_name_H-M   'P 1'
_cell_length_a   4.52804200
_cell_length_b   14.53622600
_cell_length_c   18.43276600
_cell_angle_alpha   90.00000000
_cell_angle_beta   90.00000000
_cell_angle_gamma   90.00000000
_symmetry_Int_Tables_number   1
_chemical_formula_structural   Eu3(MgGe)5
_chemical_formula_sum   'Eu12 Mg20 Ge20'
_cell_volume   1213.25648918
_cell_formula_units_Z   4
loop_
 _symmetry_equiv_pos_site_id
 _symmetry_equiv_pos_as_xyz
  1  'x, y, z'
loop_
 _atom_site_type_symbol
 _atom_site_label
 _atom_site_symmetry_multiplicity
 _atom_site_fract_x
 _atom_site_fract_y
 _atom_site_fract_z
 _atom_site_occupancy
  Eu  Eu0  1  0.25000000  0.41226300  0.65363700  1
  Eu  Eu1  1  0.25000000  0.91226300  0.84636300  1
  Eu  Eu2  1  0.75000000  0.58773700  0.34636300  1
  Eu  Eu3  1  0.75000000  0.08773700  0.15363700  1
  Eu  Eu4  1  0.25000000  0.20840800  0.48736100  1
  Eu  Eu5  1  0.25000000  0.70840800  0.01263900  1
  Eu  Eu6  1  0.75000000  0.79159200  0.51263900  1
  Eu  Eu7  1  0.75000000  0.29159200  0.98736100  1
  Eu  Eu8  1  0.25000000  0.13581400  0.69200600  1
  Eu  Eu9  1  0.25000000  0.63581400  0.80799400  1
  Eu  Eu10  1  0.75000000  0.86418600  0.30799400  1
  Eu  Eu11  1  0.75000000  0.36418600  0.19200600  1
  Mg  Mg0  1  0.25000000  0.44709900  0.45651800  1
  Mg  Mg1  1  0.25000000  0.94709900  0.04348200  1
  Mg  Mg2  1  0.75000000  0.55290100  0.54348200  1
  Mg  Mg3  1  0.75000000  0.05290100  0.95651800  1
  Mg  Mg4  1  0.25000000  0.16458700  0.87106000  1
  Mg  Mg5  1  0.25000000  0.66458700  0.62894000  1
  Mg  Mg6  1  0.75000000  0.83541300  0.12894000  1
  Mg  Mg7  1  0.75000000  0.33541300  0.37106000  1
  Mg  Mg8  1  0.25000000  0.97688100  0.56151000  1
  Mg  Mg9  1  0.25000000  0.47688100  0.93849000  1
  Mg  Mg10  1  0.75000000  0.02311900  0.43849000  1
  Mg  Mg11  1  0.75000000  0.52311900  0.06151000  1
  Mg  Mg12  1  0.25000000  0.03706000  0.31055900  1
  Mg  Mg13  1  0.25000000  0.53706000  0.18944100  1
  Mg  Mg14  1  0.75000000  0.96294000  0.68944100  1
  Mg  Mg15  1  0.75000000  0.46294000  0.81055900  1
  Mg  Mg16  1  0.25000000  0.23404200  0.27411000  1
  Mg  Mg17  1  0.25000000  0.73404200  0.22589000  1
  Mg  Mg18  1  0.75000000  0.76595800  0.72589000  1
  Mg  Mg19  1  0.75000000  0.26595800  0.77411000  1
  Ge  Ge0  1  0.25000000  0.13201400  0.01607700  1
  Ge  Ge1  1  0.25000000  0.63201400  0.48392300  1
  Ge  Ge2  1  0.75000000  0.86798600  0.98392300  1
  Ge  Ge3  1  0.75000000  0.36798600  0.51607700  1
  Ge  Ge4  1  0.25000000  0.35031300  0.82568400  1
  Ge  Ge5  1  0.25000000  0.85031300  0.67431600  1
  Ge  Ge6  1  0.75000000  0.64968700  0.17431600  1
  Ge  Ge7  1  0.75000000  0.14968700  0.32568400  1
  Ge  Ge8  1  0.25000000  0.74362300  0.37886500  1
  Ge  Ge9  1  0.25000000  0.24362300  0.12113500  1
  Ge  Ge10  1  0.75000000  0.25637700  0.62113500  1
  Ge  Ge11  1  0.75000000  0.75637700  0.87886500  1
  Ge  Ge12  1  0.25000000  0.42144700  0.30944800  1
  Ge  Ge13  1  0.25000000  0.92144700  0.19055200  1
  Ge  Ge14  1  0.75000000  0.57855300  0.69055200  1
  Ge  Ge15  1  0.75000000  0.07855300  0.80944800  1
  Ge  Ge16  1  0.25000000  0.91296600  0.42466100  1
  Ge  Ge17  1  0.25000000  0.41296600  0.07533900  1
  Ge  Ge18  1  0.75000000  0.08703400  0.57533900  1
  Ge  Ge19  1  0.75000000  0.58703400  0.92466100  1
loop_
_geom_bond_atom_site_label_1
_geom_bond_atom_site_label_2
_geom_bond_distance
_geom_bond_site_symmetry_2
Eu0 Ge10 3.258749 1_455
Eu0 Ge10 3.258749 1_555
Eu0 Ge4 3.296679 1_555
Eu0 Ge14 3.381094 1_455
Eu0 Ge14 3.381094 1_555
Eu0 Ge3 3.459677 1_455
Eu0 Ge3 3.459677 1_555
Eu1 Ge11 3.258749 1_455
Eu1 Ge11 3.258749 1_555
Eu1 Ge5 3.296679 1_555
Eu1 Ge15 3.381094 1_565
Eu1 Ge15 3.381094 1_465
Eu1 Ge2 3.459677 1_555
Eu1 Ge2 3.459677 1_455
Eu2 Ge8 3.258749 1_655
Eu2 Ge8 3.258749 1_555
Eu2 Ge6 3.296679 1_555
Eu2 Ge12 3.381094 1_655
Eu2 Ge12 3.381094 1_555
Eu2 Ge1 3.459677 1_555
Eu2 Ge1 3.459677 1_655
Eu3 Ge9 3.258749 1_555
Eu3 Ge9 3.258749 1_655
Eu3 Ge7 3.296679 1_555
Eu3 Ge13 3.381094 1_545
Eu3 Ge13 3.381094 1_645
Eu3 Ge0 3.459677 1_555
Eu3 Ge0 3.459677 1_655
Eu4 Ge3 3.284326 1_455
Eu4 Ge3 3.284326 1_555
Eu4 Ge18 3.296734 1_455
Eu4 Ge18 3.296734 1_555
Eu4 Ge10 3.419400 1_455
Eu4 Ge10 3.419400 1_555
Eu5 Ge2 3.284326 1_454
Eu5 Ge2 3.284326 1_554
Eu5 Ge19 3.296734 1_454
Eu5 Ge19 3.296734 1_554
Eu5 Ge11 3.419400 1_454
Eu5 Ge11 3.419400 1_554
Eu6 Ge1 3.284326 1_655
Eu6 Ge1 3.284326 1_555
Eu6 Ge16 3.296734 1_655
Eu6 Ge16 3.296734 1_555
Eu6 Ge8 3.419400 1_555
Eu6 Ge8 3.419400 1_655
Eu7 Ge0 3.284326 1_656
Eu7 Ge0 3.284326 1_556
Eu7 Ge17 3.296734 1_556
Eu7 Ge17 3.296734 1_656
Eu7 Ge9 3.419400 1_556
Eu7 Ge9 3.419400 1_656
Eu8 Ge10 3.147015 1_555
Eu8 Ge10 3.147015 1_455
Eu8 Ge18 3.202064 1_455
Eu8 Ge18 3.202064 1_555
Eu8 Ge15 3.241125 1_455
Eu8 Ge15 3.241125 1_555
Eu8 Mg19 3.315886 1_555
Eu8 Mg19 3.315886 1_455
Eu8 Mg4 3.326856 1_555
Eu8 Mg8 3.335173 1_545
Eu8 Mg14 3.382731 1_545
Eu8 Mg14 3.382731 1_445
Eu9 Ge11 3.147015 1_555
Eu9 Ge11 3.147015 1_455
Eu9 Ge19 3.202064 1_555
Eu9 Ge19 3.202064 1_455
Eu9 Ge14 3.241125 1_455
Eu9 Ge14 3.241125 1_555
Eu9 Mg18 3.315886 1_455
Eu9 Mg18 3.315886 1_555
Eu9 Mg5 3.326856 1_555
Eu9 Mg9 3.335173 1_555
Eu9 Mg15 3.382731 1_455
Eu9 Mg15 3.382731 1_555
Eu10 Ge8 3.147015 1_555
Eu10 Ge8 3.147015 1_655
Eu10 Ge16 3.202064 1_555
Eu10 Ge16 3.202064 1_655
Eu10 Ge13 3.241125 1_555
Eu10 Ge13 3.241125 1_655
Eu10 Mg17 3.315886 1_555
Eu10 Mg17 3.315886 1_655
Eu10 Mg6 3.326856 1_555
Eu10 Mg10 3.335173 1_565
Eu10 Mg12 3.382731 1_565
Eu10 Mg12 3.382731 1_665
Eu11 Ge9 3.147015 1_555
Eu11 Ge9 3.147015 1_655
Eu11 Ge17 3.202064 1_655
Eu11 Ge17 3.202064 1_555
Eu11 Ge12 3.241125 1_555
Eu11 Ge12 3.241125 1_655
Eu11 Mg16 3.315886 1_655
Eu11 Mg16 3.315886 1_555
Eu11 Mg7 3.326856 1_555
Eu11 Mg11 3.335173 1_555
Eu11 Mg13 3.382731 1_555
Eu11 Mg13 3.382731 1_655
Ge0 Ge9 2.526295 1_555
Ge0 Mg4 2.714676 1_554
Ge0 Mg1 2.735021 1_545
Ge0 Mg3 2.766505 1_554
Ge0 Mg3 2.766505 1_454
Ge1 Ge8 2.526295 1_555
Ge1 Mg5 2.714676 1_555
Ge1 Mg0 2.735021 1_555
Ge1 Mg2 2.766505 1_455
Ge1 Mg2 2.766505 1_555
Ge2 Mg6 2.714676 1_556
Ge2 Mg3 2.735021 1_565
Ge2 Mg1 2.766505 1_556
Ge2 Mg1 2.766505 1_656
Ge3 Mg7 2.714676 1_555
Ge3 Mg2 2.735021 1_555
Ge3 Mg0 2.766505 1_555
Ge3 Mg0 2.766505 1_655
Ge4 Mg19 2.744650 1_555
Ge4 Mg19 2.744650 1_455
Ge4 Mg9 2.776426 1_555
Ge4 Mg15 2.807819 1_555
Ge4 Mg15 2.807819 1_455
Ge4 Mg4 2.826349 1_555
Ge5 Mg18 2.744650 1_455
Ge5 Mg18 2.744650 1_555
Ge5 Mg8 2.776426 1_555
Ge5 Mg14 2.807819 1_455
Ge5 Mg14 2.807819 1_555
Ge5 Mg5 2.826349 1_555
Ge6 Mg17 2.744650 1_655
Ge6 Mg17 2.744650 1_555
Ge6 Mg11 2.776426 1_555
Ge6 Mg13 2.807819 1_555
Ge6 Mg13 2.807819 1_655
Ge6 Mg6 2.826349 1_555
Ge7 Mg16 2.744650 1_655
Ge7 Mg16 2.744650 1_555
Ge7 Mg10 2.776426 1_555
Ge7 Mg12 2.807819 1_555
Ge7 Mg12 2.807819 1_655
Ge7 Mg7 2.826349 1_555
Ge8 Mg17 2.823190 1_555
Ge9 Mg16 2.823190 1_555
Ge10 Ge3 2.526295 1_555
Ge10 Ge18 2.602326 1_555
Ge10 Mg19 2.823190 1_555
Ge11 Ge2 2.526295 1_555
Ge11 Ge19 2.602326 1_555
Ge11 Mg18 2.823190 1_555
Ge12 Mg0 2.736432 1_555
Ge12 Mg13 2.778048 1_555
Ge12 Mg16 2.800955 1_555
Ge12 Mg7 2.824816 1_455
Ge12 Mg7 2.824816 1_555
Ge13 Mg1 2.736432 1_555
Ge13 Mg12 2.778048 1_565
Ge13 Mg17 2.800955 1_555
Ge13 Mg6 2.824816 1_555
Ge13 Mg6 2.824816 1_455
Ge14 Mg2 2.736432 1_555
Ge14 Mg15 2.778048 1_555
Ge14 Mg18 2.800955 1_555
Ge14 Mg5 2.824816 1_555
Ge14 Mg5 2.824816 1_655
Ge15 Mg3 2.736432 1_555
Ge15 Mg14 2.778048 1_545
Ge15 Mg19 2.800955 1_555
Ge15 Mg4 2.824816 1_655
Ge15 Mg4 2.824816 1_555
Ge16 Ge8 2.602326 1_555
Ge16 Mg8 2.688165 1_555
Ge16 Mg12 2.770816 1_565
Ge16 Mg10 2.784715 1_565
Ge16 Mg10 2.784715 1_465
Ge17 Ge9 2.602326 1_555
Ge17 Mg9 2.688165 1_554
Ge17 Mg13 2.770816 1_555
Ge17 Mg11 2.784715 1_455
Ge17 Mg11 2.784715 1_555
Ge18 Mg10 2.688165 1_555
Ge18 Mg14 2.770816 1_545
Ge18 Mg8 2.784715 1_545
Ge18 Mg8 2.784715 1_645
Ge19 Mg11 2.688165 1_556
Ge19 Mg15 2.770816 1_555
Ge19 Mg9 2.784715 1_555
Ge19 Mg9 2.784715 1_655
