# generated using pymatgen
data_Cd(AgI2)2
_symmetry_space_group_name_H-M   'P 1'
_cell_length_a   6.48685173
_cell_length_b   6.48685173
_cell_length_c   7.83992028
_cell_angle_alpha   114.43787986
_cell_angle_beta   114.43787986
_cell_angle_gamma   90.00000000
_symmetry_Int_Tables_number   1
_chemical_formula_structural   Cd(AgI2)2
_chemical_formula_sum   'Cd1 Ag2 I4'
_cell_volume   267.54172888
_cell_formula_units_Z   1
loop_
 _symmetry_equiv_pos_site_id
 _symmetry_equiv_pos_as_xyz
  1  'x, y, z'
loop_
 _atom_site_type_symbol
 _atom_site_label
 _atom_site_symmetry_multiplicity
 _atom_site_fract_x
 _atom_site_fract_y
 _atom_site_fract_z
 _atom_site_occupancy
  Cd  Cd0  1  -0.00000000  -0.00000000  -0.00000000  1
  Ag  Ag0  1  0.25000000  0.75000000  0.50000000  1
  Ag  Ag1  1  0.75000000  0.25000000  0.50000000  1
  I  I0  1  0.37886359  0.37886359  0.23576915  1
  I  I1  1  0.85690656  0.85690656  0.23576915  1
  I  I2  1  0.14309344  0.62113641  0.76423085  1
  I  I3  1  0.62113641  0.14309344  0.76423085  1
loop_
_geom_bond_atom_site_label_1
_geom_bond_atom_site_label_2
_geom_bond_distance
_geom_bond_site_symmetry_2
Cd0 I1 2.824728 1_445
Cd0 I2 2.824732 1_544
Cd0 I3 2.824732 1_454
Cd0 I0 2.824736 1_555
Ag0 I3 2.844715 1_565
Ag0 I1 2.844718 1_455
Ag0 I0 2.844718 1_555
Ag0 I2 2.844722 1_555
Ag1 I2 2.844715 1_655
Ag1 I1 2.844718 1_545
Ag1 I0 2.844718 1_555
Ag1 I3 2.844722 1_555
