# generated using pymatgen
data_MgSi2
_symmetry_space_group_name_H-M   'P 1'
_cell_length_a   4.34694300
_cell_length_b   5.65290039
_cell_length_c   10.12852245
_cell_angle_alpha   100.79144502
_cell_angle_beta   97.94537031
_cell_angle_gamma   96.38288836
_symmetry_Int_Tables_number   1
_chemical_formula_structural   MgSi2
_chemical_formula_sum   'Mg4 Si8'
_cell_volume   239.72335393
_cell_formula_units_Z   4
loop_
 _symmetry_equiv_pos_site_id
 _symmetry_equiv_pos_as_xyz
  1  'x, y, z'
loop_
 _atom_site_type_symbol
 _atom_site_label
 _atom_site_symmetry_multiplicity
 _atom_site_fract_x
 _atom_site_fract_y
 _atom_site_fract_z
 _atom_site_occupancy
  Mg  Mg0  1  0.10676200  0.89426000  0.81545000  1
  Mg  Mg1  1  0.12452800  0.64996100  0.17826400  1
  Mg  Mg2  1  0.56001700  0.37761900  0.34977500  1
  Mg  Mg3  1  0.51762800  0.97659400  0.55728800  1
  Si  Si0  1  0.15462400  0.16850800  0.08682300  1
  Si  Si1  1  0.58525700  0.58920400  0.92021000  1
  Si  Si2  1  0.98075900  0.38875200  0.66237200  1
  Si  Si3  1  0.70494400  0.83448500  0.30695000  1
  Si  Si4  1  0.05897700  0.38615600  0.90451200  1
  Si  Si5  1  0.63432300  0.95855200  0.09085100  1
  Si  Si6  1  0.05293900  0.17422100  0.44524100  1
  Si  Si7  1  0.51942200  0.60166900  0.68255300  1
loop_
_geom_bond_atom_site_label_1
_geom_bond_atom_site_label_2
_geom_bond_distance
_geom_bond_site_symmetry_2
Mg0 Si4 2.798171 1_565
Mg0 Si0 2.859382 1_566
Mg0 Si7 2.873810 1_555
Mg0 Si7 2.888478 1_455
Mg0 Si2 2.937315 1_455
Mg0 Si1 3.049345 1_555
Mg0 Si1 3.117633 1_455
Mg0 Si4 3.161667 1_555
Mg1 Si3 2.585469 1_455
Mg1 Si3 2.673797 1_555
Mg1 Si0 2.729613 1_555
Mg1 Si4 2.851609 1_554
Mg1 Si5 2.999839 1_555
Mg1 Si5 3.041531 1_455
Mg1 Mg2 3.116375 1_555
Mg1 Si1 3.199308 1_454
Mg1 Si0 3.229898 1_565
Mg2 Si6 2.690626 1_655
Mg2 Si3 2.718128 1_555
Mg2 Si6 2.749122 1_555
Mg2 Si0 2.942174 1_555
Mg2 Si3 3.165214 1_545
Mg3 Si6 2.638003 1_565
Mg3 Si7 2.666381 1_555
Mg3 Si3 2.773235 1_555
Mg3 Si2 2.837304 1_565
Mg3 Si6 2.928753 1_665
Si0 Si4 2.418380 1_554
Si0 Si5 2.443863 1_445
Si0 Si5 2.510647 1_545
Si1 Si7 2.399712 1_555
Si1 Si4 2.413217 1_555
Si1 Si5 2.416547 1_556
Si1 Si4 2.476066 1_655
Si2 Si6 2.383766 1_655
Si2 Si4 2.432022 1_655
Si2 Si7 2.463727 1_555
Si2 Si7 2.474299 1_655
Si3 Si6 2.387358 1_665
Si3 Si5 2.411172 1_555
