# generated using pymatgen
data_Sr4Ca4Fe3Co5O24
_symmetry_space_group_name_H-M   'P 1'
_cell_length_a   7.70491000
_cell_length_b   7.71625560
_cell_length_c   7.75183176
_cell_angle_alpha   90.01051028
_cell_angle_beta   90.02305333
_cell_angle_gamma   90.05531133
_symmetry_Int_Tables_number   1
_chemical_formula_structural   Sr4Ca4Fe3Co5O24
_chemical_formula_sum   'Sr4 Ca4 Fe3 Co5 O24'
_cell_volume   460.86981927
_cell_formula_units_Z   1
loop_
 _symmetry_equiv_pos_site_id
 _symmetry_equiv_pos_as_xyz
  1  'x, y, z'
loop_
 _atom_site_type_symbol
 _atom_site_label
 _atom_site_symmetry_multiplicity
 _atom_site_fract_x
 _atom_site_fract_y
 _atom_site_fract_z
 _atom_site_occupancy
  Sr  Sr0  1  0.25003400  0.75399900  0.74764300  1
  Sr  Sr1  1  0.25008900  0.24573100  0.74776200  1
  Sr  Sr2  1  0.25006300  0.24621900  0.25197300  1
  Sr  Sr3  1  0.74981200  0.75392600  0.25184400  1
  Ca  Ca0  1  0.75152200  0.76129800  0.74858400  1
  Ca  Ca1  1  0.75151900  0.23925600  0.74804100  1
  Ca  Ca2  1  0.24831500  0.76053000  0.25243000  1
  Ca  Ca3  1  0.75162300  0.24039700  0.25162100  1
  Fe  Fe0  1  0.99897400  0.99996500  0.00009000  1
  Fe  Fe1  1  0.99792700  0.50005500  0.99989200  1
  Fe  Fe2  1  0.50084200  0.00004600  0.00013700  1
  Co  Co0  1  0.50126000  0.50013500  0.00004000  1
  Co  Co1  1  0.99850200  0.99993200  0.49983600  1
  Co  Co2  1  0.99816600  0.50004700  0.49989800  1
  Co  Co3  1  0.50162800  0.99986200  0.49982700  1
  Co  Co4  1  0.50266300  0.49990000  0.50002600  1
  O  O0  1  0.99271700  0.00017400  0.74977100  1
  O  O1  1  0.99433900  0.49982600  0.75311800  1
  O  O2  1  0.50640600  0.00024300  0.74707100  1
  O  O3  1  0.50447700  0.49992800  0.73080900  1
  O  O4  1  0.99673900  0.00044000  0.25044800  1
  O  O5  1  0.99776000  0.49944500  0.24660100  1
  O  O6  1  0.50323600  0.00052100  0.25309800  1
  O  O7  1  0.50128900  0.49983300  0.26915000  1
  O  O8  1  0.24910400  0.99762900  0.00208500  1
  O  O9  1  0.26662500  0.50121800  0.00154600  1
  O  O10  1  0.75061800  0.00196200  0.99859100  1
  O  O11  1  0.73336100  0.49939700  0.99874700  1
  O  O12  1  0.25094900  0.99625400  0.49292600  1
  O  O13  1  0.23410800  0.50295700  0.49867100  1
  O  O14  1  0.74945000  0.00213700  0.50768200  1
  O  O15  1  0.76485900  0.49683000  0.50027000  1
  O  O16  1  0.99836300  0.74854500  0.99971800  1
  O  O17  1  0.99424600  0.25146500  0.99990600  1
  O  O18  1  0.50198300  0.74959800  0.99942000  1
  O  O19  1  0.50473700  0.25061800  0.00001500  1
  O  O20  1  0.99773800  0.76474500  0.50041200  1
  O  O21  1  0.99609300  0.23504600  0.50002200  1
  O  O22  1  0.50182500  0.76023200  0.50029200  1
  O  O23  1  0.50603900  0.23965800  0.49998600  1
loop_
_geom_bond_atom_site_label_1
_geom_bond_atom_site_label_2
_geom_bond_distance
_geom_bond_site_symmetry_2
Ca0 O0 2.616207 1_565
Ca0 O14 2.634848 1_565
Ca0 O2 2.640663 1_565
Ca0 O10 2.683877 1_565
Ca0 O20 2.702482 1_555
Ca0 O22 2.720837 1_555
Ca0 O16 2.722892 1_555
Ca0 O18 2.736496 1_555
Ca0 O1 2.753062 1_555
Ca0 O3 2.775228 1_555
Ca0 O11 2.804512 1_555
Ca0 O15 2.807017 1_555
Ca1 O14 2.611172 1_555
Ca1 O0 2.619890 1_555
Ca1 O2 2.638449 1_555
Ca1 O10 2.669495 1_555
Ca1 O21 2.692862 1_555
Ca1 O23 2.696658 1_555
Ca1 O17 2.704637 1_555
Ca1 O19 2.727931 1_556
Ca1 O1 2.745378 1_555
Ca1 O15 2.766030 1_555
Ca1 O3 2.773802 1_555
Ca1 O11 2.797345 1_555
Ca2 O12 2.604428 1_555
Ca2 O8 2.667304 1_555
Ca2 O4 2.681678 1_465
Ca2 O6 2.698172 1_565
Ca2 O20 2.725241 1_455
Ca2 O22 2.739340 1_555
Ca2 O16 2.748025 1_454
Ca2 O13 2.758054 1_555
Ca2 O18 2.770767 1_554
Ca2 O5 2.789244 1_455
Ca2 O9 2.793779 1_555
Ca2 O7 2.805347 1_555
Ca3 O4 2.646120 1_555
Ca3 O6 2.661192 1_555
Ca3 O10 2.689038 1_554
Ca3 O21 2.693470 1_555
Ca3 O23 2.700018 1_555
Ca3 O17 2.704067 1_554
Ca3 O14 2.705840 1_555
Ca3 O19 2.725099 1_555
Ca3 O5 2.754338 1_555
Ca3 O15 2.763859 1_555
Ca3 O7 2.784565 1_555
Ca3 O11 2.803235 1_554
Fe0 O10 1.913668 1_564
Fe0 O8 1.927387 1_655
Fe0 O16 1.940024 1_554
Fe0 O4 1.940819 1_565
Fe0 O0 1.941011 1_564
Fe0 O17 1.941016 1_564
Fe1 O5 1.912454 1_556
Fe1 O1 1.913140 1_555
Fe1 O16 1.917413 1_555
Fe1 O17 1.918366 1_555
Fe1 O11 2.038474 1_555
Fe1 O9 2.070339 1_656
Fe2 O10 1.924586 1_554
Fe2 O18 1.932556 1_544
Fe2 O19 1.933682 1_555
Fe2 O8 1.939755 1_545
Fe2 O6 1.960993 1_555
Fe2 O2 1.962212 1_554
Co0 O11 1.788364 1_554
Co0 O9 1.807911 1_555
Co0 O18 1.924930 1_554
Co0 O19 1.925549 1_555
Co0 O7 2.086097 1_555
Co0 O3 2.087191 1_554
Co1 O21 1.814313 1_565
Co1 O20 1.814773 1_555
Co1 O14 1.920003 1_565
Co1 O4 1.933261 1_565
Co1 O0 1.937985 1_565
Co1 O12 1.946075 1_655
Co2 O15 1.797760 1_555
Co2 O13 1.818058 1_655
Co2 O1 1.963153 1_555
Co2 O5 1.963522 1_555
Co2 O20 2.042486 1_555
Co2 O21 2.044863 1_555
Co3 O22 1.849053 1_555
Co3 O23 1.850607 1_565
Co3 O14 1.910456 1_565
Co3 O6 1.912654 1_565
Co3 O2 1.916934 1_565
Co3 O12 1.932352 1_555
Co4 O3 1.789040 1_555
Co4 O7 1.789739 1_555
Co4 O23 2.008287 1_555
Co4 O22 2.008806 1_555
Co4 O15 2.020358 1_555
Co4 O13 2.069372 1_555
O0 Sr1 2.741463 1_655
O0 Sr0 2.747101 1_645
O1 Sr0 2.778906 1_655
O1 Sr1 2.781440 1_655
O2 Sr1 2.737820 1_555
O2 Sr0 2.739525 1_545
O3 Sr1 2.774739 1_555
O3 Sr0 2.776947 1_555
O4 Sr3 2.689067 1_545
O4 Sr2 2.720171 1_655
O5 Sr3 2.741260 1_555
O5 Sr2 2.757899 1_655
O6 Sr3 2.690187 1_545
O6 Sr2 2.721518 1_555
O7 Sr3 2.742595 1_555
O7 Sr2 2.754379 1_555
O8 Sr0 2.724541 1_554
O8 Sr2 2.725876 1_565
O8 Sr1 2.748293 1_564
O9 Sr2 2.767222 1_555
O9 Sr0 2.774244 1_554
O9 Sr1 2.787613 1_554
O10 Sr3 2.741990 1_546
O11 Sr3 2.778600 1_556
O12 Sr2 2.685220 1_565
O12 Sr0 2.719268 1_555
O12 Sr1 2.758044 1_565
O13 Sr0 2.736835 1_555
O13 Sr2 2.756101 1_555
O13 Sr1 2.772144 1_555
O14 Sr3 2.756807 1_545
O15 Sr3 2.767523 1_555
O16 Sr3 2.737180 1_556
O16 Sr0 2.753742 1_655
O17 Sr2 2.775210 1_656
O17 Sr1 2.776938 1_655
O18 Sr3 2.733682 1_556
O18 Sr0 2.752444 1_555
O19 Sr2 2.769343 1_555
O19 Sr1 2.769737 1_554
O20 Sr3 2.713939 1_555
O20 Sr0 2.730570 1_655
O21 Sr1 2.742517 1_655
O21 Sr2 2.745290 1_655
O22 Sr3 2.713947 1_555
O22 Sr0 2.728622 1_555
O23 Sr1 2.753836 1_555
O23 Sr2 2.754236 1_555
