# generated using pymatgen
data_Ce3SiCl5O4
_symmetry_space_group_name_H-M   'P 1'
_cell_length_a   4.23781110
_cell_length_b   14.26484359
_cell_length_c   16.25955901
_cell_angle_alpha   90.00000000
_cell_angle_beta   90.00000000
_cell_angle_gamma   90.00000000
_symmetry_Int_Tables_number   1
_chemical_formula_structural   Ce3SiCl5O4
_chemical_formula_sum   'Ce12 Si4 Cl20 O16'
_cell_volume   982.91818674
_cell_formula_units_Z   4
loop_
 _symmetry_equiv_pos_site_id
 _symmetry_equiv_pos_as_xyz
  1  'x, y, z'
loop_
 _atom_site_type_symbol
 _atom_site_label
 _atom_site_symmetry_multiplicity
 _atom_site_fract_x
 _atom_site_fract_y
 _atom_site_fract_z
 _atom_site_occupancy
  Ce  Ce0  1  0.23710900  0.91549401  0.62610056  1
  Ce  Ce1  1  0.23710900  0.58450599  0.12610056  1
  Ce  Ce2  1  0.73710900  0.08450599  0.37389944  1
  Ce  Ce3  1  0.73710900  0.41549401  0.87389944  1
  Ce  Ce4  1  0.23822325  0.06608899  0.87314919  1
  Ce  Ce5  1  0.23822325  0.43391101  0.37314919  1
  Ce  Ce6  1  0.73822325  0.93391101  0.12685081  1
  Ce  Ce7  1  0.73822325  0.56608899  0.62685081  1
  Ce  Ce8  1  0.23702629  0.74665932  0.86726581  1
  Ce  Ce9  1  0.23702629  0.75334068  0.36726581  1
  Ce  Ce10  1  0.73702629  0.25334068  0.13273419  1
  Ce  Ce11  1  0.73702629  0.24665932  0.63273419  1
  Si  Si0  1  0.16879817  0.40815102  0.70949847  1
  Si  Si1  1  0.66879817  0.59184898  0.29050153  1
  Si  Si2  1  0.66879817  0.90815102  0.79050153  1
  Si  Si3  1  0.16879817  0.09184898  0.20949847  1
  Cl  Cl0  1  0.25139875  0.28731168  0.98016906  1
  Cl  Cl1  1  0.25139875  0.21268832  0.48016906  1
  Cl  Cl2  1  0.75139875  0.71268832  0.01983094  1
  Cl  Cl3  1  0.75139875  0.78731168  0.51983094  1
  Cl  Cl4  1  0.24804484  0.90359668  0.98784941  1
  Cl  Cl5  1  0.24804484  0.59640332  0.48784941  1
  Cl  Cl6  1  0.74804484  0.09640332  0.01215059  1
  Cl  Cl7  1  0.74804484  0.40359668  0.51215059  1
  Cl  Cl8  1  0.24827170  0.72040832  0.67909415  1
  Cl  Cl9  1  0.24827170  0.77959168  0.17909415  1
  Cl  Cl10  1  0.74827170  0.27959168  0.32090585  1
  Cl  Cl11  1  0.74827170  0.22040832  0.82090585  1
  Cl  Cl12  1  0.24816998  0.10379986  0.69963518  1
  Cl  Cl13  1  0.24816998  0.39620014  0.19963518  1
  Cl  Cl14  1  0.74816998  0.89620014  0.30036482  1
  Cl  Cl15  1  0.74816998  0.60379986  0.80036482  1
  Cl  Cl16  1  0.24777665  0.55372350  0.94388202  1
  Cl  Cl17  1  0.24777665  0.94627650  0.44388202  1
  Cl  Cl18  1  0.74777665  0.44627650  0.05611798  1
  Cl  Cl19  1  0.74777665  0.05372350  0.55611798  1
  O  O0  1  0.24917272  0.40879764  0.80844053  1
  O  O1  1  0.24917272  0.09120236  0.30844053  1
  O  O2  1  0.74917272  0.59120236  0.19155947  1
  O  O3  1  0.74917272  0.90879764  0.69155947  1
  O  O4  1  0.24972555  0.50485954  0.65847328  1
  O  O5  1  0.24972555  0.99514046  0.15847328  1
  O  O6  1  0.74972555  0.49514046  0.34152672  1
  O  O7  1  0.74972555  0.00485954  0.84152672  1
  O  O8  1  0.24838970  0.31010883  0.66035035  1
  O  O9  1  0.24838970  0.18989117  0.16035035  1
  O  O10  1  0.74838970  0.68989117  0.33964965  1
  O  O11  1  0.74838970  0.81010883  0.83964965  1
  O  O12  1  0.27589339  0.90862384  0.79191576  1
  O  O13  1  0.27589339  0.59137616  0.29191576  1
  O  O14  1  0.77589339  0.09137616  0.20808424  1
  O  O15  1  0.77589339  0.40862384  0.70808424  1
loop_
_geom_bond_atom_site_label_1
_geom_bond_atom_site_label_2
_geom_bond_distance
_geom_bond_site_symmetry_2
Ce0 O3 2.327585 1_455
Ce0 O3 2.418875 1_555
Ce0 O12 2.702865 1_555
Ce0 Cl8 2.913594 1_555
Ce0 Cl12 2.940608 1_565
Ce0 Cl17 2.995497 1_555
Ce0 Cl19 3.079463 1_465
Ce0 Cl19 3.141059 1_565
Ce0 Cl3 3.250514 1_455
Ce0 Cl3 3.328529 1_555
Ce1 O2 2.327585 1_455
Ce1 O2 2.418875 1_555
Ce1 O13 2.702865 1_555
Ce1 Cl9 2.913594 1_555
Ce1 Cl13 2.940608 1_555
Ce1 Cl16 2.995497 1_554
Ce1 Cl18 3.079463 1_455
Ce1 Cl18 3.141059 1_555
Ce1 Cl2 3.250514 1_455
Ce1 Cl2 3.328529 1_555
Ce2 O1 2.327585 1_555
Ce2 O1 2.418875 1_655
Ce2 O14 2.702865 1_555
Ce2 Cl10 2.913594 1_555
Ce2 Cl14 2.940608 1_545
Ce2 Cl19 2.995497 1_555
Ce2 Cl17 3.079463 1_545
Ce2 Cl17 3.141059 1_645
Ce2 Cl1 3.250514 1_555
Ce2 Cl1 3.328529 1_655
Ce3 O0 2.327585 1_555
Ce3 O0 2.418875 1_655
Ce3 O15 2.702865 1_555
Ce3 Cl11 2.913594 1_555
Ce3 Cl15 2.940608 1_555
Ce3 Cl18 2.995497 1_556
Ce3 Cl16 3.079463 1_555
Ce3 Cl16 3.141059 1_655
Ce3 Cl0 3.250514 1_555
Ce3 Cl0 3.328529 1_655
Ce4 O7 2.304954 1_455
Ce4 O7 2.392896 1_555
Ce4 O12 2.610658 1_545
Ce4 Cl12 2.872398 1_555
Ce4 Cl4 2.975341 1_545
Ce4 Cl6 3.100026 1_456
Ce4 Cl11 3.143022 1_455
Ce4 Cl6 3.156411 1_556
Ce4 Cl11 3.199923 1_555
Ce4 Cl0 3.604100 1_555
Ce5 O6 2.304954 1_455
Ce5 O6 2.392896 1_555
Ce5 O13 2.610658 1_555
Ce5 Cl13 2.872398 1_555
Ce5 Cl5 2.975341 1_555
Ce5 Cl7 3.100026 1_455
Ce5 Cl10 3.143022 1_455
Ce5 Cl7 3.156411 1_555
Ce5 Cl10 3.199923 1_555
Ce5 Cl1 3.604100 1_555
Ce6 O5 2.304954 1_555
Ce6 O5 2.392896 1_655
Ce6 O14 2.610658 1_565
Ce6 Cl14 2.872398 1_555
Ce6 Cl6 2.975341 1_565
Ce6 Cl4 3.100026 1_554
Ce6 Cl9 3.143022 1_555
Ce6 Cl4 3.156411 1_654
Ce6 Cl9 3.199923 1_655
Ce6 Cl2 3.604100 1_555
Ce7 O4 2.304954 1_555
Ce7 O4 2.392896 1_655
Ce7 O15 2.610658 1_555
Ce7 Cl15 2.872398 1_555
Ce7 Cl7 2.975341 1_555
Ce7 Cl5 3.100026 1_555
Ce7 Cl8 3.143022 1_555
Ce7 Cl5 3.156411 1_655
Ce7 Cl8 3.199923 1_655
Ce7 Cl3 3.604100 1_555
Ce8 O11 2.304090 1_455
Ce8 O11 2.391021 1_555
Ce8 O12 2.620322 1_555
Ce8 Cl4 2.976238 1_555
Ce8 Cl16 3.021351 1_555
Ce8 Cl8 3.082787 1_555
Ce8 Cl15 3.102907 1_455
Ce8 Cl15 3.166748 1_555
Ce8 Cl2 3.259412 1_456
Ce8 Cl2 3.337664 1_556
Ce9 O10 2.304090 1_455
Ce9 O10 2.391021 1_555
Ce9 O13 2.620322 1_555
Ce9 Cl5 2.976238 1_555
Ce9 Cl17 3.021351 1_555
Ce9 Cl9 3.082787 1_555
Ce9 Cl14 3.102907 1_455
Ce9 Cl14 3.166748 1_555
Ce9 Cl3 3.259412 1_455
Ce9 Cl3 3.337664 1_555
Ce10 O9 2.304090 1_555
Ce10 O9 2.391021 1_655
Ce10 O14 2.620322 1_555
Ce10 Cl6 2.976238 1_555
Ce10 Cl18 3.021351 1_555
Ce10 Cl10 3.082787 1_555
Ce10 Cl13 3.102907 1_555
Ce10 Cl13 3.166748 1_655
Ce10 Cl0 3.259412 1_554
Ce10 Cl0 3.337664 1_654
Ce11 O8 2.304090 1_555
Ce11 O8 2.391021 1_655
Ce11 O15 2.620322 1_555
Ce11 Cl7 2.976238 1_555
Ce11 Cl19 3.021351 1_555
Ce11 Cl11 3.082787 1_555
Ce11 Cl12 3.102907 1_555
Ce11 Cl12 3.166748 1_655
Ce11 Cl1 3.259412 1_555
Ce11 Cl1 3.337664 1_655
O0 Si0 1.644443 1_555
O1 Si3 1.644443 1_555
O2 Si1 1.644443 1_555
O3 Si2 1.644443 1_555
O4 Si0 1.645916 1_555
O5 Si3 1.645916 1_565
O6 Si1 1.645916 1_555
O7 Si2 1.645916 1_545
O8 Si0 1.645701 1_555
O9 Si3 1.645701 1_555
O10 Si1 1.645701 1_555
O11 Si2 1.645701 1_555
O12 Si2 1.665229 1_555
O13 Si1 1.665229 1_555
O14 Si3 1.665229 1_655
O15 Si0 1.665229 1_655
