# generated using pymatgen
data_NaPHO3
_symmetry_space_group_name_H-M   'P 1'
_cell_length_a   6.57739700
_cell_length_b   6.77225630
_cell_length_c   9.49257693
_cell_angle_alpha   93.45988677
_cell_angle_beta   102.95886377
_cell_angle_gamma   108.00469446
_symmetry_Int_Tables_number   1
_chemical_formula_structural   NaPHO3
_chemical_formula_sum   'Na4 P4 H4 O12'
_cell_volume   388.03393917
_cell_formula_units_Z   4
loop_
 _symmetry_equiv_pos_site_id
 _symmetry_equiv_pos_as_xyz
  1  'x, y, z'
loop_
 _atom_site_type_symbol
 _atom_site_label
 _atom_site_symmetry_multiplicity
 _atom_site_fract_x
 _atom_site_fract_y
 _atom_site_fract_z
 _atom_site_occupancy
  Na  Na0  1  0.06120400  0.66918300  0.37002200  1
  Na  Na1  1  0.93879600  0.33081700  0.62997800  1
  Na  Na2  1  0.26403000  0.92802600  0.12468200  1
  Na  Na3  1  0.73597000  0.07197400  0.87531800  1
  P  P0  1  0.25660400  0.23748200  0.40752600  1
  P  P1  1  0.74339600  0.76251800  0.59247400  1
  P  P2  1  0.51694600  0.60550000  0.28171300  1
  P  P3  1  0.48305400  0.39450000  0.71828700  1
  H  H0  1  0.15712600  0.25595700  0.00351900  1
  H  H1  1  0.84287400  0.74404300  0.99648100  1
  H  H2  1  0.69105200  0.16211500  0.15267100  1
  H  H3  1  0.30894800  0.83788500  0.84732900  1
  O  O0  1  0.40465600  0.22844900  0.56800200  1
  O  O1  1  0.59534400  0.77155100  0.43199800  1
  O  O2  1  0.31158900  0.63872400  0.19501600  1
  O  O3  1  0.68841100  0.36127600  0.80498400  1
  O  O4  1  0.29224000  0.38070300  0.78193400  1
  O  O5  1  0.70776000  0.61929700  0.21806600  1
  O  O6  1  0.17786700  0.02063600  0.32411100  1
  O  O7  1  0.82213300  0.97936400  0.67588900  1
  O  O8  1  0.09394700  0.34604200  0.42183500  1
  O  O9  1  0.90605300  0.65395800  0.57816500  1
  O  O10  1  0.45000400  0.37630900  0.33785000  1
  O  O11  1  0.54999600  0.62369100  0.66215000  1
loop_
_geom_bond_atom_site_label_1
_geom_bond_atom_site_label_2
_geom_bond_distance
_geom_bond_site_symmetry_2
Na0 O8 2.334762 1_555
Na0 O5 2.356038 1_455
Na0 O6 2.364298 1_565
Na0 O9 2.412411 1_455
Na0 O2 2.628735 1_555
Na1 O9 2.334762 1_555
Na1 O4 2.356038 1_655
Na1 O7 2.364298 1_545
Na1 O8 2.412411 1_655
Na1 O3 2.628735 1_555
Na2 O2 2.196650 1_555
Na2 O6 2.203622 1_565
Na3 O3 2.196650 1_555
Na3 O7 2.203622 1_545
H0 Na3 2.622653 1_454
H1 Na2 2.622653 1_656
H2 Na2 2.708218 1_545
H2 Na3 2.767295 1_554
H3 Na3 2.708218 1_565
H3 Na2 2.767295 1_556
O0 P0 1.629514 1_555
O0 P3 1.638175 1_555
O1 P1 1.629514 1_555
O1 P2 1.638175 1_555
O2 P2 1.504664 1_555
O3 P3 1.504664 1_555
O4 P3 1.491086 1_555
O5 P2 1.491086 1_555
O6 P0 1.502453 1_555
O7 P1 1.502453 1_555
O8 P0 1.497640 1_555
O9 P1 1.497640 1_555
O10 P0 1.628683 1_555
O10 P2 1.633878 1_555
O11 P1 1.628683 1_555
O11 P3 1.633878 1_555
