# generated using pymatgen
data_CsHo
_symmetry_space_group_name_H-M   'P 1'
_cell_length_a   7.54451109
_cell_length_b   7.54451109
_cell_length_c   15.11324600
_cell_angle_alpha   90.00000000
_cell_angle_beta   90.00000000
_cell_angle_gamma   119.99999202
_symmetry_Int_Tables_number   1
_chemical_formula_structural   CsHo
_chemical_formula_sum   'Cs8 Ho8'
_cell_volume   744.99030419
_cell_formula_units_Z   8
loop_
 _symmetry_equiv_pos_site_id
 _symmetry_equiv_pos_as_xyz
  1  'x, y, z'
loop_
 _atom_site_type_symbol
 _atom_site_label
 _atom_site_symmetry_multiplicity
 _atom_site_fract_x
 _atom_site_fract_y
 _atom_site_fract_z
 _atom_site_occupancy
  Cs  Cs0_0  1  0.33333350  0.16666650  0.25000000  1
  Cs  Cs0_1  1  0.33333350  0.16666650  0.75000000  1
  Cs  Cs0_2  1  0.33333350  0.66666650  0.25000000  1
  Cs  Cs0_3  1  0.33333350  0.66666650  0.75000000  1
  Cs  Cs0_4  1  0.83333350  0.16666650  0.25000000  1
  Cs  Cs0_5  1  0.83333350  0.16666650  0.75000000  1
  Cs  Cs0_6  1  0.83333350  0.66666650  0.25000000  1
  Cs  Cs0_7  1  0.83333350  0.66666650  0.75000000  1
  Ho  Ho0_0  1  0.16666650  0.33333350  0.00000000  1
  Ho  Ho0_1  1  0.16666650  0.33333350  0.50000000  1
  Ho  Ho0_2  1  0.16666650  0.83333350  0.00000000  1
  Ho  Ho0_3  1  0.16666650  0.83333350  0.50000000  1
  Ho  Ho0_4  1  0.66666650  0.33333350  0.00000000  1
  Ho  Ho0_5  1  0.66666650  0.33333350  0.50000000  1
  Ho  Ho0_6  1  0.66666650  0.83333350  0.00000000  1
  Ho  Ho0_7  1  0.66666650  0.83333350  0.50000000  1
loop_
_geom_bond_atom_site_label_1
_geom_bond_atom_site_label_2
_geom_bond_distance
_geom_bond_site_symmetry_2
Cs0_0 Cs0_4 3.772256 1_555
Cs0_0 Cs0_2 3.772256 1_555
Cs0_0 Cs0_2 3.772256 1_545
Cs0_0 Cs0_4 3.772256 1_455
Cs0_0 Cs0_6 3.772256 1_555
Cs0_0 Cs0_6 3.772256 1_445
Cs0_0 Ho0_5 4.361070 1_555
Cs0_0 Ho0_4 4.361070 1_555
Cs0_0 Ho0_2 4.361070 1_545
Cs0_0 Ho0_3 4.361070 1_545
Cs0_0 Ho0_1 4.361073 1_555
Cs0_0 Ho0_0 4.361073 1_555
Cs0_1 Cs0_5 3.772256 1_555
Cs0_1 Cs0_3 3.772256 1_555
Cs0_1 Cs0_3 3.772256 1_545
Cs0_1 Cs0_5 3.772256 1_455
Cs0_1 Cs0_7 3.772256 1_555
Cs0_1 Cs0_7 3.772256 1_445
Cs0_1 Ho0_5 4.361070 1_555
Cs0_1 Ho0_3 4.361070 1_545
Cs0_1 Ho0_4 4.361070 1_556
Cs0_1 Ho0_2 4.361070 1_546
Cs0_1 Ho0_1 4.361073 1_555
Cs0_1 Ho0_0 4.361073 1_556
Cs0_2 Cs0_6 3.772256 1_455
Cs0_2 Cs0_6 3.772256 1_555
Cs0_2 Cs0_4 3.772256 1_455
Cs0_2 Cs0_4 3.772256 1_565
Cs0_2 Ho0_0 4.361070 1_555
Cs0_2 Ho0_7 4.361070 1_555
Cs0_2 Ho0_1 4.361070 1_555
Cs0_2 Ho0_6 4.361070 1_555
Cs0_2 Ho0_3 4.361073 1_555
Cs0_2 Ho0_2 4.361073 1_555
Cs0_3 Cs0_7 3.772256 1_455
Cs0_3 Cs0_7 3.772256 1_555
Cs0_3 Cs0_5 3.772256 1_565
Cs0_3 Cs0_5 3.772256 1_455
Cs0_3 Ho0_7 4.361070 1_555
Cs0_3 Ho0_1 4.361070 1_555
Cs0_3 Ho0_6 4.361070 1_556
Cs0_3 Ho0_0 4.361070 1_556
Cs0_3 Ho0_3 4.361073 1_555
Cs0_3 Ho0_2 4.361073 1_556
Cs0_4 Cs0_6 3.772256 1_555
Cs0_4 Cs0_6 3.772256 1_545
Cs0_4 Ho0_0 4.361070 1_655
Cs0_4 Ho0_7 4.361070 1_545
Cs0_4 Ho0_1 4.361070 1_655
Cs0_4 Ho0_6 4.361070 1_545
Cs0_4 Ho0_5 4.361073 1_555
Cs0_4 Ho0_4 4.361073 1_555
Cs0_5 Cs0_7 3.772256 1_555
Cs0_5 Cs0_7 3.772256 1_545
Cs0_5 Ho0_1 4.361070 1_655
Cs0_5 Ho0_7 4.361070 1_545
Cs0_5 Ho0_6 4.361070 1_546
Cs0_5 Ho0_0 4.361070 1_656
Cs0_5 Ho0_5 4.361073 1_555
Cs0_5 Ho0_4 4.361073 1_556
Cs0_6 Ho0_5 4.361070 1_555
Cs0_6 Ho0_4 4.361070 1_555
Cs0_6 Ho0_2 4.361070 1_655
Cs0_6 Ho0_3 4.361070 1_655
Cs0_6 Ho0_6 4.361073 1_555
Cs0_6 Ho0_7 4.361073 1_555
Cs0_7 Ho0_5 4.361070 1_555
Cs0_7 Ho0_3 4.361070 1_655
Cs0_7 Ho0_4 4.361070 1_556
Cs0_7 Ho0_2 4.361070 1_656
Cs0_7 Ho0_7 4.361073 1_555
Cs0_7 Ho0_6 4.361073 1_556
Ho0_0 Ho0_2 3.772256 1_555
Ho0_0 Ho0_4 3.772256 1_555
Ho0_0 Ho0_2 3.772256 1_545
Ho0_0 Ho0_4 3.772256 1_455
Ho0_0 Ho0_6 3.772256 1_555
Ho0_0 Ho0_6 3.772256 1_445
Ho0_1 Ho0_3 3.772256 1_555
Ho0_1 Ho0_5 3.772256 1_555
Ho0_1 Ho0_5 3.772256 1_455
Ho0_1 Ho0_3 3.772256 1_545
Ho0_1 Ho0_7 3.772256 1_555
Ho0_1 Ho0_7 3.772256 1_445
Ho0_2 Ho0_6 3.772256 1_555
Ho0_2 Ho0_6 3.772256 1_455
Ho0_2 Ho0_4 3.772256 1_565
Ho0_2 Ho0_4 3.772256 1_455
Ho0_3 Ho0_7 3.772256 1_555
Ho0_3 Ho0_7 3.772256 1_455
Ho0_3 Ho0_5 3.772256 1_565
Ho0_3 Ho0_5 3.772256 1_455
Ho0_4 Ho0_6 3.772256 1_545
Ho0_4 Ho0_6 3.772256 1_555
Ho0_5 Ho0_7 3.772256 1_545
Ho0_5 Ho0_7 3.772256 1_555
