# generated using pymatgen
data_Na2V3(SeO)6
_symmetry_space_group_name_H-M   'P 1'
_cell_length_a   6.20260281
_cell_length_b   6.20260281
_cell_length_c   10.80699733
_cell_angle_alpha   84.28107165
_cell_angle_beta   84.28107165
_cell_angle_gamma   119.92080543
_symmetry_Int_Tables_number   1
_chemical_formula_structural   Na2V3(SeO)6
_chemical_formula_sum   'Na2 V3 Se6 O6'
_cell_volume   353.14267737
_cell_formula_units_Z   1
loop_
 _symmetry_equiv_pos_site_id
 _symmetry_equiv_pos_as_xyz
  1  'x, y, z'
loop_
 _atom_site_type_symbol
 _atom_site_label
 _atom_site_symmetry_multiplicity
 _atom_site_fract_x
 _atom_site_fract_y
 _atom_site_fract_z
 _atom_site_occupancy
  Na  Na0  1  0.77549700  0.22450300  0.50000000  1
  Na  Na1  1  0.22450300  0.77549700  0.50000000  1
  V  V0  1  0.50000000  0.50000000  0.00000000  1
  V  V1  1  0.16559700  0.83440300  0.00000000  1
  V  V2  1  0.83440300  0.16559700  0.00000000  1
  Se  Se0  1  0.22000800  0.55442600  0.85422600  1
  Se  Se1  1  0.87765400  0.87765400  0.85548200  1
  Se  Se2  1  0.55442600  0.22000800  0.85422600  1
  Se  Se3  1  0.12234600  0.12234600  0.14451800  1
  Se  Se4  1  0.77999200  0.44557400  0.14577400  1
  Se  Se5  1  0.44557400  0.77999200  0.14577400  1
  O  O0  1  0.59147900  0.80049400  0.52341500  1
  O  O1  1  0.22401000  0.22401000  0.53810700  1
  O  O2  1  0.80049400  0.59147900  0.52341500  1
  O  O3  1  0.77599000  0.77599000  0.46189300  1
  O  O4  1  0.40852100  0.19950600  0.47658500  1
  O  O5  1  0.19950600  0.40852100  0.47658500  1
loop_
_geom_bond_atom_site_label_1
_geom_bond_atom_site_label_2
_geom_bond_distance
_geom_bond_site_symmetry_2
Na0 O2 2.244933 1_555
Na0 O4 2.244933 1_555
Na0 O5 2.258025 1_655
Na0 O0 2.258025 1_545
Na1 O0 2.244933 1_555
Na1 O5 2.244933 1_555
Na1 O4 2.258025 1_565
Na1 O2 2.258025 1_455
Se0 V1 2.575927 1_556
Se0 V0 2.576039 1_556
Se0 V2 2.599270 1_456
Se1 V0 2.545813 1_556
Se1 V2 2.579027 1_566
Se1 V1 2.579027 1_656
Se2 V2 2.575927 1_556
Se2 V0 2.576039 1_556
Se2 V1 2.599270 1_546
Se3 V0 2.545813 1_555
Se3 V2 2.579027 1_455
Se3 V1 2.579027 1_545
Se4 V2 2.575927 1_555
Se4 V0 2.576039 1_555
Se4 V1 2.599270 1_655
Se5 V1 2.575927 1_555
Se5 V0 2.576039 1_555
Se5 V2 2.599270 1_565
O0 O3 1.347936 1_555
O1 O5 1.347936 1_555
O1 O4 1.347936 1_555
O2 O3 1.347936 1_555
