# generated using pymatgen
data_Lu2Mn17C3
_symmetry_space_group_name_H-M   'P 1'
_cell_length_a   8.30302700
_cell_length_b   8.46086473
_cell_length_c   8.46086473
_cell_angle_alpha   120.00000568
_cell_angle_beta   90.00000000
_cell_angle_gamma   90.00000000
_symmetry_Int_Tables_number   1
_chemical_formula_structural   Lu2Mn17C3
_chemical_formula_sum   'Lu4 Mn34 C6'
_cell_volume   514.75024269
_cell_formula_units_Z   2
loop_
 _symmetry_equiv_pos_site_id
 _symmetry_equiv_pos_as_xyz
  1  'x, y, z'
loop_
 _atom_site_type_symbol
 _atom_site_label
 _atom_site_symmetry_multiplicity
 _atom_site_fract_x
 _atom_site_fract_y
 _atom_site_fract_z
 _atom_site_occupancy
  Lu  Lu0  1  0.75000000  0.66666700  0.33333300  1
  Lu  Lu1  1  0.25000000  0.33333300  0.66666700  1
  Lu  Lu2  1  0.75000000  0.00000000  0.00000000  1
  Lu  Lu3  1  0.25000000  0.00000000  0.00000000  1
  Mn  Mn0  1  0.75000000  0.61270800  0.67163800  1
  Mn  Mn1  1  0.25000000  0.38729200  0.32836200  1
  Mn  Mn2  1  0.75000000  0.05893000  0.38729200  1
  Mn  Mn3  1  0.25000000  0.94107000  0.32836200  1
  Mn  Mn4  1  0.25000000  0.94107000  0.61270800  1
  Mn  Mn5  1  0.75000000  0.05893000  0.67163800  1
  Mn  Mn6  1  0.75000000  0.32836200  0.94107000  1
  Mn  Mn7  1  0.25000000  0.67163800  0.61270800  1
  Mn  Mn8  1  0.25000000  0.67163800  0.05893000  1
  Mn  Mn9  1  0.75000000  0.32836200  0.38729200  1
  Mn  Mn10  1  0.25000000  0.38729200  0.05893000  1
  Mn  Mn11  1  0.75000000  0.61270800  0.94107000  1
  Mn  Mn12  1  0.39238200  0.66666700  0.33333300  1
  Mn  Mn13  1  0.60761800  0.33333300  0.66666700  1
  Mn  Mn14  1  0.89238200  0.33333300  0.66666700  1
  Mn  Mn15  1  0.10761800  0.66666700  0.33333300  1
  Mn  Mn16  1  0.97536100  0.82918800  0.17081200  1
  Mn  Mn17  1  0.02463900  0.17081200  0.82918800  1
  Mn  Mn18  1  0.97536100  0.34162300  0.17081200  1
  Mn  Mn19  1  0.47536100  0.17081200  0.82918800  1
  Mn  Mn20  1  0.02463900  0.65837700  0.82918800  1
  Mn  Mn21  1  0.52463900  0.82918800  0.17081200  1
  Mn  Mn22  1  0.97536100  0.82918800  0.65837700  1
  Mn  Mn23  1  0.47536100  0.65837700  0.82918800  1
  Mn  Mn24  1  0.02463900  0.17081200  0.34162300  1
  Mn  Mn25  1  0.52463900  0.34162300  0.17081200  1
  Mn  Mn26  1  0.47536100  0.17081200  0.34162300  1
  Mn  Mn27  1  0.52463900  0.82918800  0.65837700  1
  Mn  Mn28  1  0.00000000  0.50000000  0.50000000  1
  Mn  Mn29  1  0.00000000  0.00000000  0.50000000  1
  Mn  Mn30  1  0.50000000  0.50000000  0.50000000  1
  Mn  Mn31  1  0.00000000  0.50000000  0.00000000  1
  Mn  Mn32  1  0.50000000  0.00000000  0.50000000  1
  Mn  Mn33  1  0.50000000  0.50000000  0.00000000  1
  C  C0  1  0.75000000  0.83610400  0.16389600  1
  C  C1  1  0.25000000  0.16389600  0.83610400  1
  C  C2  1  0.75000000  0.32779100  0.16389600  1
  C  C3  1  0.25000000  0.67220900  0.83610400  1
  C  C4  1  0.75000000  0.83610400  0.67220900  1
  C  C5  1  0.25000000  0.16389600  0.32779100  1
loop_
_geom_bond_atom_site_label_1
_geom_bond_atom_site_label_2
_geom_bond_distance
_geom_bond_site_symmetry_2
Lu0 Mn12 2.969312 1_555
Lu0 Mn15 2.969312 1_655
Lu0 Mn31 3.205351 1_655
Lu0 Mn32 3.205351 1_565
Lu0 Mn33 3.205351 1_555
Lu0 Mn29 3.205351 1_665
Lu0 Mn28 3.205356 1_655
Lu0 Mn30 3.205356 1_555
Lu1 Mn13 2.969312 1_555
Lu1 Mn14 2.969312 1_455
Lu1 Mn29 3.205351 1_555
Lu1 Mn32 3.205351 1_555
Lu1 Mn33 3.205351 1_556
Lu1 Mn31 3.205351 1_556
Lu1 Mn28 3.205356 1_555
Lu1 Mn30 3.205356 1_555
Mn0 Mn28 2.437663 1_655
Mn0 Mn30 2.437663 1_555
Mn0 Mn13 2.624364 1_555
Mn0 Mn14 2.624364 1_555
Mn1 Mn30 2.437663 1_555
Mn1 Mn28 2.437663 1_555
Mn1 Mn15 2.624364 1_555
Mn1 Mn12 2.624364 1_555
Mn2 Mn29 2.437663 1_655
Mn2 Mn32 2.437663 1_555
Mn3 Mn32 2.437663 1_565
Mn10 Mn31 2.437663 1_555
Mn10 Mn33 2.437663 1_555
Mn10 Mn15 2.624360 1_555
Mn10 Mn12 2.624360 1_555
Mn11 Mn33 2.437663 1_556
Mn11 Mn31 2.437663 1_656
Mn11 Mn13 2.624360 1_555
Mn11 Mn14 2.624360 1_555
Mn12 Mn15 2.364403 1_555
Mn12 Mn32 2.600759 1_565
Mn12 Mn33 2.600759 1_555
Mn12 Mn30 2.600766 1_555
Mn12 Mn21 2.622658 1_555
Mn12 Mn27 2.622671 1_555
Mn12 Mn25 2.622671 1_555
Mn12 Mn3 2.624356 1_555
Mn12 Mn8 2.624356 1_555
Mn12 Mn4 2.624360 1_555
Mn12 Mn7 2.624364 1_555
Mn13 Mn14 2.364403 1_555
Mn13 Mn32 2.600759 1_555
Mn13 Mn33 2.600759 1_556
Mn13 Mn30 2.600766 1_555
Mn13 Mn19 2.622658 1_555
Mn13 Mn26 2.622671 1_555
Mn13 Mn23 2.622671 1_555
Mn13 Mn6 2.624356 1_555
Mn13 Mn5 2.624356 1_555
Mn13 Mn2 2.624360 1_555
Mn13 Mn9 2.624364 1_555
Mn14 Mn31 2.600759 1_656
Mn14 Mn29 2.600759 1_655
Mn14 Mn28 2.600766 1_655
Mn14 Mn17 2.622658 1_655
Mn14 Mn24 2.622671 1_655
Mn14 Mn20 2.622671 1_655
Mn14 Mn6 2.624356 1_555
Mn14 Mn5 2.624356 1_555
Mn14 Mn2 2.624360 1_555
Mn14 Mn9 2.624364 1_555
Mn15 Mn29 2.600759 1_565
Mn15 Mn31 2.600759 1_555
Mn15 Mn28 2.600766 1_555
Mn15 Mn16 2.622658 1_455
Mn15 Mn18 2.622671 1_455
Mn15 Mn22 2.622671 1_455
Mn15 Mn3 2.624356 1_555
Mn15 Mn8 2.624356 1_555
Mn15 Mn4 2.624360 1_555
Mn15 Mn7 2.624364 1_555
Mn16 Mn31 2.421299 1_655
Mn16 Mn29 2.421299 1_665
Mn17 Mn31 2.421299 1_556
Mn17 Mn29 2.421299 1_555
Mn18 Mn28 2.421298 1_655
Mn18 Mn31 2.421306 1_655
Mn19 Mn32 2.421299 1_555
Mn19 Mn33 2.421299 1_556
Mn20 Mn28 2.421298 1_555
Mn20 Mn31 2.421306 1_556
Mn21 Mn33 2.421299 1_555
Mn21 Mn32 2.421299 1_565
Mn22 Mn28 2.421298 1_655
Mn22 Mn29 2.421306 1_665
Mn23 Mn30 2.421298 1_555
Mn23 Mn33 2.421306 1_556
Mn24 Mn28 2.421298 1_555
Mn24 Mn29 2.421306 1_555
Mn25 Mn30 2.421298 1_555
Mn25 Mn33 2.421306 1_555
Mn26 Mn30 2.421298 1_555
Mn26 Mn32 2.421306 1_555
Mn27 Mn30 2.421298 1_555
Mn27 Mn32 2.421306 1_565
Mn28 Mn7 2.437663 1_555
Mn28 Mn9 2.437663 1_455
Mn29 Mn5 2.437663 1_455
Mn29 Mn3 2.437663 1_545
Mn29 Mn4 2.437663 1_545
Mn30 Mn7 2.437663 1_555
Mn30 Mn9 2.437663 1_555
Mn31 Mn8 2.437663 1_555
Mn31 Mn6 2.437663 1_454
Mn32 Mn5 2.437663 1_555
Mn32 Mn4 2.437663 1_545
Mn33 Mn8 2.437663 1_555
Mn33 Mn6 2.437663 1_554
C0 Mn16 1.873921 1_555
C0 Mn21 1.873921 1_555
C0 Mn11 1.887716 1_554
C0 Mn2 1.887716 1_565
C0 Lu2 2.401838 1_565
C0 Lu0 2.483040 1_555
C1 Mn19 1.873921 1_555
C1 Mn17 1.873921 1_555
C1 Mn4 1.887716 1_545
C1 Mn10 1.887716 1_556
C1 Lu3 2.401838 1_556
C1 Lu1 2.483040 1_555
C2 Mn18 1.873921 1_555
C2 Mn25 1.873921 1_555
C2 Mn9 1.887712 1_555
C2 Mn6 1.887721 1_554
C2 Lu2 2.401831 1_555
C2 Lu0 2.483054 1_555
C3 Mn23 1.873921 1_555
C3 Mn20 1.873921 1_555
C3 Mn7 1.887712 1_555
C3 Mn8 1.887721 1_556
C3 Lu3 2.401831 1_566
C3 Lu1 2.483054 1_555
C4 Mn22 1.873921 1_555
C4 Mn27 1.873921 1_555
C4 Mn0 1.887712 1_555
C4 Mn5 1.887721 1_565
C4 Lu2 2.401831 1_566
C4 Lu0 2.483054 1_555
C5 Mn26 1.873921 1_555
C5 Mn24 1.873921 1_555
C5 Mn1 1.887712 1_555
C5 Mn3 1.887721 1_545
C5 Lu3 2.401831 1_555
C5 Lu1 2.483054 1_555
