# generated using pymatgen
data_Yb2Se3
_symmetry_space_group_name_H-M   'P 1'
_cell_length_a   15.26020250
_cell_length_b   14.62856191
_cell_length_c   7.02965418
_cell_angle_alpha   81.46126874
_cell_angle_beta   71.43861317
_cell_angle_gamma   27.10011808
_symmetry_Int_Tables_number   1
_chemical_formula_structural   Yb2Se3
_chemical_formula_sum   'Yb8 Se12'
_cell_volume   643.77759003
_cell_formula_units_Z   4
loop_
 _symmetry_equiv_pos_site_id
 _symmetry_equiv_pos_as_xyz
  1  'x, y, z'
loop_
 _atom_site_type_symbol
 _atom_site_label
 _atom_site_symmetry_multiplicity
 _atom_site_fract_x
 _atom_site_fract_y
 _atom_site_fract_z
 _atom_site_occupancy
  Yb  Yb0  1  0.34640500  0.34640500  0.15359500  1
  Yb  Yb1  1  0.15359500  0.15359500  0.34640500  1
  Yb  Yb2  1  0.90359500  0.90359500  0.09640500  1
  Yb  Yb3  1  0.09640500  0.09640500  0.90359500  1
  Yb  Yb4  1  0.99494400  0.99494400  0.50505600  1
  Yb  Yb5  1  0.50505600  0.50505600  0.99494400  1
  Yb  Yb6  1  0.25505600  0.25505600  0.74494400  1
  Yb  Yb7  1  0.74494400  0.74494400  0.25505600  1
  Se  Se0  1  0.09745700  0.40254300  0.40254300  1
  Se  Se1  1  0.40254300  0.09745700  0.09745700  1
  Se  Se2  1  0.15254300  0.84745700  0.84745700  1
  Se  Se3  1  0.84745700  0.15254300  0.15254300  1
  Se  Se4  1  0.65624300  0.19114500  0.84111000  1
  Se  Se5  1  0.84111000  0.31150300  0.65624300  1
  Se  Se6  1  0.31150300  0.84111000  0.19114500  1
  Se  Se7  1  0.19114500  0.65624300  0.31150300  1
  Se  Se8  1  0.59375700  0.05885500  0.40889000  1
  Se  Se9  1  0.40889000  0.93849700  0.59375700  1
  Se  Se10  1  0.93849700  0.40889000  0.05885500  1
  Se  Se11  1  0.05885500  0.59375700  0.93849700  1
loop_
_geom_bond_atom_site_label_1
_geom_bond_atom_site_label_2
_geom_bond_distance
_geom_bond_site_symmetry_2
Se0 Se1 2.384246 1_555
Se0 Yb1 2.967987 1_555
Se0 Yb0 2.967987 1_555
Se0 Yb7 3.022792 1_455
Se0 Yb6 3.022792 1_555
Se1 Yb1 2.967987 1_555
Se1 Yb0 2.967987 1_555
Se1 Yb6 3.022792 1_554
Se1 Yb7 3.022792 1_545
Se2 Se3 2.384246 1_466
Se2 Yb2 2.967987 1_456
Se2 Yb3 2.967987 1_565
Se2 Yb5 3.022792 1_555
Se2 Yb4 3.022792 1_455
Se3 Yb2 2.967987 1_545
Se3 Yb3 2.967987 1_654
Se3 Yb5 3.022792 1_554
Se3 Yb4 3.022792 1_545
Se4 Yb0 2.844154 1_556
Se4 Yb4 2.891562 1_545
Se4 Yb5 2.933064 1_555
Se4 Yb2 2.994078 1_546
Se5 Yb1 2.844145 1_655
Se5 Yb5 2.891569 1_555
Se5 Yb4 2.933078 1_545
Se5 Yb3 2.994075 1_655
Se6 Yb1 2.844143 1_565
Se6 Yb5 2.891572 1_554
Se6 Yb4 2.933075 1_455
Se6 Yb3 2.994081 1_564
Se7 Yb0 2.844156 1_555
Se7 Yb4 2.891559 1_455
Se7 Yb5 2.933067 1_554
Se7 Yb2 2.994084 1_455
Se8 Yb2 2.844154 1_545
Se8 Yb6 2.891562 1_555
Se8 Yb7 2.933064 1_545
Se8 Yb0 2.994078 1_555
Se9 Yb3 2.844145 1_565
Se9 Yb7 2.891569 1_555
Se9 Yb6 2.933078 1_565
Se9 Yb1 2.994075 1_565
Se10 Yb3 2.844143 1_654
Se10 Yb7 2.891572 1_555
Se10 Yb6 2.933075 1_654
Se10 Yb1 2.994081 1_655
Se11 Yb2 2.844156 1_456
Se11 Yb6 2.891559 1_555
Se11 Yb7 2.933067 1_456
Se11 Yb0 2.994084 1_556
