# generated using pymatgen
data_Eu2MgS4
_symmetry_space_group_name_H-M   'P 1'
_cell_length_a   13.90959100
_cell_length_b   8.13526900
_cell_length_c   6.67590300
_cell_angle_alpha   90.00000000
_cell_angle_beta   90.00000000
_cell_angle_gamma   90.00000000
_symmetry_Int_Tables_number   1
_chemical_formula_structural   Eu2MgS4
_chemical_formula_sum   'Eu8 Mg4 S16'
_cell_volume   755.43359722
_cell_formula_units_Z   4
loop_
 _symmetry_equiv_pos_site_id
 _symmetry_equiv_pos_as_xyz
  1  'x, y, z'
loop_
 _atom_site_type_symbol
 _atom_site_label
 _atom_site_symmetry_multiplicity
 _atom_site_fract_x
 _atom_site_fract_y
 _atom_site_fract_z
 _atom_site_occupancy
  Eu  Eu0  1  0.00000000  0.00000000  0.50000000  1
  Eu  Eu1  1  0.50000000  0.00000000  0.00000000  1
  Eu  Eu2  1  0.50000000  0.50000000  0.00000000  1
  Eu  Eu3  1  0.00000000  0.50000000  0.50000000  1
  Eu  Eu4  1  0.23176100  0.75000000  0.00129900  1
  Eu  Eu5  1  0.76823900  0.25000000  0.99870100  1
  Eu  Eu6  1  0.26823900  0.25000000  0.50129900  1
  Eu  Eu7  1  0.73176100  0.75000000  0.49870100  1
  Mg  Mg0  1  0.09259800  0.25000000  0.92635700  1
  Mg  Mg1  1  0.90740200  0.75000000  0.07364300  1
  Mg  Mg2  1  0.40740200  0.75000000  0.42635700  1
  Mg  Mg3  1  0.59259800  0.25000000  0.57364300  1
  S  S0  1  0.16660000  0.01577400  0.74929900  1
  S  S1  1  0.83340000  0.98422600  0.25070100  1
  S  S2  1  0.33340000  0.98422600  0.24929900  1
  S  S3  1  0.66660000  0.01577400  0.75070100  1
  S  S4  1  0.66660000  0.48422600  0.75070100  1
  S  S5  1  0.33340000  0.51577400  0.24929900  1
  S  S6  1  0.83340000  0.51577400  0.25070100  1
  S  S7  1  0.16660000  0.48422600  0.74929900  1
  S  S8  1  0.06670000  0.75000000  0.24425200  1
  S  S9  1  0.93330000  0.25000000  0.75574800  1
  S  S10  1  0.43330000  0.25000000  0.74425200  1
  S  S11  1  0.56670000  0.75000000  0.25574800  1
  S  S12  1  0.09139000  0.25000000  0.28640400  1
  S  S13  1  0.90861000  0.75000000  0.71359600  1
  S  S14  1  0.40861000  0.75000000  0.78640400  1
  S  S15  1  0.59139000  0.25000000  0.21359600  1
loop_
_geom_bond_atom_site_label_1
_geom_bond_atom_site_label_2
_geom_bond_distance
_geom_bond_site_symmetry_2
Eu0 S12 2.790283 1_555
Eu0 S13 2.790283 1_445
Eu0 S9 2.812865 1_455
Eu0 S8 2.812865 1_545
Eu0 S1 2.855942 1_445
Eu0 S0 2.855942 1_555
Eu1 S15 2.790283 1_555
Eu1 S14 2.790283 1_544
Eu1 S11 2.812865 1_545
Eu1 S10 2.812865 1_554
Eu1 S3 2.855942 1_554
Eu1 S2 2.855942 1_545
Eu2 S15 2.790283 1_555
Eu2 S14 2.790283 1_554
Eu2 S11 2.812865 1_555
Eu2 S10 2.812865 1_554
Eu2 S4 2.855942 1_554
Eu2 S5 2.855942 1_555
Eu3 S13 2.790283 1_455
Eu3 S12 2.790283 1_555
Eu3 S9 2.812865 1_455
Eu3 S8 2.812865 1_555
Eu3 S6 2.855942 1_455
Eu3 S7 2.855942 1_555
Eu4 S8 2.811042 1_555
Eu4 S14 2.847670 1_554
Eu4 S0 2.885582 1_564
Eu4 S7 2.885582 1_554
Eu4 S5 2.893216 1_555
Eu4 S2 2.893216 1_555
Eu5 S9 2.811042 1_555
Eu5 S15 2.847670 1_556
Eu5 S1 2.885582 1_546
Eu5 S6 2.885582 1_556
Eu5 S3 2.893216 1_555
Eu5 S4 2.893216 1_555
Eu6 S10 2.811042 1_555
Eu6 S12 2.847670 1_555
Eu6 S5 2.885582 1_555
Eu6 S2 2.885582 1_545
Eu6 S0 2.893216 1_555
Eu6 S7 2.893216 1_555
Eu7 S11 2.811042 1_555
Eu7 S13 2.847670 1_555
Eu7 S3 2.885582 1_565
Eu7 S4 2.885582 1_555
Eu7 S6 2.893216 1_555
Eu7 S1 2.893216 1_555
Mg0 S12 2.403698 1_556
Mg0 S7 2.467308 1_555
Mg0 S0 2.467308 1_555
Mg0 S9 2.491363 1_455
Mg1 S13 2.403698 1_554
Mg1 S1 2.467308 1_555
Mg1 S6 2.467308 1_555
Mg1 S8 2.491363 1_655
Mg2 S14 2.403698 1_555
Mg2 S2 2.467308 1_555
Mg2 S5 2.467308 1_555
Mg2 S11 2.491363 1_555
Mg3 S15 2.403698 1_555
Mg3 S4 2.467308 1_555
Mg3 S3 2.467308 1_555
Mg3 S10 2.491363 1_555
