# generated using pymatgen
data_Co3Ir
_symmetry_space_group_name_H-M   'P 1'
_cell_length_a   5.21757522
_cell_length_b   5.21757522
_cell_length_c   16.25362690
_cell_angle_alpha   90.00000000
_cell_angle_beta   90.00000000
_cell_angle_gamma   119.99998813
_symmetry_Int_Tables_number   1
_chemical_formula_structural   Co3Ir
_chemical_formula_sum   'Co24 Ir8'
_cell_volume   383.19374240
_cell_formula_units_Z   8
loop_
 _symmetry_equiv_pos_site_id
 _symmetry_equiv_pos_as_xyz
  1  'x, y, z'
loop_
 _atom_site_type_symbol
 _atom_site_label
 _atom_site_symmetry_multiplicity
 _atom_site_fract_x
 _atom_site_fract_y
 _atom_site_fract_z
 _atom_site_occupancy
  Co  Co0_0  1  0.16666650  0.33333350  0.00000273  1
  Co  Co0_1  1  0.16666650  0.33333350  0.50000273  1
  Co  Co0_2  1  0.16666650  0.83333350  0.00000273  1
  Co  Co0_3  1  0.16666650  0.83333350  0.50000273  1
  Co  Co0_4  1  0.66666650  0.33333350  0.00000273  1
  Co  Co0_5  1  0.66666650  0.33333350  0.50000273  1
  Co  Co0_6  1  0.66666650  0.83333350  0.00000273  1
  Co  Co0_7  1  0.66666650  0.83333350  0.50000273  1
  Co  Co1_0  1  0.00000000  0.00000000  0.38081213  1
  Co  Co1_1  1  0.00000000  0.00000000  0.88081213  1
  Co  Co1_2  1  0.00000000  0.50000000  0.38081213  1
  Co  Co1_3  1  0.00000000  0.50000000  0.88081213  1
  Co  Co1_4  1  0.50000000  0.00000000  0.38081213  1
  Co  Co1_5  1  0.50000000  0.00000000  0.88081213  1
  Co  Co1_6  1  0.50000000  0.50000000  0.38081213  1
  Co  Co1_7  1  0.50000000  0.50000000  0.88081213  1
  Co  Co2_0  1  0.00000000  0.00000000  0.11918326  1
  Co  Co2_1  1  0.00000000  0.00000000  0.61918327  1
  Co  Co2_2  1  0.00000000  0.50000000  0.11918326  1
  Co  Co2_3  1  0.00000000  0.50000000  0.61918327  1
  Co  Co2_4  1  0.50000000  0.00000000  0.11918326  1
  Co  Co2_5  1  0.50000000  0.00000000  0.61918327  1
  Co  Co2_6  1  0.50000000  0.50000000  0.11918326  1
  Co  Co2_7  1  0.50000000  0.50000000  0.61918327  1
  Ir  Ir0_0  1  0.16666650  0.33333350  0.25000138  1
  Ir  Ir0_1  1  0.16666650  0.33333350  0.75000137  1
  Ir  Ir0_2  1  0.16666650  0.83333350  0.25000138  1
  Ir  Ir0_3  1  0.16666650  0.83333350  0.75000137  1
  Ir  Ir0_4  1  0.66666650  0.33333350  0.25000138  1
  Ir  Ir0_5  1  0.66666650  0.33333350  0.75000137  1
  Ir  Ir0_6  1  0.66666650  0.83333350  0.25000138  1
  Ir  Ir0_7  1  0.66666650  0.83333350  0.75000137  1
loop_
_geom_bond_atom_site_label_1
_geom_bond_atom_site_label_2
_geom_bond_distance
_geom_bond_site_symmetry_2
Co0_0 Co2_2 2.453773 1_555
Co0_0 Co2_0 2.453775 1_555
Co0_0 Co2_6 2.453775 1_555
Co0_0 Co1_3 2.453903 1_554
Co0_0 Co1_7 2.453904 1_554
Co0_0 Co1_1 2.453904 1_554
Co0_0 Co0_2 2.608788 1_555
Co0_0 Co0_4 2.608788 1_455
Co0_0 Co0_2 2.608788 1_545
Co0_0 Co0_4 2.608788 1_555
Co0_0 Co0_6 2.608788 1_555
Co0_0 Co0_6 2.608788 1_445
Co0_1 Co2_3 2.453773 1_555
Co0_1 Co2_1 2.453775 1_555
Co0_1 Co2_7 2.453775 1_555
Co0_1 Co1_2 2.453903 1_555
Co0_1 Co1_0 2.453904 1_555
Co0_1 Co1_6 2.453904 1_555
Co0_1 Co0_3 2.608788 1_555
Co0_1 Co0_5 2.608788 1_455
Co0_1 Co0_3 2.608788 1_545
Co0_1 Co0_5 2.608788 1_555
Co0_1 Co0_7 2.608788 1_445
Co0_1 Co0_7 2.608788 1_555
Co0_2 Co2_0 2.453773 1_565
Co0_2 Co2_2 2.453775 1_555
Co0_2 Co2_4 2.453775 1_565
Co0_2 Co1_1 2.453903 1_564
Co0_2 Co1_3 2.453904 1_554
Co0_2 Co1_5 2.453904 1_564
Co0_2 Co0_6 2.608788 1_455
Co0_2 Co0_6 2.608788 1_555
Co0_2 Co0_4 2.608788 1_455
Co0_2 Co0_4 2.608788 1_565
Co0_3 Co2_1 2.453773 1_565
Co0_3 Co2_5 2.453775 1_565
Co0_3 Co2_3 2.453775 1_555
Co0_3 Co1_0 2.453903 1_565
Co0_3 Co1_4 2.453904 1_565
Co0_3 Co1_2 2.453904 1_555
Co0_3 Co0_7 2.608788 1_455
Co0_3 Co0_7 2.608788 1_555
Co0_3 Co0_5 2.608788 1_455
Co0_3 Co0_5 2.608788 1_565
Co0_4 Co2_6 2.453773 1_555
Co0_4 Co2_2 2.453775 1_655
Co0_4 Co2_4 2.453775 1_555
Co0_4 Co1_7 2.453903 1_554
Co0_4 Co1_3 2.453904 1_654
Co0_4 Co1_5 2.453904 1_554
Co0_4 Co0_6 2.608788 1_555
Co0_4 Co0_6 2.608788 1_545
Co0_5 Co2_7 2.453773 1_555
Co0_5 Co2_5 2.453775 1_555
Co0_5 Co2_3 2.453775 1_655
Co0_5 Co1_6 2.453903 1_555
Co0_5 Co1_2 2.453904 1_655
Co0_5 Co1_4 2.453904 1_555
Co0_5 Co0_7 2.608788 1_555
Co0_5 Co0_7 2.608788 1_545
Co0_6 Co2_4 2.453773 1_565
Co0_6 Co2_0 2.453775 1_665
Co0_6 Co2_6 2.453775 1_555
Co0_6 Co1_5 2.453903 1_564
Co0_6 Co1_1 2.453904 1_664
Co0_6 Co1_7 2.453904 1_554
Co0_7 Co2_5 2.453773 1_565
Co0_7 Co2_1 2.453775 1_665
Co0_7 Co2_7 2.453775 1_555
Co0_7 Co1_4 2.453903 1_565
Co0_7 Co1_0 2.453904 1_665
Co0_7 Co1_6 2.453904 1_555
Co1_0 Ir0_2 2.605589 1_545
Co1_0 Ir0_6 2.605591 1_445
Co1_0 Ir0_0 2.605591 1_555
Co1_0 Co1_4 2.608788 1_455
Co1_0 Co1_4 2.608788 1_555
Co1_0 Co1_2 2.608788 1_555
Co1_0 Co1_2 2.608788 1_545
Co1_0 Co1_6 2.608788 1_445
Co1_0 Co1_6 2.608788 1_555
Co1_1 Ir0_3 2.605589 1_545
Co1_1 Ir0_7 2.605591 1_445
Co1_1 Ir0_1 2.605591 1_555
Co1_1 Co1_5 2.608788 1_455
Co1_1 Co1_5 2.608788 1_555
Co1_1 Co1_3 2.608788 1_545
Co1_1 Co1_3 2.608788 1_555
Co1_1 Co1_7 2.608788 1_445
Co1_1 Co1_7 2.608788 1_555
Co1_2 Ir0_0 2.605589 1_555
Co1_2 Ir0_2 2.605591 1_555
Co1_2 Ir0_4 2.605591 1_455
Co1_2 Co1_6 2.608788 1_455
Co1_2 Co1_6 2.608788 1_555
Co1_2 Co1_4 2.608788 1_565
Co1_2 Co1_4 2.608788 1_455
Co1_3 Ir0_1 2.605589 1_555
Co1_3 Ir0_3 2.605591 1_555
Co1_3 Ir0_5 2.605591 1_455
Co1_3 Co1_7 2.608788 1_455
Co1_3 Co1_7 2.608788 1_555
Co1_3 Co1_5 2.608788 1_455
Co1_3 Co1_5 2.608788 1_565
Co1_4 Ir0_6 2.605589 1_545
Co1_4 Ir0_4 2.605591 1_555
Co1_4 Ir0_2 2.605591 1_545
Co1_4 Co1_6 2.608788 1_545
Co1_4 Co1_6 2.608788 1_555
Co1_5 Ir0_7 2.605589 1_545
Co1_5 Ir0_5 2.605591 1_555
Co1_5 Ir0_3 2.605591 1_545
Co1_5 Co1_7 2.608788 1_555
Co1_5 Co1_7 2.608788 1_545
Co1_6 Ir0_4 2.605589 1_555
Co1_6 Ir0_6 2.605591 1_555
Co1_6 Ir0_0 2.605591 1_555
Co1_7 Ir0_5 2.605589 1_555
Co1_7 Ir0_1 2.605591 1_555
Co1_7 Ir0_7 2.605591 1_555
Co2_0 Ir0_2 2.605687 1_545
Co2_0 Ir0_6 2.605688 1_445
Co2_0 Ir0_0 2.605688 1_555
Co2_0 Co2_2 2.608788 1_555
Co2_0 Co2_4 2.608788 1_455
Co2_0 Co2_2 2.608788 1_545
Co2_0 Co2_4 2.608788 1_555
Co2_0 Co2_6 2.608788 1_555
Co2_0 Co2_6 2.608788 1_445
Co2_1 Ir0_3 2.605687 1_545
Co2_1 Ir0_1 2.605688 1_555
Co2_1 Ir0_7 2.605688 1_445
Co2_1 Co2_3 2.608788 1_545
Co2_1 Co2_5 2.608788 1_555
Co2_1 Co2_3 2.608788 1_555
Co2_1 Co2_5 2.608788 1_455
Co2_1 Co2_7 2.608788 1_555
Co2_1 Co2_7 2.608788 1_445
Co2_2 Ir0_0 2.605687 1_555
Co2_2 Ir0_2 2.605688 1_555
Co2_2 Ir0_4 2.605688 1_455
Co2_2 Co2_6 2.608788 1_455
Co2_2 Co2_6 2.608788 1_555
Co2_2 Co2_4 2.608788 1_455
Co2_2 Co2_4 2.608788 1_565
Co2_3 Ir0_1 2.605687 1_555
Co2_3 Ir0_3 2.605688 1_555
Co2_3 Ir0_5 2.605688 1_455
Co2_3 Co2_7 2.608788 1_455
Co2_3 Co2_7 2.608788 1_555
Co2_3 Co2_5 2.608788 1_565
Co2_3 Co2_5 2.608788 1_455
Co2_4 Ir0_6 2.605687 1_545
Co2_4 Ir0_2 2.605688 1_545
Co2_4 Ir0_4 2.605688 1_555
Co2_4 Co2_6 2.608788 1_555
Co2_4 Co2_6 2.608788 1_545
Co2_5 Ir0_7 2.605687 1_545
Co2_5 Ir0_5 2.605688 1_555
Co2_5 Ir0_3 2.605688 1_545
Co2_5 Co2_7 2.608788 1_545
Co2_5 Co2_7 2.608788 1_555
Co2_6 Ir0_4 2.605687 1_555
Co2_6 Ir0_0 2.605688 1_555
Co2_6 Ir0_6 2.605688 1_555
Co2_7 Ir0_5 2.605687 1_555
Co2_7 Ir0_1 2.605688 1_555
Co2_7 Ir0_7 2.605688 1_555
Ir0_0 Ir0_4 2.608788 1_455
Ir0_0 Ir0_2 2.608788 1_555
Ir0_0 Ir0_2 2.608788 1_545
Ir0_0 Ir0_4 2.608788 1_555
Ir0_0 Ir0_6 2.608788 1_445
Ir0_0 Ir0_6 2.608788 1_555
Ir0_1 Ir0_3 2.608788 1_555
Ir0_1 Ir0_5 2.608788 1_455
Ir0_1 Ir0_5 2.608788 1_555
Ir0_1 Ir0_3 2.608788 1_545
Ir0_1 Ir0_7 2.608788 1_445
Ir0_1 Ir0_7 2.608788 1_555
Ir0_2 Ir0_6 2.608788 1_455
Ir0_2 Ir0_6 2.608788 1_555
Ir0_2 Ir0_4 2.608788 1_455
Ir0_2 Ir0_4 2.608788 1_565
Ir0_3 Ir0_7 2.608788 1_455
Ir0_3 Ir0_7 2.608788 1_555
Ir0_3 Ir0_5 2.608788 1_455
Ir0_3 Ir0_5 2.608788 1_565
Ir0_4 Ir0_6 2.608788 1_555
Ir0_4 Ir0_6 2.608788 1_545
Ir0_5 Ir0_7 2.608788 1_555
Ir0_5 Ir0_7 2.608788 1_545
