# generated using pymatgen
data_LiVP4(H2O7)2
_symmetry_space_group_name_H-M   'P 1'
_cell_length_a   5.16718389
_cell_length_b   9.88077350
_cell_length_c   10.26948241
_cell_angle_alpha   84.27553515
_cell_angle_beta   80.91614519
_cell_angle_gamma   83.07538009
_symmetry_Int_Tables_number   1
_chemical_formula_structural   LiVP4(H2O7)2
_chemical_formula_sum   'Li2 V2 P8 H8 O28'
_cell_volume   512.21888648
_cell_formula_units_Z   2
loop_
 _symmetry_equiv_pos_site_id
 _symmetry_equiv_pos_as_xyz
  1  'x, y, z'
loop_
 _atom_site_type_symbol
 _atom_site_label
 _atom_site_symmetry_multiplicity
 _atom_site_fract_x
 _atom_site_fract_y
 _atom_site_fract_z
 _atom_site_occupancy
  Li  Li0  1  0.24133700  0.24818100  0.75501300  1
  Li  Li1  1  0.75860300  0.75172400  0.24507300  1
  V  V0  1  0.50002200  0.49995200  0.49997900  1
  V  V1  1  0.99995600  0.00003100  0.00002700  1
  P  P0  1  0.06529200  0.45489100  0.27353500  1
  P  P1  1  0.56565300  0.95566200  0.77372500  1
  P  P2  1  0.93470000  0.54511400  0.72642900  1
  P  P3  1  0.43432600  0.04434400  0.22630900  1
  P  P4  1  0.31691600  0.68431800  0.07747200  1
  P  P5  1  0.81727200  0.18486100  0.57796800  1
  P  P6  1  0.68315900  0.31568400  0.92251200  1
  P  P7  1  0.18269900  0.81514000  0.42204200  1
  H  H0  1  0.20544900  0.63415800  0.89013900  1
  H  H1  1  0.70409300  0.13309600  0.39160200  1
  H  H2  1  0.79456700  0.36585700  0.10984800  1
  H  H3  1  0.29592300  0.86691800  0.60839400  1
  H  H4  1  0.88064300  0.80493500  0.83251800  1
  H  H5  1  0.38062800  0.30444700  0.33228900  1
  H  H6  1  0.11939400  0.19507800  0.16746600  1
  H  H7  1  0.61930900  0.69556200  0.66771100  1
  O  O0  1  0.83267700  0.50636100  0.37149400  1
  O  O1  1  0.33282400  0.00669300  0.87222700  1
  O  O2  1  0.16727400  0.49367100  0.62843300  1
  O  O3  1  0.66715200  0.99328800  0.12782400  1
  O  O4  1  0.02401500  0.34109700  0.19349400  1
  O  O5  1  0.52460200  0.84214900  0.69335800  1
  O  O6  1  0.97592100  0.65888300  0.80652500  1
  O  O7  1  0.47547100  0.15789700  0.30659600  1
  O  O8  1  0.12614300  0.81637500  0.07422700  1
  O  O9  1  0.62925700  0.31751600  0.57381500  1
  O  O10  1  0.87396000  0.18362300  0.92582400  1
  O  O11  1  0.37070900  0.68248500  0.42612900  1
  O  O12  1  0.42921700  0.31214600  0.87453800  1
  O  O13  1  0.92798200  0.81224100  0.37432600  1
  O  O14  1  0.57089800  0.68777700  0.12542900  1
  O  O15  1  0.07196800  0.18782000  0.62568600  1
  O  O16  1  0.12893700  0.58696400  0.18005700  1
  O  O17  1  0.62909600  0.08820800  0.68136100  1
  O  O18  1  0.87115600  0.41298600  0.81990400  1
  O  O19  1  0.37083700  0.91185000  0.31868700  1
  O  O20  1  0.36178400  0.62295400  0.94053700  1
  O  O21  1  0.86082600  0.12214000  0.44160000  1
  O  O22  1  0.63825400  0.37707300  0.05943400  1
  O  O23  1  0.13915900  0.87783800  0.55841800  1
  O  O24  1  0.31356200  0.40581300  0.34981600  1
  O  O25  1  0.81364300  0.90632200  0.85026400  1
  O  O26  1  0.68631200  0.59418000  0.65020900  1
  O  O27  1  0.18642700  0.09369600  0.14973600  1
loop_
_geom_bond_atom_site_label_1
_geom_bond_atom_site_label_2
_geom_bond_distance
_geom_bond_site_symmetry_2
Li0 O12 1.878181 1_555
Li0 O15 1.880535 1_555
Li0 O18 2.411945 1_455
Li0 O17 2.466047 1_555
Li0 O10 2.470786 1_455
Li1 O14 1.878441 1_555
Li1 O13 1.880634 1_555
Li1 O16 2.412484 1_655
Li1 O19 2.466845 1_555
Li1 O8 2.471824 1_655
H0 O20 1.015730 1_555
H0 O6 1.553540 1_455
H1 O21 1.015044 1_555
H1 O7 1.559109 1_555
H2 O22 1.015730 1_555
H2 O4 1.553415 1_655
H3 O23 1.015056 1_555
H3 O5 1.559063 1_555
H4 O25 1.043794 1_555
H4 O6 1.503405 1_555
H5 O24 1.043176 1_555
H5 O7 1.506933 1_555
H6 O27 1.043744 1_555
H6 O4 1.503275 1_555
H7 O26 1.043207 1_555
H7 O5 1.507045 1_555
O0 P0 1.512689 1_655
O0 V0 1.998257 1_555
O1 P1 1.515285 1_545
O1 V1 1.995613 1_456
O2 P2 1.512688 1_455
O2 V0 1.998368 1_555
O3 P3 1.515250 1_565
O3 V1 1.995403 1_565
O4 P0 1.510930 1_555
O5 P1 1.510446 1_555
O6 P2 1.510999 1_555
O7 P3 1.510394 1_555
O8 P4 1.538490 1_555
O8 V1 1.973453 1_465
O9 P5 1.535758 1_555
O9 V0 1.966531 1_555
O10 P6 1.538625 1_555
O10 V1 1.972655 1_556
O11 P7 1.535716 1_555
O11 V0 1.967500 1_555
O12 P6 1.477953 1_555
O13 P7 1.479453 1_655
O14 P4 1.477937 1_555
O15 P5 1.479455 1_455
O16 P0 1.576885 1_555
O16 P4 1.636660 1_555
O17 P1 1.574770 1_545
O17 P5 1.637226 1_555
O18 P2 1.577189 1_555
O18 P6 1.636523 1_555
O19 P3 1.574482 1_565
O19 P7 1.637255 1_555
O20 P4 1.559543 1_556
O21 P5 1.560738 1_555
O22 P6 1.559527 1_554
O23 P7 1.560710 1_555
O24 P0 1.608128 1_555
O24 V0 2.267805 1_555
O25 P1 1.608870 1_555
O25 V1 2.261879 1_566
O26 P2 1.608256 1_555
O26 V0 2.268302 1_555
O27 P3 1.608699 1_555
O27 V1 2.261688 1_455
