# generated using pymatgen
data_ErS2
_symmetry_space_group_name_H-M   'P 1'
_cell_length_a   3.85766632
_cell_length_b   7.79025943
_cell_length_c   7.80905558
_cell_angle_alpha   89.75567049
_cell_angle_beta   90.00000000
_cell_angle_gamma   90.00000000
_symmetry_Int_Tables_number   1
_chemical_formula_structural   ErS2
_chemical_formula_sum   'Er4 S8'
_cell_volume   234.67733358
_cell_formula_units_Z   4
loop_
 _symmetry_equiv_pos_site_id
 _symmetry_equiv_pos_as_xyz
  1  'x, y, z'
loop_
 _atom_site_type_symbol
 _atom_site_label
 _atom_site_symmetry_multiplicity
 _atom_site_fract_x
 _atom_site_fract_y
 _atom_site_fract_z
 _atom_site_occupancy
  Er  Er0  1  0.28948605  0.37091641  0.27534616  1
  Er  Er1  1  0.78948605  0.12908359  0.72465384  1
  Er  Er2  1  0.71051395  0.62908359  0.72465384  1
  Er  Er3  1  0.21051395  0.87091641  0.27534616  1
  S  S0  1  0.26230379  0.37411642  0.63084962  1
  S  S1  1  0.76230379  0.12588358  0.36915038  1
  S  S2  1  0.73769621  0.62588358  0.36915038  1
  S  S3  1  0.23769621  0.87411642  0.63084962  1
  S  S4  1  0.83887758  0.38864127  0.00409121  1
  S  S5  1  0.33887758  0.11135873  0.99590879  1
  S  S6  1  0.16112242  0.61135873  0.99590879  1
  S  S7  1  0.66112242  0.88864127  0.00409121  1
loop_
_geom_bond_atom_site_label_1
_geom_bond_atom_site_label_2
_geom_bond_distance
_geom_bond_site_symmetry_2
Er0 S2 2.735658 1_555
Er0 S1 2.737759 1_555
Er0 S4 2.743212 1_455
Er0 S0 2.778344 1_555
Er0 S1 2.881728 1_455
Er0 S6 2.912151 1_554
Er0 S5 2.987348 1_554
Er0 S4 2.999210 1_555
Er0 S2 3.004206 1_455
Er1 S3 2.735658 1_645
Er1 S0 2.737759 1_655
Er1 S5 2.743212 1_555
Er1 S1 2.778344 1_555
Er1 S0 2.881728 1_555
Er1 S7 2.912151 1_546
Er1 S4 2.987348 1_556
Er1 S5 2.999210 1_655
Er1 S3 3.004206 1_545
Er2 S0 2.735658 1_555
Er2 S3 2.737759 1_555
Er2 S6 2.743212 1_655
Er2 S2 2.778344 1_555
Er2 S3 2.881728 1_655
Er2 S4 2.912151 1_556
Er2 S7 2.987348 1_556
Er2 S6 2.999210 1_555
Er2 S0 3.004206 1_655
Er3 S1 2.735658 1_465
Er3 S2 2.737759 1_455
Er3 S7 2.743212 1_555
Er3 S3 2.778344 1_555
Er3 S2 2.881728 1_555
Er3 S5 2.912151 1_564
Er3 S6 2.987348 1_554
Er3 S7 2.999210 1_455
Er3 S1 3.004206 1_565
S4 S6 2.135131 1_654
S5 S7 2.135131 1_546
