# generated using pymatgen
data_BaVZnF7
_symmetry_space_group_name_H-M   'P 1'
_cell_length_a   10.10558000
_cell_length_b   5.67138000
_cell_length_c   9.70025430
_cell_angle_alpha   87.17250215
_cell_angle_beta   90.00000000
_cell_angle_gamma   90.00000000
_symmetry_Int_Tables_number   1
_chemical_formula_structural   BaVZnF7
_chemical_formula_sum   'Ba4 V4 Zn4 F28'
_cell_volume   555.26982080
_cell_formula_units_Z   4
loop_
 _symmetry_equiv_pos_site_id
 _symmetry_equiv_pos_as_xyz
  1  'x, y, z'
loop_
 _atom_site_type_symbol
 _atom_site_label
 _atom_site_symmetry_multiplicity
 _atom_site_fract_x
 _atom_site_fract_y
 _atom_site_fract_z
 _atom_site_occupancy
  Ba  Ba0  1  0.31830200  0.73847500  0.49854100  1
  Ba  Ba1  1  0.81830200  0.26152500  0.00145900  1
  Ba  Ba2  1  0.68169800  0.26152500  0.50145900  1
  Ba  Ba3  1  0.18169800  0.73847500  0.99854100  1
  V  V0  1  0.61182300  0.80512400  0.81072500  1
  V  V1  1  0.38817700  0.19487600  0.18927500  1
  V  V2  1  0.88817700  0.80512400  0.31072500  1
  V  V3  1  0.11182300  0.19487600  0.68927500  1
  Zn  Zn0  1  0.39946000  0.30350300  0.81070400  1
  Zn  Zn1  1  0.89946000  0.69649700  0.68929600  1
  Zn  Zn2  1  0.10054000  0.30350300  0.31070400  1
  Zn  Zn3  1  0.60054000  0.69649700  0.18929600  1
  F  F0  1  0.44229100  0.88764400  0.12060500  1
  F  F1  1  0.05354600  0.63581200  0.37159000  1
  F  F2  1  0.70798700  0.52094700  0.75360600  1
  F  F3  1  0.29201300  0.47905300  0.24639400  1
  F  F4  1  0.45911000  0.11027000  0.36768500  1
  F  F5  1  0.80778800  0.74118000  0.49769100  1
  F  F6  1  0.77911100  0.97870700  0.75074400  1
  F  F7  1  0.95911000  0.88973000  0.13231500  1
  F  F8  1  0.44645400  0.63581200  0.87159000  1
  F  F9  1  0.20798700  0.47905300  0.74639400  1
  F  F10  1  0.05770900  0.88764400  0.62060500  1
  F  F11  1  0.55770900  0.11235600  0.87939500  1
  F  F12  1  0.27911100  0.02129300  0.74925600  1
  F  F13  1  0.95823900  0.61146400  0.87592400  1
  F  F14  1  0.54089000  0.88973000  0.63231500  1
  F  F15  1  0.04089000  0.11027000  0.86768500  1
  F  F16  1  0.22088900  0.02129300  0.24925600  1
  F  F17  1  0.94229100  0.11235600  0.37939500  1
  F  F18  1  0.45823900  0.38853600  0.62407600  1
  F  F19  1  0.94645400  0.36418800  0.62841000  1
  F  F20  1  0.04176100  0.38853600  0.12407600  1
  F  F21  1  0.72088900  0.97870700  0.25074400  1
  F  F22  1  0.54176100  0.61146400  0.37592400  1
  F  F23  1  0.30778800  0.25882000  0.00230900  1
  F  F24  1  0.19221200  0.25882000  0.50230900  1
  F  F25  1  0.69221200  0.74118000  0.99769100  1
  F  F26  1  0.55354600  0.36418800  0.12841000  1
  F  F27  1  0.79201300  0.52094700  0.25360600  1
loop_
_geom_bond_atom_site_label_1
_geom_bond_atom_site_label_2
_geom_bond_distance
_geom_bond_site_symmetry_2
Ba0 F22 2.667864 1_555
Ba0 F18 2.680113 1_555
Ba0 F14 2.754863 1_555
Ba0 F4 2.796084 1_565
Ba0 F3 2.927909 1_555
Ba0 F9 2.973014 1_555
Ba0 F16 3.001079 1_565
Ba0 F24 3.002534 1_555
Ba0 F12 3.004836 1_565
Ba0 F1 3.014067 1_555
Ba0 F10 3.025150 1_555
Ba0 F24 3.216276 1_565
Ba1 F20 2.667864 1_655
Ba1 F13 2.680113 1_554
Ba1 F15 2.754863 1_654
Ba1 F7 2.796084 1_545
Ba1 F27 2.927909 1_555
Ba1 F2 2.973014 1_554
Ba1 F21 3.001079 1_545
Ba1 F25 3.002534 1_554
Ba1 F6 3.004836 1_544
Ba1 F26 3.014067 1_555
Ba1 F11 3.025150 1_554
Ba1 F25 3.216276 1_544
Ba2 F18 2.667864 1_555
Ba2 F22 2.680113 1_555
Ba2 F4 2.754863 1_555
Ba2 F14 2.796084 1_545
Ba2 F2 2.927909 1_555
Ba2 F27 2.973014 1_555
Ba2 F6 3.001079 1_545
Ba2 F5 3.002534 1_555
Ba2 F21 3.004836 1_545
Ba2 F19 3.014067 1_555
Ba2 F17 3.025150 1_555
Ba2 F5 3.216276 1_545
Ba3 F13 2.667864 1_455
Ba3 F20 2.680113 1_556
Ba3 F7 2.754863 1_456
Ba3 F15 2.796084 1_565
Ba3 F9 2.927909 1_555
Ba3 F3 2.973014 1_556
Ba3 F12 3.001079 1_565
Ba3 F23 3.002534 1_556
Ba3 F16 3.004836 1_566
Ba3 F8 3.014067 1_555
Ba3 F0 3.025150 1_556
Ba3 F23 3.216276 1_566
F0 V1 1.973152 1_565
F0 Zn3 2.026167 1_555
F1 V2 2.001858 1_455
F1 Zn2 2.058173 1_555
F2 V0 1.984181 1_555
F2 Zn1 2.250141 1_555
F3 V1 1.984181 1_555
F3 Zn2 2.250141 1_555
F4 V1 1.912380 1_555
F5 V2 2.003944 1_555
F5 Zn1 2.080967 1_555
F6 V0 2.027092 1_555
F6 Zn1 2.119011 1_555
F7 V2 1.912380 1_555
F8 V0 2.001858 1_555
F8 Zn0 2.058173 1_555
F9 V3 1.984181 1_555
F9 Zn0 2.250141 1_555
F10 V3 1.973152 1_565
F10 Zn1 2.026167 1_455
F11 V0 1.973152 1_545
F11 Zn0 2.026167 1_555
F12 V3 2.027092 1_555
F12 Zn0 2.119011 1_555
F13 Zn1 1.943346 1_555
F14 V0 1.912380 1_555
F15 V3 1.912380 1_555
F16 V1 2.027092 1_555
F16 Zn2 2.119011 1_555
F17 V2 1.973152 1_545
F17 Zn2 2.026167 1_655
F18 Zn0 1.943346 1_555
F19 V3 2.001858 1_655
F19 Zn1 2.058173 1_555
F20 Zn2 1.943346 1_555
F21 V2 2.027092 1_555
F21 Zn3 2.119011 1_555
F22 Zn3 1.943346 1_555
F23 V1 2.003944 1_555
F23 Zn0 2.080967 1_554
F24 V3 2.003944 1_555
F24 Zn2 2.080967 1_555
F25 V0 2.003944 1_555
F25 Zn3 2.080967 1_556
F26 V1 2.001858 1_555
F26 Zn3 2.058173 1_555
F27 V2 1.984181 1_555
F27 Zn3 2.250141 1_555
