# generated using pymatgen
data_Mg15Zn
_symmetry_space_group_name_H-M   'P 1'
_cell_length_a   6.30594217
_cell_length_b   6.30594217
_cell_length_c   10.09716830
_cell_angle_alpha   90.00000000
_cell_angle_beta   90.00000000
_cell_angle_gamma   119.99999231
_symmetry_Int_Tables_number   1
_chemical_formula_structural   Mg15Zn
_chemical_formula_sum   'Mg15 Zn1'
_cell_volume   347.72044551
_cell_formula_units_Z   1
loop_
 _symmetry_equiv_pos_site_id
 _symmetry_equiv_pos_as_xyz
  1  'x, y, z'
loop_
 _atom_site_type_symbol
 _atom_site_label
 _atom_site_symmetry_multiplicity
 _atom_site_fract_x
 _atom_site_fract_y
 _atom_site_fract_z
 _atom_site_occupancy
  Mg  Mg0  1  0.00000000  -0.00000000  0.50000000  1
  Mg  Mg1  1  0.49872666  0.99745332  0.00000000  1
  Mg  Mg2  1  0.50091661  0.00183422  0.50000000  1
  Mg  Mg3  1  0.49872666  0.50127334  0.00000000  1
  Mg  Mg4  1  0.50091661  0.49908339  0.50000000  1
  Mg  Mg5  1  0.00254668  0.50127334  0.00000000  1
  Mg  Mg6  1  0.99816578  0.49908339  0.50000000  1
  Mg  Mg7  1  0.33047142  0.16523521  0.24302542  1
  Mg  Mg8  1  0.33047142  0.16523521  0.75697458  1
  Mg  Mg9  1  0.83476479  0.16523521  0.24302542  1
  Mg  Mg10  1  0.83476479  0.16523521  0.75697458  1
  Mg  Mg11  1  0.83476479  0.66952858  0.24302542  1
  Mg  Mg12  1  0.83476479  0.66952858  0.75697458  1
  Mg  Mg13  1  0.33333300  0.66666700  0.25223784  1
  Mg  Mg14  1  0.33333300  0.66666700  0.74776216  1
  Zn  Zn0  1  0.00000000  -0.00000000  0.00000000  1
loop_
_geom_bond_atom_site_label_1
_geom_bond_atom_site_label_2
_geom_bond_distance
_geom_bond_site_symmetry_2
Mg0 Mg2 3.152984 1_555
Mg0 Mg6 3.152984 1_445
Mg0 Mg4 3.152987 1_555
Mg0 Mg4 3.152987 1_445
Mg0 Mg2 3.152990 1_455
Mg0 Mg6 3.152990 1_455
Mg0 Mg9 3.160635 1_455
Mg0 Mg10 3.160635 1_455
Mg0 Mg7 3.160638 1_555
Mg0 Mg11 3.160638 1_445
Mg0 Mg12 3.160638 1_445
Mg0 Mg8 3.160638 1_555
Mg1 Mg8 3.064179 1_564
Mg1 Mg7 3.064179 1_565
Mg1 Mg10 3.064182 1_564
Mg1 Mg9 3.064182 1_565
Mg1 Mg14 3.122488 1_554
Mg1 Mg13 3.122488 1_555
Mg1 Mg3 3.128882 1_555
Mg1 Mg5 3.128883 1_555
Mg1 Zn0 3.153002 1_565
Mg1 Zn0 3.153002 1_665
Mg1 Mg3 3.177060 1_565
Mg1 Mg5 3.177060 1_665
Mg2 Mg4 3.135625 1_555
Mg2 Mg6 3.135625 1_555
Mg2 Mg4 3.170318 1_545
Mg2 Mg6 3.170318 1_445
Mg2 Mg7 3.171276 1_555
Mg2 Mg8 3.171276 1_555
Mg2 Mg9 3.171282 1_555
Mg3 Mg7 3.064182 1_555
Mg3 Mg8 3.064182 1_554
Mg3 Mg5 3.128882 1_555
Mg3 Zn0 3.153002 1_555
Mg3 Zn0 3.153002 1_665
Mg3 Mg5 3.177060 1_655
Mg4 Mg6 3.135625 1_555
Mg4 Mg6 3.170318 1_455
Mg4 Mg8 3.171282 1_555
Mg4 Mg7 3.171282 1_555
Mg5 Mg9 3.064182 1_455
Mg5 Zn0 3.153002 1_565
Mg5 Zn0 3.153002 1_555
Mg6 Mg9 3.171282 1_555
Mg7 Zn0 3.046072 1_555
Mg7 Mg9 3.125897 1_455
Mg7 Mg9 3.180045 1_555
Mg8 Zn0 3.046072 1_556
Mg9 Zn0 3.046069 1_655
Mg10 Zn0 3.046069 1_656
Mg10 Mg5 3.064182 1_656
Mg10 Mg12 3.125897 1_545
Mg10 Mg8 3.125897 1_655
Mg10 Mg14 3.154382 1_545
Mg10 Mg14 3.154382 1_655
Mg10 Mg6 3.171282 1_555
Mg10 Mg2 3.171282 1_555
Mg10 Mg8 3.180045 1_555
Mg10 Mg12 3.180045 1_555
Mg11 Zn0 3.046072 1_665
Mg11 Mg5 3.064179 1_655
Mg11 Mg3 3.064182 1_555
Mg11 Mg9 3.125897 1_565
Mg11 Mg7 3.125898 1_665
Mg11 Mg13 3.154375 1_655
Mg11 Mg13 3.154388 1_555
Mg11 Mg6 3.171276 1_555
Mg11 Mg4 3.171282 1_555
Mg11 Mg9 3.180045 1_555
Mg11 Mg7 3.180045 1_555
Mg12 Zn0 3.046072 1_666
Mg12 Mg5 3.064179 1_656
Mg12 Mg3 3.064182 1_556
Mg12 Mg8 3.125898 1_665
Mg12 Mg14 3.154375 1_655
Mg12 Mg14 3.154388 1_555
Mg12 Mg6 3.171276 1_555
Mg12 Mg4 3.171282 1_555
Mg12 Mg8 3.180045 1_555
Mg13 Mg4 3.099805 1_555
Mg13 Mg6 3.099805 1_455
Mg13 Mg2 3.099805 1_565
Mg13 Mg5 3.122488 1_555
Mg13 Mg3 3.122491 1_555
Mg13 Mg7 3.154375 1_565
Mg13 Mg9 3.154382 1_455
Mg13 Mg9 3.154382 1_565
Mg13 Mg7 3.154388 1_555
Mg14 Mg4 3.099805 1_555
Mg14 Mg6 3.099805 1_455
Mg14 Mg2 3.099805 1_565
Mg14 Mg5 3.122488 1_556
Mg14 Mg3 3.122491 1_556
Mg14 Mg8 3.154375 1_565
Mg14 Mg8 3.154388 1_555
