# generated using pymatgen
data_Sr10Cu(RuO5)4
_symmetry_space_group_name_H-M   'P 1'
_cell_length_a   8.88667462
_cell_length_b   8.88667462
_cell_length_c   8.88667462
_cell_angle_alpha   121.33064908
_cell_angle_beta   121.33064908
_cell_angle_gamma   87.71029690
_symmetry_Int_Tables_number   1
_chemical_formula_structural   Sr10Cu(RuO5)4
_chemical_formula_sum   'Sr10 Cu1 Ru4 O20'
_cell_volume   485.85019297
_cell_formula_units_Z   1
loop_
 _symmetry_equiv_pos_site_id
 _symmetry_equiv_pos_as_xyz
  1  'x, y, z'
loop_
 _atom_site_type_symbol
 _atom_site_label
 _atom_site_symmetry_multiplicity
 _atom_site_fract_x
 _atom_site_fract_y
 _atom_site_fract_z
 _atom_site_occupancy
  Sr  Sr0  1  0.75709800  0.14652000  0.19534200  1
  Sr  Sr1  1  0.35113600  0.35113600  0.00000000  1
  Sr  Sr2  1  0.95117800  0.56175500  0.80465800  1
  Sr  Sr3  1  0.56175500  0.75709800  0.61057700  1
  Sr  Sr4  1  0.14652000  0.95117800  0.38942300  1
  Sr  Sr5  1  0.64886400  0.64886400  0.00000000  1
  Sr  Sr6  1  0.24290200  0.85348000  0.80465800  1
  Sr  Sr7  1  0.85348000  0.04882200  0.61057700  1
  Sr  Sr8  1  0.43824500  0.24290200  0.38942300  1
  Sr  Sr9  1  0.04882200  0.43824500  0.19534200  1
  Cu  Cu0  1  0.00000000  0.00000000  0.00000000  1
  Ru  Ru0  1  0.59614500  0.19979400  0.79593900  1
  Ru  Ru1  1  0.19979400  0.40385500  0.60364800  1
  Ru  Ru2  1  0.80020600  0.59614500  0.39635200  1
  Ru  Ru3  1  0.40385500  0.80020600  0.20406100  1
  O  O0  1  0.56264200  0.96179600  0.20009500  1
  O  O1  1  0.16226900  0.16226900  0.00000000  1
  O  O2  1  0.76170100  0.36254700  0.79990500  1
  O  O3  1  0.36254700  0.56264200  0.60084600  1
  O  O4  1  0.96179600  0.76170100  0.39915400  1
  O  O5  1  0.83773100  0.83773100  0.00000000  1
  O  O6  1  0.43735800  0.03820400  0.79990500  1
  O  O7  1  0.03820400  0.23829900  0.60084600  1
  O  O8  1  0.63745300  0.43735800  0.39915400  1
  O  O9  1  0.23829900  0.63745300  0.20009500  1
  O  O10  1  0.69534300  0.39592400  0.09126700  1
  O  O11  1  0.30465700  0.60407600  0.90873300  1
  O  O12  1  0.89625900  0.79243500  0.68869400  1
  O  O13  1  0.50000000  0.00000000  0.50000000  1
  O  O14  1  0.10374100  0.20756500  0.31130600  1
  O  O15  1  0.00000000  0.50000000  0.50000000  1
  O  O16  1  0.60407600  0.69534300  0.29942000  1
  O  O17  1  0.20756500  0.89625900  0.10382400  1
  O  O18  1  0.79243500  0.10374100  0.89617600  1
  O  O19  1  0.39592400  0.30465700  0.70058000  1
loop_
_geom_bond_atom_site_label_1
_geom_bond_atom_site_label_2
_geom_bond_distance
_geom_bond_site_symmetry_2
Cu0 O14 2.020506 1_555
Cu0 O18 2.020506 1_454
Cu0 O12 2.020506 1_444
Cu0 O17 2.020506 1_545
Cu0 O5 2.079680 1_445
Cu0 O1 2.079680 1_555
O0 Ru3 2.078646 1_555
O0 Sr0 2.461194 1_565
O0 Sr5 2.754393 1_555
O0 Sr8 2.763332 1_565
O0 Sr6 2.768765 1_554
O0 Sr7 2.829467 1_565
O1 Sr1 2.420567 1_555
O1 Sr6 2.690656 1_544
O1 Sr9 2.690661 1_555
O1 Sr7 2.690661 1_454
O1 Sr8 2.690665 1_555
O2 Ru0 2.078646 1_555
O2 Sr2 2.461188 1_555
O2 Sr5 2.754393 1_556
O2 Sr7 2.763338 1_555
O2 Sr9 2.768761 1_656
O2 Sr8 2.829464 1_555
O3 Ru1 2.078639 1_555
O3 Sr3 2.461194 1_555
O3 Sr5 2.754393 1_556
O3 Sr9 2.763338 1_555
O3 Sr8 2.768767 1_555
O3 Sr6 2.829473 1_555
O4 Ru2 2.078652 1_555
O4 Sr4 2.461188 1_655
O4 Sr5 2.754393 1_555
O4 Sr6 2.763335 1_655
O4 Sr7 2.768761 1_565
O4 Sr9 2.829467 1_655
O5 Sr5 2.420567 1_555
O5 Sr0 2.690656 1_565
O5 Sr4 2.690661 1_655
O5 Sr2 2.690661 1_554
O5 Sr3 2.690665 1_554
O6 Ru0 2.078646 1_555
O6 Sr6 2.461194 1_545
O6 Sr1 2.754393 1_556
O6 Sr3 2.763332 1_545
O6 Sr0 2.768765 1_556
O6 Sr4 2.829467 1_545
O7 Ru1 2.078652 1_555
O7 Sr7 2.461188 1_455
O7 Sr1 2.754393 1_556
O7 Sr0 2.763335 1_455
O7 Sr4 2.768761 1_545
O7 Sr2 2.829467 1_455
O8 Ru2 2.078639 1_555
O8 Sr8 2.461194 1_555
O8 Sr1 2.754393 1_555
O8 Sr2 2.763338 1_555
O8 Sr3 2.768767 1_555
O8 Sr0 2.829473 1_555
O9 Ru3 2.078646 1_555
O9 Sr9 2.461188 1_555
O9 Sr1 2.754393 1_555
O9 Sr4 2.763338 1_555
O9 Sr2 2.768761 1_454
O9 Sr3 2.829464 1_555
O10 Ru0 1.913779 1_554
O10 Ru2 1.968033 1_555
O10 Sr1 2.711894 1_555
O10 Sr5 2.711894 1_555
O10 Sr0 2.752385 1_555
O10 Sr9 2.752385 1_655
O11 Ru3 1.913779 1_556
O11 Ru1 1.968033 1_555
O11 Sr1 2.711894 1_556
O11 Sr5 2.711894 1_556
O11 Sr6 2.752385 1_555
O11 Sr2 2.752385 1_455
O12 Ru2 1.902822 1_555
O12 Sr6 2.663934 1_655
O12 Sr2 2.663942 1_555
O12 Sr3 2.668124 1_555
O12 Sr7 2.668124 1_565
O13 Ru3 1.930627 1_545
O13 Ru0 1.930627 1_555
O13 Sr8 2.734363 1_555
O13 Sr3 2.734363 1_545
O13 Sr4 2.734372 1_545
O13 Sr7 2.734372 1_555
O14 Ru1 1.902822 1_555
O14 Sr0 2.663934 1_455
O14 Sr9 2.663942 1_555
O14 Sr8 2.668124 1_555
O14 Sr4 2.668124 1_545
O15 Ru2 1.930625 1_455
O15 Ru1 1.930625 1_555
O15 Sr6 2.734369 1_555
O15 Sr0 2.734369 1_455
O15 Sr9 2.734372 1_555
O15 Sr2 2.734372 1_455
O16 Ru2 1.913779 1_555
O16 Ru3 1.968029 1_555
O16 Sr1 2.711894 1_555
O16 Sr5 2.711903 1_555
O16 Sr3 2.752374 1_555
O16 Sr7 2.752385 1_565
O17 Ru3 1.902827 1_555
O17 Sr8 2.663936 1_565
O17 Sr4 2.663942 1_555
O17 Sr6 2.668118 1_554
O17 Sr2 2.668124 1_454
O18 Ru0 1.902827 1_555
O18 Sr3 2.663936 1_545
O18 Sr7 2.663942 1_555
O18 Sr0 2.668118 1_556
O18 Sr9 2.668124 1_656
O19 Ru1 1.913779 1_555
O19 Ru0 1.968029 1_555
O19 Sr5 2.711894 1_556
O19 Sr1 2.711903 1_556
O19 Sr8 2.752374 1_555
O19 Sr4 2.752385 1_545
