# generated using pymatgen
data_KNa2WN3
_symmetry_space_group_name_H-M   'P 1'
_cell_length_a   6.30960548
_cell_length_b   12.18346664
_cell_length_c   12.52177220
_cell_angle_alpha   90.00000000
_cell_angle_beta   90.00000000
_cell_angle_gamma   90.00000000
_symmetry_Int_Tables_number   1
_chemical_formula_structural   KNa2WN3
_chemical_formula_sum   'K8 Na16 W8 N24'
_cell_volume   962.58453992
_cell_formula_units_Z   8
loop_
 _symmetry_equiv_pos_site_id
 _symmetry_equiv_pos_as_xyz
  1  'x, y, z'
loop_
 _atom_site_type_symbol
 _atom_site_label
 _atom_site_symmetry_multiplicity
 _atom_site_fract_x
 _atom_site_fract_y
 _atom_site_fract_z
 _atom_site_occupancy
  K  K0  1  0.37639035  0.24927755  0.69864058  1
  K  K1  1  0.62360965  0.74927755  0.30135942  1
  K  K2  1  0.37639035  0.74927755  0.80135942  1
  K  K3  1  0.62360965  0.24927755  0.19864058  1
  K  K4  1  0.94062755  0.49682493  0.01083638  1
  K  K5  1  0.05937245  0.99682493  0.98916362  1
  K  K6  1  0.05937245  0.49682493  0.51083638  1
  K  K7  1  0.94062755  0.99682493  0.48916362  1
  Na  Na0  1  0.84610242  0.24905368  0.62000540  1
  Na  Na1  1  0.15389758  0.74905368  0.37999460  1
  Na  Na2  1  0.84610242  0.74905368  0.87999460  1
  Na  Na3  1  0.15389758  0.24905368  0.12000540  1
  Na  Na4  1  0.51440136  0.37517546  0.96324301  1
  Na  Na5  1  0.48559864  0.87517546  0.03675699  1
  Na  Na6  1  0.54224538  0.62310273  0.53472333  1
  Na  Na7  1  0.45775462  0.12310273  0.46527667  1
  Na  Na8  1  0.45775462  0.62310273  0.03472333  1
  Na  Na9  1  0.54224538  0.12310273  0.96527667  1
  Na  Na10  1  0.48559864  0.37517546  0.46324301  1
  Na  Na11  1  0.51440136  0.87517546  0.53675699  1
  Na  Na12  1  0.23185988  0.50032366  0.76035795  1
  Na  Na13  1  0.76814012  0.00032366  0.23964205  1
  Na  Na14  1  0.76814012  0.50032366  0.26035795  1
  Na  Na15  1  0.23185988  0.00032366  0.73964205  1
  W  W0  1  0.97564234  0.25052922  0.88129336  1
  W  W1  1  0.02435766  0.75052922  0.11870664  1
  W  W2  1  0.97564234  0.75052922  0.61870664  1
  W  W3  1  0.02435766  0.25052922  0.38129336  1
  W  W4  1  0.72366809  0.49984830  0.74938626  1
  W  W5  1  0.27633191  0.99984830  0.25061374  1
  W  W6  1  0.27633191  0.49984830  0.24938626  1
  W  W7  1  0.72366809  0.99984830  0.75061374  1
  N  N0  1  0.91076530  0.38133053  0.79600940  1
  N  N1  1  0.08923470  0.88133053  0.20399060  1
  N  N2  1  0.90544588  0.61891316  0.70089461  1
  N  N3  1  0.09455412  0.11891316  0.29910539  1
  N  N4  1  0.09455412  0.61891316  0.20089461  1
  N  N5  1  0.90544588  0.11891316  0.79910539  1
  N  N6  1  0.08923470  0.38133053  0.29600940  1
  N  N7  1  0.91076530  0.88133053  0.70399060  1
  N  N8  1  0.82920650  0.25405410  0.00725774  1
  N  N9  1  0.17079350  0.75405410  0.99274226  1
  N  N10  1  0.82920650  0.75405410  0.49274226  1
  N  N11  1  0.17079350  0.25405410  0.50725774  1
  N  N12  1  0.54579489  0.45302685  0.64222449  1
  N  N13  1  0.45420511  0.95302685  0.35777551  1
  N  N14  1  0.56001278  0.54807402  0.86152279  1
  N  N15  1  0.43998722  0.04807402  0.13847721  1
  N  N16  1  0.43998722  0.54807402  0.36152279  1
  N  N17  1  0.56001278  0.04807402  0.63847721  1
  N  N18  1  0.45420511  0.45302685  0.14222449  1
  N  N19  1  0.54579489  0.95302685  0.85777551  1
  N  N20  1  0.25747932  0.24566580  0.91524834  1
  N  N21  1  0.74252068  0.74566580  0.08475166  1
  N  N22  1  0.25747932  0.74566580  0.58475166  1
  N  N23  1  0.74252068  0.24566580  0.41524834  1
loop_
_geom_bond_atom_site_label_1
_geom_bond_atom_site_label_2
_geom_bond_distance
_geom_bond_site_symmetry_2
K0 N11 2.725654 1_555
K0 N12 2.793513 1_555
K0 N17 2.814073 1_555
K0 N20 2.814516 1_555
K1 N10 2.725654 1_555
K1 N13 2.793513 1_555
K1 N16 2.814073 1_555
K1 N21 2.814516 1_555
K2 N9 2.725654 1_555
K2 N19 2.793513 1_555
K2 N14 2.814073 1_555
K2 N22 2.814516 1_555
K3 N8 2.725654 1_555
K3 N18 2.793513 1_555
K3 N15 2.814073 1_555
K3 N23 2.814516 1_555
K4 N4 2.969773 1_655
K4 N8 3.040522 1_555
K4 N0 3.041656 1_554
K4 N14 3.106908 1_554
K5 N5 2.969773 1_465
K5 N9 3.040522 1_555
K5 N1 3.041656 1_556
K5 N15 3.106908 1_566
K6 N2 2.969773 1_455
K6 N11 3.040522 1_555
K6 N6 3.041656 1_555
K6 N16 3.106908 1_555
K7 N3 2.969773 1_665
K7 N10 3.040522 1_555
K7 N7 3.041656 1_555
K7 N17 3.106908 1_565
N0 W4 1.954340 1_555
N0 W0 1.961528 1_555
N0 Na12 2.530940 1_655
N0 Na0 2.760576 1_555
N1 W5 1.954340 1_555
N1 W1 1.961528 1_555
N1 Na13 2.530940 1_465
N1 Na1 2.760576 1_555
N2 W4 1.946403 1_555
N2 W2 1.956180 1_555
N2 Na12 2.623674 1_655
N2 Na2 2.771946 1_555
N3 W5 1.946403 1_545
N3 W3 1.956180 1_555
N3 Na13 2.623674 1_455
N3 Na3 2.771946 1_555
N4 W6 1.946403 1_555
N4 W1 1.956180 1_555
N4 Na14 2.623674 1_455
N4 Na1 2.771946 1_555
N5 W7 1.946403 1_545
N5 W0 1.956180 1_555
N5 Na15 2.623674 1_655
N5 Na0 2.771946 1_555
N6 W6 1.954340 1_555
N6 W3 1.961528 1_555
N6 Na14 2.530940 1_455
N6 Na3 2.760576 1_555
N7 W7 1.954340 1_555
N7 W2 1.961528 1_555
N7 Na15 2.530940 1_665
N7 Na2 2.760576 1_555
N8 W0 1.828496 1_554
N8 Na9 2.469835 1_554
N8 Na3 2.488765 1_655
N8 Na4 2.535105 1_554
N9 W1 1.828496 1_556
N9 Na8 2.469835 1_556
N9 Na2 2.488765 1_455
N9 Na5 2.535105 1_556
N10 W2 1.828496 1_555
N10 Na6 2.469835 1_555
N10 Na1 2.488765 1_655
N10 Na11 2.535105 1_555
N11 W3 1.828496 1_555
N11 Na7 2.469835 1_555
N11 Na0 2.488765 1_455
N11 Na10 2.535105 1_555
N12 W4 1.839991 1_555
N12 Na10 2.463074 1_555
N12 Na6 2.471064 1_555
N12 Na12 2.538463 1_555
N13 W5 1.839991 1_555
N13 Na11 2.463074 1_555
N13 Na7 2.471064 1_565
N13 Na13 2.538463 1_565
N14 W4 1.839325 1_555
N14 Na8 2.440387 1_556
N14 Na4 2.478414 1_555
N14 Na12 2.496031 1_555
N14 Na2 3.050855 1_555
N15 W5 1.839325 1_545
N15 Na9 2.440387 1_554
N15 Na5 2.478414 1_545
N15 Na13 2.496031 1_555
N15 Na3 3.050855 1_555
N16 W6 1.839325 1_555
N16 Na6 2.440387 1_555
N16 Na10 2.478414 1_555
N16 Na14 2.496031 1_555
N16 Na1 3.050855 1_555
N17 W7 1.839325 1_545
N17 Na7 2.440387 1_555
N17 Na11 2.478414 1_545
N17 Na15 2.496031 1_555
N17 Na0 3.050855 1_555
N18 W6 1.839991 1_555
N18 Na4 2.463074 1_554
N18 Na8 2.471064 1_555
N18 Na14 2.538463 1_555
N19 W7 1.839991 1_555
N19 Na5 2.463074 1_556
N19 Na9 2.471064 1_565
N19 Na15 2.538463 1_565
N20 W0 1.829362 1_455
N20 Na4 2.340675 1_555
N20 Na9 2.418793 1_555
N20 Na3 2.646231 1_556
N21 W1 1.829362 1_655
N21 Na5 2.340675 1_555
N21 Na8 2.418793 1_555
N21 Na2 2.646231 1_554
N22 W2 1.829362 1_455
N22 Na11 2.340675 1_555
N22 Na6 2.418793 1_555
N22 Na1 2.646231 1_555
N23 W3 1.829362 1_655
N23 Na10 2.340675 1_555
N23 Na7 2.418793 1_555
N23 Na0 2.646231 1_555
