# generated using pymatgen
data_Mg3Ga3N5
_symmetry_space_group_name_H-M   'P 1'
_cell_length_a   5.67364029
_cell_length_b   6.73430575
_cell_length_c   8.26642304
_cell_angle_alpha   108.52779741
_cell_angle_beta   104.50621106
_cell_angle_gamma   94.83784276
_symmetry_Int_Tables_number   1
_chemical_formula_structural   Mg3Ga3N5
_chemical_formula_sum   'Mg6 Ga6 N10'
_cell_volume   285.26561079
_cell_formula_units_Z   2
loop_
 _symmetry_equiv_pos_site_id
 _symmetry_equiv_pos_as_xyz
  1  'x, y, z'
loop_
 _atom_site_type_symbol
 _atom_site_label
 _atom_site_symmetry_multiplicity
 _atom_site_fract_x
 _atom_site_fract_y
 _atom_site_fract_z
 _atom_site_occupancy
  Mg  Mg0  1  0.85435500  0.42232400  0.61116400  1
  Mg  Mg1  1  0.14564500  0.57767600  0.38883600  1
  Mg  Mg2  1  0.72094900  0.88520400  0.94896600  1
  Mg  Mg3  1  0.27905100  0.11479600  0.05103400  1
  Mg  Mg4  1  0.58783000  0.51503600  0.24689800  1
  Mg  Mg5  1  0.41217000  0.48496400  0.75310200  1
  Ga  Ga0  1  0.86963700  0.31175600  0.96846100  1
  Ga  Ga1  1  0.13036300  0.68824400  0.03153900  1
  Ga  Ga2  1  0.69304200  0.92232300  0.57811300  1
  Ga  Ga3  1  0.30695800  0.07767700  0.42188700  1
  Ga  Ga4  1  0.14194700  0.85477400  0.70294800  1
  Ga  Ga5  1  0.85805300  0.14522600  0.29705200  1
  N  N0  1  0.93047600  0.03829500  0.82125900  1
  N  N1  1  0.06952400  0.96170500  0.17874100  1
  N  N2  1  0.83527400  0.66384700  0.49451800  1
  N  N3  1  0.16472600  0.33615300  0.50548200  1
  N  N4  1  0.78885900  0.52818800  0.86067000  1
  N  N5  1  0.21114100  0.47181200  0.13933000  1
  N  N6  1  0.34347400  0.88401600  0.55684400  1
  N  N7  1  0.65652600  0.11598400  0.44315500  1
  N  N8  1  0.33330400  0.77089100  0.89558400  1
  N  N9  1  0.66669600  0.22910900  0.10441600  1
loop_
_geom_bond_atom_site_label_1
_geom_bond_atom_site_label_2
_geom_bond_distance
_geom_bond_site_symmetry_2
Mg0 N4 2.096305 1_555
Mg0 N7 2.110024 1_555
Mg0 N2 2.135670 1_555
Mg0 N3 2.195834 1_655
Mg1 N5 2.096305 1_555
Mg1 N6 2.110022 1_555
Mg1 N3 2.135670 1_555
Mg1 N2 2.195834 1_455
Mg2 N8 2.153334 1_555
Mg2 N0 2.168919 1_565
Mg2 N1 2.260273 1_656
Mg2 N9 2.353024 1_566
Mg2 N4 2.375609 1_555
Mg3 N9 2.153334 1_555
Mg3 N1 2.168919 1_545
Mg3 N0 2.260273 1_454
Mg3 N8 2.353024 1_544
Mg3 N5 2.375609 1_555
Mg4 N2 2.045619 1_555
Mg4 N5 2.054642 1_555
Mg4 N9 2.064733 1_555
Mg5 N3 2.045619 1_555
Mg5 N4 2.054642 1_555
Mg5 N8 2.064733 1_555
Ga0 N9 1.958647 1_556
Ga0 N4 1.965154 1_555
Ga0 N0 1.970965 1_555
Ga0 N5 2.054311 1_656
Ga1 N8 1.958647 1_554
Ga1 N5 1.965154 1_555
Ga1 N1 1.970965 1_555
Ga1 N4 2.054311 1_454
Ga2 N6 1.934222 1_555
Ga2 N7 1.960319 1_565
Ga2 N2 1.977488 1_555
Ga2 N0 1.983188 1_565
Ga3 N7 1.934224 1_555
Ga3 N6 1.960313 1_545
Ga3 N3 1.977488 1_555
Ga3 N1 1.983188 1_545
Ga4 N6 1.899943 1_555
Ga4 N8 1.960261 1_555
Ga4 N0 1.998313 1_465
Ga4 N2 2.088573 1_455
Ga5 N7 1.899937 1_555
Ga5 N9 1.960261 1_555
Ga5 N1 1.998313 1_645
Ga5 N3 2.088573 1_655
