# generated using pymatgen
data_Cu4AsClO6
_symmetry_space_group_name_H-M   'P 1'
_cell_length_a   5.50402100
_cell_length_b   10.30608000
_cell_length_c   11.33269300
_cell_angle_alpha   90.00000000
_cell_angle_beta   90.00000000
_cell_angle_gamma   90.00000000
_symmetry_Int_Tables_number   1
_chemical_formula_structural   Cu4AsClO6
_chemical_formula_sum   'Cu16 As4 Cl4 O24'
_cell_volume   642.84565898
_cell_formula_units_Z   4
loop_
 _symmetry_equiv_pos_site_id
 _symmetry_equiv_pos_as_xyz
  1  'x, y, z'
loop_
 _atom_site_type_symbol
 _atom_site_label
 _atom_site_symmetry_multiplicity
 _atom_site_fract_x
 _atom_site_fract_y
 _atom_site_fract_z
 _atom_site_occupancy
  Cu  Cu0  1  0.23481900  0.54383600  0.05328700  1
  Cu  Cu1  1  0.76518100  0.45616400  0.94671300  1
  Cu  Cu2  1  0.76518100  0.04383600  0.94671300  1
  Cu  Cu3  1  0.76518100  0.95616400  0.55328700  1
  Cu  Cu4  1  0.23481900  0.95616400  0.05328700  1
  Cu  Cu5  1  0.23481900  0.04383600  0.44671300  1
  Cu  Cu6  1  0.23481900  0.45616400  0.44671300  1
  Cu  Cu7  1  0.76518100  0.54383600  0.55328700  1
  Cu  Cu8  1  0.03273000  0.75000000  0.85315500  1
  Cu  Cu9  1  0.96727000  0.25000000  0.14684500  1
  Cu  Cu10  1  0.96727000  0.75000000  0.35315500  1
  Cu  Cu11  1  0.03273000  0.25000000  0.64684500  1
  Cu  Cu12  1  0.14509300  0.75000000  0.58710800  1
  Cu  Cu13  1  0.85490700  0.25000000  0.41289200  1
  Cu  Cu14  1  0.85490700  0.75000000  0.08710800  1
  Cu  Cu15  1  0.14509300  0.25000000  0.91289200  1
  As  As0  1  0.32475900  0.50000000  0.75000000  1
  As  As1  1  0.67524100  0.50000000  0.25000000  1
  As  As2  1  0.67524100  0.00000000  0.25000000  1
  As  As3  1  0.32475900  0.00000000  0.75000000  1
  Cl  Cl0  1  0.61918700  0.75000000  0.59867800  1
  Cl  Cl1  1  0.38081300  0.25000000  0.40132200  1
  Cl  Cl2  1  0.38081300  0.75000000  0.09867800  1
  Cl  Cl3  1  0.61918700  0.25000000  0.90132200  1
  O  O0  1  0.12330000  0.62871700  0.72445600  1
  O  O1  1  0.87670000  0.37128300  0.27554400  1
  O  O2  1  0.87670000  0.12871700  0.27554400  1
  O  O3  1  0.87670000  0.87128300  0.22445600  1
  O  O4  1  0.12330000  0.87128300  0.72445600  1
  O  O5  1  0.12330000  0.12871700  0.77554400  1
  O  O6  1  0.12330000  0.37128300  0.77554400  1
  O  O7  1  0.87670000  0.62871700  0.22445600  1
  O  O8  1  0.04643400  0.11895600  0.02974700  1
  O  O9  1  0.95356600  0.88104400  0.97025300  1
  O  O10  1  0.95356600  0.61895600  0.97025300  1
  O  O11  1  0.95356600  0.38104400  0.52974700  1
  O  O12  1  0.04643400  0.38104400  0.02974700  1
  O  O13  1  0.04643400  0.61895600  0.47025300  1
  O  O14  1  0.04643400  0.88104400  0.47025300  1
  O  O15  1  0.95356600  0.11895600  0.52974700  1
  O  O16  1  0.48585800  0.53863800  0.87496400  1
  O  O17  1  0.51414200  0.46136200  0.12503600  1
  O  O18  1  0.51414200  0.03863800  0.12503600  1
  O  O19  1  0.51414200  0.96136200  0.37496400  1
  O  O20  1  0.48585800  0.96136200  0.87496400  1
  O  O21  1  0.48585800  0.03863800  0.62503600  1
  O  O22  1  0.48585800  0.46136200  0.62503600  1
  O  O23  1  0.51414200  0.53863800  0.37496400  1
loop_
_geom_bond_atom_site_label_1
_geom_bond_atom_site_label_2
_geom_bond_distance
_geom_bond_site_symmetry_2
Cu0 O17 1.935773 1_555
Cu0 O10 1.970083 1_454
Cu0 O12 1.990255 1_555
Cu0 O16 2.448670 1_554
Cu1 O16 1.935773 1_555
Cu1 O12 1.970083 1_656
Cu1 O10 1.990255 1_555
Cu1 O17 2.448670 1_556
Cu2 O20 1.935773 1_545
Cu2 O8 1.970083 1_656
Cu2 O9 1.990255 1_545
Cu2 O18 2.448670 1_556
Cu3 O21 1.935773 1_565
Cu3 O14 1.970083 1_655
Cu3 O15 1.990255 1_565
Cu3 O19 2.448670 1_555
Cu4 O18 1.935773 1_565
Cu4 O9 1.970083 1_454
Cu4 O8 1.990255 1_565
Cu4 O20 2.448670 1_554
Cu5 O19 1.935773 1_545
Cu5 O15 1.970083 1_455
Cu5 O14 1.990255 1_545
Cu5 O21 2.448670 1_555
Cu6 O23 1.935773 1_555
Cu6 O11 1.970083 1_455
Cu6 O13 1.990255 1_555
Cu6 O22 2.448670 1_555
Cu7 O22 1.935773 1_555
Cu7 O13 1.970083 1_655
Cu7 O11 1.990255 1_555
Cu7 O23 2.448670 1_555
Cu8 O9 1.942900 1_455
Cu8 O10 1.942900 1_455
Cu8 O4 1.984470 1_555
Cu8 O0 1.984470 1_555
Cu9 O12 1.942900 1_655
Cu9 O8 1.942900 1_655
Cu9 O2 1.984470 1_555
Cu9 O1 1.984470 1_555
Cu10 O14 1.942900 1_655
Cu10 O13 1.942900 1_655
Cu10 O3 1.984470 1_555
Cu10 O7 1.984470 1_555
Cu11 O11 1.942900 1_455
Cu11 O15 1.942900 1_455
Cu11 O6 1.984470 1_555
Cu11 O5 1.984470 1_555
Cu12 O14 1.967887 1_555
Cu12 O13 1.967887 1_555
Cu12 O4 1.999883 1_555
Cu12 O0 1.999883 1_555
Cu13 O11 1.967887 1_555
Cu13 O15 1.967887 1_555
Cu13 O1 1.999883 1_555
Cu13 O2 1.999883 1_555
Cu14 O9 1.967887 1_554
Cu14 O10 1.967887 1_554
Cu14 O3 1.999883 1_555
Cu14 O7 1.999883 1_555
Cu15 O12 1.967887 1_556
Cu15 O8 1.967887 1_556
Cu15 O5 1.999883 1_555
Cu15 O6 1.999883 1_555
As0 O16 1.717659 1_555
As0 O22 1.717659 1_555
As0 O0 1.753025 1_555
As0 O6 1.753025 1_555
As1 O23 1.717659 1_555
As1 O17 1.717659 1_555
As1 O7 1.753025 1_555
As1 O1 1.753025 1_555
As2 O19 1.717659 1_545
As2 O18 1.717659 1_555
As2 O2 1.753025 1_555
As2 O3 1.753025 1_545
As3 O20 1.717659 1_545
As3 O21 1.717659 1_555
As3 O5 1.753025 1_555
As3 O4 1.753025 1_545
Cl0 Cu3 2.329129 1_555
Cl0 Cu7 2.329129 1_555
Cl0 Cu12 2.612716 1_555
Cl0 Cu12 2.897566 1_655
Cl1 Cu6 2.329129 1_555
Cl1 Cu5 2.329129 1_555
Cl1 Cu13 2.612716 1_555
Cl1 Cu13 2.897566 1_455
Cl2 Cu4 2.329129 1_555
Cl2 Cu0 2.329129 1_555
Cl2 Cu14 2.612716 1_555
Cl2 Cu14 2.897566 1_455
Cl3 Cu1 2.329129 1_555
Cl3 Cu2 2.329129 1_555
Cl3 Cu15 2.612716 1_555
Cl3 Cu15 2.897566 1_655
