# generated using pymatgen
data_KThCuS3
_symmetry_space_group_name_H-M   'P 1'
_cell_length_a   7.35165578
_cell_length_b   7.35165578
_cell_length_c   10.58797400
_cell_angle_alpha   90.00000000
_cell_angle_beta   90.00000000
_cell_angle_gamma   147.68718010
_symmetry_Int_Tables_number   1
_chemical_formula_structural   KThCuS3
_chemical_formula_sum   'K2 Th2 Cu2 S6'
_cell_volume   305.88951649
_cell_formula_units_Z   2
loop_
 _symmetry_equiv_pos_site_id
 _symmetry_equiv_pos_as_xyz
  1  'x, y, z'
loop_
 _atom_site_type_symbol
 _atom_site_label
 _atom_site_symmetry_multiplicity
 _atom_site_fract_x
 _atom_site_fract_y
 _atom_site_fract_z
 _atom_site_occupancy
  K  K0  1  0.25569800  0.74430200  0.25000000  1
  K  K1  1  0.74430200  0.25569800  0.75000000  1
  Th  Th0  1  0.00000000  0.00000000  0.00000000  1
  Th  Th1  1  0.00000000  0.00000000  0.50000000  1
  Cu  Cu0  1  0.53038900  0.46961100  0.25000000  1
  Cu  Cu1  1  0.46961100  0.53038900  0.75000000  1
  S  S0  1  0.37622000  0.62378000  0.93074600  1
  S  S1  1  0.62378000  0.37622000  0.06925400  1
  S  S2  1  0.06434100  0.93565900  0.75000000  1
  S  S3  1  0.93565900  0.06434100  0.25000000  1
  S  S4  1  0.62378000  0.37622000  0.43074600  1
  S  S5  1  0.37622000  0.62378000  0.56925400  1
loop_
_geom_bond_atom_site_label_1
_geom_bond_atom_site_label_2
_geom_bond_distance
_geom_bond_site_symmetry_2
K0 S3 3.262531 1_455
K0 S3 3.262531 1_565
K0 S1 3.364229 1_565
K0 S4 3.364229 1_565
K0 S1 3.364229 1_455
K0 S4 3.364229 1_455
K1 S2 3.262531 1_545
K1 S2 3.262531 1_655
K1 S5 3.364229 1_545
K1 S0 3.364229 1_545
K1 S0 3.364229 1_655
K1 S5 3.364229 1_655
Cu0 S4 2.324208 1_555
Cu0 S1 2.324208 1_555
Cu0 S3 2.444297 1_455
Cu0 S3 2.444297 1_565
Cu1 S5 2.324208 1_555
Cu1 S0 2.324208 1_555
Cu1 S2 2.444297 1_655
Cu1 S2 2.444297 1_545
S0 Th0 2.788960 1_666
S0 Th0 2.788960 1_556
S1 Th0 2.788960 1_665
S1 Th0 2.788960 1_555
S2 Th0 2.798615 1_566
S2 Th1 2.798615 1_565
S3 Th0 2.798615 1_655
S3 Th1 2.798615 1_655
S4 Th1 2.788960 1_665
S4 Th1 2.788960 1_555
S5 Th1 2.788960 1_665
S5 Th1 2.788960 1_555
