# generated using pymatgen
data_Ca2Al2O5
_symmetry_space_group_name_H-M   'P 1'
_cell_length_a   8.18263960
_cell_length_b   8.18263960
_cell_length_c   8.18263960
_cell_angle_alpha   142.31503095
_cell_angle_beta   140.98667691
_cell_angle_gamma   55.36241838
_symmetry_Int_Tables_number   1
_chemical_formula_structural   Ca2Al2O5
_chemical_formula_sum   'Ca4 Al4 O10'
_cell_volume   209.28981750
_cell_formula_units_Z   2
loop_
 _symmetry_equiv_pos_site_id
 _symmetry_equiv_pos_as_xyz
  1  'x, y, z'
loop_
 _atom_site_type_symbol
 _atom_site_label
 _atom_site_symmetry_multiplicity
 _atom_site_fract_x
 _atom_site_fract_y
 _atom_site_fract_z
 _atom_site_occupancy
  Ca  Ca0  1  0.91794600  0.88842300  0.02162500  1
  Ca  Ca1  1  0.08205400  0.10367900  0.97047700  1
  Ca  Ca2  1  0.36679800  0.38842300  0.97047700  1
  Ca  Ca3  1  0.63320200  0.60367900  0.02162500  1
  Al  Al0  1  0.50000000  0.00291800  0.50291800  1
  Al  Al1  1  0.00000000  0.50291800  0.50291800  1
  Al  Al2  1  0.67515800  0.20446100  0.37961900  1
  Al  Al3  1  0.32484200  0.70446100  0.52930400  1
  O  O0  1  0.25817700  0.26250000  0.49945300  1
  O  O1  1  0.74182300  0.24127500  0.00432300  1
  O  O2  1  0.26304700  0.76250000  0.00432300  1
  O  O3  1  0.73695300  0.74127500  0.49945300  1
  O  O4  1  0.61303900  0.86844400  0.98148300  1
  O  O5  1  0.38696100  0.36844400  0.25540400  1
  O  O6  1  0.91596300  0.37698100  0.57598600  1
  O  O7  1  0.08403700  0.66002300  0.46101800  1
  O  O8  1  0.69900500  0.16002300  0.57598600  1
  O  O9  1  0.30099500  0.87698100  0.46101800  1
loop_
_geom_bond_atom_site_label_1
_geom_bond_atom_site_label_2
_geom_bond_distance
_geom_bond_site_symmetry_2
Ca0 O9 2.333798 1_655
Ca0 O4 2.337630 1_554
Ca0 O3 2.439302 1_554
Ca0 O1 2.456234 1_565
Ca0 O2 2.477618 1_655
Ca0 O0 2.497274 1_665
Ca0 O6 2.577317 1_554
Ca0 O6 2.810151 1_565
Ca1 O8 2.333798 1_455
Ca1 O5 2.337635 1_556
Ca1 O2 2.439306 1_546
Ca1 O0 2.456242 1_556
Ca1 O3 2.477623 1_445
Ca1 O1 2.497277 1_456
Ca1 O7 2.577317 1_545
Ca1 O7 2.810151 1_556
Ca2 O6 2.333798 1_455
Ca2 O5 2.337622 1_556
Ca2 O1 2.439305 1_556
Ca2 O3 2.456238 1_556
Ca2 O0 2.477618 1_555
Ca2 O2 2.497274 1_556
Ca2 O9 2.577317 1_545
Ca2 O9 2.810151 1_556
Ca3 O7 2.333798 1_655
Ca3 O4 2.337630 1_554
Ca3 O0 2.439306 1_554
Ca3 O2 2.456242 1_555
Ca3 O1 2.477626 1_555
Ca3 O3 2.497279 1_555
Ca3 O8 2.577317 1_554
Ca3 O8 2.810151 1_565
Al0 O2 1.901126 1_545
Al0 O3 1.901130 1_545
Al0 O0 1.912648 1_555
Al0 O1 1.912648 1_556
Al0 O8 2.076503 1_555
Al0 O9 2.076503 1_545
Al1 O0 1.901126 1_555
Al1 O1 1.901127 1_455
Al1 O3 1.912644 1_455
Al1 O2 1.912648 1_556
Al1 O7 2.076503 1_555
Al1 O6 2.076503 1_455
Al2 O8 1.763226 1_555
Al2 O6 1.763226 1_555
Al2 O5 1.797637 1_555
Al2 O4 1.808153 1_544
Al3 O7 1.763220 1_555
Al3 O9 1.763233 1_555
Al3 O4 1.797632 1_555
Al3 O5 1.808157 1_555
