# generated using pymatgen
data_Zr6Ga16Os7
_symmetry_space_group_name_H-M   'P 1'
_cell_length_a   8.81066929
_cell_length_b   8.81066929
_cell_length_c   8.81066929
_cell_angle_alpha   60.00000000
_cell_angle_beta   60.00000000
_cell_angle_gamma   60.00000000
_symmetry_Int_Tables_number   1
_chemical_formula_structural   Zr6Ga16Os7
_chemical_formula_sum   'Zr6 Ga16 Os7'
_cell_volume   483.62829597
_cell_formula_units_Z   1
loop_
 _symmetry_equiv_pos_site_id
 _symmetry_equiv_pos_as_xyz
  1  'x, y, z'
loop_
 _atom_site_type_symbol
 _atom_site_label
 _atom_site_symmetry_multiplicity
 _atom_site_fract_x
 _atom_site_fract_y
 _atom_site_fract_z
 _atom_site_occupancy
  Zr  Zr0  1  0.71891800  0.71891800  0.28108200  1
  Zr  Zr1  1  0.28108200  0.71891800  0.28108200  1
  Zr  Zr2  1  0.71891800  0.28108200  0.28108200  1
  Zr  Zr3  1  0.28108200  0.28108200  0.71891800  1
  Zr  Zr4  1  0.71891800  0.28108200  0.71891800  1
  Zr  Zr5  1  0.28108200  0.71891800  0.71891800  1
  Ga  Ga0  1  0.87623000  0.87623000  0.37131000  1
  Ga  Ga1  1  0.87623000  0.37131000  0.87623000  1
  Ga  Ga2  1  0.37131000  0.87623000  0.87623000  1
  Ga  Ga3  1  0.87623000  0.87623000  0.87623000  1
  Ga  Ga4  1  0.12377000  0.12377000  0.62869000  1
  Ga  Ga5  1  0.12377000  0.62869000  0.12377000  1
  Ga  Ga6  1  0.62869000  0.12377000  0.12377000  1
  Ga  Ga7  1  0.12377000  0.12377000  0.12377000  1
  Ga  Ga8  1  0.65441100  0.65441100  0.03676700  1
  Ga  Ga9  1  0.65441100  0.03676700  0.65441100  1
  Ga  Ga10  1  0.03676700  0.65441100  0.65441100  1
  Ga  Ga11  1  0.65441100  0.65441100  0.65441100  1
  Ga  Ga12  1  0.34558900  0.34558900  0.96323300  1
  Ga  Ga13  1  0.34558900  0.96323300  0.34558900  1
  Ga  Ga14  1  0.96323300  0.34558900  0.34558900  1
  Ga  Ga15  1  0.34558900  0.34558900  0.34558900  1
  Os  Os0  1  0.00000000  0.00000000  0.00000000  1
  Os  Os1  1  0.00000000  0.00000000  0.50000000  1
  Os  Os2  1  0.50000000  0.00000000  0.50000000  1
  Os  Os3  1  0.00000000  0.50000000  0.50000000  1
  Os  Os4  1  0.50000000  0.50000000  0.00000000  1
  Os  Os5  1  0.00000000  0.50000000  0.00000000  1
  Os  Os6  1  0.50000000  0.00000000  0.00000000  1
loop_
_geom_bond_atom_site_label_1
_geom_bond_atom_site_label_2
_geom_bond_distance
_geom_bond_site_symmetry_2
Ga0 Os0 2.671160 1_665
Ga0 Os1 2.706670 1_665
Ga0 Os3 2.706670 1_655
Ga0 Os2 2.706670 1_565
Ga0 Ga10 2.816147 1_655
Ga0 Ga9 2.816147 1_565
Ga0 Ga11 2.816147 1_555
Ga0 Zr1 2.932381 1_655
Ga0 Zr2 2.932381 1_565
Ga0 Zr0 2.932381 1_555
Ga0 Ga7 3.084390 1_665
Ga0 Ga6 3.084390 1_565
Ga0 Ga5 3.084390 1_655
Ga1 Os0 2.671160 1_656
Ga1 Os5 2.706670 1_656
Ga1 Os3 2.706670 1_655
Ga1 Os4 2.706670 1_556
Ga1 Ga10 2.816147 1_655
Ga1 Ga8 2.816147 1_556
Ga1 Ga11 2.816147 1_555
Ga1 Zr3 2.932381 1_655
Ga1 Zr2 2.932381 1_556
Ga1 Zr4 2.932381 1_555
Ga1 Ga7 3.084390 1_656
Ga1 Ga4 3.084390 1_655
Ga1 Ga6 3.084390 1_556
Ga2 Os0 2.671160 1_566
Ga2 Os6 2.706670 1_566
Ga2 Os4 2.706670 1_556
Ga2 Os2 2.706670 1_565
Ga2 Ga9 2.816147 1_565
Ga2 Ga8 2.816147 1_556
Ga2 Zr3 2.932381 1_565
Ga2 Zr1 2.932381 1_556
Ga2 Zr5 2.932381 1_555
Ga2 Ga7 3.084390 1_566
Ga2 Ga4 3.084390 1_565
Ga2 Ga5 3.084390 1_556
Ga3 Os0 2.671160 1_666
Ga3 Os6 2.706670 1_566
Ga3 Os1 2.706670 1_665
Ga3 Os5 2.706670 1_656
Ga3 Ga8 2.816147 1_556
Ga3 Ga9 2.816147 1_565
Ga3 Zr0 2.932381 1_556
Ga3 Zr5 2.932381 1_655
Ga3 Zr4 2.932381 1_565
Ga3 Ga4 3.084390 1_665
Ga3 Ga5 3.084390 1_656
Ga3 Ga6 3.084390 1_566
Ga4 Os0 2.671160 1_556
Ga4 Os2 2.706670 1_555
Ga4 Os3 2.706670 1_555
Ga4 Os1 2.706670 1_555
Ga4 Zr3 2.932381 1_555
Ga4 Zr5 2.932381 1_545
Ga4 Zr4 2.932381 1_455
Ga5 Os0 2.671160 1_565
Ga5 Os4 2.706670 1_555
Ga5 Os3 2.706670 1_555
Ga5 Os5 2.706670 1_555
Ga5 Zr1 2.932381 1_555
Ga5 Zr5 2.932381 1_554
Ga5 Zr0 2.932381 1_455
Ga6 Os0 2.671160 1_655
Ga6 Os4 2.706670 1_555
Ga6 Os2 2.706670 1_555
Ga6 Os6 2.706670 1_555
Ga6 Zr2 2.932381 1_555
Ga6 Zr4 2.932381 1_554
Ga6 Zr0 2.932381 1_545
Ga7 Os0 2.671160 1_555
Ga7 Os5 2.706670 1_555
Ga7 Os6 2.706670 1_555
Ga7 Os1 2.706670 1_555
Ga7 Zr1 2.932381 1_545
Ga7 Zr2 2.932381 1_455
Ga7 Zr3 2.932381 1_554
Ga8 Os4 2.557137 1_555
Ga8 Os6 2.557137 1_565
Ga8 Os5 2.557137 1_655
Ga8 Zr0 2.837163 1_555
Ga8 Zr2 2.837163 1_555
Ga8 Zr1 2.837163 1_555
Ga9 Os2 2.557137 1_555
Ga9 Os6 2.557137 1_556
Ga9 Os1 2.557137 1_655
Ga9 Zr3 2.837163 1_555
Ga9 Zr2 2.837163 1_555
Ga9 Zr4 2.837163 1_555
Ga10 Os3 2.557137 1_555
Ga10 Os5 2.557137 1_556
Ga10 Os1 2.557137 1_565
Ga10 Ga3 2.816147 1_455
Ga10 Zr5 2.837163 1_555
Ga10 Zr3 2.837163 1_555
Ga10 Zr1 2.837163 1_555
Ga11 Os4 2.557137 1_556
Ga11 Os2 2.557137 1_565
Ga11 Os3 2.557137 1_655
Ga11 Ga2 2.816147 1_555
Ga11 Zr5 2.837163 1_555
Ga11 Zr0 2.837163 1_555
Ga11 Zr4 2.837163 1_555
Ga12 Os5 2.557137 1_556
Ga12 Os6 2.557137 1_556
Ga12 Os4 2.557137 1_556
Ga12 Ga7 2.816147 1_556
Ga12 Ga5 2.816147 1_556
Ga12 Ga6 2.816147 1_556
Ga12 Zr5 2.837163 1_555
Ga12 Zr4 2.837163 1_555
Ga12 Zr3 2.837163 1_555
Ga13 Os1 2.557137 1_565
Ga13 Os6 2.557137 1_565
Ga13 Os2 2.557137 1_565
Ga13 Ga7 2.816147 1_565
Ga13 Ga4 2.816147 1_565
Ga13 Ga6 2.816147 1_565
Ga13 Zr5 2.837163 1_555
Ga13 Zr0 2.837163 1_555
Ga13 Zr1 2.837163 1_555
Ga14 Os1 2.557137 1_655
Ga14 Os5 2.557137 1_655
Ga14 Os3 2.557137 1_655
Ga14 Ga7 2.816147 1_655
Ga14 Ga5 2.816147 1_655
Ga14 Ga4 2.816147 1_655
Ga14 Zr0 2.837163 1_555
Ga14 Zr4 2.837163 1_555
Ga14 Zr2 2.837163 1_555
Ga15 Os2 2.557137 1_555
Ga15 Os3 2.557137 1_555
Ga15 Os4 2.557137 1_555
Ga15 Ga5 2.816147 1_555
Ga15 Ga6 2.816147 1_555
Ga15 Ga4 2.816147 1_555
Ga15 Zr3 2.837163 1_555
Ga15 Zr2 2.837163 1_555
Ga15 Zr1 2.837163 1_555
