# generated using pymatgen
data_AsH3C(OF3)2
_symmetry_space_group_name_H-M   'P 1'
_cell_length_a   8.25429600
_cell_length_b   9.78613500
_cell_length_c   16.19553900
_cell_angle_alpha   90.00000000
_cell_angle_beta   90.00000000
_cell_angle_gamma   90.00000000
_symmetry_Int_Tables_number   1
_chemical_formula_structural   AsH3C(OF3)2
_chemical_formula_sum   'As8 H24 C8 O16 F48'
_cell_volume   1308.23766165
_cell_formula_units_Z   8
loop_
 _symmetry_equiv_pos_site_id
 _symmetry_equiv_pos_as_xyz
  1  'x, y, z'
loop_
 _atom_site_type_symbol
 _atom_site_label
 _atom_site_symmetry_multiplicity
 _atom_site_fract_x
 _atom_site_fract_y
 _atom_site_fract_z
 _atom_site_occupancy
  As  As0  1  0.35555600  0.49583500  0.15668100  1
  As  As1  1  0.64444400  0.99583500  0.34331900  1
  As  As2  1  0.14444400  0.50416500  0.65668100  1
  As  As3  1  0.85555600  0.00416500  0.84331900  1
  As  As4  1  0.64444400  0.50416500  0.84331900  1
  As  As5  1  0.35555600  0.00416500  0.65668100  1
  As  As6  1  0.85555600  0.49583500  0.34331900  1
  As  As7  1  0.14444400  0.99583500  0.15668100  1
  H  H0  1  0.25379200  0.79150100  0.48565200  1
  H  H1  1  0.74620800  0.29150100  0.01434800  1
  H  H2  1  0.24620800  0.20849900  0.98565200  1
  H  H3  1  0.75379200  0.70849900  0.51434800  1
  H  H4  1  0.74620800  0.20849900  0.51434800  1
  H  H5  1  0.25379200  0.70849900  0.98565200  1
  H  H6  1  0.75379200  0.79150100  0.01434800  1
  H  H7  1  0.24620800  0.29150100  0.48565200  1
  H  H8  1  0.38803900  0.64439200  0.34581300  1
  H  H9  1  0.61196100  0.14439200  0.15418700  1
  H  H10  1  0.11196100  0.35560800  0.84581300  1
  H  H11  1  0.88803900  0.85560800  0.65418700  1
  H  H12  1  0.61196100  0.35560800  0.65418700  1
  H  H13  1  0.38803900  0.85560800  0.84581300  1
  H  H14  1  0.88803900  0.64439200  0.15418700  1
  H  H15  1  0.11196100  0.14439200  0.34581300  1
  H  H16  1  0.17424700  0.80337800  0.30946400  1
  H  H17  1  0.82575300  0.30337800  0.19053600  1
  H  H18  1  0.32575300  0.19662200  0.80946400  1
  H  H19  1  0.67424700  0.69662200  0.69053600  1
  H  H20  1  0.82575300  0.19662200  0.69053600  1
  H  H21  1  0.17424700  0.69662200  0.80946400  1
  H  H22  1  0.67424700  0.80337800  0.19053600  1
  H  H23  1  0.32575300  0.30337800  0.30946400  1
  C  C0  1  0.26609600  0.76200700  0.42078700  1
  C  C1  1  0.73390400  0.26200700  0.07921300  1
  C  C2  1  0.23390400  0.23799300  0.92078700  1
  C  C3  1  0.76609600  0.73799300  0.57921300  1
  C  C4  1  0.73390400  0.23799300  0.57921300  1
  C  C5  1  0.26609600  0.73799300  0.92078700  1
  C  C6  1  0.76609600  0.76200700  0.07921300  1
  C  C7  1  0.23390400  0.26200700  0.42078700  1
  O  O0  1  0.16601200  0.81753700  0.37111600  1
  O  O1  1  0.83398800  0.31753700  0.12888400  1
  O  O2  1  0.33398800  0.18246300  0.87111600  1
  O  O3  1  0.66601200  0.68246300  0.62888400  1
  O  O4  1  0.83398800  0.18246300  0.62888400  1
  O  O5  1  0.16601200  0.68246300  0.87111600  1
  O  O6  1  0.66601200  0.81753700  0.12888400  1
  O  O7  1  0.33398800  0.31753700  0.37111600  1
  O  O8  1  0.37922600  0.67622100  0.40474000  1
  O  O9  1  0.62077400  0.17622100  0.09526000  1
  O  O10  1  0.12077400  0.32377900  0.90474000  1
  O  O11  1  0.87922600  0.82377900  0.59526000  1
  O  O12  1  0.62077400  0.32377900  0.59526000  1
  O  O13  1  0.37922600  0.82377900  0.90474000  1
  O  O14  1  0.87922600  0.67622100  0.09526000  1
  O  O15  1  0.12077400  0.17622100  0.40474000  1
  F  F0  1  0.34274000  0.65336400  0.10473700  1
  F  F1  1  0.65726000  0.15336400  0.39526300  1
  F  F2  1  0.15726000  0.34663600  0.60473700  1
  F  F3  1  0.84274000  0.84663600  0.89526300  1
  F  F4  1  0.65726000  0.34663600  0.89526300  1
  F  F5  1  0.34274000  0.84663600  0.60473700  1
  F  F6  1  0.84274000  0.65336400  0.39526300  1
  F  F7  1  0.15726000  0.15336400  0.10473700  1
  F  F8  1  0.35485100  0.40476200  0.06297100  1
  F  F9  1  0.64514900  0.90476200  0.43702900  1
  F  F10  1  0.14514900  0.59523800  0.56297100  1
  F  F11  1  0.85485100  0.09523800  0.93702900  1
  F  F12  1  0.64514900  0.59523800  0.93702900  1
  F  F13  1  0.35485100  0.09523800  0.56297100  1
  F  F14  1  0.85485100  0.40476200  0.43702900  1
  F  F15  1  0.14514900  0.90476200  0.06297100  1
  F  F16  1  0.37343800  0.33696900  0.21337500  1
  F  F17  1  0.62656200  0.83696900  0.28662500  1
  F  F18  1  0.12656200  0.66303100  0.71337500  1
  F  F19  1  0.87343800  0.16303100  0.78662500  1
  F  F20  1  0.62656200  0.66303100  0.78662500  1
  F  F21  1  0.37343800  0.16303100  0.71337500  1
  F  F22  1  0.87343800  0.33696900  0.28662500  1
  F  F23  1  0.12656200  0.83696900  0.21337500  1
  F  F24  1  0.36044400  0.58750700  0.25375600  1
  F  F25  1  0.63955600  0.08750700  0.24624400  1
  F  F26  1  0.13955600  0.41249300  0.75375600  1
  F  F27  1  0.86044400  0.91249300  0.74624400  1
  F  F28  1  0.63955600  0.41249300  0.74624400  1
  F  F29  1  0.36044400  0.91249300  0.75375600  1
  F  F30  1  0.86044400  0.58750700  0.24624400  1
  F  F31  1  0.13955600  0.08750700  0.25375600  1
  F  F32  1  0.56931500  0.50382500  0.15345000  1
  F  F33  1  0.43068500  0.00382500  0.34655000  1
  F  F34  1  0.93068500  0.49617500  0.65345000  1
  F  F35  1  0.06931500  0.99617500  0.84655000  1
  F  F36  1  0.43068500  0.49617500  0.84655000  1
  F  F37  1  0.56931500  0.99617500  0.65345000  1
  F  F38  1  0.06931500  0.50382500  0.34655000  1
  F  F39  1  0.93068500  0.00382500  0.15345000  1
  F  F40  1  0.14447200  0.48465900  0.16447600  1
  F  F41  1  0.85552800  0.98465900  0.33552400  1
  F  F42  1  0.35552800  0.51534100  0.66447600  1
  F  F43  1  0.64447200  0.01534100  0.83552400  1
  F  F44  1  0.85552800  0.51534100  0.83552400  1
  F  F45  1  0.14447200  0.01534100  0.66447600  1
  F  F46  1  0.64447200  0.48465900  0.33552400  1
  F  F47  1  0.35552800  0.98465900  0.16447600  1
loop_
_geom_bond_atom_site_label_1
_geom_bond_atom_site_label_2
_geom_bond_distance
_geom_bond_site_symmetry_2
As0 F40 1.750338 1_555
As0 F0 1.759387 1_555
As0 F8 1.760037 1_555
As0 F32 1.766937 1_555
As0 F24 1.810580 1_555
As0 F16 1.811602 1_555
As1 F41 1.750338 1_555
As1 F1 1.759387 1_565
As1 F9 1.760037 1_555
As1 F33 1.766937 1_565
As1 F25 1.810580 1_565
As1 F17 1.811602 1_555
As2 F42 1.750338 1_555
As2 F2 1.759387 1_555
As2 F10 1.760037 1_555
As2 F34 1.766937 1_455
As2 F26 1.810580 1_555
As2 F18 1.811602 1_555
As3 F43 1.750338 1_555
As3 F3 1.759387 1_545
As3 F11 1.760037 1_555
As3 F35 1.766937 1_645
As3 F27 1.810580 1_545
As3 F19 1.811602 1_555
As4 F44 1.750338 1_555
As4 F4 1.759387 1_555
As4 F12 1.760037 1_555
As4 F36 1.766937 1_555
As4 F28 1.810580 1_555
As4 F20 1.811602 1_555
As5 F45 1.750338 1_555
As5 F5 1.759387 1_545
As5 F13 1.760037 1_555
As5 F37 1.766937 1_545
As5 F29 1.810580 1_545
As5 F21 1.811602 1_555
As6 F46 1.750338 1_555
As6 F6 1.759387 1_555
As6 F14 1.760037 1_555
As6 F38 1.766937 1_655
As6 F30 1.810580 1_555
As6 F22 1.811602 1_555
As7 F47 1.750338 1_555
As7 F7 1.759387 1_565
As7 F15 1.760037 1_555
As7 F39 1.766937 1_465
As7 F31 1.810580 1_565
As7 F23 1.811602 1_555
H8 O8 1.006532 1_555
H9 O9 1.006532 1_555
H10 O10 1.006532 1_555
H11 O11 1.006532 1_555
H12 O12 1.006532 1_555
H13 O13 1.006532 1_555
H14 O14 1.006532 1_555
H15 O15 1.006532 1_555
H16 O0 1.010345 1_555
H17 O1 1.010345 1_555
H18 O2 1.010345 1_555
H19 O3 1.010345 1_555
H20 O4 1.010345 1_555
H21 O5 1.010345 1_555
H22 O6 1.010345 1_555
H23 O7 1.010345 1_555
C0 H0 1.094177 1_555
C0 O0 1.274726 1_555
C0 O8 1.282312 1_555
C1 H1 1.094177 1_555
C1 O1 1.274726 1_555
C1 O9 1.282312 1_555
C2 H2 1.094177 1_555
C2 O2 1.274726 1_555
C2 O10 1.282312 1_555
C3 H3 1.094177 1_555
C3 O3 1.274726 1_555
C3 O11 1.282312 1_555
C4 H4 1.094177 1_555
C4 O4 1.274726 1_555
C4 O12 1.282312 1_555
C5 H5 1.094177 1_555
C5 O5 1.274726 1_555
C5 O13 1.282312 1_555
C6 H6 1.094177 1_555
C6 O6 1.274726 1_555
C6 O14 1.282312 1_555
C7 H7 1.094177 1_555
C7 O7 1.274726 1_555
C7 O15 1.282312 1_555
F16 H23 1.638532 1_555
F17 H22 1.638532 1_555
F18 H21 1.638532 1_555
F19 H20 1.638532 1_555
F20 H19 1.638532 1_555
F21 H18 1.638532 1_555
F22 H17 1.638532 1_555
F23 H16 1.638532 1_555
F24 H8 1.607669 1_555
F25 H9 1.607669 1_555
F26 H10 1.607669 1_555
F27 H11 1.607669 1_555
F28 H12 1.607669 1_555
F29 H13 1.607669 1_555
F30 H14 1.607669 1_555
F31 H15 1.607669 1_555
