# generated using pymatgen
data_MgTi3ZnNiO9
_symmetry_space_group_name_H-M   'P 1'
_cell_length_a   5.10036555
_cell_length_b   5.10036555
_cell_length_c   14.06410400
_cell_angle_alpha   90.00000000
_cell_angle_beta   90.00000000
_cell_angle_gamma   119.99999411
_symmetry_Int_Tables_number   1
_chemical_formula_structural   MgTi3ZnNiO9
_chemical_formula_sum   'Mg2 Ti6 Zn2 Ni2 O18'
_cell_volume   316.84388759
_cell_formula_units_Z   2
loop_
 _symmetry_equiv_pos_site_id
 _symmetry_equiv_pos_as_xyz
  1  'x, y, z'
loop_
 _atom_site_type_symbol
 _atom_site_label
 _atom_site_symmetry_multiplicity
 _atom_site_fract_x
 _atom_site_fract_y
 _atom_site_fract_z
 _atom_site_occupancy
  Mg  Mg0  1  0.33333300  0.66666700  0.31359500  1
  Mg  Mg1  1  0.00000000  0.00000000  0.64633100  1
  Ti  Ti0  1  0.00000000  0.00000000  0.85511200  1
  Ti  Ti1  1  0.66666700  0.33333300  0.18946200  1
  Ti  Ti2  1  0.33333300  0.66666700  0.52338300  1
  Ti  Ti3  1  0.33333300  0.66666700  0.80947600  1
  Ti  Ti4  1  0.00000000  0.00000000  0.14537300  1
  Ti  Ti5  1  0.66666700  0.33333300  0.47660700  1
  Zn  Zn0  1  0.66666700  0.33333300  0.97332800  1
  Zn  Zn1  1  0.33333300  0.66666700  0.02495700  1
  Ni  Ni0  1  0.00000000  0.00000000  0.35120700  1
  Ni  Ni1  1  0.66666700  0.33333300  0.68418500  1
  O  O0  1  0.96259800  0.65028800  0.08841100  1
  O  O1  1  0.63045400  0.98256000  0.42040500  1
  O  O2  1  0.29741800  0.31598700  0.75322600  1
  O  O3  1  0.68769000  0.03740200  0.08841100  1
  O  O4  1  0.35210600  0.36954600  0.42040500  1
  O  O5  1  0.01856800  0.70258200  0.75322600  1
  O  O6  1  0.34971200  0.31231000  0.08841100  1
  O  O7  1  0.01744000  0.64789400  0.42040500  1
  O  O8  1  0.68401300  0.98143200  0.75322600  1
  O  O9  1  0.70409700  0.68293600  0.24751000  1
  O  O10  1  0.37165300  0.01685600  0.58044700  1
  O  O11  1  0.03786300  0.35000000  0.91232900  1
  O  O12  1  0.97883900  0.29590300  0.24751000  1
  O  O13  1  0.64520200  0.62834700  0.58044700  1
  O  O14  1  0.31213700  0.96213700  0.91232900  1
  O  O15  1  0.31706400  0.02116100  0.24751000  1
  O  O16  1  0.98314400  0.35479800  0.58044700  1
  O  O17  1  0.65000000  0.68786300  0.91232900  1
loop_
_geom_bond_atom_site_label_1
_geom_bond_atom_site_label_2
_geom_bond_distance
_geom_bond_site_symmetry_2
Mg0 O15 2.071180 1_565
Mg0 O12 2.071183 1_455
Mg0 O9 2.071185 1_555
Mg0 O7 2.169639 1_555
Mg0 O1 2.169641 1_555
Mg0 O4 2.169643 1_555
Mg1 O10 2.072724 1_555
Mg1 O13 2.072726 1_445
Mg1 O16 2.072728 1_455
Mg1 O5 2.171151 1_545
Mg1 O2 2.171153 1_555
Mg1 O8 2.171154 1_445
Ni0 O7 2.083251 1_545
Ni0 O1 2.083251 1_445
Ni0 O4 2.083251 1_555
Ni0 O12 2.139908 1_455
Ni0 O15 2.139908 1_555
Ni0 O9 2.139908 1_445
Ni1 O8 2.081069 1_545
Ni1 O5 2.081074 1_655
Ni1 O2 2.081078 1_555
Ni1 O16 2.137609 1_555
Ni1 O10 2.137613 1_555
Ni1 O13 2.137617 1_555
O0 Ti4 1.875997 1_665
O0 Zn1 2.054478 1_655
O0 Ti1 2.114542 1_555
O0 Zn0 2.251926 1_554
O1 Ti5 1.878624 1_565
O1 Ti2 2.132681 1_555
O2 Ti3 1.879054 1_555
O2 Ti0 2.122981 1_555
O3 Ti4 1.875997 1_655
O3 Zn1 2.054480 1_545
O3 Ti1 2.114540 1_555
O3 Zn0 2.251924 1_554
O4 Ti5 1.878628 1_555
O4 Ti2 2.132683 1_555
O5 Ti3 1.879054 1_555
O5 Ti0 2.122979 1_565
O6 Ti4 1.875997 1_555
O6 Zn1 2.054482 1_555
O6 Ti1 2.114544 1_555
O6 Zn0 2.251928 1_554
O7 Ti5 1.878626 1_455
O7 Ti2 2.132679 1_555
O8 Ti3 1.879054 1_555
O8 Ti0 2.122983 1_665
O9 Ti1 1.882018 1_555
O9 Ti4 2.125016 1_665
O10 Ti2 1.877054 1_545
O10 Ti5 2.138592 1_555
O11 Ti0 1.877975 1_555
O11 Zn0 2.041228 1_455
O11 Ti3 2.130292 1_555
O11 Zn1 2.225932 1_556
O12 Ti1 1.882014 1_555
O12 Ti4 2.125016 1_655
O13 Ti2 1.877054 1_555
O13 Ti5 2.138596 1_555
O14 Ti0 1.877975 1_565
O14 Zn0 2.041230 1_565
O14 Ti3 2.130290 1_555
O14 Zn1 2.225930 1_556
O15 Ti1 1.882017 1_555
O15 Ti4 2.125016 1_555
O16 Ti2 1.877054 1_655
O16 Ti5 2.138589 1_555
O17 Ti0 1.877976 1_665
O17 Zn0 2.041233 1_555
O17 Ti3 2.130293 1_555
O17 Zn1 2.225933 1_556
