# generated using pymatgen
data_NdPu3
_symmetry_space_group_name_H-M   'P 1'
_cell_length_a   6.02554708
_cell_length_b   6.02554708
_cell_length_c   6.02554708
_cell_angle_alpha   132.38331273
_cell_angle_beta   132.38331273
_cell_angle_gamma   69.62429570
_symmetry_Int_Tables_number   1
_chemical_formula_structural   NdPu3
_chemical_formula_sum   'Nd1 Pu3'
_cell_volume   117.07895008
_cell_formula_units_Z   1
loop_
 _symmetry_equiv_pos_site_id
 _symmetry_equiv_pos_as_xyz
  1  'x, y, z'
loop_
 _atom_site_type_symbol
 _atom_site_label
 _atom_site_symmetry_multiplicity
 _atom_site_fract_x
 _atom_site_fract_y
 _atom_site_fract_z
 _atom_site_occupancy
  Nd  Nd0  1  0.00000000  0.00000000  0.00000000  1
  Pu  Pu0  1  0.75000000  0.25000000  0.50000000  1
  Pu  Pu1  1  0.25000000  0.75000000  0.50000000  1
  Pu  Pu2  1  0.50000000  0.50000000  0.00000000  1
loop_
_geom_bond_atom_site_label_1
_geom_bond_atom_site_label_2
_geom_bond_distance
_geom_bond_site_symmetry_2
Nd0 Pu2 3.439910 1_455
Nd0 Pu2 3.439910 1_545
Nd0 Pu2 3.439910 1_556
Nd0 Pu2 3.439910 1_444
Nd0 Pu1 3.469157 1_555
Nd0 Pu1 3.469157 1_444
Nd0 Pu0 3.469157 1_455
Nd0 Pu1 3.469157 1_544
Nd0 Pu0 3.469157 1_555
Nd0 Pu1 3.469157 1_545
Nd0 Pu0 3.469157 1_454
Nd0 Pu0 3.469157 1_444
Pu0 Pu1 3.439910 1_645
Pu0 Pu1 3.439910 1_555
Pu0 Pu1 3.439910 1_656
Pu0 Pu1 3.439910 1_544
Pu0 Pu2 3.469157 1_555
Pu0 Pu2 3.469157 1_545
Pu0 Pu2 3.469157 1_556
Pu0 Pu2 3.469157 1_656
Pu1 Pu2 3.469157 1_455
Pu1 Pu2 3.469157 1_555
Pu1 Pu2 3.469157 1_556
Pu1 Pu2 3.469157 1_566
