# generated using pymatgen
data_MgCuP2O7
_symmetry_space_group_name_H-M   'P 1'
_cell_length_a   5.44204700
_cell_length_b   6.39734255
_cell_length_c   7.50299753
_cell_angle_alpha   98.07860053
_cell_angle_beta   88.84352075
_cell_angle_gamma   108.64227439
_symmetry_Int_Tables_number   1
_chemical_formula_structural   MgCuP2O7
_chemical_formula_sum   'Mg2 Cu2 P4 O14'
_cell_volume   244.96753131
_cell_formula_units_Z   2
loop_
 _symmetry_equiv_pos_site_id
 _symmetry_equiv_pos_as_xyz
  1  'x, y, z'
loop_
 _atom_site_type_symbol
 _atom_site_label
 _atom_site_symmetry_multiplicity
 _atom_site_fract_x
 _atom_site_fract_y
 _atom_site_fract_z
 _atom_site_occupancy
  Mg  Mg0  1  0.66840700  0.66222200  0.35235800  1
  Mg  Mg1  1  0.33159300  0.33777800  0.64764200  1
  Cu  Cu0  1  0.72704600  0.15151300  0.81686500  1
  Cu  Cu1  1  0.27295400  0.84848700  0.18313500  1
  P  P0  1  0.82670300  0.68151500  0.90143400  1
  P  P1  1  0.17329700  0.31848500  0.09856600  1
  P  P2  1  0.77363100  0.20509000  0.38469700  1
  P  P3  1  0.22636900  0.79491000  0.61530300  1
  O  O0  1  0.91160100  0.70219800  0.10037400  1
  O  O1  1  0.08839900  0.29780200  0.89962600  1
  O  O2  1  0.70965200  0.85577400  0.86446800  1
  O  O3  1  0.29034800  0.14422600  0.13553200  1
  O  O4  1  0.64474900  0.44315700  0.83463600  1
  O  O5  1  0.35525100  0.55684300  0.16536400  1
  O  O6  1  0.39133400  0.64461100  0.56175000  1
  O  O7  1  0.60866600  0.35538900  0.43825000  1
  O  O8  1  0.97352800  0.21785200  0.52628400  1
  O  O9  1  0.02647200  0.78214800  0.47371600  1
  O  O10  1  0.90900900  0.29494500  0.20483800  1
  O  O11  1  0.39128900  0.04002000  0.67945200  1
  O  O12  1  0.60871100  0.95998000  0.32054800  1
  O  O13  1  0.09099100  0.70505500  0.79516200  1
loop_
_geom_bond_atom_site_label_1
_geom_bond_atom_site_label_2
_geom_bond_distance
_geom_bond_site_symmetry_2
Mg0 O9 2.033293 1_655
Mg0 O7 2.076811 1_555
Mg0 O12 2.077867 1_555
Mg0 O5 2.103195 1_555
Mg0 O6 2.144775 1_555
Mg0 O0 2.282541 1_555
Mg1 O8 2.033293 1_455
Mg1 O6 2.076811 1_555
Mg1 O11 2.077867 1_555
Mg1 O4 2.103195 1_555
Mg1 O7 2.144775 1_555
Mg1 O1 2.282541 1_555
Cu0 O2 1.946803 1_545
Cu0 O1 1.959061 1_655
Cu0 O11 1.986593 1_555
Cu0 O4 2.039915 1_555
Cu0 O8 2.551635 1_555
Cu1 O3 1.946803 1_565
Cu1 O0 1.959061 1_455
Cu1 O12 1.986593 1_555
Cu1 O5 2.039915 1_555
Cu1 O9 2.551635 1_555
O0 P0 1.546676 1_554
O1 P1 1.546676 1_556
O2 P0 1.507808 1_555
O3 P1 1.507808 1_555
O4 P0 1.548159 1_555
O5 P1 1.548159 1_555
O6 P3 1.523357 1_555
O7 P2 1.523357 1_555
O8 P2 1.511327 1_555
O9 P3 1.511327 1_555
O10 P1 1.605010 1_655
O10 P2 1.612903 1_555
O11 P3 1.549691 1_545
O12 P2 1.549691 1_565
O13 P0 1.605010 1_455
O13 P3 1.612903 1_555
