# generated using pymatgen
data_MgBi
_symmetry_space_group_name_H-M   'P 1'
_cell_length_a   10.68320114
_cell_length_b   6.90821952
_cell_length_c   35.24572638
_cell_angle_alpha   90.00000000
_cell_angle_beta   90.00000000
_cell_angle_gamma   90.00000000
_symmetry_Int_Tables_number   1
_chemical_formula_structural   MgBi
_chemical_formula_sum   'Mg48 Bi48'
_cell_volume   2601.20152619
_cell_formula_units_Z   48
loop_
 _symmetry_equiv_pos_site_id
 _symmetry_equiv_pos_as_xyz
  1  'x, y, z'
loop_
 _atom_site_type_symbol
 _atom_site_label
 _atom_site_symmetry_multiplicity
 _atom_site_fract_x
 _atom_site_fract_y
 _atom_site_fract_z
 _atom_site_occupancy
  Mg  Mg0_0  1  0.00000000  0.00000000  0.49800679  1
  Mg  Mg0_1  1  0.00000000  0.00000000  0.99800679  1
  Mg  Mg0_2  1  0.00000000  0.50000000  0.49800679  1
  Mg  Mg0_3  1  0.00000000  0.50000000  0.99800679  1
  Mg  Mg0_4  1  0.50000000  0.00000000  0.49800679  1
  Mg  Mg0_5  1  0.50000000  0.00000000  0.99800679  1
  Mg  Mg0_6  1  0.50000000  0.50000000  0.49800679  1
  Mg  Mg0_7  1  0.50000000  0.50000000  0.99800679  1
  Mg  Mg1_0  1  0.00000000  0.00000000  0.16967268  1
  Mg  Mg1_1  1  0.00000000  0.00000000  0.66967268  1
  Mg  Mg1_2  1  0.00000000  0.50000000  0.16967268  1
  Mg  Mg1_3  1  0.00000000  0.50000000  0.66967268  1
  Mg  Mg1_4  1  0.50000000  0.00000000  0.16967268  1
  Mg  Mg1_5  1  0.50000000  0.00000000  0.66967268  1
  Mg  Mg1_6  1  0.50000000  0.50000000  0.16967268  1
  Mg  Mg1_7  1  0.50000000  0.50000000  0.66967268  1
  Mg  Mg2_0  1  0.25000000  0.00000000  0.10886389  1
  Mg  Mg2_1  1  0.25000000  0.00000000  0.60886389  1
  Mg  Mg2_2  1  0.25000000  0.50000000  0.10886389  1
  Mg  Mg2_3  1  0.25000000  0.50000000  0.60886389  1
  Mg  Mg2_4  1  0.75000000  0.00000000  0.10886389  1
  Mg  Mg2_5  1  0.75000000  0.00000000  0.60886389  1
  Mg  Mg2_6  1  0.75000000  0.50000000  0.10886389  1
  Mg  Mg2_7  1  0.75000000  0.50000000  0.60886389  1
  Mg  Mg3_0  1  0.00000000  0.25000000  0.24800679  1
  Mg  Mg3_1  1  0.00000000  0.25000000  0.74800679  1
  Mg  Mg3_2  1  0.00000000  0.75000000  0.24800679  1
  Mg  Mg3_3  1  0.00000000  0.75000000  0.74800679  1
  Mg  Mg3_4  1  0.50000000  0.25000000  0.24800679  1
  Mg  Mg3_5  1  0.50000000  0.25000000  0.74800679  1
  Mg  Mg3_6  1  0.50000000  0.75000000  0.24800679  1
  Mg  Mg3_7  1  0.50000000  0.75000000  0.74800679  1
  Mg  Mg4_0  1  0.00000000  0.25000000  0.41967268  1
  Mg  Mg4_1  1  0.00000000  0.25000000  0.91967268  1
  Mg  Mg4_2  1  0.00000000  0.75000000  0.41967268  1
  Mg  Mg4_3  1  0.00000000  0.75000000  0.91967268  1
  Mg  Mg4_4  1  0.50000000  0.25000000  0.41967268  1
  Mg  Mg4_5  1  0.50000000  0.25000000  0.91967268  1
  Mg  Mg4_6  1  0.50000000  0.75000000  0.41967268  1
  Mg  Mg4_7  1  0.50000000  0.75000000  0.91967268  1
  Mg  Mg5_0  1  0.25000000  0.25000000  0.35886389  1
  Mg  Mg5_1  1  0.25000000  0.25000000  0.85886389  1
  Mg  Mg5_2  1  0.25000000  0.75000000  0.35886389  1
  Mg  Mg5_3  1  0.25000000  0.75000000  0.85886389  1
  Mg  Mg5_4  1  0.75000000  0.25000000  0.35886389  1
  Mg  Mg5_5  1  0.75000000  0.25000000  0.85886389  1
  Mg  Mg5_6  1  0.75000000  0.75000000  0.35886389  1
  Mg  Mg5_7  1  0.75000000  0.75000000  0.85886389  1
  Bi  Bi0_0  1  0.00000000  0.25000000  0.09276804  1
  Bi  Bi0_1  1  0.00000000  0.25000000  0.59276805  1
  Bi  Bi0_2  1  0.00000000  0.75000000  0.09276804  1
  Bi  Bi0_3  1  0.00000000  0.75000000  0.59276805  1
  Bi  Bi0_4  1  0.50000000  0.25000000  0.09276804  1
  Bi  Bi0_5  1  0.50000000  0.25000000  0.59276805  1
  Bi  Bi0_6  1  0.50000000  0.75000000  0.09276804  1
  Bi  Bi0_7  1  0.50000000  0.75000000  0.59276805  1
  Bi  Bi1_0  1  0.25000000  0.25000000  0.18669276  1
  Bi  Bi1_1  1  0.25000000  0.25000000  0.68669276  1
  Bi  Bi1_2  1  0.25000000  0.75000000  0.18669276  1
  Bi  Bi1_3  1  0.25000000  0.75000000  0.68669276  1
  Bi  Bi1_4  1  0.75000000  0.25000000  0.18669276  1
  Bi  Bi1_5  1  0.75000000  0.25000000  0.68669276  1
  Bi  Bi1_6  1  0.75000000  0.75000000  0.18669276  1
  Bi  Bi1_7  1  0.75000000  0.75000000  0.68669276  1
  Bi  Bi2_0  1  0.25000000  0.25000000  0.02732933  1
  Bi  Bi2_1  1  0.25000000  0.25000000  0.52732933  1
  Bi  Bi2_2  1  0.25000000  0.75000000  0.02732933  1
  Bi  Bi2_3  1  0.25000000  0.75000000  0.52732933  1
  Bi  Bi2_4  1  0.75000000  0.25000000  0.02732933  1
  Bi  Bi2_5  1  0.75000000  0.25000000  0.52732933  1
  Bi  Bi2_6  1  0.75000000  0.75000000  0.02732933  1
  Bi  Bi2_7  1  0.75000000  0.75000000  0.52732933  1
  Bi  Bi3_0  1  0.00000000  0.00000000  0.34276805  1
  Bi  Bi3_1  1  0.00000000  0.00000000  0.84276805  1
  Bi  Bi3_2  1  0.00000000  0.50000000  0.34276805  1
  Bi  Bi3_3  1  0.00000000  0.50000000  0.84276805  1
  Bi  Bi3_4  1  0.50000000  0.00000000  0.34276805  1
  Bi  Bi3_5  1  0.50000000  0.00000000  0.84276805  1
  Bi  Bi3_6  1  0.50000000  0.50000000  0.34276805  1
  Bi  Bi3_7  1  0.50000000  0.50000000  0.84276805  1
  Bi  Bi4_0  1  0.25000000  0.00000000  0.43669276  1
  Bi  Bi4_1  1  0.25000000  0.00000000  0.93669276  1
  Bi  Bi4_2  1  0.25000000  0.50000000  0.43669276  1
  Bi  Bi4_3  1  0.25000000  0.50000000  0.93669276  1
  Bi  Bi4_4  1  0.75000000  0.00000000  0.43669276  1
  Bi  Bi4_5  1  0.75000000  0.00000000  0.93669276  1
  Bi  Bi4_6  1  0.75000000  0.50000000  0.43669276  1
  Bi  Bi4_7  1  0.75000000  0.50000000  0.93669276  1
  Bi  Bi5_0  1  0.25000000  0.00000000  0.27732933  1
  Bi  Bi5_1  1  0.25000000  0.00000000  0.77732933  1
  Bi  Bi5_2  1  0.25000000  0.50000000  0.27732933  1
  Bi  Bi5_3  1  0.25000000  0.50000000  0.77732933  1
  Bi  Bi5_4  1  0.75000000  0.00000000  0.27732933  1
  Bi  Bi5_5  1  0.75000000  0.00000000  0.77732933  1
  Bi  Bi5_6  1  0.75000000  0.50000000  0.27732933  1
  Bi  Bi5_7  1  0.75000000  0.50000000  0.77732933  1
loop_
_geom_bond_atom_site_label_1
_geom_bond_atom_site_label_2
_geom_bond_distance
_geom_bond_site_symmetry_2
Mg0_0 Mg4_2 3.256612 1_545
Mg0_0 Mg4_0 3.256612 1_555
Mg0_0 Mg0_2 3.454110 1_555
Mg0_0 Mg0_2 3.454110 1_545
Mg0_1 Mg4_1 3.256612 1_555
Mg0_1 Mg4_3 3.256612 1_545
Mg0_1 Mg0_3 3.454110 1_545
Mg0_1 Mg0_3 3.454110 1_555
Mg0_2 Mg4_2 3.256612 1_555
Mg0_2 Mg4_0 3.256612 1_555
Mg0_3 Mg4_1 3.256612 1_555
Mg0_3 Mg4_3 3.256612 1_555
Mg0_4 Mg4_4 3.256612 1_555
Mg0_4 Mg4_6 3.256612 1_545
Mg0_4 Mg0_6 3.454110 1_555
Mg0_4 Mg0_6 3.454110 1_545
Mg0_5 Mg4_5 3.256612 1_555
Mg0_5 Mg4_7 3.256612 1_545
Mg0_5 Mg0_7 3.454110 1_545
Mg0_5 Mg0_7 3.454110 1_555
Mg0_6 Mg4_4 3.256612 1_555
Mg0_6 Mg4_6 3.256612 1_555
Mg0_7 Mg4_7 3.256612 1_555
Mg0_7 Mg4_5 3.256612 1_555
Mg1_0 Mg3_2 3.256612 1_545
Mg1_0 Mg3_0 3.256612 1_555
Mg1_0 Mg2_0 3.424426 1_555
Mg1_0 Mg2_4 3.424426 1_455
Mg1_0 Mg1_2 3.454110 1_545
Mg1_0 Mg1_2 3.454110 1_555
Mg1_1 Mg3_3 3.256612 1_545
Mg1_1 Mg3_1 3.256612 1_555
Mg1_1 Mg2_1 3.424426 1_555
Mg1_1 Mg2_5 3.424426 1_455
Mg1_1 Mg1_3 3.454110 1_545
Mg1_1 Mg1_3 3.454110 1_555
Mg1_2 Mg3_0 3.256612 1_555
Mg1_2 Mg3_2 3.256612 1_555
Mg1_2 Mg2_2 3.424426 1_555
Mg1_2 Mg2_6 3.424426 1_455
Mg1_3 Mg3_3 3.256612 1_555
Mg1_3 Mg3_1 3.256612 1_555
Mg1_3 Mg2_7 3.424426 1_455
Mg1_3 Mg2_3 3.424426 1_555
Mg1_4 Mg3_4 3.256612 1_555
Mg1_4 Mg3_6 3.256612 1_545
Mg1_4 Mg2_0 3.424426 1_555
Mg1_4 Mg2_4 3.424426 1_555
Mg1_4 Mg1_6 3.454110 1_545
Mg1_4 Mg1_6 3.454110 1_555
Mg1_5 Mg3_5 3.256612 1_555
Mg1_5 Mg3_7 3.256612 1_545
Mg1_5 Mg2_1 3.424426 1_555
Mg1_5 Mg2_5 3.424426 1_555
Mg1_5 Mg1_7 3.454110 1_545
Mg1_5 Mg1_7 3.454110 1_555
Mg1_6 Mg3_6 3.256612 1_555
Mg1_6 Mg3_4 3.256612 1_555
Mg1_6 Mg2_2 3.424426 1_555
Mg1_6 Mg2_6 3.424426 1_555
Mg1_7 Mg3_5 3.256612 1_555
Mg1_7 Mg3_7 3.256612 1_555
Mg1_7 Mg2_7 3.424426 1_555
Mg1_7 Mg2_3 3.424426 1_555
Mg2_0 Mg2_2 3.454110 1_545
Mg2_0 Mg2_2 3.454110 1_555
Mg2_1 Mg2_3 3.454110 1_555
Mg2_1 Mg2_3 3.454110 1_545
Mg2_4 Mg2_6 3.454110 1_545
Mg2_4 Mg2_6 3.454110 1_555
Mg2_5 Mg2_7 3.454110 1_555
Mg2_5 Mg2_7 3.454110 1_545
Mg3_0 Mg3_2 3.454110 1_545
Mg3_0 Mg3_2 3.454110 1_555
Mg3_1 Mg3_3 3.454110 1_555
Mg3_1 Mg3_3 3.454110 1_545
Mg3_4 Mg3_6 3.454110 1_545
Mg3_4 Mg3_6 3.454110 1_555
Mg3_5 Mg3_7 3.454110 1_555
Mg3_5 Mg3_7 3.454110 1_545
Mg4_0 Mg5_0 3.424426 1_555
Mg4_0 Mg5_4 3.424426 1_455
Mg4_0 Mg4_2 3.454110 1_555
Mg4_0 Mg4_2 3.454110 1_545
Mg4_1 Mg5_1 3.424426 1_555
Mg4_1 Mg5_5 3.424426 1_455
Mg4_1 Mg4_3 3.454110 1_555
Mg4_1 Mg4_3 3.454110 1_545
Mg4_2 Mg5_2 3.424426 1_555
Mg4_2 Mg5_6 3.424426 1_455
Mg4_3 Mg5_3 3.424426 1_555
Mg4_3 Mg5_7 3.424426 1_455
Mg4_4 Mg5_0 3.424426 1_555
Mg4_4 Mg5_4 3.424426 1_555
Mg4_4 Mg4_6 3.454110 1_555
Mg4_4 Mg4_6 3.454110 1_545
Mg4_5 Mg5_1 3.424426 1_555
Mg4_5 Mg5_5 3.424426 1_555
Mg4_5 Mg4_7 3.454110 1_555
Mg4_5 Mg4_7 3.454110 1_545
Mg4_6 Mg5_6 3.424426 1_555
Mg4_6 Mg5_2 3.424426 1_555
Mg4_7 Mg5_7 3.424426 1_555
Mg4_7 Mg5_3 3.424426 1_555
Mg5_0 Mg5_2 3.454110 1_545
Mg5_0 Mg5_2 3.454110 1_555
Mg5_1 Mg5_3 3.454110 1_555
Mg5_1 Mg5_3 3.454110 1_545
Mg5_4 Mg5_6 3.454110 1_545
Mg5_4 Mg5_6 3.454110 1_555
Mg5_5 Mg5_7 3.454110 1_545
Mg5_5 Mg5_7 3.454110 1_555
Bi0_0 Mg1_2 3.214009 1_555
Bi0_0 Mg1_0 3.214009 1_555
Bi0_0 Mg2_0 3.230748 1_555
Bi0_0 Mg2_4 3.230748 1_455
Bi0_0 Mg2_2 3.230748 1_555
Bi0_0 Mg2_6 3.230748 1_455
Bi0_0 Bi0_2 3.454110 1_545
Bi0_0 Bi0_2 3.454110 1_555
Bi0_0 Bi2_4 3.528855 1_455
Bi0_0 Bi2_0 3.528855 1_555
Bi0_1 Mg1_3 3.214009 1_555
Bi0_1 Mg1_1 3.214009 1_555
Bi0_1 Mg2_3 3.230748 1_555
Bi0_1 Mg2_7 3.230748 1_455
Bi0_1 Mg2_1 3.230748 1_555
Bi0_1 Mg2_5 3.230748 1_455
Bi0_1 Bi0_3 3.454110 1_545
Bi0_1 Bi0_3 3.454110 1_555
Bi0_1 Bi2_5 3.528855 1_455
Bi0_1 Bi2_1 3.528855 1_555
Bi0_2 Mg1_2 3.214009 1_555
Bi0_2 Mg1_0 3.214009 1_565
Bi0_2 Mg2_4 3.230748 1_465
Bi0_2 Mg2_0 3.230748 1_565
Bi0_2 Mg2_2 3.230748 1_555
Bi0_2 Mg2_6 3.230748 1_455
Bi0_2 Bi2_6 3.528855 1_455
Bi0_2 Bi2_2 3.528855 1_555
Bi0_3 Mg1_3 3.214009 1_555
Bi0_3 Mg1_1 3.214009 1_565
Bi0_3 Mg2_3 3.230748 1_555
Bi0_3 Mg2_7 3.230748 1_455
Bi0_3 Mg2_5 3.230748 1_465
Bi0_3 Mg2_1 3.230748 1_565
Bi0_3 Bi2_3 3.528855 1_555
Bi0_3 Bi2_7 3.528855 1_455
Bi0_4 Mg1_6 3.214009 1_555
Bi0_4 Mg1_4 3.214009 1_555
Bi0_4 Mg2_0 3.230748 1_555
Bi0_4 Mg2_6 3.230748 1_555
Bi0_4 Mg2_4 3.230748 1_555
Bi0_4 Mg2_2 3.230748 1_555
Bi0_4 Bi0_6 3.454110 1_545
Bi0_4 Bi0_6 3.454110 1_555
Bi0_4 Bi2_0 3.528855 1_555
Bi0_4 Bi2_4 3.528855 1_555
Bi0_5 Mg1_5 3.214009 1_555
Bi0_5 Mg1_7 3.214009 1_555
Bi0_5 Mg2_3 3.230748 1_555
Bi0_5 Mg2_5 3.230748 1_555
Bi0_5 Mg2_7 3.230748 1_555
Bi0_5 Mg2_1 3.230748 1_555
Bi0_5 Bi0_7 3.454110 1_545
Bi0_5 Bi0_7 3.454110 1_555
Bi0_5 Bi2_1 3.528855 1_555
Bi0_5 Bi2_5 3.528855 1_555
Bi0_6 Mg1_4 3.214009 1_565
Bi0_6 Mg1_6 3.214009 1_555
Bi0_6 Mg2_4 3.230748 1_565
Bi0_6 Mg2_6 3.230748 1_555
Bi0_6 Mg2_0 3.230748 1_565
Bi0_6 Mg2_2 3.230748 1_555
Bi0_6 Bi2_2 3.528855 1_555
Bi0_6 Bi2_6 3.528855 1_555
Bi0_7 Mg1_5 3.214009 1_565
Bi0_7 Mg1_7 3.214009 1_555
Bi0_7 Mg2_5 3.230748 1_565
Bi0_7 Mg2_3 3.230748 1_555
Bi0_7 Mg2_1 3.230748 1_565
Bi0_7 Mg2_7 3.230748 1_555
Bi0_7 Bi2_3 3.528855 1_555
Bi0_7 Bi2_7 3.528855 1_555
Bi1_0 Mg1_6 3.236627 1_555
Bi1_0 Mg1_4 3.236627 1_555
Bi1_0 Mg1_2 3.236627 1_555
Bi1_0 Mg1_0 3.236627 1_555
Bi1_0 Mg2_2 3.241529 1_555
Bi1_0 Mg2_0 3.241529 1_555
Bi1_0 Mg3_0 3.435599 1_555
Bi1_0 Mg3_4 3.435599 1_555
Bi1_0 Bi1_2 3.454110 1_555
Bi1_0 Bi1_2 3.454110 1_545
Bi1_0 Bi5_0 3.631512 1_555
Bi1_0 Bi5_2 3.631512 1_555
Bi1_1 Mg1_3 3.236627 1_555
Bi1_1 Mg1_7 3.236627 1_555
Bi1_1 Mg1_1 3.236627 1_555
Bi1_1 Mg1_5 3.236627 1_555
Bi1_1 Mg2_1 3.241529 1_555
Bi1_1 Mg2_3 3.241529 1_555
Bi1_1 Mg3_1 3.435599 1_555
Bi1_1 Mg3_5 3.435599 1_555
Bi1_1 Bi1_3 3.454110 1_555
Bi1_1 Bi1_3 3.454110 1_545
Bi1_1 Bi5_3 3.631512 1_555
Bi1_1 Bi5_1 3.631512 1_555
Bi1_2 Mg1_4 3.236627 1_565
Bi1_2 Mg1_6 3.236627 1_555
Bi1_2 Mg1_0 3.236627 1_565
Bi1_2 Mg1_2 3.236627 1_555
Bi1_2 Mg2_0 3.241529 1_565
Bi1_2 Mg2_2 3.241529 1_555
Bi1_2 Mg3_2 3.435599 1_555
Bi1_2 Mg3_6 3.435599 1_555
Bi1_2 Bi5_0 3.631512 1_565
Bi1_2 Bi5_2 3.631512 1_555
Bi1_3 Mg1_3 3.236627 1_555
Bi1_3 Mg1_5 3.236627 1_565
Bi1_3 Mg1_7 3.236627 1_555
Bi1_3 Mg1_1 3.236627 1_565
Bi1_3 Mg2_1 3.241529 1_565
Bi1_3 Mg2_3 3.241529 1_555
Bi1_3 Mg3_3 3.435599 1_555
Bi1_3 Mg3_7 3.435599 1_555
Bi1_3 Bi5_3 3.631512 1_555
Bi1_3 Bi5_1 3.631512 1_565
Bi1_4 Mg1_6 3.236627 1_555
Bi1_4 Mg1_4 3.236627 1_555
Bi1_4 Mg1_0 3.236627 1_655
Bi1_4 Mg1_2 3.236627 1_655
Bi1_4 Mg2_6 3.241529 1_555
Bi1_4 Mg2_4 3.241529 1_555
Bi1_4 Mg3_0 3.435599 1_655
Bi1_4 Mg3_4 3.435599 1_555
Bi1_4 Bi1_6 3.454110 1_555
Bi1_4 Bi1_6 3.454110 1_545
Bi1_4 Bi5_4 3.631512 1_555
Bi1_4 Bi5_6 3.631512 1_555
Bi1_5 Mg1_7 3.236627 1_555
Bi1_5 Mg1_3 3.236627 1_655
Bi1_5 Mg1_5 3.236627 1_555
Bi1_5 Mg1_1 3.236627 1_655
Bi1_5 Mg2_5 3.241529 1_555
Bi1_5 Mg2_7 3.241529 1_555
Bi1_5 Mg3_1 3.435599 1_655
Bi1_5 Mg3_5 3.435599 1_555
Bi1_5 Bi1_7 3.454110 1_545
Bi1_5 Bi1_7 3.454110 1_555
Bi1_5 Bi5_5 3.631512 1_555
Bi1_5 Bi5_7 3.631512 1_555
Bi1_6 Mg1_4 3.236627 1_565
Bi1_6 Mg1_6 3.236627 1_555
Bi1_6 Mg1_0 3.236627 1_665
Bi1_6 Mg1_2 3.236627 1_655
Bi1_6 Mg2_4 3.241529 1_565
Bi1_6 Mg2_6 3.241529 1_555
Bi1_6 Mg3_2 3.435599 1_655
Bi1_6 Mg3_6 3.435599 1_555
Bi1_6 Bi5_4 3.631512 1_565
Bi1_6 Bi5_6 3.631512 1_555
Bi1_7 Mg1_1 3.236627 1_665
Bi1_7 Mg1_5 3.236627 1_565
Bi1_7 Mg1_7 3.236627 1_555
Bi1_7 Mg1_3 3.236627 1_655
Bi1_7 Mg2_5 3.241529 1_565
Bi1_7 Mg2_7 3.241529 1_555
Bi1_7 Mg3_3 3.435599 1_655
Bi1_7 Mg3_7 3.435599 1_555
Bi1_7 Bi5_5 3.631512 1_565
Bi1_7 Bi5_7 3.631512 1_555
Bi2_0 Mg0_3 3.344249 1_554
Bi2_0 Mg0_1 3.344249 1_554
Bi2_0 Mg0_7 3.344249 1_554
Bi2_0 Mg0_5 3.344249 1_554
Bi2_0 Mg2_2 3.352779 1_555
Bi2_0 Mg2_0 3.352779 1_555
Bi2_0 Bi2_2 3.454110 1_545
Bi2_0 Bi2_2 3.454110 1_555
Bi2_0 Bi4_3 3.631512 1_554
Bi2_0 Bi4_1 3.631512 1_554
Bi2_1 Mg0_2 3.344249 1_555
Bi2_1 Mg0_0 3.344249 1_555
Bi2_1 Mg0_6 3.344249 1_555
Bi2_1 Mg0_4 3.344249 1_555
Bi2_1 Mg2_3 3.352779 1_555
Bi2_1 Mg2_1 3.352779 1_555
Bi2_1 Bi2_3 3.454110 1_555
Bi2_1 Bi2_3 3.454110 1_545
Bi2_1 Bi4_2 3.631512 1_555
Bi2_1 Bi4_0 3.631512 1_555
Bi2_2 Mg0_3 3.344249 1_554
Bi2_2 Mg0_1 3.344249 1_564
Bi2_2 Mg0_5 3.344249 1_564
Bi2_2 Mg0_7 3.344249 1_554
Bi2_2 Mg2_0 3.352779 1_565
Bi2_2 Mg2_2 3.352779 1_555
Bi2_2 Bi4_1 3.631512 1_564
Bi2_2 Bi4_3 3.631512 1_554
Bi2_3 Mg0_2 3.344249 1_555
Bi2_3 Mg0_4 3.344249 1_565
Bi2_3 Mg0_6 3.344249 1_555
Bi2_3 Mg0_0 3.344249 1_565
Bi2_3 Mg2_3 3.352779 1_555
Bi2_3 Mg2_1 3.352779 1_565
Bi2_3 Bi4_2 3.631512 1_555
Bi2_3 Bi4_0 3.631512 1_565
Bi2_4 Mg0_3 3.344249 1_654
Bi2_4 Mg0_1 3.344249 1_654
Bi2_4 Mg0_7 3.344249 1_554
Bi2_4 Mg0_5 3.344249 1_554
Bi2_4 Mg2_4 3.352779 1_555
Bi2_4 Mg2_6 3.352779 1_555
Bi2_4 Bi2_6 3.454110 1_545
Bi2_4 Bi2_6 3.454110 1_555
Bi2_4 Bi4_7 3.631512 1_554
Bi2_4 Bi4_5 3.631512 1_554
Bi2_5 Mg0_2 3.344249 1_655
Bi2_5 Mg0_6 3.344249 1_555
Bi2_5 Mg0_4 3.344249 1_555
Bi2_5 Mg0_0 3.344249 1_655
Bi2_5 Mg2_5 3.352779 1_555
Bi2_5 Mg2_7 3.352779 1_555
Bi2_5 Bi2_7 3.454110 1_545
Bi2_5 Bi2_7 3.454110 1_555
Bi2_5 Bi4_4 3.631512 1_555
Bi2_5 Bi4_6 3.631512 1_555
Bi2_6 Mg0_3 3.344249 1_654
Bi2_6 Mg0_5 3.344249 1_564
Bi2_6 Mg0_7 3.344249 1_554
Bi2_6 Mg0_1 3.344249 1_664
Bi2_6 Mg2_6 3.352779 1_555
Bi2_6 Mg2_4 3.352779 1_565
Bi2_6 Bi4_5 3.631512 1_564
Bi2_6 Bi4_7 3.631512 1_554
Bi2_7 Mg0_0 3.344249 1_665
Bi2_7 Mg0_4 3.344249 1_565
Bi2_7 Mg0_2 3.344249 1_655
Bi2_7 Mg0_6 3.344249 1_555
Bi2_7 Mg2_5 3.352779 1_565
Bi2_7 Mg2_7 3.352779 1_555
Bi2_7 Bi4_4 3.631512 1_565
Bi2_7 Bi4_6 3.631512 1_555
Bi3_0 Mg4_0 3.214009 1_555
Bi3_0 Mg4_2 3.214009 1_545
Bi3_0 Mg5_4 3.230748 1_455
Bi3_0 Mg5_2 3.230748 1_545
Bi3_0 Mg5_6 3.230748 1_445
Bi3_0 Mg5_0 3.230748 1_555
Bi3_0 Bi3_2 3.454110 1_545
Bi3_0 Bi3_2 3.454110 1_555
Bi3_0 Bi5_4 3.528855 1_455
Bi3_0 Bi5_0 3.528855 1_555
Bi3_1 Mg4_1 3.214009 1_555
Bi3_1 Mg4_3 3.214009 1_545
Bi3_1 Mg5_5 3.230748 1_455
Bi3_1 Mg5_3 3.230748 1_545
Bi3_1 Mg5_7 3.230748 1_445
Bi3_1 Mg5_1 3.230748 1_555
Bi3_1 Bi3_3 3.454110 1_545
Bi3_1 Bi3_3 3.454110 1_555
Bi3_1 Bi5_5 3.528855 1_455
Bi3_1 Bi5_1 3.528855 1_555
Bi3_2 Mg4_0 3.214009 1_555
Bi3_2 Mg4_2 3.214009 1_555
Bi3_2 Mg5_4 3.230748 1_455
Bi3_2 Mg5_2 3.230748 1_555
Bi3_2 Mg5_6 3.230748 1_455
Bi3_2 Mg5_0 3.230748 1_555
Bi3_2 Bi5_6 3.528855 1_455
Bi3_2 Bi5_2 3.528855 1_555
Bi3_3 Mg4_3 3.214009 1_555
Bi3_3 Mg4_1 3.214009 1_555
Bi3_3 Mg5_7 3.230748 1_455
Bi3_3 Mg5_3 3.230748 1_555
Bi3_3 Mg5_5 3.230748 1_455
Bi3_3 Mg5_1 3.230748 1_555
Bi3_3 Bi5_7 3.528855 1_455
Bi3_3 Bi5_3 3.528855 1_555
Bi3_4 Mg4_6 3.214009 1_545
Bi3_4 Mg4_4 3.214009 1_555
Bi3_4 Mg5_4 3.230748 1_555
Bi3_4 Mg5_2 3.230748 1_545
Bi3_4 Mg5_0 3.230748 1_555
Bi3_4 Mg5_6 3.230748 1_545
Bi3_4 Bi3_6 3.454110 1_545
Bi3_4 Bi3_6 3.454110 1_555
Bi3_4 Bi5_0 3.528855 1_555
Bi3_4 Bi5_4 3.528855 1_555
Bi3_5 Mg4_5 3.214009 1_555
Bi3_5 Mg4_7 3.214009 1_545
Bi3_5 Mg5_3 3.230748 1_545
Bi3_5 Mg5_1 3.230748 1_555
Bi3_5 Mg5_7 3.230748 1_545
Bi3_5 Mg5_5 3.230748 1_555
Bi3_5 Bi3_7 3.454110 1_545
Bi3_5 Bi3_7 3.454110 1_555
Bi3_5 Bi5_5 3.528855 1_555
Bi3_5 Bi5_1 3.528855 1_555
Bi3_6 Mg4_6 3.214009 1_555
Bi3_6 Mg4_4 3.214009 1_555
Bi3_6 Mg5_4 3.230748 1_555
Bi3_6 Mg5_2 3.230748 1_555
Bi3_6 Mg5_6 3.230748 1_555
Bi3_6 Mg5_0 3.230748 1_555
Bi3_6 Bi5_2 3.528855 1_555
Bi3_6 Bi5_6 3.528855 1_555
Bi3_7 Mg4_5 3.214009 1_555
Bi3_7 Mg4_7 3.214009 1_555
Bi3_7 Mg5_3 3.230748 1_555
Bi3_7 Mg5_1 3.230748 1_555
Bi3_7 Mg5_7 3.230748 1_555
Bi3_7 Mg5_5 3.230748 1_555
Bi3_7 Bi5_3 3.528855 1_555
Bi3_7 Bi5_7 3.528855 1_555
Bi4_0 Mg4_4 3.236627 1_555
Bi4_0 Mg4_2 3.236627 1_545
Bi4_0 Mg4_0 3.236627 1_555
Bi4_0 Mg4_6 3.236627 1_545
Bi4_0 Mg5_0 3.241529 1_555
Bi4_0 Mg5_2 3.241529 1_545
Bi4_0 Mg0_0 3.435599 1_555
Bi4_0 Mg0_4 3.435599 1_555
Bi4_0 Bi4_2 3.454110 1_545
Bi4_0 Bi4_2 3.454110 1_555
Bi4_1 Mg4_1 3.236627 1_555
Bi4_1 Mg4_3 3.236627 1_545
Bi4_1 Mg4_7 3.236627 1_545
Bi4_1 Mg4_5 3.236627 1_555
Bi4_1 Mg5_1 3.241529 1_555
Bi4_1 Mg5_3 3.241529 1_545
Bi4_1 Mg0_1 3.435599 1_555
Bi4_1 Mg0_5 3.435599 1_555
Bi4_1 Bi4_3 3.454110 1_555
Bi4_1 Bi4_3 3.454110 1_545
Bi4_2 Mg4_4 3.236627 1_555
Bi4_2 Mg4_2 3.236627 1_555
Bi4_2 Mg4_0 3.236627 1_555
Bi4_2 Mg4_6 3.236627 1_555
Bi4_2 Mg5_0 3.241529 1_555
Bi4_2 Mg5_2 3.241529 1_555
Bi4_2 Mg0_6 3.435599 1_555
Bi4_2 Mg0_2 3.435599 1_555
Bi4_3 Mg4_1 3.236627 1_555
Bi4_3 Mg4_7 3.236627 1_555
Bi4_3 Mg4_5 3.236627 1_555
Bi4_3 Mg4_3 3.236627 1_555
Bi4_3 Mg5_1 3.241529 1_555
Bi4_3 Mg5_3 3.241529 1_555
Bi4_3 Mg0_3 3.435599 1_555
Bi4_3 Mg0_7 3.435599 1_555
Bi4_4 Mg4_0 3.236627 1_655
Bi4_4 Mg4_4 3.236627 1_555
Bi4_4 Mg4_2 3.236627 1_645
Bi4_4 Mg4_6 3.236627 1_545
Bi4_4 Mg5_6 3.241529 1_545
Bi4_4 Mg5_4 3.241529 1_555
Bi4_4 Mg0_4 3.435599 1_555
Bi4_4 Mg0_0 3.435599 1_655
Bi4_4 Bi4_6 3.454110 1_545
Bi4_4 Bi4_6 3.454110 1_555
Bi4_5 Mg4_7 3.236627 1_545
Bi4_5 Mg4_5 3.236627 1_555
Bi4_5 Mg4_1 3.236627 1_655
Bi4_5 Mg4_3 3.236627 1_645
Bi4_5 Mg5_7 3.241529 1_545
Bi4_5 Mg5_5 3.241529 1_555
Bi4_5 Mg0_1 3.435599 1_655
Bi4_5 Mg0_5 3.435599 1_555
Bi4_5 Bi4_7 3.454110 1_545
Bi4_5 Bi4_7 3.454110 1_555
Bi4_6 Mg4_0 3.236627 1_655
Bi4_6 Mg4_4 3.236627 1_555
Bi4_6 Mg4_2 3.236627 1_655
Bi4_6 Mg4_6 3.236627 1_555
Bi4_6 Mg5_6 3.241529 1_555
Bi4_6 Mg5_4 3.241529 1_555
Bi4_6 Mg0_2 3.435599 1_655
Bi4_6 Mg0_6 3.435599 1_555
Bi4_7 Mg4_3 3.236627 1_655
Bi4_7 Mg4_7 3.236627 1_555
Bi4_7 Mg4_5 3.236627 1_555
Bi4_7 Mg4_1 3.236627 1_655
Bi4_7 Mg5_7 3.241529 1_555
Bi4_7 Mg5_5 3.241529 1_555
Bi4_7 Mg0_7 3.435599 1_555
Bi4_7 Mg0_3 3.435599 1_655
Bi5_0 Mg3_0 3.344249 1_555
Bi5_0 Mg3_2 3.344249 1_545
Bi5_0 Mg3_4 3.344249 1_555
Bi5_0 Mg3_6 3.344249 1_545
Bi5_0 Mg5_0 3.352779 1_555
Bi5_0 Mg5_2 3.352779 1_545
Bi5_0 Bi5_2 3.454110 1_545
Bi5_0 Bi5_2 3.454110 1_555
Bi5_1 Mg3_1 3.344249 1_555
Bi5_1 Mg3_7 3.344249 1_545
Bi5_1 Mg3_5 3.344249 1_555
Bi5_1 Mg3_3 3.344249 1_545
Bi5_1 Mg5_1 3.352779 1_555
Bi5_1 Mg5_3 3.352779 1_545
Bi5_1 Bi5_3 3.454110 1_545
Bi5_1 Bi5_3 3.454110 1_555
Bi5_2 Mg3_6 3.344249 1_555
Bi5_2 Mg3_0 3.344249 1_555
Bi5_2 Mg3_4 3.344249 1_555
Bi5_2 Mg3_2 3.344249 1_555
Bi5_2 Mg5_0 3.352779 1_555
Bi5_2 Mg5_2 3.352779 1_555
Bi5_3 Mg3_1 3.344249 1_555
Bi5_3 Mg3_7 3.344249 1_555
Bi5_3 Mg3_5 3.344249 1_555
Bi5_3 Mg3_3 3.344249 1_555
Bi5_3 Mg5_1 3.352779 1_555
Bi5_3 Mg5_3 3.352779 1_555
Bi5_4 Mg3_2 3.344249 1_645
Bi5_4 Mg3_4 3.344249 1_555
Bi5_4 Mg3_6 3.344249 1_545
Bi5_4 Mg3_0 3.344249 1_655
Bi5_4 Mg5_4 3.352779 1_555
Bi5_4 Mg5_6 3.352779 1_545
Bi5_4 Bi5_6 3.454110 1_555
Bi5_4 Bi5_6 3.454110 1_545
Bi5_5 Mg3_7 3.344249 1_545
Bi5_5 Mg3_3 3.344249 1_645
Bi5_5 Mg3_1 3.344249 1_655
Bi5_5 Mg3_5 3.344249 1_555
Bi5_5 Mg5_7 3.352779 1_545
Bi5_5 Mg5_5 3.352779 1_555
Bi5_5 Bi5_7 3.454110 1_555
Bi5_5 Bi5_7 3.454110 1_545
Bi5_6 Mg3_6 3.344249 1_555
Bi5_6 Mg3_4 3.344249 1_555
Bi5_6 Mg3_0 3.344249 1_655
Bi5_6 Mg3_2 3.344249 1_655
Bi5_6 Mg5_4 3.352779 1_555
Bi5_6 Mg5_6 3.352779 1_555
Bi5_7 Mg3_3 3.344249 1_655
Bi5_7 Mg3_7 3.344249 1_555
Bi5_7 Mg3_1 3.344249 1_655
Bi5_7 Mg3_5 3.344249 1_555
Bi5_7 Mg5_7 3.352779 1_555
Bi5_7 Mg5_5 3.352779 1_555
