# generated using pymatgen
data_Cs2Hg6S7
_symmetry_space_group_name_H-M   'P 1'
_cell_length_a   14.16469878
_cell_length_b   14.16469878
_cell_length_c   4.22042213
_cell_angle_alpha   90.00000000
_cell_angle_beta   90.00000000
_cell_angle_gamma   90.00000000
_symmetry_Int_Tables_number   1
_chemical_formula_structural   Cs2Hg6S7
_chemical_formula_sum   'Cs4 Hg12 S14'
_cell_volume   846.77997386
_cell_formula_units_Z   2
loop_
 _symmetry_equiv_pos_site_id
 _symmetry_equiv_pos_as_xyz
  1  'x, y, z'
loop_
 _atom_site_type_symbol
 _atom_site_label
 _atom_site_symmetry_multiplicity
 _atom_site_fract_x
 _atom_site_fract_y
 _atom_site_fract_z
 _atom_site_occupancy
  Cs  Cs0  1  0.17041001  0.82958999  0.71626702  1
  Cs  Cs1  1  0.67041001  0.67041001  0.21626702  1
  Cs  Cs2  1  0.32958999  0.32958999  0.21626702  1
  Cs  Cs3  1  0.82958999  0.17041001  0.71626702  1
  Hg  Hg0  1  0.90214982  0.90214982  0.31942924  1
  Hg  Hg1  1  0.40214982  0.59785018  0.81942924  1
  Hg  Hg2  1  0.59785018  0.40214982  0.81942924  1
  Hg  Hg3  1  0.09785018  0.09785018  0.31942924  1
  Hg  Hg4  1  0.15322286  0.57247205  0.22388992  1
  Hg  Hg5  1  0.84677714  0.42752795  0.22388992  1
  Hg  Hg6  1  0.92752795  0.65322286  0.72388992  1
  Hg  Hg7  1  0.07247205  0.34677714  0.72388992  1
  Hg  Hg8  1  0.42752795  0.84677714  0.22388992  1
  Hg  Hg9  1  0.34677714  0.07247205  0.72388992  1
  Hg  Hg10  1  0.65322286  0.92752795  0.72388992  1
  Hg  Hg11  1  0.57247205  0.15322286  0.22388992  1
  S  S0  1  0.81743698  0.81743698  0.71179986  1
  S  S1  1  0.31743698  0.68256302  0.21179986  1
  S  S2  1  0.68256302  0.31743698  0.21179986  1
  S  S3  1  0.18256302  0.18256302  0.71179986  1
  S  S4  1  0.50000000  0.50000000  0.49841943  1
  S  S5  1  -0.00000000  -0.00000000  0.99841943  1
  S  S6  1  0.02274450  0.69160495  0.22304667  1
  S  S7  1  0.97725550  0.30839505  0.22304667  1
  S  S8  1  0.80839505  0.52274450  0.72304667  1
  S  S9  1  0.19160495  0.47725550  0.72304667  1
  S  S10  1  0.30839505  0.97725550  0.22304667  1
  S  S11  1  0.47725550  0.19160495  0.72304667  1
  S  S12  1  0.69160495  0.02274450  0.22304667  1
  S  S13  1  0.52274450  0.80839505  0.72304667  1
loop_
_geom_bond_atom_site_label_1
_geom_bond_atom_site_label_2
_geom_bond_distance
_geom_bond_site_symmetry_2
Cs0 S6 3.539510 1_555
Cs0 S10 3.539510 1_555
Cs0 S6 3.573465 1_556
Cs0 S10 3.573465 1_556
Cs0 S1 3.612224 1_556
Cs0 S5 3.615375 1_565
Cs0 S1 3.634185 1_555
Cs1 S8 3.539510 1_554
Cs1 S13 3.539510 1_554
Cs1 S8 3.573465 1_555
Cs1 S13 3.573465 1_555
Cs1 S0 3.612224 1_555
Cs1 S4 3.615375 1_555
Cs1 S0 3.634185 1_554
Cs2 S11 3.539510 1_554
Cs2 S9 3.539510 1_554
Cs2 S11 3.573465 1_555
Cs2 S9 3.573465 1_555
Cs2 S3 3.612224 1_555
Cs2 S4 3.615375 1_555
Cs2 S3 3.634185 1_554
Cs3 S12 3.539510 1_555
Cs3 S7 3.539510 1_555
Cs3 S12 3.573465 1_556
Cs3 S7 3.573465 1_556
Cs3 S2 3.612224 1_556
Cs3 S5 3.615375 1_655
Cs3 S2 3.634185 1_555
Hg0 S0 2.371056 1_555
Hg0 S5 2.382765 1_664
Hg0 S0 3.075076 1_554
Hg1 S1 2.371056 1_556
Hg1 S4 2.382765 1_555
Hg1 S1 3.075076 1_555
Hg2 S2 2.371056 1_556
Hg2 S4 2.382765 1_555
Hg2 S2 3.075076 1_555
Hg3 S3 2.371056 1_555
Hg3 S5 2.382765 1_554
Hg3 S3 3.075076 1_554
Hg4 S6 2.502679 1_555
Hg4 S9 2.559803 1_555
Hg4 S9 2.565664 1_554
Hg4 S1 2.800862 1_555
Hg5 S7 2.502679 1_555
Hg5 S8 2.559803 1_555
Hg5 S8 2.565664 1_554
Hg5 S2 2.800862 1_555
Hg6 S8 2.502679 1_555
Hg6 S6 2.559803 1_656
Hg6 S6 2.565664 1_655
Hg6 S0 2.800862 1_555
Hg7 S9 2.502679 1_555
Hg7 S7 2.559803 1_456
Hg7 S7 2.565664 1_455
Hg7 S3 2.800862 1_555
Hg8 S10 2.502679 1_555
Hg8 S13 2.559803 1_555
Hg8 S13 2.565664 1_554
Hg8 S1 2.800862 1_555
Hg9 S11 2.502679 1_555
Hg9 S10 2.559803 1_546
Hg9 S10 2.565664 1_545
Hg9 S3 2.800862 1_555
Hg10 S13 2.502679 1_555
Hg10 S12 2.559803 1_566
Hg10 S12 2.565664 1_565
Hg10 S0 2.800862 1_555
Hg11 S12 2.502679 1_555
Hg11 S11 2.559803 1_555
Hg11 S11 2.565664 1_554
Hg11 S2 2.800862 1_555
