# generated using pymatgen
data_AgClO4
_symmetry_space_group_name_H-M   'P 1'
_cell_length_a   5.72190200
_cell_length_b   7.37088800
_cell_length_c   7.93022700
_cell_angle_alpha   90.00000000
_cell_angle_beta   90.00000000
_cell_angle_gamma   90.00000000
_symmetry_Int_Tables_number   1
_chemical_formula_structural   AgClO4
_chemical_formula_sum   'Ag4 Cl4 O16'
_cell_volume   334.46127923
_cell_formula_units_Z   4
loop_
 _symmetry_equiv_pos_site_id
 _symmetry_equiv_pos_as_xyz
  1  'x, y, z'
loop_
 _atom_site_type_symbol
 _atom_site_label
 _atom_site_symmetry_multiplicity
 _atom_site_fract_x
 _atom_site_fract_y
 _atom_site_fract_z
 _atom_site_occupancy
  Ag  Ag0  1  0.25000000  0.20050200  0.69286400  1
  Ag  Ag1  1  0.25000000  0.29949800  0.19286400  1
  Ag  Ag2  1  0.75000000  0.79949800  0.30713600  1
  Ag  Ag3  1  0.75000000  0.70050200  0.80713600  1
  Cl  Cl0  1  0.25000000  0.67633000  0.54590000  1
  Cl  Cl1  1  0.25000000  0.82367000  0.04590000  1
  Cl  Cl2  1  0.75000000  0.32367000  0.45410000  1
  Cl  Cl3  1  0.75000000  0.17633000  0.95410000  1
  O  O0  1  0.54021000  0.29338600  0.94815600  1
  O  O1  1  0.95979000  0.20661400  0.44815600  1
  O  O2  1  0.04021000  0.70661400  0.05184400  1
  O  O3  1  0.45979000  0.79338600  0.55184400  1
  O  O4  1  0.45979000  0.70661400  0.05184400  1
  O  O5  1  0.04021000  0.79338600  0.55184400  1
  O  O6  1  0.95979000  0.29338600  0.94815600  1
  O  O7  1  0.54021000  0.20661400  0.44815600  1
  O  O8  1  0.25000000  0.55626300  0.69291500  1
  O  O9  1  0.25000000  0.94373700  0.19291500  1
  O  O10  1  0.75000000  0.44373700  0.30708500  1
  O  O11  1  0.75000000  0.05626300  0.80708500  1
  O  O12  1  0.25000000  0.92761300  0.88993200  1
  O  O13  1  0.25000000  0.57238700  0.38993200  1
  O  O14  1  0.75000000  0.07238700  0.11006800  1
  O  O15  1  0.75000000  0.42761300  0.61006800  1
loop_
_geom_bond_atom_site_label_1
_geom_bond_atom_site_label_2
_geom_bond_distance
_geom_bond_site_symmetry_2
Ag0 O12 2.547193 1_545
Ag0 O1 2.554478 1_455
Ag0 O7 2.554478 1_555
Ag0 O8 2.622275 1_555
Ag0 O6 2.706448 1_455
Ag0 O0 2.706448 1_555
Ag1 O13 2.547193 1_555
Ag1 O0 2.554478 1_554
Ag1 O6 2.554478 1_454
Ag1 O9 2.622275 1_545
Ag1 O1 2.706448 1_455
Ag1 O7 2.706448 1_555
Ag2 O14 2.547193 1_565
Ag2 O3 2.554478 1_555
Ag2 O5 2.554478 1_655
Ag2 O10 2.622275 1_555
Ag2 O2 2.706448 1_655
Ag2 O4 2.706448 1_555
Ag3 O15 2.547193 1_555
Ag3 O2 2.554478 1_656
Ag3 O4 2.554478 1_556
Ag3 O11 2.622275 1_565
Ag3 O3 2.706448 1_555
Ag3 O5 2.706448 1_655
Cl0 O13 1.454928 1_555
Cl0 O8 1.463715 1_555
Cl0 O3 1.479058 1_555
Cl0 O5 1.479058 1_555
Cl1 O12 1.454928 1_554
Cl1 O9 1.463715 1_555
Cl1 O4 1.479058 1_555
Cl1 O2 1.479058 1_555
Cl2 O15 1.454928 1_555
Cl2 O10 1.463715 1_555
Cl2 O7 1.479058 1_555
Cl2 O1 1.479058 1_555
Cl3 O14 1.454928 1_556
Cl3 O11 1.463715 1_555
Cl3 O6 1.479058 1_555
Cl3 O0 1.479058 1_555
