# generated using pymatgen
data_Ce4Ge7
_symmetry_space_group_name_H-M   'P 1'
_cell_length_a   7.66406907
_cell_length_b   7.66406907
_cell_length_c   12.09478620
_cell_angle_alpha   90.00000000
_cell_angle_beta   90.00000000
_cell_angle_gamma   133.58909607
_symmetry_Int_Tables_number   1
_chemical_formula_structural   Ce4Ge7
_chemical_formula_sum   'Ce8 Ge14'
_cell_volume   514.56157632
_cell_formula_units_Z   2
loop_
 _symmetry_equiv_pos_site_id
 _symmetry_equiv_pos_as_xyz
  1  'x, y, z'
loop_
 _atom_site_type_symbol
 _atom_site_label
 _atom_site_symmetry_multiplicity
 _atom_site_fract_x
 _atom_site_fract_y
 _atom_site_fract_z
 _atom_site_occupancy
  Ce  Ce0  1  0.99692240  0.48583367  0.38076497  1
  Ce  Ce1  1  0.00307760  0.51416633  0.88076497  1
  Ce  Ce2  1  0.51416633  0.00307760  0.11923503  1
  Ce  Ce3  1  0.48583367  0.99692240  0.61923503  1
  Ce  Ce4  1  0.49584897  0.50415103  0.25000000  1
  Ce  Ce5  1  0.50415103  0.49584897  0.75000000  1
  Ce  Ce6  1  0.00378542  0.00378542  0.00000000  1
  Ce  Ce7  1  0.99621458  0.99621458  0.50000000  1
  Ge  Ge0  1  0.93363466  0.06636534  0.25000000  1
  Ge  Ge1  1  0.06636534  0.93363466  0.75000000  1
  Ge  Ge2  1  0.07109914  0.41574688  0.12752793  1
  Ge  Ge3  1  0.92890086  0.58425312  0.62752793  1
  Ge  Ge4  1  0.58425312  0.92890086  0.37247207  1
  Ge  Ge5  1  0.41574688  0.07109914  0.87247207  1
  Ge  Ge6  1  0.97147189  0.66909960  0.16092692  1
  Ge  Ge7  1  0.02852811  0.33090040  0.66092692  1
  Ge  Ge8  1  0.33090040  0.02852811  0.33907308  1
  Ge  Ge9  1  0.66909960  0.97147189  0.83907308  1
  Ge  Ge10  1  0.59837289  0.42350727  0.01102641  1
  Ge  Ge11  1  0.40162711  0.57649273  0.51102641  1
  Ge  Ge12  1  0.57649273  0.40162711  0.48897359  1
  Ge  Ge13  1  0.42350727  0.59837289  0.98897359  1
loop_
_geom_bond_atom_site_label_1
_geom_bond_atom_site_label_2
_geom_bond_distance
_geom_bond_site_symmetry_2
Ce0 Ge8 3.069966 1_665
Ce0 Ge6 3.075443 1_555
Ce0 Ge11 3.100574 1_655
Ce0 Ge4 3.101018 1_545
Ce0 Ge12 3.105541 1_555
Ce0 Ge3 3.207880 1_555
Ce0 Ge2 3.227049 1_655
Ce0 Ge4 3.274932 1_655
Ce0 Ge0 3.304776 1_555
Ce0 Ge7 3.653381 1_655
Ce0 Ge8 3.731418 1_555
Ce1 Ge9 3.069966 1_445
Ce1 Ge7 3.075443 1_555
Ce1 Ge10 3.100574 1_456
Ce1 Ge5 3.101018 1_565
Ce1 Ge13 3.105541 1_555
Ce1 Ge2 3.207880 1_556
Ce1 Ge3 3.227049 1_455
Ce1 Ge5 3.274932 1_455
Ce1 Ge1 3.304776 1_555
Ce1 Ge6 3.653381 1_456
Ce1 Ge9 3.731418 1_555
Ce2 Ge6 3.069966 1_445
Ce2 Ge8 3.075443 1_555
Ce2 Ge13 3.100574 1_544
Ce2 Ge2 3.101018 1_655
Ce2 Ge10 3.105541 1_555
Ce2 Ge5 3.207880 1_554
Ce2 Ge4 3.227049 1_545
Ce2 Ge2 3.274932 1_545
Ce2 Ge0 3.304776 1_555
Ce2 Ge9 3.653381 1_544
Ce2 Ge6 3.731418 1_555
Ce3 Ge7 3.069966 1_665
Ce3 Ge9 3.075443 1_555
Ce3 Ge12 3.100574 1_565
Ce3 Ge3 3.101018 1_455
Ce3 Ge11 3.105541 1_555
Ce3 Ge4 3.207880 1_555
Ce3 Ge5 3.227049 1_565
Ce3 Ge3 3.274932 1_565
Ce3 Ge1 3.304776 1_555
Ce3 Ge8 3.653381 1_565
Ce3 Ge7 3.731418 1_555
Ce4 Ge6 3.113161 1_555
Ce4 Ge8 3.113161 1_555
Ce4 Ge0 3.144490 1_565
Ce4 Ge0 3.144490 1_455
Ce4 Ge12 3.165930 1_555
Ce4 Ge10 3.165930 1_555
Ce4 Ge2 3.195130 1_555
Ce4 Ge4 3.195130 1_555
Ce4 Ge13 3.368674 1_554
Ce4 Ge11 3.368674 1_555
Ce5 Ge9 3.113161 1_555
Ce5 Ge7 3.113161 1_555
Ce5 Ge1 3.144490 1_545
Ce5 Ge1 3.144490 1_655
Ce5 Ge11 3.165930 1_555
Ce5 Ge13 3.165930 1_555
Ce5 Ge3 3.195130 1_555
Ce5 Ge5 3.195130 1_555
Ce5 Ge10 3.368674 1_556
Ce5 Ge12 3.368674 1_555
Ce6 Ge9 3.090832 1_444
Ce6 Ge6 3.090832 1_445
Ce6 Ge1 3.165029 1_544
Ce6 Ge0 3.165029 1_455
Ce6 Ge2 3.219884 1_555
Ce6 Ge5 3.219884 1_554
Ce6 Ge13 3.224205 1_444
Ce6 Ge10 3.224205 1_445
Ce6 Ge10 3.304161 1_555
Ce6 Ge13 3.304161 1_554
Ce7 Ge7 3.090832 1_665
Ce7 Ge8 3.090832 1_665
Ce7 Ge1 3.165029 1_655
Ce7 Ge0 3.165029 1_565
Ce7 Ge4 3.219884 1_555
Ce7 Ge3 3.219884 1_555
Ce7 Ge11 3.224205 1_665
Ce7 Ge12 3.224205 1_665
Ce7 Ge11 3.304161 1_555
Ce7 Ge12 3.304161 1_555
Ge0 Ge2 2.565929 1_655
Ge0 Ge4 2.565929 1_545
Ge1 Ge5 2.565929 1_565
Ge1 Ge3 2.565929 1_455
Ge2 Ge6 2.561421 1_455
Ge3 Ge7 2.561421 1_655
Ge4 Ge8 2.561421 1_565
Ge5 Ge9 2.561421 1_545
Ge6 Ge8 3.058607 1_665
Ge7 Ge9 3.058607 1_445
Ge10 Ge13 2.477914 1_554
Ge10 Ge5 2.617087 1_554
Ge10 Ge6 2.753998 1_555
Ge11 Ge12 2.477914 1_555
Ge11 Ge4 2.617087 1_555
Ge11 Ge7 2.753998 1_555
Ge12 Ge3 2.617087 1_555
Ge12 Ge8 2.753998 1_555
Ge13 Ge2 2.617087 1_556
Ge13 Ge9 2.753998 1_555
