# generated using pymatgen
data_Nb3ZnAu
_symmetry_space_group_name_H-M   'P 1'
_cell_length_a   7.02436300
_cell_length_b   7.02436300
_cell_length_c   7.02436300
_cell_angle_alpha   90.00000000
_cell_angle_beta   90.00000000
_cell_angle_gamma   90.00000000
_symmetry_Int_Tables_number   1
_chemical_formula_structural   Nb3ZnAu
_chemical_formula_sum   'Nb12 Zn4 Au4'
_cell_volume   346.59384013
_cell_formula_units_Z   4
loop_
 _symmetry_equiv_pos_site_id
 _symmetry_equiv_pos_as_xyz
  1  'x, y, z'
loop_
 _atom_site_type_symbol
 _atom_site_label
 _atom_site_symmetry_multiplicity
 _atom_site_fract_x
 _atom_site_fract_y
 _atom_site_fract_z
 _atom_site_occupancy
  Nb  Nb0  1  0.79302000  0.95136000  0.37713900  1
  Nb  Nb1  1  0.70698000  0.04864000  0.87713900  1
  Nb  Nb2  1  0.20698000  0.45136000  0.12286100  1
  Nb  Nb3  1  0.29302000  0.54864000  0.62286100  1
  Nb  Nb4  1  0.95136000  0.37713900  0.79302000  1
  Nb  Nb5  1  0.04864000  0.87713900  0.70698000  1
  Nb  Nb6  1  0.45136000  0.12286100  0.20698000  1
  Nb  Nb7  1  0.54864000  0.62286100  0.29302000  1
  Nb  Nb8  1  0.37713900  0.79302000  0.95136000  1
  Nb  Nb9  1  0.87713900  0.70698000  0.04864000  1
  Nb  Nb10  1  0.12286100  0.20698000  0.45136000  1
  Nb  Nb11  1  0.62286100  0.29302000  0.54864000  1
  Zn  Zn0  1  0.56209200  0.43790800  0.93790800  1
  Zn  Zn1  1  0.43790800  0.93790800  0.56209200  1
  Zn  Zn2  1  0.93790800  0.56209200  0.43790800  1
  Zn  Zn3  1  0.06209200  0.06209200  0.06209200  1
  Au  Au0  1  0.18548800  0.81451200  0.31451200  1
  Au  Au1  1  0.31451200  0.18548800  0.81451200  1
  Au  Au2  1  0.81451200  0.31451200  0.18548800  1
  Au  Au3  1  0.68548800  0.68548800  0.68548800  1
loop_
_geom_bond_atom_site_label_1
_geom_bond_atom_site_label_2
_geom_bond_distance
_geom_bond_site_symmetry_2
Nb0 Zn1 2.814072 1_555
Nb0 Nb9 2.936059 1_555
Nb0 Nb7 2.936059 1_555
Nb0 Nb6 2.939326 1_565
Nb0 Nb11 2.939326 1_565
Nb0 Zn2 2.948685 1_555
Nb0 Nb10 2.977248 1_665
Nb0 Nb5 2.977248 1_655
Nb0 Zn3 3.012428 1_665
Nb1 Zn3 2.814072 1_656
Nb1 Nb4 2.936059 1_555
Nb1 Nb11 2.936059 1_555
Nb1 Nb5 2.939326 1_645
Nb1 Nb9 2.939326 1_546
Nb1 Zn0 2.948685 1_555
Nb1 Nb6 2.977248 1_556
Nb1 Nb8 2.977248 1_545
Nb1 Zn1 3.012428 1_545
Nb2 Zn0 2.814072 1_554
Nb2 Nb6 2.936059 1_555
Nb2 Nb8 2.939326 1_554
Nb2 Nb7 2.939326 1_555
Nb2 Zn3 2.948685 1_555
Nb2 Nb4 2.977248 1_454
Nb2 Nb9 2.977248 1_455
Nb2 Zn2 3.012428 1_455
Nb3 Zn2 2.814072 1_455
Nb3 Nb5 2.936059 1_555
Nb3 Nb8 2.936059 1_555
Nb3 Nb4 2.939326 1_455
Nb3 Zn1 2.948685 1_555
Nb3 Nb7 2.977248 1_555
Nb3 Zn0 3.012428 1_555
Nb4 Zn2 2.814072 1_555
Nb4 Zn0 2.948685 1_555
Nb4 Nb9 2.977248 1_556
Nb4 Zn3 3.012428 1_656
Nb5 Zn3 2.814072 1_566
Nb5 Nb8 2.936059 1_555
Nb5 Nb9 2.939326 1_456
Nb5 Zn1 2.948685 1_555
Nb5 Zn2 3.012428 1_455
Nb6 Zn1 2.814072 1_545
Nb6 Zn3 2.948685 1_555
Nb6 Nb8 2.977248 1_544
Nb6 Zn0 3.012428 1_554
Nb7 Zn0 2.814072 1_554
Nb7 Nb9 2.936059 1_555
Nb7 Nb8 2.939326 1_554
Nb7 Zn2 2.948685 1_555
Nb7 Zn1 3.012428 1_555
Nb8 Zn0 2.814072 1_555
Nb8 Zn1 2.948685 1_555
Nb8 Zn3 3.012428 1_566
Nb9 Zn3 2.814072 1_665
Nb9 Zn2 2.948685 1_555
Nb9 Zn0 3.012428 1_554
Nb10 Zn2 2.814072 1_455
Nb10 Nb2 2.936059 1_555
Nb10 Nb6 2.936059 1_555
Nb10 Nb4 2.939326 1_455
Nb10 Nb3 2.939326 1_555
Nb10 Zn3 2.948685 1_555
Nb10 Nb5 2.977248 1_545
Nb10 Zn1 3.012428 1_545
Nb11 Zn1 2.814072 1_545
Nb11 Nb4 2.936059 1_555
Nb11 Nb6 2.939326 1_555
Nb11 Zn0 2.948685 1_555
Nb11 Nb7 2.977248 1_555
Nb11 Nb3 2.977248 1_555
Nb11 Zn2 3.012428 1_555
Au0 Zn1 2.630512 1_555
Au0 Zn3 2.630512 1_565
Au0 Zn2 2.630512 1_455
Au0 Nb8 2.888298 1_554
Au0 Nb2 2.888298 1_555
Au0 Nb7 2.888298 1_555
Au0 Nb0 2.952578 1_455
Au0 Nb10 2.952578 1_565
Au0 Nb5 2.952578 1_555
Au0 Nb9 2.958001 1_455
Au0 Nb6 2.958001 1_565
Au0 Nb3 2.958001 1_555
Au1 Zn0 2.630512 1_555
Au1 Zn3 2.630512 1_556
Au1 Zn1 2.630512 1_545
Au1 Nb4 2.888298 1_455
Au1 Nb10 2.888298 1_555
Au1 Nb3 2.888298 1_555
Au1 Nb8 2.952578 1_545
Au1 Nb6 2.952578 1_556
Au1 Nb1 2.952578 1_555
Au1 Nb5 2.958001 1_545
Au1 Nb2 2.958001 1_556
Au1 Nb11 2.958001 1_555
Au2 Zn2 2.630512 1_555
Au2 Zn3 2.630512 1_655
Au2 Zn0 2.630512 1_554
Au2 Nb0 2.888298 1_545
Au2 Nb6 2.888298 1_555
Au2 Nb11 2.888298 1_555
Au2 Nb4 2.952578 1_554
Au2 Nb2 2.952578 1_655
Au2 Nb9 2.952578 1_555
Au2 Nb1 2.958001 1_554
Au2 Nb10 2.958001 1_655
Au2 Nb7 2.958001 1_555
Au3 Zn0 2.630512 1_555
Au3 Zn1 2.630512 1_555
Au3 Zn2 2.630512 1_555
Au3 Nb5 2.888298 1_655
Au3 Nb1 2.888298 1_565
Au3 Nb9 2.888298 1_556
Au3 Nb11 2.952578 1_555
Au3 Nb3 2.952578 1_555
Au3 Nb7 2.952578 1_555
Au3 Nb0 2.958001 1_555
Au3 Nb8 2.958001 1_555
Au3 Nb4 2.958001 1_555
