# generated using pymatgen
data_LaCoO3
_symmetry_space_group_name_H-M   'P 1'
_cell_length_a   5.42713346
_cell_length_b   5.37797427
_cell_length_c   5.42064180
_cell_angle_alpha   60.92337332
_cell_angle_beta   60.47313587
_cell_angle_gamma   60.65933577
_symmetry_Int_Tables_number   1
_chemical_formula_structural   LaCoO3
_chemical_formula_sum   'La2 Co2 O6'
_cell_volume   113.59993529
_cell_formula_units_Z   2
loop_
 _symmetry_equiv_pos_site_id
 _symmetry_equiv_pos_as_xyz
  1  'x, y, z'
loop_
 _atom_site_type_symbol
 _atom_site_label
 _atom_site_symmetry_multiplicity
 _atom_site_fract_x
 _atom_site_fract_y
 _atom_site_fract_z
 _atom_site_occupancy
  La  La0  1  0.74887637  0.75260972  0.24890986  1
  La  La1  1  0.25110747  0.24738382  0.75115104  1
  Co  Co0  1  0.49999829  0.49999484  -0.00000067  1
  Co  Co1  1  0.00000633  -0.00000148  0.49999184  1
  O  O0  1  0.26947165  0.69527255  0.30639707  1
  O  O1  1  0.73053191  0.30473167  0.69358809  1
  O  O2  1  0.80548312  0.22881859  0.19514401  1
  O  O3  1  0.19452241  0.77118644  0.80483732  1
  O  O4  1  0.71094071  0.78867270  0.74961064  1
  O  O5  1  0.28906574  0.21133214  0.25036878  1
loop_
_geom_bond_atom_site_label_1
_geom_bond_atom_site_label_2
_geom_bond_distance
_geom_bond_site_symmetry_2
La0 O3 2.432805 1_654
La0 O1 2.444825 1_555
La0 O5 2.505947 1_565
La0 O2 2.587579 1_565
La0 O0 2.618248 1_555
La0 O4 2.714437 1_555
La0 O4 2.721244 1_554
La0 O2 2.824192 1_555
La0 O0 2.845233 1_655
La0 O5 2.950539 1_655
La0 O3 3.033854 1_555
La0 O1 3.034155 1_564
La1 O2 2.432533 1_456
La1 O0 2.445059 1_555
La1 O4 2.505976 1_545
La1 O3 2.587637 1_545
La1 O1 2.618210 1_555
La1 O5 2.714791 1_555
La1 O5 2.720896 1_556
La1 O3 2.824074 1_555
La1 O1 2.845326 1_455
La1 O4 2.950512 1_455
La1 O0 3.033914 1_546
La1 O2 3.034134 1_555
Co0 O5 1.929981 1_555
Co0 O4 1.930079 1_554
Co0 O0 1.945827 1_555
Co0 O1 1.945834 1_554
Co0 O2 1.963201 1_555
Co0 O3 1.963226 1_554
Co1 O0 1.932823 1_545
Co1 O1 1.932859 1_455
Co1 O4 1.934930 1_445
Co1 O5 1.934932 1_555
Co1 O3 1.956847 1_545
Co1 O2 1.956881 1_455
