# generated using pymatgen
data_Mg3Si4
_symmetry_space_group_name_H-M   'P 1'
_cell_length_a   6.04807700
_cell_length_b   6.65684386
_cell_length_c   7.67930909
_cell_angle_alpha   107.37995707
_cell_angle_beta   104.59502313
_cell_angle_gamma   105.47867938
_symmetry_Int_Tables_number   1
_chemical_formula_structural   Mg3Si4
_chemical_formula_sum   'Mg6 Si8'
_cell_volume   265.22251069
_cell_formula_units_Z   2
loop_
 _symmetry_equiv_pos_site_id
 _symmetry_equiv_pos_as_xyz
  1  'x, y, z'
loop_
 _atom_site_type_symbol
 _atom_site_label
 _atom_site_symmetry_multiplicity
 _atom_site_fract_x
 _atom_site_fract_y
 _atom_site_fract_z
 _atom_site_occupancy
  Mg  Mg0  1  0.94143100  0.61202300  0.54313000  1
  Mg  Mg1  1  0.42531900  0.73446200  0.40280300  1
  Mg  Mg2  1  0.41471000  0.07524200  0.77818600  1
  Mg  Mg3  1  0.68116100  0.77355200  0.90604600  1
  Mg  Mg4  1  0.97203900  0.02352400  0.40200300  1
  Mg  Mg5  1  0.04791800  0.26009600  0.14123600  1
  Si  Si0  1  0.23354800  0.41351600  0.84423200  1
  Si  Si1  1  0.15295800  0.75822500  0.94876800  1
  Si  Si2  1  0.95908100  0.63998000  0.16727700  1
  Si  Si3  1  0.54536600  0.43589300  0.13581400  1
  Si  Si4  1  0.85683900  0.07155900  0.72514400  1
  Si  Si5  1  0.61860000  0.20723900  0.51436000  1
  Si  Si6  1  0.36034400  0.41975800  0.57107700  1
  Si  Si7  1  0.53715500  0.07519900  0.16664500  1
loop_
_geom_bond_atom_site_label_1
_geom_bond_atom_site_label_2
_geom_bond_distance
_geom_bond_site_symmetry_2
Mg0 Si5 2.782195 1_555
Mg0 Si1 2.793402 1_655
Mg0 Si2 2.973598 1_555
Mg0 Si3 3.070901 1_555
Mg0 Si6 3.118375 1_655
Mg0 Si4 3.196035 1_565
Mg1 Si2 2.724301 1_455
Mg1 Si6 2.765288 1_555
Mg1 Si3 2.786953 1_555
Mg1 Si5 2.815347 1_565
Mg1 Si4 2.876467 1_565
Mg1 Mg5 3.044522 1_555
Mg2 Si0 2.728228 1_555
Mg2 Si3 2.808078 1_556
Mg2 Si4 2.809788 1_555
Mg2 Si5 2.853362 1_555
Mg2 Si7 2.886965 1_556
Mg2 Si1 3.096626 1_545
Mg3 Si6 2.711949 1_555
Mg3 Si2 2.793621 1_556
Mg3 Si1 2.822039 1_655
Mg3 Si7 2.864750 1_566
Mg3 Si4 2.873926 1_565
Mg3 Si0 2.916832 1_555
Mg3 Mg5 3.053524 1_666
Mg4 Si2 2.616608 1_545
Mg4 Si4 2.694764 1_555
Mg4 Si6 2.696189 1_655
Mg4 Si5 2.916171 1_555
Mg4 Mg5 2.943147 1_655
Mg4 Si7 2.959995 1_555
Mg5 Si2 2.683451 1_455
Mg5 Si4 2.844236 1_454
Mg5 Si3 2.938688 1_555
Mg5 Si6 3.047076 1_555
Mg5 Si7 3.084405 1_455
Mg5 Si0 3.094439 1_554
Si0 Si6 2.415715 1_555
Si0 Si1 2.416863 1_555
Si0 Si3 2.472895 1_556
Si0 Si4 2.479326 1_455
Si1 Si7 2.442454 1_566
Si1 Si2 2.469463 1_456
Si2 Si3 2.418629 1_555
Si3 Si7 2.470956 1_555
Si4 Si5 2.429952 1_555
Si5 Si6 2.405199 1_555
Si5 Si7 2.418497 1_555
