# generated using pymatgen
data_Mg6MnCd
_symmetry_space_group_name_H-M   'P 1'
_cell_length_a   5.00481700
_cell_length_b   6.23683800
_cell_length_c   10.84497000
_cell_angle_alpha   90.00000000
_cell_angle_beta   90.00000000
_cell_angle_gamma   90.00000000
_symmetry_Int_Tables_number   1
_chemical_formula_structural   Mg6MnCd
_chemical_formula_sum   'Mg12 Mn2 Cd2'
_cell_volume   338.51741882
_cell_formula_units_Z   2
loop_
 _symmetry_equiv_pos_site_id
 _symmetry_equiv_pos_as_xyz
  1  'x, y, z'
loop_
 _atom_site_type_symbol
 _atom_site_label
 _atom_site_symmetry_multiplicity
 _atom_site_fract_x
 _atom_site_fract_y
 _atom_site_fract_z
 _atom_site_occupancy
  Mg  Mg0  1  0.00000000  0.25057800  0.08325600  1
  Mg  Mg1  1  0.00000000  0.74942200  0.08325600  1
  Mg  Mg2  1  0.00000000  0.00000000  0.33342800  1
  Mg  Mg3  1  0.50000000  0.74434700  0.41384700  1
  Mg  Mg4  1  0.50000000  0.25565300  0.41384700  1
  Mg  Mg5  1  0.50000000  0.00000000  0.16757600  1
  Mg  Mg6  1  0.00000000  0.75057800  0.58325600  1
  Mg  Mg7  1  0.00000000  0.24942200  0.58325600  1
  Mg  Mg8  1  0.00000000  0.50000000  0.83342800  1
  Mg  Mg9  1  0.50000000  0.24434700  0.91384700  1
  Mg  Mg10  1  0.50000000  0.75565300  0.91384700  1
  Mg  Mg11  1  0.50000000  0.50000000  0.66757600  1
  Mn  Mn0  1  0.00000000  0.50000000  0.33407000  1
  Mn  Mn1  1  0.00000000  0.00000000  0.83407000  1
  Cd  Cd0  1  0.50000000  0.50000000  0.17072000  1
  Cd  Cd1  1  0.50000000  0.00000000  0.67072000  1
loop_
_geom_bond_atom_site_label_1
_geom_bond_atom_site_label_2
_geom_bond_distance
_geom_bond_site_symmetry_2
Mg0 Mg5 3.088795 1_455
Mg0 Mg5 3.088795 1_555
Mg0 Mg9 3.104673 1_554
Mg0 Mg9 3.104673 1_454
Mg0 Mg1 3.111209 1_555
Mg0 Mn1 3.121768 1_554
Mg0 Mg8 3.124201 1_554
Mg0 Mg1 3.125629 1_545
Mg0 Mg2 3.131029 1_555
Mg0 Mn0 3.133479 1_555
Mg1 Mg5 3.088795 1_465
Mg1 Mg5 3.088795 1_565
Mg1 Mg10 3.104673 1_554
Mg1 Mg10 3.104673 1_454
Mg1 Mn1 3.121768 1_564
Mg1 Mg8 3.124201 1_554
Mg1 Mg2 3.131029 1_565
Mg1 Mn0 3.133479 1_555
Mg2 Mg5 3.081757 1_455
Mg2 Mg5 3.081757 1_555
Mg2 Mg3 3.092734 1_545
Mg2 Mg4 3.092734 1_455
Mg2 Mg3 3.092734 1_445
Mg2 Mg4 3.092734 1_555
Mg2 Mn0 3.118427 1_545
Mg2 Mn0 3.118427 1_555
Mg2 Mg7 3.124201 1_555
Mg2 Mg6 3.124201 1_545
Mg3 Mg4 3.047905 1_555
Mg3 Mn0 3.054998 1_655
Mg3 Mn0 3.054998 1_555
Mg3 Mg6 3.104673 1_555
Mg3 Mg6 3.104673 1_655
Mg3 Mg5 3.110547 1_565
Mg3 Mg4 3.188933 1_565
Mg4 Mn0 3.054998 1_655
Mg4 Mn0 3.054998 1_555
Mg4 Mg7 3.104673 1_555
Mg4 Mg7 3.104673 1_655
Mg4 Mg5 3.110547 1_555
Mg5 Mg9 3.145504 1_554
Mg6 Mg7 3.111209 1_565
Mg6 Mn0 3.121768 1_555
Mg6 Mg7 3.125629 1_555
Mg6 Mg8 3.131029 1_555
Mg6 Mn1 3.133479 1_565
Mg7 Mn0 3.121768 1_555
Mg7 Mg8 3.131029 1_555
Mg7 Mn1 3.133479 1_555
Mg8 Mg9 3.092734 1_555
Mg8 Mg9 3.092734 1_455
Mg8 Mn1 3.118427 1_565
Mg8 Mn1 3.118427 1_555
Mg9 Mn1 3.054998 1_555
Mg9 Mn1 3.054998 1_655
Mg10 Mg9 3.047905 1_565
Mg10 Mn1 3.054998 1_665
Mg10 Mn1 3.054998 1_565
Mg10 Mg8 3.092734 1_655
Mg10 Mg8 3.092734 1_555
Mg10 Mg11 3.110547 1_555
Mg10 Mg5 3.145504 1_566
Mg10 Mg9 3.188933 1_555
Mg11 Mg8 3.081757 1_555
Mg11 Mg8 3.081757 1_655
Mg11 Mg7 3.088795 1_655
Mg11 Mg6 3.088795 1_555
Mg11 Mg6 3.088795 1_655
Mg11 Mg7 3.088795 1_555
Mg11 Mg9 3.110547 1_555
Mg11 Mg4 3.145504 1_555
Mg11 Mg3 3.145504 1_555
Cd0 Mg4 3.045430 1_555
Cd0 Mg3 3.045430 1_555
Cd0 Mn0 3.065999 1_655
Cd0 Mn0 3.065999 1_555
Cd0 Mg0 3.095431 1_655
Cd0 Mg0 3.095431 1_555
Cd0 Mg1 3.095431 1_655
Cd0 Mg1 3.095431 1_555
Cd0 Mg5 3.118605 1_555
Cd0 Mg5 3.118605 1_565
Cd0 Mg9 3.209812 1_554
Cd0 Mg10 3.209812 1_554
Cd1 Mg9 3.045430 1_555
Cd1 Mg10 3.045430 1_545
Cd1 Mn1 3.065999 1_555
Cd1 Mn1 3.065999 1_655
Cd1 Mg6 3.095431 1_645
Cd1 Mg6 3.095431 1_545
Cd1 Mg7 3.095431 1_555
Cd1 Mg7 3.095431 1_655
Cd1 Mg11 3.118605 1_545
Cd1 Mg11 3.118605 1_555
Cd1 Mg3 3.209812 1_545
Cd1 Mg4 3.209812 1_555
