# generated using pymatgen
data_Ba6Dy2Ga4O15
_symmetry_space_group_name_H-M   'P 1'
_cell_length_a   6.03635900
_cell_length_b   8.04726200
_cell_length_c   18.64033603
_cell_angle_alpha   88.69241054
_cell_angle_beta   90.00000000
_cell_angle_gamma   90.00000000
_symmetry_Int_Tables_number   1
_chemical_formula_structural   Ba6Dy2Ga4O15
_chemical_formula_sum   'Ba12 Dy4 Ga8 O30'
_cell_volume   905.24020002
_cell_formula_units_Z   2
loop_
 _symmetry_equiv_pos_site_id
 _symmetry_equiv_pos_as_xyz
  1  'x, y, z'
loop_
 _atom_site_type_symbol
 _atom_site_label
 _atom_site_symmetry_multiplicity
 _atom_site_fract_x
 _atom_site_fract_y
 _atom_site_fract_z
 _atom_site_occupancy
  Ba  Ba0  1  0.75606300  0.49884300  0.07861700  1
  Ba  Ba1  1  0.24393700  0.50115700  0.92138300  1
  Ba  Ba2  1  0.75606300  0.50115700  0.42138300  1
  Ba  Ba3  1  0.24393700  0.49884300  0.57861700  1
  Ba  Ba4  1  0.74608600  0.97248500  0.09006800  1
  Ba  Ba5  1  0.25391400  0.02751500  0.90993200  1
  Ba  Ba6  1  0.74608600  0.02751500  0.40993200  1
  Ba  Ba7  1  0.25391400  0.97248500  0.59006800  1
  Ba  Ba8  1  0.72443800  0.00000000  0.75000000  1
  Ba  Ba9  1  0.27556200  0.00000000  0.25000000  1
  Ba  Ba10  1  0.66687600  0.50000000  0.75000000  1
  Ba  Ba11  1  0.33312400  0.50000000  0.25000000  1
  Dy  Dy0  1  0.74705600  0.75254900  0.91011700  1
  Dy  Dy1  1  0.25294400  0.24745100  0.08988300  1
  Dy  Dy2  1  0.74705600  0.24745100  0.58988300  1
  Dy  Dy3  1  0.25294400  0.75254900  0.41011700  1
  Ga  Ga0  1  0.74824000  0.75452200  0.55856100  1
  Ga  Ga1  1  0.25176000  0.24547800  0.44143900  1
  Ga  Ga2  1  0.74824000  0.24547800  0.94143900  1
  Ga  Ga3  1  0.25176000  0.75452200  0.05856100  1
  Ga  Ga4  1  0.77406700  0.77002400  0.26627000  1
  Ga  Ga5  1  0.22593300  0.22997600  0.73373000  1
  Ga  Ga6  1  0.77406700  0.22997600  0.23373000  1
  Ga  Ga7  1  0.22593300  0.77002400  0.76627000  1
  O  O0  1  0.20235600  0.00000000  0.75000000  1
  O  O1  1  0.79764400  0.00000000  0.25000000  1
  O  O2  1  0.50836900  0.76654900  0.00126600  1
  O  O3  1  0.49163100  0.23345100  0.99873400  1
  O  O4  1  0.50836900  0.23345100  0.49873400  1
  O  O5  1  0.49163100  0.76654900  0.50126600  1
  O  O6  1  0.76362300  0.95360200  0.60858300  1
  O  O7  1  0.23637700  0.04639800  0.39141700  1
  O  O8  1  0.76362300  0.04639800  0.89141700  1
  O  O9  1  0.23637700  0.95360200  0.10858300  1
  O  O10  1  0.00984100  0.76551000  0.99345000  1
  O  O11  1  0.99015900  0.23449000  0.00655000  1
  O  O12  1  0.00984100  0.23449000  0.50655000  1
  O  O13  1  0.99015900  0.76551000  0.49345000  1
  O  O14  1  0.32900700  0.68889300  0.68212500  1
  O  O15  1  0.67099300  0.31110700  0.31787500  1
  O  O16  1  0.32900700  0.31110700  0.81787500  1
  O  O17  1  0.67099300  0.68889300  0.18212500  1
  O  O18  1  0.45058500  0.74954100  0.83639600  1
  O  O19  1  0.54941500  0.25045900  0.16360400  1
  O  O20  1  0.45058500  0.25045900  0.66360400  1
  O  O21  1  0.54941500  0.74954100  0.33639600  1
  O  O22  1  0.95623900  0.72378400  0.80966700  1
  O  O23  1  0.04376100  0.27621600  0.19033300  1
  O  O24  1  0.95623900  0.27621600  0.69033300  1
  O  O25  1  0.04376100  0.72378400  0.30966700  1
  O  O26  1  0.75606600  0.53257100  0.59108800  1
  O  O27  1  0.24393400  0.46742900  0.40891200  1
  O  O28  1  0.75606600  0.46742900  0.90891200  1
  O  O29  1  0.24393400  0.53257100  0.09108800  1
loop_
_geom_bond_atom_site_label_1
_geom_bond_atom_site_label_2
_geom_bond_distance
_geom_bond_site_symmetry_2
Ba0 O17 2.541664 1_555
Ba0 O19 2.813607 1_555
Ba0 O11 2.908147 1_555
Ba0 O29 2.967053 1_655
Ba0 O2 2.968789 1_555
Ba0 O10 3.052304 1_654
Ba0 O3 3.077563 1_554
Ba0 O29 3.112444 1_555
Ba0 O28 3.179188 1_554
Ba0 O23 3.223628 1_655
Ba1 O16 2.541664 1_555
Ba1 O18 2.813607 1_555
Ba1 O10 2.908147 1_555
Ba1 O28 2.967053 1_455
Ba1 O3 2.968789 1_555
Ba1 O11 3.052304 1_456
Ba1 O2 3.077563 1_556
Ba1 O28 3.112444 1_555
Ba1 O29 3.179188 1_556
Ba1 O22 3.223628 1_455
Ba2 O15 2.541664 1_555
Ba2 O21 2.813607 1_555
Ba2 O13 2.908147 1_555
Ba2 O27 2.967053 1_655
Ba2 O4 2.968789 1_555
Ba2 O12 3.052304 1_655
Ba2 O5 3.077563 1_555
Ba2 O27 3.112444 1_555
Ba2 O26 3.179188 1_555
Ba2 O25 3.223628 1_655
Ba3 O14 2.541664 1_555
Ba3 O20 2.813607 1_555
Ba3 O12 2.908147 1_555
Ba3 O26 2.967053 1_455
Ba3 O5 2.968789 1_555
Ba3 O13 3.052304 1_455
Ba3 O4 3.077563 1_555
Ba3 O26 3.112444 1_555
Ba3 O27 3.179188 1_555
Ba3 O24 3.223628 1_455
Ba4 O2 2.769596 1_555
Ba4 O17 2.859976 1_555
Ba4 O19 2.903808 1_565
Ba4 O10 2.947793 1_654
Ba4 O11 2.981598 1_565
Ba4 O9 2.983099 1_655
Ba4 O1 3.010562 1_565
Ba4 O3 3.082988 1_564
Ba4 O9 3.099423 1_555
Ba5 O3 2.769596 1_555
Ba5 O16 2.859976 1_555
Ba5 O18 2.903808 1_545
Ba5 O11 2.947793 1_456
Ba5 O10 2.981598 1_545
Ba5 O8 2.983099 1_455
Ba5 O0 3.010562 1_555
Ba5 O2 3.082988 1_546
Ba5 O8 3.099423 1_555
Ba6 O4 2.769596 1_555
Ba6 O15 2.859976 1_555
Ba6 O21 2.903808 1_545
Ba6 O12 2.947793 1_655
Ba6 O13 2.981598 1_545
Ba6 O7 2.983099 1_655
Ba6 O1 3.010562 1_555
Ba6 O5 3.082988 1_545
Ba6 O7 3.099423 1_555
Ba7 O5 2.769596 1_555
Ba7 O14 2.859976 1_555
Ba7 O20 2.903808 1_565
Ba7 O13 2.947793 1_455
Ba7 O12 2.981598 1_565
Ba7 O6 2.983099 1_455
Ba7 O0 3.010562 1_565
Ba7 O4 3.082988 1_565
Ba7 O6 3.099423 1_555
Ba8 O8 2.681249 1_555
Ba8 O6 2.681249 1_545
Ba8 O22 2.832456 1_545
Ba8 O24 2.832456 1_555
Ba8 O0 2.884885 1_655
Ba8 O18 3.039794 1_545
Ba8 O20 3.039794 1_555
Ba8 O0 3.151474 1_555
Ba9 O7 2.681249 1_555
Ba9 O9 2.681249 1_545
Ba9 O25 2.832456 1_545
Ba9 O23 2.832456 1_555
Ba9 O1 2.884885 1_455
Ba9 O21 3.039794 1_545
Ba9 O19 3.039794 1_555
Ba9 O1 3.151474 1_555
Ba10 O22 2.760877 1_555
Ba10 O24 2.760877 1_555
Ba10 O16 2.825449 1_555
Ba10 O14 2.825449 1_555
Ba10 O18 2.911755 1_555
Ba10 O20 2.911755 1_555
Ba10 O28 3.016221 1_555
Ba10 O26 3.016221 1_555
Ba11 O25 2.760877 1_555
Ba11 O23 2.760877 1_555
Ba11 O15 2.825449 1_555
Ba11 O17 2.825449 1_555
Ba11 O21 2.911755 1_555
Ba11 O19 2.911755 1_555
Ba11 O27 3.016221 1_555
Ba11 O29 3.016221 1_555
Dy0 O10 2.224280 1_655
Dy0 O2 2.232510 1_556
Dy0 O18 2.256806 1_555
Dy0 O22 2.274587 1_555
Dy0 O28 2.295702 1_555
Dy0 O8 2.384449 1_565
Dy1 O11 2.224280 1_455
Dy1 O3 2.232510 1_554
Dy1 O19 2.256806 1_555
Dy1 O23 2.274587 1_555
Dy1 O29 2.295702 1_555
Dy1 O9 2.384449 1_545
Dy2 O12 2.224280 1_655
Dy2 O4 2.232510 1_555
Dy2 O20 2.256806 1_555
Dy2 O24 2.274587 1_555
Dy2 O26 2.295702 1_555
Dy2 O6 2.384449 1_545
Dy3 O13 2.224280 1_455
Dy3 O5 2.232510 1_555
Dy3 O21 2.256806 1_555
Dy3 O25 2.274587 1_555
Dy3 O27 2.295702 1_555
Dy3 O7 2.384449 1_565
Ga0 O26 1.873651 1_555
Ga0 O6 1.874241 1_555
Ga0 O5 1.882716 1_555
Ga0 O13 1.899598 1_555
Ga1 O27 1.873651 1_555
Ga1 O7 1.874241 1_555
Ga1 O4 1.882716 1_555
Ga1 O12 1.899598 1_555
Ga2 O28 1.873651 1_555
Ga2 O8 1.874241 1_555
Ga2 O3 1.882716 1_555
Ga2 O11 1.899598 1_556
Ga3 O29 1.873651 1_555
Ga3 O9 1.874241 1_555
Ga3 O2 1.882716 1_555
Ga3 O10 1.899598 1_554
Ga4 O17 1.822163 1_555
Ga4 O25 1.851860 1_655
Ga4 O1 1.873932 1_565
Ga4 O21 1.888118 1_555
Ga5 O16 1.822163 1_555
Ga5 O24 1.851860 1_455
Ga5 O0 1.873932 1_555
Ga5 O20 1.888118 1_555
Ga6 O15 1.822163 1_555
Ga6 O23 1.851860 1_655
Ga6 O1 1.873932 1_555
Ga6 O19 1.888118 1_555
Ga7 O14 1.822163 1_555
Ga7 O22 1.851860 1_455
Ga7 O0 1.873932 1_565
Ga7 O18 1.888118 1_555
