# generated using pymatgen
data_Ba3SrCo2Cu4(SO)4
_symmetry_space_group_name_H-M   'P 1'
_cell_length_a   4.01646100
_cell_length_b   4.01646100
_cell_length_c   19.10131200
_cell_angle_alpha   90.00000000
_cell_angle_beta   90.00000000
_cell_angle_gamma   90.00000000
_symmetry_Int_Tables_number   1
_chemical_formula_structural   Ba3SrCo2Cu4(SO)4
_chemical_formula_sum   'Ba3 Sr1 Co2 Cu4 S4 O4'
_cell_volume   308.14158135
_cell_formula_units_Z   1
loop_
 _symmetry_equiv_pos_site_id
 _symmetry_equiv_pos_as_xyz
  1  'x, y, z'
loop_
 _atom_site_type_symbol
 _atom_site_label
 _atom_site_symmetry_multiplicity
 _atom_site_fract_x
 _atom_site_fract_y
 _atom_site_fract_z
 _atom_site_occupancy
  Ba  Ba0  1  0.00000000  0.00000000  0.59661700  1
  Ba  Ba1  1  0.00000000  0.00000000  0.40193400  1
  Ba  Ba2  1  0.50000000  0.50000000  0.90453400  1
  Sr  Sr0  1  0.50000000  0.50000000  0.09313600  1
  Co  Co0  1  0.00000000  0.00000000  0.00495700  1
  Co  Co1  1  0.50000000  0.50000000  0.49960400  1
  Cu  Cu0  1  0.50000000  0.00000000  0.24771500  1
  Cu  Cu1  1  0.00000000  0.50000000  0.74962700  1
  Cu  Cu2  1  0.00000000  0.50000000  0.24771500  1
  Cu  Cu3  1  0.50000000  0.00000000  0.74962700  1
  S  S0  1  0.50000000  0.50000000  0.31995500  1
  S  S1  1  0.00000000  0.00000000  0.81845200  1
  S  S2  1  0.00000000  0.00000000  0.17685900  1
  S  S3  1  0.50000000  0.50000000  0.67871800  1
  O  O0  1  0.00000000  0.50000000  0.00533500  1
  O  O1  1  0.50000000  0.00000000  0.49993900  1
  O  O2  1  0.50000000  0.00000000  0.00533500  1
  O  O3  1  0.00000000  0.50000000  0.49993900  1
loop_
_geom_bond_atom_site_label_1
_geom_bond_atom_site_label_2
_geom_bond_distance
_geom_bond_site_symmetry_2
Ba0 O3 2.728224 1_555
Ba0 O1 2.728224 1_455
Ba0 O1 2.728224 1_555
Ba0 O3 2.728224 1_545
Ba0 S3 3.244279 1_455
Ba0 S3 3.244279 1_555
Ba0 S3 3.244279 1_445
Ba0 S3 3.244279 1_545
Ba1 O3 2.745444 1_555
Ba1 O1 2.745444 1_455
Ba1 O1 2.745444 1_555
Ba1 O3 2.745444 1_545
Ba1 S0 3.243153 1_555
Ba1 S0 3.243153 1_445
Ba1 S0 3.243153 1_545
Ba1 S0 3.243153 1_455
Ba2 O2 2.782135 1_556
Ba2 O2 2.782135 1_566
Ba2 O0 2.782135 1_556
Ba2 O0 2.782135 1_656
Ba2 S1 3.281712 1_665
Ba2 S1 3.281712 1_555
Ba2 S1 3.281712 1_565
Ba2 S1 3.281712 1_655
Co0 O2 2.008243 1_555
Co0 O0 2.008243 1_545
Co0 O2 2.008243 1_455
Co0 O0 2.008243 1_555
Co1 O3 2.008241 1_655
Co1 O1 2.008241 1_555
Co1 O3 2.008241 1_555
Co1 O1 2.008241 1_565
Cu0 S2 2.421734 1_655
Cu0 S2 2.421734 1_555
Cu0 S0 2.436607 1_545
Cu0 S0 2.436607 1_555
Cu1 S1 2.400268 1_565
Cu1 S1 2.400268 1_555
Cu1 S3 2.422300 1_555
Cu1 S3 2.422300 1_455
Cu2 S2 2.421734 1_565
Cu2 S2 2.421734 1_555
Cu2 S0 2.436607 1_555
Cu2 S0 2.436607 1_455
Cu3 S1 2.400268 1_555
Cu3 S1 2.400268 1_655
Cu3 S3 2.422300 1_545
Cu3 S3 2.422300 1_555
S2 Sr0 3.259368 1_445
S2 Sr0 3.259368 1_545
S2 Sr0 3.259368 1_455
S2 Sr0 3.259368 1_555
O0 Sr0 2.616429 1_455
O0 Sr0 2.616429 1_555
O2 Sr0 2.616429 1_545
O2 Sr0 2.616429 1_555
