# generated using pymatgen
data_MnSeO5
_symmetry_space_group_name_H-M   'P 1'
_cell_length_a   5.61382064
_cell_length_b   5.61382064
_cell_length_c   7.34199736
_cell_angle_alpha   77.28110941
_cell_angle_beta   77.28110941
_cell_angle_gamma   114.95046537
_symmetry_Int_Tables_number   1
_chemical_formula_structural   MnSeO5
_chemical_formula_sum   'Mn2 Se2 O10'
_cell_volume   191.39324942
_cell_formula_units_Z   2
loop_
 _symmetry_equiv_pos_site_id
 _symmetry_equiv_pos_as_xyz
  1  'x, y, z'
loop_
 _atom_site_type_symbol
 _atom_site_label
 _atom_site_symmetry_multiplicity
 _atom_site_fract_x
 _atom_site_fract_y
 _atom_site_fract_z
 _atom_site_occupancy
  Mn  Mn0  1  0.00000000  0.00000000  0.50000000  1
  Mn  Mn1  1  0.00000000  0.00000000  0.00000000  1
  Se  Se0  1  0.43804200  0.56195800  0.25000000  1
  Se  Se1  1  0.56195800  0.43804200  0.75000000  1
  O  O0  1  0.57517500  0.90531900  0.21100600  1
  O  O1  1  0.09468100  0.42482600  0.28899400  1
  O  O2  1  0.42482600  0.09468100  0.78899400  1
  O  O3  1  0.90531900  0.57517400  0.71100600  1
  O  O4  1  0.40319300  0.28246600  0.43088500  1
  O  O5  1  0.71753400  0.59680700  0.06911500  1
  O  O6  1  0.59680700  0.71753400  0.56911500  1
  O  O7  1  0.28246600  0.40319300  0.93088500  1
  O  O8  1  0.06749400  0.93250600  0.25000000  1
  O  O9  1  0.93250600  0.06749400  0.75000000  1
loop_
_geom_bond_atom_site_label_1
_geom_bond_atom_site_label_2
_geom_bond_distance
_geom_bond_site_symmetry_2
Mn0 O9 1.943530 1_455
Mn0 O8 1.943530 1_545
Mn0 O4 2.001760 1_555
Mn0 O6 2.001760 1_445
Mn0 O1 2.304634 1_555
Mn0 O3 2.304634 1_445
Mn1 O8 1.943530 1_545
Mn1 O9 1.943530 1_454
Mn1 O7 2.001760 1_554
Mn1 O5 2.001760 1_445
Mn1 O0 2.304629 1_445
Mn1 O2 2.304634 1_554
O0 Se0 1.672766 1_555
O1 Se0 1.672767 1_555
O2 Se1 1.672767 1_555
O3 Se1 1.672767 1_555
O4 Se0 1.724211 1_555
O5 Se0 1.724211 1_555
O6 Se1 1.724211 1_555
O7 Se1 1.724211 1_555
