# generated using pymatgen
data_Tm3Ru2
_symmetry_space_group_name_H-M   'P 1'
_cell_length_a   4.66688600
_cell_length_b   7.53167622
_cell_length_c   7.53167622
_cell_angle_alpha   120.00000191
_cell_angle_beta   90.00000000
_cell_angle_gamma   90.00000000
_symmetry_Int_Tables_number   1
_chemical_formula_structural   Tm3Ru2
_chemical_formula_sum   'Tm6 Ru4'
_cell_volume   229.26676286
_cell_formula_units_Z   2
loop_
 _symmetry_equiv_pos_site_id
 _symmetry_equiv_pos_as_xyz
  1  'x, y, z'
loop_
 _atom_site_type_symbol
 _atom_site_label
 _atom_site_symmetry_multiplicity
 _atom_site_fract_x
 _atom_site_fract_y
 _atom_site_fract_z
 _atom_site_occupancy
  Tm  Tm0  1  0.75000000  0.61363200  0.69443500  1
  Tm  Tm1  1  0.25000000  0.38636800  0.30556500  1
  Tm  Tm2  1  0.75000000  0.08080300  0.38636800  1
  Tm  Tm3  1  0.25000000  0.91919700  0.61363200  1
  Tm  Tm4  1  0.75000000  0.30556500  0.91919700  1
  Tm  Tm5  1  0.25000000  0.69443500  0.08080300  1
  Ru  Ru0  1  0.75000000  0.66666700  0.33333300  1
  Ru  Ru1  1  0.25000000  0.33333300  0.66666700  1
  Ru  Ru2  1  0.00000000  0.00000000  0.00000000  1
  Ru  Ru3  1  0.50000000  0.00000000  0.00000000  1
loop_
_geom_bond_atom_site_label_1
_geom_bond_atom_site_label_2
_geom_bond_distance
_geom_bond_site_symmetry_2
Tm0 Tm1 3.455385 1_655
Tm0 Tm1 3.455385 1_555
Tm0 Tm2 3.489573 1_555
Tm0 Tm4 3.489573 1_555
Tm0 Tm5 3.537294 1_656
Tm0 Tm5 3.537294 1_556
Tm0 Tm3 3.537294 1_555
Tm0 Tm3 3.537294 1_655
Tm1 Tm3 3.489573 1_555
Tm1 Tm5 3.489573 1_555
Tm1 Tm4 3.537294 1_554
Tm1 Tm4 3.537294 1_454
Tm1 Tm2 3.537294 1_455
Tm1 Tm2 3.537294 1_555
Tm2 Tm3 3.455385 1_545
Tm2 Tm3 3.455385 1_645
Tm2 Tm4 3.489573 1_555
Tm2 Tm5 3.537294 1_645
Tm2 Tm5 3.537294 1_545
Tm3 Tm5 3.489573 1_555
Tm3 Tm4 3.537294 1_465
Tm3 Tm4 3.537294 1_565
Tm4 Tm5 3.455385 1_556
Tm4 Tm5 3.455385 1_656
Ru0 Tm2 2.939840 1_565
Ru0 Tm4 2.939843 1_554
Ru0 Tm0 2.939848 1_555
Ru0 Tm5 3.082853 1_655
Ru0 Tm5 3.082853 1_555
Ru0 Tm3 3.082855 1_555
Ru0 Tm3 3.082855 1_655
Ru0 Tm1 3.082857 1_655
Ru0 Tm1 3.082857 1_555
Ru1 Tm3 2.939840 1_545
Ru1 Tm5 2.939843 1_556
Ru1 Tm1 2.939848 1_555
Ru1 Tm4 3.082853 1_555
Ru1 Tm4 3.082853 1_455
Ru1 Tm2 3.082855 1_455
Ru1 Tm2 3.082855 1_555
Ru1 Tm0 3.082857 1_555
Ru1 Tm0 3.082857 1_455
Ru2 Ru3 2.333443 1_455
Ru2 Ru3 2.333443 1_555
Ru2 Tm1 2.903228 1_555
Ru2 Tm0 2.903228 1_444
Ru2 Tm3 2.903228 1_544
Ru2 Tm2 2.903228 1_455
Ru2 Tm4 2.903228 1_454
Ru2 Tm5 2.903228 1_545
Ru3 Tm1 2.903228 1_555
Ru3 Tm0 2.903228 1_544
Ru3 Tm3 2.903228 1_544
Ru3 Tm2 2.903228 1_555
Ru3 Tm4 2.903228 1_554
Ru3 Tm5 2.903228 1_545
