# generated using pymatgen
data_CaMg6NiO8
_symmetry_space_group_name_H-M   'P 1'
_cell_length_a   8.63323047
_cell_length_b   4.36769222
_cell_length_c   4.36769222
_cell_angle_alpha   90.00000000
_cell_angle_beta   90.00000000
_cell_angle_gamma   90.00000000
_symmetry_Int_Tables_number   1
_chemical_formula_structural   CaMg6NiO8
_chemical_formula_sum   'Ca1 Mg6 Ni1 O8'
_cell_volume   164.69385271
_cell_formula_units_Z   1
loop_
 _symmetry_equiv_pos_site_id
 _symmetry_equiv_pos_as_xyz
  1  'x, y, z'
loop_
 _atom_site_type_symbol
 _atom_site_label
 _atom_site_symmetry_multiplicity
 _atom_site_fract_x
 _atom_site_fract_y
 _atom_site_fract_z
 _atom_site_occupancy
  Ca  Ca0  1  0.00000000  0.00000000  0.00000000  1
  Mg  Mg0  1  0.00000000  0.50000000  0.50000000  1
  Mg  Mg1  1  0.50000000  0.50000000  0.50000000  1
  Mg  Mg2  1  0.25779659  0.00000000  0.50000000  1
  Mg  Mg3  1  0.74220341  0.00000000  0.50000000  1
  Mg  Mg4  1  0.25779659  0.50000000  0.00000000  1
  Mg  Mg5  1  0.74220341  0.50000000  0.00000000  1
  Ni  Ni0  1  0.50000000  0.00000000  0.00000000  1
  O  O0  1  0.26432757  0.00000000  0.00000000  1
  O  O1  1  0.73567243  0.00000000  0.00000000  1
  O  O2  1  0.25128774  0.50000000  0.50000000  1
  O  O3  1  0.74871226  0.50000000  0.50000000  1
  O  O4  1  0.00000000  0.00000000  0.50000000  1
  O  O5  1  0.50000000  0.00000000  0.50000000  1
  O  O6  1  0.00000000  0.50000000  0.00000000  1
  O  O7  1  0.50000000  0.50000000  0.00000000  1
loop_
_geom_bond_atom_site_label_1
_geom_bond_atom_site_label_2
_geom_bond_distance
_geom_bond_site_symmetry_2
Ca0 O4 2.183846 1_555
Ca0 O4 2.183846 1_554
Ca0 O6 2.183846 1_545
Ca0 O6 2.183846 1_555
Ca0 O1 2.282001 1_455
Ca0 O0 2.282001 1_555
Mg0 O2 2.169425 1_555
Mg0 O3 2.169425 1_455
Mg0 O4 2.183846 1_555
Mg0 O4 2.183846 1_565
Mg0 O6 2.183846 1_556
Mg0 O6 2.183846 1_555
Mg1 O2 2.147190 1_555
Mg1 O3 2.147190 1_555
Mg1 O7 2.183846 1_555
Mg1 O7 2.183846 1_556
Mg1 O5 2.183846 1_555
Mg1 O5 2.183846 1_565
Mg2 O5 2.090998 1_555
Mg2 O2 2.184569 1_555
Mg2 O2 2.184569 1_545
Mg2 O0 2.184574 1_555
Mg2 O0 2.184574 1_556
Mg2 O4 2.225617 1_555
Mg3 O5 2.090998 1_555
Mg3 O3 2.184569 1_555
Mg3 O3 2.184569 1_545
Mg3 O1 2.184574 1_555
Mg3 O1 2.184574 1_556
Mg3 O4 2.225617 1_655
Mg4 O7 2.090998 1_555
Mg4 O2 2.184569 1_555
Mg4 O2 2.184569 1_554
Mg4 O0 2.184574 1_565
Mg4 O0 2.184574 1_555
Mg4 O6 2.225617 1_555
Mg5 O7 2.090998 1_555
Mg5 O3 2.184569 1_555
Mg5 O3 2.184569 1_554
Mg5 O1 2.184574 1_555
Mg5 O1 2.184574 1_565
Mg5 O6 2.225617 1_655
Ni0 O0 2.034614 1_555
Ni0 O1 2.034614 1_555
Ni0 O7 2.183846 1_555
Ni0 O5 2.183846 1_554
Ni0 O5 2.183846 1_555
Ni0 O7 2.183846 1_545
