# generated using pymatgen
data_Cr2HgS4
_symmetry_space_group_name_H-M   'P 1'
_cell_length_a   12.46220200
_cell_length_b   3.55909200
_cell_length_c   11.73648400
_cell_angle_alpha   90.00000000
_cell_angle_beta   90.00000000
_cell_angle_gamma   90.00000000
_symmetry_Int_Tables_number   1
_chemical_formula_structural   Cr2HgS4
_chemical_formula_sum   'Cr8 Hg4 S16'
_cell_volume   520.56146009
_cell_formula_units_Z   4
loop_
 _symmetry_equiv_pos_site_id
 _symmetry_equiv_pos_as_xyz
  1  'x, y, z'
loop_
 _atom_site_type_symbol
 _atom_site_label
 _atom_site_symmetry_multiplicity
 _atom_site_fract_x
 _atom_site_fract_y
 _atom_site_fract_z
 _atom_site_occupancy
  Cr  Cr0  1  0.09035400  0.25000000  0.08372300  1
  Cr  Cr1  1  0.90964600  0.75000000  0.91627700  1
  Cr  Cr2  1  0.40964600  0.75000000  0.58372300  1
  Cr  Cr3  1  0.59035400  0.25000000  0.41627700  1
  Cr  Cr4  1  0.17447300  0.25000000  0.70779000  1
  Cr  Cr5  1  0.82552700  0.75000000  0.29221000  1
  Cr  Cr6  1  0.32552700  0.75000000  0.20779000  1
  Cr  Cr7  1  0.67447300  0.25000000  0.79221000  1
  Hg  Hg0  1  0.13330400  0.75000000  0.41996800  1
  Hg  Hg1  1  0.86669600  0.25000000  0.58003200  1
  Hg  Hg2  1  0.36669600  0.25000000  0.91996800  1
  Hg  Hg3  1  0.63330400  0.75000000  0.08003200  1
  S  S0  1  0.07328400  0.75000000  0.62380800  1
  S  S1  1  0.92671600  0.25000000  0.37619200  1
  S  S2  1  0.42671600  0.25000000  0.12380800  1
  S  S3  1  0.57328400  0.75000000  0.87619200  1
  S  S4  1  0.03942100  0.25000000  0.88012800  1
  S  S5  1  0.96057900  0.75000000  0.11987200  1
  S  S6  1  0.46057900  0.75000000  0.38012800  1
  S  S7  1  0.53942100  0.25000000  0.61987200  1
  S  S8  1  0.19380000  0.25000000  0.26250000  1
  S  S9  1  0.80620000  0.75000000  0.73750000  1
  S  S10  1  0.30620000  0.75000000  0.76250000  1
  S  S11  1  0.69380000  0.25000000  0.23750000  1
  S  S12  1  0.21094500  0.75000000  0.04722900  1
  S  S13  1  0.78905500  0.25000000  0.95277100  1
  S  S14  1  0.28905500  0.25000000  0.54722900  1
  S  S15  1  0.71094500  0.75000000  0.45277100  1
loop_
_geom_bond_atom_site_label_1
_geom_bond_atom_site_label_2
_geom_bond_distance
_geom_bond_site_symmetry_2
Cr0 S12 2.368276 1_545
Cr0 S12 2.368276 1_555
Cr0 S5 2.441799 1_455
Cr0 S5 2.441799 1_445
Cr0 S8 2.462610 1_555
Cr0 S4 2.472357 1_554
Cr1 S13 2.368276 1_555
Cr1 S13 2.368276 1_565
Cr1 S4 2.441799 1_655
Cr1 S4 2.441799 1_665
Cr1 S9 2.462610 1_555
Cr1 S5 2.472357 1_556
Cr2 S14 2.368276 1_565
Cr2 S14 2.368276 1_555
Cr2 S7 2.441799 1_565
Cr2 S7 2.441799 1_555
Cr2 S10 2.462610 1_555
Cr2 S6 2.472357 1_555
Cr3 S15 2.368276 1_545
Cr3 S15 2.368276 1_555
Cr3 S6 2.441799 1_545
Cr3 S6 2.441799 1_555
Cr3 S11 2.462610 1_555
Cr3 S7 2.472357 1_555
Cr4 S14 2.364333 1_555
Cr4 S0 2.393431 1_555
Cr4 S0 2.393431 1_545
Cr4 S10 2.504787 1_545
Cr4 S10 2.504787 1_555
Cr4 S4 2.631297 1_555
Cr5 S15 2.364333 1_555
Cr5 S1 2.393431 1_555
Cr5 S1 2.393431 1_565
Cr5 S11 2.504787 1_565
Cr5 S11 2.504787 1_555
Cr5 S5 2.631297 1_555
Cr6 S12 2.364333 1_555
Cr6 S2 2.393431 1_555
Cr6 S2 2.393431 1_565
Cr6 S8 2.504787 1_555
Cr6 S8 2.504787 1_565
Cr6 S6 2.631297 1_555
Cr7 S13 2.364333 1_555
Cr7 S3 2.393431 1_545
Cr7 S3 2.393431 1_555
Cr7 S9 2.504787 1_545
Cr7 S9 2.504787 1_555
Cr7 S7 2.631297 1_555
Hg0 S0 2.506569 1_555
Hg0 S8 2.674083 1_555
Hg0 S8 2.674083 1_565
Hg1 S1 2.506569 1_555
Hg1 S9 2.674083 1_545
Hg1 S9 2.674083 1_555
Hg2 S2 2.506569 1_556
Hg2 S10 2.674083 1_545
Hg2 S10 2.674083 1_555
Hg3 S3 2.506569 1_554
Hg3 S11 2.674083 1_565
Hg3 S11 2.674083 1_555
