# generated using pymatgen
data_Sr4Fe3ClO8
_symmetry_space_group_name_H-M   'P 1'
_cell_length_a   3.97061100
_cell_length_b   3.97061100
_cell_length_c   15.64303600
_cell_angle_alpha   90.00000000
_cell_angle_beta   90.00000000
_cell_angle_gamma   90.00000000
_symmetry_Int_Tables_number   1
_chemical_formula_structural   Sr4Fe3ClO8
_chemical_formula_sum   'Sr4 Fe3 Cl1 O8'
_cell_volume   246.62422162
_cell_formula_units_Z   1
loop_
 _symmetry_equiv_pos_site_id
 _symmetry_equiv_pos_as_xyz
  1  'x, y, z'
loop_
 _atom_site_type_symbol
 _atom_site_label
 _atom_site_symmetry_multiplicity
 _atom_site_fract_x
 _atom_site_fract_y
 _atom_site_fract_z
 _atom_site_occupancy
  Sr  Sr0  1  0.00000000  0.00000000  0.61200300  1
  Sr  Sr1  1  0.00000000  0.00000000  0.12451800  1
  Sr  Sr2  1  0.00000000  0.00000000  0.38799700  1
  Sr  Sr3  1  0.00000000  0.00000000  0.87548200  1
  Fe  Fe0  1  0.50000000  0.50000000  0.75373800  1
  Fe  Fe1  1  0.50000000  0.50000000  0.24626200  1
  Fe  Fe2  1  0.50000000  0.50000000  0.50000000  1
  Cl  Cl0  1  0.50000000  0.50000000  0.00000000  1
  O  O0  1  0.50000000  0.00000000  0.50000000  1
  O  O1  1  0.50000000  0.50000000  0.63485000  1
  O  O2  1  0.00000000  0.50000000  0.78789900  1
  O  O3  1  0.50000000  0.50000000  0.36515000  1
  O  O4  1  0.50000000  0.00000000  0.21210100  1
  O  O5  1  0.00000000  0.50000000  0.50000000  1
  O  O6  1  0.00000000  0.50000000  0.21210100  1
  O  O7  1  0.50000000  0.00000000  0.78789900  1
loop_
_geom_bond_atom_site_label_1
_geom_bond_atom_site_label_2
_geom_bond_distance
_geom_bond_site_symmetry_2
Fe0 O1 1.859769 1_555
Fe0 O7 2.055967 1_555
Fe0 O2 2.055967 1_555
Fe0 O7 2.055967 1_565
Fe0 O2 2.055967 1_655
Fe1 O3 1.859769 1_555
Fe1 O6 2.055967 1_655
Fe1 O4 2.055967 1_555
Fe1 O4 2.055967 1_565
Fe1 O6 2.055967 1_555
Fe2 O0 1.985305 1_555
Fe2 O0 1.985305 1_565
Fe2 O5 1.985305 1_655
Fe2 O5 1.985305 1_555
Fe2 O3 2.109463 1_555
Fe2 O1 2.109463 1_555
Cl0 Sr1 3.417156 1_555
Cl0 Sr1 3.417156 1_655
Cl0 Sr1 3.417156 1_565
Cl0 Sr1 3.417156 1_665
Cl0 Sr3 3.417156 1_654
Cl0 Sr3 3.417156 1_564
Cl0 Sr3 3.417156 1_554
Cl0 Sr3 3.417156 1_664
O0 Sr0 2.647863 1_555
O0 Sr0 2.647863 1_655
O0 Sr2 2.647863 1_555
O0 Sr2 2.647863 1_655
O1 Sr0 2.830302 1_565
O1 Sr0 2.830302 1_665
O1 Sr0 2.830302 1_655
O1 Sr0 2.830302 1_555
O2 Sr3 2.412159 1_565
O2 Sr3 2.412159 1_555
O3 Sr2 2.830302 1_555
O3 Sr2 2.830302 1_565
O3 Sr2 2.830302 1_655
O3 Sr2 2.830302 1_665
O4 Sr1 2.412159 1_655
O4 Sr1 2.412159 1_555
O5 Sr0 2.647863 1_555
O5 Sr0 2.647863 1_565
O5 Sr2 2.647863 1_565
O5 Sr2 2.647863 1_555
O6 Sr1 2.412159 1_565
O6 Sr1 2.412159 1_555
O7 Sr3 2.412159 1_655
O7 Sr3 2.412159 1_555
