# generated using pymatgen
data_Zr(Zn10Cu)2
_symmetry_space_group_name_H-M   'P 1'
_cell_length_a   9.92867158
_cell_length_b   9.92867158
_cell_length_c   9.92867158
_cell_angle_alpha   60.00000000
_cell_angle_beta   60.00000000
_cell_angle_gamma   60.00000000
_symmetry_Int_Tables_number   1
_chemical_formula_structural   Zr(Zn10Cu)2
_chemical_formula_sum   'Zr2 Zn40 Cu4'
_cell_volume   692.08340837
_cell_formula_units_Z   2
loop_
 _symmetry_equiv_pos_site_id
 _symmetry_equiv_pos_as_xyz
  1  'x, y, z'
loop_
 _atom_site_type_symbol
 _atom_site_label
 _atom_site_symmetry_multiplicity
 _atom_site_fract_x
 _atom_site_fract_y
 _atom_site_fract_z
 _atom_site_occupancy
  Zr  Zr0  1  0.50000000  0.50000000  0.50000000  1
  Zr  Zr1  1  0.75000000  0.75000000  0.75000000  1
  Zn  Zn0  1  0.56704800  0.30438700  0.30438700  1
  Zn  Zn1  1  0.30438700  0.56704800  0.82417800  1
  Zn  Zn2  1  0.30438700  0.82417800  0.56704800  1
  Zn  Zn3  1  0.82417800  0.30438700  0.30438700  1
  Zn  Zn4  1  0.30438700  0.30438700  0.56704800  1
  Zn  Zn5  1  0.56704800  0.82417800  0.30438700  1
  Zn  Zn6  1  0.82417800  0.56704800  0.30438700  1
  Zn  Zn7  1  0.30438700  0.30438700  0.82417800  1
  Zn  Zn8  1  0.30438700  0.56704800  0.30438700  1
  Zn  Zn9  1  0.82417800  0.30438700  0.56704800  1
  Zn  Zn10  1  0.56704800  0.30438700  0.82417800  1
  Zn  Zn11  1  0.30438700  0.82417800  0.30438700  1
  Zn  Zn12  1  0.68295200  0.94561300  0.94561300  1
  Zn  Zn13  1  0.94561300  0.68295200  0.42582200  1
  Zn  Zn14  1  0.94561300  0.42582200  0.68295200  1
  Zn  Zn15  1  0.42582200  0.94561300  0.94561300  1
  Zn  Zn16  1  0.94561300  0.94561300  0.68295200  1
  Zn  Zn17  1  0.68295200  0.42582200  0.94561300  1
  Zn  Zn18  1  0.42582200  0.68295200  0.94561300  1
  Zn  Zn19  1  0.94561300  0.94561300  0.42582200  1
  Zn  Zn20  1  0.94561300  0.68295200  0.94561300  1
  Zn  Zn21  1  0.42582200  0.94561300  0.68295200  1
  Zn  Zn22  1  0.68295200  0.94561300  0.42582200  1
  Zn  Zn23  1  0.94561300  0.42582200  0.94561300  1
  Zn  Zn24  1  0.85999100  0.85999100  0.14000900  1
  Zn  Zn25  1  0.14000900  0.14000900  0.85999100  1
  Zn  Zn26  1  0.85999100  0.14000900  0.85999100  1
  Zn  Zn27  1  0.14000900  0.85999100  0.14000900  1
  Zn  Zn28  1  0.14000900  0.85999100  0.85999100  1
  Zn  Zn29  1  0.85999100  0.14000900  0.14000900  1
  Zn  Zn30  1  0.39000900  0.39000900  0.10999100  1
  Zn  Zn31  1  0.10999100  0.10999100  0.39000900  1
  Zn  Zn32  1  0.39000900  0.10999100  0.39000900  1
  Zn  Zn33  1  0.10999100  0.39000900  0.10999100  1
  Zn  Zn34  1  0.10999100  0.39000900  0.39000900  1
  Zn  Zn35  1  0.39000900  0.10999100  0.10999100  1
  Zn  Zn36  1  0.12500000  0.62500000  0.62500000  1
  Zn  Zn37  1  0.62500000  0.12500000  0.62500000  1
  Zn  Zn38  1  0.62500000  0.62500000  0.12500000  1
  Zn  Zn39  1  0.62500000  0.62500000  0.62500000  1
  Cu  Cu0  1  0.62500000  0.12500000  0.12500000  1
  Cu  Cu1  1  0.12500000  0.62500000  0.12500000  1
  Cu  Cu2  1  0.12500000  0.12500000  0.62500000  1
  Cu  Cu3  1  0.12500000  0.12500000  0.12500000  1
loop_
_geom_bond_atom_site_label_1
_geom_bond_atom_site_label_2
_geom_bond_distance
_geom_bond_site_symmetry_2
Zn0 Zn3 2.552959 1_555
Zn0 Zn4 2.607875 1_555
Zn0 Zn8 2.607875 1_555
Zn0 Zn29 2.637538 1_555
Zn0 Zn32 2.791995 1_555
Zn0 Zn30 2.791995 1_555
Zn0 Zn17 2.908655 1_554
Zn0 Zn22 2.908655 1_545
Zn0 Zn38 2.962030 1_555
Zn0 Zn37 2.962030 1_555
Zn0 Zr0 3.028779 1_555
Zn1 Zn2 2.552959 1_555
Zn1 Zn10 2.607875 1_555
Zn1 Zn7 2.607875 1_555
Zn1 Zn28 2.637538 1_555
Zn1 Zn30 2.791995 1_556
Zn1 Zn33 2.791995 1_556
Zn1 Zn20 2.908655 1_455
Zn1 Zn18 2.908655 1_555
Zn1 Zn36 2.962030 1_555
Zn1 Zn39 2.962030 1_555
Zn1 Zr0 3.028779 1_555
Zn2 Zn5 2.607875 1_555
Zn2 Zn28 2.637538 1_555
Zn2 Zn32 2.791995 1_565
Zn2 Zn31 2.791995 1_565
Zn2 Zn21 2.908655 1_555
Zn2 Zn36 2.962030 1_555
Zn2 Zn39 2.962030 1_555
Zn2 Zr0 3.028779 1_555
Zn3 Zn9 2.607875 1_555
Zn3 Zn6 2.607875 1_555
Zn3 Zn31 2.791995 1_655
Zn3 Zn33 2.791995 1_655
Zn3 Zn37 2.962030 1_555
Zn3 Zn38 2.962030 1_555
Zn3 Zr0 3.028779 1_555
Zn4 Zn7 2.552959 1_555
Zn4 Zn8 2.607875 1_555
Zn4 Zr0 3.028779 1_555
Zn5 Zn6 2.552959 1_555
Zn5 Zr0 3.028779 1_555
Zn6 Zn9 2.607875 1_555
Zn6 Zr0 3.028779 1_555
Zn7 Zr0 3.028779 1_555
Zn8 Zr0 3.028779 1_555
Zn9 Zr0 3.028779 1_555
Zn10 Zn9 2.552959 1_555
Zn10 Zn7 2.607875 1_555
Zn10 Zn26 2.637538 1_555
Zn10 Zn30 2.791995 1_556
Zn10 Zn35 2.791995 1_556
Zn10 Zn12 2.908655 1_545
Zn10 Zn17 2.908655 1_555
Zn10 Zn39 2.962030 1_555
Zn10 Zn37 2.962030 1_555
Zn10 Zr0 3.028779 1_555
Zn11 Zn8 2.552959 1_555
Zn11 Zn5 2.607875 1_555
Zn11 Zn2 2.607875 1_555
Zn11 Zn27 2.637538 1_555
Zn11 Zn31 2.791995 1_565
Zn11 Zn35 2.791995 1_565
Zn11 Zn19 2.908655 1_455
Zn11 Zn15 2.908655 1_554
Zn11 Zn36 2.962030 1_555
Zn11 Zn38 2.962030 1_555
Zn11 Zr0 3.028779 1_555
Zn12 Zn15 2.552959 1_555
Zn12 Zn20 2.607875 1_555
Zn12 Zn16 2.607875 1_555
Zn12 Zn35 2.637538 1_566
Zn12 Zn24 2.791995 1_556
Zn12 Zn26 2.791995 1_565
Zn12 Zn5 2.908655 1_556
Zn12 Zn38 2.962030 1_556
Zn12 Zn37 2.962030 1_565
Zn12 Zr1 3.028779 1_555
Zn13 Zn14 2.552959 1_555
Zn13 Zn19 2.607875 1_555
Zn13 Zn22 2.607875 1_555
Zn13 Zn34 2.637538 1_655
Zn13 Zn27 2.791995 1_655
Zn13 Zn24 2.791995 1_555
Zn13 Zn8 2.908655 1_655
Zn13 Zn6 2.908655 1_555
Zn13 Zn36 2.962030 1_655
Zn13 Zn39 2.962030 1_555
Zn13 Zr1 3.028779 1_555
Zn14 Zn23 2.607875 1_555
Zn14 Zn17 2.607875 1_555
Zn14 Zn34 2.637538 1_655
Zn14 Zn25 2.791995 1_655
Zn14 Zn26 2.791995 1_555
Zn14 Zn4 2.908655 1_655
Zn14 Zn9 2.908655 1_555
Zn14 Zn36 2.962030 1_655
Zn14 Zn39 2.962030 1_555
Zn14 Zr1 3.028779 1_555
Zn15 Zn18 2.607875 1_555
Zn15 Zn21 2.607875 1_555
Zn15 Zn35 2.637538 1_566
Zn15 Zn27 2.791995 1_556
Zn15 Zn25 2.791995 1_565
Zn15 Zn7 2.908655 1_565
Zn15 Zn37 2.962030 1_565
Zn15 Zn38 2.962030 1_556
Zn15 Zr1 3.028779 1_555
Zn16 Zn19 2.552959 1_555
Zn16 Zn20 2.607875 1_555
Zn16 Zn31 2.637538 1_665
Zn16 Zn28 2.791995 1_655
Zn16 Zn26 2.791995 1_565
Zn16 Zn9 2.908655 1_565
Zn16 Zn2 2.908655 1_655
Zn16 Zn37 2.962030 1_565
Zn16 Zn36 2.962030 1_655
Zn16 Zr1 3.028779 1_555
Zn17 Zn18 2.552959 1_555
Zn17 Zn23 2.607875 1_555
Zn17 Zn30 2.637538 1_556
Zn17 Zn29 2.791995 1_556
Zn17 Zn26 2.791995 1_555
Zn17 Zn38 2.962030 1_556
Zn17 Zn39 2.962030 1_555
Zn17 Zr1 3.028779 1_555
Zn18 Zn21 2.607875 1_555
Zn18 Zn30 2.637538 1_556
Zn18 Zn28 2.791995 1_555
Zn18 Zn27 2.791995 1_556
Zn18 Zn8 2.908655 1_556
Zn18 Zn38 2.962030 1_556
Zn18 Zn39 2.962030 1_555
Zn18 Zr1 3.028779 1_555
Zn19 Zn22 2.607875 1_555
Zn19 Zn31 2.637538 1_665
Zn19 Zn29 2.791995 1_565
Zn19 Zn27 2.791995 1_655
Zn19 Zn3 2.908655 1_565
Zn19 Zn37 2.962030 1_565
Zn19 Zn36 2.962030 1_655
Zn19 Zr1 3.028779 1_555
Zn20 Zn23 2.552959 1_555
Zn20 Zn33 2.637538 1_656
Zn20 Zn24 2.791995 1_556
Zn20 Zn28 2.791995 1_655
Zn20 Zn6 2.908655 1_556
Zn20 Zn38 2.962030 1_556
Zn20 Zn36 2.962030 1_655
Zn20 Zr1 3.028779 1_555
Zn21 Zn22 2.552959 1_555
Zn21 Zn32 2.637538 1_565
Zn21 Zn25 2.791995 1_565
Zn21 Zn28 2.791995 1_555
Zn21 Zn4 2.908655 1_565
Zn21 Zn37 2.962030 1_565
Zn21 Zn39 2.962030 1_555
Zn21 Zr1 3.028779 1_555
Zn22 Zn32 2.637538 1_565
Zn22 Zn29 2.791995 1_565
Zn22 Zn24 2.791995 1_555
Zn22 Zn5 2.908655 1_555
Zn22 Zn37 2.962030 1_565
Zn22 Zn39 2.962030 1_555
Zn22 Zr1 3.028779 1_555
Zn23 Zn33 2.637538 1_656
Zn23 Zn29 2.791995 1_556
Zn23 Zn25 2.791995 1_655
Zn23 Zn7 2.908655 1_655
Zn23 Zn3 2.908655 1_556
Zn23 Zn38 2.962030 1_556
Zn23 Zn36 2.962030 1_655
Zn23 Zr1 3.028779 1_555
Zn24 Zn5 2.637538 1_555
Zn24 Zn6 2.637538 1_555
Zn25 Zn4 2.637538 1_555
Zn25 Zn7 2.637538 1_555
Zn26 Zn9 2.637538 1_555
Zn27 Zn8 2.637538 1_555
Zn29 Zn3 2.637538 1_555
Zn30 Zn8 2.791995 1_555
Zn31 Zn9 2.791995 1_455
Zn32 Zn5 2.791995 1_545
Zn32 Zn4 2.791995 1_555
Zn33 Zn6 2.791995 1_455
Zn33 Zn7 2.791995 1_554
Zn34 Zn6 2.791995 1_455
Zn34 Zn9 2.791995 1_455
Zn34 Zn4 2.791995 1_555
Zn34 Zn8 2.791995 1_555
Zn35 Zn7 2.791995 1_554
Zn35 Zn5 2.791995 1_545
Zn36 Zn8 2.962030 1_555
Zn36 Zn7 2.962030 1_555
Zn36 Zn4 2.962030 1_555
Zn36 Zr0 3.040022 1_555
Zn36 Zr1 3.040022 1_455
Zn37 Zn9 2.962030 1_555
Zn37 Zn7 2.962030 1_555
Zn37 Zn4 2.962030 1_555
Zn37 Zr0 3.040022 1_555
Zn37 Zr1 3.040022 1_545
Zn38 Zn5 2.962030 1_555
Zn38 Zn6 2.962030 1_555
Zn38 Zn8 2.962030 1_555
Zn38 Zr0 3.040022 1_555
Zn38 Zr1 3.040022 1_554
Zn39 Zn5 2.962030 1_555
Zn39 Zn6 2.962030 1_555
Zn39 Zn9 2.962030 1_555
Zn39 Zr0 3.040022 1_555
Zn39 Zr1 3.040022 1_555
Cu0 Zn29 2.491098 1_555
Cu0 Zn30 2.491098 1_555
Cu0 Zn24 2.491098 1_545
Cu0 Zn35 2.491098 1_555
Cu0 Zn32 2.491098 1_555
Cu0 Zn26 2.491098 1_554
Cu0 Zn12 2.792515 1_544
Cu0 Zn17 2.792515 1_554
Cu0 Zn22 2.792515 1_545
Cu0 Zn0 2.792515 1_555
Cu0 Zn10 2.792515 1_554
Cu0 Zn5 2.792515 1_545
Cu1 Zn27 2.491098 1_555
Cu1 Zn30 2.491098 1_555
Cu1 Zn33 2.491098 1_555
Cu1 Zn34 2.491098 1_555
Cu1 Zn24 2.491098 1_455
Cu1 Zn28 2.491098 1_554
Cu1 Zn20 2.792515 1_454
Cu1 Zn18 2.792515 1_554
Cu1 Zn13 2.792515 1_455
Cu1 Zn1 2.792515 1_554
Cu1 Zn6 2.792515 1_455
Cu1 Zn8 2.792515 1_555
Cu2 Zn25 2.491098 1_555
Cu2 Zn34 2.491098 1_555
Cu2 Zn28 2.491098 1_545
Cu2 Zn31 2.491098 1_555
Cu2 Zn26 2.491098 1_455
Cu2 Zn32 2.491098 1_555
Cu2 Zn16 2.792515 1_445
Cu2 Zn21 2.792515 1_545
Cu2 Zn14 2.792515 1_455
Cu2 Zn4 2.792515 1_555
Cu2 Zn9 2.792515 1_455
Cu2 Zn2 2.792515 1_545
Cu3 Zn33 2.491098 1_555
Cu3 Zn31 2.491098 1_555
Cu3 Zn35 2.491098 1_555
Cu3 Zn25 2.491098 1_554
Cu3 Zn27 2.491098 1_545
Cu3 Zn29 2.491098 1_455
Cu3 Zn15 2.792515 1_544
Cu3 Zn23 2.792515 1_454
Cu3 Zn19 2.792515 1_445
Cu3 Zn3 2.792515 1_455
Cu3 Zn11 2.792515 1_545
Cu3 Zn7 2.792515 1_554
