# generated using pymatgen
data_Mg3Ga
_symmetry_space_group_name_H-M   'P 1'
_cell_length_a   6.34295784
_cell_length_b   6.34295784
_cell_length_c   19.55206000
_cell_angle_alpha   90.00000000
_cell_angle_beta   90.00000000
_cell_angle_gamma   119.99997746
_symmetry_Int_Tables_number   1
_chemical_formula_structural   Mg3Ga
_chemical_formula_sum   'Mg24 Ga8'
_cell_volume   681.25060510
_cell_formula_units_Z   8
loop_
 _symmetry_equiv_pos_site_id
 _symmetry_equiv_pos_as_xyz
  1  'x, y, z'
loop_
 _atom_site_type_symbol
 _atom_site_label
 _atom_site_symmetry_multiplicity
 _atom_site_fract_x
 _atom_site_fract_y
 _atom_site_fract_z
 _atom_site_occupancy
  Mg  Mg0_0  1  0.33333350  0.16666650  0.00000000  1
  Mg  Mg0_1  1  0.33333350  0.16666650  0.50000000  1
  Mg  Mg0_2  1  0.33333350  0.66666650  0.00000000  1
  Mg  Mg0_3  1  0.33333350  0.66666650  0.50000000  1
  Mg  Mg0_4  1  0.83333350  0.16666650  0.00000000  1
  Mg  Mg0_5  1  0.83333350  0.16666650  0.50000000  1
  Mg  Mg0_6  1  0.83333350  0.66666650  0.00000000  1
  Mg  Mg0_7  1  0.83333350  0.66666650  0.50000000  1
  Mg  Mg1_0  1  0.00000000  0.00000000  0.37123300  1
  Mg  Mg1_1  1  0.00000000  0.00000000  0.87123300  1
  Mg  Mg1_2  1  0.00000000  0.50000000  0.37123300  1
  Mg  Mg1_3  1  0.00000000  0.50000000  0.87123300  1
  Mg  Mg1_4  1  0.50000000  0.00000000  0.37123300  1
  Mg  Mg1_5  1  0.50000000  0.00000000  0.87123300  1
  Mg  Mg1_6  1  0.50000000  0.50000000  0.37123300  1
  Mg  Mg1_7  1  0.50000000  0.50000000  0.87123300  1
  Mg  Mg2_0  1  0.00000000  0.00000000  0.12876700  1
  Mg  Mg2_1  1  0.00000000  0.00000000  0.62876700  1
  Mg  Mg2_2  1  0.00000000  0.50000000  0.12876700  1
  Mg  Mg2_3  1  0.00000000  0.50000000  0.62876700  1
  Mg  Mg2_4  1  0.50000000  0.00000000  0.12876700  1
  Mg  Mg2_5  1  0.50000000  0.00000000  0.62876700  1
  Mg  Mg2_6  1  0.50000000  0.50000000  0.12876700  1
  Mg  Mg2_7  1  0.50000000  0.50000000  0.62876700  1
  Ga  Ga0_0  1  0.33333350  0.16666650  0.25000000  1
  Ga  Ga0_1  1  0.33333350  0.16666650  0.75000000  1
  Ga  Ga0_2  1  0.33333350  0.66666650  0.25000000  1
  Ga  Ga0_3  1  0.33333350  0.66666650  0.75000000  1
  Ga  Ga0_4  1  0.83333350  0.16666650  0.25000000  1
  Ga  Ga0_5  1  0.83333350  0.16666650  0.75000000  1
  Ga  Ga0_6  1  0.83333350  0.66666650  0.25000000  1
  Ga  Ga0_7  1  0.83333350  0.66666650  0.75000000  1
loop_
_geom_bond_atom_site_label_1
_geom_bond_atom_site_label_2
_geom_bond_distance
_geom_bond_site_symmetry_2
Mg0_0 Mg1_5 3.113096 1_554
Mg0_0 Mg2_4 3.113096 1_555
Mg0_0 Mg1_7 3.113098 1_554
Mg0_0 Mg1_1 3.113098 1_554
Mg0_0 Mg2_0 3.113098 1_555
Mg0_0 Mg2_6 3.113098 1_555
Mg0_0 Mg0_2 3.171479 1_545
Mg0_0 Mg0_4 3.171479 1_555
Mg0_0 Mg0_2 3.171479 1_555
Mg0_0 Mg0_4 3.171479 1_455
Mg0_0 Mg0_6 3.171480 1_555
Mg0_0 Mg0_6 3.171480 1_445
Mg0_1 Mg2_5 3.113096 1_555
Mg0_1 Mg1_4 3.113096 1_555
Mg0_1 Mg2_7 3.113098 1_555
Mg0_1 Mg2_1 3.113098 1_555
Mg0_1 Mg1_0 3.113098 1_555
Mg0_1 Mg1_6 3.113098 1_555
Mg0_1 Mg0_5 3.171479 1_555
Mg0_1 Mg0_3 3.171479 1_545
Mg0_1 Mg0_5 3.171479 1_455
Mg0_1 Mg0_3 3.171479 1_555
Mg0_1 Mg0_7 3.171480 1_555
Mg0_1 Mg0_7 3.171480 1_445
Mg0_2 Mg1_7 3.113096 1_554
Mg0_2 Mg2_6 3.113096 1_555
Mg0_2 Mg1_3 3.113098 1_554
Mg0_2 Mg1_5 3.113098 1_564
Mg0_2 Mg2_4 3.113098 1_565
Mg0_2 Mg2_2 3.113098 1_555
Mg0_2 Mg0_6 3.171479 1_555
Mg0_2 Mg0_6 3.171479 1_455
Mg0_2 Mg0_4 3.171480 1_455
Mg0_2 Mg0_4 3.171480 1_565
Mg0_3 Mg2_7 3.113096 1_555
Mg0_3 Mg1_6 3.113096 1_555
Mg0_3 Mg2_5 3.113098 1_565
Mg0_3 Mg2_3 3.113098 1_555
Mg0_3 Mg1_2 3.113098 1_555
Mg0_3 Mg1_4 3.113098 1_565
Mg0_3 Mg0_7 3.171479 1_555
Mg0_3 Mg0_7 3.171479 1_455
Mg0_3 Mg0_5 3.171480 1_565
Mg0_3 Mg0_5 3.171480 1_455
Mg0_4 Mg1_1 3.113096 1_654
Mg0_4 Mg2_0 3.113096 1_655
Mg0_4 Mg1_5 3.113098 1_554
Mg0_4 Mg1_3 3.113098 1_654
Mg0_4 Mg2_4 3.113098 1_555
Mg0_4 Mg2_2 3.113098 1_655
Mg0_4 Mg0_6 3.171479 1_545
Mg0_4 Mg0_6 3.171479 1_555
Mg0_5 Mg2_1 3.113096 1_655
Mg0_5 Mg1_0 3.113096 1_655
Mg0_5 Mg2_5 3.113098 1_555
Mg0_5 Mg2_3 3.113098 1_655
Mg0_5 Mg1_4 3.113098 1_555
Mg0_5 Mg1_2 3.113098 1_655
Mg0_5 Mg0_7 3.171479 1_545
Mg0_5 Mg0_7 3.171479 1_555
Mg0_6 Mg1_3 3.113096 1_654
Mg0_6 Mg2_2 3.113096 1_655
Mg0_6 Mg1_7 3.113098 1_554
Mg0_6 Mg1_1 3.113098 1_664
Mg0_6 Mg2_6 3.113098 1_555
Mg0_6 Mg2_0 3.113098 1_665
Mg0_7 Mg2_3 3.113096 1_655
Mg0_7 Mg1_2 3.113096 1_655
Mg0_7 Mg2_7 3.113098 1_555
Mg0_7 Mg2_1 3.113098 1_665
Mg0_7 Mg1_0 3.113098 1_665
Mg0_7 Mg1_6 3.113098 1_555
Ga0_0 Mg1_4 2.995219 1_555
Ga0_0 Mg2_4 2.995219 1_555
Ga0_0 Mg2_6 2.995221 1_555
Ga0_0 Mg2_0 2.995221 1_555
Ga0_0 Mg1_0 2.995221 1_555
Ga0_0 Mg1_6 2.995221 1_555
Ga0_1 Mg1_5 2.995219 1_555
Ga0_1 Mg2_5 2.995219 1_555
Ga0_1 Mg1_1 2.995221 1_555
Ga0_1 Mg1_7 2.995221 1_555
Ga0_1 Mg2_7 2.995221 1_555
Ga0_1 Mg2_1 2.995221 1_555
Ga0_2 Mg1_6 2.995219 1_555
Ga0_2 Mg2_6 2.995219 1_555
Ga0_2 Mg1_4 2.995221 1_565
Ga0_2 Mg2_4 2.995221 1_565
Ga0_2 Mg1_2 2.995221 1_555
Ga0_2 Mg2_2 2.995221 1_555
Ga0_3 Mg1_7 2.995219 1_555
Ga0_3 Mg2_7 2.995219 1_555
Ga0_3 Mg2_3 2.995221 1_555
Ga0_3 Mg2_5 2.995221 1_565
Ga0_3 Mg1_3 2.995221 1_555
Ga0_3 Mg1_5 2.995221 1_565
Ga0_4 Mg2_0 2.995219 1_655
Ga0_4 Mg1_0 2.995219 1_655
Ga0_4 Mg1_2 2.995221 1_655
Ga0_4 Mg2_4 2.995221 1_555
Ga0_4 Mg1_4 2.995221 1_555
Ga0_4 Mg2_2 2.995221 1_655
Ga0_5 Mg1_1 2.995219 1_655
Ga0_5 Mg2_1 2.995219 1_655
Ga0_5 Mg2_5 2.995221 1_555
Ga0_5 Mg1_5 2.995221 1_555
Ga0_5 Mg2_3 2.995221 1_655
Ga0_5 Mg1_3 2.995221 1_655
Ga0_6 Mg1_2 2.995219 1_655
Ga0_6 Mg2_2 2.995219 1_655
Ga0_6 Mg1_6 2.995221 1_555
Ga0_6 Mg1_0 2.995221 1_665
Ga0_6 Mg2_6 2.995221 1_555
Ga0_6 Mg2_0 2.995221 1_665
Ga0_7 Mg2_3 2.995219 1_655
Ga0_7 Mg1_3 2.995219 1_655
Ga0_7 Mg1_7 2.995221 1_555
Ga0_7 Mg2_1 2.995221 1_665
Ga0_7 Mg2_7 2.995221 1_555
Ga0_7 Mg1_1 2.995221 1_665
