# generated using pymatgen
data_MgGa
_symmetry_space_group_name_H-M   'P 1'
_cell_length_a   3.28560130
_cell_length_b   4.71807084
_cell_length_c   4.80076633
_cell_angle_alpha   90.00000000
_cell_angle_beta   90.00000000
_cell_angle_gamma   90.00000000
_symmetry_Int_Tables_number   1
_chemical_formula_structural   MgGa
_chemical_formula_sum   'Mg2 Ga2'
_cell_volume   74.42003791
_cell_formula_units_Z   2
loop_
 _symmetry_equiv_pos_site_id
 _symmetry_equiv_pos_as_xyz
  1  'x, y, z'
loop_
 _atom_site_type_symbol
 _atom_site_label
 _atom_site_symmetry_multiplicity
 _atom_site_fract_x
 _atom_site_fract_y
 _atom_site_fract_z
 _atom_site_occupancy
  Mg  Mg0  1  0.50000000  0.25000000  0.27701150  1
  Mg  Mg1  1  0.50000000  0.75000000  0.72298850  1
  Ga  Ga0  1  -0.00000000  0.75000000  0.22100550  1
  Ga  Ga1  1  -0.00000000  0.25000000  0.77899450  1
loop_
_geom_bond_atom_site_label_1
_geom_bond_atom_site_label_2
_geom_bond_distance
_geom_bond_site_symmetry_2
Ga0 Mg0 2.887236 1_455
Ga0 Mg0 2.887236 1_555
Ga0 Mg0 2.887236 1_565
Ga0 Mg0 2.887236 1_465
Ga0 Mg1 2.900866 1_554
Ga0 Mg1 2.900866 1_454
Ga0 Mg1 2.916578 1_455
Ga0 Mg1 2.916578 1_555
Ga1 Mg1 2.887236 1_445
Ga1 Mg1 2.887236 1_455
Ga1 Mg1 2.887236 1_545
Ga1 Mg1 2.887236 1_555
Ga1 Mg0 2.900866 1_556
Ga1 Mg0 2.900866 1_456
Ga1 Mg0 2.916578 1_455
Ga1 Mg0 2.916578 1_555
