# generated using pymatgen
data_Li2CeGa
_symmetry_space_group_name_H-M   'P 1'
_cell_length_a   4.75553048
_cell_length_b   4.75553048
_cell_length_c   4.75553048
_cell_angle_alpha   60.00000000
_cell_angle_beta   60.00000000
_cell_angle_gamma   60.00000000
_symmetry_Int_Tables_number   1
_chemical_formula_structural   Li2CeGa
_chemical_formula_sum   'Li2 Ce1 Ga1'
_cell_volume   76.04696928
_cell_formula_units_Z   1
loop_
 _symmetry_equiv_pos_site_id
 _symmetry_equiv_pos_as_xyz
  1  'x, y, z'
loop_
 _atom_site_type_symbol
 _atom_site_label
 _atom_site_symmetry_multiplicity
 _atom_site_fract_x
 _atom_site_fract_y
 _atom_site_fract_z
 _atom_site_occupancy
  Li  Li0  1  0.75000000  0.75000000  0.75000000  1
  Li  Li1  1  0.25000000  0.25000000  0.25000000  1
  Ce  Ce0  1  0.50000000  0.50000000  0.50000000  1
  Ga  Ga0  1  0.00000000  -0.00000000  0.00000000  1
loop_
_geom_bond_atom_site_label_1
_geom_bond_atom_site_label_2
_geom_bond_distance
_geom_bond_site_symmetry_2
Ce0 Li0 2.912156 1_545
Ce0 Li0 2.912156 1_455
Ce0 Li1 2.912156 1_565
Ce0 Li1 2.912156 1_655
Ce0 Li1 2.912156 1_555
Ce0 Li0 2.912156 1_555
Ce0 Li1 2.912156 1_556
Ce0 Li0 2.912156 1_554
Ce0 Ga0 3.362668 1_656
Ce0 Ga0 3.362668 1_665
Ce0 Ga0 3.362668 1_655
Ce0 Ga0 3.362668 1_566
Ce0 Ga0 3.362668 1_556
Ce0 Ga0 3.362668 1_565
Ga0 Li0 2.912156 1_544
Ga0 Li0 2.912156 1_454
Ga0 Li1 2.912156 1_545
Ga0 Li1 2.912156 1_555
Ga0 Li1 2.912156 1_554
Ga0 Li1 2.912156 1_455
Ga0 Li0 2.912156 1_444
Ga0 Li0 2.912156 1_445
