# generated using pymatgen
data_Hf9Re4As
_symmetry_space_group_name_H-M   'P 1'
_cell_length_a   8.60621077
_cell_length_b   8.60621077
_cell_length_c   8.58117207
_cell_angle_alpha   90.00000000
_cell_angle_beta   90.00000000
_cell_angle_gamma   120.00804512
_symmetry_Int_Tables_number   1
_chemical_formula_structural   Hf9Re4As
_chemical_formula_sum   'Hf18 Re8 As2'
_cell_volume   550.38423473
_cell_formula_units_Z   2
loop_
 _symmetry_equiv_pos_site_id
 _symmetry_equiv_pos_as_xyz
  1  'x, y, z'
loop_
 _atom_site_type_symbol
 _atom_site_label
 _atom_site_symmetry_multiplicity
 _atom_site_fract_x
 _atom_site_fract_y
 _atom_site_fract_z
 _atom_site_occupancy
  Hf  Hf0  1  0.80847376  0.61698705  0.54983094  1
  Hf  Hf1  1  0.80849455  0.19150545  0.54978895  1
  Hf  Hf2  1  0.38301295  0.19152624  0.54983094  1
  Hf  Hf3  1  0.19152624  0.38301295  0.45016906  1
  Hf  Hf4  1  0.19150545  0.80849455  0.45021105  1
  Hf  Hf5  1  0.61698705  0.80847376  0.45016906  1
  Hf  Hf6  1  0.19152624  0.38301295  0.04983094  1
  Hf  Hf7  1  0.19150545  0.80849455  0.04978895  1
  Hf  Hf8  1  0.61698705  0.80847376  0.04983094  1
  Hf  Hf9  1  0.80847376  0.61698705  0.95016906  1
  Hf  Hf10  1  0.80849455  0.19150545  0.95021105  1
  Hf  Hf11  1  0.38301295  0.19152624  0.95016906  1
  Hf  Hf12  1  0.45568503  0.91145368  0.75000000  1
  Hf  Hf13  1  0.45565998  0.54434002  0.75000000  1
  Hf  Hf14  1  0.08854632  0.54431497  0.75000000  1
  Hf  Hf15  1  0.54431497  0.08854632  0.25000000  1
  Hf  Hf16  1  0.54434002  0.45565998  0.25000000  1
  Hf  Hf17  1  0.91145368  0.45568503  0.25000000  1
  Re  Re0  1  0.11023370  0.22055746  0.75000000  1
  Re  Re1  1  0.11021553  0.88978447  0.75000000  1
  Re  Re2  1  0.77944254  0.88976630  0.75000000  1
  Re  Re3  1  0.88976630  0.77944254  0.25000000  1
  Re  Re4  1  0.88978447  0.11021553  0.25000000  1
  Re  Re5  1  0.22055746  0.11023370  0.25000000  1
  Re  Re6  1  -0.00000000  -0.00000000  0.50000000  1
  Re  Re7  1  -0.00000000  -0.00000000  0.00000000  1
  As  As0  1  0.66668704  0.33331296  0.75000000  1
  As  As1  1  0.33331296  0.66668704  0.25000000  1
loop_
_geom_bond_atom_site_label_1
_geom_bond_atom_site_label_2
_geom_bond_distance
_geom_bond_site_symmetry_2
Hf0 Re3 2.843528 1_555
Hf0 Re6 2.886291 1_665
Hf0 Re1 3.017910 1_655
Hf0 Re2 3.018403 1_555
Hf1 Re4 2.843659 1_555
Hf1 Re6 2.886566 1_655
Hf1 Re0 3.017994 1_655
Hf1 Re2 3.017994 1_545
Hf2 Re5 2.843528 1_555
Hf2 Re6 2.886291 1_555
Hf2 Re1 3.017910 1_545
Hf2 Re0 3.018403 1_555
Hf3 Re0 2.843528 1_555
Hf3 Re6 2.886291 1_555
Hf3 Re4 3.017910 1_455
Hf3 Re5 3.018403 1_555
Hf4 Re1 2.843659 1_555
Hf4 Re6 2.886566 1_565
Hf4 Re5 3.017994 1_565
Hf4 Re3 3.017994 1_455
Hf5 Re2 2.843528 1_555
Hf5 Re6 2.886291 1_665
Hf5 Re4 3.017910 1_565
Hf5 Re3 3.018403 1_555
Hf6 Re0 2.843528 1_554
Hf6 Re7 2.886291 1_555
Hf6 Re4 3.017910 1_455
Hf6 Re5 3.018403 1_555
Hf7 Re1 2.843659 1_554
Hf7 Re7 2.886566 1_565
Hf7 Re5 3.017994 1_565
Hf7 Re3 3.017994 1_455
Hf8 Re2 2.843528 1_554
Hf8 Re7 2.886291 1_665
Hf8 Re4 3.017910 1_565
Hf8 Re3 3.018403 1_555
Hf9 Re3 2.843528 1_556
Hf9 Re7 2.886291 1_666
Hf9 Re1 3.017910 1_655
Hf9 Re2 3.018403 1_555
Hf10 Re4 2.843659 1_556
Hf10 Re7 2.886566 1_656
Hf10 Re0 3.017994 1_655
Hf10 Re2 3.017994 1_545
Hf11 Re5 2.843528 1_556
Hf11 Re7 2.886291 1_556
Hf11 Re1 3.017910 1_545
Hf11 Re0 3.018403 1_555
Hf12 Re2 2.884203 1_555
Hf12 Re1 2.884440 1_555
Hf13 Re2 2.883842 1_555
Hf13 Re0 2.883842 1_555
Hf14 Re0 2.884203 1_555
Hf14 Re1 2.884440 1_555
Hf15 Re5 2.884203 1_555
Hf15 Re4 2.884440 1_555
Hf16 Re3 2.883842 1_555
Hf16 Re5 2.883842 1_555
Hf17 Re3 2.884203 1_555
Hf17 Re4 2.884440 1_555
Re0 Re6 2.702612 1_555
Re0 Re7 2.702612 1_556
Re0 Re2 2.846512 1_445
Re0 Re1 2.846624 1_545
Re1 Re6 2.702161 1_565
Re1 Re7 2.702161 1_566
Re1 Re2 2.846624 1_455
Re2 Re6 2.702612 1_665
Re2 Re7 2.702612 1_666
Re3 Re7 2.702612 1_665
Re3 Re6 2.702612 1_665
Re3 Re5 2.846512 1_665
Re3 Re4 2.846624 1_565
Re4 Re6 2.702161 1_655
Re4 Re7 2.702161 1_655
Re4 Re5 2.846624 1_655
Re5 Re6 2.702612 1_555
Re5 Re7 2.702612 1_555
As0 Hf11 2.723948 1_555
As0 Hf0 2.723948 1_555
As0 Hf9 2.723948 1_555
As0 Hf2 2.723948 1_555
As0 Hf1 2.724033 1_555
As0 Hf10 2.724033 1_555
As0 Hf12 3.143945 1_545
As0 Hf14 3.143945 1_655
As0 Hf13 3.145780 1_555
As1 Hf5 2.723948 1_555
As1 Hf8 2.723948 1_555
As1 Hf3 2.723948 1_555
As1 Hf6 2.723948 1_555
As1 Hf7 2.724033 1_555
As1 Hf4 2.724033 1_555
As1 Hf17 3.143945 1_455
As1 Hf15 3.143945 1_565
As1 Hf16 3.145780 1_555
