# generated using pymatgen
data_CaLaCrMoO6
_symmetry_space_group_name_H-M   'P 1'
_cell_length_a   5.53765342
_cell_length_b   5.73901742
_cell_length_c   7.85196890
_cell_angle_alpha   89.95501000
_cell_angle_beta   90.17259486
_cell_angle_gamma   89.78610851
_symmetry_Int_Tables_number   1
_chemical_formula_structural   CaLaCrMoO6
_chemical_formula_sum   'Ca2 La2 Cr2 Mo2 O12'
_cell_volume   249.53803526
_cell_formula_units_Z   2
loop_
 _symmetry_equiv_pos_site_id
 _symmetry_equiv_pos_as_xyz
  1  'x, y, z'
loop_
 _atom_site_type_symbol
 _atom_site_label
 _atom_site_symmetry_multiplicity
 _atom_site_fract_x
 _atom_site_fract_y
 _atom_site_fract_z
 _atom_site_occupancy
  Ca  Ca0  1  0.48613600  0.45206700  0.75072500  1
  Ca  Ca1  1  0.98488600  0.04839800  0.25072900  1
  La  La0  1  0.01377200  0.95817700  0.75011900  1
  La  La1  1  0.51263100  0.54139900  0.25019000  1
  Cr  Cr0  1  0.00034300  0.50052200  0.99888000  1
  Cr  Cr1  1  0.50064900  0.99926100  0.49923700  1
  Mo  Mo0  1  0.99993700  0.49785500  0.50052200  1
  Mo  Mo1  1  0.49958000  0.00215900  0.00090000  1
  O  O0  1  0.08755300  0.46819900  0.24924400  1
  O  O1  1  0.58830000  0.03261700  0.74953900  1
  O  O2  1  0.20805700  0.21505900  0.95321600  1
  O  O3  1  0.70749900  0.28404400  0.45288400  1
  O  O4  1  0.21122200  0.20166000  0.54595600  1
  O  O5  1  0.71229300  0.29850100  0.04577400  1
  O  O6  1  0.29191700  0.70135500  0.95255400  1
  O  O7  1  0.79354700  0.79846200  0.45271800  1
  O  O8  1  0.29595700  0.70874400  0.54893000  1
  O  O9  1  0.79544200  0.79244800  0.04807500  1
  O  O10  1  0.40501600  0.97025600  0.25013900  1
  O  O11  1  0.90525900  0.52881700  0.74966800  1
loop_
_geom_bond_atom_site_label_1
_geom_bond_atom_site_label_2
_geom_bond_distance
_geom_bond_site_symmetry_2
Ca0 O11 2.364037 1_555
Ca0 O6 2.391096 1_555
Ca0 O8 2.400909 1_555
Ca0 O1 2.470793 1_555
Ca0 O2 2.603147 1_555
Ca0 O4 2.640687 1_555
Ca0 O5 2.771898 1_556
Ca0 O3 2.813135 1_555
Ca1 O10 2.367737 1_645
Ca1 O7 2.390290 1_545
Ca1 O9 2.407358 1_545
Ca1 O0 2.477509 1_655
Ca1 O3 2.590475 1_555
Ca1 O5 2.625698 1_555
Ca1 O4 2.777078 1_655
Ca1 O2 2.814613 1_654
La0 O1 2.392955 1_465
La0 O4 2.395091 1_565
La0 O2 2.424714 1_565
La0 O11 2.538497 1_455
La0 O8 2.643542 1_555
La0 O6 2.652547 1_555
La0 O7 2.788378 1_455
La0 O9 2.803923 1_456
La1 O0 2.392661 1_555
La1 O5 2.396799 1_555
La1 O3 2.419295 1_555
La1 O10 2.530173 1_555
La1 O9 2.659949 1_555
La1 O7 2.670432 1_555
La1 O6 2.787350 1_554
La1 O8 2.806461 1_555
Cr0 O5 2.010194 1_456
Cr0 O6 2.021036 1_555
Cr0 O2 2.030990 1_555
Cr0 O0 2.031070 1_556
Cr0 O11 2.031097 1_455
Cr0 O9 2.057428 1_456
Cr1 O4 2.010702 1_565
Cr1 O7 2.020513 1_555
Cr1 O10 2.031915 1_555
Cr1 O1 2.032346 1_565
Cr1 O3 2.032558 1_565
Cr1 O8 2.057348 1_555
Mo0 O11 2.034587 1_555
Mo0 O0 2.040315 1_655
Mo0 O3 2.068824 1_555
Mo0 O8 2.075628 1_655
Mo0 O4 2.089846 1_655
Mo0 O7 2.098834 1_555
Mo1 O10 2.035679 1_545
Mo1 O1 2.042861 1_554
Mo1 O2 2.054293 1_554
Mo1 O9 2.061776 1_545
Mo1 O5 2.101783 1_555
Mo1 O6 2.111854 1_544
