# generated using pymatgen
data_CaMg6Sb
_symmetry_space_group_name_H-M   'P 1'
_cell_length_a   5.41590600
_cell_length_b   6.29215300
_cell_length_c   11.65781400
_cell_angle_alpha   90.00000000
_cell_angle_beta   90.00000000
_cell_angle_gamma   90.00000000
_symmetry_Int_Tables_number   1
_chemical_formula_structural   CaMg6Sb
_chemical_formula_sum   'Ca2 Mg12 Sb2'
_cell_volume   397.27159523
_cell_formula_units_Z   2
loop_
 _symmetry_equiv_pos_site_id
 _symmetry_equiv_pos_as_xyz
  1  'x, y, z'
loop_
 _atom_site_type_symbol
 _atom_site_label
 _atom_site_symmetry_multiplicity
 _atom_site_fract_x
 _atom_site_fract_y
 _atom_site_fract_z
 _atom_site_occupancy
  Ca  Ca0  1  0.50000000  0.00000000  0.16953200  1
  Ca  Ca1  1  0.50000000  0.50000000  0.66953200  1
  Mg  Mg0  1  0.50000000  0.24877000  0.41747500  1
  Mg  Mg1  1  0.50000000  0.75123000  0.41747500  1
  Mg  Mg2  1  0.00000000  0.74641700  0.07880900  1
  Mg  Mg3  1  0.00000000  0.25358300  0.07880900  1
  Mg  Mg4  1  0.00000000  0.00000000  0.33807100  1
  Mg  Mg5  1  0.00000000  0.50000000  0.33557600  1
  Mg  Mg6  1  0.50000000  0.74877000  0.91747500  1
  Mg  Mg7  1  0.50000000  0.25123000  0.91747500  1
  Mg  Mg8  1  0.00000000  0.24641700  0.57880900  1
  Mg  Mg9  1  0.00000000  0.75358300  0.57880900  1
  Mg  Mg10  1  0.00000000  0.50000000  0.83807100  1
  Mg  Mg11  1  0.00000000  0.00000000  0.83557600  1
  Sb  Sb0  1  0.50000000  0.50000000  0.16425000  1
  Sb  Sb1  1  0.50000000  0.00000000  0.66425000  1
loop_
_geom_bond_atom_site_label_1
_geom_bond_atom_site_label_2
_geom_bond_distance
_geom_bond_site_symmetry_2
Ca0 Sb0 3.146679 1_545
Ca0 Sb0 3.146679 1_555
Ca0 Mg0 3.287096 1_555
Ca0 Mg1 3.287096 1_545
Ca0 Mg2 3.316245 1_545
Ca0 Mg3 3.316245 1_655
Ca0 Mg3 3.316245 1_555
Ca0 Mg2 3.316245 1_645
Ca0 Mg6 3.336653 1_544
Ca0 Mg7 3.336653 1_554
Ca0 Mg4 3.345659 1_655
Ca0 Mg4 3.345659 1_555
Ca1 Sb1 3.146679 1_565
Ca1 Sb1 3.146679 1_555
Ca1 Mg7 3.287096 1_555
Ca1 Mg6 3.287096 1_555
Ca1 Mg9 3.316245 1_555
Ca1 Mg9 3.316245 1_655
Ca1 Mg8 3.316245 1_555
Ca1 Mg8 3.316245 1_655
Ca1 Mg1 3.336653 1_555
Ca1 Mg0 3.336653 1_555
Ca1 Mg10 3.345659 1_555
Ca1 Mg10 3.345659 1_655
Mg0 Mg1 3.130598 1_545
Mg0 Mg1 3.161555 1_555
Mg0 Mg4 3.261909 1_655
Mg0 Mg4 3.261909 1_555
Mg0 Sb1 3.275129 1_555
Mg0 Mg5 3.277719 1_555
Mg0 Mg5 3.277719 1_655
Mg0 Mg8 3.297066 1_555
Mg0 Mg8 3.297066 1_655
Mg0 Sb0 3.348650 1_555
Mg1 Mg4 3.261909 1_665
Mg1 Mg4 3.261909 1_565
Mg1 Sb1 3.275129 1_565
Mg1 Mg5 3.277719 1_555
Mg1 Mg5 3.277719 1_655
Mg1 Mg9 3.297066 1_555
Mg1 Mg9 3.297066 1_655
Mg1 Sb0 3.348650 1_555
Mg2 Mg3 3.100987 1_555
Mg2 Mg3 3.191166 1_565
Mg2 Sb0 3.275541 1_555
Mg2 Sb0 3.275541 1_455
Mg2 Mg6 3.297066 1_554
Mg2 Mg6 3.297066 1_454
Mg2 Mg5 3.371072 1_555
Mg2 Mg4 3.417742 1_565
Mg3 Sb0 3.275541 1_555
Mg3 Sb0 3.275541 1_455
Mg3 Mg7 3.297066 1_554
Mg3 Mg7 3.297066 1_454
Mg3 Mg5 3.371072 1_555
Mg3 Mg4 3.417742 1_555
Mg4 Mg5 3.146211 1_555
Mg4 Mg5 3.146211 1_545
Mg4 Mg9 3.206299 1_545
Mg4 Mg8 3.206299 1_555
Mg5 Mg8 3.253662 1_555
Mg5 Mg9 3.253662 1_555
Mg5 Sb0 3.364842 1_555
Mg5 Sb0 3.364842 1_455
Mg6 Mg7 3.130598 1_555
Mg6 Mg7 3.161555 1_565
Mg6 Sb0 3.275129 1_556
Mg6 Sb1 3.348650 1_565
Mg7 Sb0 3.275129 1_556
Mg7 Sb1 3.348650 1_555
Mg8 Mg9 3.100987 1_545
Mg8 Mg9 3.191166 1_555
Mg8 Sb1 3.275541 1_455
Mg8 Sb1 3.275541 1_555
Mg9 Sb1 3.275541 1_465
Mg9 Sb1 3.275541 1_565
Mg10 Mg11 3.146211 1_565
Mg10 Mg11 3.146211 1_555
Mg10 Mg3 3.206299 1_556
Mg10 Mg2 3.206299 1_556
Mg10 Mg7 3.261909 1_455
Mg10 Mg7 3.261909 1_555
Mg10 Mg6 3.261909 1_555
Mg10 Mg6 3.261909 1_455
Mg10 Mg9 3.417742 1_555
Mg10 Mg8 3.417742 1_555
Mg11 Mg2 3.253662 1_546
Mg11 Mg3 3.253662 1_556
Mg11 Mg6 3.277719 1_545
Mg11 Mg7 3.277719 1_555
Mg11 Mg7 3.277719 1_455
Mg11 Mg6 3.277719 1_445
Mg11 Sb1 3.364842 1_455
Mg11 Sb1 3.364842 1_555
Mg11 Mg8 3.371072 1_555
Mg11 Mg9 3.371072 1_545
