# generated using pymatgen
data_YbZnCuAs2
_symmetry_space_group_name_H-M   'P 1'
_cell_length_a   4.08957266
_cell_length_b   4.08957266
_cell_length_c   6.96096300
_cell_angle_alpha   90.00000000
_cell_angle_beta   90.00000000
_cell_angle_gamma   120.00001061
_symmetry_Int_Tables_number   1
_chemical_formula_structural   YbZnCuAs2
_chemical_formula_sum   'Yb1 Zn1 Cu1 As2'
_cell_volume   100.82210656
_cell_formula_units_Z   1
loop_
 _symmetry_equiv_pos_site_id
 _symmetry_equiv_pos_as_xyz
  1  'x, y, z'
loop_
 _atom_site_type_symbol
 _atom_site_label
 _atom_site_symmetry_multiplicity
 _atom_site_fract_x
 _atom_site_fract_y
 _atom_site_fract_z
 _atom_site_occupancy
  Yb  Yb0  1  0.33333300  0.66666700  0.99584000  1
  Zn  Zn0  1  0.00000000  0.00000000  0.37475000  1
  Cu  Cu0  1  0.66666700  0.33333300  0.63400200  1
  As  As0  1  0.66666700  0.33333300  0.25735600  1
  As  As1  1  0.00000000  0.00000000  0.73805300  1
loop_
_geom_bond_atom_site_label_1
_geom_bond_atom_site_label_2
_geom_bond_distance
_geom_bond_site_symmetry_2
As0 Zn0 2.498526 1_655
As0 Zn0 2.498529 1_665
As0 Zn0 2.498529 1_555
As0 Cu0 2.621819 1_555
As0 Yb0 2.981396 1_544
As0 Yb0 2.981396 1_654
As0 Yb0 2.981402 1_554
As1 Cu0 2.469709 1_455
As1 Cu0 2.469712 1_445
As1 Cu0 2.469712 1_555
As1 Zn0 2.528939 1_555
As1 Yb0 2.965619 1_545
As1 Yb0 2.965621 1_555
As1 Yb0 2.965621 1_445
