# generated using pymatgen
data_Ba2TbSnO6
_symmetry_space_group_name_H-M   'P 1'
_cell_length_a   8.64614992
_cell_length_b   8.64614992
_cell_length_c   8.64614992
_cell_angle_alpha   90.00000000
_cell_angle_beta   90.00000000
_cell_angle_gamma   90.00000000
_symmetry_Int_Tables_number   1
_chemical_formula_structural   Ba2TbSnO6
_chemical_formula_sum   'Ba8 Tb4 Sn4 O24'
_cell_volume   646.35079177
_cell_formula_units_Z   4
loop_
 _symmetry_equiv_pos_site_id
 _symmetry_equiv_pos_as_xyz
  1  'x, y, z'
loop_
 _atom_site_type_symbol
 _atom_site_label
 _atom_site_symmetry_multiplicity
 _atom_site_fract_x
 _atom_site_fract_y
 _atom_site_fract_z
 _atom_site_occupancy
  Ba  Ba0  1  0.50000000  0.50000000  0.50000000  1
  Ba  Ba1  1  0.00000000  -0.00000000  0.00000000  1
  Ba  Ba2  1  0.00000000  -0.00000000  0.50000000  1
  Ba  Ba3  1  0.00000000  0.50000000  0.00000000  1
  Ba  Ba4  1  0.50000000  -0.00000000  0.00000000  1
  Ba  Ba5  1  0.50000000  0.50000000  0.00000000  1
  Ba  Ba6  1  0.50000000  -0.00000000  0.50000000  1
  Ba  Ba7  1  0.00000000  0.50000000  0.50000000  1
  Tb  Tb0  1  0.25000000  0.25000000  0.25000000  1
  Tb  Tb1  1  0.25000000  0.75000000  0.75000000  1
  Tb  Tb2  1  0.75000000  0.25000000  0.75000000  1
  Tb  Tb3  1  0.75000000  0.75000000  0.25000000  1
  Sn  Sn0  1  0.75000000  0.75000000  0.75000000  1
  Sn  Sn1  1  0.75000000  0.25000000  0.25000000  1
  Sn  Sn2  1  0.25000000  0.75000000  0.25000000  1
  Sn  Sn3  1  0.25000000  0.25000000  0.75000000  1
  O  O0  1  0.23763868  0.26303091  0.50953182  1
  O  O1  1  0.23763868  0.73696909  0.49046818  1
  O  O2  1  0.76236132  0.26303091  0.49046818  1
  O  O3  1  0.76236132  0.73696909  0.50953182  1
  O  O4  1  0.26303091  0.50953182  0.23763868  1
  O  O5  1  0.73696909  0.49046818  0.23763868  1
  O  O6  1  0.26303091  0.49046818  0.76236132  1
  O  O7  1  0.73696909  0.50953182  0.76236132  1
  O  O8  1  0.50953182  0.23763868  0.26303091  1
  O  O9  1  0.49046818  0.23763868  0.73696909  1
  O  O10  1  0.49046818  0.76236132  0.26303091  1
  O  O11  1  0.50953182  0.76236132  0.73696909  1
  O  O12  1  0.26236132  0.23696909  0.99046818  1
  O  O13  1  0.26236132  0.76303091  0.00953182  1
  O  O14  1  0.73763868  0.23696909  0.00953182  1
  O  O15  1  0.73763868  0.76303091  0.99046818  1
  O  O16  1  0.23696909  0.99046818  0.26236132  1
  O  O17  1  0.76303091  0.00953182  0.26236132  1
  O  O18  1  0.23696909  0.00953182  0.73763868  1
  O  O19  1  0.76303091  0.99046818  0.73763868  1
  O  O20  1  0.99046818  0.26236132  0.23696909  1
  O  O21  1  0.00953182  0.26236132  0.76303091  1
  O  O22  1  0.00953182  0.73763868  0.23696909  1
  O  O23  1  0.99046818  0.73763868  0.76303091  1
loop_
_geom_bond_atom_site_label_1
_geom_bond_atom_site_label_2
_geom_bond_distance
_geom_bond_site_symmetry_2
Ba0 O2 3.057837 1_555
Ba0 O3 3.057837 1_555
Ba0 O11 3.057837 1_555
Ba0 O1 3.057837 1_555
Ba0 O8 3.057837 1_555
Ba0 O0 3.057837 1_555
Ba0 O9 3.057837 1_555
Ba0 O10 3.057837 1_555
Ba0 O5 3.057837 1_555
Ba0 O6 3.057837 1_555
Ba0 O7 3.057837 1_555
Ba0 O4 3.057837 1_555
Ba1 O20 3.057837 1_455
Ba1 O14 3.057837 1_455
Ba1 O22 3.057837 1_545
Ba1 O21 3.057837 1_554
Ba1 O23 3.057837 1_444
Ba1 O12 3.057837 1_554
Ba1 O13 3.057837 1_545
Ba1 O15 3.057837 1_444
Ba1 O19 3.057837 1_444
Ba1 O17 3.057837 1_455
Ba1 O16 3.057837 1_545
Ba1 O18 3.057837 1_554
Ba2 O16 2.902807 1_545
Ba2 O18 2.902807 1_555
Ba2 O19 2.902807 1_445
Ba2 O17 2.902807 1_455
Ba2 O1 3.066011 1_545
Ba2 O0 3.066011 1_555
Ba2 O2 3.066011 1_455
Ba2 O3 3.066011 1_445
Ba2 O20 3.213177 1_455
Ba2 O23 3.213177 1_445
Ba2 O22 3.213177 1_545
Ba2 O21 3.213177 1_555
Ba3 O21 2.902807 1_554
Ba3 O22 2.902807 1_555
Ba3 O23 2.902807 1_454
Ba3 O20 2.902807 1_455
Ba3 O5 3.066011 1_455
Ba3 O6 3.066011 1_554
Ba3 O7 3.066011 1_454
Ba3 O4 3.066011 1_555
Ba3 O15 3.213177 1_454
Ba3 O13 3.213177 1_555
Ba3 O14 3.213177 1_455
Ba3 O12 3.213177 1_554
Ba4 O12 2.902807 1_554
Ba4 O14 2.902807 1_555
Ba4 O15 2.902807 1_544
Ba4 O13 2.902807 1_545
Ba4 O8 3.066011 1_555
Ba4 O9 3.066011 1_554
Ba4 O11 3.066011 1_544
Ba4 O10 3.066011 1_545
Ba4 O19 3.213177 1_544
Ba4 O17 3.213177 1_555
Ba4 O16 3.213177 1_545
Ba4 O18 3.213177 1_554
Ba5 O4 2.902807 1_555
Ba5 O5 2.902807 1_555
Ba5 O7 2.902807 1_554
Ba5 O6 2.902807 1_554
Ba5 O15 3.066011 1_554
Ba5 O12 3.066011 1_554
Ba5 O14 3.066011 1_555
Ba5 O13 3.066011 1_555
Ba5 O10 3.213177 1_555
Ba5 O11 3.213177 1_554
Ba5 O9 3.213177 1_554
Ba5 O8 3.213177 1_555
Ba6 O8 2.902807 1_555
Ba6 O10 2.902807 1_545
Ba6 O9 2.902807 1_555
Ba6 O11 2.902807 1_545
Ba6 O18 3.066011 1_555
Ba6 O19 3.066011 1_545
Ba6 O17 3.066011 1_555
Ba6 O16 3.066011 1_545
Ba6 O0 3.213177 1_555
Ba6 O2 3.213177 1_555
Ba6 O3 3.213177 1_545
Ba6 O1 3.213177 1_545
Ba7 O1 2.902807 1_555
Ba7 O3 2.902807 1_455
Ba7 O0 2.902807 1_555
Ba7 O2 2.902807 1_455
Ba7 O21 3.066011 1_555
Ba7 O22 3.066011 1_555
Ba7 O23 3.066011 1_455
Ba7 O20 3.066011 1_455
Ba7 O7 3.213177 1_455
Ba7 O4 3.213177 1_555
Ba7 O5 3.213177 1_455
Ba7 O6 3.213177 1_555
O0 Sn3 2.084916 1_555
O0 Tb0 2.249318 1_555
O1 Sn2 2.084916 1_555
O1 Tb1 2.249318 1_555
O2 Sn1 2.084916 1_555
O2 Tb2 2.249318 1_555
O3 Sn0 2.084916 1_555
O3 Tb3 2.249318 1_555
O4 Sn2 2.084916 1_555
O4 Tb0 2.249318 1_555
O5 Sn1 2.084916 1_555
O5 Tb3 2.249318 1_555
O6 Sn3 2.084916 1_555
O6 Tb1 2.249318 1_555
O7 Sn0 2.084916 1_555
O7 Tb2 2.249318 1_555
O8 Sn1 2.084916 1_555
O8 Tb0 2.249318 1_555
O9 Sn3 2.084916 1_555
O9 Tb2 2.249318 1_555
O10 Sn2 2.084916 1_555
O10 Tb3 2.249318 1_555
O11 Sn0 2.084916 1_555
O11 Tb1 2.249318 1_555
O12 Sn3 2.084916 1_555
O12 Tb0 2.249318 1_556
O13 Sn2 2.084916 1_555
O13 Tb1 2.249318 1_554
O14 Sn1 2.084916 1_555
O14 Tb2 2.249318 1_554
O15 Sn0 2.084916 1_555
O15 Tb3 2.249318 1_556
O16 Sn2 2.084916 1_555
O16 Tb0 2.249318 1_565
O17 Sn1 2.084916 1_555
O17 Tb3 2.249318 1_545
O18 Sn3 2.084916 1_555
O18 Tb1 2.249318 1_545
O19 Sn0 2.084916 1_555
O19 Tb2 2.249318 1_565
O20 Sn1 2.084916 1_555
O20 Tb0 2.249318 1_655
O21 Sn3 2.084916 1_555
O21 Tb2 2.249318 1_455
O22 Sn2 2.084916 1_555
O22 Tb3 2.249318 1_455
O23 Sn0 2.084916 1_555
O23 Tb1 2.249318 1_655
