# generated using pymatgen
data_HfMg30VO32
_symmetry_space_group_name_H-M   'P 1'
_cell_length_a   8.59128800
_cell_length_b   8.59128800
_cell_length_c   8.61115700
_cell_angle_alpha   90.00000000
_cell_angle_beta   90.00000000
_cell_angle_gamma   90.00000000
_symmetry_Int_Tables_number   1
_chemical_formula_structural   HfMg30VO32
_chemical_formula_sum   'Hf1 Mg30 V1 O32'
_cell_volume   635.59147442
_cell_formula_units_Z   1
loop_
 _symmetry_equiv_pos_site_id
 _symmetry_equiv_pos_as_xyz
  1  'x, y, z'
loop_
 _atom_site_type_symbol
 _atom_site_label
 _atom_site_symmetry_multiplicity
 _atom_site_fract_x
 _atom_site_fract_y
 _atom_site_fract_z
 _atom_site_occupancy
  Hf  Hf0  1  0.50000000  0.50000000  0.00000000  1
  Mg  Mg0  1  0.00000000  0.50000000  0.00000000  1
  Mg  Mg1  1  0.50000000  0.00000000  0.00000000  1
  Mg  Mg2  1  0.00000000  0.00000000  0.50000000  1
  Mg  Mg3  1  0.00000000  0.50000000  0.50000000  1
  Mg  Mg4  1  0.50000000  0.00000000  0.50000000  1
  Mg  Mg5  1  0.50000000  0.50000000  0.50000000  1
  Mg  Mg6  1  0.24506500  0.24506500  0.00000000  1
  Mg  Mg7  1  0.24506500  0.75493500  0.00000000  1
  Mg  Mg8  1  0.75493500  0.24506500  0.00000000  1
  Mg  Mg9  1  0.75493500  0.75493500  0.00000000  1
  Mg  Mg10  1  0.24916700  0.24916700  0.50000000  1
  Mg  Mg11  1  0.24916700  0.75083300  0.50000000  1
  Mg  Mg12  1  0.75083300  0.24916700  0.50000000  1
  Mg  Mg13  1  0.75083300  0.75083300  0.50000000  1
  Mg  Mg14  1  0.00000000  0.24990400  0.25159500  1
  Mg  Mg15  1  0.00000000  0.75009600  0.25159500  1
  Mg  Mg16  1  0.50000000  0.24617500  0.25493800  1
  Mg  Mg17  1  0.50000000  0.75382500  0.25493800  1
  Mg  Mg18  1  0.00000000  0.24990400  0.74840500  1
  Mg  Mg19  1  0.00000000  0.75009600  0.74840500  1
  Mg  Mg20  1  0.50000000  0.24617500  0.74506200  1
  Mg  Mg21  1  0.50000000  0.75382500  0.74506200  1
  Mg  Mg22  1  0.24990400  0.00000000  0.25159500  1
  Mg  Mg23  1  0.24617500  0.50000000  0.25493800  1
  Mg  Mg24  1  0.75009600  0.00000000  0.25159500  1
  Mg  Mg25  1  0.75382500  0.50000000  0.25493800  1
  Mg  Mg26  1  0.24990400  0.00000000  0.74840500  1
  Mg  Mg27  1  0.24617500  0.50000000  0.74506200  1
  Mg  Mg28  1  0.75009600  0.00000000  0.74840500  1
  Mg  Mg29  1  0.75382500  0.50000000  0.74506200  1
  V  V0  1  0.00000000  0.00000000  0.00000000  1
  O  O0  1  0.00000000  0.00000000  0.25412200  1
  O  O1  1  0.00000000  0.50000000  0.24978800  1
  O  O2  1  0.50000000  0.00000000  0.24978800  1
  O  O3  1  0.50000000  0.50000000  0.25658200  1
  O  O4  1  0.00000000  0.00000000  0.74587800  1
  O  O5  1  0.00000000  0.50000000  0.75021200  1
  O  O6  1  0.50000000  0.00000000  0.75021200  1
  O  O7  1  0.50000000  0.50000000  0.74341800  1
  O  O8  1  0.25019800  0.25019800  0.24899700  1
  O  O9  1  0.25019800  0.74980200  0.24899700  1
  O  O10  1  0.74980200  0.25019800  0.24899700  1
  O  O11  1  0.74980200  0.74980200  0.24899700  1
  O  O12  1  0.25019800  0.25019800  0.75100300  1
  O  O13  1  0.25019800  0.74980200  0.75100300  1
  O  O14  1  0.74980200  0.25019800  0.75100300  1
  O  O15  1  0.74980200  0.74980200  0.75100300  1
  O  O16  1  0.00000000  0.25489600  0.00000000  1
  O  O17  1  0.00000000  0.74510400  0.00000000  1
  O  O18  1  0.50000000  0.24856700  0.00000000  1
  O  O19  1  0.50000000  0.75143300  0.00000000  1
  O  O20  1  0.00000000  0.25038300  0.50000000  1
  O  O21  1  0.00000000  0.74961700  0.50000000  1
  O  O22  1  0.50000000  0.24936600  0.50000000  1
  O  O23  1  0.50000000  0.75063400  0.50000000  1
  O  O24  1  0.25489600  0.00000000  0.00000000  1
  O  O25  1  0.24856700  0.50000000  0.00000000  1
  O  O26  1  0.74510400  0.00000000  0.00000000  1
  O  O27  1  0.75143300  0.50000000  0.00000000  1
  O  O28  1  0.25038300  0.00000000  0.50000000  1
  O  O29  1  0.24936600  0.50000000  0.50000000  1
  O  O30  1  0.74961700  0.00000000  0.50000000  1
  O  O31  1  0.75063400  0.50000000  0.50000000  1
loop_
_geom_bond_atom_site_label_1
_geom_bond_atom_site_label_2
_geom_bond_distance
_geom_bond_site_symmetry_2
Hf0 O27 2.160133 1_555
Hf0 O19 2.160133 1_555
Hf0 O25 2.160133 1_555
Hf0 O18 2.160133 1_555
Hf0 O3 2.209468 1_555
Hf0 O7 2.209468 1_554
Mg0 O17 2.105759 1_555
Mg0 O16 2.105759 1_555
Mg0 O25 2.135511 1_555
Mg0 O27 2.135511 1_455
Mg0 O1 2.150964 1_555
Mg0 O5 2.150964 1_554
Mg1 O26 2.105759 1_555
Mg1 O24 2.105759 1_555
Mg1 O18 2.135511 1_555
Mg1 O19 2.135511 1_545
Mg1 O2 2.150964 1_555
Mg1 O6 2.150964 1_554
Mg2 O4 2.117294 1_555
Mg2 O0 2.117294 1_555
Mg2 O20 2.151112 1_555
Mg2 O28 2.151112 1_555
Mg2 O21 2.151112 1_545
Mg2 O30 2.151112 1_455
Mg3 O29 2.142375 1_555
Mg3 O31 2.142375 1_455
Mg3 O21 2.144532 1_555
Mg3 O20 2.144532 1_555
Mg3 O5 2.154615 1_555
Mg3 O1 2.154615 1_555
Mg4 O22 2.142375 1_555
Mg4 O23 2.142375 1_545
Mg4 O30 2.144532 1_555
Mg4 O28 2.144532 1_555
Mg4 O6 2.154615 1_555
Mg4 O2 2.154615 1_555
Mg5 O7 2.096111 1_555
Mg5 O3 2.096111 1_555
Mg5 O31 2.153269 1_555
Mg5 O23 2.153269 1_555
Mg5 O22 2.153269 1_555
Mg5 O29 2.153269 1_555
Mg6 O24 2.107117 1_555
Mg6 O16 2.107117 1_555
Mg6 O12 2.145059 1_554
Mg6 O8 2.145059 1_555
Mg6 O25 2.190427 1_555
Mg6 O18 2.190427 1_555
Mg7 O17 2.107117 1_555
Mg7 O24 2.107117 1_565
Mg7 O13 2.145059 1_554
Mg7 O9 2.145059 1_555
Mg7 O25 2.190427 1_555
Mg7 O19 2.190427 1_555
Mg8 O26 2.107117 1_555
Mg8 O16 2.107117 1_655
Mg8 O14 2.145059 1_554
Mg8 O10 2.145059 1_555
Mg8 O18 2.190427 1_555
Mg8 O27 2.190427 1_555
Mg9 O26 2.107117 1_565
Mg9 O17 2.107117 1_655
Mg9 O15 2.145059 1_554
Mg9 O11 2.145059 1_555
Mg9 O19 2.190427 1_555
Mg9 O27 2.190427 1_555
Mg10 O20 2.140691 1_555
Mg10 O28 2.140691 1_555
Mg10 O22 2.154979 1_555
Mg10 O29 2.154979 1_555
Mg10 O12 2.161463 1_555
Mg10 O8 2.161463 1_555
Mg11 O21 2.140691 1_555
Mg11 O28 2.140691 1_565
Mg11 O23 2.154979 1_555
Mg11 O29 2.154979 1_555
Mg11 O9 2.161463 1_555
Mg11 O13 2.161463 1_555
Mg12 O30 2.140691 1_555
Mg12 O20 2.140691 1_655
Mg12 O22 2.154979 1_555
Mg12 O31 2.154979 1_555
Mg12 O14 2.161463 1_555
Mg12 O10 2.161463 1_555
Mg13 O21 2.140691 1_655
Mg13 O30 2.140691 1_565
Mg13 O23 2.154979 1_555
Mg13 O31 2.154979 1_555
Mg13 O11 2.161463 1_555
Mg13 O15 2.161463 1_555
Mg14 O20 2.139058 1_555
Mg14 O0 2.147108 1_555
Mg14 O1 2.148703 1_555
Mg14 O8 2.149641 1_555
Mg14 O10 2.149641 1_455
Mg14 O16 2.166948 1_555
Mg15 O21 2.139058 1_555
Mg15 O0 2.147108 1_565
Mg15 O1 2.148703 1_555
Mg15 O9 2.149641 1_555
Mg15 O11 2.149641 1_455
Mg15 O17 2.166948 1_555
Mg16 O22 2.110445 1_555
Mg16 O2 2.115425 1_555
Mg16 O10 2.147009 1_555
Mg16 O8 2.147009 1_555
Mg16 O3 2.180730 1_555
Mg16 O18 2.195407 1_555
Mg17 O23 2.110445 1_555
Mg17 O2 2.115425 1_565
Mg17 O11 2.147009 1_555
Mg17 O9 2.147009 1_555
Mg17 O3 2.180730 1_555
Mg17 O19 2.195407 1_555
Mg18 O20 2.139058 1_555
Mg18 O4 2.147108 1_555
Mg18 O5 2.148703 1_555
Mg18 O12 2.149641 1_555
Mg18 O14 2.149641 1_455
Mg18 O16 2.166948 1_556
Mg19 O21 2.139058 1_555
Mg19 O4 2.147108 1_565
Mg19 O5 2.148703 1_555
Mg19 O13 2.149641 1_555
Mg19 O15 2.149641 1_455
Mg19 O17 2.166948 1_556
Mg20 O22 2.110445 1_555
Mg20 O6 2.115425 1_555
Mg20 O14 2.147009 1_555
Mg20 O12 2.147009 1_555
Mg20 O7 2.180730 1_555
Mg20 O18 2.195407 1_556
Mg21 O23 2.110445 1_555
Mg21 O6 2.115425 1_565
Mg21 O15 2.147009 1_555
Mg21 O13 2.147009 1_555
Mg21 O7 2.180730 1_555
Mg21 O19 2.195407 1_556
Mg22 O28 2.139058 1_555
Mg22 O0 2.147108 1_555
Mg22 O2 2.148703 1_555
Mg22 O8 2.149641 1_555
Mg22 O9 2.149641 1_545
Mg22 O24 2.166948 1_555
Mg23 O29 2.110445 1_555
Mg23 O1 2.115425 1_555
Mg23 O9 2.147009 1_555
Mg23 O8 2.147009 1_555
Mg23 O3 2.180730 1_555
Mg23 O25 2.195407 1_555
Mg24 O30 2.139058 1_555
Mg24 O0 2.147108 1_655
Mg24 O2 2.148703 1_555
Mg24 O10 2.149641 1_555
Mg24 O11 2.149641 1_545
Mg24 O26 2.166948 1_555
Mg25 O31 2.110445 1_555
Mg25 O1 2.115425 1_655
Mg25 O11 2.147009 1_555
Mg25 O10 2.147009 1_555
Mg25 O3 2.180730 1_555
Mg25 O27 2.195407 1_555
Mg26 O28 2.139058 1_555
Mg26 O4 2.147108 1_555
Mg26 O6 2.148703 1_555
Mg26 O12 2.149641 1_555
Mg26 O13 2.149641 1_545
Mg26 O24 2.166948 1_556
Mg27 O29 2.110445 1_555
Mg27 O5 2.115425 1_555
Mg27 O13 2.147009 1_555
Mg27 O12 2.147009 1_555
Mg27 O7 2.180730 1_555
Mg27 O25 2.195407 1_556
Mg28 O30 2.139058 1_555
Mg28 O4 2.147108 1_655
Mg28 O6 2.148703 1_555
Mg28 O14 2.149641 1_555
Mg28 O15 2.149641 1_545
Mg28 O26 2.166948 1_556
Mg29 O31 2.110445 1_555
Mg29 O5 2.115425 1_655
Mg29 O15 2.147009 1_555
Mg29 O14 2.147009 1_555
Mg29 O7 2.180730 1_555
Mg29 O27 2.195407 1_556
O0 V0 2.188284 1_555
O4 V0 2.188284 1_556
O16 V0 2.189885 1_555
O17 V0 2.189885 1_565
O24 V0 2.189885 1_555
O26 V0 2.189885 1_655
