# generated using pymatgen
data_K2CaNd4Nb2O12
_symmetry_space_group_name_H-M   'P 1'
_cell_length_a   5.86624606
_cell_length_b   7.15225730
_cell_length_c   9.14678084
_cell_angle_alpha   106.05061899
_cell_angle_beta   89.99319187
_cell_angle_gamma   114.22684509
_symmetry_Int_Tables_number   1
_chemical_formula_structural   K2CaNd4Nb2O12
_chemical_formula_sum   'K2 Ca1 Nd4 Nb2 O12'
_cell_volume   333.50408815
_cell_formula_units_Z   1
loop_
 _symmetry_equiv_pos_site_id
 _symmetry_equiv_pos_as_xyz
  1  'x, y, z'
loop_
 _atom_site_type_symbol
 _atom_site_label
 _atom_site_symmetry_multiplicity
 _atom_site_fract_x
 _atom_site_fract_y
 _atom_site_fract_z
 _atom_site_occupancy
  K  K0  1  0.11743200  0.23500000  0.49019300  1
  K  K1  1  0.88729600  0.77494000  0.50987600  1
  Ca  Ca0  1  0.65167400  0.30231200  0.97917800  1
  Nd  Nd0  1  0.13146500  0.26214300  0.91287300  1
  Nd  Nd1  1  0.56893300  0.13786300  0.23540900  1
  Nd  Nd2  1  0.40293600  0.80590200  0.79360600  1
  Nd  Nd3  1  0.89694000  0.79397800  0.07494700  1
  Nb  Nb0  1  0.66194200  0.32345600  0.68403100  1
  Nb  Nb1  1  0.32656000  0.65254000  0.28846200  1
  O  O0  1  0.99569100  0.53195100  0.84175200  1
  O  O1  1  0.21401300  0.89337300  0.29097800  1
  O  O2  1  0.27029100  0.01496400  0.00254100  1
  O  O3  1  0.77238900  0.09794800  0.72153500  1
  O  O4  1  0.67981900  0.89387000  0.29117000  1
  O  O5  1  0.74467800  0.01479400  0.00260400  1
  O  O6  1  0.32576200  0.09778800  0.72133800  1
  O  O7  1  0.99488200  0.46962500  0.15453200  1
  O  O8  1  0.68166300  0.36285900  0.48952200  1
  O  O9  1  0.31949900  0.63830100  0.49083200  1
  O  O10  1  0.47591400  0.47011700  0.15447300  1
  O  O11  1  0.53646900  0.53183400  0.84157700  1
loop_
_geom_bond_atom_site_label_1
_geom_bond_atom_site_label_2
_geom_bond_distance
_geom_bond_site_symmetry_2
K0 O9 2.628702 1_555
K0 O4 2.874311 1_445
K0 O1 2.878443 1_545
K0 O3 3.008834 1_455
K0 O6 3.009802 1_555
K0 O8 3.048409 1_455
K0 O8 3.051364 1_555
K1 O8 2.637274 1_555
K1 O4 2.828062 1_555
K1 O1 2.829182 1_655
K1 O3 2.888626 1_565
K1 O6 2.888951 1_665
K1 O9 3.051948 1_555
K1 O9 3.058268 1_655
Ca0 O7 2.240587 1_556
Ca0 O10 2.241745 1_556
Ca0 O5 2.395168 1_556
Ca0 O2 2.396672 1_556
Ca0 O0 2.602134 1_555
Ca0 O11 2.605552 1_555
Ca0 O3 2.671300 1_555
Ca0 O6 2.674935 1_555
Nd0 O6 2.389674 1_555
Nd0 O3 2.390250 1_455
Nd0 O2 2.538680 1_556
Nd0 O5 2.541610 1_456
Nd0 O11 2.593207 1_555
Nd0 O0 2.595606 1_455
Nd0 O7 2.625176 1_456
Nd0 O10 2.625956 1_556
Nd1 O4 2.269918 1_545
Nd1 O1 2.270309 1_545
Nd1 O8 2.342660 1_555
Nd1 O5 2.465738 1_555
Nd1 O2 2.465855 1_555
Nd1 O7 2.919843 1_555
Nd1 O10 2.920624 1_555
Nd2 O2 2.422378 1_566
Nd2 O5 2.422607 1_566
Nd2 O0 2.525001 1_455
Nd2 O11 2.526743 1_555
Nd2 O6 2.557143 1_565
Nd2 O3 2.557449 1_565
Nd2 O9 2.651262 1_555
Nd3 O5 2.337890 1_565
Nd3 O2 2.339036 1_665
Nd3 O1 2.451225 1_655
Nd3 O4 2.451340 1_555
Nd3 O11 2.660354 1_554
Nd3 O0 2.660385 1_554
Nd3 O10 2.868925 1_555
Nd3 O7 2.875685 1_555
Nb0 O8 1.873117 1_555
Nb0 O3 2.074253 1_555
Nb0 O6 2.074331 1_555
Nb0 O11 2.133547 1_555
Nb0 O0 2.133796 1_555
Nb1 O9 1.881270 1_555
Nb1 O7 2.005807 1_455
Nb1 O10 2.006410 1_555
Nb1 O1 2.077221 1_555
Nb1 O4 2.077287 1_555
