# generated using pymatgen
data_La6TaGa11O28
_symmetry_space_group_name_H-M   'P 1'
_cell_length_a   8.23742308
_cell_length_b   9.91316585
_cell_length_c   9.92641305
_cell_angle_alpha   63.10505357
_cell_angle_beta   64.22469828
_cell_angle_gamma   63.98673892
_symmetry_Int_Tables_number   1
_chemical_formula_structural   La6TaGa11O28
_chemical_formula_sum   'La6 Ta1 Ga11 O28'
_cell_volume   620.75552517
_cell_formula_units_Z   1
loop_
 _symmetry_equiv_pos_site_id
 _symmetry_equiv_pos_as_xyz
  1  'x, y, z'
loop_
 _atom_site_type_symbol
 _atom_site_label
 _atom_site_symmetry_multiplicity
 _atom_site_fract_x
 _atom_site_fract_y
 _atom_site_fract_z
 _atom_site_occupancy
  La  La0  1  0.00036700  0.28887200  0.29362900  1
  La  La1  1  0.00020800  0.79155300  0.78814000  1
  La  La2  1  0.57599100  0.21959400  0.22479000  1
  La  La3  1  0.58186500  0.71501900  0.70888600  1
  La  La4  1  0.41375600  0.50650800  0.50510100  1
  La  La5  1  0.42854100  0.00366200  0.01200100  1
  Ta  Ta0  1  0.99868700  0.00236500  0.00080000  1
  Ga  Ga0  1  0.78015300  0.71755300  0.25814000  1
  Ga  Ga1  1  0.75991000  0.24945600  0.75010200  1
  Ga  Ga2  1  0.22541700  0.14401800  0.61015600  1
  Ga  Ga3  1  0.23668600  0.63349100  0.12347000  1
  Ga  Ga4  1  0.00042500  0.86963600  0.37657600  1
  Ga  Ga5  1  0.99829200  0.37600200  0.87082500  1
  Ga  Ga6  1  0.33908600  0.92688100  0.39843300  1
  Ga  Ga7  1  0.32916700  0.43460900  0.90239400  1
  Ga  Ga8  1  0.66104700  0.06729600  0.60209600  1
  Ga  Ga9  1  0.67058900  0.56726100  0.09560400  1
  Ga  Ga10  1  0.00114800  0.50074600  0.50218200  1
  O  O0  1  0.67927100  0.23843200  0.42230000  1
  O  O1  1  0.67800400  0.74371000  0.92261900  1
  O  O2  1  0.32151200  0.76110400  0.58156500  1
  O  O3  1  0.32222600  0.26036600  0.07885800  1
  O  O4  1  0.86222900  0.99439100  0.22797900  1
  O  O5  1  0.85486000  0.47757000  0.73411500  1
  O  O6  1  0.14426000  0.66088400  0.40918500  1
  O  O7  1  0.13867100  0.15870200  0.92293300  1
  O  O8  1  0.94507800  0.29265100  0.55689200  1
  O  O9  1  0.92150100  0.81651400  0.04829600  1
  O  O10  1  0.07654700  0.01095100  0.77690900  1
  O  O11  1  0.05480600  0.53016500  0.26312900  1
  O  O12  1  0.55107000  0.89280600  0.22886600  1
  O  O13  1  0.53641300  0.41125500  0.72556200  1
  O  O14  1  0.45347500  0.99992400  0.66802100  1
  O  O15  1  0.46067200  0.49696800  0.17396500  1
  O  O16  1  0.23724000  0.34608300  0.55688700  1
  O  O17  1  0.23086300  0.84595800  0.06531700  1
  O  O18  1  0.76976000  0.67873100  0.46294300  1
  O  O19  1  0.76396100  0.18008400  0.96310300  1
  O  O20  1  0.30839200  0.12130800  0.40849800  1
  O  O21  1  0.30421500  0.62500400  0.91681000  1
  O  O22  1  0.69028100  0.07417000  0.77627100  1
  O  O23  1  0.69148900  0.56134200  0.27805100  1
  O  O24  1  0.14948000  0.00339800  0.30156400  1
  O  O25  1  0.14304900  0.50937000  0.80241200  1
  O  O26  1  0.85255700  0.87614100  0.58121100  1
  O  O27  1  0.85678300  0.37459500  0.07951500  1
loop_
_geom_bond_atom_site_label_1
_geom_bond_atom_site_label_2
_geom_bond_distance
_geom_bond_site_symmetry_2
La0 O8 2.465048 1_455
La0 O11 2.486352 1_555
La0 O27 2.511754 1_455
La0 O24 2.521309 1_555
La0 O0 2.553751 1_455
La0 O3 2.574169 1_555
La0 O20 2.757355 1_555
La0 O23 2.780179 1_455
La1 O10 2.461202 1_565
La1 O26 2.474158 1_455
La1 O25 2.475663 1_555
La1 O9 2.476233 1_456
La1 O2 2.537755 1_555
La1 O1 2.549781 1_455
La1 O21 2.806352 1_555
La1 O22 2.840748 1_465
La2 O15 2.363923 1_555
La2 O20 2.431934 1_555
La2 O4 2.434788 1_545
La2 O19 2.487776 1_554
La2 O0 2.554152 1_555
La2 O3 2.827379 1_555
La2 O27 2.828865 1_555
La3 O18 2.346282 1_555
La3 O5 2.444135 1_555
La3 O14 2.444655 1_555
La3 O21 2.511102 1_555
La3 O2 2.716792 1_555
La3 O1 2.722862 1_555
La3 O26 2.822110 1_555
La3 O13 3.117589 1_555
La4 O16 2.355051 1_555
La4 O6 2.390954 1_555
La4 O13 2.432720 1_555
La4 O23 2.471287 1_555
La4 O2 2.659446 1_555
La4 O0 2.799246 1_555
La4 O25 2.824885 1_555
La4 O15 3.179155 1_555
La5 O12 2.374219 1_545
La5 O22 2.463145 1_554
La5 O17 2.471970 1_545
La5 O7 2.496583 1_554
La5 O3 2.598220 1_555
La5 O1 2.736519 1_544
La5 O24 2.792512 1_555
Ga0 O18 1.859588 1_555
Ga0 O23 1.886826 1_555
Ga0 O9 1.923769 1_555
Ga0 O12 1.951448 1_555
Ga0 O11 2.213489 1_655
Ga1 O13 1.862191 1_555
Ga1 O8 1.863858 1_555
Ga1 O19 1.915781 1_555
Ga1 O22 1.937038 1_555
Ga2 O16 1.862683 1_555
Ga2 O20 1.899384 1_555
Ga2 O10 1.913621 1_555
Ga2 O14 1.934383 1_545
Ga2 O8 2.270627 1_455
Ga3 O11 1.863002 1_555
Ga3 O15 1.867454 1_555
Ga3 O17 1.899258 1_555
Ga3 O21 1.909817 1_554
Ga4 O6 1.835163 1_555
Ga4 O26 1.873972 1_455
Ga4 O24 1.886803 1_565
Ga4 O4 1.891071 1_455
Ga5 O5 1.834686 1_555
Ga5 O25 1.870110 1_655
Ga5 O27 1.881045 1_556
Ga5 O7 1.890018 1_655
Ga6 O2 1.817490 1_555
Ga6 O12 1.853991 1_555
Ga6 O20 1.874439 1_565
Ga6 O24 1.883203 1_565
Ga7 O3 1.821353 1_556
Ga7 O13 1.861183 1_555
Ga7 O21 1.871779 1_555
Ga7 O25 1.883063 1_555
Ga8 O0 1.826748 1_555
Ga8 O14 1.852312 1_545
Ga8 O22 1.880138 1_555
Ga8 O26 1.889791 1_545
Ga9 O1 1.815762 1_554
Ga9 O15 1.864791 1_555
Ga9 O23 1.865242 1_555
Ga9 O27 1.875943 1_555
Ga10 O18 1.992941 1_455
Ga10 O16 1.994375 1_555
Ga10 O6 2.032557 1_555
Ga10 O5 2.038833 1_455
Ga10 O8 2.089925 1_455
Ga10 O11 2.118034 1_555
O4 Ta0 2.016747 1_565
O7 Ta0 2.009383 1_456
O9 Ta0 2.000459 1_565
O10 Ta0 1.998728 1_456
O17 Ta0 2.009406 1_465
O19 Ta0 2.006793 1_556
