# generated using pymatgen
data_Li7V3P8O29
_symmetry_space_group_name_H-M   'P 1'
_cell_length_a   9.83785727
_cell_length_b   9.86905837
_cell_length_c   13.94750286
_cell_angle_alpha   90.68236979
_cell_angle_beta   90.76021792
_cell_angle_gamma   60.24909400
_symmetry_Int_Tables_number   1
_chemical_formula_structural   Li7V3P8O29
_chemical_formula_sum   'Li14 V6 P16 O58'
_cell_volume   1175.55121982
_cell_formula_units_Z   2
loop_
 _symmetry_equiv_pos_site_id
 _symmetry_equiv_pos_as_xyz
  1  'x, y, z'
loop_
 _atom_site_type_symbol
 _atom_site_label
 _atom_site_symmetry_multiplicity
 _atom_site_fract_x
 _atom_site_fract_y
 _atom_site_fract_z
 _atom_site_occupancy
  Li  Li0  1  0.90807300  0.32351500  0.56261900  1
  Li  Li1  1  0.67783700  0.67610700  0.38971500  1
  Li  Li2  1  0.66990700  0.68135300  0.88803800  1
  Li  Li3  1  0.76562800  0.31737600  0.06387900  1
  Li  Li4  1  0.32140200  0.90887400  0.06433400  1
  Li  Li5  1  0.65816600  0.23925300  0.44116300  1
  Li  Li6  1  0.31613800  0.76879200  0.56404900  1
  Li  Li7  1  0.66857400  0.10133600  0.93411500  1
  Li  Li8  1  0.24235700  0.65482200  0.94090700  1
  Li  Li9  1  0.10273400  0.66601600  0.43516600  1
  Li  Li10  1  0.23096900  0.09571000  0.44185000  1
  Li  Li11  1  0.09469900  0.22858000  0.94469800  1
  Li  Li12  1  0.99169700  0.93218800  0.01559800  1
  Li  Li13  1  0.93414300  0.99161300  0.51815900  1
  V  V0  1  0.56284900  0.43593000  0.25010500  1
  V  V1  1  0.43751700  0.56351200  0.74928600  1
  V  V2  1  0.56729900  0.99798700  0.74650100  1
  V  V3  1  0.43814600  0.00052400  0.24869700  1
  V  V4  1  0.99721600  0.56664200  0.24654900  1
  V  V5  1  0.00244600  0.43892400  0.74858400  1
  P  P0  1  0.91619500  0.78100100  0.83743100  1
  P  P1  1  0.78318700  0.91387300  0.33709200  1
  P  P2  1  0.90874800  0.32002200  0.34393000  1
  P  P3  1  0.66441400  0.66153300  0.12893500  1
  P  P4  1  0.66833500  0.66084900  0.62962800  1
  P  P5  1  0.77502300  0.32300200  0.84284400  1
  P  P6  1  0.68843100  0.22663100  0.65866000  1
  P  P7  1  0.31949000  0.90766700  0.84413600  1
  P  P8  1  0.68746300  0.08535300  0.15079500  1
  P  P9  1  0.32295400  0.77254700  0.34410900  1
  P  P10  1  0.22572200  0.68763700  0.15960400  1
  P  P11  1  0.33082100  0.33637200  0.37031200  1
  P  P12  1  0.33310200  0.33669400  0.87067600  1
  P  P13  1  0.08390800  0.68865200  0.65137100  1
  P  P14  1  0.22456600  0.08598400  0.65889800  1
  P  P15  1  0.08349900  0.22761900  0.15883600  1
  O  O0  1  0.01345000  0.77261700  0.55875000  1
  O  O1  1  0.92565400  0.74673400  0.34144000  1
  O  O2  1  0.77530300  0.01748300  0.05873100  1
  O  O3  1  0.75067700  0.92097900  0.84436000  1
  O  O4  1  0.90437200  0.62894600  0.82939000  1
  O  O5  1  0.81088700  0.66471900  0.17405400  1
  O  O6  1  0.89157000  0.48378800  0.33027600  1
  O  O7  1  0.99166500  0.23082300  0.07001600  1
  O  O8  1  0.92194200  0.34106000  0.84743300  1
  O  O9  1  0.67596200  0.80191100  0.66852400  1
  O  O10  1  0.63414100  0.89906700  0.33391100  1
  O  O11  1  0.81269900  0.50806600  0.67370900  1
  O  O12  1  0.66735000  0.65424700  0.02141200  1
  O  O13  1  0.67218800  0.64157800  0.52220700  1
  O  O14  1  0.67409000  0.50774600  0.16930300  1
  O  O15  1  0.48380200  0.88748900  0.83229600  1
  O  O16  1  0.51307800  0.80510000  0.16650000  1
  O  O17  1  0.74384500  0.33788600  0.34572600  1
  O  O18  1  0.79703500  0.21662800  0.75012900  1
  O  O19  1  0.77838100  0.22184400  0.56896300  1
  O  O20  1  0.76038200  0.24240800  0.93001100  1
  O  O21  1  0.62911500  0.48743700  0.82761600  1
  O  O22  1  0.51228500  0.66940600  0.66802100  1
  O  O23  1  0.66503900  0.25181200  0.16364300  1
  O  O24  1  0.48786000  0.62770900  0.32732600  1
  O  O25  1  0.33827800  0.91940800  0.34881600  1
  O  O26  1  0.80219600  0.98306700  0.23725200  1
  O  O27  1  0.78876600  0.01627400  0.41616200  1
  O  O28  1  0.21726400  0.99822800  0.57036400  1
  O  O29  1  0.66710600  0.08595500  0.66242200  1
  O  O30  1  0.53446800  0.38328800  0.66860500  1
  O  O31  1  0.33530000  0.74339800  0.84424300  1
  O  O32  1  0.47881300  0.33976400  0.32575400  1
  O  O33  1  0.38331400  0.53495400  0.16646000  1
  O  O34  1  0.21490500  0.78017200  0.07022100  1
  O  O35  1  0.24429200  0.75397600  0.43112300  1
  O  O36  1  0.21470600  0.79424200  0.25130100  1
  O  O37  1  0.25160300  0.66294500  0.66196500  1
  O  O38  1  0.48285700  0.18794300  0.83919300  1
  O  O39  1  0.53344300  0.08572700  0.16013200  1
  O  O40  1  0.33639800  0.48393800  0.82805900  1
  O  O41  1  0.30678500  0.35896200  0.97624300  1
  O  O42  1  0.34559700  0.33691000  0.47682400  1
  O  O43  1  0.17992900  0.48726700  0.33236300  1
  O  O44  1  0.37336500  0.09508300  0.66870100  1
  O  O45  1  0.32618900  0.19243300  0.32930000  1
  O  O46  1  0.08622500  0.66158500  0.16462300  1
  O  O47  1  0.98534200  0.80219000  0.73805700  1
  O  O48  1  0.02107200  0.77897000  0.91728800  1
  O  O49  1  0.08085900  0.53498900  0.66259800  1
  O  O50  1  0.18624100  0.33566900  0.82083300  1
  O  O51  1  0.09036500  0.37941900  0.17125600  1
  O  O52  1  0.24546000  0.08174100  0.15883100  1
  O  O53  1  0.23516300  0.99949800  0.93304600  1
  O  O54  1  0.21106100  0.99580100  0.75241000  1
  O  O55  1  0.07682900  0.24983000  0.66163700  1
  O  O56  1  0.00189200  0.23875800  0.43279800  1
  O  O57  1  0.99431600  0.21284100  0.25199400  1
loop_
_geom_bond_atom_site_label_1
_geom_bond_atom_site_label_2
_geom_bond_distance
_geom_bond_site_symmetry_2
Li0 O19 1.979449 1_555
Li0 O55 1.989289 1_655
Li0 O56 2.017964 1_655
Li0 O11 2.207647 1_555
Li1 O13 1.889599 1_555
Li1 O10 2.173825 1_555
Li1 O6 2.181498 1_555
Li1 O24 2.304623 1_555
Li2 O12 1.884792 1_556
Li2 O15 2.097263 1_555
Li2 O4 2.261228 1_555
Li2 O21 2.290979 1_555
Li3 O7 1.947672 1_555
Li3 O23 2.006882 1_555
Li3 O20 2.009639 1_554
Li3 O14 2.189297 1_555
Li4 O52 1.978239 1_565
Li4 O34 2.010781 1_555
Li4 O53 2.029158 1_554
Li4 O16 2.163790 1_555
Li5 O27 1.950007 1_555
Li5 O17 2.074801 1_555
Li5 O19 2.086904 1_555
Li5 O32 2.216730 1_555
Li6 O28 1.972983 1_555
Li6 O35 2.004885 1_555
Li6 O37 2.018559 1_555
Li6 O22 2.206761 1_555
Li7 O2 1.982853 1_556
Li7 O3 1.983605 1_545
Li7 O20 2.002161 1_555
Li7 O38 2.057760 1_555
Li8 O48 1.921539 1_555
Li8 O31 2.066874 1_555
Li8 O34 2.117669 1_556
Li8 O40 2.145769 1_555
Li9 O35 1.974641 1_555
Li9 O0 1.982247 1_555
Li9 O1 1.991335 1_455
Li9 O43 2.093726 1_555
Li10 O56 1.981650 1_555
Li10 O25 1.996294 1_545
Li10 O28 2.081544 1_545
Li10 O45 2.283666 1_555
Li11 O53 1.985924 1_545
Li11 O8 2.015791 1_455
Li11 O7 2.026531 1_456
Li11 O50 2.437627 1_555
Li12 O48 1.943601 1_654
Li12 O2 1.961106 1_565
Li12 O34 2.089591 1_655
Li13 O27 1.933210 1_565
Li13 O0 1.986020 1_655
Li13 O19 2.132580 1_565
O0 P13 1.505870 1_555
O1 P1 1.547451 1_555
O1 V4 2.032993 1_555
O2 P8 1.509548 1_555
O3 P0 1.528963 1_555
O3 V2 2.072133 1_555
O4 P0 1.564257 1_555
O4 V5 1.975041 1_655
O5 P3 1.579196 1_555
O5 V4 1.879534 1_555
O6 P2 1.553186 1_555
O6 V4 2.002732 1_555
O7 P15 1.514850 1_655
O8 P5 1.542033 1_555
O8 V5 2.068988 1_655
O9 P4 1.524014 1_555
O9 V2 1.999468 1_555
O10 P1 1.544052 1_555
O10 V3 2.045591 1_565
O11 P4 1.594425 1_555
O11 V5 1.934394 1_655
O12 P3 1.500519 1_555
O13 P4 1.506632 1_555
O14 P3 1.582759 1_555
O14 V0 1.947212 1_555
O15 P7 1.538425 1_555
O15 V2 2.059629 1_555
O16 P3 1.551799 1_555
O16 V3 2.033760 1_565
O17 P2 1.542939 1_555
O17 V0 2.035512 1_555
O18 P5 1.603337 1_555
O18 P6 1.625119 1_555
O19 P6 1.528695 1_555
O20 P5 1.507595 1_555
O21 P5 1.557992 1_555
O21 V1 1.967371 1_555
O22 P4 1.594609 1_555
O22 V1 1.931624 1_555
O23 P8 1.553677 1_555
O23 V0 1.983355 1_555
O24 P9 1.559028 1_555
O24 V0 1.968061 1_555
O25 P9 1.530380 1_555
O25 V3 2.097552 1_565
O26 P1 1.611430 1_555
O26 P8 1.615301 1_565
O27 P1 1.505807 1_545
O28 P14 1.521169 1_565
O29 P6 1.505107 1_555
O29 V2 1.998456 1_545
O30 P6 1.542760 1_555
O30 V1 1.907020 1_555
O31 P7 1.549909 1_555
O31 V1 2.030901 1_555
O32 P11 1.606219 1_555
O32 V0 1.877018 1_555
O33 P10 1.537629 1_555
O33 V0 1.922266 1_555
O34 P10 1.525337 1_555
O35 P9 1.508753 1_555
O36 P9 1.612210 1_555
O36 P10 1.616418 1_555
O37 P13 1.544971 1_555
O37 V1 1.994887 1_555
O38 P12 1.540704 1_555
O38 V2 2.073911 1_545
O39 P8 1.520710 1_555
O39 V3 1.987395 1_555
O40 P12 1.591818 1_555
O40 V1 1.907447 1_555
O41 P12 1.493056 1_555
O42 P11 1.490954 1_555
O43 P11 1.582846 1_555
O43 V4 1.960865 1_455
O44 P14 1.514765 1_555
O44 V2 1.972601 1_545
O45 P11 1.546421 1_555
O45 V3 1.993963 1_555
O46 P10 1.519051 1_555
O46 V4 1.953658 1_455
O47 P13 1.605656 1_655
O47 P0 1.612648 1_555
O48 P0 1.501671 1_455
O49 P13 1.541475 1_555
O49 V5 1.926056 1_555
O50 P12 1.599534 1_555
O50 V5 1.862985 1_555
O51 P15 1.540416 1_555
O51 V4 1.911934 1_455
O52 P15 1.528012 1_555
O52 V3 2.063924 1_555
O53 P7 1.517139 1_555
O54 P7 1.612643 1_555
O54 P14 1.631099 1_565
O55 P14 1.547942 1_555
O55 V5 2.025603 1_555
O56 P2 1.511086 1_455
O57 P2 1.607598 1_555
O57 P15 1.625129 1_655
