# generated using pymatgen
data_Gd2TeO2
_symmetry_space_group_name_H-M   'P 1'
_cell_length_a   3.96724384
_cell_length_b   3.96724542
_cell_length_c   6.89753697
_cell_angle_alpha   106.71337411
_cell_angle_beta   106.71338204
_cell_angle_gamma   90.00000218
_symmetry_Int_Tables_number   1
_chemical_formula_structural   Gd2TeO2
_chemical_formula_sum   'Gd2 Te1 O2'
_cell_volume   99.17649820
_cell_formula_units_Z   1
loop_
 _symmetry_equiv_pos_site_id
 _symmetry_equiv_pos_as_xyz
  1  'x, y, z'
loop_
 _atom_site_type_symbol
 _atom_site_label
 _atom_site_symmetry_multiplicity
 _atom_site_fract_x
 _atom_site_fract_y
 _atom_site_fract_z
 _atom_site_occupancy
  Gd  Gd0  1  0.66095973  0.66095973  0.32192145  1
  Gd  Gd1  1  0.33904027  0.33904027  0.67807855  1
  Te  Te0  1  -0.00000000  -0.00000000  0.00000000  1
  O  O0  1  0.25000000  0.75000000  0.50000000  1
  O  O1  1  0.75000000  0.25000000  0.50000000  1
loop_
_geom_bond_atom_site_label_1
_geom_bond_atom_site_label_2
_geom_bond_distance
_geom_bond_site_symmetry_2
Gd0 O0 2.279016 1_555
Gd0 O1 2.279016 1_555
Gd0 O0 2.279022 1_655
Gd0 O1 2.279023 1_565
Gd0 Te0 3.461850 1_555
Gd0 Te0 3.461854 1_565
Gd0 Te0 3.461855 1_655
Gd0 Te0 3.461859 1_665
Gd1 O1 2.279016 1_555
Gd1 O0 2.279016 1_555
Gd1 O1 2.279022 1_455
Gd1 O0 2.279023 1_545
Gd1 Te0 3.461850 1_666
Gd1 Te0 3.461854 1_656
Gd1 Te0 3.461855 1_566
Gd1 Te0 3.461859 1_556
