# generated using pymatgen
data_Ca9Y3(CoO6)4
_symmetry_space_group_name_H-M   'P 1'
_cell_length_a   6.35896400
_cell_length_b   6.36598324
_cell_length_c   12.65530601
_cell_angle_alpha   88.25504005
_cell_angle_beta   88.88132776
_cell_angle_gamma   88.97722323
_symmetry_Int_Tables_number   1
_chemical_formula_structural   Ca9Y3(CoO6)4
_chemical_formula_sum   'Ca9 Y3 Co4 O24'
_cell_volume   511.88869067
_cell_formula_units_Z   1
loop_
 _symmetry_equiv_pos_site_id
 _symmetry_equiv_pos_as_xyz
  1  'x, y, z'
loop_
 _atom_site_type_symbol
 _atom_site_label
 _atom_site_symmetry_multiplicity
 _atom_site_fract_x
 _atom_site_fract_y
 _atom_site_fract_z
 _atom_site_occupancy
  Ca  Ca0  1  0.89561100  0.25051700  0.80251700  1
  Ca  Ca1  1  0.24904700  0.60572600  0.44691700  1
  Ca  Ca2  1  0.24485400  0.60772800  0.94661000  1
  Ca  Ca3  1  0.10663600  0.75055800  0.19805300  1
  Ca  Ca4  1  0.10577300  0.74733100  0.69859900  1
  Ca  Ca5  1  0.75225100  0.39488600  0.05098900  1
  Ca  Ca6  1  0.75294200  0.39387300  0.55364600  1
  Ca  Ca7  1  0.39279700  0.10308900  0.37534200  1
  Ca  Ca8  1  0.39400800  0.10502200  0.87395600  1
  Y  Y0  1  0.60740400  0.89428200  0.12580700  1
  Y  Y1  1  0.60482300  0.89444000  0.62509800  1
  Y  Y2  1  0.89339300  0.25241200  0.30252700  1
  Co  Co0  1  0.49553300  0.49656600  0.24887800  1
  Co  Co1  1  0.49787700  0.49805300  0.74931600  1
  Co  Co2  1  0.00304800  0.00260600  0.00094200  1
  Co  Co3  1  0.00154200  0.00197000  0.50157900  1
  O  O0  1  0.57180400  0.20726600  0.21552700  1
  O  O1  1  0.57058900  0.21224900  0.71111700  1
  O  O2  1  0.21430500  0.42596700  0.28162900  1
  O  O3  1  0.22104600  0.42700900  0.78302100  1
  O  O4  1  0.43775200  0.56357300  0.11066100  1
  O  O5  1  0.43705300  0.56705600  0.61021400  1
  O  O6  1  0.05994700  0.93721700  0.36225000  1
  O  O7  1  0.06377500  0.92688800  0.86331400  1
  O  O8  1  0.92125600  0.72887600  0.03552200  1
  O  O9  1  0.92010200  0.72430600  0.53315400  1
  O  O10  1  0.71749500  0.06945200  0.46464700  1
  O  O11  1  0.71765100  0.06864600  0.96883200  1
  O  O12  1  0.43439100  0.78156800  0.28191500  1
  O  O13  1  0.43343700  0.78505900  0.78101600  1
  O  O14  1  0.78128700  0.56757400  0.21613100  1
  O  O15  1  0.77728700  0.58207500  0.71559800  1
  O  O16  1  0.57671200  0.43315100  0.38370100  1
  O  O17  1  0.57228700  0.43995600  0.88431400  1
  O  O18  1  0.93150300  0.06772600  0.14656300  1
  O  O19  1  0.93223400  0.06455900  0.63888900  1
  O  O20  1  0.06560900  0.28290100  0.46459600  1
  O  O21  1  0.07130500  0.27583600  0.97044400  1
  O  O22  1  0.28728700  0.93037200  0.03820400  1
  O  O23  1  0.28634800  0.93165800  0.53796500  1
loop_
_geom_bond_atom_site_label_1
_geom_bond_atom_site_label_2
_geom_bond_distance
_geom_bond_site_symmetry_2
Ca0 O3 2.377384 1_655
Ca0 O1 2.407789 1_555
Ca0 O7 2.415972 1_645
Ca0 O19 2.421633 1_555
Ca0 O21 2.431156 1_655
Ca0 O15 2.462794 1_555
Ca0 O17 2.580211 1_555
Ca0 O11 2.618490 1_555
Ca1 O20 2.383598 1_555
Ca1 O5 2.411552 1_555
Ca1 O23 2.421338 1_555
Ca1 O2 2.430366 1_555
Ca1 O9 2.457840 1_455
Ca1 O16 2.468830 1_555
Ca1 O12 2.609824 1_555
Ca1 O6 2.620931 1_555
Ca2 O3 2.407485 1_555
Ca2 O21 2.409218 1_555
Ca2 O22 2.410835 1_556
Ca2 O4 2.438335 1_556
Ca2 O8 2.449693 1_456
Ca2 O17 2.450574 1_555
Ca2 O7 2.529548 1_555
Ca2 O13 2.628743 1_555
Ca3 O18 2.368439 1_465
Ca3 O12 2.371278 1_555
Ca3 O2 2.387862 1_555
Ca3 O14 2.396011 1_455
Ca3 O8 2.399418 1_455
Ca3 O6 2.435519 1_555
Ca3 O22 2.556837 1_555
Ca3 O4 2.640687 1_555
Ca4 O15 2.358676 1_455
Ca4 O13 2.367476 1_555
Ca4 O3 2.383588 1_555
Ca4 O19 2.393135 1_465
Ca4 O7 2.415698 1_555
Ca4 O9 2.433247 1_455
Ca4 O23 2.576761 1_555
Ca4 O5 2.627888 1_555
Ca5 O11 2.366313 1_554
Ca5 O4 2.374184 1_555
Ca5 O21 2.375086 1_654
Ca5 O8 2.400400 1_555
Ca5 O14 2.402629 1_555
Ca5 O17 2.426284 1_554
Ca5 O0 2.623598 1_555
Ca5 O18 2.629733 1_555
Ca6 O20 2.373402 1_655
Ca6 O9 2.378619 1_555
Ca6 O5 2.382392 1_555
Ca6 O10 2.398514 1_555
Ca6 O15 2.414251 1_555
Ca6 O16 2.448519 1_555
Ca6 O1 2.543656 1_555
Ca6 O19 2.585247 1_555
Ca7 O10 2.376325 1_555
Ca7 O0 2.383580 1_555
Ca7 O23 2.391638 1_545
Ca7 O6 2.393012 1_545
Ca7 O12 2.402733 1_545
Ca7 O16 2.428981 1_555
Ca7 O2 2.596234 1_555
Ca7 O20 2.610920 1_555
Ca8 O13 2.389834 1_545
Ca8 O11 2.406930 1_555
Ca8 O7 2.412300 1_545
Ca8 O1 2.413490 1_555
Ca8 O22 2.418349 1_546
Ca8 O17 2.440843 1_555
Ca8 O3 2.561419 1_555
Ca8 O21 2.605338 1_555
Co0 O16 1.823640 1_555
Co0 O4 1.830477 1_555
Co0 O2 1.886867 1_555
Co0 O12 1.905881 1_555
Co0 O14 1.914796 1_555
Co0 O0 1.952591 1_555
Co1 O17 1.807286 1_555
Co1 O5 1.847949 1_555
Co1 O3 1.863519 1_555
Co1 O15 1.901440 1_555
Co1 O13 1.917955 1_555
Co1 O1 1.942316 1_555
Co2 O21 1.828201 1_554
Co2 O7 1.852914 1_544
Co2 O8 1.864289 1_445
Co2 O11 1.904372 1_454
Co2 O22 1.921239 1_545
Co2 O18 1.944760 1_455
Co3 O19 1.838094 1_455
Co3 O6 1.852064 1_545
Co3 O9 1.879860 1_445
Co3 O20 1.884409 1_555
Co3 O10 1.912734 1_455
Co3 O23 1.919228 1_545
O0 Y0 2.328509 1_545
O0 Y2 2.367468 1_555
O1 Y1 2.331264 1_545
O2 Y2 2.344479 1_455
O4 Y0 2.397195 1_555
O5 Y1 2.372409 1_555
O6 Y2 2.362656 1_465
O8 Y0 2.511288 1_555
O9 Y1 2.540574 1_555
O10 Y1 2.389913 1_545
O10 Y2 2.574575 1_555
O11 Y0 2.347154 1_546
O12 Y0 2.342054 1_555
O13 Y1 2.329277 1_555
O14 Y2 2.361087 1_555
O14 Y0 2.584056 1_555
O15 Y1 2.510204 1_555
O16 Y2 2.518507 1_555
O18 Y2 2.334368 1_555
O18 Y0 2.378153 1_545
O19 Y1 2.375750 1_545
O20 Y2 2.358648 1_455
O22 Y0 2.341261 1_555
O23 Y1 2.329709 1_555
