# generated using pymatgen
data_Ba3(H6Ir)2
_symmetry_space_group_name_H-M   'P 1'
_cell_length_a   7.77080087
_cell_length_b   8.06713985
_cell_length_c   5.30447108
_cell_angle_alpha   90.00000243
_cell_angle_beta   83.59215994
_cell_angle_gamma   121.26972523
_symmetry_Int_Tables_number   1
_chemical_formula_structural   Ba3(H6Ir)2
_chemical_formula_sum   'Ba3 H12 Ir2'
_cell_volume   281.78892174
_cell_formula_units_Z   1
loop_
 _symmetry_equiv_pos_site_id
 _symmetry_equiv_pos_as_xyz
  1  'x, y, z'
loop_
 _atom_site_type_symbol
 _atom_site_label
 _atom_site_symmetry_multiplicity
 _atom_site_fract_x
 _atom_site_fract_y
 _atom_site_fract_z
 _atom_site_occupancy
  Ba  Ba0  1  0.00000000  0.00000000  0.00000000  1
  Ba  Ba1  1  0.57433800  0.28716900  0.28901700  1
  Ba  Ba2  1  0.42566200  0.71283100  0.71098300  1
  H  H0  1  0.61279400  0.67389500  0.19513400  1
  H  H1  1  0.61279400  0.93889900  0.19513400  1
  H  H2  1  0.19185000  0.09592500  0.39036800  1
  H  H3  1  0.38720600  0.32610500  0.80486600  1
  H  H4  1  0.38720600  0.06110100  0.80486600  1
  H  H5  1  0.80815000  0.90407500  0.60963200  1
  H  H6  1  0.68078100  0.15271700  0.77108300  1
  H  H7  1  0.68078100  0.52806400  0.77108300  1
  H  H8  1  0.82854000  0.41427000  0.76666000  1
  H  H9  1  0.31921900  0.84728300  0.22891700  1
  H  H10  1  0.31921900  0.47193600  0.22891700  1
  H  H11  1  0.17146000  0.58573000  0.23334000  1
  Ir  Ir0  1  0.58113000  0.29056500  0.78697800  1
  Ir  Ir1  1  0.41887000  0.70943500  0.21302200  1
loop_
_geom_bond_atom_site_label_1
_geom_bond_atom_site_label_2
_geom_bond_distance
_geom_bond_site_symmetry_2
Ba0 H2 2.569159 1_555
Ba0 H5 2.569159 1_444
Ba0 H3 2.851839 1_554
Ba0 H0 2.851839 1_445
Ba0 H1 2.851839 1_445
Ba0 H4 2.851839 1_554
Ba1 H2 2.527123 1_555
Ba1 Ir0 2.647688 1_555
Ba1 Ir0 2.657537 1_554
Ba1 H0 3.011515 1_555
Ba1 H1 3.011515 1_545
Ba2 H5 2.527123 1_555
Ba2 Ir1 2.647688 1_555
Ba2 Ir1 2.657537 1_556
Ba2 H3 3.011515 1_555
Ba2 H4 3.011515 1_565
H0 Ir1 1.666942 1_555
H1 Ir1 1.666942 1_555
H3 Ir0 1.666942 1_555
H4 Ir0 1.666942 1_555
H6 Ir0 1.650085 1_555
H7 Ir0 1.650084 1_555
H8 Ir0 1.632715 1_555
H9 Ir1 1.650085 1_555
H10 Ir1 1.650084 1_555
H11 Ir1 1.632715 1_555
