# generated using pymatgen
data_Sr2MgZn2Sn2(PO4)4
_symmetry_space_group_name_H-M   'P 1'
_cell_length_a   5.56800446
_cell_length_b   7.75469310
_cell_length_c   10.10186836
_cell_angle_alpha   112.66910609
_cell_angle_beta   96.09810579
_cell_angle_gamma   91.71471193
_symmetry_Int_Tables_number   1
_chemical_formula_structural   Sr2MgZn2Sn2(PO4)4
_chemical_formula_sum   'Sr2 Mg1 Zn2 Sn2 P4 O16'
_cell_volume   399.01057177
_cell_formula_units_Z   1
loop_
 _symmetry_equiv_pos_site_id
 _symmetry_equiv_pos_as_xyz
  1  'x, y, z'
loop_
 _atom_site_type_symbol
 _atom_site_label
 _atom_site_symmetry_multiplicity
 _atom_site_fract_x
 _atom_site_fract_y
 _atom_site_fract_z
 _atom_site_occupancy
  Sr  Sr0  1  0.22383848  0.85998191  0.07451172  1
  Sr  Sr1  1  0.78871132  0.19358177  0.96702074  1
  Mg  Mg0  1  0.22649679  0.69664039  0.73733585  1
  Zn  Zn0  1  0.00122938  0.30044577  0.59632810  1
  Zn  Zn1  1  0.91072105  0.63058701  0.33584322  1
  Sn  Sn0  1  0.54022497  0.82861899  0.49419740  1
  Sn  Sn1  1  0.40829029  0.20426227  0.49567480  1
  P  P0  1  0.36009773  0.39749216  0.23667774  1
  P  P1  1  0.69029053  0.61640477  0.76905670  1
  P  P2  1  0.78337198  0.95740720  0.25582837  1
  P  P3  1  0.21207284  0.04877779  0.74941189  1
  O  O0  1  0.95299619  0.63934314  0.84342301  1
  O  O1  1  0.62982140  0.43778128  0.21753192  1
  O  O2  1  0.62970368  0.77476987  0.71618445  1
  O  O3  1  0.98934088  0.15794164  0.73336327  1
  O  O4  1  0.48411383  0.60807463  0.85738279  1
  O  O5  1  0.19778880  0.85456663  0.61025841  1
  O  O6  1  0.80366279  0.13522278  0.39952661  1
  O  O7  1  0.18717658  0.97700101  0.87290129  1
  O  O8  1  0.34554361  0.22630098  0.28296060  1
  O  O9  1  0.80588519  0.00418157  0.12215070  1
  O  O10  1  0.18659863  0.35935753  0.10011749  1
  O  O11  1  0.27209621  0.57386454  0.36332504  1
  O  O12  1  0.68676092  0.42529079  0.62910468  1
  O  O13  1  0.54361644  0.84350965  0.24172187  1
  O  O14  1  0.99557621  0.83042692  0.26532302  1
  O  O15  1  0.45349726  0.15890701  0.77033833  1
loop_
_geom_bond_atom_site_label_1
_geom_bond_atom_site_label_2
_geom_bond_distance
_geom_bond_site_symmetry_2
Mg0 O4 2.081165 1_555
Mg0 O0 2.082855 1_455
Mg0 O5 2.086444 1_555
Mg0 O7 2.108863 1_555
Mg0 O2 2.360788 1_555
Sn1 Zn0 2.594899 1_555
O0 P1 1.543886 1_555
O0 Sr0 2.582652 1_656
O1 P0 1.571846 1_555
O1 Zn1 2.048323 1_555
O1 Sr1 2.766741 1_554
O2 P1 1.548983 1_555
O2 Sn0 2.438898 1_555
O3 P3 1.551395 1_655
O3 Zn0 2.082344 1_655
O3 Sr1 2.640367 1_555
O4 P1 1.541364 1_555
O4 Sr0 2.875641 1_556
O5 P3 1.608643 1_565
O5 Sn0 2.316594 1_555
O6 P2 1.560216 1_545
O6 Zn0 2.071638 1_655
O6 Sn1 2.490045 1_555
O7 P3 1.566065 1_565
O7 Sr0 2.521979 1_556
O7 Sr1 2.843853 1_465
O8 P0 1.570846 1_555
O8 Sn1 2.212646 1_555
O8 Sr0 2.816671 1_545
O9 P2 1.543259 1_545
O9 Sr1 2.524457 1_554
O9 Sr0 2.622326 1_645
O10 P0 1.519557 1_555
O10 Sr1 2.496580 1_454
O11 P0 1.603758 1_555
O11 Zn1 2.085106 1_455
O11 Sn0 2.295739 1_555
O12 P1 1.604013 1_555
O12 Zn0 2.022453 1_655
O12 Sn1 2.185147 1_555
O13 P2 1.540954 1_555
O13 Sr0 2.362350 1_555
O13 Sn0 2.599178 1_555
O14 P2 1.579000 1_555
O14 Zn1 2.002735 1_555
O14 Sr0 2.495381 1_655
O15 P3 1.520793 1_555
O15 Sr1 2.504774 1_555
