# generated using pymatgen
data_SmSbPd
_symmetry_space_group_name_H-M   'P 1'
_cell_length_a   4.95432671
_cell_length_b   4.95432671
_cell_length_c   6.94928600
_cell_angle_alpha   90.00000000
_cell_angle_beta   90.00000000
_cell_angle_gamma   120.00000955
_symmetry_Int_Tables_number   1
_chemical_formula_structural   SmSbPd
_chemical_formula_sum   'Sm2 Sb2 Pd2'
_cell_volume   147.72025929
_cell_formula_units_Z   2
loop_
 _symmetry_equiv_pos_site_id
 _symmetry_equiv_pos_as_xyz
  1  'x, y, z'
loop_
 _atom_site_type_symbol
 _atom_site_label
 _atom_site_symmetry_multiplicity
 _atom_site_fract_x
 _atom_site_fract_y
 _atom_site_fract_z
 _atom_site_occupancy
  Sm  Sm0  1  0.00000000  0.00000000  0.26937400  1
  Sm  Sm1  1  0.00000000  0.00000000  0.73062600  1
  Sb  Sb0  1  0.66666700  0.33333300  0.95730100  1
  Sb  Sb1  1  0.33333300  0.66666700  0.04269900  1
  Pd  Pd0  1  0.33333300  0.66666700  0.45235600  1
  Pd  Pd1  1  0.66666700  0.33333300  0.54764400  1
loop_
_geom_bond_atom_site_label_1
_geom_bond_atom_site_label_2
_geom_bond_distance
_geom_bond_site_symmetry_2
Sm0 Sm1 3.205372 1_555
Sb0 Sb1 2.921293 1_546
Sb0 Sb1 2.921293 1_656
Sb0 Sb1 2.921302 1_556
Sb0 Sm1 3.265443 1_655
Sb0 Sm1 3.265446 1_555
Sb0 Sm1 3.265446 1_665
Sb0 Sm0 3.589563 1_656
Sb0 Sm0 3.589566 1_666
Sb0 Sm0 3.589566 1_556
Sb1 Sm0 3.265443 1_565
Sb1 Sm0 3.265446 1_555
Sb1 Sm0 3.265446 1_665
Sb1 Sm1 3.589563 1_564
Sb1 Sm1 3.589566 1_554
Sb1 Sm1 3.589566 1_664
Pd0 Sb1 2.846824 1_555
Pd0 Pd1 2.936027 1_455
Pd0 Pd1 2.936027 1_565
Pd0 Pd1 2.936036 1_555
Pd0 Sm0 3.130291 1_565
Pd0 Sm0 3.130294 1_555
Pd0 Sm0 3.130294 1_665
Pd0 Sm1 3.452719 1_565
Pd0 Sm1 3.452722 1_665
Pd0 Sm1 3.452722 1_555
Pd1 Sb0 2.846824 1_555
Pd1 Sm1 3.130291 1_655
Pd1 Sm1 3.130294 1_665
Pd1 Sm1 3.130294 1_555
Pd1 Sm0 3.452719 1_655
Pd1 Sm0 3.452722 1_555
Pd1 Sm0 3.452722 1_665
