# generated using pymatgen
data_Ti6Ga16Pt7
_symmetry_space_group_name_H-M   'P 1'
_cell_length_a   8.73347161
_cell_length_b   8.73347161
_cell_length_c   8.73347161
_cell_angle_alpha   60.00000000
_cell_angle_beta   60.00000000
_cell_angle_gamma   60.00000000
_symmetry_Int_Tables_number   1
_chemical_formula_structural   Ti6Ga16Pt7
_chemical_formula_sum   'Ti6 Ga16 Pt7'
_cell_volume   471.02693343
_cell_formula_units_Z   1
loop_
 _symmetry_equiv_pos_site_id
 _symmetry_equiv_pos_as_xyz
  1  'x, y, z'
loop_
 _atom_site_type_symbol
 _atom_site_label
 _atom_site_symmetry_multiplicity
 _atom_site_fract_x
 _atom_site_fract_y
 _atom_site_fract_z
 _atom_site_occupancy
  Ti  Ti0  1  0.67880800  0.67880800  0.32119200  1
  Ti  Ti1  1  0.32119200  0.67880800  0.32119200  1
  Ti  Ti2  1  0.67880800  0.32119200  0.32119200  1
  Ti  Ti3  1  0.32119200  0.32119200  0.67880800  1
  Ti  Ti4  1  0.67880800  0.32119200  0.67880800  1
  Ti  Ti5  1  0.32119200  0.67880800  0.67880800  1
  Ga  Ga0  1  0.87852500  0.87852500  0.36442400  1
  Ga  Ga1  1  0.87852500  0.36442400  0.87852500  1
  Ga  Ga2  1  0.36442400  0.87852500  0.87852500  1
  Ga  Ga3  1  0.87852500  0.87852500  0.87852500  1
  Ga  Ga4  1  0.12147500  0.12147500  0.63557600  1
  Ga  Ga5  1  0.12147500  0.63557600  0.12147500  1
  Ga  Ga6  1  0.63557600  0.12147500  0.12147500  1
  Ga  Ga7  1  0.12147500  0.12147500  0.12147500  1
  Ga  Ga8  1  0.65418800  0.65418800  0.03743500  1
  Ga  Ga9  1  0.65418800  0.03743500  0.65418800  1
  Ga  Ga10  1  0.03743500  0.65418800  0.65418800  1
  Ga  Ga11  1  0.65418800  0.65418800  0.65418800  1
  Ga  Ga12  1  0.34581200  0.34581200  0.96256500  1
  Ga  Ga13  1  0.34581200  0.96256500  0.34581200  1
  Ga  Ga14  1  0.96256500  0.34581200  0.34581200  1
  Ga  Ga15  1  0.34581200  0.34581200  0.34581200  1
  Pt  Pt0  1  0.00000000  0.00000000  0.00000000  1
  Pt  Pt1  1  0.00000000  0.00000000  0.50000000  1
  Pt  Pt2  1  0.50000000  0.00000000  0.50000000  1
  Pt  Pt3  1  0.00000000  0.50000000  0.50000000  1
  Pt  Pt4  1  0.50000000  0.50000000  0.00000000  1
  Pt  Pt5  1  0.00000000  0.50000000  0.00000000  1
  Pt  Pt6  1  0.50000000  0.00000000  0.00000000  1
loop_
_geom_bond_atom_site_label_1
_geom_bond_atom_site_label_2
_geom_bond_distance
_geom_bond_site_symmetry_2
Ga0 Pt0 2.598653 1_665
Ga0 Pt3 2.700141 1_655
Ga0 Pt2 2.700141 1_565
Ga0 Pt1 2.700148 1_665
Ga1 Pt0 2.598653 1_656
Ga1 Pt3 2.700141 1_655
Ga1 Pt4 2.700141 1_556
Ga1 Pt5 2.700148 1_656
Ga2 Pt0 2.598653 1_566
Ga2 Pt4 2.700141 1_556
Ga2 Pt2 2.700141 1_565
Ga2 Pt6 2.700148 1_566
Ga3 Pt0 2.598660 1_666
Ga3 Pt1 2.700141 1_665
Ga3 Pt5 2.700141 1_656
Ga3 Pt6 2.700141 1_566
Ga4 Pt0 2.598653 1_556
Ga4 Pt2 2.700141 1_555
Ga4 Pt3 2.700141 1_555
Ga4 Pt1 2.700148 1_555
Ga5 Pt0 2.598653 1_565
Ga5 Pt3 2.700141 1_555
Ga5 Pt4 2.700141 1_555
Ga5 Pt5 2.700148 1_555
Ga6 Pt0 2.598653 1_655
Ga6 Pt2 2.700141 1_555
Ga6 Pt4 2.700141 1_555
Ga6 Pt6 2.700148 1_555
Ga7 Pt0 2.598660 1_555
Ga7 Pt6 2.700141 1_555
Ga7 Pt5 2.700141 1_555
Ga7 Pt1 2.700141 1_555
Ga8 Pt4 2.535224 1_555
Ga8 Pt5 2.535231 1_655
Ga8 Pt6 2.535231 1_565
Ga8 Ti2 2.710309 1_555
Ga8 Ti1 2.710309 1_555
Ga8 Ti0 2.710314 1_555
Ga9 Pt2 2.535224 1_555
Ga9 Pt6 2.535231 1_556
Ga9 Pt1 2.535231 1_655
Ga9 Ti3 2.710309 1_555
Ga9 Ti2 2.710309 1_555
Ga9 Ti4 2.710314 1_555
Ga10 Pt3 2.535224 1_555
Ga10 Pt5 2.535231 1_556
Ga10 Pt1 2.535231 1_565
Ga10 Ti3 2.710309 1_555
Ga10 Ti1 2.710309 1_555
Ga10 Ti5 2.710314 1_555
Ga11 Pt2 2.535230 1_565
Ga11 Pt3 2.535230 1_655
Ga11 Pt4 2.535230 1_556
Ga11 Ti5 2.710305 1_555
Ga11 Ti0 2.710305 1_555
Ga11 Ti4 2.710305 1_555
Ga12 Pt4 2.535224 1_556
Ga12 Pt5 2.535231 1_556
Ga12 Pt6 2.535231 1_556
Ga12 Ti4 2.710309 1_555
Ga12 Ti5 2.710309 1_555
Ga12 Ti3 2.710314 1_555
Ga13 Pt2 2.535224 1_565
Ga13 Pt1 2.535231 1_565
Ga13 Pt6 2.535231 1_565
Ga13 Ti0 2.710309 1_555
Ga13 Ti5 2.710309 1_555
Ga13 Ti1 2.710314 1_555
Ga14 Pt3 2.535224 1_655
Ga14 Pt5 2.535231 1_655
Ga14 Pt1 2.535231 1_655
Ga14 Ti0 2.710309 1_555
Ga14 Ti4 2.710309 1_555
Ga14 Ti2 2.710314 1_555
Ga15 Pt2 2.535230 1_555
Ga15 Pt3 2.535230 1_555
Ga15 Pt4 2.535230 1_555
Ga15 Ti2 2.710305 1_555
Ga15 Ti1 2.710305 1_555
Ga15 Ti3 2.710305 1_555
