# generated using pymatgen
data_Te2Mo2SeS
_symmetry_space_group_name_H-M   'P 1'
_cell_length_a   3.39845580
_cell_length_b   3.39845580
_cell_length_c   38.64974200
_cell_angle_alpha   90.00000000
_cell_angle_beta   90.00000000
_cell_angle_gamma   119.99999613
_symmetry_Int_Tables_number   1
_chemical_formula_structural   Te2Mo2SeS
_chemical_formula_sum   'Te4 Mo4 Se2 S2'
_cell_volume   386.58099535
_cell_formula_units_Z   2
loop_
 _symmetry_equiv_pos_site_id
 _symmetry_equiv_pos_as_xyz
  1  'x, y, z'
loop_
 _atom_site_type_symbol
 _atom_site_label
 _atom_site_symmetry_multiplicity
 _atom_site_fract_x
 _atom_site_fract_y
 _atom_site_fract_z
 _atom_site_occupancy
  Te  Te0  1  0.00000000  0.00000000  0.33020300  1
  Te  Te1  1  0.00000000  0.00000000  0.70596100  1
  Te  Te2  1  0.00000000  0.00000000  0.23335100  1
  Te  Te3  1  0.00000000  0.00000000  0.60909600  1
  Mo  Mo0  1  0.00000000  0.00000000  0.09394900  1
  Mo  Mo1  1  0.00000000  0.00000000  0.46965100  1
  Mo  Mo2  1  0.33333300  0.66666700  0.28179800  1
  Mo  Mo3  1  0.33333300  0.66666700  0.65752000  1
  Se  Se0  1  0.33333300  0.66666700  0.42707500  1
  Se  Se1  1  0.33333300  0.66666700  0.51225400  1
  S  S0  1  0.33333300  0.66666700  0.05506400  1
  S  S1  1  0.33333300  0.66666700  0.13282600  1
loop_
_geom_bond_atom_site_label_1
_geom_bond_atom_site_label_2
_geom_bond_distance
_geom_bond_site_symmetry_2
Mo0 S1 2.471354 1_545
Mo0 S1 2.471356 1_555
Mo0 S1 2.471356 1_445
Mo0 S0 2.471542 1_545
Mo0 S0 2.471544 1_445
Mo0 S0 2.471544 1_555
Mo1 Se0 2.560794 1_545
Mo1 Se0 2.560796 1_555
Mo1 Se0 2.560796 1_445
Mo1 Se1 2.561465 1_545
Mo1 Se1 2.561467 1_445
Mo1 Se1 2.561467 1_555
Mo2 Te0 2.711065 1_565
Mo2 Te0 2.711067 1_665
Mo2 Te0 2.711067 1_555
Mo2 Te2 2.712185 1_565
Mo2 Te2 2.712187 1_555
Mo2 Te2 2.712187 1_665
Mo3 Te3 2.711571 1_565
Mo3 Te3 2.711574 1_665
Mo3 Te3 2.711574 1_555
Mo3 Te1 2.712025 1_565
Mo3 Te1 2.712027 1_665
Mo3 Te1 2.712027 1_555
