# generated using pymatgen
data_Li3MnCoO5
_symmetry_space_group_name_H-M   'P 1'
_cell_length_a   10.55360884
_cell_length_b   10.55360884
_cell_length_c   5.95136885
_cell_angle_alpha   82.72249222
_cell_angle_beta   82.72249222
_cell_angle_gamma   15.88512522
_symmetry_Int_Tables_number   1
_chemical_formula_structural   Li3MnCoO5
_chemical_formula_sum   'Li6 Mn2 Co2 O10'
_cell_volume   179.93974011
_cell_formula_units_Z   2
loop_
 _symmetry_equiv_pos_site_id
 _symmetry_equiv_pos_as_xyz
  1  'x, y, z'
loop_
 _atom_site_type_symbol
 _atom_site_label
 _atom_site_symmetry_multiplicity
 _atom_site_fract_x
 _atom_site_fract_y
 _atom_site_fract_z
 _atom_site_occupancy
  Li  Li0  1  0.79547300  0.79547300  0.10153200  1
  Li  Li1  1  0.60456500  0.60456500  0.69201100  1
  Li  Li2  1  0.38904500  0.38904500  0.31378900  1
  Li  Li3  1  0.20552700  0.20552700  0.88252400  1
  Li  Li4  1  0.00259200  0.00259200  0.49896400  1
  Li  Li5  1  0.79649400  0.79649400  0.60195400  1
  Mn  Mn0  1  0.00140300  0.00140300  0.00030000  1
  Mn  Mn1  1  0.39561300  0.39561300  0.79725400  1
  Co  Co0  1  0.60788800  0.60788800  0.20529900  1
  Co  Co1  1  0.20803200  0.20803200  0.41377400  1
  O  O0  1  0.69862100  0.69862100  0.64013300  1
  O  O1  1  0.50007200  0.50007200  0.21887900  1
  O  O2  1  0.30942700  0.30942700  0.84844500  1
  O  O3  1  0.09889300  0.09889300  0.43579600  1
  O  O4  1  0.90513900  0.90513900  0.02293800  1
  O  O5  1  0.90258200  0.90258200  0.58001600  1
  O  O6  1  0.69522300  0.69522300  0.15085400  1
  O  O7  1  0.49700600  0.49700600  0.78154700  1
  O  O8  1  0.29495800  0.29495800  0.34706400  1
  O  O9  1  0.09144700  0.09144700  0.96692600  1
loop_
_geom_bond_atom_site_label_1
_geom_bond_atom_site_label_2
_geom_bond_distance
_geom_bond_site_symmetry_2
Li0 O8 2.063490 1_655
Li0 O8 2.063490 1_565
Li0 O6 2.078644 1_555
Li0 O2 2.089981 1_564
Li0 O2 2.089981 1_654
Li0 O4 2.280398 1_555
Li1 O0 1.950908 1_555
Li1 O3 2.124160 1_655
Li1 O3 2.124160 1_565
Li1 O9 2.182650 1_655
Li1 O9 2.182650 1_565
Li1 O7 2.243473 1_555
Li2 O8 1.951444 1_555
Li2 O5 2.198133 1_545
Li2 O5 2.198133 1_455
Li2 O4 2.255458 1_545
Li2 O4 2.255458 1_455
Li2 O1 2.317474 1_555
Li3 O0 2.069235 1_545
Li3 O0 2.069235 1_455
Li3 O6 2.152960 1_456
Li3 O6 2.152960 1_546
Li3 O2 2.155468 1_555
Li3 O9 2.373439 1_555
Li4 O3 2.000123 1_555
Li4 O5 2.084625 1_445
Li4 O7 2.217734 1_455
Li4 O7 2.217734 1_545
Li4 O1 2.220450 1_545
Li4 O1 2.220450 1_455
Li5 O0 2.029498 1_555
Li5 O8 2.107428 1_655
Li5 O8 2.107428 1_565
Li5 O2 2.110251 1_565
Li5 O2 2.110251 1_655
Li5 O5 2.204848 1_555
Mn0 O9 1.867362 1_554
Mn0 O1 1.952013 1_545
Mn0 O1 1.952013 1_455
Mn0 O7 1.964839 1_454
Mn0 O7 1.964839 1_544
Mn0 O4 1.999611 1_445
Mn1 O2 1.788439 1_555
Mn1 O5 1.941953 1_545
Mn1 O5 1.941953 1_455
Mn1 O4 2.009655 1_456
Mn1 O4 2.009655 1_546
Mn1 O7 2.109676 1_555
Co0 O6 1.812981 1_555
Co0 O3 1.994436 1_565
Co0 O3 1.994436 1_655
Co0 O9 2.093334 1_654
Co0 O9 2.093334 1_564
Co0 O1 2.244960 1_555
Co1 O8 1.809741 1_555
Co1 O0 1.977967 1_545
Co1 O0 1.977967 1_455
Co1 O6 2.180347 1_545
Co1 O6 2.180347 1_455
Co1 O3 2.268486 1_555
