# generated using pymatgen
data_Ba3(CoN2)2
_symmetry_space_group_name_H-M   'P 1'
_cell_length_a   6.15051619
_cell_length_b   10.25072616
_cell_length_c   10.01400862
_cell_angle_alpha   90.00000000
_cell_angle_beta   90.00000000
_cell_angle_gamma   90.00000000
_symmetry_Int_Tables_number   1
_chemical_formula_structural   Ba3(CoN2)2
_chemical_formula_sum   'Ba12 Co8 N16'
_cell_volume   631.35577713
_cell_formula_units_Z   4
loop_
 _symmetry_equiv_pos_site_id
 _symmetry_equiv_pos_as_xyz
  1  'x, y, z'
loop_
 _atom_site_type_symbol
 _atom_site_label
 _atom_site_symmetry_multiplicity
 _atom_site_fract_x
 _atom_site_fract_y
 _atom_site_fract_z
 _atom_site_occupancy
  Ba  Ba0  1  0.60008931  0.15732719  0.41500622  1
  Ba  Ba1  1  0.89991069  0.84267281  0.41500622  1
  Ba  Ba2  1  0.60008931  0.34267281  0.08499378  1
  Ba  Ba3  1  0.89991069  0.65732719  0.08499378  1
  Ba  Ba4  1  0.39991069  0.84267281  0.58499378  1
  Ba  Ba5  1  0.10008931  0.15732719  0.58499378  1
  Ba  Ba6  1  0.39991069  0.65732719  0.91500622  1
  Ba  Ba7  1  0.10008931  0.34267281  0.91500622  1
  Ba  Ba8  1  0.75000000  0.50000000  0.40238495  1
  Ba  Ba9  1  0.75000000  0.00000000  0.09761505  1
  Ba  Ba10  1  0.25000000  0.50000000  0.59761505  1
  Ba  Ba11  1  0.25000000  0.00000000  0.90238495  1
  Co  Co0  1  0.75000000  0.50000000  0.73387988  1
  Co  Co1  1  0.75000000  0.00000000  0.76612012  1
  Co  Co2  1  0.25000000  0.50000000  0.26612012  1
  Co  Co3  1  0.25000000  0.00000000  0.23387988  1
  Co  Co4  1  0.64931278  0.25000000  0.75000000  1
  Co  Co5  1  0.85068722  0.75000000  0.75000000  1
  Co  Co6  1  0.35068722  0.75000000  0.25000000  1
  Co  Co7  1  0.14931278  0.25000000  0.25000000  1
  N  N0  1  0.83183994  0.35558941  0.63550724  1
  N  N1  1  0.66816006  0.64441059  0.63550724  1
  N  N2  1  0.83183994  0.14441059  0.86449276  1
  N  N3  1  0.66816006  0.85558941  0.86449276  1
  N  N4  1  0.16816006  0.64441059  0.36449276  1
  N  N5  1  0.33183994  0.35558941  0.36449276  1
  N  N6  1  0.16816006  0.85558941  0.13550724  1
  N  N7  1  0.33183994  0.14441059  0.13550724  1
  N  N8  1  0.52173892  0.40520732  0.82207879  1
  N  N9  1  0.97826108  0.59479268  0.82207879  1
  N  N10  1  0.52173892  0.09479268  0.67792121  1
  N  N11  1  0.97826108  0.90520732  0.67792121  1
  N  N12  1  0.47826108  0.59479268  0.17792121  1
  N  N13  1  0.02173892  0.40520732  0.17792121  1
  N  N14  1  0.47826108  0.90520732  0.32207879  1
  N  N15  1  0.02173892  0.09479268  0.32207879  1
loop_
_geom_bond_atom_site_label_1
_geom_bond_atom_site_label_2
_geom_bond_distance
_geom_bond_site_symmetry_2
Ba0 N5 2.666145 1_555
Ba0 N10 2.752262 1_555
Ba0 N15 2.828854 1_655
Ba0 N14 2.847212 1_545
Ba0 N7 3.251689 1_555
Ba0 N0 3.322318 1_555
Ba1 N4 2.666145 1_655
Ba1 N11 2.752262 1_555
Ba1 N14 2.828854 1_555
Ba1 N15 2.847212 1_665
Ba1 N6 3.251689 1_655
Ba1 N1 3.322318 1_555
Ba2 N7 2.666145 1_555
Ba2 N8 2.752262 1_554
Ba2 N13 2.828854 1_655
Ba2 N12 2.847212 1_555
Ba2 N5 3.251689 1_555
Ba2 N2 3.322318 1_554
Ba3 N6 2.666145 1_655
Ba3 N9 2.752262 1_554
Ba3 N12 2.828854 1_555
Ba3 N13 2.847212 1_655
Ba3 N4 3.251689 1_655
Ba3 N3 3.322318 1_554
Ba4 N1 2.666145 1_555
Ba4 N14 2.752262 1_555
Ba4 N11 2.828854 1_455
Ba4 N10 2.847212 1_565
Ba4 N3 3.251689 1_555
Ba4 N4 3.322318 1_555
Ba5 N0 2.666145 1_455
Ba5 N15 2.752262 1_555
Ba5 N10 2.828854 1_555
Ba5 N11 2.847212 1_445
Ba5 N2 3.251689 1_455
Ba5 N5 3.322318 1_555
Ba6 N3 2.666145 1_555
Ba6 N12 2.752262 1_556
Ba6 N9 2.828854 1_455
Ba6 N8 2.847212 1_555
Ba6 N1 3.251689 1_555
Ba6 N6 3.322318 1_556
Ba7 N2 2.666145 1_455
Ba7 N13 2.752262 1_556
Ba7 N8 2.828854 1_555
Ba7 N9 2.847212 1_455
Ba7 N0 3.251689 1_455
Ba7 N7 3.322318 1_556
Ba8 N0 2.809721 1_555
Ba8 N1 2.809721 1_555
Ba8 N12 2.964805 1_555
Ba8 N13 2.964805 1_655
Ba8 N4 2.991652 1_655
Ba8 N5 2.991652 1_555
Ba9 N3 2.809721 1_544
Ba9 N2 2.809721 1_554
Ba9 N15 2.964805 1_655
Ba9 N14 2.964805 1_545
Ba9 N6 2.991652 1_645
Ba9 N7 2.991652 1_555
Ba10 N4 2.809721 1_555
Ba10 N5 2.809721 1_555
Ba10 N8 2.964805 1_555
Ba10 N9 2.964805 1_455
Ba10 N0 2.991652 1_455
Ba10 N1 2.991652 1_555
Ba11 N6 2.809721 1_546
Ba11 N7 2.809721 1_556
Ba11 N11 2.964805 1_445
Ba11 N10 2.964805 1_555
Ba11 N2 2.991652 1_455
Ba11 N3 2.991652 1_545
Co0 N1 1.848006 1_555
Co0 N0 1.848006 1_555
Co0 N9 1.922310 1_555
Co0 N8 1.922310 1_555
Co1 N3 1.848006 1_545
Co1 N2 1.848006 1_555
Co1 N11 1.922310 1_545
Co1 N10 1.922310 1_555
Co2 N4 1.848006 1_555
Co2 N5 1.848006 1_555
Co2 N12 1.922310 1_555
Co2 N13 1.922310 1_555
Co3 N6 1.848006 1_545
Co3 N7 1.848006 1_555
Co3 N14 1.922310 1_545
Co3 N15 1.922310 1_555
Co4 N10 1.915177 1_555
Co4 N8 1.915177 1_555
Co4 N0 1.935554 1_555
Co4 N2 1.935554 1_555
Co5 N11 1.915177 1_555
Co5 N9 1.915177 1_555
Co5 N3 1.935554 1_555
Co5 N1 1.935554 1_555
Co6 N12 1.915177 1_555
Co6 N14 1.915177 1_555
Co6 N6 1.935554 1_555
Co6 N4 1.935554 1_555
Co7 N13 1.915177 1_555
Co7 N15 1.915177 1_555
Co7 N5 1.935554 1_555
Co7 N7 1.935554 1_555
