# generated using pymatgen
data_SbRuS
_symmetry_space_group_name_H-M   'P 1'
_cell_length_a   6.18736500
_cell_length_b   6.25492978
_cell_length_c   6.26743155
_cell_angle_alpha   111.65911075
_cell_angle_beta   90.00000000
_cell_angle_gamma   90.00000000
_symmetry_Int_Tables_number   1
_chemical_formula_structural   SbRuS
_chemical_formula_sum   'Sb4 Ru4 S4'
_cell_volume   225.43361198
_cell_formula_units_Z   4
loop_
 _symmetry_equiv_pos_site_id
 _symmetry_equiv_pos_as_xyz
  1  'x, y, z'
loop_
 _atom_site_type_symbol
 _atom_site_label
 _atom_site_symmetry_multiplicity
 _atom_site_fract_x
 _atom_site_fract_y
 _atom_site_fract_z
 _atom_site_occupancy
  Sb  Sb0  1  0.12904600  0.85092700  0.12967900  1
  Sb  Sb1  1  0.62904600  0.14907300  0.37032100  1
  Sb  Sb2  1  0.87095400  0.14907300  0.87032100  1
  Sb  Sb3  1  0.37095400  0.85092700  0.62967900  1
  Ru  Ru0  1  0.51290700  0.70360900  0.19745900  1
  Ru  Ru1  1  0.01290700  0.29639100  0.30254100  1
  Ru  Ru2  1  0.48709300  0.29639100  0.80254100  1
  Ru  Ru3  1  0.98709300  0.70360900  0.69745900  1
  S  S0  1  0.86650400  0.64736800  0.32126100  1
  S  S1  1  0.36650400  0.35263200  0.17873900  1
  S  S2  1  0.13349600  0.35263200  0.67873900  1
  S  S3  1  0.63349600  0.64736800  0.82126100  1
loop_
_geom_bond_atom_site_label_1
_geom_bond_atom_site_label_2
_geom_bond_distance
_geom_bond_site_symmetry_2
Ru0 S1 2.337456 1_555
Ru0 S3 2.372213 1_554
Ru0 S0 2.390378 1_555
Ru0 Sb0 2.638096 1_555
Ru0 Sb3 2.667609 1_555
Ru0 Sb1 2.688035 1_565
Ru1 S0 2.337456 1_455
Ru1 S2 2.372213 1_555
Ru1 S1 2.390378 1_555
Ru1 Sb1 2.638096 1_455
Ru1 Sb2 2.667609 1_454
Ru1 Sb0 2.688035 1_545
Ru2 S3 2.337456 1_555
Ru2 S1 2.372213 1_556
Ru2 S2 2.390378 1_555
Ru2 Sb2 2.638096 1_555
Ru2 Sb1 2.667609 1_555
Ru2 Sb3 2.688035 1_545
Ru3 S2 2.337456 1_655
Ru3 S0 2.372213 1_555
Ru3 S3 2.390378 1_555
Ru3 Sb3 2.638096 1_655
Ru3 Sb0 2.667609 1_656
Ru3 Sb2 2.688035 1_565
S0 Sb0 2.613474 1_655
S1 Sb1 2.613474 1_555
S2 Sb2 2.613474 1_455
S3 Sb3 2.613474 1_555
