# generated using pymatgen
data_Li5B(SO4)4
_symmetry_space_group_name_H-M   'P 1'
_cell_length_a   10.29776300
_cell_length_b   8.14016300
_cell_length_c   15.44908989
_cell_angle_alpha   73.63195177
_cell_angle_beta   90.00000000
_cell_angle_gamma   90.00000000
_symmetry_Int_Tables_number   1
_chemical_formula_structural   Li5B(SO4)4
_chemical_formula_sum   'Li20 B4 S16 O64'
_cell_volume   1242.54141158
_cell_formula_units_Z   4
loop_
 _symmetry_equiv_pos_site_id
 _symmetry_equiv_pos_as_xyz
  1  'x, y, z'
loop_
 _atom_site_type_symbol
 _atom_site_label
 _atom_site_symmetry_multiplicity
 _atom_site_fract_x
 _atom_site_fract_y
 _atom_site_fract_z
 _atom_site_occupancy
  Li  Li0  1  0.66676300  0.99982500  0.90630400  1
  Li  Li1  1  0.16676300  0.00017500  0.59369600  1
  Li  Li2  1  0.33323700  0.00017500  0.09369600  1
  Li  Li3  1  0.83323700  0.99982500  0.40630400  1
  Li  Li4  1  0.31603000  0.89680000  0.79663700  1
  Li  Li5  1  0.81603000  0.10320000  0.70336300  1
  Li  Li6  1  0.68397000  0.10320000  0.20336300  1
  Li  Li7  1  0.18397000  0.89680000  0.29663700  1
  Li  Li8  1  0.61958900  0.89522000  0.68433300  1
  Li  Li9  1  0.11958900  0.10478000  0.81566700  1
  Li  Li10  1  0.38041100  0.10478000  0.31566700  1
  Li  Li11  1  0.88041100  0.89522000  0.18433300  1
  Li  Li12  1  0.63342700  0.69384800  0.51984300  1
  Li  Li13  1  0.13342700  0.30615200  0.98015700  1
  Li  Li14  1  0.36657300  0.30615200  0.48015700  1
  Li  Li15  1  0.86657300  0.69384800  0.01984300  1
  Li  Li16  1  0.79505500  0.37497900  0.51511400  1
  Li  Li17  1  0.29505500  0.62502100  0.98488600  1
  Li  Li18  1  0.20494500  0.62502100  0.48488600  1
  Li  Li19  1  0.70494500  0.37497900  0.01511400  1
  B  B0  1  0.95977800  0.51650200  0.74353100  1
  B  B1  1  0.45977800  0.48349800  0.75646900  1
  B  B2  1  0.04022200  0.48349800  0.25646900  1
  B  B3  1  0.54022200  0.51650200  0.24353100  1
  S  S0  1  0.88064800  0.80174300  0.61256900  1
  S  S1  1  0.38064800  0.19825700  0.88743100  1
  S  S2  1  0.11935200  0.19825700  0.38743100  1
  S  S3  1  0.61935200  0.80174300  0.11256900  1
  S  S4  1  0.12116800  0.76277500  0.12289500  1
  S  S5  1  0.62116800  0.23722500  0.37710500  1
  S  S6  1  0.87883200  0.23722500  0.87710500  1
  S  S7  1  0.37883200  0.76277500  0.62289500  1
  S  S8  1  0.55136100  0.68334200  0.86221400  1
  S  S9  1  0.05136100  0.31665800  0.63778600  1
  S  S10  1  0.44863900  0.31665800  0.13778600  1
  S  S11  1  0.94863900  0.68334200  0.36221400  1
  S  S12  1  0.55812900  0.31071600  0.63770600  1
  S  S13  1  0.05812900  0.68928400  0.86229400  1
  S  S14  1  0.44187100  0.68928400  0.36229400  1
  S  S15  1  0.94187100  0.31071600  0.13770600  1
  O  O0  1  0.81401000  0.88577000  0.67337500  1
  O  O1  1  0.31401000  0.11423000  0.82662500  1
  O  O2  1  0.18599000  0.11423000  0.32662500  1
  O  O3  1  0.68599000  0.88577000  0.17337500  1
  O  O4  1  0.80083200  0.81348200  0.53150900  1
  O  O5  1  0.30083200  0.18651800  0.96849100  1
  O  O6  1  0.19916800  0.18651800  0.46849100  1
  O  O7  1  0.69916800  0.81348200  0.03150900  1
  O  O8  1  0.01238500  0.86142900  0.59035300  1
  O  O9  1  0.51238500  0.13857100  0.90964700  1
  O  O10  1  0.98761500  0.13857100  0.40964700  1
  O  O11  1  0.48761500  0.86142900  0.09035300  1
  O  O12  1  0.33560000  0.88182400  0.67388700  1
  O  O13  1  0.83560000  0.11817600  0.82611300  1
  O  O14  1  0.66440000  0.11817600  0.32611300  1
  O  O15  1  0.16440000  0.88182400  0.17388700  1
  O  O16  1  0.51628200  0.79622800  0.59567300  1
  O  O17  1  0.01628200  0.20377200  0.90432700  1
  O  O18  1  0.48371800  0.20377200  0.40432700  1
  O  O19  1  0.98371800  0.79622800  0.09567300  1
  O  O20  1  0.29119900  0.77393000  0.54751900  1
  O  O21  1  0.79119900  0.22607000  0.95248100  1
  O  O22  1  0.70880100  0.22607000  0.45248100  1
  O  O23  1  0.20880100  0.77393000  0.04751900  1
  O  O24  1  0.61603200  0.56149900  0.93552700  1
  O  O25  1  0.11603200  0.43850100  0.56447300  1
  O  O26  1  0.38396800  0.43850100  0.06447300  1
  O  O27  1  0.88396800  0.56149900  0.43552700  1
  O  O28  1  0.62226800  0.84580900  0.82596600  1
  O  O29  1  0.12226800  0.15419100  0.67403400  1
  O  O30  1  0.37773200  0.15419100  0.17403400  1
  O  O31  1  0.87773200  0.84580900  0.32596600  1
  O  O32  1  0.91575400  0.28185300  0.61665600  1
  O  O33  1  0.41575400  0.71814700  0.88334400  1
  O  O34  1  0.08424600  0.71814700  0.38334400  1
  O  O35  1  0.58424600  0.28185300  0.11665600  1
  O  O36  1  0.13240400  0.85045500  0.83415000  1
  O  O37  1  0.63240400  0.14954500  0.66585000  1
  O  O38  1  0.86759600  0.14954500  0.16585000  1
  O  O39  1  0.36759600  0.85045500  0.33415000  1
  O  O40  1  0.93121500  0.71119700  0.89871200  1
  O  O41  1  0.43121500  0.28880300  0.60128800  1
  O  O42  1  0.06878500  0.28880300  0.10128800  1
  O  O43  1  0.56878500  0.71119700  0.39871200  1
  O  O44  1  0.63736200  0.44577900  0.57659200  1
  O  O45  1  0.13736200  0.55422100  0.92340800  1
  O  O46  1  0.36263800  0.55422100  0.42340800  1
  O  O47  1  0.86263800  0.44577900  0.07659200  1
  O  O48  1  0.88275200  0.60529900  0.66298400  1
  O  O49  1  0.38275200  0.39470100  0.83701600  1
  O  O50  1  0.11724800  0.39470100  0.33701600  1
  O  O51  1  0.61724800  0.60529900  0.16298400  1
  O  O52  1  0.86708400  0.42467800  0.81498000  1
  O  O53  1  0.36708400  0.57532200  0.68502000  1
  O  O54  1  0.13291600  0.57532200  0.18502000  1
  O  O55  1  0.63291600  0.42467800  0.31498000  1
  O  O56  1  0.54929100  0.61116600  0.77780800  1
  O  O57  1  0.04929100  0.38883400  0.72219200  1
  O  O58  1  0.45070900  0.38883400  0.22219200  1
  O  O59  1  0.95070900  0.61116600  0.27780800  1
  O  O60  1  0.54150100  0.36073400  0.72731700  1
  O  O61  1  0.04150100  0.63926600  0.77268300  1
  O  O62  1  0.45849900  0.63926600  0.27268300  1
  O  O63  1  0.95849900  0.36073400  0.22731700  1
loop_
_geom_bond_atom_site_label_1
_geom_bond_atom_site_label_2
_geom_bond_distance
_geom_bond_site_symmetry_2
Li0 O9 1.959189 1_565
Li0 O28 2.049197 1_555
Li0 O7 2.121338 1_556
Li0 O13 2.193888 1_565
Li0 O21 2.506630 1_565
Li1 O8 1.959189 1_545
Li1 O29 2.049197 1_555
Li1 O6 2.121338 1_555
Li1 O12 2.193888 1_545
Li1 O20 2.506630 1_545
Li2 O11 1.959189 1_545
Li2 O30 2.049197 1_555
Li2 O5 2.121338 1_554
Li2 O15 2.193888 1_545
Li2 O23 2.506630 1_545
Li3 O10 1.959189 1_565
Li3 O31 2.049197 1_555
Li3 O4 2.121338 1_555
Li3 O14 2.193888 1_565
Li3 O22 2.506630 1_565
Li4 O12 1.944740 1_555
Li4 O1 1.951876 1_565
Li4 O33 1.966192 1_555
Li4 O36 1.982576 1_555
Li5 O13 1.944740 1_555
Li5 O0 1.951876 1_545
Li5 O32 1.966192 1_555
Li5 O37 1.982576 1_555
Li6 O14 1.944740 1_555
Li6 O3 1.951876 1_545
Li6 O35 1.966192 1_555
Li6 O38 1.982576 1_555
Li7 O15 1.944740 1_555
Li7 O2 1.951876 1_565
Li7 O34 1.966192 1_555
Li7 O39 1.982576 1_555
Li8 O0 2.012542 1_555
Li8 O37 2.012882 1_565
Li8 O16 2.068639 1_555
Li8 O28 2.110520 1_555
Li8 O56 2.464547 1_555
Li9 O1 2.012542 1_555
Li9 O36 2.012882 1_545
Li9 O17 2.068639 1_555
Li9 O29 2.110520 1_555
Li9 O57 2.464547 1_555
Li10 O2 2.012542 1_555
Li10 O39 2.012882 1_545
Li10 O18 2.068639 1_555
Li10 O30 2.110520 1_555
Li10 O58 2.464547 1_555
Li11 O3 2.012542 1_555
Li11 O38 2.012882 1_565
Li11 O19 2.068639 1_555
Li11 O31 2.110520 1_555
Li11 O59 2.464547 1_555
Li12 O43 1.953486 1_555
Li12 O44 1.962176 1_555
Li12 O4 2.012856 1_555
Li12 O16 2.018035 1_555
Li13 O42 1.953486 1_556
Li13 O45 1.962176 1_555
Li13 O5 2.012856 1_555
Li13 O17 2.018035 1_555
Li14 O41 1.953486 1_555
Li14 O46 1.962176 1_555
Li14 O6 2.012856 1_555
Li14 O18 2.018035 1_555
Li15 O40 1.953486 1_554
Li15 O47 1.962176 1_555
Li15 O7 2.012856 1_555
Li15 O19 2.018035 1_555
Li16 O27 1.898209 1_555
Li16 O22 1.963565 1_555
Li16 O32 1.977424 1_555
Li16 O44 2.044442 1_555
Li17 O26 1.898209 1_556
Li17 O23 1.963565 1_556
Li17 O33 1.977424 1_555
Li17 O45 2.044442 1_555
Li18 O25 1.898209 1_555
Li18 O20 1.963565 1_555
Li18 O34 1.977424 1_555
Li18 O46 2.044442 1_555
Li19 O24 1.898209 1_554
Li19 O21 1.963565 1_554
Li19 O35 1.977424 1_555
Li19 O47 2.044442 1_555
B0 O61 1.470838 1_655
B0 O48 1.480931 1_555
B0 O52 1.491058 1_555
B0 O57 1.493813 1_655
B1 O60 1.470838 1_555
B1 O49 1.480931 1_555
B1 O53 1.491058 1_555
B1 O56 1.493813 1_555
B2 O63 1.470838 1_455
B2 O50 1.480931 1_555
B2 O54 1.491058 1_555
B2 O59 1.493813 1_455
B3 O62 1.470838 1_555
B3 O51 1.480931 1_555
B3 O55 1.491058 1_555
B3 O58 1.493813 1_555
O0 S0 1.477620 1_555
O1 S1 1.477620 1_555
O2 S2 1.477620 1_555
O3 S3 1.477620 1_555
O4 S0 1.478348 1_555
O5 S1 1.478348 1_555
O6 S2 1.478348 1_555
O7 S3 1.478348 1_555
O8 S0 1.449214 1_455
O9 S1 1.449214 1_555
O10 S2 1.449214 1_655
O11 S3 1.449214 1_555
O12 S7 1.479250 1_555
O13 S6 1.479250 1_555
O14 S5 1.479250 1_555
O15 S4 1.479250 1_555
O16 S7 1.479834 1_555
O17 S6 1.479834 1_455
O18 S5 1.479834 1_555
O19 S4 1.479834 1_655
O20 S7 1.455698 1_555
O21 S6 1.455698 1_555
O22 S5 1.455698 1_555
O23 S4 1.455698 1_555
O24 S8 1.441149 1_555
O25 S9 1.441149 1_555
O26 S10 1.441149 1_555
O27 S11 1.441149 1_555
O28 S8 1.475934 1_555
O29 S9 1.475934 1_555
O30 S10 1.475934 1_555
O31 S11 1.475934 1_555
O32 S9 1.479536 1_655
O33 S8 1.479536 1_555
O34 S11 1.479536 1_455
O35 S10 1.479536 1_555
O36 S13 1.474381 1_555
O37 S12 1.474381 1_555
O38 S15 1.474381 1_555
O39 S14 1.474381 1_555
O40 S13 1.453614 1_655
O41 S12 1.453614 1_555
O42 S15 1.453614 1_455
O43 S14 1.453614 1_555
O44 S12 1.476775 1_555
O45 S13 1.476775 1_555
O46 S14 1.476775 1_555
O47 S15 1.476775 1_555
O48 S0 1.569144 1_555
O49 S1 1.569144 1_555
O50 S2 1.569144 1_555
O51 S3 1.569144 1_555
O52 S6 1.561649 1_555
O53 S7 1.561649 1_555
O54 S4 1.561649 1_555
O55 S5 1.561649 1_555
O56 S8 1.574117 1_555
O57 S9 1.574117 1_555
O58 S10 1.574117 1_555
O59 S11 1.574117 1_555
O60 S12 1.558644 1_555
O61 S13 1.558644 1_555
O62 S14 1.558644 1_555
O63 S15 1.558644 1_555
