# generated using pymatgen
data_ErPd2Pb
_symmetry_space_group_name_H-M   'P 1'
_cell_length_a   4.80723266
_cell_length_b   4.80723266
_cell_length_c   4.80723266
_cell_angle_alpha   60.00000000
_cell_angle_beta   60.00000000
_cell_angle_gamma   60.00000000
_symmetry_Int_Tables_number   1
_chemical_formula_structural   ErPd2Pb
_chemical_formula_sum   'Er1 Pd2 Pb1'
_cell_volume   78.55438374
_cell_formula_units_Z   1
loop_
 _symmetry_equiv_pos_site_id
 _symmetry_equiv_pos_as_xyz
  1  'x, y, z'
loop_
 _atom_site_type_symbol
 _atom_site_label
 _atom_site_symmetry_multiplicity
 _atom_site_fract_x
 _atom_site_fract_y
 _atom_site_fract_z
 _atom_site_occupancy
  Er  Er0  1  0.50000000  0.50000000  0.50000000  1
  Pd  Pd0  1  0.25000000  0.25000000  0.25000000  1
  Pd  Pd1  1  0.75000000  0.75000000  0.75000000  1
  Pb  Pb0  1  0.00000000  -0.00000000  -0.00000000  1
loop_
_geom_bond_atom_site_label_1
_geom_bond_atom_site_label_2
_geom_bond_distance
_geom_bond_site_symmetry_2
Er0 Pd1 2.943817 1_554
Er0 Pd0 2.943817 1_565
Er0 Pd1 2.943817 1_555
Er0 Pd0 2.943817 1_655
Er0 Pd0 2.943817 1_555
Er0 Pd1 2.943817 1_545
Er0 Pd1 2.943817 1_455
Er0 Pd0 2.943817 1_556
Er0 Pb0 3.399227 1_665
Er0 Pb0 3.399227 1_556
Er0 Pb0 3.399227 1_565
Er0 Pb0 3.399227 1_655
Er0 Pb0 3.399227 1_656
Er0 Pb0 3.399227 1_566
Pb0 Pd1 2.943817 1_444
Pb0 Pd0 2.943817 1_545
Pb0 Pd0 2.943817 1_555
Pb0 Pd1 2.943817 1_445
Pb0 Pd1 2.943817 1_544
Pb0 Pd0 2.943817 1_554
Pb0 Pd0 2.943817 1_455
Pb0 Pd1 2.943817 1_454
