# generated using pymatgen
data_Er2InNi2
_symmetry_space_group_name_H-M   'P 1'
_cell_length_a   6.94582690
_cell_length_b   14.64339320
_cell_length_c   14.64339320
_cell_angle_alpha   90.00000000
_cell_angle_beta   90.00000000
_cell_angle_gamma   90.00000000
_symmetry_Int_Tables_number   1
_chemical_formula_structural   Er2InNi2
_chemical_formula_sum   'Er32 In16 Ni32'
_cell_volume   1489.38646914
_cell_formula_units_Z   16
loop_
 _symmetry_equiv_pos_site_id
 _symmetry_equiv_pos_as_xyz
  1  'x, y, z'
loop_
 _atom_site_type_symbol
 _atom_site_label
 _atom_site_symmetry_multiplicity
 _atom_site_fract_x
 _atom_site_fract_y
 _atom_site_fract_z
 _atom_site_occupancy
  Er  Er0_0  1  0.25000000  0.08703895  0.33703895  1
  Er  Er0_1  1  0.25000000  0.08703895  0.83703895  1
  Er  Er0_2  1  0.25000000  0.58703894  0.33703895  1
  Er  Er0_3  1  0.25000000  0.58703894  0.83703895  1
  Er  Er0_4  1  0.75000000  0.08703895  0.33703895  1
  Er  Er0_5  1  0.75000000  0.08703895  0.83703895  1
  Er  Er0_6  1  0.75000000  0.58703894  0.33703895  1
  Er  Er0_7  1  0.75000000  0.58703894  0.83703895  1
  Er  Er1_0  1  0.25000000  0.41296106  0.16296105  1
  Er  Er1_1  1  0.25000000  0.41296106  0.66296106  1
  Er  Er1_2  1  0.25000000  0.91296106  0.16296105  1
  Er  Er1_3  1  0.25000000  0.91296106  0.66296106  1
  Er  Er1_4  1  0.75000000  0.41296106  0.16296105  1
  Er  Er1_5  1  0.75000000  0.41296106  0.66296106  1
  Er  Er1_6  1  0.75000000  0.91296106  0.16296105  1
  Er  Er1_7  1  0.75000000  0.91296106  0.66296106  1
  Er  Er2_0  1  0.25000000  0.16296105  0.08703895  1
  Er  Er2_1  1  0.25000000  0.16296105  0.58703894  1
  Er  Er2_2  1  0.25000000  0.66296106  0.08703895  1
  Er  Er2_3  1  0.25000000  0.66296106  0.58703894  1
  Er  Er2_4  1  0.75000000  0.16296105  0.08703895  1
  Er  Er2_5  1  0.75000000  0.16296105  0.58703894  1
  Er  Er2_6  1  0.75000000  0.66296106  0.08703895  1
  Er  Er2_7  1  0.75000000  0.66296106  0.58703894  1
  Er  Er3_0  1  0.25000000  0.33703895  0.41296106  1
  Er  Er3_1  1  0.25000000  0.33703895  0.91296106  1
  Er  Er3_2  1  0.25000000  0.83703895  0.41296106  1
  Er  Er3_3  1  0.25000000  0.83703895  0.91296106  1
  Er  Er3_4  1  0.75000000  0.33703895  0.41296106  1
  Er  Er3_5  1  0.75000000  0.33703895  0.91296106  1
  Er  Er3_6  1  0.75000000  0.83703895  0.41296106  1
  Er  Er3_7  1  0.75000000  0.83703895  0.91296106  1
  In  In0_0  1  0.00000000  0.25000000  0.25000000  1
  In  In0_1  1  0.00000000  0.25000000  0.75000000  1
  In  In0_2  1  0.00000000  0.75000000  0.25000000  1
  In  In0_3  1  0.00000000  0.75000000  0.75000000  1
  In  In0_4  1  0.50000000  0.25000000  0.25000000  1
  In  In0_5  1  0.50000000  0.25000000  0.75000000  1
  In  In0_6  1  0.50000000  0.75000000  0.25000000  1
  In  In0_7  1  0.50000000  0.75000000  0.75000000  1
  In  In1_0  1  0.00000000  0.00000000  0.00000000  1
  In  In1_1  1  0.00000000  0.00000000  0.50000000  1
  In  In1_2  1  0.00000000  0.50000000  0.00000000  1
  In  In1_3  1  0.00000000  0.50000000  0.50000000  1
  In  In1_4  1  0.50000000  0.00000000  0.00000000  1
  In  In1_5  1  0.50000000  0.00000000  0.50000000  1
  In  In1_6  1  0.50000000  0.50000000  0.00000000  1
  In  In1_7  1  0.50000000  0.50000000  0.50000000  1
  Ni  Ni0_0  1  0.00000000  0.30957059  0.05957059  1
  Ni  Ni0_1  1  0.00000000  0.30957059  0.55957059  1
  Ni  Ni0_2  1  0.00000000  0.80957059  0.05957059  1
  Ni  Ni0_3  1  0.00000000  0.80957059  0.55957059  1
  Ni  Ni0_4  1  0.50000000  0.30957059  0.05957059  1
  Ni  Ni0_5  1  0.50000000  0.30957059  0.55957059  1
  Ni  Ni0_6  1  0.50000000  0.80957059  0.05957059  1
  Ni  Ni0_7  1  0.50000000  0.80957059  0.55957059  1
  Ni  Ni1_0  1  0.00000000  0.19042941  0.44042941  1
  Ni  Ni1_1  1  0.00000000  0.19042941  0.94042941  1
  Ni  Ni1_2  1  0.00000000  0.69042941  0.44042941  1
  Ni  Ni1_3  1  0.00000000  0.69042941  0.94042941  1
  Ni  Ni1_4  1  0.50000000  0.19042941  0.44042941  1
  Ni  Ni1_5  1  0.50000000  0.19042941  0.94042941  1
  Ni  Ni1_6  1  0.50000000  0.69042941  0.44042941  1
  Ni  Ni1_7  1  0.50000000  0.69042941  0.94042941  1
  Ni  Ni2_0  1  0.00000000  0.44042941  0.30957059  1
  Ni  Ni2_1  1  0.00000000  0.44042941  0.80957059  1
  Ni  Ni2_2  1  0.00000000  0.94042941  0.30957059  1
  Ni  Ni2_3  1  0.00000000  0.94042941  0.80957059  1
  Ni  Ni2_4  1  0.50000000  0.44042941  0.30957059  1
  Ni  Ni2_5  1  0.50000000  0.44042941  0.80957059  1
  Ni  Ni2_6  1  0.50000000  0.94042941  0.30957059  1
  Ni  Ni2_7  1  0.50000000  0.94042941  0.80957059  1
  Ni  Ni3_0  1  0.00000000  0.05957059  0.19042941  1
  Ni  Ni3_1  1  0.00000000  0.05957059  0.69042941  1
  Ni  Ni3_2  1  0.00000000  0.55957059  0.19042941  1
  Ni  Ni3_3  1  0.00000000  0.55957059  0.69042941  1
  Ni  Ni3_4  1  0.50000000  0.05957059  0.19042941  1
  Ni  Ni3_5  1  0.50000000  0.05957059  0.69042941  1
  Ni  Ni3_6  1  0.50000000  0.55957059  0.19042941  1
  Ni  Ni3_7  1  0.50000000  0.55957059  0.69042941  1
loop_
_geom_bond_atom_site_label_1
_geom_bond_atom_site_label_2
_geom_bond_distance
_geom_bond_site_symmetry_2
Er0_0 Ni1_0 2.756737 1_555
Er0_0 Ni1_4 2.756737 1_555
Er0_0 Ni2_2 2.790355 1_545
Er0_0 Ni3_4 2.790355 1_555
Er0_0 Ni2_6 2.790355 1_545
Er0_0 Ni3_0 2.790355 1_555
Er0_0 In1_5 3.214683 1_555
Er0_0 In1_1 3.214683 1_555
Er0_0 In0_0 3.214683 1_555
Er0_0 In0_4 3.214683 1_555
Er0_1 Ni1_1 2.756737 1_555
Er0_1 Ni1_5 2.756737 1_555
Er0_1 Ni2_3 2.790355 1_545
Er0_1 Ni2_7 2.790355 1_545
Er0_1 Ni3_1 2.790355 1_555
Er0_1 Ni3_5 2.790355 1_555
Er0_1 In1_0 3.214683 1_556
Er0_1 In1_4 3.214683 1_556
Er0_1 In0_1 3.214683 1_555
Er0_1 In0_5 3.214683 1_555
Er0_2 Ni1_6 2.756737 1_555
Er0_2 Ni1_2 2.756737 1_555
Er0_2 Ni2_4 2.790355 1_555
Er0_2 Ni2_0 2.790355 1_555
Er0_2 Ni3_2 2.790355 1_555
Er0_2 Ni3_6 2.790355 1_555
Er0_2 In1_3 3.214683 1_555
Er0_2 In1_7 3.214683 1_555
Er0_2 In0_2 3.214683 1_555
Er0_2 In0_6 3.214683 1_555
Er0_3 Ni1_3 2.756737 1_555
Er0_3 Ni1_7 2.756737 1_555
Er0_3 Ni2_5 2.790355 1_555
Er0_3 Ni2_1 2.790355 1_555
Er0_3 Ni3_3 2.790355 1_555
Er0_3 Ni3_7 2.790355 1_555
Er0_3 In1_6 3.214683 1_556
Er0_3 In1_2 3.214683 1_556
Er0_3 In0_3 3.214683 1_555
Er0_3 In0_7 3.214683 1_555
Er0_4 Ni1_0 2.756737 1_655
Er0_4 Ni1_4 2.756737 1_555
Er0_4 Ni2_2 2.790355 1_645
Er0_4 Ni2_6 2.790355 1_545
Er0_4 Ni3_0 2.790355 1_655
Er0_4 Ni3_4 2.790355 1_555
Er0_4 In1_1 3.214683 1_655
Er0_4 In1_5 3.214683 1_555
Er0_4 In0_0 3.214683 1_655
Er0_4 In0_4 3.214683 1_555
Er0_5 Ni1_1 2.756737 1_655
Er0_5 Ni1_5 2.756737 1_555
Er0_5 Ni2_3 2.790355 1_645
Er0_5 Ni2_7 2.790355 1_545
Er0_5 Ni3_1 2.790355 1_655
Er0_5 Ni3_5 2.790355 1_555
Er0_5 In1_0 3.214683 1_656
Er0_5 In1_4 3.214683 1_556
Er0_5 In0_1 3.214683 1_655
Er0_5 In0_5 3.214683 1_555
Er0_6 Ni1_2 2.756737 1_655
Er0_6 Ni1_6 2.756737 1_555
Er0_6 Ni2_0 2.790355 1_655
Er0_6 Ni2_4 2.790355 1_555
Er0_6 Ni3_2 2.790355 1_655
Er0_6 Ni3_6 2.790355 1_555
Er0_6 In1_3 3.214683 1_655
Er0_6 In1_7 3.214683 1_555
Er0_6 In0_6 3.214683 1_555
Er0_6 In0_2 3.214683 1_655
Er0_7 Ni1_3 2.756737 1_655
Er0_7 Ni1_7 2.756737 1_555
Er0_7 Ni2_1 2.790355 1_655
Er0_7 Ni2_5 2.790355 1_555
Er0_7 Ni3_3 2.790355 1_655
Er0_7 Ni3_7 2.790355 1_555
Er0_7 In1_6 3.214683 1_556
Er0_7 In1_2 3.214683 1_656
Er0_7 In0_3 3.214683 1_655
Er0_7 In0_7 3.214683 1_555
Er1_0 Ni0_4 2.756737 1_555
Er1_0 Ni0_0 2.756737 1_555
Er1_0 Ni2_0 2.790355 1_555
Er1_0 Ni2_4 2.790355 1_555
Er1_0 Ni3_6 2.790355 1_555
Er1_0 Ni3_2 2.790355 1_555
Er1_0 In1_6 3.214683 1_555
Er1_0 In0_0 3.214683 1_555
Er1_0 In1_2 3.214683 1_555
Er1_0 In0_4 3.214683 1_555
Er1_1 Ni0_1 2.756737 1_555
Er1_1 Ni0_5 2.756737 1_555
Er1_1 Ni3_7 2.790355 1_555
Er1_1 Ni2_5 2.790355 1_555
Er1_1 Ni3_3 2.790355 1_555
Er1_1 Ni2_1 2.790355 1_555
Er1_1 In0_5 3.214683 1_555
Er1_1 In1_3 3.214683 1_555
Er1_1 In1_7 3.214683 1_555
Er1_1 In0_1 3.214683 1_555
Er1_2 Ni0_2 2.756737 1_555
Er1_2 Ni0_6 2.756737 1_555
Er1_2 Ni3_0 2.790355 1_565
Er1_2 Ni2_2 2.790355 1_555
Er1_2 Ni3_4 2.790355 1_565
Er1_2 Ni2_6 2.790355 1_555
Er1_2 In1_0 3.214683 1_565
Er1_2 In1_4 3.214683 1_565
Er1_2 In0_2 3.214683 1_555
Er1_2 In0_6 3.214683 1_555
Er1_3 Ni0_3 2.756737 1_555
Er1_3 Ni0_7 2.756737 1_555
Er1_3 Ni3_1 2.790355 1_565
Er1_3 Ni3_5 2.790355 1_565
Er1_3 Ni2_7 2.790355 1_555
Er1_3 Ni2_3 2.790355 1_555
Er1_3 In1_1 3.214683 1_565
Er1_3 In1_5 3.214683 1_565
Er1_3 In0_7 3.214683 1_555
Er1_3 In0_3 3.214683 1_555
Er1_4 Ni0_4 2.756737 1_555
Er1_4 Ni0_0 2.756737 1_655
Er1_4 Ni2_0 2.790355 1_655
Er1_4 Ni2_4 2.790355 1_555
Er1_4 Ni3_6 2.790355 1_555
Er1_4 Ni3_2 2.790355 1_655
Er1_4 In1_6 3.214683 1_555
Er1_4 In1_2 3.214683 1_655
Er1_4 In0_0 3.214683 1_655
Er1_4 In0_4 3.214683 1_555
Er1_5 Ni0_5 2.756737 1_555
Er1_5 Ni0_1 2.756737 1_655
Er1_5 Ni2_1 2.790355 1_655
Er1_5 Ni3_3 2.790355 1_655
Er1_5 Ni3_7 2.790355 1_555
Er1_5 Ni2_5 2.790355 1_555
Er1_5 In1_3 3.214683 1_655
Er1_5 In0_1 3.214683 1_655
Er1_5 In1_7 3.214683 1_555
Er1_5 In0_5 3.214683 1_555
Er1_6 Ni0_2 2.756737 1_655
Er1_6 Ni0_6 2.756737 1_555
Er1_6 Ni3_0 2.790355 1_665
Er1_6 Ni2_2 2.790355 1_655
Er1_6 Ni3_4 2.790355 1_565
Er1_6 Ni2_6 2.790355 1_555
Er1_6 In1_4 3.214683 1_565
Er1_6 In1_0 3.214683 1_665
Er1_6 In0_2 3.214683 1_655
Er1_6 In0_6 3.214683 1_555
Er1_7 Ni0_3 2.756737 1_655
Er1_7 Ni0_7 2.756737 1_555
Er1_7 Ni3_1 2.790355 1_665
Er1_7 Ni3_5 2.790355 1_565
Er1_7 Ni2_3 2.790355 1_655
Er1_7 Ni2_7 2.790355 1_555
Er1_7 In1_1 3.214683 1_665
Er1_7 In1_5 3.214683 1_565
Er1_7 In0_3 3.214683 1_655
Er1_7 In0_7 3.214683 1_555
Er2_0 Ni3_0 2.756737 1_555
Er2_0 Ni3_4 2.756737 1_555
Er2_0 Ni1_5 2.790355 1_554
Er2_0 Ni1_1 2.790355 1_554
Er2_0 Ni0_4 2.790355 1_555
Er2_0 Ni0_0 2.790355 1_555
Er2_0 In0_0 3.214683 1_555
Er2_0 In1_4 3.214683 1_555
Er2_0 In0_4 3.214683 1_555
Er2_0 In1_0 3.214683 1_555
Er2_1 Ni3_1 2.756737 1_555
Er2_1 Ni3_5 2.756737 1_555
Er2_1 Ni0_1 2.790355 1_555
Er2_1 Ni0_5 2.790355 1_555
Er2_1 Ni1_4 2.790355 1_555
Er2_1 Ni1_0 2.790355 1_555
Er2_1 In1_1 3.214683 1_555
Er2_1 In1_5 3.214683 1_555
Er2_1 In0_1 3.214683 1_555
Er2_1 In0_5 3.214683 1_555
Er2_2 Ni3_6 2.756737 1_555
Er2_2 Ni3_2 2.756737 1_555
Er2_2 Ni1_3 2.790355 1_554
Er2_2 Ni1_7 2.790355 1_554
Er2_2 Ni0_6 2.790355 1_555
Er2_2 Ni0_2 2.790355 1_555
Er2_2 In1_6 3.214683 1_555
Er2_2 In0_2 3.214683 1_555
Er2_2 In0_6 3.214683 1_555
Er2_2 In1_2 3.214683 1_555
Er2_3 Ni3_7 2.756737 1_555
Er2_3 Ni3_3 2.756737 1_555
Er2_3 Ni1_2 2.790355 1_555
Er2_3 Ni1_6 2.790355 1_555
Er2_3 Ni0_3 2.790355 1_555
Er2_3 Ni0_7 2.790355 1_555
Er2_3 In0_3 3.214683 1_555
Er2_3 In0_7 3.214683 1_555
Er2_3 In1_3 3.214683 1_555
Er2_3 In1_7 3.214683 1_555
Er2_4 Ni3_0 2.756737 1_655
Er2_4 Ni3_4 2.756737 1_555
Er2_4 Ni0_0 2.790355 1_655
Er2_4 Ni1_1 2.790355 1_654
Er2_4 Ni0_4 2.790355 1_555
Er2_4 Ni1_5 2.790355 1_554
Er2_4 In1_0 3.214683 1_655
Er2_4 In0_0 3.214683 1_655
Er2_4 In1_4 3.214683 1_555
Er2_4 In0_4 3.214683 1_555
Er2_5 Ni3_1 2.756737 1_655
Er2_5 Ni3_5 2.756737 1_555
Er2_5 Ni1_0 2.790355 1_655
Er2_5 Ni1_4 2.790355 1_555
Er2_5 Ni0_1 2.790355 1_655
Er2_5 Ni0_5 2.790355 1_555
Er2_5 In1_1 3.214683 1_655
Er2_5 In1_5 3.214683 1_555
Er2_5 In0_1 3.214683 1_655
Er2_5 In0_5 3.214683 1_555
Er2_6 Ni3_2 2.756737 1_655
Er2_6 Ni3_6 2.756737 1_555
Er2_6 Ni1_3 2.790355 1_654
Er2_6 Ni1_7 2.790355 1_554
Er2_6 Ni0_2 2.790355 1_655
Er2_6 Ni0_6 2.790355 1_555
Er2_6 In0_6 3.214683 1_555
Er2_6 In0_2 3.214683 1_655
Er2_6 In1_2 3.214683 1_655
Er2_6 In1_6 3.214683 1_555
Er2_7 Ni3_7 2.756737 1_555
Er2_7 Ni3_3 2.756737 1_655
Er2_7 Ni1_2 2.790355 1_655
Er2_7 Ni1_6 2.790355 1_555
Er2_7 Ni0_3 2.790355 1_655
Er2_7 Ni0_7 2.790355 1_555
Er2_7 In1_3 3.214683 1_655
Er2_7 In0_3 3.214683 1_655
Er2_7 In0_7 3.214683 1_555
Er2_7 In1_7 3.214683 1_555
Er3_0 Ni2_0 2.756737 1_555
Er3_0 Ni2_4 2.756737 1_555
Er3_0 Ni1_0 2.790355 1_555
Er3_0 Ni1_4 2.790355 1_555
Er3_0 Ni0_1 2.790355 1_555
Er3_0 Ni0_5 2.790355 1_555
Er3_0 In1_7 3.214683 1_555
Er3_0 In1_3 3.214683 1_555
Er3_0 In0_0 3.214683 1_555
Er3_0 In0_4 3.214683 1_555
Er3_1 Ni2_1 2.756737 1_555
Er3_1 Ni2_5 2.756737 1_555
Er3_1 Ni0_0 2.790355 1_556
Er3_1 Ni0_4 2.790355 1_556
Er3_1 Ni1_1 2.790355 1_555
Er3_1 Ni1_5 2.790355 1_555
Er3_1 In1_2 3.214683 1_556
Er3_1 In1_6 3.214683 1_556
Er3_1 In0_1 3.214683 1_555
Er3_1 In0_5 3.214683 1_555
Er3_2 Ni2_2 2.756737 1_555
Er3_2 Ni2_6 2.756737 1_555
Er3_2 Ni0_7 2.790355 1_555
Er3_2 Ni0_3 2.790355 1_555
Er3_2 Ni1_2 2.790355 1_555
Er3_2 Ni1_6 2.790355 1_555
Er3_2 In1_1 3.214683 1_565
Er3_2 In1_5 3.214683 1_565
Er3_2 In0_6 3.214683 1_555
Er3_2 In0_2 3.214683 1_555
Er3_3 Ni2_7 2.756737 1_555
Er3_3 Ni2_3 2.756737 1_555
Er3_3 Ni0_2 2.790355 1_556
Er3_3 Ni0_6 2.790355 1_556
Er3_3 Ni1_3 2.790355 1_555
Er3_3 Ni1_7 2.790355 1_555
Er3_3 In1_4 3.214683 1_566
Er3_3 In1_0 3.214683 1_566
Er3_3 In0_3 3.214683 1_555
Er3_3 In0_7 3.214683 1_555
Er3_4 Ni2_4 2.756737 1_555
Er3_4 Ni2_0 2.756737 1_655
Er3_4 Ni1_0 2.790355 1_655
Er3_4 Ni1_4 2.790355 1_555
Er3_4 Ni0_5 2.790355 1_555
Er3_4 Ni0_1 2.790355 1_655
Er3_4 In1_3 3.214683 1_655
Er3_4 In1_7 3.214683 1_555
Er3_4 In0_4 3.214683 1_555
Er3_4 In0_0 3.214683 1_655
Er3_5 Ni2_1 2.756737 1_655
Er3_5 Ni2_5 2.756737 1_555
Er3_5 Ni0_0 2.790355 1_656
Er3_5 Ni0_4 2.790355 1_556
Er3_5 Ni1_1 2.790355 1_655
Er3_5 Ni1_5 2.790355 1_555
Er3_5 In1_2 3.214683 1_656
Er3_5 In1_6 3.214683 1_556
Er3_5 In0_1 3.214683 1_655
Er3_5 In0_5 3.214683 1_555
Er3_6 Ni2_6 2.756737 1_555
Er3_6 Ni2_2 2.756737 1_655
Er3_6 Ni0_3 2.790355 1_655
Er3_6 Ni1_2 2.790355 1_655
Er3_6 Ni1_6 2.790355 1_555
Er3_6 Ni0_7 2.790355 1_555
Er3_6 In1_1 3.214683 1_665
Er3_6 In1_5 3.214683 1_565
Er3_6 In0_2 3.214683 1_655
Er3_6 In0_6 3.214683 1_555
Er3_7 Ni2_7 2.756737 1_555
Er3_7 Ni2_3 2.756737 1_655
Er3_7 Ni0_2 2.790355 1_656
Er3_7 Ni0_6 2.790355 1_556
Er3_7 Ni1_3 2.790355 1_655
Er3_7 Ni1_7 2.790355 1_555
Er3_7 In1_0 3.214683 1_666
Er3_7 In1_4 3.214683 1_566
Er3_7 In0_3 3.214683 1_655
Er3_7 In0_7 3.214683 1_555
In0_0 Ni2_0 2.921789 1_555
In0_0 Ni0_0 2.921789 1_555
In0_0 Ni3_0 2.921789 1_555
In0_0 Ni1_0 2.921789 1_555
In0_0 In0_4 3.472913 1_555
In0_0 In0_4 3.472913 1_455
In0_1 Ni0_1 2.921789 1_555
In0_1 Ni3_1 2.921789 1_555
In0_1 Ni1_1 2.921789 1_555
In0_1 Ni2_1 2.921789 1_555
In0_1 In0_5 3.472913 1_555
In0_1 In0_5 3.472913 1_455
In0_2 Ni3_2 2.921789 1_555
In0_2 Ni1_2 2.921789 1_555
In0_2 Ni2_2 2.921789 1_555
In0_2 Ni0_2 2.921789 1_555
In0_2 In0_6 3.472913 1_555
In0_2 In0_6 3.472913 1_455
In0_3 Ni3_3 2.921789 1_555
In0_3 Ni0_3 2.921789 1_555
In0_3 Ni1_3 2.921789 1_555
In0_3 Ni2_3 2.921789 1_555
In0_3 In0_7 3.472913 1_555
In0_3 In0_7 3.472913 1_455
In0_4 Ni3_4 2.921789 1_555
In0_4 Ni2_4 2.921789 1_555
In0_4 Ni0_4 2.921789 1_555
In0_4 Ni1_4 2.921789 1_555
In0_5 Ni0_5 2.921789 1_555
In0_5 Ni1_5 2.921789 1_555
In0_5 Ni3_5 2.921789 1_555
In0_5 Ni2_5 2.921789 1_555
In0_6 Ni3_6 2.921789 1_555
In0_6 Ni2_6 2.921789 1_555
In0_6 Ni1_6 2.921789 1_555
In0_6 Ni0_6 2.921789 1_555
In0_7 Ni3_7 2.921789 1_555
In0_7 Ni0_7 2.921789 1_555
In0_7 Ni1_7 2.921789 1_555
In0_7 Ni2_7 2.921789 1_555
In1_0 Ni0_2 2.921789 1_545
In1_0 Ni2_3 2.921789 1_544
In1_0 Ni1_1 2.921789 1_554
In1_0 Ni3_0 2.921789 1_555
In1_0 In1_4 3.472913 1_555
In1_0 In1_4 3.472913 1_455
In1_1 Ni0_3 2.921789 1_545
In1_1 Ni3_1 2.921789 1_555
In1_1 Ni2_2 2.921789 1_545
In1_1 Ni1_0 2.921789 1_555
In1_1 In1_5 3.472913 1_555
In1_1 In1_5 3.472913 1_455
In1_2 Ni2_1 2.921789 1_554
In1_2 Ni1_3 2.921789 1_554
In1_2 Ni0_0 2.921789 1_555
In1_2 Ni3_2 2.921789 1_555
In1_2 In1_6 3.472913 1_555
In1_2 In1_6 3.472913 1_455
In1_3 Ni2_0 2.921789 1_555
In1_3 Ni1_2 2.921789 1_555
In1_3 Ni3_3 2.921789 1_555
In1_3 Ni0_1 2.921789 1_555
In1_3 In1_7 3.472913 1_555
In1_3 In1_7 3.472913 1_455
In1_4 Ni2_7 2.921789 1_544
In1_4 Ni0_6 2.921789 1_545
In1_4 Ni3_4 2.921789 1_555
In1_4 Ni1_5 2.921789 1_554
In1_5 Ni0_7 2.921789 1_545
In1_5 Ni2_6 2.921789 1_545
In1_5 Ni3_5 2.921789 1_555
In1_5 Ni1_4 2.921789 1_555
In1_6 Ni2_5 2.921789 1_554
In1_6 Ni1_7 2.921789 1_554
In1_6 Ni0_4 2.921789 1_555
In1_6 Ni3_6 2.921789 1_555
In1_7 Ni1_6 2.921789 1_555
In1_7 Ni2_4 2.921789 1_555
In1_7 Ni0_5 2.921789 1_555
In1_7 Ni3_7 2.921789 1_555
Ni0_0 Ni1_1 2.467281 1_554
Ni0_1 Ni1_0 2.467281 1_555
Ni0_2 Ni1_3 2.467281 1_554
Ni0_3 Ni1_2 2.467281 1_555
Ni0_4 Ni1_5 2.467281 1_554
Ni0_5 Ni1_4 2.467281 1_555
Ni0_6 Ni1_7 2.467281 1_554
Ni0_7 Ni1_6 2.467281 1_555
Ni2_0 Ni3_2 2.467281 1_555
Ni2_1 Ni3_3 2.467281 1_555
Ni2_2 Ni3_0 2.467281 1_565
Ni2_3 Ni3_1 2.467281 1_565
Ni2_4 Ni3_6 2.467281 1_555
Ni2_5 Ni3_7 2.467281 1_555
Ni2_6 Ni3_4 2.467281 1_565
Ni2_7 Ni3_5 2.467281 1_565
