# generated using pymatgen
data_LaSbPd
_symmetry_space_group_name_H-M   'P 1'
_cell_length_a   4.92135076
_cell_length_b   4.92135076
_cell_length_c   7.49307100
_cell_angle_alpha   90.00000000
_cell_angle_beta   90.00000000
_cell_angle_gamma   120.00001023
_symmetry_Int_Tables_number   1
_chemical_formula_structural   LaSbPd
_chemical_formula_sum   'La2 Sb2 Pd2'
_cell_volume   157.16617154
_cell_formula_units_Z   2
loop_
 _symmetry_equiv_pos_site_id
 _symmetry_equiv_pos_as_xyz
  1  'x, y, z'
loop_
 _atom_site_type_symbol
 _atom_site_label
 _atom_site_symmetry_multiplicity
 _atom_site_fract_x
 _atom_site_fract_y
 _atom_site_fract_z
 _atom_site_occupancy
  La  La0  1  0.00000000  0.00000000  0.27430600  1
  La  La1  1  0.00000000  0.00000000  0.72569400  1
  Sb  Sb0  1  0.66666700  0.33333300  0.96413100  1
  Sb  Sb1  1  0.33333300  0.66666700  0.03586900  1
  Pd  Pd0  1  0.33333300  0.66666700  0.46362200  1
  Pd  Pd1  1  0.66666700  0.33333300  0.53637800  1
loop_
_geom_bond_atom_site_label_1
_geom_bond_atom_site_label_2
_geom_bond_distance
_geom_bond_site_symmetry_2
La0 Pd0 3.175771 1_545
La0 Pd0 3.175775 1_445
La0 Pd0 3.175775 1_555
La0 Sb1 3.356374 1_545
La0 Sb1 3.356377 1_445
La0 Sb1 3.356377 1_555
La0 Pd1 3.453900 1_455
La0 Pd1 3.453904 1_445
La0 Pd1 3.453904 1_555
La0 Sb0 3.670824 1_454
La0 Sb0 3.670827 1_554
La0 Sb0 3.670827 1_444
La1 Pd1 3.175771 1_455
La1 Pd1 3.175775 1_555
La1 Pd1 3.175775 1_445
La1 Sb0 3.356374 1_455
La1 Sb0 3.356377 1_445
La1 Sb0 3.356377 1_555
La1 Pd0 3.453900 1_545
La1 Pd0 3.453904 1_445
La1 Pd0 3.453904 1_555
La1 Sb1 3.670824 1_546
La1 Sb1 3.670827 1_556
La1 Sb1 3.670827 1_446
Sb0 Sb1 2.891740 1_546
Sb0 Sb1 2.891740 1_656
Sb0 Sb1 2.891749 1_556
Pd0 Pd1 2.893168 1_455
Pd0 Pd1 2.893168 1_565
Pd0 Pd1 2.893176 1_555
Pd0 Sb1 3.205184 1_555
Pd1 Sb0 3.205184 1_555
