# generated using pymatgen
data_Fe4As3O23
_symmetry_space_group_name_H-M   'P 1'
_cell_length_a   7.91633900
_cell_length_b   7.91633900
_cell_length_c   7.91633900
_cell_angle_alpha   90.00000000
_cell_angle_beta   90.00000000
_cell_angle_gamma   90.00000000
_symmetry_Int_Tables_number   1
_chemical_formula_structural   Fe4As3O23
_chemical_formula_sum   'Fe4 As3 O23'
_cell_volume   496.10448235
_cell_formula_units_Z   1
loop_
 _symmetry_equiv_pos_site_id
 _symmetry_equiv_pos_as_xyz
  1  'x, y, z'
loop_
 _atom_site_type_symbol
 _atom_site_label
 _atom_site_symmetry_multiplicity
 _atom_site_fract_x
 _atom_site_fract_y
 _atom_site_fract_z
 _atom_site_occupancy
  Fe  Fe0  1  0.86459600  0.86459600  0.13540400  1
  Fe  Fe1  1  0.86459600  0.13540400  0.86459600  1
  Fe  Fe2  1  0.13540400  0.86459600  0.86459600  1
  Fe  Fe3  1  0.13540400  0.13540400  0.13540400  1
  As  As0  1  0.00000000  0.00000000  0.50000000  1
  As  As1  1  0.00000000  0.50000000  0.00000000  1
  As  As2  1  0.50000000  0.00000000  0.00000000  1
  O  O0  1  0.62114500  0.87239100  0.12760900  1
  O  O1  1  0.87239100  0.87239100  0.37885500  1
  O  O2  1  0.87239100  0.62114500  0.12760900  1
  O  O3  1  0.62114500  0.12760900  0.87239100  1
  O  O4  1  0.87239100  0.12760900  0.62114500  1
  O  O5  1  0.87239100  0.37885500  0.87239100  1
  O  O6  1  0.37885500  0.87239100  0.87239100  1
  O  O7  1  0.12760900  0.87239100  0.62114500  1
  O  O8  1  0.12760900  0.62114500  0.87239100  1
  O  O9  1  0.37885500  0.12760900  0.12760900  1
  O  O10  1  0.12760900  0.12760900  0.37885500  1
  O  O11  1  0.12760900  0.37885500  0.12760900  1
  O  O12  1  0.11554300  0.11554300  0.88445700  1
  O  O13  1  0.11554300  0.88445700  0.11554300  1
  O  O14  1  0.88445700  0.11554300  0.11554300  1
  O  O15  1  0.88445700  0.88445700  0.88445700  1
  O  O16  1  0.50000000  0.50000000  0.00000000  1
  O  O17  1  0.50000000  0.00000000  0.50000000  1
  O  O18  1  0.00000000  0.50000000  0.50000000  1
  O  O19  1  0.35190000  0.35190000  0.64810000  1
  O  O20  1  0.35190000  0.64810000  0.35190000  1
  O  O21  1  0.64810000  0.35190000  0.35190000  1
  O  O22  1  0.64810000  0.64810000  0.64810000  1
loop_
_geom_bond_atom_site_label_1
_geom_bond_atom_site_label_2
_geom_bond_distance
_geom_bond_site_symmetry_2
Fe0 O2 1.929215 1_555
Fe0 O0 1.929215 1_555
Fe0 O1 1.929215 1_555
Fe0 O14 1.998986 1_565
Fe0 O13 1.998986 1_655
Fe0 O15 1.998986 1_554
Fe1 O3 1.929215 1_555
Fe1 O4 1.929215 1_555
Fe1 O5 1.929215 1_555
Fe1 O14 1.998986 1_556
Fe1 O12 1.998986 1_655
Fe1 O15 1.998986 1_545
Fe2 O8 1.929215 1_555
Fe2 O7 1.929215 1_555
Fe2 O6 1.929215 1_555
Fe2 O13 1.998986 1_556
Fe2 O12 1.998986 1_565
Fe2 O15 1.998986 1_455
Fe3 O9 1.929215 1_555
Fe3 O11 1.929215 1_555
Fe3 O10 1.929215 1_555
Fe3 O12 1.998986 1_554
Fe3 O13 1.998986 1_545
Fe3 O14 1.998986 1_455
As0 O10 1.720675 1_555
As0 O7 1.720675 1_545
As0 O4 1.720675 1_455
As0 O1 1.720675 1_445
As1 O11 1.720675 1_555
As1 O8 1.720675 1_554
As1 O2 1.720675 1_455
As1 O5 1.720675 1_454
As2 O9 1.720675 1_555
As2 O3 1.720675 1_554
As2 O0 1.720675 1_545
As2 O6 1.720675 1_544
