# generated using pymatgen
data_Li6V3P8O29
_symmetry_space_group_name_H-M   'P 1'
_cell_length_a   9.78751600
_cell_length_b   9.80872607
_cell_length_c   13.94888610
_cell_angle_alpha   90.13552085
_cell_angle_beta   90.02487945
_cell_angle_gamma   119.85261025
_symmetry_Int_Tables_number   1
_chemical_formula_structural   Li6V3P8O29
_chemical_formula_sum   'Li12 V6 P16 O58'
_cell_volume   1161.43894651
_cell_formula_units_Z   2
loop_
 _symmetry_equiv_pos_site_id
 _symmetry_equiv_pos_as_xyz
  1  'x, y, z'
loop_
 _atom_site_type_symbol
 _atom_site_label
 _atom_site_symmetry_multiplicity
 _atom_site_fract_x
 _atom_site_fract_y
 _atom_site_fract_z
 _atom_site_occupancy
  Li  Li0  1  0.76358700  0.66874200  0.93943200  1
  Li  Li1  1  0.90728300  0.67728400  0.43560500  1
  Li  Li2  1  0.32031000  0.22897600  0.43921700  1
  Li  Li3  1  0.67049000  0.33411400  0.11698900  1
  Li  Li4  1  0.32463500  0.09078600  0.93943100  1
  Li  Li5  1  0.90408700  0.23041900  0.93997500  1
  Li  Li6  1  0.22824800  0.90639100  0.55858100  1
  Li  Li7  1  0.77001200  0.09333700  0.43669700  1
  Li  Li8  1  0.67806600  0.77287200  0.55893800  1
  Li  Li9  1  0.09276100  0.32202900  0.56001600  1
  Li  Li10  1  0.23382000  0.33223200  0.06105200  1
  Li  Li11  1  0.97146100  0.95827200  0.00634600  1
  V  V0  1  0.43480000  0.00011900  0.75218800  1
  V  V1  1  0.56281000  0.99561700  0.24500900  1
  V  V2  1  0.00581000  0.56836600  0.24735200  1
  V  V3  1  0.99883900  0.43404100  0.75175700  1
  V  V4  1  0.56852600  0.56835300  0.75023500  1
  V  V5  1  0.43649300  0.43814600  0.25088600  1
  P  P0  1  0.77633300  0.68483400  0.15666400  1
  P  P1  1  0.91307500  0.67979200  0.65585200  1
  P  P2  1  0.32055000  0.23167600  0.65901900  1
  P  P3  1  0.66585900  0.33340400  0.87511100  1
  P  P4  1  0.66857400  0.33313600  0.37083100  1
  P  P5  1  0.31315900  0.09043900  0.15560200  1
  P  P6  1  0.23098800  0.91403900  0.34130000  1
  P  P7  1  0.91025400  0.22481000  0.15848800  1
  P  P8  1  0.08409100  0.77577200  0.84176200  1
  P  P9  1  0.76781200  0.08771900  0.65695800  1
  P  P10  1  0.69265900  0.91587000  0.84218900  1
  P  P11  1  0.33308100  0.66660200  0.63056200  1
  P  P12  1  0.33282600  0.66460700  0.12734700  1
  P  P13  1  0.68241300  0.77165000  0.34117200  1
  P  P14  1  0.08818900  0.31886400  0.34383600  1
  P  P15  1  0.22969100  0.31781100  0.84250300  1
  O  O0  1  0.76100700  0.75862400  0.43084300  1
  O  O1  1  0.74806500  0.66425400  0.65734000  1
  O  O2  1  0.99290400  0.79211700  0.92268800  1
  O  O3  1  0.91746000  0.65873800  0.16154600  1
  O  O4  1  0.62408200  0.52082200  0.16857500  1
  O  O5  1  0.67878400  0.48946700  0.83658300  1
  O  O6  1  0.48116600  0.38120900  0.67864400  1
  O  O7  1  0.22692200  0.22941700  0.93154800  1
  O  O8  1  0.33361300  0.25705900  0.15868800  1
  O  O9  1  0.81610800  0.48415800  0.32999300  1
  O  O10  1  0.89977900  0.51856900  0.67770200  1
  O  O11  1  0.51667800  0.33339400  0.32892000  1
  O  O12  1  0.66503400  0.33329800  0.98342000  1
  O  O13  1  0.66515600  0.33092100  0.47771500  1
  O  O14  1  0.50971100  0.19042300  0.83597100  1
  O  O15  1  0.89411300  0.37435100  0.17000900  1
  O  O16  1  0.80956200  0.32025600  0.83664100  1
  O  O17  1  0.33683500  0.08318300  0.65864800  1
  O  O18  1  0.21061600  0.00259100  0.24896700  1
  O  O19  1  0.24018100  0.00423200  0.43102400  1
  O  O20  1  0.22826400  0.00724000  0.06576000  1
  O  O21  1  0.47976600  0.10773200  0.16838400  1
  O  O22  1  0.66820600  0.18445400  0.32742200  1
  O  O23  1  0.25527800  0.91834800  0.83949600  1
  O  O24  1  0.61927200  0.10052400  0.67880900  1
  O  O25  1  0.91685100  0.25227900  0.65918800  1
  O  O26  1  0.00815200  0.79579700  0.74248300  1
  O  O27  1  0.99987900  0.75102100  0.56428100  1
  O  O28  1  0.99682400  0.23681200  0.43261800  1
  O  O29  1  0.08231600  0.75036000  0.34072900  1
  O  O30  1  0.38117000  0.90432300  0.32602400  1
  O  O31  1  0.74530700  0.08160000  0.15868100  1
  O  O32  1  0.32690900  0.81396800  0.67152300  1
  O  O33  1  0.53706500  0.91661100  0.83422800  1
  O  O34  1  0.79984300  0.00412200  0.92392100  1
  O  O35  1  0.75281600  0.00122500  0.56500800  1
  O  O36  1  0.78848400  0.99175300  0.74315100  1
  O  O37  1  0.66835000  0.92089200  0.34060500  1
  O  O38  1  0.18607900  0.66483800  0.17329500  1
  O  O39  1  0.08472400  0.62057400  0.83314600  1
  O  O40  1  0.48004900  0.81331900  0.17101500  1
  O  O41  1  0.32809200  0.65489500  0.02138200  1
  O  O42  1  0.33145100  0.66630200  0.52342700  1
  O  O43  1  0.48902000  0.67468600  0.66915800  1
  O  O44  1  0.09723800  0.47779500  0.32877500  1
  O  O45  1  0.18654500  0.51292600  0.67138700  1
  O  O46  1  0.66320800  0.74417700  0.83876200  1
  O  O47  1  0.79003500  0.79024200  0.24895600  1
  O  O48  1  0.77815100  0.76887900  0.06656200  1
  O  O49  1  0.52035800  0.62383300  0.32589600  1
  O  O50  1  0.33203500  0.51369700  0.17014500  1
  O  O51  1  0.37987200  0.47515200  0.82895700  1
  O  O52  1  0.08143300  0.33731000  0.83986700  1
  O  O53  1  0.00236000  0.23110300  0.06985200  1
  O  O54  1  0.00088100  0.21039600  0.25076400  1
  O  O55  1  0.25262600  0.33436300  0.34362700  1
  O  O56  1  0.24414700  0.24560400  0.56900600  1
  O  O57  1  0.20894500  0.20954500  0.74971700  1
loop_
_geom_bond_atom_site_label_1
_geom_bond_atom_site_label_2
_geom_bond_distance
_geom_bond_site_symmetry_2
Li0 O2 1.963245 1_555
Li0 O48 1.995468 1_556
Li0 O46 2.052317 1_555
Li0 O5 2.091233 1_555
Li1 O0 1.956526 1_555
Li1 O27 1.976352 1_555
Li1 O29 1.996004 1_655
Li1 O9 2.204033 1_555
Li2 O19 1.940440 1_555
Li2 O55 1.993186 1_555
Li2 O56 1.995169 1_555
Li2 O11 2.271624 1_555
Li3 O12 1.863765 1_554
Li3 O15 2.151845 1_555
Li3 O21 2.193485 1_555
Li3 O4 2.213636 1_555
Li4 O20 1.976149 1_556
Li4 O7 2.017684 1_555
Li4 O23 2.027262 1_545
Li4 O14 2.136731 1_555
Li5 O34 1.939321 1_555
Li5 O53 2.049205 1_656
Li5 O52 2.063823 1_655
Li5 O16 2.127556 1_555
Li6 O27 1.983525 1_455
Li6 O19 1.999289 1_565
Li6 O17 2.058508 1_565
Li6 O32 2.261234 1_555
Li7 O28 1.949903 1_555
Li7 O35 1.975989 1_555
Li7 O37 1.990052 1_545
Li7 O22 2.237572 1_555
Li8 O35 1.981669 1_565
Li8 O0 1.996032 1_555
Li8 O1 2.054573 1_555
Li8 O43 2.224923 1_555
Li9 O56 1.969554 1_555
Li9 O28 1.987075 1_455
Li9 O25 2.044479 1_455
Li9 O45 2.244089 1_555
Li10 O53 1.973527 1_555
Li10 O8 2.018183 1_555
Li10 O7 2.051415 1_554
Li10 O50 2.165738 1_555
Li11 O48 2.060569 1_555
Li11 O2 2.096108 1_554
Li11 O34 2.257966 1_564
Li11 O20 2.455500 1_665
O0 P13 1.506768 1_555
O1 P1 1.544993 1_555
O1 V4 2.003481 1_555
O2 P8 1.496319 1_655
O3 P0 1.526463 1_555
O3 V2 1.932177 1_655
O4 P0 1.565608 1_555
O4 V5 1.967444 1_555
O5 P3 1.568208 1_555
O5 V4 2.012109 1_555
O6 P2 1.549121 1_555
O6 V4 1.877752 1_555
O7 P15 1.508963 1_555
O8 P5 1.544960 1_555
O8 V5 2.007577 1_555
O9 P4 1.574537 1_555
O9 V2 1.984452 1_655
O10 P1 1.551795 1_555
O10 V3 1.870288 1_555
O11 P4 1.598439 1_555
O11 V5 1.914103 1_555
O12 P3 1.510815 1_555
O13 P4 1.491270 1_555
O14 P3 1.569236 1_555
O14 V0 2.003537 1_555
O15 P7 1.559457 1_555
O15 V2 1.974515 1_655
O16 P3 1.569625 1_555
O16 V3 2.007314 1_555
O17 P2 1.542073 1_555
O17 V0 2.016755 1_555
O18 P5 1.609768 1_555
O18 P6 1.621873 1_545
O19 P6 1.507497 1_545
O20 P5 1.498695 1_555
O21 P5 1.563292 1_555
O21 V1 1.976625 1_545
O22 P4 1.576109 1_555
O22 V1 1.975644 1_545
O23 P8 1.559358 1_555
O23 V0 1.953778 1_565
O24 P9 1.550585 1_555
O24 V0 1.874470 1_555
O25 P9 1.545929 1_555
O25 V3 2.013384 1_555
O26 P1 1.599785 1_455
O26 P8 1.629263 1_555
O27 P1 1.501900 1_555
O28 P14 1.506733 1_655
O29 P6 1.539221 1_555
O29 V2 2.025171 1_555
O30 P6 1.534521 1_555
O30 V1 1.913419 1_555
O31 P7 1.523782 1_555
O31 V1 1.964375 1_545
O32 P11 1.581944 1_555
O32 V0 1.945455 1_565
O33 P10 1.530497 1_555
O33 V0 1.949871 1_565
O34 P10 1.496616 1_545
O35 P9 1.502366 1_555
O36 P9 1.602264 1_565
O36 P10 1.628839 1_555
O37 P13 1.537069 1_555
O37 V1 2.034588 1_555
O38 P12 1.574086 1_555
O38 V2 1.849234 1_555
O39 P8 1.529833 1_555
O39 V3 1.949693 1_455
O40 P12 1.574047 1_555
O40 V1 1.862087 1_555
O41 P12 1.480156 1_555
O42 P11 1.494472 1_555
O43 P11 1.582463 1_555
O43 V4 1.945560 1_555
O44 P14 1.531762 1_555
O44 V2 1.917098 1_555
O45 P11 1.583018 1_555
O45 V3 1.954845 1_455
O46 P10 1.561365 1_555
O46 V4 1.937982 1_555
O47 P0 1.612392 1_555
O47 P13 1.615070 1_555
O48 P0 1.499943 1_555
O49 P13 1.540183 1_555
O49 V5 1.894130 1_555
O50 P12 1.593838 1_555
O50 V5 1.902653 1_555
O51 P15 1.523596 1_555
O51 V4 1.943438 1_555
O52 P15 1.555584 1_555
O52 V3 1.957678 1_455
O53 P7 1.513619 1_455
O54 P7 1.608804 1_455
O54 P14 1.623275 1_555
O55 P14 1.539418 1_555
O55 V5 2.032928 1_555
O56 P2 1.502014 1_555
O57 P2 1.614721 1_555
O57 P15 1.619470 1_555
