# generated using pymatgen
data_EuAlInWO6
_symmetry_space_group_name_H-M   'P 1'
_cell_length_a   10.11347207
_cell_length_b   10.16244516
_cell_length_c   8.86804071
_cell_angle_alpha   90.00000000
_cell_angle_beta   90.00000000
_cell_angle_gamma   90.00000000
_symmetry_Int_Tables_number   1
_chemical_formula_structural   EuAlInWO6
_chemical_formula_sum   'Eu4 Al4 In4 W4 O24'
_cell_volume   911.43598778
_cell_formula_units_Z   4
loop_
 _symmetry_equiv_pos_site_id
 _symmetry_equiv_pos_as_xyz
  1  'x, y, z'
loop_
 _atom_site_type_symbol
 _atom_site_label
 _atom_site_symmetry_multiplicity
 _atom_site_fract_x
 _atom_site_fract_y
 _atom_site_fract_z
 _atom_site_occupancy
  Eu  Eu0  1  -0.00000000  0.00000000  0.00000000  1
  Eu  Eu1  1  0.50000000  0.50000000  0.50000000  1
  Eu  Eu2  1  -0.00000000  0.50000000  0.50000000  1
  Eu  Eu3  1  0.50000000  0.00000000  0.00000000  1
  Al  Al0  1  0.75000000  0.75000000  0.75000000  1
  Al  Al1  1  0.25000000  0.25000000  0.75000000  1
  Al  Al2  1  0.25000000  0.75000000  0.25000000  1
  Al  Al3  1  0.75000000  0.25000000  0.25000000  1
  In  In0  1  0.50000000  0.00000000  0.50000000  1
  In  In1  1  0.50000000  0.50000000  0.00000000  1
  In  In2  1  -0.00000000  0.50000000  0.00000000  1
  In  In3  1  -0.00000000  0.00000000  0.50000000  1
  W  W0  1  0.25000000  0.25000000  0.25000000  1
  W  W1  1  0.75000000  0.75000000  0.25000000  1
  W  W2  1  0.75000000  0.25000000  0.75000000  1
  W  W3  1  0.25000000  0.75000000  0.75000000  1
  O  O0  1  0.01790771  0.20047485  0.28220749  1
  O  O1  1  -0.01790771  0.79952515  0.28220749  1
  O  O2  1  -0.01790771  0.20047485  0.71779251  1
  O  O3  1  0.01790771  0.79952515  0.71779251  1
  O  O4  1  0.29555474  0.01849430  0.18185347  1
  O  O5  1  0.29555474  -0.01849430  0.81814653  1
  O  O6  1  0.70444526  -0.01849430  0.18185347  1
  O  O7  1  0.70444526  0.01849430  0.81814653  1
  O  O8  1  0.23092653  0.23336898  0.03956522  1
  O  O9  1  0.76907347  0.23336898  -0.03956522  1
  O  O10  1  0.23092653  0.76663102  -0.03956522  1
  O  O11  1  0.76907347  0.76663102  0.03956522  1
  O  O12  1  0.48209229  0.29952515  0.21779251  1
  O  O13  1  0.51790771  0.70047485  0.21779251  1
  O  O14  1  0.51790771  0.29952515  0.78220749  1
  O  O15  1  0.48209229  0.70047485  0.78220749  1
  O  O16  1  0.20444526  0.48150570  0.31814653  1
  O  O17  1  0.20444526  0.51849430  0.68185347  1
  O  O18  1  0.79555474  0.51849430  0.31814653  1
  O  O19  1  0.79555474  0.48150570  0.68185347  1
  O  O20  1  0.26907347  0.26663102  0.46043478  1
  O  O21  1  0.73092653  0.26663102  0.53956522  1
  O  O22  1  0.26907347  0.73336898  0.53956522  1
  O  O23  1  0.73092653  0.73336898  0.46043478  1
loop_
_geom_bond_atom_site_label_1
_geom_bond_atom_site_label_2
_geom_bond_distance
_geom_bond_site_symmetry_2
Eu0 O2 3.232119 1_554
Eu0 O3 3.232119 1_544
Eu0 O1 3.232119 1_545
Eu0 O0 3.232119 1_555
Eu1 O12 3.232119 1_555
Eu1 O13 3.232119 1_555
Eu1 O15 3.232119 1_555
Eu1 O14 3.232119 1_555
Eu2 O18 2.628927 1_455
Eu2 O19 2.628927 1_455
Eu2 O17 2.628927 1_555
Eu2 O16 2.628927 1_555
Eu3 O6 2.628927 1_555
Eu3 O7 2.628927 1_554
Eu3 O5 2.628927 1_554
Eu3 O4 2.628927 1_555
Al0 O11 2.580652 1_556
Al0 O23 2.580652 1_555
Al1 O20 2.580652 1_555
Al1 O8 2.580652 1_556
Al2 O22 2.580652 1_555
Al2 O10 2.580652 1_555
Al3 O21 2.580652 1_555
Al3 O9 2.580652 1_555
In1 O15 2.813135 1_554
In1 O14 2.813135 1_554
In1 O12 2.813135 1_555
In1 O13 2.813135 1_555
In3 O1 2.813135 1_545
In3 O0 2.813135 1_555
In3 O3 2.813135 1_545
In3 O2 2.813135 1_555
O0 W0 2.417542 1_555
O1 W1 2.417542 1_455
O2 W2 2.417542 1_455
O3 W3 2.417542 1_555
O4 W0 2.472347 1_555
O5 W3 2.472347 1_545
O6 W1 2.472347 1_545
O7 W2 2.472347 1_555
O8 W0 1.883685 1_555
O9 W2 1.883685 1_554
O10 W3 1.883685 1_554
O11 W1 1.883685 1_555
O12 W0 2.417542 1_555
O13 W1 2.417542 1_555
O14 W2 2.417542 1_555
O15 W3 2.417542 1_555
O16 W0 2.472347 1_555
O17 W3 2.472347 1_555
O18 W1 2.472347 1_555
O19 W2 2.472347 1_555
O20 W0 1.883685 1_555
O21 W2 1.883685 1_555
O22 W3 1.883685 1_555
O23 W1 1.883685 1_555
