# generated using pymatgen
data_Ba2Sm3Si3SeO12
_symmetry_space_group_name_H-M   'P 1'
_cell_length_a   10.10036640
_cell_length_b   10.10036640
_cell_length_c   7.20526700
_cell_angle_alpha   90.00000000
_cell_angle_beta   90.00000000
_cell_angle_gamma   120.00000259
_symmetry_Int_Tables_number   1
_chemical_formula_structural   Ba2Sm3Si3SeO12
_chemical_formula_sum   'Ba4 Sm6 Si6 Se2 O24'
_cell_volume   636.58288149
_cell_formula_units_Z   2
loop_
 _symmetry_equiv_pos_site_id
 _symmetry_equiv_pos_as_xyz
  1  'x, y, z'
loop_
 _atom_site_type_symbol
 _atom_site_label
 _atom_site_symmetry_multiplicity
 _atom_site_fract_x
 _atom_site_fract_y
 _atom_site_fract_z
 _atom_site_occupancy
  Ba  Ba0  1  0.66666700  0.33333300  0.99819300  1
  Ba  Ba1  1  0.33333300  0.66666700  0.00180700  1
  Ba  Ba2  1  0.33333300  0.66666700  0.49819300  1
  Ba  Ba3  1  0.66666700  0.33333300  0.50180700  1
  Sm  Sm0  1  0.73349700  0.99557300  0.75000000  1
  Sm  Sm1  1  0.26650300  0.00442700  0.25000000  1
  Sm  Sm2  1  0.26207600  0.26650300  0.75000000  1
  Sm  Sm3  1  0.73792400  0.73349700  0.25000000  1
  Sm  Sm4  1  0.00442700  0.73792400  0.75000000  1
  Sm  Sm5  1  0.99557300  0.26207600  0.25000000  1
  Si  Si0  1  0.97931500  0.36094100  0.75000000  1
  Si  Si1  1  0.02068500  0.63905900  0.25000000  1
  Si  Si2  1  0.38162600  0.02068500  0.75000000  1
  Si  Si3  1  0.61837400  0.97931500  0.25000000  1
  Si  Si4  1  0.63905900  0.61837400  0.75000000  1
  Si  Si5  1  0.36094100  0.38162600  0.25000000  1
  Se  Se0  1  0.00000000  0.00000000  0.00000000  1
  Se  Se1  1  0.00000000  0.00000000  0.50000000  1
  O  O0  1  0.90116200  0.24678500  0.93082800  1
  O  O1  1  0.09883800  0.75321500  0.06917200  1
  O  O2  1  0.34562200  0.09883800  0.93082800  1
  O  O3  1  0.09883800  0.75321500  0.43082800  1
  O  O4  1  0.65437800  0.90116200  0.06917200  1
  O  O5  1  0.90116200  0.24678500  0.56917200  1
  O  O6  1  0.75321500  0.65437800  0.93082800  1
  O  O7  1  0.65437800  0.90116200  0.43082800  1
  O  O8  1  0.24678500  0.34562200  0.06917200  1
  O  O9  1  0.34562200  0.09883800  0.56917200  1
  O  O10  1  0.24678500  0.34562200  0.43082800  1
  O  O11  1  0.75321500  0.65437800  0.56917200  1
  O  O12  1  0.91908000  0.48627200  0.75000000  1
  O  O13  1  0.08092000  0.51372800  0.25000000  1
  O  O14  1  0.56719300  0.08092000  0.75000000  1
  O  O15  1  0.43280700  0.91908000  0.25000000  1
  O  O16  1  0.51372800  0.43280700  0.75000000  1
  O  O17  1  0.48627200  0.56719300  0.25000000  1
  O  O18  1  0.55475300  0.72044000  0.75000000  1
  O  O19  1  0.44524700  0.27956000  0.25000000  1
  O  O20  1  0.16568700  0.44524700  0.75000000  1
  O  O21  1  0.83431300  0.55475300  0.25000000  1
  O  O22  1  0.27956000  0.83431300  0.75000000  1
  O  O23  1  0.72044000  0.16568700  0.25000000  1
loop_
_geom_bond_atom_site_label_1
_geom_bond_atom_site_label_2
_geom_bond_distance
_geom_bond_site_symmetry_2
Ba0 O23 2.715454 1_556
Ba0 O21 2.715459 1_556
Ba0 O19 2.715461 1_556
Ba0 O12 2.854073 1_555
Ba0 O14 2.854073 1_555
Ba0 O16 2.854073 1_555
Ba0 O0 2.946173 1_555
Ba0 O2 2.946187 1_555
Ba0 O6 2.946193 1_555
Ba1 O22 2.715454 1_554
Ba1 O20 2.715459 1_554
Ba1 O18 2.715461 1_554
Ba1 O13 2.854073 1_555
Ba1 O15 2.854073 1_555
Ba1 O17 2.854073 1_555
Ba1 O1 2.946173 1_555
Ba1 O4 2.946187 1_555
Ba1 O8 2.946193 1_555
Ba2 O22 2.715454 1_555
Ba2 O20 2.715459 1_555
Ba2 O18 2.715461 1_555
Ba2 O13 2.854073 1_555
Ba2 O15 2.854073 1_555
Ba2 O17 2.854073 1_555
Ba2 O3 2.946173 1_555
Ba2 O7 2.946187 1_555
Ba2 O10 2.946193 1_555
Ba3 O23 2.715454 1_555
Ba3 O21 2.715459 1_555
Ba3 O19 2.715461 1_555
Ba3 O12 2.854073 1_555
Ba3 O14 2.854073 1_555
Ba3 O16 2.854073 1_555
Ba3 O5 2.946173 1_555
Ba3 O9 2.946187 1_555
Ba3 O11 2.946193 1_555
Se0 Sm2 3.220566 1_554
Se0 Sm3 3.220566 1_445
Se0 Sm0 3.220567 1_444
Se0 Sm1 3.220567 1_555
Se0 Sm4 3.220567 1_544
Se0 Sm5 3.220567 1_455
Se1 Sm2 3.220566 1_555
Se1 Sm3 3.220566 1_445
Se1 Sm0 3.220567 1_445
Se1 Sm1 3.220567 1_555
Se1 Sm4 3.220567 1_545
Se1 Sm5 3.220567 1_455
O0 Si0 1.655290 1_555
O0 Sm5 2.464673 1_556
O0 Sm0 2.589709 1_545
O1 Si1 1.655290 1_555
O1 Sm4 2.464673 1_554
O1 Sm1 2.589709 1_565
O2 Si2 1.655294 1_555
O2 Sm1 2.464672 1_556
O2 Sm2 2.589703 1_555
O3 Si1 1.655290 1_555
O3 Sm4 2.464673 1_555
O3 Sm1 2.589709 1_565
O4 Si3 1.655294 1_555
O4 Sm0 2.464672 1_554
O4 Sm3 2.589703 1_555
O5 Si0 1.655290 1_555
O5 Sm5 2.464673 1_555
O5 Sm0 2.589709 1_545
O6 Si4 1.655288 1_555
O6 Sm3 2.464669 1_556
O6 Sm4 2.589711 1_655
O7 Si3 1.655294 1_555
O7 Sm0 2.464672 1_555
O7 Sm3 2.589703 1_555
O8 Si5 1.655288 1_555
O8 Sm2 2.464669 1_554
O8 Sm5 2.589711 1_455
O9 Si2 1.655294 1_555
O9 Sm1 2.464672 1_555
O9 Sm2 2.589703 1_555
O10 Si5 1.655288 1_555
O10 Sm2 2.464669 1_555
O10 Sm5 2.589711 1_455
O11 Si4 1.655288 1_555
O11 Sm3 2.464669 1_555
O11 Sm4 2.589711 1_655
O12 Si0 1.656135 1_555
O12 Sm4 2.238891 1_655
O13 Si1 1.656135 1_555
O13 Sm5 2.238891 1_455
O14 Si2 1.656144 1_555
O14 Sm0 2.238882 1_545
O15 Si3 1.656144 1_555
O15 Sm1 2.238882 1_565
O16 Si4 1.656142 1_555
O16 Sm2 2.238890 1_555
O17 Si5 1.656142 1_555
O17 Sm3 2.238890 1_555
O18 Si4 1.632694 1_555
O18 Sm0 2.442310 1_555
O19 Si5 1.632694 1_555
O19 Sm1 2.442310 1_555
O20 Si0 1.632694 1_455
O20 Sm2 2.442310 1_555
O21 Si1 1.632694 1_655
O21 Sm3 2.442310 1_555
O22 Si2 1.632694 1_565
O22 Sm4 2.442310 1_555
O23 Si3 1.632694 1_545
O23 Sm5 2.442310 1_555
