# generated using pymatgen
data_LaNdCo10
_symmetry_space_group_name_H-M   'P 1'
_cell_length_a   3.97810300
_cell_length_b   5.02112852
_cell_length_c   8.70554601
_cell_angle_alpha   90.00000337
_cell_angle_beta   90.00000000
_cell_angle_gamma   90.00000000
_symmetry_Int_Tables_number   1
_chemical_formula_structural   LaNdCo10
_chemical_formula_sum   'La1 Nd1 Co10'
_cell_volume   173.88950693
_cell_formula_units_Z   1
loop_
 _symmetry_equiv_pos_site_id
 _symmetry_equiv_pos_as_xyz
  1  'x, y, z'
loop_
 _atom_site_type_symbol
 _atom_site_label
 _atom_site_symmetry_multiplicity
 _atom_site_fract_x
 _atom_site_fract_y
 _atom_site_fract_z
 _atom_site_occupancy
  La  La0  1  0.00000000  0.00003600  0.00000000  1
  Nd  Nd0  1  0.00000000  0.49994900  0.50000000  1
  Co  Co0  1  0.00000000  0.99996300  0.33295100  1
  Co  Co1  1  0.00000000  0.49994400  0.83306100  1
  Co  Co2  1  0.00000000  0.49994400  0.16693900  1
  Co  Co3  1  0.00000000  0.99996300  0.66704900  1
  Co  Co4  1  0.50000000  0.00001800  0.50000000  1
  Co  Co5  1  0.50000000  0.49999500  0.00000000  1
  Co  Co6  1  0.50000000  0.25151300  0.25153900  1
  Co  Co7  1  0.50000000  0.74848100  0.74846800  1
  Co  Co8  1  0.50000000  0.74848100  0.25153200  1
  Co  Co9  1  0.50000000  0.25151300  0.74846100  1
loop_
_geom_bond_atom_site_label_1
_geom_bond_atom_site_label_2
_geom_bond_distance
_geom_bond_site_symmetry_2
Co0 Co8 2.460323 1_455
Co0 Co8 2.460323 1_555
Co0 Co6 2.460481 1_565
Co0 Co6 2.460481 1_465
Co0 Co4 2.463976 1_565
Co0 Co4 2.463976 1_465
Co0 La0 2.898520 1_565
Co0 Nd0 2.901281 1_565
Co0 Nd0 2.901403 1_555
Co1 Co9 2.460642 1_455
Co1 Co9 2.460642 1_555
Co1 Co7 2.460894 1_455
Co1 Co7 2.460894 1_555
Co1 Co5 2.463411 1_456
Co1 Co5 2.463411 1_556
Co1 Nd0 2.899478 1_555
Co1 La0 2.900462 1_556
Co1 La0 2.901262 1_566
Co2 Co6 2.460642 1_455
Co2 Co6 2.460642 1_555
Co2 Co8 2.460894 1_455
Co2 Co8 2.460894 1_555
Co2 Co5 2.463411 1_455
Co2 Co5 2.463411 1_555
Co2 Nd0 2.899478 1_555
Co2 La0 2.900462 1_555
Co2 La0 2.901262 1_565
Co3 Co7 2.460323 1_455
Co3 Co7 2.460323 1_555
Co3 Co9 2.460481 1_465
Co3 Co9 2.460481 1_565
Co3 Co4 2.463976 1_565
Co3 Co4 2.463976 1_465
Co3 La0 2.898520 1_566
Co3 Nd0 2.901281 1_565
Co3 Nd0 2.901403 1_555
Co4 Co9 2.504627 1_555
Co4 Co6 2.504627 1_555
Co4 Co8 2.504786 1_545
Co4 Co7 2.504786 1_545
Co4 Nd0 3.202736 1_555
Co4 Nd0 3.202736 1_655
Co4 Nd0 3.203279 1_645
Co4 Nd0 3.203279 1_545
Co5 Co8 2.520237 1_555
Co5 Co7 2.520237 1_554
Co5 Co9 2.520280 1_554
Co5 Co6 2.520280 1_555
Co5 La0 3.202846 1_555
Co5 La0 3.202846 1_655
Co5 La0 3.203169 1_565
Co5 La0 3.203169 1_665
Co6 Co8 2.495340 1_555
Co6 Co8 2.525788 1_545
Co6 Nd0 3.192323 1_555
Co6 Nd0 3.192323 1_655
Co6 La0 3.216502 1_555
Co6 La0 3.216502 1_655
Co7 Co9 2.495340 1_555
Co7 Co9 2.525788 1_565
Co7 Nd0 3.192552 1_555
Co7 Nd0 3.192552 1_655
Co7 La0 3.216615 1_566
Co7 La0 3.216615 1_666
Co8 Nd0 3.192553 1_555
Co8 Nd0 3.192553 1_655
Co8 La0 3.216615 1_665
Co8 La0 3.216615 1_565
Co9 Nd0 3.192323 1_655
Co9 Nd0 3.192323 1_555
Co9 La0 3.216503 1_656
Co9 La0 3.216503 1_556
