# generated using pymatgen
data_Li2CaV12O32
_symmetry_space_group_name_H-M   'P 1'
_cell_length_a   7.96539415
_cell_length_b   7.96539415
_cell_length_c   12.27502559
_cell_angle_alpha   74.39486444
_cell_angle_beta   74.39486444
_cell_angle_gamma   54.23289301
_symmetry_Int_Tables_number   1
_chemical_formula_structural   Li2CaV12O32
_chemical_formula_sum   'Li2 Ca1 V12 O32'
_cell_volume   602.38232689
_cell_formula_units_Z   1
loop_
 _symmetry_equiv_pos_site_id
 _symmetry_equiv_pos_as_xyz
  1  'x, y, z'
loop_
 _atom_site_type_symbol
 _atom_site_label
 _atom_site_symmetry_multiplicity
 _atom_site_fract_x
 _atom_site_fract_y
 _atom_site_fract_z
 _atom_site_occupancy
  Li  Li0  1  0.37145600  0.86574200  0.69612200  1
  Li  Li1  1  0.86574200  0.37145600  0.69612200  1
  Ca  Ca0  1  0.12712700  0.12712700  0.31996900  1
  V  V0  1  0.30302200  0.30302200  0.46333100  1
  V  V1  1  0.79858100  0.79858100  0.46271700  1
  V  V2  1  0.19659100  0.69933300  0.54375100  1
  V  V3  1  0.69933300  0.19659100  0.54375100  1
  V  V4  1  0.97422400  0.97422400  0.91975100  1
  V  V5  1  0.47333200  0.47333200  0.91822700  1
  V  V6  1  0.52544500  0.02773000  0.07628100  1
  V  V7  1  0.02773000  0.52544500  0.07628100  1
  V  V8  1  0.41664900  0.41664900  0.18817500  1
  V  V9  1  0.90603000  0.90603000  0.19349200  1
  V  V10  1  0.08577200  0.58657700  0.80761200  1
  V  V11  1  0.58657700  0.08577200  0.80761200  1
  O  O0  1  0.51158900  0.51158900  0.04350300  1
  O  O1  1  0.00715800  0.00715800  0.04689300  1
  O  O2  1  0.98832000  0.49089200  0.94992500  1
  O  O3  1  0.49089200  0.98832000  0.94992500  1
  O  O4  1  0.36873700  0.36873700  0.82573700  1
  O  O5  1  0.86897400  0.86897400  0.82582400  1
  O  O6  1  0.12992400  0.62841100  0.17140600  1
  O  O7  1  0.62841100  0.12992400  0.17140600  1
  O  O8  1  0.81498500  0.81498500  0.07271700  1
  O  O9  1  0.31940700  0.31940700  0.06567300  1
  O  O10  1  0.68233000  0.18233000  0.92666600  1
  O  O11  1  0.18233000  0.68233000  0.92666600  1
  O  O12  1  0.28885700  0.28885700  0.32502800  1
  O  O13  1  0.78529600  0.78529600  0.32516200  1
  O  O14  1  0.21624800  0.71743100  0.67854400  1
  O  O15  1  0.71743100  0.21624800  0.67854400  1
  O  O16  1  0.40829800  0.40829800  0.54164400  1
  O  O17  1  0.90343800  0.90343800  0.54505700  1
  O  O18  1  0.09289000  0.59319800  0.46260800  1
  O  O19  1  0.59319800  0.09289000  0.46260800  1
  O  O20  1  0.19031000  0.19031000  0.55353000  1
  O  O21  1  0.68834600  0.68834600  0.55729600  1
  O  O22  1  0.29536700  0.82206600  0.45079900  1
  O  O23  1  0.82206600  0.29536700  0.45079900  1
  O  O24  1  0.07787500  0.07787500  0.81188600  1
  O  O25  1  0.57625900  0.57625900  0.80918200  1
  O  O26  1  0.40646000  0.93791400  0.18032400  1
  O  O27  1  0.93791400  0.40646000  0.18032400  1
  O  O28  1  0.48725600  0.48725600  0.26981200  1
  O  O29  1  0.98021300  0.98021300  0.27365500  1
  O  O30  1  0.01557300  0.51453400  0.72433100  1
  O  O31  1  0.51453400  0.01557300  0.72433100  1
loop_
_geom_bond_atom_site_label_1
_geom_bond_atom_site_label_2
_geom_bond_distance
_geom_bond_site_symmetry_2
Li0 O31 2.206301 1_565
Li0 O14 2.226778 1_555
Li0 O25 2.236811 1_555
Li0 O24 2.286446 1_565
Li0 O21 2.466539 1_555
Li0 O20 2.528419 1_565
Li1 O30 2.206301 1_655
Li1 O15 2.226778 1_555
Li1 O25 2.236811 1_555
Li1 O24 2.286446 1_655
Li1 O21 2.466539 1_555
Li1 O20 2.528419 1_655
Ca0 O12 2.312810 1_555
Ca0 O29 2.319217 1_445
Ca0 O23 2.351856 1_455
Ca0 O22 2.351856 1_545
Ca0 O26 2.361847 1_545
Ca0 O27 2.361847 1_455
O0 V5 1.778548 1_554
O0 V8 1.876408 1_555
O1 V4 1.759068 1_444
O1 V9 1.932546 1_445
O2 V7 1.781176 1_656
O2 V10 1.865697 1_655
O3 V6 1.781176 1_566
O3 V11 1.865697 1_565
O4 V10 1.905459 1_555
O4 V11 1.905459 1_555
O4 V5 2.122828 1_555
O5 V10 1.901024 1_655
O5 V11 1.901024 1_565
O5 V4 2.143988 1_555
O6 V9 1.896404 1_455
O6 V8 1.914790 1_555
O6 V7 2.122684 1_555
O7 V9 1.896404 1_545
O7 V8 1.914790 1_555
O7 V6 2.122684 1_555
O8 V6 1.899873 1_565
O8 V7 1.899873 1_655
O8 V9 2.240845 1_555
O8 V4 2.461974 1_554
O9 V7 1.898193 1_555
O9 V6 1.898193 1_555
O9 V8 2.327167 1_555
O9 V5 2.377344 1_554
O10 V5 1.899399 1_555
O10 V4 1.903939 1_545
O10 V11 2.280150 1_555
O10 V6 2.407976 1_556
O11 V5 1.899399 1_555
O11 V4 1.903939 1_455
O11 V10 2.280150 1_555
O11 V7 2.407976 1_556
O12 V0 1.768770 1_555
O12 V8 2.065320 1_555
O13 V1 1.754636 1_555
O13 V9 1.967388 1_555
O14 V2 1.754153 1_555
O14 V10 2.041709 1_555
O15 V3 1.754153 1_555
O15 V11 2.041709 1_555
O16 V2 1.912431 1_555
O16 V3 1.912431 1_555
O16 V0 2.004963 1_555
O17 V3 1.911034 1_565
O17 V2 1.911034 1_655
O17 V1 2.034854 1_555
O18 V0 1.902241 1_555
O18 V1 1.920494 1_455
O18 V2 2.025120 1_555
O19 V0 1.902241 1_555
O19 V1 1.920494 1_545
O19 V3 2.025120 1_555
O20 V0 1.646388 1_555
O21 V1 1.641405 1_555
O22 V2 1.640937 1_555
O23 V3 1.640937 1_555
O24 V4 1.654378 1_445
O25 V5 1.655567 1_555
O26 V6 1.640420 1_565
O27 V7 1.640420 1_655
O28 V8 1.616481 1_555
O29 V9 1.643286 1_555
O30 V10 1.638679 1_555
O31 V11 1.638679 1_555
