# generated using pymatgen
data_Ca3Sn2S7
_symmetry_space_group_name_H-M   'P 1'
_cell_length_a   6.80758693
_cell_length_b   7.20083700
_cell_length_c   12.17670811
_cell_angle_alpha   90.00000000
_cell_angle_beta   73.76765546
_cell_angle_gamma   90.00000000
_symmetry_Int_Tables_number   1
_chemical_formula_structural   Ca3Sn2S7
_chemical_formula_sum   'Ca6 Sn4 S14'
_cell_volume   573.11112907
_cell_formula_units_Z   2
loop_
 _symmetry_equiv_pos_site_id
 _symmetry_equiv_pos_as_xyz
  1  'x, y, z'
loop_
 _atom_site_type_symbol
 _atom_site_label
 _atom_site_symmetry_multiplicity
 _atom_site_fract_x
 _atom_site_fract_y
 _atom_site_fract_z
 _atom_site_occupancy
  Ca  Ca0  1  0.71775100  0.40333300  0.00000000  1
  Ca  Ca1  1  0.28224900  0.90333300  0.00000000  1
  Ca  Ca2  1  0.44437400  0.08878600  0.62443300  1
  Ca  Ca3  1  0.06880700  0.08878600  0.37556700  1
  Ca  Ca4  1  0.55562600  0.58878600  0.37556700  1
  Ca  Ca5  1  0.93119300  0.58878600  0.62443300  1
  Sn  Sn0  1  0.85012100  0.00420200  0.79232600  1
  Sn  Sn1  1  0.64244700  0.00420200  0.20767400  1
  Sn  Sn2  1  0.14987900  0.50420200  0.20767400  1
  Sn  Sn3  1  0.35755300  0.50420200  0.79232600  1
  S  S0  1  0.11514300  0.54185900  0.00000000  1
  S  S1  1  0.88485700  0.04185900  0.00000000  1
  S  S2  1  0.57139700  0.45555500  0.59024500  1
  S  S3  1  0.16164300  0.45555500  0.40975500  1
  S  S4  1  0.42860300  0.95555500  0.40975500  1
  S  S5  1  0.83835700  0.95555500  0.59024500  1
  S  S6  1  0.50976500  0.18580300  0.85071000  1
  S  S7  1  0.36047500  0.18580300  0.14929000  1
  S  S8  1  0.49023500  0.68580300  0.14929000  1
  S  S9  1  0.63952500  0.68580300  0.85071000  1
  S  S10  1  0.07729100  0.29725800  0.73619600  1
  S  S11  1  0.81348800  0.29725800  0.26380400  1
  S  S12  1  0.92270900  0.79725800  0.26380400  1
  S  S13  1  0.18651200  0.79725800  0.73619600  1
loop_
_geom_bond_atom_site_label_1
_geom_bond_atom_site_label_2
_geom_bond_distance
_geom_bond_site_symmetry_2
Ca0 S1 2.840647 1_555
Ca0 S8 2.875180 1_555
Ca0 S9 2.875180 1_554
Ca0 S0 2.883324 1_655
Ca0 S7 3.033465 1_555
Ca0 S6 3.033466 1_554
Ca1 S0 2.840647 1_555
Ca1 S6 2.875180 1_564
Ca1 S7 2.875180 1_565
Ca1 S1 2.883324 1_465
Ca1 S9 3.033465 1_554
Ca1 S8 3.033466 1_555
Ca2 S5 2.768213 1_545
Ca2 S2 2.773969 1_555
Ca2 S4 2.814640 1_545
Ca2 S13 2.829276 1_545
Ca2 S10 2.906723 1_555
Ca2 S6 2.993936 1_555
Ca3 S4 2.768219 1_545
Ca3 S3 2.773971 1_555
Ca3 S5 2.814642 1_445
Ca3 S12 2.829273 1_445
Ca3 S11 2.906718 1_455
Ca3 S7 2.993936 1_555
Ca4 S3 2.768213 1_555
Ca4 S4 2.773969 1_555
Ca4 S2 2.814640 1_555
Ca4 S11 2.829276 1_555
Ca4 S12 2.906723 1_555
Ca4 S8 2.993936 1_555
Ca5 S2 2.768219 1_555
Ca5 S5 2.773971 1_555
Ca5 S3 2.814642 1_655
Ca5 S10 2.829273 1_655
Ca5 S13 2.906718 1_655
Ca5 S9 2.993936 1_555
S0 Sn3 2.618876 1_554
S0 Sn2 2.618876 1_555
S1 Sn1 2.618876 1_555
S1 Sn0 2.618876 1_554
S2 Sn3 2.508832 1_555
S3 Sn2 2.508834 1_555
S4 Sn1 2.508832 1_565
S5 Sn0 2.508834 1_565
S6 Sn0 2.581286 1_555
S6 Sn3 2.692139 1_555
S7 Sn1 2.581286 1_555
S7 Sn2 2.692139 1_555
S8 Sn2 2.581286 1_555
S8 Sn1 2.692139 1_565
S9 Sn3 2.581286 1_555
S9 Sn0 2.692139 1_565
S10 Sn0 2.592482 1_455
S10 Sn3 2.656481 1_555
S11 Sn1 2.592486 1_555
S11 Sn2 2.656476 1_655
S12 Sn2 2.592482 1_655
S12 Sn1 2.656481 1_565
S13 Sn3 2.592486 1_555
S13 Sn0 2.656476 1_465
