# generated using pymatgen
data_Ba2CaV2CoF14
_symmetry_space_group_name_H-M   'P 1'
_cell_length_a   7.46869501
_cell_length_b   7.46869501
_cell_length_c   15.26526337
_cell_angle_alpha   88.90137298
_cell_angle_beta   88.90137298
_cell_angle_gamma   42.62591071
_symmetry_Int_Tables_number   1
_chemical_formula_structural   Ba2CaV2CoF14
_chemical_formula_sum   'Ba4 Ca2 V4 Co2 F28'
_cell_volume   576.53321919
_cell_formula_units_Z   2
loop_
 _symmetry_equiv_pos_site_id
 _symmetry_equiv_pos_as_xyz
  1  'x, y, z'
loop_
 _atom_site_type_symbol
 _atom_site_label
 _atom_site_symmetry_multiplicity
 _atom_site_fract_x
 _atom_site_fract_y
 _atom_site_fract_z
 _atom_site_occupancy
  Ba  Ba0  1  0.76219400  0.85749100  0.12060600  1
  Ba  Ba1  1  0.14250900  0.23780600  0.37939400  1
  Ba  Ba2  1  0.23780600  0.14250900  0.87939400  1
  Ba  Ba3  1  0.85749100  0.76219400  0.62060600  1
  Ca  Ca0  1  0.44147400  0.55852600  0.25000000  1
  Ca  Ca1  1  0.55852600  0.44147400  0.75000000  1
  V  V0  1  0.11208500  0.12405900  0.12288500  1
  V  V1  1  0.87594100  0.88791500  0.37711500  1
  V  V2  1  0.88791500  0.87594100  0.87711500  1
  V  V3  1  0.12405900  0.11208500  0.62288500  1
  Co  Co0  1  0.50000000  0.50000000  0.00000000  1
  Co  Co1  1  0.50000000  0.50000000  0.50000000  1
  F  F0  1  0.04575000  0.62832700  0.27669900  1
  F  F1  1  0.37167300  0.95425000  0.22330100  1
  F  F2  1  0.95425000  0.37167300  0.72330100  1
  F  F3  1  0.62832700  0.04575000  0.77669900  1
  F  F4  1  0.88665900  0.27551100  0.01388400  1
  F  F5  1  0.72448900  0.11334100  0.48611600  1
  F  F6  1  0.11334100  0.72448900  0.98611600  1
  F  F7  1  0.27551100  0.88665900  0.51388400  1
  F  F8  1  0.83808800  0.41387600  0.20135100  1
  F  F9  1  0.58612400  0.16191200  0.29864900  1
  F  F10  1  0.16191200  0.58612400  0.79864900  1
  F  F11  1  0.41387600  0.83808800  0.70135100  1
  F  F12  1  0.82859500  0.41604400  0.54708500  1
  F  F13  1  0.58395600  0.17140500  0.95291500  1
  F  F14  1  0.17140500  0.58395600  0.45291500  1
  F  F15  1  0.41604400  0.82859500  0.04708500  1
  F  F16  1  0.90371700  0.07430800  0.65893600  1
  F  F17  1  0.92569200  0.09628300  0.84106400  1
  F  F18  1  0.09628300  0.92569200  0.34106400  1
  F  F19  1  0.07430800  0.90371700  0.15893600  1
  F  F20  1  0.19264700  0.30616300  0.08390000  1
  F  F21  1  0.69383700  0.80735300  0.41610000  1
  F  F22  1  0.80735300  0.69383700  0.91610000  1
  F  F23  1  0.30616300  0.19264700  0.58390000  1
  F  F24  1  0.63804300  0.47671000  0.37778900  1
  F  F25  1  0.52329000  0.36195700  0.12221100  1
  F  F26  1  0.36195700  0.52329000  0.62221100  1
  F  F27  1  0.47671000  0.63804300  0.87778900  1
loop_
_geom_bond_atom_site_label_1
_geom_bond_atom_site_label_2
_geom_bond_distance
_geom_bond_site_symmetry_2
Ba0 F19 2.672058 1_655
Ba0 F25 2.736558 1_565
Ba0 F0 2.791999 1_655
Ba0 F6 2.849166 1_654
Ba0 F20 2.853703 1_655
Ba0 F1 2.872837 1_555
Ba0 F20 2.946293 1_565
Ba0 F15 2.988562 1_555
Ba0 F13 3.021488 1_564
Ba0 F8 3.150326 1_555
Ba0 F9 3.159996 1_565
Ba0 F22 3.294372 1_554
Ba1 F18 2.672058 1_545
Ba1 F24 2.736558 1_455
Ba1 F1 2.791999 1_545
Ba1 F7 2.849166 1_545
Ba1 F21 2.853703 1_545
Ba1 F0 2.872837 1_555
Ba1 F21 2.946293 1_455
Ba1 F14 2.988562 1_555
Ba1 F12 3.021488 1_455
Ba1 F9 3.150326 1_555
Ba1 F8 3.159996 1_455
Ba1 F23 3.294372 1_555
Ba2 F17 2.672058 1_455
Ba2 F27 2.736558 1_545
Ba2 F2 2.791999 1_455
Ba2 F4 2.849166 1_456
Ba2 F22 2.853703 1_455
Ba2 F3 2.872837 1_555
Ba2 F22 2.946293 1_545
Ba2 F13 2.988562 1_555
Ba2 F15 3.021488 1_546
Ba2 F10 3.150326 1_555
Ba2 F11 3.159996 1_545
Ba2 F20 3.294372 1_556
Ba3 F16 2.672058 1_565
Ba3 F26 2.736558 1_655
Ba3 F3 2.791999 1_565
Ba3 F5 2.849166 1_565
Ba3 F23 2.853703 1_565
Ba3 F2 2.872837 1_555
Ba3 F23 2.946293 1_655
Ba3 F12 2.988562 1_555
Ba3 F14 3.021488 1_655
Ba3 F11 3.150326 1_555
Ba3 F10 3.159996 1_655
Ba3 F21 3.294372 1_555
Ca0 F25 2.253455 1_555
Ca0 F24 2.253455 1_555
Ca0 F18 2.388296 1_555
Ca0 F19 2.388296 1_555
Ca0 F9 2.393803 1_555
Ca0 F8 2.393803 1_555
Ca0 F0 2.620624 1_555
Ca0 F1 2.620624 1_555
Ca1 F26 2.253455 1_555
Ca1 F27 2.253455 1_555
Ca1 F17 2.388296 1_555
Ca1 F16 2.388296 1_555
Ca1 F10 2.393803 1_555
Ca1 F11 2.393803 1_555
Ca1 F3 2.620624 1_555
Ca1 F2 2.620624 1_555
Co0 F6 2.019974 1_554
Co0 F4 2.019974 1_555
Co0 F27 2.061164 1_554
Co0 F25 2.061164 1_555
Co0 F15 2.172227 1_555
Co0 F13 2.172227 1_554
Co1 F5 2.019974 1_555
Co1 F7 2.019974 1_555
Co1 F26 2.061164 1_555
Co1 F24 2.061164 1_555
Co1 F14 2.172227 1_555
Co1 F12 2.172227 1_555
F0 V1 2.034219 1_455
F1 V0 2.034219 1_565
F2 V3 2.034219 1_655
F3 V2 2.034219 1_545
F4 V0 2.028669 1_655
F5 V1 2.028669 1_545
F6 V2 2.028669 1_455
F7 V3 2.028669 1_565
F8 V0 1.948018 1_655
F9 V1 1.948018 1_545
F10 V2 1.948018 1_455
F11 V3 1.948018 1_565
F12 V3 1.996824 1_655
F13 V2 1.996824 1_545
F14 V1 1.996824 1_455
F15 V0 1.996824 1_565
F16 V3 1.932171 1_655
F17 V2 1.932171 1_545
F18 V1 1.932171 1_455
F19 V0 1.932171 1_565
F20 V0 1.930159 1_555
F21 V1 1.930159 1_555
F22 V2 1.930159 1_555
F23 V3 1.930159 1_555
