# generated using pymatgen
data_EuCdAu5
_symmetry_space_group_name_H-M   'P 1'
_cell_length_a   5.79698406
_cell_length_b   5.79698357
_cell_length_c   5.81190759
_cell_angle_alpha   102.96276318
_cell_angle_beta   102.96276719
_cell_angle_gamma   123.70423993
_symmetry_Int_Tables_number   1
_chemical_formula_structural   EuCdAu5
_chemical_formula_sum   'Eu1 Cd1 Au5'
_cell_volume   142.93628573
_cell_formula_units_Z   1
loop_
 _symmetry_equiv_pos_site_id
 _symmetry_equiv_pos_as_xyz
  1  'x, y, z'
loop_
 _atom_site_type_symbol
 _atom_site_label
 _atom_site_symmetry_multiplicity
 _atom_site_fract_x
 _atom_site_fract_y
 _atom_site_fract_z
 _atom_site_occupancy
  Eu  Eu0  1  0.00001022  0.99998978  -0.00000000  1
  Cd  Cd0  1  0.74986546  0.25013454  0.50000000  1
  Au  Au0  1  0.69481671  0.30518329  -0.00000000  1
  Au  Au1  1  0.30535575  0.69464425  0.00000000  1
  Au  Au2  1  0.30540835  0.30544108  0.61008468  1
  Au  Au3  1  0.69455892  0.69459165  0.38991532  1
  Au  Au4  1  0.24998559  0.75001441  0.50000000  1
loop_
_geom_bond_atom_site_label_1
_geom_bond_atom_site_label_2
_geom_bond_distance
_geom_bond_site_symmetry_2
Au0 Au2 2.818066 1_554
Au0 Au3 2.818066 1_555
Au0 Au4 2.946816 1_544
Au0 Au4 2.946816 1_655
Au0 Au1 2.958992 1_545
Au0 Au1 2.958992 1_655
Au0 Cd0 2.959942 1_555
Au0 Cd0 2.959942 1_554
Au0 Eu0 3.119927 1_645
Au0 Eu0 3.382991 1_655
Au0 Eu0 3.382991 1_545
Au1 Au3 2.816584 1_555
Au1 Au2 2.816584 1_554
Au1 Cd0 2.947447 1_565
Au1 Cd0 2.947447 1_454
Au1 Au4 2.960568 1_554
Au1 Au4 2.960568 1_555
Au1 Eu0 3.121481 1_555
Au1 Eu0 3.382076 1_545
Au1 Eu0 3.382077 1_655
Au2 Cd0 2.952091 1_555
Au2 Au4 2.952149 1_545
Au2 Au4 2.953119 1_555
Au2 Cd0 2.953178 1_455
Au2 Au3 2.955334 1_445
Au2 Au3 2.959348 1_555
Au2 Eu0 3.119291 1_545
Au2 Eu0 3.373456 1_656
Au2 Eu0 3.395020 1_546
Au3 Cd0 2.952091 1_555
Au3 Au4 2.952149 1_655
Au3 Au4 2.953120 1_555
Au3 Cd0 2.953177 1_565
Au3 Eu0 3.119291 1_656
Au3 Eu0 3.373456 1_545
Au3 Eu0 3.395020 1_655
Au4 Cd0 2.734721 1_565
Au4 Cd0 2.734721 1_455
