# generated using pymatgen
data_Mg(CO3)2
_symmetry_space_group_name_H-M   'P 1'
_cell_length_a   5.50404900
_cell_length_b   6.39972017
_cell_length_c   7.86627222
_cell_angle_alpha   75.49002310
_cell_angle_beta   69.52178415
_cell_angle_gamma   64.53099871
_symmetry_Int_Tables_number   1
_chemical_formula_structural   Mg(CO3)2
_chemical_formula_sum   'Mg2 C4 O12'
_cell_volume   232.70101612
_cell_formula_units_Z   2
loop_
 _symmetry_equiv_pos_site_id
 _symmetry_equiv_pos_as_xyz
  1  'x, y, z'
loop_
 _atom_site_type_symbol
 _atom_site_label
 _atom_site_symmetry_multiplicity
 _atom_site_fract_x
 _atom_site_fract_y
 _atom_site_fract_z
 _atom_site_occupancy
  Mg  Mg0  1  0.16749200  0.25000000  0.75000000  1
  Mg  Mg1  1  0.83250800  0.75000000  0.25000000  1
  C  C0  1  0.61340200  0.24606900  0.85756100  1
  C  C1  1  0.71703300  0.25393100  0.64243900  1
  C  C2  1  0.38659800  0.75393100  0.14243900  1
  C  C3  1  0.28296700  0.74606900  0.35756100  1
  O  O0  1  0.36888900  0.25155900  0.93172900  1
  O  O1  1  0.55217800  0.24844100  0.56827100  1
  O  O2  1  0.63111100  0.74844100  0.06827100  1
  O  O3  1  0.44782200  0.75155900  0.43172900  1
  O  O4  1  0.78967600  0.23278500  0.93261400  1
  O  O5  1  0.95507600  0.26721500  0.56738600  1
  O  O6  1  0.21032400  0.76721500  0.06738600  1
  O  O7  1  0.04492400  0.73278500  0.43261400  1
  O  O8  1  0.00107000  0.62331500  0.73912300  1
  O  O9  1  0.36350900  0.87668500  0.76087700  1
  O  O10  1  0.99893000  0.37668500  0.26087700  1
  O  O11  1  0.63649100  0.12331500  0.23912300  1
loop_
_geom_bond_atom_site_label_1
_geom_bond_atom_site_label_2
_geom_bond_distance
_geom_bond_site_symmetry_2
Mg0 O0 2.097106 1_555
Mg0 O1 2.097110 1_555
Mg0 O5 2.104186 1_455
Mg0 O4 2.104190 1_455
Mg0 O8 2.150463 1_555
Mg0 O9 2.150463 1_545
Mg1 O2 2.097106 1_555
Mg1 O3 2.097110 1_555
Mg1 O7 2.104186 1_655
Mg1 O6 2.104190 1_655
Mg1 O10 2.150463 1_555
Mg1 O11 2.150463 1_565
C0 O0 1.254209 1_555
C0 O4 1.265629 1_555
C1 O1 1.254209 1_555
C1 O5 1.265629 1_555
C2 O2 1.254209 1_555
C2 O6 1.265629 1_555
C3 O3 1.254209 1_555
C3 O7 1.265629 1_555
