# generated using pymatgen
data_Pr3Tm
_symmetry_space_group_name_H-M   'P 1'
_cell_length_a   7.47170796
_cell_length_b   7.47170796
_cell_length_c   5.88780121
_cell_angle_alpha   90.00000000
_cell_angle_beta   90.00000000
_cell_angle_gamma   120.00000547
_symmetry_Int_Tables_number   1
_chemical_formula_structural   Pr3Tm
_chemical_formula_sum   'Pr6 Tm2'
_cell_volume   284.65808499
_cell_formula_units_Z   2
loop_
 _symmetry_equiv_pos_site_id
 _symmetry_equiv_pos_as_xyz
  1  'x, y, z'
loop_
 _atom_site_type_symbol
 _atom_site_label
 _atom_site_symmetry_multiplicity
 _atom_site_fract_x
 _atom_site_fract_y
 _atom_site_fract_z
 _atom_site_occupancy
  Pr  Pr0  1  0.16901941  0.33803783  0.25000000  1
  Pr  Pr1  1  0.66196217  0.83098059  0.25000000  1
  Pr  Pr2  1  0.16901941  0.83098059  0.25000000  1
  Pr  Pr3  1  0.83098059  0.66196217  0.75000000  1
  Pr  Pr4  1  0.33803783  0.16901941  0.75000000  1
  Pr  Pr5  1  0.83098059  0.16901941  0.75000000  1
  Tm  Tm0  1  0.33333300  0.66666700  0.75000000  1
  Tm  Tm1  1  0.66666700  0.33333300  0.25000000  1
loop_
_geom_bond_atom_site_label_1
_geom_bond_atom_site_label_2
_geom_bond_distance
_geom_bond_site_symmetry_2
Pr0 Tm0 3.631580 1_555
Pr0 Tm0 3.631580 1_554
Pr0 Pr4 3.667556 1_555
Pr0 Pr4 3.667556 1_554
Pr0 Pr5 3.667564 1_454
Pr0 Pr5 3.667564 1_455
Pr0 Pr1 3.683124 1_555
Pr0 Pr2 3.683124 1_555
Pr0 Tm1 3.735978 1_455
Pr0 Tm1 3.735978 1_555
Pr0 Pr1 3.788583 1_445
Pr0 Pr2 3.788584 1_545
Pr1 Tm0 3.631580 1_555
Pr1 Tm0 3.631580 1_554
Pr1 Pr3 3.667556 1_554
Pr1 Pr3 3.667556 1_555
Pr1 Pr5 3.667564 1_564
Pr1 Pr5 3.667564 1_565
Pr1 Pr2 3.683124 1_555
Pr1 Tm1 3.735978 1_565
Pr1 Tm1 3.735978 1_555
Pr1 Pr2 3.788584 1_655
Pr2 Tm0 3.631572 1_555
Pr2 Tm0 3.631572 1_554
Pr2 Pr3 3.667564 1_455
Pr2 Pr3 3.667564 1_454
Pr2 Pr4 3.667564 1_565
Pr2 Pr4 3.667564 1_564
Pr2 Tm1 3.735978 1_455
Pr2 Tm1 3.735978 1_565
Pr3 Tm1 3.631580 1_556
Pr3 Tm1 3.631580 1_555
Pr3 Pr4 3.683124 1_555
Pr3 Pr5 3.683124 1_555
Pr3 Tm0 3.735978 1_655
Pr3 Tm0 3.735978 1_555
Pr3 Pr4 3.788583 1_665
Pr3 Pr5 3.788584 1_565
Pr4 Tm1 3.631580 1_556
Pr4 Tm1 3.631580 1_555
Pr4 Pr5 3.683124 1_555
Pr4 Tm0 3.735978 1_545
Pr4 Tm0 3.735978 1_555
Pr4 Pr5 3.788584 1_455
Pr5 Tm1 3.631572 1_555
Pr5 Tm1 3.631572 1_556
Pr5 Tm0 3.735978 1_545
Pr5 Tm0 3.735978 1_655
