# generated using pymatgen
data_Na2Ta2(P2O7)3
_symmetry_space_group_name_H-M   'P 1'
_cell_length_a   9.18922500
_cell_length_b   9.18922450
_cell_length_c   12.79977600
_cell_angle_alpha   90.00000000
_cell_angle_beta   90.00000000
_cell_angle_gamma   119.99999821
_symmetry_Int_Tables_number   1
_chemical_formula_structural   Na2Ta2(P2O7)3
_chemical_formula_sum   'Na4 Ta4 P12 O42'
_cell_volume   936.03212924
_cell_formula_units_Z   2
loop_
 _symmetry_equiv_pos_site_id
 _symmetry_equiv_pos_as_xyz
  1  'x, y, z'
loop_
 _atom_site_type_symbol
 _atom_site_label
 _atom_site_symmetry_multiplicity
 _atom_site_fract_x
 _atom_site_fract_y
 _atom_site_fract_z
 _atom_site_occupancy
  Na  Na0  1  0.00000000  0.00000000  0.50000000  1
  Na  Na1  1  0.00000000  0.00000000  0.00000000  1
  Na  Na2  1  0.00000000  0.00000000  0.75000000  1
  Na  Na3  1  0.00000000  0.00000000  0.25000000  1
  Ta  Ta0  1  0.66666700  0.33333300  0.52409600  1
  Ta  Ta1  1  0.33333300  0.66666700  0.02409600  1
  Ta  Ta2  1  0.33333300  0.66666700  0.47590400  1
  Ta  Ta3  1  0.66666700  0.33333300  0.97590400  1
  P  P0  1  0.33948200  0.97874300  0.63457300  1
  P  P1  1  0.02125700  0.36073900  0.63457300  1
  P  P2  1  0.63926100  0.66051800  0.63457300  1
  P  P3  1  0.66051800  0.02125700  0.13457300  1
  P  P4  1  0.97874300  0.63926100  0.13457300  1
  P  P5  1  0.36073900  0.33948200  0.13457300  1
  P  P6  1  0.66051800  0.02125700  0.36542700  1
  P  P7  1  0.97874300  0.63926100  0.36542700  1
  P  P8  1  0.36073900  0.33948200  0.36542700  1
  P  P9  1  0.33948200  0.97874300  0.86542700  1
  P  P10  1  0.02125700  0.36073900  0.86542700  1
  P  P11  1  0.63926100  0.66051800  0.86542700  1
  O  O0  1  0.38325100  0.94046800  0.75000000  1
  O  O1  1  0.05953200  0.44278300  0.75000000  1
  O  O2  1  0.55721700  0.61674900  0.75000000  1
  O  O3  1  0.61674900  0.05953200  0.25000000  1
  O  O4  1  0.94046800  0.55721700  0.25000000  1
  O  O5  1  0.44278300  0.38325100  0.25000000  1
  O  O6  1  0.48430200  0.16150200  0.61100400  1
  O  O7  1  0.83849800  0.32279900  0.61100400  1
  O  O8  1  0.67720100  0.51569800  0.61100400  1
  O  O9  1  0.51569800  0.83849800  0.11100400  1
  O  O10  1  0.16150200  0.67720100  0.11100400  1
  O  O11  1  0.32279900  0.48430200  0.11100400  1
  O  O12  1  0.51569800  0.83849800  0.38899600  1
  O  O13  1  0.16150200  0.67720100  0.38899600  1
  O  O14  1  0.32279900  0.48430200  0.38899600  1
  O  O15  1  0.48430200  0.16150200  0.88899600  1
  O  O16  1  0.83849800  0.32279900  0.88899600  1
  O  O17  1  0.67720100  0.51569800  0.88899600  1
  O  O18  1  0.36873000  0.85651500  0.56624000  1
  O  O19  1  0.14348500  0.51221500  0.56624000  1
  O  O20  1  0.48778500  0.63127000  0.56624000  1
  O  O21  1  0.63127000  0.14348500  0.06624000  1
  O  O22  1  0.85651500  0.48778500  0.06624000  1
  O  O23  1  0.51221500  0.36873000  0.06624000  1
  O  O24  1  0.63127000  0.14348500  0.43376000  1
  O  O25  1  0.85651500  0.48778500  0.43376000  1
  O  O26  1  0.51221500  0.36873000  0.43376000  1
  O  O27  1  0.36873000  0.85651500  0.93376000  1
  O  O28  1  0.14348500  0.51221500  0.93376000  1
  O  O29  1  0.48778500  0.63127000  0.93376000  1
  O  O30  1  0.16882600  0.95650000  0.62666500  1
  O  O31  1  0.04350000  0.21232600  0.62666500  1
  O  O32  1  0.78767400  0.83117400  0.62666500  1
  O  O33  1  0.83117400  0.04350000  0.12666500  1
  O  O34  1  0.95650000  0.78767400  0.12666500  1
  O  O35  1  0.21232600  0.16882600  0.12666500  1
  O  O36  1  0.83117400  0.04350000  0.37333500  1
  O  O37  1  0.95650000  0.78767400  0.37333500  1
  O  O38  1  0.21232600  0.16882600  0.37333500  1
  O  O39  1  0.16882600  0.95650000  0.87333500  1
  O  O40  1  0.04350000  0.21232600  0.87333500  1
  O  O41  1  0.78767400  0.83117400  0.87333500  1
loop_
_geom_bond_atom_site_label_1
_geom_bond_atom_site_label_2
_geom_bond_distance
_geom_bond_site_symmetry_2
Na0 O31 2.411485 1_555
Na0 O37 2.411485 1_445
Na0 O36 2.411485 1_455
Na0 O30 2.411485 1_545
Na0 O32 2.411485 1_445
Na0 O38 2.411485 1_555
Na1 O34 2.411485 1_445
Na1 O40 2.411485 1_554
Na1 O33 2.411485 1_455
Na1 O39 2.411485 1_544
Na1 O35 2.411485 1_555
Na1 O41 2.411485 1_444
Na2 O31 2.383038 1_555
Na2 O40 2.383038 1_555
Na2 O39 2.383038 1_545
Na2 O30 2.383038 1_545
Na2 O41 2.383038 1_445
Na2 O32 2.383038 1_445
Na3 O37 2.383038 1_445
Na3 O34 2.383038 1_445
Na3 O36 2.383038 1_455
Na3 O33 2.383038 1_455
Na3 O38 2.383038 1_555
Na3 O35 2.383038 1_555
O0 P9 1.615476 1_555
O0 P0 1.615476 1_555
O1 P10 1.615476 1_555
O1 P1 1.615476 1_555
O2 P2 1.615476 1_555
O2 P11 1.615476 1_555
O3 P6 1.615476 1_555
O3 P3 1.615476 1_555
O4 P4 1.615476 1_555
O4 P7 1.615476 1_555
O5 P8 1.615476 1_555
O5 P5 1.615476 1_555
O6 P0 1.564445 1_545
O6 Ta0 1.973038 1_555
O7 P1 1.564442 1_655
O7 Ta0 1.973038 1_555
O8 P2 1.564451 1_555
O8 Ta0 1.973037 1_555
O9 P3 1.564445 1_565
O9 Ta1 1.973038 1_555
O10 P4 1.564442 1_455
O10 Ta1 1.973038 1_555
O11 P5 1.564451 1_555
O11 Ta1 1.973037 1_555
O12 P6 1.564445 1_565
O12 Ta2 1.973038 1_555
O13 P7 1.564442 1_455
O13 Ta2 1.973038 1_555
O14 P8 1.564451 1_555
O14 Ta2 1.973037 1_555
O15 P9 1.564445 1_545
O15 Ta3 1.973038 1_555
O16 P10 1.564442 1_655
O16 Ta3 1.973038 1_555
O17 P11 1.564451 1_555
O17 Ta3 1.973037 1_555
O18 P0 1.549403 1_555
O18 Ta2 1.979598 1_555
O19 P1 1.549403 1_555
O19 Ta2 1.979601 1_555
O20 P2 1.549403 1_555
O20 Ta2 1.979605 1_555
O21 P3 1.549403 1_555
O21 Ta3 1.979598 1_554
O22 P4 1.549403 1_555
O22 Ta3 1.979601 1_554
O23 P5 1.549403 1_555
O23 Ta3 1.979605 1_554
O24 P6 1.549403 1_555
O24 Ta0 1.979598 1_555
O25 P7 1.549403 1_555
O25 Ta0 1.979601 1_555
O26 P8 1.549403 1_555
O26 Ta0 1.979605 1_555
O27 P9 1.549403 1_555
O27 Ta1 1.979598 1_556
O28 P10 1.549403 1_555
O28 Ta1 1.979601 1_556
O29 P11 1.549403 1_555
O29 Ta1 1.979605 1_556
O30 P0 1.480112 1_555
O31 P1 1.480111 1_555
O32 P2 1.480112 1_555
O33 P3 1.480112 1_555
O34 P4 1.480111 1_555
O35 P5 1.480112 1_555
O36 P6 1.480112 1_555
O37 P7 1.480111 1_555
O38 P8 1.480112 1_555
O39 P9 1.480112 1_555
O40 P10 1.480111 1_555
O41 P11 1.480112 1_555
