# generated using pymatgen
data_LiUNbO6
_symmetry_space_group_name_H-M   'P 1'
_cell_length_a   6.49531500
_cell_length_b   7.62448400
_cell_length_c   10.42777024
_cell_angle_alpha   79.32169977
_cell_angle_beta   90.00000000
_cell_angle_gamma   90.00000000
_symmetry_Int_Tables_number   1
_chemical_formula_structural   LiUNbO6
_chemical_formula_sum   'Li4 U4 Nb4 O24'
_cell_volume   507.47609699
_cell_formula_units_Z   4
loop_
 _symmetry_equiv_pos_site_id
 _symmetry_equiv_pos_as_xyz
  1  'x, y, z'
loop_
 _atom_site_type_symbol
 _atom_site_label
 _atom_site_symmetry_multiplicity
 _atom_site_fract_x
 _atom_site_fract_y
 _atom_site_fract_z
 _atom_site_occupancy
  Li  Li0  1  0.00239600  0.17904700  0.00182700  1
  Li  Li1  1  0.49760400  0.67904700  0.00182700  1
  Li  Li2  1  0.99760400  0.82095300  0.99817300  1
  Li  Li3  1  0.50239600  0.32095300  0.99817300  1
  U  U0  1  0.69906600  0.57909200  0.69323700  1
  U  U1  1  0.19906600  0.92090800  0.30676300  1
  U  U2  1  0.30093400  0.42090800  0.30676300  1
  U  U3  1  0.80093400  0.07909200  0.69323700  1
  Nb  Nb0  1  0.24912900  0.81986100  0.72418500  1
  Nb  Nb1  1  0.74912900  0.68013900  0.27581500  1
  Nb  Nb2  1  0.75087100  0.18013900  0.27581500  1
  Nb  Nb3  1  0.25087100  0.31986100  0.72418500  1
  O  O0  1  0.94485700  0.78488500  0.70342200  1
  O  O1  1  0.44485700  0.71511500  0.29657800  1
  O  O2  1  0.05514300  0.21511500  0.29657800  1
  O  O3  1  0.55514300  0.28488500  0.70342200  1
  O  O4  1  0.25006600  0.77531300  0.90123400  1
  O  O5  1  0.24993400  0.27531300  0.90123400  1
  O  O6  1  0.74993400  0.22468700  0.09876600  1
  O  O7  1  0.75006600  0.72468700  0.09876600  1
  O  O8  1  0.83994200  0.03375500  0.87458500  1
  O  O9  1  0.33994200  0.46624500  0.12541500  1
  O  O10  1  0.16005800  0.96624500  0.12541500  1
  O  O11  1  0.66005800  0.53375500  0.87458500  1
  O  O12  1  0.78247000  0.12497700  0.51327700  1
  O  O13  1  0.28247000  0.37502300  0.48672300  1
  O  O14  1  0.21753000  0.87502300  0.48672300  1
  O  O15  1  0.71753000  0.62497700  0.51327700  1
  O  O16  1  0.17174100  0.07947100  0.68820900  1
  O  O17  1  0.67174100  0.42052900  0.31179100  1
  O  O18  1  0.82825900  0.92052900  0.31179100  1
  O  O19  1  0.32825900  0.57947100  0.68820900  1
  O  O20  1  0.95056100  0.37001600  0.69715600  1
  O  O21  1  0.45056100  0.12998400  0.30284400  1
  O  O22  1  0.04943900  0.62998400  0.30284400  1
  O  O23  1  0.54943900  0.87001600  0.69715600  1
loop_
_geom_bond_atom_site_label_1
_geom_bond_atom_site_label_2
_geom_bond_distance
_geom_bond_site_symmetry_2
Li0 O5 1.984657 1_554
Li0 O6 1.990551 1_455
Li0 O10 2.137101 1_545
Li0 O8 2.155421 1_454
Li1 O4 1.984657 1_554
Li1 O7 1.990551 1_555
Li1 O9 2.137101 1_555
Li1 O11 2.155421 1_554
Li2 O7 1.984657 1_556
Li2 O4 1.990551 1_655
Li2 O8 2.137101 1_565
Li2 O10 2.155421 1_656
Li3 O6 1.984657 1_556
Li3 O5 1.990551 1_555
Li3 O11 2.137101 1_555
Li3 O9 2.155421 1_556
Nb0 O4 1.814267 1_555
Nb0 O23 1.997650 1_555
Nb0 O19 2.004759 1_555
Nb0 O16 2.009032 1_565
Nb0 O0 2.011298 1_455
Nb0 O14 2.442259 1_555
Nb1 O7 1.814267 1_555
Nb1 O22 1.997650 1_655
Nb1 O18 2.004759 1_555
Nb1 O17 2.009032 1_555
Nb1 O1 2.011298 1_555
Nb1 O15 2.442259 1_555
Nb2 O6 1.814267 1_555
Nb2 O21 1.997650 1_555
Nb2 O17 2.004759 1_555
Nb2 O18 2.009032 1_545
Nb2 O2 2.011298 1_655
Nb2 O12 2.442259 1_555
Nb3 O5 1.814267 1_555
Nb3 O20 1.997650 1_455
Nb3 O16 2.004759 1_555
Nb3 O19 2.009032 1_555
Nb3 O3 2.011298 1_555
Nb3 O13 2.442259 1_555
O0 U0 2.254725 1_555
O0 U3 2.414276 1_565
O1 U1 2.254725 1_555
O1 U2 2.414276 1_555
O2 U2 2.254725 1_555
O2 U1 2.414276 1_545
O3 U3 2.254725 1_555
O3 U0 2.414276 1_555
O8 U3 1.875507 1_555
O9 U2 1.875507 1_555
O10 U1 1.875507 1_555
O11 U0 1.875507 1_555
O12 U3 1.847982 1_555
O13 U2 1.847982 1_555
O14 U1 1.847982 1_555
O15 U0 1.847982 1_555
O16 U3 2.409069 1_455
O17 U2 2.409069 1_555
O18 U1 2.409069 1_655
O19 U0 2.409069 1_555
O20 U0 2.277526 1_555
O20 U3 2.428986 1_555
O21 U1 2.277526 1_545
O21 U2 2.428986 1_555
O22 U2 2.277526 1_555
O22 U1 2.428986 1_555
O23 U3 2.277526 1_565
O23 U0 2.428986 1_555
