# generated using pymatgen
data_Ba7TiN6
_symmetry_space_group_name_H-M   'P 1'
_cell_length_a   12.63641200
_cell_length_b   7.07076700
_cell_length_c   14.58961000
_cell_angle_alpha   90.00000000
_cell_angle_beta   90.00000000
_cell_angle_gamma   90.00000000
_symmetry_Int_Tables_number   1
_chemical_formula_structural   Ba7TiN6
_chemical_formula_sum   'Ba28 Ti4 N24'
_cell_volume   1303.56888712
_cell_formula_units_Z   4
loop_
 _symmetry_equiv_pos_site_id
 _symmetry_equiv_pos_as_xyz
  1  'x, y, z'
loop_
 _atom_site_type_symbol
 _atom_site_label
 _atom_site_symmetry_multiplicity
 _atom_site_fract_x
 _atom_site_fract_y
 _atom_site_fract_z
 _atom_site_occupancy
  Ba  Ba0  1  0.03427700  0.74225200  0.98010000  1
  Ba  Ba1  1  0.46572300  0.75774800  0.48010000  1
  Ba  Ba2  1  0.53427700  0.75774800  0.01990000  1
  Ba  Ba3  1  0.96572300  0.74225200  0.51990000  1
  Ba  Ba4  1  0.96572300  0.25774800  0.01990000  1
  Ba  Ba5  1  0.53427700  0.24225200  0.51990000  1
  Ba  Ba6  1  0.46572300  0.24225200  0.98010000  1
  Ba  Ba7  1  0.03427700  0.25774800  0.48010000  1
  Ba  Ba8  1  0.22673200  0.83643400  0.62733500  1
  Ba  Ba9  1  0.27326800  0.66356600  0.12733500  1
  Ba  Ba10  1  0.72673200  0.66356600  0.37266500  1
  Ba  Ba11  1  0.77326800  0.83643400  0.87266500  1
  Ba  Ba12  1  0.77326800  0.16356600  0.37266500  1
  Ba  Ba13  1  0.72673200  0.33643400  0.87266500  1
  Ba  Ba14  1  0.27326800  0.33643400  0.62733500  1
  Ba  Ba15  1  0.22673200  0.16356600  0.12733500  1
  Ba  Ba16  1  0.28735000  0.59791200  0.87426600  1
  Ba  Ba17  1  0.21265000  0.90208800  0.37426600  1
  Ba  Ba18  1  0.78735000  0.90208800  0.12573400  1
  Ba  Ba19  1  0.71265000  0.59791200  0.62573400  1
  Ba  Ba20  1  0.71265000  0.40208800  0.12573400  1
  Ba  Ba21  1  0.78735000  0.09791200  0.62573400  1
  Ba  Ba22  1  0.21265000  0.09791200  0.87426600  1
  Ba  Ba23  1  0.28735000  0.40208800  0.37426600  1
  Ba  Ba24  1  0.00000000  0.42938000  0.75000000  1
  Ba  Ba25  1  0.50000000  0.07062000  0.25000000  1
  Ba  Ba26  1  0.00000000  0.57062000  0.25000000  1
  Ba  Ba27  1  0.50000000  0.92938000  0.75000000  1
  Ti  Ti0  1  0.00000000  0.92305900  0.75000000  1
  Ti  Ti1  1  0.50000000  0.57694100  0.25000000  1
  Ti  Ti2  1  0.00000000  0.07694100  0.25000000  1
  Ti  Ti3  1  0.50000000  0.42305900  0.75000000  1
  N  N0  1  0.11697400  0.75658400  0.79030500  1
  N  N1  1  0.38302600  0.74341600  0.29030500  1
  N  N2  1  0.61697400  0.74341600  0.20969500  1
  N  N3  1  0.88302600  0.75658400  0.70969500  1
  N  N4  1  0.88302600  0.24341600  0.20969500  1
  N  N5  1  0.61697400  0.25658400  0.70969500  1
  N  N6  1  0.38302600  0.25658400  0.79030500  1
  N  N7  1  0.11697400  0.24341600  0.29030500  1
  N  N8  1  0.16280000  0.60199300  0.49827600  1
  N  N9  1  0.33720000  0.89800700  0.99827600  1
  N  N10  1  0.66280000  0.89800700  0.50172400  1
  N  N11  1  0.83720000  0.60199300  0.00172400  1
  N  N12  1  0.83720000  0.39800700  0.50172400  1
  N  N13  1  0.66280000  0.10199300  0.00172400  1
  N  N14  1  0.33720000  0.10199300  0.49827600  1
  N  N15  1  0.16280000  0.39800700  0.99827600  1
  N  N16  1  0.44830000  0.58037900  0.64945900  1
  N  N17  1  0.05170000  0.91962100  0.14945900  1
  N  N18  1  0.94830000  0.91962100  0.35054100  1
  N  N19  1  0.55170000  0.58037900  0.85054100  1
  N  N20  1  0.55170000  0.41962100  0.35054100  1
  N  N21  1  0.94830000  0.08037900  0.85054100  1
  N  N22  1  0.05170000  0.08037900  0.64945900  1
  N  N23  1  0.44830000  0.41962100  0.14945900  1
loop_
_geom_bond_atom_site_label_1
_geom_bond_atom_site_label_2
_geom_bond_distance
_geom_bond_site_symmetry_2
Ba0 N11 2.699056 1_456
Ba0 N17 2.779673 1_556
Ba0 N15 2.938137 1_555
Ba0 N0 2.961391 1_555
Ba0 N21 3.235626 1_465
Ba1 N10 2.699056 1_555
Ba1 N16 2.779673 1_555
Ba1 N14 2.938137 1_565
Ba1 N1 2.961391 1_555
Ba1 N20 3.235626 1_555
Ba2 N9 2.699056 1_554
Ba2 N19 2.779673 1_554
Ba2 N13 2.938137 1_565
Ba2 N2 2.961391 1_555
Ba2 N23 3.235626 1_555
Ba3 N8 2.699056 1_655
Ba3 N18 2.779673 1_555
Ba3 N12 2.938137 1_555
Ba3 N3 2.961391 1_555
Ba3 N22 3.235626 1_665
Ba4 N15 2.699056 1_654
Ba4 N21 2.779673 1_554
Ba4 N11 2.938137 1_555
Ba4 N4 2.961391 1_555
Ba4 N17 3.235626 1_645
Ba5 N14 2.699056 1_555
Ba5 N20 2.779673 1_555
Ba5 N10 2.938137 1_545
Ba5 N5 2.961391 1_555
Ba5 N16 3.235626 1_555
Ba6 N13 2.699056 1_556
Ba6 N23 2.779673 1_556
Ba6 N9 2.938137 1_545
Ba6 N6 2.961391 1_555
Ba6 N19 3.235626 1_555
Ba7 N12 2.699056 1_455
Ba7 N22 2.779673 1_555
Ba7 N8 2.938137 1_555
Ba7 N7 2.961391 1_555
Ba7 N18 3.235626 1_445
Ba8 N8 2.635515 1_555
Ba8 N0 2.809930 1_555
Ba8 N22 2.823357 1_565
Ba8 N14 3.003291 1_565
Ba8 N16 3.349796 1_555
Ba9 N9 2.635515 1_554
Ba9 N1 2.809930 1_555
Ba9 N23 2.823357 1_555
Ba9 N15 3.003291 1_554
Ba9 N17 3.349796 1_555
Ba10 N10 2.635515 1_555
Ba10 N2 2.809930 1_555
Ba10 N20 2.823357 1_555
Ba10 N12 3.003291 1_555
Ba10 N18 3.349796 1_555
Ba11 N11 2.635515 1_556
Ba11 N3 2.809930 1_555
Ba11 N21 2.823357 1_565
Ba11 N13 3.003291 1_566
Ba11 N19 3.349796 1_555
Ba12 N12 2.635515 1_555
Ba12 N4 2.809930 1_555
Ba12 N18 2.823357 1_545
Ba12 N10 3.003291 1_545
Ba12 N20 3.349796 1_555
Ba13 N13 2.635515 1_556
Ba13 N5 2.809930 1_555
Ba13 N19 2.823357 1_555
Ba13 N11 3.003291 1_556
Ba13 N21 3.349796 1_555
Ba14 N14 2.635515 1_555
Ba14 N6 2.809930 1_555
Ba14 N16 2.823357 1_555
Ba14 N8 3.003291 1_555
Ba14 N22 3.349796 1_555
Ba15 N15 2.635515 1_554
Ba15 N7 2.809930 1_555
Ba15 N17 2.823357 1_545
Ba15 N9 3.003291 1_544
Ba15 N23 3.349796 1_555
Ba16 N0 2.719267 1_555
Ba16 N15 2.783594 1_555
Ba16 N9 2.858791 1_555
Ba16 N6 2.964279 1_555
Ba16 N19 3.360609 1_555
Ba17 N1 2.719267 1_555
Ba17 N14 2.783594 1_565
Ba17 N8 2.858791 1_555
Ba17 N7 2.964279 1_565
Ba17 N18 3.360609 1_455
Ba18 N2 2.719267 1_555
Ba18 N13 2.783594 1_565
Ba18 N11 2.858791 1_555
Ba18 N4 2.964279 1_565
Ba18 N17 3.360609 1_655
Ba19 N3 2.719267 1_555
Ba19 N12 2.783594 1_555
Ba19 N10 2.858791 1_555
Ba19 N5 2.964279 1_555
Ba19 N16 3.360609 1_555
Ba20 N4 2.719267 1_555
Ba20 N11 2.783594 1_555
Ba20 N13 2.858791 1_555
Ba20 N2 2.964279 1_555
Ba20 N23 3.360609 1_555
Ba21 N5 2.719267 1_555
Ba21 N10 2.783594 1_545
Ba21 N12 2.858791 1_555
Ba21 N3 2.964279 1_545
Ba21 N22 3.360609 1_655
Ba22 N6 2.719267 1_555
Ba22 N9 2.783594 1_545
Ba22 N15 2.858791 1_555
Ba22 N0 2.964279 1_545
Ba22 N21 3.360609 1_455
Ba23 N7 2.719267 1_555
Ba23 N8 2.783594 1_555
Ba23 N14 2.858791 1_555
Ba23 N1 2.964279 1_555
Ba23 N20 3.360609 1_555
Ba24 N0 2.807726 1_555
Ba24 N3 2.807726 1_455
Ba24 N21 2.944152 1_455
Ba24 N22 2.944152 1_555
Ba25 N2 2.807726 1_545
Ba25 N1 2.807726 1_545
Ba25 N20 2.944152 1_555
Ba25 N23 2.944152 1_555
Ba26 N7 2.807726 1_555
Ba26 N4 2.807726 1_455
Ba26 N18 2.944152 1_455
Ba26 N17 2.944152 1_555
Ba27 N6 2.807726 1_565
Ba27 N5 2.807726 1_565
Ba27 N16 2.944152 1_555
Ba27 N19 2.944152 1_555
N0 Ti0 1.978948 1_555
N1 Ti1 1.978948 1_555
N2 Ti1 1.978948 1_555
N3 Ti0 1.978948 1_655
N4 Ti2 1.978948 1_655
N5 Ti3 1.978948 1_555
N6 Ti3 1.978948 1_555
N7 Ti2 1.978948 1_555
N16 Ti3 1.953417 1_555
N17 Ti2 1.953417 1_565
N18 Ti2 1.953417 1_665
N19 Ti3 1.953417 1_555
N20 Ti1 1.953417 1_555
N21 Ti0 1.953417 1_645
N22 Ti0 1.953417 1_545
N23 Ti1 1.953417 1_555
