# generated using pymatgen
data_H9C3SN4O3
_symmetry_space_group_name_H-M   'P 1'
_cell_length_a   7.32386720
_cell_length_b   7.55152482
_cell_length_c   7.93059495
_cell_angle_alpha   110.70458849
_cell_angle_beta   89.92426836
_cell_angle_gamma   85.82340336
_symmetry_Int_Tables_number   1
_chemical_formula_structural   H9C3SN4O3
_chemical_formula_sum   'H18 C6 S2 N8 O6'
_cell_volume   409.02301640
_cell_formula_units_Z   2
loop_
 _symmetry_equiv_pos_site_id
 _symmetry_equiv_pos_as_xyz
  1  'x, y, z'
loop_
 _atom_site_type_symbol
 _atom_site_label
 _atom_site_symmetry_multiplicity
 _atom_site_fract_x
 _atom_site_fract_y
 _atom_site_fract_z
 _atom_site_occupancy
  H  H0  1  0.16128100  0.24989400  0.59516300  1
  H  H1  1  0.83871900  0.75010600  0.40483700  1
  H  H2  1  0.11672100  0.34194200  0.41523100  1
  H  H3  1  0.88327900  0.65805800  0.58476900  1
  H  H4  1  0.93709000  0.40211700  0.12285000  1
  H  H5  1  0.06291000  0.59788300  0.87715000  1
  H  H6  1  0.25296400  0.91276000  0.07108500  1
  H  H7  1  0.74703600  0.08724000  0.92891500  1
  H  H8  1  0.61810900  0.30753500  0.34684300  1
  H  H9  1  0.38189100  0.69246500  0.65315700  1
  H  H10  1  0.40501200  0.62586200  0.41633500  1
  H  H11  1  0.59498800  0.37413800  0.58366500  1
  H  H12  1  0.13065600  0.48721900  0.14178200  1
  H  H13  1  0.86934400  0.51278100  0.85821800  1
  H  H14  1  0.30031100  0.79320800  0.27099500  1
  H  H15  1  0.69968900  0.20679200  0.72900500  1
  H  H16  1  0.17416400  0.15577300  0.12688800  1
  H  H17  1  0.82583600  0.84422700  0.87311200  1
  C  C0  1  0.70780100  0.10195200  0.44850600  1
  C  C1  1  0.29219900  0.89804800  0.55149400  1
  C  C2  1  0.56824600  0.45172200  0.05096500  1
  C  C3  1  0.43175400  0.54827800  0.94903500  1
  C  C4  1  0.21736500  0.06989900  0.33900400  1
  C  C5  1  0.78263500  0.93010100  0.66099600  1
  S  S0  1  0.23922100  0.07203200  0.75076400  1
  S  S1  1  0.76077900  0.92796800  0.24923600  1
  N  N0  1  0.64136900  0.27597000  0.46114700  1
  N  N1  1  0.35863100  0.72403000  0.53885300  1
  N  N2  1  0.72671400  0.08469300  0.61645500  1
  N  N3  1  0.27328600  0.91530700  0.38354500  1
  N  N4  1  0.16168800  0.23669600  0.46127900  1
  N  N5  1  0.83831200  0.76330400  0.53872100  1
  N  N6  1  0.22372200  0.04515400  0.16461600  1
  N  N7  1  0.77627800  0.95484600  0.83538400  1
  O  O0  1  0.52004000  0.45664100  0.20506000  1
  O  O1  1  0.47996000  0.54335900  0.79494000  1
  O  O2  1  0.27985200  0.62716400  0.03185000  1
  O  O3  1  0.72014800  0.37283600  0.96815000  1
  O  O4  1  0.05235000  0.41335900  0.18886600  1
  O  O5  1  0.94765000  0.58664100  0.81113400  1
loop_
_geom_bond_atom_site_label_1
_geom_bond_atom_site_label_2
_geom_bond_distance
_geom_bond_site_symmetry_2
H0 N4 1.030747 1_555
H1 N5 1.030747 1_555
H2 N4 1.020244 1_555
H3 N5 1.020244 1_555
H4 O4 0.986952 1_655
H5 O5 0.986952 1_455
H6 N6 1.019625 1_565
H7 N7 1.019625 1_545
H8 N0 1.027063 1_555
H9 N1 1.027063 1_555
H10 N1 1.030608 1_555
H11 N0 1.030608 1_555
H12 O4 0.986266 1_555
H13 O5 0.986266 1_555
H14 N3 1.037808 1_555
H15 N2 1.037808 1_555
H16 N6 1.025628 1_555
H17 N7 1.025628 1_555
C0 N0 1.336870 1_555
C0 N2 1.389544 1_555
C0 S1 1.682303 1_545
C1 N1 1.336870 1_555
C1 N3 1.389544 1_555
C1 S0 1.682303 1_565
C2 O0 1.258698 1_555
C2 O3 1.284049 1_554
C3 O1 1.258698 1_555
C3 O2 1.284049 1_556
C4 N4 1.324241 1_555
C4 N6 1.328760 1_555
C4 N3 1.370283 1_545
C5 N5 1.324241 1_555
C5 N7 1.328760 1_555
C5 N2 1.370283 1_565
