# generated using pymatgen
data_Li6Mn3CoO10
_symmetry_space_group_name_H-M   'P 1'
_cell_length_a   2.99748600
_cell_length_b   5.08061577
_cell_length_c   12.12560295
_cell_angle_alpha   96.26815116
_cell_angle_beta   93.14955013
_cell_angle_gamma   91.71837006
_symmetry_Int_Tables_number   1
_chemical_formula_structural   Li6Mn3CoO10
_chemical_formula_sum   'Li6 Mn3 Co1 O10'
_cell_volume   183.16000437
_cell_formula_units_Z   1
loop_
 _symmetry_equiv_pos_site_id
 _symmetry_equiv_pos_as_xyz
  1  'x, y, z'
loop_
 _atom_site_type_symbol
 _atom_site_label
 _atom_site_symmetry_multiplicity
 _atom_site_fract_x
 _atom_site_fract_y
 _atom_site_fract_z
 _atom_site_occupancy
  Li  Li0  1  0.90386000  0.29488900  0.80212100  1
  Li  Li1  1  0.29295100  0.10468200  0.59381700  1
  Li  Li2  1  0.69020700  0.91587800  0.39853200  1
  Li  Li3  1  0.10557700  0.69692600  0.20082800  1
  Li  Li4  1  0.50492000  0.49841000  0.00203100  1
  Li  Li5  1  0.20845800  0.38632600  0.40189000  1
  Mn  Mn0  1  0.00544000  0.00503900  0.00359500  1
  Mn  Mn1  1  0.79236900  0.59113600  0.59201800  1
  Mn  Mn2  1  0.39142000  0.80330000  0.79858300  1
  Co  Co0  1  0.61411000  0.20735400  0.21020700  1
  O  O0  1  0.42056600  0.13790800  0.89873500  1
  O  O1  1  0.81489500  0.92719700  0.70000600  1
  O  O2  1  0.27815000  0.72722900  0.51144400  1
  O  O3  1  0.64068500  0.51466800  0.28816600  1
  O  O4  1  0.02651500  0.33284000  0.10164300  1
  O  O5  1  0.32067700  0.47788300  0.69057400  1
  O  O6  1  0.76126700  0.26936000  0.50751500  1
  O  O7  1  0.17235900  0.05608400  0.29213900  1
  O  O8  1  0.57793300  0.88376300  0.10444300  1
  O  O9  1  0.97764200  0.66913000  0.90171500  1
loop_
_geom_bond_atom_site_label_1
_geom_bond_atom_site_label_2
_geom_bond_distance
_geom_bond_site_symmetry_2
Li0 O0 2.104371 1_555
Li0 O0 2.118040 1_655
Li0 O1 2.126691 1_545
Li0 O9 2.136951 1_555
Li0 O5 2.155337 1_655
Li0 O5 2.421134 1_555
Li1 O6 2.011923 1_555
Li1 O2 2.061293 1_545
Li1 O6 2.103073 1_455
Li1 O5 2.114858 1_555
Li1 O1 2.214324 1_445
Li1 O1 2.244005 1_545
Li2 O6 2.108285 1_565
Li2 O7 2.145753 1_665
Li2 O7 2.151305 1_565
Li2 O2 2.172571 1_555
Li2 O3 2.309191 1_555
Li2 O2 2.453921 1_655
Li3 O7 2.026875 1_565
Li3 O3 2.054204 1_455
Li3 O4 2.093057 1_555
Li3 O8 2.148300 1_555
Li3 O3 2.160621 1_555
Li3 O8 2.213062 1_455
Li4 O0 2.103305 1_554
Li4 O4 2.136064 1_555
Li4 O9 2.141454 1_554
Li4 O4 2.168919 1_655
Li4 O9 2.198017 1_454
Li4 O8 2.199233 1_555
Li5 O7 2.020784 1_555
Li5 O6 2.024200 1_455
Li5 O2 2.062406 1_555
Li5 O3 2.085019 1_555
Li5 O6 2.175162 1_555
Li5 O3 2.286524 1_455
Mn0 O4 1.934990 1_555
Mn0 O8 1.951016 1_445
Mn0 O0 1.982842 1_554
Mn0 O9 1.991332 1_444
Mn0 O8 2.194799 1_545
Mn0 O0 2.271429 1_454
Mn1 O6 1.829157 1_555
Mn1 O2 1.948429 1_655
Mn1 O2 1.963259 1_555
Mn1 O5 2.011304 1_555
Mn1 O1 2.032122 1_555
Mn1 O5 2.064909 1_655
Mn2 O1 1.928567 1_555
Mn2 O9 1.967922 1_455
Mn2 O0 1.975115 1_565
Mn2 O5 1.992312 1_555
Mn2 O1 2.194075 1_455
Mn2 O9 2.265558 1_555
Co0 O3 1.731967 1_555
Co0 O7 1.892420 1_555
Co0 O8 1.967979 1_545
Co0 O4 1.995579 1_655
Co0 O7 2.106873 1_655
Co0 O4 2.288542 1_555
