# generated using pymatgen
data_BaP2PdO7
_symmetry_space_group_name_H-M   'P 1'
_cell_length_a   6.27106000
_cell_length_b   7.61388000
_cell_length_c   14.01933900
_cell_angle_alpha   90.00000000
_cell_angle_beta   90.00000000
_cell_angle_gamma   90.00000000
_symmetry_Int_Tables_number   1
_chemical_formula_structural   BaP2PdO7
_chemical_formula_sum   'Ba4 P8 Pd4 O28'
_cell_volume   669.38275751
_cell_formula_units_Z   4
loop_
 _symmetry_equiv_pos_site_id
 _symmetry_equiv_pos_as_xyz
  1  'x, y, z'
loop_
 _atom_site_type_symbol
 _atom_site_label
 _atom_site_symmetry_multiplicity
 _atom_site_fract_x
 _atom_site_fract_y
 _atom_site_fract_z
 _atom_site_occupancy
  Ba  Ba0  1  0.25000000  0.74690100  0.23916000  1
  Ba  Ba1  1  0.75000000  0.25309900  0.76084000  1
  Ba  Ba2  1  0.75000000  0.24690100  0.26084000  1
  Ba  Ba3  1  0.25000000  0.75309900  0.73916000  1
  P  P0  1  0.25000000  0.27781500  0.11871700  1
  P  P1  1  0.75000000  0.72218500  0.88128300  1
  P  P2  1  0.75000000  0.77781500  0.38128300  1
  P  P3  1  0.25000000  0.22218500  0.61871700  1
  P  P4  1  0.25000000  0.18254300  0.41520600  1
  P  P5  1  0.75000000  0.81745700  0.58479400  1
  P  P6  1  0.75000000  0.68254300  0.08479400  1
  P  P7  1  0.25000000  0.31745700  0.91520600  1
  Pd  Pd0  1  0.00000000  0.00000000  0.00000000  1
  Pd  Pd1  1  0.00000000  0.50000000  0.50000000  1
  Pd  Pd2  1  0.50000000  0.00000000  0.00000000  1
  Pd  Pd3  1  0.50000000  0.50000000  0.50000000  1
  O  O0  1  0.25000000  0.03654900  0.34353500  1
  O  O1  1  0.75000000  0.96345100  0.65646500  1
  O  O2  1  0.75000000  0.53654900  0.15646500  1
  O  O3  1  0.25000000  0.46345100  0.84353500  1
  O  O4  1  0.25000000  0.39895200  0.02309100  1
  O  O5  1  0.75000000  0.60104800  0.97690900  1
  O  O6  1  0.75000000  0.89895200  0.47690900  1
  O  O7  1  0.25000000  0.10104800  0.52309100  1
  O  O8  1  0.25000000  0.39731700  0.20434300  1
  O  O9  1  0.75000000  0.60268300  0.79565700  1
  O  O10  1  0.75000000  0.89731700  0.29565700  1
  O  O11  1  0.25000000  0.10268300  0.70434300  1
  O  O12  1  0.04281300  0.29459500  0.40802900  1
  O  O13  1  0.95718700  0.70540500  0.59197100  1
  O  O14  1  0.95718700  0.79459500  0.09197100  1
  O  O15  1  0.54281300  0.70540500  0.59197100  1
  O  O16  1  0.04281300  0.20540500  0.90802900  1
  O  O17  1  0.45718700  0.29459500  0.40802900  1
  O  O18  1  0.45718700  0.20540500  0.90802900  1
  O  O19  1  0.54281300  0.79459500  0.09197100  1
  O  O20  1  0.04476700  0.16244000  0.11569500  1
  O  O21  1  0.95523300  0.83756000  0.88430500  1
  O  O22  1  0.95523300  0.66244000  0.38430500  1
  O  O23  1  0.54476700  0.83756000  0.88430500  1
  O  O24  1  0.04476700  0.33756000  0.61569500  1
  O  O25  1  0.45523300  0.16244000  0.11569500  1
  O  O26  1  0.45523300  0.33756000  0.61569500  1
  O  O27  1  0.54476700  0.66244000  0.38430500  1
loop_
_geom_bond_atom_site_label_1
_geom_bond_atom_site_label_2
_geom_bond_distance
_geom_bond_site_symmetry_2
Ba0 O0 2.646640 1_565
Ba0 O8 2.706076 1_555
Ba0 O19 2.785978 1_555
Ba0 O14 2.785978 1_455
Ba0 O27 2.823308 1_555
Ba0 O22 2.823308 1_455
Ba1 O1 2.646640 1_545
Ba1 O9 2.706076 1_555
Ba1 O16 2.785978 1_655
Ba1 O18 2.785978 1_555
Ba1 O24 2.823308 1_655
Ba1 O26 2.823308 1_555
Ba2 O2 2.646640 1_555
Ba2 O10 2.706076 1_545
Ba2 O12 2.785978 1_655
Ba2 O17 2.785978 1_555
Ba2 O25 2.823308 1_555
Ba2 O20 2.823308 1_655
Ba3 O3 2.646640 1_555
Ba3 O11 2.706076 1_565
Ba3 O15 2.785978 1_555
Ba3 O13 2.785978 1_455
Ba3 O21 2.823308 1_455
Ba3 O23 2.823308 1_555
O0 P4 1.498397 1_555
O1 P5 1.498397 1_555
O2 P6 1.498397 1_555
O3 P7 1.498397 1_555
O4 P0 1.627244 1_555
O4 P7 1.634808 1_554
O5 P1 1.627244 1_555
O5 P6 1.634808 1_556
O6 P2 1.627244 1_555
O6 P5 1.634808 1_555
O7 P3 1.627244 1_555
O7 P4 1.634808 1_555
O8 P0 1.506280 1_555
O9 P1 1.506280 1_555
O10 P2 1.506280 1_555
O11 P3 1.506280 1_555
O12 P4 1.557602 1_555
O12 Pd1 2.044612 1_555
O13 P5 1.557602 1_555
O13 Pd1 2.044612 1_655
O14 P6 1.557602 1_555
O14 Pd0 2.044612 1_665
O15 P5 1.557602 1_555
O15 Pd3 2.044612 1_555
O16 P7 1.557602 1_555
O16 Pd0 2.044612 1_556
O17 P4 1.557602 1_555
O17 Pd3 2.044612 1_555
O18 P7 1.557602 1_555
O18 Pd2 2.044612 1_556
O19 P6 1.557602 1_555
O19 Pd2 2.044612 1_565
O20 P0 1.558818 1_555
O20 Pd0 2.058947 1_555
O21 P1 1.558818 1_555
O21 Pd0 2.058947 1_666
O22 P2 1.558818 1_555
O22 Pd1 2.058947 1_655
O23 P1 1.558818 1_555
O23 Pd2 2.058947 1_566
O24 P3 1.558818 1_555
O24 Pd1 2.058947 1_555
O25 P0 1.558818 1_555
O25 Pd2 2.058947 1_555
O26 P3 1.558818 1_555
O26 Pd3 2.058947 1_555
O27 P2 1.558818 1_555
O27 Pd3 2.058947 1_555
