# generated using pymatgen
data_LiSn(PO3)4
_symmetry_space_group_name_H-M   'P 1'
_cell_length_a   7.63060826
_cell_length_b   7.63060826
_cell_length_c   10.66993964
_cell_angle_alpha   65.67612041
_cell_angle_beta   65.67612041
_cell_angle_gamma   69.25576011
_symmetry_Int_Tables_number   1
_chemical_formula_structural   LiSn(PO3)4
_chemical_formula_sum   'Li2 Sn2 P8 O24'
_cell_volume   502.96570684
_cell_formula_units_Z   2
loop_
 _symmetry_equiv_pos_site_id
 _symmetry_equiv_pos_as_xyz
  1  'x, y, z'
loop_
 _atom_site_type_symbol
 _atom_site_label
 _atom_site_symmetry_multiplicity
 _atom_site_fract_x
 _atom_site_fract_y
 _atom_site_fract_z
 _atom_site_occupancy
  Li  Li0  1  0.00158400  0.99841600  0.25000000  1
  Li  Li1  1  0.99841600  0.00158400  0.75000000  1
  Sn  Sn0  1  0.00000000  0.50000000  0.50000000  1
  Sn  Sn1  1  0.50000000  0.00000000  0.00000000  1
  P  P0  1  0.69373200  0.68050100  0.81078400  1
  P  P1  1  0.25766300  0.72587800  0.97673400  1
  P  P2  1  0.27412200  0.74233700  0.52326600  1
  P  P3  1  0.68050100  0.69373200  0.31078400  1
  P  P4  1  0.31949900  0.30626800  0.68921600  1
  P  P5  1  0.72587800  0.25766300  0.47673400  1
  P  P6  1  0.74233700  0.27412200  0.02326600  1
  P  P7  1  0.30626800  0.31949900  0.18921600  1
  O  O0  1  0.79743200  0.65760700  0.66315400  1
  O  O1  1  0.29303000  0.80365400  0.07355900  1
  O  O2  1  0.46701700  0.68048800  0.85250500  1
  O  O3  1  0.10195200  0.83458700  0.90784900  1
  O  O4  1  0.86267900  0.71056400  0.32759800  1
  O  O5  1  0.22540700  0.50370200  0.06828300  1
  O  O6  1  0.80365400  0.29303000  0.57355900  1
  O  O7  1  0.16541300  0.89804800  0.59215100  1
  O  O8  1  0.49629800  0.77459300  0.43171700  1
  O  O9  1  0.65760700  0.79743200  0.16315400  1
  O  O10  1  0.31951200  0.53298300  0.64749500  1
  O  O11  1  0.28943600  0.13732100  0.17240200  1
  O  O12  1  0.71056400  0.86267900  0.82759800  1
  O  O13  1  0.68048800  0.46701700  0.35250500  1
  O  O14  1  0.34239300  0.20256800  0.83684600  1
  O  O15  1  0.50370200  0.22540700  0.56828300  1
  O  O16  1  0.83458700  0.10195200  0.40784900  1
  O  O17  1  0.19634600  0.70697000  0.42644100  1
  O  O18  1  0.77459300  0.49629800  0.93171700  1
  O  O19  1  0.13732100  0.28943600  0.67240200  1
  O  O20  1  0.89804800  0.16541300  0.09215100  1
  O  O21  1  0.53298300  0.31951200  0.14749500  1
  O  O22  1  0.70697000  0.19634600  0.92644100  1
  O  O23  1  0.20256800  0.34239300  0.33684600  1
loop_
_geom_bond_atom_site_label_1
_geom_bond_atom_site_label_2
_geom_bond_distance
_geom_bond_site_symmetry_2
Li0 O20 1.923435 1_465
Li0 O16 1.923435 1_465
Li0 O4 2.462043 1_455
Li0 O11 2.462043 1_565
Li1 O7 1.923435 1_645
Li1 O3 1.923435 1_645
Li1 O12 2.462043 1_545
Li1 O19 2.462043 1_655
O0 P0 1.496625 1_555
O0 Sn0 2.248832 1_655
O1 P1 1.529904 1_554
O1 Sn1 2.245284 1_565
O2 P0 1.598952 1_555
O2 P1 1.634264 1_555
O3 P1 1.469363 1_555
O4 P3 1.527106 1_555
O4 Sn0 2.241386 1_655
O5 P7 1.602741 1_555
O5 P1 1.619333 1_554
O6 P5 1.529904 1_555
O6 Sn0 2.245284 1_655
O7 P2 1.469363 1_555
O8 P3 1.602741 1_555
O8 P2 1.619333 1_555
O9 P3 1.496625 1_555
O9 Sn1 2.248832 1_565
O10 P4 1.598952 1_555
O10 P2 1.634264 1_555
O11 P7 1.527106 1_555
O11 Sn1 2.241386 1_555
O12 P0 1.527106 1_555
O12 Sn1 2.241386 1_566
O13 P3 1.598952 1_555
O13 P5 1.634264 1_555
O14 P4 1.496625 1_555
O14 Sn1 2.248832 1_556
O15 P4 1.602741 1_555
O15 P5 1.619333 1_555
O16 P5 1.469363 1_555
O17 P2 1.529904 1_555
O17 Sn0 2.245284 1_555
O18 P0 1.602741 1_555
O18 P6 1.619333 1_556
O19 P4 1.527106 1_555
O19 Sn0 2.241386 1_555
O20 P6 1.469363 1_555
O21 P7 1.598952 1_555
O21 P6 1.634264 1_555
O22 P6 1.529904 1_556
O22 Sn1 2.245284 1_556
O23 P7 1.496625 1_555
O23 Sn0 2.248832 1_555
