# generated using pymatgen
data_EuVO3
_symmetry_space_group_name_H-M   'P 1'
_cell_length_a   5.44924128
_cell_length_b   5.44359745
_cell_length_c   7.68337572
_cell_angle_alpha   90.00000000
_cell_angle_beta   90.00000000
_cell_angle_gamma   90.00000000
_symmetry_Int_Tables_number   1
_chemical_formula_structural   EuVO3
_chemical_formula_sum   'Eu4 V4 O12'
_cell_volume   227.91563078
_cell_formula_units_Z   4
loop_
 _symmetry_equiv_pos_site_id
 _symmetry_equiv_pos_as_xyz
  1  'x, y, z'
loop_
 _atom_site_type_symbol
 _atom_site_label
 _atom_site_symmetry_multiplicity
 _atom_site_fract_x
 _atom_site_fract_y
 _atom_site_fract_z
 _atom_site_occupancy
  Eu  Eu0  1  0.99654387  0.02132002  0.25000000  1
  Eu  Eu1  1  0.49654387  0.47867998  0.75000000  1
  Eu  Eu2  1  0.50345613  0.52132002  0.25000000  1
  Eu  Eu3  1  0.00345613  0.97867998  0.75000000  1
  V  V0  1  0.50000000  -0.00000000  -0.00000000  1
  V  V1  1  0.50000000  -0.00000000  0.50000000  1
  V  V2  1  0.00000000  0.50000000  -0.00000000  1
  V  V3  1  0.00000000  0.50000000  0.50000000  1
  O  O0  1  0.55556161  0.00618968  0.75000000  1
  O  O1  1  0.22375264  0.22277943  0.52911083  1
  O  O2  1  0.22375264  0.22277943  0.97088917  1
  O  O3  1  0.72375264  0.27722057  0.02911083  1
  O  O4  1  0.72375264  0.27722057  0.47088917  1
  O  O5  1  0.05556161  0.49381032  0.25000000  1
  O  O6  1  0.94443839  0.50618968  0.75000000  1
  O  O7  1  0.27624736  0.72277943  0.97088917  1
  O  O8  1  0.27624736  0.72277943  0.52911083  1
  O  O9  1  0.77624736  0.77722057  0.02911083  1
  O  O10  1  0.77624736  0.77722057  0.47088917  1
  O  O11  1  0.44443839  0.99381032  0.25000000  1
loop_
_geom_bond_atom_site_label_1
_geom_bond_atom_site_label_2
_geom_bond_distance
_geom_bond_site_symmetry_2
Eu0 O11 2.445275 1_645
Eu0 O10 2.467212 1_545
Eu0 O9 2.467212 1_545
Eu0 O5 2.592075 1_655
Eu0 O3 2.651528 1_555
Eu0 O4 2.651528 1_555
Eu0 O1 2.708235 1_655
Eu0 O2 2.708235 1_654
Eu0 O5 2.889503 1_645
Eu0 O11 3.012281 1_545
Eu0 O7 3.092426 1_644
Eu0 O8 3.092426 1_645
Eu1 O6 2.445275 1_555
Eu1 O8 2.467212 1_555
Eu1 O7 2.467212 1_555
Eu1 O0 2.592075 1_555
Eu1 O1 2.651528 1_555
Eu1 O2 2.651528 1_555
Eu1 O4 2.708235 1_555
Eu1 O3 2.708235 1_556
Eu1 O0 2.889503 1_565
Eu1 O6 3.012281 1_455
Eu1 O10 3.092426 1_555
Eu1 O9 3.092426 1_556
Eu2 O5 2.445275 1_555
Eu2 O3 2.467212 1_555
Eu2 O4 2.467212 1_555
Eu2 O11 2.592075 1_555
Eu2 O10 2.651528 1_555
Eu2 O9 2.651528 1_555
Eu2 O7 2.708235 1_554
Eu2 O8 2.708235 1_555
Eu2 O11 2.889503 1_545
Eu2 O5 3.012281 1_655
Eu2 O1 3.092426 1_555
Eu2 O2 3.092426 1_554
Eu3 O0 2.445275 1_465
Eu3 O2 2.467212 1_565
Eu3 O1 2.467212 1_565
Eu3 O6 2.592075 1_455
Eu3 O7 2.651528 1_555
Eu3 O8 2.651528 1_555
Eu3 O9 2.708235 1_456
Eu3 O10 2.708235 1_455
Eu3 O6 2.889503 1_465
Eu3 O0 3.012281 1_565
Eu3 O4 3.092426 1_465
Eu3 O3 3.092426 1_466
O0 V1 1.944851 1_555
O0 V0 1.944851 1_556
O1 V1 1.945961 1_555
O1 V3 1.952944 1_555
O2 V0 1.945961 1_556
O2 V2 1.952944 1_556
O3 V2 1.945961 1_655
O3 V0 1.952944 1_555
O4 V3 1.945961 1_655
O4 V1 1.952944 1_555
O5 V2 1.944851 1_555
O5 V3 1.944851 1_555
O6 V3 1.944851 1_655
O6 V2 1.944851 1_656
O7 V2 1.945961 1_556
O7 V0 1.952944 1_566
O8 V3 1.945961 1_555
O8 V1 1.952944 1_565
O9 V0 1.945961 1_565
O9 V2 1.952944 1_655
O10 V1 1.945961 1_565
O10 V3 1.952944 1_655
O11 V0 1.944851 1_565
O11 V1 1.944851 1_565
