# generated using pymatgen
data_AlTe(WO4)2
_symmetry_space_group_name_H-M   'P 1'
_cell_length_a   5.66980200
_cell_length_b   5.13070300
_cell_length_c   10.83308921
_cell_angle_alpha   64.13997826
_cell_angle_beta   90.00000000
_cell_angle_gamma   90.00000000
_symmetry_Int_Tables_number   1
_chemical_formula_structural   AlTe(WO4)2
_chemical_formula_sum   'Al2 Te2 W4 O16'
_cell_volume   283.57841067
_cell_formula_units_Z   2
loop_
 _symmetry_equiv_pos_site_id
 _symmetry_equiv_pos_as_xyz
  1  'x, y, z'
loop_
 _atom_site_type_symbol
 _atom_site_label
 _atom_site_symmetry_multiplicity
 _atom_site_fract_x
 _atom_site_fract_y
 _atom_site_fract_z
 _atom_site_occupancy
  Al  Al0  1  0.66584000  0.00000000  0.25000000  1
  Al  Al1  1  0.33416000  0.00000000  0.75000000  1
  Te  Te0  1  0.35986100  0.50000000  0.25000000  1
  Te  Te1  1  0.64013900  0.50000000  0.75000000  1
  W  W0  1  0.15326100  0.26906800  0.99691000  1
  W  W1  1  0.15326100  0.73093200  0.50309000  1
  W  W2  1  0.84673900  0.73093200  0.00309000  1
  W  W3  1  0.84673900  0.26906800  0.49691000  1
  O  O0  1  0.40664400  0.74359100  0.36771000  1
  O  O1  1  0.40664400  0.25640900  0.13229000  1
  O  O2  1  0.59335600  0.25640900  0.63229000  1
  O  O3  1  0.59335600  0.74359100  0.86771000  1
  O  O4  1  0.87591000  0.16475200  0.90459000  1
  O  O5  1  0.87591000  0.83524800  0.59541000  1
  O  O6  1  0.12409000  0.83524800  0.09541000  1
  O  O7  1  0.12409000  0.16475200  0.40459000  1
  O  O8  1  0.63147300  0.22175700  0.35347900  1
  O  O9  1  0.63147300  0.77824300  0.14652100  1
  O  O10  1  0.36852700  0.77824300  0.64652100  1
  O  O11  1  0.36852700  0.22175700  0.85347900  1
  O  O12  1  0.88407500  0.70343800  0.37301500  1
  O  O13  1  0.11592500  0.29656200  0.62698500  1
  O  O14  1  0.88407500  0.29656200  0.12698500  1
  O  O15  1  0.11592500  0.70343800  0.87301500  1
loop_
_geom_bond_atom_site_label_1
_geom_bond_atom_site_label_2
_geom_bond_distance
_geom_bond_site_symmetry_2
Al0 O9 1.923992 1_545
Al0 O8 1.923992 1_555
Al0 O14 1.962974 1_555
Al0 O12 1.962974 1_545
Al0 O0 2.013212 1_545
Al0 O1 2.013212 1_555
Al1 O10 1.923992 1_545
Al1 O11 1.923992 1_555
Al1 O13 1.962974 1_555
Al1 O15 1.962974 1_545
Al1 O3 2.013212 1_545
Al1 O2 2.013212 1_555
O0 W1 2.033692 1_555
O0 Te0 2.156069 1_555
O1 W0 2.033692 1_554
O1 Te0 2.156069 1_555
O2 W3 2.033692 1_555
O2 Te1 2.156069 1_555
O3 W2 2.033692 1_556
O3 Te1 2.156069 1_555
O4 W2 2.012034 1_546
O4 W0 2.055835 1_655
O4 Te1 2.244392 1_555
O5 W3 2.012034 1_565
O5 W1 2.055835 1_655
O5 Te1 2.244392 1_555
O6 W0 2.012034 1_564
O6 W2 2.055835 1_455
O6 Te0 2.244392 1_555
O7 W1 2.012034 1_545
O7 W3 2.055835 1_455
O7 Te0 2.244392 1_555
O8 Te0 2.066434 1_555
O8 W3 2.071690 1_555
O9 Te0 2.066434 1_555
O9 W2 2.071690 1_555
O10 Te1 2.066434 1_555
O10 W1 2.071690 1_555
O11 Te1 2.066434 1_555
O11 W0 2.071690 1_555
O12 W3 2.050276 1_555
O12 W1 2.123272 1_655
O13 W1 2.050276 1_555
O13 W3 2.123272 1_455
O14 W2 2.050276 1_555
O14 W0 2.123272 1_654
O15 W0 2.050276 1_555
O15 W2 2.123272 1_456
