# generated using pymatgen
data_TiCuNO4F7
_symmetry_space_group_name_H-M   'P 1'
_cell_length_a   6.52927900
_cell_length_b   6.52927900
_cell_length_c   8.64643700
_cell_angle_alpha   90.00000000
_cell_angle_beta   90.00000000
_cell_angle_gamma   90.00000000
_symmetry_Int_Tables_number   1
_chemical_formula_structural   TiCuNO4F7
_chemical_formula_sum   'Ti2 Cu2 N2 O8 F14'
_cell_volume   368.61044287
_cell_formula_units_Z   2
loop_
 _symmetry_equiv_pos_site_id
 _symmetry_equiv_pos_as_xyz
  1  'x, y, z'
loop_
 _atom_site_type_symbol
 _atom_site_label
 _atom_site_symmetry_multiplicity
 _atom_site_fract_x
 _atom_site_fract_y
 _atom_site_fract_z
 _atom_site_occupancy
  Ti  Ti0  1  0.00000000  0.50000000  0.82454300  1
  Ti  Ti1  1  0.50000000  0.00000000  0.17545700  1
  Cu  Cu0  1  0.00000000  0.50000000  0.33896700  1
  Cu  Cu1  1  0.50000000  0.00000000  0.66103300  1
  N  N0  1  0.50000000  0.50000000  0.00000000  1
  N  N1  1  0.00000000  0.00000000  0.00000000  1
  O  O0  1  0.73012000  0.55639100  0.32201300  1
  O  O1  1  0.26988000  0.44360900  0.32201300  1
  O  O2  1  0.05639100  0.76988000  0.32201300  1
  O  O3  1  0.94360900  0.23012000  0.32201300  1
  O  O4  1  0.76988000  0.94360900  0.67798700  1
  O  O5  1  0.23012000  0.05639100  0.67798700  1
  O  O6  1  0.44360900  0.73012000  0.67798700  1
  O  O7  1  0.55639100  0.26988000  0.67798700  1
  F  F0  1  0.00000000  0.50000000  0.60668600  1
  F  F1  1  0.50000000  0.00000000  0.39331400  1
  F  F2  1  0.00000000  0.50000000  0.03842100  1
  F  F3  1  0.50000000  0.00000000  0.96157900  1
  F  F4  1  0.73568200  0.62597000  0.82440100  1
  F  F5  1  0.26431800  0.37403000  0.82440100  1
  F  F6  1  0.12597000  0.76431800  0.82440100  1
  F  F7  1  0.87403000  0.23568200  0.82440100  1
  F  F8  1  0.76431800  0.87403000  0.17559900  1
  F  F9  1  0.23568200  0.12597000  0.17559900  1
  F  F10  1  0.37403000  0.73568200  0.17559900  1
  F  F11  1  0.62597000  0.26431800  0.17559900  1
  F  F12  1  0.50000000  0.50000000  0.50000000  1
  F  F13  1  0.00000000  0.00000000  0.50000000  1
loop_
_geom_bond_atom_site_label_1
_geom_bond_atom_site_label_2
_geom_bond_distance
_geom_bond_site_symmetry_2
Cu0 O0 1.806136 1_455
Cu0 O1 1.806136 1_555
Cu0 O2 1.806136 1_555
Cu0 O3 1.806136 1_455
Cu0 F0 2.314815 1_555
Cu1 O6 1.806136 1_545
Cu1 O5 1.806136 1_555
Cu1 O7 1.806136 1_555
Cu1 O4 1.806136 1_545
Cu1 F1 2.314815 1_555
F0 Ti0 1.883687 1_555
F1 Ti1 1.883687 1_555
F2 Ti0 1.849283 1_554
F3 Ti1 1.849283 1_556
F4 Ti0 1.911780 1_655
F5 Ti0 1.911780 1_555
F6 Ti0 1.911780 1_555
F7 Ti0 1.911780 1_655
F8 Ti1 1.911780 1_565
F9 Ti1 1.911780 1_555
F10 Ti1 1.911780 1_565
F11 Ti1 1.911780 1_555
