# generated using pymatgen
data_Er11(In3Ge2)2
_symmetry_space_group_name_H-M   'P 1'
_cell_length_a   11.45576590
_cell_length_b   11.45576590
_cell_length_c   11.45576590
_cell_angle_alpha   120.04041027
_cell_angle_beta   120.04041027
_cell_angle_gamma   89.93002161
_symmetry_Int_Tables_number   1
_chemical_formula_structural   Er11(In3Ge2)2
_chemical_formula_sum   'Er22 In12 Ge8'
_cell_volume   1062.40888440
_cell_formula_units_Z   2
loop_
 _symmetry_equiv_pos_site_id
 _symmetry_equiv_pos_as_xyz
  1  'x, y, z'
loop_
 _atom_site_type_symbol
 _atom_site_label
 _atom_site_symmetry_multiplicity
 _atom_site_fract_x
 _atom_site_fract_y
 _atom_site_fract_z
 _atom_site_occupancy
  Er  Er0  1  0.68530100  0.93503400  0.24973400  1
  Er  Er1  1  0.68530100  0.43556700  0.75026600  1
  Er  Er2  1  0.93503400  0.68530100  0.24973400  1
  Er  Er3  1  0.43556700  0.68530100  0.75026600  1
  Er  Er4  1  0.31469900  0.06496600  0.75026600  1
  Er  Er5  1  0.31469900  0.56443300  0.24973400  1
  Er  Er6  1  0.06496600  0.31469900  0.75026600  1
  Er  Er7  1  0.56443300  0.31469900  0.24973400  1
  Er  Er8  1  0.89815800  0.24374900  0.34559100  1
  Er  Er9  1  0.89815800  0.55256600  0.65440900  1
  Er  Er10  1  0.24374900  0.89815800  0.34559100  1
  Er  Er11  1  0.55256600  0.89815800  0.65440900  1
  Er  Er12  1  0.10184200  0.75625100  0.65440900  1
  Er  Er13  1  0.10184200  0.44743400  0.34559100  1
  Er  Er14  1  0.75625100  0.10184200  0.65440900  1
  Er  Er15  1  0.44743400  0.10184200  0.34559100  1
  Er  Er16  1  0.33072500  0.33072500  0.66144900  1
  Er  Er17  1  0.66927500  0.66927500  0.33855100  1
  Er  Er18  1  0.33072500  0.66927500  0.00000000  1
  Er  Er19  1  0.66927500  0.33072500  0.00000000  1
  Er  Er20  1  0.83131800  0.83131800  0.00000000  1
  Er  Er21  1  0.16868200  0.16868200  0.00000000  1
  In  In0  1  0.03447900  0.03447900  0.41128600  1
  In  In1  1  0.62319300  0.62319300  0.58871400  1
  In  In2  1  0.03447900  0.62319300  0.00000000  1
  In  In3  1  0.62319300  0.03447900  0.00000000  1
  In  In4  1  0.96552100  0.96552100  0.58871400  1
  In  In5  1  0.37680700  0.37680700  0.41128600  1
  In  In6  1  0.96552100  0.37680700  0.00000000  1
  In  In7  1  0.37680700  0.96552100  0.00000000  1
  In  In8  1  0.12885200  0.12885200  0.25770300  1
  In  In9  1  0.87114800  0.87114800  0.74229700  1
  In  In10  1  0.12885200  0.87114800  0.00000000  1
  In  In11  1  0.87114800  0.12885200  0.00000000  1
  Ge  Ge0  1  0.15245200  0.50000000  0.65245200  1
  Ge  Ge1  1  0.84754800  0.50000000  0.34754800  1
  Ge  Ge2  1  0.50000000  0.84754800  0.34754800  1
  Ge  Ge3  1  0.50000000  0.15245200  0.65245200  1
  Ge  Ge4  1  0.61649500  0.61649500  0.00000000  1
  Ge  Ge5  1  0.38350500  0.38350500  0.00000000  1
  Ge  Ge6  1  0.75000000  0.25000000  0.50000000  1
  Ge  Ge7  1  0.25000000  0.75000000  0.50000000  1
loop_
_geom_bond_atom_site_label_1
_geom_bond_atom_site_label_2
_geom_bond_distance
_geom_bond_site_symmetry_2
Er0 Ge6 3.051174 1_565
Er0 Ge4 3.069004 1_555
Er0 Ge2 3.205822 1_555
Er0 In0 3.348417 1_665
Er0 In3 3.348425 1_565
Er0 In4 3.416218 1_555
Er0 In7 3.416230 1_555
Er1 Ge6 3.051166 1_555
Er1 Ge4 3.069012 1_556
Er1 Ge3 3.205828 1_555
Er1 In2 3.348416 1_656
Er1 In1 3.348416 1_555
Er1 In5 3.416224 1_555
Er1 In6 3.416224 1_556
Er2 Ge7 3.051174 1_655
Er2 Ge4 3.069004 1_555
Er2 Ge1 3.205822 1_555
Er2 In0 3.348417 1_665
Er2 In2 3.348425 1_655
Er2 In4 3.416218 1_555
Er2 In6 3.416230 1_555
Er3 Ge7 3.051166 1_555
Er3 Ge4 3.069012 1_556
Er3 Ge0 3.205828 1_555
Er3 In3 3.348416 1_566
Er3 In1 3.348416 1_555
Er3 In5 3.416224 1_555
Er3 In7 3.416224 1_556
Er4 Ge7 3.051174 1_545
Er4 Ge5 3.069004 1_556
Er4 Ge3 3.205822 1_555
Er4 In4 3.348417 1_445
Er4 In7 3.348425 1_546
Er4 In0 3.416218 1_555
Er4 In3 3.416230 1_556
Er5 Ge7 3.051166 1_555
Er5 Ge5 3.069012 1_555
Er5 Ge2 3.205828 1_555
Er5 In6 3.348416 1_455
Er5 In5 3.348416 1_555
Er5 In2 3.416224 1_555
Er5 In1 3.416224 1_555
Er6 Ge6 3.051174 1_455
Er6 Ge5 3.069004 1_556
Er6 Ge0 3.205822 1_555
Er6 In4 3.348417 1_445
Er6 In6 3.348425 1_456
Er6 In0 3.416218 1_555
Er6 In2 3.416230 1_556
Er7 Ge6 3.051166 1_555
Er7 Ge5 3.069012 1_555
Er7 Ge1 3.205828 1_555
Er7 In7 3.348416 1_545
Er7 In5 3.348416 1_555
Er7 In3 3.416224 1_555
Er7 In1 3.416224 1_555
Er8 Ge6 2.982203 1_555
Er8 Ge0 2.982796 1_655
Er8 Ge1 2.982796 1_555
Er8 In3 3.061536 1_555
Er8 In0 3.061536 1_655
Er8 In11 3.325526 1_555
Er8 In8 3.325532 1_655
Er9 Ge6 2.982193 1_555
Er9 Ge0 2.982793 1_655
Er9 Ge1 2.982800 1_555
Er9 In2 3.061531 1_656
Er9 In1 3.061540 1_555
Er9 In10 3.325532 1_656
Er9 In9 3.325535 1_555
Er10 Ge7 2.982203 1_555
Er10 Ge3 2.982796 1_565
Er10 Ge2 2.982796 1_555
Er10 In2 3.061536 1_555
Er10 In0 3.061536 1_565
Er10 In10 3.325526 1_555
Er10 In8 3.325532 1_565
Er11 Ge7 2.982193 1_555
Er11 Ge3 2.982793 1_565
Er11 Ge2 2.982800 1_555
Er11 In3 3.061531 1_566
Er11 In1 3.061540 1_555
Er11 In11 3.325532 1_566
Er11 In9 3.325535 1_555
Er12 Ge7 2.982203 1_555
Er12 Ge0 2.982796 1_555
Er12 Ge1 2.982796 1_455
Er12 In7 3.061536 1_556
Er12 In4 3.061536 1_455
Er12 In10 3.325526 1_556
Er12 In9 3.325532 1_455
Er13 Ge7 2.982193 1_555
Er13 Ge1 2.982793 1_455
Er13 Ge0 2.982800 1_555
Er13 In6 3.061531 1_455
Er13 In5 3.061540 1_555
Er13 In11 3.325532 1_455
Er13 In8 3.325535 1_555
Er14 Ge6 2.982203 1_555
Er14 Ge3 2.982796 1_555
Er14 Ge2 2.982796 1_545
Er14 In4 3.061536 1_545
Er14 In6 3.061536 1_556
Er14 In11 3.325526 1_556
Er14 In9 3.325532 1_545
Er15 Ge6 2.982193 1_555
Er15 Ge2 2.982793 1_545
Er15 Ge3 2.982800 1_555
Er15 In7 3.061531 1_545
Er15 In5 3.061540 1_555
Er15 In10 3.325532 1_545
Er15 In8 3.325535 1_555
Er16 Ge0 2.814518 1_555
Er16 Ge3 2.814518 1_555
Er16 In8 3.268526 1_555
Er16 Ge4 3.328358 1_556
Er16 Ge5 3.328367 1_556
Er16 In5 3.435164 1_555
Er16 In0 3.435177 1_555
Er17 Ge1 2.814518 1_555
Er17 Ge2 2.814518 1_555
Er17 In9 3.268526 1_555
Er17 Ge5 3.328358 1_555
Er17 Ge4 3.328367 1_555
Er17 In1 3.435164 1_555
Er17 In4 3.435177 1_555
Er18 Ge2 2.814518 1_555
Er18 Ge0 2.814518 1_554
Er18 In10 3.268526 1_555
Er18 Ge5 3.328356 1_555
Er18 Ge4 3.328356 1_555
Er18 In7 3.435175 1_555
Er18 In2 3.435175 1_555
Er19 Ge1 2.814518 1_555
Er19 Ge3 2.814518 1_554
Er19 In11 3.268526 1_555
Er19 Ge5 3.328356 1_555
Er19 Ge4 3.328356 1_555
Er19 In6 3.435175 1_555
Er19 In3 3.435175 1_555
Er20 In2 3.329810 1_655
Er20 In3 3.329810 1_565
Er20 In1 3.329810 1_554
Er20 In0 3.329810 1_665
Er20 In9 3.439426 1_554
Er20 In10 3.439437 1_655
Er20 In11 3.439437 1_565
Er20 In8 3.439439 1_665
Er20 Ge4 3.482451 1_555
Er21 In7 3.329810 1_545
Er21 In5 3.329810 1_555
Er21 In6 3.329810 1_455
Er21 In4 3.329810 1_444
Er21 In8 3.439426 1_555
Er21 In10 3.439437 1_545
Er21 In11 3.439437 1_455
Er21 In9 3.439439 1_444
Er21 Ge5 3.482451 1_555
In0 In4 2.931932 1_445
In0 In8 3.040542 1_555
In1 In5 2.931932 1_555
In1 In9 3.040528 1_555
In2 In6 2.931932 1_455
In3 In7 2.931932 1_545
In4 In9 3.040542 1_555
In5 In8 3.040528 1_555
In10 In8 2.950388 1_565
In10 In9 2.950388 1_454
In10 In2 3.040532 1_555
In10 In7 3.040532 1_555
In11 In9 2.950388 1_544
In11 In8 2.950388 1_655
In11 In3 3.040532 1_555
In11 In6 3.040532 1_555
