# generated using pymatgen
data_La5AlSi2O13
_symmetry_space_group_name_H-M   'P 1'
_cell_length_a   7.25168900
_cell_length_b   9.81272400
_cell_length_c   9.81562793
_cell_angle_alpha   60.19181657
_cell_angle_beta   90.00000000
_cell_angle_gamma   90.00000000
_symmetry_Int_Tables_number   1
_chemical_formula_structural   La5AlSi2O13
_chemical_formula_sum   'La10 Al2 Si4 O26'
_cell_volume   606.05727346
_cell_formula_units_Z   2
loop_
 _symmetry_equiv_pos_site_id
 _symmetry_equiv_pos_as_xyz
  1  'x, y, z'
loop_
 _atom_site_type_symbol
 _atom_site_label
 _atom_site_symmetry_multiplicity
 _atom_site_fract_x
 _atom_site_fract_y
 _atom_site_fract_z
 _atom_site_occupancy
  La  La0  1  0.00000000  0.76957400  0.98666600  1
  La  La1  1  0.00000000  0.23401200  0.76349700  1
  La  La2  1  0.00000000  0.99471400  0.24250100  1
  La  La3  1  0.50000000  0.23837000  0.00264800  1
  La  La4  1  0.50000000  0.75760600  0.23147200  1
  La  La5  1  0.50000000  0.00320900  0.76269500  1
  La  La6  1  0.25015800  0.66590400  0.67346600  1
  La  La7  1  0.75013300  0.33057700  0.33733600  1
  La  La8  1  0.74984200  0.66590400  0.67346600  1
  La  La9  1  0.24986700  0.33057700  0.33733600  1
  Al  Al0  1  0.00000000  0.02850500  0.59635100  1
  Al  Al1  1  0.50000000  0.62450400  0.97391600  1
  Si  Si0  1  0.00000000  0.37129500  0.03077500  1
  Si  Si1  1  0.00000000  0.59928100  0.37174300  1
  Si  Si2  1  0.50000000  0.96868600  0.40134600  1
  Si  Si3  1  0.50000000  0.40340700  0.62738700  1
  O  O0  1  0.00000000  0.82469100  0.67384500  1
  O  O1  1  0.00000000  0.48735800  0.84039000  1
  O  O2  1  0.00000000  0.66976600  0.49138800  1
  O  O3  1  0.50000000  0.15896100  0.33006800  1
  O  O4  1  0.50000000  0.49907000  0.17787700  1
  O  O5  1  0.50000000  0.33036500  0.51001700  1
  O  O6  1  0.19105200  0.09426300  0.66031900  1
  O  O7  1  0.18291000  0.25600400  0.08506500  1
  O  O8  1  0.18289900  0.65865100  0.25610700  1
  O  O9  1  0.68251500  0.91327900  0.34067200  1
  O  O10  1  0.69261800  0.75244400  0.90913500  1
  O  O11  1  0.68163300  0.34318400  0.74388100  1
  O  O12  1  0.00000000  0.13702200  0.38880800  1
  O  O13  1  0.00000000  0.46896100  0.12725500  1
  O  O14  1  0.00000000  0.40534700  0.46657600  1
  O  O15  1  0.50000000  0.87169800  0.59484900  1
  O  O16  1  0.50000000  0.52720600  0.86324600  1
  O  O17  1  0.50000000  0.59729800  0.52916700  1
  O  O18  1  0.00000000  0.00096200  0.00317300  1
  O  O19  1  0.50000000  0.00021200  0.00496300  1
  O  O20  1  0.80894800  0.09426300  0.66031900  1
  O  O21  1  0.81709000  0.25600400  0.08506500  1
  O  O22  1  0.81710100  0.65865100  0.25610700  1
  O  O23  1  0.31748500  0.91327900  0.34067200  1
  O  O24  1  0.30738200  0.75244400  0.90913500  1
  O  O25  1  0.31836700  0.34318400  0.74388100  1
loop_
_geom_bond_atom_site_label_1
_geom_bond_atom_site_label_2
_geom_bond_distance
_geom_bond_site_symmetry_2
La0 O18 2.355289 1_566
La0 O24 2.388135 1_555
La0 O10 2.388135 1_455
La0 O13 2.561011 1_556
La0 O8 2.660173 1_556
La0 O22 2.660173 1_456
La0 O0 2.840712 1_555
La1 O18 2.327130 1_556
La1 O20 2.491267 1_455
La1 O6 2.491267 1_555
La1 O25 2.511916 1_555
La1 O11 2.511916 1_455
La1 O14 2.539530 1_555
La1 O1 2.935193 1_555
La2 O18 2.319288 1_565
La2 O12 2.450744 1_565
La2 O23 2.470253 1_555
La2 O9 2.470253 1_455
La2 O21 2.604256 1_465
La2 O7 2.604256 1_565
La2 O2 2.896714 1_555
La3 O19 2.325767 1_555
La3 O16 2.459614 1_554
La3 O7 2.472037 1_555
La3 O21 2.472037 1_555
La3 O11 2.578157 1_554
La3 O25 2.578157 1_554
La3 O3 2.906228 1_555
La4 O19 2.312656 1_565
La4 O22 2.460832 1_555
La4 O8 2.460832 1_555
La4 O17 2.538320 1_555
La4 O23 2.619543 1_555
La4 O9 2.619543 1_555
La4 O4 2.835434 1_555
La5 O19 2.363531 1_556
La5 O6 2.436153 1_555
La5 O20 2.436153 1_555
La5 O15 2.548213 1_545
La5 O24 2.560411 1_545
La5 O10 2.560411 1_545
La5 O5 2.922567 1_555
La6 O0 2.392571 1_555
La6 O16 2.466648 1_555
La6 O1 2.488177 1_555
La6 O15 2.531149 1_555
La6 O2 2.533587 1_555
La6 O17 2.586482 1_555
La6 O24 2.863109 1_555
La6 O25 2.928258 1_555
La6 O23 2.986295 1_555
La7 O4 2.429162 1_555
La7 O5 2.481857 1_555
La7 O12 2.488329 1_655
La7 O3 2.500128 1_555
La7 O14 2.521135 1_655
La7 O13 2.568155 1_655
La7 O20 2.881140 1_555
La7 O22 2.946785 1_555
La7 O21 2.950301 1_555
La8 O0 2.392571 1_655
La8 O16 2.466648 1_555
La8 O1 2.488177 1_655
La8 O15 2.531149 1_555
La8 O2 2.533587 1_655
La8 O17 2.586482 1_555
La8 O10 2.863109 1_555
La8 O11 2.928258 1_555
La8 O9 2.986295 1_555
La9 O4 2.429162 1_555
La9 O5 2.481857 1_555
La9 O12 2.488329 1_555
La9 O3 2.500128 1_555
La9 O14 2.521135 1_555
La9 O13 2.568155 1_555
La9 O6 2.881140 1_555
La9 O8 2.946785 1_555
La9 O7 2.950301 1_555
Al0 O0 1.751006 1_545
Al0 O12 1.768407 1_555
Al0 O20 1.769994 1_455
Al0 O6 1.769994 1_555
Al1 O4 1.753040 1_556
Al1 O16 1.767125 1_555
Al1 O10 1.771402 1_555
Al1 O24 1.771402 1_555
O1 Si0 1.635037 1_556
O2 Si1 1.632521 1_555
O3 Si2 1.636121 1_545
O5 Si3 1.631532 1_555
O7 Si0 1.650406 1_555
O8 Si1 1.652103 1_555
O9 Si2 1.650445 1_555
O11 Si3 1.649180 1_555
O13 Si0 1.648521 1_555
O14 Si1 1.651310 1_555
O15 Si2 1.648076 1_555
O17 Si3 1.650976 1_555
O21 Si0 1.650406 1_655
O22 Si1 1.652103 1_655
O23 Si2 1.650445 1_555
O25 Si3 1.649180 1_555
