# generated using pymatgen
data_Y4RuBr5
_symmetry_space_group_name_H-M   'P 1'
_cell_length_a   11.79563158
_cell_length_b   11.79563158
_cell_length_c   17.15614062
_cell_angle_alpha   90.00000000
_cell_angle_beta   90.00000000
_cell_angle_gamma   90.00000000
_symmetry_Int_Tables_number   1
_chemical_formula_structural   Y4RuBr5
_chemical_formula_sum   'Y32 Ru8 Br40'
_cell_volume   2387.05263994
_cell_formula_units_Z   8
loop_
 _symmetry_equiv_pos_site_id
 _symmetry_equiv_pos_as_xyz
  1  'x, y, z'
loop_
 _atom_site_type_symbol
 _atom_site_label
 _atom_site_symmetry_multiplicity
 _atom_site_fract_x
 _atom_site_fract_y
 _atom_site_fract_z
 _atom_site_occupancy
  Y  Y0  1  0.11347991  0.88652009  0.27178176  1
  Y  Y1  1  0.61347991  0.61347991  0.77178176  1
  Y  Y2  1  0.38652009  0.38652009  0.77178176  1
  Y  Y3  1  0.88652009  0.11347991  0.27178176  1
  Y  Y4  1  0.38652009  0.61347991  0.22821824  1
  Y  Y5  1  0.88652009  0.88652009  0.72821824  1
  Y  Y6  1  0.11347991  0.11347991  0.72821824  1
  Y  Y7  1  0.61347991  0.38652009  0.22821824  1
  Y  Y8  1  0.13047113  0.86952887  0.59234401  1
  Y  Y9  1  0.63047113  0.63047113  0.09234401  1
  Y  Y10  1  0.36952887  0.36952887  0.09234401  1
  Y  Y11  1  0.86952887  0.13047113  0.59234401  1
  Y  Y12  1  0.36952887  0.63047113  0.90765599  1
  Y  Y13  1  0.86952887  0.86952887  0.40765599  1
  Y  Y14  1  0.13047113  0.13047113  0.40765599  1
  Y  Y15  1  0.63047113  0.36952887  0.90765599  1
  Y  Y16  1  0.33037999  0.88300073  0.42294555  1
  Y  Y17  1  0.83037999  0.61699927  0.92294555  1
  Y  Y18  1  0.16962001  0.38300073  0.92294555  1
  Y  Y19  1  0.66962001  0.11699927  0.42294555  1
  Y  Y20  1  0.16962001  0.61699927  0.07705445  1
  Y  Y21  1  0.66962001  0.88300073  0.57705445  1
  Y  Y22  1  0.33037999  0.11699927  0.57705445  1
  Y  Y23  1  0.83037999  0.38300073  0.07705445  1
  Y  Y24  1  0.88300073  0.33037999  0.42294555  1
  Y  Y25  1  0.61699927  0.83037999  0.92294555  1
  Y  Y26  1  0.38300073  0.16962001  0.92294555  1
  Y  Y27  1  0.11699927  0.66962001  0.42294555  1
  Y  Y28  1  0.61699927  0.16962001  0.07705445  1
  Y  Y29  1  0.88300073  0.66962001  0.57705445  1
  Y  Y30  1  0.11699927  0.33037999  0.57705445  1
  Y  Y31  1  0.38300073  0.83037999  0.07705445  1
  Ru  Ru0  1  0.10466176  0.89533824  0.42863994  1
  Ru  Ru1  1  0.60466176  0.60466176  0.92863994  1
  Ru  Ru2  1  0.39533824  0.39533824  0.92863994  1
  Ru  Ru3  1  0.89533824  0.10466176  0.42863994  1
  Ru  Ru4  1  0.39533824  0.60466176  0.07136006  1
  Ru  Ru5  1  0.89533824  0.89533824  0.57136006  1
  Ru  Ru6  1  0.10466176  0.10466176  0.57136006  1
  Ru  Ru7  1  0.60466176  0.39533824  0.07136006  1
  Br  Br0  1  0.60018563  0.87593996  0.41193677  1
  Br  Br1  1  0.10018563  0.62406004  0.91193677  1
  Br  Br2  1  0.89981437  0.37593996  0.91193677  1
  Br  Br3  1  0.39981437  0.12406004  0.41193677  1
  Br  Br4  1  0.89981437  0.62406004  0.08806323  1
  Br  Br5  1  0.39981437  0.87593996  0.58806323  1
  Br  Br6  1  0.60018563  0.12406004  0.58806323  1
  Br  Br7  1  0.10018563  0.37593996  0.08806323  1
  Br  Br8  1  0.87593996  0.60018563  0.41193677  1
  Br  Br9  1  0.62406004  0.10018563  0.91193677  1
  Br  Br10  1  0.37593996  0.89981437  0.91193677  1
  Br  Br11  1  0.12406004  0.39981437  0.41193677  1
  Br  Br12  1  0.62406004  0.89981437  0.08806323  1
  Br  Br13  1  0.87593996  0.39981437  0.58806323  1
  Br  Br14  1  0.12406004  0.60018563  0.58806323  1
  Br  Br15  1  0.37593996  0.10018563  0.08806323  1
  Br  Br16  1  0.36020513  0.63979487  0.40989095  1
  Br  Br17  1  0.86020513  0.86020513  0.90989095  1
  Br  Br18  1  0.13979487  0.13979487  0.90989095  1
  Br  Br19  1  0.63979487  0.36020513  0.40989095  1
  Br  Br20  1  0.13979487  0.86020513  0.09010905  1
  Br  Br21  1  0.63979487  0.63979487  0.59010905  1
  Br  Br22  1  0.36020513  0.36020513  0.59010905  1
  Br  Br23  1  0.86020513  0.13979487  0.09010905  1
  Br  Br24  1  0.37387593  0.62612407  0.73043874  1
  Br  Br25  1  0.87387593  0.87387593  0.23043874  1
  Br  Br26  1  0.12612407  0.12612407  0.23043874  1
  Br  Br27  1  0.62612407  0.37387593  0.73043874  1
  Br  Br28  1  0.12612407  0.87387593  0.76956126  1
  Br  Br29  1  0.62612407  0.62612407  0.26956126  1
  Br  Br30  1  0.37387593  0.37387593  0.26956126  1
  Br  Br31  1  0.87387593  0.12612407  0.76956126  1
  Br  Br32  1  0.36786849  0.86786849  0.25000000  1
  Br  Br33  1  0.86786849  0.63213151  0.75000000  1
  Br  Br34  1  0.13213151  0.36786849  0.75000000  1
  Br  Br35  1  0.63213151  0.13213151  0.25000000  1
  Br  Br36  1  0.13213151  0.63213151  0.25000000  1
  Br  Br37  1  0.63213151  0.86786849  0.75000000  1
  Br  Br38  1  0.36786849  0.13213151  0.75000000  1
  Br  Br39  1  0.86786849  0.36786849  0.25000000  1
loop_
_geom_bond_atom_site_label_1
_geom_bond_atom_site_label_2
_geom_bond_distance
_geom_bond_site_symmetry_2
Ru0 Y27 2.668252 1_555
Ru0 Y16 2.668252 1_555
Ru0 Y0 2.695098 1_555
Ru0 Y13 2.813328 1_455
Ru0 Y14 2.813328 1_565
Ru0 Y8 2.841339 1_555
Ru1 Y25 2.668252 1_555
Ru1 Y17 2.668252 1_555
Ru1 Y1 2.695098 1_555
Ru1 Y15 2.813328 1_555
Ru1 Y12 2.813328 1_555
Ru1 Y9 2.841339 1_556
Ru2 Y26 2.668252 1_555
Ru2 Y18 2.668252 1_555
Ru2 Y2 2.695098 1_555
Ru2 Y12 2.813328 1_555
Ru2 Y15 2.813328 1_555
Ru2 Y10 2.841339 1_556
Ru3 Y24 2.668252 1_555
Ru3 Y19 2.668252 1_555
Ru3 Y3 2.695098 1_555
Ru3 Y13 2.813328 1_545
Ru3 Y14 2.813328 1_655
Ru3 Y11 2.841339 1_555
Ru4 Y20 2.668252 1_555
Ru4 Y31 2.668252 1_555
Ru4 Y4 2.695098 1_555
Ru4 Y9 2.813328 1_555
Ru4 Y10 2.813328 1_555
Ru4 Y12 2.841339 1_554
Ru5 Y21 2.668252 1_555
Ru5 Y29 2.668252 1_555
Ru5 Y5 2.695098 1_555
Ru5 Y11 2.813328 1_565
Ru5 Y8 2.813328 1_655
Ru5 Y13 2.841339 1_555
Ru6 Y30 2.668252 1_555
Ru6 Y22 2.668252 1_555
Ru6 Y6 2.695098 1_555
Ru6 Y11 2.813328 1_455
Ru6 Y8 2.813328 1_545
Ru6 Y14 2.841339 1_555
Ru7 Y28 2.668252 1_555
Ru7 Y23 2.668252 1_555
Ru7 Y7 2.695098 1_555
Ru7 Y9 2.813328 1_555
Ru7 Y10 2.813328 1_555
Ru7 Y15 2.841339 1_554
Br0 Y21 2.949981 1_555
Br0 Y19 2.965073 1_565
Br0 Y13 3.178822 1_555
Br0 Y16 3.189215 1_555
Br1 Y20 2.949981 1_556
Br1 Y18 2.965073 1_555
Br1 Y12 3.178822 1_555
Br1 Y17 3.189215 1_455
Br2 Y23 2.949981 1_556
Br2 Y17 2.965073 1_555
Br2 Y15 3.178822 1_555
Br2 Y18 3.189215 1_655
Br3 Y22 2.949981 1_555
Br3 Y16 2.965073 1_545
Br3 Y14 3.178822 1_555
Br3 Y19 3.189215 1_555
Br4 Y17 2.949981 1_554
Br4 Y23 2.965073 1_555
Br4 Y9 3.178822 1_555
Br4 Y20 3.189215 1_655
Br5 Y16 2.949981 1_555
Br5 Y22 2.965073 1_565
Br5 Y8 3.178822 1_555
Br5 Y21 3.189215 1_555
Br6 Y19 2.949981 1_555
Br6 Y21 2.965073 1_545
Br6 Y11 3.178822 1_555
Br6 Y22 3.189215 1_555
Br7 Y18 2.949981 1_554
Br7 Y20 2.965073 1_555
Br7 Y10 3.178822 1_555
Br7 Y23 3.189215 1_455
Br8 Y29 2.949981 1_555
Br8 Y27 2.965073 1_655
Br8 Y13 3.178822 1_555
Br8 Y24 3.189215 1_555
Br9 Y28 2.949981 1_556
Br9 Y26 2.965073 1_555
Br9 Y15 3.178822 1_555
Br9 Y25 3.189215 1_545
Br10 Y31 2.949981 1_556
Br10 Y25 2.965073 1_555
Br10 Y12 3.178822 1_555
Br10 Y26 3.189215 1_565
Br11 Y30 2.949981 1_555
Br11 Y24 2.965073 1_455
Br11 Y14 3.178822 1_555
Br11 Y27 3.189215 1_555
Br12 Y25 2.949981 1_554
Br12 Y31 2.965073 1_555
Br12 Y9 3.178822 1_555
Br12 Y28 3.189215 1_565
Br13 Y24 2.949981 1_555
Br13 Y30 2.965073 1_655
Br13 Y11 3.178822 1_555
Br13 Y29 3.189215 1_555
Br14 Y27 2.949981 1_555
Br14 Y29 2.965073 1_455
Br14 Y8 3.178822 1_555
Br14 Y30 3.189215 1_555
Br15 Y26 2.949981 1_554
Br15 Y28 2.965073 1_555
Br15 Y10 3.178822 1_555
Br15 Y31 3.189215 1_545
Br16 Y27 2.898922 1_555
Br16 Y16 2.898922 1_555
Br16 Y4 3.147564 1_555
Br17 Y25 2.898922 1_555
Br17 Y17 2.898922 1_555
Br17 Y5 3.147564 1_555
Br18 Y26 2.898922 1_555
Br18 Y18 2.898922 1_555
Br18 Y6 3.147564 1_555
Br19 Y24 2.898922 1_555
Br19 Y19 2.898922 1_555
Br19 Y7 3.147564 1_555
Br20 Y31 2.898922 1_555
Br20 Y20 2.898922 1_555
Br20 Y0 3.147564 1_555
Br21 Y21 2.898922 1_555
Br21 Y29 2.898922 1_555
Br21 Y1 3.147564 1_555
Br22 Y30 2.898922 1_555
Br22 Y22 2.898922 1_555
Br22 Y2 3.147564 1_555
Br23 Y28 2.898922 1_555
Br23 Y23 2.898922 1_555
Br23 Y3 3.147564 1_555
Br24 Y1 2.917738 1_555
Br24 Y2 2.917738 1_555
Br24 Y12 3.041229 1_555
Br25 Y3 2.917738 1_565
Br25 Y0 2.917738 1_655
Br25 Y13 3.041229 1_555
Br26 Y3 2.917738 1_455
Br26 Y0 2.917738 1_545
Br26 Y14 3.041229 1_555
Br27 Y1 2.917738 1_555
Br27 Y2 2.917738 1_555
Br27 Y15 3.041229 1_555
Br28 Y6 2.917738 1_565
Br28 Y5 2.917738 1_455
Br28 Y8 3.041229 1_555
Br29 Y4 2.917738 1_555
Br29 Y7 2.917738 1_555
Br29 Y9 3.041229 1_555
Br30 Y4 2.917738 1_555
Br30 Y7 2.917738 1_555
Br30 Y10 3.041229 1_555
Br31 Y6 2.917738 1_655
Br31 Y5 2.917738 1_545
Br31 Y11 3.041229 1_555
Br32 Y16 3.005155 1_555
Br32 Y31 3.005155 1_555
Br32 Y4 3.031846 1_555
Br32 Y0 3.031846 1_555
Br33 Y17 3.005155 1_555
Br33 Y29 3.005155 1_555
Br33 Y1 3.031846 1_555
Br33 Y5 3.031846 1_555
Br34 Y30 3.005155 1_555
Br34 Y18 3.005155 1_555
Br34 Y6 3.031846 1_555
Br34 Y2 3.031846 1_555
Br35 Y28 3.005155 1_555
Br35 Y19 3.005155 1_555
Br35 Y7 3.031846 1_555
Br35 Y3 3.031846 1_555
Br36 Y20 3.005155 1_555
Br36 Y27 3.005155 1_555
Br36 Y4 3.031846 1_555
Br36 Y0 3.031846 1_555
Br37 Y25 3.005155 1_555
Br37 Y21 3.005155 1_555
Br37 Y1 3.031846 1_555
Br37 Y5 3.031846 1_555
Br38 Y22 3.005155 1_555
Br38 Y26 3.005155 1_555
Br38 Y6 3.031846 1_555
Br38 Y2 3.031846 1_555
Br39 Y24 3.005155 1_555
Br39 Y23 3.005155 1_555
Br39 Y7 3.031846 1_555
Br39 Y3 3.031846 1_555
