# generated using pymatgen
data_LaTi4Mn3O12
_symmetry_space_group_name_H-M   'P 1'
_cell_length_a   6.62376759
_cell_length_b   6.62376759
_cell_length_c   10.81656718
_cell_angle_alpha   90.00000000
_cell_angle_beta   90.00000000
_cell_angle_gamma   109.47122063
_symmetry_Int_Tables_number   1
_chemical_formula_structural   LaTi4Mn3O12
_chemical_formula_sum   'La2 Ti8 Mn6 O24'
_cell_volume   447.42820945
_cell_formula_units_Z   2
loop_
 _symmetry_equiv_pos_site_id
 _symmetry_equiv_pos_as_xyz
  1  'x, y, z'
loop_
 _atom_site_type_symbol
 _atom_site_label
 _atom_site_symmetry_multiplicity
 _atom_site_fract_x
 _atom_site_fract_y
 _atom_site_fract_z
 _atom_site_occupancy
  La  La0  1  0.00000000  0.00000000  0.00000000  1
  La  La1  1  0.50000000  0.50000000  0.50000000  1
  Ti  Ti0  1  0.25000000  0.25000000  0.25000000  1
  Ti  Ti1  1  0.75000000  0.75000000  0.75000000  1
  Ti  Ti2  1  0.50000000  0.00000000  0.00000000  1
  Ti  Ti3  1  0.00000000  0.50000000  0.50000000  1
  Ti  Ti4  1  0.00000000  0.50000000  0.00000000  1
  Ti  Ti5  1  0.50000000  0.00000000  0.50000000  1
  Ti  Ti6  1  0.75000000  0.75000000  0.25000000  1
  Ti  Ti7  1  0.25000000  0.25000000  0.75000000  1
  Mn  Mn0  1  0.75000000  0.25000000  0.75000000  1
  Mn  Mn1  1  0.75000000  0.25000000  0.25000000  1
  Mn  Mn2  1  0.25000000  0.75000000  0.75000000  1
  Mn  Mn3  1  0.50000000  0.50000000  0.00000000  1
  Mn  Mn4  1  0.00000000  0.00000000  0.50000000  1
  Mn  Mn5  1  0.25000000  0.75000000  0.25000000  1
  O  O0  1  0.55123100  0.44876900  0.25770800  1
  O  O1  1  0.05123100  0.94876900  0.75770800  1
  O  O2  1  0.94876900  0.05123100  0.24229200  1
  O  O3  1  0.44876900  0.55123100  0.74229200  1
  O  O4  1  0.74229200  0.25770800  0.44876900  1
  O  O5  1  0.24229200  0.75770800  0.94876900  1
  O  O6  1  0.75770800  0.24229200  0.05123100  1
  O  O7  1  0.25770800  0.74229200  0.55123100  1
  O  O8  1  0.30200700  0.11094600  0.40446900  1
  O  O9  1  0.80200700  0.61094600  0.90446900  1
  O  O10  1  0.19799300  0.38905400  0.09553100  1
  O  O11  1  0.69799300  0.88905400  0.59553100  1
  O  O12  1  0.61094600  0.80200700  0.09553100  1
  O  O13  1  0.11094600  0.30200700  0.59553100  1
  O  O14  1  0.88905400  0.69799300  0.40446900  1
  O  O15  1  0.38905400  0.19799300  0.90446900  1
  O  O16  1  0.16217700  0.45570100  0.35323800  1
  O  O17  1  0.66217700  0.95570100  0.85323800  1
  O  O18  1  0.33782300  0.04429900  0.14676200  1
  O  O19  1  0.83782300  0.54429900  0.64676200  1
  O  O20  1  0.95570100  0.66217700  0.14676200  1
  O  O21  1  0.45570100  0.16217700  0.64676200  1
  O  O22  1  0.54429900  0.83782300  0.35323800  1
  O  O23  1  0.04429900  0.33782300  0.85323800  1
loop_
_geom_bond_atom_site_label_1
_geom_bond_atom_site_label_2
_geom_bond_distance
_geom_bond_site_symmetry_2
La0 O1 2.678712 1_544
La0 O6 2.678712 1_455
La0 O2 2.678712 1_455
La0 O5 2.678712 1_544
La0 O9 2.678717 1_444
La0 O10 2.678717 1_555
La0 O12 2.678717 1_445
La0 O15 2.678717 1_554
La0 O23 2.678718 1_554
La0 O20 2.678718 1_445
La0 O17 2.678718 1_444
La0 O18 2.678718 1_555
La1 O4 2.678712 1_555
La1 O7 2.678712 1_555
La1 O3 2.678712 1_555
La1 O0 2.678712 1_555
La1 O8 2.678717 1_555
La1 O14 2.678717 1_555
La1 O11 2.678717 1_555
La1 O13 2.678717 1_555
La1 O21 2.678718 1_555
La1 O16 2.678718 1_555
La1 O19 2.678718 1_555
La1 O22 2.678718 1_555
Mn0 O19 2.151609 1_555
Mn0 O17 2.151609 1_545
Mn0 O21 2.151609 1_555
Mn0 O23 2.151609 1_655
Mn1 O0 2.151614 1_555
Mn1 O4 2.151614 1_555
Mn1 O2 2.151614 1_555
Mn1 O6 2.151614 1_555
Mn2 O5 2.151614 1_555
Mn2 O1 2.151614 1_555
Mn2 O3 2.151614 1_555
Mn2 O7 2.151614 1_555
Mn3 O10 2.151614 1_555
Mn3 O12 2.151614 1_555
Mn3 O9 2.151614 1_554
Mn3 O15 2.151614 1_554
Mn4 O14 2.151614 1_445
Mn4 O8 2.151614 1_555
Mn4 O11 2.151614 1_445
Mn4 O13 2.151614 1_555
Mn5 O20 2.151609 1_455
Mn5 O22 2.151609 1_555
Mn5 O16 2.151609 1_555
Mn5 O18 2.151609 1_565
O0 Ti6 1.992541 1_555
O0 Ti0 1.992541 1_555
O1 Ti7 1.992541 1_565
O1 Ti1 1.992541 1_455
O2 Ti6 1.992541 1_545
O2 Ti0 1.992541 1_655
O3 Ti7 1.992541 1_555
O3 Ti1 1.992541 1_555
O4 Ti5 1.992541 1_555
O4 Ti3 1.992541 1_655
O5 Ti2 1.992541 1_566
O5 Ti4 1.992541 1_556
O6 Ti4 1.992541 1_655
O6 Ti2 1.992541 1_555
O7 Ti3 1.992541 1_555
O7 Ti5 1.992541 1_565
O8 Ti0 1.992537 1_555
O8 Ti5 1.992544 1_555
O9 Ti1 1.992537 1_555
O9 Ti4 1.992544 1_656
O10 Ti0 1.992537 1_555
O10 Ti4 1.992544 1_555
O11 Ti1 1.992537 1_555
O11 Ti5 1.992544 1_565
O12 Ti6 1.992537 1_555
O12 Ti2 1.992544 1_565
O13 Ti7 1.992537 1_555
O13 Ti3 1.992544 1_555
O14 Ti6 1.992537 1_555
O14 Ti3 1.992544 1_655
O15 Ti7 1.992537 1_555
O15 Ti2 1.992544 1_556
O16 Ti0 1.992542 1_555
O16 Ti3 1.992542 1_555
O17 Ti2 1.992542 1_566
O17 Ti1 1.992542 1_555
O18 Ti0 1.992542 1_555
O18 Ti2 1.992542 1_555
O19 Ti3 1.992542 1_655
O19 Ti1 1.992542 1_555
O20 Ti4 1.992542 1_655
O20 Ti6 1.992542 1_555
O21 Ti5 1.992542 1_555
O21 Ti7 1.992542 1_555
O22 Ti6 1.992542 1_555
O22 Ti5 1.992542 1_565
O23 Ti4 1.992542 1_556
O23 Ti7 1.992542 1_555
