# generated using pymatgen
data_Sr8Rh5
_symmetry_space_group_name_H-M   'P 1'
_cell_length_a   7.25872559
_cell_length_b   7.25872559
_cell_length_c   7.25872559
_cell_angle_alpha   90.00000000
_cell_angle_beta   90.00000000
_cell_angle_gamma   90.00000000
_symmetry_Int_Tables_number   1
_chemical_formula_structural   Sr8Rh5
_chemical_formula_sum   'Sr8 Rh5'
_cell_volume   382.45569809
_cell_formula_units_Z   1
loop_
 _symmetry_equiv_pos_site_id
 _symmetry_equiv_pos_as_xyz
  1  'x, y, z'
loop_
 _atom_site_type_symbol
 _atom_site_label
 _atom_site_symmetry_multiplicity
 _atom_site_fract_x
 _atom_site_fract_y
 _atom_site_fract_z
 _atom_site_occupancy
  Sr  Sr0  1  0.25113833  0.25113733  0.74886267  1
  Sr  Sr1  1  0.25113833  0.74886267  0.25113733  1
  Sr  Sr2  1  0.74886167  0.25113733  0.25113733  1
  Sr  Sr3  1  0.74886167  0.74886267  0.74886267  1
  Sr  Sr4  1  0.74886167  0.74886267  0.25113733  1
  Sr  Sr5  1  0.74886167  0.25113733  0.74886267  1
  Sr  Sr6  1  0.25113833  0.74886267  0.74886267  1
  Sr  Sr7  1  0.25113833  0.25113733  0.25113733  1
  Rh  Rh0  1  0.00000000  0.00000000  0.00000000  1
  Rh  Rh1  1  0.50000000  0.50000000  0.00000000  1
  Rh  Rh2  1  0.50000000  0.00000000  0.50000000  1
  Rh  Rh3  1  0.00000000  0.50000000  0.50000000  1
  Rh  Rh4  1  0.50000000  0.50000000  0.50000000  1
loop_
_geom_bond_atom_site_label_1
_geom_bond_atom_site_label_2
_geom_bond_distance
_geom_bond_site_symmetry_2
Sr0 Sr5 3.612837 1_555
Sr0 Sr6 3.612852 1_555
Sr0 Sr7 3.612852 1_555
Sr0 Sr6 3.645874 1_545
Sr0 Sr7 3.645874 1_556
Sr0 Sr5 3.645888 1_455
Sr1 Sr4 3.612837 1_555
Sr1 Sr6 3.612852 1_555
Sr1 Sr7 3.612852 1_555
Sr1 Sr6 3.645874 1_554
Sr1 Sr7 3.645874 1_565
Sr1 Sr4 3.645888 1_455
Sr2 Sr7 3.612837 1_555
Sr2 Sr4 3.612852 1_555
Sr2 Sr5 3.612852 1_555
Sr2 Sr4 3.645874 1_545
Sr2 Sr5 3.645874 1_554
Sr2 Sr7 3.645888 1_655
Sr3 Sr6 3.612837 1_555
Sr3 Sr4 3.612852 1_555
Sr3 Sr5 3.612852 1_555
Sr3 Sr5 3.645874 1_565
Sr3 Sr4 3.645874 1_556
Sr3 Sr6 3.645888 1_655
Rh0 Sr6 3.157424 1_544
Rh0 Sr3 3.157424 1_444
Rh0 Sr4 3.157424 1_445
Rh0 Sr5 3.157424 1_454
Rh0 Sr1 3.157424 1_545
Rh0 Sr0 3.157424 1_554
Rh0 Sr7 3.157424 1_555
Rh0 Sr2 3.157424 1_455
Rh1 Sr3 3.138379 1_554
Rh1 Sr5 3.138379 1_554
Rh1 Sr2 3.138379 1_555
Rh1 Sr6 3.138379 1_554
Rh1 Sr0 3.138379 1_554
Rh1 Sr1 3.138379 1_555
Rh1 Sr7 3.138379 1_555
Rh1 Sr4 3.138379 1_555
Rh2 Sr1 3.138379 1_545
Rh2 Sr2 3.138379 1_555
Rh2 Sr4 3.138379 1_545
Rh2 Sr0 3.138379 1_555
Rh2 Sr6 3.138379 1_545
Rh2 Sr3 3.138379 1_545
Rh2 Sr7 3.138379 1_555
Rh2 Sr5 3.138379 1_555
Rh3 Sr2 3.138387 1_455
Rh3 Sr5 3.138387 1_455
Rh3 Sr4 3.138387 1_455
Rh3 Sr3 3.138387 1_455
Rh3 Sr0 3.138387 1_555
Rh3 Sr7 3.138387 1_555
Rh3 Sr1 3.138387 1_555
Rh3 Sr6 3.138387 1_555
Rh4 Sr7 3.128817 1_555
Rh4 Sr2 3.128817 1_555
Rh4 Sr3 3.128817 1_555
Rh4 Sr6 3.128817 1_555
Rh4 Sr4 3.128817 1_555
Rh4 Sr1 3.128817 1_555
Rh4 Sr5 3.128817 1_555
Rh4 Sr0 3.128817 1_555
