# generated using pymatgen
data_Mg3Si4
_symmetry_space_group_name_H-M   'P 1'
_cell_length_a   5.39453400
_cell_length_b   7.41596295
_cell_length_c   7.44738995
_cell_angle_alpha   110.59436480
_cell_angle_beta   107.48614709
_cell_angle_gamma   100.98937927
_symmetry_Int_Tables_number   1
_chemical_formula_structural   Mg3Si4
_chemical_formula_sum   'Mg6 Si8'
_cell_volume   250.93237379
_cell_formula_units_Z   2
loop_
 _symmetry_equiv_pos_site_id
 _symmetry_equiv_pos_as_xyz
  1  'x, y, z'
loop_
 _atom_site_type_symbol
 _atom_site_label
 _atom_site_symmetry_multiplicity
 _atom_site_fract_x
 _atom_site_fract_y
 _atom_site_fract_z
 _atom_site_occupancy
  Mg  Mg0  1  0.41069700  0.72722100  0.10731200  1
  Mg  Mg1  1  0.89005700  0.19148800  0.27554500  1
  Mg  Mg2  1  0.42206200  0.46385600  0.67977200  1
  Mg  Mg3  1  0.95625500  0.64982200  0.64794700  1
  Mg  Mg4  1  0.11918200  0.96308900  0.51052400  1
  Mg  Mg5  1  0.12537700  0.10305900  0.94574100  1
  Si  Si0  1  0.88033100  0.29187800  0.70241000  1
  Si  Si1  1  0.88790700  0.77449100  0.05088900  1
  Si  Si2  1  0.07782100  0.56772000  0.27427800  1
  Si  Si3  1  0.46372100  0.44533800  0.29573700  1
  Si  Si4  1  0.45150200  0.13384000  0.37315100  1
  Si  Si5  1  0.63526200  0.90840800  0.55494800  1
  Si  Si6  1  0.65151700  0.33973600  0.98115700  1
  Si  Si7  1  0.53495800  0.94016600  0.85404200  1
loop_
_geom_bond_atom_site_label_1
_geom_bond_atom_site_label_2
_geom_bond_distance
_geom_bond_site_symmetry_2
Mg0 Si1 2.708552 1_555
Mg0 Si2 2.781492 1_555
Mg0 Si1 2.832211 1_455
Mg0 Si5 2.861444 1_555
Mg0 Si4 2.888991 1_565
Mg0 Si3 2.910558 1_555
Mg0 Si7 2.992102 1_554
Mg1 Si4 2.678556 1_555
Mg1 Si2 2.785253 1_655
Mg1 Si7 2.811834 1_544
Mg1 Si6 2.865469 1_554
Mg1 Si1 2.949126 1_545
Mg1 Si0 3.018836 1_555
Mg1 Si4 3.045262 1_655
Mg2 Si6 2.763252 1_555
Mg2 Si4 2.768378 1_555
Mg2 Si3 2.893269 1_555
Mg2 Si1 2.898400 1_556
Mg2 Si0 2.978155 1_555
Mg2 Si0 3.036729 1_455
Mg2 Si7 3.164199 1_555
Mg3 Si3 2.777922 1_555
Mg3 Si0 2.796678 1_555
Mg3 Si2 2.932922 1_655
Mg3 Si5 2.938579 1_555
Mg3 Si1 2.973044 1_556
Mg3 Si7 2.995102 1_655
Mg4 Si4 2.648027 1_565
Mg4 Si5 2.701581 1_455
Mg4 Si2 2.761836 1_555
Mg4 Si5 2.827702 1_555
Mg4 Si7 2.933864 1_555
Mg4 Si1 2.937748 1_455
Mg4 Si0 3.082315 1_465
Mg5 Si3 2.699760 1_556
Mg5 Si0 2.836105 1_455
Mg5 Si7 2.855094 1_545
Mg5 Si5 2.917131 1_445
Mg5 Si6 2.920826 1_555
Mg5 Si7 2.952239 1_445
Mg5 Si1 2.991095 1_446
Mg5 Si4 3.041329 1_556
Si0 Si4 2.504717 1_555
Si0 Si5 2.556967 1_545
Si0 Si6 2.673514 1_555
Si1 Si2 2.745552 1_655
Si1 Si7 2.786665 1_554
Si2 Si3 2.409431 1_555
Si2 Si6 2.411816 1_454
Si3 Si4 2.564141 1_555
Si3 Si6 2.750706 1_554
Si4 Si5 2.651090 1_545
Si5 Si7 2.390336 1_555
Si6 Si7 2.651524 1_545
