# generated using pymatgen
data_YSi2
_symmetry_space_group_name_H-M   'P 1'
_cell_length_a   3.96810537
_cell_length_b   3.96945747
_cell_length_c   7.87201885
_cell_angle_alpha   105.16199950
_cell_angle_beta   105.15648050
_cell_angle_gamma   89.97540154
_symmetry_Int_Tables_number   1
_chemical_formula_structural   YSi2
_chemical_formula_sum   'Y2 Si4'
_cell_volume   115.20707728
_cell_formula_units_Z   2
loop_
 _symmetry_equiv_pos_site_id
 _symmetry_equiv_pos_as_xyz
  1  'x, y, z'
loop_
 _atom_site_type_symbol
 _atom_site_label
 _atom_site_symmetry_multiplicity
 _atom_site_fract_x
 _atom_site_fract_y
 _atom_site_fract_z
 _atom_site_occupancy
  Y  Y0  1  0.62446535  0.37579336  0.75025064  1
  Y  Y1  1  0.37553254  0.62420709  0.24974661  1
  Si  Si0  1  0.04214484  0.79397731  0.58538281  1
  Si  Si1  1  0.95787329  0.20603922  0.41465641  1
  Si  Si2  1  0.20598826  0.95785167  0.91451565  1
  Si  Si3  1  0.79399572  0.04213136  0.08544787  1
loop_
_geom_bond_atom_site_label_1
_geom_bond_atom_site_label_2
_geom_bond_distance
_geom_bond_site_symmetry_2
Si0 Si1 2.342991 1_455
Si0 Si1 2.346887 1_465
Si0 Si2 2.407634 1_555
Si0 Y0 3.037437 1_565
Si0 Y0 3.052659 1_465
Si0 Y0 3.055278 1_555
Si0 Y0 3.072613 1_455
Si0 Y1 3.138083 1_455
Si0 Y1 3.175014 1_555
Si1 Si3 2.408188 1_555
Si1 Y1 3.037540 1_545
Si1 Y1 3.052769 1_645
Si1 Y1 3.055410 1_555
Si1 Y1 3.072752 1_655
Si1 Y0 3.137847 1_655
Si1 Y0 3.174773 1_555
Si2 Si3 2.343104 1_566
Si2 Si3 2.347240 1_466
Si2 Y0 3.035870 1_455
Si2 Y0 3.050857 1_465
Si2 Y0 3.053601 1_555
Si2 Y0 3.070704 1_565
Si2 Y1 3.136058 1_566
Si2 Y1 3.173283 1_556
Si3 Y1 3.035958 1_655
Si3 Y1 3.050945 1_645
Si3 Y1 3.053707 1_555
Si3 Y1 3.070810 1_545
Si3 Y0 3.135866 1_544
Si3 Y0 3.173092 1_554
