# generated using pymatgen
data_Gd(BC)2
_symmetry_space_group_name_H-M   'P 1'
_cell_length_a   3.81422800
_cell_length_b   3.81422800
_cell_length_c   7.37261300
_cell_angle_alpha   90.00000000
_cell_angle_beta   90.00000000
_cell_angle_gamma   90.00000000
_symmetry_Int_Tables_number   1
_chemical_formula_structural   Gd(BC)2
_chemical_formula_sum   'Gd2 B4 C4'
_cell_volume   107.25924549
_cell_formula_units_Z   2
loop_
 _symmetry_equiv_pos_site_id
 _symmetry_equiv_pos_as_xyz
  1  'x, y, z'
loop_
 _atom_site_type_symbol
 _atom_site_label
 _atom_site_symmetry_multiplicity
 _atom_site_fract_x
 _atom_site_fract_y
 _atom_site_fract_z
 _atom_site_occupancy
  Gd  Gd0  1  0.00000000  0.00000000  0.75000000  1
  Gd  Gd1  1  0.00000000  0.00000000  0.25000000  1
  B  B0  1  0.21664500  0.50000000  0.00000000  1
  B  B1  1  0.78335500  0.50000000  0.00000000  1
  B  B2  1  0.50000000  0.21664500  0.50000000  1
  B  B3  1  0.50000000  0.78335500  0.50000000  1
  C  C0  1  0.50000000  0.18661400  0.00000000  1
  C  C1  1  0.50000000  0.81338600  0.00000000  1
  C  C2  1  0.81338600  0.50000000  0.50000000  1
  C  C3  1  0.18661400  0.50000000  0.50000000  1
loop_
_geom_bond_atom_site_label_1
_geom_bond_atom_site_label_2
_geom_bond_distance
_geom_bond_site_symmetry_2
B0 C1 1.611487 1_555
B0 C0 1.611487 1_555
B0 Gd1 2.777971 1_565
B0 Gd0 2.777971 1_564
B0 Gd1 2.777971 1_555
B0 Gd0 2.777971 1_554
B1 C1 1.611487 1_555
B1 C0 1.611487 1_555
B1 Gd1 2.777971 1_655
B1 Gd0 2.777971 1_664
B1 Gd1 2.777971 1_665
B1 Gd0 2.777971 1_654
B2 C3 1.611487 1_555
B2 C2 1.611487 1_555
B2 Gd0 2.777971 1_655
B2 Gd1 2.777971 1_655
B2 Gd1 2.777971 1_555
B2 Gd0 2.777971 1_555
B3 C3 1.611487 1_555
B3 C2 1.611487 1_555
B3 Gd0 2.777971 1_565
B3 Gd1 2.777971 1_565
B3 Gd0 2.777971 1_665
B3 Gd1 2.777971 1_665
C0 C1 1.423577 1_545
C0 Gd0 2.746077 1_654
C0 Gd1 2.746077 1_655
C0 Gd1 2.746077 1_555
C0 Gd0 2.746077 1_554
C1 Gd1 2.746077 1_665
C1 Gd0 2.746077 1_564
C1 Gd1 2.746077 1_565
C1 Gd0 2.746077 1_664
C2 C3 1.423577 1_655
C2 Gd1 2.746077 1_665
C2 Gd1 2.746077 1_655
C2 Gd0 2.746077 1_655
C2 Gd0 2.746077 1_665
C3 Gd0 2.746077 1_555
C3 Gd0 2.746077 1_565
C3 Gd1 2.746077 1_565
C3 Gd1 2.746077 1_555
