# generated using pymatgen
data_NdAl4
_symmetry_space_group_name_H-M   'P 1'
_cell_length_a   4.24217809
_cell_length_b   4.24217806
_cell_length_c   6.42939162
_cell_angle_alpha   109.24050931
_cell_angle_beta   109.24051052
_cell_angle_gamma   90.04258726
_symmetry_Int_Tables_number   1
_chemical_formula_structural   NdAl4
_chemical_formula_sum   'Nd1 Al4'
_cell_volume   102.36043347
_cell_formula_units_Z   1
loop_
 _symmetry_equiv_pos_site_id
 _symmetry_equiv_pos_as_xyz
  1  'x, y, z'
loop_
 _atom_site_type_symbol
 _atom_site_label
 _atom_site_symmetry_multiplicity
 _atom_site_fract_x
 _atom_site_fract_y
 _atom_site_fract_z
 _atom_site_occupancy
  Nd  Nd0  1  -0.00000000  0.00000000  0.00000001  1
  Al  Al0  1  0.61142778  0.61142778  0.22274875  1
  Al  Al1  1  0.25020057  0.74979946  0.50000001  1
  Al  Al2  1  0.74979943  0.25020054  0.49999999  1
  Al  Al3  1  0.38857223  0.38857222  0.77725125  1
loop_
_geom_bond_atom_site_label_1
_geom_bond_atom_site_label_2
_geom_bond_distance
_geom_bond_site_symmetry_2
Al0 Al3 2.533960 1_554
Al0 Al2 2.642405 1_555
Al0 Al1 2.642405 1_555
Al0 Al2 2.643768 1_565
Al0 Al1 2.643768 1_655
Al0 Nd0 3.254710 1_665
Al0 Nd0 3.255769 1_555
Al0 Nd0 3.257294 1_565
Al0 Nd0 3.257294 1_655
Al1 Al3 2.642405 1_555
Al1 Al3 2.643768 1_565
Al1 Al2 2.998380 1_555
Al1 Al2 2.998559 1_565
Al1 Al2 2.998559 1_455
Al1 Al2 3.003195 1_465
Al1 Nd0 3.547572 1_666
Al1 Nd0 3.547572 1_555
Al1 Nd0 3.548107 1_565
Al1 Nd0 3.548107 1_566
Al2 Al3 2.642405 1_555
Al2 Al3 2.643768 1_655
Al2 Nd0 3.547572 1_555
Al2 Nd0 3.547572 1_666
Al2 Nd0 3.548107 1_655
Al2 Nd0 3.548107 1_656
Al3 Nd0 3.254711 1_556
Al3 Nd0 3.255769 1_666
Al3 Nd0 3.257294 1_656
Al3 Nd0 3.257294 1_566
