# generated using pymatgen
data_RbGd3F10
_symmetry_space_group_name_H-M   'P 1'
_cell_length_a   8.33076802
_cell_length_b   8.33076802
_cell_length_c   8.33076802
_cell_angle_alpha   60.00000000
_cell_angle_beta   60.00000000
_cell_angle_gamma   60.00000000
_symmetry_Int_Tables_number   1
_chemical_formula_structural   RbGd3F10
_chemical_formula_sum   'Rb2 Gd6 F20'
_cell_volume   408.82752328
_cell_formula_units_Z   2
loop_
 _symmetry_equiv_pos_site_id
 _symmetry_equiv_pos_as_xyz
  1  'x, y, z'
loop_
 _atom_site_type_symbol
 _atom_site_label
 _atom_site_symmetry_multiplicity
 _atom_site_fract_x
 _atom_site_fract_y
 _atom_site_fract_z
 _atom_site_occupancy
  Rb  Rb0  1  0.25000000  0.25000000  0.25000000  1
  Rb  Rb1  1  0.75000000  0.75000000  0.75000000  1
  Gd  Gd0  1  0.76030496  0.23969504  0.23969504  1
  Gd  Gd1  1  0.23969504  0.76030496  0.76030496  1
  Gd  Gd2  1  0.23969504  0.76030496  0.23969504  1
  Gd  Gd3  1  0.76030496  0.23969504  0.76030496  1
  Gd  Gd4  1  0.23969504  0.23969504  0.76030496  1
  Gd  Gd5  1  0.76030496  0.76030496  0.23969504  1
  F  F0  1  0.83195467  0.50000000  0.50000000  1
  F  F1  1  0.16804533  0.50000000  0.50000000  1
  F  F2  1  0.50000000  0.83195467  0.16804533  1
  F  F3  1  0.50000000  0.16804533  0.83195467  1
  F  F4  1  0.50000000  0.83195467  0.50000000  1
  F  F5  1  0.16804533  0.50000000  0.83195467  1
  F  F6  1  0.50000000  0.16804533  0.50000000  1
  F  F7  1  0.83195467  0.50000000  0.16804533  1
  F  F8  1  0.50000000  0.50000000  0.83195467  1
  F  F9  1  0.50000000  0.50000000  0.16804533  1
  F  F10  1  0.16804533  0.83195467  0.50000000  1
  F  F11  1  0.83195467  0.16804533  0.50000000  1
  F  F12  1  0.11106103  0.11106103  0.11106103  1
  F  F13  1  0.88893897  0.88893897  0.88893897  1
  F  F14  1  0.11106103  0.11106103  0.66681692  1
  F  F15  1  0.11106103  0.66681692  0.11106103  1
  F  F16  1  0.88893897  0.88893897  0.33318308  1
  F  F17  1  0.88893897  0.33318308  0.88893897  1
  F  F18  1  0.66681692  0.11106103  0.11106103  1
  F  F19  1  0.33318308  0.88893897  0.88893897  1
loop_
_geom_bond_atom_site_label_1
_geom_bond_atom_site_label_2
_geom_bond_distance
_geom_bond_site_symmetry_2
F0 Gd3 2.249189 1_555
F0 Gd5 2.249189 1_555
F0 Rb1 3.261144 1_555
F0 Rb0 3.261144 1_655
F1 Gd4 2.249189 1_555
F1 Gd2 2.249189 1_555
F1 Rb0 3.261144 1_555
F1 Rb1 3.261144 1_455
F2 Gd2 2.249189 1_555
F2 Gd5 2.249189 1_555
F2 Rb0 3.261144 1_565
F2 Rb1 3.261144 1_554
F3 Gd4 2.249189 1_555
F3 Gd3 2.249189 1_555
F3 Rb0 3.261144 1_556
F3 Rb1 3.261144 1_545
F4 Gd1 2.249189 1_555
F4 Gd5 2.249189 1_555
F4 Rb1 3.261144 1_555
F4 Rb0 3.261144 1_565
F5 Gd4 2.249189 1_555
F5 Gd1 2.249189 1_555
F5 Rb0 3.261144 1_556
F5 Rb1 3.261144 1_455
F6 Gd4 2.249189 1_555
F6 Gd0 2.249189 1_555
F6 Rb0 3.261144 1_555
F6 Rb1 3.261144 1_545
F7 Gd5 2.249189 1_555
F7 Gd0 2.249189 1_555
F7 Rb1 3.261144 1_554
F7 Rb0 3.261144 1_655
F8 Gd1 2.249189 1_555
F8 Gd3 2.249189 1_555
F8 Rb1 3.261144 1_555
F8 Rb0 3.261144 1_556
F9 Gd0 2.249189 1_555
F9 Gd2 2.249189 1_555
F9 Rb0 3.261144 1_555
F9 Rb1 3.261144 1_554
F10 Gd1 2.249189 1_555
F10 Gd2 2.249189 1_555
F10 Rb0 3.261144 1_565
F10 Rb1 3.261144 1_455
F11 Gd3 2.249189 1_555
F11 Gd0 2.249189 1_555
F11 Rb0 3.261144 1_655
F11 Rb1 3.261144 1_545
F12 Gd0 2.391839 1_455
F12 Gd2 2.391839 1_545
F12 Gd4 2.391839 1_554
F12 Rb0 2.835207 1_555
F13 Gd5 2.391839 1_556
F13 Gd3 2.391839 1_565
F13 Gd1 2.391839 1_655
F13 Rb1 2.835207 1_555
F14 Gd4 2.391839 1_555
F14 Gd1 2.391839 1_545
F14 Gd3 2.391839 1_455
F14 Rb0 2.835207 1_555
F15 Gd2 2.391839 1_555
F15 Gd5 2.391839 1_455
F15 Gd1 2.391839 1_554
F15 Rb0 2.835207 1_555
F16 Gd5 2.391839 1_555
F16 Gd2 2.391839 1_655
F16 Gd0 2.391839 1_565
F16 Rb1 2.835207 1_555
F17 Gd3 2.391839 1_555
F17 Gd4 2.391839 1_655
F17 Gd0 2.391839 1_556
F17 Rb1 2.835207 1_555
F18 Gd0 2.391839 1_555
F18 Gd3 2.391839 1_554
F18 Gd5 2.391839 1_545
F18 Rb0 2.835207 1_555
F19 Gd1 2.391839 1_555
F19 Gd2 2.391839 1_556
F19 Gd4 2.391839 1_565
F19 Rb1 2.835207 1_555
