# generated using pymatgen
data_U5P3Se2
_symmetry_space_group_name_H-M   'P 1'
_cell_length_a   10.92558929
_cell_length_b   10.92558929
_cell_length_c   7.19407107
_cell_angle_alpha   83.52092137
_cell_angle_beta   83.52092137
_cell_angle_gamma   143.52561969
_symmetry_Int_Tables_number   1
_chemical_formula_structural   U5P3Se2
_chemical_formula_sum   'U10 P6 Se4'
_cell_volume   476.15323734
_cell_formula_units_Z   2
loop_
 _symmetry_equiv_pos_site_id
 _symmetry_equiv_pos_as_xyz
  1  'x, y, z'
loop_
 _atom_site_type_symbol
 _atom_site_label
 _atom_site_symmetry_multiplicity
 _atom_site_fract_x
 _atom_site_fract_y
 _atom_site_fract_z
 _atom_site_occupancy
  U  U0  1  0.60985224  0.90373400  0.99329877  1
  U  U1  1  0.18678479  0.29331704  0.00006229  1
  U  U2  1  0.09626600  0.39014776  0.50670123  1
  U  U3  1  0.81321521  0.70668296  -0.00006229  1
  U  U4  1  0.70668296  0.81321521  0.49993771  1
  U  U5  1  0.39014776  0.09626600  0.00670123  1
  U  U6  1  0.29331704  0.18678479  0.50006229  1
  U  U7  1  -0.00000000  0.50000000  0.00000000  1
  U  U8  1  0.90373400  0.60985224  0.49329877  1
  U  U9  1  0.50000000  -0.00000000  0.50000000  1
  P  P0  1  0.34925398  0.65074602  0.75000000  1
  P  P1  1  0.95240959  0.04759041  0.75000000  1
  P  P2  1  0.84852307  0.15147693  0.25000000  1
  P  P3  1  0.15147693  0.84852307  0.75000000  1
  P  P4  1  0.04759041  0.95240959  0.25000000  1
  P  P5  1  0.65074602  0.34925398  0.25000000  1
  Se  Se0  1  0.74853744  0.25146256  0.75000000  1
  Se  Se1  1  0.54797135  0.45202865  0.75000000  1
  Se  Se2  1  0.45202865  0.54797135  0.25000000  1
  Se  Se3  1  0.25146256  0.74853744  0.25000000  1
loop_
_geom_bond_atom_site_label_1
_geom_bond_atom_site_label_2
_geom_bond_distance
_geom_bond_site_symmetry_2
P0 U4 2.860572 1_555
P0 U1 2.860572 1_556
P0 U9 2.860620 1_565
P0 U7 2.860620 1_556
P0 U2 2.893096 1_555
P0 U0 2.893096 1_555
P1 U2 2.825192 1_655
P1 U0 2.825192 1_545
P1 U1 2.841556 1_656
P1 U4 2.841556 1_545
P1 U6 2.860146 1_655
P1 U3 2.860146 1_546
P2 U1 2.820211 1_655
P2 U4 2.820211 1_545
P2 U9 2.849717 1_555
P2 U7 2.849717 1_655
P2 U2 2.898302 1_655
P2 U0 2.898302 1_544
P3 U6 2.820211 1_565
P3 U3 2.820211 1_456
P3 U9 2.849717 1_565
P3 U7 2.849717 1_556
P3 U8 2.898302 1_455
P3 U5 2.898302 1_566
P4 U5 2.825192 1_565
P4 U8 2.825192 1_455
P4 U6 2.841556 1_565
P4 U3 2.841556 1_455
P4 U4 2.860146 1_455
P4 U1 2.860146 1_565
P5 U3 2.860572 1_555
P5 U6 2.860572 1_555
P5 U7 2.860620 1_655
P5 U9 2.860620 1_555
P5 U8 2.893096 1_555
P5 U5 2.893096 1_555
Se0 U7 2.894060 1_656
Se0 U9 2.894060 1_555
Se0 U2 2.904444 1_655
Se0 U0 2.904444 1_545
Se0 U8 2.932785 1_555
Se0 U5 2.932785 1_556
Se1 U5 2.893837 1_556
Se1 U8 2.893837 1_555
Se1 U1 2.916245 1_556
Se1 U4 2.916245 1_555
Se1 U3 2.951279 1_556
Se1 U6 2.951279 1_555
Se2 U2 2.893837 1_555
Se2 U0 2.893837 1_554
Se2 U6 2.916245 1_555
Se2 U3 2.916245 1_555
Se2 U4 2.951279 1_555
Se2 U1 2.951279 1_555
Se3 U9 2.894060 1_565
Se3 U7 2.894060 1_555
Se3 U5 2.904444 1_565
Se3 U8 2.904444 1_455
Se3 U2 2.932785 1_555
Se3 U0 2.932785 1_554
