# generated using pymatgen
data_CrFe3Sb4
_symmetry_space_group_name_H-M   'P 1'
_cell_length_a   3.99011839
_cell_length_b   3.99011839
_cell_length_c   10.40404200
_cell_angle_alpha   90.00000000
_cell_angle_beta   90.00000000
_cell_angle_gamma   120.00000643
_symmetry_Int_Tables_number   1
_chemical_formula_structural   CrFe3Sb4
_chemical_formula_sum   'Cr1 Fe3 Sb4'
_cell_volume   143.45122568
_cell_formula_units_Z   1
loop_
 _symmetry_equiv_pos_site_id
 _symmetry_equiv_pos_as_xyz
  1  'x, y, z'
loop_
 _atom_site_type_symbol
 _atom_site_label
 _atom_site_symmetry_multiplicity
 _atom_site_fract_x
 _atom_site_fract_y
 _atom_site_fract_z
 _atom_site_occupancy
  Cr  Cr0  1  0.00000000  0.00000000  0.00000000  1
  Fe  Fe0  1  0.00000000  0.00000000  0.50000000  1
  Fe  Fe1  1  0.00000000  0.00000000  0.26040900  1
  Fe  Fe2  1  0.00000000  0.00000000  0.73959100  1
  Sb  Sb0  1  0.33333300  0.66666700  0.85982300  1
  Sb  Sb1  1  0.33333300  0.66666700  0.37591300  1
  Sb  Sb2  1  0.66666700  0.33333300  0.14017700  1
  Sb  Sb3  1  0.66666700  0.33333300  0.62408700  1
loop_
_geom_bond_atom_site_label_1
_geom_bond_atom_site_label_2
_geom_bond_distance
_geom_bond_site_symmetry_2
Cr0 Fe2 2.709306 1_554
Cr0 Fe1 2.709306 1_555
Cr0 Sb0 2.726528 1_544
Cr0 Sb2 2.726528 1_455
Cr0 Sb2 2.726531 1_445
Cr0 Sb0 2.726531 1_444
Cr0 Sb2 2.726531 1_555
Cr0 Sb0 2.726531 1_554
Fe0 Fe2 2.492715 1_555
Fe0 Fe1 2.492715 1_555
Fe0 Sb1 2.640777 1_545
Fe0 Sb3 2.640777 1_455
Fe0 Sb3 2.640780 1_555
Fe0 Sb3 2.640780 1_445
Fe0 Sb1 2.640780 1_555
Fe0 Sb1 2.640780 1_445
Fe1 Sb1 2.598289 1_545
Fe1 Sb1 2.598292 1_445
Fe1 Sb1 2.598292 1_555
Fe1 Sb2 2.621403 1_455
Fe1 Sb2 2.621406 1_555
Fe1 Sb2 2.621406 1_445
Fe2 Sb3 2.598289 1_455
Fe2 Sb3 2.598292 1_555
Fe2 Sb3 2.598292 1_445
Fe2 Sb0 2.621403 1_545
Fe2 Sb0 2.621406 1_445
Fe2 Sb0 2.621406 1_555
