# generated using pymatgen
data_Ba(As3Pt2)2
_symmetry_space_group_name_H-M   'P 1'
_cell_length_a   6.07090211
_cell_length_b   6.07090211
_cell_length_c   12.07107626
_cell_angle_alpha   89.47911179
_cell_angle_beta   89.47911179
_cell_angle_gamma   87.46375496
_symmetry_Int_Tables_number   1
_chemical_formula_structural   Ba(As3Pt2)2
_chemical_formula_sum   'Ba2 As12 Pt8'
_cell_volume   444.41882642
_cell_formula_units_Z   2
loop_
 _symmetry_equiv_pos_site_id
 _symmetry_equiv_pos_as_xyz
  1  'x, y, z'
loop_
 _atom_site_type_symbol
 _atom_site_label
 _atom_site_symmetry_multiplicity
 _atom_site_fract_x
 _atom_site_fract_y
 _atom_site_fract_z
 _atom_site_occupancy
  Ba  Ba0  1  0.60622171  0.39377829  0.75000000  1
  Ba  Ba1  1  0.39377829  0.60622171  0.25000000  1
  As  As0  1  0.09197601  0.13697812  0.30839127  1
  As  As1  1  0.86302188  0.90802399  0.19160873  1
  As  As2  1  0.90802399  0.86302188  0.69160873  1
  As  As3  1  0.13697812  0.09197601  0.80839127  1
  As  As4  1  0.62304993  0.87740151  0.94491562  1
  As  As5  1  0.12259849  0.37695007  0.55508438  1
  As  As6  1  0.37695007  0.12259849  0.05508438  1
  As  As7  1  0.87740151  0.62304993  0.44491562  1
  As  As8  1  0.87744234  0.38566329  0.05415199  1
  As  As9  1  0.61433671  0.12255766  0.44584801  1
  As  As10  1  0.38566329  0.87744234  0.55415199  1
  As  As11  1  0.12255766  0.61433671  0.94584801  1
  Pt  Pt0  1  0.50752796  0.91751639  0.74982458  1
  Pt  Pt1  1  0.08248361  0.49247204  0.75017542  1
  Pt  Pt2  1  0.50000000  0.50000000  0.50000000  1
  Pt  Pt3  1  0.50000000  0.50000000  0.00000000  1
  Pt  Pt4  1  -0.00000000  -0.00000000  0.50000000  1
  Pt  Pt5  1  -0.00000000  -0.00000000  0.00000000  1
  Pt  Pt6  1  0.91751639  0.50752796  0.24982458  1
  Pt  Pt7  1  0.49247204  0.08248361  0.25017542  1
loop_
_geom_bond_atom_site_label_1
_geom_bond_atom_site_label_2
_geom_bond_distance
_geom_bond_site_symmetry_2
Ba0 Pt1 2.978640 1_655
Ba0 Pt0 2.978640 1_545
Ba0 Pt2 3.146716 1_555
Ba0 Pt3 3.146716 1_556
Ba0 Pt1 3.209348 1_555
Ba0 Pt0 3.209348 1_555
Ba1 Pt7 2.978640 1_565
Ba1 Pt6 2.978640 1_455
Ba1 Pt2 3.146716 1_555
Ba1 Pt3 3.146716 1_555
Ba1 Pt7 3.209348 1_555
Ba1 Pt6 3.209348 1_555
As0 As1 2.468488 1_445
As0 Pt4 2.517056 1_555
As0 Pt7 2.533144 1_555
As0 Pt6 2.540857 1_455
As0 Ba1 3.517248 1_555
As0 Ba1 3.705605 1_545
As1 Pt5 2.517056 1_665
As1 Pt6 2.533144 1_555
As1 Pt7 2.540857 1_565
As1 Ba1 3.517248 1_555
As1 Ba1 3.705605 1_655
As2 As3 2.468488 1_665
As2 Pt4 2.517056 1_665
As2 Pt0 2.533144 1_555
As2 Pt1 2.540857 1_655
As2 Ba0 3.517248 1_555
As2 Ba0 3.705605 1_565
As3 Pt5 2.517056 1_556
As3 Pt1 2.533144 1_555
As3 Pt0 2.540857 1_545
As3 Ba0 3.517248 1_555
As3 Ba0 3.705605 1_455
As4 As6 2.453480 1_566
As4 Pt0 2.470117 1_555
As4 Pt3 2.522770 1_556
As4 Pt5 2.533849 1_666
As5 As7 2.453480 1_455
As5 Pt1 2.470117 1_555
As5 Pt2 2.522770 1_555
As5 Pt4 2.533849 1_555
As6 Pt7 2.470117 1_555
As6 Pt3 2.522770 1_555
As6 Pt5 2.533849 1_555
As7 Pt6 2.470117 1_555
As7 Pt2 2.522770 1_555
As7 Pt4 2.533849 1_665
As8 Pt3 2.457214 1_555
As8 Pt6 2.498725 1_555
As8 Pt5 2.515449 1_655
As9 Pt2 2.457214 1_555
As9 Pt7 2.498725 1_555
As9 Pt4 2.515449 1_655
As10 As9 2.442379 1_565
As10 Pt2 2.457214 1_555
As10 Pt0 2.498725 1_555
As10 Pt4 2.515449 1_565
As11 As8 2.442379 1_456
As11 Pt3 2.457214 1_556
As11 Pt1 2.498725 1_555
As11 Pt5 2.515449 1_566
