# generated using pymatgen
data_Li3MnV(PO4)3
_symmetry_space_group_name_H-M   'P 1'
_cell_length_a   8.66092900
_cell_length_b   8.75751237
_cell_length_c   15.08153322
_cell_angle_alpha   73.25625329
_cell_angle_beta   74.38729956
_cell_angle_gamma   61.54984305
_symmetry_Int_Tables_number   1
_chemical_formula_structural   Li3MnV(PO4)3
_chemical_formula_sum   'Li12 Mn4 V4 P12 O48'
_cell_volume   951.22841510
_cell_formula_units_Z   4
loop_
 _symmetry_equiv_pos_site_id
 _symmetry_equiv_pos_as_xyz
  1  'x, y, z'
loop_
 _atom_site_type_symbol
 _atom_site_label
 _atom_site_symmetry_multiplicity
 _atom_site_fract_x
 _atom_site_fract_y
 _atom_site_fract_z
 _atom_site_occupancy
  Li  Li0  1  0.30241300  0.42729500  0.31963700  1
  Li  Li1  1  0.18420900  0.15194700  0.55488200  1
  Li  Li2  1  0.68336700  0.65382100  0.05524900  1
  Li  Li3  1  0.17333100  0.05958000  0.18948300  1
  Li  Li4  1  0.21066400  0.85127000  0.82545400  1
  Li  Li5  1  0.71288700  0.35190000  0.32513900  1
  Li  Li6  1  0.26106300  0.57607600  0.63112100  1
  Li  Li7  1  0.76026500  0.07656100  0.13042000  1
  Li  Li8  1  0.80498000  0.92752400  0.81894800  1
  Li  Li9  1  0.67432800  0.55830400  0.68775800  1
  Li  Li10  1  0.36719900  0.19574400  0.98158800  1
  Li  Li11  1  0.86537800  0.69389300  0.48158400  1
  Mn  Mn0  1  0.28482500  0.78190700  0.07425500  1
  Mn  Mn1  1  0.03163400  0.53693100  0.82091700  1
  Mn  Mn2  1  0.78610100  0.28019100  0.57378400  1
  Mn  Mn3  1  0.97899700  0.46342800  0.17510200  1
  V  V0  1  0.47340100  0.96096000  0.67924600  1
  V  V1  1  0.53074400  0.03690000  0.32166000  1
  V  V2  1  0.21854600  0.71641300  0.42404400  1
  V  V3  1  0.71796300  0.21962500  0.92350100  1
  P  P0  1  0.01322500  0.21920300  0.73464900  1
  P  P1  1  0.51442500  0.71938200  0.23525900  1
  P  P2  1  0.02228600  0.23895500  0.02272800  1
  P  P3  1  0.09645800  0.16265200  0.37580400  1
  P  P4  1  0.40721800  0.32869200  0.12528800  1
  P  P5  1  0.47615900  0.27674800  0.47816400  1
  P  P6  1  0.52172400  0.73220400  0.52387200  1
  P  P7  1  0.59792300  0.66532100  0.87527900  1
  P  P8  1  0.90591800  0.82621700  0.62668600  1
  P  P9  1  0.97426300  0.78242200  0.97713000  1
  P  P10  1  0.48657300  0.27764400  0.76257900  1
  P  P11  1  0.98559000  0.77431200  0.26193100  1
  O  O0  1  0.02295500  0.59774600  0.23844800  1
  O  O1  1  0.45586900  0.78267900  0.13592600  1
  O  O2  1  0.40057800  0.63431300  0.30948200  1
  O  O3  1  0.01018100  0.20526700  0.47493800  1
  O  O4  1  0.29876900  0.44682800  0.47044500  1
  O  O5  1  0.36024100  0.51789000  0.12594300  1
  O  O6  1  0.23991200  0.29396900  0.14321900  1
  O  O7  1  0.26521800  0.19797300  0.35193100  1
  O  O8  1  0.20491800  0.06868400  0.72477900  1
  O  O9  1  0.70480700  0.56973300  0.22515800  1
  O  O10  1  0.20305200  0.07710600  0.03748900  1
  O  O11  1  0.15365200  0.96910800  0.37018900  1
  O  O12  1  0.10277500  0.85982400  0.18996200  1
  O  O13  1  0.01595200  0.75630900  0.53523500  1
  O  O14  1  0.12325500  0.81332800  0.99712000  1
  O  O15  1  0.42840800  0.13902600  0.55530900  1
  O  O16  1  0.51568600  0.26135600  0.03280000  1
  O  O17  1  0.02691700  0.70848800  0.70466300  1
  O  O18  1  0.04829300  0.73173100  0.87810100  1
  O  O19  1  0.62474400  0.30988000  0.49601000  1
  O  O20  1  0.92319600  0.64573200  0.05173700  1
  O  O21  1  0.03226100  0.71902900  0.36260300  1
  O  O22  1  0.52890500  0.21089700  0.20145400  1
  O  O23  1  0.54953500  0.22066600  0.37962600  1
  O  O24  1  0.52364600  0.10232100  0.73871300  1
  O  O25  1  0.49288900  0.88736500  0.25917500  1
  O  O26  1  0.43820000  0.80555300  0.61672700  1
  O  O27  1  0.93772200  0.31539700  0.11606900  1
  O  O28  1  0.95689400  0.27829800  0.63509900  1
  O  O29  1  0.46936900  0.78390700  0.80217200  1
  O  O30  1  0.06831300  0.37018600  0.93906900  1
  O  O31  1  0.38313700  0.68259600  0.50848100  1
  O  O32  1  0.96786800  0.27787500  0.30411100  1
  O  O33  1  0.56351300  0.86706100  0.44167600  1
  O  O34  1  0.88081300  0.19079600  0.00997900  1
  O  O35  1  0.90115700  0.13302700  0.80967700  1
  O  O36  1  0.50738400  0.70902700  0.97361900  1
  O  O37  1  0.79712800  0.95444600  0.97108200  1
  O  O38  1  0.86488300  0.01409700  0.62718100  1
  O  O39  1  0.29528300  0.42187000  0.75855300  1
  O  O40  1  0.79362000  0.91802300  0.25919200  1
  O  O41  1  0.73615200  0.79661900  0.64446600  1
  O  O42  1  0.76499800  0.70138700  0.85290600  1
  O  O43  1  0.70489900  0.57167100  0.53690500  1
  O  O44  1  0.65222000  0.47377300  0.86835400  1
  O  O45  1  0.60537100  0.36082200  0.69039500  1
  O  O46  1  0.53095900  0.22424400  0.86364900  1
  O  O47  1  0.99244700  0.38688400  0.75604600  1
loop_
_geom_bond_atom_site_label_1
_geom_bond_atom_site_label_2
_geom_bond_distance
_geom_bond_site_symmetry_2
Li0 O7 2.083890 1_555
Li0 O23 2.254501 1_555
Li0 O2 2.296011 1_555
Li0 O4 2.320262 1_555
Li1 O3 1.981587 1_555
Li1 O28 1.994406 1_455
Li1 O15 2.065167 1_555
Li1 O8 2.485060 1_555
Li2 O1 2.004580 1_555
Li2 O36 2.009340 1_554
Li2 O20 2.031031 1_555
Li2 O9 2.486299 1_555
Li3 O12 2.107754 1_545
Li3 O10 2.204944 1_555
Li3 O6 2.262476 1_555
Li3 O27 2.416631 1_455
Li3 O11 2.592041 1_545
Li3 O32 2.610935 1_455
Li3 O1 2.632815 1_545
Li4 O29 1.981962 1_555
Li4 O18 2.006670 1_555
Li4 O8 2.053715 1_565
Li4 O14 2.464830 1_555
Li5 O32 1.942983 1_555
Li5 O9 2.046945 1_555
Li5 O23 2.092127 1_555
Li5 O19 2.453864 1_555
Li6 O17 1.994271 1_555
Li6 O39 2.008726 1_555
Li6 O31 2.074132 1_555
Li6 O13 2.496785 1_555
Li7 O22 1.967624 1_555
Li7 O40 2.036910 1_545
Li7 O34 2.077899 1_555
Li7 O16 2.512625 1_555
Li8 O42 2.068266 1_555
Li8 O18 2.205568 1_655
Li8 O35 2.274417 1_565
Li8 O37 2.353077 1_555
Li9 O45 2.069051 1_555
Li9 O43 2.193558 1_555
Li9 O41 2.271608 1_555
Li9 O26 2.375298 1_555
Li10 O46 1.990291 1_555
Li10 O10 2.017142 1_556
Li10 O16 2.018664 1_556
Li10 O30 2.450955 1_555
Li10 O6 2.599144 1_556
Li11 O21 2.009221 1_655
Li11 O43 2.013033 1_555
Li11 O13 2.038675 1_655
Li11 O33 2.457797 1_555
Li11 O41 2.632586 1_555
Mn0 O14 1.926681 1_554
Mn0 O1 1.953068 1_555
Mn0 O12 2.043724 1_555
Mn0 O5 2.043748 1_555
Mn0 O36 2.058559 1_554
Mn0 O10 2.265681 1_565
Mn1 O30 1.942153 1_555
Mn1 O17 1.948139 1_555
Mn1 O47 2.035548 1_455
Mn1 O42 2.066806 1_455
Mn1 O39 2.076504 1_555
Mn1 O18 2.196387 1_555
Mn2 O28 1.935868 1_555
Mn2 O19 1.938256 1_555
Mn2 O3 2.052401 1_655
Mn2 O45 2.054833 1_555
Mn2 O38 2.060098 1_555
Mn2 O43 2.236506 1_555
Mn3 O0 1.926468 1_655
Mn3 O27 1.969501 1_555
Mn3 O6 2.042341 1_655
Mn3 O20 2.069155 1_555
Mn3 O9 2.099891 1_555
Mn3 O32 2.159172 1_555
O0 P11 1.548613 1_455
O1 P1 1.572063 1_555
O2 P1 1.550994 1_555
O2 V2 2.038930 1_555
O3 P3 1.545118 1_555
O4 P5 1.551944 1_555
O4 V2 2.071992 1_555
O5 P4 1.508617 1_555
O6 P4 1.557818 1_555
O7 P3 1.563643 1_555
O7 V1 2.049871 1_555
O8 P0 1.552741 1_555
O8 V0 2.047506 1_545
O9 P1 1.542879 1_555
O10 P2 1.549568 1_555
O11 P3 1.544540 1_565
O11 V2 1.974304 1_555
O12 P11 1.559444 1_455
O13 P8 1.551901 1_455
O13 V2 2.045149 1_555
O14 P9 1.555151 1_455
O15 P5 1.545023 1_555
O15 V0 2.052073 1_545
O16 P4 1.554571 1_555
O16 V3 2.025489 1_554
O17 P8 1.574651 1_455
O18 P9 1.560166 1_455
O19 P5 1.549159 1_555
O20 P9 1.534644 1_554
O21 P11 1.556705 1_455
O21 V2 2.054140 1_555
O22 P4 1.558022 1_555
O22 V1 2.002368 1_555
O23 P5 1.571113 1_555
O23 V1 2.125432 1_555
O24 P10 1.541616 1_555
O24 V0 1.972151 1_545
O25 P1 1.528771 1_555
O25 V1 1.999232 1_565
O26 P6 1.557983 1_555
O26 V0 2.030687 1_555
O27 P2 1.577063 1_655
O28 P0 1.570341 1_655
O29 P7 1.559857 1_555
O29 V0 2.050087 1_555
O30 P2 1.549808 1_556
O31 P6 1.545391 1_555
O31 V2 2.024603 1_555
O32 P3 1.541566 1_655
O33 P6 1.544250 1_555
O33 V1 1.972847 1_565
O34 P2 1.543399 1_655
O34 V3 2.053095 1_554
O35 P0 1.551367 1_655
O35 V3 2.043767 1_555
O36 P7 1.541477 1_555
O37 P9 1.557419 1_555
O37 V3 2.041005 1_565
O38 P8 1.510653 1_545
O39 P10 1.536231 1_555
O40 P11 1.537307 1_555
O40 V1 2.075381 1_565
O41 P8 1.553003 1_555
O41 V0 2.048672 1_555
O42 P7 1.555229 1_555
O43 P6 1.554202 1_555
O44 P7 1.539123 1_555
O44 V3 1.987597 1_555
O45 P10 1.558418 1_555
O46 P10 1.556707 1_555
O46 V3 2.035460 1_555
O47 P0 1.510932 1_655
