# generated using pymatgen
data_Ca3Pd2
_symmetry_space_group_name_H-M   'P 1'
_cell_length_a   7.64332013
_cell_length_b   7.64332485
_cell_length_c   7.64331714
_cell_angle_alpha   71.58364801
_cell_angle_beta   71.58366368
_cell_angle_gamma   71.58362421
_symmetry_Int_Tables_number   1
_chemical_formula_structural   Ca3Pd2
_chemical_formula_sum   'Ca9 Pd6'
_cell_volume   390.20423163
_cell_formula_units_Z   3
loop_
 _symmetry_equiv_pos_site_id
 _symmetry_equiv_pos_as_xyz
  1  'x, y, z'
loop_
 _atom_site_type_symbol
 _atom_site_label
 _atom_site_symmetry_multiplicity
 _atom_site_fract_x
 _atom_site_fract_y
 _atom_site_fract_z
 _atom_site_occupancy
  Ca  Ca0  1  -0.00000000  0.00000000  -0.00000000  1
  Ca  Ca1  1  0.79610628  0.79610728  0.79610628  1
  Ca  Ca2  1  0.20389372  0.20389272  0.20389372  1
  Ca  Ca3  1  0.60514844  0.33168759  0.84344006  1
  Ca  Ca4  1  0.33168759  0.84344006  0.60514844  1
  Ca  Ca5  1  0.84344006  0.60514844  0.33168759  1
  Ca  Ca6  1  0.39485056  0.66831241  0.15655994  1
  Ca  Ca7  1  0.66831241  0.15655994  0.39485056  1
  Ca  Ca8  1  0.15655994  0.39485056  0.66831241  1
  Pd  Pd0  1  0.95663274  0.15377813  0.58692768  1
  Pd  Pd1  1  0.15377513  0.58692668  0.95663374  1
  Pd  Pd2  1  0.58692768  0.95663274  0.15377613  1
  Pd  Pd3  1  0.04336726  0.84622187  0.41307232  1
  Pd  Pd4  1  0.84622487  0.41307332  0.04336626  1
  Pd  Pd5  1  0.41307232  0.04336726  0.84622387  1
loop_
_geom_bond_atom_site_label_1
_geom_bond_atom_site_label_2
_geom_bond_distance
_geom_bond_site_symmetry_2
Ca0 Pd3 3.087056 1_545
Ca0 Pd0 3.087056 1_454
Ca0 Pd2 3.087057 1_445
Ca0 Pd5 3.087057 1_554
Ca0 Pd1 3.087062 1_544
Ca0 Pd4 3.087062 1_455
Ca1 Pd5 2.922747 1_565
Ca1 Pd4 2.922749 1_556
Ca1 Pd3 2.922750 1_655
Ca1 Pd2 3.106993 1_556
Ca1 Pd1 3.106995 1_655
Ca1 Pd0 3.107005 1_565
Ca2 Pd2 2.922747 1_545
Ca2 Pd1 2.922749 1_554
Ca2 Pd0 2.922750 1_455
Ca2 Pd5 3.106993 1_554
Ca2 Pd4 3.106995 1_455
Ca2 Pd3 3.107005 1_545
Ca3 Pd0 2.993109 1_555
Ca3 Pd5 3.001166 1_555
Ca3 Pd4 3.036646 1_556
Ca3 Pd2 3.100118 1_546
Ca3 Pd1 3.374134 1_555
Ca4 Pd1 2.993127 1_555
Ca4 Pd3 3.001170 1_555
Ca4 Pd5 3.036641 1_565
Ca4 Pd0 3.100124 1_465
Ca4 Pd2 3.374130 1_555
Ca5 Pd2 2.993115 1_555
Ca5 Pd4 3.001163 1_555
Ca5 Pd3 3.036630 1_655
Ca5 Pd1 3.100109 1_654
Ca5 Pd0 3.374120 1_555
Ca6 Pd3 2.993105 1_555
Ca6 Pd2 3.001172 1_555
Ca6 Pd1 3.036639 1_554
Ca6 Pd5 3.100119 1_564
Ca6 Pd4 3.374140 1_555
Ca7 Pd4 2.993123 1_555
Ca7 Pd0 3.001175 1_555
Ca7 Pd2 3.036635 1_545
Ca7 Pd3 3.100125 1_645
Ca7 Pd5 3.374136 1_555
Ca8 Pd5 2.993111 1_555
Ca8 Pd1 3.001168 1_555
Ca8 Pd0 3.036623 1_455
Ca8 Pd4 3.100110 1_456
Ca8 Pd3 3.374125 1_555
Pd0 Pd3 2.857229 1_645
Pd1 Pd4 2.857181 1_456
Pd2 Pd5 2.857199 1_564
