# generated using pymatgen
data_ZnCrP2O7
_symmetry_space_group_name_H-M   'P 1'
_cell_length_a   6.44667756
_cell_length_b   7.27063540
_cell_length_c   6.37364975
_cell_angle_alpha   74.79202213
_cell_angle_beta   81.14247757
_cell_angle_gamma   70.20845700
_symmetry_Int_Tables_number   1
_chemical_formula_structural   ZnCrP2O7
_chemical_formula_sum   'Zn2 Cr2 P4 O14'
_cell_volume   270.55242465
_cell_formula_units_Z   2
loop_
 _symmetry_equiv_pos_site_id
 _symmetry_equiv_pos_as_xyz
  1  'x, y, z'
loop_
 _atom_site_type_symbol
 _atom_site_label
 _atom_site_symmetry_multiplicity
 _atom_site_fract_x
 _atom_site_fract_y
 _atom_site_fract_z
 _atom_site_occupancy
  Zn  Zn0  1  0.28838400  0.18653600  0.91877900  1
  Zn  Zn1  1  0.71167200  0.81333700  0.08123900  1
  Cr  Cr0  1  0.90603300  0.22048700  0.31852900  1
  Cr  Cr1  1  0.09389200  0.77984000  0.68127800  1
  P  P0  1  0.21322500  0.76343500  0.17144200  1
  P  P1  1  0.78673400  0.23657400  0.82869400  1
  P  P2  1  0.63887100  0.68194600  0.61795400  1
  P  P3  1  0.36110900  0.31800700  0.38208300  1
  O  O0  1  0.62516100  0.45755700  0.74890600  1
  O  O1  1  0.37477800  0.54243900  0.25125600  1
  O  O2  1  0.05760200  0.75766500  0.01232100  1
  O  O3  1  0.94243200  0.24228600  0.98766200  1
  O  O4  1  0.25883500  0.34076700  0.61057400  1
  O  O5  1  0.74122200  0.65905500  0.38948800  1
  O  O6  1  0.59927900  0.18779200  0.36874900  1
  O  O7  1  0.40076500  0.81223400  0.63114400  1
  O  O8  1  0.62613400  0.11846400  0.94445200  1
  O  O9  1  0.37392700  0.88143900  0.05555600  1
  O  O10  1  0.92754700  0.15050000  0.64247300  1
  O  O11  1  0.07240500  0.84961300  0.35744300  1
  O  O12  1  0.21397400  0.27003700  0.24552700  1
  O  O13  1  0.78602000  0.72998800  0.75445100  1
loop_
_geom_bond_atom_site_label_1
_geom_bond_atom_site_label_2
_geom_bond_distance
_geom_bond_site_symmetry_2
Cr0 O10 2.007576 1_555
Cr0 O6 2.037924 1_555
Cr0 O3 2.055429 1_554
Cr0 O12 2.097429 1_655
Cr0 O11 2.501087 1_645
Cr1 O11 2.006938 1_555
Cr1 O7 2.037810 1_555
Cr1 O2 2.056132 1_556
Cr1 O13 2.097985 1_455
Cr1 O10 2.499744 1_465
O0 P1 1.589384 1_555
O0 P2 1.651242 1_555
O1 P0 1.589430 1_555
O1 P3 1.651244 1_555
O2 P0 1.549516 1_555
O2 Zn1 2.123782 1_455
O3 P1 1.548964 1_555
O3 Zn0 2.123833 1_655
O4 P3 1.529648 1_555
O4 Zn0 1.991848 1_555
O5 P2 1.529827 1_555
O5 Zn1 1.992188 1_555
O6 P3 1.509519 1_555
O7 P2 1.509290 1_555
O8 P1 1.545360 1_555
O8 Zn1 2.071386 1_546
O8 Zn0 2.085691 1_555
O9 P0 1.545556 1_555
O9 Zn0 2.071184 1_564
O9 Zn1 2.085641 1_555
O10 P1 1.515792 1_555
O11 P0 1.515002 1_555
O12 P3 1.554481 1_555
O12 Zn0 2.257051 1_554
O13 P2 1.554585 1_555
O13 Zn1 2.256819 1_556
