# generated using pymatgen
data_MgAg2
_symmetry_space_group_name_H-M   'P 1'
_cell_length_a   7.25212507
_cell_length_b   7.25212507
_cell_length_c   4.64214237
_cell_angle_alpha   90.00000000
_cell_angle_beta   90.00000000
_cell_angle_gamma   154.24050468
_symmetry_Int_Tables_number   1
_chemical_formula_structural   MgAg2
_chemical_formula_sum   'Mg2 Ag4'
_cell_volume   106.10437000
_cell_formula_units_Z   2
loop_
 _symmetry_equiv_pos_site_id
 _symmetry_equiv_pos_as_xyz
  1  'x, y, z'
loop_
 _atom_site_type_symbol
 _atom_site_label
 _atom_site_symmetry_multiplicity
 _atom_site_fract_x
 _atom_site_fract_y
 _atom_site_fract_z
 _atom_site_occupancy
  Mg  Mg0  1  0.59738034  0.40261966  0.25000000  1
  Mg  Mg1  1  0.40261966  0.59738034  0.75000000  1
  Ag  Ag0  1  0.26498082  0.73501918  0.25000000  1
  Ag  Ag1  1  0.93248613  0.06751387  0.25000000  1
  Ag  Ag2  1  0.73501918  0.26498082  0.75000000  1
  Ag  Ag3  1  0.06751387  0.93248613  0.75000000  1
loop_
_geom_bond_atom_site_label_1
_geom_bond_atom_site_label_2
_geom_bond_distance
_geom_bond_site_symmetry_2
Ag0 Ag2 2.860077 1_454
Ag0 Ag2 2.860077 1_565
Ag0 Ag2 2.860077 1_564
Ag0 Ag2 2.860077 1_455
Ag0 Ag1 2.867503 1_565
Ag0 Ag1 2.867503 1_455
Ag0 Mg0 2.868614 1_455
Ag0 Mg0 2.868614 1_565
Ag0 Mg1 3.028986 1_555
Ag0 Mg1 3.028986 1_554
Ag1 Mg0 2.837086 1_545
Ag1 Mg0 2.837086 1_655
Ag1 Mg1 2.859878 1_544
Ag1 Mg1 2.859878 1_545
Ag1 Mg1 2.859878 1_655
Ag1 Mg1 2.859878 1_654
Ag2 Ag3 2.867503 1_545
Ag2 Ag3 2.867503 1_655
Ag2 Mg1 2.868614 1_545
Ag2 Mg1 2.868614 1_655
Ag2 Mg0 3.028986 1_555
Ag2 Mg0 3.028986 1_556
Ag3 Mg1 2.837086 1_455
Ag3 Mg1 2.837086 1_565
Ag3 Mg0 2.859878 1_565
Ag3 Mg0 2.859878 1_566
Ag3 Mg0 2.859878 1_456
Ag3 Mg0 2.859878 1_455
