# generated using pymatgen
data_Ba(GdTe2)2
_symmetry_space_group_name_H-M   'P 1'
_cell_length_a   4.52994123
_cell_length_b   13.84577281
_cell_length_c   16.41514142
_cell_angle_alpha   90.00000000
_cell_angle_beta   90.00000000
_cell_angle_gamma   90.00000000
_symmetry_Int_Tables_number   1
_chemical_formula_structural   Ba(GdTe2)2
_chemical_formula_sum   'Ba4 Gd8 Te16'
_cell_volume   1029.56648665
_cell_formula_units_Z   4
loop_
 _symmetry_equiv_pos_site_id
 _symmetry_equiv_pos_as_xyz
  1  'x, y, z'
loop_
 _atom_site_type_symbol
 _atom_site_label
 _atom_site_symmetry_multiplicity
 _atom_site_fract_x
 _atom_site_fract_y
 _atom_site_fract_z
 _atom_site_occupancy
  Ba  Ba0  1  0.25000000  0.23994298  0.33212894  1
  Ba  Ba1  1  0.25000000  0.73994298  0.16787106  1
  Ba  Ba2  1  0.75000000  0.76005702  0.66787106  1
  Ba  Ba3  1  0.75000000  0.26005702  0.83212894  1
  Gd  Gd0  1  0.25000000  0.08056380  0.59740915  1
  Gd  Gd1  1  0.25000000  0.58056380  0.90259085  1
  Gd  Gd2  1  0.75000000  0.91943620  0.40259085  1
  Gd  Gd3  1  0.75000000  0.41943620  0.09740915  1
  Gd  Gd4  1  0.25000000  0.56188196  0.39036517  1
  Gd  Gd5  1  0.25000000  0.06188196  0.10963483  1
  Gd  Gd6  1  0.75000000  0.43811804  0.60963483  1
  Gd  Gd7  1  0.75000000  0.93811804  0.89036517  1
  Te  Te0  1  0.25000000  0.08841179  0.92271479  1
  Te  Te1  1  0.25000000  0.58841179  0.57728521  1
  Te  Te2  1  0.75000000  0.91158821  0.07728521  1
  Te  Te3  1  0.75000000  0.41158821  0.42271479  1
  Te  Te4  1  0.25000000  0.29456156  0.66447933  1
  Te  Te5  1  0.25000000  0.79456156  0.83552067  1
  Te  Te6  1  0.75000000  0.70543844  0.33552067  1
  Te  Te7  1  0.75000000  0.20543844  0.16447933  1
  Te  Te8  1  0.25000000  0.37187645  0.97204629  1
  Te  Te9  1  0.25000000  0.87187645  0.52795371  1
  Te  Te10  1  0.75000000  0.62812355  0.02795371  1
  Te  Te11  1  0.75000000  0.12812355  0.47204629  1
  Te  Te12  1  0.25000000  0.47426685  0.21598721  1
  Te  Te13  1  0.25000000  0.97426685  0.28401279  1
  Te  Te14  1  0.75000000  0.52573315  0.78401279  1
  Te  Te15  1  0.75000000  0.02573315  0.71598721  1
loop_
_geom_bond_atom_site_label_1
_geom_bond_atom_site_label_2
_geom_bond_distance
_geom_bond_site_symmetry_2
Ba0 Te11 3.578019 1_455
Ba0 Te11 3.578019 1_555
Ba0 Te7 3.596080 1_455
Ba0 Te7 3.596080 1_555
Ba0 Te3 3.604059 1_455
Ba0 Te3 3.604059 1_555
Ba0 Te13 3.762331 1_545
Ba0 Te12 3.763081 1_555
Ba1 Te10 3.578019 1_455
Ba1 Te10 3.578019 1_555
Ba1 Te6 3.596080 1_555
Ba1 Te6 3.596080 1_455
Ba1 Te2 3.604059 1_555
Ba1 Te2 3.604059 1_455
Ba1 Te12 3.762331 1_555
Ba1 Te13 3.763081 1_555
Ba2 Te9 3.578019 1_555
Ba2 Te9 3.578019 1_655
Ba2 Te5 3.596080 1_555
Ba2 Te5 3.596080 1_655
Ba2 Te1 3.604059 1_555
Ba2 Te1 3.604059 1_655
Ba2 Te15 3.762331 1_565
Ba2 Te14 3.763081 1_555
Ba3 Te8 3.578019 1_655
Ba3 Te8 3.578019 1_555
Ba3 Te4 3.596080 1_655
Ba3 Te4 3.596080 1_555
Ba3 Te0 3.604059 1_555
Ba3 Te0 3.604059 1_655
Ba3 Te14 3.762331 1_555
Ba3 Te15 3.763081 1_555
Gd0 Te15 3.081429 1_555
Gd0 Te15 3.081429 1_455
Gd0 Te9 3.106240 1_545
Gd0 Te11 3.130249 1_455
Gd0 Te11 3.130249 1_555
Gd0 Te4 3.160899 1_555
Gd1 Te14 3.081429 1_455
Gd1 Te14 3.081429 1_555
Gd1 Te8 3.106240 1_555
Gd1 Te10 3.130249 1_556
Gd1 Te10 3.130249 1_456
Gd1 Te5 3.160899 1_555
Gd2 Te13 3.081429 1_655
Gd2 Te13 3.081429 1_555
Gd2 Te11 3.106240 1_565
Gd2 Te9 3.130249 1_655
Gd2 Te9 3.130249 1_555
Gd2 Te6 3.160899 1_555
Gd3 Te12 3.081429 1_555
Gd3 Te12 3.081429 1_655
Gd3 Te10 3.106240 1_555
Gd3 Te8 3.130249 1_554
Gd3 Te8 3.130249 1_654
Gd3 Te7 3.160899 1_555
Gd4 Te1 3.090228 1_555
Gd4 Te12 3.108885 1_555
Gd4 Te3 3.121275 1_455
Gd4 Te3 3.121275 1_555
Gd4 Te6 3.145052 1_555
Gd4 Te6 3.145052 1_455
Gd5 Te0 3.090228 1_554
Gd5 Te13 3.108885 1_545
Gd5 Te2 3.121275 1_445
Gd5 Te2 3.121275 1_545
Gd5 Te7 3.145052 1_455
Gd5 Te7 3.145052 1_555
Gd6 Te3 3.090228 1_555
Gd6 Te14 3.108885 1_555
Gd6 Te1 3.121275 1_655
Gd6 Te1 3.121275 1_555
Gd6 Te4 3.145052 1_655
Gd6 Te4 3.145052 1_555
Gd7 Te2 3.090228 1_556
Gd7 Te15 3.108885 1_565
Gd7 Te0 3.121275 1_665
Gd7 Te0 3.121275 1_565
Gd7 Te5 3.145052 1_555
Gd7 Te5 3.145052 1_655
