# generated using pymatgen
data_Li9Mn2Co5O16
_symmetry_space_group_name_H-M   'P 1'
_cell_length_a   2.89450200
_cell_length_b   9.77065900
_cell_length_c   10.32647572
_cell_angle_alpha   80.55707299
_cell_angle_beta   90.00000000
_cell_angle_gamma   90.00000000
_symmetry_Int_Tables_number   1
_chemical_formula_structural   Li9Mn2Co5O16
_chemical_formula_sum   'Li9 Mn2 Co5 O16'
_cell_volume   288.08769170
_cell_formula_units_Z   1
loop_
 _symmetry_equiv_pos_site_id
 _symmetry_equiv_pos_as_xyz
  1  'x, y, z'
loop_
 _atom_site_type_symbol
 _atom_site_label
 _atom_site_symmetry_multiplicity
 _atom_site_fract_x
 _atom_site_fract_y
 _atom_site_fract_z
 _atom_site_occupancy
  Li  Li0  1  0.50000000  0.99530900  0.24759700  1
  Li  Li1  1  0.50000000  0.99772200  0.74828200  1
  Li  Li2  1  0.00000000  0.75793700  0.35276000  1
  Li  Li3  1  0.00000000  0.74436500  0.89577200  1
  Li  Li4  1  0.50000000  0.50097200  0.48706000  1
  Li  Li5  1  0.50000000  0.50153300  0.01108200  1
  Li  Li6  1  0.00000000  0.24823000  0.13910400  1
  Li  Li7  1  0.00000000  0.24821500  0.61596500  1
  Li  Li8  1  0.50000000  0.74973800  0.12743600  1
  Mn  Mn0  1  0.00000000  0.99159200  0.00852400  1
  Mn  Mn1  1  0.00000000  0.49893700  0.75014800  1
  Co  Co0  1  0.00000000  0.00447400  0.49621200  1
  Co  Co1  1  0.50000000  0.75632300  0.62078300  1
  Co  Co2  1  0.00000000  0.51752000  0.23387600  1
  Co  Co3  1  0.50000000  0.25824000  0.37414900  1
  Co  Co4  1  0.50000000  0.24488100  0.87594200  1
  O  O0  1  0.50000000  0.11173000  0.05635100  1
  O  O1  1  0.50000000  0.12154300  0.56014200  1
  O  O2  1  0.00000000  0.88605900  0.17100700  1
  O  O3  1  0.00000000  0.86707800  0.68039300  1
  O  O4  1  0.50000000  0.61720200  0.30857200  1
  O  O5  1  0.50000000  0.60768500  0.80934500  1
  O  O6  1  0.00000000  0.36741200  0.91714000  1
  O  O7  1  0.00000000  0.36988300  0.43305200  1
  O  O8  1  0.50000000  0.87597200  0.44438600  1
  O  O9  1  0.50000000  0.89027900  0.94188700  1
  O  O10  1  0.00000000  0.62434200  0.58438600  1
  O  O11  1  0.00000000  0.61508500  0.06810800  1
  O  O12  1  0.50000000  0.39104900  0.69228800  1
  O  O13  1  0.50000000  0.37841500  0.19547900  1
  O  O14  1  0.00000000  0.13224000  0.32265500  1
  O  O15  1  0.00000000  0.12803500  0.83011800  1
loop_
_geom_bond_atom_site_label_1
_geom_bond_atom_site_label_2
_geom_bond_distance
_geom_bond_site_symmetry_2
Li0 O2 2.033845 1_655
Li0 O2 2.033845 1_555
Li0 O0 2.111164 1_565
Li0 O8 2.170632 1_555
Li0 O14 2.196714 1_665
Li0 O14 2.196714 1_565
Li1 O9 2.100097 1_555
Li1 O1 2.113517 1_565
Li1 O3 2.123451 1_655
Li1 O3 2.123451 1_555
Li1 O15 2.186986 1_665
Li1 O15 2.186986 1_565
Li2 O2 2.078166 1_555
Li2 O4 2.097490 1_455
Li2 O4 2.097490 1_555
Li2 O8 2.162843 1_455
Li2 O8 2.162843 1_555
Li2 O10 2.529913 1_555
Li3 O11 2.006239 1_556
Li3 O9 2.139306 1_555
Li3 O9 2.139306 1_455
Li3 O5 2.250687 1_555
Li3 O5 2.250687 1_455
Li3 O3 2.347169 1_555
Li4 O4 2.000016 1_555
Li4 O7 2.068934 1_655
Li4 O7 2.068934 1_555
Li4 O12 2.213143 1_555
Li4 O10 2.226018 1_655
Li4 O10 2.226018 1_555
Li5 O11 1.971455 1_655
Li5 O11 1.971455 1_555
Li5 O13 2.078779 1_555
Li5 O5 2.169471 1_554
Li5 O6 2.273769 1_654
Li5 O6 2.273769 1_554
Li6 O14 2.042593 1_555
Li6 O13 2.072290 1_455
Li6 O13 2.072290 1_555
Li6 O0 2.231031 1_455
Li6 O0 2.231031 1_555
Li6 O6 2.394568 1_554
Li7 O1 2.047625 1_455
Li7 O1 2.047625 1_555
Li7 O7 2.060132 1_555
Li7 O12 2.241491 1_455
Li7 O12 2.241491 1_555
Li7 O15 2.327499 1_555
Li8 O2 2.065842 1_555
Li8 O2 2.065842 1_655
Li8 O4 2.093056 1_555
Li8 O11 2.113123 1_555
Li8 O11 2.113123 1_655
Li8 O9 2.166469 1_554
Mn0 O2 1.819559 1_555
Mn0 O9 1.942024 1_454
Mn0 O9 1.942024 1_554
Mn0 O0 1.976501 1_565
Mn0 O0 1.976501 1_465
Mn0 O15 2.089364 1_564
Mn1 O10 1.934727 1_555
Mn1 O12 1.941495 1_555
Mn1 O12 1.941495 1_455
Mn1 O5 1.952009 1_555
Mn1 O5 1.952009 1_455
Mn1 O6 1.974331 1_555
Co0 O14 2.009068 1_555
Co0 O1 2.021513 1_555
Co0 O1 2.021513 1_455
Co0 O8 2.043977 1_445
Co0 O8 2.043977 1_545
Co0 O3 2.140502 1_545
Co1 O3 1.965471 1_555
Co1 O3 1.965471 1_655
Co1 O8 1.996498 1_555
Co1 O10 2.014387 1_655
Co1 O10 2.014387 1_555
Co1 O5 2.229967 1_555
Co2 O11 1.817565 1_555
Co2 O4 1.970943 1_555
Co2 O4 1.970943 1_455
Co2 O13 2.067817 1_555
Co2 O13 2.067817 1_455
Co2 O7 2.310339 1_555
Co3 O7 1.967774 1_555
Co3 O7 1.967774 1_655
Co3 O13 2.017918 1_555
Co3 O14 2.026750 1_555
Co3 O14 2.026750 1_655
Co3 O1 2.151986 1_555
Co4 O15 1.949132 1_655
Co4 O15 1.949132 1_555
Co4 O6 1.968746 1_555
Co4 O6 1.968746 1_655
Co4 O0 2.089969 1_556
Co4 O12 2.178899 1_555
