# generated using pymatgen
data_LiMg14V
_symmetry_space_group_name_H-M   'P 1'
_cell_length_a   6.33059053
_cell_length_b   6.37050982
_cell_length_c   10.10358614
_cell_angle_alpha   90.00000000
_cell_angle_beta   90.00000000
_cell_angle_gamma   120.20881884
_symmetry_Int_Tables_number   1
_chemical_formula_structural   LiMg14V
_chemical_formula_sum   'Li1 Mg14 V1'
_cell_volume   352.13314128
_cell_formula_units_Z   1
loop_
 _symmetry_equiv_pos_site_id
 _symmetry_equiv_pos_as_xyz
  1  'x, y, z'
loop_
 _atom_site_type_symbol
 _atom_site_label
 _atom_site_symmetry_multiplicity
 _atom_site_fract_x
 _atom_site_fract_y
 _atom_site_fract_z
 _atom_site_occupancy
  Li  Li0  1  0.16816404  0.83408152  0.12500000  1
  Mg  Mg0  1  0.16746637  0.33373269  0.62500000  1
  Mg  Mg1  1  0.16794147  0.83397023  0.62500000  1
  Mg  Mg2  1  0.66634874  0.33216985  0.12500000  1
  Mg  Mg3  1  0.66620692  0.33279710  0.62500000  1
  Mg  Mg4  1  0.66634874  0.83417789  0.12500000  1
  Mg  Mg5  1  0.66620692  0.83340882  0.62500000  1
  Mg  Mg6  1  0.32941591  0.16777918  0.36975416  1
  Mg  Mg7  1  0.32941591  0.16777918  0.88024584  1
  Mg  Mg8  1  0.32941591  0.66163773  0.36975416  1
  Mg  Mg9  1  0.32941591  0.66163773  0.88024584  1
  Mg  Mg10  1  0.83890273  0.16945186  0.37114390  1
  Mg  Mg11  1  0.83890273  0.16945186  0.87885610  1
  Mg  Mg12  1  0.83454527  0.66727313  0.37374294  1
  Mg  Mg13  1  0.83454527  0.66727313  0.87625706  1
  V  V0  1  0.16675719  0.33337810  0.12500000  1
loop_
_geom_bond_atom_site_label_1
_geom_bond_atom_site_label_2
_geom_bond_distance
_geom_bond_site_symmetry_2
Li0 Mg8 3.081007 1_555
Li0 Mg9 3.081007 1_554
Li0 Mg6 3.081013 1_565
Li0 Mg7 3.081013 1_564
Li0 Mg13 3.106037 1_454
Li0 Mg12 3.106037 1_455
Li0 Mg2 3.153494 1_565
Li0 Mg4 3.153494 1_555
Li0 Mg2 3.177096 1_455
Li0 Mg4 3.177096 1_455
Li0 V0 3.185264 1_555
Li0 V0 3.185264 1_565
Mg0 Mg10 3.132030 1_455
Mg0 Mg11 3.132030 1_455
Mg0 Mg7 3.148053 1_555
Mg0 Mg6 3.148053 1_555
Mg0 Mg9 3.148059 1_555
Mg0 Mg8 3.148059 1_555
Mg0 Mg5 3.160325 1_555
Mg0 Mg3 3.160325 1_555
Mg0 Mg5 3.170273 1_445
Mg0 Mg3 3.170274 1_455
Mg0 Mg1 3.185256 1_555
Mg0 Mg1 3.185256 1_545
Mg1 Mg12 3.125915 1_455
Mg1 Mg13 3.125915 1_455
Mg1 Mg3 3.156115 1_565
Mg1 Mg5 3.156116 1_555
Mg1 Mg8 3.167059 1_555
Mg1 Mg9 3.167059 1_555
Mg1 Mg7 3.167065 1_565
Mg1 Mg6 3.167065 1_565
Mg1 Mg3 3.174478 1_455
Mg1 Mg5 3.174478 1_455
Mg2 Mg6 3.084430 1_555
Mg2 Mg7 3.084430 1_554
Mg2 V0 3.164015 1_655
Mg2 V0 3.166589 1_555
Mg2 Mg4 3.172463 1_545
Mg2 Mg4 3.198047 1_555
Mg3 Mg7 3.169565 1_555
Mg3 Mg6 3.169565 1_555
Mg3 Mg5 3.181358 1_545
Mg3 Mg5 3.189152 1_555
Mg4 Mg8 3.084430 1_555
Mg4 Mg9 3.084430 1_554
Mg4 V0 3.164015 1_665
Mg4 V0 3.166589 1_555
Mg5 Mg9 3.169565 1_555
Mg5 Mg8 3.169565 1_555
Mg6 V0 3.062943 1_555
Mg6 Mg8 3.146131 1_555
Mg6 Mg8 3.224379 1_545
Mg7 V0 3.062943 1_556
Mg7 Mg9 3.146131 1_555
Mg7 Mg9 3.224379 1_545
Mg8 V0 3.062950 1_555
Mg9 V0 3.062950 1_556
Mg10 V0 3.066275 1_655
Mg10 Mg2 3.097118 1_555
Mg10 Mg4 3.097124 1_545
Mg10 Mg8 3.110645 1_655
Mg10 Mg6 3.110645 1_655
Mg10 Mg3 3.162495 1_555
Mg10 Mg5 3.162501 1_545
Mg10 Mg12 3.185452 1_545
Mg10 Mg12 3.185452 1_555
Mg10 Mg8 3.220034 1_545
Mg10 Mg6 3.220035 1_555
Mg11 V0 3.066275 1_656
Mg11 Mg2 3.097118 1_556
Mg11 Mg4 3.097124 1_546
Mg11 Mg9 3.110645 1_655
Mg11 Mg7 3.110645 1_655
Mg11 Mg3 3.162495 1_555
Mg11 Mg5 3.162501 1_545
Mg11 Mg13 3.185452 1_545
Mg11 Mg13 3.185452 1_555
Mg11 Mg9 3.220034 1_545
Mg11 Mg7 3.220035 1_555
Mg12 Mg4 3.117651 1_555
Mg12 Mg2 3.117657 1_555
Mg12 Mg5 3.136127 1_555
Mg12 Mg3 3.136134 1_555
Mg12 Mg6 3.151297 1_665
Mg12 Mg8 3.151297 1_655
Mg12 Mg6 3.180110 1_555
Mg12 Mg8 3.180110 1_555
Mg13 Mg4 3.117651 1_556
Mg13 Mg2 3.117657 1_556
Mg13 Mg5 3.136127 1_555
Mg13 Mg3 3.136134 1_555
Mg13 Mg7 3.151297 1_665
Mg13 Mg9 3.151297 1_655
Mg13 Mg7 3.180110 1_555
Mg13 Mg9 3.180110 1_555
