# generated using pymatgen
data_Mg3Si4
_symmetry_space_group_name_H-M   'P 1'
_cell_length_a   8.42051630
_cell_length_b   8.42051630
_cell_length_c   8.79388227
_cell_angle_alpha   63.74134408
_cell_angle_beta   63.74134408
_cell_angle_gamma   28.12847127
_symmetry_Int_Tables_number   1
_chemical_formula_structural   Mg3Si4
_chemical_formula_sum   'Mg6 Si8'
_cell_volume   261.60736846
_cell_formula_units_Z   2
loop_
 _symmetry_equiv_pos_site_id
 _symmetry_equiv_pos_as_xyz
  1  'x, y, z'
loop_
 _atom_site_type_symbol
 _atom_site_label
 _atom_site_symmetry_multiplicity
 _atom_site_fract_x
 _atom_site_fract_y
 _atom_site_fract_z
 _atom_site_occupancy
  Mg  Mg0  1  0.00205300  0.00205300  0.94646700  1
  Mg  Mg1  1  0.23070100  0.23070100  0.83575200  1
  Mg  Mg2  1  0.43365100  0.43365100  0.35326800  1
  Mg  Mg3  1  0.10056300  0.10056300  0.22756900  1
  Mg  Mg4  1  0.21058300  0.21058300  0.48347700  1
  Mg  Mg5  1  0.33240400  0.33240400  0.06864200  1
  Si  Si0  1  0.63381600  0.63381600  0.73396800  1
  Si  Si1  1  0.84243500  0.84243500  0.28089400  1
  Si  Si2  1  0.56759300  0.56759300  0.53499600  1
  Si  Si3  1  0.97782700  0.97782700  0.56691000  1
  Si  Si4  1  0.81209900  0.81209900  0.58693900  1
  Si  Si5  1  0.84712500  0.84712500  0.84491400  1
  Si  Si6  1  0.59731300  0.59731300  0.02851900  1
  Si  Si7  1  0.70220500  0.70220500  0.25430600  1
loop_
_geom_bond_atom_site_label_1
_geom_bond_atom_site_label_2
_geom_bond_distance
_geom_bond_site_symmetry_2
Mg0 Si6 2.855493 1_456
Mg0 Si6 2.855493 1_546
Mg0 Si1 2.907416 1_446
Mg0 Si0 2.939953 1_545
Mg0 Si0 2.939953 1_455
Mg0 Si5 3.043836 1_445
Mg1 Si5 2.819717 1_545
Mg1 Si5 2.819717 1_455
Mg1 Si4 2.844092 1_545
Mg1 Si4 2.844092 1_455
Mg1 Si6 2.905093 1_546
Mg1 Si6 2.905093 1_456
Mg1 Si0 2.964065 1_455
Mg1 Si0 2.964065 1_545
Mg2 Si1 2.770893 1_545
Mg2 Si1 2.770893 1_455
Mg2 Si6 2.887725 1_555
Mg2 Si4 2.937795 1_455
Mg2 Si4 2.937795 1_545
Mg2 Si3 3.078061 1_545
Mg2 Si3 3.078061 1_455
Mg3 Si6 2.709017 1_455
Mg3 Si6 2.709017 1_545
Mg3 Si7 2.712137 1_455
Mg3 Si7 2.712137 1_545
Mg3 Si3 2.732632 1_445
Mg4 Si0 2.844695 1_545
Mg4 Si0 2.844695 1_455
Mg4 Si1 2.915500 1_545
Mg4 Si1 2.915500 1_455
Mg4 Si7 2.918730 1_455
Mg4 Si7 2.918730 1_545
Mg4 Si2 2.980535 1_455
Mg4 Si2 2.980535 1_545
Mg4 Si4 3.023509 1_455
Mg4 Si4 3.023509 1_545
Mg5 Si5 2.772049 1_544
Mg5 Si5 2.772049 1_454
Mg5 Si1 2.824351 1_545
Mg5 Si1 2.824351 1_455
Mg5 Si7 2.865156 1_545
Mg5 Si7 2.865156 1_455
Si0 Si6 2.378232 1_556
Si0 Si2 2.441034 1_555
Si0 Si4 2.592135 1_555
Si1 Si7 2.406479 1_555
Si1 Si4 2.504432 1_555
Si2 Si7 2.444828 1_555
Si2 Si3 2.457842 1_455
Si2 Si3 2.457842 1_545
Si3 Si5 2.402938 1_555
Si3 Si4 2.631705 1_555
Si4 Si5 2.580320 1_555
