# generated using pymatgen
data_FeNiPt6
_symmetry_space_group_name_H-M   'P 1'
_cell_length_a   3.87771800
_cell_length_b   3.87772210
_cell_length_c   7.71385036
_cell_angle_alpha   90.00000000
_cell_angle_beta   90.00000000
_cell_angle_gamma   90.00000000
_symmetry_Int_Tables_number   1
_chemical_formula_structural   FeNiPt6
_chemical_formula_sum   'Fe1 Ni1 Pt6'
_cell_volume   115.99095234
_cell_formula_units_Z   1
loop_
 _symmetry_equiv_pos_site_id
 _symmetry_equiv_pos_as_xyz
  1  'x, y, z'
loop_
 _atom_site_type_symbol
 _atom_site_label
 _atom_site_symmetry_multiplicity
 _atom_site_fract_x
 _atom_site_fract_y
 _atom_site_fract_z
 _atom_site_occupancy
  Fe  Fe0  1  0.00000000  -0.00000000  -0.00000000  1
  Ni  Ni0  1  0.00000000  -0.00000000  0.50000000  1
  Pt  Pt0  1  0.50000000  0.50000000  -0.00000000  1
  Pt  Pt1  1  0.50000000  0.50000000  0.50000000  1
  Pt  Pt2  1  0.50000000  -0.00000000  0.24874941  1
  Pt  Pt3  1  0.50000000  -0.00000000  0.75125059  1
  Pt  Pt4  1  0.00000000  0.50000000  0.24875041  1
  Pt  Pt5  1  0.00000000  0.50000000  0.75124959  1
loop_
_geom_bond_atom_site_label_1
_geom_bond_atom_site_label_2
_geom_bond_distance
_geom_bond_site_symmetry_2
Fe0 Pt3 2.727825 1_454
Fe0 Pt3 2.727825 1_554
Fe0 Pt2 2.727825 1_555
Fe0 Pt2 2.727825 1_455
Fe0 Pt4 2.727832 1_545
Fe0 Pt5 2.727832 1_544
Fe0 Pt4 2.727832 1_555
Fe0 Pt5 2.727832 1_554
Fe0 Pt0 2.741962 1_455
Fe0 Pt0 2.741962 1_555
Fe0 Pt0 2.741962 1_445
Fe0 Pt0 2.741962 1_545
Ni0 Pt5 2.741427 1_545
Ni0 Pt4 2.741427 1_555
Ni0 Pt5 2.741427 1_555
Ni0 Pt4 2.741427 1_545
Ni0 Pt2 2.741431 1_455
Ni0 Pt2 2.741431 1_555
Ni0 Pt3 2.741431 1_455
Ni0 Pt3 2.741431 1_555
Ni0 Pt1 2.741962 1_545
Ni0 Pt1 2.741962 1_455
Ni0 Pt1 2.741962 1_555
Ni0 Pt1 2.741962 1_445
Pt0 Pt3 2.727826 1_554
Pt0 Pt3 2.727826 1_564
Pt0 Pt2 2.727826 1_555
Pt0 Pt2 2.727826 1_565
Pt0 Pt4 2.727830 1_555
Pt0 Pt4 2.727830 1_655
Pt0 Pt5 2.727830 1_554
Pt0 Pt5 2.727830 1_654
Pt1 Pt4 2.741425 1_555
Pt1 Pt4 2.741425 1_655
Pt1 Pt5 2.741425 1_555
Pt1 Pt5 2.741425 1_655
Pt1 Pt2 2.741432 1_555
Pt1 Pt2 2.741432 1_565
Pt1 Pt3 2.741432 1_555
Pt1 Pt3 2.741432 1_565
Pt2 Pt4 2.741962 1_555
Pt2 Pt4 2.741962 1_655
Pt2 Pt4 2.741962 1_545
Pt2 Pt4 2.741962 1_645
Pt3 Pt5 2.741962 1_555
Pt3 Pt5 2.741962 1_655
Pt3 Pt5 2.741962 1_545
Pt3 Pt5 2.741962 1_645
