# generated using pymatgen
data_Rb6Al4(Sb2O7)3
_symmetry_space_group_name_H-M   'P 1'
_cell_length_a   15.82973044
_cell_length_b   15.82973044
_cell_length_c   8.72853161
_cell_angle_alpha   89.70880976
_cell_angle_beta   89.70880976
_cell_angle_gamma   21.03195873
_symmetry_Int_Tables_number   1
_chemical_formula_structural   Rb6Al4(Sb2O7)3
_chemical_formula_sum   'Rb6 Al4 Sb6 O21'
_cell_volume   784.95023992
_cell_formula_units_Z   1
loop_
 _symmetry_equiv_pos_site_id
 _symmetry_equiv_pos_as_xyz
  1  'x, y, z'
loop_
 _atom_site_type_symbol
 _atom_site_label
 _atom_site_symmetry_multiplicity
 _atom_site_fract_x
 _atom_site_fract_y
 _atom_site_fract_z
 _atom_site_occupancy
  Rb  Rb0  1  0.88371500  0.88371500  0.61535200  1
  Rb  Rb1  1  0.55596100  0.55596100  0.59088400  1
  Rb  Rb2  1  0.22626100  0.22626100  0.60652400  1
  Rb  Rb3  1  0.44403900  0.44403900  0.40911600  1
  Rb  Rb4  1  0.11628500  0.11628500  0.38464800  1
  Rb  Rb5  1  0.77373900  0.77373900  0.39347600  1
  Al  Al0  1  0.33687300  0.33687300  0.20432800  1
  Al  Al1  1  0.99764600  0.99764600  0.19796700  1
  Al  Al2  1  0.00235400  0.00235400  0.80203300  1
  Al  Al3  1  0.66312700  0.66312700  0.79567200  1
  Sb  Sb0  1  0.44620200  0.44620200  0.83274700  1
  Sb  Sb1  1  0.10946200  0.10946200  0.84738200  1
  Sb  Sb2  1  0.77553000  0.77553000  0.84973000  1
  Sb  Sb3  1  0.89053800  0.89053800  0.15261800  1
  Sb  Sb4  1  0.55379800  0.55379800  0.16725300  1
  Sb  Sb5  1  0.22447000  0.22447000  0.15027000  1
  O  O0  1  0.61308000  0.11460200  0.27438600  1
  O  O1  1  0.27334800  0.77328100  0.27646500  1
  O  O2  1  0.99431900  0.40358700  0.30507500  1
  O  O3  1  0.22671900  0.72665200  0.72353500  1
  O  O4  1  0.88539800  0.38692000  0.72561400  1
  O  O5  1  0.59641300  0.00568100  0.69492500  1
  O  O6  1  0.11460200  0.61308000  0.27438600  1
  O  O7  1  0.77328100  0.27334800  0.27646500  1
  O  O8  1  0.40358700  0.99431900  0.30507500  1
  O  O9  1  0.94392600  0.94392600  0.27337800  1
  O  O10  1  0.60439300  0.60439300  0.29052900  1
  O  O11  1  0.28171700  0.28171700  0.25514300  1
  O  O12  1  0.72665200  0.22671900  0.72353500  1
  O  O13  1  0.38692000  0.88539800  0.72561400  1
  O  O14  1  0.00568100  0.59641300  0.69492500  1
  O  O15  1  0.32870600  0.32870600  0.00121900  1
  O  O16  1  0.00000000  0.00000000  0.00000000  1
  O  O17  1  0.67129400  0.67129400  0.99878100  1
  O  O18  1  0.39560700  0.39560700  0.70947100  1
  O  O19  1  0.05607400  0.05607400  0.72662200  1
  O  O20  1  0.71828300  0.71828300  0.74485700  1
loop_
_geom_bond_atom_site_label_1
_geom_bond_atom_site_label_2
_geom_bond_distance
_geom_bond_site_symmetry_2
Al0 O11 1.771026 1_555
Al0 O0 1.777058 1_555
Al0 O6 1.777058 1_555
Al0 O15 1.792278 1_555
Al1 O16 1.729136 1_665
Al1 O1 1.789072 1_655
Al1 O7 1.789072 1_565
Al1 O9 1.793899 1_555
Al2 O16 1.729136 1_556
Al2 O3 1.789072 1_545
Al2 O12 1.789072 1_455
Al2 O19 1.793899 1_555
Al3 O20 1.771026 1_555
Al3 O4 1.777058 1_555
Al3 O13 1.777058 1_555
Al3 O17 1.792278 1_555
O0 Sb3 1.977508 1_545
O0 Rb3 3.117569 1_555
O0 Rb5 3.319031 1_545
O0 Rb0 3.370241 1_545
O1 Sb4 1.971260 1_555
O1 Rb3 3.080029 1_555
O1 Rb1 3.267946 1_555
O1 Rb4 3.373747 1_565
O2 Sb5 1.960530 1_655
O2 Rb4 2.912682 1_655
O2 Rb5 2.990966 1_555
O2 Rb2 3.011150 1_655
O3 Sb0 1.971260 1_555
O3 Rb1 3.080029 1_555
O3 Rb3 3.267946 1_555
O3 Rb0 3.373747 1_455
O4 Sb1 1.977508 1_655
O4 Rb1 3.117569 1_555
O4 Rb2 3.319031 1_655
O4 Rb4 3.370241 1_655
O5 Sb2 1.960530 1_545
O5 Rb0 2.912682 1_545
O5 Rb2 2.990966 1_555
O5 Rb5 3.011150 1_545
O6 Sb3 1.977508 1_455
O6 Rb3 3.117569 1_555
O6 Rb5 3.319031 1_455
O6 Rb0 3.370241 1_455
O7 Sb4 1.971260 1_555
O7 Rb3 3.080029 1_555
O7 Rb1 3.267946 1_555
O7 Rb4 3.373747 1_655
O8 Sb5 1.960530 1_565
O8 Rb4 2.912682 1_565
O8 Rb5 2.990966 1_555
O8 Rb2 3.011150 1_565
O9 Sb3 1.972531 1_555
O9 Rb3 3.122591 1_565
O9 Rb3 3.122591 1_655
O9 Rb0 3.516350 1_555
O10 Sb4 1.911979 1_555
O10 Rb1 3.017453 1_555
O10 Rb4 3.026855 1_655
O10 Rb4 3.026855 1_565
O11 Sb5 2.007538 1_555
O11 Rb5 3.140585 1_455
O11 Rb5 3.140585 1_545
O11 Rb2 3.511671 1_555
O12 Sb0 1.971260 1_555
O12 Rb1 3.080029 1_555
O12 Rb3 3.267946 1_555
O12 Rb0 3.373747 1_545
O13 Sb1 1.977508 1_565
O13 Rb1 3.117569 1_555
O13 Rb2 3.319031 1_565
O13 Rb4 3.370241 1_565
O14 Sb2 1.960530 1_455
O14 Rb0 2.912682 1_455
O14 Rb2 2.990966 1_555
O14 Rb5 3.011150 1_455
O18 Sb0 1.911979 1_555
O18 Rb3 3.017453 1_555
O18 Rb0 3.026855 1_455
O18 Rb0 3.026855 1_545
O19 Sb1 1.972531 1_555
O19 Rb1 3.122591 1_545
O19 Rb1 3.122591 1_455
O19 Rb4 3.516350 1_555
O20 Sb2 2.007538 1_555
O20 Rb2 3.140585 1_655
O20 Rb2 3.140585 1_565
O20 Rb5 3.511671 1_555
