# generated using pymatgen
data_Al11(CoSi)6
_symmetry_space_group_name_H-M   'P 1'
_cell_length_a   21.15028952
_cell_length_b   8.00871658
_cell_length_c   8.24953365
_cell_angle_alpha   61.08078516
_cell_angle_beta   90.00000000
_cell_angle_gamma   90.00000000
_symmetry_Int_Tables_number   1
_chemical_formula_structural   Al11(CoSi)6
_chemical_formula_sum   'Al44 Co24 Si24'
_cell_volume   1223.11350293
_cell_formula_units_Z   4
loop_
 _symmetry_equiv_pos_site_id
 _symmetry_equiv_pos_as_xyz
  1  'x, y, z'
loop_
 _atom_site_type_symbol
 _atom_site_label
 _atom_site_symmetry_multiplicity
 _atom_site_fract_x
 _atom_site_fract_y
 _atom_site_fract_z
 _atom_site_occupancy
  Al  Al0  1  0.77024727  0.84328918  0.55841542  1
  Al  Al1  1  0.22975273  0.15671082  0.44158458  1
  Al  Al2  1  0.27024727  0.15671082  0.94158458  1
  Al  Al3  1  0.72975273  0.84328918  0.05841542  1
  Al  Al4  1  0.20284026  0.96059239  0.81116228  1
  Al  Al5  1  0.79715974  0.03940761  0.18883772  1
  Al  Al6  1  0.70284026  0.03940761  0.68883772  1
  Al  Al7  1  0.29715974  0.96059239  0.31116228  1
  Al  Al8  1  0.46670943  0.59860807  0.55727871  1
  Al  Al9  1  0.53329057  0.40139193  0.44272129  1
  Al  Al10  1  0.96670943  0.40139193  0.94272129  1
  Al  Al11  1  0.03329057  0.59860807  0.05727871  1
  Al  Al12  1  0.20356061  0.47471652  0.81482091  1
  Al  Al13  1  0.79643939  0.52528348  0.18517909  1
  Al  Al14  1  0.70356061  0.52528348  0.68517909  1
  Al  Al15  1  0.29643939  0.47471652  0.31482091  1
  Al  Al16  1  0.93670724  0.77254019  0.69467691  1
  Al  Al17  1  0.06329276  0.22745981  0.30532309  1
  Al  Al18  1  0.43670724  0.22745981  0.80532309  1
  Al  Al19  1  0.56329276  0.77254019  0.19467691  1
  Al  Al20  1  0.33248683  0.58900480  0.60364779  1
  Al  Al21  1  0.66751317  0.41099520  0.39635221  1
  Al  Al22  1  0.83248683  0.41099520  0.89635221  1
  Al  Al23  1  0.16751317  0.58900480  0.10364779  1
  Al  Al24  1  0.28204768  0.65564947  0.92842712  1
  Al  Al25  1  0.71795232  0.34435053  0.07157288  1
  Al  Al26  1  0.78204768  0.34435053  0.57157288  1
  Al  Al27  1  0.21795232  0.65564947  0.42842712  1
  Al  Al28  1  0.96331685  0.90967842  0.93471725  1
  Al  Al29  1  0.03668315  0.09032158  0.06528275  1
  Al  Al30  1  0.46331685  0.09032158  0.56528275  1
  Al  Al31  1  0.53668315  0.90967842  0.43471725  1
  Al  Al32  1  0.11996359  0.23388674  0.78583750  1
  Al  Al33  1  0.88003641  0.76611326  0.21416250  1
  Al  Al34  1  0.61996359  0.76611326  0.71416250  1
  Al  Al35  1  0.38003641  0.23388674  0.28583750  1
  Al  Al36  1  0.11588663  0.74143375  0.76296465  1
  Al  Al37  1  0.88411337  0.25856625  0.23703535  1
  Al  Al38  1  0.61588663  0.25856625  0.73703535  1
  Al  Al39  1  0.38411337  0.74143375  0.26296465  1
  Al  Al40  1  0.43239815  0.71512082  0.80805944  1
  Al  Al41  1  0.56760185  0.28487918  0.19194056  1
  Al  Al42  1  0.93239815  0.28487918  0.69194056  1
  Al  Al43  1  0.06760185  0.71512082  0.30805944  1
  Co  Co0  1  0.08900353  0.88942336  0.96265492  1
  Co  Co1  1  0.91099647  0.11057664  0.03734508  1
  Co  Co2  1  0.58900353  0.11057664  0.53734508  1
  Co  Co3  1  0.41099647  0.88942336  0.46265492  1
  Co  Co4  1  0.08835538  0.39816148  0.96389298  1
  Co  Co5  1  0.91164462  0.60183852  0.03610702  1
  Co  Co6  1  0.58835538  0.60183852  0.53610702  1
  Co  Co7  1  0.41164462  0.39816148  0.46389298  1
  Co  Co8  1  0.95879502  0.62661424  0.49914183  1
  Co  Co9  1  0.04120498  0.37338576  0.50085817  1
  Co  Co10  1  0.45879502  0.37338576  0.00085817  1
  Co  Co11  1  0.54120498  0.62661424  0.99914183  1
  Co  Co12  1  0.22935522  0.81095531  0.61832197  1
  Co  Co13  1  0.77064478  0.18904469  0.38167803  1
  Co  Co14  1  0.72935522  0.18904469  0.88167803  1
  Co  Co15  1  0.27064478  0.81095531  0.11832197  1
  Co  Co16  1  0.22638739  0.31247957  0.62938749  1
  Co  Co17  1  0.77361261  0.68752043  0.37061251  1
  Co  Co18  1  0.72638739  0.68752043  0.87061251  1
  Co  Co19  1  0.27361261  0.31247957  0.12938749  1
  Co  Co20  1  0.45684239  0.88098420  0.98959755  1
  Co  Co21  1  0.54315761  0.11901580  0.01040245  1
  Co  Co22  1  0.95684239  0.11901580  0.51040245  1
  Co  Co23  1  0.04315761  0.88098420  0.48959755  1
  Si  Si0  1  0.35636640  0.39998236  0.93631034  1
  Si  Si1  1  0.64363360  0.60001764  0.06368966  1
  Si  Si2  1  0.85636640  0.60001764  0.56368966  1
  Si  Si3  1  0.14363360  0.39998236  0.43631034  1
  Si  Si4  1  0.32967181  0.91305788  0.62983349  1
  Si  Si5  1  0.67032819  0.08694212  0.37016651  1
  Si  Si6  1  0.82967181  0.08694212  0.87016651  1
  Si  Si7  1  0.17032819  0.91305788  0.12983349  1
  Si  Si8  1  0.35437870  0.91996921  0.92247831  1
  Si  Si9  1  0.64562130  0.08003079  0.07752169  1
  Si  Si10  1  0.85437870  0.08003079  0.57752169  1
  Si  Si11  1  0.14562130  0.91996921  0.42247831  1
  Si  Si12  1  0.82920959  0.77746660  0.85825326  1
  Si  Si13  1  0.17079041  0.22253340  0.14174674  1
  Si  Si14  1  0.32920959  0.22253340  0.64174674  1
  Si  Si15  1  0.67079041  0.77746660  0.35825326  1
  Si  Si16  1  0.95368446  0.96139268  0.32437917  1
  Si  Si17  1  0.04631554  0.03860732  0.67562083  1
  Si  Si18  1  0.45368446  0.03860732  0.17562083  1
  Si  Si19  1  0.54631554  0.96139268  0.82437917  1
  Si  Si20  1  0.04579102  0.53522285  0.67554918  1
  Si  Si21  1  0.95420898  0.46477715  0.32445082  1
  Si  Si22  1  0.54579102  0.46477715  0.82445082  1
  Si  Si23  1  0.45420898  0.53522285  0.17554918  1
loop_
_geom_bond_atom_site_label_1
_geom_bond_atom_site_label_2
_geom_bond_distance
_geom_bond_site_symmetry_2
Al0 Co17 2.414724 1_555
Al0 Co13 2.426695 1_565
Al0 Co18 2.437727 1_555
Al0 Si12 2.586560 1_555
Al0 Al14 2.644499 1_555
Al0 Si2 2.652058 1_555
Al0 Si10 2.659878 1_565
Al0 Al6 2.700283 1_565
Al0 Al5 2.730388 1_565
Al0 Si5 2.784733 1_565
Al0 Si15 2.875979 1_555
Al1 Co16 2.414724 1_555
Al1 Co12 2.426695 1_545
Al1 Co19 2.437727 1_555
Al1 Si13 2.586560 1_555
Al1 Al15 2.644499 1_555
Al1 Si3 2.652058 1_555
Al1 Si11 2.659878 1_545
Al1 Al7 2.700283 1_545
Al1 Al4 2.730388 1_545
Al1 Si4 2.784733 1_545
Al1 Si14 2.875979 1_555
Al2 Co19 2.414724 1_556
Al2 Co15 2.426695 1_546
Al2 Co16 2.437727 1_555
Al2 Si14 2.586560 1_555
Al2 Si0 2.652058 1_555
Al2 Si8 2.659878 1_545
Al2 Al4 2.700283 1_545
Al2 Al7 2.730388 1_546
Al2 Si7 2.784733 1_546
Al2 Si13 2.875979 1_556
Al3 Co18 2.414724 1_554
Al3 Co14 2.426695 1_564
Al3 Co17 2.437727 1_555
Al3 Si15 2.586560 1_555
Al3 Si1 2.652058 1_555
Al3 Si9 2.659878 1_565
Al3 Al5 2.700283 1_565
Al3 Al6 2.730388 1_564
Al3 Si6 2.784733 1_564
Al3 Si12 2.875979 1_554
Al4 Co12 2.474931 1_555
Al4 Co16 2.520233 1_565
Al4 Si7 2.561428 1_556
Al4 Co15 2.641331 1_556
Al4 Co0 2.644755 1_555
Al5 Co13 2.474931 1_555
Al5 Co17 2.520233 1_545
Al5 Si6 2.561428 1_554
Al5 Co14 2.641331 1_554
Al5 Co1 2.644755 1_555
Al6 Co14 2.474931 1_555
Al6 Co18 2.520233 1_545
Al6 Si5 2.561428 1_555
Al6 Co13 2.641331 1_555
Al6 Co2 2.644755 1_555
Al7 Co15 2.474931 1_555
Al7 Co19 2.520233 1_565
Al7 Si4 2.561428 1_555
Al7 Co12 2.641331 1_555
Al7 Co3 2.644755 1_555
Al8 Co3 2.379915 1_555
Al8 Co7 2.392285 1_555
Al8 Si22 2.553323 1_555
Al8 Co6 2.578051 1_555
Al9 Co2 2.379915 1_555
Al9 Co6 2.392285 1_555
Al9 Si23 2.553323 1_555
Al9 Co7 2.578051 1_555
Al10 Co1 2.379915 1_556
Al10 Co5 2.392285 1_556
Al10 Si20 2.553323 1_655
Al10 Co4 2.578051 1_655
Al10 Al16 2.746373 1_555
Al10 Al42 2.746710 1_555
Al10 Al37 2.751205 1_556
Al11 Co0 2.379915 1_554
Al11 Co4 2.392285 1_554
Al11 Si21 2.553323 1_455
Al11 Co5 2.578051 1_455
Al11 Al17 2.746373 1_555
Al11 Al43 2.746710 1_555
Al11 Al36 2.751205 1_554
Al12 Co12 2.440283 1_555
Al12 Co16 2.486707 1_555
Al12 Si13 2.562241 1_556
Al12 Al2 2.644499 1_555
Al12 Co4 2.663863 1_555
Al12 Al36 2.701951 1_555
Al12 Co19 2.712302 1_556
Al13 Co13 2.440283 1_555
Al13 Co17 2.486707 1_555
Al13 Si12 2.562241 1_554
Al13 Al3 2.644499 1_555
Al13 Co5 2.663863 1_555
Al13 Al37 2.701951 1_555
Al13 Co18 2.712302 1_554
Al14 Co14 2.440283 1_555
Al14 Co18 2.486707 1_555
Al14 Si15 2.562241 1_555
Al14 Co6 2.663863 1_555
Al14 Al38 2.701951 1_555
Al14 Co17 2.712302 1_555
Al15 Co15 2.440283 1_555
Al15 Co19 2.486707 1_555
Al15 Si14 2.562241 1_555
Al15 Co7 2.663863 1_555
Al15 Al39 2.701951 1_555
Al15 Co16 2.712302 1_555
Al16 Co8 2.451387 1_555
Al16 Co22 2.472304 1_565
Al16 Co5 2.521758 1_556
Al16 Si12 2.653920 1_555
Al16 Co23 2.695272 1_655
Al16 Si16 2.698092 1_555
Al16 Si2 2.721780 1_555
Al16 Al28 2.747312 1_555
Al16 Si10 2.780047 1_565
Al17 Co9 2.451387 1_555
Al17 Co23 2.472304 1_545
Al17 Co4 2.521758 1_554
Al17 Si13 2.653920 1_555
Al17 Co22 2.695272 1_455
Al17 Si17 2.698092 1_555
Al17 Si3 2.721780 1_555
Al17 Al29 2.747312 1_555
Al17 Si11 2.780047 1_545
Al18 Co10 2.451387 1_556
Al18 Co20 2.472304 1_545
Al18 Co7 2.521758 1_555
Al18 Si14 2.653920 1_555
Al18 Co21 2.695272 1_556
Al18 Si18 2.698092 1_556
Al18 Si0 2.721780 1_555
Al18 Al8 2.746373 1_555
Al18 Al30 2.747312 1_555
Al18 Si8 2.780047 1_545
Al19 Co11 2.451387 1_554
Al19 Co21 2.472304 1_565
Al19 Co6 2.521758 1_555
Al19 Si15 2.653920 1_555
Al19 Co20 2.695272 1_554
Al19 Si19 2.698092 1_554
Al19 Si1 2.721780 1_555
Al19 Al9 2.746373 1_555
Al19 Al31 2.747312 1_555
Al19 Si9 2.780047 1_565
Al20 Si0 2.461717 1_555
Al20 Co3 2.681844 1_555
Al20 Al39 2.695014 1_555
Al20 Si4 2.706979 1_555
Al20 Si14 2.797402 1_555
Al20 Co12 2.853125 1_555
Al20 Co7 2.858752 1_555
Al20 Co16 3.087147 1_555
Al21 Si1 2.461717 1_555
Al21 Co2 2.681844 1_555
Al21 Al38 2.695014 1_555
Al21 Si5 2.706979 1_555
Al21 Si15 2.797402 1_555
Al21 Co13 2.853125 1_555
Al21 Co6 2.858752 1_555
Al21 Co17 3.087147 1_555
Al22 Si2 2.461717 1_555
Al22 Co1 2.681844 1_556
Al22 Al37 2.695014 1_556
Al22 Si6 2.706979 1_555
Al22 Si12 2.797402 1_555
Al22 Co14 2.853125 1_555
Al22 Co5 2.858752 1_556
Al22 Co18 3.087147 1_555
Al23 Si3 2.461717 1_555
Al23 Co0 2.681844 1_554
Al23 Al36 2.695014 1_554
Al23 Si7 2.706979 1_555
Al23 Si13 2.797402 1_555
Al23 Co15 2.853125 1_555
Al23 Co4 2.858752 1_554
Al23 Co19 3.087147 1_555
Al24 Co19 2.434548 1_556
Al24 Co15 2.437976 1_556
Al24 Co12 2.501233 1_555
Al24 Si4 2.533934 1_555
Al24 Si0 2.557092 1_555
Al24 Si8 2.592951 1_555
Al25 Co18 2.434548 1_554
Al25 Co14 2.437976 1_554
Al25 Co13 2.501233 1_555
Al25 Si5 2.533934 1_555
Al25 Si1 2.557092 1_555
Al25 Si9 2.592951 1_555
Al26 Co17 2.434548 1_555
Al26 Co13 2.437976 1_555
Al26 Co14 2.501233 1_555
Al26 Si6 2.533934 1_555
Al26 Si2 2.557092 1_555
Al26 Si10 2.592951 1_555
Al27 Co16 2.434548 1_555
Al27 Co12 2.437976 1_555
Al27 Co15 2.501233 1_555
Al27 Si7 2.533934 1_555
Al27 Si3 2.557092 1_555
Al27 Si11 2.592951 1_555
Al28 Co1 2.418148 1_566
Al28 Co5 2.444959 1_556
Al28 Si17 2.565508 1_665
Al28 Co0 2.666437 1_655
Al28 Al42 2.765437 1_565
Al29 Co0 2.418148 1_544
Al29 Co4 2.444959 1_554
Al29 Si16 2.565508 1_445
Al29 Co1 2.666437 1_455
Al29 Al43 2.765437 1_545
Al30 Co3 2.418148 1_545
Al30 Co7 2.444959 1_555
Al30 Si19 2.565508 1_545
Al30 Co2 2.666437 1_555
Al30 Al40 2.765437 1_545
Al31 Co2 2.418148 1_565
Al31 Co6 2.444959 1_555
Al31 Si18 2.565508 1_565
Al31 Co3 2.666437 1_555
Al31 Al41 2.765437 1_565
Al32 Co4 2.490866 1_555
Al32 Co0 2.505017 1_545
Al32 Co16 2.518487 1_555
Al32 Si3 2.573850 1_555
Al32 Si20 2.643737 1_555
Al32 Co9 2.647577 1_555
Al32 Si17 2.659746 1_555
Al32 Si7 2.955974 1_546
Al33 Co5 2.490866 1_555
Al33 Co1 2.505017 1_565
Al33 Co17 2.518487 1_555
Al33 Si2 2.573850 1_555
Al33 Si21 2.643737 1_555
Al33 Co8 2.647577 1_555
Al33 Si16 2.659746 1_555
Al33 Si6 2.955974 1_564
Al34 Co6 2.490866 1_555
Al34 Co2 2.505017 1_565
Al34 Co18 2.518487 1_555
Al34 Si1 2.573850 1_556
Al34 Si22 2.643737 1_555
Al34 Co11 2.647577 1_555
Al34 Si19 2.659746 1_555
Al34 Si5 2.955974 1_565
Al35 Co7 2.490866 1_555
Al35 Co3 2.505017 1_545
Al35 Co19 2.518487 1_555
Al35 Si0 2.573850 1_554
Al35 Si23 2.643737 1_555
Al35 Co10 2.647577 1_555
Al35 Si18 2.659746 1_555
Al35 Si4 2.955974 1_545
Al36 Co4 2.497455 1_555
Al36 Co23 2.502669 1_555
Al36 Co0 2.515967 1_555
Al36 Si11 2.538765 1_555
Al36 Si20 2.568501 1_555
Al36 Si17 2.586522 1_565
Al36 Co12 2.617395 1_555
Al36 Al4 2.701104 1_555
Al37 Co5 2.497455 1_555
Al37 Co22 2.502669 1_555
Al37 Co1 2.515967 1_555
Al37 Si10 2.538765 1_555
Al37 Si21 2.568501 1_555
Al37 Si16 2.586522 1_545
Al37 Co13 2.617395 1_555
Al37 Al5 2.701104 1_555
Al38 Co6 2.497455 1_555
Al38 Co21 2.502669 1_556
Al38 Co2 2.515967 1_555
Al38 Si9 2.538765 1_556
Al38 Si22 2.568501 1_555
Al38 Si19 2.586522 1_545
Al38 Co14 2.617395 1_555
Al38 Al6 2.701104 1_555
Al38 Al9 2.751205 1_555
Al39 Co7 2.497455 1_555
Al39 Co20 2.502669 1_554
Al39 Co3 2.515967 1_555
Al39 Si8 2.538765 1_554
Al39 Si23 2.568501 1_555
Al39 Si18 2.586522 1_565
Al39 Co15 2.617395 1_555
Al39 Al7 2.701104 1_555
Al39 Al8 2.751205 1_555
Al40 Co10 2.474227 1_556
Al40 Co20 2.489706 1_555
Al40 Co3 2.534916 1_555
Al40 Si4 2.672280 1_555
Al40 Co11 2.683766 1_555
Al40 Si23 2.693501 1_556
Al40 Si0 2.737269 1_555
Al40 Al8 2.746710 1_555
Al40 Si8 2.793393 1_555
Al41 Co11 2.474227 1_554
Al41 Co21 2.489706 1_555
Al41 Co2 2.534916 1_555
Al41 Si5 2.672280 1_555
Al41 Co10 2.683766 1_555
Al41 Si22 2.693501 1_554
Al41 Si1 2.737269 1_555
Al41 Al9 2.746710 1_555
Al41 Si9 2.793393 1_555
Al42 Co8 2.474227 1_555
Al42 Co22 2.489706 1_555
Al42 Co1 2.534916 1_556
Al42 Si6 2.672280 1_555
Al42 Co9 2.683766 1_655
Al42 Si21 2.693501 1_555
Al42 Si2 2.737269 1_555
Al42 Si10 2.793393 1_555
Al43 Co9 2.474227 1_555
Al43 Co23 2.489706 1_555
Al43 Co0 2.534916 1_554
Al43 Si7 2.672280 1_555
Al43 Co8 2.683766 1_455
Al43 Si20 2.693501 1_555
Al43 Si3 2.737269 1_555
Al43 Si11 2.793393 1_555
Co0 Si17 2.261286 1_565
Co0 Si7 2.269114 1_556
Co1 Si16 2.261286 1_545
Co1 Si6 2.269114 1_554
Co2 Si19 2.261286 1_545
Co2 Si5 2.269114 1_555
Co3 Si18 2.261286 1_565
Co3 Si4 2.269114 1_555
Co4 Si20 2.268983 1_555
Co4 Si13 2.274876 1_556
Co5 Si21 2.268983 1_555
Co5 Si12 2.274876 1_554
Co6 Si22 2.268983 1_555
Co6 Si15 2.274876 1_555
Co7 Si23 2.268983 1_555
Co7 Si14 2.274876 1_555
Co8 Si2 2.216413 1_555
Co8 Si20 2.238068 1_655
Co8 Si16 2.353782 1_555
Co8 Si21 2.360639 1_555
Co9 Si3 2.216413 1_555
Co9 Si21 2.238068 1_455
Co9 Si17 2.353782 1_555
Co9 Si20 2.360639 1_555
Co10 Si0 2.216413 1_554
Co10 Si22 2.238068 1_554
Co10 Si18 2.353782 1_555
Co10 Si23 2.360639 1_555
Co11 Si1 2.216413 1_556
Co11 Si23 2.238068 1_556
Co11 Si19 2.353782 1_555
Co11 Si22 2.360639 1_555
Co12 Si11 2.268191 1_555
Co12 Si4 2.292267 1_555
Co13 Si10 2.268191 1_555
Co13 Si5 2.292267 1_555
Co14 Si9 2.268191 1_556
Co14 Si6 2.292267 1_555
Co15 Si8 2.268191 1_554
Co15 Si7 2.292267 1_555
Co16 Si3 2.238748 1_555
Co16 Si14 2.277647 1_555
Co17 Si2 2.238748 1_555
Co17 Si15 2.277647 1_555
Co18 Si1 2.238748 1_556
Co18 Si12 2.277647 1_555
Co19 Si0 2.238748 1_554
Co19 Si13 2.277647 1_555
Co20 Si8 2.221115 1_555
Co20 Si19 2.237102 1_555
Co20 Si18 2.413838 1_566
Co20 Si23 2.432269 1_556
Co21 Si9 2.221115 1_555
Co21 Si18 2.237102 1_555
Co21 Si19 2.413838 1_544
Co21 Si22 2.432269 1_554
Co22 Si10 2.221115 1_555
Co22 Si17 2.237102 1_655
Co22 Si16 2.413838 1_545
Co22 Si21 2.432269 1_555
Co23 Si11 2.221115 1_555
Co23 Si16 2.237102 1_455
Co23 Si17 2.413838 1_565
Co23 Si20 2.432269 1_555
Si4 Si8 2.496728 1_555
Si5 Si9 2.496728 1_555
Si10 Si12 2.467996 1_545
Si10 Si6 2.496728 1_555
Si11 Si13 2.467996 1_565
Si11 Si7 2.496728 1_555
Si12 Si6 2.527510 1_565
Si13 Si7 2.527510 1_545
Si14 Si8 2.467996 1_545
Si14 Si4 2.527510 1_545
Si15 Si9 2.467996 1_565
Si15 Si5 2.527510 1_565
