# generated using pymatgen
data_Tc3N
_symmetry_space_group_name_H-M   'P 1'
_cell_length_a   5.59561260
_cell_length_b   5.59556120
_cell_length_c   14.07868048
_cell_angle_alpha   90.00000000
_cell_angle_beta   90.00000000
_cell_angle_gamma   120.00033999
_symmetry_Int_Tables_number   1
_chemical_formula_structural   Tc3N
_chemical_formula_sum   'Tc24 N8'
_cell_volume   381.75293642
_cell_formula_units_Z   8
loop_
 _symmetry_equiv_pos_site_id
 _symmetry_equiv_pos_as_xyz
  1  'x, y, z'
loop_
 _atom_site_type_symbol
 _atom_site_label
 _atom_site_symmetry_multiplicity
 _atom_site_fract_x
 _atom_site_fract_y
 _atom_site_fract_z
 _atom_site_occupancy
  Tc  Tc0_0  1  0.33334596  0.16669141  0.25000000  1
  Tc  Tc0_1  1  0.33334596  0.16669141  0.75000000  1
  Tc  Tc0_2  1  0.33334596  0.66669141  0.25000000  1
  Tc  Tc0_3  1  0.33334596  0.66669141  0.75000000  1
  Tc  Tc0_4  1  0.83334596  0.16669141  0.25000000  1
  Tc  Tc0_5  1  0.83334596  0.16669141  0.75000000  1
  Tc  Tc0_6  1  0.83334595  0.66669141  0.25000000  1
  Tc  Tc0_7  1  0.83334595  0.66669141  0.75000000  1
  Tc  Tc1_0  1  0.16666456  0.33332912  0.40166317  1
  Tc  Tc1_1  1  0.16666456  0.33332912  0.90166317  1
  Tc  Tc1_2  1  0.16666456  0.83332912  0.40166317  1
  Tc  Tc1_3  1  0.16666456  0.83332912  0.90166317  1
  Tc  Tc1_4  1  0.66666456  0.33332912  0.40166317  1
  Tc  Tc1_5  1  0.66666456  0.33332912  0.90166317  1
  Tc  Tc1_6  1  0.66666456  0.83332912  0.40166317  1
  Tc  Tc1_7  1  0.66666456  0.83332912  0.90166317  1
  Tc  Tc2_0  1  0.16666456  0.33332912  0.09833683  1
  Tc  Tc2_1  1  0.16666456  0.33332912  0.59833683  1
  Tc  Tc2_2  1  0.16666456  0.83332912  0.09833683  1
  Tc  Tc2_3  1  0.16666456  0.83332912  0.59833683  1
  Tc  Tc2_4  1  0.66666456  0.33332912  0.09833683  1
  Tc  Tc2_5  1  0.66666456  0.33332912  0.59833683  1
  Tc  Tc2_6  1  0.66666456  0.83332912  0.09833683  1
  Tc  Tc2_7  1  0.66666456  0.83332912  0.59833683  1
  N  N0_0  1  0.33332492  0.16664984  0.00000000  1
  N  N0_1  1  0.33332492  0.16664984  0.50000000  1
  N  N0_2  1  0.33332492  0.66664985  0.00000000  1
  N  N0_3  1  0.33332492  0.66664985  0.50000000  1
  N  N0_4  1  0.83332492  0.16664984  0.00000000  1
  N  N0_5  1  0.83332492  0.16664984  0.50000000  1
  N  N0_6  1  0.83332492  0.66664985  0.00000000  1
  N  N0_7  1  0.83332492  0.66664985  0.50000000  1
loop_
_geom_bond_atom_site_label_1
_geom_bond_atom_site_label_2
_geom_bond_distance
_geom_bond_site_symmetry_2
Tc0_0 Tc2_4 2.677339 1_555
Tc0_0 Tc1_4 2.677339 1_555
Tc0_0 Tc2_0 2.677341 1_555
Tc0_0 Tc1_0 2.677341 1_555
Tc0_0 Tc2_2 2.677458 1_545
Tc0_0 Tc1_2 2.677458 1_545
Tc0_0 Tc0_6 2.797779 1_445
Tc0_0 Tc0_6 2.797779 1_555
Tc0_0 Tc0_2 2.797781 1_555
Tc0_0 Tc0_2 2.797781 1_545
Tc0_0 Tc0_4 2.797806 1_455
Tc0_0 Tc0_4 2.797806 1_555
Tc0_1 Tc2_5 2.677339 1_555
Tc0_1 Tc1_5 2.677339 1_555
Tc0_1 Tc2_1 2.677341 1_555
Tc0_1 Tc1_1 2.677341 1_555
Tc0_1 Tc2_3 2.677458 1_545
Tc0_1 Tc1_3 2.677458 1_545
Tc0_1 Tc0_7 2.797779 1_555
Tc0_1 Tc0_7 2.797779 1_445
Tc0_1 Tc0_3 2.797781 1_555
Tc0_1 Tc0_3 2.797781 1_545
Tc0_1 Tc0_5 2.797806 1_455
Tc0_1 Tc0_5 2.797806 1_555
Tc0_2 Tc2_6 2.677339 1_555
Tc0_2 Tc1_6 2.677339 1_555
Tc0_2 Tc2_2 2.677341 1_555
Tc0_2 Tc1_2 2.677341 1_555
Tc0_2 Tc2_0 2.677458 1_555
Tc0_2 Tc1_0 2.677458 1_555
Tc0_2 Tc0_4 2.797779 1_565
Tc0_2 Tc0_4 2.797779 1_455
Tc0_2 Tc0_6 2.797806 1_555
Tc0_2 Tc0_6 2.797806 1_455
Tc0_3 Tc2_7 2.677339 1_555
Tc0_3 Tc1_7 2.677339 1_555
Tc0_3 Tc2_3 2.677341 1_555
Tc0_3 Tc1_3 2.677341 1_555
Tc0_3 Tc2_1 2.677458 1_555
Tc0_3 Tc1_1 2.677458 1_555
Tc0_3 Tc0_5 2.797779 1_565
Tc0_3 Tc0_5 2.797779 1_455
Tc0_3 Tc0_7 2.797806 1_555
Tc0_3 Tc0_7 2.797806 1_455
Tc0_4 Tc2_0 2.677339 1_655
Tc0_4 Tc1_0 2.677339 1_655
Tc0_4 Tc2_4 2.677341 1_555
Tc0_4 Tc1_4 2.677341 1_555
Tc0_4 Tc2_6 2.677458 1_545
Tc0_4 Tc1_6 2.677458 1_545
Tc0_4 Tc0_6 2.797781 1_545
Tc0_4 Tc0_6 2.797781 1_555
Tc0_5 Tc2_1 2.677339 1_655
Tc0_5 Tc1_1 2.677339 1_655
Tc0_5 Tc2_5 2.677341 1_555
Tc0_5 Tc1_5 2.677341 1_555
Tc0_5 Tc2_7 2.677458 1_545
Tc0_5 Tc1_7 2.677458 1_545
Tc0_5 Tc0_7 2.797781 1_545
Tc0_5 Tc0_7 2.797781 1_555
Tc0_6 Tc2_2 2.677339 1_655
Tc0_6 Tc1_2 2.677339 1_655
Tc0_6 Tc2_6 2.677341 1_555
Tc0_6 Tc1_6 2.677341 1_555
Tc0_6 Tc2_4 2.677458 1_555
Tc0_6 Tc1_4 2.677458 1_555
Tc0_7 Tc2_3 2.677339 1_655
Tc0_7 Tc1_3 2.677339 1_655
Tc0_7 Tc2_7 2.677341 1_555
Tc0_7 Tc1_7 2.677341 1_555
Tc0_7 Tc2_5 2.677458 1_555
Tc0_7 Tc1_5 2.677458 1_555
N0_0 Tc1_3 2.127366 1_544
N0_0 Tc2_2 2.127366 1_545
N0_0 Tc1_5 2.127447 1_554
N0_0 Tc2_4 2.127447 1_555
N0_0 Tc1_1 2.127448 1_554
N0_0 Tc2_0 2.127448 1_555
N0_1 Tc1_2 2.127366 1_545
N0_1 Tc2_3 2.127366 1_545
N0_1 Tc1_4 2.127447 1_555
N0_1 Tc2_5 2.127447 1_555
N0_1 Tc1_0 2.127448 1_555
N0_1 Tc2_1 2.127448 1_555
N0_2 Tc1_1 2.127366 1_554
N0_2 Tc2_0 2.127366 1_555
N0_2 Tc1_7 2.127447 1_554
N0_2 Tc2_6 2.127447 1_555
N0_2 Tc1_3 2.127448 1_554
N0_2 Tc2_2 2.127448 1_555
N0_3 Tc1_0 2.127366 1_555
N0_3 Tc2_1 2.127366 1_555
N0_3 Tc1_6 2.127447 1_555
N0_3 Tc2_7 2.127447 1_555
N0_3 Tc1_2 2.127448 1_555
N0_3 Tc2_3 2.127448 1_555
N0_4 Tc1_7 2.127366 1_544
N0_4 Tc2_6 2.127366 1_545
N0_4 Tc1_1 2.127447 1_654
N0_4 Tc2_0 2.127447 1_655
N0_4 Tc1_5 2.127448 1_554
N0_4 Tc2_4 2.127448 1_555
N0_5 Tc1_6 2.127366 1_545
N0_5 Tc2_7 2.127366 1_545
N0_5 Tc1_0 2.127447 1_655
N0_5 Tc2_1 2.127447 1_655
N0_5 Tc1_4 2.127448 1_555
N0_5 Tc2_5 2.127448 1_555
N0_6 Tc1_5 2.127366 1_554
N0_6 Tc2_4 2.127366 1_555
N0_6 Tc1_3 2.127447 1_654
N0_6 Tc2_2 2.127447 1_655
N0_6 Tc1_7 2.127448 1_554
N0_6 Tc2_6 2.127448 1_555
N0_7 Tc1_4 2.127366 1_555
N0_7 Tc2_5 2.127366 1_555
N0_7 Tc1_2 2.127447 1_655
N0_7 Tc2_3 2.127447 1_655
N0_7 Tc1_6 2.127448 1_555
N0_7 Tc2_7 2.127448 1_555
