# generated using pymatgen
data_U8TiSe17
_symmetry_space_group_name_H-M   'P 1'
_cell_length_a   8.28685793
_cell_length_b   8.28685793
_cell_length_c   10.93963138
_cell_angle_alpha   80.75422091
_cell_angle_beta   80.75422091
_cell_angle_gamma   65.11452322
_symmetry_Int_Tables_number   1
_chemical_formula_structural   U8TiSe17
_chemical_formula_sum   'U8 Ti1 Se17'
_cell_volume   668.99708981
_cell_formula_units_Z   1
loop_
 _symmetry_equiv_pos_site_id
 _symmetry_equiv_pos_as_xyz
  1  'x, y, z'
loop_
 _atom_site_type_symbol
 _atom_site_label
 _atom_site_symmetry_multiplicity
 _atom_site_fract_x
 _atom_site_fract_y
 _atom_site_fract_z
 _atom_site_occupancy
  U  U0  1  0.18314491  0.69906800  0.70126696  1
  U  U1  1  0.69906800  0.18314491  0.70126696  1
  U  U2  1  0.81685509  0.30093200  0.29873304  1
  U  U3  1  0.30093200  0.81685509  0.29873304  1
  U  U4  1  0.20489905  0.20489905  0.53966512  1
  U  U5  1  0.79510095  0.79510095  0.46033488  1
  U  U6  1  0.67839003  0.67839003  0.98450191  1
  U  U7  1  0.32160997  0.32160997  0.01549809  1
  Ti  Ti0  1  0.00000000  0.00000000  -0.00000000  1
  Se  Se0  1  0.82212883  0.43248374  0.53454266  1
  Se  Se1  1  0.43248374  0.82212883  0.53454266  1
  Se  Se2  1  0.17787117  0.56751626  0.46545734  1
  Se  Se3  1  0.56751626  0.17787117  0.46545734  1
  Se  Se4  1  0.05784264  0.67657149  0.97440008  1
  Se  Se5  1  0.67657149  0.05784264  0.97440008  1
  Se  Se6  1  0.94215736  0.32342851  0.02559992  1
  Se  Se7  1  0.32342851  0.94215736  0.02559992  1
  Se  Se8  1  0.05947934  0.05947934  0.77260567  1
  Se  Se9  1  0.94052066  0.94052066  0.22739433  1
  Se  Se10  1  0.21132869  0.21132869  0.27437185  1
  Se  Se11  1  0.78867131  0.78867131  0.72562815  1
  Se  Se12  1  0.30232412  0.30232412  0.75440159  1
  Se  Se13  1  0.69767588  0.69767588  0.24559841  1
  Se  Se14  1  0.52008048  0.52008048  0.83228298  1
  Se  Se15  1  0.47991952  0.47991952  0.16771702  1
  Se  Se16  1  0.00000000  0.00000000  0.50000000  1
loop_
_geom_bond_atom_site_label_1
_geom_bond_atom_site_label_2
_geom_bond_distance
_geom_bond_site_symmetry_2
Se0 U5 2.906383 1_555
Se0 U1 2.932678 1_555
Se0 U4 2.934247 1_655
Se0 U2 2.970697 1_555
Se1 U5 2.906383 1_555
Se1 U0 2.932678 1_555
Se1 U4 2.934247 1_565
Se1 U3 2.970697 1_555
Se2 U4 2.906383 1_555
Se2 U3 2.932678 1_555
Se2 U5 2.934247 1_455
Se2 U0 2.970697 1_555
Se3 U4 2.906383 1_555
Se3 U2 2.932678 1_555
Se3 U5 2.934247 1_545
Se3 U1 2.970697 1_555
Se4 Ti0 2.570706 1_566
Se4 U7 2.848157 1_556
Se4 U0 3.004643 1_555
Se4 U6 3.122358 1_455
Se5 Ti0 2.570706 1_656
Se5 U7 2.848157 1_556
Se5 U1 3.004643 1_555
Se5 U6 3.122358 1_545
Se6 Ti0 2.570706 1_655
Se6 U6 2.848157 1_554
Se6 U2 3.004643 1_555
Se6 U7 3.122358 1_655
Se7 Ti0 2.570706 1_565
Se7 U6 2.848157 1_554
Se7 U3 3.004643 1_555
Se7 U7 3.122358 1_565
Se8 Ti0 2.467905 1_556
Se8 U1 2.914713 1_455
Se8 U0 2.914713 1_545
Se8 U4 2.940537 1_555
Se9 Ti0 2.467905 1_665
Se9 U3 2.914713 1_655
Se9 U2 2.914713 1_565
Se9 U5 2.940537 1_555
Se10 U4 2.886436 1_555
Se10 U7 2.954671 1_555
Se10 U3 3.008188 1_545
Se10 U2 3.008188 1_455
Se11 U5 2.886436 1_555
Se11 U6 2.954671 1_555
Se11 U1 3.008188 1_565
Se11 U0 3.008188 1_655
Se12 U7 2.919658 1_556
Se12 U4 2.930790 1_555
Se12 U1 2.993366 1_555
Se12 U0 2.993366 1_555
Se13 U6 2.919658 1_554
Se13 U5 2.930790 1_555
Se13 U2 2.993366 1_555
Se13 U3 2.993366 1_555
Se14 U6 3.011229 1_555
Se14 U0 3.027814 1_555
Se14 U1 3.027814 1_555
Se14 U7 3.096014 1_556
Se15 U7 3.011229 1_555
Se15 U3 3.027814 1_555
Se15 U2 3.027814 1_555
Se15 U6 3.096014 1_554
Se16 U5 2.975644 1_445
Se16 U4 2.975644 1_555
Se16 U1 3.081278 1_455
Se16 U3 3.081278 1_545
Se16 U0 3.081278 1_545
Se16 U2 3.081278 1_455
