# generated using pymatgen
data_Sr2DyBiO6
_symmetry_space_group_name_H-M   'P 1'
_cell_length_a   8.45606459
_cell_length_b   8.45606459
_cell_length_c   8.45606459
_cell_angle_alpha   90.00000000
_cell_angle_beta   90.00000000
_cell_angle_gamma   90.00000000
_symmetry_Int_Tables_number   1
_chemical_formula_structural   Sr2DyBiO6
_chemical_formula_sum   'Sr8 Dy4 Bi4 O24'
_cell_volume   604.65113824
_cell_formula_units_Z   4
loop_
 _symmetry_equiv_pos_site_id
 _symmetry_equiv_pos_as_xyz
  1  'x, y, z'
loop_
 _atom_site_type_symbol
 _atom_site_label
 _atom_site_symmetry_multiplicity
 _atom_site_fract_x
 _atom_site_fract_y
 _atom_site_fract_z
 _atom_site_occupancy
  Sr  Sr0  1  0.50000000  0.50000000  0.50000000  1
  Sr  Sr1  1  0.00000000  0.00000000  0.00000000  1
  Sr  Sr2  1  0.00000000  0.00000000  0.50000000  1
  Sr  Sr3  1  0.00000000  0.50000000  0.00000000  1
  Sr  Sr4  1  0.50000000  0.00000000  0.00000000  1
  Sr  Sr5  1  0.50000000  0.50000000  0.00000000  1
  Sr  Sr6  1  0.50000000  0.00000000  0.50000000  1
  Sr  Sr7  1  0.00000000  0.50000000  0.50000000  1
  Dy  Dy0  1  0.25000000  0.25000000  0.25000000  1
  Dy  Dy1  1  0.25000000  0.75000000  0.75000000  1
  Dy  Dy2  1  0.75000000  0.25000000  0.75000000  1
  Dy  Dy3  1  0.75000000  0.75000000  0.25000000  1
  Bi  Bi0  1  0.75000000  0.75000000  0.75000000  1
  Bi  Bi1  1  0.75000000  0.25000000  0.25000000  1
  Bi  Bi2  1  0.25000000  0.75000000  0.25000000  1
  Bi  Bi3  1  0.25000000  0.25000000  0.75000000  1
  O  O0  1  0.21558400  0.29129742  0.50693165  1
  O  O1  1  0.21558400  0.70870258  0.49306835  1
  O  O2  1  0.78441600  0.29129742  0.49306835  1
  O  O3  1  0.78441600  0.70870258  0.50693165  1
  O  O4  1  0.29129742  0.50693165  0.21558400  1
  O  O5  1  0.70870258  0.49306835  0.21558400  1
  O  O6  1  0.29129742  0.49306835  0.78441600  1
  O  O7  1  0.70870258  0.50693165  0.78441600  1
  O  O8  1  0.50693165  0.21558400  0.29129742  1
  O  O9  1  0.49306835  0.21558400  0.70870258  1
  O  O10  1  0.49306835  0.78441600  0.29129742  1
  O  O11  1  0.50693165  0.78441600  0.70870258  1
  O  O12  1  0.28441600  0.20870258  0.99306835  1
  O  O13  1  0.28441600  0.79129742  0.00693165  1
  O  O14  1  0.71558400  0.20870258  0.00693165  1
  O  O15  1  0.71558400  0.79129742  0.99306835  1
  O  O16  1  0.20870258  0.99306835  0.28441600  1
  O  O17  1  0.79129742  0.00693165  0.28441600  1
  O  O18  1  0.20870258  0.00693165  0.71558400  1
  O  O19  1  0.79129742  0.99306835  0.71558400  1
  O  O20  1  0.99306835  0.28441600  0.20870258  1
  O  O21  1  0.00693165  0.28441600  0.79129742  1
  O  O22  1  0.00693165  0.71558400  0.20870258  1
  O  O23  1  0.99306835  0.71558400  0.79129742  1
loop_
_geom_bond_atom_site_label_1
_geom_bond_atom_site_label_2
_geom_bond_distance
_geom_bond_site_symmetry_2
Dy0 O20 2.219678 1_455
Dy0 O0 2.219678 1_555
Dy0 O4 2.219678 1_555
Dy0 O8 2.219678 1_555
Dy0 O12 2.219678 1_554
Dy0 O16 2.219678 1_545
Dy1 O23 2.219678 1_455
Dy1 O11 2.219678 1_555
Dy1 O1 2.219678 1_555
Dy1 O6 2.219678 1_555
Dy1 O13 2.219678 1_556
Dy1 O18 2.219678 1_565
Dy2 O7 2.219678 1_555
Dy2 O9 2.219678 1_555
Dy2 O19 2.219678 1_545
Dy2 O2 2.219678 1_555
Dy2 O21 2.219678 1_655
Dy2 O14 2.219678 1_556
Dy3 O15 2.219678 1_554
Dy3 O10 2.219678 1_555
Dy3 O3 2.219678 1_555
Dy3 O5 2.219678 1_555
Dy3 O22 2.219678 1_655
Dy3 O17 2.219678 1_565
Bi0 O23 2.105070 1_555
Bi0 O11 2.105070 1_555
Bi0 O15 2.105070 1_555
Bi0 O7 2.105070 1_555
Bi0 O19 2.105070 1_555
Bi0 O3 2.105070 1_555
Bi1 O14 2.105070 1_555
Bi1 O2 2.105070 1_555
Bi1 O17 2.105070 1_555
Bi1 O5 2.105070 1_555
Bi1 O8 2.105070 1_555
Bi1 O20 2.105070 1_555
Bi2 O22 2.105070 1_555
Bi2 O13 2.105070 1_555
Bi2 O10 2.105070 1_555
Bi2 O1 2.105070 1_555
Bi2 O4 2.105070 1_555
Bi2 O16 2.105070 1_555
Bi3 O6 2.105070 1_555
Bi3 O18 2.105070 1_555
Bi3 O9 2.105070 1_555
Bi3 O21 2.105070 1_555
Bi3 O12 2.105070 1_555
Bi3 O0 2.105070 1_555
O0 Sr7 2.537965 1_555
O0 Sr0 2.983652 1_555
O0 Sr2 3.065002 1_555
O1 Sr7 2.537965 1_555
O1 Sr0 2.983652 1_555
O1 Sr2 3.065002 1_565
O2 Sr7 2.537965 1_655
O2 Sr0 2.983652 1_555
O2 Sr2 3.065002 1_655
O3 Sr7 2.537965 1_655
O3 Sr0 2.983652 1_555
O3 Sr2 3.065002 1_665
O4 Sr5 2.537965 1_555
O4 Sr0 2.983652 1_555
O4 Sr3 3.065002 1_555
O5 Sr5 2.537965 1_555
O5 Sr0 2.983652 1_555
O5 Sr3 3.065002 1_655
O6 Sr5 2.537965 1_556
O6 Sr0 2.983652 1_555
O6 Sr3 3.065002 1_556
O7 Sr5 2.537965 1_556
O7 Sr0 2.983652 1_555
O7 Sr3 3.065002 1_656
O8 Sr6 2.537965 1_555
O8 Sr0 2.983652 1_555
O8 Sr4 3.065002 1_555
O9 Sr6 2.537965 1_555
O9 Sr0 2.983652 1_555
O9 Sr4 3.065002 1_556
O10 Sr6 2.537965 1_565
O10 Sr0 2.983652 1_555
O10 Sr4 3.065002 1_565
O11 Sr6 2.537965 1_565
O11 Sr0 2.983652 1_555
O11 Sr4 3.065002 1_566
O12 Sr4 2.537965 1_556
O12 Sr1 2.983652 1_556
O12 Sr5 3.065002 1_556
O13 Sr4 2.537965 1_565
O13 Sr1 2.983652 1_565
O13 Sr5 3.065002 1_555
O14 Sr4 2.537965 1_555
O14 Sr1 2.983652 1_655
O14 Sr5 3.065002 1_555
O15 Sr4 2.537965 1_566
O15 Sr1 2.983652 1_666
O15 Sr5 3.065002 1_556
O16 Sr2 2.537965 1_565
O16 Sr1 2.983652 1_565
O16 Sr6 3.065002 1_565
O17 Sr2 2.537965 1_655
O17 Sr1 2.983652 1_655
O17 Sr6 3.065002 1_555
O18 Sr2 2.537965 1_555
O18 Sr1 2.983652 1_556
O18 Sr6 3.065002 1_555
O19 Sr2 2.537965 1_665
O19 Sr1 2.983652 1_666
O19 Sr6 3.065002 1_565
O20 Sr3 2.537965 1_655
O20 Sr1 2.983652 1_655
O20 Sr7 3.065002 1_655
O21 Sr3 2.537965 1_556
O21 Sr1 2.983652 1_556
O21 Sr7 3.065002 1_555
O22 Sr3 2.537965 1_555
O22 Sr1 2.983652 1_565
O22 Sr7 3.065002 1_555
O23 Sr3 2.537965 1_656
O23 Sr1 2.983652 1_666
O23 Sr7 3.065002 1_655
