# generated using pymatgen
data_Ge3P6H42N12O25
_symmetry_space_group_name_H-M   'P 1'
_cell_length_a   9.46396832
_cell_length_b   9.46396832
_cell_length_c   10.50799902
_cell_angle_alpha   80.54593955
_cell_angle_beta   80.54593955
_cell_angle_gamma   109.93393196
_symmetry_Int_Tables_number   1
_chemical_formula_structural   Ge3P6H42N12O25
_chemical_formula_sum   'Ge3 P6 H42 N12 O25'
_cell_volume   847.78425241
_cell_formula_units_Z   1
loop_
 _symmetry_equiv_pos_site_id
 _symmetry_equiv_pos_as_xyz
  1  'x, y, z'
loop_
 _atom_site_type_symbol
 _atom_site_label
 _atom_site_symmetry_multiplicity
 _atom_site_fract_x
 _atom_site_fract_y
 _atom_site_fract_z
 _atom_site_occupancy
  Ge  Ge0  1  0.00000000  0.00000000  0.00000000  1
  Ge  Ge1  1  0.33340500  0.66659500  0.00000000  1
  Ge  Ge2  1  0.66659500  0.33340500  0.00000000  1
  P  P0  1  0.21304300  0.87963700  0.80471700  1
  P  P1  1  0.54619700  0.54619700  0.80473400  1
  P  P2  1  0.87963700  0.21304300  0.80471700  1
  P  P3  1  0.45380300  0.45380300  0.19526600  1
  P  P4  1  0.78695700  0.12036300  0.19528300  1
  P  P5  1  0.12036300  0.78695700  0.19528300  1
  H  H0  1  0.16052500  0.27085400  0.64042100  1
  H  H1  1  0.49433100  0.93804500  0.64060400  1
  H  H2  1  0.82765600  0.60514600  0.64059500  1
  H  H3  1  0.27085400  0.16052500  0.64042100  1
  H  H4  1  0.60514600  0.82765600  0.64059500  1
  H  H5  1  0.93804500  0.49433100  0.64060400  1
  H  H6  1  0.50566900  0.06195500  0.35939600  1
  H  H7  1  0.83947500  0.72914600  0.35957900  1
  H  H8  1  0.17234400  0.39485400  0.35940500  1
  H  H9  1  0.39485400  0.17234400  0.35940500  1
  H  H10  1  0.72914600  0.83947500  0.35957900  1
  H  H11  1  0.06195500  0.50566900  0.35939600  1
  H  H12  1  0.23651400  0.45917300  0.87841900  1
  H  H13  1  0.56996900  0.12594200  0.87844400  1
  H  H14  1  0.90327700  0.79265300  0.87826100  1
  H  H15  1  0.45917300  0.23651400  0.87841900  1
  H  H16  1  0.79265300  0.90327700  0.87826100  1
  H  H17  1  0.12594200  0.56996900  0.87844400  1
  H  H18  1  0.43003100  0.87405800  0.12155600  1
  H  H19  1  0.76348600  0.54082700  0.12158100  1
  H  H20  1  0.09672300  0.20734700  0.12173900  1
  H  H21  1  0.20734700  0.09672300  0.12173900  1
  H  H22  1  0.54082700  0.76348600  0.12158100  1
  H  H23  1  0.87405800  0.43003100  0.12155600  1
  H  H24  1  0.33018500  0.33018500  0.68761000  1
  H  H25  1  0.66416300  0.99705300  0.68740100  1
  H  H26  1  0.99705300  0.66416300  0.68740100  1
  H  H27  1  0.33583700  0.00294700  0.31259900  1
  H  H28  1  0.66981500  0.66981500  0.31239000  1
  H  H29  1  0.00294700  0.33583700  0.31259900  1
  H  H30  1  0.42888000  0.09556300  0.01287300  1
  H  H31  1  0.76233000  0.76233000  0.01279800  1
  H  H32  1  0.09556300  0.42888000  0.01287300  1
  H  H33  1  0.23767000  0.23767000  0.98720200  1
  H  H34  1  0.57112000  0.90443700  0.98712700  1
  H  H35  1  0.90443700  0.57112000  0.98712700  1
  H  H36  1  0.32750900  0.32750900  0.52245000  1
  H  H37  1  0.66220200  0.99453100  0.52263300  1
  H  H38  1  0.99453100  0.66220200  0.52263300  1
  H  H39  1  0.33779900  0.00546900  0.47736700  1
  H  H40  1  0.67249100  0.67249100  0.47755000  1
  H  H41  1  0.00546900  0.33779800  0.47736700  1
  N  N0  1  0.51142700  0.17815000  0.93495700  1
  N  N1  1  0.84483400  0.84483400  0.93487000  1
  N  N2  1  0.17815000  0.51142700  0.93495700  1
  N  N3  1  0.15516600  0.15516600  0.06513000  1
  N  N4  1  0.48857300  0.82185000  0.06504300  1
  N  N5  1  0.82185000  0.48857300  0.06504300  1
  N  N6  1  0.27323200  0.27323200  0.62151000  1
  N  N7  1  0.60696500  0.94013600  0.62151000  1
  N  N8  1  0.94013600  0.60696500  0.62151000  1
  N  N9  1  0.39303500  0.05986400  0.37849000  1
  N  N10  1  0.72676800  0.72676800  0.37849000  1
  N  N11  1  0.05986400  0.39303500  0.37849000  1
  O  O0  1  0.33211800  0.83542500  0.87448800  1
  O  O1  1  0.66534800  0.50215700  0.87417000  1
  O  O2  1  0.99879300  0.16881600  0.87425200  1
  O  O3  1  0.16881600  0.99879300  0.87425200  1
  O  O4  1  0.50215700  0.66534800  0.87417000  1
  O  O5  1  0.83542500  0.33211800  0.87448800  1
  O  O6  1  0.33465200  0.49784300  0.12583000  1
  O  O7  1  0.66788200  0.16457500  0.12551200  1
  O  O8  1  0.00120700  0.83118400  0.12574800  1
  O  O9  1  0.49784300  0.33465200  0.12583000  1
  O  O10  1  0.83118400  0.00120700  0.12574800  1
  O  O11  1  0.16457500  0.66788200  0.12551200  1
  O  O12  1  0.30151200  0.96735200  0.66159500  1
  O  O13  1  0.63353200  0.63353200  0.66105300  1
  O  O14  1  0.96735200  0.30151200  0.66159500  1
  O  O15  1  0.36646800  0.36646800  0.33894700  1
  O  O16  1  0.69848800  0.03264800  0.33840500  1
  O  O17  1  0.03264800  0.69848800  0.33840500  1
  O  O18  1  0.40073600  0.40073600  0.81765600  1
  O  O19  1  0.73413400  0.06774300  0.81773300  1
  O  O20  1  0.06774300  0.73413400  0.81773300  1
  O  O21  1  0.26586600  0.93225700  0.18226700  1
  O  O22  1  0.59926400  0.59926400  0.18234400  1
  O  O23  1  0.93225700  0.26586600  0.18226700  1
  O  O24  1  0.00000000  0.00000000  0.50000000  1
loop_
_geom_bond_atom_site_label_1
_geom_bond_atom_site_label_2
_geom_bond_distance
_geom_bond_site_symmetry_2
Ge0 O10 1.903299 1_455
Ge0 O8 1.903299 1_545
Ge0 O3 1.903299 1_544
Ge0 O2 1.903299 1_454
Ge0 N1 1.992782 1_444
Ge0 N3 1.992782 1_555
Ge1 O11 1.902323 1_555
Ge1 O0 1.902323 1_554
Ge1 O6 1.903493 1_555
Ge1 O4 1.903493 1_554
Ge1 N2 1.992714 1_554
Ge1 N4 1.992714 1_555
Ge2 O7 1.902323 1_555
Ge2 O5 1.902323 1_554
Ge2 O9 1.903493 1_555
Ge2 O1 1.903493 1_554
Ge2 N0 1.992714 1_554
Ge2 N5 1.992714 1_555
H0 N6 1.044164 1_555
H1 N7 1.044500 1_555
H2 N8 1.043997 1_555
H3 N6 1.044164 1_555
H4 N7 1.043997 1_555
H5 N8 1.044500 1_555
H6 N9 1.044500 1_555
H7 N10 1.044164 1_555
H8 N11 1.043997 1_555
H9 N9 1.043997 1_555
H10 N10 1.044164 1_555
H11 N11 1.044500 1_555
H12 N2 1.038068 1_555
H13 N0 1.038605 1_555
H14 N1 1.038418 1_555
H15 N0 1.038068 1_555
H16 N1 1.038418 1_555
H17 N2 1.038605 1_555
H18 N4 1.038605 1_555
H19 N5 1.038068 1_555
H20 N3 1.038418 1_555
H21 N3 1.038418 1_555
H22 N4 1.038068 1_555
H23 N5 1.038605 1_555
H24 N6 1.054212 1_555
H25 N7 1.053280 1_555
H26 N8 1.053280 1_555
H27 N9 1.053280 1_555
H28 N10 1.054212 1_555
H29 N11 1.053280 1_555
H30 N0 1.027055 1_554
H31 N1 1.026683 1_554
H32 N2 1.027055 1_554
H33 N3 1.026683 1_556
H34 N4 1.027055 1_556
H35 N5 1.027055 1_556
H36 N6 1.039237 1_555
H37 N7 1.039310 1_555
H38 N8 1.039310 1_555
H39 N9 1.039309 1_555
H40 N10 1.039237 1_555
H41 N11 1.039310 1_555
O0 P0 1.573121 1_555
O1 P1 1.571152 1_555
O2 P2 1.572522 1_555
O3 P0 1.572522 1_555
O4 P1 1.571152 1_555
O5 P2 1.573121 1_555
O6 P3 1.571152 1_555
O7 P4 1.573121 1_555
O8 P5 1.572522 1_555
O9 P3 1.571152 1_555
O10 P4 1.572522 1_555
O11 P5 1.573121 1_555
O12 P0 1.534341 1_555
O13 P1 1.536256 1_555
O14 P2 1.534341 1_555
O15 P3 1.536256 1_555
O16 P4 1.534341 1_555
O17 P5 1.534341 1_555
O18 P1 1.547142 1_555
O19 P2 1.546297 1_555
O20 P0 1.546297 1_555
O21 P5 1.546297 1_555
O22 P3 1.547142 1_555
O23 P4 1.546297 1_555
