# generated using pymatgen
data_ZnS
_symmetry_space_group_name_H-M   'P 1'
_cell_length_a   12.41845236
_cell_length_b   13.17079027
_cell_length_c   14.55290086
_cell_angle_alpha   89.68821029
_cell_angle_beta   91.78864561
_cell_angle_gamma   88.71482241
_symmetry_Int_Tables_number   1
_chemical_formula_structural   ZnS
_chemical_formula_sum   'Zn50 S50'
_cell_volume   2378.48140051
_cell_formula_units_Z   50
loop_
 _symmetry_equiv_pos_site_id
 _symmetry_equiv_pos_as_xyz
  1  'x, y, z'
loop_
 _atom_site_type_symbol
 _atom_site_label
 _atom_site_symmetry_multiplicity
 _atom_site_fract_x
 _atom_site_fract_y
 _atom_site_fract_z
 _atom_site_occupancy
  Zn  Zn0  1  0.07724009  0.08389915  0.02833014  1
  Zn  Zn1  1  0.64539163  0.13546734  0.24800612  1
  Zn  Zn2  1  0.37854737  0.19591866  0.22967831  1
  Zn  Zn3  1  0.86500875  0.69920970  0.04450107  1
  Zn  Zn4  1  0.26607761  0.22602998  0.49219923  1
  Zn  Zn5  1  0.75094003  0.62592830  0.82882172  1
  Zn  Zn6  1  0.91510827  0.51958185  0.19047853  1
  Zn  Zn7  1  0.23135513  0.77846478  0.53091294  1
  Zn  Zn8  1  0.91294047  0.55250968  0.70443096  1
  Zn  Zn9  1  0.18981875  0.45486698  0.27811585  1
  Zn  Zn10  1  0.43855028  0.89988524  0.41522357  1
  Zn  Zn11  1  0.16498598  0.91161497  0.19997163  1
  Zn  Zn12  1  0.34770824  0.72327710  0.26786907  1
  Zn  Zn13  1  0.80901258  0.36027610  0.33582720  1
  Zn  Zn14  1  0.01385036  0.09151620  0.79819877  1
  Zn  Zn15  1  0.37736911  0.54509972  0.46571861  1
  Zn  Zn16  1  0.81884100  0.29945122  0.83717869  1
  Zn  Zn17  1  0.43647726  0.32302034  0.64328580  1
  Zn  Zn18  1  0.77985968  0.27506325  0.10807898  1
  Zn  Zn19  1  0.78252898  0.06638686  0.99258537  1
  Zn  Zn20  1  0.09627730  0.88523605  0.42913178  1
  Zn  Zn21  1  0.84200540  0.77505670  0.28522164  1
  Zn  Zn22  1  0.44622090  0.73937807  0.99087977  1
  Zn  Zn23  1  0.53659729  0.26772777  0.89834415  1
  Zn  Zn24  1  0.71432880  0.97398904  0.80644117  1
  Zn  Zn25  1  0.72351536  0.13906080  0.43454085  1
  Zn  Zn26  1  0.93006477  0.02500379  0.24668134  1
  Zn  Zn27  1  0.83097937  0.51873419  0.47923186  1
  Zn  Zn28  1  0.18224670  0.64501127  0.68784994  1
  Zn  Zn29  1  0.80414388  0.06515559  0.69327790  1
  Zn  Zn30  1  0.15719240  0.19851148  0.28504316  1
  Zn  Zn31  1  0.66335312  0.87896669  0.52408841  1
  Zn  Zn32  1  0.68332012  0.63740795  0.46992798  1
  Zn  Zn33  1  0.22016550  0.31486510  0.01790184  1
  Zn  Zn34  1  0.06944844  0.51409730  0.49432201  1
  Zn  Zn35  1  0.19444916  0.66484914  0.05380420  1
  Zn  Zn36  1  0.57821815  0.35100573  0.42633726  1
  Zn  Zn37  1  0.98104472  0.45996018  0.97730137  1
  Zn  Zn38  1  0.15186554  0.96627414  0.57809712  1
  Zn  Zn39  1  0.47284884  0.06495178  0.50840910  1
  Zn  Zn40  1  0.20817094  0.52477300  0.83499243  1
  Zn  Zn41  1  0.18291024  0.75478148  0.83351807  1
  Zn  Zn42  1  0.25781371  0.46806460  0.67531094  1
  Zn  Zn43  1  0.01395078  0.80176524  0.75069442  1
  Zn  Zn44  1  0.41471491  0.97868835  0.13554792  1
  Zn  Zn45  1  0.73968253  0.79725017  0.95456765  1
  Zn  Zn46  1  0.31703588  0.16415887  0.72980420  1
  Zn  Zn47  1  0.47260307  0.67514484  0.66959503  1
  Zn  Zn48  1  0.43235445  0.51020128  0.23371195  1
  Zn  Zn49  1  0.61371867  0.99411523  0.36136008  1
  S  S0  1  0.34451425  0.89479653  0.00761115  1
  S  S1  1  0.49756131  0.20685073  0.75665861  1
  S  S2  1  0.85473037  0.47450903  0.84809842  1
  S  S3  1  0.56423049  0.61222728  0.80818461  1
  S  S4  1  0.56698358  0.54164321  0.12844158  1
  S  S5  1  0.67383475  0.31545273  0.23286192  1
  S  S6  1  0.56745753  0.75458909  0.87404922  1
  S  S7  1  0.02180644  0.10963611  0.47350705  1
  S  S8  1  0.93267508  0.36850231  0.10609356  1
  S  S9  1  0.54347094  0.49511227  0.99210843  1
  S  S10  1  0.31039694  0.12543788  0.35440143  1
  S  S11  1  0.42779470  0.50592645  0.61882743  1
  S  S12  1  0.20511719  0.09454758  0.83712869  1
  S  S13  1  0.71328548  0.23858463  0.95359821  1
  S  S14  1  0.01406791  0.85228799  0.28674859  1
  S  S15  1  0.23936051  0.13896101  0.97328760  1
  S  S16  1  0.02422182  0.60649978  0.06559353  1
  S  S17  1  0.49763312  0.12812163  0.13306940  1
  S  S18  1  0.12749420  0.39107146  0.90035928  1
  S  S19  1  0.74818796  0.30635074  0.47588811  1
  S  S20  1  0.22520166  0.44841739  0.43069508  1
  S  S21  1  0.23316290  0.30295421  0.64411769  1
  S  S22  1  0.30351502  0.06480269  0.59218118  1
  S  S23  1  0.07023641  0.24708533  0.42037089  1
  S  S24  1  0.24413197  0.32027975  0.17947153  1
  S  S25  1  0.90011130  0.21262633  0.72399583  1
  S  S26  1  0.42605064  0.38999046  0.96231429  1
  S  S27  1  0.69656467  0.82652230  0.36993177  1
  S  S28  1  0.29723872  0.64769466  0.92585150  1
  S  S29  1  0.26594542  0.58773223  0.19686656  1
  S  S30  1  0.31608111  0.77354451  0.68188868  1
  S  S31  1  0.79124337  0.65409195  0.18619592  1
  S  S32  1  0.36436985  0.72684230  0.42928977  1
  S  S33  1  0.88946084  0.05615476  0.40079316  1
  S  S34  1  0.95286804  0.46941903  0.34222011  1
  S  S35  1  0.46256587  0.24880991  0.50096889  1
  S  S36  1  0.19094590  0.84910629  0.04848687  1
  S  S37  1  0.50735743  0.69444051  0.14155224  1
  S  S38  1  0.08108334  0.67771880  0.55462567  1
  S  S39  1  0.66770587  0.04532682  0.56383214  1
  S  S40  1  0.79205971  0.08558059  0.15299061  1
  S  S41  1  0.85241245  0.71597129  0.72753524  1
  S  S42  1  0.08984141  0.07704870  0.18454161  1
  S  S43  1  0.34177843  0.89755232  0.25938274  1
  S  S44  1  0.94701612  0.44326120  0.59137712  1
  S  S45  1  0.00857149  0.96265400  0.67905840  1
  S  S46  1  0.65000148  0.95296751  0.95065439  1
  S  S47  1  0.95106263  0.02235577  0.93555069  1
  S  S48  1  0.52171193  0.50767798  0.37168214  1
  S  S49  1  0.61126191  0.73387671  0.58458836  1
loop_
_geom_bond_atom_site_label_1
_geom_bond_atom_site_label_2
_geom_bond_distance
_geom_bond_site_symmetry_2
Zn24 Zn29 2.356088 1_565
Zn27 Zn32 2.382744 1_555
S0 S36 2.114558 1_555
S0 Zn44 2.326289 1_555
S0 Zn22 2.398613 1_554
S1 Zn23 2.258869 1_555
S1 Zn17 2.341149 1_555
S1 Zn46 2.344998 1_555
S2 Zn5 2.360786 1_555
S2 Zn16 2.363382 1_555
S2 Zn37 2.414795 1_555
S2 Zn8 2.460407 1_555
S3 S6 2.111064 1_555
S3 Zn5 2.339820 1_555
S3 Zn47 2.417748 1_555
S4 S9 2.093410 1_554
S4 Zn48 2.344723 1_555
S5 Zn13 2.304115 1_555
S5 Zn18 2.332945 1_555
S5 Zn1 2.414452 1_555
S6 Zn22 2.316735 1_555
S6 Zn45 2.483490 1_555
S7 Zn38 2.858168 1_545
S8 Zn18 2.285729 1_555
S8 Zn37 2.324430 1_554
S8 Zn6 2.353505 1_555
S10 Zn2 2.232780 1_555
S10 Zn30 2.313494 1_555
S10 Zn4 2.478867 1_555
S11 Zn15 2.347126 1_555
S11 Zn42 2.351878 1_555
S11 Zn47 2.422944 1_555
S11 Zn17 2.432757 1_555
S12 S15 2.102512 1_555
S12 Zn46 2.321391 1_555
S12 Zn14 2.425864 1_555
S13 Zn16 2.324307 1_555
S13 Zn23 2.336049 1_555
S13 Zn18 2.425292 1_556
S13 Zn19 2.464373 1_555
S14 Zn20 2.328461 1_555
S14 Zn21 2.386559 1_455
S14 Zn11 2.433223 1_555
S14 Zn26 2.538527 1_465
S15 Zn0 2.319641 1_556
S15 Zn33 2.418092 1_556
S16 Zn35 2.276609 1_555
S16 Zn3 2.311751 1_455
S16 Zn37 2.386201 1_454
S16 Zn6 2.578828 1_455
S17 Zn44 2.242254 1_545
S17 Zn2 2.246166 1_555
S17 Zn1 2.447910 1_555
S18 Zn33 2.250453 1_556
S18 Zn40 2.264963 1_555
S18 Zn37 2.334260 1_455
S19 Zn36 2.272863 1_555
S19 Zn13 2.309556 1_555
S19 Zn25 2.311679 1_555
S20 Zn9 2.250810 1_555
S20 Zn34 2.322147 1_555
S20 Zn15 2.346716 1_555
S21 Zn42 2.249611 1_555
S21 Zn46 2.406304 1_555
S21 Zn4 2.478638 1_555
S21 Zn17 2.544929 1_555
S22 Zn38 2.315404 1_545
S22 Zn46 2.401932 1_555
S22 Zn39 2.463434 1_555
S22 Zn4 2.592744 1_555
S23 S7 2.073538 1_555
S23 Zn30 2.359967 1_555
S23 Zn4 2.625321 1_555
S24 Zn33 2.362500 1_555
S24 Zn9 2.385887 1_555
S24 Zn2 2.406493 1_555
S24 Zn30 2.500525 1_555
S25 Zn16 2.260945 1_555
S25 Zn29 2.339386 1_555
S25 Zn14 2.343189 1_655
S26 S9 2.070956 1_555
S26 Zn23 2.311122 1_555
S26 Zn33 2.899040 1_556
S27 Zn21 2.309666 1_555
S27 Zn31 2.396252 1_555
S27 Zn49 2.415257 1_555
S27 Zn32 2.888363 1_555
S28 Zn35 2.299531 1_556
S28 Zn41 2.362434 1_555
S28 Zn40 2.367532 1_555
S28 Zn22 2.404177 1_555
S29 Zn12 2.306863 1_555
S29 Zn48 2.330463 1_555
S29 Zn9 2.339999 1_555
S29 Zn35 2.444523 1_555
S30 Zn47 2.324019 1_555
S30 Zn28 2.401936 1_555
S30 Zn7 2.406187 1_555
S30 Zn41 2.811680 1_555
S31 Zn21 2.241831 1_555
S31 Zn6 2.319295 1_555
S31 Zn3 2.360806 1_555
S32 Zn7 2.343307 1_555
S32 Zn12 2.352609 1_555
S32 Zn15 2.449570 1_555
S32 Zn10 2.487117 1_555
S33 S7 2.066061 1_655
S33 Zn26 2.350309 1_555
S33 Zn25 2.376647 1_555
S34 Zn13 2.317926 1_555
S34 Zn6 2.332053 1_555
S34 Zn27 2.616712 1_555
S34 Zn34 2.682215 1_655
S35 Zn36 2.285226 1_555
S35 Zn17 2.323696 1_555
S35 Zn39 2.423712 1_555
S35 Zn4 2.464572 1_555
S36 Zn11 2.386201 1_555
S36 Zn35 2.426996 1_555
S37 S4 2.140291 1_555
S37 Zn22 2.365701 1_554
S37 Zn12 2.766863 1_555
S37 Zn48 2.949332 1_555
S38 Zn28 2.310276 1_555
S38 Zn34 2.337052 1_555
S38 Zn7 2.347029 1_555
S39 Zn31 2.270573 1_545
S39 Zn25 2.374709 1_555
S39 Zn29 2.512712 1_555
S39 Zn39 2.533917 1_555
S40 Zn26 2.283354 1_555
S40 Zn19 2.348973 1_554
S40 Zn1 2.403040 1_555
S40 Zn18 2.576324 1_555
S41 Zn8 2.294379 1_555
S41 Zn5 2.308907 1_555
S41 Zn43 2.340580 1_655
S42 Zn0 2.274991 1_555
S42 Zn26 2.321830 1_455
S42 Zn30 2.325313 1_555
S42 Zn11 2.357797 1_545
S43 Zn12 2.297398 1_555
S43 Zn44 2.309650 1_555
S43 Zn11 2.337420 1_555
S43 Zn10 2.533964 1_555
S44 Zn8 2.235681 1_555
S44 Zn34 2.315258 1_655
S44 Zn27 2.345083 1_555
S45 Zn38 2.343907 1_555
S45 Zn43 2.355175 1_555
S45 Zn14 2.433302 1_565
S45 Zn29 2.862230 1_465
S46 Zn24 2.286416 1_555
S46 Zn45 2.311310 1_555
S46 Zn19 2.317325 1_565
S47 Zn0 2.207301 1_656
S47 Zn19 2.337697 1_555
S47 Zn14 2.354256 1_655
S48 Zn48 2.263306 1_555
S48 Zn36 2.294650 1_555
S48 Zn15 2.334454 1_555
S48 Zn32 2.998786 1_555
S49 Zn31 2.217676 1_555
S49 Zn32 2.294505 1_555
S49 Zn47 2.296981 1_555
