# generated using pymatgen
data_Na2FeSO4F3
_symmetry_space_group_name_H-M   'P 1'
_cell_length_a   7.49684700
_cell_length_b   7.46070890
_cell_length_c   10.52110133
_cell_angle_alpha   77.76970490
_cell_angle_beta   90.00004901
_cell_angle_gamma   89.99849115
_symmetry_Int_Tables_number   1
_chemical_formula_structural   Na2FeSO4F3
_chemical_formula_sum   'Na8 Fe4 S4 O16 F12'
_cell_volume   575.10829416
_cell_formula_units_Z   4
loop_
 _symmetry_equiv_pos_site_id
 _symmetry_equiv_pos_as_xyz
  1  'x, y, z'
loop_
 _atom_site_type_symbol
 _atom_site_label
 _atom_site_symmetry_multiplicity
 _atom_site_fract_x
 _atom_site_fract_y
 _atom_site_fract_z
 _atom_site_occupancy
  Na  Na0  1  0.50005600  0.49996100  0.00000400  1
  Na  Na1  1  0.50005200  0.99989200  0.49996100  1
  Na  Na2  1  0.00003400  0.50008100  0.99998400  1
  Na  Na3  1  0.00006700  0.99995000  0.50000900  1
  Na  Na4  1  0.75010500  0.69484200  0.23972500  1
  Na  Na5  1  0.74992000  0.19479500  0.73972600  1
  Na  Na6  1  0.25010400  0.30524600  0.76031500  1
  Na  Na7  1  0.24991400  0.80518600  0.26031800  1
  Fe  Fe0  1  0.49992300  0.49996500  0.49987700  1
  Fe  Fe1  1  0.00001000  0.00007400  0.99995300  1
  Fe  Fe2  1  0.50010300  0.99995800  0.00007800  1
  Fe  Fe3  1  0.99985300  0.50010400  0.50008900  1
  S  S0  1  0.74997000  0.66827500  0.70513200  1
  S  S1  1  0.75005400  0.16829400  0.20514900  1
  S  S2  1  0.24996700  0.33170700  0.29485900  1
  S  S3  1  0.25004100  0.83172600  0.79487800  1
  O  O0  1  0.75004300  0.36522800  0.14339900  1
  O  O1  1  0.75000500  0.86518600  0.64339700  1
  O  O2  1  0.25004000  0.63484600  0.85658300  1
  O  O3  1  0.25001200  0.13479500  0.35657700  1
  O  O4  1  0.74988400  0.62874600  0.84722600  1
  O  O5  1  0.75005300  0.12881700  0.34725400  1
  O  O6  1  0.24988700  0.37120200  0.15274600  1
  O  O7  1  0.25004900  0.87127500  0.65276700  1
  O  O8  1  0.58722000  0.57693900  0.66079700  1
  O  O9  1  0.58719900  0.07699900  0.16092800  1
  O  O10  1  0.08720000  0.42303700  0.33917700  1
  O  O11  1  0.08718100  0.92306100  0.83910800  1
  O  O12  1  0.41285300  0.42299000  0.33902700  1
  O  O13  1  0.41283300  0.92306000  0.83915700  1
  O  O14  1  0.91284000  0.57697300  0.66094600  1
  O  O15  1  0.91282100  0.07699200  0.16088600  1
  F  F0  1  0.75000500  0.48848400  0.43748200  1
  F  F1  1  0.74999400  0.98864400  0.93744300  1
  F  F2  1  0.24999900  0.51132800  0.56255200  1
  F  F3  1  0.24999500  0.01145800  0.06252400  1
  F  F4  1  0.49069000  0.24951300  0.90060400  1
  F  F5  1  0.49070500  0.74942100  0.40052700  1
  F  F6  1  0.99065000  0.75062700  0.09932300  1
  F  F7  1  0.99064600  0.25038300  0.59951900  1
  F  F8  1  0.50929800  0.75042300  0.09950200  1
  F  F9  1  0.50927300  0.25034700  0.59944400  1
  F  F10  1  0.00923500  0.24972000  0.90043400  1
  F  F11  1  0.00921800  0.74945300  0.40061500  1
loop_
_geom_bond_atom_site_label_1
_geom_bond_atom_site_label_2
_geom_bond_distance
_geom_bond_site_symmetry_2
Na0 O0 2.481170 1_555
Na0 O2 2.481791 1_554
Na0 O4 2.522001 1_554
Na0 O6 2.523642 1_555
Na1 O1 2.481147 1_555
Na1 O3 2.481760 1_565
Na1 O5 2.522806 1_565
Na1 O7 2.522832 1_555
Na2 O2 2.481418 1_555
Na2 O0 2.481592 1_456
Na2 O6 2.522180 1_556
Na2 O4 2.523418 1_455
Na3 O3 2.481408 1_565
Na3 O1 2.481662 1_455
Na3 O7 2.522501 1_555
Na3 O5 2.523013 1_465
Na4 O0 2.851395 1_555
Na5 O1 2.851377 1_545
Na6 O2 2.850969 1_555
Na7 O3 2.850981 1_565
Fe0 O12 2.007890 1_555
Fe0 O8 2.009105 1_555
Fe1 O11 2.008211 1_545
Fe1 O15 2.008762 1_456
Fe2 O9 2.008182 1_565
Fe2 O13 2.008786 1_554
Fe3 O14 2.007441 1_555
Fe3 O10 2.009465 1_655
O0 S1 1.475263 1_555
O1 S0 1.475072 1_555
O2 S3 1.474791 1_555
O3 S2 1.475038 1_555
O4 S0 1.461218 1_555
O5 S1 1.461337 1_555
O6 S2 1.461418 1_555
O7 S3 1.461391 1_555
O8 S0 1.518326 1_555
O9 S1 1.518319 1_555
O10 S2 1.518305 1_555
O11 S3 1.518513 1_555
O12 S2 1.518236 1_555
O13 S3 1.518334 1_555
O14 S0 1.518261 1_555
O15 S1 1.517965 1_555
F0 Fe3 1.993488 1_555
F0 Fe0 1.994260 1_555
F0 Na4 2.311300 1_555
F1 Fe2 1.993630 1_556
F1 Fe1 1.994165 1_665
F1 Na5 2.310247 1_565
F2 Fe0 1.994046 1_555
F2 Fe3 1.994741 1_455
F2 Na6 2.310370 1_555
F3 Fe1 1.994126 1_554
F3 Fe2 1.994641 1_545
F3 Na7 2.311291 1_545
F4 Fe2 1.934225 1_546
F4 Na6 2.311815 1_555
F4 Na0 2.327641 1_556
F4 Na5 2.664799 1_555
F5 Fe0 1.933107 1_555
F5 Na7 2.312520 1_555
F5 Na1 2.328012 1_555
F5 Na4 2.664897 1_555
F6 Fe1 1.933163 1_664
F6 Na4 2.312326 1_555
F6 Na2 2.327901 1_654
F6 Na7 2.665479 1_655
F7 Fe3 1.935068 1_555
F7 Na5 2.312088 1_555
F7 Na3 2.328267 1_645
F7 Na6 2.665795 1_655
F8 Fe2 1.933863 1_555
F8 Na4 2.312641 1_555
F8 Na0 2.328345 1_555
F8 Na7 2.665302 1_555
F9 Fe0 1.934937 1_555
F9 Na5 2.312068 1_555
F9 Na1 2.328196 1_545
F9 Na6 2.664805 1_555
F10 Fe1 1.934913 1_555
F10 Na6 2.312349 1_555
F10 Na2 2.327996 1_555
F10 Na5 2.664528 1_455
F11 Fe3 1.932913 1_455
F11 Na7 2.312528 1_555
F11 Na3 2.327879 1_555
F11 Na4 2.664027 1_455
