# generated using pymatgen
data_Li9Mn2Co5O16
_symmetry_space_group_name_H-M   'P 1'
_cell_length_a   5.88581528
_cell_length_b   5.88581528
_cell_length_c   10.32913438
_cell_angle_alpha   72.64850783
_cell_angle_beta   72.64850783
_cell_angle_gamma   59.02406805
_symmetry_Int_Tables_number   1
_chemical_formula_structural   Li9Mn2Co5O16
_chemical_formula_sum   'Li9 Mn2 Co5 O16'
_cell_volume   288.22003480
_cell_formula_units_Z   1
loop_
 _symmetry_equiv_pos_site_id
 _symmetry_equiv_pos_as_xyz
  1  'x, y, z'
loop_
 _atom_site_type_symbol
 _atom_site_label
 _atom_site_symmetry_multiplicity
 _atom_site_fract_x
 _atom_site_fract_y
 _atom_site_fract_z
 _atom_site_occupancy
  Li  Li0  1  0.74670100  0.25584800  0.75885500  1
  Li  Li1  1  0.74415200  0.25329900  0.24114500  1
  Li  Li2  1  0.24748200  0.24748200  0.76097600  1
  Li  Li3  1  0.26178500  0.26178500  0.23532900  1
  Li  Li4  1  0.73821500  0.73821500  0.76467100  1
  Li  Li5  1  0.75251800  0.75251800  0.23902400  1
  Li  Li6  1  0.25584800  0.74670100  0.75885500  1
  Li  Li7  1  0.25329900  0.74415200  0.24114500  1
  Li  Li8  1  0.50000000  0.50000000  0.00000000  1
  Mn  Mn0  1  0.00000000  0.00000000  0.00000000  1
  Mn  Mn1  1  0.00000000  0.00000000  0.50000000  1
  Co  Co0  1  0.50000000  0.00000000  0.00000000  1
  Co  Co1  1  0.50000000  0.00000000  0.50000000  1
  Co  Co2  1  0.00000000  0.50000000  0.00000000  1
  Co  Co3  1  0.00000000  0.50000000  0.50000000  1
  Co  Co4  1  0.50000000  0.50000000  0.50000000  1
  O  O0  1  0.88587300  0.35709100  0.88558600  1
  O  O1  1  0.87144500  0.35995800  0.38839100  1
  O  O2  1  0.36043900  0.36043900  0.88853600  1
  O  O3  1  0.35998900  0.35998900  0.38427100  1
  O  O4  1  0.88236500  0.88236500  0.88449700  1
  O  O5  1  0.88031500  0.88031500  0.38875300  1
  O  O6  1  0.35709100  0.88587300  0.88558600  1
  O  O7  1  0.35995800  0.87144500  0.38839100  1
  O  O8  1  0.64004200  0.12855500  0.61160900  1
  O  O9  1  0.64290900  0.11412700  0.11441400  1
  O  O10  1  0.11968500  0.11968500  0.61124700  1
  O  O11  1  0.11763500  0.11763500  0.11550300  1
  O  O12  1  0.64001100  0.64001100  0.61572900  1
  O  O13  1  0.63956100  0.63956100  0.11146400  1
  O  O14  1  0.12855500  0.64004200  0.61160900  1
  O  O15  1  0.11412700  0.64290900  0.11441400  1
loop_
_geom_bond_atom_site_label_1
_geom_bond_atom_site_label_2
_geom_bond_distance
_geom_bond_site_symmetry_2
Li0 O4 2.064892 1_545
Li0 O0 2.084927 1_555
Li0 O2 2.139311 1_555
Li0 O10 2.169710 1_655
Li0 O12 2.188803 1_555
Li0 O8 2.236511 1_555
Li1 O11 2.064892 1_655
Li1 O9 2.084927 1_555
Li1 O13 2.139311 1_555
Li1 O5 2.169710 1_545
Li1 O3 2.188803 1_555
Li1 O1 2.236511 1_555
Li2 O6 2.012635 1_545
Li2 O0 2.012635 1_455
Li2 O2 2.029791 1_555
Li2 O8 2.249881 1_555
Li2 O14 2.249881 1_555
Li2 O10 2.343846 1_555
Li3 O15 2.077687 1_555
Li3 O9 2.077687 1_555
Li3 O3 2.107059 1_555
Li3 O11 2.228294 1_555
Li3 O7 2.263548 1_545
Li3 O1 2.263548 1_455
Li4 O0 2.077687 1_555
Li4 O6 2.077687 1_555
Li4 O12 2.107059 1_555
Li4 O4 2.228294 1_555
Li4 O8 2.263548 1_565
Li4 O14 2.263548 1_655
Li5 O15 2.012635 1_655
Li5 O9 2.012635 1_565
Li5 O13 2.029791 1_555
Li5 O7 2.249881 1_555
Li5 O1 2.249881 1_555
Li5 O5 2.343846 1_555
Li6 O4 2.064892 1_455
Li6 O6 2.084927 1_555
Li6 O2 2.139311 1_555
Li6 O10 2.169710 1_565
Li6 O12 2.188803 1_555
Li6 O14 2.236511 1_555
Li7 O11 2.064892 1_565
Li7 O15 2.084927 1_555
Li7 O13 2.139311 1_555
Li7 O5 2.169710 1_455
Li7 O3 2.188803 1_555
Li7 O7 2.236511 1_555
Li8 O6 2.070728 1_554
Li8 O0 2.070728 1_554
Li8 O9 2.070728 1_555
Li8 O15 2.070728 1_555
Li8 O2 2.120802 1_554
Li8 O13 2.120802 1_555
Mn0 O9 1.950386 1_455
Mn0 O6 1.950386 1_544
Mn0 O0 1.950386 1_454
Mn0 O15 1.950386 1_545
Mn0 O11 1.964943 1_555
Mn0 O4 1.964943 1_444
Mn1 O10 1.946619 1_555
Mn1 O5 1.946619 1_445
Mn1 O14 1.950260 1_545
Mn1 O8 1.950260 1_455
Mn1 O1 1.950260 1_455
Mn1 O7 1.950260 1_545
Co0 O13 1.953046 1_545
Co0 O2 1.953046 1_554
Co0 O9 2.050220 1_555
Co0 O6 2.050220 1_544
Co0 O4 2.062734 1_544
Co0 O11 2.062734 1_555
Co1 O12 1.969003 1_545
Co1 O3 1.969003 1_555
Co1 O5 2.037841 1_545
Co1 O10 2.037841 1_555
Co1 O8 2.076050 1_555
Co1 O7 2.076050 1_545
Co2 O13 1.953046 1_455
Co2 O2 1.953046 1_554
Co2 O15 2.050220 1_555
Co2 O0 2.050220 1_454
Co2 O4 2.062734 1_454
Co2 O11 2.062734 1_555
Co3 O12 1.969003 1_455
Co3 O3 1.969003 1_555
Co3 O10 2.037841 1_555
Co3 O5 2.037841 1_455
Co3 O14 2.076050 1_555
Co3 O1 2.076050 1_455
Co4 O14 1.999161 1_555
Co4 O1 1.999161 1_555
Co4 O8 1.999161 1_555
Co4 O7 1.999161 1_555
Co4 O12 2.159011 1_555
Co4 O3 2.159011 1_555
