# generated using pymatgen
data_RbBaPS4
_symmetry_space_group_name_H-M   'P 1'
_cell_length_a   6.83252700
_cell_length_b   10.21427200
_cell_length_c   11.72765600
_cell_angle_alpha   90.00000000
_cell_angle_beta   90.00000000
_cell_angle_gamma   90.00000000
_symmetry_Int_Tables_number   1
_chemical_formula_structural   RbBaPS4
_chemical_formula_sum   'Rb4 Ba4 P4 S16'
_cell_volume   818.46477652
_cell_formula_units_Z   4
loop_
 _symmetry_equiv_pos_site_id
 _symmetry_equiv_pos_as_xyz
  1  'x, y, z'
loop_
 _atom_site_type_symbol
 _atom_site_label
 _atom_site_symmetry_multiplicity
 _atom_site_fract_x
 _atom_site_fract_y
 _atom_site_fract_z
 _atom_site_occupancy
  Rb  Rb0  1  0.25000000  0.84579800  0.91571200  1
  Rb  Rb1  1  0.25000000  0.65420200  0.41571200  1
  Rb  Rb2  1  0.75000000  0.15420200  0.08428800  1
  Rb  Rb3  1  0.75000000  0.34579800  0.58428800  1
  Ba  Ba0  1  0.25000000  0.39444100  0.85103400  1
  Ba  Ba1  1  0.25000000  0.10555900  0.35103400  1
  Ba  Ba2  1  0.75000000  0.60555900  0.14896600  1
  Ba  Ba3  1  0.75000000  0.89444100  0.64896600  1
  P  P0  1  0.25000000  0.10736400  0.68407200  1
  P  P1  1  0.25000000  0.39263600  0.18407200  1
  P  P2  1  0.75000000  0.89263600  0.31592800  1
  P  P3  1  0.75000000  0.60736400  0.81592800  1
  S  S0  1  0.49446400  0.11539200  0.78412600  1
  S  S1  1  0.00553600  0.38460800  0.28412600  1
  S  S2  1  0.99446400  0.88460800  0.21587400  1
  S  S3  1  0.50553600  0.61539200  0.71587400  1
  S  S4  1  0.50553600  0.88460800  0.21587400  1
  S  S5  1  0.99446400  0.61539200  0.71587400  1
  S  S6  1  0.00553600  0.11539200  0.78412600  1
  S  S7  1  0.49446400  0.38460800  0.28412600  1
  S  S8  1  0.25000000  0.27140500  0.58151400  1
  S  S9  1  0.25000000  0.22859500  0.08151400  1
  S  S10  1  0.75000000  0.72859500  0.41848600  1
  S  S11  1  0.75000000  0.77140500  0.91848600  1
  S  S12  1  0.25000000  0.93629500  0.59023000  1
  S  S13  1  0.25000000  0.56370500  0.09023000  1
  S  S14  1  0.75000000  0.06370500  0.40977000  1
  S  S15  1  0.75000000  0.43629500  0.90977000  1
loop_
_geom_bond_atom_site_label_1
_geom_bond_atom_site_label_2
_geom_bond_distance
_geom_bond_site_symmetry_2
Rb0 S11 3.499903 1_555
Rb0 S11 3.499903 1_455
Rb0 S13 3.534296 1_556
Rb0 S0 3.571313 1_565
Rb0 S6 3.571313 1_565
Rb0 S3 3.752280 1_555
Rb0 S5 3.752280 1_455
Rb1 S10 3.499903 1_455
Rb1 S10 3.499903 1_555
Rb1 S12 3.534296 1_555
Rb1 S7 3.571313 1_555
Rb1 S1 3.571313 1_555
Rb1 S2 3.752280 1_455
Rb1 S4 3.752280 1_555
Rb2 S9 3.499903 1_555
Rb2 S9 3.499903 1_655
Rb2 S15 3.534296 1_554
Rb2 S2 3.571313 1_545
Rb2 S4 3.571313 1_545
Rb2 S7 3.752280 1_555
Rb2 S1 3.752280 1_655
Rb3 S8 3.499903 1_655
Rb3 S8 3.499903 1_555
Rb3 S14 3.534296 1_555
Rb3 S3 3.571313 1_555
Rb3 S5 3.571313 1_555
Rb3 S6 3.752280 1_655
Rb3 S0 3.752280 1_555
Ba0 S9 3.189950 1_556
Ba0 S3 3.264097 1_555
Ba0 S5 3.264097 1_455
Ba0 S13 3.295196 1_556
Ba0 S0 3.395548 1_555
Ba0 S6 3.395548 1_555
Ba0 S8 3.401507 1_555
Ba0 S15 3.511141 1_555
Ba0 S15 3.511141 1_455
Ba1 S8 3.189950 1_555
Ba1 S4 3.264097 1_545
Ba1 S2 3.264097 1_445
Ba1 S12 3.295196 1_545
Ba1 S1 3.395548 1_555
Ba1 S7 3.395548 1_555
Ba1 S9 3.401507 1_555
Ba1 S14 3.511141 1_455
Ba1 S14 3.511141 1_555
Ba2 S11 3.189950 1_554
Ba2 S7 3.264097 1_555
Ba2 S1 3.264097 1_655
Ba2 S15 3.295196 1_554
Ba2 S4 3.395548 1_555
Ba2 S2 3.395548 1_555
Ba2 S10 3.401507 1_555
Ba2 S13 3.511141 1_555
Ba2 S13 3.511141 1_655
Ba3 S10 3.189950 1_555
Ba3 S6 3.264097 1_665
Ba3 S0 3.264097 1_565
Ba3 S14 3.295196 1_565
Ba3 S5 3.395548 1_555
Ba3 S3 3.395548 1_555
Ba3 S11 3.401507 1_555
Ba3 S12 3.511141 1_655
Ba3 S12 3.511141 1_555
P0 S6 2.042918 1_555
P0 S0 2.042918 1_555
P0 S8 2.062557 1_555
P0 S12 2.065047 1_545
P1 S7 2.042918 1_555
P1 S1 2.042918 1_555
P1 S9 2.062557 1_555
P1 S13 2.065047 1_555
P2 S4 2.042918 1_555
P2 S2 2.042918 1_555
P2 S10 2.062557 1_555
P2 S14 2.065047 1_565
P3 S5 2.042918 1_555
P3 S3 2.042918 1_555
P3 S11 2.062557 1_555
P3 S15 2.065047 1_555
