# generated using pymatgen
data_Cd7SnN6
_symmetry_space_group_name_H-M   'P 1'
_cell_length_a   12.07415100
_cell_length_b   6.49851100
_cell_length_c   12.14957800
_cell_angle_alpha   90.00000000
_cell_angle_beta   90.00000000
_cell_angle_gamma   90.00000000
_symmetry_Int_Tables_number   1
_chemical_formula_structural   Cd7SnN6
_chemical_formula_sum   'Cd28 Sn4 N24'
_cell_volume   953.30452572
_cell_formula_units_Z   4
loop_
 _symmetry_equiv_pos_site_id
 _symmetry_equiv_pos_as_xyz
  1  'x, y, z'
loop_
 _atom_site_type_symbol
 _atom_site_label
 _atom_site_symmetry_multiplicity
 _atom_site_fract_x
 _atom_site_fract_y
 _atom_site_fract_z
 _atom_site_occupancy
  Cd  Cd0  1  0.02841300  0.72650300  0.99689500  1
  Cd  Cd1  1  0.47158700  0.77349700  0.49689500  1
  Cd  Cd2  1  0.52841300  0.77349700  0.00310500  1
  Cd  Cd3  1  0.97158700  0.72650300  0.50310500  1
  Cd  Cd4  1  0.97158700  0.27349700  0.00310500  1
  Cd  Cd5  1  0.52841300  0.22650300  0.50310500  1
  Cd  Cd6  1  0.47158700  0.22650300  0.99689500  1
  Cd  Cd7  1  0.02841300  0.27349700  0.49689500  1
  Cd  Cd8  1  0.22434400  0.73589000  0.68092200  1
  Cd  Cd9  1  0.27565600  0.76411000  0.18092200  1
  Cd  Cd10  1  0.72434400  0.76411000  0.31907800  1
  Cd  Cd11  1  0.77565600  0.73589000  0.81907800  1
  Cd  Cd12  1  0.77565600  0.26411000  0.31907800  1
  Cd  Cd13  1  0.72434400  0.23589000  0.81907800  1
  Cd  Cd14  1  0.27565600  0.23589000  0.68092200  1
  Cd  Cd15  1  0.22434400  0.26411000  0.18092200  1
  Cd  Cd16  1  0.27297200  0.51386800  0.93979000  1
  Cd  Cd17  1  0.22702800  0.98613200  0.43979000  1
  Cd  Cd18  1  0.77297200  0.98613200  0.06021000  1
  Cd  Cd19  1  0.72702800  0.51386800  0.56021000  1
  Cd  Cd20  1  0.72702800  0.48613200  0.06021000  1
  Cd  Cd21  1  0.77297200  0.01386800  0.56021000  1
  Cd  Cd22  1  0.22702800  0.01386800  0.93979000  1
  Cd  Cd23  1  0.27297200  0.48613200  0.43979000  1
  Cd  Cd24  1  0.00000000  0.51002200  0.75000000  1
  Cd  Cd25  1  0.50000000  0.98997800  0.25000000  1
  Cd  Cd26  1  0.00000000  0.48997800  0.25000000  1
  Cd  Cd27  1  0.50000000  0.01002200  0.75000000  1
  Sn  Sn0  1  0.00000000  0.01978200  0.75000000  1
  Sn  Sn1  1  0.50000000  0.48021800  0.25000000  1
  Sn  Sn2  1  0.00000000  0.98021800  0.25000000  1
  Sn  Sn3  1  0.50000000  0.51978200  0.75000000  1
  N  N0  1  0.10730900  0.80284400  0.82658100  1
  N  N1  1  0.39269100  0.69715600  0.32658100  1
  N  N2  1  0.60730900  0.69715600  0.17341900  1
  N  N3  1  0.89269100  0.80284400  0.67341900  1
  N  N4  1  0.89269100  0.19715600  0.17341900  1
  N  N5  1  0.60730900  0.30284400  0.67341900  1
  N  N6  1  0.39269100  0.30284400  0.82658100  1
  N  N7  1  0.10730900  0.19715600  0.32658100  1
  N  N8  1  0.15333100  0.70521000  0.51114800  1
  N  N9  1  0.34666900  0.79479000  0.01114800  1
  N  N10  1  0.65333100  0.79479000  0.48885200  1
  N  N11  1  0.84666900  0.70521000  0.98885200  1
  N  N12  1  0.84666900  0.29479000  0.48885200  1
  N  N13  1  0.65333100  0.20521000  0.98885200  1
  N  N14  1  0.34666900  0.20521000  0.51114800  1
  N  N15  1  0.15333100  0.29479000  0.01114800  1
  N  N16  1  0.40612000  0.73955300  0.66575500  1
  N  N17  1  0.09388000  0.76044700  0.16575500  1
  N  N18  1  0.90612000  0.76044700  0.33424500  1
  N  N19  1  0.59388000  0.73955300  0.83424500  1
  N  N20  1  0.59388000  0.26044700  0.33424500  1
  N  N21  1  0.90612000  0.23955300  0.83424500  1
  N  N22  1  0.09388000  0.23955300  0.66575500  1
  N  N23  1  0.40612000  0.26044700  0.16575500  1
loop_
_geom_bond_atom_site_label_1
_geom_bond_atom_site_label_2
_geom_bond_distance
_geom_bond_site_symmetry_2
Cd0 N11 2.200933 1_455
Cd0 N17 2.209628 1_556
Cd0 N0 2.331381 1_555
Cd1 N10 2.200933 1_555
Cd1 N16 2.209628 1_555
Cd1 N1 2.331381 1_555
Cd2 N9 2.200933 1_555
Cd2 N19 2.209628 1_554
Cd2 N2 2.331381 1_555
Cd3 N8 2.200933 1_655
Cd3 N18 2.209628 1_555
Cd3 N3 2.331381 1_555
Cd4 N15 2.200933 1_655
Cd4 N21 2.209628 1_554
Cd4 N4 2.331381 1_555
Cd5 N14 2.200933 1_555
Cd5 N20 2.209628 1_555
Cd5 N5 2.331381 1_555
Cd6 N13 2.200933 1_555
Cd6 N23 2.209628 1_556
Cd6 N6 2.331381 1_555
Cd7 N12 2.200933 1_455
Cd7 N22 2.209628 1_555
Cd7 N7 2.331381 1_555
Cd8 N16 2.202642 1_555
Cd8 N8 2.242673 1_555
Cd8 N0 2.306075 1_555
Cd9 N17 2.202642 1_555
Cd9 N9 2.242673 1_555
Cd9 N1 2.306075 1_555
Cd10 N18 2.202642 1_555
Cd10 N10 2.242673 1_555
Cd10 N2 2.306075 1_555
Cd11 N19 2.202642 1_555
Cd11 N11 2.242673 1_555
Cd11 N3 2.306075 1_555
Cd12 N20 2.202642 1_555
Cd12 N12 2.242673 1_555
Cd12 N4 2.306075 1_555
Cd13 N21 2.202642 1_555
Cd13 N13 2.242673 1_555
Cd13 N5 2.306075 1_555
Cd14 N22 2.202642 1_555
Cd14 N14 2.242673 1_555
Cd14 N6 2.306075 1_555
Cd15 N23 2.202642 1_555
Cd15 N15 2.242673 1_555
Cd15 N7 2.306075 1_555
Cd16 N15 2.205735 1_556
Cd16 N9 2.208202 1_556
Cd16 N6 2.421137 1_555
Cd17 N14 2.205735 1_565
Cd17 N8 2.208202 1_555
Cd17 N7 2.421137 1_565
Cd18 N13 2.205735 1_564
Cd18 N11 2.208202 1_554
Cd18 N4 2.421137 1_565
Cd19 N12 2.205735 1_555
Cd19 N10 2.208202 1_555
Cd19 N5 2.421137 1_555
Cd20 N11 2.205735 1_554
Cd20 N13 2.208202 1_554
Cd20 N2 2.421137 1_555
Cd21 N10 2.205735 1_545
Cd21 N12 2.208202 1_555
Cd21 N3 2.421137 1_545
Cd22 N9 2.205735 1_546
Cd22 N15 2.208202 1_556
Cd22 N0 2.421137 1_545
Cd23 N8 2.205735 1_555
Cd23 N14 2.208202 1_555
Cd23 N1 2.421137 1_555
Cd24 N21 2.328481 1_455
Cd24 N22 2.328481 1_555
Cd24 N0 2.483042 1_555
Cd24 N3 2.483042 1_455
Cd25 N20 2.328481 1_565
Cd25 N23 2.328481 1_565
Cd25 N2 2.483042 1_555
Cd25 N1 2.483042 1_555
Cd26 N18 2.328481 1_455
Cd26 N17 2.328481 1_555
Cd26 N7 2.483042 1_555
Cd26 N4 2.483042 1_455
Cd27 N16 2.328481 1_545
Cd27 N19 2.328481 1_545
Cd27 N5 2.483042 1_555
Cd27 N6 2.483042 1_555
N0 Sn0 2.128827 1_565
N1 Sn1 2.128827 1_555
N2 Sn1 2.128827 1_555
N3 Sn0 2.128827 1_665
N4 Sn2 2.128827 1_645
N5 Sn3 2.128827 1_555
N6 Sn3 2.128827 1_555
N7 Sn2 2.128827 1_545
N16 Sn3 2.090985 1_555
N17 Sn2 2.090985 1_555
N18 Sn2 2.090985 1_655
N19 Sn3 2.090985 1_555
N20 Sn1 2.090985 1_555
N21 Sn0 2.090985 1_655
N22 Sn0 2.090985 1_555
N23 Sn1 2.090985 1_555
