# generated using pymatgen
data_Ca4Al2P2H10O13F8
_symmetry_space_group_name_H-M   'P 1'
_cell_length_a   6.26571705
_cell_length_b   9.93954434
_cell_length_c   13.59596908
_cell_angle_alpha   89.66431257
_cell_angle_beta   77.73912733
_cell_angle_gamma   88.59177142
_symmetry_Int_Tables_number   1
_chemical_formula_structural   Ca4Al2P2H10O13F8
_chemical_formula_sum   'Ca8 Al4 P4 H20 O26 F16'
_cell_volume   827.17142125
_cell_formula_units_Z   2
loop_
 _symmetry_equiv_pos_site_id
 _symmetry_equiv_pos_as_xyz
  1  'x, y, z'
loop_
 _atom_site_type_symbol
 _atom_site_label
 _atom_site_symmetry_multiplicity
 _atom_site_fract_x
 _atom_site_fract_y
 _atom_site_fract_z
 _atom_site_occupancy
  Ca  Ca0  1  0.98924000  0.29920000  0.85453100  1
  Ca  Ca1  1  0.01076000  0.70080000  0.14546900  1
  Ca  Ca2  1  0.54316200  0.22068600  0.36768800  1
  Ca  Ca3  1  0.45683800  0.77931400  0.63231200  1
  Ca  Ca4  1  0.33065200  0.40155500  0.60611900  1
  Ca  Ca5  1  0.66934800  0.59844500  0.39388100  1
  Ca  Ca6  1  0.12871600  0.88577000  0.89716600  1
  Ca  Ca7  1  0.87128400  0.11423000  0.10283400  1
  Al  Al0  1  0.69902800  0.44638500  0.12165700  1
  Al  Al1  1  0.30097200  0.55361500  0.87834300  1
  Al  Al2  1  0.20402300  0.05935500  0.62415400  1
  Al  Al3  1  0.79597700  0.94064500  0.37584600  1
  P  P0  1  0.28741900  0.88824300  0.41929100  1
  P  P1  1  0.71258100  0.11175700  0.58070900  1
  P  P2  1  0.22206700  0.38092200  0.07809600  1
  P  P3  1  0.77793300  0.61907800  0.92190400  1
  H  H0  1  0.21347300  0.21848200  0.23615000  1
  H  H1  1  0.78652700  0.78151800  0.76385000  1
  H  H2  1  0.14567300  0.12320200  0.32989100  1
  H  H3  1  0.85432700  0.87679800  0.67010900  1
  H  H4  1  0.98422400  0.32501500  0.37233900  1
  H  H5  1  0.01577600  0.67498500  0.62766100  1
  H  H6  1  0.82063600  0.34526100  0.47782000  1
  H  H7  1  0.17936400  0.65473900  0.52218000  1
  H  H8  1  0.59486000  0.23225700  0.77875900  1
  H  H9  1  0.40514000  0.76774300  0.22124100  1
  H  H10  1  0.50788700  0.28241700  0.88913700  1
  H  H11  1  0.49211300  0.71758300  0.11086300  1
  H  H12  1  0.46352100  0.95495300  0.11659000  1
  H  H13  1  0.53647900  0.04504700  0.88341000  1
  H  H14  1  0.40014600  0.10939000  0.09752500  1
  H  H15  1  0.59985400  0.89061000  0.90247500  1
  H  H16  1  0.83797900  0.48241700  0.71341000  1
  H  H17  1  0.16202100  0.51758300  0.28659000  1
  H  H18  1  0.82612500  0.34641900  0.65583000  1
  H  H19  1  0.17387500  0.65358100  0.34417000  1
  O  O0  1  0.09920500  0.93619900  0.36985500  1
  O  O1  1  0.90079500  0.06380100  0.63014500  1
  O  O2  1  0.49131700  0.96996300  0.37185100  1
  O  O3  1  0.50868300  0.03003700  0.62814900  1
  O  O4  1  0.33296100  0.73446500  0.40170000  1
  O  O5  1  0.66703900  0.26553500  0.59830000  1
  O  O6  1  0.23420200  0.91037800  0.53519000  1
  O  O7  1  0.76579800  0.08962200  0.46481000  1
  O  O8  1  0.19242400  0.23099400  0.10754500  1
  O  O9  1  0.80757600  0.76900600  0.89245500  1
  O  O10  1  0.39996900  0.44407700  0.12424700  1
  O  O11  1  0.60003100  0.55592300  0.87575300  1
  O  O12  1  0.00719800  0.46223200  0.12139200  1
  O  O13  1  0.99280200  0.53776800  0.87860800  1
  O  O14  1  0.27395500  0.39191100  0.96023000  1
  O  O15  1  0.72604500  0.60808900  0.03977000  1
  O  O16  1  0.20664000  0.21317700  0.31002000  1
  O  O17  1  0.79336000  0.78682300  0.68998000  1
  O  O18  1  0.84562400  0.37143700  0.40587900  1
  O  O19  1  0.15437600  0.62856300  0.59412100  1
  O  O20  1  0.61817900  0.22134200  0.84757800  1
  O  O21  1  0.38182100  0.77865800  0.15242200  1
  O  O22  1  0.52030500  0.04706700  0.10670100  1
  O  O23  1  0.47969500  0.95293300  0.89329900  1
  O  O24  1  0.91975600  0.39865400  0.69380400  1
  O  O25  1  0.08024400  0.60134600  0.30619600  1
  F  F0  1  0.19029700  0.19627900  0.71396300  1
  F  F1  1  0.80970300  0.80372100  0.28603700  1
  F  F2  1  0.27050200  0.18853000  0.52472400  1
  F  F3  1  0.72949800  0.81147000  0.47527600  1
  F  F4  1  0.00471900  0.09892100  0.92953100  1
  F  F5  1  0.99528100  0.90107900  0.07046900  1
  F  F6  1  0.65962300  0.56298000  0.22838800  1
  F  F7  1  0.34037700  0.43702000  0.77161200  1
  F  F8  1  0.41339300  0.42667400  0.43294800  1
  F  F9  1  0.58660700  0.57332600  0.56705200  1
  F  F10  1  0.68112900  0.29977800  0.20668300  1
  F  F11  1  0.31887100  0.70022200  0.79331700  1
  F  F12  1  0.16145700  0.93297300  0.72651200  1
  F  F13  1  0.83854300  0.06702700  0.27348800  1
  F  F14  1  0.77224500  0.32375700  0.01855800  1
  F  F15  1  0.22775500  0.67624300  0.98144200  1
loop_
_geom_bond_atom_site_label_1
_geom_bond_atom_site_label_2
_geom_bond_distance
_geom_bond_site_symmetry_2
Ca0 F4 2.240699 1_655
Ca0 F0 2.285395 1_655
Ca0 F14 2.363004 1_556
Ca0 O13 2.396939 1_555
Ca0 O20 2.489159 1_555
Ca0 O24 2.509903 1_555
Ca0 F7 2.657934 1_655
Ca0 O14 2.698519 1_655
Ca1 F5 2.240699 1_455
Ca1 F1 2.285395 1_455
Ca1 F15 2.363004 1_554
Ca1 O12 2.396939 1_555
Ca1 O21 2.489159 1_555
Ca1 O25 2.509903 1_555
Ca1 F6 2.657934 1_455
Ca1 O15 2.698519 1_455
Ca2 F8 2.296385 1_555
Ca2 F10 2.316599 1_555
Ca2 O16 2.403515 1_555
Ca2 F2 2.459455 1_555
Ca2 O7 2.461612 1_555
Ca2 F13 2.505102 1_555
Ca2 O2 2.519818 1_545
Ca2 O18 2.583216 1_555
Ca3 F9 2.296385 1_555
Ca3 F11 2.316599 1_555
Ca3 O17 2.403515 1_555
Ca3 F3 2.459455 1_555
Ca3 O6 2.461612 1_555
Ca3 F12 2.505102 1_555
Ca3 O3 2.519818 1_565
Ca3 O19 2.583216 1_555
Ca4 F7 2.293300 1_555
Ca4 F8 2.314192 1_555
Ca4 F9 2.351857 1_555
Ca4 O5 2.459273 1_555
Ca4 F2 2.468559 1_555
Ca4 O19 2.507465 1_555
Ca4 F0 2.567443 1_555
Ca4 O24 2.598090 1_455
Ca5 F6 2.293300 1_555
Ca5 F9 2.314192 1_555
Ca5 F8 2.351857 1_555
Ca5 O4 2.459273 1_555
Ca5 F3 2.468559 1_555
Ca5 O18 2.507465 1_555
Ca5 F1 2.567443 1_555
Ca5 O25 2.598090 1_655
Ca6 F4 2.251807 1_565
Ca6 O23 2.303747 1_555
Ca6 F5 2.331351 1_456
Ca6 F12 2.331391 1_555
Ca6 O9 2.360144 1_455
Ca6 F11 2.454063 1_555
Ca6 F15 2.499144 1_555
Ca7 F5 2.251807 1_545
Ca7 O22 2.303747 1_555
Ca7 F4 2.331351 1_654
Ca7 F13 2.331391 1_555
Ca7 O8 2.360144 1_655
Ca7 F10 2.454063 1_555
Ca7 F14 2.499144 1_555
Al0 F6 1.833905 1_555
Al0 F14 1.838575 1_555
Al0 F10 1.845432 1_555
Al0 O10 1.867362 1_555
Al0 O15 1.940058 1_555
Al0 O12 1.940415 1_655
Al1 F7 1.833905 1_555
Al1 F15 1.838575 1_555
Al1 F11 1.845432 1_555
Al1 O11 1.867362 1_555
Al1 O14 1.940058 1_555
Al1 O13 1.940415 1_455
Al2 F0 1.821997 1_555
Al2 F2 1.848320 1_555
Al2 F12 1.850450 1_545
Al2 O1 1.883759 1_455
Al2 O6 1.897766 1_545
Al2 O3 1.936060 1_555
Al3 F1 1.821997 1_555
Al3 F3 1.848320 1_555
Al3 F13 1.850450 1_565
Al3 O0 1.883759 1_655
Al3 O7 1.897766 1_565
Al3 O2 1.936060 1_555
H0 O16 0.997260 1_555
H1 O17 0.997260 1_555
H2 O16 0.994401 1_555
H3 O17 0.994401 1_555
H4 O18 0.994781 1_555
H5 O19 0.994781 1_555
H6 O18 0.991402 1_555
H7 O19 0.991402 1_555
H8 O20 0.982179 1_555
H9 O21 0.982179 1_555
H10 O20 0.991414 1_555
H11 O21 0.991414 1_555
H12 O22 0.988528 1_565
H13 O23 0.988528 1_545
H14 O22 0.991057 1_555
H15 O23 0.991057 1_555
H16 O24 0.974879 1_555
H17 O25 0.974879 1_555
H18 O24 1.013436 1_555
H18 O5 1.621611 1_555
H19 O25 1.013436 1_555
H19 O4 1.621611 1_555
O0 P0 1.541095 1_555
O1 P1 1.541095 1_555
O2 P0 1.550110 1_555
O3 P1 1.550110 1_555
O4 P0 1.558444 1_555
O5 P1 1.558444 1_555
O6 P0 1.555603 1_555
O7 P1 1.555603 1_555
O8 P2 1.546150 1_555
O9 P3 1.546150 1_555
O10 P2 1.538296 1_555
O11 P3 1.538296 1_555
O12 P2 1.558113 1_555
O13 P3 1.558113 1_555
O14 P2 1.569732 1_556
O15 P3 1.569732 1_554
