# generated using pymatgen
data_BaMnO3
_symmetry_space_group_name_H-M   'P 1'
_cell_length_a   7.73760550
_cell_length_b   7.73760550
_cell_length_c   7.73760486
_cell_angle_alpha   43.16578741
_cell_angle_beta   43.16578741
_cell_angle_gamma   43.16578577
_symmetry_Int_Tables_number   1
_chemical_formula_structural   BaMnO3
_chemical_formula_sum   'Ba3 Mn3 O9'
_cell_volume   196.58101952
_cell_formula_units_Z   3
loop_
 _symmetry_equiv_pos_site_id
 _symmetry_equiv_pos_as_xyz
  1  'x, y, z'
loop_
 _atom_site_type_symbol
 _atom_site_label
 _atom_site_symmetry_multiplicity
 _atom_site_fract_x
 _atom_site_fract_y
 _atom_site_fract_z
 _atom_site_occupancy
  Ba  Ba0  1  0.78147576  0.78147576  0.78147576  1
  Ba  Ba1  1  0.21852424  0.21852424  0.21852424  1
  Ba  Ba2  1  0.00000000  0.00000000  -0.00000000  1
  Mn  Mn0  1  0.61899801  0.61899801  0.61899801  1
  Mn  Mn1  1  0.38100199  0.38100199  0.38100199  1
  Mn  Mn2  1  0.50000000  0.50000000  0.50000000  1
  O  O0  1  0.00000000  0.50000000  0.50000000  1
  O  O1  1  0.50000000  0.00000000  0.50000000  1
  O  O2  1  0.50000000  0.50000000  -0.00000000  1
  O  O3  1  0.29514527  0.29514527  0.73427261  1
  O  O4  1  0.73427261  0.29514527  0.29514527  1
  O  O5  1  0.29514527  0.73427261  0.29514527  1
  O  O6  1  0.26572739  0.70485473  0.70485473  1
  O  O7  1  0.70485473  0.70485473  0.26572739  1
  O  O8  1  0.70485473  0.26572739  0.70485473  1
loop_
_geom_bond_atom_site_label_1
_geom_bond_atom_site_label_2
_geom_bond_distance
_geom_bond_site_symmetry_2
Ba0 O5 2.856668 1_655
Ba0 O4 2.856668 1_565
Ba0 O3 2.856668 1_565
Ba0 O3 2.856668 1_655
Ba0 O4 2.856668 1_556
Ba0 O5 2.856668 1_556
Ba0 O0 2.919152 1_655
Ba0 O1 2.919152 1_565
Ba0 O2 2.919152 1_556
Ba0 O7 2.962143 1_556
Ba0 O8 2.962143 1_565
Ba0 O6 2.962143 1_655
Ba1 O8 2.856668 1_455
Ba1 O6 2.856668 1_545
Ba1 O7 2.856668 1_455
Ba1 O7 2.856668 1_545
Ba1 O8 2.856668 1_554
Ba1 O6 2.856668 1_554
Ba1 O1 2.919152 1_555
Ba1 O0 2.919152 1_555
Ba1 O2 2.919152 1_555
Ba1 O3 2.962143 1_554
Ba1 O5 2.962143 1_545
Ba1 O4 2.962143 1_455
Ba2 O0 2.846254 1_554
Ba2 O1 2.846254 1_455
Ba2 O1 2.846254 1_554
Ba2 O0 2.846254 1_545
Ba2 O2 2.846254 1_455
Ba2 O2 2.846254 1_545
Ba2 O8 2.926930 1_454
Ba2 O5 2.926930 1_545
Ba2 O4 2.926930 1_455
Ba2 O6 2.926930 1_544
Ba2 O3 2.926930 1_554
Ba2 O7 2.926930 1_445
Mn0 O7 1.923631 1_555
Mn0 O6 1.923631 1_555
Mn0 O8 1.923631 1_555
Mn0 O2 1.924547 1_556
Mn0 O1 1.924548 1_565
Mn0 O0 1.924548 1_655
Mn1 O3 1.923631 1_555
Mn1 O4 1.923631 1_555
Mn1 O5 1.923631 1_555
Mn1 O2 1.924547 1_555
Mn1 O1 1.924548 1_555
Mn1 O0 1.924548 1_555
Mn2 O5 1.895559 1_555
Mn2 O8 1.895559 1_555
Mn2 O4 1.895559 1_555
Mn2 O6 1.895559 1_555
Mn2 O7 1.895559 1_555
Mn2 O3 1.895559 1_555
