# generated using pymatgen
data_NdWO2
_symmetry_space_group_name_H-M   'P 1'
_cell_length_a   7.67658844
_cell_length_b   7.67658844
_cell_length_c   7.67658844
_cell_angle_alpha   130.22374098
_cell_angle_beta   130.22374098
_cell_angle_gamma   73.04933065
_symmetry_Int_Tables_number   1
_chemical_formula_structural   NdWO2
_chemical_formula_sum   'Nd4 W4 O8'
_cell_volume   257.54633686
_cell_formula_units_Z   4
loop_
 _symmetry_equiv_pos_site_id
 _symmetry_equiv_pos_as_xyz
  1  'x, y, z'
loop_
 _atom_site_type_symbol
 _atom_site_label
 _atom_site_symmetry_multiplicity
 _atom_site_fract_x
 _atom_site_fract_y
 _atom_site_fract_z
 _atom_site_occupancy
  Nd  Nd0  1  0.87500000  0.62500000  0.25000000  1
  Nd  Nd1  1  0.37500000  0.62500000  0.75000000  1
  Nd  Nd2  1  0.37500000  0.62500000  0.25000000  1
  Nd  Nd3  1  0.37500000  0.12500000  0.75000000  1
  W  W0  1  0.37500000  0.12500000  0.25000000  1
  W  W1  1  0.87500000  0.12500000  0.75000000  1
  W  W2  1  0.87500000  0.12500000  0.25000000  1
  W  W3  1  0.87500000  0.62500000  0.75000000  1
  O  O0  1  0.17429100  0.39180900  0.21751800  1
  O  O1  1  0.17429100  0.95677300  0.78248200  1
  O  O2  1  0.14180900  0.42429100  0.71751800  1
  O  O3  1  0.57570900  0.85819100  0.28248200  1
  O  O4  1  0.70677300  0.42429100  0.28248200  1
  O  O5  1  0.57570900  0.29322700  0.71751800  1
  O  O6  1  0.60819100  0.82570900  0.78248200  1
  O  O7  1  0.04322700  0.82570900  0.21751800  1
loop_
_geom_bond_atom_site_label_1
_geom_bond_atom_site_label_2
_geom_bond_distance
_geom_bond_site_symmetry_2
Nd0 O7 2.485190 1_655
Nd0 O4 2.485190 1_555
Nd0 O3 2.512084 1_555
Nd0 O1 2.512084 1_655
Nd0 O5 2.512084 1_554
Nd0 O0 2.512084 1_655
Nd1 O6 2.485190 1_555
Nd1 O2 2.485190 1_555
Nd1 O0 2.512084 1_555
Nd1 O1 2.512084 1_555
Nd1 O3 2.512084 1_556
Nd1 O5 2.512084 1_555
Nd2 O3 2.485190 1_555
Nd2 O0 2.485190 1_555
Nd2 O4 2.512084 1_555
Nd2 O2 2.512084 1_554
Nd2 O6 2.512084 1_555
Nd2 O7 2.512084 1_555
Nd3 O5 2.485190 1_555
Nd3 O1 2.485190 1_545
Nd3 O4 2.512084 1_556
Nd3 O2 2.512084 1_555
Nd3 O7 2.512084 1_545
Nd3 O6 2.512084 1_545
O0 W0 2.225865 1_555
O0 W1 2.225865 1_454
O1 W1 2.225865 1_465
O1 W0 2.225865 1_566
O2 W3 2.225865 1_455
O2 W2 2.225865 1_455
O3 W1 2.225865 1_565
O3 W0 2.225865 1_565
O4 W3 2.225865 1_555
O4 W2 2.225865 1_555
O5 W1 2.225865 1_555
O5 W0 2.225865 1_555
O6 W3 2.225865 1_555
O6 W2 2.225865 1_566
O7 W3 2.225865 1_454
O7 W2 2.225865 1_465
