# generated using pymatgen
data_KMnP(OF)3
_symmetry_space_group_name_H-M   'P 1'
_cell_length_a   12.87399000
_cell_length_b   5.51792500
_cell_length_c   7.87984319
_cell_angle_alpha   65.76172373
_cell_angle_beta   90.00000000
_cell_angle_gamma   90.00000000
_symmetry_Int_Tables_number   1
_chemical_formula_structural   KMnP(OF)3
_chemical_formula_sum   'K4 Mn4 P4 O12 F12'
_cell_volume   510.42044717
_cell_formula_units_Z   4
loop_
 _symmetry_equiv_pos_site_id
 _symmetry_equiv_pos_as_xyz
  1  'x, y, z'
loop_
 _atom_site_type_symbol
 _atom_site_label
 _atom_site_symmetry_multiplicity
 _atom_site_fract_x
 _atom_site_fract_y
 _atom_site_fract_z
 _atom_site_occupancy
  K  K0  1  0.20053000  0.64669200  0.81113700  1
  K  K1  1  0.29947000  0.64669200  0.31113700  1
  K  K2  1  0.79947000  0.35330800  0.18886300  1
  K  K3  1  0.70053000  0.35330800  0.68886300  1
  Mn  Mn0  1  0.00000000  0.50000000  0.50000000  1
  Mn  Mn1  1  0.50000000  0.50000000  0.00000000  1
  Mn  Mn2  1  0.00000000  0.00000000  0.00000000  1
  Mn  Mn3  1  0.50000000  0.00000000  0.50000000  1
  P  P0  1  0.10677100  0.12615500  0.31458900  1
  P  P1  1  0.39322900  0.12615500  0.81458900  1
  P  P2  1  0.89322900  0.87384500  0.68541100  1
  P  P3  1  0.60677100  0.87384500  0.18541100  1
  O  O0  1  0.11485000  0.83344000  0.44345800  1
  O  O1  1  0.38515000  0.83344000  0.94345800  1
  O  O2  1  0.88515000  0.16656000  0.55654200  1
  O  O3  1  0.61485000  0.16656000  0.05654200  1
  O  O4  1  0.02764400  0.19648700  0.15565900  1
  O  O5  1  0.47235600  0.19648700  0.65565900  1
  O  O6  1  0.97235600  0.80351300  0.84434100  1
  O  O7  1  0.52764400  0.80351300  0.34434100  1
  O  O8  1  0.10233900  0.31281700  0.41391300  1
  O  O9  1  0.39766100  0.31281700  0.91391300  1
  O  O10  1  0.89766100  0.68718300  0.58608700  1
  O  O11  1  0.60233900  0.68718300  0.08608700  1
  F  F0  1  0.05533800  0.33451200  0.74287000  1
  F  F1  1  0.44466200  0.33451200  0.24287000  1
  F  F2  1  0.94466200  0.66548800  0.25713000  1
  F  F3  1  0.55533800  0.66548800  0.75713000  1
  F  F4  1  0.13471400  0.86623400  0.03793700  1
  F  F5  1  0.36528600  0.86623400  0.53793700  1
  F  F6  1  0.86528600  0.13376600  0.96206300  1
  F  F7  1  0.63471400  0.13376600  0.46206300  1
  F  F8  1  0.21740700  0.20639500  0.21159800  1
  F  F9  1  0.28259300  0.20639500  0.71159800  1
  F  F10  1  0.78259300  0.79360500  0.78840200  1
  F  F11  1  0.71740700  0.79360500  0.28840200  1
loop_
_geom_bond_atom_site_label_1
_geom_bond_atom_site_label_2
_geom_bond_distance
_geom_bond_site_symmetry_2
K0 O0 2.867287 1_555
K0 O1 2.946242 1_555
K0 O9 3.043953 1_555
K0 O6 3.103563 1_455
K1 O1 2.867287 1_554
K1 O0 2.946242 1_555
K1 O8 3.043953 1_555
K1 O7 3.103563 1_555
K2 O2 2.867287 1_555
K2 O3 2.946242 1_555
K2 O11 3.043953 1_555
K2 O4 3.103563 1_655
K3 O3 2.867287 1_556
K3 O2 2.946242 1_555
K3 O10 3.043953 1_555
K3 O5 3.103563 1_555
Mn0 O10 1.959100 1_455
Mn0 O8 1.959100 1_555
Mn0 O0 2.257621 1_555
Mn0 O2 2.257621 1_455
Mn1 O11 1.959100 1_555
Mn1 O9 1.959100 1_554
Mn1 O3 2.257621 1_555
Mn1 O1 2.257621 1_554
Mn2 O4 1.974464 1_555
Mn2 O6 1.974464 1_444
Mn3 O7 1.974464 1_545
Mn3 O5 1.974464 1_555
O0 P0 1.517932 1_565
O1 P1 1.517932 1_565
O2 P2 1.517932 1_545
O3 P3 1.517932 1_545
O4 P0 1.535458 1_555
O5 P1 1.535458 1_555
O6 P2 1.535458 1_555
O7 P3 1.535458 1_555
O8 P0 1.529236 1_555
O9 P1 1.529236 1_555
O10 P2 1.529236 1_555
O11 P3 1.529236 1_555
F0 Mn0 1.889197 1_555
F0 Mn2 2.224667 1_556
F0 K0 2.740696 1_555
F1 Mn1 1.889197 1_555
F1 Mn3 2.224667 1_555
F1 K1 2.740696 1_555
F2 Mn0 1.889197 1_655
F2 Mn2 2.224667 1_665
F2 K2 2.740696 1_555
F3 Mn1 1.889197 1_556
F3 Mn3 2.224667 1_565
F3 K3 2.740696 1_555
F4 Mn2 1.860329 1_565
F4 K0 2.675249 1_554
F4 K1 2.908544 1_555
F5 Mn3 1.860329 1_565
F5 K1 2.675249 1_555
F5 K0 2.908544 1_555
F6 Mn2 1.860329 1_656
F6 K2 2.675249 1_556
F6 K3 2.908544 1_555
F7 Mn3 1.860329 1_555
F7 K3 2.675249 1_555
F7 K2 2.908544 1_555
F8 P0 1.608830 1_555
F8 K1 3.032915 1_555
F8 K1 3.046412 1_545
F8 K0 3.100436 1_554
F9 P1 1.608830 1_555
F9 K0 3.032915 1_555
F9 K0 3.046412 1_545
F9 K1 3.100436 1_555
F10 P2 1.608830 1_555
F10 K3 3.032915 1_555
F10 K3 3.046412 1_565
F10 K2 3.100436 1_556
F11 P3 1.608830 1_555
F11 K2 3.032915 1_555
F11 K2 3.046412 1_565
F11 K3 3.100436 1_555
