# generated using pymatgen
data_Na2LiFePCO7
_symmetry_space_group_name_H-M   'P 1'
_cell_length_a   6.67561700
_cell_length_b   8.84358954
_cell_length_c   10.33512443
_cell_angle_alpha   91.98489603
_cell_angle_beta   90.26083077
_cell_angle_gamma   91.11467526
_symmetry_Int_Tables_number   1
_chemical_formula_structural   Na2LiFePCO7
_chemical_formula_sum   'Na8 Li4 Fe4 P4 C4 O28'
_cell_volume   609.65888565
_cell_formula_units_Z   4
loop_
 _symmetry_equiv_pos_site_id
 _symmetry_equiv_pos_as_xyz
  1  'x, y, z'
loop_
 _atom_site_type_symbol
 _atom_site_label
 _atom_site_symmetry_multiplicity
 _atom_site_fract_x
 _atom_site_fract_y
 _atom_site_fract_z
 _atom_site_occupancy
  Na  Na0  1  0.23708500  0.91852300  0.87880500  1
  Na  Na1  1  0.24703900  0.91631100  0.38082300  1
  Na  Na2  1  0.50174200  0.74023900  0.62710900  1
  Na  Na3  1  0.00174800  0.73627100  0.12728900  1
  Na  Na4  1  0.49900600  0.73770800  0.12637800  1
  Na  Na5  1  0.49977400  0.25975900  0.87310100  1
  Na  Na6  1  0.50579300  0.25896600  0.37594900  1
  Na  Na7  1  0.99647100  0.25938700  0.37655400  1
  Li  Li0  1  0.03139500  0.71608400  0.61356600  1
  Li  Li1  1  0.96950300  0.28094200  0.88478700  1
  Li  Li2  1  0.77805300  0.08991600  0.62922400  1
  Li  Li3  1  0.75574900  0.09972600  0.11979500  1
  Fe  Fe0  1  0.74831800  0.65117800  0.88752500  1
  Fe  Fe1  1  0.75601200  0.64667700  0.39526300  1
  Fe  Fe2  1  0.24796500  0.34716500  0.61402800  1
  Fe  Fe3  1  0.24273600  0.34874800  0.10728800  1
  P  P0  1  0.23620200  0.58456200  0.85152100  1
  P  P1  1  0.25362100  0.58424800  0.35915100  1
  P  P2  1  0.75854500  0.40943100  0.65032100  1
  P  P3  1  0.74635600  0.40923900  0.14316700  1
  C  C0  1  0.75988400  0.95805200  0.86230700  1
  C  C1  1  0.75250700  0.94894100  0.35781700  1
  C  C2  1  0.24154900  0.05009800  0.63585500  1
  C  C3  1  0.24764900  0.05711600  0.13660800  1
  O  O0  1  0.22559100  0.90401100  0.64146600  1
  O  O1  1  0.25563400  0.91242400  0.14663700  1
  O  O2  1  0.75193100  0.92089200  0.98316000  1
  O  O3  1  0.75220700  0.92053600  0.48056200  1
  O  O4  1  0.75006400  0.85222200  0.77095000  1
  O  O5  1  0.75999600  0.83648400  0.27232300  1
  O  O6  1  0.06051300  0.68494700  0.89949000  1
  O  O7  1  0.43321000  0.67314500  0.89012100  1
  O  O8  1  0.07112800  0.67928600  0.40745800  1
  O  O9  1  0.44381100  0.68192600  0.39671200  1
  O  O10  1  0.22505000  0.56718800  0.70029100  1
  O  O11  1  0.77277100  0.56767800  0.58925500  1
  O  O12  1  0.24418500  0.56232700  0.20864900  1
  O  O13  1  0.74556200  0.56350900  0.07823500  1
  O  O14  1  0.22596100  0.42526900  0.90962100  1
  O  O15  1  0.76824000  0.43127200  0.80099600  1
  O  O16  1  0.25582300  0.42892200  0.42169300  1
  O  O17  1  0.75699600  0.43449200  0.29294300  1
  O  O18  1  0.56354800  0.32034900  0.61085400  1
  O  O19  1  0.93209600  0.30425300  0.60577100  1
  O  O20  1  0.55658300  0.31091400  0.10689500  1
  O  O21  1  0.92526500  0.30903400  0.09585800  1
  O  O22  1  0.25191300  0.13577000  0.74051100  1
  O  O23  1  0.24036800  0.14614700  0.23981000  1
  O  O24  1  0.24751400  0.11555600  0.52457000  1
  O  O25  1  0.24592100  0.11798100  0.02376800  1
  O  O26  1  0.77735800  0.09850800  0.83002800  1
  O  O27  1  0.74605800  0.08567100  0.31714100  1
loop_
_geom_bond_atom_site_label_1
_geom_bond_atom_site_label_2
_geom_bond_distance
_geom_bond_site_symmetry_2
Na0 O25 2.274121 1_566
Na0 O6 2.374903 1_555
Na0 O22 2.434737 1_565
Na0 O0 2.452613 1_555
Na0 O7 2.561943 1_555
Na0 O1 2.772720 1_556
Na1 O24 2.265024 1_565
Na1 O8 2.407444 1_555
Na1 O1 2.420352 1_555
Na1 O9 2.485259 1_555
Na1 O23 2.542726 1_565
Na1 O0 2.704066 1_555
Na2 O0 2.368455 1_555
Na2 O4 2.398012 1_555
Na2 O11 2.414113 1_555
Na2 O9 2.446287 1_555
Na2 O10 2.511736 1_555
Na2 O3 2.778225 1_555
Na2 O7 2.839507 1_555
Na3 O1 2.282962 1_555
Na3 O13 2.313630 1_455
Na3 O5 2.371160 1_455
Na3 O6 2.417456 1_554
Na3 O12 2.422135 1_555
Na3 O2 2.813822 1_454
Na4 O1 2.269161 1_555
Na4 O13 2.320105 1_555
Na4 O5 2.428847 1_555
Na4 O12 2.454413 1_555
Na4 O7 2.522885 1_554
Na4 O2 2.783626 1_554
Na4 O9 2.878016 1_555
Na5 O22 2.371204 1_555
Na5 O14 2.387070 1_555
Na5 O26 2.394134 1_555
Na5 O15 2.460201 1_555
Na5 O20 2.469048 1_556
Na5 O25 2.635374 1_556
Na5 O18 2.813650 1_555
Na6 O16 2.307097 1_555
Na6 O27 2.308821 1_555
Na6 O23 2.434330 1_555
Na6 O17 2.441660 1_555
Na6 O18 2.495887 1_555
Na6 O24 2.648505 1_555
Na6 O20 2.854708 1_555
Na7 O16 2.303530 1_655
Na7 O27 2.314524 1_555
Na7 O23 2.374338 1_655
Na7 O17 2.424221 1_555
Na7 O19 2.430020 1_555
Na7 O24 2.638377 1_655
Li0 O10 2.084696 1_555
Li0 O0 2.098902 1_555
Li0 O11 2.156710 1_455
Li0 O8 2.162010 1_555
Li1 O26 2.101943 1_555
Li1 O15 2.112153 1_555
Li1 O14 2.124683 1_655
Li1 O21 2.208803 1_556
Li2 O26 2.074123 1_555
Li2 O3 2.112417 1_545
Li2 O19 2.160424 1_555
Li2 O18 2.525322 1_555
Li2 O4 2.607606 1_545
Li3 O27 2.048911 1_555
Li3 O2 2.083131 1_544
Li3 O21 2.172758 1_555
Li3 O20 2.320753 1_555
Fe0 O6 2.102096 1_655
Fe0 O7 2.116458 1_555
Fe0 O15 2.119007 1_555
Fe0 O13 2.142886 1_556
Fe0 O4 2.181866 1_555
Fe0 O2 2.549729 1_555
Fe1 O9 2.113351 1_555
Fe1 O8 2.120288 1_655
Fe1 O17 2.121928 1_555
Fe1 O5 2.139874 1_555
Fe1 O11 2.149043 1_555
Fe1 O3 2.549137 1_555
Fe2 O10 2.120614 1_555
Fe2 O18 2.124871 1_555
Fe2 O19 2.136016 1_455
Fe2 O16 2.139141 1_555
Fe2 O24 2.217819 1_555
Fe2 O22 2.318491 1_555
Fe3 O12 2.127729 1_555
Fe3 O20 2.128089 1_555
Fe3 O21 2.143522 1_455
Fe3 O14 2.177296 1_554
Fe3 O25 2.188669 1_555
Fe3 O23 2.292485 1_555
C0 O26 1.300470 1_565
C0 O2 1.303553 1_555
C0 O4 1.306737 1_555
C1 O27 1.295292 1_565
C1 O3 1.301727 1_555
C1 O5 1.309112 1_555
C2 O0 1.297573 1_545
C2 O22 1.299714 1_555
C2 O24 1.305820 1_555
C3 O1 1.289474 1_545
C3 O25 1.301355 1_555
C3 O23 1.305267 1_555
O6 P0 1.557164 1_555
O7 P0 1.560756 1_555
O8 P1 1.567198 1_555
O9 P1 1.561562 1_555
O10 P0 1.566499 1_555
O11 P2 1.556411 1_555
O12 P1 1.561647 1_555
O13 P3 1.541222 1_555
O14 P0 1.550793 1_555
O15 P2 1.563416 1_555
O16 P1 1.538542 1_555
O17 P3 1.557406 1_555
O18 P2 1.553870 1_555
O19 P2 1.560947 1_555
O20 P3 1.559420 1_555
O21 P3 1.570754 1_555
