# generated using pymatgen
data_Sc2SiO5
_symmetry_space_group_name_H-M   'P 1'
_cell_length_a   6.43544577
_cell_length_b   7.57688977
_cell_length_c   9.26625867
_cell_angle_alpha   71.72247669
_cell_angle_beta   69.67830123
_cell_angle_gamma   64.86701452
_symmetry_Int_Tables_number   1
_chemical_formula_structural   Sc2SiO5
_chemical_formula_sum   'Sc8 Si4 O20'
_cell_volume   376.17649446
_cell_formula_units_Z   4
loop_
 _symmetry_equiv_pos_site_id
 _symmetry_equiv_pos_as_xyz
  1  'x, y, z'
loop_
 _atom_site_type_symbol
 _atom_site_label
 _atom_site_symmetry_multiplicity
 _atom_site_fract_x
 _atom_site_fract_y
 _atom_site_fract_z
 _atom_site_occupancy
  Sc  Sc0  1  0.70081702  0.60355024  0.48449189  1
  Sc  Sc1  1  0.29918123  0.39644991  0.51550793  1
  Sc  Sc2  1  0.78895577  0.89642429  0.01547208  1
  Sc  Sc3  1  0.21104673  0.10357520  0.98452776  1
  Sc  Sc4  1  0.52274038  0.56225244  0.15627823  1
  Sc  Sc5  1  0.47726529  0.43774703  0.84372264  1
  Sc  Sc6  1  0.24128866  0.93782485  0.34373169  1
  Sc  Sc7  1  0.75870412  0.06218115  0.65627519  1
  Si  Si0  1  0.72114648  0.05486703  0.30851784  1
  Si  Si1  1  0.27885319  0.94513299  0.69148146  1
  Si  Si2  1  0.08450374  0.44519201  0.19148669  1
  Si  Si3  1  0.91549732  0.55480910  0.80851307  1
  O  O0  1  0.57683010  0.90518882  0.35109178  1
  O  O1  1  0.42316807  0.09481096  0.64890929  1
  O  O2  1  0.83302437  0.59484328  0.14893830  1
  O  O3  1  0.16697843  0.40515780  0.85106123  1
  O  O4  1  0.41826384  0.86457618  0.10628102  1
  O  O5  1  0.58173766  0.13542246  0.89371720  1
  O  O6  1  0.38913439  0.63549655  0.39376104  1
  O  O7  1  0.61086620  0.36450126  0.60623982  1
  O  O8  1  0.54598591  0.28364211  0.31348317  1
  O  O9  1  0.45401342  0.71635927  0.68651763  1
  O  O10  1  0.14302049  0.21643491  0.18652327  1
  O  O11  1  0.85697847  0.78356765  0.81347509  1
  O  O12  1  0.28546318  0.52894009  0.06542295  1
  O  O13  1  0.71453767  0.47105858  0.93457560  1
  O  O14  1  0.87981996  0.97106223  0.43457004  1
  O  O15  1  0.12018258  0.02893622  0.56542813  1
  O  O16  1  0.89158250  0.03110233  0.13380832  1
  O  O17  1  0.10841824  0.96889833  0.86618994  1
  O  O18  1  0.05654034  0.46898577  0.36616474  1
  O  O19  1  0.94345422  0.53101193  0.63383696  1
loop_
_geom_bond_atom_site_label_1
_geom_bond_atom_site_label_2
_geom_bond_distance
_geom_bond_site_symmetry_2
O0 Si0 1.632160 1_565
O0 Sc6 2.089682 1_555
O0 Sc0 2.179925 1_555
O1 Si1 1.632154 1_545
O1 Sc7 2.089682 1_555
O1 Sc1 2.179931 1_555
O2 Si2 1.632272 1_655
O2 Sc4 2.089703 1_555
O2 Sc2 2.179895 1_555
O3 Si3 1.632280 1_455
O3 Sc5 2.089720 1_555
O3 Sc3 2.179906 1_555
O4 Sc3 2.010632 1_564
O4 Sc4 2.038707 1_555
O4 Sc6 2.221448 1_555
O4 Sc2 2.329071 1_555
O5 Sc2 2.010640 1_546
O5 Sc5 2.038714 1_555
O5 Sc7 2.221354 1_555
O5 Sc3 2.329062 1_555
O6 Sc1 2.010906 1_555
O6 Sc6 2.038734 1_555
O6 Sc4 2.221774 1_555
O6 Sc0 2.328085 1_555
O7 Sc0 2.010916 1_555
O7 Sc7 2.038679 1_555
O7 Sc5 2.221781 1_555
O7 Sc1 2.328099 1_555
O8 Si0 1.622251 1_555
O8 Sc1 2.131416 1_555
O8 Sc4 2.134236 1_555
O9 Si1 1.622240 1_555
O9 Sc0 2.131424 1_555
O9 Sc5 2.134243 1_555
O10 Si2 1.622243 1_555
O10 Sc3 2.131458 1_554
O10 Sc6 2.134321 1_545
O11 Si3 1.622247 1_555
O11 Sc2 2.131464 1_556
O11 Sc7 2.134305 1_565
O12 Si2 1.619435 1_555
O12 Sc4 2.111341 1_555
O12 Sc5 2.150788 1_554
O13 Si3 1.619442 1_555
O13 Sc5 2.111295 1_555
O13 Sc4 2.150805 1_556
O14 Si0 1.619465 1_565
O14 Sc6 2.111519 1_655
O14 Sc7 2.150574 1_565
O15 Si1 1.619462 1_545
O15 Sc7 2.111568 1_455
O15 Sc6 2.150479 1_545
O16 Si0 1.624206 1_555
O16 Sc2 2.111215 1_545
O16 Sc3 2.224613 1_654
O17 Si1 1.624198 1_555
O17 Sc3 2.111227 1_565
O17 Sc2 2.224611 1_456
O18 Si2 1.624176 1_555
O18 Sc0 2.111276 1_455
O18 Sc1 2.224919 1_555
O19 Si3 1.624180 1_555
O19 Sc1 2.111295 1_655
O19 Sc0 2.224909 1_555
