# generated using pymatgen
data_Y5(Ge5Rh2)2
_symmetry_space_group_name_H-M   'P 1'
_cell_length_a   12.99545709
_cell_length_b   12.99547067
_cell_length_c   4.28950309
_cell_angle_alpha   89.99999863
_cell_angle_beta   89.99999460
_cell_angle_gamma   90.00006366
_symmetry_Int_Tables_number   1
_chemical_formula_structural   Y5(Ge5Rh2)2
_chemical_formula_sum   'Y10 Ge20 Rh8'
_cell_volume   724.42021025
_cell_formula_units_Z   2
loop_
 _symmetry_equiv_pos_site_id
 _symmetry_equiv_pos_as_xyz
  1  'x, y, z'
loop_
 _atom_site_type_symbol
 _atom_site_label
 _atom_site_symmetry_multiplicity
 _atom_site_fract_x
 _atom_site_fract_y
 _atom_site_fract_z
 _atom_site_occupancy
  Y  Y0  1  0.50000177  0.50003110  -0.00000005  1
  Y  Y1  1  0.00000409  -0.00000650  -0.00000001  1
  Y  Y2  1  0.67489792  0.17488276  0.49999991  1
  Y  Y3  1  0.32511728  0.82509958  0.49999999  1
  Y  Y4  1  0.17490340  0.32509259  0.50000004  1
  Y  Y5  1  0.82508143  0.67491044  0.50000003  1
  Y  Y6  1  0.88741639  0.38741491  0.49999997  1
  Y  Y7  1  0.11260135  0.61259701  0.50000014  1
  Y  Y8  1  0.38741828  0.11254866  0.49999995  1
  Y  Y9  1  0.61255548  0.88740921  0.49999995  1
  Ge  Ge0  1  0.56717204  0.06715485  -0.00000001  1
  Ge  Ge1  1  0.43282746  0.93281294  -0.00000001  1
  Ge  Ge2  1  0.06717074  0.43283046  0.00000000  1
  Ge  Ge3  1  0.93282722  0.56717456  -0.00000002  1
  Ge  Ge4  1  0.66162280  0.70083294  -0.00000001  1
  Ge  Ge5  1  0.33836130  0.29917452  0.00000000  1
  Ge  Ge6  1  0.16164797  0.79917497  0.00000019  1
  Ge  Ge7  1  0.83836740  0.20082262  -0.00000024  1
  Ge  Ge8  1  0.29918409  0.66165076  0.00000008  1
  Ge  Ge9  1  0.70082868  0.33837502  -0.00000002  1
  Ge  Ge10  1  0.20082786  0.16162408  -0.00000005  1
  Ge  Ge11  1  0.79916585  0.83835850  -0.00000003  1
  Ge  Ge12  1  0.65856545  0.50285019  0.49999990  1
  Ge  Ge13  1  0.34143867  0.49716663  0.50000007  1
  Ge  Ge14  1  0.15857883  0.99715314  0.50000002  1
  Ge  Ge15  1  0.84143074  0.00284610  0.49999981  1
  Ge  Ge16  1  0.49714470  0.65858378  0.50000003  1
  Ge  Ge17  1  0.50283774  0.34143696  0.50000008  1
  Ge  Ge18  1  0.00284740  0.15856229  0.50000001  1
  Ge  Ge19  1  0.99716440  0.84143455  0.49999996  1
  Rh  Rh0  1  0.74468468  0.52121432  0.00000001  1
  Rh  Rh1  1  0.25530800  0.47881333  -0.00000008  1
  Rh  Rh2  1  0.24472426  0.97878185  0.00000009  1
  Rh  Rh3  1  0.75527730  0.02118980  0.00000003  1
  Rh  Rh4  1  0.47879794  0.74471715  0.00000025  1
  Rh  Rh5  1  0.52120106  0.25528454  -0.00000013  1
  Rh  Rh6  1  0.02120237  0.24469477  0.00000025  1
  Rh  Rh7  1  0.97879666  0.75530363  -0.00000010  1
loop_
_geom_bond_atom_site_label_1
_geom_bond_atom_site_label_2
_geom_bond_distance
_geom_bond_site_symmetry_2
Ge0 Ge1 2.469007 1_545
Ge0 Rh3 2.516439 1_555
Ge0 Rh5 2.516768 1_555
Ge0 Y2 2.918859 1_555
Ge0 Y2 2.918859 1_554
Ge0 Y9 3.225544 1_545
Ge0 Y9 3.225544 1_544
Ge0 Y8 3.225643 1_555
Ge0 Y8 3.225643 1_554
Ge1 Rh4 2.516338 1_555
Ge1 Rh2 2.516424 1_555
Ge1 Y3 2.918670 1_555
Ge1 Y3 2.918670 1_554
Ge1 Y9 3.225424 1_554
Ge1 Y9 3.225425 1_555
Ge1 Y8 3.225511 1_565
Ge1 Y8 3.225512 1_564
Ge2 Ge3 2.469020 1_455
Ge2 Rh6 2.516834 1_555
Ge2 Rh1 2.516896 1_555
Ge2 Y4 2.918964 1_554
Ge2 Y4 2.918965 1_555
Ge2 Y6 3.225699 1_455
Ge2 Y6 3.225700 1_454
Ge2 Y7 3.225851 1_554
Ge2 Y7 3.225852 1_555
Ge3 Rh7 2.516754 1_555
Ge3 Rh0 2.516893 1_555
Ge3 Y5 2.919034 1_554
Ge3 Y5 2.919034 1_555
Ge3 Y6 3.225740 1_555
Ge3 Y6 3.225740 1_554
Ge3 Y7 3.225901 1_654
Ge3 Y7 3.225903 1_655
Ge4 Rh4 2.443380 1_555
Ge4 Rh0 2.571729 1_555
Ge4 Y5 3.037392 1_554
Ge4 Y5 3.037393 1_555
Ge4 Y9 3.299314 1_555
Ge4 Y9 3.299314 1_554
Ge4 Y0 3.349773 1_555
Ge5 Rh5 2.443586 1_555
Ge5 Rh1 2.571921 1_555
Ge5 Y4 3.037380 1_555
Ge5 Y4 3.037380 1_554
Ge5 Y8 3.299762 1_555
Ge5 Y8 3.299762 1_554
Ge5 Y0 3.350485 1_555
Ge6 Rh7 2.443674 1_455
Ge6 Rh2 2.571667 1_555
Ge6 Y3 3.037492 1_555
Ge6 Y3 3.037493 1_554
Ge6 Y7 3.299277 1_555
Ge6 Y7 3.299277 1_554
Ge6 Y1 3.350132 1_565
Ge7 Rh6 2.443470 1_655
Ge7 Rh3 2.572048 1_555
Ge7 Y2 3.037516 1_554
Ge7 Y2 3.037516 1_555
Ge7 Y6 3.299419 1_554
Ge7 Y6 3.299421 1_555
Ge7 Y1 3.350180 1_655
Ge8 Rh1 2.443515 1_555
Ge8 Rh4 2.571694 1_555
Ge8 Y3 3.037320 1_555
Ge8 Y3 3.037320 1_554
Ge8 Y7 3.299339 1_554
Ge8 Y7 3.299339 1_555
Ge8 Y0 3.349925 1_555
Ge9 Rh0 2.443478 1_555
Ge9 Rh5 2.571987 1_555
Ge9 Y2 3.037711 1_555
Ge9 Y2 3.037712 1_554
Ge9 Y6 3.299352 1_554
Ge9 Y6 3.299352 1_555
Ge9 Y0 3.350315 1_555
Ge10 Rh2 2.443639 1_545
Ge10 Rh6 2.571857 1_555
Ge10 Y4 3.037487 1_554
Ge10 Y4 3.037487 1_555
Ge10 Y8 3.299468 1_554
Ge10 Y8 3.299468 1_555
Ge10 Y1 3.350072 1_555
Ge11 Rh3 2.443477 1_565
Ge11 Rh7 2.571833 1_555
Ge11 Y5 3.037288 1_554
Ge11 Y5 3.037288 1_555
Ge11 Y9 3.299596 1_555
Ge11 Y9 3.299597 1_554
Ge11 Y1 3.350254 1_665
Ge12 Rh0 2.430931 1_555
Ge12 Rh0 2.430932 1_556
Ge12 Y0 2.974459 1_555
Ge12 Y0 2.974459 1_556
Ge12 Y5 3.111654 1_555
Ge12 Y6 3.330950 1_555
Ge13 Rh1 2.430986 1_556
Ge13 Rh1 2.430987 1_555
Ge13 Y0 2.974461 1_556
Ge13 Y0 2.974461 1_555
Ge13 Y4 3.111957 1_555
Ge13 Y7 3.330763 1_555
Ge14 Rh2 2.431098 1_555
Ge14 Rh2 2.431098 1_556
Ge14 Y1 2.974561 1_566
Ge14 Y1 2.974562 1_565
Ge14 Y3 3.111798 1_555
Ge14 Y8 3.330581 1_565
Ge15 Rh3 2.431110 1_555
Ge15 Rh3 2.431111 1_556
Ge15 Y1 2.974550 1_655
Ge15 Y1 2.974552 1_656
Ge15 Y2 3.111589 1_555
Ge15 Y9 3.331239 1_545
Ge16 Rh4 2.430994 1_555
Ge16 Rh4 2.430996 1_556
Ge16 Y0 2.974367 1_556
Ge16 Y0 2.974368 1_555
Ge16 Y3 3.111349 1_555
Ge16 Y9 3.330510 1_555
Ge17 Rh5 2.431129 1_556
Ge17 Rh5 2.431131 1_555
Ge17 Y0 2.974737 1_556
Ge17 Y0 2.974738 1_555
Ge17 Y2 3.112002 1_555
Ge17 Y8 3.331290 1_555
Ge18 Rh6 2.430999 1_555
Ge18 Rh6 2.431001 1_556
Ge18 Y1 2.974510 1_556
Ge18 Y1 2.974510 1_555
Ge18 Y4 3.111743 1_555
Ge18 Y6 3.330947 1_455
Ge19 Rh7 2.431007 1_556
Ge19 Rh7 2.431007 1_555
Ge19 Y1 2.974421 1_665
Ge19 Y1 2.974421 1_666
Ge19 Y5 3.111939 1_555
Ge19 Y7 3.330806 1_655
Rh0 Y5 3.111425 1_554
Rh0 Y5 3.111425 1_555
Rh0 Y0 3.191660 1_555
Rh0 Y6 3.326239 1_555
Rh0 Y6 3.326239 1_554
Rh1 Y4 3.111665 1_554
Rh1 Y4 3.111665 1_555
Rh1 Y0 3.191839 1_555
Rh1 Y7 3.325950 1_554
Rh1 Y7 3.325951 1_555
Rh2 Y3 3.111295 1_555
Rh2 Y3 3.111295 1_554
Rh2 Y1 3.192175 1_565
Rh2 Y8 3.325742 1_565
Rh2 Y8 3.325742 1_564
Rh3 Y2 3.111324 1_555
Rh3 Y2 3.111325 1_554
Rh3 Y1 3.192243 1_655
Rh3 Y9 3.326037 1_545
Rh3 Y9 3.326037 1_544
Rh4 Y3 3.111233 1_555
Rh4 Y3 3.111235 1_554
Rh4 Y0 3.191728 1_555
Rh4 Y9 3.325664 1_555
Rh4 Y9 3.325666 1_554
Rh5 Y2 3.111454 1_554
Rh5 Y2 3.111454 1_555
Rh5 Y0 3.192506 1_555
Rh5 Y8 3.326154 1_554
Rh5 Y8 3.326154 1_555
Rh6 Y4 3.111469 1_555
Rh6 Y4 3.111470 1_554
Rh6 Y1 3.191918 1_555
Rh6 Y6 3.326063 1_455
Rh6 Y6 3.326065 1_454
Rh7 Y5 3.111568 1_554
Rh7 Y5 3.111568 1_555
Rh7 Y1 3.191781 1_665
Rh7 Y7 3.326092 1_654
Rh7 Y7 3.326094 1_655
