# generated using pymatgen
data_SmRe3O16
_symmetry_space_group_name_H-M   'P 1'
_cell_length_a   8.72785845
_cell_length_b   14.71505683
_cell_length_c   11.55791856
_cell_angle_alpha   90.00000000
_cell_angle_beta   90.00000000
_cell_angle_gamma   90.00000000
_symmetry_Int_Tables_number   1
_chemical_formula_structural   SmRe3O16
_chemical_formula_sum   'Sm4 Re12 O64'
_cell_volume   1484.39426531
_cell_formula_units_Z   4
loop_
 _symmetry_equiv_pos_site_id
 _symmetry_equiv_pos_as_xyz
  1  'x, y, z'
loop_
 _atom_site_type_symbol
 _atom_site_label
 _atom_site_symmetry_multiplicity
 _atom_site_fract_x
 _atom_site_fract_y
 _atom_site_fract_z
 _atom_site_occupancy
  Sm  Sm0  1  0.73113637  0.82844640  0.59700426  1
  Sm  Sm1  1  0.26886363  0.17155360  0.09700426  1
  Sm  Sm2  1  0.76886363  0.32844640  0.59700426  1
  Sm  Sm3  1  0.23113637  0.67155360  0.09700426  1
  Re  Re0  1  0.89864747  0.82002940  0.92754191  1
  Re  Re1  1  0.10135253  0.17997060  0.42754191  1
  Re  Re2  1  0.60135253  0.32002940  0.92754191  1
  Re  Re3  1  0.39864747  0.67997060  0.42754191  1
  Re  Re4  1  0.69151840  0.58307362  0.73746723  1
  Re  Re5  1  0.30848160  0.41692638  0.23746723  1
  Re  Re6  1  0.80848160  0.08307362  0.73746723  1
  Re  Re7  1  0.19151840  0.91692638  0.23746723  1
  Re  Re8  1  0.39585025  0.82899900  0.83923366  1
  Re  Re9  1  0.60414975  0.17100100  0.33923366  1
  Re  Re10  1  0.10414975  0.32899900  0.83923366  1
  Re  Re11  1  0.89585025  0.67100100  0.33923366  1
  O  O0  1  0.48727186  0.92317554  0.56940124  1
  O  O1  1  0.51272814  0.07682446  0.06940124  1
  O  O2  1  0.01272814  0.42317554  0.56940124  1
  O  O3  1  0.98727186  0.57682446  0.06940124  1
  O  O4  1  0.49420367  0.38274641  0.58331460  1
  O  O5  1  0.50579633  0.61725359  0.08331460  1
  O  O6  1  0.00579633  0.88274641  0.58331460  1
  O  O7  1  0.99420367  0.11725359  0.08331460  1
  O  O8  1  0.45194192  0.93012273  0.90379033  1
  O  O9  1  0.54805808  0.06987727  0.40379033  1
  O  O10  1  0.04805808  0.43012273  0.90379033  1
  O  O11  1  0.95194192  0.56987727  0.40379033  1
  O  O12  1  0.22214978  0.84643220  0.77087584  1
  O  O13  1  0.77785022  0.15356780  0.27087584  1
  O  O14  1  0.27785022  0.34643220  0.77087584  1
  O  O15  1  0.72214978  0.65356780  0.27087584  1
  O  O16  1  0.53946105  0.75869825  0.47555589  1
  O  O17  1  0.46053895  0.24130175  0.97555589  1
  O  O18  1  0.96053895  0.25869825  0.47555589  1
  O  O19  1  0.03946105  0.74130175  0.97555589  1
  O  O20  1  0.53511869  0.79763801  0.73435112  1
  O  O21  1  0.46488131  0.20236199  0.23435112  1
  O  O22  1  0.96488131  0.29763801  0.73435112  1
  O  O23  1  0.03511869  0.70236199  0.23435112  1
  O  O24  1  0.72676734  0.80230966  0.99985116  1
  O  O25  1  0.27323266  0.19769034  0.49985116  1
  O  O26  1  0.77323266  0.30230966  0.99985116  1
  O  O27  1  0.22676734  0.69769034  0.49985116  1
  O  O28  1  0.86728655  0.81087569  0.77626117  1
  O  O29  1  0.13271345  0.18912431  0.27626117  1
  O  O30  1  0.63271345  0.31087569  0.77626117  1
  O  O31  1  0.36728655  0.68912431  0.27626117  1
  O  O32  1  0.95929506  0.92941559  0.95899421  1
  O  O33  1  0.04070494  0.07058441  0.45899421  1
  O  O34  1  0.54070494  0.42941559  0.95899421  1
  O  O35  1  0.45929506  0.57058441  0.45899421  1
  O  O36  1  0.74789668  0.66755543  0.63728195  1
  O  O37  1  0.25210332  0.33244457  0.13728195  1
  O  O38  1  0.75210332  0.16755543  0.63728195  1
  O  O39  1  0.24789668  0.83244457  0.13728195  1
  O  O40  1  0.87395415  0.75832813  0.44395605  1
  O  O41  1  0.12604585  0.24167187  0.94395605  1
  O  O42  1  0.62604585  0.25832813  0.44395605  1
  O  O43  1  0.37395415  0.74167187  0.94395605  1
  O  O44  1  0.58684879  0.91892702  0.17758160  1
  O  O45  1  0.41315121  0.08107298  0.67758160  1
  O  O46  1  0.91315121  0.41892702  0.17758160  1
  O  O47  1  0.08684879  0.58107298  0.67758160  1
  O  O48  1  0.74356886  0.97508451  0.68721910  1
  O  O49  1  0.25643114  0.02491549  0.18721910  1
  O  O50  1  0.75643114  0.47508451  0.68721910  1
  O  O51  1  0.24356886  0.52491549  0.18721910  1
  O  O52  1  0.49389917  0.58373264  0.75093224  1
  O  O53  1  0.50610083  0.41626736  0.25093224  1
  O  O54  1  0.00610083  0.08373264  0.75093224  1
  O  O55  1  0.99389917  0.91626736  0.25093224  1
  O  O56  1  0.75111683  0.93180203  0.42510328  1
  O  O57  1  0.24888317  0.06819797  0.92510328  1
  O  O58  1  0.74888317  0.43180203  0.42510328  1
  O  O59  1  0.25111683  0.56819797  0.92510328  1
  O  O60  1  0.77333204  0.60904986  0.87008317  1
  O  O61  1  0.22666796  0.39095014  0.37008317  1
  O  O62  1  0.72666796  0.10904986  0.87008317  1
  O  O63  1  0.27333204  0.89095014  0.37008317  1
loop_
_geom_bond_atom_site_label_1
_geom_bond_atom_site_label_2
_geom_bond_distance
_geom_bond_site_symmetry_2
O0 Sm0 2.564179 1_555
O1 Sm1 2.564179 1_555
O2 Sm2 2.564179 1_455
O3 Sm3 2.564179 1_655
O4 Sm2 2.531801 1_555
O5 Sm3 2.531801 1_555
O6 Sm0 2.531801 1_455
O7 Sm1 2.531801 1_655
O8 Re8 1.735126 1_555
O9 Re9 1.735126 1_555
O10 Re10 1.735126 1_555
O11 Re11 1.735126 1_555
O12 Re8 1.728694 1_555
O13 Re9 1.728694 1_555
O14 Re10 1.728694 1_555
O15 Re11 1.728694 1_555
O16 Re3 1.777775 1_555
O16 Sm0 2.412961 1_555
O17 Re2 1.777775 1_555
O17 Sm1 2.412961 1_556
O18 Re1 1.777775 1_655
O18 Sm2 2.412961 1_555
O19 Re0 1.777775 1_455
O19 Sm3 2.412961 1_556
O20 Re8 1.777618 1_555
O20 Sm0 2.377475 1_555
O21 Re9 1.777618 1_555
O21 Sm1 2.377475 1_555
O22 Re10 1.777618 1_655
O22 Sm2 2.377475 1_555
O23 Re11 1.777618 1_455
O23 Sm3 2.377475 1_555
O24 Re0 1.736921 1_555
O25 Re1 1.736921 1_555
O26 Re2 1.736921 1_555
O27 Re3 1.736921 1_555
O28 Re0 1.774903 1_555
O28 Sm0 2.402377 1_555
O29 Re1 1.774903 1_555
O29 Sm1 2.402377 1_555
O30 Re2 1.774903 1_555
O30 Sm2 2.402377 1_555
O31 Re3 1.774903 1_555
O31 Sm3 2.402377 1_555
O32 Re0 1.732981 1_555
O33 Re1 1.732981 1_555
O34 Re2 1.732981 1_555
O35 Re3 1.732981 1_555
O36 Re4 1.768719 1_555
O36 Sm0 2.417284 1_555
O37 Re5 1.768719 1_555
O37 Sm1 2.417284 1_555
O38 Re6 1.768719 1_555
O38 Sm2 2.417284 1_555
O39 Re7 1.768719 1_555
O39 Sm3 2.417284 1_555
O40 Re11 1.775615 1_555
O40 Sm0 2.397377 1_555
O41 Re10 1.775615 1_555
O41 Sm1 2.397377 1_556
O42 Re9 1.775615 1_555
O42 Sm2 2.397377 1_555
O43 Re8 1.775615 1_555
O43 Sm3 2.397377 1_556
O48 Re6 1.784207 1_565
O48 Sm0 2.398966 1_555
O49 Re7 1.784207 1_545
O49 Sm1 2.398966 1_555
O50 Re4 1.784207 1_555
O50 Sm2 2.398966 1_555
O51 Re5 1.784207 1_555
O51 Sm3 2.398966 1_555
O52 Re4 1.731827 1_555
O53 Re5 1.731827 1_555
O54 Re6 1.731827 1_455
O55 Re7 1.731827 1_655
O56 Sm0 2.508175 1_555
O57 Sm1 2.508175 1_556
O58 Sm2 2.508175 1_555
O59 Sm3 2.508175 1_556
O60 Re4 1.733596 1_555
O61 Re5 1.733596 1_555
O62 Re6 1.733596 1_555
O63 Re7 1.733596 1_555
