# generated using pymatgen
data_Rb21Tl7(Br21O4)2
_symmetry_space_group_name_H-M   'P 1'
_cell_length_a   15.89538133
_cell_length_b   15.89538133
_cell_length_c   15.89538133
_cell_angle_alpha   114.78228620
_cell_angle_beta   114.78228620
_cell_angle_gamma   99.30309795
_symmetry_Int_Tables_number   1
_chemical_formula_structural   Rb21Tl7(Br21O4)2
_chemical_formula_sum   'Rb21 Tl7 Br42 O8'
_cell_volume   3020.55439638
_cell_formula_units_Z   1
loop_
 _symmetry_equiv_pos_site_id
 _symmetry_equiv_pos_as_xyz
  1  'x, y, z'
loop_
 _atom_site_type_symbol
 _atom_site_label
 _atom_site_symmetry_multiplicity
 _atom_site_fract_x
 _atom_site_fract_y
 _atom_site_fract_z
 _atom_site_occupancy
  Rb  Rb0  1  0.50000000  0.50000000  0.00000000  1
  Rb  Rb1  1  0.20579600  0.20579600  0.41159200  1
  Rb  Rb2  1  0.79420400  0.79420400  0.58840800  1
  Rb  Rb3  1  0.20579600  0.79420400  0.00000000  1
  Rb  Rb4  1  0.79420400  0.20579600  0.00000000  1
  Rb  Rb5  1  0.86669500  0.15518700  0.28849200  1
  Rb  Rb6  1  0.86669500  0.57820300  0.71150800  1
  Rb  Rb7  1  0.15518700  0.86669500  0.28849200  1
  Rb  Rb8  1  0.57820300  0.86669500  0.71150800  1
  Rb  Rb9  1  0.13330500  0.84481300  0.71150800  1
  Rb  Rb10  1  0.13330500  0.42179700  0.28849200  1
  Rb  Rb11  1  0.84481300  0.13330500  0.71150800  1
  Rb  Rb12  1  0.42179700  0.13330500  0.28849200  1
  Rb  Rb13  1  0.63187700  0.92267800  0.29080100  1
  Rb  Rb14  1  0.63187700  0.34107600  0.70919900  1
  Rb  Rb15  1  0.92267800  0.63187700  0.29080100  1
  Rb  Rb16  1  0.34107600  0.63187700  0.70919900  1
  Rb  Rb17  1  0.36812300  0.07732200  0.70919900  1
  Rb  Rb18  1  0.36812300  0.65892400  0.29080100  1
  Rb  Rb19  1  0.07732200  0.36812300  0.70919900  1
  Rb  Rb20  1  0.65892400  0.36812300  0.29080100  1
  Tl  Tl0  1  0.00000000  0.00000000  0.00000000  1
  Tl  Tl1  1  0.00000000  0.50000000  0.50000000  1
  Tl  Tl2  1  0.50000000  0.00000000  0.50000000  1
  Tl  Tl3  1  0.00000000  0.00000000  0.50000000  1
  Tl  Tl4  1  0.50000000  0.50000000  0.50000000  1
  Tl  Tl5  1  0.00000000  0.50000000  0.00000000  1
  Tl  Tl6  1  0.50000000  0.00000000  0.00000000  1
  Br  Br0  1  0.87370100  0.87370100  0.00000000  1
  Br  Br1  1  0.12629900  0.12629900  0.00000000  1
  Br  Br2  1  0.17289200  0.00000000  0.17289200  1
  Br  Br3  1  0.82710800  0.00000000  0.82710800  1
  Br  Br4  1  0.00000000  0.82710800  0.82710800  1
  Br  Br5  1  0.00000000  0.17289200  0.17289200  1
  Br  Br6  1  0.86813200  0.36813200  0.50000000  1
  Br  Br7  1  0.36813200  0.86813200  0.50000000  1
  Br  Br8  1  0.13186800  0.63186800  0.50000000  1
  Br  Br9  1  0.63186800  0.13186800  0.50000000  1
  Br  Br10  1  0.38597700  0.12061900  0.50659600  1
  Br  Br11  1  0.61402300  0.87938100  0.49340400  1
  Br  Br12  1  0.38597700  0.87938100  0.26535700  1
  Br  Br13  1  0.61402300  0.12061900  0.73464300  1
  Br  Br14  1  0.12061900  0.61402300  0.73464300  1
  Br  Br15  1  0.87938100  0.38597700  0.26535700  1
  Br  Br16  1  0.12061900  0.38597700  0.50659600  1
  Br  Br17  1  0.87938100  0.61402300  0.49340400  1
  Br  Br18  1  0.80431100  0.46970800  0.00000000  1
  Br  Br19  1  0.46970800  0.80431100  0.00000000  1
  Br  Br20  1  0.80431100  0.80431100  0.33460200  1
  Br  Br21  1  0.46970800  0.46970800  0.66539800  1
  Br  Br22  1  0.19568900  0.53029200  0.00000000  1
  Br  Br23  1  0.53029200  0.19568900  0.00000000  1
  Br  Br24  1  0.19568900  0.19568900  0.66539800  1
  Br  Br25  1  0.53029200  0.53029200  0.33460200  1
  Br  Br26  1  0.99776600  0.67012700  0.00000000  1
  Br  Br27  1  0.67012700  0.99776600  0.00000000  1
  Br  Br28  1  0.99776600  0.99776600  0.32763900  1
  Br  Br29  1  0.67012700  0.67012700  0.67236100  1
  Br  Br30  1  0.00223400  0.32987300  0.00000000  1
  Br  Br31  1  0.32987300  0.00223400  0.00000000  1
  Br  Br32  1  0.00223400  0.00223400  0.67236100  1
  Br  Br33  1  0.32987300  0.32987300  0.32763900  1
  Br  Br34  1  0.11594000  0.61594000  0.23187900  1
  Br  Br35  1  0.38406000  0.88406000  0.76812100  1
  Br  Br36  1  0.11594000  0.88406000  0.50000000  1
  Br  Br37  1  0.38406000  0.61594000  0.50000000  1
  Br  Br38  1  0.61594000  0.38406000  0.50000000  1
  Br  Br39  1  0.88406000  0.11594000  0.50000000  1
  Br  Br40  1  0.61594000  0.11594000  0.23187900  1
  Br  Br41  1  0.88406000  0.38406000  0.76812100  1
  O  O0  1  0.60374900  0.73222300  0.12847400  1
  O  O1  1  0.60374900  0.47527500  0.87152600  1
  O  O2  1  0.73222300  0.60374900  0.12847400  1
  O  O3  1  0.47527500  0.60374900  0.87152600  1
  O  O4  1  0.39625100  0.26777700  0.87152600  1
  O  O5  1  0.39625100  0.52472500  0.12847400  1
  O  O6  1  0.26777700  0.39625100  0.87152600  1
  O  O7  1  0.52472500  0.39625100  0.12847400  1
loop_
_geom_bond_atom_site_label_1
_geom_bond_atom_site_label_2
_geom_bond_distance
_geom_bond_site_symmetry_2
Br0 Tl0 2.599541 1_665
Br1 Tl0 2.599541 1_555
Br2 Tl0 2.961999 1_555
Br2 Rb7 3.383840 1_545
Br2 Rb12 3.383840 1_555
Br2 Rb1 3.570493 1_555
Br2 Rb3 3.570493 1_545
Br3 Tl0 2.961999 1_656
Br3 Rb8 3.383840 1_545
Br3 Rb11 3.383840 1_555
Br3 Rb4 3.570493 1_556
Br3 Rb2 3.570493 1_545
Br4 Tl0 2.961999 1_566
Br4 Rb6 3.383840 1_455
Br4 Rb9 3.383840 1_555
Br4 Rb3 3.570493 1_556
Br4 Rb2 3.570493 1_455
Br5 Tl0 2.961999 1_555
Br5 Rb5 3.383840 1_455
Br5 Rb10 3.383840 1_555
Br5 Rb1 3.570493 1_555
Br5 Rb4 3.570493 1_455
Br6 Tl1 2.714165 1_655
Br6 Rb19 3.584013 1_655
Br6 Rb20 3.584013 1_555
Br6 Rb5 3.623691 1_555
Br6 Rb6 3.623691 1_555
Br7 Tl2 2.714165 1_565
Br7 Rb17 3.584013 1_565
Br7 Rb18 3.584013 1_555
Br7 Rb7 3.623691 1_555
Br7 Rb8 3.623691 1_555
Br8 Tl1 2.714165 1_555
Br8 Rb15 3.584013 1_455
Br8 Rb16 3.584013 1_555
Br8 Rb9 3.623691 1_555
Br8 Rb10 3.623691 1_555
Br9 Tl2 2.714165 1_555
Br9 Rb13 3.584013 1_545
Br9 Rb14 3.584013 1_555
Br9 Rb11 3.623691 1_555
Br9 Rb12 3.623691 1_555
Br10 Tl2 2.843624 1_555
Br10 Rb1 3.414415 1_555
Br10 Rb17 3.672417 1_555
Br10 Rb14 3.672417 1_555
Br10 Rb7 3.819378 1_545
Br10 Rb12 3.819378 1_555
Br11 Tl2 2.843624 1_565
Br11 Rb2 3.414415 1_555
Br11 Rb13 3.672417 1_555
Br11 Rb18 3.672417 1_555
Br11 Rb11 3.819378 1_565
Br11 Rb8 3.819378 1_555
Br12 Tl2 2.843636 1_565
Br12 Rb3 3.414403 1_555
Br12 Rb13 3.672411 1_555
Br12 Rb18 3.672426 1_555
Br12 Rb12 3.819372 1_565
Br12 Rb7 3.819387 1_555
Br13 Tl2 2.843636 1_555
Br13 Rb4 3.414403 1_556
Br13 Rb17 3.672411 1_555
Br13 Rb14 3.672426 1_555
Br13 Rb8 3.819372 1_545
Br13 Rb11 3.819387 1_555
Br14 Tl1 2.843636 1_555
Br14 Rb3 3.414403 1_556
Br14 Rb19 3.672411 1_555
Br14 Rb16 3.672426 1_555
Br14 Rb6 3.819372 1_455
Br14 Rb9 3.819387 1_555
Br15 Tl1 2.843636 1_655
Br15 Rb4 3.414403 1_555
Br15 Rb15 3.672411 1_555
Br15 Rb20 3.672426 1_555
Br15 Rb10 3.819372 1_655
Br15 Rb5 3.819387 1_555
Br16 Tl1 2.843624 1_555
Br16 Rb1 3.414415 1_555
Br16 Rb19 3.672417 1_555
Br16 Rb16 3.672417 1_555
Br16 Rb5 3.819378 1_455
Br16 Rb10 3.819378 1_555
Br17 Tl1 2.843624 1_655
Br17 Rb2 3.414415 1_555
Br17 Rb15 3.672417 1_555
Br17 Rb20 3.672417 1_555
Br17 Rb9 3.819378 1_655
Br17 Rb6 3.819378 1_555
Br18 Tl5 3.069712 1_655
Br18 Rb15 3.564128 1_555
Br18 Rb14 3.564128 1_554
Br19 Tl6 3.069712 1_565
Br19 Rb13 3.564128 1_555
Br19 Rb16 3.564128 1_554
Br20 Tl3 3.069712 1_665
Br20 Rb13 3.564126 1_555
Br20 Rb15 3.564126 1_555
Br21 Tl4 3.069728 1_555
Br21 Rb14 3.564126 1_555
Br21 Rb16 3.564126 1_555
Br22 Tl5 3.069712 1_555
Br22 Rb18 3.564128 1_555
Br22 Rb19 3.564128 1_554
Br23 Tl6 3.069712 1_555
Br23 Rb20 3.564128 1_555
Br23 Rb17 3.564128 1_554
Br24 Tl3 3.069712 1_555
Br24 Rb17 3.564126 1_555
Br24 Rb19 3.564126 1_555
Br25 Tl4 3.069728 1_555
Br25 Rb20 3.564126 1_555
Br25 Rb18 3.564126 1_555
Br26 Tl5 2.710201 1_655
Br26 Rb3 3.565893 1_655
Br26 Rb7 3.590713 1_655
Br26 Rb6 3.590713 1_554
Br27 Tl6 2.710201 1_565
Br27 Rb4 3.565893 1_565
Br27 Rb5 3.590713 1_565
Br27 Rb8 3.590713 1_554
Br28 Tl3 2.710201 1_665
Br28 Rb1 3.565893 1_665
Br28 Rb7 3.590713 1_655
Br28 Rb5 3.590713 1_565
Br29 Tl4 2.710201 1_555
Br29 Rb2 3.565893 1_555
Br29 Rb6 3.590713 1_555
Br29 Rb8 3.590713 1_555
Br30 Tl5 2.710201 1_555
Br30 Rb4 3.565893 1_455
Br30 Rb10 3.590713 1_555
Br30 Rb11 3.590713 1_454
Br31 Tl6 2.710201 1_555
Br31 Rb3 3.565893 1_545
Br31 Rb12 3.590713 1_555
Br31 Rb9 3.590713 1_544
Br32 Tl3 2.710201 1_555
Br32 Rb2 3.565893 1_445
Br32 Rb11 3.590713 1_455
Br32 Rb9 3.590713 1_545
Br33 Tl4 2.710201 1_555
Br33 Rb1 3.565893 1_555
Br33 Rb10 3.590713 1_555
Br33 Rb12 3.590713 1_555
Br34 Tl5 2.809030 1_555
Br34 Rb7 3.578324 1_555
Br34 Rb10 3.578338 1_555
Br34 Rb18 3.583719 1_555
Br34 Rb15 3.583733 1_455
Br35 Tl6 2.809030 1_566
Br35 Rb9 3.578324 1_555
Br35 Rb8 3.578338 1_555
Br35 Rb16 3.583719 1_555
Br35 Rb17 3.583733 1_565
Br36 Tl3 2.809042 1_565
Br36 Rb9 3.578328 1_555
Br36 Rb7 3.578328 1_555
Br36 Rb17 3.583724 1_565
Br36 Rb15 3.583724 1_455
Br37 Tl4 2.809042 1_555
Br37 Rb8 3.578328 1_555
Br37 Rb10 3.578328 1_555
Br37 Rb16 3.583724 1_555
Br37 Rb18 3.583724 1_555
Br38 Tl4 2.809042 1_555
Br38 Rb6 3.578328 1_555
Br38 Rb12 3.578328 1_555
Br38 Rb14 3.583724 1_555
Br38 Rb20 3.583724 1_555
Br39 Tl3 2.809042 1_655
Br39 Rb11 3.578328 1_555
Br39 Rb5 3.578328 1_555
Br39 Rb19 3.583724 1_655
Br39 Rb13 3.583724 1_545
Br40 Tl6 2.809030 1_555
Br40 Rb5 3.578324 1_555
Br40 Rb12 3.578338 1_555
Br40 Rb20 3.583719 1_555
Br40 Rb13 3.583733 1_545
Br41 Tl5 2.809030 1_656
Br41 Rb11 3.578324 1_555
Br41 Rb6 3.578338 1_555
Br41 Rb14 3.583719 1_555
Br41 Rb19 3.583733 1_655
O0 Rb13 2.840621 1_555
O0 Rb0 3.066672 1_555
O1 Rb14 2.840621 1_555
O1 Rb0 3.066672 1_556
O2 Rb15 2.840621 1_555
O2 Rb0 3.066672 1_555
O3 Rb16 2.840621 1_555
O3 Rb0 3.066672 1_556
O4 Rb17 2.840621 1_555
O4 Rb0 3.066672 1_556
O5 Rb18 2.840621 1_555
O5 Rb0 3.066672 1_555
O6 Rb19 2.840621 1_555
O6 Rb0 3.066672 1_556
O7 Rb20 2.840621 1_555
O7 Rb0 3.066672 1_555
