# generated using pymatgen
data_K2LiMn2O4
_symmetry_space_group_name_H-M   'P 1'
_cell_length_a   6.45734428
_cell_length_b   6.59254122
_cell_length_c   6.50745156
_cell_angle_alpha   94.27215563
_cell_angle_beta   86.82903432
_cell_angle_gamma   87.69275647
_symmetry_Int_Tables_number   1
_chemical_formula_structural   K2LiMn2O4
_chemical_formula_sum   'K4 Li2 Mn4 O8'
_cell_volume   275.55741581
_cell_formula_units_Z   2
loop_
 _symmetry_equiv_pos_site_id
 _symmetry_equiv_pos_as_xyz
  1  'x, y, z'
loop_
 _atom_site_type_symbol
 _atom_site_label
 _atom_site_symmetry_multiplicity
 _atom_site_fract_x
 _atom_site_fract_y
 _atom_site_fract_z
 _atom_site_occupancy
  K  K0  1  0.97897000  0.24869000  0.98287300  1
  K  K1  1  0.02132100  0.75136900  0.01705600  1
  K  K2  1  0.50000100  0.99993500  0.99995600  1
  K  K3  1  0.99990700  0.49969100  0.50004300  1
  Li  Li0  1  0.35360000  0.24114300  0.36374600  1
  Li  Li1  1  0.64631600  0.75887300  0.63640700  1
  Mn  Mn0  1  0.81684900  0.03700500  0.41397400  1
  Mn  Mn1  1  0.41508800  0.47117400  0.80818900  1
  Mn  Mn2  1  0.58500200  0.52901900  0.19181000  1
  Mn  Mn3  1  0.18277300  0.96265500  0.58575900  1
  O  O0  1  0.33095200  0.42725600  0.09884500  1
  O  O1  1  0.12931900  0.04315300  0.29524200  1
  O  O2  1  0.87035400  0.95690700  0.70460500  1
  O  O3  1  0.66907300  0.57348100  0.90145900  1
  O  O4  1  0.66002000  0.28449200  0.31767100  1
  O  O5  1  0.72029300  0.74102900  0.32732200  1
  O  O6  1  0.28006600  0.25862600  0.67285700  1
  O  O7  1  0.34009500  0.71550300  0.68218800  1
loop_
_geom_bond_atom_site_label_1
_geom_bond_atom_site_label_2
_geom_bond_distance
_geom_bond_site_symmetry_2
K0 O2 2.683533 1_545
K0 O0 2.719213 1_656
K0 O1 2.726420 1_656
K0 O6 2.729556 1_655
K0 O4 2.903794 1_556
K0 O3 2.968362 1_555
K1 O1 2.681893 1_565
K1 O3 2.718005 1_454
K1 O2 2.728360 1_454
K1 O5 2.730691 1_455
K1 O7 2.903359 1_554
K1 O0 2.964734 1_555
K2 O7 2.944956 1_555
K2 O4 2.945520 1_566
K2 O2 2.974791 1_555
K2 O1 2.976183 1_566
K2 O3 2.985598 1_555
K2 O0 2.991076 1_566
K2 O6 3.183800 1_565
K2 O5 3.186942 1_556
K3 O5 2.704515 1_555
K3 O6 2.706099 1_655
K3 O4 2.919965 1_555
K3 O7 2.922865 1_655
Li0 O4 2.019734 1_555
Li0 O1 2.033916 1_555
Li0 O6 2.034789 1_555
Li0 O0 2.197036 1_555
Li1 O7 2.018305 1_555
Li1 O2 2.032511 1_555
Li1 O5 2.035070 1_555
Li1 O3 2.194998 1_555
Mn0 O4 2.042015 1_555
Mn0 O2 2.044869 1_545
Mn0 O5 2.118242 1_545
Mn0 O1 2.123351 1_655
Mn1 O6 1.870472 1_555
Mn1 O3 1.910841 1_555
Mn1 O7 1.918130 1_555
Mn1 O0 1.984206 1_556
Mn2 O5 1.869300 1_555
Mn2 O0 1.909241 1_555
Mn2 O4 1.918835 1_555
Mn2 O3 1.983049 1_554
Mn3 O7 2.042101 1_555
Mn3 O1 2.044939 1_565
Mn3 O6 2.120486 1_565
Mn3 O2 2.123055 1_455
