# generated using pymatgen
data_NaCa10(PO4)7
_symmetry_space_group_name_H-M   'P 1'
_cell_length_a   10.55748601
_cell_length_b   10.55748563
_cell_length_c   13.93192204
_cell_angle_alpha   90.00000000
_cell_angle_beta   67.73471466
_cell_angle_gamma   119.99999884
_symmetry_Int_Tables_number   1
_chemical_formula_structural   NaCa10(PO4)7
_chemical_formula_sum   'Na2 Ca20 P14 O56'
_cell_volume   1209.27569743
_cell_formula_units_Z   2
loop_
 _symmetry_equiv_pos_site_id
 _symmetry_equiv_pos_as_xyz
  1  'x, y, z'
loop_
 _atom_site_type_symbol
 _atom_site_label
 _atom_site_symmetry_multiplicity
 _atom_site_fract_x
 _atom_site_fract_y
 _atom_site_fract_z
 _atom_site_occupancy
  Na  Na0  1  0.66031902  0.33015951  0.00952147  1
  Na  Na1  1  0.63026508  0.81513254  0.55460238  1
  Ca  Ca0  1  0.08333497  0.05296177  0.47710529  1
  Ca  Ca1  1  0.49252151  0.43955974  0.47710529  1
  Ca  Ca2  1  0.46993294  0.03037320  0.47710529  1
  Ca  Ca3  1  0.46865385  0.93910866  0.97849508  1
  Ca  Ca4  1  0.49195973  0.55285107  0.97849508  1
  Ca  Ca5  1  0.08239627  0.52954519  0.97849508  1
  Ca  Ca6  1  0.27673133  0.34227762  0.79646034  1
  Ca  Ca7  1  0.26908595  0.92680833  0.79646034  1
  Ca  Ca8  1  0.86126204  0.93445371  0.79646034  1
  Ca  Ca9  1  0.86048075  0.42622305  0.29672806  1
  Ca  Ca10  1  0.26901423  0.84279119  0.29672806  1
  Ca  Ca11  1  0.27704889  0.43425771  0.29672806  1
  Ca  Ca12  1  0.99826230  0.49913115  0.50260655  1
  Ca  Ca13  1  0.99770679  0.99885339  0.00343982  1
  Ca  Ca14  1  0.71021698  0.64960539  0.19803616  1
  Ca  Ca15  1  0.74135225  0.09174686  0.19803616  1
  Ca  Ca16  1  0.15235845  0.06061159  0.19803616  1
  Ca  Ca17  1  0.15192664  0.59152995  0.69716709  1
  Ca  Ca18  1  0.74243623  0.15090628  0.69716709  1
  Ca  Ca19  1  0.71130296  0.56039669  0.69716709  1
  P  P0  1  0.46534309  0.23267155  0.30198536  1
  P  P1  1  0.46471672  0.73235836  0.80292493  1
  P  P2  1  0.86442658  0.67447649  0.90380267  1
  P  P3  1  0.90624724  0.23177075  0.90380267  1
  P  P4  1  0.42172084  0.18995009  0.90380267  1
  P  P5  1  0.42265591  0.73183198  0.40403407  1
  P  P6  1  0.90514199  0.17331001  0.40403407  1
  P  P7  1  0.86413395  0.69082393  0.40403407  1
  P  P8  1  0.08654947  0.81410089  0.59904962  1
  P  P9  1  0.12850180  0.31440091  0.59904962  1
  P  P10  1  0.58684949  0.27244858  0.59904962  1
  P  P11  1  0.58691725  0.81441533  0.09897850  1
  P  P12  1  0.12851958  0.31410425  0.09897850  1
  P  P13  1  0.08660617  0.77250192  0.09897850  1
  O  O0  1  0.76441509  0.65925372  0.84043463  1
  O  O1  1  0.05440400  0.39515028  0.84043463  1
  O  O2  1  0.50031165  0.10516137  0.84043463  1
  O  O3  1  0.50012075  0.89496456  0.34064994  1
  O  O4  1  0.05419387  0.15922931  0.34064994  1
  O  O5  1  0.76438550  0.60515619  0.34064994  1
  O  O6  1  0.73601867  0.59066590  0.02141908  1
  O  O7  1  0.83322814  0.24256225  0.02141908  1
  O  O8  1  0.38791502  0.14535278  0.02141908  1
  O  O9  1  0.38770219  0.74213599  0.52202160  1
  O  O10  1  0.83241221  0.09027622  0.52202160  1
  O  O11  1  0.73584241  0.64556619  0.52202160  1
  O  O12  1  0.99421749  0.63876237  0.62988874  1
  O  O13  1  0.01465614  0.37589377  0.62988874  1
  O  O14  1  0.73134889  0.35545512  0.62988874  1
  O  O15  1  0.73147202  0.87590945  0.12960178  1
  O  O16  1  0.01483565  0.13892620  0.12960178  1
  O  O17  1  0.99448876  0.85556257  0.12960178  1
  O  O18  1  0.97280040  0.60959291  0.86487564  1
  O  O19  1  0.77191687  0.16232396  0.86487564  1
  O  O20  1  0.52553145  0.36320749  0.86487564  1
  O  O21  1  0.52454135  0.66098831  0.36442536  1
  O  O22  1  0.77202159  0.11103329  0.36442536  1
  O  O23  1  0.97458633  0.86355305  0.36442536  1
  O  O24  1  0.95742531  0.85672708  0.63463017  1
  O  O25  1  0.26467160  0.40794452  0.63463017  1
  O  O26  1  0.50864275  0.10069823  0.63463017  1
  O  O27  1  0.50867494  0.90781583  0.13436009  1
  O  O28  1  0.26478080  0.35696498  0.13436009  1
  O  O29  1  0.95782408  0.60085911  0.13436009  1
  O  O30  1  0.62713558  0.23721813  0.26343390  1
  O  O31  1  0.34664865  0.10943051  0.26343390  1
  O  O32  1  0.49934797  0.38991745  0.26343390  1
  O  O33  1  0.49987208  0.61041325  0.76246936  1
  O  O34  1  0.34807181  0.73765856  0.76246936  1
  O  O35  1  0.62711739  0.88945883  0.76246936  1
  O  O36  1  0.38235973  0.19117987  0.42646040  1
  O  O37  1  0.38201257  0.69100629  0.92698114  1
  O  O38  1  0.20440885  0.87752782  0.65170520  1
  O  O39  1  0.02141377  0.14388595  0.65170520  1
  O  O40  1  0.47076698  0.32688103  0.65170520  1
  O  O41  1  0.47084673  0.64384744  0.15125338  1
  O  O42  1  0.02174733  0.37789989  0.15125338  1
  O  O43  1  0.20489918  0.82699929  0.15125338  1
  O  O44  1  0.97875463  0.84882841  0.88594976  1
  O  O45  1  0.98412401  0.13529561  0.88594976  1
  O  O46  1  0.26522183  0.12992623  0.88594976  1
  O  O47  1  0.26545931  0.63569960  0.38638516  1
  O  O48  1  0.98385513  0.34815553  0.38638516  1
  O  O49  1  0.97791524  0.62975971  0.38638516  1
  O  O50  1  0.18926449  0.87749170  0.47671381  1
  O  O51  1  0.21151341  0.33402170  0.47671381  1
  O  O52  1  0.64579448  0.31177278  0.47671381  1
  O  O53  1  0.64586119  0.83408304  0.97641816  1
  O  O54  1  0.21180369  0.37772065  0.97641816  1
  O  O55  1  0.18949879  0.81177814  0.97641816  1
loop_
_geom_bond_atom_site_label_1
_geom_bond_atom_site_label_2
_geom_bond_distance
_geom_bond_site_symmetry_2
Na0 O7 2.476421 1_555
Na0 O6 2.476421 1_555
Na0 O8 2.476421 1_555
Na1 O9 2.503046 1_555
Na1 O11 2.503046 1_555
Na1 O10 2.503046 1_565
Ca0 O4 2.399138 1_555
Ca0 O24 2.431228 1_445
Ca0 O36 2.509750 1_555
Ca0 O51 2.571970 1_555
Ca0 O39 2.586202 1_555
Ca0 O50 2.598023 1_545
Ca0 O23 2.617491 1_445
Ca0 O10 2.711453 1_455
Ca0 O31 3.002786 1_555
Ca1 O5 2.399138 1_555
Ca1 O25 2.431228 1_555
Ca1 O36 2.509750 1_555
Ca1 O52 2.571970 1_555
Ca1 O40 2.586202 1_555
Ca1 O51 2.598023 1_555
Ca1 O21 2.617491 1_555
Ca1 O11 2.711453 1_555
Ca1 O32 3.002785 1_555
Ca2 O3 2.399138 1_545
Ca2 O26 2.431228 1_555
Ca2 O36 2.509750 1_555
Ca2 O50 2.571970 1_545
Ca2 O38 2.586202 1_545
Ca2 O52 2.598022 1_555
Ca2 O22 2.617491 1_555
Ca2 O9 2.711453 1_545
Ca2 O30 3.002785 1_555
Ca3 O2 2.410731 1_565
Ca3 O27 2.416185 1_556
Ca3 O37 2.512814 1_555
Ca3 O43 2.563817 1_556
Ca3 O55 2.568377 1_555
Ca3 O53 2.600735 1_555
Ca3 O19 2.631432 1_565
Ca3 O8 2.700946 1_566
Ca4 O0 2.410731 1_555
Ca4 O28 2.416185 1_556
Ca4 O37 2.512814 1_555
Ca4 O41 2.563817 1_556
Ca4 O53 2.568377 1_555
Ca4 O54 2.600735 1_555
Ca4 O20 2.631431 1_555
Ca4 O6 2.700946 1_556
Ca5 O1 2.410731 1_555
Ca5 O29 2.416185 1_456
Ca5 O37 2.512814 1_555
Ca5 O42 2.563817 1_556
Ca5 O54 2.568377 1_555
Ca5 O55 2.600735 1_555
Ca5 O18 2.631432 1_455
Ca5 O7 2.700946 1_456
Ca6 O40 2.343579 1_555
Ca6 O54 2.418656 1_555
Ca6 O25 2.426085 1_555
Ca6 O45 2.490688 1_455
Ca6 O46 2.491597 1_555
Ca6 O33 2.504679 1_555
Ca6 O1 2.533153 1_555
Ca7 O38 2.343579 1_555
Ca7 O55 2.418656 1_555
Ca7 O26 2.426085 1_565
Ca7 O46 2.490688 1_565
Ca7 O44 2.491598 1_455
Ca7 O34 2.504679 1_555
Ca7 O2 2.533153 1_565
Ca8 O39 2.343579 1_665
Ca8 O53 2.418656 1_555
Ca8 O24 2.426085 1_555
Ca8 O44 2.490688 1_555
Ca8 O45 2.491598 1_565
Ca8 O35 2.504679 1_555
Ca8 O0 2.533153 1_555
Ca9 O42 2.349557 1_655
Ca9 O52 2.416499 1_555
Ca9 O29 2.432299 1_555
Ca9 O30 2.493195 1_555
Ca9 O49 2.494848 1_555
Ca9 O48 2.498510 1_555
Ca9 O5 2.533460 1_555
Ca10 O43 2.349557 1_555
Ca10 O50 2.416499 1_555
Ca10 O27 2.432299 1_555
Ca10 O31 2.493195 1_565
Ca10 O47 2.494848 1_555
Ca10 O49 2.498510 1_455
Ca10 O3 2.533461 1_555
Ca11 O41 2.349557 1_555
Ca11 O51 2.416499 1_555
Ca11 O28 2.432299 1_555
Ca11 O32 2.493195 1_555
Ca11 O48 2.494848 1_455
Ca11 O47 2.498510 1_555
Ca11 O4 2.533460 1_555
Ca12 O48 2.264881 1_555
Ca12 O49 2.264881 1_555
Ca12 O47 2.264881 1_655
Ca12 O12 2.307610 1_555
Ca12 O13 2.307610 1_655
Ca12 O14 2.307610 1_555
Ca13 O44 2.271414 1_554
Ca13 O46 2.271414 1_664
Ca13 O45 2.271414 1_564
Ca13 O17 2.298364 1_555
Ca13 O16 2.298364 1_665
Ca13 O15 2.298364 1_555
Ca14 O5 2.371581 1_555
Ca14 O32 2.379556 1_555
Ca14 O17 2.439271 1_555
Ca14 O15 2.443234 1_555
Ca14 O21 2.454149 1_555
Ca14 O6 2.485479 1_555
Ca14 O29 2.733748 1_555
Ca14 O41 2.812390 1_555
Ca15 O3 2.371581 1_545
Ca15 O30 2.379556 1_555
Ca15 O15 2.439271 1_545
Ca15 O16 2.443234 1_655
Ca15 O22 2.454149 1_555
Ca15 O7 2.485479 1_555
Ca15 O27 2.733748 1_545
Ca15 O42 2.812390 1_655
Ca16 O4 2.371581 1_555
Ca16 O31 2.379556 1_555
Ca16 O16 2.439271 1_555
Ca16 O17 2.443234 1_445
Ca16 O23 2.454149 1_445
Ca16 O8 2.485479 1_555
Ca16 O28 2.733748 1_555
Ca16 O43 2.812390 1_545
Ca17 O1 2.377095 1_555
Ca17 O34 2.393521 1_555
Ca17 O13 2.427287 1_555
Ca17 O12 2.431542 1_455
Ca17 O18 2.466618 1_455
Ca17 O9 2.473415 1_555
Ca17 O25 2.730148 1_555
Ca17 O38 2.808223 1_555
Ca18 O2 2.377095 1_555
Ca18 O35 2.393521 1_545
Ca18 O14 2.427287 1_555
Ca18 O13 2.431542 1_655
Ca18 O19 2.466618 1_555
Ca18 O10 2.473415 1_555
Ca18 O26 2.730148 1_555
Ca18 O39 2.808223 1_655
Ca19 O0 2.377095 1_555
Ca19 O33 2.393521 1_555
Ca19 O12 2.427287 1_555
Ca19 O14 2.431542 1_555
Ca19 O20 2.466618 1_555
Ca19 O11 2.473415 1_555
Ca19 O24 2.730148 1_555
Ca19 O40 2.808223 1_555
O0 P2 1.567414 1_555
O1 P3 1.567414 1_455
O2 P4 1.567414 1_555
O3 P5 1.568139 1_555
O4 P6 1.568139 1_455
O5 P7 1.568139 1_555
O6 P2 1.556576 1_554
O7 P3 1.556576 1_554
O8 P4 1.556576 1_554
O9 P5 1.559018 1_555
O10 P6 1.559018 1_555
O11 P7 1.559018 1_555
O12 P8 1.561943 1_655
O13 P9 1.561943 1_555
O14 P10 1.561943 1_555
O15 P11 1.560515 1_555
O16 P12 1.560515 1_555
O17 P13 1.560515 1_655
O18 P2 1.544664 1_555
O19 P3 1.544664 1_555
O20 P4 1.544664 1_555
O21 P5 1.541316 1_555
O22 P6 1.541316 1_555
O23 P7 1.541316 1_555
O24 P8 1.551785 1_655
O25 P9 1.551785 1_555
O26 P10 1.551785 1_555
O27 P11 1.550371 1_555
O28 P12 1.550371 1_555
O29 P13 1.550371 1_655
O30 P0 1.559246 1_555
O31 P0 1.559246 1_555
O32 P0 1.559246 1_555
O33 P1 1.559559 1_555
O34 P1 1.559559 1_555
O35 P1 1.559559 1_555
O36 P0 1.559394 1_555
O37 P1 1.554147 1_555
O38 P8 1.547043 1_555
O39 P9 1.547043 1_555
O40 P10 1.547043 1_555
O41 P11 1.546554 1_555
O42 P12 1.546554 1_555
O43 P13 1.546554 1_555
O44 P2 1.567711 1_555
O45 P3 1.567711 1_555
O46 P4 1.567711 1_555
O47 P5 1.571516 1_555
O48 P6 1.571516 1_555
O49 P7 1.571516 1_555
O50 P8 1.549970 1_555
O51 P9 1.549970 1_555
O52 P10 1.549970 1_555
O53 P11 1.552902 1_556
O54 P12 1.552902 1_556
O55 P13 1.552902 1_556
