# generated using pymatgen
data_Ca2HgGe
_symmetry_space_group_name_H-M   'P 1'
_cell_length_a   12.13602987
_cell_length_b   12.48769481
_cell_length_c   12.48769522
_cell_angle_alpha   60.65072046
_cell_angle_beta   60.92726338
_cell_angle_gamma   60.92726299
_symmetry_Int_Tables_number   1
_chemical_formula_structural   Ca2HgGe
_chemical_formula_sum   'Ca2 Hg1 Ge1'
_cell_volume   1363.39530551
_cell_formula_units_Z   1
loop_
 _symmetry_equiv_pos_site_id
 _symmetry_equiv_pos_as_xyz
  1  'x, y, z'
loop_
 _atom_site_type_symbol
 _atom_site_label
 _atom_site_symmetry_multiplicity
 _atom_site_fract_x
 _atom_site_fract_y
 _atom_site_fract_z
 _atom_site_occupancy
  Ca  Ca0  1  0.77022392  0.00000000  0.00000000  1
  Ca  Ca1  1  0.22977608  1.00000000  1.00000000  1
  Hg  Hg0  1  0.50000000  0.00000000  -0.00000000  1
  Ge  Ge0  1  0.00000000  0.00000000  -0.00000000  1
loop_
_geom_bond_atom_site_label_1
_geom_bond_atom_site_label_2
_geom_bond_distance
_geom_bond_site_symmetry_2
Ca0 Ge0 2.788569 1_655
Ca0 Hg0 3.279446 1_555
Ca1 Ge0 2.788569 1_566
Ca1 Hg0 3.279446 1_566
