# generated using pymatgen
data_CeGdN2
_symmetry_space_group_name_H-M   'P 1'
_cell_length_a   3.56582686
_cell_length_b   3.56582686
_cell_length_c   5.01563278
_cell_angle_alpha   90.00000000
_cell_angle_beta   90.00000000
_cell_angle_gamma   90.00000000
_symmetry_Int_Tables_number   1
_chemical_formula_structural   CeGdN2
_chemical_formula_sum   'Ce1 Gd1 N2'
_cell_volume   63.77437867
_cell_formula_units_Z   1
loop_
 _symmetry_equiv_pos_site_id
 _symmetry_equiv_pos_as_xyz
  1  'x, y, z'
loop_
 _atom_site_type_symbol
 _atom_site_label
 _atom_site_symmetry_multiplicity
 _atom_site_fract_x
 _atom_site_fract_y
 _atom_site_fract_z
 _atom_site_occupancy
  Ce  Ce0  1  0.50000000  0.50000000  0.50000000  1
  Gd  Gd0  1  0.00000000  -0.00000000  -0.00000000  1
  N  N0  1  0.00000000  -0.00000000  0.50000000  1
  N  N1  1  0.50000000  0.50000000  0.00000000  1
loop_
_geom_bond_atom_site_label_1
_geom_bond_atom_site_label_2
_geom_bond_distance
_geom_bond_site_symmetry_2
Ce0 N1 2.507816 1_556
Ce0 N1 2.507816 1_555
Ce0 N0 2.521420 1_565
Ce0 N0 2.521420 1_655
Ce0 N0 2.521420 1_555
Ce0 N0 2.521420 1_665
Gd0 N0 2.507816 1_555
Gd0 N0 2.507816 1_554
Gd0 N1 2.521420 1_445
Gd0 N1 2.521420 1_555
Gd0 N1 2.521420 1_545
Gd0 N1 2.521420 1_455
