# generated using pymatgen
data_LiMg6Nb
_symmetry_space_group_name_H-M   'P 1'
_cell_length_a   4.96177000
_cell_length_b   6.41667500
_cell_length_c   10.66558600
_cell_angle_alpha   90.00000000
_cell_angle_beta   90.00000000
_cell_angle_gamma   90.00000000
_symmetry_Int_Tables_number   1
_chemical_formula_structural   LiMg6Nb
_chemical_formula_sum   'Li2 Mg12 Nb2'
_cell_volume   339.57162582
_cell_formula_units_Z   2
loop_
 _symmetry_equiv_pos_site_id
 _symmetry_equiv_pos_as_xyz
  1  'x, y, z'
loop_
 _atom_site_type_symbol
 _atom_site_label
 _atom_site_symmetry_multiplicity
 _atom_site_fract_x
 _atom_site_fract_y
 _atom_site_fract_z
 _atom_site_occupancy
  Li  Li0  1  0.50000000  0.00000000  0.83591100  1
  Li  Li1  1  0.50000000  0.50000000  0.33591100  1
  Mg  Mg0  1  0.50000000  0.25503500  0.58225700  1
  Mg  Mg1  1  0.50000000  0.74496500  0.58225700  1
  Mg  Mg2  1  0.00000000  0.24375600  0.41137000  1
  Mg  Mg3  1  0.00000000  0.75624400  0.41137000  1
  Mg  Mg4  1  0.00000000  0.00000000  0.66802500  1
  Mg  Mg5  1  0.00000000  0.00000000  0.17259100  1
  Mg  Mg6  1  0.50000000  0.75503500  0.08225700  1
  Mg  Mg7  1  0.50000000  0.24496500  0.08225700  1
  Mg  Mg8  1  0.00000000  0.74375600  0.91137000  1
  Mg  Mg9  1  0.00000000  0.25624400  0.91137000  1
  Mg  Mg10  1  0.00000000  0.50000000  0.16802500  1
  Mg  Mg11  1  0.00000000  0.50000000  0.67259100  1
  Nb  Nb0  1  0.50000000  0.00000000  0.33622300  1
  Nb  Nb1  1  0.50000000  0.50000000  0.83622300  1
loop_
_geom_bond_atom_site_label_1
_geom_bond_atom_site_label_2
_geom_bond_distance
_geom_bond_site_symmetry_2
Li0 Mg4 3.059583 1_655
Li0 Mg4 3.059583 1_555
Li0 Mg6 3.061716 1_546
Li0 Mg7 3.061716 1_556
Li0 Mg9 3.083184 1_555
Li0 Mg9 3.083184 1_655
Li0 Mg8 3.083184 1_545
Li0 Mg8 3.083184 1_645
Li0 Mg1 3.161815 1_545
Li0 Mg0 3.161815 1_555
Li0 Nb1 3.208339 1_555
Li0 Nb1 3.208339 1_545
Li1 Mg10 3.059583 1_555
Li1 Mg10 3.059583 1_655
Li1 Mg0 3.061716 1_555
Li1 Mg1 3.061716 1_555
Li1 Mg3 3.083184 1_555
Li1 Mg3 3.083184 1_655
Li1 Mg2 3.083184 1_655
Li1 Mg2 3.083184 1_555
Li1 Mg7 3.161815 1_555
Li1 Mg6 3.161815 1_555
Li1 Nb0 3.208339 1_555
Li1 Nb0 3.208339 1_565
Mg0 Mg2 3.079275 1_555
Mg0 Mg2 3.079275 1_655
Mg0 Mg11 3.090922 1_655
Mg0 Mg11 3.090922 1_555
Mg0 Nb0 3.092562 1_555
Mg0 Mg4 3.109605 1_555
Mg0 Mg4 3.109605 1_655
Mg0 Nb1 3.131738 1_555
Mg0 Mg1 3.143722 1_555
Mg0 Mg1 3.272953 1_545
Mg1 Mg3 3.079275 1_655
Mg1 Mg3 3.079275 1_555
Mg1 Mg11 3.090922 1_655
Mg1 Mg11 3.090922 1_555
Mg1 Nb0 3.092562 1_565
Mg1 Mg4 3.109605 1_665
Mg1 Mg4 3.109605 1_565
Mg1 Nb1 3.131738 1_555
Mg2 Mg5 2.988677 1_555
Mg2 Nb0 3.040327 1_555
Mg2 Nb0 3.040327 1_455
Mg2 Mg3 3.128206 1_545
Mg2 Mg4 3.152720 1_555
Mg2 Mg3 3.288469 1_555
Mg3 Mg5 2.988677 1_565
Mg3 Nb0 3.040327 1_465
Mg3 Nb0 3.040327 1_565
Mg3 Mg4 3.152720 1_565
Mg4 Mg9 3.072409 1_555
Mg4 Mg8 3.072409 1_545
Mg5 Nb0 3.033253 1_455
Mg5 Nb0 3.033253 1_555
Mg5 Mg6 3.090922 1_445
Mg5 Mg6 3.090922 1_545
Mg5 Mg7 3.090922 1_455
Mg5 Mg7 3.090922 1_555
Mg5 Mg9 3.235077 1_554
Mg5 Mg8 3.235077 1_544
Mg6 Mg8 3.079275 1_654
Mg6 Mg8 3.079275 1_554
Mg6 Nb1 3.092562 1_554
Mg6 Nb0 3.131738 1_565
Mg6 Mg7 3.143722 1_565
Mg6 Mg7 3.272953 1_555
Mg7 Mg9 3.079275 1_554
Mg7 Mg9 3.079275 1_654
Mg7 Nb1 3.092562 1_554
Mg7 Nb0 3.131738 1_555
Mg8 Nb1 3.040327 1_555
Mg8 Nb1 3.040327 1_455
Mg8 Mg9 3.128206 1_555
Mg8 Mg9 3.288469 1_565
Mg9 Nb1 3.040327 1_455
Mg9 Nb1 3.040327 1_555
Mg10 Mg3 3.072409 1_555
Mg10 Mg2 3.072409 1_555
Mg10 Mg6 3.109605 1_455
Mg10 Mg7 3.109605 1_555
Mg10 Mg6 3.109605 1_555
Mg10 Mg7 3.109605 1_455
Mg10 Mg8 3.152720 1_554
Mg10 Mg9 3.152720 1_554
Mg10 Mg5 3.208707 1_565
Mg10 Mg5 3.208707 1_555
Mg11 Mg8 2.988677 1_555
Mg11 Mg9 2.988677 1_555
Mg11 Nb1 3.033253 1_555
Mg11 Nb1 3.033253 1_455
Mg11 Mg4 3.208707 1_555
Mg11 Mg4 3.208707 1_565
Mg11 Mg3 3.235077 1_555
Mg11 Mg2 3.235077 1_555
