# generated using pymatgen
data_NaSr2(FeAs)6
_symmetry_space_group_name_H-M   'P 1'
_cell_length_a   5.51590241
_cell_length_b   6.51737256
_cell_length_c   8.85506860
_cell_angle_alpha   114.12208338
_cell_angle_beta   71.85308624
_cell_angle_gamma   90.00000000
_symmetry_Int_Tables_number   1
_chemical_formula_structural   NaSr2(FeAs)6
_chemical_formula_sum   'Na1 Sr2 Fe6 As6'
_cell_volume   273.09423658
_cell_formula_units_Z   1
loop_
 _symmetry_equiv_pos_site_id
 _symmetry_equiv_pos_as_xyz
  1  'x, y, z'
loop_
 _atom_site_type_symbol
 _atom_site_label
 _atom_site_symmetry_multiplicity
 _atom_site_fract_x
 _atom_site_fract_y
 _atom_site_fract_z
 _atom_site_occupancy
  Na  Na0  1  0.00000000  0.00000000  0.00000000  1
  Sr  Sr0  1  0.33701400  0.00066300  0.32597000  1
  Sr  Sr1  1  0.66298600  0.99933700  0.67403000  1
  Fe  Fe0  1  0.41677300  0.49831500  0.66655000  1
  Fe  Fe1  1  0.08332300  0.50168500  0.33345000  1
  Fe  Fe2  1  0.75029600  0.50000000  0.00000000  1
  Fe  Fe3  1  0.24970400  0.50000000  0.00000000  1
  Fe  Fe4  1  0.91667700  0.49831500  0.66655000  1
  Fe  Fe5  1  0.58322700  0.50168500  0.33345000  1
  As  As0  1  0.11976400  0.28611800  0.76047300  1
  As  As1  1  0.78522100  0.29087500  0.42955800  1
  As  As2  1  0.45091400  0.28781500  0.09817300  1
  As  As3  1  0.54908600  0.71218500  0.90182700  1
  As  As4  1  0.21477900  0.70912500  0.57044200  1
  As  As5  1  0.88023600  0.71388200  0.23952700  1
loop_
_geom_bond_atom_site_label_1
_geom_bond_atom_site_label_2
_geom_bond_distance
_geom_bond_site_symmetry_2
As0 Fe0 2.319407 1_555
As0 Fe4 2.319410 1_455
As0 Fe3 2.342199 1_556
As0 Fe2 2.342202 1_456
As0 Sr1 3.234093 1_445
As0 Sr1 3.234098 1_545
As0 Na0 3.282136 1_556
As0 Sr0 3.313317 1_555
As1 Fe0 2.320872 1_555
As1 Fe4 2.320873 1_555
As1 Fe1 2.323729 1_655
As1 Fe5 2.323729 1_555
As1 Sr0 3.244290 1_655
As1 Sr0 3.244300 1_555
As1 Na0 3.281002 1_655
As1 Sr1 3.347255 1_545
As2 Fe5 2.321547 1_555
As2 Fe1 2.321550 1_555
As2 Fe2 2.341687 1_555
As2 Fe3 2.341691 1_555
As2 Sr0 3.203475 1_555
As2 Na0 3.236426 1_655
As2 Na0 3.236431 1_555
As2 Sr1 3.240513 1_544
As3 Fe0 2.321547 1_555
As3 Fe4 2.321550 1_555
As3 Fe3 2.341687 1_556
As3 Fe2 2.341691 1_556
As3 Sr1 3.203475 1_555
As3 Na0 3.236426 1_566
As3 Na0 3.236431 1_666
As3 Sr0 3.240513 1_566
As4 Fe5 2.320872 1_555
As4 Fe1 2.320873 1_555
As4 Fe4 2.323729 1_455
As4 Fe0 2.323729 1_555
As4 Sr1 3.244290 1_455
As4 Sr1 3.244300 1_555
As4 Na0 3.281002 1_566
As4 Sr0 3.347255 1_565
As5 Fe5 2.319407 1_555
As5 Fe1 2.319410 1_655
As5 Fe2 2.342199 1_555
As5 Fe3 2.342202 1_655
As5 Sr0 3.234093 1_665
As5 Sr0 3.234098 1_565
As5 Na0 3.282136 1_665
As5 Sr1 3.313317 1_555
