# generated using pymatgen
data_Ba3Fe2TeO9
_symmetry_space_group_name_H-M   'P 1'
_cell_length_a   5.86328186
_cell_length_b   5.86328186
_cell_length_c   14.46009800
_cell_angle_alpha   90.00000000
_cell_angle_beta   90.00000000
_cell_angle_gamma   119.99999842
_symmetry_Int_Tables_number   1
_chemical_formula_structural   Ba3Fe2TeO9
_chemical_formula_sum   'Ba6 Fe4 Te2 O18'
_cell_volume   430.51017380
_cell_formula_units_Z   2
loop_
 _symmetry_equiv_pos_site_id
 _symmetry_equiv_pos_as_xyz
  1  'x, y, z'
loop_
 _atom_site_type_symbol
 _atom_site_label
 _atom_site_symmetry_multiplicity
 _atom_site_fract_x
 _atom_site_fract_y
 _atom_site_fract_z
 _atom_site_occupancy
  Ba  Ba0  1  0.66666700  0.33333300  0.58584900  1
  Ba  Ba1  1  0.33333300  0.66666700  0.40533100  1
  Ba  Ba2  1  0.33333300  0.66666700  0.08584900  1
  Ba  Ba3  1  0.66666700  0.33333300  0.90533100  1
  Ba  Ba4  1  0.00000000  0.00000000  0.75343500  1
  Ba  Ba5  1  0.00000000  0.00000000  0.25343500  1
  Fe  Fe0  1  0.00000000  0.00000000  0.49156400  1
  Fe  Fe1  1  0.00000000  0.00000000  0.99156400  1
  Fe  Fe2  1  0.66666700  0.33333300  0.35512300  1
  Fe  Fe3  1  0.33333300  0.66666700  0.85512300  1
  Te  Te0  1  0.33333300  0.66666700  0.65905100  1
  Te  Te1  1  0.66666700  0.33333300  0.15905100  1
  O  O0  1  0.48329300  0.96658500  0.74510200  1
  O  O1  1  0.48329300  0.51670700  0.74510200  1
  O  O2  1  0.03341500  0.51670700  0.74510200  1
  O  O3  1  0.51670700  0.03341500  0.24510200  1
  O  O4  1  0.51670700  0.48329300  0.24510200  1
  O  O5  1  0.96658500  0.48329300  0.24510200  1
  O  O6  1  0.17225700  0.34451400  0.58451000  1
  O  O7  1  0.17225700  0.82774300  0.58451000  1
  O  O8  1  0.65548600  0.82774300  0.58451000  1
  O  O9  1  0.83449100  0.66898100  0.42025200  1
  O  O10  1  0.83449100  0.16550900  0.42025200  1
  O  O11  1  0.33101900  0.16550900  0.42025200  1
  O  O12  1  0.82774300  0.65548600  0.08451000  1
  O  O13  1  0.82774300  0.17225700  0.08451000  1
  O  O14  1  0.34451400  0.17225700  0.08451000  1
  O  O15  1  0.16550900  0.33101900  0.92025200  1
  O  O16  1  0.16550900  0.83449100  0.92025200  1
  O  O17  1  0.66898100  0.83449100  0.92025200  1
loop_
_geom_bond_atom_site_label_1
_geom_bond_atom_site_label_2
_geom_bond_distance
_geom_bond_site_symmetry_2
Ba0 O8 2.932252 1_545
Ba0 O6 2.932252 1_655
Ba0 O7 2.932255 1_655
Ba0 O7 2.932255 1_545
Ba0 O6 2.932257 1_555
Ba0 O8 2.932257 1_555
Ba0 O10 2.939154 1_555
Ba0 O9 2.939154 1_555
Ba0 O11 2.939154 1_555
Ba0 O1 2.961578 1_555
Ba0 O0 2.961578 1_545
Ba0 O2 2.961578 1_655
Ba1 O11 2.939587 1_565
Ba1 O9 2.939587 1_455
Ba1 O10 2.939593 1_565
Ba1 O10 2.939593 1_455
Ba1 O9 2.939599 1_555
Ba1 O11 2.939599 1_555
Ba1 O4 2.972565 1_555
Ba1 O5 2.972565 1_455
Ba1 O3 2.972565 1_565
Ba1 O7 3.064126 1_555
Ba1 O6 3.064129 1_555
Ba1 O8 3.064129 1_555
Ba2 O12 2.932252 1_455
Ba2 O14 2.932252 1_565
Ba2 O13 2.932255 1_565
Ba2 O13 2.932255 1_455
Ba2 O12 2.932257 1_555
Ba2 O14 2.932257 1_555
Ba2 O16 2.939154 1_554
Ba2 O15 2.939154 1_554
Ba2 O17 2.939154 1_554
Ba2 O4 2.961578 1_555
Ba2 O5 2.961578 1_455
Ba2 O3 2.961578 1_565
Ba3 O15 2.939587 1_655
Ba3 O17 2.939587 1_545
Ba3 O16 2.939593 1_655
Ba3 O16 2.939593 1_545
Ba3 O17 2.939599 1_555
Ba3 O15 2.939599 1_555
Ba3 O1 2.972565 1_555
Ba3 O2 2.972565 1_655
Ba3 O0 2.972565 1_545
Ba3 O13 3.064126 1_556
Ba3 O12 3.064129 1_556
Ba3 O14 3.064129 1_556
Ba4 O2 2.939015 1_555
Ba4 O0 2.939015 1_445
Ba4 O1 2.939018 1_555
Ba4 O1 2.939018 1_445
Ba4 O0 2.939021 1_545
Ba4 O2 2.939021 1_545
Ba4 O16 2.940041 1_545
Ba4 O15 2.940044 1_555
Ba4 O17 2.940044 1_445
Ba4 O7 3.004479 1_545
Ba4 O8 3.004479 1_445
Ba4 O6 3.004479 1_555
Ba5 O5 2.939015 1_445
Ba5 O3 2.939015 1_555
Ba5 O4 2.939018 1_555
Ba5 O4 2.939018 1_445
Ba5 O3 2.939021 1_455
Ba5 O5 2.939021 1_455
Ba5 O10 2.940041 1_455
Ba5 O11 2.940044 1_555
Ba5 O9 2.940044 1_445
Ba5 O13 3.004479 1_455
Ba5 O12 3.004479 1_445
Ba5 O14 3.004479 1_555
Fe0 O10 1.971930 1_455
Fe0 O9 1.971934 1_445
Fe0 O11 1.971934 1_555
Fe0 O7 2.206038 1_545
Fe0 O6 2.206039 1_555
Fe0 O8 2.206039 1_445
Fe1 O16 1.971930 1_545
Fe1 O17 1.971934 1_445
Fe1 O15 1.971934 1_555
Fe1 O13 2.206038 1_456
Fe1 O14 2.206039 1_556
Fe1 O12 2.206039 1_446
Fe2 O10 1.947228 1_555
Fe2 O11 1.947228 1_555
Fe2 O9 1.947228 1_555
Fe2 O3 2.202331 1_555
Fe2 O5 2.202331 1_555
Fe2 O4 2.202338 1_555
Fe3 O16 1.947228 1_555
Fe3 O15 1.947228 1_555
Fe3 O17 1.947228 1_555
Fe3 O0 2.202331 1_555
Fe3 O2 2.202331 1_555
Fe3 O1 2.202338 1_555
O0 Te0 1.966608 1_555
O1 Te0 1.966616 1_555
O2 Te0 1.966608 1_555
O3 Te1 1.966608 1_555
O4 Te1 1.966616 1_555
O5 Te1 1.966608 1_555
O6 Te0 1.959002 1_555
O7 Te0 1.958997 1_555
O8 Te0 1.959002 1_555
O12 Te1 1.959002 1_555
O13 Te1 1.958997 1_555
O14 Te1 1.959002 1_555
