# generated using pymatgen
data_TlCu4Se3
_symmetry_space_group_name_H-M   'P 1'
_cell_length_a   3.94481600
_cell_length_b   12.54316700
_cell_length_c   12.92743300
_cell_angle_alpha   90.00000000
_cell_angle_beta   90.00000000
_cell_angle_gamma   90.00000000
_symmetry_Int_Tables_number   1
_chemical_formula_structural   TlCu4Se3
_chemical_formula_sum   'Tl4 Cu16 Se12'
_cell_volume   639.65566592
_cell_formula_units_Z   4
loop_
 _symmetry_equiv_pos_site_id
 _symmetry_equiv_pos_as_xyz
  1  'x, y, z'
loop_
 _atom_site_type_symbol
 _atom_site_label
 _atom_site_symmetry_multiplicity
 _atom_site_fract_x
 _atom_site_fract_y
 _atom_site_fract_z
 _atom_site_occupancy
  Tl  Tl0  1  0.00000000  0.39454900  0.37211100  1
  Tl  Tl1  1  0.00000000  0.60545100  0.62788900  1
  Tl  Tl2  1  0.50000000  0.10545100  0.87211100  1
  Tl  Tl3  1  0.50000000  0.89454900  0.12788900  1
  Cu  Cu0  1  0.00000000  0.09659400  0.46000600  1
  Cu  Cu1  1  0.00000000  0.90340600  0.53999400  1
  Cu  Cu2  1  0.50000000  0.40340600  0.96000600  1
  Cu  Cu3  1  0.50000000  0.59659400  0.03999400  1
  Cu  Cu4  1  0.00000000  0.08578500  0.26950500  1
  Cu  Cu5  1  0.00000000  0.91421500  0.73049500  1
  Cu  Cu6  1  0.50000000  0.41421500  0.76950500  1
  Cu  Cu7  1  0.50000000  0.58578500  0.23049500  1
  Cu  Cu8  1  0.00000000  0.31548200  0.07944300  1
  Cu  Cu9  1  0.00000000  0.68451800  0.92055700  1
  Cu  Cu10  1  0.50000000  0.18451800  0.57944300  1
  Cu  Cu11  1  0.50000000  0.81548200  0.42055700  1
  Cu  Cu12  1  0.00000000  0.30496200  0.67388900  1
  Cu  Cu13  1  0.00000000  0.69503800  0.32611100  1
  Cu  Cu14  1  0.50000000  0.19503800  0.17388900  1
  Cu  Cu15  1  0.50000000  0.80496200  0.82611100  1
  Se  Se0  1  0.00000000  0.11989300  0.08929400  1
  Se  Se1  1  0.00000000  0.88010700  0.91070600  1
  Se  Se2  1  0.50000000  0.38010700  0.58929400  1
  Se  Se3  1  0.50000000  0.61989300  0.41070600  1
  Se  Se4  1  0.00000000  0.67907200  0.13214500  1
  Se  Se5  1  0.00000000  0.32092800  0.86785500  1
  Se  Se6  1  0.50000000  0.82092800  0.63214500  1
  Se  Se7  1  0.50000000  0.17907200  0.36785500  1
  Se  Se8  1  0.00000000  0.09273200  0.64372900  1
  Se  Se9  1  0.00000000  0.90726800  0.35627100  1
  Se  Se10  1  0.50000000  0.40726800  0.14372900  1
  Se  Se11  1  0.50000000  0.59273200  0.85627100  1
loop_
_geom_bond_atom_site_label_1
_geom_bond_atom_site_label_2
_geom_bond_distance
_geom_bond_site_symmetry_2
Cu0 Se8 2.375561 1_555
Cu0 Cu4 2.466418 1_555
Cu0 Se7 2.525826 1_455
Cu0 Se7 2.525826 1_555
Cu0 Cu1 2.634594 1_545
Cu0 Se9 2.727229 1_545
Cu0 Cu10 2.736903 1_555
Cu0 Cu10 2.736903 1_455
Cu1 Se9 2.375561 1_555
Cu1 Cu5 2.466418 1_555
Cu1 Se6 2.525826 1_555
Cu1 Se6 2.525826 1_455
Cu1 Se8 2.727229 1_565
Cu1 Cu11 2.736903 1_555
Cu1 Cu11 2.736903 1_455
Cu2 Se10 2.375561 1_556
Cu2 Cu6 2.466418 1_555
Cu2 Se5 2.525826 1_555
Cu2 Se5 2.525826 1_655
Cu2 Cu3 2.634594 1_556
Cu2 Se11 2.727229 1_555
Cu2 Cu8 2.736903 1_556
Cu2 Cu8 2.736903 1_656
Cu3 Se11 2.375561 1_554
Cu3 Cu7 2.466418 1_555
Cu3 Se4 2.525826 1_555
Cu3 Se4 2.525826 1_655
Cu3 Se10 2.727229 1_555
Cu3 Cu9 2.736903 1_654
Cu3 Cu9 2.736903 1_554
Cu4 Se0 2.368623 1_555
Cu4 Se9 2.504396 1_545
Cu4 Se7 2.622223 1_455
Cu4 Se7 2.622223 1_555
Cu5 Se1 2.368623 1_555
Cu5 Se8 2.504396 1_565
Cu5 Se6 2.622223 1_455
Cu5 Se6 2.622223 1_555
Cu6 Se2 2.368623 1_555
Cu6 Se11 2.504396 1_555
Cu6 Se5 2.622223 1_655
Cu6 Se5 2.622223 1_555
Cu7 Se3 2.368623 1_555
Cu7 Se10 2.504396 1_555
Cu7 Se4 2.622223 1_555
Cu7 Se4 2.622223 1_655
Cu8 Se10 2.430330 1_555
Cu8 Se10 2.430330 1_455
Cu8 Se0 2.456609 1_555
Cu8 Se5 2.736143 1_554
Cu9 Se11 2.430330 1_555
Cu9 Se11 2.430330 1_455
Cu9 Se1 2.456609 1_555
Cu9 Se4 2.736143 1_556
Cu10 Se8 2.430330 1_555
Cu10 Se8 2.430330 1_655
Cu10 Se2 2.456609 1_555
Cu10 Se7 2.736143 1_555
Cu11 Se9 2.430330 1_555
Cu11 Se9 2.430330 1_655
Cu11 Se3 2.456609 1_555
Cu11 Se6 2.736143 1_555
Cu12 Se2 2.444332 1_455
Cu12 Se2 2.444332 1_555
Cu12 Se5 2.515467 1_555
Cu12 Se8 2.690437 1_555
Cu13 Se3 2.444332 1_455
Cu13 Se3 2.444332 1_555
Cu13 Se4 2.515467 1_555
Cu13 Se9 2.690437 1_555
Cu14 Se0 2.444332 1_655
Cu14 Se0 2.444332 1_555
Cu14 Se7 2.515467 1_555
Cu14 Se10 2.690437 1_555
Cu15 Se1 2.444332 1_655
Cu15 Se1 2.444332 1_555
Cu15 Se6 2.515467 1_555
Cu15 Se11 2.690437 1_555
Se4 Tl3 3.346394 1_455
Se4 Tl3 3.346394 1_555
Se5 Tl2 3.346394 1_455
Se5 Tl2 3.346394 1_555
Se6 Tl1 3.346394 1_555
Se6 Tl1 3.346394 1_655
Se7 Tl0 3.346394 1_655
Se7 Tl0 3.346394 1_555
