# generated using pymatgen
data_K4Eu2U(GeO4)4
_symmetry_space_group_name_H-M   'P 1'
_cell_length_a   7.06183900
_cell_length_b   7.09057273
_cell_length_c   10.16048470
_cell_angle_alpha   99.15444383
_cell_angle_beta   93.92285022
_cell_angle_gamma   110.92129932
_symmetry_Int_Tables_number   1
_chemical_formula_structural   K4Eu2U(GeO4)4
_chemical_formula_sum   'K4 Eu2 U1 Ge4 O16'
_cell_volume   464.82046414
_cell_formula_units_Z   1
loop_
 _symmetry_equiv_pos_site_id
 _symmetry_equiv_pos_as_xyz
  1  'x, y, z'
loop_
 _atom_site_type_symbol
 _atom_site_label
 _atom_site_symmetry_multiplicity
 _atom_site_fract_x
 _atom_site_fract_y
 _atom_site_fract_z
 _atom_site_occupancy
  K  K0  1  0.75771900  0.03866700  0.59994800  1
  K  K1  1  0.24228100  0.96133300  0.40005200  1
  K  K2  1  0.80852600  0.16352500  0.96271100  1
  K  K3  1  0.19147400  0.83647500  0.03728900  1
  Eu  Eu0  1  0.72747900  0.47931700  0.40077600  1
  Eu  Eu1  1  0.27252100  0.52068300  0.59922400  1
  U  U0  1  0.50000000  0.50000000  0.00000000  1
  Ge  Ge0  1  0.24121400  0.03642200  0.73723000  1
  Ge  Ge1  1  0.75878600  0.96357800  0.26277000  1
  Ge  Ge2  1  0.82920900  0.62374500  0.73504600  1
  Ge  Ge3  1  0.17079100  0.37625500  0.26495400  1
  O  O0  1  0.38848000  0.17219200  0.89644100  1
  O  O1  1  0.61152000  0.82780800  0.10355900  1
  O  O2  1  0.18650000  0.18956100  0.63364800  1
  O  O3  1  0.81350000  0.81043900  0.36635200  1
  O  O4  1  0.34692300  0.87297300  0.65067300  1
  O  O5  1  0.65307700  0.12702700  0.34932700  1
  O  O6  1  0.99932500  0.89063500  0.79295900  1
  O  O7  1  0.00067500  0.10936500  0.20704100  1
  O  O8  1  0.62823500  0.61816200  0.62007200  1
  O  O9  1  0.37176500  0.38183800  0.37992800  1
  O  O10  1  0.93304800  0.47606100  0.62924800  1
  O  O11  1  0.06695200  0.52393900  0.37075200  1
  O  O12  1  0.77321500  0.54405300  0.88900700  1
  O  O13  1  0.22678500  0.45594700  0.11099300  1
  O  O14  1  0.63883900  0.43072200  0.13869800  1
  O  O15  1  0.36116100  0.56927800  0.86130200  1
loop_
_geom_bond_atom_site_label_1
_geom_bond_atom_site_label_2
_geom_bond_distance
_geom_bond_site_symmetry_2
K0 O3 2.787160 1_545
K0 O2 2.803305 1_655
K0 O5 2.829086 1_555
K0 O4 2.832801 1_545
K0 O8 2.835570 1_545
K0 O10 2.855443 1_555
K0 O6 3.055287 1_545
K1 O2 2.787160 1_565
K1 O3 2.803305 1_455
K1 O4 2.829086 1_555
K1 O5 2.832801 1_565
K1 O9 2.835570 1_565
K1 O11 2.855443 1_555
K1 O7 3.055287 1_565
K2 O7 2.892433 1_656
K2 O1 2.939588 1_546
K2 O12 3.000157 1_555
K2 O14 3.009868 1_556
K2 O0 3.020951 1_555
K2 O13 3.052311 1_656
K2 O6 3.106813 1_545
K3 O6 2.892433 1_454
K3 O0 2.939588 1_564
K3 O13 3.000157 1_555
K3 O15 3.009868 1_554
K3 O1 3.020951 1_555
K3 O12 3.052311 1_454
K3 O7 3.106813 1_565
Eu0 O3 2.296850 1_555
Eu0 O5 2.323495 1_555
Eu0 O9 2.339520 1_555
Eu0 O11 2.351449 1_655
Eu0 O8 2.536438 1_555
Eu0 O14 2.631960 1_555
Eu0 O10 2.660203 1_555
Eu1 O2 2.296850 1_555
Eu1 O4 2.323495 1_555
Eu1 O8 2.339520 1_555
Eu1 O10 2.351449 1_455
Eu1 O9 2.536438 1_555
Eu1 O15 2.631960 1_555
Eu1 O11 2.660203 1_555
Ge0 O2 1.744592 1_555
Ge0 O4 1.748500 1_545
Ge0 O0 1.784494 1_555
Ge0 O6 1.834283 1_445
Ge1 O3 1.744592 1_555
Ge1 O5 1.748500 1_565
Ge1 O1 1.784494 1_555
Ge1 O7 1.834283 1_665
Ge2 O10 1.757238 1_555
Ge2 O8 1.760343 1_555
Ge2 O12 1.768918 1_555
Ge2 O6 1.815487 1_555
Ge3 O11 1.757238 1_555
Ge3 O9 1.760343 1_555
Ge3 O13 1.768918 1_555
Ge3 O7 1.815487 1_555
O0 U0 2.220600 1_556
O1 U0 2.220600 1_555
O12 U0 2.251967 1_556
O13 U0 2.251967 1_555
O14 U0 1.887783 1_555
O15 U0 1.887783 1_556
