# generated using pymatgen
data_Zr7V5N2
_symmetry_space_group_name_H-M   'P 1'
_cell_length_a   8.70463070
_cell_length_b   8.70463070
_cell_length_c   8.70463070
_cell_angle_alpha   120.17329696
_cell_angle_beta   119.77875322
_cell_angle_gamma   90.04187014
_symmetry_Int_Tables_number   1
_chemical_formula_structural   Zr7V5N2
_chemical_formula_sum   'Zr14 V10 N4'
_cell_volume   466.53781461
_cell_formula_units_Z   2
loop_
 _symmetry_equiv_pos_site_id
 _symmetry_equiv_pos_as_xyz
  1  'x, y, z'
loop_
 _atom_site_type_symbol
 _atom_site_label
 _atom_site_symmetry_multiplicity
 _atom_site_fract_x
 _atom_site_fract_y
 _atom_site_fract_z
 _atom_site_occupancy
  Zr  Zr0  1  0.19020900  0.94020900  0.25000000  1
  Zr  Zr1  1  0.56120200  0.31120200  0.25000000  1
  Zr  Zr2  1  0.18869400  0.94263800  0.87831100  1
  Zr  Zr3  1  0.56432700  0.31038300  0.62168900  1
  Zr  Zr4  1  0.56432700  0.94263800  0.25394400  1
  Zr  Zr5  1  0.18869400  0.31038300  0.24605600  1
  Zr  Zr6  1  0.80979100  0.05979100  0.75000000  1
  Zr  Zr7  1  0.43879800  0.68879800  0.75000000  1
  Zr  Zr8  1  0.81130600  0.05736200  0.12168900  1
  Zr  Zr9  1  0.43567300  0.68961700  0.37831100  1
  Zr  Zr10  1  0.43567300  0.05736200  0.74605600  1
  Zr  Zr11  1  0.81130600  0.68961700  0.75394400  1
  Zr  Zr12  1  0.50000000  0.50000000  0.00000000  1
  Zr  Zr13  1  0.00000000  0.50000000  0.50000000  1
  V  V0  1  0.11325400  0.71310500  0.40014900  1
  V  V1  1  0.81295500  0.71310500  0.09985100  1
  V  V2  1  0.80903000  0.72568000  0.41665100  1
  V  V3  1  0.80903000  0.39237900  0.08334900  1
  V  V4  1  0.88674600  0.28689500  0.59985100  1
  V  V5  1  0.18704500  0.28689500  0.90014900  1
  V  V6  1  0.19097000  0.27432000  0.58334900  1
  V  V7  1  0.19097000  0.60762100  0.91665100  1
  V  V8  1  0.00000000  0.50000000  0.00000000  1
  V  V9  1  0.00000000  0.00000000  0.50000000  1
  N  N0  1  0.00000000  0.00000000  0.00000000  1
  N  N1  1  0.50000000  0.00000000  0.50000000  1
  N  N2  1  0.50000000  0.00000000  0.00000000  1
  N  N3  1  0.50000000  0.50000000  0.50000000  1
loop_
_geom_bond_atom_site_label_1
_geom_bond_atom_site_label_2
_geom_bond_distance
_geom_bond_site_symmetry_2
V0 V8 2.576174 1_555
V0 V9 2.576174 1_565
V0 V1 2.622724 1_455
V0 V2 2.721730 1_455
V0 V3 2.721730 1_455
V0 Zr13 2.763608 1_555
V0 Zr10 2.906250 1_565
V0 Zr9 2.906250 1_555
V0 Zr7 3.070108 1_555
V0 Zr0 3.087050 1_555
V0 Zr5 3.266624 1_555
V0 Zr2 3.266624 1_555
V1 V9 2.576174 1_665
V1 V8 2.576181 1_655
V1 V2 2.721730 1_555
V1 V3 2.721731 1_555
V1 Zr12 2.763601 1_555
V1 Zr8 2.906250 1_565
V1 Zr11 2.906255 1_554
V1 Zr7 3.070103 1_554
V1 Zr0 3.087057 1_655
V1 Zr4 3.266616 1_555
V1 Zr3 3.266623 1_554
V2 V9 2.458915 1_665
V2 Zr13 2.718147 1_655
V2 Zr12 2.718154 1_555
V2 V3 2.893664 1_555
V2 Zr6 2.894096 1_565
V2 Zr11 3.096419 1_555
V2 Zr9 3.096423 1_555
V2 Zr2 3.131707 1_655
V2 Zr4 3.131715 1_555
V2 Zr1 3.375491 1_555
V3 V8 2.458908 1_655
V3 Zr13 2.718155 1_655
V3 Zr12 2.718155 1_555
V3 Zr6 2.894091 1_554
V3 Zr8 3.096424 1_555
V3 Zr10 3.096424 1_554
V3 Zr5 3.131707 1_655
V3 Zr3 3.131707 1_554
V3 Zr1 3.375499 1_555
V4 V8 2.576174 1_656
V4 V9 2.576174 1_655
V4 V5 2.622724 1_655
V4 V6 2.721730 1_655
V4 V7 2.721730 1_655
V4 Zr13 2.763608 1_655
V4 Zr3 2.906250 1_555
V4 Zr4 2.906250 1_545
V4 Zr1 3.070108 1_555
V4 Zr6 3.087050 1_555
V4 Zr8 3.266624 1_555
V4 Zr11 3.266624 1_555
V5 V9 2.576174 1_555
V5 V8 2.576181 1_556
V5 V6 2.721730 1_555
V5 V7 2.721731 1_555
V5 Zr12 2.763601 1_556
V5 Zr2 2.906250 1_545
V5 Zr5 2.906255 1_556
V5 Zr1 3.070103 1_556
V5 Zr6 3.087057 1_455
V5 Zr10 3.266616 1_555
V5 Zr9 3.266623 1_556
V6 V9 2.458915 1_555
V6 Zr13 2.718147 1_555
V6 Zr12 2.718154 1_556
V6 V7 2.893664 1_555
V6 Zr0 2.894096 1_545
V6 Zr5 3.096419 1_555
V6 Zr3 3.096423 1_555
V6 Zr8 3.131707 1_455
V6 Zr10 3.131715 1_555
V6 Zr7 3.375491 1_555
V7 V8 2.458908 1_556
V7 Zr13 2.718155 1_555
V7 Zr12 2.718155 1_556
V7 Zr0 2.894091 1_556
V7 Zr4 3.096424 1_556
V7 Zr2 3.096424 1_555
V7 Zr11 3.131707 1_455
V7 Zr9 3.131707 1_556
V7 Zr7 3.375499 1_555
V8 Zr3 3.173767 1_454
V8 Zr5 3.173767 1_555
V8 Zr9 3.173767 1_555
V8 Zr11 3.173767 1_454
V8 Zr0 3.192107 1_555
V8 Zr6 3.192107 1_454
V9 Zr2 3.173767 1_545
V9 Zr4 3.173767 1_445
V9 Zr10 3.173767 1_555
V9 Zr8 3.173767 1_455
V9 Zr6 3.192107 1_455
V9 Zr0 3.192107 1_545
N0 Zr11 2.294974 1_444
N0 Zr8 2.294974 1_455
N0 Zr5 2.294974 1_555
N0 Zr2 2.294974 1_544
N0 Zr6 2.304068 1_454
N0 Zr0 2.304068 1_545
N1 Zr9 2.294974 1_545
N1 Zr3 2.294974 1_555
N1 Zr4 2.294974 1_545
N1 Zr10 2.294974 1_555
N1 Zr0 2.304068 1_545
N1 Zr6 2.304068 1_555
N2 Zr7 2.297408 1_544
N2 Zr1 2.297408 1_555
N2 Zr8 2.308586 1_555
N2 Zr2 2.308586 1_544
N2 Zr10 2.308586 1_554
N2 Zr4 2.308586 1_545
N3 Zr7 2.297408 1_555
N3 Zr1 2.297408 1_555
N3 Zr5 2.308586 1_555
N3 Zr3 2.308586 1_555
N3 Zr9 2.308586 1_555
N3 Zr11 2.308586 1_555
