# generated using pymatgen
data_CeY(MgNi4)2
_symmetry_space_group_name_H-M   'P 1'
_cell_length_a   8.56100259
_cell_length_b   8.56100259
_cell_length_c   8.56100266
_cell_angle_alpha   33.57162554
_cell_angle_beta   33.57162554
_cell_angle_gamma   33.57163201
_symmetry_Int_Tables_number   1
_chemical_formula_structural   CeY(MgNi4)2
_chemical_formula_sum   'Ce1 Y1 Mg2 Ni8'
_cell_volume   170.90090704
_cell_formula_units_Z   1
loop_
 _symmetry_equiv_pos_site_id
 _symmetry_equiv_pos_as_xyz
  1  'x, y, z'
loop_
 _atom_site_type_symbol
 _atom_site_label
 _atom_site_symmetry_multiplicity
 _atom_site_fract_x
 _atom_site_fract_y
 _atom_site_fract_z
 _atom_site_occupancy
  Ce  Ce0  1  0.99988400  0.99988400  0.99988400  1
  Y  Y0  1  0.50000600  0.50000600  0.50000600  1
  Mg  Mg0  1  0.12538300  0.12538300  0.12538300  1
  Mg  Mg1  1  0.62464400  0.62464400  0.62464400  1
  Ni  Ni0  1  0.56398200  0.05966300  0.56398200  1
  Ni  Ni1  1  0.06389000  0.56057600  0.06389000  1
  Ni  Ni2  1  0.05966300  0.56398200  0.56398200  1
  Ni  Ni3  1  0.56057600  0.06389000  0.06389000  1
  Ni  Ni4  1  0.81208700  0.81208700  0.81208700  1
  Ni  Ni5  1  0.31201200  0.31201200  0.31201200  1
  Ni  Ni6  1  0.56398200  0.56398200  0.05966300  1
  Ni  Ni7  1  0.06389000  0.06389000  0.56057600  1
loop_
_geom_bond_atom_site_label_1
_geom_bond_atom_site_label_2
_geom_bond_distance
_geom_bond_site_symmetry_2
Ce0 Ni7 2.894323 1_665
Ce0 Ni1 2.894323 1_656
Ce0 Ni3 2.894323 1_566
Ce0 Ni5 2.900654 1_665
Ce0 Ni5 2.900654 1_656
Ce0 Ni5 2.900654 1_566
Ce0 Ni0 2.900775 1_665
Ce0 Ni2 2.900775 1_665
Ce0 Ni0 2.900775 1_566
Ce0 Ni2 2.900775 1_656
Ce0 Ni6 2.900775 1_656
Ce0 Ni6 2.900775 1_566
Ce0 Mg1 3.029810 1_556
Ce0 Mg1 3.029810 1_655
Ce0 Mg1 3.029810 1_565
Ce0 Mg0 3.038697 1_666
Mg0 Ni7 2.891381 1_555
Mg0 Ni1 2.891381 1_555
Mg0 Ni3 2.891381 1_555
Mg0 Ni4 2.895781 1_445
Mg0 Ni4 2.895782 1_454
Mg0 Ni4 2.895782 1_544
Mg0 Ni2 2.903086 1_545
Mg0 Ni0 2.903086 1_455
Mg0 Ni2 2.903086 1_554
Mg0 Ni0 2.903086 1_554
Mg0 Ni6 2.903087 1_545
Mg0 Ni6 2.903087 1_455
Mg0 Y0 3.024839 1_554
Mg0 Y0 3.024840 1_455
Mg0 Y0 3.024840 1_545
Mg1 Ni3 2.890684 1_556
Mg1 Ni1 2.890684 1_556
Mg1 Ni1 2.890685 1_655
Mg1 Ni3 2.890685 1_565
Mg1 Ni7 2.890685 1_655
Mg1 Ni7 2.890685 1_565
Mg1 Ni5 2.898518 1_556
Mg1 Ni5 2.898519 1_565
Mg1 Ni5 2.898519 1_655
Mg1 Ni6 2.900453 1_556
Mg1 Ni0 2.900453 1_565
Mg1 Ni2 2.900453 1_655
Mg1 Y0 3.017850 1_555
Ni0 Ni6 2.451016 1_546
Ni0 Ni2 2.451017 1_645
Ni0 Ni4 2.455486 1_545
Ni0 Ni5 2.489210 1_555
Ni0 Ni6 2.493729 1_555
Ni0 Ni2 2.493729 1_555
Ni0 Y0 2.903419 1_555
Ni1 Ni5 2.450856 1_555
Ni1 Ni7 2.455986 1_555
Ni1 Ni3 2.455986 1_555
Ni1 Ni7 2.488759 1_564
Ni1 Ni3 2.488760 1_465
Ni1 Ni4 2.490873 1_454
Ni1 Y0 2.902297 1_455
Ni1 Y0 2.902298 1_554
Ni2 Ni6 2.451016 1_456
Ni2 Ni4 2.455486 1_455
Ni2 Ni5 2.489210 1_555
Ni2 Ni6 2.493729 1_555
Ni2 Y0 2.903419 1_555
Ni3 Ni5 2.450856 1_555
Ni3 Ni7 2.455986 1_555
Ni3 Ni7 2.488759 1_654
Ni3 Ni4 2.490873 1_544
Ni3 Y0 2.902297 1_545
Ni3 Y0 2.902298 1_554
Ni4 Ni6 2.455486 1_556
Ni4 Ni7 2.490873 1_665
Ni4 Y0 2.900855 1_556
Ni4 Y0 2.900856 1_655
Ni4 Y0 2.900856 1_565
Ni5 Ni7 2.450856 1_555
Ni5 Ni6 2.489210 1_555
Ni6 Y0 2.903419 1_555
Ni7 Y0 2.902298 1_545
Ni7 Y0 2.902298 1_455
