# generated using pymatgen
data_Ba2Co(BO2)6
_symmetry_space_group_name_H-M   'P 1'
_cell_length_a   7.02990300
_cell_length_b   12.31985169
_cell_length_c   7.03546327
_cell_angle_alpha   91.09971956
_cell_angle_beta   61.09893608
_cell_angle_gamma   74.00416919
_symmetry_Int_Tables_number   1
_chemical_formula_structural   Ba2Co(BO2)6
_chemical_formula_sum   'Ba4 Co2 B12 O24'
_cell_volume   504.30610202
_cell_formula_units_Z   2
loop_
 _symmetry_equiv_pos_site_id
 _symmetry_equiv_pos_as_xyz
  1  'x, y, z'
loop_
 _atom_site_type_symbol
 _atom_site_label
 _atom_site_symmetry_multiplicity
 _atom_site_fract_x
 _atom_site_fract_y
 _atom_site_fract_z
 _atom_site_occupancy
  Ba  Ba0  1  0.20897300  0.10407600  0.31217300  1
  Ba  Ba1  1  0.20849500  0.60408400  0.81279600  1
  Ba  Ba2  1  0.79150400  0.39591700  0.18720400  1
  Ba  Ba3  1  0.79102500  0.89592400  0.68782700  1
  Co  Co0  1  0.00000000  0.50000000  0.50000000  1
  Co  Co1  1  0.00000000  0.00000000  0.99999900  1
  B  B0  1  0.75686600  0.32233800  0.68780300  1
  B  B1  1  0.75657800  0.82254900  0.18751700  1
  B  B2  1  0.24342200  0.17745100  0.81248200  1
  B  B3  1  0.24313400  0.67766200  0.31219700  1
  B  B4  1  0.35446400  0.31722100  0.56145400  1
  B  B5  1  0.35490200  0.81720900  0.06087800  1
  B  B6  1  0.64509800  0.18279100  0.93912200  1
  B  B7  1  0.64553600  0.68277900  0.43854600  1
  B  B8  1  0.63391900  0.12196600  0.47716600  1
  B  B9  1  0.63443600  0.62180700  0.97703200  1
  B  B10  1  0.36556400  0.37819300  0.02296800  1
  B  B11  1  0.36608100  0.87803500  0.52283400  1
  O  O0  1  0.80451200  0.21355300  0.74941300  1
  O  O1  1  0.80455100  0.71385200  0.24914300  1
  O  O2  1  0.19545100  0.28614900  0.75085700  1
  O  O3  1  0.19548700  0.78644600  0.25058700  1
  O  O4  1  0.53639200  0.40188700  0.82919700  1
  O  O5  1  0.53619700  0.90210800  0.32923500  1
  O  O6  1  0.46380300  0.09789200  0.67076500  1
  O  O7  1  0.46360700  0.59811300  0.17080300  1
  O  O8  1  0.42763900  0.26807100  0.07195600  1
  O  O9  1  0.42799800  0.76791800  0.57162300  1
  O  O10  1  0.57200100  0.23208200  0.42837800  1
  O  O11  1  0.57236100  0.73192900  0.92804400  1
  O  O12  1  0.08458100  0.15696700  0.99793000  1
  O  O13  1  0.08462300  0.65689000  0.49747600  1
  O  O14  1  0.31342000  0.42011300  0.50579100  1
  O  O15  1  0.31452100  0.92014000  0.00480800  1
  O  O16  1  0.84016900  0.04288000  0.35626800  1
  O  O17  1  0.84034300  0.54233600  0.85714000  1
  O  O18  1  0.68547900  0.07986000  0.99519200  1
  O  O19  1  0.68658000  0.57988800  0.49420900  1
  O  O20  1  0.91537600  0.34311100  0.50252500  1
  O  O21  1  0.91541900  0.84303200  0.00207000  1
  O  O22  1  0.15965800  0.45766400  0.14286000  1
  O  O23  1  0.15983100  0.95712000  0.64373200  1
loop_
_geom_bond_atom_site_label_1
_geom_bond_atom_site_label_2
_geom_bond_distance
_geom_bond_site_symmetry_2
Ba0 O12 2.772562 1_554
Ba0 O16 2.774045 1_455
Ba0 O15 2.774186 1_545
Ba0 O18 2.913125 1_554
Ba0 O20 2.924504 1_455
Ba0 O23 2.926843 1_545
Ba0 O5 2.936163 1_545
Ba0 O8 2.938165 1_555
Ba0 O0 2.939263 1_455
Ba1 O17 2.772705 1_455
Ba1 O14 2.774360 1_555
Ba1 O13 2.777301 1_555
Ba1 O22 2.914742 1_556
Ba1 O21 2.922151 1_456
Ba1 O19 2.923876 1_555
Ba1 O1 2.935085 1_456
Ba1 O4 2.938618 1_555
Ba1 O9 2.941312 1_555
Ba2 O22 2.772712 1_655
Ba2 O19 2.774362 1_555
Ba2 O20 2.777307 1_555
Ba2 O17 2.914732 1_554
Ba2 O12 2.922172 1_654
Ba2 O14 2.923871 1_555
Ba2 O2 2.935092 1_654
Ba2 O7 2.938611 1_555
Ba2 O10 2.941325 1_555
Ba3 O21 2.772573 1_556
Ba3 O23 2.774059 1_655
Ba3 O18 2.774190 1_565
Ba3 O15 2.913114 1_556
Ba3 O13 2.924494 1_655
Ba3 O16 2.926841 1_565
Ba3 O6 2.936155 1_565
Ba3 O11 2.938159 1_555
Ba3 O3 2.939267 1_655
Co0 O20 2.171394 1_455
Co0 O13 2.171403 1_555
Co0 O14 2.172111 1_555
Co0 O19 2.172113 1_455
Co0 O22 2.178596 1_555
Co0 O17 2.178596 1_455
Co1 O12 2.172512 1_555
Co1 O21 2.172522 1_446
Co1 O23 2.173457 1_545
Co1 O16 2.173469 1_456
Co1 O18 2.175434 1_455
Co1 O15 2.175442 1_546
B0 O20 1.331281 1_555
B0 O4 1.409743 1_555
B0 O0 1.418266 1_555
B1 O21 1.331365 1_555
B1 O5 1.409789 1_555
B1 O1 1.417641 1_555
B2 O12 1.331374 1_555
B2 O6 1.409787 1_555
B2 O2 1.417647 1_555
B3 O13 1.331282 1_555
B3 O7 1.409739 1_555
B3 O3 1.418256 1_555
B4 O14 1.330473 1_555
B4 O2 1.409743 1_555
B4 O10 1.417644 1_555
B5 O15 1.331656 1_555
B5 O3 1.410197 1_555
B5 O11 1.417876 1_554
B6 O18 1.331656 1_555
B6 O0 1.410187 1_555
B6 O8 1.417876 1_556
B7 O19 1.330462 1_555
B7 O1 1.409756 1_555
B7 O9 1.417649 1_555
B8 O16 1.331385 1_555
B8 O10 1.408732 1_555
B8 O6 1.417694 1_555
B9 O17 1.331309 1_555
B9 O11 1.409556 1_555
B9 O7 1.418414 1_556
B10 O22 1.331305 1_555
B10 O8 1.409556 1_555
B10 O4 1.418411 1_554
B11 O23 1.331380 1_555
B11 O9 1.408745 1_555
B11 O5 1.417688 1_555
