# generated using pymatgen
data_Rb12Ca(ClO)4
_symmetry_space_group_name_H-M   'P 1'
_cell_length_a   7.99712543
_cell_length_b   8.41854825
_cell_length_c   11.35568200
_cell_angle_alpha   90.00000000
_cell_angle_beta   90.00000000
_cell_angle_gamma   99.62146696
_symmetry_Int_Tables_number   1
_chemical_formula_structural   Rb12Ca(ClO)4
_chemical_formula_sum   'Rb12 Ca1 Cl4 O4'
_cell_volume   753.75803000
_cell_formula_units_Z   1
loop_
 _symmetry_equiv_pos_site_id
 _symmetry_equiv_pos_as_xyz
  1  'x, y, z'
loop_
 _atom_site_type_symbol
 _atom_site_label
 _atom_site_symmetry_multiplicity
 _atom_site_fract_x
 _atom_site_fract_y
 _atom_site_fract_z
 _atom_site_occupancy
  Rb  Rb0  1  0.09823000  0.50045700  0.25000000  1
  Rb  Rb1  1  0.24355300  0.16506600  0.48657600  1
  Rb  Rb2  1  0.24355300  0.16506600  0.01342400  1
  Rb  Rb3  1  0.28945600  0.69128700  0.95039600  1
  Rb  Rb4  1  0.28945600  0.69128700  0.54960400  1
  Rb  Rb5  1  0.45184600  0.95610100  0.25000000  1
  Rb  Rb6  1  0.56268200  0.04579800  0.75000000  1
  Rb  Rb7  1  0.73487700  0.30176000  0.03119700  1
  Rb  Rb8  1  0.73487700  0.30176000  0.46880300  1
  Rb  Rb9  1  0.77198700  0.84485300  0.05122500  1
  Rb  Rb10  1  0.77198700  0.84485300  0.44877500  1
  Rb  Rb11  1  0.85499800  0.60049900  0.75000000  1
  Ca  Ca0  1  0.10336300  0.32109100  0.75000000  1
  Cl  Cl0  1  0.92943700  0.12957900  0.25000000  1
  Cl  Cl1  1  0.50689000  0.50628800  0.25000000  1
  Cl  Cl2  1  0.45920000  0.41255800  0.75000000  1
  Cl  Cl3  1  0.04852300  0.98097100  0.75000000  1
  O  O0  1  0.02451100  0.42562700  0.90634500  1
  O  O1  1  0.02451100  0.42562700  0.59365500  1
  O  O2  1  0.51136500  0.99473500  0.99998300  1
  O  O3  1  0.51136500  0.99473500  0.50001700  1
loop_
_geom_bond_atom_site_label_1
_geom_bond_atom_site_label_2
_geom_bond_distance
_geom_bond_site_symmetry_2
Ca0 O1 2.123601 1_555
Ca0 O0 2.123601 1_555
Ca0 Cl2 2.821048 1_555
Ca0 Cl3 2.823323 1_545
Cl0 Rb0 3.187750 1_655
Cl0 Rb10 3.378925 1_545
Cl0 Rb9 3.378925 1_545
Cl0 Rb7 3.383697 1_555
Cl0 Rb8 3.383697 1_555
Cl0 Rb1 3.655933 1_655
Cl0 Rb2 3.655933 1_655
Cl0 Rb5 3.854319 1_545
Cl1 Rb0 3.260260 1_555
Cl1 Rb7 3.675843 1_555
Cl1 Rb8 3.675843 1_555
Cl2 Rb11 3.293637 1_555
Cl2 Rb6 3.327488 1_555
Cl2 Rb4 3.686734 1_555
Cl2 Rb3 3.686734 1_555
Cl3 Rb11 3.316247 1_455
Cl3 Rb1 3.602046 1_565
Cl3 Rb2 3.602046 1_566
O0 Rb7 2.766779 1_456
O0 Rb11 2.797168 1_455
O0 Rb3 2.856104 1_555
O0 Rb2 3.262377 1_556
O1 Rb8 2.766779 1_455
O1 Rb11 2.797168 1_455
O1 Rb4 2.856104 1_555
O1 Rb1 3.262377 1_555
O2 Rb9 2.674660 1_556
O2 Rb2 2.773638 1_566
O2 Rb5 2.888106 1_556
O2 Rb6 2.890089 1_565
O2 Rb7 2.908085 1_566
O2 Rb3 2.911513 1_555
O3 Rb10 2.674660 1_555
O3 Rb1 2.773638 1_565
O3 Rb5 2.888106 1_555
O3 Rb6 2.890089 1_565
O3 Rb8 2.908085 1_565
O3 Rb4 2.911513 1_555
