# generated using pymatgen
data_NdSi2Ir3
_symmetry_space_group_name_H-M   'P 1'
_cell_length_a   6.68039774
_cell_length_b   6.68039774
_cell_length_c   6.68039774
_cell_angle_alpha   130.32813232
_cell_angle_beta   114.77958408
_cell_angle_gamma   86.19891675
_symmetry_Int_Tables_number   1
_chemical_formula_structural   NdSi2Ir3
_chemical_formula_sum   'Nd2 Si4 Ir6'
_cell_volume   197.09995650
_cell_formula_units_Z   2
loop_
 _symmetry_equiv_pos_site_id
 _symmetry_equiv_pos_as_xyz
  1  'x, y, z'
loop_
 _atom_site_type_symbol
 _atom_site_label
 _atom_site_symmetry_multiplicity
 _atom_site_fract_x
 _atom_site_fract_y
 _atom_site_fract_z
 _atom_site_occupancy
  Nd  Nd0  1  0.25000000  0.97135288  0.72135288  1
  Nd  Nd1  1  0.75000000  0.02864712  0.27864712  1
  Si  Si0  1  0.07909915  0.28138287  0.20228372  1
  Si  Si1  1  0.92090085  0.71861713  0.79771628  1
  Si  Si2  1  0.42090085  0.62318357  0.20228372  1
  Si  Si3  1  0.57909915  0.37681643  0.79771628  1
  Ir  Ir0  1  0.50000000  0.50000000  0.50000000  1
  Ir  Ir1  1  -0.00000000  0.50000000  0.00000000  1
  Ir  Ir2  1  0.27983881  -0.00000000  0.27983881  1
  Ir  Ir3  1  0.72016119  0.00000000  0.72016119  1
  Ir  Ir4  1  0.22016119  0.50000000  0.72016119  1
  Ir  Ir5  1  0.77983881  0.50000000  0.27983881  1
loop_
_geom_bond_atom_site_label_1
_geom_bond_atom_site_label_2
_geom_bond_distance
_geom_bond_site_symmetry_2
Nd0 Si2 3.172337 1_566
Nd0 Si0 3.172342 1_566
Nd0 Si1 3.239045 1_455
Nd0 Si3 3.239050 1_565
Nd0 Si0 3.356311 1_555
Nd0 Si2 3.356311 1_555
Nd0 Nd1 3.614535 1_465
Nd0 Nd1 3.614535 1_566
Nd1 Si3 3.172337 1_544
Nd1 Si1 3.172342 1_544
Nd1 Si0 3.239045 1_655
Nd1 Si2 3.239050 1_545
Nd1 Si1 3.356311 1_555
Nd1 Si3 3.356311 1_555
Ir0 Si2 2.468148 1_555
Ir0 Si3 2.468148 1_555
Ir0 Si0 2.468154 1_555
Ir0 Si1 2.468154 1_555
Ir0 Nd0 3.199558 1_555
Ir0 Nd1 3.199558 1_555
Ir0 Nd1 3.470088 1_566
Ir0 Nd0 3.470088 1_544
Ir1 Si3 2.468154 1_454
Ir1 Si2 2.468154 1_555
Ir1 Si1 2.468154 1_454
Ir1 Si0 2.468154 1_555
Ir1 Nd0 3.199558 1_555
Ir1 Nd1 3.199558 1_454
Ir1 Nd1 3.470088 1_465
Ir1 Nd0 3.470088 1_544
Ir2 Si3 2.428956 1_555
Ir2 Si2 2.428961 1_545
Ir2 Si1 2.438060 1_444
Ir2 Si0 2.438060 1_555
Ir2 Nd0 3.162964 1_545
Ir2 Nd1 3.162964 1_555
Ir2 Nd1 3.528956 1_455
Ir2 Nd0 3.528956 1_544
Ir3 Si2 2.428956 1_545
Ir3 Si3 2.428961 1_555
Ir3 Si1 2.438060 1_545
Ir3 Si0 2.438060 1_656
Ir3 Nd0 3.162964 1_545
Ir3 Nd1 3.162964 1_555
Ir3 Nd1 3.528956 1_556
Ir3 Nd0 3.528956 1_645
Ir4 Si0 2.428955 1_555
Ir4 Si1 2.428955 1_455
Ir4 Si3 2.438057 1_555
Ir4 Si2 2.438063 1_556
Ir4 Nd1 3.162964 1_455
Ir4 Nd0 3.162964 1_555
Ir4 Nd1 3.528956 1_566
Ir4 Nd0 3.528956 1_545
Ir5 Si1 2.428955 1_555
Ir5 Si0 2.428955 1_655
Ir5 Si2 2.438057 1_555
Ir5 Si3 2.438063 1_554
Ir5 Nd0 3.162964 1_655
Ir5 Nd1 3.162964 1_555
Ir5 Nd0 3.528956 1_544
Ir5 Nd1 3.528956 1_565
