# generated using pymatgen
data_Cs6Dy21S34Cl
_symmetry_space_group_name_H-M   'P 1'
_cell_length_a   13.11414817
_cell_length_b   13.11414817
_cell_length_c   13.12066578
_cell_angle_alpha   65.56827975
_cell_angle_beta   65.56827975
_cell_angle_gamma   97.28603158
_symmetry_Int_Tables_number   1
_chemical_formula_structural   Cs6Dy21S34Cl
_chemical_formula_sum   'Cs6 Dy21 S34 Cl1'
_cell_volume   1745.51938961
_cell_formula_units_Z   1
loop_
 _symmetry_equiv_pos_site_id
 _symmetry_equiv_pos_as_xyz
  1  'x, y, z'
loop_
 _atom_site_type_symbol
 _atom_site_label
 _atom_site_symmetry_multiplicity
 _atom_site_fract_x
 _atom_site_fract_y
 _atom_site_fract_z
 _atom_site_occupancy
  Cs  Cs0  1  0.05135600  0.80550300  0.72970200  1
  Cs  Cs1  1  0.80550300  0.05135600  0.72970200  1
  Cs  Cs2  1  0.94864400  0.19449700  0.27029800  1
  Cs  Cs3  1  0.19449700  0.94864400  0.27029800  1
  Cs  Cs4  1  0.76835500  0.76835500  0.58442100  1
  Cs  Cs5  1  0.23164500  0.23164500  0.41557900  1
  Dy  Dy0  1  0.69844100  0.30155900  0.00000000  1
  Dy  Dy1  1  0.30155900  0.69844100  0.00000000  1
  Dy  Dy2  1  0.04531200  0.46301000  0.75140200  1
  Dy  Dy3  1  0.46301000  0.04531200  0.75140200  1
  Dy  Dy4  1  0.95468800  0.53699000  0.24859800  1
  Dy  Dy5  1  0.53699000  0.95468800  0.24859800  1
  Dy  Dy6  1  0.82843900  0.42752500  0.62322200  1
  Dy  Dy7  1  0.42752500  0.82843900  0.62322200  1
  Dy  Dy8  1  0.17156100  0.57247500  0.37677800  1
  Dy  Dy9  1  0.57247500  0.17156100  0.37677800  1
  Dy  Dy10  1  0.90042100  0.09957900  0.00000000  1
  Dy  Dy11  1  0.09957900  0.90042100  0.00000000  1
  Dy  Dy12  1  0.26139800  0.46554500  0.89330900  1
  Dy  Dy13  1  0.46554500  0.26139800  0.89330900  1
  Dy  Dy14  1  0.73860200  0.53445500  0.10669100  1
  Dy  Dy15  1  0.53445500  0.73860200  0.10669100  1
  Dy  Dy16  1  0.39968600  0.60031400  0.50000000  1
  Dy  Dy17  1  0.60031400  0.39968600  0.50000000  1
  Dy  Dy18  1  0.50000000  0.50000000  0.00000000  1
  Dy  Dy19  1  0.24361400  0.24361400  0.74316500  1
  Dy  Dy20  1  0.75638600  0.75638600  0.25683500  1
  S  S0  1  0.68243300  0.68243300  0.94171400  1
  S  S1  1  0.31756700  0.31756700  0.05828600  1
  S  S2  1  0.05889300  0.05889300  0.82113100  1
  S  S3  1  0.94110700  0.94110700  0.17886900  1
  S  S4  1  0.08933800  0.29001600  0.92269700  1
  S  S5  1  0.29001600  0.08933800  0.92269700  1
  S  S6  1  0.91066200  0.70998400  0.07730300  1
  S  S7  1  0.70998400  0.91066200  0.07730300  1
  S  S8  1  0.88133800  0.48572300  0.93614700  1
  S  S9  1  0.48572300  0.88133800  0.93614700  1
  S  S10  1  0.11866200  0.51427700  0.06385300  1
  S  S11  1  0.51427700  0.11866200  0.06385300  1
  S  S12  1  0.86692800  0.27345200  0.81440800  1
  S  S13  1  0.27345200  0.86692800  0.81440800  1
  S  S14  1  0.13307200  0.72654800  0.18559200  1
  S  S15  1  0.72654800  0.13307200  0.18559200  1
  S  S16  1  0.24581500  0.63231600  0.68941200  1
  S  S17  1  0.63231600  0.24581500  0.68941200  1
  S  S18  1  0.75418500  0.36768400  0.31058800  1
  S  S19  1  0.36768400  0.75418500  0.31058800  1
  S  S20  1  0.01295700  0.60788500  0.55796700  1
  S  S21  1  0.60788500  0.01295700  0.55796700  1
  S  S22  1  0.98704300  0.39211500  0.44203300  1
  S  S23  1  0.39211500  0.98704300  0.44203300  1
  S  S24  1  0.21330000  0.42237800  0.56335600  1
  S  S25  1  0.42237800  0.21330000  0.56335600  1
  S  S26  1  0.78670000  0.57762200  0.43664400  1
  S  S27  1  0.57762200  0.78670000  0.43664400  1
  S  S28  1  0.65099400  0.44983600  0.81924300  1
  S  S29  1  0.44983600  0.65099400  0.81924300  1
  S  S30  1  0.34900600  0.55016400  0.18075700  1
  S  S31  1  0.55016400  0.34900600  0.18075700  1
  S  S32  1  0.42553800  0.42553800  0.69221700  1
  S  S33  1  0.57446200  0.57446200  0.30778300  1
  Cl  Cl0  1  0.00000000  0.00000000  0.50000000  1
loop_
_geom_bond_atom_site_label_1
_geom_bond_atom_site_label_2
_geom_bond_distance
_geom_bond_site_symmetry_2
Cs0 S8 3.623642 1_455
Cs0 S13 3.631882 1_555
Cs0 S16 3.645305 1_555
Cs0 S6 3.674343 1_456
Cs0 S23 3.974860 1_555
Cs0 S2 3.975352 1_565
Cs0 S0 4.113732 1_455
Cs0 S20 4.181554 1_555
Cs1 S9 3.623642 1_545
Cs1 S12 3.631882 1_555
Cs1 S17 3.645305 1_555
Cs1 S7 3.674343 1_546
Cs1 S22 3.974860 1_555
Cs1 S2 3.975352 1_655
Cs1 S0 4.113732 1_545
Cs1 S21 4.181554 1_555
Cs2 S10 3.623642 1_655
Cs2 S15 3.631882 1_555
Cs2 S18 3.645305 1_555
Cs2 S4 3.674343 1_654
Cs2 S21 3.974860 1_555
Cs2 S3 3.975352 1_545
Cs2 S1 4.113732 1_655
Cs2 S22 4.181554 1_555
Cs3 S11 3.623642 1_565
Cs3 S14 3.631882 1_555
Cs3 S19 3.645305 1_555
Cs3 S5 3.674343 1_564
Cs3 S20 3.974860 1_555
Cs3 S3 3.975352 1_455
Cs3 S1 4.113732 1_565
Cs3 S23 4.181554 1_555
Cs4 S28 3.620816 1_555
Cs4 S29 3.620816 1_555
Cs4 S27 3.721893 1_555
Cs4 S26 3.721893 1_555
Cs4 S0 3.931239 1_555
Cs4 S21 4.029165 1_565
Cs4 S20 4.029165 1_655
Cs4 S3 4.163318 1_555
Cs5 S30 3.620816 1_555
Cs5 S31 3.620816 1_555
Cs5 S25 3.721893 1_555
Cs5 S24 3.721893 1_555
Cs5 S1 3.931239 1_555
Cs5 S22 4.029165 1_455
Cs5 S23 4.029165 1_545
Cs5 S2 4.163318 1_555
Dy0 S15 2.728725 1_555
Dy0 S12 2.728725 1_554
Dy0 S8 2.735408 1_554
Dy0 S11 2.735408 1_555
Dy0 S31 2.739671 1_555
Dy0 S28 2.739671 1_554
Dy1 S14 2.728725 1_555
Dy1 S13 2.728725 1_554
Dy1 S9 2.735408 1_554
Dy1 S10 2.735408 1_555
Dy1 S30 2.739671 1_555
Dy1 S29 2.739671 1_554
Dy2 S8 2.652621 1_455
Dy2 S20 2.708803 1_555
Dy2 S12 2.749704 1_455
Dy2 S4 2.778361 1_555
Dy2 S16 2.785924 1_555
Dy2 S24 2.848458 1_555
Dy3 S9 2.652621 1_545
Dy3 S21 2.708803 1_555
Dy3 S13 2.749704 1_545
Dy3 S5 2.778361 1_555
Dy3 S17 2.785924 1_555
Dy3 S25 2.848458 1_555
Dy4 S10 2.652621 1_655
Dy4 S22 2.708803 1_555
Dy4 S14 2.749704 1_655
Dy4 S6 2.778361 1_555
Dy4 S18 2.785924 1_555
Dy4 S26 2.848458 1_555
Dy5 S11 2.652621 1_565
Dy5 S23 2.708803 1_555
Dy5 S15 2.749704 1_565
Dy5 S7 2.778361 1_555
Dy5 S19 2.785924 1_555
Dy5 S27 2.848458 1_555
Dy6 S22 2.694691 1_555
Dy6 S20 2.709648 1_655
Dy6 S26 2.750032 1_555
Dy6 S12 2.782657 1_555
Dy6 S17 2.816673 1_555
Dy6 S28 2.821321 1_555
Dy7 S23 2.694691 1_555
Dy7 S21 2.709648 1_565
Dy7 S27 2.750032 1_555
Dy7 S13 2.782657 1_555
Dy7 S16 2.816673 1_555
Dy7 S29 2.821321 1_555
Dy8 S20 2.694691 1_555
Dy8 S22 2.709648 1_455
Dy8 S24 2.750032 1_555
Dy8 S14 2.782657 1_555
Dy8 S19 2.816673 1_555
Dy8 S30 2.821321 1_555
Dy9 S21 2.694691 1_555
Dy9 S23 2.709648 1_545
Dy9 S25 2.750032 1_555
Dy9 S15 2.782657 1_555
Dy9 S18 2.816673 1_555
Dy9 S31 2.821321 1_555
Dy10 S2 2.719198 1_654
Dy10 S3 2.719198 1_545
Dy10 S4 2.767733 1_654
Dy10 S7 2.767733 1_545
Dy10 S12 2.804920 1_554
Dy10 S15 2.804920 1_555
Dy11 S2 2.719198 1_564
Dy11 S3 2.719198 1_455
Dy11 S5 2.767733 1_564
Dy11 S6 2.767733 1_455
Dy11 S13 2.804920 1_554
Dy11 S14 2.804920 1_555
Dy12 S10 2.634556 1_556
Dy12 S1 2.683425 1_556
Dy12 S29 2.738587 1_555
Dy12 S16 2.776262 1_555
Dy12 S4 2.787024 1_555
Dy12 S32 2.933203 1_555
Dy13 S11 2.634556 1_556
Dy13 S1 2.683425 1_556
Dy13 S28 2.738587 1_555
Dy13 S17 2.776262 1_555
Dy13 S5 2.787024 1_555
Dy13 S32 2.933203 1_555
Dy14 S8 2.634556 1_554
Dy14 S0 2.683425 1_554
Dy14 S31 2.738587 1_555
Dy14 S18 2.776262 1_555
Dy14 S6 2.787024 1_555
Dy14 S33 2.933203 1_555
Dy15 S9 2.634556 1_554
Dy15 S0 2.683425 1_554
Dy15 S30 2.738587 1_555
Dy15 S19 2.776262 1_555
Dy15 S7 2.787024 1_555
Dy15 S33 2.933203 1_555
Dy16 S19 2.711728 1_555
Dy16 S16 2.711728 1_555
Dy16 S27 2.716356 1_555
Dy16 S24 2.716356 1_555
Dy16 S32 2.802063 1_555
Dy16 S33 2.802063 1_555
Dy17 S17 2.711728 1_555
Dy17 S18 2.711728 1_555
Dy17 S26 2.716356 1_555
Dy17 S25 2.716356 1_555
Dy17 S32 2.802063 1_555
Dy17 S33 2.802063 1_555
Dy18 S0 2.748396 1_554
Dy18 S1 2.748396 1_555
Dy18 S29 2.777547 1_554
Dy18 S28 2.777547 1_554
Dy18 S31 2.777547 1_555
Dy18 S30 2.777547 1_555
Dy19 S2 2.682305 1_555
Dy19 S5 2.751011 1_555
Dy19 S4 2.751011 1_555
Dy19 S24 2.767112 1_555
Dy19 S25 2.767112 1_555
Dy19 S32 2.783606 1_555
Dy20 S3 2.682305 1_555
Dy20 S6 2.751011 1_555
Dy20 S7 2.751011 1_555
Dy20 S26 2.767112 1_555
Dy20 S27 2.767112 1_555
Dy20 S33 2.783606 1_555
Cl0 Cs5 3.431615 1_555
Cl0 Cs4 3.431615 1_445
Cl0 Cs2 3.434889 1_455
Cl0 Cs1 3.434889 1_455
Cl0 Cs3 3.434889 1_545
Cl0 Cs0 3.434889 1_545
