# generated using pymatgen
data_CsNaMoO6
_symmetry_space_group_name_H-M   'P 1'
_cell_length_a   7.01452500
_cell_length_b   7.86098600
_cell_length_c   12.97841000
_cell_angle_alpha   90.00000000
_cell_angle_beta   90.00000000
_cell_angle_gamma   90.00000000
_symmetry_Int_Tables_number   1
_chemical_formula_structural   CsNaMoO6
_chemical_formula_sum   'Cs4 Na4 Mo4 O24'
_cell_volume   715.64358070
_cell_formula_units_Z   4
loop_
 _symmetry_equiv_pos_site_id
 _symmetry_equiv_pos_as_xyz
  1  'x, y, z'
loop_
 _atom_site_type_symbol
 _atom_site_label
 _atom_site_symmetry_multiplicity
 _atom_site_fract_x
 _atom_site_fract_y
 _atom_site_fract_z
 _atom_site_occupancy
  Cs  Cs0  1  0.04428300  0.84368900  0.35174800  1
  Cs  Cs1  1  0.45571700  0.15631100  0.85174800  1
  Cs  Cs2  1  0.54428300  0.65631100  0.64825200  1
  Cs  Cs3  1  0.95571700  0.34368900  0.14825200  1
  Na  Na0  1  0.62841900  0.71937000  0.01206700  1
  Na  Na1  1  0.87158100  0.28063000  0.51206700  1
  Na  Na2  1  0.12841900  0.78063000  0.98793300  1
  Na  Na3  1  0.37158100  0.21937000  0.48793300  1
  Mo  Mo0  1  0.55055500  0.58635600  0.35273200  1
  Mo  Mo1  1  0.94944500  0.41364400  0.85273200  1
  Mo  Mo2  1  0.05055500  0.91364400  0.64726800  1
  Mo  Mo3  1  0.44944500  0.08635600  0.14726800  1
  O  O0  1  0.60367700  0.42359200  0.44676700  1
  O  O1  1  0.89632300  0.57640800  0.94676700  1
  O  O2  1  0.10367700  0.07640800  0.55323300  1
  O  O3  1  0.39632300  0.92359200  0.05323300  1
  O  O4  1  0.74803200  0.60358200  0.26552700  1
  O  O5  1  0.75196800  0.39641800  0.76552700  1
  O  O6  1  0.24803200  0.89641800  0.73447300  1
  O  O7  1  0.25196800  0.10358200  0.23447300  1
  O  O8  1  0.52601400  0.78094000  0.42243600  1
  O  O9  1  0.97398600  0.21906000  0.92243600  1
  O  O10  1  0.02601400  0.71906000  0.57756400  1
  O  O11  1  0.47398600  0.28094000  0.07756400  1
  O  O12  1  0.32646900  0.54356500  0.28594600  1
  O  O13  1  0.17353100  0.45643500  0.78594600  1
  O  O14  1  0.82646900  0.95643500  0.71405400  1
  O  O15  1  0.67353100  0.04356500  0.21405400  1
  O  O16  1  0.86140400  0.93698900  0.90626700  1
  O  O17  1  0.63859600  0.06301100  0.40626700  1
  O  O18  1  0.36140400  0.56301100  0.09373300  1
  O  O19  1  0.13859600  0.43698900  0.59373300  1
  O  O20  1  0.83669900  0.81572000  0.14489300  1
  O  O21  1  0.66330100  0.18428000  0.64489300  1
  O  O22  1  0.33669900  0.68428000  0.85510700  1
  O  O23  1  0.16330100  0.31572000  0.35510700  1
loop_
_geom_bond_atom_site_label_1
_geom_bond_atom_site_label_2
_geom_bond_distance
_geom_bond_site_symmetry_2
Cs0 O7 2.934762 1_565
Cs0 O4 3.022101 1_455
Cs0 O20 3.062012 1_455
Cs0 O10 3.092805 1_555
Cs0 O12 3.195858 1_555
Cs0 O2 3.218427 1_565
Cs0 O17 3.401639 1_465
Cs0 O8 3.536012 1_555
Cs1 O6 2.934762 1_545
Cs1 O5 3.022101 1_555
Cs1 O21 3.062012 1_555
Cs1 O11 3.092805 1_556
Cs1 O13 3.195858 1_555
Cs1 O3 3.218427 1_546
Cs1 O16 3.401639 1_545
Cs1 O9 3.536012 1_455
Cs2 O5 2.934762 1_555
Cs2 O6 3.022101 1_555
Cs2 O22 3.062012 1_555
Cs2 O8 3.092805 1_555
Cs2 O14 3.195858 1_555
Cs2 O0 3.218427 1_555
Cs2 O19 3.401639 1_555
Cs2 O10 3.536012 1_655
Cs3 O4 2.934762 1_555
Cs3 O7 3.022101 1_655
Cs3 O23 3.062012 1_655
Cs3 O9 3.092805 1_554
Cs3 O15 3.195858 1_555
Cs3 O1 3.218427 1_554
Cs3 O18 3.401639 1_655
Cs3 O11 3.536012 1_555
Na0 O1 2.347910 1_554
Na0 O3 2.348028 1_555
Na0 O20 2.383248 1_555
Na0 O18 2.478350 1_555
Na0 O16 2.735472 1_554
Na0 O22 2.900531 1_554
Na1 O0 2.347910 1_555
Na1 O2 2.348028 1_655
Na1 O21 2.383248 1_555
Na1 O19 2.478350 1_655
Na1 O17 2.735472 1_555
Na1 O23 2.900531 1_655
Na2 O3 2.347910 1_556
Na2 O1 2.348028 1_455
Na2 O22 2.383248 1_555
Na2 O16 2.478350 1_455
Na2 O18 2.735472 1_556
Na2 O20 2.900531 1_456
Na3 O2 2.347910 1_555
Na3 O0 2.348028 1_555
Na3 O23 2.383248 1_555
Na3 O17 2.478350 1_555
Na3 O19 2.735472 1_555
Na3 O21 2.900531 1_555
Mo0 O8 1.785431 1_555
Mo0 O4 1.793897 1_555
Mo0 O0 1.807033 1_555
Mo0 O12 1.826249 1_555
Mo1 O9 1.785431 1_555
Mo1 O5 1.793897 1_555
Mo1 O1 1.807033 1_555
Mo1 O13 1.826249 1_655
Mo2 O10 1.785431 1_555
Mo2 O6 1.793897 1_555
Mo2 O2 1.807033 1_565
Mo2 O14 1.826249 1_455
Mo3 O11 1.785431 1_555
Mo3 O7 1.793897 1_555
Mo3 O3 1.807033 1_545
Mo3 O15 1.826249 1_555
