# generated using pymatgen
data_Ca4Al6WO16
_symmetry_space_group_name_H-M   'P 1'
_cell_length_a   8.13566584
_cell_length_b   8.13566584
_cell_length_c   8.13566584
_cell_angle_alpha   110.31239190
_cell_angle_beta   110.31239190
_cell_angle_gamma   107.80166785
_symmetry_Int_Tables_number   1
_chemical_formula_structural   Ca4Al6WO16
_chemical_formula_sum   'Ca4 Al6 W1 O16'
_cell_volume   414.26834798
_cell_formula_units_Z   1
loop_
 _symmetry_equiv_pos_site_id
 _symmetry_equiv_pos_as_xyz
  1  'x, y, z'
loop_
 _atom_site_type_symbol
 _atom_site_label
 _atom_site_symmetry_multiplicity
 _atom_site_fract_x
 _atom_site_fract_y
 _atom_site_fract_z
 _atom_site_occupancy
  Ca  Ca0  1  0.51521800  0.97680800  0.96495200  1
  Ca  Ca1  1  0.02319200  0.98814400  0.53841000  1
  Ca  Ca2  1  0.01185600  0.55026500  0.03504800  1
  Ca  Ca3  1  0.44973500  0.48478200  0.46159000  1
  Al  Al0  1  0.51768500  0.75909900  0.26362200  1
  Al  Al1  1  0.25000000  0.75000000  0.50000000  1
  Al  Al2  1  0.74593700  0.48231500  0.24141500  1
  Al  Al3  1  0.75000000  0.25000000  0.50000000  1
  Al  Al4  1  0.49547700  0.25406300  0.73637800  1
  Al  Al5  1  0.24090100  0.50452300  0.75858500  1
  W  W0  1  0.00000000  0.00000000  0.00000000  1
  O  O0  1  0.37545400  0.00526900  0.67866000  1
  O  O1  1  0.68722400  0.27754800  0.28244600  1
  O  O2  1  0.39361000  0.70758900  0.01205500  1
  O  O3  1  0.72245200  0.00489700  0.40967600  1
  O  O4  1  0.99473100  0.67339100  0.37018500  1
  O  O5  1  0.29241100  0.30446600  0.68602100  1
  O  O6  1  0.32660900  0.69679400  0.32134000  1
  O  O7  1  0.99510300  0.40477900  0.71755400  1
  O  O8  1  0.69553400  0.38155600  0.98794500  1
  O  O9  1  0.59522100  0.31277600  0.59032400  1
  O  O10  1  0.30320600  0.62454600  0.62981500  1
  O  O11  1  0.61844400  0.60639000  0.31397900  1
  O  O12  1  0.11040800  0.95233000  0.84018400  1
  O  O13  1  0.04767000  0.88785400  0.15807800  1
  O  O14  1  0.11214600  0.27022500  0.15981600  1
  O  O15  1  0.72977500  0.88959200  0.84192200  1
loop_
_geom_bond_atom_site_label_1
_geom_bond_atom_site_label_2
_geom_bond_distance
_geom_bond_site_symmetry_2
Ca0 O2 2.333233 1_556
Ca0 O0 2.338436 1_565
Ca0 O1 2.371888 1_566
Ca0 O15 2.455525 1_555
Ca0 O10 2.628654 1_555
Ca0 O12 3.009010 1_555
Ca0 O8 3.075442 1_565
Ca1 O5 2.333233 1_565
Ca1 O4 2.338436 1_455
Ca1 O3 2.371883 1_465
Ca1 O12 2.455532 1_555
Ca1 O0 2.628654 1_565
Ca1 O13 3.009010 1_555
Ca1 O11 3.075439 1_455
Ca2 O8 2.333229 1_454
Ca2 O6 2.338434 1_555
Ca2 O7 2.371890 1_454
Ca2 O13 2.455540 1_555
Ca2 O4 2.628654 1_455
Ca2 O14 3.008995 1_555
Ca2 O2 3.075436 1_555
Ca3 O11 2.333222 1_555
Ca3 O10 2.338443 1_555
Ca3 O9 2.371879 1_555
Ca3 O14 2.455537 1_555
Ca3 O6 2.628657 1_555
Ca3 O15 3.009009 1_555
Ca3 O5 3.075439 1_555
Al0 O6 1.756204 1_555
Al0 O2 1.759240 1_555
Al0 O3 1.767798 1_565
Al0 O11 1.768131 1_555
Al1 O4 1.745179 1_455
Al1 O6 1.745179 1_555
Al1 O10 1.745179 1_555
Al1 O0 1.745179 1_565
Al2 O4 1.756205 1_555
Al2 O11 1.759244 1_555
Al2 O1 1.767798 1_555
Al2 O8 1.768144 1_554
Al3 O1 1.778084 1_555
Al3 O7 1.778089 1_555
Al3 O9 1.778092 1_555
Al3 O3 1.778092 1_555
Al4 O0 1.756204 1_555
Al4 O8 1.759239 1_555
Al4 O9 1.767798 1_555
Al4 O5 1.768136 1_555
Al5 O10 1.756197 1_555
Al5 O5 1.759239 1_555
Al5 O7 1.767798 1_455
Al5 O2 1.768141 1_556
O12 W0 1.822513 1_566
O13 W0 1.822513 1_565
O14 W0 1.822520 1_555
O15 W0 1.822520 1_666
