# generated using pymatgen
data_Li2VGeO5
_symmetry_space_group_name_H-M   'P 1'
_cell_length_a   4.60742600
_cell_length_b   9.33154323
_cell_length_c   9.33158708
_cell_angle_alpha   89.99974819
_cell_angle_beta   89.99987705
_cell_angle_gamma   89.99955299
_symmetry_Int_Tables_number   1
_chemical_formula_structural   Li2VGeO5
_chemical_formula_sum   'Li8 V4 Ge4 O20'
_cell_volume   401.20593991
_cell_formula_units_Z   4
loop_
 _symmetry_equiv_pos_site_id
 _symmetry_equiv_pos_as_xyz
  1  'x, y, z'
loop_
 _atom_site_type_symbol
 _atom_site_label
 _atom_site_symmetry_multiplicity
 _atom_site_fract_x
 _atom_site_fract_y
 _atom_site_fract_z
 _atom_site_occupancy
  Li  Li0  1  0.00000800  0.25000000  0.25000300  1
  Li  Li1  1  0.00000000  0.75000000  0.75000500  1
  Li  Li2  1  0.00000900  0.99999200  0.00000000  1
  Li  Li3  1  0.99999800  0.50000000  0.50000000  1
  Li  Li4  1  0.00001000  0.50000800  0.00000000  1
  Li  Li5  1  0.99999900  0.00000000  0.50000000  1
  Li  Li6  1  0.00000700  0.25000000  0.74999700  1
  Li  Li7  1  0.00000000  0.75000000  0.24999500  1
  V  V0  1  0.59457400  0.74999800  0.49999900  1
  V  V1  1  0.40542000  0.25000200  0.49999900  1
  V  V2  1  0.59465000  0.25000100  0.00000100  1
  V  V3  1  0.40545000  0.74999900  0.00000000  1
  Ge  Ge0  1  0.49999100  0.50000300  0.25000600  1
  Ge  Ge1  1  0.49999100  0.99999700  0.74999400  1
  Ge  Ge2  1  0.49999100  0.50000300  0.74999400  1
  Ge  Ge3  1  0.49999000  0.99999700  0.25000500  1
  O  O0  1  0.23018900  0.25000000  0.00000000  1
  O  O1  1  0.23020100  0.75000000  0.50000000  1
  O  O2  1  0.76975600  0.74999900  0.00000100  1
  O  O3  1  0.76979800  0.24999900  0.50000000  1
  O  O4  1  0.73261100  0.39307000  0.14306800  1
  O  O5  1  0.73261900  0.89308100  0.64308200  1
  O  O6  1  0.73262000  0.60692000  0.64308200  1
  O  O7  1  0.73261100  0.10692800  0.14306900  1
  O  O8  1  0.73261000  0.39307200  0.85693000  1
  O  O9  1  0.73261900  0.89308100  0.35691800  1
  O  O10  1  0.73262100  0.60692100  0.35691900  1
  O  O11  1  0.73261100  0.10692800  0.85693100  1
  O  O12  1  0.26738400  0.60692600  0.85692600  1
  O  O13  1  0.26737800  0.10691700  0.35691700  1
  O  O14  1  0.26737700  0.39308100  0.64308200  1
  O  O15  1  0.26738400  0.89307500  0.14307500  1
  O  O16  1  0.26737600  0.39308000  0.35691800  1
  O  O17  1  0.26738300  0.89307500  0.85692500  1
  O  O18  1  0.26738400  0.60692700  0.14307400  1
  O  O19  1  0.26737800  0.10691700  0.64308300  1
loop_
_geom_bond_atom_site_label_1
_geom_bond_atom_site_label_2
_geom_bond_distance
_geom_bond_site_symmetry_2
Li0 O16 2.072581 1_555
Li0 O13 2.072582 1_555
Li0 O4 2.072672 1_455
Li0 O7 2.072697 1_455
Li0 O0 2.562670 1_555
Li0 O3 2.562674 1_455
Li1 O12 2.072597 1_555
Li1 O17 2.072614 1_555
Li1 O5 2.072640 1_455
Li1 O6 2.072649 1_455
Li1 O1 2.562725 1_555
Li1 O2 2.562730 1_456
Li2 O17 2.072564 1_554
Li2 O15 2.072564 1_555
Li2 O11 2.072677 1_464
Li2 O7 2.072679 1_465
Li2 O0 2.562710 1_565
Li2 O2 2.562722 1_455
Li3 O10 2.072624 1_555
Li3 O14 2.072626 1_655
Li3 O6 2.072630 1_555
Li3 O16 2.072630 1_655
Li3 O1 2.562686 1_655
Li3 O3 2.562689 1_555
Li4 O12 2.072566 1_554
Li4 O18 2.072580 1_555
Li4 O4 2.072688 1_455
Li4 O8 2.072703 1_454
Li4 O2 2.562692 1_455
Li4 O0 2.562693 1_555
Li5 O13 2.072629 1_655
Li5 O5 2.072635 1_545
Li5 O19 2.072638 1_655
Li5 O9 2.072644 1_545
Li5 O3 2.562659 1_555
Li5 O1 2.562669 1_645
Li6 O14 2.072584 1_555
Li6 O19 2.072587 1_555
Li6 O8 2.072678 1_455
Li6 O11 2.072686 1_455
Li6 O0 2.562676 1_556
Li6 O3 2.562676 1_455
Li7 O18 2.072594 1_555
Li7 O15 2.072609 1_555
Li7 O10 2.072637 1_455
Li7 O9 2.072643 1_455
Li7 O2 2.562718 1_455
Li7 O1 2.562729 1_555
Ge0 O16 1.771865 1_555
Ge0 O10 1.771893 1_555
Ge0 O18 1.771946 1_555
Ge0 O4 1.772064 1_555
Ge1 O19 1.771832 1_565
Ge1 O5 1.771860 1_555
Ge1 O17 1.771940 1_555
Ge1 O11 1.772060 1_565
Ge2 O14 1.771865 1_555
Ge2 O6 1.771873 1_555
Ge2 O12 1.771943 1_555
Ge2 O8 1.772038 1_555
Ge3 O13 1.771837 1_565
Ge3 O9 1.771866 1_555
Ge3 O15 1.771937 1_555
Ge3 O7 1.772050 1_565
O0 V2 1.679227 1_555
O1 V0 1.678822 1_555
O2 V3 1.678513 1_555
O3 V1 1.678845 1_555
O4 V2 1.992181 1_555
O5 V0 1.992492 1_555
O6 V0 1.992448 1_555
O7 V2 1.992198 1_555
O8 V2 1.992207 1_556
O9 V0 1.992470 1_555
O10 V0 1.992430 1_555
O11 V2 1.992216 1_556
O12 V3 1.992404 1_556
O13 V1 1.992494 1_555
O14 V1 1.992456 1_555
O15 V3 1.992421 1_555
O16 V1 1.992432 1_555
O17 V3 1.992416 1_556
O18 V3 1.992388 1_555
O19 V1 1.992497 1_555
