# generated using pymatgen
data_NaIO4
_symmetry_space_group_name_H-M   'P 1'
_cell_length_a   7.00270937
_cell_length_b   7.00270937
_cell_length_c   9.23625544
_cell_angle_alpha   61.11614027
_cell_angle_beta   61.11614027
_cell_angle_gamma   32.15909284
_symmetry_Int_Tables_number   1
_chemical_formula_structural   NaIO4
_chemical_formula_sum   'Na2 I2 O8'
_cell_volume   208.40417544
_cell_formula_units_Z   2
loop_
 _symmetry_equiv_pos_site_id
 _symmetry_equiv_pos_as_xyz
  1  'x, y, z'
loop_
 _atom_site_type_symbol
 _atom_site_label
 _atom_site_symmetry_multiplicity
 _atom_site_fract_x
 _atom_site_fract_y
 _atom_site_fract_z
 _atom_site_occupancy
  Na  Na0  1  0.17631000  0.60494000  0.90254900  1
  Na  Na1  1  0.39506000  0.82369000  0.09745100  1
  I  I0  1  0.06655300  0.33491100  0.71995800  1
  I  I1  1  0.66508900  0.93344700  0.28004200  1
  O  O0  1  0.99051200  0.43672700  0.90386800  1
  O  O1  1  0.56327300  0.00948800  0.09613200  1
  O  O2  1  0.26671000  0.90269000  0.81515200  1
  O  O3  1  0.09731000  0.73329000  0.18484800  1
  O  O4  1  0.49133200  0.15101500  0.59830500  1
  O  O5  1  0.84898500  0.50866800  0.40169500  1
  O  O6  1  0.69444700  0.18297900  0.69854800  1
  O  O7  1  0.81702100  0.30555300  0.30145200  1
loop_
_geom_bond_atom_site_label_1
_geom_bond_atom_site_label_2
_geom_bond_distance
_geom_bond_site_symmetry_2
Na0 O2 2.348402 1_555
Na0 O0 2.376195 1_455
Na0 O6 2.463282 1_555
Na0 O1 2.504752 1_556
Na0 O1 2.557028 1_466
Na0 O6 2.639911 1_465
Na0 O3 2.817971 1_556
Na1 O3 2.348402 1_555
Na1 O1 2.376195 1_565
Na1 O7 2.463282 1_555
Na1 O0 2.504752 1_554
Na1 O0 2.557028 1_464
Na1 O7 2.639911 1_465
Na1 O2 2.817971 1_554
I0 O0 1.825007 1_455
I0 O2 1.826299 1_545
I0 O4 1.858039 1_555
I1 O1 1.825007 1_565
I1 O3 1.826299 1_655
I1 O5 1.858039 1_555
