# generated using pymatgen
data_BaAl2H10C2O13
_symmetry_space_group_name_H-M   'P 1'
_cell_length_a   5.67883600
_cell_length_b   9.98365194
_cell_length_c   10.69082668
_cell_angle_alpha   115.51754725
_cell_angle_beta   95.62670574
_cell_angle_gamma   92.73436101
_symmetry_Int_Tables_number   1
_chemical_formula_structural   BaAl2H10C2O13
_chemical_formula_sum   'Ba2 Al4 H20 C4 O26'
_cell_volume   541.62461010
_cell_formula_units_Z   2
loop_
 _symmetry_equiv_pos_site_id
 _symmetry_equiv_pos_as_xyz
  1  'x, y, z'
loop_
 _atom_site_type_symbol
 _atom_site_label
 _atom_site_symmetry_multiplicity
 _atom_site_fract_x
 _atom_site_fract_y
 _atom_site_fract_z
 _atom_site_occupancy
  Ba  Ba0  1  0.78920100  0.85568500  0.80825600  1
  Ba  Ba1  1  0.21079900  0.14431500  0.19174400  1
  Al  Al0  1  0.50000000  0.00000000  0.50000000  1
  Al  Al1  1  0.00000000  0.00000000  0.50000000  1
  Al  Al2  1  0.00000000  0.50000000  0.50000000  1
  Al  Al3  1  0.50000000  0.50000000  0.50000000  1
  H  H0  1  0.19540500  0.79497200  0.31244400  1
  H  H1  1  0.80459500  0.20502800  0.68755600  1
  H  H2  1  0.25150500  0.69378700  0.45750800  1
  H  H3  1  0.74849500  0.30621300  0.54249200  1
  H  H4  1  0.70163300  0.79753200  0.33376900  1
  H  H5  1  0.29836700  0.20246800  0.66623100  1
  H  H6  1  0.24067000  0.29255200  0.51181300  1
  H  H7  1  0.75933000  0.70744800  0.48818700  1
  H  H8  1  0.15939000  0.76203200  0.98617900  1
  H  H9  1  0.84061000  0.23796800  0.01382100  1
  H  H10  1  0.94744400  0.79766900  0.08302600  1
  H  H11  1  0.05255600  0.20233100  0.91697400  1
  H  H12  1  0.88580200  0.47658700  0.78777800  1
  H  H13  1  0.11419800  0.52341300  0.21222200  1
  H  H14  1  0.66717000  0.41801700  0.83504700  1
  H  H15  1  0.33283000  0.58198300  0.16495300  1
  H  H16  1  0.56658500  0.67067100  0.04434700  1
  H  H17  1  0.43341500  0.32932900  0.95565300  1
  H  H18  1  0.77665300  0.60271500  0.09879700  1
  H  H19  1  0.22334700  0.39728500  0.90120300  1
  C  C0  1  0.28562700  0.95157100  0.71616500  1
  C  C1  1  0.71437300  0.04842900  0.28383500  1
  C  C2  1  0.31263200  0.60795400  0.77145600  1
  C  C3  1  0.68736800  0.39204600  0.22854400  1
  O  O0  1  0.07527800  0.96399700  0.66165700  1
  O  O1  1  0.92472200  0.03600300  0.33834300  1
  O  O2  1  0.47750200  0.96649500  0.66218100  1
  O  O3  1  0.52249800  0.03350500  0.33781900  1
  O  O4  1  0.30456000  0.92425300  0.82240000  1
  O  O5  1  0.69544000  0.07574700  0.17760000  1
  O  O6  1  0.09448900  0.57932400  0.70678200  1
  O  O7  1  0.90551100  0.42067600  0.29321800  1
  O  O8  1  0.49448400  0.58224000  0.70147300  1
  O  O9  1  0.50551600  0.41776000  0.29852700  1
  O  O10  1  0.35055000  0.66144000  0.90521400  1
  O  O11  1  0.64945000  0.33856000  0.09478600  1
  O  O12  1  0.22242900  0.86713300  0.41123900  1
  O  O13  1  0.77757100  0.13286700  0.58876100  1
  O  O14  1  0.25566000  0.61433300  0.48774800  1
  O  O15  1  0.74434000  0.38566700  0.51225200  1
  O  O16  1  0.72691000  0.85418600  0.43651400  1
  O  O17  1  0.27309000  0.14581400  0.56348600  1
  O  O18  1  0.23257200  0.36132000  0.46687400  1
  O  O19  1  0.76742800  0.63868000  0.53312600  1
  O  O20  1  0.04399900  0.83804500  0.03358300  1
  O  O21  1  0.95600100  0.16195500  0.96641700  1
  O  O22  1  0.83783600  0.41187600  0.83110500  1
  O  O23  1  0.16216400  0.58812400  0.16889500  1
  O  O24  1  0.67165700  0.68261100  0.12944600  1
  O  O25  1  0.32834300  0.31738900  0.87055400  1
loop_
_geom_bond_atom_site_label_1
_geom_bond_atom_site_label_2
_geom_bond_distance
_geom_bond_site_symmetry_2
Ba0 O20 2.762964 1_656
Ba0 O19 2.788085 1_555
Ba0 O2 2.815875 1_555
Ba0 O0 2.838440 1_655
Ba0 O21 2.839168 1_565
Ba0 O8 2.839262 1_555
Ba0 O4 2.870236 1_555
Ba0 O4 2.947811 1_655
Ba0 O6 3.168827 1_655
Ba1 O21 2.762964 1_454
Ba1 O18 2.788085 1_555
Ba1 O3 2.815875 1_555
Ba1 O1 2.838440 1_455
Ba1 O20 2.839168 1_545
Ba1 O9 2.839262 1_555
Ba1 O5 2.870236 1_555
Ba1 O5 2.947811 1_455
Ba1 O7 3.168827 1_455
Al0 O12 1.888757 1_545
Al0 O13 1.888757 1_555
Al0 O3 1.916638 1_555
Al0 O2 1.916638 1_545
Al0 O16 1.933788 1_545
Al0 O17 1.933788 1_555
Al1 O12 1.888380 1_545
Al1 O13 1.888380 1_455
Al1 O1 1.924521 1_455
Al1 O0 1.924521 1_545
Al1 O17 1.926625 1_555
Al1 O16 1.926625 1_445
Al2 O14 1.853632 1_555
Al2 O15 1.853632 1_455
Al2 O18 1.905370 1_555
Al2 O19 1.905370 1_455
Al2 O6 2.005151 1_555
Al2 O7 2.005151 1_455
Al3 O14 1.868081 1_555
Al3 O15 1.868081 1_555
Al3 O19 1.902683 1_555
Al3 O18 1.902683 1_555
Al3 O9 1.951015 1_555
Al3 O8 1.951015 1_555
H0 O12 0.979902 1_555
H1 O13 0.979902 1_555
H2 O14 0.977519 1_555
H3 O15 0.977519 1_555
H4 O16 0.986468 1_555
H5 O17 0.986468 1_555
H6 O18 0.993558 1_555
H7 O19 0.993558 1_555
H8 O20 1.021447 1_556
H8 O10 1.573398 1_555
H9 O21 1.021447 1_554
H9 O11 1.573398 1_555
H10 O20 0.980751 1_655
H11 O21 0.980751 1_455
H12 O22 0.985858 1_555
H13 O23 0.985858 1_555
H14 O22 0.977909 1_555
H15 O23 0.977909 1_555
H16 O24 0.995624 1_555
H17 O25 0.995624 1_555
H18 O24 0.978591 1_555
H19 O25 0.978591 1_555
C0 O4 1.273412 1_555
C0 O0 1.312179 1_555
C0 O2 1.313195 1_555
C1 O5 1.273412 1_555
C1 O1 1.312179 1_555
C1 O3 1.313195 1_555
C2 O10 1.283401 1_555
C2 O8 1.305174 1_555
C2 O6 1.312389 1_555
C3 O11 1.283401 1_555
C3 O9 1.305174 1_555
C3 O7 1.312389 1_555
