# generated using pymatgen
data_HoAl3(BO3)4
_symmetry_space_group_name_H-M   'P 1'
_cell_length_a   5.92550750
_cell_length_b   5.92550750
_cell_length_c   11.12707204
_cell_angle_alpha   81.95560053
_cell_angle_beta   81.95560053
_cell_angle_gamma   104.47593337
_symmetry_Int_Tables_number   1
_chemical_formula_structural   HoAl3(BO3)4
_chemical_formula_sum   'Ho2 Al6 B8 O24'
_cell_volume   368.27685253
_cell_formula_units_Z   2
loop_
 _symmetry_equiv_pos_site_id
 _symmetry_equiv_pos_as_xyz
  1  'x, y, z'
loop_
 _atom_site_type_symbol
 _atom_site_label
 _atom_site_symmetry_multiplicity
 _atom_site_fract_x
 _atom_site_fract_y
 _atom_site_fract_z
 _atom_site_occupancy
  Ho  Ho0  1  0.96419400  0.03580600  0.75000000  1
  Ho  Ho1  1  0.03580600  0.96419400  0.25000000  1
  Al  Al0  1  0.69660100  0.19346000  0.02804500  1
  Al  Al1  1  0.30339900  0.80654000  0.97195500  1
  Al  Al2  1  0.80654000  0.30339900  0.47195500  1
  Al  Al3  1  0.19346000  0.69660100  0.52804500  1
  Al  Al4  1  0.41197600  0.58802400  0.75000000  1
  Al  Al5  1  0.58802400  0.41197600  0.25000000  1
  B  B0  1  0.49260600  0.11796900  0.72269200  1
  B  B1  1  0.50739400  0.88203100  0.27730800  1
  B  B2  1  0.88203100  0.50739400  0.77730800  1
  B  B3  1  0.11796900  0.49260600  0.22269200  1
  B  B4  1  0.72178000  0.77749700  0.50320300  1
  B  B5  1  0.27822000  0.22250300  0.49679700  1
  B  B6  1  0.22250300  0.27822000  0.99679700  1
  B  B7  1  0.77749700  0.72178000  0.00320300  1
  O  O0  1  0.18678200  0.99718900  0.56755600  1
  O  O1  1  0.81321800  0.00281100  0.43244400  1
  O  O2  1  0.00281100  0.81321800  0.93244400  1
  O  O3  1  0.99718900  0.18678200  0.06755600  1
  O  O4  1  0.42280800  0.89403000  0.79559600  1
  O  O5  1  0.57719200  0.10597000  0.20440400  1
  O  O6  1  0.10597000  0.57719200  0.70440400  1
  O  O7  1  0.89403000  0.42280800  0.29559600  1
  O  O8  1  0.70301200  0.17567100  0.64018600  1
  O  O9  1  0.29698800  0.82432900  0.35981400  1
  O  O10  1  0.82432900  0.29698800  0.85981400  1
  O  O11  1  0.17567100  0.70301200  0.14018600  1
  O  O12  1  0.62842200  0.86899900  0.99812000  1
  O  O13  1  0.37157800  0.13100100  0.00188000  1
  O  O14  1  0.13100100  0.37157800  0.50188000  1
  O  O15  1  0.86899900  0.62842200  0.49812000  1
  O  O16  1  0.34948000  0.26507000  0.74040300  1
  O  O17  1  0.65052000  0.73493000  0.25959700  1
  O  O18  1  0.73493000  0.65052000  0.75959700  1
  O  O19  1  0.26507000  0.34948000  0.24040300  1
  O  O20  1  0.49468000  0.70163200  0.57245000  1
  O  O21  1  0.50532000  0.29836800  0.42755000  1
  O  O22  1  0.29836800  0.50532000  0.92755000  1
  O  O23  1  0.70163200  0.49468000  0.07245000  1
loop_
_geom_bond_atom_site_label_1
_geom_bond_atom_site_label_2
_geom_bond_distance
_geom_bond_site_symmetry_2
Ho0 O16 2.325873 1_655
Ho0 O18 2.325873 1_545
Ho0 O0 2.333380 1_645
Ho0 O2 2.333380 1_645
Ho0 O8 2.337133 1_555
Ho0 O10 2.337133 1_555
Ho1 O19 2.325873 1_565
Ho1 O17 2.325873 1_455
Ho1 O1 2.333380 1_465
Ho1 O3 2.333380 1_465
Ho1 O9 2.337133 1_555
Ho1 O11 2.337133 1_555
Al0 O10 1.871680 1_554
Al0 O3 1.901796 1_555
Al0 O23 1.911850 1_555
Al0 O13 1.939501 1_555
Al0 O5 1.939981 1_555
Al0 O12 1.949094 1_544
Al1 O11 1.871680 1_556
Al1 O2 1.901796 1_555
Al1 O22 1.911850 1_555
Al1 O12 1.939501 1_555
Al1 O4 1.939981 1_555
Al1 O13 1.949094 1_566
Al2 O8 1.871680 1_555
Al2 O1 1.901796 1_555
Al2 O21 1.911850 1_555
Al2 O15 1.939501 1_555
Al2 O7 1.939981 1_555
Al2 O14 1.949094 1_655
Al3 O9 1.871680 1_555
Al3 O0 1.901796 1_555
Al3 O20 1.911850 1_555
Al3 O14 1.939501 1_555
Al3 O6 1.939981 1_555
Al3 O15 1.949094 1_455
Al4 O18 1.877398 1_555
Al4 O16 1.877398 1_555
Al4 O6 1.938497 1_555
Al4 O4 1.938497 1_555
Al4 O22 1.946342 1_555
Al4 O20 1.946342 1_555
Al5 O17 1.877398 1_555
Al5 O19 1.877398 1_555
Al5 O5 1.938497 1_555
Al5 O7 1.938497 1_555
Al5 O23 1.946342 1_555
Al5 O21 1.946342 1_555
B0 O16 1.374318 1_555
B0 O8 1.375796 1_555
B0 O4 1.385772 1_545
B1 O17 1.374318 1_555
B1 O9 1.375796 1_555
B1 O5 1.385772 1_565
B2 O18 1.374318 1_555
B2 O10 1.375796 1_555
B2 O6 1.385772 1_655
B3 O19 1.374318 1_555
B3 O11 1.375796 1_555
B3 O7 1.385772 1_455
B4 O20 1.384580 1_555
B4 O1 1.385897 1_565
B4 O15 1.389213 1_555
B5 O21 1.384580 1_555
B5 O0 1.385897 1_545
B5 O14 1.389213 1_555
B6 O22 1.384580 1_555
B6 O3 1.385897 1_456
B6 O13 1.389213 1_556
B7 O23 1.384580 1_555
B7 O2 1.385897 1_654
B7 O12 1.389213 1_554
