# generated using pymatgen
data_CaPdPb
_symmetry_space_group_name_H-M   'P 1'
_cell_length_a   4.79228800
_cell_length_b   7.36131700
_cell_length_c   8.33398400
_cell_angle_alpha   90.00000000
_cell_angle_beta   90.00000000
_cell_angle_gamma   90.00000000
_symmetry_Int_Tables_number   1
_chemical_formula_structural   CaPdPb
_chemical_formula_sum   'Ca4 Pd4 Pb4'
_cell_volume   294.00254662
_cell_formula_units_Z   4
loop_
 _symmetry_equiv_pos_site_id
 _symmetry_equiv_pos_as_xyz
  1  'x, y, z'
loop_
 _atom_site_type_symbol
 _atom_site_label
 _atom_site_symmetry_multiplicity
 _atom_site_fract_x
 _atom_site_fract_y
 _atom_site_fract_z
 _atom_site_occupancy
  Ca  Ca0  1  0.75000000  0.51910800  0.19514100  1
  Ca  Ca1  1  0.75000000  0.01910800  0.30485900  1
  Ca  Ca2  1  0.25000000  0.48089200  0.80485900  1
  Ca  Ca3  1  0.25000000  0.98089200  0.69514100  1
  Pd  Pd0  1  0.75000000  0.28273500  0.59633000  1
  Pd  Pd1  1  0.75000000  0.78273500  0.90367000  1
  Pd  Pd2  1  0.25000000  0.71726500  0.40367000  1
  Pd  Pd3  1  0.25000000  0.21726500  0.09633000  1
  Pb  Pb0  1  0.75000000  0.17803300  0.92066400  1
  Pb  Pb1  1  0.75000000  0.67803300  0.57933600  1
  Pb  Pb2  1  0.25000000  0.82196700  0.07933600  1
  Pb  Pb3  1  0.25000000  0.32196700  0.42066400  1
loop_
_geom_bond_atom_site_label_1
_geom_bond_atom_site_label_2
_geom_bond_distance
_geom_bond_site_symmetry_2
Ca0 Pd1 3.109130 1_554
Ca0 Pd2 3.299927 1_655
Ca0 Pd2 3.299927 1_555
Ca0 Pd3 3.369979 1_555
Ca0 Pd3 3.369979 1_655
Ca0 Pb3 3.373437 1_555
Ca0 Pb3 3.373437 1_655
Ca0 Pb0 3.396545 1_554
Ca0 Pb1 3.408909 1_555
Ca0 Pb2 3.412237 1_555
Ca0 Pb2 3.412237 1_655
Ca1 Pd0 3.109130 1_555
Ca1 Pd3 3.299927 1_555
Ca1 Pd3 3.299927 1_655
Ca1 Pd2 3.369979 1_545
Ca1 Pd2 3.369979 1_645
Ca1 Pb2 3.373437 1_545
Ca1 Pb2 3.373437 1_645
Ca1 Pb1 3.396545 1_545
Ca1 Pb0 3.408909 1_554
Ca1 Pb3 3.412237 1_555
Ca1 Pb3 3.412237 1_655
Ca2 Pd3 3.109130 1_556
Ca2 Pd0 3.299927 1_555
Ca2 Pd0 3.299927 1_455
Ca2 Pd1 3.369979 1_555
Ca2 Pd1 3.369979 1_455
Ca2 Pb1 3.373437 1_555
Ca2 Pb1 3.373437 1_455
Ca2 Pb2 3.396545 1_556
Ca2 Pb3 3.408909 1_555
Ca2 Pb0 3.412237 1_455
Ca2 Pb0 3.412237 1_555
Ca3 Pd2 3.109130 1_555
Ca3 Pd1 3.299927 1_555
Ca3 Pd1 3.299927 1_455
Ca3 Pd0 3.369979 1_465
Ca3 Pd0 3.369979 1_565
Ca3 Pb0 3.373437 1_465
Ca3 Pb0 3.373437 1_565
Ca3 Pb3 3.396545 1_565
Ca3 Pb2 3.408909 1_556
Ca3 Pb1 3.412237 1_555
Ca3 Pb1 3.412237 1_455
Pb0 Pd0 2.810734 1_555
Pb0 Pd3 2.822800 1_656
Pb0 Pd3 2.822800 1_556
Pb0 Pd1 2.913358 1_545
Pb1 Pd1 2.810734 1_555
Pb1 Pd2 2.822800 1_555
Pb1 Pd2 2.822800 1_655
Pb1 Pd0 2.913358 1_555
Pb2 Pd2 2.810734 1_555
Pb2 Pd1 2.822800 1_554
Pb2 Pd1 2.822800 1_454
Pb2 Pd3 2.913358 1_565
Pb3 Pd3 2.810734 1_555
Pb3 Pd0 2.822800 1_455
Pb3 Pd0 2.822800 1_555
Pb3 Pd2 2.913358 1_555
