# generated using pymatgen
data_Mg3MnNi2
_symmetry_space_group_name_H-M   'P 1'
_cell_length_a   8.09500510
_cell_length_b   8.09500510
_cell_length_c   8.09500510
_cell_angle_alpha   60.00000000
_cell_angle_beta   60.00000000
_cell_angle_gamma   60.00000000
_symmetry_Int_Tables_number   1
_chemical_formula_structural   Mg3MnNi2
_chemical_formula_sum   'Mg12 Mn4 Ni8'
_cell_volume   375.09077419
_cell_formula_units_Z   4
loop_
 _symmetry_equiv_pos_site_id
 _symmetry_equiv_pos_as_xyz
  1  'x, y, z'
loop_
 _atom_site_type_symbol
 _atom_site_label
 _atom_site_symmetry_multiplicity
 _atom_site_fract_x
 _atom_site_fract_y
 _atom_site_fract_z
 _atom_site_occupancy
  Mg  Mg0  1  0.80093200  0.80093200  0.19906800  1
  Mg  Mg1  1  0.19906800  0.19906800  0.80093200  1
  Mg  Mg2  1  0.80093200  0.19906800  0.80093200  1
  Mg  Mg3  1  0.19906800  0.80093200  0.19906800  1
  Mg  Mg4  1  0.19906800  0.80093200  0.80093200  1
  Mg  Mg5  1  0.80093200  0.19906800  0.19906800  1
  Mg  Mg6  1  0.44906800  0.44906800  0.05093200  1
  Mg  Mg7  1  0.05093200  0.05093200  0.44906800  1
  Mg  Mg8  1  0.44906800  0.05093200  0.44906800  1
  Mg  Mg9  1  0.05093200  0.44906800  0.05093200  1
  Mg  Mg10  1  0.05093200  0.44906800  0.44906800  1
  Mg  Mg11  1  0.44906800  0.05093200  0.05093200  1
  Mn  Mn0  1  0.12500000  0.62500000  0.62500000  1
  Mn  Mn1  1  0.62500000  0.12500000  0.62500000  1
  Mn  Mn2  1  0.62500000  0.62500000  0.12500000  1
  Mn  Mn3  1  0.62500000  0.62500000  0.62500000  1
  Ni  Ni0  1  0.73979500  0.42006800  0.42006800  1
  Ni  Ni1  1  0.42006800  0.73979500  0.42006800  1
  Ni  Ni2  1  0.42006800  0.42006800  0.73979500  1
  Ni  Ni3  1  0.42006800  0.42006800  0.42006800  1
  Ni  Ni4  1  0.51020500  0.82993200  0.82993200  1
  Ni  Ni5  1  0.82993200  0.51020500  0.82993200  1
  Ni  Ni6  1  0.82993200  0.82993200  0.51020500  1
  Ni  Ni7  1  0.82993200  0.82993200  0.82993200  1
loop_
_geom_bond_atom_site_label_1
_geom_bond_atom_site_label_2
_geom_bond_distance
_geom_bond_site_symmetry_2
Mg0 Ni7 2.773346 1_554
Mg0 Ni6 2.773354 1_555
Mg0 Ni0 2.841782 1_555
Mg0 Ni1 2.841782 1_555
Mg0 Mn2 2.855187 1_555
Mg0 Mn3 2.855187 1_555
Mg0 Mg9 2.978437 1_655
Mg0 Mg8 2.978437 1_565
Mg0 Mg10 2.978437 1_655
Mg0 Mg11 2.978437 1_565
Mg0 Mg2 3.222913 1_564
Mg0 Mg4 3.222913 1_654
Mg0 Mg5 3.222913 1_565
Mg0 Mg3 3.222913 1_655
Mg1 Ni4 2.773349 1_545
Mg1 Ni5 2.773349 1_455
Mg1 Ni2 2.841775 1_555
Mg1 Ni3 2.841779 1_555
Mg1 Mn0 2.855187 1_555
Mg1 Mn1 2.855187 1_555
Mg1 Mg8 2.978437 1_555
Mg1 Mg10 2.978437 1_555
Mg1 Mg9 2.978437 1_556
Mg1 Mg11 2.978437 1_556
Mg1 Mg4 3.222913 1_545
Mg1 Mg5 3.222913 1_456
Mg1 Mg2 3.222913 1_455
Mg1 Mg3 3.222913 1_546
Mg2 Ni7 2.773346 1_545
Mg2 Ni5 2.773354 1_555
Mg2 Ni2 2.841782 1_555
Mg2 Ni0 2.841782 1_555
Mg2 Mn1 2.855187 1_555
Mg2 Mn3 2.855187 1_555
Mg2 Mg7 2.978437 1_655
Mg2 Mg6 2.978437 1_556
Mg2 Mg5 3.222913 1_556
Mg2 Mg4 3.222913 1_645
Mg3 Ni4 2.773349 1_554
Mg3 Ni6 2.773349 1_455
Mg3 Ni1 2.841775 1_555
Mg3 Ni3 2.841779 1_555
Mg3 Mn2 2.855187 1_555
Mg3 Mn0 2.855187 1_555
Mg3 Mg6 2.978437 1_555
Mg3 Mg7 2.978437 1_565
Mg3 Mg5 3.222913 1_465
Mg3 Mg4 3.222913 1_554
Mg4 Ni7 2.773346 1_455
Mg4 Ni4 2.773354 1_555
Mg4 Ni2 2.841782 1_555
Mg4 Ni1 2.841782 1_555
Mg4 Mn0 2.855187 1_555
Mg4 Mn3 2.855187 1_555
Mg4 Mg8 2.978437 1_565
Mg4 Mg9 2.978437 1_556
Mg4 Mg7 2.978437 1_565
Mg4 Mg6 2.978437 1_556
Mg5 Ni5 2.773349 1_554
Mg5 Ni6 2.773349 1_545
Mg5 Ni0 2.841775 1_555
Mg5 Ni3 2.841779 1_555
Mg5 Mn2 2.855187 1_555
Mg5 Mn1 2.855187 1_555
Mg5 Mg8 2.978437 1_555
Mg5 Mg7 2.978437 1_655
Mg5 Mg6 2.978437 1_555
Mg5 Mg9 2.978437 1_655
Mg6 Ni3 2.773346 1_555
Mg6 Ni2 2.773354 1_554
Mg6 Ni4 2.841782 1_554
Mg6 Ni5 2.841782 1_554
Mg6 Mn2 2.855187 1_555
Mg6 Mn3 2.855187 1_554
Mg6 Mg9 3.222913 1_555
Mg6 Mg8 3.222913 1_555
Mg7 Ni0 2.773349 1_455
Mg7 Ni1 2.773349 1_545
Mg7 Ni6 2.841775 1_445
Mg7 Ni7 2.841779 1_445
Mg7 Mn1 2.855187 1_455
Mg7 Mn0 2.855187 1_545
Mg7 Mg9 3.222913 1_555
Mg7 Mg8 3.222913 1_555
Mg8 Ni3 2.773346 1_555
Mg8 Ni1 2.773354 1_545
Mg8 Ni6 2.841782 1_545
Mg8 Ni4 2.841782 1_545
Mg8 Mn1 2.855187 1_555
Mg8 Mn3 2.855187 1_545
Mg9 Ni0 2.773349 1_455
Mg9 Ni2 2.773349 1_554
Mg9 Ni5 2.841775 1_454
Mg9 Ni7 2.841779 1_454
Mg9 Mn2 2.855187 1_455
Mg9 Mn0 2.855187 1_554
Mg10 Ni3 2.773346 1_555
Mg10 Ni0 2.773354 1_455
Mg10 Ni5 2.841782 1_455
Mg10 Ni6 2.841782 1_455
Mg10 Mn0 2.855187 1_555
Mg10 Mn3 2.855187 1_455
Mg10 Mg2 2.978437 1_455
Mg10 Mg3 2.978437 1_555
Mg10 Mg9 3.222913 1_555
Mg10 Mg6 3.222913 1_555
Mg10 Mg7 3.222913 1_555
Mg10 Mg8 3.222913 1_555
Mg11 Ni2 2.773349 1_554
Mg11 Ni1 2.773349 1_545
Mg11 Ni4 2.841775 1_544
Mg11 Ni7 2.841779 1_544
Mg11 Mn2 2.855187 1_545
Mg11 Mn1 2.855187 1_554
Mg11 Mg2 2.978437 1_554
Mg11 Mg3 2.978437 1_545
Mg11 Mg9 3.222913 1_555
Mg11 Mg6 3.222913 1_555
Mg11 Mg7 3.222913 1_555
Mg11 Mg8 3.222913 1_555
Mn0 Ni1 2.456916 1_555
Mn0 Ni5 2.456916 1_455
Mn0 Ni2 2.456916 1_555
Mn0 Ni6 2.456916 1_455
Mn0 Ni7 2.456921 1_455
Mn0 Ni3 2.456921 1_555
Mn1 Ni4 2.456916 1_545
Mn1 Ni2 2.456916 1_555
Mn1 Ni0 2.456916 1_555
Mn1 Ni6 2.456916 1_545
Mn1 Ni7 2.456921 1_545
Mn1 Ni3 2.456921 1_555
Mn2 Ni1 2.456916 1_555
Mn2 Ni5 2.456916 1_554
Mn2 Ni0 2.456916 1_555
Mn2 Ni4 2.456916 1_554
Mn2 Ni7 2.456921 1_554
Mn2 Ni3 2.456921 1_555
Mn3 Ni1 2.456923 1_555
Mn3 Ni2 2.456923 1_555
Mn3 Ni6 2.456923 1_555
Mn3 Ni5 2.456923 1_555
Mn3 Ni0 2.456923 1_555
Mn3 Ni4 2.456923 1_555
Ni0 Ni3 2.588192 1_555
Ni0 Ni1 2.588192 1_555
Ni0 Ni2 2.588192 1_555
Ni1 Ni3 2.588192 1_555
Ni1 Ni2 2.588192 1_555
Ni2 Ni3 2.588192 1_555
Ni4 Ni7 2.588192 1_555
Ni4 Ni5 2.588192 1_555
Ni4 Ni6 2.588192 1_555
Ni5 Ni7 2.588192 1_555
Ni5 Ni6 2.588192 1_555
Ni6 Ni7 2.588192 1_555
