# generated using pymatgen
data_K2CdAs2
_symmetry_space_group_name_H-M   'P 1'
_cell_length_a   3.55258100
_cell_length_b   3.55258100
_cell_length_c   15.23423000
_cell_angle_alpha   90.00000000
_cell_angle_beta   90.00000000
_cell_angle_gamma   90.00000000
_symmetry_Int_Tables_number   1
_chemical_formula_structural   K2CdAs2
_chemical_formula_sum   'K2 Cd1 As2'
_cell_volume   192.26865385
_cell_formula_units_Z   1
loop_
 _symmetry_equiv_pos_site_id
 _symmetry_equiv_pos_as_xyz
  1  'x, y, z'
loop_
 _atom_site_type_symbol
 _atom_site_label
 _atom_site_symmetry_multiplicity
 _atom_site_fract_x
 _atom_site_fract_y
 _atom_site_fract_z
 _atom_site_occupancy
  K  K0  1  0.50000000  0.50000000  0.63537300  1
  K  K1  1  0.50000000  0.50000000  0.36462700  1
  Cd  Cd0  1  0.50000000  0.50000000  0.00000000  1
  As  As0  1  0.50000000  0.50000000  0.16471000  1
  As  As1  1  0.50000000  0.50000000  0.83529000  1
loop_
_geom_bond_atom_site_label_1
_geom_bond_atom_site_label_2
_geom_bond_distance
_geom_bond_site_symmetry_2
As0 Cd0 2.509230 1_555
As0 K1 3.045582 1_555
As1 Cd0 2.509230 1_556
As1 K0 3.045582 1_555
