# generated using pymatgen
data_K2Cr3O9
_symmetry_space_group_name_H-M   'P 1'
_cell_length_a   6.00345100
_cell_length_b   8.22584406
_cell_length_c   9.46242053
_cell_angle_alpha   114.70555642
_cell_angle_beta   90.00000000
_cell_angle_gamma   90.00000000
_symmetry_Int_Tables_number   1
_chemical_formula_structural   K2Cr3O9
_chemical_formula_sum   'K4 Cr6 O18'
_cell_volume   424.51511091
_cell_formula_units_Z   2
loop_
 _symmetry_equiv_pos_site_id
 _symmetry_equiv_pos_as_xyz
  1  'x, y, z'
loop_
 _atom_site_type_symbol
 _atom_site_label
 _atom_site_symmetry_multiplicity
 _atom_site_fract_x
 _atom_site_fract_y
 _atom_site_fract_z
 _atom_site_occupancy
  K  K0  1  0.75000000  0.17050400  0.08421100  1
  K  K1  1  0.25000000  0.82949600  0.91578900  1
  K  K2  1  0.75000000  0.76870300  0.25221600  1
  K  K3  1  0.25000000  0.23129700  0.74778400  1
  Cr  Cr0  1  0.50000000  0.50000000  0.50000000  1
  Cr  Cr1  1  0.00000000  0.50000000  0.50000000  1
  Cr  Cr2  1  0.25000000  0.46027200  0.17639200  1
  Cr  Cr3  1  0.75000000  0.53972800  0.82360800  1
  Cr  Cr4  1  0.25000000  0.07403000  0.33023200  1
  Cr  Cr5  1  0.75000000  0.92597000  0.66976800  1
  O  O0  1  0.47906700  0.50872900  0.29387300  1
  O  O1  1  0.97906700  0.49127100  0.70612700  1
  O  O2  1  0.52093300  0.49127100  0.70612700  1
  O  O3  1  0.02093300  0.50872900  0.29387300  1
  O  O4  1  0.25000000  0.31430000  0.44139200  1
  O  O5  1  0.75000000  0.68570000  0.55860800  1
  O  O6  1  0.75000000  0.35333200  0.43311400  1
  O  O7  1  0.25000000  0.64666800  0.56688600  1
  O  O8  1  0.25000000  0.24850600  0.05819400  1
  O  O9  1  0.75000000  0.75149400  0.94180600  1
  O  O10  1  0.25000000  0.57863000  0.07525100  1
  O  O11  1  0.75000000  0.42137000  0.92474900  1
  O  O12  1  0.47009200  0.01183900  0.21869300  1
  O  O13  1  0.97009200  0.98816100  0.78130700  1
  O  O14  1  0.52990800  0.98816100  0.78130700  1
  O  O15  1  0.02990800  0.01183900  0.21869300  1
  O  O16  1  0.25000000  0.97312800  0.44521500  1
  O  O17  1  0.75000000  0.02687200  0.55478500  1
loop_
_geom_bond_atom_site_label_1
_geom_bond_atom_site_label_2
_geom_bond_distance
_geom_bond_site_symmetry_2
K0 O15 2.744968 1_655
K0 O12 2.744968 1_555
K0 O13 2.935492 1_544
K0 O14 2.935492 1_544
K0 O6 3.001840 1_555
K0 O11 3.022905 1_554
K0 O8 3.100757 1_655
K0 O8 3.100757 1_555
K0 O3 3.115794 1_655
K0 O0 3.115794 1_555
K0 O9 3.132608 1_544
K1 O14 2.744968 1_555
K1 O13 2.744968 1_455
K1 O12 2.935492 1_566
K1 O15 2.935492 1_566
K1 O7 3.001840 1_555
K1 O10 3.022905 1_556
K1 O9 3.100757 1_455
K1 O9 3.100757 1_555
K1 O2 3.115794 1_555
K1 O1 3.115794 1_455
K1 O8 3.132608 1_566
K2 O15 2.730334 1_665
K2 O12 2.730334 1_565
K2 O17 2.761244 1_565
K2 O3 2.842326 1_655
K2 O0 2.842326 1_555
K2 O9 2.880937 1_554
K3 O14 2.730334 1_545
K3 O13 2.730334 1_445
K3 O16 2.761244 1_545
K3 O2 2.842326 1_555
K3 O1 2.842326 1_455
K3 O8 2.880937 1_556
Cr0 O6 1.862911 1_555
Cr0 O7 1.862911 1_555
Cr0 O0 1.985526 1_555
Cr0 O2 1.985526 1_555
Cr0 O4 2.045823 1_555
Cr0 O5 2.045823 1_555
Cr1 O6 1.862911 1_455
Cr1 O7 1.862911 1_555
Cr1 O3 1.985526 1_555
Cr1 O1 1.985526 1_455
Cr1 O4 2.045823 1_555
Cr1 O5 2.045823 1_455
Cr2 O10 1.625633 1_555
Cr2 O8 1.629948 1_555
Cr2 O0 1.707459 1_555
Cr2 O3 1.707459 1_555
Cr3 O11 1.625633 1_555
Cr3 O9 1.629948 1_555
Cr3 O1 1.707459 1_555
Cr3 O2 1.707459 1_555
Cr4 O16 1.620977 1_545
Cr4 O12 1.634065 1_555
Cr4 O15 1.634065 1_555
Cr4 O4 1.809657 1_555
Cr5 O17 1.620977 1_565
Cr5 O13 1.634065 1_555
Cr5 O14 1.634065 1_555
Cr5 O5 1.809657 1_555
