# generated using pymatgen
data_Rb2Cu2Si8O19
_symmetry_space_group_name_H-M   'P 1'
_cell_length_a   8.50315200
_cell_length_b   9.98427700
_cell_length_c   11.69013904
_cell_angle_alpha   84.98010228
_cell_angle_beta   90.00000000
_cell_angle_gamma   90.00000000
_symmetry_Int_Tables_number   1
_chemical_formula_structural   Rb2Cu2Si8O19
_chemical_formula_sum   'Rb4 Cu4 Si16 O38'
_cell_volume   988.66064079
_cell_formula_units_Z   2
loop_
 _symmetry_equiv_pos_site_id
 _symmetry_equiv_pos_as_xyz
  1  'x, y, z'
loop_
 _atom_site_type_symbol
 _atom_site_label
 _atom_site_symmetry_multiplicity
 _atom_site_fract_x
 _atom_site_fract_y
 _atom_site_fract_z
 _atom_site_occupancy
  Rb  Rb0  1  0.75000000  0.53131600  0.43941800  1
  Rb  Rb1  1  0.25000000  0.46868400  0.56058200  1
  Rb  Rb2  1  0.25000000  0.10411400  0.02694700  1
  Rb  Rb3  1  0.75000000  0.89588600  0.97305300  1
  Cu  Cu0  1  0.49262500  0.15467600  0.51866400  1
  Cu  Cu1  1  0.99262500  0.84532400  0.48133600  1
  Cu  Cu2  1  0.50737500  0.84532400  0.48133600  1
  Cu  Cu3  1  0.00737500  0.15467600  0.51866400  1
  Si  Si0  1  0.43809600  0.80683200  0.22626800  1
  Si  Si1  1  0.93809600  0.19316800  0.77373200  1
  Si  Si2  1  0.56190400  0.19316800  0.77373200  1
  Si  Si3  1  0.06190400  0.80683200  0.22626800  1
  Si  Si4  1  0.43543500  0.43441900  0.88781300  1
  Si  Si5  1  0.93543500  0.56558100  0.11218700  1
  Si  Si6  1  0.56456500  0.56558100  0.11218700  1
  Si  Si7  1  0.06456500  0.43441900  0.88781300  1
  Si  Si8  1  0.06396000  0.92778300  0.73581600  1
  Si  Si9  1  0.56396000  0.07221700  0.26418400  1
  Si  Si10  1  0.93604000  0.07221700  0.26418400  1
  Si  Si11  1  0.43604000  0.92778300  0.73581600  1
  Si  Si12  1  0.43276200  0.34011700  0.28501700  1
  Si  Si13  1  0.93276200  0.65988300  0.71498300  1
  Si  Si14  1  0.56723800  0.65988300  0.71498300  1
  Si  Si15  1  0.06723800  0.34011700  0.28501700  1
  O  O0  1  0.75000000  0.15889300  0.78022700  1
  O  O1  1  0.25000000  0.84110700  0.21977300  1
  O  O2  1  0.25000000  0.38753900  0.25969100  1
  O  O3  1  0.75000000  0.61246100  0.74030900  1
  O  O4  1  0.25000000  0.39653900  0.90698300  1
  O  O5  1  0.75000000  0.60346100  0.09301700  1
  O  O6  1  0.97735500  0.95306600  0.17911700  1
  O  O7  1  0.47735500  0.04693400  0.82088300  1
  O  O8  1  0.02264500  0.04693400  0.82088300  1
  O  O9  1  0.52264500  0.95306600  0.17911700  1
  O  O10  1  0.99357600  0.74736100  0.34761900  1
  O  O11  1  0.49357600  0.25263900  0.65238100  1
  O  O12  1  0.00642400  0.25263900  0.65238100  1
  O  O13  1  0.50642400  0.74736100  0.34761900  1
  O  O14  1  0.53740400  0.79481100  0.78613800  1
  O  O15  1  0.03740400  0.20518900  0.21386200  1
  O  O16  1  0.46259600  0.20518900  0.21386200  1
  O  O17  1  0.96259600  0.79481100  0.78613800  1
  O  O18  1  0.52555000  0.29220100  0.87668400  1
  O  O19  1  0.02555000  0.70779900  0.12331600  1
  O  O20  1  0.47445000  0.70779900  0.12331600  1
  O  O21  1  0.97445000  0.29220100  0.87668400  1
  O  O22  1  0.50000000  0.50000000  0.00000000  1
  O  O23  1  0.00000000  0.50000000  0.00000000  1
  O  O24  1  0.25000000  0.89086300  0.75155800  1
  O  O25  1  0.75000000  0.10913700  0.24844200  1
  O  O26  1  0.97898600  0.68355900  0.58197600  1
  O  O27  1  0.47898600  0.31644100  0.41802400  1
  O  O28  1  0.02101400  0.31644100  0.41802400  1
  O  O29  1  0.52101400  0.68355900  0.58197600  1
  O  O30  1  0.01231400  0.97276500  0.60270600  1
  O  O31  1  0.51231400  0.02723500  0.39729400  1
  O  O32  1  0.98768600  0.02723500  0.39729400  1
  O  O33  1  0.48768600  0.97276500  0.60270600  1
  O  O34  1  0.04468100  0.53782200  0.77411100  1
  O  O35  1  0.54468100  0.46217800  0.22588900  1
  O  O36  1  0.95531900  0.46217800  0.22588900  1
  O  O37  1  0.45531900  0.53782200  0.77411100  1
loop_
_geom_bond_atom_site_label_1
_geom_bond_atom_site_label_2
_geom_bond_distance
_geom_bond_site_symmetry_2
Cu0 O11 1.915148 1_555
Cu0 O27 1.916670 1_555
Cu0 O33 1.988337 1_545
Cu0 O31 1.994009 1_555
Cu1 O10 1.915148 1_555
Cu1 O26 1.916670 1_555
Cu1 O32 1.988337 1_565
Cu1 O30 1.994009 1_655
Cu2 O13 1.915148 1_555
Cu2 O29 1.916670 1_555
Cu2 O31 1.988337 1_565
Cu2 O33 1.994009 1_555
Cu3 O12 1.915148 1_555
Cu3 O28 1.916670 1_555
Cu3 O30 1.988337 1_545
Cu3 O32 1.994009 1_455
O0 Si1 1.635981 1_555
O0 Si2 1.635981 1_555
O0 Rb3 3.307701 1_545
O1 Si3 1.635981 1_555
O1 Si0 1.635981 1_555
O1 Rb2 3.307701 1_565
O2 Si15 1.643892 1_555
O2 Si12 1.643892 1_555
O3 Si13 1.643892 1_555
O3 Si14 1.643892 1_555
O4 Si7 1.632381 1_555
O4 Si4 1.632381 1_555
O4 Rb2 3.126425 1_556
O5 Si5 1.632381 1_555
O5 Si6 1.632381 1_555
O5 Rb3 3.126425 1_554
O6 Si10 1.653665 1_565
O6 Si3 1.676773 1_655
O6 Rb3 3.179131 1_554
O6 Rb2 3.216216 1_665
O7 Si11 1.653665 1_545
O7 Si2 1.676773 1_555
O7 Rb2 3.179131 1_556
O7 Rb3 3.216216 1_545
O8 Si8 1.653665 1_545
O8 Si1 1.676773 1_455
O8 Rb2 3.179131 1_556
O8 Rb3 3.216216 1_445
O9 Si9 1.653665 1_565
O9 Si0 1.676773 1_555
O9 Rb3 3.179131 1_554
O9 Rb2 3.216216 1_565
O10 Si3 1.598492 1_655
O10 Rb0 3.112737 1_555
O11 Si2 1.598492 1_555
O11 Rb1 3.112737 1_555
O12 Si1 1.598492 1_455
O12 Rb1 3.112737 1_555
O13 Si0 1.598492 1_555
O13 Rb0 3.112737 1_555
O14 Si11 1.647689 1_555
O14 Si14 1.663493 1_555
O14 Rb3 3.073550 1_555
O15 Si10 1.647689 1_455
O15 Si15 1.663493 1_555
O15 Rb2 3.073550 1_555
O16 Si9 1.647689 1_555
O16 Si12 1.663493 1_555
O16 Rb2 3.073550 1_555
O17 Si8 1.647689 1_655
O17 Si13 1.663493 1_555
O17 Rb3 3.073550 1_555
O18 Si4 1.628697 1_555
O18 Si2 1.652257 1_555
O18 Rb2 3.394812 1_556
O19 Si5 1.628697 1_455
O19 Si3 1.652257 1_555
O19 Rb3 3.394812 1_454
O20 Si6 1.628697 1_555
O20 Si0 1.652257 1_555
O20 Rb3 3.394812 1_554
O21 Si7 1.628697 1_655
O21 Si1 1.652257 1_555
O21 Rb2 3.394812 1_656
O22 Si6 1.612578 1_555
O22 Si4 1.612578 1_554
O23 Si5 1.612578 1_455
O23 Si7 1.612578 1_554
O24 Si8 1.631063 1_555
O24 Si11 1.631063 1_555
O25 Si9 1.631063 1_555
O25 Si10 1.631063 1_555
O26 Si13 1.601145 1_555
O26 Rb0 3.053249 1_555
O26 Rb1 3.173273 1_655
O27 Si12 1.601145 1_555
O27 Rb1 3.053249 1_555
O27 Rb0 3.173273 1_555
O28 Si15 1.601145 1_555
O28 Rb1 3.053249 1_555
O28 Rb0 3.173273 1_455
O29 Si14 1.601145 1_555
O29 Rb0 3.053249 1_555
O29 Rb1 3.173273 1_555
O30 Si8 1.641226 1_555
O31 Si9 1.641226 1_555
O32 Si10 1.641226 1_555
O33 Si11 1.641226 1_555
O34 Si7 1.618965 1_555
O34 Si13 1.649615 1_455
O34 Rb1 3.171279 1_555
O35 Si6 1.618965 1_555
O35 Si12 1.649615 1_555
O35 Rb0 3.171279 1_555
O36 Si5 1.618965 1_555
O36 Si15 1.649615 1_655
O36 Rb0 3.171279 1_555
O37 Si4 1.618965 1_555
O37 Si14 1.649615 1_555
O37 Rb1 3.171279 1_555
