# generated using pymatgen
data_Mg6CdSb
_symmetry_space_group_name_H-M   'P 1'
_cell_length_a   5.35942000
_cell_length_b   6.20268900
_cell_length_c   11.07701300
_cell_angle_alpha   90.00000000
_cell_angle_beta   90.00000000
_cell_angle_gamma   90.00000000
_symmetry_Int_Tables_number   1
_chemical_formula_structural   Mg6CdSb
_chemical_formula_sum   'Mg12 Cd2 Sb2'
_cell_volume   368.23109923
_cell_formula_units_Z   2
loop_
 _symmetry_equiv_pos_site_id
 _symmetry_equiv_pos_as_xyz
  1  'x, y, z'
loop_
 _atom_site_type_symbol
 _atom_site_label
 _atom_site_symmetry_multiplicity
 _atom_site_fract_x
 _atom_site_fract_y
 _atom_site_fract_z
 _atom_site_occupancy
  Mg  Mg0  1  0.00000000  0.25328200  0.08873800  1
  Mg  Mg1  1  0.00000000  0.74671800  0.08873800  1
  Mg  Mg2  1  0.00000000  0.00000000  0.33214500  1
  Mg  Mg3  1  0.50000000  0.74761200  0.40949400  1
  Mg  Mg4  1  0.50000000  0.25238800  0.40949400  1
  Mg  Mg5  1  0.50000000  0.00000000  0.16646000  1
  Mg  Mg6  1  0.00000000  0.75328200  0.58873800  1
  Mg  Mg7  1  0.00000000  0.24671800  0.58873800  1
  Mg  Mg8  1  0.00000000  0.50000000  0.83214500  1
  Mg  Mg9  1  0.50000000  0.24761200  0.90949400  1
  Mg  Mg10  1  0.50000000  0.75238800  0.90949400  1
  Mg  Mg11  1  0.50000000  0.50000000  0.66646000  1
  Cd  Cd0  1  0.00000000  0.50000000  0.35349200  1
  Cd  Cd1  1  0.00000000  0.00000000  0.85349200  1
  Sb  Sb0  1  0.50000000  0.50000000  0.15144000  1
  Sb  Sb1  1  0.50000000  0.00000000  0.65144000  1
loop_
_geom_bond_atom_site_label_1
_geom_bond_atom_site_label_2
_geom_bond_distance
_geom_bond_site_symmetry_2
Mg0 Mg1 3.060630 1_555
Mg0 Mg2 3.120537 1_555
Mg0 Mg1 3.142059 1_545
Mg0 Sb0 3.163086 1_555
Mg0 Sb0 3.163086 1_455
Mg0 Mg5 3.223380 1_455
Mg0 Mg5 3.223380 1_555
Mg0 Mg8 3.228071 1_554
Mg0 Mg9 3.335303 1_554
Mg0 Mg9 3.335303 1_454
Mg1 Mg2 3.120537 1_565
Mg1 Sb0 3.163086 1_555
Mg1 Sb0 3.163086 1_455
Mg1 Mg5 3.223380 1_465
Mg1 Mg5 3.223380 1_565
Mg1 Mg8 3.228071 1_554
Mg1 Mg10 3.335303 1_554
Mg1 Mg10 3.335303 1_454
Mg2 Mg4 3.219579 1_555
Mg2 Mg4 3.219579 1_455
Mg2 Mg3 3.219579 1_545
Mg2 Mg3 3.219579 1_445
Mg2 Mg6 3.228071 1_545
Mg2 Mg7 3.228071 1_555
Mg2 Mg5 3.247946 1_555
Mg2 Mg5 3.247946 1_455
Mg3 Sb1 3.103764 1_565
Mg3 Sb0 3.244950 1_555
Mg3 Mg6 3.335303 1_555
Mg3 Mg6 3.335303 1_655
Mg4 Sb1 3.103764 1_555
Mg4 Sb0 3.244950 1_555
Mg4 Mg7 3.335303 1_655
Mg4 Mg7 3.335303 1_555
Mg5 Sb0 3.105804 1_555
Mg5 Sb0 3.105804 1_545
Mg6 Mg7 3.060630 1_565
Mg6 Mg8 3.120537 1_555
Mg6 Mg7 3.142059 1_555
Mg6 Sb1 3.163086 1_465
Mg6 Sb1 3.163086 1_565
Mg7 Mg8 3.120537 1_555
Mg7 Sb1 3.163086 1_455
Mg7 Sb1 3.163086 1_555
Mg8 Mg9 3.219579 1_455
Mg8 Mg9 3.219579 1_555
Mg9 Sb0 3.103764 1_556
Mg9 Sb1 3.244950 1_555
Mg10 Sb0 3.103764 1_556
Mg10 Mg8 3.219579 1_655
Mg10 Mg8 3.219579 1_555
Mg10 Sb1 3.244950 1_565
Mg11 Sb1 3.105804 1_555
Mg11 Sb1 3.105804 1_565
Mg11 Mg7 3.223380 1_655
Mg11 Mg6 3.223380 1_555
Mg11 Mg7 3.223380 1_555
Mg11 Mg6 3.223380 1_655
Mg11 Mg8 3.247946 1_555
Mg11 Mg8 3.247946 1_655
Cd0 Mg7 3.042770 1_555
Cd0 Mg6 3.042770 1_555
Cd0 Mg2 3.110346 1_565
Cd0 Mg2 3.110346 1_555
Cd0 Mg3 3.150322 1_455
Cd0 Mg3 3.150322 1_555
Cd0 Mg4 3.150322 1_455
Cd0 Mg4 3.150322 1_555
Cd0 Mg1 3.307944 1_555
Cd0 Mg0 3.307944 1_555
Cd0 Sb0 3.491430 1_555
Cd0 Sb0 3.491430 1_455
Cd1 Mg1 3.042770 1_546
Cd1 Mg0 3.042770 1_556
Cd1 Mg8 3.110346 1_555
Cd1 Mg8 3.110346 1_545
Cd1 Mg9 3.150322 1_455
Cd1 Mg9 3.150322 1_555
Cd1 Mg10 3.150322 1_445
Cd1 Mg10 3.150322 1_545
Cd1 Mg6 3.307944 1_545
Cd1 Mg7 3.307944 1_555
Cd1 Sb1 3.491430 1_455
Cd1 Sb1 3.491430 1_555
