# generated using pymatgen
data_KFeNi(PO4)2
_symmetry_space_group_name_H-M   'P 1'
_cell_length_a   14.63966200
_cell_length_b   5.16816400
_cell_length_c   9.32675501
_cell_angle_alpha   75.29505362
_cell_angle_beta   90.00000000
_cell_angle_gamma   90.00000000
_symmetry_Int_Tables_number   1
_chemical_formula_structural   KFeNi(PO4)2
_chemical_formula_sum   'K4 Fe4 Ni4 P8 O32'
_cell_volume   682.55048069
_cell_formula_units_Z   4
loop_
 _symmetry_equiv_pos_site_id
 _symmetry_equiv_pos_as_xyz
  1  'x, y, z'
loop_
 _atom_site_type_symbol
 _atom_site_label
 _atom_site_symmetry_multiplicity
 _atom_site_fract_x
 _atom_site_fract_y
 _atom_site_fract_z
 _atom_site_occupancy
  K  K0  1  0.32365300  0.18744300  0.18679500  1
  K  K1  1  0.82365300  0.81255700  0.31320500  1
  K  K2  1  0.67634700  0.81255700  0.81320500  1
  K  K3  1  0.17634700  0.18744300  0.68679500  1
  Fe  Fe0  1  0.12878100  0.77211900  0.38252000  1
  Fe  Fe1  1  0.62878100  0.22788100  0.11748000  1
  Fe  Fe2  1  0.87121900  0.22788100  0.61748000  1
  Fe  Fe3  1  0.37121900  0.77211900  0.88252000  1
  Ni  Ni0  1  0.04514700  0.24295200  0.03886900  1
  Ni  Ni1  1  0.54514700  0.75704800  0.46113100  1
  Ni  Ni2  1  0.95485300  0.75704800  0.96113100  1
  Ni  Ni3  1  0.45485300  0.24295200  0.53886900  1
  P  P0  1  0.17164600  0.74347300  0.03638200  1
  P  P1  1  0.67164600  0.25652700  0.46361800  1
  P  P2  1  0.82835400  0.25652700  0.96361800  1
  P  P3  1  0.32835400  0.74347300  0.53638200  1
  P  P4  1  0.00635000  0.30796100  0.32142300  1
  P  P5  1  0.50635000  0.69203900  0.17857700  1
  P  P6  1  0.99365000  0.69203900  0.67857700  1
  P  P7  1  0.49365000  0.30796100  0.82142300  1
  O  O0  1  0.24474800  0.88287100  0.44464500  1
  O  O1  1  0.74474800  0.11712900  0.05535500  1
  O  O2  1  0.75525200  0.11712900  0.55535500  1
  O  O3  1  0.25525200  0.88287100  0.94464500  1
  O  O4  1  0.18896400  0.76406000  0.19677800  1
  O  O5  1  0.68896400  0.23594000  0.30322200  1
  O  O6  1  0.81103600  0.23594000  0.80322200  1
  O  O7  1  0.31103600  0.76406000  0.69677800  1
  O  O8  1  0.08635700  0.91663500  0.96787500  1
  O  O9  1  0.58635700  0.08336500  0.53212500  1
  O  O10  1  0.91364300  0.08336500  0.03212500  1
  O  O11  1  0.41364300  0.91663500  0.46787500  1
  O  O12  1  0.16476400  0.44980300  0.02910600  1
  O  O13  1  0.66476400  0.55019700  0.47089400  1
  O  O14  1  0.83523600  0.55019700  0.97089400  1
  O  O15  1  0.33523600  0.44980300  0.52910600  1
  O  O16  1  0.98698900  0.50717100  0.17074600  1
  O  O17  1  0.48698900  0.49282900  0.32925400  1
  O  O18  1  0.01301100  0.49282900  0.82925400  1
  O  O19  1  0.51301100  0.50717100  0.67074600  1
  O  O20  1  0.04739400  0.05742400  0.27527900  1
  O  O21  1  0.54739400  0.94257600  0.22472100  1
  O  O22  1  0.95260600  0.94257600  0.72472100  1
  O  O23  1  0.45260600  0.05742400  0.77527900  1
  O  O24  1  0.07898900  0.41221800  0.41409100  1
  O  O25  1  0.57898900  0.58778200  0.08590900  1
  O  O26  1  0.92101100  0.58778200  0.58590900  1
  O  O27  1  0.42101100  0.41221800  0.91409100  1
  O  O28  1  0.91863300  0.22473000  0.41240500  1
  O  O29  1  0.41863300  0.77527000  0.08759500  1
  O  O30  1  0.08136700  0.77527000  0.58759500  1
  O  O31  1  0.58136700  0.22473000  0.91240500  1
loop_
_geom_bond_atom_site_label_1
_geom_bond_atom_site_label_2
_geom_bond_distance
_geom_bond_site_symmetry_2
K0 O0 2.770163 1_545
K0 O29 2.885771 1_545
K0 O27 2.889639 1_554
K0 O12 2.898240 1_555
K0 O4 2.929347 1_545
K0 O11 2.950304 1_545
K0 O3 3.222729 1_544
K0 O29 3.254507 1_555
K0 O17 3.322464 1_555
K1 O1 2.770163 1_565
K1 O28 2.885771 1_565
K1 O26 2.889639 1_555
K1 O13 2.898240 1_555
K1 O5 2.929347 1_565
K1 O10 2.950304 1_565
K1 O2 3.222729 1_565
K1 O28 3.254507 1_555
K1 O16 3.322464 1_555
K2 O2 2.770163 1_565
K2 O31 2.885771 1_565
K2 O25 2.889639 1_556
K2 O14 2.898240 1_555
K2 O6 2.929347 1_565
K2 O9 2.950304 1_565
K2 O1 3.222729 1_566
K2 O31 3.254507 1_555
K2 O19 3.322464 1_555
K3 O3 2.770163 1_545
K3 O30 2.885771 1_545
K3 O24 2.889639 1_555
K3 O15 2.898240 1_555
K3 O7 2.929347 1_545
K3 O8 2.950304 1_545
K3 O0 3.222729 1_545
K3 O30 3.254507 1_555
K3 O18 3.322464 1_555
Fe0 O0 1.927168 1_555
Fe0 O24 1.949282 1_555
Fe0 O4 1.953391 1_555
Fe0 O20 1.960985 1_565
Fe0 O30 2.038688 1_555
Fe1 O1 1.927168 1_555
Fe1 O25 1.949282 1_555
Fe1 O5 1.953391 1_555
Fe1 O21 1.960985 1_545
Fe1 O31 2.038688 1_554
Fe2 O2 1.927168 1_555
Fe2 O26 1.949282 1_555
Fe2 O6 1.953391 1_555
Fe2 O22 1.960985 1_545
Fe2 O28 2.038688 1_555
Fe3 O3 1.927168 1_555
Fe3 O27 1.949282 1_555
Fe3 O7 1.953391 1_555
Fe3 O23 1.960985 1_565
Fe3 O29 2.038688 1_556
Ni0 O12 2.041630 1_555
Ni0 O8 2.052674 1_544
Ni0 O10 2.101627 1_455
Ni0 O18 2.104621 1_554
Ni0 O20 2.169994 1_555
Ni0 O16 2.226011 1_455
Ni1 O13 2.041630 1_555
Ni1 O9 2.052674 1_565
Ni1 O11 2.101627 1_555
Ni1 O19 2.104621 1_555
Ni1 O21 2.169994 1_555
Ni1 O17 2.226011 1_555
Ni2 O14 2.041630 1_555
Ni2 O10 2.052674 1_566
Ni2 O8 2.101627 1_655
Ni2 O16 2.104621 1_556
Ni2 O22 2.169994 1_555
Ni2 O18 2.226011 1_655
Ni3 O15 2.041630 1_555
Ni3 O11 2.052674 1_545
Ni3 O9 2.101627 1_555
Ni3 O17 2.104621 1_555
Ni3 O23 2.169994 1_555
Ni3 O19 2.226011 1_555
O0 P3 1.560844 1_555
O1 P2 1.560844 1_554
O2 P1 1.560844 1_555
O3 P0 1.560844 1_556
O4 P0 1.547366 1_555
O5 P1 1.547366 1_555
O6 P2 1.547366 1_555
O7 P3 1.547366 1_555
O8 P0 1.574122 1_556
O9 P1 1.574122 1_555
O10 P2 1.574122 1_554
O11 P3 1.574122 1_555
O12 P0 1.539663 1_555
O13 P1 1.539663 1_555
O14 P2 1.539663 1_555
O15 P3 1.539663 1_555
O16 P4 1.542956 1_655
O17 P5 1.542956 1_555
O18 P6 1.542956 1_455
O19 P7 1.542956 1_555
O20 P4 1.582948 1_555
O21 P5 1.582948 1_555
O22 P6 1.582948 1_555
O23 P7 1.582948 1_555
O24 P4 1.550675 1_555
O25 P5 1.550675 1_555
O26 P6 1.550675 1_555
O27 P7 1.550675 1_555
O28 P4 1.539097 1_655
O29 P5 1.539097 1_555
O30 P6 1.539097 1_455
O31 P7 1.539097 1_555
