# generated using pymatgen
data_MnCoAs
_symmetry_space_group_name_H-M   'P 1'
_cell_length_a   3.62333500
_cell_length_b   6.13495800
_cell_length_c   6.96077400
_cell_angle_alpha   90.00000000
_cell_angle_beta   90.00000000
_cell_angle_gamma   90.00000000
_symmetry_Int_Tables_number   1
_chemical_formula_structural   MnCoAs
_chemical_formula_sum   'Mn4 Co4 As4'
_cell_volume   154.73110124
_cell_formula_units_Z   4
loop_
 _symmetry_equiv_pos_site_id
 _symmetry_equiv_pos_as_xyz
  1  'x, y, z'
loop_
 _atom_site_type_symbol
 _atom_site_label
 _atom_site_symmetry_multiplicity
 _atom_site_fract_x
 _atom_site_fract_y
 _atom_site_fract_z
 _atom_site_occupancy
  Mn  Mn0  1  0.75000000  0.47012500  0.17221700  1
  Mn  Mn1  1  0.75000000  0.97012500  0.32778300  1
  Mn  Mn2  1  0.25000000  0.52987500  0.82778300  1
  Mn  Mn3  1  0.25000000  0.02987500  0.67221700  1
  Co  Co0  1  0.75000000  0.35877900  0.56429500  1
  Co  Co1  1  0.75000000  0.85877900  0.93570500  1
  Co  Co2  1  0.25000000  0.64122100  0.43570500  1
  Co  Co3  1  0.25000000  0.14122100  0.06429500  1
  As  As0  1  0.75000000  0.23785600  0.87485600  1
  As  As1  1  0.75000000  0.73785600  0.62514400  1
  As  As2  1  0.25000000  0.76214400  0.12514400  1
  As  As3  1  0.25000000  0.26214400  0.37485600  1
loop_
_geom_bond_atom_site_label_1
_geom_bond_atom_site_label_2
_geom_bond_distance
_geom_bond_site_symmetry_2
As0 Co0 2.285496 1_555
As0 Co3 2.317850 1_556
As0 Co3 2.317850 1_656
As0 Co1 2.363877 1_545
As0 Mn0 2.512935 1_556
As0 Mn2 2.568864 1_555
As0 Mn2 2.568864 1_655
As0 Mn3 2.626743 1_555
As0 Mn3 2.626743 1_655
As1 Co1 2.285496 1_555
As1 Co2 2.317850 1_655
As1 Co2 2.317850 1_555
As1 Co0 2.363877 1_555
As1 Mn1 2.512935 1_555
As1 Mn3 2.568864 1_665
As1 Mn3 2.568864 1_565
As1 Mn2 2.626743 1_655
As1 Mn2 2.626743 1_555
As2 Co2 2.285496 1_555
As2 Co1 2.317850 1_454
As2 Co1 2.317850 1_554
As2 Co3 2.363877 1_565
As2 Mn2 2.512935 1_554
As2 Mn0 2.568864 1_455
As2 Mn0 2.568864 1_555
As2 Mn1 2.626743 1_555
As2 Mn1 2.626743 1_455
As3 Co3 2.285496 1_555
As3 Co0 2.317850 1_455
As3 Co0 2.317850 1_555
As3 Co2 2.363877 1_555
As3 Mn3 2.512935 1_555
As3 Mn1 2.568864 1_445
As3 Mn1 2.568864 1_545
As3 Mn0 2.626743 1_455
As3 Mn0 2.626743 1_555
