# generated using pymatgen
data_Mg3Si4
_symmetry_space_group_name_H-M   'P 1'
_cell_length_a   5.68418700
_cell_length_b   7.20160403
_cell_length_c   7.50471648
_cell_angle_alpha   107.73185002
_cell_angle_beta   102.14139490
_cell_angle_gamma   109.98594913
_symmetry_Int_Tables_number   1
_chemical_formula_structural   Mg3Si4
_chemical_formula_sum   'Mg6 Si8'
_cell_volume   257.46792365
_cell_formula_units_Z   2
loop_
 _symmetry_equiv_pos_site_id
 _symmetry_equiv_pos_as_xyz
  1  'x, y, z'
loop_
 _atom_site_type_symbol
 _atom_site_label
 _atom_site_symmetry_multiplicity
 _atom_site_fract_x
 _atom_site_fract_y
 _atom_site_fract_z
 _atom_site_occupancy
  Mg  Mg0  1  0.85244100  0.57348800  0.53694800  1
  Mg  Mg1  1  0.41147400  0.75754900  0.52072100  1
  Mg  Mg2  1  0.50114900  0.22509800  0.83310300  1
  Mg  Mg3  1  0.72493900  0.72630400  0.93436900  1
  Mg  Mg4  1  0.94174500  0.94394000  0.38417500  1
  Mg  Mg5  1  0.22413600  0.25095300  0.16578300  1
  Si  Si0  1  0.04604400  0.34820500  0.73845800  1
  Si  Si1  1  0.26906700  0.85815500  0.90647200  1
  Si  Si2  1  0.89729400  0.52736800  0.17600600  1
  Si  Si3  1  0.30391100  0.62276700  0.08718300  1
  Si  Si4  1  0.94846900  0.00420400  0.76849400  1
  Si  Si5  1  0.57133500  0.13639800  0.46444000  1
  Si  Si6  1  0.35533000  0.38466700  0.56112400  1
  Si  Si7  1  0.69913900  0.14117400  0.16944600  1
loop_
_geom_bond_atom_site_label_1
_geom_bond_atom_site_label_2
_geom_bond_distance
_geom_bond_site_symmetry_2
Mg0 Si2 2.704276 1_555
Mg0 Si6 2.757860 1_555
Mg0 Si5 2.812529 1_555
Mg0 Si1 2.820859 1_655
Mg0 Si4 2.845940 1_565
Mg0 Si0 2.853965 1_655
Mg0 Si7 3.156430 1_555
Mg1 Si6 2.712146 1_555
Mg1 Si5 2.759801 1_565
Mg1 Si4 2.797161 1_565
Mg1 Si3 2.955610 1_555
Mg1 Si2 2.979597 1_455
Mg1 Si1 3.109654 1_555
Mg2 Si2 2.689035 1_556
Mg2 Si6 2.746260 1_555
Mg2 Si5 2.789961 1_555
Mg2 Si1 2.799198 1_545
Mg2 Si4 2.847485 1_455
Mg2 Si7 2.863999 1_556
Mg2 Si0 3.026713 1_555
Mg2 Si0 3.211789 1_655
Mg3 Si4 2.759341 1_565
Mg3 Si3 2.837985 1_556
Mg3 Si2 2.845248 1_556
Mg3 Si6 2.847196 1_555
Mg3 Si1 2.982875 1_655
Mg3 Si1 3.038902 1_555
Mg3 Si7 3.042711 1_566
Mg4 Si4 2.772775 1_565
Mg4 Si2 2.822301 1_555
Mg4 Si7 2.883492 1_565
Mg4 Si6 2.895321 1_665
Mg4 Si5 2.955787 1_565
Mg4 Si0 3.055925 1_665
Mg4 Si5 3.207029 1_665
Mg5 Si6 2.669113 1_555
Mg5 Si4 2.721529 1_454
Mg5 Si7 2.822433 1_455
Mg5 Si3 2.822769 1_555
Mg5 Si1 3.033818 1_544
Mg5 Si7 3.058919 1_555
Mg5 Si2 3.148812 1_455
Mg5 Si5 3.158738 1_555
Si0 Si6 2.410866 1_555
Si0 Si4 2.439102 1_455
Si0 Si3 2.482014 1_556
Si0 Si5 2.603499 1_455
Si1 Si7 2.477822 1_566
Si1 Si3 2.503787 1_556
Si1 Si4 2.584428 1_465
Si2 Si3 2.469813 1_655
Si2 Si7 2.599640 1_555
Si5 Si7 2.477068 1_555
Si5 Si6 2.513139 1_555
