# generated using pymatgen
data_Na5Y(WO4)4
_symmetry_space_group_name_H-M   'P 1'
_cell_length_a   10.03547150
_cell_length_b   10.03547150
_cell_length_c   10.03547150
_cell_angle_alpha   108.88574638
_cell_angle_beta   108.88574638
_cell_angle_gamma   110.64862377
_symmetry_Int_Tables_number   1
_chemical_formula_structural   Na5Y(WO4)4
_chemical_formula_sum   'Na10 Y2 W8 O32'
_cell_volume   777.77425371
_cell_formula_units_Z   2
loop_
 _symmetry_equiv_pos_site_id
 _symmetry_equiv_pos_as_xyz
  1  'x, y, z'
loop_
 _atom_site_type_symbol
 _atom_site_label
 _atom_site_symmetry_multiplicity
 _atom_site_fract_x
 _atom_site_fract_y
 _atom_site_fract_z
 _atom_site_occupancy
  Na  Na0  1  0.01432700  0.10045300  0.67505300  1
  Na  Na1  1  0.35045300  0.17540000  0.58612600  1
  Na  Na2  1  0.58927400  0.76432700  0.41387400  1
  Na  Na3  1  0.42540000  0.33927400  0.32494700  1
  Na  Na4  1  0.23567300  0.64954700  0.82494700  1
  Na  Na5  1  0.50000000  0.50000000  0.00000000  1
  Na  Na6  1  0.66072600  0.98567300  0.08612600  1
  Na  Na7  1  0.82460000  0.41072600  0.17505300  1
  Na  Na8  1  0.75000000  0.25000000  0.50000000  1
  Na  Na9  1  0.89954700  0.57460000  0.91387400  1
  Y  Y0  1  0.00000000  0.00000000  0.00000000  1
  Y  Y1  1  0.25000000  0.75000000  0.50000000  1
  W  W0  1  0.08205000  0.30584800  0.40870100  1
  W  W1  1  0.92334900  0.83205000  0.27620200  1
  W  W2  1  0.55584800  0.64714700  0.72379800  1
  W  W3  1  0.89714700  0.67334900  0.59129900  1
  W  W4  1  0.35285300  0.07665100  0.90870100  1
  W  W5  1  0.32665100  0.91795000  0.22379800  1
  W  W6  1  0.69415200  0.10285300  0.77620200  1
  W  W7  1  0.16795000  0.44415200  0.09129900  1
  O  O0  1  0.38152300  0.49975700  0.17779100  1
  O  O1  1  0.74975700  0.07196600  0.61823400  1
  O  O2  1  0.45373200  0.13152300  0.38176600  1
  O  O3  1  0.32196600  0.20373200  0.82220900  1
  O  O4  1  0.86847700  0.25024300  0.32220900  1
  O  O5  1  0.50024300  0.67803400  0.88176600  1
  O  O6  1  0.79626800  0.61847700  0.11823400  1
  O  O7  1  0.92803400  0.54626800  0.67779100  1
  O  O8  1  0.14674500  0.24417600  0.25670300  1
  O  O9  1  0.49417600  0.73747300  0.59743100  1
  O  O10  1  0.14004200  0.89674500  0.40256900  1
  O  O11  1  0.98747300  0.89004200  0.74329700  1
  O  O12  1  0.10325500  0.50582400  0.24329700  1
  O  O13  1  0.75582400  0.01252700  0.90256900  1
  O  O14  1  0.10995800  0.85325500  0.09743100  1
  O  O15  1  0.26252700  0.85995800  0.75670300  1
  O  O16  1  0.04911500  0.22359200  0.94712400  1
  O  O17  1  0.47359200  0.02646700  0.67447600  1
  O  O18  1  0.35199100  0.79911500  0.32552400  1
  O  O19  1  0.27646700  0.10199100  0.05287600  1
  O  O20  1  0.67947300  0.57871500  0.46843000  1
  O  O21  1  0.82871500  0.86028500  0.39924200  1
  O  O22  1  0.46104300  0.42947300  0.60075800  1
  O  O23  1  0.11028500  0.21104300  0.53157000  1
  O  O24  1  0.57052700  0.17128500  0.03157000  1
  O  O25  1  0.42128500  0.88971500  0.10075800  1
  O  O26  1  0.78895700  0.32052700  0.89924200  1
  O  O27  1  0.13971500  0.53895700  0.96843000  1
  O  O28  1  0.97353300  0.64800900  0.44712400  1
  O  O29  1  0.89800900  0.95088500  0.17447600  1
  O  O30  1  0.77640800  0.72353300  0.82552400  1
  O  O31  1  0.20088500  0.52640800  0.55287600  1
loop_
_geom_bond_atom_site_label_1
_geom_bond_atom_site_label_2
_geom_bond_distance
_geom_bond_site_symmetry_2
Na0 O23 2.326119 1_555
Na0 O11 2.377966 1_445
Na0 O1 2.415659 1_455
Na0 O16 2.449134 1_555
Na0 O21 2.473321 1_445
Na0 O3 2.566597 1_555
Na1 O22 2.326119 1_555
Na1 O10 2.377966 1_545
Na1 O3 2.415659 1_555
Na1 O17 2.449139 1_555
Na1 O23 2.473321 1_555
Na1 O2 2.566597 1_555
Na2 O21 2.326119 1_555
Na2 O9 2.377966 1_555
Na2 O0 2.415659 1_555
Na2 O18 2.449133 1_555
Na2 O20 2.473321 1_555
Na2 O1 2.566597 1_565
Na3 O20 2.326119 1_555
Na3 O8 2.377966 1_555
Na3 O2 2.415659 1_555
Na3 O19 2.449133 1_555
Na3 O22 2.473321 1_555
Na3 O0 2.566597 1_555
Na4 O27 2.326119 1_555
Na4 O15 2.377966 1_555
Na4 O5 2.415659 1_555
Na4 O31 2.449134 1_555
Na4 O25 2.473321 1_556
Na4 O7 2.566597 1_455
Na5 O6 2.443598 1_555
Na5 O3 2.443598 1_554
Na5 O5 2.443598 1_554
Na5 O0 2.443598 1_555
Na6 O25 2.326119 1_555
Na6 O13 2.377966 1_564
Na6 O4 2.415659 1_565
Na6 O29 2.449133 1_555
Na6 O24 2.473321 1_565
Na6 O5 2.566597 1_554
Na7 O24 2.326119 1_555
Na7 O12 2.377966 1_655
Na7 O6 2.415659 1_555
Na7 O28 2.449133 1_555
Na7 O26 2.473321 1_554
Na7 O4 2.566597 1_555
Na8 O1 2.443598 1_555
Na8 O7 2.443598 1_555
Na8 O2 2.443598 1_555
Na8 O4 2.443598 1_555
Na9 O26 2.326119 1_555
Na9 O14 2.377966 1_656
Na9 O7 2.415659 1_555
Na9 O30 2.449139 1_555
Na9 O27 2.473321 1_655
Na9 O6 2.566597 1_556
O0 W7 1.815806 1_555
O1 W6 1.815806 1_555
O2 W5 1.815806 1_545
O3 W4 1.815806 1_555
O4 W0 1.815806 1_655
O5 W2 1.815806 1_555
O6 W1 1.815806 1_555
O7 W3 1.815806 1_555
O8 W0 1.855984 1_555
O8 Y0 2.392109 1_555
O9 W2 1.855984 1_555
O9 Y1 2.392109 1_555
O10 W1 1.855984 1_455
O10 Y1 2.392109 1_555
O11 W3 1.855984 1_555
O11 Y0 2.392109 1_666
O12 W7 1.855984 1_555
O12 Y1 2.392109 1_555
O13 W6 1.855984 1_555
O13 Y0 2.392109 1_656
O14 W5 1.855984 1_555
O14 Y0 2.392109 1_565
O15 W4 1.855984 1_565
O15 Y1 2.392109 1_555
O16 W7 1.833845 1_556
O16 Y0 2.391544 1_556
O17 W6 1.833843 1_555
O17 Y1 2.391537 1_545
O18 W5 1.833852 1_555
O18 Y1 2.391534 1_555
O19 W4 1.833852 1_554
O19 Y0 2.391534 1_555
O20 W3 1.797020 1_555
O21 W1 1.797020 1_555
O22 W2 1.797020 1_555
O23 W0 1.797020 1_555
O24 W4 1.797020 1_554
O25 W5 1.797020 1_555
O26 W6 1.797020 1_555
O27 W7 1.797020 1_556
O28 W3 1.833852 1_555
O28 Y1 2.391534 1_655
O29 W1 1.833852 1_555
O29 Y0 2.391534 1_665
O30 W2 1.833843 1_555
O30 Y0 2.391537 1_666
O31 W0 1.833845 1_555
O31 Y1 2.391544 1_555
