# generated using pymatgen
data_Y3(SbPd2)4
_symmetry_space_group_name_H-M   'P 1'
_cell_length_a   9.38917597
_cell_length_b   9.38917597
_cell_length_c   9.38917597
_cell_angle_alpha   60.00000000
_cell_angle_beta   60.00000000
_cell_angle_gamma   60.00000000
_symmetry_Int_Tables_number   1
_chemical_formula_structural   Y3(SbPd2)4
_chemical_formula_sum   'Y6 Sb8 Pd16'
_cell_volume   585.28505982
_cell_formula_units_Z   2
loop_
 _symmetry_equiv_pos_site_id
 _symmetry_equiv_pos_as_xyz
  1  'x, y, z'
loop_
 _atom_site_type_symbol
 _atom_site_label
 _atom_site_symmetry_multiplicity
 _atom_site_fract_x
 _atom_site_fract_y
 _atom_site_fract_z
 _atom_site_occupancy
  Y  Y0  1  0.72423500  0.27576500  0.27576500  1
  Y  Y1  1  0.27576500  0.72423500  0.72423500  1
  Y  Y2  1  0.27576500  0.72423500  0.27576500  1
  Y  Y3  1  0.72423500  0.27576500  0.72423500  1
  Y  Y4  1  0.27576500  0.27576500  0.72423500  1
  Y  Y5  1  0.72423500  0.72423500  0.27576500  1
  Sb  Sb0  1  0.00000000  0.00000000  0.00000000  1
  Sb  Sb1  1  0.50000000  0.00000000  0.00000000  1
  Sb  Sb2  1  0.00000000  0.50000000  0.50000000  1
  Sb  Sb3  1  0.00000000  0.50000000  0.00000000  1
  Sb  Sb4  1  0.50000000  0.00000000  0.50000000  1
  Sb  Sb5  1  0.00000000  0.00000000  0.50000000  1
  Sb  Sb6  1  0.50000000  0.50000000  0.00000000  1
  Sb  Sb7  1  0.50000000  0.50000000  0.50000000  1
  Pd  Pd0  1  0.11884000  0.11884000  0.11884000  1
  Pd  Pd1  1  0.88116000  0.88116000  0.88116000  1
  Pd  Pd2  1  0.11884000  0.11884000  0.64347900  1
  Pd  Pd3  1  0.11884000  0.64347900  0.11884000  1
  Pd  Pd4  1  0.88116000  0.88116000  0.35652100  1
  Pd  Pd5  1  0.88116000  0.35652100  0.88116000  1
  Pd  Pd6  1  0.64347900  0.11884000  0.11884000  1
  Pd  Pd7  1  0.35652100  0.88116000  0.88116000  1
  Pd  Pd8  1  0.33338600  0.33338600  0.33338600  1
  Pd  Pd9  1  0.66661400  0.66661400  0.66661400  1
  Pd  Pd10  1  0.33338600  0.33338600  0.99984200  1
  Pd  Pd11  1  0.33338600  0.99984200  0.33338600  1
  Pd  Pd12  1  0.66661400  0.66661400  0.00015800  1
  Pd  Pd13  1  0.66661400  0.00015800  0.66661400  1
  Pd  Pd14  1  0.99984200  0.33338600  0.33338600  1
  Pd  Pd15  1  0.00015800  0.66661400  0.66661400  1
loop_
_geom_bond_atom_site_label_1
_geom_bond_atom_site_label_2
_geom_bond_distance
_geom_bond_site_symmetry_2
Sb1 Y3 3.337158 1_554
Sb1 Y5 3.337158 1_545
Sb1 Y2 3.337158 1_545
Sb1 Y4 3.337158 1_554
Sb2 Y4 3.337158 1_555
Sb2 Y2 3.337158 1_555
Sb2 Y3 3.337158 1_455
Sb2 Y5 3.337158 1_455
Sb3 Y1 3.337158 1_554
Sb3 Y5 3.337158 1_455
Sb3 Y0 3.337158 1_455
Sb3 Y4 3.337158 1_554
Sb4 Y4 3.337158 1_555
Sb4 Y0 3.337158 1_555
Sb4 Y1 3.337158 1_545
Sb4 Y5 3.337158 1_545
Sb5 Y1 3.337158 1_545
Sb5 Y3 3.337158 1_455
Sb5 Y2 3.337158 1_545
Sb5 Y0 3.337158 1_455
Sb6 Y2 3.337158 1_555
Sb6 Y0 3.337158 1_555
Sb6 Y3 3.337158 1_554
Sb6 Y1 3.337158 1_554
Sb7 Y5 2.977460 1_555
Sb7 Y3 2.977460 1_555
Sb7 Y1 2.977460 1_555
Sb7 Y2 2.977460 1_555
Sb7 Y0 2.977460 1_555
Sb7 Y4 2.977460 1_555
Pd0 Sb0 2.733164 1_555
Pd0 Sb3 2.925111 1_555
Pd0 Sb1 2.925111 1_555
Pd0 Sb5 2.925111 1_555
Pd0 Y2 3.053182 1_545
Pd0 Y0 3.053182 1_455
Pd0 Y4 3.053182 1_554
Pd1 Sb0 2.733164 1_666
Pd1 Sb1 2.925111 1_566
Pd1 Sb5 2.925111 1_665
Pd1 Sb3 2.925111 1_656
Pd1 Y3 3.053182 1_565
Pd1 Y5 3.053182 1_556
Pd1 Y1 3.053182 1_655
Pd2 Sb0 2.733172 1_556
Pd2 Sb5 2.925104 1_555
Pd2 Sb2 2.925111 1_555
Pd2 Sb4 2.925111 1_555
Pd2 Y1 3.053181 1_545
Pd2 Y3 3.053181 1_455
Pd2 Y4 3.053189 1_555
Pd3 Sb0 2.733172 1_565
Pd3 Sb3 2.925104 1_555
Pd3 Sb2 2.925111 1_555
Pd3 Sb6 2.925111 1_555
Pd3 Y1 3.053181 1_554
Pd3 Y5 3.053181 1_455
Pd3 Y2 3.053189 1_555
Pd4 Sb0 2.733172 1_665
Pd4 Sb5 2.925104 1_665
Pd4 Sb2 2.925111 1_655
Pd4 Sb4 2.925111 1_565
Pd4 Y0 3.053181 1_565
Pd4 Y2 3.053181 1_655
Pd4 Y5 3.053189 1_555
Pd5 Sb0 2.733172 1_656
Pd5 Sb3 2.925104 1_656
Pd5 Sb2 2.925111 1_655
Pd5 Sb6 2.925111 1_556
Pd5 Y4 3.053181 1_655
Pd5 Y0 3.053181 1_556
Pd5 Y3 3.053189 1_555
Pd6 Sb0 2.733172 1_655
Pd6 Sb1 2.925104 1_555
Pd6 Sb6 2.925111 1_555
Pd6 Sb4 2.925111 1_555
Pd6 Y3 3.053181 1_554
Pd6 Y5 3.053181 1_545
Pd6 Y0 3.053189 1_555
Pd7 Sb0 2.733172 1_566
Pd7 Sb1 2.925104 1_566
Pd7 Sb4 2.925111 1_565
Pd7 Sb6 2.925111 1_556
Pd7 Y2 3.053181 1_556
Pd7 Y4 3.053181 1_565
Pd7 Y1 3.053189 1_555
Pd8 Sb4 2.710422 1_555
Pd8 Sb2 2.710422 1_555
Pd8 Sb6 2.710422 1_555
Pd8 Y2 3.220929 1_555
Pd8 Y0 3.220929 1_555
Pd8 Y4 3.220929 1_555
Pd9 Sb4 2.710422 1_565
Pd9 Sb6 2.710422 1_556
Pd9 Sb2 2.710422 1_655
Pd9 Y1 3.220929 1_555
Pd9 Y5 3.220929 1_555
Pd9 Y3 3.220929 1_555
Pd10 Sb6 2.710422 1_556
Pd10 Sb3 2.710422 1_556
Pd10 Sb1 2.710422 1_556
Pd10 Y1 3.220929 1_555
Pd10 Y3 3.220929 1_555
Pd10 Y4 3.220929 1_555
Pd11 Sb4 2.710422 1_565
Pd11 Sb5 2.710422 1_565
Pd11 Sb1 2.710422 1_565
Pd11 Y1 3.220929 1_555
Pd11 Y5 3.220929 1_555
Pd11 Y2 3.220929 1_555
Pd12 Sb1 2.710422 1_565
Pd12 Sb3 2.710422 1_655
Pd12 Sb6 2.710422 1_555
Pd12 Y5 3.220929 1_555
Pd12 Y2 3.220929 1_555
Pd12 Y0 3.220929 1_555
Pd13 Sb5 2.710422 1_655
Pd13 Sb1 2.710422 1_556
Pd13 Sb4 2.710422 1_555
Pd13 Y3 3.220929 1_555
Pd13 Y4 3.220929 1_555
Pd13 Y0 3.220929 1_555
Pd14 Sb2 2.710422 1_655
Pd14 Sb3 2.710422 1_655
Pd14 Sb5 2.710422 1_655
Pd14 Y5 3.220929 1_555
Pd14 Y3 3.220929 1_555
Pd14 Y0 3.220929 1_555
Pd15 Sb3 2.710422 1_556
Pd15 Sb5 2.710422 1_565
Pd15 Sb2 2.710422 1_555
Pd15 Y1 3.220929 1_555
Pd15 Y2 3.220929 1_555
Pd15 Y4 3.220929 1_555
