# generated using pymatgen
data_Y2AlCd
_symmetry_space_group_name_H-M   'P 1'
_cell_length_a   5.19559360
_cell_length_b   5.19559360
_cell_length_c   5.19559360
_cell_angle_alpha   60.00000000
_cell_angle_beta   60.00000000
_cell_angle_gamma   60.00000000
_symmetry_Int_Tables_number   1
_chemical_formula_structural   Y2AlCd
_chemical_formula_sum   'Y2 Al1 Cd1'
_cell_volume   99.17233135
_cell_formula_units_Z   1
loop_
 _symmetry_equiv_pos_site_id
 _symmetry_equiv_pos_as_xyz
  1  'x, y, z'
loop_
 _atom_site_type_symbol
 _atom_site_label
 _atom_site_symmetry_multiplicity
 _atom_site_fract_x
 _atom_site_fract_y
 _atom_site_fract_z
 _atom_site_occupancy
  Y  Y0  1  0.25000000  0.25000000  0.25000000  1
  Y  Y1  1  0.75000000  0.75000000  0.75000000  1
  Al  Al0  1  0.50000000  0.50000000  0.50000000  1
  Cd  Cd0  1  0.00000000  -0.00000000  0.00000000  1
loop_
_geom_bond_atom_site_label_1
_geom_bond_atom_site_label_2
_geom_bond_distance
_geom_bond_site_symmetry_2
Al0 Y1 3.181638 1_455
Al0 Y0 3.181638 1_655
Al0 Y1 3.181638 1_545
Al0 Y0 3.181638 1_555
Al0 Y0 3.181638 1_556
Al0 Y1 3.181638 1_555
Al0 Y1 3.181638 1_554
Al0 Y0 3.181638 1_565
Cd0 Y0 3.181638 1_455
Cd0 Y1 3.181638 1_544
Cd0 Y1 3.181638 1_444
Cd0 Y1 3.181638 1_445
Cd0 Y1 3.181638 1_454
Cd0 Y0 3.181638 1_545
Cd0 Y0 3.181638 1_554
Cd0 Y0 3.181638 1_555
