# generated using pymatgen
data_Eu5Sb3
_symmetry_space_group_name_H-M   'P 1'
_cell_length_a   7.07377186
_cell_length_b   9.41304319
_cell_length_c   9.41305464
_cell_angle_alpha   119.99780100
_cell_angle_beta   89.99917820
_cell_angle_gamma   90.00231124
_symmetry_Int_Tables_number   1
_chemical_formula_structural   Eu5Sb3
_chemical_formula_sum   'Eu10 Sb6'
_cell_volume   542.81511731
_cell_formula_units_Z   2
loop_
 _symmetry_equiv_pos_site_id
 _symmetry_equiv_pos_as_xyz
  1  'x, y, z'
loop_
 _atom_site_type_symbol
 _atom_site_label
 _atom_site_symmetry_multiplicity
 _atom_site_fract_x
 _atom_site_fract_y
 _atom_site_fract_z
 _atom_site_occupancy
  Eu  Eu0  1  0.50000812  0.33334256  0.66666883  1
  Eu  Eu1  1  0.50000683  0.66666065  0.33333268  1
  Eu  Eu2  1  0.00000618  0.66665729  0.33333809  1
  Eu  Eu3  1  0.00000509  0.33333239  0.66666291  1
  Eu  Eu4  1  0.75001292  0.25504131  0.00000124  1
  Eu  Eu5  1  0.75000929  0.74495170  0.74495132  1
  Eu  Eu6  1  0.75000907  0.00000996  0.25505094  1
  Eu  Eu7  1  0.25001182  0.74495605  -0.00000433  1
  Eu  Eu8  1  0.25000931  0.25504300  0.25505111  1
  Eu  Eu9  1  0.25000934  -0.00000347  0.74495911  1
  Sb  Sb0  1  0.75005819  0.61247020  0.00000573  1
  Sb  Sb1  1  0.74993501  0.38756361  0.38756893  1
  Sb  Sb2  1  0.74994625  -0.00000681  0.61243146  1
  Sb  Sb3  1  0.25007407  0.38755636  -0.00000246  1
  Sb  Sb4  1  0.24994528  0.61242759  0.61242571  1
  Sb  Sb5  1  0.24995224  -0.00000240  0.38755874  1
loop_
_geom_bond_atom_site_label_1
_geom_bond_atom_site_label_2
_geom_bond_distance
_geom_bond_site_symmetry_2
Eu0 Sb1 3.410091 1_555
Eu0 Sb3 3.410247 1_556
Eu0 Sb2 3.410429 1_555
Eu0 Sb4 3.410669 1_555
Eu0 Sb5 3.410791 1_555
Eu0 Sb0 3.410796 1_556
Eu1 Sb1 3.410236 1_555
Eu1 Sb2 3.410268 1_565
Eu1 Sb3 3.410288 1_555
Eu1 Sb4 3.410591 1_555
Eu1 Sb0 3.410732 1_555
Eu1 Sb5 3.410790 1_565
Eu2 Sb4 3.410142 1_555
Eu2 Sb5 3.410311 1_565
Eu2 Sb0 3.410431 1_455
Eu2 Sb1 3.410589 1_455
Eu2 Sb2 3.410803 1_465
Eu2 Sb3 3.410865 1_555
Eu3 Sb4 3.410153 1_555
Eu3 Sb5 3.410416 1_555
Eu3 Sb0 3.410540 1_456
Eu3 Sb1 3.410681 1_455
Eu3 Sb2 3.410684 1_455
Eu3 Sb3 3.410785 1_556
Eu4 Sb1 3.211672 1_555
Eu4 Sb2 3.211735 1_554
Eu4 Sb0 3.364472 1_555
Eu4 Sb3 3.750044 1_555
Eu4 Sb3 3.750765 1_655
Eu5 Sb0 3.211380 1_556
Eu5 Sb2 3.211539 1_565
Eu5 Sb1 3.364197 1_555
Eu5 Sb4 3.750047 1_655
Eu5 Sb4 3.750840 1_555
Eu6 Sb0 3.211512 1_545
Eu6 Sb1 3.211551 1_555
Eu6 Sb2 3.364121 1_555
Eu6 Sb5 3.750034 1_655
Eu6 Sb5 3.750759 1_555
Eu7 Sb5 3.211675 1_565
Eu7 Sb4 3.211682 1_554
Eu7 Sb3 3.364228 1_555
Eu7 Sb0 3.749967 1_455
Eu7 Sb0 3.750680 1_555
Eu8 Sb5 3.211486 1_555
Eu8 Sb3 3.211601 1_555
Eu8 Sb4 3.364143 1_555
Eu8 Sb1 3.749900 1_555
Eu8 Sb1 3.750952 1_455
Eu9 Sb3 3.211644 1_556
Eu9 Sb4 3.211660 1_545
Eu9 Sb5 3.364234 1_555
Eu9 Sb2 3.749996 1_555
Eu9 Sb2 3.750872 1_455
