# generated using pymatgen
data_YSnO3
_symmetry_space_group_name_H-M   'P 1'
_cell_length_a   6.42710594
_cell_length_b   6.42710594
_cell_length_c   12.57640300
_cell_angle_alpha   90.00000000
_cell_angle_beta   90.00000000
_cell_angle_gamma   119.99999939
_symmetry_Int_Tables_number   1
_chemical_formula_structural   YSnO3
_chemical_formula_sum   'Y6 Sn6 O18'
_cell_volume   449.90207596
_cell_formula_units_Z   6
loop_
 _symmetry_equiv_pos_site_id
 _symmetry_equiv_pos_as_xyz
  1  'x, y, z'
loop_
 _atom_site_type_symbol
 _atom_site_label
 _atom_site_symmetry_multiplicity
 _atom_site_fract_x
 _atom_site_fract_y
 _atom_site_fract_z
 _atom_site_occupancy
  Y  Y0  1  0.66666700  0.33333300  0.23678700  1
  Y  Y1  1  0.33333300  0.66666700  0.73678700  1
  Y  Y2  1  0.66666700  0.33333300  0.73678700  1
  Y  Y3  1  0.33333300  0.66666700  0.23678700  1
  Y  Y4  1  0.00000000  0.00000000  0.76888200  1
  Y  Y5  1  0.00000000  0.00000000  0.26888200  1
  Sn  Sn0  1  0.66694300  0.00000000  0.50048200  1
  Sn  Sn1  1  0.66694300  0.66694300  0.00048200  1
  Sn  Sn2  1  0.00000000  0.33305700  0.00048200  1
  Sn  Sn3  1  0.00000000  0.66694300  0.50048200  1
  Sn  Sn4  1  0.33305700  0.33305700  0.50048200  1
  Sn  Sn5  1  0.33305700  0.00000000  0.00048200  1
  O  O0  1  0.66666700  0.33333300  0.02567200  1
  O  O1  1  0.33333300  0.66666700  0.52567200  1
  O  O2  1  0.66666700  0.33333300  0.52567200  1
  O  O3  1  0.33333300  0.66666700  0.02567200  1
  O  O4  1  0.00000000  0.00000000  0.97129200  1
  O  O5  1  0.00000000  0.00000000  0.47129200  1
  O  O6  1  0.35955400  0.00000000  0.82878600  1
  O  O7  1  0.35955400  0.35955400  0.32878600  1
  O  O8  1  0.00000000  0.64044600  0.32878600  1
  O  O9  1  0.00000000  0.35955400  0.82878600  1
  O  O10  1  0.64044600  0.64044600  0.82878600  1
  O  O11  1  0.64044600  0.00000000  0.32878600  1
  O  O12  1  0.30907000  0.00000000  0.17403500  1
  O  O13  1  0.30907000  0.30907000  0.67403500  1
  O  O14  1  0.00000000  0.69093000  0.67403500  1
  O  O15  1  0.00000000  0.30907000  0.17403500  1
  O  O16  1  0.69093000  0.69093000  0.17403500  1
  O  O17  1  0.69093000  0.00000000  0.67403500  1
loop_
_geom_bond_atom_site_label_1
_geom_bond_atom_site_label_2
_geom_bond_distance
_geom_bond_site_symmetry_2
O0 Sn2 2.166541 1_655
O0 Sn5 2.166544 1_555
O0 Sn1 2.166547 1_555
O0 Y0 2.655067 1_555
O1 Sn3 2.166541 1_555
O1 Sn0 2.166544 1_565
O1 Sn4 2.166547 1_555
O1 Y1 2.655067 1_555
O2 Sn0 2.166541 1_555
O2 Sn3 2.166544 1_655
O2 Sn4 2.166547 1_555
O2 Y2 2.655067 1_555
O3 Sn5 2.166541 1_565
O3 Sn2 2.166544 1_555
O3 Sn1 2.166547 1_555
O3 Y3 2.655067 1_555
O4 Sn5 2.171843 1_556
O4 Sn2 2.171843 1_556
O4 Sn1 2.171843 1_446
O4 Y4 2.545590 1_555
O5 Sn0 2.171843 1_455
O5 Sn3 2.171843 1_545
O5 Sn4 2.171843 1_555
O5 Y5 2.545590 1_555
O6 Sn5 2.166023 1_556
O6 Y1 2.365540 1_545
O6 Y2 2.365542 1_555
O6 Y4 2.430596 1_555
O7 Sn4 2.166023 1_555
O7 Y3 2.365546 1_555
O7 Y0 2.365546 1_555
O7 Y5 2.430596 1_555
O8 Sn3 2.166023 1_555
O8 Y3 2.365540 1_555
O8 Y0 2.365542 1_455
O8 Y5 2.430596 1_565
O9 Sn2 2.166023 1_556
O9 Y2 2.365540 1_455
O9 Y1 2.365542 1_555
O9 Y4 2.430596 1_555
O10 Sn1 2.166023 1_556
O10 Y1 2.365546 1_555
O10 Y2 2.365546 1_555
O10 Y4 2.430596 1_665
O11 Sn0 2.166023 1_555
O11 Y0 2.365540 1_555
O11 Y3 2.365542 1_545
O11 Y5 2.430596 1_655
O12 Sn5 2.188110 1_555
O12 Y5 2.317054 1_555
O12 Y3 2.360289 1_545
O12 Y0 2.360292 1_555
O13 Sn4 2.188110 1_555
O13 Y4 2.317054 1_555
O13 Y2 2.360295 1_555
O13 Y1 2.360295 1_555
O14 Sn3 2.188110 1_555
O14 Y4 2.317054 1_565
O14 Y1 2.360289 1_555
O14 Y2 2.360292 1_455
O15 Sn2 2.188110 1_555
O15 Y5 2.317054 1_555
O15 Y0 2.360289 1_455
O15 Y3 2.360292 1_555
O16 Sn1 2.188110 1_555
O16 Y5 2.317054 1_665
O16 Y3 2.360295 1_555
O16 Y0 2.360295 1_555
O17 Sn0 2.188110 1_555
O17 Y4 2.317054 1_655
O17 Y2 2.360289 1_555
O17 Y1 2.360292 1_545
