# generated using pymatgen
data_Sr2CaTi6N2O11
_symmetry_space_group_name_H-M   'P 1'
_cell_length_a   3.87484057
_cell_length_b   7.43911430
_cell_length_c   10.12142691
_cell_angle_alpha   76.60040388
_cell_angle_beta   90.11847180
_cell_angle_gamma   74.95343661
_symmetry_Int_Tables_number   1
_chemical_formula_structural   Sr2CaTi6N2O11
_chemical_formula_sum   'Sr2 Ca1 Ti6 N2 O11'
_cell_volume   273.47930967
_cell_formula_units_Z   1
loop_
 _symmetry_equiv_pos_site_id
 _symmetry_equiv_pos_as_xyz
  1  'x, y, z'
loop_
 _atom_site_type_symbol
 _atom_site_label
 _atom_site_symmetry_multiplicity
 _atom_site_fract_x
 _atom_site_fract_y
 _atom_site_fract_z
 _atom_site_occupancy
  Sr  Sr0  1  0.50280900  0.93458700  0.82272100  1
  Sr  Sr1  1  0.48702200  0.01260200  0.47406500  1
  Ca  Ca0  1  0.44689100  0.05157800  0.13930700  1
  Ti  Ti0  1  0.11726000  0.71309100  0.05980500  1
  Ti  Ti1  1  0.14502400  0.66555900  0.39207100  1
  Ti  Ti2  1  0.20094400  0.55092300  0.72455700  1
  Ti  Ti3  1  0.75011600  0.45354800  0.23784900  1
  Ti  Ti4  1  0.80021300  0.35351800  0.57688100  1
  Ti  Ti5  1  0.83633300  0.27631400  0.92705000  1
  N  N0  1  0.20999400  0.53340500  0.24375300  1
  N  N1  1  0.81842100  0.31593300  0.09876300  1
  O  O0  1  0.01344400  0.91735800  0.29784700  1
  O  O1  1  0.09496500  0.77254500  0.59168200  1
  O  O2  1  0.13609000  0.67444300  0.88480900  1
  O  O3  1  0.60507800  0.73850600  0.08856800  1
  O  O4  1  0.65846100  0.63730100  0.42201100  1
  O  O5  1  0.73072100  0.49078100  0.74682900  1
  O  O6  1  0.27341800  0.40616900  0.56051700  1
  O  O7  1  0.34114000  0.26695000  0.88510100  1
  O  O8  1  0.85331400  0.25639000  0.40534800  1
  O  O9  1  0.91066800  0.11472400  0.68366600  1
  O  O10  1  0.97500000  0.99878700  0.99149500  1
loop_
_geom_bond_atom_site_label_1
_geom_bond_atom_site_label_2
_geom_bond_distance
_geom_bond_site_symmetry_2
Ca0 O3 2.424467 1_545
Ca0 O10 2.523827 1_444
Ca0 O10 2.539226 1_544
Ca0 O0 2.548719 1_645
Ca0 O0 2.555771 1_545
Ca0 O7 2.664395 1_554
Ca0 N1 2.664849 1_455
Ca0 N1 2.684517 1_555
N0 Ti1 1.959728 1_555
N0 Ti0 1.994151 1_555
N0 Ti3 2.024226 1_455
N0 Ti3 2.026843 1_555
N1 Ti5 1.827443 1_554
N1 Ti3 1.904902 1_555
O0 Ti1 1.830944 1_555
O0 Sr1 2.773864 1_465
O0 Sr1 2.880586 1_565
O1 Ti2 1.820439 1_555
O1 Ti1 2.328000 1_555
O1 Sr1 2.640910 1_465
O1 Sr1 2.710142 1_565
O2 Ti0 1.857641 1_556
O2 Ti2 2.027529 1_555
O2 Sr0 2.650861 1_555
O2 Sr0 2.669429 1_455
O3 Ti0 1.972894 1_655
O3 Ti0 1.975400 1_555
O3 Ti3 2.232913 1_555
O3 Sr0 2.720521 1_554
O4 Ti1 1.960846 1_555
O4 Ti1 1.967027 1_655
O4 Ti4 2.253030 1_555
O4 Ti3 2.529973 1_555
O4 Sr1 2.869472 1_565
O5 Ti2 1.984809 1_555
O5 Ti2 1.987213 1_655
O5 Ti5 2.085499 1_555
O5 Ti4 2.178811 1_555
O6 Ti4 1.971543 1_455
O6 Ti4 1.975083 1_555
O6 Ti2 2.160714 1_555
O6 Ti1 2.202495 1_555
O6 Sr1 3.155132 1_555
O7 Ti5 1.986613 1_555
O7 Ti5 1.989382 1_455
O7 Ti2 2.282045 1_555
O7 Sr0 2.612514 1_545
O8 Ti3 1.930137 1_555
O8 Ti4 2.020980 1_555
O8 Sr1 2.557961 1_555
O8 Sr1 2.626498 1_655
O9 Ti4 1.794563 1_555
O9 Sr0 2.551254 1_545
O9 Sr0 2.560709 1_645
O9 Sr1 3.025316 1_555
O9 Sr1 3.154513 1_655
O10 Ti5 1.942934 1_565
O10 Ti0 2.001994 1_656
O10 Sr0 2.685951 1_655
O10 Sr0 2.704206 1_555
