# generated using pymatgen
data_Ba2NdMoO6
_symmetry_space_group_name_H-M   'P 1'
_cell_length_a   6.05896300
_cell_length_b   6.09409459
_cell_length_c   6.10733032
_cell_angle_alpha   119.42647257
_cell_angle_beta   119.08583043
_cell_angle_gamma   90.93624995
_symmetry_Int_Tables_number   1
_chemical_formula_structural   Ba2NdMoO6
_chemical_formula_sum   'Ba2 Nd1 Mo1 O6'
_cell_volume   161.71093299
_cell_formula_units_Z   1
loop_
 _symmetry_equiv_pos_site_id
 _symmetry_equiv_pos_as_xyz
  1  'x, y, z'
loop_
 _atom_site_type_symbol
 _atom_site_label
 _atom_site_symmetry_multiplicity
 _atom_site_fract_x
 _atom_site_fract_y
 _atom_site_fract_z
 _atom_site_occupancy
  Ba  Ba0  1  0.75198600  0.25246700  0.49624200  1
  Ba  Ba1  1  0.24801400  0.74753300  0.50375800  1
  Nd  Nd0  1  0.00000000  0.00000000  0.00000000  1
  Mo  Mo0  1  0.50000000  0.50000000  0.00000000  1
  O  O0  1  0.72803500  0.72598100  0.53278300  1
  O  O1  1  0.27196500  0.27401900  0.46721700  1
  O  O2  1  0.23065700  0.69645100  0.99938600  1
  O  O3  1  0.76934300  0.30354900  0.00061400  1
  O  O4  1  0.69412800  0.77044000  0.98738400  1
  O  O5  1  0.30587200  0.22956000  0.01261600  1
loop_
_geom_bond_atom_site_label_1
_geom_bond_atom_site_label_2
_geom_bond_distance
_geom_bond_site_symmetry_2
Ba0 O0 2.794667 1_555
Ba0 O5 2.805387 1_555
Ba0 O1 2.835797 1_555
Ba0 O2 2.843224 1_655
Ba0 O3 2.887622 1_556
Ba0 O4 2.889093 1_544
Ba0 O3 3.241112 1_555
Ba0 O1 3.244513 1_655
Ba0 O4 3.292269 1_555
Ba0 O2 3.300737 1_544
Ba0 O0 3.329399 1_545
Ba0 O5 3.374279 1_656
Ba1 O1 2.794667 1_555
Ba1 O4 2.805387 1_555
Ba1 O0 2.835797 1_555
Ba1 O3 2.843224 1_455
Ba1 O2 2.887622 1_554
Ba1 O5 2.889093 1_566
Ba1 O2 3.241112 1_555
Ba1 O0 3.244513 1_455
Ba1 O5 3.292269 1_555
Ba1 O3 3.300737 1_566
Ba1 O1 3.329399 1_565
Ba1 O4 3.374279 1_454
Nd0 O1 2.074262 1_555
Nd0 O0 2.074262 1_444
Nd0 O4 2.251256 1_444
Nd0 O5 2.251256 1_555
Nd0 O3 2.336209 1_455
Nd0 O2 2.336209 1_544
Mo0 O2 2.039317 1_554
Mo0 O3 2.039317 1_555
Mo0 O5 2.062801 1_555
Mo0 O4 2.062801 1_554
Mo0 O0 2.357324 1_555
Mo0 O1 2.357324 1_554
