# generated using pymatgen
data_MgMn2O4
_symmetry_space_group_name_H-M   'P 1'
_cell_length_a   6.22088859
_cell_length_b   6.22088859
_cell_length_c   14.90828348
_cell_angle_alpha   84.91495863
_cell_angle_beta   84.91495863
_cell_angle_gamma   56.25527228
_symmetry_Int_Tables_number   1
_chemical_formula_structural   MgMn2O4
_chemical_formula_sum   'Mg6 Mn12 O24'
_cell_volume   477.31052492
_cell_formula_units_Z   6
loop_
 _symmetry_equiv_pos_site_id
 _symmetry_equiv_pos_as_xyz
  1  'x, y, z'
loop_
 _atom_site_type_symbol
 _atom_site_label
 _atom_site_symmetry_multiplicity
 _atom_site_fract_x
 _atom_site_fract_y
 _atom_site_fract_z
 _atom_site_occupancy
  Mg  Mg0  1  0.16836500  0.16836500  0.95381700  1
  Mg  Mg1  1  0.50060400  0.50060400  0.62465800  1
  Mg  Mg2  1  0.50072400  0.50072400  0.99818800  1
  Mg  Mg3  1  0.83049700  0.83049700  0.29030000  1
  Mg  Mg4  1  0.16842800  0.16842800  0.71050400  1
  Mg  Mg5  1  0.49985900  0.49985900  0.37573900  1
  Mn  Mn0  1  0.17217100  0.67123800  0.83443800  1
  Mn  Mn1  1  0.66830800  0.66830800  0.83330900  1
  Mn  Mn2  1  0.50021500  0.00042600  0.50022600  1
  Mn  Mn3  1  0.67123800  0.17217100  0.83443800  1
  Mn  Mn4  1  0.83527300  0.83527300  0.66735700  1
  Mn  Mn5  1  0.00006700  0.00006700  0.50043100  1
  Mn  Mn6  1  0.82933400  0.32769700  0.16536800  1
  Mn  Mn7  1  0.00042600  0.50021500  0.50022600  1
  Mn  Mn8  1  0.32769700  0.82933400  0.16536800  1
  Mn  Mn9  1  0.16415200  0.16415200  0.33341600  1
  Mn  Mn10  1  0.33131800  0.33131800  0.16778200  1
  Mn  Mn11  1  0.83320000  0.83320000  0.04493800  1
  O  O0  1  0.34996600  0.34996600  0.91168400  1
  O  O1  1  0.49688400  0.49688400  0.75873600  1
  O  O2  1  0.35316000  0.81463500  0.90907600  1
  O  O3  1  0.81463500  0.35316000  0.90907600  1
  O  O4  1  0.53111700  0.98116900  0.75098500  1
  O  O5  1  0.67754700  0.67754700  0.57581700  1
  O  O6  1  0.98116900  0.53111700  0.75098500  1
  O  O7  1  0.83885500  0.83885500  0.90645900  1
  O  O8  1  0.69049300  0.14030500  0.58192800  1
  O  O9  1  0.82577500  0.82577500  0.42533600  1
  O  O10  1  0.98997600  0.98997500  0.75679700  1
  O  O11  1  0.14030500  0.69049300  0.58192800  1
  O  O12  1  0.86003400  0.30948300  0.41809100  1
  O  O13  1  0.00906600  0.00906600  0.24308300  1
  O  O14  1  0.30948300  0.86003400  0.41809100  1
  O  O15  1  0.17445500  0.17445500  0.57474800  1
  O  O16  1  0.15874900  0.15874900  0.09181800  1
  O  O17  1  0.01595400  0.46796800  0.24845600  1
  O  O18  1  0.32263100  0.32263100  0.42380000  1
  O  O19  1  0.46796800  0.01595400  0.24845600  1
  O  O20  1  0.19089600  0.64715000  0.09177300  1
  O  O21  1  0.50502800  0.50502800  0.24113500  1
  O  O22  1  0.64715000  0.19089600  0.09177300  1
  O  O23  1  0.64860600  0.64860600  0.08908900  1
loop_
_geom_bond_atom_site_label_1
_geom_bond_atom_site_label_2
_geom_bond_distance
_geom_bond_site_symmetry_2
Mg0 O3 1.980539 1_455
Mg0 O2 1.980539 1_545
Mg0 O0 2.028155 1_555
Mg0 O16 2.049444 1_556
Mg1 O1 1.995184 1_555
Mg1 O11 2.000792 1_555
Mg1 O8 2.000792 1_555
Mg1 O5 2.003847 1_555
Mg2 O3 2.045915 1_555
Mg2 O2 2.045915 1_555
Mg2 O22 2.071051 1_556
Mg2 O20 2.071051 1_556
Mg2 O0 2.197326 1_555
Mg2 O23 2.216169 1_556
Mg3 O9 2.008609 1_555
Mg3 O19 2.009351 1_565
Mg3 O17 2.009351 1_655
Mg3 O13 2.014262 1_665
Mg4 O4 2.002149 1_545
Mg4 O6 2.002149 1_455
Mg4 O10 2.009637 1_445
Mg4 O15 2.018315 1_555
Mg5 O14 1.997928 1_555
Mg5 O12 1.997928 1_555
Mg5 O21 2.001810 1_555
Mg5 O18 2.003708 1_555
Mn0 O10 1.971026 1_455
Mn0 O0 1.976318 1_555
Mn0 O1 1.977192 1_555
Mn0 O7 1.985282 1_455
Mn0 O2 2.194424 1_555
Mn0 O6 2.307491 1_455
Mn1 O3 1.937809 1_555
Mn1 O2 1.937809 1_555
Mn1 O4 1.984814 1_555
Mn1 O6 1.984814 1_555
Mn1 O7 2.258602 1_555
Mn1 O1 2.279088 1_555
Mn2 O5 1.969463 1_545
Mn2 O15 1.972258 1_555
Mn2 O18 1.973435 1_555
Mn2 O9 1.974401 1_545
Mn2 O8 2.286868 1_555
Mn2 O14 2.295296 1_545
Mn3 O10 1.971030 1_545
Mn3 O0 1.976318 1_555
Mn3 O1 1.977192 1_555
Mn3 O7 1.985282 1_545
Mn3 O3 2.194424 1_555
Mn3 O4 2.307491 1_545
Mn4 O4 1.957746 1_555
Mn4 O6 1.957746 1_555
Mn4 O8 1.977421 1_565
Mn4 O11 1.977421 1_655
Mn4 O10 2.261474 1_555
Mn4 O5 2.309166 1_555
Mn5 O8 1.962809 1_455
Mn5 O11 1.962809 1_545
Mn5 O12 1.969410 1_455
Mn5 O14 1.969410 1_545
Mn5 O15 2.305422 1_555
Mn5 O9 2.311061 1_445
Mn6 O23 1.968052 1_555
Mn6 O13 1.970223 1_655
Mn6 O21 1.976706 1_555
Mn6 O16 1.979778 1_655
Mn6 O22 2.161021 1_555
Mn6 O17 2.283775 1_655
Mn7 O5 1.969463 1_455
Mn7 O15 1.972258 1_555
Mn7 O18 1.973435 1_555
Mn7 O9 1.974401 1_455
Mn7 O11 2.286868 1_555
Mn7 O12 2.295296 1_455
Mn8 O23 1.968052 1_555
Mn8 O13 1.970223 1_565
Mn8 O21 1.976706 1_555
Mn8 O16 1.979778 1_565
Mn8 O20 2.161021 1_555
Mn8 O19 2.283775 1_565
Mn9 O12 1.966937 1_455
Mn9 O14 1.966937 1_545
Mn9 O17 1.968036 1_555
Mn9 O19 1.968036 1_555
Mn9 O13 2.273748 1_555
Mn9 O18 2.304433 1_555
Mn10 O20 1.944587 1_555
Mn10 O22 1.944587 1_555
Mn10 O19 1.981951 1_555
Mn10 O17 1.981951 1_555
Mn10 O21 2.290798 1_555
Mn10 O16 2.301934 1_555
Mn11 O20 2.012324 1_655
Mn11 O22 2.012324 1_565
Mn11 O7 2.059174 1_554
Mn11 O23 2.065834 1_555
