# generated using pymatgen
data_NaN3
_symmetry_space_group_name_H-M   'P 1'
_cell_length_a   5.44023164
_cell_length_b   5.44023164
_cell_length_c   5.44023192
_cell_angle_alpha   40.78657988
_cell_angle_beta   40.78657988
_cell_angle_gamma   40.78659096
_symmetry_Int_Tables_number   1
_chemical_formula_structural   NaN3
_chemical_formula_sum   'Na1 N3'
_cell_volume   62.00147482
_cell_formula_units_Z   1
loop_
 _symmetry_equiv_pos_site_id
 _symmetry_equiv_pos_as_xyz
  1  'x, y, z'
loop_
 _atom_site_type_symbol
 _atom_site_label
 _atom_site_symmetry_multiplicity
 _atom_site_fract_x
 _atom_site_fract_y
 _atom_site_fract_z
 _atom_site_occupancy
  Na  Na0  1  0.00012800  0.00012800  0.00012800  1
  N  N0  1  0.42435000  0.42435000  0.42435000  1
  N  N1  1  0.50351100  0.50351100  0.50351100  1
  N  N2  1  0.58301100  0.58301100  0.58301100  1
loop_
_geom_bond_atom_site_label_1
_geom_bond_atom_site_label_2
_geom_bond_distance
_geom_bond_site_symmetry_2
N0 N1 1.182762 1_555
N0 Na0 2.576001 1_556
N0 Na0 2.576001 1_565
N0 Na0 2.576001 1_655
N1 N2 1.187827 1_555
N2 Na0 2.521652 1_665
N2 Na0 2.521653 1_656
N2 Na0 2.521653 1_566
