# generated using pymatgen
data_BeCr3
_symmetry_space_group_name_H-M   'P 1'
_cell_length_a   3.51121400
_cell_length_b   3.51121400
_cell_length_c   3.51121400
_cell_angle_alpha   90.00000000
_cell_angle_beta   90.00000000
_cell_angle_gamma   90.00000000
_symmetry_Int_Tables_number   1
_chemical_formula_structural   BeCr3
_chemical_formula_sum   'Be1 Cr3'
_cell_volume   43.28843633
_cell_formula_units_Z   1
loop_
 _symmetry_equiv_pos_site_id
 _symmetry_equiv_pos_as_xyz
  1  'x, y, z'
loop_
 _atom_site_type_symbol
 _atom_site_label
 _atom_site_symmetry_multiplicity
 _atom_site_fract_x
 _atom_site_fract_y
 _atom_site_fract_z
 _atom_site_occupancy
  Be  Be0  1  0.00000000  0.00000000  0.00000000  1
  Cr  Cr0  1  0.00000000  0.50000000  0.50000000  1
  Cr  Cr1  1  0.50000000  0.00000000  0.50000000  1
  Cr  Cr2  1  0.50000000  0.50000000  0.00000000  1
loop_
_geom_bond_atom_site_label_1
_geom_bond_atom_site_label_2
_geom_bond_distance
_geom_bond_site_symmetry_2
Be0 Cr0 2.482803 1_555
Be0 Cr2 2.482803 1_555
Be0 Cr0 2.482803 1_554
Be0 Cr2 2.482803 1_545
Be0 Cr1 2.482803 1_455
Be0 Cr2 2.482803 1_445
Be0 Cr1 2.482803 1_554
Be0 Cr1 2.482803 1_454
Be0 Cr0 2.482803 1_544
Be0 Cr2 2.482803 1_455
Be0 Cr1 2.482803 1_555
Be0 Cr0 2.482803 1_545
Cr0 Cr1 2.482803 1_465
Cr0 Cr2 2.482803 1_555
Cr0 Cr1 2.482803 1_455
Cr0 Cr2 2.482803 1_556
Cr0 Cr2 2.482803 1_456
Cr0 Cr2 2.482803 1_455
Cr0 Cr1 2.482803 1_555
Cr0 Cr1 2.482803 1_565
Cr1 Cr2 2.482803 1_555
Cr1 Cr2 2.482803 1_546
Cr1 Cr2 2.482803 1_545
Cr1 Cr2 2.482803 1_556
