# generated using pymatgen
data_FeF3
_symmetry_space_group_name_H-M   'P 1'
_cell_length_a   7.31647962
_cell_length_b   7.31647962
_cell_length_c   7.44104202
_cell_angle_alpha   90.00000000
_cell_angle_beta   90.00000000
_cell_angle_gamma   119.23617075
_symmetry_Int_Tables_number   1
_chemical_formula_structural   FeF3
_chemical_formula_sum   'Fe6 F18'
_cell_volume   347.58436000
_cell_formula_units_Z   6
loop_
 _symmetry_equiv_pos_site_id
 _symmetry_equiv_pos_as_xyz
  1  'x, y, z'
loop_
 _atom_site_type_symbol
 _atom_site_label
 _atom_site_symmetry_multiplicity
 _atom_site_fract_x
 _atom_site_fract_y
 _atom_site_fract_z
 _atom_site_occupancy
  Fe  Fe0  1  -0.00000000  0.50000000  0.50000000  1
  Fe  Fe1  1  -0.00000000  0.50000000  0.00000000  1
  Fe  Fe2  1  0.50000000  -0.00000000  0.50000000  1
  Fe  Fe3  1  0.50000000  -0.00000000  0.00000000  1
  Fe  Fe4  1  0.50000000  0.50000000  0.50000000  1
  Fe  Fe5  1  0.50000000  0.50000000  0.00000000  1
  F  F0  1  0.78904605  0.58043965  0.04967811  1
  F  F1  1  0.21095395  0.41956035  0.95032189  1
  F  F2  1  0.21095395  0.41956035  0.54967811  1
  F  F3  1  0.78904605  0.58043965  0.45032189  1
  F  F4  1  0.58043965  0.78904605  0.95032189  1
  F  F5  1  0.41956035  0.21095395  0.04967811  1
  F  F6  1  0.41956035  0.21095395  0.45032189  1
  F  F7  1  0.58043965  0.78904605  0.54967811  1
  F  F8  1  0.78152007  0.21847993  0.55336287  1
  F  F9  1  0.21847993  0.78152007  0.44663713  1
  F  F10  1  0.21847993  0.78152007  0.05336287  1
  F  F11  1  0.78152007  0.21847993  0.94663713  1
  F  F12  1  0.99367859  0.42318743  0.25000000  1
  F  F13  1  0.00632141  0.57681257  0.75000000  1
  F  F14  1  0.42318743  0.99367859  0.75000000  1
  F  F15  1  0.57681257  0.00632141  0.25000000  1
  F  F16  1  0.54363811  0.45636189  0.75000000  1
  F  F17  1  0.45636189  0.54363811  0.25000000  1
loop_
_geom_bond_atom_site_label_1
_geom_bond_atom_site_label_2
_geom_bond_distance
_geom_bond_site_symmetry_2
F0 Fe5 1.933808 1_555
F0 Fe1 1.937148 1_655
F1 Fe5 1.933808 1_556
F1 Fe1 1.937148 1_556
F2 Fe4 1.933808 1_555
F2 Fe0 1.937148 1_555
F3 Fe4 1.933808 1_555
F3 Fe0 1.937148 1_655
F4 Fe5 1.933808 1_556
F4 Fe3 1.937148 1_566
F5 Fe5 1.933808 1_555
F5 Fe3 1.937148 1_555
F6 Fe4 1.933808 1_555
F6 Fe2 1.937148 1_555
F7 Fe4 1.933808 1_555
F7 Fe2 1.937148 1_565
F8 Fe0 1.933705 1_655
F8 Fe2 1.933705 1_555
F9 Fe0 1.933705 1_555
F9 Fe2 1.933705 1_565
F10 Fe1 1.933705 1_555
F10 Fe3 1.933705 1_565
F11 Fe1 1.933705 1_656
F11 Fe3 1.933705 1_556
F12 Fe1 1.937307 1_655
F12 Fe0 1.937307 1_655
F13 Fe0 1.937307 1_555
F13 Fe1 1.937307 1_556
F14 Fe2 1.937307 1_565
F14 Fe3 1.937307 1_566
F15 Fe2 1.937307 1_555
F15 Fe3 1.937307 1_555
F16 Fe4 1.940108 1_555
F16 Fe5 1.940108 1_556
F17 Fe5 1.940108 1_555
F17 Fe4 1.940108 1_555
