# generated using pymatgen
data_Dy2MnSbO7
_symmetry_space_group_name_H-M   'P 1'
_cell_length_a   7.32090987
_cell_length_b   7.32090987
_cell_length_c   7.32090987
_cell_angle_alpha   121.66856854
_cell_angle_beta   118.61004259
_cell_angle_gamma   89.77937792
_symmetry_Int_Tables_number   1
_chemical_formula_structural   Dy2MnSbO7
_chemical_formula_sum   'Dy4 Mn2 Sb2 O14'
_cell_volume   276.61291659
_cell_formula_units_Z   2
loop_
 _symmetry_equiv_pos_site_id
 _symmetry_equiv_pos_as_xyz
  1  'x, y, z'
loop_
 _atom_site_type_symbol
 _atom_site_label
 _atom_site_symmetry_multiplicity
 _atom_site_fract_x
 _atom_site_fract_y
 _atom_site_fract_z
 _atom_site_occupancy
  Dy  Dy0  1  0.00000000  0.50000000  0.00000000  1
  Dy  Dy1  1  0.00000000  0.00000000  0.50000000  1
  Dy  Dy2  1  0.00000000  0.50000000  0.50000000  1
  Dy  Dy3  1  0.50000000  0.50000000  0.00000000  1
  Mn  Mn0  1  0.50000000  0.00000000  0.00000000  1
  Mn  Mn1  1  0.50000000  0.50000000  0.50000000  1
  Sb  Sb0  1  0.50000000  0.00000000  0.50000000  1
  Sb  Sb1  1  0.00000000  0.00000000  0.00000000  1
  O  O0  1  0.87324300  0.62324300  0.25000000  1
  O  O1  1  0.12675700  0.37675700  0.75000000  1
  O  O2  1  0.82905700  0.07905700  0.75000000  1
  O  O3  1  0.41802900  0.66802900  0.75000000  1
  O  O4  1  0.84205600  0.66588300  0.75942900  1
  O  O5  1  0.40645400  0.08262600  0.74057100  1
  O  O6  1  0.84205600  0.08262600  0.17617300  1
  O  O7  1  0.40645400  0.66588300  0.32382700  1
  O  O8  1  0.17094300  0.92094300  0.25000000  1
  O  O9  1  0.58197100  0.33197100  0.25000000  1
  O  O10  1  0.15794400  0.33411700  0.24057100  1
  O  O11  1  0.59354600  0.91737400  0.25942900  1
  O  O12  1  0.15794400  0.91737400  0.82382700  1
  O  O13  1  0.59354600  0.33411700  0.67617300  1
loop_
_geom_bond_atom_site_label_1
_geom_bond_atom_site_label_2
_geom_bond_distance
_geom_bond_site_symmetry_2
Dy0 O1 2.216106 1_554
Dy0 O0 2.216106 1_455
Dy0 O13 2.489640 1_454
Dy0 O7 2.489640 1_555
Dy0 O4 2.489640 1_454
Dy0 O10 2.489640 1_555
Dy0 O8 2.515267 1_555
Dy0 O2 2.515267 1_454
Dy1 O0 2.216106 1_445
Dy1 O1 2.216106 1_555
Dy1 O12 2.489635 1_545
Dy1 O6 2.489635 1_455
Dy1 O5 2.489641 1_555
Dy1 O11 2.489641 1_445
Dy1 O2 2.515267 1_455
Dy1 O8 2.515267 1_545
Dy2 O0 2.264031 1_455
Dy2 O1 2.264031 1_555
Dy2 O10 2.467698 1_555
Dy2 O4 2.467698 1_455
Dy2 O6 2.467703 1_455
Dy2 O12 2.467703 1_555
Dy2 O3 2.555293 1_555
Dy2 O9 2.555293 1_455
Dy3 O0 2.264031 1_555
Dy3 O1 2.264031 1_554
Dy3 O13 2.467698 1_554
Dy3 O7 2.467698 1_555
Dy3 O11 2.467704 1_555
Dy3 O5 2.467704 1_554
Dy3 O3 2.555293 1_554
Dy3 O9 2.555293 1_555
Mn0 O9 1.976166 1_555
Mn0 O3 1.976166 1_544
Mn0 O11 2.097509 1_545
Mn0 O5 2.097509 1_554
Mn0 O6 2.097515 1_555
Mn0 O12 2.097515 1_544
Mn1 O3 1.976166 1_555
Mn1 O9 1.976166 1_555
Mn1 O7 2.097514 1_555
Mn1 O4 2.097514 1_555
Mn1 O13 2.097514 1_555
Mn1 O10 2.097514 1_555
O2 Sb0 2.040584 1_555
O2 Sb1 2.040584 1_656
O4 Sb1 1.992492 1_666
O5 Sb0 1.992493 1_555
O6 Sb1 1.992492 1_655
O7 Sb0 1.992492 1_565
O8 Sb0 2.040584 1_565
O8 Sb1 2.040584 1_565
O10 Sb1 1.992492 1_555
O11 Sb0 1.992493 1_565
O12 Sb1 1.992492 1_566
O13 Sb0 1.992492 1_555
