# generated using pymatgen
data_SrCaNbFeO6
_symmetry_space_group_name_H-M   'P 1'
_cell_length_a   5.65998802
_cell_length_b   5.65998802
_cell_length_c   5.65998802
_cell_angle_alpha   60.00000000
_cell_angle_beta   60.00000000
_cell_angle_gamma   60.00000000
_symmetry_Int_Tables_number   1
_chemical_formula_structural   SrCaNbFeO6
_chemical_formula_sum   'Sr1 Ca1 Nb1 Fe1 O6'
_cell_volume   128.21284523
_cell_formula_units_Z   1
loop_
 _symmetry_equiv_pos_site_id
 _symmetry_equiv_pos_as_xyz
  1  'x, y, z'
loop_
 _atom_site_type_symbol
 _atom_site_label
 _atom_site_symmetry_multiplicity
 _atom_site_fract_x
 _atom_site_fract_y
 _atom_site_fract_z
 _atom_site_occupancy
  Sr  Sr0  1  0.75000000  0.75000000  0.75000000  1
  Ca  Ca0  1  0.25000000  0.25000000  0.25000000  1
  Nb  Nb0  1  0.50000000  0.50000000  0.50000000  1
  Fe  Fe0  1  0.00000000  0.00000000  0.00000000  1
  O  O0  1  0.74968332  0.25031668  0.25031668  1
  O  O1  1  0.25031668  0.74968332  0.74968332  1
  O  O2  1  0.74968332  0.25031668  0.74968332  1
  O  O3  1  0.25031668  0.74968332  0.25031668  1
  O  O4  1  0.74968332  0.74968332  0.25031668  1
  O  O5  1  0.25031668  0.25031668  0.74968332  1
loop_
_geom_bond_atom_site_label_1
_geom_bond_atom_site_label_2
_geom_bond_distance
_geom_bond_site_symmetry_2
Ca0 O0 2.829995 1_455
Ca0 O3 2.829995 1_545
Ca0 O5 2.829995 1_554
Ca0 O2 2.829995 1_554
Ca0 O0 2.829995 1_555
Ca0 O4 2.829995 1_455
Ca0 O1 2.829995 1_554
Ca0 O2 2.829995 1_455
Ca0 O4 2.829995 1_545
Ca0 O1 2.829995 1_545
Ca0 O3 2.829995 1_555
Ca0 O5 2.829995 1_555
Nb0 O3 1.998573 1_555
Nb0 O0 1.998573 1_555
Nb0 O5 1.998573 1_555
Nb0 O1 1.998573 1_555
Nb0 O4 1.998573 1_555
Nb0 O2 1.998573 1_555
Fe0 O2 2.003643 1_454
Fe0 O4 2.003643 1_445
Fe0 O1 2.003643 1_544
Fe0 O3 2.003643 1_545
Fe0 O5 2.003643 1_554
Fe0 O0 2.003643 1_455
O0 Sr0 2.829995 1_554
O0 Sr0 2.829995 1_545
O1 Sr0 2.829995 1_555
O1 Sr0 2.829995 1_455
O2 Sr0 2.829995 1_555
O2 Sr0 2.829995 1_545
O3 Sr0 2.829995 1_455
O3 Sr0 2.829995 1_554
O4 Sr0 2.829995 1_555
O4 Sr0 2.829995 1_554
O5 Sr0 2.829995 1_545
O5 Sr0 2.829995 1_455
