# generated using pymatgen
data_CaMg14CuO16
_symmetry_space_group_name_H-M   'P 1'
_cell_length_a   4.32321400
_cell_length_b   8.50863800
_cell_length_c   8.66881000
_cell_angle_alpha   90.00000000
_cell_angle_beta   90.00000000
_cell_angle_gamma   90.00000000
_symmetry_Int_Tables_number   1
_chemical_formula_structural   CaMg14CuO16
_chemical_formula_sum   'Ca1 Mg14 Cu1 O16'
_cell_volume   318.87925379
_cell_formula_units_Z   1
loop_
 _symmetry_equiv_pos_site_id
 _symmetry_equiv_pos_as_xyz
  1  'x, y, z'
loop_
 _atom_site_type_symbol
 _atom_site_label
 _atom_site_symmetry_multiplicity
 _atom_site_fract_x
 _atom_site_fract_y
 _atom_site_fract_z
 _atom_site_occupancy
  Ca  Ca0  1  0.00000000  0.00000000  0.00000000  1
  Mg  Mg0  1  0.00000000  0.00000000  0.50000000  1
  Mg  Mg1  1  0.00000000  0.50000000  0.50000000  1
  Mg  Mg2  1  0.50000000  0.74236300  0.00000000  1
  Mg  Mg3  1  0.50000000  0.25763700  0.00000000  1
  Mg  Mg4  1  0.50000000  0.74847500  0.50000000  1
  Mg  Mg5  1  0.50000000  0.25152500  0.50000000  1
  Mg  Mg6  1  0.50000000  0.00000000  0.74402700  1
  Mg  Mg7  1  0.50000000  0.50000000  0.74975900  1
  Mg  Mg8  1  0.50000000  0.00000000  0.25597300  1
  Mg  Mg9  1  0.50000000  0.50000000  0.25024100  1
  Mg  Mg10  1  0.00000000  0.74494900  0.74552400  1
  Mg  Mg11  1  0.00000000  0.25505100  0.74552400  1
  Mg  Mg12  1  0.00000000  0.74494900  0.25447600  1
  Mg  Mg13  1  0.00000000  0.25505100  0.25447600  1
  Cu  Cu0  1  0.00000000  0.50000000  0.00000000  1
  O  O0  1  0.00000000  0.00000000  0.73781300  1
  O  O1  1  0.00000000  0.50000000  0.73832500  1
  O  O2  1  0.00000000  0.00000000  0.26218700  1
  O  O3  1  0.00000000  0.50000000  0.26167500  1
  O  O4  1  0.50000000  0.74960900  0.75087900  1
  O  O5  1  0.50000000  0.25039100  0.75087900  1
  O  O6  1  0.50000000  0.74960900  0.24912100  1
  O  O7  1  0.50000000  0.25039100  0.24912100  1
  O  O8  1  0.50000000  0.00000000  0.00000000  1
  O  O9  1  0.50000000  0.50000000  0.00000000  1
  O  O10  1  0.50000000  0.00000000  0.50000000  1
  O  O11  1  0.50000000  0.50000000  0.50000000  1
  O  O12  1  0.00000000  0.73367400  0.00000000  1
  O  O13  1  0.00000000  0.26632600  0.00000000  1
  O  O14  1  0.00000000  0.74913100  0.50000000  1
  O  O15  1  0.00000000  0.25086900  0.50000000  1
loop_
_geom_bond_atom_site_label_1
_geom_bond_atom_site_label_2
_geom_bond_distance
_geom_bond_site_symmetry_2
Ca0 O8 2.161607 1_455
Ca0 O8 2.161607 1_555
Ca0 O12 2.266072 1_545
Ca0 O13 2.266072 1_555
Ca0 O0 2.272849 1_554
Ca0 O2 2.272849 1_555
Mg0 O2 2.061556 1_555
Mg0 O0 2.061556 1_555
Mg0 O14 2.134554 1_545
Mg0 O15 2.134554 1_555
Mg0 O10 2.161607 1_455
Mg0 O10 2.161607 1_555
Mg1 O3 2.065994 1_555
Mg1 O1 2.065994 1_555
Mg1 O14 2.119765 1_555
Mg1 O15 2.119765 1_555
Mg1 O11 2.161607 1_455
Mg1 O11 2.161607 1_555
Mg2 O9 2.062179 1_555
Mg2 O6 2.160463 1_555
Mg2 O4 2.160463 1_554
Mg2 O12 2.162871 1_655
Mg2 O12 2.162871 1_555
Mg2 O8 2.192140 1_565
Mg3 O9 2.062179 1_555
Mg3 O7 2.160463 1_555
Mg3 O5 2.160463 1_554
Mg3 O13 2.162871 1_555
Mg3 O13 2.162871 1_655
Mg3 O8 2.192140 1_555
Mg4 O11 2.114184 1_555
Mg4 O10 2.140135 1_565
Mg4 O14 2.161614 1_555
Mg4 O14 2.161614 1_655
Mg4 O4 2.174844 1_555
Mg4 O6 2.174844 1_555
Mg5 O11 2.114184 1_555
Mg5 O10 2.140135 1_555
Mg5 O15 2.161614 1_555
Mg5 O15 2.161614 1_655
Mg5 O5 2.174844 1_555
Mg5 O7 2.174844 1_555
Mg6 O10 2.115424 1_555
Mg6 O5 2.131314 1_555
Mg6 O4 2.131314 1_545
Mg6 O0 2.162278 1_555
Mg6 O0 2.162278 1_655
Mg6 O8 2.218981 1_556
Mg7 O4 2.123855 1_555
Mg7 O5 2.123855 1_555
Mg7 O1 2.163878 1_655
Mg7 O1 2.163878 1_555
Mg7 O11 2.165113 1_555
Mg7 O9 2.169292 1_556
Mg8 O10 2.115424 1_555
Mg8 O7 2.131314 1_555
Mg8 O6 2.131314 1_545
Mg8 O2 2.162278 1_655
Mg8 O2 2.162278 1_555
Mg8 O8 2.218981 1_555
Mg9 O6 2.123855 1_555
Mg9 O7 2.123855 1_555
Mg9 O3 2.163878 1_655
Mg9 O3 2.163878 1_555
Mg9 O11 2.165113 1_555
Mg9 O9 2.169292 1_555
Mg10 O1 2.085116 1_555
Mg10 O14 2.128698 1_555
Mg10 O4 2.162469 1_555
Mg10 O4 2.162469 1_455
Mg10 O0 2.171166 1_565
Mg10 O12 2.208089 1_556
Mg11 O1 2.085116 1_555
Mg11 O15 2.128698 1_555
Mg11 O5 2.162469 1_555
Mg11 O5 2.162469 1_455
Mg11 O0 2.171166 1_555
Mg11 O13 2.208089 1_556
Mg12 O3 2.085116 1_555
Mg12 O14 2.128698 1_555
Mg12 O6 2.162469 1_455
Mg12 O6 2.162469 1_555
Mg12 O2 2.171166 1_565
Mg12 O12 2.208089 1_555
Mg13 O3 2.085116 1_555
Mg13 O15 2.128698 1_555
Mg13 O7 2.162469 1_555
Mg13 O7 2.162469 1_455
Mg13 O2 2.171166 1_555
Mg13 O13 2.208089 1_555
Cu0 O13 1.988247 1_555
Cu0 O12 1.988247 1_555
Cu0 O9 2.161607 1_555
Cu0 O9 2.161607 1_455
Cu0 O1 2.268411 1_554
Cu0 O3 2.268411 1_555
