# generated using pymatgen
data_NaMg2H3(SO4)2
_symmetry_space_group_name_H-M   'P 1'
_cell_length_a   6.38886306
_cell_length_b   7.91503195
_cell_length_c   9.00699763
_cell_angle_alpha   97.59606906
_cell_angle_beta   110.70228191
_cell_angle_gamma   113.58601157
_symmetry_Int_Tables_number   1
_chemical_formula_structural   NaMg2H3(SO4)2
_chemical_formula_sum   'Na2 Mg4 H6 S4 O16'
_cell_volume   370.03924018
_cell_formula_units_Z   2
loop_
 _symmetry_equiv_pos_site_id
 _symmetry_equiv_pos_as_xyz
  1  'x, y, z'
loop_
 _atom_site_type_symbol
 _atom_site_label
 _atom_site_symmetry_multiplicity
 _atom_site_fract_x
 _atom_site_fract_y
 _atom_site_fract_z
 _atom_site_occupancy
  Na  Na0  1  0.45942928  0.83056256  0.09395252  1
  Na  Na1  1  0.54057072  0.16943744  0.90604748  1
  Mg  Mg0  1  -0.00000000  -0.00000000  0.50000000  1
  Mg  Mg1  1  0.50000000  -0.00000000  0.50000000  1
  Mg  Mg2  1  0.82033984  0.82685750  0.81272233  1
  Mg  Mg3  1  0.17966016  0.17314250  0.18727767  1
  H  H0  1  0.61304999  0.71839351  0.50423879  1
  H  H1  1  0.38695001  0.28160649  0.49576121  1
  H  H2  1  0.70900826  0.44027430  0.72647550  1
  H  H3  1  0.29099174  0.55972570  0.27352450  1
  H  H4  1  0.45926040  0.44042238  0.72760790  1
  H  H5  1  0.54073960  0.55957762  0.27239210  1
  S  S0  1  0.93376084  0.70423160  0.16248487  1
  S  S1  1  0.06623916  0.29576840  0.83751513  1
  S  S2  1  0.77056307  0.25362551  0.29243549  1
  S  S3  1  0.22943693  0.74637449  0.70756451  1
  O  O0  1  0.81948146  0.75263212  0.27778746  1
  O  O1  1  0.18051854  0.24736788  0.72221254  1
  O  O2  1  0.78929834  0.24767912  0.72149778  1
  O  O3  1  0.21070166  0.75232088  0.27850222  1
  O  O4  1  0.97120926  0.86412920  0.07659539  1
  O  O5  1  0.02879074  0.13587080  0.92340461  1
  O  O6  1  0.72824547  0.08451661  0.37244809  1
  O  O7  1  0.27175453  0.91548339  0.62755191  1
  O  O8  1  0.50212538  0.80268166  0.83251577  1
  O  O9  1  0.49787562  0.19731834  0.16748423  1
  O  O10  1  0.12868621  0.79636508  0.82896773  1
  O  O11  1  0.87131379  0.20363492  0.17103227  1
  O  O12  1  0.71480709  0.85499487  0.57353341  1
  O  O13  1  0.28519291  0.14500513  0.42646659  1
  O  O14  1  0.61521411  0.51601615  0.71469256  1
  O  O15  1  0.38478589  0.48398385  0.28530744  1
loop_
_geom_bond_atom_site_label_1
_geom_bond_atom_site_label_2
_geom_bond_distance
_geom_bond_site_symmetry_2
Na0 O8 2.456204 1_554
Na0 O10 2.457747 1_554
Na0 O6 2.478016 1_565
Na0 O3 2.650271 1_555
Na0 O0 2.669485 1_555
Na0 O9 2.780612 1_565
Na0 O11 2.841513 1_565
Na1 O9 2.456201 1_556
Na1 O11 2.457747 1_556
Na1 O7 2.478016 1_545
Na1 O2 2.650271 1_555
Na1 O1 2.669485 1_555
Na1 O8 2.780614 1_545
Na1 O10 2.841513 1_545
Mg0 O13 2.111045 1_555
Mg0 O12 2.111045 1_445
Mg0 O7 2.122293 1_545
Mg0 O6 2.122293 1_455
Mg0 O0 2.166650 1_445
Mg0 O1 2.166650 1_555
Mg1 O12 2.111428 1_545
Mg1 O13 2.111428 1_555
Mg1 O6 2.121517 1_555
Mg1 O7 2.121517 1_545
Mg1 O2 2.167666 1_555
Mg1 O3 2.167666 1_545
Mg2 O10 2.036297 1_655
Mg2 O8 2.038520 1_555
Mg2 O12 2.089387 1_555
Mg2 O5 2.135334 1_665
Mg2 O14 2.139523 1_555
Mg2 O4 2.152256 1_556
Mg3 O11 2.036297 1_455
Mg3 O9 2.038527 1_555
Mg3 O13 2.089387 1_555
Mg3 O4 2.135334 1_445
Mg3 O15 2.139523 1_555
Mg3 O5 2.152256 1_554
H0 O12 0.976426 1_555
H1 O13 0.976426 1_555
H2 O14 0.994530 1_555
H3 O15 0.994530 1_555
H4 O14 0.993757 1_555
H5 O15 0.993757 1_555
O0 S0 1.553422 1_555
O1 S1 1.553422 1_555
O2 S1 1.554375 1_655
O3 S0 1.554375 1_455
O4 S0 1.550751 1_555
O5 S1 1.550751 1_555
O6 S2 1.577099 1_555
O7 S3 1.577099 1_555
O8 S3 1.536285 1_555
O9 S2 1.536280 1_555
O10 S3 1.534162 1_555
O11 S2 1.534162 1_555
