# generated using pymatgen
data_CrNi3Sb4
_symmetry_space_group_name_H-M   'P 1'
_cell_length_a   4.00182602
_cell_length_b   4.00182602
_cell_length_c   10.52909500
_cell_angle_alpha   90.00000000
_cell_angle_beta   90.00000000
_cell_angle_gamma   120.00000032
_symmetry_Int_Tables_number   1
_chemical_formula_structural   CrNi3Sb4
_chemical_formula_sum   'Cr1 Ni3 Sb4'
_cell_volume   146.02865385
_cell_formula_units_Z   1
loop_
 _symmetry_equiv_pos_site_id
 _symmetry_equiv_pos_as_xyz
  1  'x, y, z'
loop_
 _atom_site_type_symbol
 _atom_site_label
 _atom_site_symmetry_multiplicity
 _atom_site_fract_x
 _atom_site_fract_y
 _atom_site_fract_z
 _atom_site_occupancy
  Cr  Cr0  1  0.00000000  0.00000000  0.50000000  1
  Ni  Ni0  1  0.00000000  0.00000000  0.00000000  1
  Ni  Ni1  1  0.00000000  0.00000000  0.75257700  1
  Ni  Ni2  1  0.00000000  0.00000000  0.24742300  1
  Sb  Sb0  1  0.66666700  0.33333300  0.35921700  1
  Sb  Sb1  1  0.66666700  0.33333300  0.87877100  1
  Sb  Sb2  1  0.33333300  0.66666700  0.64078300  1
  Sb  Sb3  1  0.33333300  0.66666700  0.12122900  1
loop_
_geom_bond_atom_site_label_1
_geom_bond_atom_site_label_2
_geom_bond_distance
_geom_bond_site_symmetry_2
Cr0 Ni2 2.659407 1_555
Cr0 Ni1 2.659407 1_555
Cr0 Sb2 2.745079 1_545
Cr0 Sb0 2.745079 1_455
Cr0 Sb2 2.745082 1_555
Cr0 Sb2 2.745082 1_445
Cr0 Sb0 2.745082 1_555
Cr0 Sb0 2.745082 1_445
Ni0 Ni1 2.605140 1_554
Ni0 Ni2 2.605140 1_555
Ni0 Sb3 2.639597 1_545
Ni0 Sb1 2.639597 1_454
Ni0 Sb3 2.639600 1_555
Ni0 Sb1 2.639600 1_554
Ni0 Sb1 2.639600 1_444
Ni0 Sb3 2.639600 1_445
Ni1 Sb2 2.593016 1_545
Ni1 Sb2 2.593019 1_555
Ni1 Sb2 2.593019 1_445
Ni1 Sb1 2.665269 1_455
Ni1 Sb1 2.665272 1_445
Ni1 Sb1 2.665272 1_555
Ni2 Sb0 2.593016 1_455
Ni2 Sb0 2.593019 1_445
Ni2 Sb0 2.593019 1_555
Ni2 Sb3 2.665269 1_545
Ni2 Sb3 2.665272 1_445
Ni2 Sb3 2.665272 1_555
