# generated using pymatgen
data_Mg(BH4)2
_symmetry_space_group_name_H-M   'P 1'
_cell_length_a   7.34387079
_cell_length_b   7.34387079
_cell_length_c   7.34387079
_cell_angle_alpha   110.83916109
_cell_angle_beta   110.83916109
_cell_angle_gamma   106.76867436
_symmetry_Int_Tables_number   1
_chemical_formula_structural   Mg(BH4)2
_chemical_formula_sum   'Mg2 B4 H16'
_cell_volume   304.39129298
_cell_formula_units_Z   2
loop_
 _symmetry_equiv_pos_site_id
 _symmetry_equiv_pos_as_xyz
  1  'x, y, z'
loop_
 _atom_site_type_symbol
 _atom_site_label
 _atom_site_symmetry_multiplicity
 _atom_site_fract_x
 _atom_site_fract_y
 _atom_site_fract_z
 _atom_site_occupancy
  Mg  Mg0  1  0.75000000  0.25000000  0.50000000  1
  Mg  Mg1  1  0.00000000  0.00000000  0.00000000  1
  B  B0  1  0.39235700  0.16885100  0.22350600  1
  B  B1  1  0.94534500  0.16885100  0.77649400  1
  B  B2  1  0.83114900  0.60764300  0.77649400  1
  B  B3  1  0.83114900  0.05465500  0.22350600  1
  H  H0  1  0.04961600  0.30558700  0.74402900  1
  H  H1  1  0.69441300  0.43844100  0.74402900  1
  H  H2  1  0.69441300  0.95038400  0.25597100  1
  H  H3  1  0.56155900  0.30558700  0.25597100  1
  H  H4  1  0.99742500  0.27081300  0.97566600  1
  H  H5  1  0.29514700  0.02175800  0.02433400  1
  H  H6  1  0.72918700  0.00257500  0.02433400  1
  H  H7  1  0.97824100  0.70485300  0.97566600  1
  H  H8  1  0.29514700  0.27081300  0.27338800  1
  H  H9  1  0.99742500  0.02175800  0.72661200  1
  H  H10  1  0.72918700  0.70485300  0.72661200  1
  H  H11  1  0.97824100  0.00257500  0.27338800  1
  H  H12  1  0.74249100  0.08082600  0.66166500  1
  H  H13  1  0.41916200  0.08082600  0.33833500  1
  H  H14  1  0.91917400  0.25750900  0.33833500  1
  H  H15  1  0.91917400  0.58083800  0.66166500  1
loop_
_geom_bond_atom_site_label_1
_geom_bond_atom_site_label_2
_geom_bond_distance
_geom_bond_site_symmetry_2
B0 H8 1.226335 1_555
B0 H5 1.226337 1_555
B0 H3 1.228062 1_555
B0 H13 1.229210 1_555
B1 H4 1.226335 1_555
B1 H9 1.226341 1_555
B1 H0 1.228057 1_655
B1 H12 1.229210 1_555
B2 H10 1.226335 1_555
B2 H7 1.226335 1_555
B2 H1 1.228062 1_555
B2 H15 1.229210 1_555
B3 H11 1.226335 1_555
B3 H6 1.226335 1_555
B3 H2 1.228057 1_545
B3 H14 1.229210 1_555
H0 Mg0 2.091750 1_455
H1 Mg0 2.091747 1_555
H2 Mg0 2.091750 1_565
H3 Mg0 2.091747 1_555
H4 Mg1 2.063941 1_656
H5 Mg1 2.063943 1_555
H6 Mg1 2.063941 1_655
H7 Mg1 2.063941 1_666
H8 Mg1 2.063941 1_555
H9 Mg1 2.063938 1_656
H10 Mg1 2.063941 1_666
H11 Mg1 2.063941 1_655
H12 Mg0 2.003161 1_555
H13 Mg0 2.003155 1_555
H14 Mg0 2.003161 1_555
H15 Mg0 2.003155 1_555
