# generated using pymatgen
data_MnH20S2(NO7)2
_symmetry_space_group_name_H-M   'P 1'
_cell_length_a   6.38681617
_cell_length_b   9.35127638
_cell_length_c   12.65514300
_cell_angle_alpha   90.00000000
_cell_angle_beta   90.00000000
_cell_angle_gamma   106.78222145
_symmetry_Int_Tables_number   1
_chemical_formula_structural   MnH20S2(NO7)2
_chemical_formula_sum   'Mn2 H40 S4 N4 O28'
_cell_volume   723.63561500
_cell_formula_units_Z   2
loop_
 _symmetry_equiv_pos_site_id
 _symmetry_equiv_pos_as_xyz
  1  'x, y, z'
loop_
 _atom_site_type_symbol
 _atom_site_label
 _atom_site_symmetry_multiplicity
 _atom_site_fract_x
 _atom_site_fract_y
 _atom_site_fract_z
 _atom_site_occupancy
  Mn  Mn0  1  0.50000000  0.00000000  0.00000000  1
  Mn  Mn1  1  0.50000000  0.50000000  0.50000000  1
  H  H0  1  0.56233000  0.77082600  0.60253900  1
  H  H1  1  0.43767000  0.22917400  0.39746100  1
  H  H2  1  0.43767000  0.72917400  0.10253900  1
  H  H3  1  0.56233000  0.27082600  0.89746100  1
  H  H4  1  0.12791200  0.83186800  0.57989700  1
  H  H5  1  0.87208800  0.16813200  0.42010300  1
  H  H6  1  0.87208800  0.66813200  0.07989700  1
  H  H7  1  0.12791200  0.33186800  0.92010300  1
  H  H8  1  0.84601800  0.90105100  0.93624200  1
  H  H9  1  0.15398200  0.09894900  0.06375800  1
  H  H10  1  0.15398200  0.59894900  0.43624200  1
  H  H11  1  0.84601800  0.40105100  0.56375800  1
  H  H12  1  0.95295000  0.56936200  0.17714300  1
  H  H13  1  0.04705000  0.43063800  0.82285700  1
  H  H14  1  0.04705000  0.93063800  0.67714300  1
  H  H15  1  0.95295000  0.06936200  0.32285700  1
  H  H16  1  0.83255900  0.52181400  0.64891300  1
  H  H17  1  0.16744100  0.47818600  0.35108700  1
  H  H18  1  0.16744100  0.97818600  0.14891300  1
  H  H19  1  0.83255900  0.02181400  0.85108700  1
  H  H20  1  0.40454400  0.73854600  0.87987100  1
  H  H21  1  0.59545600  0.26145400  0.12012900  1
  H  H22  1  0.59545600  0.76145400  0.37987100  1
  H  H23  1  0.40454400  0.23854600  0.62012900  1
  H  H24  1  0.82350400  0.73332900  0.41169100  1
  H  H25  1  0.17649600  0.26667100  0.58830900  1
  H  H26  1  0.17649600  0.76667100  0.91169100  1
  H  H27  1  0.82350400  0.23332900  0.08830900  1
  H  H28  1  0.88746700  0.72757200  0.20758500  1
  H  H29  1  0.11253300  0.27242800  0.79241500  1
  H  H30  1  0.11253300  0.77242800  0.70758500  1
  H  H31  1  0.88746700  0.22757200  0.29241500  1
  H  H32  1  0.30921400  0.93031000  0.66950200  1
  H  H33  1  0.69078600  0.06969000  0.33049800  1
  H  H34  1  0.69078600  0.56969000  0.16950200  1
  H  H35  1  0.30921400  0.43031000  0.83049800  1
  H  H36  1  0.51001200  0.64735500  0.69253700  1
  H  H37  1  0.48998800  0.35264500  0.30746300  1
  H  H38  1  0.48998800  0.85264500  0.19253700  1
  H  H39  1  0.51001200  0.14735500  0.80746300  1
  S  S0  1  0.76567100  0.58609900  0.86887200  1
  S  S1  1  0.23432900  0.41390100  0.13112800  1
  S  S2  1  0.23432900  0.91390100  0.36887200  1
  S  S3  1  0.76567100  0.08609900  0.63112800  1
  N  N0  1  0.85113800  0.63489200  0.15890000  1
  N  N1  1  0.14886200  0.36510800  0.84110000  1
  N  N2  1  0.14886200  0.86510800  0.65890000  1
  N  N3  1  0.85113800  0.13489200  0.34110000  1
  O  O0  1  0.71689600  0.94656400  0.56950700  1
  O  O1  1  0.28310400  0.05343600  0.43049300  1
  O  O2  1  0.28310400  0.55343600  0.06950700  1
  O  O3  1  0.71689600  0.44656400  0.93049300  1
  O  O4  1  0.80682400  0.99523700  0.92677900  1
  O  O5  1  0.19317600  0.00476300  0.07322100  1
  O  O6  1  0.19317600  0.50476300  0.42677900  1
  O  O7  1  0.80682400  0.49523700  0.57322100  1
  O  O8  1  0.91558600  0.57898900  0.77816500  1
  O  O9  1  0.08441400  0.42101100  0.22183500  1
  O  O10  1  0.08441400  0.92101100  0.27816500  1
  O  O11  1  0.91558600  0.07898900  0.72183500  1
  O  O12  1  0.47248100  0.66692200  0.61906200  1
  O  O13  1  0.52751900  0.33307800  0.38093800  1
  O  O14  1  0.52751900  0.83307800  0.11906200  1
  O  O15  1  0.47248100  0.16692200  0.88093800  1
  O  O16  1  0.88241900  0.71568200  0.93769800  1
  O  O17  1  0.11758100  0.28431800  0.06230200  1
  O  O18  1  0.11758100  0.78431800  0.43769800  1
  O  O19  1  0.88241900  0.21568200  0.56230200  1
  O  O20  1  0.55854400  0.61039600  0.82646100  1
  O  O21  1  0.44145600  0.38960400  0.17354000  1
  O  O22  1  0.44145600  0.88960400  0.32646000  1
  O  O23  1  0.55854400  0.11039600  0.67353900  1
  O  O24  1  0.33105100  0.81646700  0.89285500  1
  O  O25  1  0.66894900  0.18353300  0.10714500  1
  O  O26  1  0.66894900  0.68353300  0.39285500  1
  O  O27  1  0.33105100  0.31646700  0.60714500  1
loop_
_geom_bond_atom_site_label_1
_geom_bond_atom_site_label_2
_geom_bond_distance
_geom_bond_site_symmetry_2
Mn0 O4 2.179715 1_544
Mn0 O5 2.179715 1_555
Mn0 O25 2.208855 1_555
Mn0 O24 2.208855 1_544
Mn0 O15 2.212717 1_554
Mn0 O14 2.212717 1_545
Mn1 O7 2.179715 1_555
Mn1 O6 2.179715 1_555
Mn1 O26 2.208855 1_555
Mn1 O27 2.208855 1_555
Mn1 O13 2.212717 1_555
Mn1 O12 2.212717 1_555
H0 O12 0.997557 1_555
H0 O0 1.706787 1_555
H1 O13 0.997557 1_555
H1 O1 1.706787 1_555
H2 O14 0.997557 1_555
H2 O2 1.706787 1_555
H3 O15 0.997557 1_555
H3 O3 1.706787 1_555
H4 N2 1.044076 1_555
H5 N3 1.044076 1_555
H6 N0 1.044076 1_555
H7 N1 1.044076 1_555
H8 O4 0.989979 1_555
H9 O5 0.989979 1_555
H10 O6 0.989979 1_555
H11 O7 0.989979 1_555
H12 N0 1.040070 1_555
H13 N1 1.040070 1_555
H14 N2 1.040070 1_555
H15 N3 1.040070 1_555
H16 O7 0.991339 1_555
H17 O6 0.991339 1_555
H18 O5 0.991339 1_565
H19 O4 0.991339 1_545
H20 O24 0.987814 1_555
H21 O25 0.987814 1_555
H22 O26 0.987814 1_555
H23 O27 0.987814 1_555
H24 O26 0.991269 1_555
H25 O27 0.991269 1_555
H26 O24 0.991269 1_555
H27 O25 0.991269 1_555
H28 N0 1.033653 1_555
H29 N1 1.033653 1_555
H30 N2 1.033653 1_555
H31 N3 1.033653 1_555
H32 N2 1.038281 1_555
H33 N3 1.038281 1_555
H34 N0 1.038281 1_555
H35 N1 1.038281 1_555
H36 O12 0.990385 1_555
H37 O13 0.990385 1_555
H38 O14 0.990385 1_555
H39 O15 0.990385 1_555
O0 S3 1.474117 1_565
O1 S2 1.474117 1_545
O2 S1 1.474117 1_555
O3 S0 1.474117 1_555
O8 S0 1.508525 1_555
O9 S1 1.508525 1_555
O10 S2 1.508525 1_555
O11 S3 1.508525 1_555
O16 S0 1.503743 1_555
O17 S1 1.503743 1_555
O18 S2 1.503743 1_555
O19 S3 1.503743 1_555
O20 S0 1.504419 1_555
O21 S1 1.504423 1_555
O22 S2 1.504423 1_555
O23 S3 1.504419 1_555
