# generated using pymatgen
data_SrHo2Al2O7
_symmetry_space_group_name_H-M   'P 1'
_cell_length_a   10.11399725
_cell_length_b   10.11399725
_cell_length_c   10.11399725
_cell_angle_alpha   158.78666869
_cell_angle_beta   158.78666869
_cell_angle_gamma   30.17670224
_symmetry_Int_Tables_number   1
_chemical_formula_structural   SrHo2Al2O7
_chemical_formula_sum   'Sr1 Ho2 Al2 O7'
_cell_volume   135.37485599
_cell_formula_units_Z   1
loop_
 _symmetry_equiv_pos_site_id
 _symmetry_equiv_pos_as_xyz
  1  'x, y, z'
loop_
 _atom_site_type_symbol
 _atom_site_label
 _atom_site_symmetry_multiplicity
 _atom_site_fract_x
 _atom_site_fract_y
 _atom_site_fract_z
 _atom_site_occupancy
  Sr  Sr0  1  0.50000000  0.50000000  0.00000000  1
  Ho  Ho0  1  0.31780300  0.31780300  0.00000000  1
  Ho  Ho1  1  0.68219700  0.68219700  0.00000000  1
  Al  Al0  1  0.09754100  0.09754100  0.00000000  1
  Al  Al1  1  0.90245900  0.90245900  0.00000000  1
  O  O0  1  0.60680300  0.10680300  0.50000000  1
  O  O1  1  0.39319700  0.89319700  0.50000000  1
  O  O2  1  0.10680300  0.60680300  0.50000000  1
  O  O3  1  0.89319700  0.39319700  0.50000000  1
  O  O4  1  0.00000000  0.00000000  0.00000000  1
  O  O5  1  0.20557300  0.20557300  0.00000000  1
  O  O6  1  0.79442700  0.79442700  0.00000000  1
loop_
_geom_bond_atom_site_label_1
_geom_bond_atom_site_label_2
_geom_bond_distance
_geom_bond_site_symmetry_2
Ho0 O5 2.191924 1_555
Ho0 O1 2.373592 1_544
Ho0 O1 2.373592 1_555
Ho0 O3 2.373592 1_555
Ho0 O3 2.373592 1_454
Ho0 O6 2.672049 1_556
Ho0 O6 2.672049 1_444
Ho0 O6 2.672049 1_545
Ho0 O6 2.672049 1_455
Ho1 O6 2.191924 1_555
Ho1 O0 2.373592 1_554
Ho1 O2 2.373592 1_655
Ho1 O2 2.373592 1_554
Ho1 O0 2.373592 1_565
Ho1 O5 2.672049 1_655
Ho1 O5 2.672049 1_565
Ho1 O5 2.672049 1_554
Ho1 O5 2.672049 1_666
Al0 O0 1.870408 1_454
Al0 O2 1.870408 1_555
Al0 O0 1.870408 1_555
Al0 O2 1.870408 1_544
Al0 O4 1.905039 1_555
Al0 O5 2.109935 1_555
Al1 O1 1.870408 1_655
Al1 O3 1.870408 1_565
Al1 O1 1.870408 1_554
Al1 O3 1.870408 1_554
Al1 O4 1.905039 1_665
Al1 O6 2.109935 1_555
O0 Sr0 2.795857 1_545
O0 Sr0 2.795857 1_556
O1 Sr0 2.795857 1_566
O1 Sr0 2.795857 1_555
O2 Sr0 2.795857 1_455
O2 Sr0 2.795857 1_556
O3 Sr0 2.795857 1_656
O3 Sr0 2.795857 1_555
O4 Sr0 2.632757 1_545
O4 Sr0 2.632757 1_455
O4 Sr0 2.632757 1_556
O4 Sr0 2.632757 1_444
