# generated using pymatgen
data_CaOsO3
_symmetry_space_group_name_H-M   'P 1'
_cell_length_a   5.38927200
_cell_length_b   5.63878400
_cell_length_c   7.75987300
_cell_angle_alpha   90.00000000
_cell_angle_beta   90.00000000
_cell_angle_gamma   90.00000000
_symmetry_Int_Tables_number   1
_chemical_formula_structural   CaOsO3
_chemical_formula_sum   'Ca4 Os4 O12'
_cell_volume   235.81432063
_cell_formula_units_Z   4
loop_
 _symmetry_equiv_pos_site_id
 _symmetry_equiv_pos_as_xyz
  1  'x, y, z'
loop_
 _atom_site_type_symbol
 _atom_site_label
 _atom_site_symmetry_multiplicity
 _atom_site_fract_x
 _atom_site_fract_y
 _atom_site_fract_z
 _atom_site_occupancy
  Ca  Ca0  1  0.01630700  0.43901700  0.25000000  1
  Ca  Ca1  1  0.98369300  0.56098300  0.75000000  1
  Ca  Ca2  1  0.51630700  0.06098300  0.75000000  1
  Ca  Ca3  1  0.48369300  0.93901700  0.25000000  1
  Os  Os0  1  0.00000000  0.00000000  0.00000000  1
  Os  Os1  1  0.50000000  0.50000000  0.00000000  1
  Os  Os2  1  0.00000000  0.00000000  0.50000000  1
  Os  Os3  1  0.50000000  0.50000000  0.50000000  1
  O  O0  1  0.30610200  0.19897000  0.05116500  1
  O  O1  1  0.69389800  0.80103000  0.94883500  1
  O  O2  1  0.80610200  0.30103000  0.94883500  1
  O  O3  1  0.69389800  0.80103000  0.55116500  1
  O  O4  1  0.19389800  0.69897000  0.05116500  1
  O  O5  1  0.30610200  0.19897000  0.44883500  1
  O  O6  1  0.19389800  0.69897000  0.44883500  1
  O  O7  1  0.80610200  0.30103000  0.55116500  1
  O  O8  1  0.60274700  0.53236200  0.25000000  1
  O  O9  1  0.39725300  0.46763800  0.75000000  1
  O  O10  1  0.10274700  0.96763800  0.75000000  1
  O  O11  1  0.89725300  0.03236200  0.25000000  1
loop_
_geom_bond_atom_site_label_1
_geom_bond_atom_site_label_2
_geom_bond_distance
_geom_bond_site_symmetry_2
Ca0 O8 2.290096 1_455
Ca0 O6 2.333513 1_555
Ca0 O4 2.333513 1_555
Ca0 O11 2.381113 1_455
Ca0 O5 2.579143 1_555
Ca0 O0 2.579143 1_555
Ca0 O2 2.711151 1_454
Ca0 O7 2.711151 1_455
Ca1 O9 2.290096 1_655
Ca1 O7 2.333513 1_555
Ca1 O2 2.333513 1_555
Ca1 O10 2.381113 1_655
Ca1 O3 2.579143 1_555
Ca1 O1 2.579143 1_555
Ca1 O4 2.711151 1_656
Ca1 O6 2.711151 1_655
Ca2 O10 2.290096 1_545
Ca2 O3 2.333513 1_545
Ca2 O1 2.333513 1_545
Ca2 O9 2.381113 1_555
Ca2 O2 2.579143 1_555
Ca2 O7 2.579143 1_555
Ca2 O0 2.711151 1_556
Ca2 O5 2.711151 1_555
Ca3 O11 2.290096 1_565
Ca3 O5 2.333513 1_565
Ca3 O0 2.333513 1_565
Ca3 O8 2.381113 1_555
Ca3 O6 2.579143 1_555
Ca3 O4 2.579143 1_555
Ca3 O1 2.711151 1_554
Ca3 O3 2.711151 1_555
O0 Os1 2.032464 1_555
O0 Os0 2.034160 1_555
O1 Os1 2.032464 1_556
O1 Os0 2.034160 1_666
O2 Os0 2.032464 1_656
O2 Os1 2.034160 1_556
O3 Os3 2.032464 1_555
O3 Os2 2.034160 1_665
O4 Os0 2.032464 1_565
O4 Os1 2.034160 1_555
O5 Os3 2.032464 1_555
O5 Os2 2.034160 1_555
O6 Os2 2.032464 1_565
O6 Os3 2.034160 1_555
O7 Os2 2.032464 1_655
O7 Os3 2.034160 1_555
O8 Os3 2.025684 1_555
O8 Os1 2.025684 1_555
O9 Os1 2.025684 1_556
O9 Os3 2.025684 1_555
O10 Os2 2.025684 1_565
O10 Os0 2.025684 1_566
O11 Os0 2.025684 1_655
O11 Os2 2.025684 1_655
