# generated using pymatgen
data_MgMn8(OF)8
_symmetry_space_group_name_H-M   'P 1'
_cell_length_a   4.80827664
_cell_length_b   4.88934130
_cell_length_c   12.65097793
_cell_angle_alpha   90.26571255
_cell_angle_beta   89.88281448
_cell_angle_gamma   89.86629784
_symmetry_Int_Tables_number   1
_chemical_formula_structural   MgMn8(OF)8
_chemical_formula_sum   'Mg1 Mn8 O8 F8'
_cell_volume   297.41106916
_cell_formula_units_Z   1
loop_
 _symmetry_equiv_pos_site_id
 _symmetry_equiv_pos_as_xyz
  1  'x, y, z'
loop_
 _atom_site_type_symbol
 _atom_site_label
 _atom_site_symmetry_multiplicity
 _atom_site_fract_x
 _atom_site_fract_y
 _atom_site_fract_z
 _atom_site_occupancy
  Mg  Mg0  1  0.95901500  0.51904800  0.74455100  1
  Mn  Mn0  1  0.96924900  0.94168100  0.00333100  1
  Mn  Mn1  1  0.02965600  0.00620900  0.24542200  1
  Mn  Mn2  1  0.96878000  0.95397000  0.49257900  1
  Mn  Mn3  1  0.28181100  0.98911500  0.75487500  1
  Mn  Mn4  1  0.46254900  0.52983300  0.60620000  1
  Mn  Mn5  1  0.52924400  0.44454900  0.12766100  1
  Mn  Mn6  1  0.46538000  0.51736300  0.36550000  1
  Mn  Mn7  1  0.47305100  0.51691600  0.88897400  1
  O  O0  1  0.17606100  0.79988400  0.36192000  1
  O  O1  1  0.14864200  0.77658700  0.62769300  1
  O  O2  1  0.15105100  0.76106100  0.87801600  1
  O  O3  1  0.32865700  0.29360300  0.24591400  1
  O  O4  1  0.34031200  0.37828200  0.74791900  1
  O  O5  1  0.66656400  0.66623300  0.00689000  1
  O  O6  1  0.63282800  0.70305400  0.48964000  1
  O  O7  1  0.83345700  0.16818700  0.12181900  1
  F  F0  1  0.21102100  0.73832000  0.12272600  1
  F  F1  1  0.29812600  0.22236700  0.99212000  1
  F  F2  1  0.27192600  0.26990500  0.49725200  1
  F  F3  1  0.71604000  0.71331900  0.24335200  1
  F  F4  1  0.67010500  0.79196400  0.75477400  1
  F  F5  1  0.78326500  0.22116300  0.37457100  1
  F  F6  1  0.79779900  0.28752500  0.62917500  1
  F  F7  1  0.80763100  0.27597600  0.85941700  1
loop_
_geom_bond_atom_site_label_1
_geom_bond_atom_site_label_2
_geom_bond_distance
_geom_bond_site_symmetry_2
Mg0 O4 1.957421 1_655
Mg0 O1 2.149325 1_655
Mg0 O2 2.257568 1_655
Mn0 O7 1.969006 1_565
Mn0 O5 1.985799 1_555
Mn0 O2 2.008764 1_654
Mn1 O0 1.923555 1_545
Mn1 O7 1.994082 1_455
Mn1 O3 2.012670 1_555
Mn2 O6 2.030981 1_555
Mn2 O0 2.066741 1_655
Mn2 O1 2.106702 1_655
Mn3 O4 1.926487 1_565
Mn3 O1 2.017522 1_555
Mn3 O2 2.020121 1_555
Mn4 O6 1.889966 1_555
Mn4 O1 1.947925 1_555
Mn4 O4 2.029528 1_555
Mn5 O3 1.928892 1_555
Mn5 O5 1.989909 1_555
Mn5 O7 1.990049 1_555
Mn6 O0 1.958892 1_555
Mn6 O3 1.977366 1_555
Mn6 O6 1.983518 1_555
Mn7 O5 1.903372 1_556
Mn7 O2 1.958333 1_555
Mn7 O4 2.011629 1_555
F0 Mn5 2.097421 1_555
F0 Mn0 2.153433 1_455
F0 Mn1 2.203572 1_565
F1 Mn0 2.101223 1_446
F1 Mn7 2.121984 1_555
F1 Mn5 2.313326 1_556
F2 Mn4 2.085495 1_555
F2 Mn2 2.127035 1_445
F2 Mn6 2.263828 1_555
F3 Mn1 2.082123 1_665
F3 Mn5 2.160733 1_555
F3 Mn6 2.184030 1_555
F4 Mg0 1.927711 1_555
F4 Mn3 2.099176 1_555
F4 Mn7 2.368369 1_555
F4 Mn4 2.482502 1_555
F5 Mn6 2.106821 1_555
F5 Mn2 2.179278 1_545
F5 Mn1 2.268913 1_655
F6 Mg0 2.001547 1_555
F6 Mn4 2.020574 1_555
F6 Mn2 2.506718 1_545
F7 Mg0 2.017349 1_555
F7 Mn7 2.024917 1_555
F7 Mn0 2.572481 1_546
