# generated using pymatgen
data_LiCuS
_symmetry_space_group_name_H-M   'P 1'
_cell_length_a   6.07466740
_cell_length_b   6.07466740
_cell_length_c   6.96750609
_cell_angle_alpha   64.37168273
_cell_angle_beta   64.37168273
_cell_angle_gamma   90.22811945
_symmetry_Int_Tables_number   1
_chemical_formula_structural   LiCuS
_chemical_formula_sum   'Li4 Cu4 S4'
_cell_volume   203.15552166
_cell_formula_units_Z   4
loop_
 _symmetry_equiv_pos_site_id
 _symmetry_equiv_pos_as_xyz
  1  'x, y, z'
loop_
 _atom_site_type_symbol
 _atom_site_label
 _atom_site_symmetry_multiplicity
 _atom_site_fract_x
 _atom_site_fract_y
 _atom_site_fract_z
 _atom_site_occupancy
  Li  Li0  1  0.73380100  0.98455600  0.02790200  1
  Li  Li1  1  0.98455600  0.73380100  0.52790200  1
  Li  Li2  1  0.02214600  0.26653500  0.46587700  1
  Li  Li3  1  0.26653500  0.02214600  0.96587700  1
  Cu  Cu0  1  0.49433400  0.49582100  0.50302800  1
  Cu  Cu1  1  0.00593100  0.50121800  0.99693200  1
  Cu  Cu2  1  0.50121800  0.00593100  0.49693200  1
  Cu  Cu3  1  0.49582100  0.49433400  0.00302800  1
  S  S0  1  0.89980500  0.10423300  0.24656900  1
  S  S1  1  0.35460800  0.64948000  0.24573300  1
  S  S2  1  0.10423300  0.89980500  0.74656900  1
  S  S3  1  0.64948000  0.35460800  0.74573300  1
loop_
_geom_bond_atom_site_label_1
_geom_bond_atom_site_label_2
_geom_bond_distance
_geom_bond_site_symmetry_2
Li0 S1 2.453276 1_555
Li0 S0 2.479533 1_565
Li0 S2 2.497504 1_654
Li0 S3 2.497602 1_564
Li1 S3 2.453276 1_555
Li1 S2 2.479533 1_655
Li1 S0 2.497504 1_565
Li1 S1 2.497602 1_655
Li2 S1 2.457465 1_555
Li2 S2 2.473849 1_545
Li2 S0 2.477707 1_455
Li2 S3 2.511325 1_455
Li3 S3 2.457465 1_555
Li3 S0 2.473849 1_456
Li3 S2 2.477707 1_545
Li3 S1 2.511325 1_546
Cu0 S3 2.148019 1_555
Cu0 S1 2.163463 1_555
Cu1 S0 2.155366 1_456
Cu1 S2 2.166970 1_555
Cu2 S2 2.155366 1_545
Cu2 S0 2.166970 1_555
Cu3 S1 2.148019 1_555
Cu3 S3 2.163463 1_554
