# generated using pymatgen
data_Ca(AgO2)2
_symmetry_space_group_name_H-M   'P 1'
_cell_length_a   3.49488900
_cell_length_b   9.95370300
_cell_length_c   11.00812200
_cell_angle_alpha   90.00000000
_cell_angle_beta   90.00000000
_cell_angle_gamma   90.00000000
_symmetry_Int_Tables_number   1
_chemical_formula_structural   Ca(AgO2)2
_chemical_formula_sum   'Ca4 Ag8 O16'
_cell_volume   382.94049909
_cell_formula_units_Z   4
loop_
 _symmetry_equiv_pos_site_id
 _symmetry_equiv_pos_as_xyz
  1  'x, y, z'
loop_
 _atom_site_type_symbol
 _atom_site_label
 _atom_site_symmetry_multiplicity
 _atom_site_fract_x
 _atom_site_fract_y
 _atom_site_fract_z
 _atom_site_occupancy
  Ca  Ca0  1  0.37297900  0.75000000  0.85044000  1
  Ca  Ca1  1  0.37297900  0.25000000  0.64956000  1
  Ca  Ca2  1  0.62702100  0.75000000  0.35044000  1
  Ca  Ca3  1  0.62702100  0.25000000  0.14956000  1
  Ag  Ag0  1  0.84650600  0.56993800  0.61432000  1
  Ag  Ag1  1  0.84650600  0.06993800  0.88568000  1
  Ag  Ag2  1  0.15349400  0.06993800  0.38568000  1
  Ag  Ag3  1  0.84650600  0.43006200  0.88568000  1
  Ag  Ag4  1  0.15349400  0.43006200  0.38568000  1
  Ag  Ag5  1  0.84650600  0.93006200  0.61432000  1
  Ag  Ag6  1  0.15349400  0.93006200  0.11432000  1
  Ag  Ag7  1  0.15349400  0.56993800  0.11432000  1
  O  O0  1  0.13507400  0.88076100  0.45670600  1
  O  O1  1  0.86492600  0.11923900  0.54329400  1
  O  O2  1  0.50754200  0.00000000  0.75000000  1
  O  O3  1  0.86492600  0.88076100  0.95670600  1
  O  O4  1  0.86492600  0.61923900  0.95670600  1
  O  O5  1  0.86572500  0.25000000  0.79763400  1
  O  O6  1  0.13507400  0.11923900  0.04329400  1
  O  O7  1  0.13427500  0.25000000  0.29763400  1
  O  O8  1  0.50754200  0.50000000  0.75000000  1
  O  O9  1  0.49245800  0.00000000  0.25000000  1
  O  O10  1  0.13507400  0.61923900  0.45670600  1
  O  O11  1  0.13427500  0.75000000  0.20236600  1
  O  O12  1  0.86572500  0.75000000  0.70236600  1
  O  O13  1  0.49245800  0.50000000  0.25000000  1
  O  O14  1  0.13507400  0.38076100  0.04329400  1
  O  O15  1  0.86492600  0.38076100  0.54329400  1
loop_
_geom_bond_atom_site_label_1
_geom_bond_atom_site_label_2
_geom_bond_distance
_geom_bond_site_symmetry_2
Ca0 O12 2.371193 1_555
Ca0 O12 2.408269 1_455
Ca0 O3 2.453253 1_555
Ca0 O4 2.453253 1_555
Ca0 O3 2.493024 1_455
Ca0 O4 2.493024 1_455
Ca0 O8 2.763314 1_555
Ca0 O2 2.763314 1_565
Ca1 O5 2.371193 1_555
Ca1 O5 2.408269 1_455
Ca1 O15 2.453253 1_555
Ca1 O1 2.453253 1_555
Ca1 O15 2.493024 1_455
Ca1 O1 2.493024 1_455
Ca1 O8 2.763314 1_555
Ca1 O2 2.763314 1_555
Ca2 O11 2.371193 1_555
Ca2 O11 2.408269 1_655
Ca2 O0 2.453253 1_555
Ca2 O10 2.453253 1_555
Ca2 O0 2.493024 1_655
Ca2 O10 2.493024 1_655
Ca2 O13 2.763314 1_555
Ca2 O9 2.763314 1_565
Ca3 O7 2.371193 1_555
Ca3 O7 2.408269 1_655
Ca3 O14 2.453253 1_555
Ca3 O6 2.453253 1_555
Ca3 O14 2.493024 1_655
Ca3 O6 2.493024 1_655
Ca3 O9 2.763314 1_555
Ca3 O13 2.763314 1_555
Ag0 O8 2.029477 1_555
Ag0 O12 2.038672 1_555
Ag0 O15 2.039899 1_555
Ag0 O10 2.065976 1_655
Ag1 O2 2.029477 1_555
Ag1 O5 2.038672 1_555
Ag1 O3 2.039899 1_545
Ag1 O6 2.065976 1_656
Ag2 O9 2.029477 1_555
Ag2 O7 2.038672 1_555
Ag2 O0 2.039899 1_545
Ag2 O1 2.065976 1_455
Ag3 O8 2.029477 1_555
Ag3 O5 2.038672 1_555
Ag3 O4 2.039899 1_555
Ag3 O14 2.065976 1_656
Ag4 O13 2.029477 1_555
Ag4 O7 2.038672 1_555
Ag4 O10 2.039899 1_555
Ag4 O15 2.065976 1_455
Ag5 O2 2.029477 1_565
Ag5 O12 2.038672 1_555
Ag5 O1 2.039899 1_565
Ag5 O0 2.065976 1_655
Ag6 O9 2.029477 1_565
Ag6 O11 2.038672 1_555
Ag6 O6 2.039899 1_565
Ag6 O3 2.065976 1_454
Ag7 O13 2.029477 1_555
Ag7 O11 2.038672 1_555
Ag7 O14 2.039899 1_555
Ag7 O4 2.065976 1_454
