# generated using pymatgen
data_Dy2Fe3Ni
_symmetry_space_group_name_H-M   'P 1'
_cell_length_a   5.07401866
_cell_length_b   5.07401866
_cell_length_c   5.20556510
_cell_angle_alpha   90.00000000
_cell_angle_beta   60.83247410
_cell_angle_gamma   120.00000000
_symmetry_Int_Tables_number   1
_chemical_formula_structural   Dy2Fe3Ni
_chemical_formula_sum   'Dy2 Fe3 Ni1'
_cell_volume   95.94195560
_cell_formula_units_Z   1
loop_
 _symmetry_equiv_pos_site_id
 _symmetry_equiv_pos_as_xyz
  1  'x, y, z'
loop_
 _atom_site_type_symbol
 _atom_site_label
 _atom_site_symmetry_multiplicity
 _atom_site_fract_x
 _atom_site_fract_y
 _atom_site_fract_z
 _atom_site_occupancy
  Dy  Dy0  1  0.50076600  0.75038300  0.74885100  1
  Dy  Dy1  1  0.99923400  0.99961700  0.00114900  1
  Fe  Fe0  1  0.25000000  0.37500000  0.37500000  1
  Fe  Fe1  1  0.25000000  0.87500000  0.37500000  1
  Fe  Fe2  1  0.75000000  0.37500000  0.37500000  1
  Ni  Ni0  1  0.75000000  0.37500000  0.87500000  1
loop_
_geom_bond_atom_site_label_1
_geom_bond_atom_site_label_2
_geom_bond_distance
_geom_bond_site_symmetry_2
Dy0 Ni0 2.979353 1_555
Dy0 Ni0 2.979353 1_565
Dy0 Ni0 2.979353 1_455
Dy0 Fe1 3.004047 1_655
Dy0 Fe2 3.004047 1_555
Dy0 Fe0 3.004047 1_665
Dy0 Fe1 3.004047 1_555
Dy0 Fe2 3.004047 1_565
Dy0 Fe0 3.004047 1_555
Dy0 Fe0 3.066743 1_556
Dy0 Fe1 3.066743 1_556
Dy0 Fe2 3.066743 1_456
Dy1 Ni0 2.979353 1_564
Dy1 Ni0 2.979353 1_664
Dy1 Ni0 2.979353 1_554
Dy1 Fe0 3.004047 1_665
Dy1 Fe1 3.004047 1_555
Dy1 Fe1 3.004047 1_655
Dy1 Fe2 3.004047 1_565
Dy1 Fe0 3.004047 1_555
Dy1 Fe2 3.004047 1_555
Dy1 Fe1 3.066743 1_654
Dy1 Fe0 3.066743 1_664
Dy1 Fe2 3.066743 1_664
Fe0 Fe1 2.537009 1_545
Fe0 Fe2 2.537009 1_555
Fe0 Fe1 2.537009 1_555
Fe0 Fe2 2.537009 1_455
Fe0 Ni0 2.602783 1_455
Fe0 Ni0 2.602783 1_554
Fe1 Fe2 2.537009 1_455
Fe1 Fe2 2.537009 1_565
Fe1 Ni0 2.602783 1_564
Fe1 Ni0 2.602783 1_455
Fe2 Ni0 2.602783 1_555
Fe2 Ni0 2.602783 1_554
