# generated using pymatgen
data_CaCr2O4
_symmetry_space_group_name_H-M   'P 1'
_cell_length_a   6.23193746
_cell_length_b   6.23193746
_cell_length_c   15.36601200
_cell_angle_alpha   90.00000000
_cell_angle_beta   90.00000000
_cell_angle_gamma   119.99999427
_symmetry_Int_Tables_number   1
_chemical_formula_structural   CaCr2O4
_chemical_formula_sum   'Ca6 Cr12 O24'
_cell_volume   516.81843615
_cell_formula_units_Z   6
loop_
 _symmetry_equiv_pos_site_id
 _symmetry_equiv_pos_as_xyz
  1  'x, y, z'
loop_
 _atom_site_type_symbol
 _atom_site_label
 _atom_site_symmetry_multiplicity
 _atom_site_fract_x
 _atom_site_fract_y
 _atom_site_fract_z
 _atom_site_occupancy
  Ca  Ca0  1  0.66666700  0.33333300  0.95545900  1
  Ca  Ca1  1  0.33333300  0.66666700  0.62334600  1
  Ca  Ca2  1  0.33333300  0.66666700  0.99727800  1
  Ca  Ca3  1  0.00000000  0.00000000  0.28970700  1
  Ca  Ca4  1  0.66666700  0.33333300  0.71252200  1
  Ca  Ca5  1  0.33333300  0.66666700  0.37442600  1
  Cr  Cr0  1  0.16704300  0.83295700  0.83025600  1
  Cr  Cr1  1  0.16704300  0.33408600  0.83025600  1
  Cr  Cr2  1  0.83374600  0.16625400  0.50070400  1
  Cr  Cr3  1  0.66591400  0.83295700  0.83025600  1
  Cr  Cr4  1  0.00000000  0.00000000  0.66623500  1
  Cr  Cr5  1  0.83374600  0.66749100  0.50070400  1
  Cr  Cr6  1  0.50403200  0.49596800  0.16983300  1
  Cr  Cr7  1  0.33250900  0.16625400  0.50070400  1
  Cr  Cr8  1  0.99193500  0.49596800  0.16983300  1
  Cr  Cr9  1  0.66666700  0.33333300  0.33685100  1
  Cr  Cr10  1  0.50403200  0.00806500  0.16983300  1
  Cr  Cr11  1  0.00000000  0.00000000  0.04735800  1
  O  O0  1  0.48505100  0.97010200  0.89711500  1
  O  O1  1  0.33333300  0.66666700  0.76486700  1
  O  O2  1  0.02989800  0.51494900  0.89711500  1
  O  O3  1  0.48505100  0.51494900  0.89711500  1
  O  O4  1  0.86042000  0.13958000  0.75437000  1
  O  O5  1  0.14188400  0.28376800  0.57611300  1
  O  O6  1  0.27916100  0.13958000  0.75437000  1
  O  O7  1  0.00000000  0.00000000  0.91191700  1
  O  O8  1  0.71623200  0.85811600  0.57611300  1
  O  O9  1  0.00000000  0.00000000  0.43404900  1
  O  O10  1  0.86042000  0.72083900  0.75437000  1
  O  O11  1  0.14188400  0.85811600  0.57611300  1
  O  O12  1  0.52429700  0.47570300  0.42314700  1
  O  O13  1  0.80683400  0.61366900  0.24630700  1
  O  O14  1  0.95140700  0.47570300  0.42314700  1
  O  O15  1  0.66666700  0.33333300  0.56594200  1
  O  O16  1  0.66666700  0.33333300  0.10423300  1
  O  O17  1  0.38633100  0.19316600  0.24630700  1
  O  O18  1  0.52429700  0.04859300  0.42314700  1
  O  O19  1  0.80683400  0.19316600  0.24630700  1
  O  O20  1  0.16600800  0.83399200  0.09790800  1
  O  O21  1  0.33333300  0.66666700  0.22867700  1
  O  O22  1  0.66798500  0.83399200  0.09790800  1
  O  O23  1  0.16600800  0.33201500  0.09790800  1
loop_
_geom_bond_atom_site_label_1
_geom_bond_atom_site_label_2
_geom_bond_distance
_geom_bond_site_symmetry_2
Ca0 O0 2.155635 1_545
Ca0 O2 2.155635 1_655
Ca0 O3 2.155640 1_555
Ca0 O16 2.286063 1_556
Ca1 O1 2.174613 1_555
Ca1 O11 2.190254 1_555
Ca1 O5 2.190259 1_555
Ca1 O8 2.190259 1_555
Ca2 O0 2.247382 1_555
Ca2 O2 2.247382 1_555
Ca2 O3 2.247385 1_555
Ca2 O20 2.377609 1_556
Ca2 O23 2.377618 1_556
Ca2 O22 2.377618 1_556
Ca3 O13 2.189088 1_445
Ca3 O17 2.189088 1_555
Ca3 O19 2.189093 1_455
Ca3 O9 2.217961 1_555
Ca4 O4 2.188001 1_555
Ca4 O10 2.188002 1_555
Ca4 O6 2.188002 1_555
Ca4 O15 2.252350 1_555
Ca5 O18 2.193005 1_565
Ca5 O14 2.193005 1_455
Ca5 O12 2.193015 1_555
Ca5 O21 2.239581 1_555
Cr0 O0 2.004915 1_555
Cr0 O2 2.004915 1_555
Cr0 O6 2.040622 1_565
Cr0 O10 2.040622 1_455
Cr0 O1 2.057029 1_555
Cr0 O7 2.196721 1_565
Cr1 O2 2.004915 1_555
Cr1 O3 2.004915 1_555
Cr1 O4 2.040623 1_455
Cr1 O6 2.040626 1_555
Cr1 O1 2.057034 1_555
Cr1 O7 2.196722 1_555
Cr2 O8 2.039662 1_545
Cr2 O5 2.039662 1_655
Cr2 O15 2.063336 1_555
Cr2 O18 2.064664 1_555
Cr2 O14 2.064664 1_555
Cr2 O9 2.066263 1_655
Cr3 O0 2.004915 1_555
Cr3 O3 2.004915 1_555
Cr3 O4 2.040623 1_565
Cr3 O10 2.040626 1_555
Cr3 O1 2.057034 1_555
Cr3 O7 2.196722 1_665
Cr4 O4 2.025838 1_455
Cr4 O10 2.025842 1_445
Cr4 O6 2.025842 1_555
Cr4 O11 2.064754 1_545
Cr4 O5 2.064754 1_555
Cr4 O8 2.064754 1_445
Cr5 O11 2.039662 1_655
Cr5 O8 2.039666 1_555
Cr5 O15 2.063336 1_555
Cr5 O14 2.064664 1_555
Cr5 O12 2.064664 1_555
Cr5 O9 2.066268 1_665
Cr6 O13 2.023775 1_555
Cr6 O17 2.023775 1_555
Cr6 O16 2.024308 1_555
Cr6 O21 2.052436 1_555
Cr6 O22 2.133216 1_555
Cr6 O23 2.133216 1_555
Cr7 O11 2.039662 1_545
Cr7 O5 2.039666 1_555
Cr7 O15 2.063336 1_555
Cr7 O18 2.064664 1_555
Cr7 O12 2.064664 1_555
Cr7 O9 2.066268 1_555
Cr8 O13 2.023775 1_555
Cr8 O19 2.023775 1_555
Cr8 O16 2.024298 1_555
Cr8 O21 2.052436 1_655
Cr8 O20 2.133216 1_655
Cr8 O23 2.133225 1_655
Cr9 O12 2.029762 1_555
Cr9 O14 2.029762 1_555
Cr9 O18 2.029762 1_555
Cr9 O19 2.055428 1_555
Cr9 O13 2.055436 1_555
Cr9 O17 2.055436 1_555
Cr10 O17 2.023775 1_555
Cr10 O19 2.023775 1_555
Cr10 O16 2.024298 1_555
Cr10 O21 2.052436 1_545
Cr10 O20 2.133216 1_545
Cr10 O22 2.133225 1_545
Cr11 O22 1.953001 1_445
Cr11 O23 1.953001 1_555
Cr11 O20 1.953006 1_545
Cr11 O7 2.081188 1_554
