# generated using pymatgen
data_Dy6Ta4Al43
_symmetry_space_group_name_H-M   'P 1'
_cell_length_a   11.02017684
_cell_length_b   11.02018046
_cell_length_c   17.74704599
_cell_angle_alpha   90.00007113
_cell_angle_beta   90.00009393
_cell_angle_gamma   120.00007768
_symmetry_Int_Tables_number   1
_chemical_formula_structural   Dy6Ta4Al43
_chemical_formula_sum   'Dy12 Ta8 Al86'
_cell_volume   1866.52424893
_cell_formula_units_Z   2
loop_
 _symmetry_equiv_pos_site_id
 _symmetry_equiv_pos_as_xyz
  1  'x, y, z'
loop_
 _atom_site_type_symbol
 _atom_site_label
 _atom_site_symmetry_multiplicity
 _atom_site_fract_x
 _atom_site_fract_y
 _atom_site_fract_z
 _atom_site_occupancy
  Dy  Dy0  1  0.53119776  -0.00000138  0.59633805  1
  Dy  Dy1  1  0.46880626  -0.00000474  0.40370271  1
  Dy  Dy2  1  -0.00000264  0.53120095  0.59633790  1
  Dy  Dy3  1  0.46880416  -0.00000444  0.09629045  1
  Dy  Dy4  1  -0.00000291  0.53120271  0.90366949  1
  Dy  Dy5  1  -0.00000120  0.46881102  0.40370160  1
  Dy  Dy6  1  0.53120176  -0.00000088  0.90366922  1
  Dy  Dy7  1  -0.00000097  0.46881054  0.09629154  1
  Dy  Dy8  1  0.46881078  0.46881070  0.59633888  1
  Dy  Dy9  1  0.53120059  0.53119967  0.40370542  1
  Dy  Dy10  1  0.53120088  0.53119970  0.09628793  1
  Dy  Dy11  1  0.46880904  0.46880920  0.90366795  1
  Ta  Ta0  1  -0.00000726  -0.00000960  0.49999834  1
  Ta  Ta1  1  -0.00000376  -0.00000560  0.00000329  1
  Ta  Ta2  1  0.72631111  -0.00000000  0.75000584  1
  Ta  Ta3  1  0.27367970  -0.00000022  0.24999438  1
  Ta  Ta4  1  0.00000069  0.72631249  0.75000630  1
  Ta  Ta5  1  -0.00000083  0.27367767  0.24999568  1
  Ta  Ta6  1  0.27368652  0.27368608  0.75000789  1
  Ta  Ta7  1  0.72631758  0.72631622  0.24999291  1
  Al  Al0  1  0.15314570  0.59704658  0.75000469  1
  Al  Al1  1  0.84686079  0.40295731  0.24999515  1
  Al  Al2  1  0.40295636  0.55610354  0.75000415  1
  Al  Al3  1  0.59704736  0.15314601  0.75000390  1
  Al  Al4  1  0.59704998  0.44391031  0.24999467  1
  Al  Al5  1  0.40295397  0.84686030  0.24999593  1
  Al  Al6  1  0.44390076  0.84685238  0.75000423  1
  Al  Al7  1  0.55610193  0.40295192  0.75000678  1
  Al  Al8  1  0.55609180  0.15313759  0.24999604  1
  Al  Al9  1  0.44391059  0.59705056  0.24999483  1
  Al  Al10  1  0.84685264  0.44390238  0.75000391  1
  Al  Al11  1  0.15313507  0.55609410  0.24999554  1
  Al  Al12  1  0.15896581  -0.00000415  0.11522171  1
  Al  Al13  1  0.84102568  -0.00000059  0.88475106  1
  Al  Al14  1  -0.00000165  0.15896675  0.11522151  1
  Al  Al15  1  0.84102318  -0.00000039  0.61525788  1
  Al  Al16  1  -0.00000053  0.15895124  0.38476501  1
  Al  Al17  1  -0.00000046  0.84102504  0.88474939  1
  Al  Al18  1  0.15894473  -0.00000380  0.38476871  1
  Al  Al19  1  -0.00000132  0.84102180  0.61525764  1
  Al  Al20  1  0.84103148  0.84102979  0.11522243  1
  Al  Al21  1  0.15897221  0.15897111  0.88475130  1
  Al  Al22  1  0.15897151  0.15897296  0.61525626  1
  Al  Al23  1  0.84103626  0.84103466  0.38476987  1
  Al  Al24  1  0.24737148  0.49473933  0.50001205  1
  Al  Al25  1  0.75263583  0.50526497  0.50001187  1
  Al  Al26  1  0.50526420  0.75263486  0.50001222  1
  Al  Al27  1  0.75263857  0.50527036  -0.00001185  1
  Al  Al28  1  0.49473359  0.24736916  -0.00001213  1
  Al  Al29  1  0.49473907  0.24737236  0.50001241  1
  Al  Al30  1  0.24736795  0.49473406  -0.00001186  1
  Al  Al31  1  0.50526934  0.75263796  -0.00001189  1
  Al  Al32  1  0.24736572  0.75263000  0.50001153  1
  Al  Al33  1  0.75263027  0.24736757  0.50001162  1
  Al  Al34  1  0.75263349  0.24736567  -0.00001131  1
  Al  Al35  1  0.24736265  0.75263187  -0.00001070  1
  Al  Al36  1  0.14826191  -0.00000061  0.75001262  1
  Al  Al37  1  0.85174273  0.00000253  0.24998560  1
  Al  Al38  1  0.00000195  0.14825977  0.75001506  1
  Al  Al39  1  -0.00000018  0.85173674  0.24998763  1
  Al  Al40  1  0.85173651  0.85173594  0.75001136  1
  Al  Al41  1  0.14825722  0.14825816  0.24998622  1
  Al  Al42  1  0.33333364  0.66666857  0.62459635  1
  Al  Al43  1  0.66666891  0.33333507  0.37541882  1
  Al  Al44  1  0.66666874  0.33333669  0.12457153  1
  Al  Al45  1  0.66667113  0.33333715  0.87541217  1
  Al  Al46  1  0.33333523  0.66666834  0.87541273  1
  Al  Al47  1  0.33333240  0.66666666  0.12457131  1
  Al  Al48  1  0.33333524  0.66666814  0.37541944  1
  Al  Al49  1  0.66666733  0.33333516  0.62459666  1
  Al  Al50  1  0.25498629  -0.00000054  0.52952747  1
  Al  Al51  1  0.74500634  -0.00000194  0.47049596  1
  Al  Al52  1  -0.00000055  0.25498762  0.52952802  1
  Al  Al53  1  0.74500882  -0.00000047  0.02950279  1
  Al  Al54  1  -0.00000086  0.25499160  0.97047145  1
  Al  Al55  1  -0.00000145  0.74500489  0.47049566  1
  Al  Al56  1  0.25498654  -0.00000542  0.97047239  1
  Al  Al57  1  0.00000042  0.74500720  0.02950450  1
  Al  Al58  1  0.74501011  0.74500920  0.52952815  1
  Al  Al59  1  0.25499076  0.25499019  0.47049714  1
  Al  Al60  1  0.25498892  0.25498917  0.02950222  1
  Al  Al61  1  0.74500821  0.74500738  0.97046977  1
  Al  Al62  1  0.15818557  0.39494983  0.66260998  1
  Al  Al63  1  0.84181788  0.60505465  0.33740671  1
  Al  Al64  1  0.60505110  0.76323748  0.66260932  1
  Al  Al65  1  0.84182396  0.60506109  0.16258078  1
  Al  Al66  1  0.39495154  0.15818948  0.83740696  1
  Al  Al67  1  0.39494338  0.23675987  0.33740553  1
  Al  Al68  1  0.15818330  0.39494588  0.83740683  1
  Al  Al69  1  0.60505518  0.84181711  0.16257946  1
  Al  Al70  1  0.23676238  0.84181425  0.66261108  1
  Al  Al71  1  0.39494099  0.23676133  0.16258149  1
  Al  Al72  1  0.76324073  0.60505821  0.83740581  1
  Al  Al73  1  0.76324084  0.15818181  0.33740533  1
  Al  Al74  1  0.60505665  0.76323700  0.83740265  1
  Al  Al75  1  0.23676313  0.39494151  0.16258142  1
  Al  Al76  1  0.60505713  0.84181895  0.33740518  1
  Al  Al77  1  0.39495027  0.15818676  0.66261104  1
  Al  Al78  1  0.76323754  0.15818371  0.16258021  1
  Al  Al79  1  0.23676100  0.39494334  0.33740568  1
  Al  Al80  1  0.23676079  0.84181175  0.83740631  1
  Al  Al81  1  0.76323863  0.60505216  0.66260901  1
  Al  Al82  1  0.84181997  0.23676591  0.83740183  1
  Al  Al83  1  0.15817557  0.76323456  0.16258076  1
  Al  Al84  1  0.15818083  0.76323599  0.33740714  1
  Al  Al85  1  0.84181403  0.23676356  0.66261010  1
loop_
_geom_bond_atom_site_label_1
_geom_bond_atom_site_label_2
_geom_bond_distance
_geom_bond_site_symmetry_2
Dy0 Ta2 3.472835 1_555
Dy0 Dy1 3.487159 1_555
Dy1 Ta3 3.473510 1_555
Dy2 Ta4 3.472825 1_555
Dy2 Dy5 3.487178 1_555
Dy3 Ta3 3.473439 1_555
Dy3 Dy6 3.486929 1_554
Dy4 Ta4 3.472744 1_555
Dy4 Dy7 3.486937 1_556
Dy5 Ta5 3.473510 1_555
Dy6 Ta2 3.472753 1_555
Dy7 Ta5 3.473485 1_555
Dy8 Ta6 3.472938 1_555
Dy8 Dy9 3.487128 1_555
Dy9 Ta7 3.473492 1_555
Dy10 Ta7 3.473377 1_555
Dy10 Dy11 3.486894 1_554
Dy11 Ta6 3.472793 1_555
Al0 Ta4 2.698471 1_555
Al0 Al62 2.737249 1_555
Al0 Al68 2.737352 1_555
Al0 Al46 2.821629 1_555
Al0 Al42 2.821629 1_555
Al0 Al70 2.836366 1_555
Al0 Al80 2.836419 1_555
Al0 Al10 2.923183 1_455
Al0 Al6 3.004064 1_555
Al0 Al2 3.004079 1_555
Al0 Dy4 3.096347 1_555
Al0 Dy2 3.096370 1_555
Al1 Ta5 2.698533 1_655
Al1 Al63 2.737438 1_555
Al1 Al65 2.737499 1_555
Al1 Al44 2.821864 1_555
Al1 Al43 2.821869 1_555
Al1 Al73 2.836589 1_555
Al1 Al78 2.836608 1_555
Al1 Al11 2.923004 1_655
Al1 Al4 3.004148 1_555
Al1 Al8 3.004217 1_555
Al1 Dy7 3.096901 1_655
Al1 Dy5 3.096938 1_655
Al2 Ta6 2.698531 1_555
Al2 Al64 2.737231 1_555
Al2 Al74 2.737283 1_555
Al2 Al42 2.821618 1_555
Al2 Al46 2.821619 1_555
Al2 Al62 2.836390 1_555
Al2 Al68 2.836502 1_555
Al2 Al7 2.923226 1_555
Al2 Al6 3.004021 1_555
Al2 Dy11 3.096318 1_555
Al2 Dy8 3.096341 1_555
Al3 Ta2 2.698461 1_555
Al3 Al77 2.737236 1_555
Al3 Al66 2.737344 1_555
Al3 Al49 2.821623 1_555
Al3 Al45 2.821641 1_555
Al3 Al85 2.836357 1_555
Al3 Al82 2.836439 1_555
Al3 Al6 2.923189 1_545
Al3 Al7 3.004044 1_555
Al3 Dy6 3.096346 1_555
Al3 Dy0 3.096350 1_555
Al4 Ta7 2.698419 1_555
Al4 Al67 2.737522 1_555
Al4 Al71 2.737542 1_555
Al4 Al44 2.821865 1_555
Al4 Al43 2.821891 1_555
Al4 Al63 2.836527 1_555
Al4 Al65 2.836606 1_555
Al4 Al9 2.923059 1_555
Al4 Al8 3.004223 1_555
Al4 Dy10 3.096950 1_555
Al4 Dy9 3.097014 1_555
Al5 Ta3 2.698495 1_565
Al5 Al76 2.737459 1_555
Al5 Al69 2.737527 1_555
Al5 Al84 2.836571 1_555
Al5 Al83 2.836647 1_555
Al5 Al8 2.923034 1_565
Al5 Al9 3.004161 1_555
Al5 Dy3 3.096917 1_565
Al5 Dy1 3.096930 1_565
Al6 Ta2 2.698464 1_565
Al6 Al70 2.737255 1_555
Al6 Al80 2.737353 1_555
Al6 Al64 2.836360 1_555
Al6 Al74 2.836444 1_555
Al6 Dy6 3.096334 1_565
Al6 Dy0 3.096355 1_565
Al7 Ta6 2.698512 1_555
Al7 Al81 2.737298 1_555
Al7 Al72 2.737340 1_555
Al7 Al77 2.836363 1_555
Al7 Dy11 3.096290 1_555
Al7 Dy8 3.096393 1_555
Al8 Ta3 2.698475 1_555
Al8 Dy3 3.096943 1_555
Al8 Dy1 3.096967 1_555
Al9 Ta7 2.698429 1_555
Al9 Dy10 3.096965 1_555
Al9 Dy9 3.097021 1_555
Al10 Ta4 2.698462 1_655
Al10 Al85 2.737265 1_555
Al10 Al82 2.737314 1_555
Al10 Al45 2.821593 1_555
Al10 Al49 2.821594 1_555
Al10 Al81 2.836348 1_555
Al10 Al72 2.836453 1_555
Al10 Al7 3.004014 1_555
Al10 Al3 3.004071 1_555
Al10 Dy4 3.096333 1_655
Al10 Dy2 3.096347 1_655
Al11 Ta5 2.698515 1_555
Al11 Al84 2.737441 1_555
Al11 Al83 2.737486 1_555
Al11 Al47 2.821908 1_555
Al11 Al48 2.821913 1_555
Al11 Al79 2.836588 1_555
Al11 Al75 2.836657 1_555
Al11 Al5 3.004195 1_555
Al11 Al9 3.004260 1_555
Al11 Dy7 3.096890 1_555
Al11 Dy5 3.096930 1_555
Al12 Ta1 2.692614 1_555
Al12 Ta3 2.705336 1_555
Al12 Al83 2.737051 1_545
Al12 Al71 2.737092 1_555
Al12 Al56 2.778281 1_554
Al12 Al57 2.890769 1_545
Al12 Al60 2.890838 1_555
Al12 Al39 2.931957 1_545
Al12 Al41 2.931959 1_555
Al12 Al20 3.034284 1_445
Al12 Al14 3.034327 1_555
Al12 Dy3 3.430965 1_555
Al13 Ta1 2.693100 1_656
Al13 Ta2 2.704920 1_555
Al13 Al74 2.736981 1_545
Al13 Al82 2.737031 1_555
Al13 Al53 2.778302 1_556
Al13 Al61 2.890827 1_545
Al13 Al54 2.890836 1_655
Al13 Al38 2.931564 1_655
Al13 Al40 2.931615 1_545
Al13 Al21 3.034401 1_655
Al13 Al17 3.034421 1_645
Al13 Dy6 3.430781 1_555
Al14 Ta1 2.692630 1_555
Al14 Ta5 2.705353 1_555
Al14 Al78 2.737081 1_455
Al14 Al75 2.737086 1_555
Al14 Al54 2.778306 1_554
Al14 Al53 2.890791 1_455
Al14 Al60 2.890813 1_555
Al14 Al37 2.931914 1_455
Al14 Al41 2.931939 1_555
Al14 Al20 3.034310 1_445
Al14 Dy7 3.431018 1_555
Al15 Ta0 2.693211 1_655
Al15 Ta2 2.704954 1_555
Al15 Al64 2.737017 1_545
Al15 Al85 2.737036 1_555
Al15 Al51 2.778462 1_555
Al15 Al52 2.890904 1_655
Al15 Al58 2.890916 1_545
Al15 Al40 2.931828 1_545
Al15 Al38 2.931870 1_655
Al15 Al22 3.034418 1_655
Al15 Al19 3.034470 1_645
Al15 Dy0 3.430795 1_555
Al16 Ta0 2.692738 1_555
Al16 Ta5 2.705362 1_555
Al16 Al73 2.737132 1_455
Al16 Al79 2.737161 1_555
Al16 Al52 2.778566 1_555
Al16 Al59 2.890911 1_555
Al16 Al51 2.890921 1_455
Al16 Al37 2.932077 1_455
Al16 Al41 2.932085 1_555
Al16 Al18 3.033964 1_555
Al16 Al23 3.034116 1_445
Al16 Dy5 3.431212 1_555
Al17 Ta1 2.693109 1_566
Al17 Ta4 2.704879 1_555
Al17 Al72 2.736925 1_455
Al17 Al80 2.736981 1_555
Al17 Al57 2.778363 1_556
Al17 Al56 2.890816 1_565
Al17 Al61 2.890836 1_455
Al17 Al36 2.931574 1_565
Al17 Al40 2.931587 1_455
Al17 Al21 3.034397 1_565
Al17 Dy4 3.430756 1_555
Al18 Ta0 2.692628 1_555
Al18 Ta3 2.705475 1_555
Al18 Al84 2.737188 1_545
Al18 Al67 2.737228 1_555
Al18 Al50 2.778511 1_555
Al18 Al55 2.890861 1_545
Al18 Al59 2.890892 1_555
Al18 Al39 2.932095 1_545
Al18 Al41 2.932146 1_555
Al18 Al23 3.034038 1_445
Al18 Dy1 3.431227 1_555
Al19 Ta0 2.693189 1_565
Al19 Ta4 2.704954 1_555
Al19 Al81 2.736993 1_455
Al19 Al70 2.737031 1_555
Al19 Al55 2.778467 1_555
Al19 Al58 2.890898 1_455
Al19 Al50 2.890905 1_565
Al19 Al40 2.931825 1_455
Al19 Al36 2.931843 1_565
Al19 Al22 3.034446 1_565
Al19 Dy2 3.430745 1_555
Al20 Ta1 2.692599 1_665
Al20 Ta7 2.705315 1_555
Al20 Al65 2.737034 1_555
Al20 Al69 2.737079 1_555
Al20 Al61 2.778337 1_554
Al20 Al57 2.890808 1_655
Al20 Al53 2.890831 1_565
Al20 Al37 2.931943 1_565
Al20 Al39 2.931956 1_655
Al20 Dy10 3.430876 1_555
Al21 Ta1 2.693125 1_556
Al21 Ta6 2.704895 1_555
Al21 Al68 2.737003 1_555
Al21 Al66 2.737011 1_555
Al21 Al60 2.778286 1_556
Al21 Al56 2.890843 1_555
Al21 Al54 2.890849 1_555
Al21 Al38 2.931536 1_555
Al21 Al36 2.931585 1_555
Al21 Dy11 3.430923 1_555
Al22 Ta0 2.693228 1_555
Al22 Ta6 2.705015 1_555
Al22 Al62 2.737058 1_555
Al22 Al77 2.737084 1_555
Al22 Al59 2.778430 1_555
Al22 Al52 2.890872 1_555
Al22 Al50 2.890891 1_555
Al22 Al38 2.931858 1_555
Al22 Al36 2.931858 1_555
Al22 Dy8 3.430938 1_555
Al23 Ta0 2.692655 1_665
Al23 Ta7 2.705435 1_555
Al23 Al63 2.737120 1_555
Al23 Al76 2.737132 1_555
Al23 Al58 2.778447 1_555
Al23 Al55 2.890875 1_655
Al23 Al51 2.890890 1_565
Al23 Al39 2.932191 1_655
Al23 Al37 2.932235 1_565
Al23 Dy9 3.430935 1_555
Al24 Al59 2.735661 1_555
Al24 Al52 2.735697 1_555
Al24 Al42 2.753344 1_555
Al24 Al48 2.753467 1_555
Al24 Al32 2.842033 1_555
Al24 Al26 2.842036 1_555
Al24 Al62 3.069427 1_555
Al24 Al79 3.069577 1_555
Al24 Dy5 3.107364 1_555
Al24 Dy8 3.107480 1_555
Al24 Dy9 3.407248 1_555
Al24 Dy2 3.407477 1_555
Al25 Al55 2.735584 1_655
Al25 Al58 2.735649 1_555
Al25 Al49 2.753361 1_555
Al25 Al43 2.753473 1_555
Al25 Al29 2.842042 1_555
Al25 Al33 2.842045 1_555
Al25 Al81 3.069402 1_555
Al25 Al63 3.069542 1_555
Al25 Dy9 3.107277 1_555
Al25 Dy2 3.107385 1_655
Al25 Dy5 3.407189 1_655
Al25 Dy8 3.407414 1_555
Al26 Al51 2.735598 1_565
Al26 Al58 2.735665 1_555
Al26 Al42 2.753356 1_555
Al26 Al48 2.753463 1_555
Al26 Al32 2.842060 1_555
Al26 Al64 3.069400 1_555
Al26 Al76 3.069583 1_555
Al26 Dy9 3.107290 1_555
Al26 Dy0 3.107414 1_565
Al26 Dy1 3.407181 1_565
Al26 Dy8 3.407406 1_555
Al27 Al57 2.735561 1_655
Al27 Al61 2.735606 1_554
Al27 Al45 2.753248 1_554
Al27 Al44 2.753363 1_555
Al27 Al34 2.842128 1_555
Al27 Al28 2.842135 1_555
Al27 Al72 3.069162 1_554
Al27 Al65 3.069334 1_555
Al27 Dy10 3.107209 1_555
Al27 Dy4 3.107304 1_654
Al27 Dy7 3.407134 1_655
Al27 Dy11 3.407364 1_554
Al28 Al60 2.735615 1_555
Al28 Al56 2.735683 1_554
Al28 Al45 2.753275 1_554
Al28 Al44 2.753368 1_555
Al28 Al34 2.842122 1_555
Al28 Al66 3.069111 1_554
Al28 Al71 3.069359 1_555
Al28 Dy3 3.107297 1_555
Al28 Dy11 3.107402 1_554
Al28 Dy10 3.407173 1_555
Al28 Dy6 3.407409 1_554
Al29 Al59 2.735644 1_555
Al29 Al50 2.735704 1_555
Al29 Al49 2.753337 1_555
Al29 Al43 2.753486 1_555
Al29 Al33 2.842033 1_555
Al29 Al77 3.069436 1_555
Al29 Al67 3.069581 1_555
Al29 Dy1 3.107381 1_555
Al29 Dy8 3.107468 1_555
Al29 Dy9 3.407230 1_555
Al29 Dy0 3.407455 1_555
Al30 Al60 2.735623 1_555
Al30 Al54 2.735630 1_554
Al30 Al46 2.753253 1_554
Al30 Al47 2.753347 1_555
Al30 Al35 2.842110 1_555
Al30 Al31 2.842130 1_555
Al30 Al68 3.069139 1_554
Al30 Al75 3.069358 1_555
Al30 Dy7 3.107284 1_555
Al30 Dy11 3.107416 1_554
Al30 Dy10 3.407198 1_555
Al30 Dy4 3.407419 1_554
Al31 Al53 2.735567 1_565
Al31 Al61 2.735626 1_554
Al31 Al46 2.753244 1_554
Al31 Al47 2.753379 1_555
Al31 Al35 2.842144 1_555
Al31 Al74 3.069217 1_554
Al31 Al69 3.069293 1_555
Al31 Dy10 3.107227 1_555
Al31 Dy6 3.107331 1_564
Al31 Dy3 3.407129 1_565
Al31 Dy11 3.407361 1_554
Al32 Al55 2.735619 1_555
Al32 Al50 2.735669 1_565
Al32 Al42 2.753356 1_555
Al32 Al48 2.753472 1_555
Al32 Al70 3.069444 1_555
Al32 Al84 3.069532 1_555
Al32 Dy1 3.107299 1_565
Al32 Dy2 3.107443 1_555
Al32 Dy5 3.407204 1_555
Al32 Dy0 3.407432 1_565
Al33 Al51 2.735651 1_555
Al33 Al52 2.735669 1_655
Al33 Al49 2.753367 1_555
Al33 Al43 2.753467 1_555
Al33 Al85 3.069425 1_555
Al33 Al73 3.069577 1_555
Al33 Dy5 3.107339 1_655
Al33 Dy0 3.107460 1_555
Al33 Dy1 3.407243 1_555
Al33 Dy2 3.407432 1_655
Al34 Al54 2.735605 1_654
Al34 Al53 2.735607 1_555
Al34 Al45 2.753263 1_554
Al34 Al44 2.753365 1_555
Al34 Al82 3.069235 1_554
Al34 Al78 3.069305 1_555
Al34 Dy7 3.107250 1_655
Al34 Dy6 3.107368 1_554
Al34 Dy3 3.407210 1_555
Al34 Dy4 3.407385 1_654
Al35 Al57 2.735568 1_555
Al35 Al56 2.735583 1_564
Al35 Al46 2.753278 1_554
Al35 Al47 2.753348 1_555
Al35 Al80 3.069150 1_554
Al35 Al83 3.069320 1_555
Al35 Dy3 3.107211 1_565
Al35 Dy4 3.107356 1_554
Al35 Dy7 3.407145 1_555
Al35 Dy6 3.407419 1_564
Al36 Ta6 2.615027 1_555
Al36 Ta4 2.615028 1_545
Al36 Al38 2.829918 1_555
Al36 Al40 2.829963 1_445
Al36 Al80 2.845311 1_545
Al36 Al66 2.845337 1_555
Al36 Al70 2.845376 1_545
Al36 Al77 2.845401 1_555
Al37 Ta5 2.614916 1_655
Al37 Ta7 2.615023 1_545
Al37 Al41 2.829859 1_655
Al37 Al39 2.829943 1_645
Al37 Al78 2.845414 1_555
Al37 Al69 2.845429 1_545
Al37 Al73 2.845512 1_555
Al37 Al76 2.845549 1_545
Al38 Ta6 2.615004 1_555
Al38 Ta2 2.615063 1_455
Al38 Al40 2.829949 1_445
Al38 Al82 2.845248 1_455
Al38 Al68 2.845274 1_555
Al38 Al62 2.845441 1_555
Al38 Al85 2.845456 1_455
Al39 Ta3 2.614963 1_565
Al39 Ta7 2.614984 1_455
Al39 Al41 2.829926 1_565
Al39 Al65 2.845337 1_455
Al39 Al83 2.845360 1_555
Al39 Al84 2.845516 1_555
Al39 Al63 2.845517 1_455
Al40 Ta4 2.615039 1_655
Al40 Ta2 2.615056 1_565
Al40 Al74 2.845231 1_555
Al40 Al72 2.845248 1_555
Al40 Al81 2.845368 1_555
Al40 Al64 2.845377 1_555
Al41 Ta5 2.614942 1_555
Al41 Ta3 2.614973 1_555
Al41 Al75 2.845382 1_555
Al41 Al71 2.845388 1_555
Al41 Al79 2.845537 1_555
Al41 Al67 2.845546 1_555
Al42 Al64 2.714272 1_555
Al42 Al70 2.714275 1_555
Al42 Al62 2.714288 1_555
Al42 Al6 2.821595 1_555
Al42 Dy0 3.238807 1_565
Al42 Dy8 3.238843 1_555
Al42 Dy2 3.238865 1_555
Al43 Al63 2.714290 1_555
Al43 Al67 2.714343 1_555
Al43 Al73 2.714351 1_555
Al43 Al8 2.821886 1_555
Al43 Dy5 3.238858 1_655
Al43 Dy9 3.238913 1_555
Al43 Dy1 3.238961 1_555
Al44 Al78 2.714301 1_555
Al44 Al65 2.714324 1_555
Al44 Al71 2.714354 1_555
Al44 Al8 2.821926 1_555
Al44 Dy7 3.238859 1_655
Al44 Dy10 3.238885 1_555
Al44 Dy3 3.238965 1_555
Al45 Al66 2.714253 1_555
Al45 Al72 2.714282 1_555
Al45 Al82 2.714287 1_555
Al45 Al7 2.821567 1_555
Al45 Dy4 3.238766 1_655
Al45 Dy11 3.238836 1_555
Al45 Dy6 3.238880 1_555
Al46 Al80 2.714242 1_555
Al46 Al68 2.714288 1_555
Al46 Al74 2.714303 1_555
Al46 Al6 2.821611 1_555
Al46 Dy6 3.238809 1_565
Al46 Dy11 3.238821 1_555
Al46 Dy4 3.238883 1_555
Al47 Al69 2.714297 1_555
Al47 Al83 2.714336 1_555
Al47 Al75 2.714340 1_555
Al47 Al9 2.821884 1_555
Al47 Al5 2.821888 1_555
Al47 Dy3 3.238851 1_565
Al47 Dy7 3.238882 1_555
Al47 Dy10 3.238931 1_555
Al48 Al76 2.714321 1_555
Al48 Al84 2.714323 1_555
Al48 Al79 2.714341 1_555
Al48 Al5 2.821871 1_555
Al48 Al9 2.821891 1_555
Al48 Dy1 3.238839 1_565
Al48 Dy9 3.238920 1_555
Al48 Dy5 3.238920 1_555
Al49 Al81 2.714262 1_555
Al49 Al77 2.714277 1_555
Al49 Al85 2.714282 1_555
Al49 Al7 2.821622 1_555
Al49 Dy2 3.238809 1_655
Al49 Dy8 3.238816 1_555
Al49 Dy0 3.238867 1_555
Al50 Ta0 2.858472 1_555
Al50 Al70 2.882255 1_545
Al50 Al77 2.882262 1_555
Al50 Al59 2.998952 1_555
Al50 Al55 2.998981 1_545
Al50 Dy1 3.246352 1_555
Al50 Dy0 3.266680 1_555
Al51 Ta0 2.858398 1_655
Al51 Al76 2.882298 1_545
Al51 Al73 2.882320 1_555
Al51 Al52 2.998984 1_655
Al51 Al58 2.998986 1_545
Al51 Dy0 3.246458 1_555
Al51 Dy1 3.266433 1_555
Al52 Ta0 2.858528 1_555
Al52 Al62 2.882229 1_555
Al52 Al85 2.882233 1_455
Al52 Al59 2.998970 1_555
Al52 Dy5 3.246386 1_555
Al52 Dy2 3.266703 1_555
Al53 Ta1 2.858388 1_655
Al53 Al69 2.882124 1_545
Al53 Al78 2.882142 1_555
Al53 Al54 2.998984 1_654
Al53 Al61 2.999000 1_544
Al53 Dy6 3.246333 1_554
Al53 Dy3 3.266442 1_555
Al54 Ta1 2.858556 1_556
Al54 Al68 2.881957 1_555
Al54 Al82 2.882004 1_455
Al54 Al60 2.998976 1_556
Al54 Dy7 3.246267 1_556
Al54 Dy4 3.266631 1_555
Al55 Ta0 2.858381 1_565
Al55 Al63 2.882280 1_455
Al55 Al84 2.882289 1_555
Al55 Al58 2.998986 1_455
Al55 Dy2 3.246416 1_555
Al55 Dy5 3.266392 1_555
Al56 Ta1 2.858493 1_556
Al56 Al80 2.881976 1_545
Al56 Al66 2.882036 1_555
Al56 Al57 2.998943 1_546
Al56 Al60 2.998997 1_556
Al56 Dy3 3.246226 1_556
Al56 Dy6 3.266647 1_555
Al57 Ta1 2.858387 1_565
Al57 Al83 2.882071 1_555
Al57 Al65 2.882077 1_455
Al57 Al61 2.999014 1_454
Al57 Dy4 3.246320 1_554
Al57 Dy7 3.266369 1_555
Al58 Ta0 2.858397 1_665
Al58 Al81 2.882205 1_555
Al58 Al64 2.882221 1_555
Al58 Dy9 3.246218 1_555
Al58 Dy8 3.266550 1_555
Al59 Ta0 2.858488 1_555
Al59 Al79 2.882339 1_555
Al59 Al67 2.882340 1_555
Al59 Dy8 3.246536 1_555
Al59 Dy9 3.266538 1_555
Al60 Ta1 2.858422 1_555
Al60 Al75 2.882138 1_555
Al60 Al71 2.882144 1_555
Al60 Dy11 3.246453 1_554
Al60 Dy10 3.266509 1_555
Al61 Ta1 2.858467 1_666
Al61 Al72 2.881922 1_555
Al61 Al74 2.881971 1_555
Al61 Dy10 3.246156 1_556
Al61 Dy11 3.266484 1_555
Al62 Ta6 2.740927 1_555
Al62 Al85 3.019370 1_455
Al62 Dy2 3.048659 1_555
Al62 Al68 3.102128 1_555
Al62 Dy8 3.313217 1_555
Al63 Ta7 2.741065 1_555
Al63 Al84 3.019288 1_655
Al63 Dy5 3.048686 1_655
Al63 Al65 3.102644 1_555
Al63 Dy9 3.313329 1_555
Al64 Ta2 2.740891 1_565
Al64 Al81 3.019386 1_555
Al64 Dy8 3.048535 1_555
Al64 Al74 3.102065 1_555
Al64 Dy0 3.313134 1_565
Al65 Ta7 2.741045 1_555
Al65 Al83 3.019179 1_655
Al65 Dy7 3.048654 1_655
Al65 Dy10 3.313326 1_555
Al66 Ta6 2.740915 1_555
Al66 Al7 2.836392 1_555
Al66 Al80 3.019430 1_545
Al66 Dy6 3.048604 1_555
Al66 Al77 3.102111 1_555
Al66 Dy11 3.313105 1_555
Al67 Ta3 2.741020 1_555
Al67 Al8 2.836537 1_555
Al67 Al79 3.019319 1_555
Al67 Dy9 3.048847 1_555
Al67 Al71 3.102610 1_555
Al67 Dy1 3.313399 1_555
Al68 Ta6 2.740925 1_555
Al68 Al82 3.019291 1_455
Al68 Dy4 3.048627 1_555
Al68 Dy11 3.313147 1_555
Al69 Ta7 2.741072 1_555
Al69 Al9 2.836558 1_555
Al69 Al78 3.019323 1_565
Al69 Dy3 3.048687 1_565
Al69 Al76 3.102640 1_555
Al69 Dy10 3.313284 1_555
Al70 Ta4 2.740878 1_555
Al70 Al77 3.019380 1_565
Al70 Dy0 3.048630 1_565
Al70 Al80 3.102099 1_555
Al70 Dy2 3.313141 1_555
Al71 Ta3 2.741054 1_555
Al71 Al8 2.836615 1_555
Al71 Al75 3.019245 1_555
Al71 Dy10 3.048794 1_555
Al71 Dy3 3.313373 1_555
Al72 Ta4 2.740906 1_655
Al72 Al74 3.019291 1_555
Al72 Dy11 3.048523 1_555
Al72 Al81 3.102127 1_555
Al72 Dy4 3.313051 1_655
Al73 Al8 2.737488 1_555
Al73 Ta5 2.740997 1_655
Al73 Al76 3.019288 1_545
Al73 Dy1 3.048791 1_555
Al73 Al78 3.102629 1_555
Al73 Dy5 3.313378 1_655
Al74 Ta2 2.740903 1_565
Al74 Dy11 3.048511 1_555
Al74 Dy6 3.313124 1_565
Al75 Al9 2.737537 1_555
Al75 Ta5 2.741087 1_555
Al75 Dy10 3.048788 1_555
Al75 Al79 3.102614 1_555
Al75 Dy7 3.313389 1_555
Al76 Ta7 2.741060 1_555
Al76 Al9 2.836519 1_555
Al76 Dy1 3.048725 1_565
Al76 Dy9 3.313355 1_555
Al77 Ta6 2.740905 1_555
Al77 Dy0 3.048634 1_555
Al77 Dy8 3.313213 1_555
Al78 Al8 2.737520 1_555
Al78 Ta5 2.741075 1_655
Al78 Dy3 3.048723 1_555
Al78 Dy7 3.313330 1_655
Al79 Al9 2.737521 1_555
Al79 Ta5 2.741021 1_555
Al79 Dy9 3.048843 1_555
Al79 Dy5 3.313401 1_555
Al80 Ta4 2.740907 1_555
Al80 Dy6 3.048604 1_565
Al80 Dy4 3.313050 1_555
Al81 Ta4 2.740895 1_655
Al81 Dy8 3.048541 1_555
Al81 Dy2 3.313093 1_655
Al82 Ta2 2.740912 1_555
Al82 Dy4 3.048597 1_655
Al82 Al85 3.102037 1_555
Al82 Dy6 3.313150 1_555
Al83 Ta3 2.741084 1_565
Al83 Dy7 3.048635 1_555
Al83 Al84 3.102652 1_555
Al83 Dy3 3.313351 1_565
Al84 Ta3 2.741071 1_565
Al84 Dy5 3.048687 1_555
Al84 Dy1 3.313350 1_565
Al85 Ta2 2.740898 1_555
Al85 Dy2 3.048642 1_655
Al85 Dy0 3.313154 1_555
