# generated using pymatgen
data_Si4Mo8Pt5
_symmetry_space_group_name_H-M   'P 1'
_cell_length_a   7.99964195
_cell_length_b   7.99964195
_cell_length_c   9.67214029
_cell_angle_alpha   80.19028714
_cell_angle_beta   80.19028714
_cell_angle_gamma   60.48327821
_symmetry_Int_Tables_number   1
_chemical_formula_structural   Si4Mo8Pt5
_chemical_formula_sum   'Si8 Mo16 Pt10'
_cell_volume   528.04915253
_cell_formula_units_Z   2
loop_
 _symmetry_equiv_pos_site_id
 _symmetry_equiv_pos_as_xyz
  1  'x, y, z'
loop_
 _atom_site_type_symbol
 _atom_site_label
 _atom_site_symmetry_multiplicity
 _atom_site_fract_x
 _atom_site_fract_y
 _atom_site_fract_z
 _atom_site_occupancy
  Si  Si0  1  0.29121700  0.02533700  0.80803400  1
  Si  Si1  1  0.02533700  0.29121700  0.30803400  1
  Si  Si2  1  0.80777100  0.50024100  0.82296400  1
  Si  Si3  1  0.50024100  0.80777100  0.32296400  1
  Si  Si4  1  0.92386900  0.39297000  0.55908800  1
  Si  Si5  1  0.39297000  0.92386900  0.05908800  1
  Si  Si6  1  0.81937700  0.02262000  0.80739000  1
  Si  Si7  1  0.02262000  0.81937700  0.30739000  1
  Mo  Mo0  1  0.53510800  0.12852800  0.63331200  1
  Mo  Mo1  1  0.12852800  0.53510800  0.13331200  1
  Mo  Mo2  1  0.41492800  0.59262100  0.91509200  1
  Mo  Mo3  1  0.59262100  0.41492800  0.41509200  1
  Mo  Mo4  1  0.07903900  0.90227200  0.01550400  1
  Mo  Mo5  1  0.90227200  0.07903900  0.51550400  1
  Mo  Mo6  1  0.55528600  0.75763900  0.60828500  1
  Mo  Mo7  1  0.75763900  0.55528600  0.10828500  1
  Mo  Mo8  1  0.90659800  0.75214200  0.60607400  1
  Mo  Mo9  1  0.75214200  0.90659800  0.10607400  1
  Mo  Mo10  1  0.26778300  0.08738400  0.50735300  1
  Mo  Mo11  1  0.08738400  0.26778300  0.00735300  1
  Mo  Mo12  1  0.41691500  0.28026500  0.91434800  1
  Mo  Mo13  1  0.28026500  0.41691500  0.41434800  1
  Mo  Mo14  1  0.63117400  0.03057000  0.39455300  1
  Mo  Mo15  1  0.03057000  0.63117400  0.89455300  1
  Pt  Pt0  1  0.36494600  0.15288600  0.20926400  1
  Pt  Pt1  1  0.15288600  0.36494600  0.70926400  1
  Pt  Pt2  1  0.74744500  0.25668200  0.97380300  1
  Pt  Pt3  1  0.25668200  0.74744500  0.47380300  1
  Pt  Pt4  1  0.16365600  0.85578400  0.72468500  1
  Pt  Pt5  1  0.85578400  0.16365600  0.22468500  1
  Pt  Pt6  1  0.63575400  0.83934600  0.86129600  1
  Pt  Pt7  1  0.83934600  0.63575400  0.36129600  1
  Pt  Pt8  1  0.64852100  0.37552400  0.69435400  1
  Pt  Pt9  1  0.37552400  0.64852100  0.19435400  1
loop_
_geom_bond_atom_site_label_1
_geom_bond_atom_site_label_2
_geom_bond_distance
_geom_bond_site_symmetry_2
Si0 Si5 2.562925 1_546
Si1 Si4 2.562925 1_455
Si2 Si4 2.695586 1_555
Si3 Si5 2.695586 1_555
Mo0 Mo14 2.440510 1_555
Mo0 Si0 2.707765 1_555
Mo0 Pt8 2.724378 1_555
Mo0 Pt1 2.734156 1_555
Mo0 Si6 2.764807 1_555
Mo0 Mo10 2.807799 1_555
Mo0 Pt6 2.809578 1_545
Mo0 Mo5 2.819508 1_555
Mo0 Mo6 2.940599 1_545
Mo0 Mo12 2.978887 1_555
Mo0 Mo3 2.995938 1_555
Mo0 Mo13 3.022529 1_555
Mo0 Mo8 3.025460 1_545
Mo1 Mo15 2.440510 1_554
Mo1 Si1 2.707765 1_555
Mo1 Pt9 2.724378 1_555
Mo1 Pt0 2.734156 1_555
Mo1 Si7 2.764807 1_555
Mo1 Mo11 2.807799 1_555
Mo1 Pt7 2.809578 1_455
Mo1 Mo4 2.819508 1_555
Mo1 Mo7 2.940599 1_455
Mo1 Mo13 2.978887 1_555
Mo1 Mo2 2.995938 1_554
Mo1 Mo12 3.022529 1_554
Mo1 Mo9 3.025460 1_455
Mo2 Pt2 2.751566 1_555
Mo2 Pt9 2.752749 1_556
Mo2 Pt4 2.763083 1_555
Mo2 Mo4 2.769700 1_556
Mo2 Pt8 2.787920 1_555
Mo2 Si2 2.863195 1_555
Mo2 Si5 3.115761 1_556
Mo2 Si0 3.128313 1_565
Mo3 Pt3 2.751566 1_555
Mo3 Pt8 2.752749 1_555
Mo3 Pt5 2.763083 1_555
Mo3 Mo5 2.769700 1_555
Mo3 Pt9 2.787920 1_555
Mo3 Si3 2.863195 1_555
Mo3 Si4 3.115761 1_555
Mo3 Si1 3.128313 1_655
Mo4 Mo9 2.597629 1_455
Mo4 Si5 2.706925 1_555
Mo4 Si0 2.773029 1_564
Mo4 Pt2 2.793147 1_464
Mo4 Si7 2.799372 1_555
Mo4 Pt4 2.822797 1_554
Mo4 Si6 2.843824 1_464
Mo4 Pt5 2.861096 1_465
Mo4 Pt9 2.862833 1_555
Mo5 Mo8 2.597629 1_545
Mo5 Si4 2.706925 1_555
Mo5 Si1 2.773029 1_655
Mo5 Pt3 2.793147 1_645
Mo5 Si6 2.799372 1_555
Mo5 Pt5 2.822797 1_555
Mo5 Si7 2.843824 1_645
Mo5 Pt4 2.861096 1_645
Mo5 Pt8 2.862833 1_555
Mo6 Pt8 2.773298 1_555
Mo6 Mo8 2.785433 1_555
Mo6 Si3 2.798827 1_555
Mo6 Pt6 2.885583 1_555
Mo6 Si0 2.888362 1_565
Mo6 Pt4 2.893892 1_555
Mo6 Si2 2.916339 1_555
Mo6 Pt7 2.929509 1_555
Mo6 Pt3 2.948116 1_555
Mo6 Si4 2.991624 1_555
Mo7 Pt9 2.773298 1_555
Mo7 Mo9 2.785433 1_555
Mo7 Si2 2.798827 1_554
Mo7 Pt7 2.885583 1_555
Mo7 Si1 2.888362 1_655
Mo7 Pt5 2.893892 1_555
Mo7 Si3 2.916339 1_555
Mo7 Pt6 2.929509 1_554
Mo7 Pt2 2.948116 1_554
Mo7 Si5 2.991624 1_555
Mo8 Pt1 2.841719 1_655
Mo8 Pt3 2.858849 1_655
Mo8 Pt7 2.905205 1_555
Mo8 Si6 2.906037 1_565
Mo8 Si4 2.917800 1_555
Mo8 Si7 2.923236 1_655
Mo8 Pt6 2.923988 1_555
Mo8 Si2 2.941196 1_555
Mo8 Pt4 3.006683 1_655
Mo9 Pt0 2.841719 1_565
Mo9 Pt2 2.858849 1_564
Mo9 Pt6 2.905205 1_554
Mo9 Si7 2.906037 1_655
Mo9 Si5 2.917800 1_555
Mo9 Si6 2.923236 1_564
Mo9 Pt7 2.923988 1_555
Mo9 Si3 2.941196 1_555
Mo9 Pt5 3.006683 1_565
Mo10 Mo6 2.666548 1_545
Mo10 Si4 2.667604 1_455
Mo10 Mo13 2.681244 1_555
Mo10 Si1 2.687697 1_555
Mo10 Mo14 2.762951 1_555
Mo10 Si3 2.787942 1_545
Mo10 Pt3 2.838440 1_545
Mo10 Pt4 2.853426 1_545
Mo10 Pt0 2.883439 1_555
Mo10 Si0 2.888168 1_555
Mo10 Pt1 2.905824 1_555
Mo10 Mo5 2.944858 1_455
Mo11 Mo7 2.666548 1_455
Mo11 Si5 2.667604 1_545
Mo11 Mo12 2.681244 1_554
Mo11 Si0 2.687697 1_554
Mo11 Mo15 2.762951 1_554
Mo11 Si2 2.787942 1_454
Mo11 Pt2 2.838440 1_454
Mo11 Pt5 2.853426 1_455
Mo11 Pt1 2.883439 1_554
Mo11 Si1 2.888168 1_555
Mo11 Pt0 2.905824 1_555
Mo11 Mo4 2.944858 1_545
Mo12 Mo2 2.492175 1_555
Mo12 Pt2 2.710589 1_555
Mo12 Pt8 2.834844 1_555
Mo12 Pt0 2.893206 1_556
Mo12 Pt1 2.900793 1_555
Mo12 Si6 2.955810 1_555
Mo12 Mo15 2.989715 1_555
Mo12 Si5 3.035073 1_546
Mo12 Si0 3.052023 1_555
Mo12 Pt6 3.161542 1_545
Mo12 Mo9 3.387119 1_546
Mo13 Mo3 2.492175 1_555
Mo13 Pt3 2.710589 1_555
Mo13 Pt9 2.834844 1_555
Mo13 Pt1 2.893206 1_555
Mo13 Pt0 2.900793 1_555
Mo13 Si7 2.955810 1_555
Mo13 Mo14 2.989715 1_555
Mo13 Si4 3.035073 1_455
Mo13 Si1 3.052023 1_555
Mo13 Pt7 3.161542 1_455
Mo13 Mo8 3.387119 1_455
Mo14 Si3 2.694495 1_545
Mo14 Pt5 2.710037 1_555
Mo14 Pt0 2.711936 1_555
Mo14 Si7 2.782746 1_645
Mo14 Pt7 2.798771 1_545
Mo14 Mo5 2.840728 1_555
Mo14 Mo6 2.957952 1_545
Mo14 Mo9 2.963519 1_545
Mo14 Mo3 2.973448 1_555
Mo14 Mo8 3.024680 1_545
Mo15 Si2 2.694495 1_455
Mo15 Pt4 2.710037 1_555
Mo15 Pt1 2.711936 1_555
Mo15 Si6 2.782746 1_465
Mo15 Pt6 2.798771 1_455
Mo15 Mo4 2.840728 1_556
Mo15 Mo7 2.957952 1_456
Mo15 Mo8 2.963519 1_455
Mo15 Mo2 2.973448 1_555
Mo15 Mo9 3.024680 1_456
Pt0 Si5 2.430560 1_545
Pt0 Si1 2.455901 1_555
Pt0 Si3 2.535649 1_545
Pt1 Si4 2.430560 1_455
Pt1 Si0 2.455901 1_555
Pt1 Si2 2.535649 1_455
Pt2 Si2 2.423955 1_555
Pt2 Si6 2.465248 1_555
Pt2 Pt8 2.819131 1_555
Pt3 Si3 2.423955 1_555
Pt3 Si7 2.465248 1_555
Pt3 Pt9 2.819131 1_555
Pt4 Si0 2.355347 1_565
Pt4 Si6 2.448967 1_465
Pt5 Si1 2.355347 1_655
Pt5 Si7 2.448967 1_645
Pt6 Si5 2.402045 1_556
Pt6 Si2 2.424976 1_555
Pt6 Si6 2.485904 1_565
Pt6 Si0 2.501500 1_565
Pt7 Si4 2.402045 1_555
Pt7 Si3 2.424976 1_555
Pt7 Si7 2.485904 1_655
Pt7 Si1 2.501500 1_655
Pt8 Si4 2.416959 1_555
Pt8 Si2 2.526057 1_555
Pt8 Si6 2.586255 1_555
Pt9 Si5 2.416959 1_555
Pt9 Si3 2.526057 1_555
Pt9 Si7 2.586255 1_555
