# generated using pymatgen
data_NaMg30TiO32
_symmetry_space_group_name_H-M   'P 1'
_cell_length_a   8.53871000
_cell_length_b   8.53871000
_cell_length_c   8.55160900
_cell_angle_alpha   90.00000000
_cell_angle_beta   90.00000000
_cell_angle_gamma   90.00000000
_symmetry_Int_Tables_number   1
_chemical_formula_structural   NaMg30TiO32
_chemical_formula_sum   'Na1 Mg30 Ti1 O32'
_cell_volume   623.49412186
_cell_formula_units_Z   1
loop_
 _symmetry_equiv_pos_site_id
 _symmetry_equiv_pos_as_xyz
  1  'x, y, z'
loop_
 _atom_site_type_symbol
 _atom_site_label
 _atom_site_symmetry_multiplicity
 _atom_site_fract_x
 _atom_site_fract_y
 _atom_site_fract_z
 _atom_site_occupancy
  Na  Na0  1  0.50000000  0.50000000  0.00000000  1
  Mg  Mg0  1  0.00000000  0.50000000  0.00000000  1
  Mg  Mg1  1  0.50000000  0.00000000  0.00000000  1
  Mg  Mg2  1  0.00000000  0.00000000  0.50000000  1
  Mg  Mg3  1  0.00000000  0.50000000  0.50000000  1
  Mg  Mg4  1  0.50000000  0.00000000  0.50000000  1
  Mg  Mg5  1  0.50000000  0.50000000  0.50000000  1
  Mg  Mg6  1  0.25487800  0.25487800  0.00000000  1
  Mg  Mg7  1  0.25487800  0.74512200  0.00000000  1
  Mg  Mg8  1  0.74512200  0.25487800  0.00000000  1
  Mg  Mg9  1  0.74512200  0.74512200  0.00000000  1
  Mg  Mg10  1  0.25132600  0.25132600  0.50000000  1
  Mg  Mg11  1  0.25132600  0.74867400  0.50000000  1
  Mg  Mg12  1  0.74867400  0.25132600  0.50000000  1
  Mg  Mg13  1  0.74867400  0.74867400  0.50000000  1
  Mg  Mg14  1  0.00000000  0.25280200  0.25228000  1
  Mg  Mg15  1  0.00000000  0.74719800  0.25228000  1
  Mg  Mg16  1  0.50000000  0.25230600  0.24904100  1
  Mg  Mg17  1  0.50000000  0.74769400  0.24904100  1
  Mg  Mg18  1  0.00000000  0.25280200  0.74772000  1
  Mg  Mg19  1  0.00000000  0.74719800  0.74772000  1
  Mg  Mg20  1  0.50000000  0.25230600  0.75095900  1
  Mg  Mg21  1  0.50000000  0.74769400  0.75095900  1
  Mg  Mg22  1  0.25280200  0.00000000  0.25228000  1
  Mg  Mg23  1  0.25230600  0.50000000  0.24904100  1
  Mg  Mg24  1  0.74719800  0.00000000  0.25228000  1
  Mg  Mg25  1  0.74769400  0.50000000  0.24904100  1
  Mg  Mg26  1  0.25280200  0.00000000  0.74772000  1
  Mg  Mg27  1  0.25230600  0.50000000  0.75095900  1
  Mg  Mg28  1  0.74719800  0.00000000  0.74772000  1
  Mg  Mg29  1  0.74769400  0.50000000  0.75095900  1
  Ti  Ti0  1  0.00000000  0.00000000  0.00000000  1
  O  O0  1  0.00000000  0.00000000  0.24839200  1
  O  O1  1  0.00000000  0.50000000  0.25084800  1
  O  O2  1  0.50000000  0.00000000  0.25084800  1
  O  O3  1  0.50000000  0.50000000  0.26259000  1
  O  O4  1  0.00000000  0.00000000  0.75160800  1
  O  O5  1  0.00000000  0.50000000  0.74915200  1
  O  O6  1  0.50000000  0.00000000  0.74915200  1
  O  O7  1  0.50000000  0.50000000  0.73741000  1
  O  O8  1  0.24919600  0.24919600  0.24924400  1
  O  O9  1  0.24919600  0.75080400  0.24924400  1
  O  O10  1  0.75080400  0.24919600  0.24924400  1
  O  O11  1  0.75080400  0.75080400  0.24924400  1
  O  O12  1  0.24919600  0.24919600  0.75075600  1
  O  O13  1  0.24919600  0.75080400  0.75075600  1
  O  O14  1  0.75080400  0.24919600  0.75075600  1
  O  O15  1  0.75080400  0.75080400  0.75075600  1
  O  O16  1  0.00000000  0.24233200  0.00000000  1
  O  O17  1  0.00000000  0.75766800  0.00000000  1
  O  O18  1  0.50000000  0.23591700  0.00000000  1
  O  O19  1  0.50000000  0.76408300  0.00000000  1
  O  O20  1  0.00000000  0.24853200  0.50000000  1
  O  O21  1  0.00000000  0.75146800  0.50000000  1
  O  O22  1  0.50000000  0.24737700  0.50000000  1
  O  O23  1  0.50000000  0.75262300  0.50000000  1
  O  O24  1  0.24233200  0.00000000  0.00000000  1
  O  O25  1  0.23591700  0.50000000  0.00000000  1
  O  O26  1  0.75766800  0.00000000  0.00000000  1
  O  O27  1  0.76408300  0.50000000  0.00000000  1
  O  O28  1  0.24853200  0.00000000  0.50000000  1
  O  O29  1  0.24737700  0.50000000  0.50000000  1
  O  O30  1  0.75146800  0.00000000  0.50000000  1
  O  O31  1  0.75262300  0.50000000  0.50000000  1
loop_
_geom_bond_atom_site_label_1
_geom_bond_atom_site_label_2
_geom_bond_distance
_geom_bond_site_symmetry_2
Na0 O7 2.245567 1_554
Na0 O3 2.245567 1_555
Na0 O19 2.254928 1_555
Na0 O27 2.254928 1_555
Na0 O25 2.254928 1_555
Na0 O18 2.254928 1_555
Mg0 O25 2.014427 1_555
Mg0 O27 2.014427 1_455
Mg0 O1 2.145154 1_555
Mg0 O5 2.145154 1_554
Mg0 O16 2.200152 1_555
Mg0 O17 2.200152 1_555
Mg1 O18 2.014427 1_555
Mg1 O19 2.014427 1_545
Mg1 O2 2.145154 1_555
Mg1 O6 2.145154 1_554
Mg1 O24 2.200152 1_555
Mg1 O26 2.200152 1_555
Mg2 O28 2.122143 1_555
Mg2 O20 2.122143 1_555
Mg2 O30 2.122143 1_455
Mg2 O21 2.122143 1_545
Mg2 O4 2.151653 1_555
Mg2 O0 2.151653 1_555
Mg3 O29 2.112280 1_555
Mg3 O31 2.112280 1_455
Mg3 O5 2.130650 1_555
Mg3 O1 2.130650 1_555
Mg3 O21 2.147212 1_555
Mg3 O20 2.147212 1_555
Mg4 O22 2.112280 1_555
Mg4 O23 2.112280 1_545
Mg4 O6 2.130650 1_555
Mg4 O2 2.130650 1_555
Mg4 O30 2.147212 1_555
Mg4 O28 2.147212 1_555
Mg5 O3 2.030237 1_555
Mg5 O7 2.030237 1_555
Mg5 O23 2.157075 1_555
Mg5 O31 2.157075 1_555
Mg5 O22 2.157075 1_555
Mg5 O29 2.157075 1_555
Mg6 O25 2.099278 1_555
Mg6 O18 2.099278 1_555
Mg6 O8 2.132541 1_555
Mg6 O12 2.132541 1_554
Mg6 O24 2.178964 1_555
Mg6 O16 2.178964 1_555
Mg7 O25 2.099278 1_555
Mg7 O19 2.099278 1_555
Mg7 O9 2.132541 1_555
Mg7 O13 2.132541 1_554
Mg7 O24 2.178964 1_565
Mg7 O17 2.178964 1_555
Mg8 O18 2.099278 1_555
Mg8 O27 2.099278 1_555
Mg8 O10 2.132541 1_555
Mg8 O14 2.132541 1_554
Mg8 O26 2.178964 1_555
Mg8 O16 2.178964 1_655
Mg9 O19 2.099278 1_555
Mg9 O27 2.099278 1_555
Mg9 O15 2.132541 1_554
Mg9 O11 2.132541 1_555
Mg9 O26 2.178964 1_565
Mg9 O17 2.178964 1_655
Mg10 O22 2.123623 1_555
Mg10 O29 2.123623 1_555
Mg10 O12 2.144522 1_555
Mg10 O8 2.144522 1_555
Mg10 O28 2.146132 1_555
Mg10 O20 2.146132 1_555
Mg11 O23 2.123623 1_555
Mg11 O29 2.123623 1_555
Mg11 O13 2.144522 1_555
Mg11 O9 2.144522 1_555
Mg11 O21 2.146132 1_555
Mg11 O28 2.146132 1_565
Mg12 O22 2.123623 1_555
Mg12 O31 2.123623 1_555
Mg12 O10 2.144522 1_555
Mg12 O14 2.144522 1_555
Mg12 O30 2.146132 1_555
Mg12 O20 2.146132 1_655
Mg13 O23 2.123623 1_555
Mg13 O31 2.123623 1_555
Mg13 O11 2.144522 1_555
Mg13 O15 2.144522 1_555
Mg13 O30 2.146132 1_565
Mg13 O21 2.146132 1_655
Mg14 O1 2.110788 1_555
Mg14 O20 2.118718 1_555
Mg14 O8 2.128194 1_555
Mg14 O10 2.128194 1_455
Mg14 O0 2.158859 1_555
Mg14 O16 2.159251 1_555
Mg15 O1 2.110788 1_555
Mg15 O21 2.118718 1_555
Mg15 O9 2.128194 1_555
Mg15 O11 2.128194 1_455
Mg15 O0 2.158859 1_565
Mg15 O17 2.159251 1_555
Mg16 O3 2.118159 1_555
Mg16 O18 2.134294 1_555
Mg16 O10 2.141708 1_555
Mg16 O8 2.141708 1_555
Mg16 O22 2.146516 1_555
Mg16 O2 2.154423 1_555
Mg17 O3 2.118159 1_555
Mg17 O19 2.134294 1_555
Mg17 O11 2.141708 1_555
Mg17 O9 2.141708 1_555
Mg17 O23 2.146516 1_555
Mg17 O2 2.154423 1_565
Mg18 O5 2.110788 1_555
Mg18 O20 2.118718 1_555
Mg18 O12 2.128194 1_555
Mg18 O14 2.128194 1_455
Mg18 O4 2.158859 1_555
Mg18 O16 2.159251 1_556
Mg19 O5 2.110788 1_555
Mg19 O21 2.118718 1_555
Mg19 O13 2.128194 1_555
Mg19 O15 2.128194 1_455
Mg19 O4 2.158859 1_565
Mg19 O17 2.159251 1_556
Mg20 O7 2.118159 1_555
Mg20 O18 2.134294 1_556
Mg20 O14 2.141708 1_555
Mg20 O12 2.141708 1_555
Mg20 O22 2.146516 1_555
Mg20 O6 2.154423 1_555
Mg21 O7 2.118159 1_555
Mg21 O19 2.134294 1_556
Mg21 O15 2.141708 1_555
Mg21 O13 2.141708 1_555
Mg21 O23 2.146516 1_555
Mg21 O6 2.154423 1_565
Mg22 O2 2.110788 1_555
Mg22 O28 2.118718 1_555
Mg22 O8 2.128194 1_555
Mg22 O9 2.128194 1_545
Mg22 O0 2.158859 1_555
Mg22 O24 2.159251 1_555
Mg23 O3 2.118159 1_555
Mg23 O25 2.134294 1_555
Mg23 O9 2.141708 1_555
Mg23 O8 2.141708 1_555
Mg23 O29 2.146516 1_555
Mg23 O1 2.154423 1_555
Mg24 O2 2.110788 1_555
Mg24 O30 2.118718 1_555
Mg24 O10 2.128194 1_555
Mg24 O11 2.128194 1_545
Mg24 O0 2.158859 1_655
Mg24 O26 2.159251 1_555
Mg25 O3 2.118159 1_555
Mg25 O27 2.134294 1_555
Mg25 O11 2.141708 1_555
Mg25 O10 2.141708 1_555
Mg25 O31 2.146516 1_555
Mg25 O1 2.154423 1_655
Mg26 O6 2.110788 1_555
Mg26 O28 2.118718 1_555
Mg26 O12 2.128194 1_555
Mg26 O13 2.128194 1_545
Mg26 O4 2.158859 1_555
Mg26 O24 2.159251 1_556
Mg27 O7 2.118159 1_555
Mg27 O25 2.134294 1_556
Mg27 O13 2.141708 1_555
Mg27 O12 2.141708 1_555
Mg27 O29 2.146516 1_555
Mg27 O5 2.154423 1_555
Mg28 O6 2.110788 1_555
Mg28 O30 2.118718 1_555
Mg28 O14 2.128194 1_555
Mg28 O15 2.128194 1_545
Mg28 O4 2.158859 1_655
Mg28 O26 2.159251 1_556
Mg29 O7 2.118159 1_555
Mg29 O27 2.134294 1_556
Mg29 O15 2.141708 1_555
Mg29 O14 2.141708 1_555
Mg29 O31 2.146516 1_555
Mg29 O5 2.154423 1_655
O0 Ti0 2.124151 1_555
O4 Ti0 2.124151 1_556
O16 Ti0 2.069203 1_555
O17 Ti0 2.069203 1_565
O24 Ti0 2.069203 1_555
O26 Ti0 2.069203 1_655
