# generated using pymatgen
data_NpPt3
_symmetry_space_group_name_H-M   'P 1'
_cell_length_a   5.85107072
_cell_length_b   5.85139770
_cell_length_c   9.63082649
_cell_angle_alpha   89.95994257
_cell_angle_beta   89.94405651
_cell_angle_gamma   120.07316054
_symmetry_Int_Tables_number   1
_chemical_formula_structural   NpPt3
_chemical_formula_sum   'Np4 Pt12'
_cell_volume   285.34344334
_cell_formula_units_Z   4
loop_
 _symmetry_equiv_pos_site_id
 _symmetry_equiv_pos_as_xyz
  1  'x, y, z'
loop_
 _atom_site_type_symbol
 _atom_site_label
 _atom_site_symmetry_multiplicity
 _atom_site_fract_x
 _atom_site_fract_y
 _atom_site_fract_z
 _atom_site_occupancy
  Np  Np0  1  -0.00000000  -0.00000000  0.50000000  1
  Np  Np1  1  -0.00000000  -0.00000000  0.00000000  1
  Np  Np2  1  0.33330892  0.66669350  0.25003866  1
  Np  Np3  1  0.66669108  0.33330650  0.74996134  1
  Pt  Pt0  1  0.50000000  0.50000000  0.50000000  1
  Pt  Pt1  1  0.50000000  -0.00000000  0.50000000  1
  Pt  Pt2  1  -0.00000000  0.50000000  0.50000000  1
  Pt  Pt3  1  0.50000000  0.50000000  0.00000000  1
  Pt  Pt4  1  0.50000000  -0.00000000  0.00000000  1
  Pt  Pt5  1  -0.00000000  0.50000000  0.00000000  1
  Pt  Pt6  1  0.82727080  0.65458291  0.25004772  1
  Pt  Pt7  1  0.34536985  0.17274031  0.24997863  1
  Pt  Pt8  1  0.82695471  0.17302167  0.24999843  1
  Pt  Pt9  1  0.17272920  0.34541709  0.74995228  1
  Pt  Pt10  1  0.65463015  0.82725969  0.75002137  1
  Pt  Pt11  1  0.17304529  0.82697833  0.75000157  1
loop_
_geom_bond_atom_site_label_1
_geom_bond_atom_site_label_2
_geom_bond_distance
_geom_bond_site_symmetry_2
Np0 Pt0 2.922381 1_445
Np0 Pt0 2.922381 1_555
Np0 Pt1 2.925535 1_455
Np0 Pt1 2.925535 1_555
Np0 Pt2 2.925699 1_555
Np0 Pt2 2.925699 1_545
Np0 Pt10 2.973768 1_445
Np0 Pt7 2.973768 1_555
Np0 Pt6 2.977538 1_445
Np0 Pt9 2.977538 1_555
Np0 Pt11 2.979256 1_545
Np0 Pt8 2.979256 1_455
Np1 Pt3 2.922381 1_445
Np1 Pt3 2.922381 1_555
Np1 Pt4 2.925535 1_455
Np1 Pt4 2.925535 1_555
Np1 Pt5 2.925699 1_555
Np1 Pt5 2.925699 1_545
Np1 Pt9 2.974398 1_554
Np1 Pt6 2.974398 1_445
Np1 Pt10 2.977771 1_444
Np1 Pt7 2.977771 1_555
Np1 Pt8 2.978777 1_455
Np1 Pt11 2.978777 1_544
Np2 Pt8 2.923016 1_565
Np2 Pt8 2.923161 1_455
Np2 Pt6 2.925997 1_455
Np2 Pt7 2.926317 1_555
Np2 Pt7 2.926355 1_565
Np2 Pt6 2.926359 1_555
Np2 Pt2 2.937874 1_555
Np2 Pt4 2.938752 1_565
Np2 Pt0 2.941533 1_555
Np2 Pt3 2.941700 1_555
Np2 Pt1 2.941935 1_565
Np2 Pt5 2.942719 1_555
Np3 Pt11 2.923016 1_545
Np3 Pt11 2.923161 1_655
Np3 Pt9 2.925997 1_655
Np3 Pt10 2.926317 1_555
Np3 Pt10 2.926355 1_545
Np3 Pt9 2.926359 1_555
Np3 Pt2 2.937874 1_655
Np3 Pt4 2.938752 1_556
Np3 Pt0 2.941533 1_555
Np3 Pt3 2.941700 1_556
Np3 Pt1 2.941935 1_555
Np3 Pt5 2.942719 1_656
Pt0 Pt6 2.920933 1_555
Pt0 Pt9 2.920933 1_555
Pt0 Pt10 2.925389 1_555
Pt0 Pt7 2.925389 1_555
Pt0 Pt2 2.925535 1_555
Pt0 Pt2 2.925535 1_655
Pt0 Pt1 2.925699 1_555
Pt0 Pt1 2.925699 1_565
Pt1 Pt11 2.920332 1_545
Pt1 Pt8 2.920332 1_555
Pt1 Pt2 2.922381 1_655
Pt1 Pt2 2.922381 1_545
Pt1 Pt7 2.925004 1_555
Pt1 Pt10 2.925004 1_545
Pt2 Pt6 2.924433 1_455
Pt2 Pt9 2.924433 1_555
Pt2 Pt8 2.924490 1_455
Pt3 Pt7 2.921389 1_555
Pt3 Pt5 2.925535 1_555
Pt3 Pt5 2.925535 1_655
Pt3 Pt4 2.925699 1_565
Pt3 Pt4 2.925699 1_555
Pt3 Pt9 2.925812 1_554
Pt3 Pt6 2.925812 1_555
Pt4 Pt5 2.922381 1_545
Pt4 Pt5 2.922381 1_655
Pt4 Pt7 2.924374 1_555
Pt4 Pt8 2.924552 1_555
Pt5 Pt8 2.920633 1_455
Pt5 Pt9 2.924606 1_554
Pt5 Pt6 2.924606 1_455
Pt6 Pt7 2.816427 1_555
Pt6 Pt8 2.816880 1_555
Pt6 Pt7 3.028335 1_665
Pt6 Pt8 3.034518 1_565
Pt7 Pt8 2.816963 1_555
Pt7 Pt8 3.034109 1_455
Pt10 Pt9 2.816427 1_555
Pt10 Pt11 2.816963 1_555
Pt10 Pt3 2.921389 1_556
Pt10 Pt4 2.924374 1_566
Pt10 Pt9 3.028335 1_665
Pt10 Pt11 3.034109 1_655
Pt11 Pt9 2.816880 1_555
Pt11 Pt5 2.920633 1_556
Pt11 Pt2 2.924490 1_555
Pt11 Pt4 2.924552 1_566
Pt11 Pt9 3.034518 1_565
