# generated using pymatgen
data_Zr5(VSb3)6
_symmetry_space_group_name_H-M   'P 1'
_cell_length_a   6.56730447
_cell_length_b   6.56730447
_cell_length_c   30.44172905
_cell_angle_alpha   96.19236113
_cell_angle_beta   96.19236113
_cell_angle_gamma   90.00000000
_symmetry_Int_Tables_number   1
_chemical_formula_structural   Zr5(VSb3)6
_chemical_formula_sum   'Zr10 V12 Sb36'
_cell_volume   1297.56992714
_cell_formula_units_Z   2
loop_
 _symmetry_equiv_pos_site_id
 _symmetry_equiv_pos_as_xyz
  1  'x, y, z'
loop_
 _atom_site_type_symbol
 _atom_site_label
 _atom_site_symmetry_multiplicity
 _atom_site_fract_x
 _atom_site_fract_y
 _atom_site_fract_z
 _atom_site_occupancy
  Zr  Zr0  1  0.36229672  0.36229672  0.72459344  1
  Zr  Zr1  1  0.63770328  0.63770328  0.27540656  1
  Zr  Zr2  1  0.88770328  0.38770328  0.77540656  1
  Zr  Zr3  1  0.61229672  0.11229672  0.22459344  1
  Zr  Zr4  1  0.08725449  0.08725449  0.17450898  1
  Zr  Zr5  1  0.91274551  0.91274551  0.82549102  1
  Zr  Zr6  1  0.16274551  0.66274551  0.32549102  1
  Zr  Zr7  1  0.33725449  0.83725449  0.67450898  1
  Zr  Zr8  1  0.00000000  -0.00000000  -0.00000000  1
  Zr  Zr9  1  0.25000000  0.75000000  0.50000000  1
  V  V0  1  0.45522665  0.45522665  0.91045330  1
  V  V1  1  0.54477335  0.54477335  0.08954670  1
  V  V2  1  0.79477335  0.29477335  0.58954670  1
  V  V3  1  0.70522665  0.20522665  0.41045330  1
  V  V4  1  0.27267604  0.27267604  0.54535209  1
  V  V5  1  0.72732396  0.72732396  0.45464791  1
  V  V6  1  0.97732396  0.47732396  0.95464791  1
  V  V7  1  0.52267604  0.02267604  0.04535209  1
  V  V8  1  0.18443551  0.18443551  0.36887102  1
  V  V9  1  0.81556449  0.81556449  0.63112898  1
  V  V10  1  0.06556449  0.56556449  0.13112898  1
  V  V11  1  0.43443551  0.93443551  0.86887102  1
  Sb  Sb0  1  0.47411744  0.38963767  0.47162609  1
  Sb  Sb1  1  0.99750865  0.08198842  0.47162609  1
  Sb  Sb2  1  0.91801158  0.52588256  0.52837391  1
  Sb  Sb3  1  0.77588256  0.66801158  0.02837391  1
  Sb  Sb4  1  0.61036233  0.00249135  0.52837391  1
  Sb  Sb5  1  0.25249135  0.36036233  0.02837391  1
  Sb  Sb6  1  0.33198842  0.74750865  0.97162609  1
  Sb  Sb7  1  0.63963767  0.22411744  0.97162609  1
  Sb  Sb8  1  0.27319593  0.37500000  0.25000000  1
  Sb  Sb9  1  0.97680407  0.87500000  0.25000000  1
  Sb  Sb10  1  0.12500000  0.72680407  0.75000000  1
  Sb  Sb11  1  0.62500000  0.02319593  0.75000000  1
  Sb  Sb12  1  0.48195246  0.62535944  0.58320895  1
  Sb  Sb13  1  0.10125650  0.95784951  0.58320895  1
  Sb  Sb14  1  0.04215049  0.51804754  0.41679105  1
  Sb  Sb15  1  0.76804754  0.79215049  0.91679105  1
  Sb  Sb16  1  0.37464056  0.89874350  0.41679105  1
  Sb  Sb17  1  0.14874350  0.12464056  0.91679105  1
  Sb  Sb18  1  0.20784951  0.85125650  0.08320895  1
  Sb  Sb19  1  0.87535944  0.23195246  0.08320895  1
  Sb  Sb20  1  0.41104998  0.25811758  0.13511165  1
  Sb  Sb21  1  0.72406167  0.87699407  0.13511165  1
  Sb  Sb22  1  0.12300593  0.58895002  0.86488835  1
  Sb  Sb23  1  0.83895002  0.87300593  0.36488835  1
  Sb  Sb24  1  0.74188242  0.27593833  0.86488835  1
  Sb  Sb25  1  0.52593833  0.49188242  0.36488835  1
  Sb  Sb26  1  0.12699407  0.47406167  0.63511165  1
  Sb  Sb27  1  0.50811758  0.16104998  0.63511165  1
  Sb  Sb28  1  0.55042174  0.62790711  0.80814571  1
  Sb  Sb29  1  0.25772397  0.18023861  0.80814571  1
  Sb  Sb30  1  0.81976139  0.44957826  0.19185429  1
  Sb  Sb31  1  0.69957826  0.56976139  0.69185429  1
  Sb  Sb32  1  0.37209289  0.74227603  0.19185429  1
  Sb  Sb33  1  0.99227603  0.12209289  0.69185429  1
  Sb  Sb34  1  0.43023861  0.00772397  0.30814571  1
  Sb  Sb35  1  0.87790711  0.30042174  0.30814571  1
loop_
_geom_bond_atom_site_label_1
_geom_bond_atom_site_label_2
_geom_bond_distance
_geom_bond_site_symmetry_2
Sb0 V3 2.713180 1_555
Sb0 Zr9 2.889033 1_555
Sb0 V5 2.895366 1_555
Sb0 V4 2.896496 1_555
Sb1 V3 2.713180 1_555
Sb1 Zr9 2.889033 1_645
Sb1 V5 2.895366 1_545
Sb1 V4 2.896496 1_655
Sb2 V2 2.713180 1_555
Sb2 Zr9 2.889033 1_655
Sb2 V4 2.895366 1_655
Sb2 V5 2.896496 1_555
Sb3 V1 2.713180 1_555
Sb3 Zr8 2.889033 1_665
Sb3 V7 2.895366 1_565
Sb3 V6 2.896496 1_554
Sb4 V2 2.713180 1_555
Sb4 Zr9 2.889033 1_545
Sb4 V4 2.895366 1_555
Sb4 V5 2.896496 1_545
Sb5 V1 2.713180 1_555
Sb5 Zr8 2.889033 1_555
Sb5 V7 2.895366 1_555
Sb5 V6 2.896496 1_454
Sb6 V0 2.713180 1_555
Sb6 Zr8 2.889033 1_566
Sb6 V6 2.895366 1_455
Sb6 V7 2.896496 1_566
Sb7 V0 2.713180 1_555
Sb7 Zr8 2.889033 1_656
Sb7 V6 2.895366 1_555
Sb7 V7 2.896496 1_556
Sb8 Zr1 2.935612 1_555
Sb8 Zr3 2.935612 1_555
Sb8 Zr4 2.966659 1_555
Sb8 Zr6 2.966659 1_555
Sb9 Zr3 2.935612 1_565
Sb9 Zr1 2.935612 1_555
Sb9 Zr6 2.966659 1_655
Sb9 Zr4 2.966659 1_665
Sb10 Zr0 2.935612 1_555
Sb10 Zr2 2.935612 1_455
Sb10 Zr5 2.966659 1_455
Sb10 Zr7 2.966659 1_555
Sb11 Zr2 2.935612 1_555
Sb11 Zr0 2.935612 1_555
Sb11 Zr7 2.966659 1_545
Sb11 Zr5 2.966659 1_545
Sb12 V9 2.721381 1_555
Sb12 V4 2.768423 1_555
Sb12 V2 2.996013 1_555
Sb12 Zr9 3.003594 1_555
Sb12 Zr7 3.209298 1_555
Sb13 V9 2.721382 1_455
Sb13 V4 2.768423 1_565
Sb13 V2 2.996013 1_465
Sb13 Zr9 3.003593 1_555
Sb13 Zr7 3.209298 1_555
Sb14 V8 2.721381 1_555
Sb14 V5 2.768423 1_455
Sb14 V3 2.996013 1_455
Sb14 Zr9 3.003594 1_555
Sb14 Zr6 3.209298 1_555
Sb15 V11 2.721381 1_555
Sb15 V6 2.768423 1_555
Sb15 V0 2.996013 1_555
Sb15 Zr8 3.003594 1_666
Sb15 Zr5 3.209298 1_555
Sb16 V8 2.721382 1_565
Sb16 V5 2.768423 1_555
Sb16 V3 2.996013 1_565
Sb16 Zr9 3.003593 1_555
Sb16 Zr6 3.209298 1_555
Sb17 V11 2.721382 1_545
Sb17 V6 2.768423 1_455
Sb17 V0 2.996013 1_555
Sb17 Zr8 3.003593 1_556
Sb17 Zr5 3.209298 1_445
Sb18 V10 2.721382 1_555
Sb18 V7 2.768423 1_565
Sb18 V1 2.996013 1_555
Sb18 Zr8 3.003593 1_565
Sb18 Zr4 3.209298 1_565
Sb19 V10 2.721381 1_655
Sb19 V7 2.768423 1_555
Sb19 V1 2.996013 1_555
Sb19 Zr8 3.003594 1_655
Sb19 Zr4 3.209298 1_655
Sb20 V1 2.658075 1_555
Sb20 Zr4 2.838991 1_555
Sb20 V10 3.038563 1_555
Sb20 Zr3 3.141658 1_555
Sb20 V7 3.148822 1_555
Sb21 V1 2.658075 1_555
Sb21 Zr4 2.838991 1_665
Sb21 V10 3.038563 1_655
Sb21 Zr3 3.141658 1_565
Sb21 V7 3.148822 1_565
Sb22 V0 2.658075 1_555
Sb22 Zr5 2.838991 1_455
Sb22 V11 3.038563 1_555
Sb22 Zr2 3.141658 1_455
Sb22 V6 3.148822 1_455
Sb23 V3 2.658075 1_565
Sb23 Zr6 2.838991 1_655
Sb23 V8 3.038563 1_665
Sb23 Zr1 3.141658 1_555
Sb23 V5 3.148822 1_555
Sb24 V0 2.658075 1_555
Sb24 Zr5 2.838991 1_545
Sb24 V11 3.038563 1_545
Sb24 Zr2 3.141658 1_555
Sb24 V6 3.148822 1_555
Sb25 V3 2.658075 1_555
Sb25 Zr6 2.838991 1_555
Sb25 V8 3.038563 1_555
Sb25 Zr1 3.141658 1_555
Sb25 V5 3.148822 1_555
Sb26 V2 2.658075 1_455
Sb26 Zr7 2.838991 1_555
Sb26 V9 3.038563 1_455
Sb26 Zr0 3.141658 1_555
Sb26 V4 3.148822 1_555
Sb27 V2 2.658075 1_555
Sb27 Zr7 2.838991 1_545
Sb27 V9 3.038563 1_545
Sb27 Zr0 3.141658 1_555
Sb27 V4 3.148822 1_555
Sb28 V11 2.747884 1_555
Sb28 Zr2 2.919795 1_555
Sb28 Zr5 2.992635 1_555
Sb28 Zr0 3.066486 1_555
Sb29 V11 2.747884 1_545
Sb29 Zr2 2.919795 1_455
Sb29 Zr5 2.992635 1_445
Sb29 Zr0 3.066486 1_555
Sb30 V10 2.747884 1_655
Sb30 Zr3 2.919795 1_555
Sb30 Zr4 2.992635 1_655
Sb30 Zr1 3.066486 1_555
Sb31 V9 2.747884 1_555
Sb31 Zr0 2.919795 1_555
Sb31 Zr7 2.992635 1_555
Sb31 Zr2 3.066486 1_555
Sb32 V10 2.747884 1_555
Sb32 Zr3 2.919795 1_565
Sb32 Zr4 2.992635 1_565
Sb32 Zr1 3.066486 1_555
Sb33 V9 2.747884 1_545
Sb33 Zr0 2.919795 1_655
Sb33 Zr7 2.992635 1_645
Sb33 Zr2 3.066486 1_555
Sb34 V8 2.747884 1_555
Sb34 Zr1 2.919795 1_545
Sb34 Zr6 2.992635 1_545
Sb34 Zr3 3.066486 1_555
Sb35 V8 2.747884 1_655
Sb35 Zr1 2.919795 1_555
Sb35 Zr6 2.992635 1_655
Sb35 Zr3 3.066486 1_555
