# generated using pymatgen
data_Na4Be2Si6SnO20
_symmetry_space_group_name_H-M   'P 1'
_cell_length_a   11.17394605
_cell_length_b   11.17394605
_cell_length_c   12.01257325
_cell_angle_alpha   64.69432440
_cell_angle_beta   64.69432440
_cell_angle_gamma   39.28938937
_symmetry_Int_Tables_number   1
_chemical_formula_structural   Na4Be2Si6SnO20
_chemical_formula_sum   'Na8 Be4 Si12 Sn2 O40'
_cell_volume   846.30723473
_cell_formula_units_Z   2
loop_
 _symmetry_equiv_pos_site_id
 _symmetry_equiv_pos_as_xyz
  1  'x, y, z'
loop_
 _atom_site_type_symbol
 _atom_site_label
 _atom_site_symmetry_multiplicity
 _atom_site_fract_x
 _atom_site_fract_y
 _atom_site_fract_z
 _atom_site_occupancy
  Na  Na0  1  0.94220400  0.44958500  0.94940700  1
  Na  Na1  1  0.44958500  0.94220400  0.44940700  1
  Na  Na2  1  0.54818200  0.04636800  0.55310900  1
  Na  Na3  1  0.04636800  0.54818200  0.05310900  1
  Na  Na4  1  0.45736200  0.52638500  0.97641700  1
  Na  Na5  1  0.52638500  0.45736200  0.47641700  1
  Na  Na6  1  0.99965600  0.99401800  0.98343600  1
  Na  Na7  1  0.99401800  0.99965600  0.48343600  1
  Be  Be0  1  0.84384800  0.65469800  0.49643800  1
  Be  Be1  1  0.65469800  0.84384800  0.99643800  1
  Be  Be2  1  0.15567100  0.34231500  0.49681000  1
  Be  Be3  1  0.34231500  0.15567000  0.99681000  1
  Si  Si0  1  0.68953400  0.60057000  0.74302400  1
  Si  Si1  1  0.60057000  0.68953400  0.24302400  1
  Si  Si2  1  0.40268900  0.30480300  0.74991600  1
  Si  Si3  1  0.30480300  0.40268900  0.24991600  1
  Si  Si4  1  0.09506800  0.19457600  0.74339100  1
  Si  Si5  1  0.19457600  0.09506800  0.24339100  1
  Si  Si6  1  0.81076200  0.89595400  0.75131200  1
  Si  Si7  1  0.89595400  0.81076200  0.25131200  1
  Si  Si8  1  0.12017700  0.61203600  0.54968200  1
  Si  Si9  1  0.61203600  0.12017700  0.04968200  1
  Si  Si10  1  0.38006400  0.88434200  0.94334700  1
  Si  Si11  1  0.88434200  0.38006400  0.44334700  1
  Sn  Sn0  1  0.74471700  0.25464000  0.74461200  1
  Sn  Sn1  1  0.25464000  0.74471700  0.24461200  1
  O  O0  1  0.88636900  0.97926300  0.74611000  1
  O  O1  1  0.97926300  0.88636900  0.24611000  1
  O  O2  1  0.48532900  0.38406800  0.73349000  1
  O  O3  1  0.38406800  0.48532900  0.23349000  1
  O  O4  1  0.67674500  0.73698500  0.61362000  1
  O  O5  1  0.73698500  0.67674500  0.11362000  1
  O  O6  1  0.23641700  0.17505500  0.61485800  1
  O  O7  1  0.17505500  0.23641700  0.11485800  1
  O  O8  1  0.93327100  0.79161100  0.62684800  1
  O  O9  1  0.79161100  0.93327100  0.12684800  1
  O  O10  1  0.56932100  0.71232900  0.86220800  1
  O  O11  1  0.71232900  0.56932100  0.36220800  1
  O  O12  1  0.58908900  0.08153600  0.71790500  1
  O  O13  1  0.08153600  0.58908900  0.21790500  1
  O  O14  1  0.05214300  0.55363900  0.50796600  1
  O  O15  1  0.55363900  0.05214300  0.00796600  1
  O  O16  1  0.68471900  0.21189000  0.93951100  1
  O  O17  1  0.21189000  0.68471900  0.43951100  1
  O  O18  1  0.00868600  0.12031500  0.75510500  1
  O  O19  1  0.12031500  0.00868600  0.25510500  1
  O  O20  1  0.60756500  0.52090400  0.75594700  1
  O  O21  1  0.52090400  0.60756500  0.25594700  1
  O  O22  1  0.26347700  0.32136300  0.87912000  1
  O  O23  1  0.32136300  0.26347700  0.37912000  1
  O  O24  1  0.82349600  0.75748400  0.87901400  1
  O  O25  1  0.75748400  0.82349600  0.37901400  1
  O  O26  1  0.20335100  0.07543500  0.86501600  1
  O  O27  1  0.07543500  0.20335100  0.36501600  1
  O  O28  1  0.29177100  0.41936000  0.63082200  1
  O  O29  1  0.41936000  0.29177100  0.13082200  1
  O  O30  1  0.91181200  0.41704100  0.77447400  1
  O  O31  1  0.41704100  0.91181200  0.27447400  1
  O  O32  1  0.94530700  0.44396800  0.48686200  1
  O  O33  1  0.44396800  0.94530700  0.98686200  1
  O  O34  1  0.79964600  0.29800500  0.55045800  1
  O  O35  1  0.29800500  0.79964600  0.05045800  1
  O  O36  1  0.12376400  0.73060700  0.89576000  1
  O  O37  1  0.73060700  0.12376400  0.39576000  1
  O  O38  1  0.31306500  0.81557300  0.59780600  1
  O  O39  1  0.81557300  0.31306500  0.09780600  1
loop_
_geom_bond_atom_site_label_1
_geom_bond_atom_site_label_2
_geom_bond_distance
_geom_bond_site_symmetry_2
Na0 O24 2.391436 1_555
Na0 O30 2.473447 1_555
Na0 O22 2.476762 1_655
Na0 O39 2.523296 1_556
Na0 O5 2.645026 1_556
Na0 O7 2.678426 1_656
Na1 O25 2.391436 1_555
Na1 O31 2.473447 1_555
Na1 O23 2.476762 1_565
Na1 O38 2.523296 1_555
Na1 O4 2.645026 1_555
Na1 O6 2.678426 1_565
Na2 O4 2.366491 1_545
Na2 O6 2.387990 1_555
Na2 O12 2.449269 1_555
Na2 O37 2.552094 1_555
Na2 O25 2.702001 1_545
Na2 O23 2.711756 1_555
Na3 O5 2.366491 1_455
Na3 O7 2.387990 1_555
Na3 O13 2.449269 1_555
Na3 O36 2.552094 1_554
Na3 O24 2.702001 1_454
Na3 O22 2.711756 1_554
Na4 O16 2.355771 1_555
Na4 O35 2.415935 1_556
Na4 O20 2.452404 1_555
Na4 O29 2.717739 1_556
Na4 O3 2.761509 1_556
Na4 O10 2.807763 1_555
Na4 O36 2.841061 1_555
Na5 O17 2.355771 1_555
Na5 O34 2.415935 1_555
Na5 O21 2.452404 1_555
Na5 O28 2.717739 1_555
Na5 O2 2.761509 1_555
Na5 O11 2.807763 1_555
Na5 O37 2.841061 1_555
Na6 O16 2.411870 1_565
Na6 O35 2.463953 1_656
Na6 O18 2.489909 1_665
Na6 O36 2.603644 1_655
Na6 O9 2.617612 1_556
Na6 O26 2.713418 1_665
Na6 O1 2.831984 1_556
Na6 O39 3.041095 1_566
Na7 O17 2.411870 1_655
Na7 O34 2.463953 1_565
Na7 O19 2.489909 1_665
Na7 O37 2.603644 1_565
Na7 O8 2.617612 1_555
Na7 O27 2.713418 1_665
Na7 O0 2.831984 1_555
Na7 O38 3.041095 1_655
Be0 O4 1.585985 1_555
Be0 O25 1.596953 1_555
Be0 O14 1.668840 1_655
Be0 O32 1.682545 1_555
Be1 O5 1.585985 1_556
Be1 O24 1.596953 1_555
Be1 O15 1.668840 1_566
Be1 O33 1.682545 1_555
Be2 O23 1.582710 1_555
Be2 O6 1.592425 1_555
Be2 O32 1.679583 1_455
Be2 O14 1.685739 1_555
Be3 O22 1.582714 1_555
Be3 O7 1.592426 1_556
Be3 O33 1.679573 1_545
Be3 O15 1.685743 1_556
O0 Si6 1.645199 1_555
O0 Sn0 2.100454 1_565
O1 Si7 1.645199 1_555
O1 Sn1 2.100454 1_655
O2 Si2 1.623860 1_555
O2 Sn0 2.046340 1_555
O3 Si3 1.623860 1_555
O3 Sn1 2.046340 1_555
O4 Si0 1.608528 1_555
O5 Si1 1.608528 1_555
O6 Si4 1.611207 1_555
O7 Si5 1.611207 1_555
O8 Si8 1.641825 1_655
O8 Si6 1.654908 1_555
O9 Si9 1.641825 1_565
O9 Si7 1.654908 1_555
O10 Si10 1.632229 1_555
O10 Si0 1.643603 1_555
O11 Si11 1.632229 1_555
O11 Si1 1.643603 1_555
O12 Si6 1.668574 1_545
O12 Si2 1.673949 1_555
O13 Si7 1.668574 1_455
O13 Si3 1.673949 1_555
O14 Si8 1.621077 1_555
O15 Si9 1.621077 1_555
O16 Si9 1.634406 1_556
O16 Sn0 2.087299 1_555
O17 Si8 1.634406 1_555
O17 Sn1 2.087299 1_555
O18 Si4 1.632133 1_555
O18 Sn0 2.066876 1_455
O19 Si5 1.632133 1_555
O19 Sn1 2.066876 1_545
O20 Si0 1.636400 1_555
O20 Sn0 2.080664 1_555
O21 Si1 1.636400 1_555
O21 Sn1 2.080664 1_555
O22 Si2 1.612103 1_555
O23 Si3 1.612103 1_555
O24 Si6 1.607541 1_555
O25 Si7 1.607541 1_555
O26 Si10 1.639533 1_545
O26 Si4 1.651058 1_555
O27 Si11 1.639533 1_455
O27 Si5 1.651058 1_555
O28 Si8 1.635684 1_555
O28 Si2 1.647980 1_555
O29 Si9 1.635684 1_555
O29 Si3 1.647980 1_555
O30 Si4 1.665056 1_655
O30 Si0 1.665151 1_555
O31 Si5 1.665056 1_565
O31 Si1 1.665151 1_555
O32 Si11 1.619771 1_555
O33 Si10 1.619771 1_555
O34 Si11 1.638771 1_555
O34 Sn0 2.078829 1_555
O35 Si10 1.638771 1_554
O35 Sn1 2.078829 1_555
