# generated using pymatgen
data_MgFe6Sb10(IO3)6
_symmetry_space_group_name_H-M   'P 1'
_cell_length_a   8.11277696
_cell_length_b   9.41941626
_cell_length_c   12.51776496
_cell_angle_alpha   75.91174489
_cell_angle_beta   84.78660855
_cell_angle_gamma   74.71286402
_symmetry_Int_Tables_number   1
_chemical_formula_structural   MgFe6Sb10(IO3)6
_chemical_formula_sum   'Mg1 Fe6 Sb10 I6 O18'
_cell_volume   894.61278735
_cell_formula_units_Z   1
loop_
 _symmetry_equiv_pos_site_id
 _symmetry_equiv_pos_as_xyz
  1  'x, y, z'
loop_
 _atom_site_type_symbol
 _atom_site_label
 _atom_site_symmetry_multiplicity
 _atom_site_fract_x
 _atom_site_fract_y
 _atom_site_fract_z
 _atom_site_occupancy
  Mg  Mg0  1  0.89542083  0.58251467  0.75798240  1
  Fe  Fe0  1  0.72080775  0.96282195  0.34817655  1
  Fe  Fe1  1  0.29925665  0.00499624  0.64437146  1
  Fe  Fe2  1  0.02411709  0.95919224  0.12476107  1
  Fe  Fe3  1  0.97867404  0.06502684  0.86420033  1
  Fe  Fe4  1  0.62271459  0.08625420  0.06171908  1
  Fe  Fe5  1  0.39294081  0.93306785  0.94487048  1
  Sb  Sb0  1  0.88480404  0.12507296  0.51893286  1
  Sb  Sb1  1  0.11827160  0.78633696  0.50639165  1
  Sb  Sb2  1  0.25626983  0.13833133  0.26233000  1
  Sb  Sb3  1  0.72949294  0.89429452  0.71891788  1
  Sb  Sb4  1  0.52923107  0.23848173  0.75794297  1
  Sb  Sb5  1  0.45677567  0.79069038  0.24298308  1
  Sb  Sb6  1  0.20782451  0.26729480  0.98777913  1
  Sb  Sb7  1  0.79655834  0.75028313  0.01046428  1
  Sb  Sb8  1  0.81684257  0.28741807  0.21322980  1
  Sb  Sb9  1  0.20266738  0.69738199  0.80851762  1
  I  I0  1  0.71024376  0.41671064  0.92867175  1
  I  I1  1  0.26547383  0.66496305  0.06713283  1
  I  I2  1  0.88217400  0.67287436  0.30691935  1
  I  I3  1  0.08622876  0.31796389  0.67939961  1
  I  I4  1  0.50900496  0.25452586  0.42398057  1
  I  I5  1  0.49936238  0.72202746  0.58159777  1
  O  O0  1  0.15312556  0.07105680  0.97854122  1
  O  O1  1  0.85971129  0.94583550  0.01117338  1
  O  O2  1  0.86801714  0.92611078  0.47828337  1
  O  O3  1  0.13768751  0.98701143  0.53770884  1
  O  O4  1  0.78853721  0.09075769  0.18854986  1
  O  O5  1  0.18096005  0.91612099  0.79319402  1
  O  O6  1  0.44590083  0.15778872  0.91254404  1
  O  O7  1  0.54942683  0.87405829  0.09181079  1
  O  O8  1  0.76436199  0.12908655  0.78585335  1
  O  O9  1  0.21572840  0.94348642  0.22699728  1
  O  O10  1  0.49088060  0.05294998  0.70606220  1
  O  O11  1  0.49589901  0.95860970  0.30078630  1
  O  O12  1  0.05487713  0.24969391  0.14001927  1
  O  O13  1  0.96151787  0.69635796  0.86563655  1
  O  O14  1  0.07034376  0.69705637  0.66614639  1
  O  O15  1  0.94737439  0.18382362  0.34975196  1
  O  O16  1  0.63385640  0.84952340  0.88685583  1
  O  O17  1  0.37944862  0.19500277  0.11047985  1
loop_
_geom_bond_atom_site_label_1
_geom_bond_atom_site_label_2
_geom_bond_distance
_geom_bond_site_symmetry_2
Mg0 O13 2.095589 1_555
Mg0 O14 2.099179 1_655
Fe0 O11 1.982200 1_555
Fe0 O2 2.014918 1_555
Fe0 O4 2.173519 1_565
Fe0 I2 2.849226 1_555
Fe0 I4 3.144216 1_565
Fe1 O10 1.993847 1_555
Fe1 O3 2.018610 1_545
Fe1 O5 2.105201 1_545
Fe1 I5 2.977146 1_545
Fe1 I3 3.110409 1_555
Fe2 O9 2.055301 1_555
Fe2 O1 2.082483 1_455
Fe2 O4 2.186678 1_465
Fe2 O0 2.202346 1_564
Fe2 I1 3.144915 1_555
Fe3 O8 1.953831 1_555
Fe3 O0 2.122488 1_655
Fe3 O5 2.139771 1_645
Fe3 O1 2.195410 1_546
Fe3 I3 3.136135 1_655
Fe4 O17 2.082365 1_555
Fe4 O1 2.166076 1_545
Fe4 O7 2.170223 1_545
Fe4 O4 2.187053 1_555
Fe4 O6 2.315855 1_554
Fe5 O16 2.043511 1_555
Fe5 O0 2.106302 1_565
Fe5 O7 2.204194 1_556
Fe5 O6 2.204521 1_565
Fe5 I1 2.999524 1_556
I0 Mg0 2.879350 1_555
I1 Sb9 3.251052 1_554
I1 Sb5 3.393503 1_555
I3 Mg0 2.907930 1_455
I4 Sb0 3.191750 1_555
I5 Sb1 3.174207 1_555
O0 Sb6 2.042787 1_555
O1 Sb7 2.040081 1_555
O2 Sb0 2.097899 1_565
O2 Sb1 2.115168 1_655
O3 Sb1 2.068928 1_555
O3 Sb0 2.118348 1_465
O4 Sb8 2.023726 1_555
O5 Sb9 1.983791 1_555
O6 Sb4 2.024123 1_555
O6 Sb6 2.184775 1_555
O7 Sb5 2.022849 1_555
O7 Sb7 2.321691 1_555
O8 Sb4 1.931844 1_555
O8 Sb3 2.635976 1_545
O9 Sb5 2.093435 1_555
O9 Sb2 2.100510 1_565
O10 Sb3 2.102534 1_545
O10 Sb4 2.109179 1_555
O11 Sb5 1.997423 1_555
O11 Sb2 2.216944 1_565
O12 Sb8 2.042160 1_455
O12 Sb6 2.173428 1_554
O12 Sb2 2.209739 1_555
O13 Sb9 2.022665 1_655
O13 Sb7 2.232625 1_556
O14 Sb1 2.017399 1_555
O14 Sb9 2.163480 1_555
O15 Sb8 1.991552 1_555
O15 Sb0 2.105012 1_555
O15 Sb2 2.612445 1_655
O16 Sb7 2.006649 1_556
O16 Sb3 2.154910 1_555
O17 Sb6 2.034931 1_554
O17 Sb2 2.082989 1_555
