# generated using pymatgen
data_BaNaMg14
_symmetry_space_group_name_H-M   'P 1'
_cell_length_a   6.76641664
_cell_length_b   6.76641602
_cell_length_c   10.50647352
_cell_angle_alpha   90.00000000
_cell_angle_beta   90.00000000
_cell_angle_gamma   120.00000302
_symmetry_Int_Tables_number   1
_chemical_formula_structural   BaNaMg14
_chemical_formula_sum   'Ba1 Na1 Mg14'
_cell_volume   416.58633578
_cell_formula_units_Z   1
loop_
 _symmetry_equiv_pos_site_id
 _symmetry_equiv_pos_as_xyz
  1  'x, y, z'
loop_
 _atom_site_type_symbol
 _atom_site_label
 _atom_site_symmetry_multiplicity
 _atom_site_fract_x
 _atom_site_fract_y
 _atom_site_fract_z
 _atom_site_occupancy
  Ba  Ba0  1  0.16666700  0.33333300  0.62500000  1
  Na  Na0  1  0.16666700  0.33333300  0.12500000  1
  Mg  Mg0  1  0.16709299  0.83354600  0.12500000  1
  Mg  Mg1  1  0.17875974  0.83937937  0.62500000  1
  Mg  Mg2  1  0.66645400  0.33290701  0.12500000  1
  Mg  Mg3  1  0.66062063  0.32124026  0.62500000  1
  Mg  Mg4  1  0.66645400  0.83354600  0.12500000  1
  Mg  Mg5  1  0.66062063  0.83937937  0.62500000  1
  Mg  Mg6  1  0.34101001  0.15898999  0.36573746  1
  Mg  Mg7  1  0.34101001  0.15898999  0.88426254  1
  Mg  Mg8  1  0.34101001  0.68202101  0.36573746  1
  Mg  Mg9  1  0.34101001  0.68202101  0.88426254  1
  Mg  Mg10  1  0.81797899  0.15898999  0.36573746  1
  Mg  Mg11  1  0.81797899  0.15898999  0.88426254  1
  Mg  Mg12  1  0.83333300  0.66666700  0.37818214  1
  Mg  Mg13  1  0.83333300  0.66666700  0.87181786  1
loop_
_geom_bond_atom_site_label_1
_geom_bond_atom_site_label_2
_geom_bond_distance
_geom_bond_site_symmetry_2
Ba0 Mg1 3.383950 1_555
Ba0 Mg5 3.383950 1_555
Ba0 Mg5 3.383950 1_445
Ba0 Mg1 3.383950 1_545
Ba0 Mg3 3.383950 1_455
Ba0 Mg3 3.383950 1_555
Ba0 Mg6 3.405105 1_555
Ba0 Mg7 3.405105 1_555
Ba0 Mg8 3.405112 1_555
Ba0 Mg9 3.405112 1_555
Ba0 Mg10 3.405112 1_455
Ba0 Mg11 3.405112 1_455
Mg0 Mg9 3.168590 1_554
Mg0 Mg8 3.168590 1_555
Mg0 Mg7 3.168596 1_564
Mg0 Mg6 3.168596 1_565
Mg0 Mg13 3.301668 1_454
Mg0 Mg12 3.301668 1_455
Mg0 Mg2 3.378884 1_565
Mg0 Mg4 3.378885 1_555
Mg0 Na0 3.383209 1_565
Mg0 Na0 3.383209 1_555
Mg0 Mg2 3.387532 1_455
Mg0 Mg4 3.387532 1_455
Mg1 Mg3 3.260471 1_565
Mg1 Mg5 3.260472 1_555
Mg1 Mg12 3.289657 1_455
Mg1 Mg13 3.289657 1_455
Mg1 Mg8 3.305713 1_555
Mg1 Mg9 3.305713 1_555
Mg1 Mg6 3.305720 1_565
Mg1 Mg7 3.305720 1_565
Mg1 Mg3 3.505945 1_455
Mg1 Mg5 3.505945 1_455
Mg2 Mg7 3.168597 1_554
Mg2 Mg6 3.168597 1_555
Mg2 Mg4 3.378884 1_545
Mg2 Na0 3.383209 1_555
Mg2 Na0 3.383209 1_655
Mg2 Mg4 3.387532 1_555
Mg3 Mg5 3.260471 1_545
Mg3 Mg6 3.305720 1_555
Mg3 Mg7 3.305720 1_555
Mg3 Mg5 3.505945 1_555
Mg4 Mg8 3.168597 1_555
Mg4 Mg9 3.168597 1_554
Mg4 Na0 3.383209 1_555
Mg4 Na0 3.383209 1_665
Mg5 Mg9 3.305720 1_555
Mg5 Mg8 3.305720 1_555
Mg6 Mg8 3.227371 1_545
Mg6 Na0 3.251505 1_555
Mg6 Mg8 3.539045 1_555
Mg7 Mg9 3.227371 1_545
Mg7 Na0 3.251505 1_556
Mg7 Mg9 3.539045 1_555
Mg8 Na0 3.251512 1_555
Mg9 Na0 3.251512 1_556
Mg10 Mg2 3.168590 1_555
Mg10 Mg4 3.168597 1_545
Mg10 Mg8 3.227371 1_545
Mg10 Mg6 3.227371 1_555
Mg10 Na0 3.251512 1_655
Mg10 Mg3 3.305713 1_555
Mg10 Mg5 3.305720 1_545
Mg10 Mg12 3.386929 1_545
Mg10 Mg12 3.386929 1_555
Mg10 Mg8 3.539045 1_655
Mg10 Mg6 3.539046 1_655
Mg11 Mg2 3.168590 1_556
Mg11 Mg4 3.168597 1_546
Mg11 Mg9 3.227371 1_545
Mg11 Mg7 3.227371 1_555
Mg11 Na0 3.251512 1_656
Mg11 Mg3 3.305713 1_555
Mg11 Mg5 3.305720 1_545
Mg11 Mg13 3.386929 1_545
Mg11 Mg13 3.386929 1_555
Mg11 Mg9 3.539045 1_655
Mg11 Mg7 3.539046 1_655
Mg12 Mg5 3.289650 1_555
Mg12 Mg3 3.289657 1_555
Mg12 Mg4 3.301661 1_555
Mg12 Mg2 3.301668 1_555
Mg12 Mg6 3.386929 1_555
Mg12 Mg6 3.386929 1_665
Mg12 Mg8 3.386929 1_555
Mg12 Mg8 3.386929 1_655
Mg13 Mg5 3.289650 1_555
Mg13 Mg3 3.289657 1_555
Mg13 Mg4 3.301661 1_556
Mg13 Mg2 3.301668 1_556
Mg13 Mg7 3.386929 1_555
Mg13 Mg7 3.386929 1_665
Mg13 Mg9 3.386929 1_555
Mg13 Mg9 3.386929 1_655
