# generated using pymatgen
data_SrLaCrSnO6
_symmetry_space_group_name_H-M   'P 1'
_cell_length_a   5.68714833
_cell_length_b   5.68714833
_cell_length_c   5.68714833
_cell_angle_alpha   60.00000000
_cell_angle_beta   60.00000000
_cell_angle_gamma   60.00000000
_symmetry_Int_Tables_number   1
_chemical_formula_structural   SrLaCrSnO6
_chemical_formula_sum   'Sr1 La1 Cr1 Sn1 O6'
_cell_volume   130.06746283
_cell_formula_units_Z   1
loop_
 _symmetry_equiv_pos_site_id
 _symmetry_equiv_pos_as_xyz
  1  'x, y, z'
loop_
 _atom_site_type_symbol
 _atom_site_label
 _atom_site_symmetry_multiplicity
 _atom_site_fract_x
 _atom_site_fract_y
 _atom_site_fract_z
 _atom_site_occupancy
  Sr  Sr0  1  0.25000000  0.25000000  0.25000000  1
  La  La0  1  0.75000000  0.75000000  0.75000000  1
  Cr  Cr0  1  0.00000000  0.00000000  0.00000000  1
  Sn  Sn0  1  0.50000000  0.50000000  0.50000000  1
  O  O0  1  0.75333319  0.24666681  0.24666681  1
  O  O1  1  0.24666681  0.75333319  0.75333319  1
  O  O2  1  0.75333319  0.24666681  0.75333319  1
  O  O3  1  0.24666681  0.75333319  0.24666681  1
  O  O4  1  0.75333319  0.75333319  0.24666681  1
  O  O5  1  0.24666681  0.24666681  0.75333319  1
loop_
_geom_bond_atom_site_label_1
_geom_bond_atom_site_label_2
_geom_bond_distance
_geom_bond_site_symmetry_2
La0 O0 2.843701 1_556
La0 O4 2.843701 1_556
La0 O0 2.843701 1_565
La0 O5 2.843701 1_655
La0 O5 2.843701 1_565
La0 O1 2.843701 1_655
La0 O2 2.843701 1_555
La0 O3 2.843701 1_556
La0 O2 2.843701 1_565
La0 O1 2.843701 1_555
La0 O3 2.843701 1_655
La0 O4 2.843701 1_555
Cr0 O3 1.983902 1_545
Cr0 O5 1.983902 1_554
Cr0 O0 1.983902 1_455
Cr0 O2 1.983902 1_454
Cr0 O1 1.983902 1_544
Cr0 O4 1.983902 1_445
O0 Sn0 2.037519 1_555
O0 Sr0 2.843701 1_555
O0 Sr0 2.843701 1_655
O1 Sn0 2.037519 1_555
O1 Sr0 2.843701 1_556
O1 Sr0 2.843701 1_565
O2 Sn0 2.037519 1_555
O2 Sr0 2.843701 1_556
O2 Sr0 2.843701 1_655
O3 Sn0 2.037519 1_555
O3 Sr0 2.843701 1_555
O3 Sr0 2.843701 1_565
O4 Sn0 2.037519 1_555
O4 Sr0 2.843701 1_655
O4 Sr0 2.843701 1_565
O5 Sn0 2.037519 1_555
O5 Sr0 2.843701 1_555
O5 Sr0 2.843701 1_556
