# generated using pymatgen
data_DyCrSe3
_symmetry_space_group_name_H-M   'P 1'
_cell_length_a   3.89060800
_cell_length_b   8.23033800
_cell_length_c   13.27028500
_cell_angle_alpha   90.00000000
_cell_angle_beta   90.00000000
_cell_angle_gamma   90.00000000
_symmetry_Int_Tables_number   1
_chemical_formula_structural   DyCrSe3
_chemical_formula_sum   'Dy4 Cr4 Se12'
_cell_volume   424.92804634
_cell_formula_units_Z   4
loop_
 _symmetry_equiv_pos_site_id
 _symmetry_equiv_pos_as_xyz
  1  'x, y, z'
loop_
 _atom_site_type_symbol
 _atom_site_label
 _atom_site_symmetry_multiplicity
 _atom_site_fract_x
 _atom_site_fract_y
 _atom_site_fract_z
 _atom_site_occupancy
  Dy  Dy0  1  0.75000000  0.57981600  0.32832700  1
  Dy  Dy1  1  0.25000000  0.42018400  0.67167300  1
  Dy  Dy2  1  0.25000000  0.92018400  0.82832700  1
  Dy  Dy3  1  0.75000000  0.07981600  0.17167300  1
  Cr  Cr0  1  0.75000000  0.83590200  0.54870600  1
  Cr  Cr1  1  0.25000000  0.16409800  0.45129400  1
  Cr  Cr2  1  0.25000000  0.66409800  0.04870600  1
  Cr  Cr3  1  0.75000000  0.33590200  0.95129400  1
  Se  Se0  1  0.75000000  0.99390200  0.38932600  1
  Se  Se1  1  0.25000000  0.00609800  0.61067400  1
  Se  Se2  1  0.25000000  0.50609800  0.88932600  1
  Se  Se3  1  0.75000000  0.49390200  0.11067400  1
  Se  Se4  1  0.75000000  0.84714800  0.99156100  1
  Se  Se5  1  0.25000000  0.15285200  0.00843900  1
  Se  Se6  1  0.25000000  0.65285200  0.49156100  1
  Se  Se7  1  0.75000000  0.34714800  0.50843900  1
  Se  Se8  1  0.75000000  0.69731500  0.71637700  1
  Se  Se9  1  0.25000000  0.30268500  0.28362300  1
  Se  Se10  1  0.25000000  0.80268500  0.21637700  1
  Se  Se11  1  0.75000000  0.19731500  0.78362300  1
loop_
_geom_bond_atom_site_label_1
_geom_bond_atom_site_label_2
_geom_bond_distance
_geom_bond_site_symmetry_2
Dy0 Se6 2.972844 1_555
Dy0 Se6 2.972844 1_655
Dy0 Se3 2.973612 1_555
Dy0 Se9 3.055905 1_655
Dy0 Se9 3.055905 1_555
Dy0 Se10 3.058733 1_655
Dy0 Se10 3.058733 1_555
Dy0 Se7 3.062636 1_555
Dy0 Se0 3.502881 1_555
Dy1 Se7 2.972844 1_555
Dy1 Se7 2.972844 1_455
Dy1 Se2 2.973612 1_555
Dy1 Se8 3.055905 1_455
Dy1 Se8 3.055905 1_555
Dy1 Se11 3.058733 1_555
Dy1 Se11 3.058733 1_455
Dy1 Se6 3.062636 1_555
Dy1 Se1 3.502881 1_555
Dy2 Se4 2.972844 1_555
Dy2 Se4 2.972844 1_455
Dy2 Se1 2.973612 1_565
Dy2 Se11 3.055905 1_565
Dy2 Se11 3.055905 1_465
Dy2 Se8 3.058733 1_555
Dy2 Se8 3.058733 1_455
Dy2 Se5 3.062636 1_566
Dy2 Se2 3.502881 1_555
Dy3 Se5 2.972844 1_555
Dy3 Se5 2.972844 1_655
Dy3 Se0 2.973612 1_545
Dy3 Se10 3.055905 1_545
Dy3 Se10 3.055905 1_645
Dy3 Se9 3.058733 1_655
Dy3 Se9 3.058733 1_555
Dy3 Se4 3.062636 1_544
Dy3 Se3 3.502881 1_555
Cr0 Se0 2.482806 1_555
Cr0 Se8 2.500364 1_555
Cr0 Se1 2.534284 1_565
Cr0 Se1 2.534284 1_665
Cr0 Se6 2.574686 1_555
Cr0 Se6 2.574686 1_655
Cr1 Se1 2.482806 1_555
Cr1 Se9 2.500364 1_555
Cr1 Se0 2.534284 1_545
Cr1 Se0 2.534284 1_445
Cr1 Se7 2.574686 1_555
Cr1 Se7 2.574686 1_455
Cr2 Se2 2.482806 1_554
Cr2 Se10 2.500364 1_555
Cr2 Se3 2.534284 1_455
Cr2 Se3 2.534284 1_555
Cr2 Se4 2.574686 1_454
Cr2 Se4 2.574686 1_554
Cr3 Se3 2.482806 1_556
Cr3 Se11 2.500364 1_555
Cr3 Se2 2.534284 1_555
Cr3 Se2 2.534284 1_655
Cr3 Se5 2.574686 1_556
Cr3 Se5 2.574686 1_656
