# generated using pymatgen
data_CaCoNiP2O9
_symmetry_space_group_name_H-M   'P 1'
_cell_length_a   6.46415400
_cell_length_b   7.51910800
_cell_length_c   14.18131585
_cell_angle_alpha   89.61040165
_cell_angle_beta   90.00000000
_cell_angle_gamma   90.00000000
_symmetry_Int_Tables_number   1
_chemical_formula_structural   CaCoNiP2O9
_chemical_formula_sum   'Ca4 Co4 Ni4 P8 O36'
_cell_volume   689.26227115
_cell_formula_units_Z   4
loop_
 _symmetry_equiv_pos_site_id
 _symmetry_equiv_pos_as_xyz
  1  'x, y, z'
loop_
 _atom_site_type_symbol
 _atom_site_label
 _atom_site_symmetry_multiplicity
 _atom_site_fract_x
 _atom_site_fract_y
 _atom_site_fract_z
 _atom_site_occupancy
  Ca  Ca0  1  0.00000000  0.12944900  0.77795400  1
  Ca  Ca1  1  0.00000000  0.37206200  0.27978900  1
  Ca  Ca2  1  0.50000000  0.87002100  0.22174200  1
  Ca  Ca3  1  0.50000000  0.62317900  0.71850900  1
  Co  Co0  1  0.00000000  0.65356800  0.88278200  1
  Co  Co1  1  0.50000000  0.34687700  0.11730200  1
  Co  Co2  1  0.50000000  0.15438700  0.61780700  1
  Co  Co3  1  0.00000000  0.84863300  0.38362700  1
  Ni  Ni0  1  0.75023800  0.99960900  0.00049900  1
  Ni  Ni1  1  0.75095200  0.49865900  0.50000700  1
  Ni  Ni2  1  0.24904800  0.49865900  0.50000700  1
  Ni  Ni3  1  0.24976200  0.99960900  0.00049900  1
  P  P0  1  0.50000000  0.64839600  0.93736300  1
  P  P1  1  0.00000000  0.35182500  0.06212600  1
  P  P2  1  0.00000000  0.14767600  0.56180000  1
  P  P3  1  0.50000000  0.85069600  0.43941300  1
  P  P4  1  0.00000000  0.60786500  0.69421400  1
  P  P5  1  0.50000000  0.39211200  0.30590400  1
  P  P6  1  0.50000000  0.11541600  0.80493500  1
  P  P7  1  0.00000000  0.89125400  0.19463900  1
  O  O0  1  0.30214700  0.39605300  0.36634600  1
  O  O1  1  0.80227000  0.60382400  0.63352700  1
  O  O2  1  0.19835600  0.89654600  0.13407300  1
  O  O3  1  0.69764900  0.10122500  0.86493200  1
  O  O4  1  0.19773000  0.60382400  0.63352700  1
  O  O5  1  0.69785300  0.39605300  0.36634600  1
  O  O6  1  0.30235100  0.10122500  0.86493200  1
  O  O7  1  0.80164400  0.89654600  0.13407300  1
  O  O8  1  0.50000000  0.66517400  0.48837800  1
  O  O9  1  0.00000000  0.33048000  0.51145600  1
  O  O10  1  0.00000000  0.16996300  0.01215000  1
  O  O11  1  0.50000000  0.83015600  0.98736400  1
  O  O12  1  0.00000000  0.85642200  0.94759300  1
  O  O13  1  0.50000000  0.14367900  0.05230400  1
  O  O14  1  0.50000000  0.35082600  0.55599800  1
  O  O15  1  0.00000000  0.64386300  0.44821800  1
  O  O16  1  0.00000000  0.78134900  0.75693800  1
  O  O17  1  0.50000000  0.21874700  0.24299700  1
  O  O18  1  0.50000000  0.29009200  0.74403100  1
  O  O19  1  0.00000000  0.71760100  0.25778700  1
  O  O20  1  0.68804700  0.86439600  0.37039100  1
  O  O21  1  0.18695800  0.13391100  0.63041400  1
  O  O22  1  0.81166800  0.36541700  0.13037200  1
  O  O23  1  0.31190400  0.63546500  0.86870400  1
  O  O24  1  0.81304200  0.13391100  0.63041400  1
  O  O25  1  0.31195300  0.86439600  0.37039100  1
  O  O26  1  0.68809600  0.63546500  0.86870400  1
  O  O27  1  0.18833200  0.36541700  0.13037200  1
  O  O28  1  0.00000000  0.04181300  0.27053900  1
  O  O29  1  0.50000000  0.97225300  0.72348900  1
  O  O30  1  0.50000000  0.54253500  0.22891500  1
  O  O31  1  0.00000000  0.45729300  0.77105200  1
  O  O32  1  0.00000000  0.99966700  0.48894900  1
  O  O33  1  0.50000000  0.99379400  0.51405400  1
  O  O34  1  0.50000000  0.49818700  0.00976400  1
  O  O35  1  0.00000000  0.50163700  0.98939300  1
loop_
_geom_bond_atom_site_label_1
_geom_bond_atom_site_label_2
_geom_bond_distance
_geom_bond_site_symmetry_2
Ca0 O6 2.320077 1_555
Ca0 O3 2.320077 1_455
Ca0 O24 2.416293 1_455
Ca0 O21 2.416293 1_555
Ca0 O31 2.466372 1_555
Ca0 O16 2.636328 1_545
Ca1 O0 2.314516 1_555
Ca1 O5 2.314516 1_455
Ca1 O27 2.444561 1_555
Ca1 O22 2.444561 1_455
Ca1 O28 2.487531 1_555
Ca1 O19 2.614706 1_555
Ca2 O7 2.320369 1_555
Ca2 O2 2.320369 1_555
Ca2 O25 2.433516 1_555
Ca2 O20 2.433516 1_555
Ca2 O30 2.463812 1_555
Ca2 O17 2.641412 1_565
Ca3 O1 2.300819 1_555
Ca3 O4 2.300819 1_555
Ca3 O26 2.454856 1_555
Ca3 O23 2.454856 1_555
Ca3 O18 2.528097 1_555
Ca3 O29 2.626155 1_555
Co0 O12 1.786142 1_555
Co0 O35 1.888743 1_555
Co0 O16 2.021072 1_555
Co0 O26 2.030714 1_455
Co0 O23 2.030714 1_555
Co0 O31 2.172647 1_555
Co1 O13 1.789740 1_555
Co1 O34 1.896449 1_555
Co1 O17 2.020448 1_555
Co1 O22 2.028062 1_555
Co1 O27 2.028062 1_555
Co1 O30 2.168256 1_555
Co2 O14 1.712416 1_555
Co2 O33 1.909749 1_545
Co2 O29 2.023292 1_545
Co2 O24 2.037168 1_555
Co2 O21 2.037168 1_555
Co2 O18 2.066445 1_555
Co3 O15 1.786194 1_555
Co3 O32 1.882446 1_555
Co3 O25 2.028620 1_555
Co3 O20 2.028620 1_455
Co3 O19 2.044341 1_555
Co3 O28 2.156425 1_565
Ni0 O10 2.068216 1_665
Ni0 O11 2.068309 1_554
Ni0 O7 2.068621 1_555
Ni0 O12 2.083185 1_654
Ni0 O13 2.083410 1_565
Ni0 O3 2.091758 1_564
Ni1 O9 2.052900 1_655
Ni1 O8 2.055118 1_555
Ni1 O15 2.076598 1_655
Ni1 O5 2.079856 1_555
Ni1 O1 2.083504 1_555
Ni1 O14 2.117918 1_555
Ni2 O9 2.052900 1_555
Ni2 O8 2.055118 1_555
Ni2 O15 2.076598 1_555
Ni2 O0 2.079856 1_555
Ni2 O4 2.083504 1_555
Ni2 O14 2.117918 1_555
Ni3 O10 2.068216 1_565
Ni3 O11 2.068309 1_554
Ni3 O2 2.068621 1_555
Ni3 O12 2.083185 1_554
Ni3 O13 2.083410 1_565
Ni3 O6 2.091758 1_564
O0 P5 1.540014 1_555
O1 P4 1.541309 1_655
O2 P7 1.543659 1_555
O3 P6 1.538318 1_555
O4 P4 1.541309 1_555
O5 P5 1.540014 1_555
O6 P6 1.538318 1_555
O7 P7 1.543659 1_655
O8 P3 1.554000 1_555
O9 P2 1.544566 1_555
O10 P1 1.544462 1_555
O11 P0 1.543946 1_555
O16 P4 1.583850 1_555
O17 P5 1.584584 1_555
O18 P6 1.567032 1_555
O19 P7 1.578275 1_555
O20 P3 1.563628 1_555
O21 P2 1.554566 1_555
O22 P1 1.559019 1_655
O23 P0 1.561138 1_555
O24 P2 1.554566 1_655
O25 P3 1.563628 1_555
O26 P0 1.561138 1_555
O27 P1 1.559019 1_555
O28 P7 1.567389 1_545
O29 P6 1.584210 1_565
O30 P5 1.566688 1_555
O31 P4 1.566012 1_555
O32 P2 1.523652 1_565
O33 P3 1.514476 1_555
O34 P0 1.521202 1_554
O35 P1 1.522164 1_556
