# generated using pymatgen
data_Y4US7
_symmetry_space_group_name_H-M   'P 1'
_cell_length_a   6.70871468
_cell_length_b   6.70871468
_cell_length_c   11.64519079
_cell_angle_alpha   75.83190721
_cell_angle_beta   75.83190721
_cell_angle_gamma   32.86447389
_symmetry_Int_Tables_number   1
_chemical_formula_structural   Y4US7
_chemical_formula_sum   'Y4 U1 S7'
_cell_volume   274.99541259
_cell_formula_units_Z   1
loop_
 _symmetry_equiv_pos_site_id
 _symmetry_equiv_pos_as_xyz
  1  'x, y, z'
loop_
 _atom_site_type_symbol
 _atom_site_label
 _atom_site_symmetry_multiplicity
 _atom_site_fract_x
 _atom_site_fract_y
 _atom_site_fract_z
 _atom_site_occupancy
  Y  Y0  1  0.69991900  0.69991900  0.18820700  1
  Y  Y1  1  0.30143600  0.30143600  0.81106200  1
  Y  Y2  1  0.11626300  0.11626300  0.57717500  1
  Y  Y3  1  0.99951900  0.99951900  0.99854600  1
  U  U0  1  0.88499300  0.88499300  0.42343400  1
  S  S0  1  0.04125800  0.04125800  0.21475100  1
  S  S1  1  0.95812500  0.95812500  0.78480100  1
  S  S2  1  0.73997600  0.73997600  0.65022100  1
  S  S3  1  0.25810900  0.25810900  0.35011600  1
  S  S4  1  0.50018300  0.50018300  0.50111400  1
  S  S5  1  0.34122500  0.34122500  0.05112000  1
  S  S6  1  0.65899200  0.65899200  0.94945300  1
loop_
_geom_bond_atom_site_label_1
_geom_bond_atom_site_label_2
_geom_bond_distance
_geom_bond_site_symmetry_2
S0 Y3 2.705152 1_444
S0 U0 2.730497 1_445
S0 Y0 2.746667 1_545
S0 Y0 2.746667 1_455
S1 Y3 2.675102 1_555
S1 Y1 2.728837 1_655
S1 Y1 2.728837 1_565
S1 Y2 2.734293 1_665
S2 Y2 2.747933 1_565
S2 Y2 2.747933 1_655
S2 U0 2.818190 1_555
S2 Y1 2.914013 1_655
S2 Y1 2.914013 1_565
S3 U0 2.776419 1_545
S3 U0 2.776419 1_455
S3 Y2 2.803629 1_555
S3 Y0 2.904813 1_545
S3 Y0 2.904813 1_455
S4 Y2 2.700571 1_565
S4 Y2 2.700571 1_655
S4 U0 2.702190 1_545
S4 U0 2.702190 1_455
S5 Y3 2.736745 1_544
S5 Y3 2.736745 1_454
S5 Y0 2.824070 1_455
S5 Y0 2.824070 1_545
S5 Y1 2.967784 1_554
S6 Y3 2.746189 1_455
S6 Y3 2.746189 1_545
S6 Y1 2.837503 1_655
S6 Y1 2.837503 1_565
S6 Y0 2.958902 1_556
