# generated using pymatgen
data_Ti3V3Si5
_symmetry_space_group_name_H-M   'P 1'
_cell_length_a   5.10815600
_cell_length_b   8.05162800
_cell_length_c   9.09202267
_cell_angle_alpha   63.71827016
_cell_angle_beta   73.68522721
_cell_angle_gamma   90.00000000
_symmetry_Int_Tables_number   1
_chemical_formula_structural   Ti3V3Si5
_chemical_formula_sum   'Ti6 V6 Si10'
_cell_volume   318.40939546
_cell_formula_units_Z   2
loop_
 _symmetry_equiv_pos_site_id
 _symmetry_equiv_pos_as_xyz
  1  'x, y, z'
loop_
 _atom_site_type_symbol
 _atom_site_label
 _atom_site_symmetry_multiplicity
 _atom_site_fract_x
 _atom_site_fract_y
 _atom_site_fract_z
 _atom_site_occupancy
  Ti  Ti0  1  0.35025400  0.35025400  0.29949300  1
  Ti  Ti1  1  0.64974600  0.64974600  0.70050700  1
  Ti  Ti2  1  0.50000000  0.00000000  0.50000000  1
  Ti  Ti3  1  0.00000000  0.50000000  0.50000000  1
  Ti  Ti4  1  0.50000000  0.50000000  0.50000000  1
  Ti  Ti5  1  0.00000000  0.00000000  0.50000000  1
  V  V0  1  0.08371500  0.80496000  0.83257100  1
  V  V1  1  0.08371500  0.36246900  0.83257100  1
  V  V2  1  0.91628500  0.63753100  0.16742900  1
  V  V3  1  0.91628500  0.19504000  0.16742900  1
  V  V4  1  0.75774000  0.00000000  0.00000000  1
  V  V5  1  0.24226000  0.00000000  0.00000000  1
  Si  Si0  1  0.19943900  0.69943900  0.60112100  1
  Si  Si1  1  0.80056100  0.30056100  0.39887900  1
  Si  Si2  1  0.74023700  0.50000000  0.00000000  1
  Si  Si3  1  0.25976300  0.50000000  0.00000000  1
  Si  Si4  1  0.15897300  0.15897300  0.68205500  1
  Si  Si5  1  0.84102700  0.84102700  0.31794500  1
  Si  Si6  1  0.39809600  0.08666300  0.20380900  1
  Si  Si7  1  0.39809600  0.70952900  0.20380900  1
  Si  Si8  1  0.60190400  0.29047100  0.79619100  1
  Si  Si9  1  0.60190400  0.91333700  0.79619100  1
loop_
_geom_bond_atom_site_label_1
_geom_bond_atom_site_label_2
_geom_bond_distance
_geom_bond_site_symmetry_2
Ti0 Ti4 2.844670 1_555
Ti0 Ti3 2.844672 1_555
Ti0 Ti2 2.844675 1_555
Ti0 Ti5 2.844678 1_555
Ti1 Ti4 2.844670 1_555
Ti1 Ti3 2.844672 1_655
Ti1 Ti2 2.844675 1_565
Ti1 Ti5 2.844678 1_665
Ti2 Ti5 2.554078 1_555
Ti2 Ti5 2.554078 1_655
Ti2 V3 2.883292 1_555
Ti2 V0 2.883292 1_545
Ti3 Ti4 2.554078 1_455
Ti3 Ti4 2.554078 1_555
Ti3 V1 2.883295 1_555
Ti3 V2 2.883295 1_455
Ti4 V2 2.883292 1_555
Ti4 V1 2.883292 1_555
Ti5 V0 2.883295 1_545
Ti5 V3 2.883295 1_455
V0 V5 2.872102 1_566
V0 V4 2.872104 1_466
V1 V5 2.872102 1_556
V1 V4 2.872104 1_456
V2 V4 2.872102 1_565
V2 V5 2.872104 1_665
V3 V4 2.872102 1_555
V3 V5 2.872104 1_655
V4 V5 2.475004 1_655
V4 V5 2.633152 1_555
Si0 Ti3 2.509075 1_555
Si0 Ti4 2.509078 1_555
Si0 Ti5 2.509081 1_565
Si0 Ti2 2.509084 1_565
Si0 V1 2.526649 1_555
Si0 V0 2.526655 1_555
Si0 Ti1 2.667456 1_555
Si0 Ti1 2.667456 1_455
Si1 Ti3 2.509075 1_655
Si1 Ti4 2.509078 1_555
Si1 Ti5 2.509081 1_655
Si1 Ti2 2.509084 1_555
Si1 V2 2.526649 1_555
Si1 V3 2.526655 1_555
Si1 Ti0 2.667456 1_555
Si1 Ti0 2.667456 1_655
Si2 Si3 2.454336 1_555
Si2 V2 2.571795 1_555
Si2 V3 2.571795 1_555
Si2 V0 2.571798 1_654
Si2 V1 2.571798 1_654
Si2 Ti0 2.623321 1_555
Si2 Ti1 2.623323 1_554
Si2 Si3 2.653820 1_655
Si3 V0 2.571795 1_554
Si3 V1 2.571795 1_554
Si3 V2 2.571798 1_455
Si3 V3 2.571798 1_455
Si3 Ti1 2.623321 1_554
Si3 Ti0 2.623323 1_555
Si4 V1 2.528884 1_555
Si4 V0 2.528891 1_545
Si4 V5 2.755016 1_556
Si4 V4 2.755018 1_456
Si4 Ti4 2.769308 1_555
Si4 Ti3 2.769310 1_555
Si4 Ti2 2.769314 1_555
Si4 Ti5 2.769316 1_555
Si4 Ti0 2.961692 1_555
Si5 V2 2.528884 1_555
Si5 V3 2.528891 1_565
Si5 V4 2.755016 1_565
Si5 V5 2.755018 1_665
Si5 Ti4 2.769308 1_555
Si5 Ti3 2.769310 1_655
Si5 Ti2 2.769314 1_565
Si5 Ti5 2.769316 1_665
Si5 Ti1 2.961692 1_555
Si6 V4 2.555012 1_555
Si6 V5 2.555015 1_555
Si6 Ti0 2.614669 1_555
Si6 V3 2.670189 1_555
Si6 V3 2.670199 1_455
Si6 Ti2 2.670856 1_555
Si6 Ti5 2.670859 1_555
Si7 V4 2.555007 1_565
Si7 V5 2.555010 1_565
Si7 Ti0 2.614669 1_555
Si7 V2 2.670191 1_555
Si7 V2 2.670201 1_455
Si7 Ti4 2.670858 1_555
Si7 Ti3 2.670860 1_555
Si8 V5 2.555007 1_556
Si8 V4 2.555010 1_556
Si8 Ti1 2.614669 1_555
Si8 V1 2.670191 1_555
Si8 V1 2.670201 1_655
Si8 Ti4 2.670858 1_555
Si8 Ti3 2.670860 1_655
Si9 V5 2.555012 1_566
Si9 V4 2.555015 1_566
Si9 Ti1 2.614669 1_555
Si9 V0 2.670189 1_555
Si9 V0 2.670199 1_655
Si9 Ti2 2.670856 1_565
Si9 Ti5 2.670859 1_665
