# generated using pymatgen
data_La3TiGa5O14
_symmetry_space_group_name_H-M   'P 1'
_cell_length_a   8.29361724
_cell_length_b   8.29361724
_cell_length_c   5.15311800
_cell_angle_alpha   90.00000000
_cell_angle_beta   90.00000000
_cell_angle_gamma   119.99999394
_symmetry_Int_Tables_number   1
_chemical_formula_structural   La3TiGa5O14
_chemical_formula_sum   'La3 Ti1 Ga5 O14'
_cell_volume   306.96490244
_cell_formula_units_Z   1
loop_
 _symmetry_equiv_pos_site_id
 _symmetry_equiv_pos_as_xyz
  1  'x, y, z'
loop_
 _atom_site_type_symbol
 _atom_site_label
 _atom_site_symmetry_multiplicity
 _atom_site_fract_x
 _atom_site_fract_y
 _atom_site_fract_z
 _atom_site_occupancy
  La  La0  1  0.57630100  0.00000000  0.00000000  1
  La  La1  1  0.00000000  0.57630100  0.00000000  1
  La  La2  1  0.42369900  0.42369900  0.00000000  1
  Ti  Ti0  1  0.00000000  0.00000000  0.00000000  1
  Ga  Ga0  1  0.33333300  0.66666700  0.52971300  1
  Ga  Ga1  1  0.66666700  0.33333300  0.47028700  1
  Ga  Ga2  1  0.23893800  0.00000000  0.50000000  1
  Ga  Ga3  1  0.00000000  0.23893800  0.50000000  1
  Ga  Ga4  1  0.76106200  0.76106200  0.50000000  1
  O  O0  1  0.14206200  0.21765000  0.23417700  1
  O  O1  1  0.78235000  0.92441200  0.23417700  1
  O  O2  1  0.21765000  0.14206200  0.76582300  1
  O  O3  1  0.07558800  0.85793800  0.23417700  1
  O  O4  1  0.92441200  0.78235000  0.76582300  1
  O  O5  1  0.85793800  0.07558800  0.76582300  1
  O  O6  1  0.33333300  0.66666700  0.17755300  1
  O  O7  1  0.66666700  0.33333300  0.82244700  1
  O  O8  1  0.45588800  0.14691500  0.30263600  1
  O  O9  1  0.85308500  0.30897200  0.30263600  1
  O  O10  1  0.14691500  0.45588800  0.69736400  1
  O  O11  1  0.69102800  0.54411200  0.30263600  1
  O  O12  1  0.30897200  0.85308500  0.69736400  1
  O  O13  1  0.54411200  0.69102800  0.69736400  1
loop_
_geom_bond_atom_site_label_1
_geom_bond_atom_site_label_2
_geom_bond_distance
_geom_bond_site_symmetry_2
La0 O1 2.416782 1_545
La0 O5 2.416783 1_554
La0 O8 2.476061 1_555
La0 O12 2.476067 1_544
La0 O7 2.639996 1_554
La0 O6 2.639998 1_545
La0 O13 2.895800 1_544
La0 O9 2.895804 1_555
La1 O4 2.416782 1_454
La1 O3 2.416783 1_555
La1 O10 2.476061 1_554
La1 O9 2.476067 1_455
La1 O6 2.639996 1_555
La1 O7 2.639998 1_454
La1 O11 2.895800 1_455
La1 O12 2.895804 1_554
La2 O0 2.416783 1_555
La2 O2 2.416783 1_554
La2 O11 2.476067 1_555
La2 O13 2.476067 1_554
La2 O7 2.640003 1_554
La2 O6 2.640003 1_555
La2 O8 2.895807 1_555
La2 O10 2.895807 1_554
Ga0 O6 1.814722 1_555
Ga0 O12 1.868133 1_555
Ga0 O13 1.868133 1_555
Ga0 O10 1.868133 1_555
Ga1 O7 1.814722 1_555
Ga1 O9 1.868133 1_555
Ga1 O11 1.868133 1_555
Ga1 O8 1.868133 1_555
Ga2 O2 1.871834 1_555
Ga2 O3 1.871834 1_545
Ga2 O12 1.887882 1_545
Ga2 O8 1.887888 1_555
Ga3 O0 1.871834 1_555
Ga3 O5 1.871834 1_455
Ga3 O9 1.887882 1_455
Ga3 O10 1.887888 1_555
Ga4 O4 1.871834 1_555
Ga4 O1 1.871834 1_555
Ga4 O11 1.887889 1_555
Ga4 O13 1.887889 1_555
O0 Ti0 1.993995 1_555
O1 Ti0 1.993995 1_665
O2 Ti0 1.993995 1_556
O3 Ti0 1.993995 1_565
O4 Ti0 1.993995 1_666
O5 Ti0 1.993995 1_656
