# generated using pymatgen
data_Zn2CrWO6
_symmetry_space_group_name_H-M   'P 1'
_cell_length_a   5.23233909
_cell_length_b   5.55214536
_cell_length_c   7.63106745
_cell_angle_alpha   85.48920969
_cell_angle_beta   90.00957084
_cell_angle_gamma   89.50526170
_symmetry_Int_Tables_number   1
_chemical_formula_structural   Zn2CrWO6
_chemical_formula_sum   'Zn4 Cr2 W2 O12'
_cell_volume   220.99291785
_cell_formula_units_Z   2
loop_
 _symmetry_equiv_pos_site_id
 _symmetry_equiv_pos_as_xyz
  1  'x, y, z'
loop_
 _atom_site_type_symbol
 _atom_site_label
 _atom_site_symmetry_multiplicity
 _atom_site_fract_x
 _atom_site_fract_y
 _atom_site_fract_z
 _atom_site_occupancy
  Zn  Zn0  1  0.01025700  0.48643800  0.23307900  1
  Zn  Zn1  1  0.51025400  0.98657700  0.73316500  1
  Zn  Zn2  1  0.50538200  0.06270700  0.26804300  1
  Zn  Zn3  1  0.00540300  0.56324700  0.76817700  1
  Cr  Cr0  1  0.50810600  0.50382500  0.99020200  1
  Cr  Cr1  1  0.00801400  0.00392600  0.49010400  1
  W  W0  1  0.50839100  0.50883500  0.49267800  1
  W  W1  1  0.00844900  0.00888200  0.99261900  1
  O  O0  1  0.18511400  0.68929000  0.04935500  1
  O  O1  1  0.68517200  0.18929800  0.54949500  1
  O  O2  1  0.20555100  0.30988800  0.42006500  1
  O  O3  1  0.70548900  0.80985500  0.92007300  1
  O  O4  1  0.64012900  0.49351600  0.24202200  1
  O  O5  1  0.14009000  0.99340000  0.74195800  1
  O  O6  1  0.32798300  0.81747600  0.42872800  1
  O  O7  1  0.82820200  0.31748900  0.92889700  1
  O  O8  1  0.87408000  0.00631900  0.24050500  1
  O  O9  1  0.37404400  0.50621900  0.74061700  1
  O  O10  1  0.31848200  0.19340100  0.05625100  1
  O  O11  1  0.81808200  0.69357300  0.55628800  1
loop_
_geom_bond_atom_site_label_1
_geom_bond_atom_site_label_2
_geom_bond_distance
_geom_bond_site_symmetry_2
Cr0 O10 2.025347 1_556
Cr0 O9 2.028579 1_555
Cr0 O3 2.031625 1_555
Cr0 O7 2.034889 1_555
Cr0 O4 2.038332 1_556
Cr0 O0 2.040473 1_556
Cr1 O11 2.026008 1_445
Cr1 O8 2.028448 1_455
Cr1 O2 2.031595 1_555
Cr1 O6 2.034821 1_545
Cr1 O5 2.038611 1_545
Cr1 O1 2.040036 1_455
O0 Zn0 1.959851 1_555
O0 W1 2.010270 1_564
O0 Zn3 2.494949 1_554
O1 Zn1 1.959346 1_545
O1 W0 2.010371 1_555
O1 Zn2 2.498020 1_555
O2 Zn0 1.950200 1_555
O2 W0 2.040634 1_555
O2 Zn2 2.429874 1_555
O3 Zn1 1.950049 1_555
O3 W1 2.041217 1_665
O3 Zn3 2.427754 1_655
O4 Zn0 1.938017 1_655
O4 W0 2.041099 1_555
O4 Zn2 2.492434 1_555
O5 Zn1 1.938143 1_555
O5 W1 2.041065 1_565
O5 Zn3 2.488869 1_555
O6 W0 1.976378 1_555
O6 Zn2 1.994637 1_565
O7 W1 1.975512 1_655
O7 Zn3 1.996168 1_655
O8 Zn2 1.965671 1_555
O8 W1 2.017218 1_654
O9 Zn3 1.965967 1_555
O9 W0 2.017538 1_555
O10 Zn2 1.974266 1_555
O10 W1 2.005879 1_554
O11 Zn3 1.975326 1_655
O11 W0 2.005030 1_555
