# generated using pymatgen
data_Mg2TaWO6
_symmetry_space_group_name_H-M   'P 1'
_cell_length_a   5.46273100
_cell_length_b   5.33128000
_cell_length_c   9.42119880
_cell_angle_alpha   55.86344964
_cell_angle_beta   90.00000000
_cell_angle_gamma   90.00000000
_symmetry_Int_Tables_number   1
_chemical_formula_structural   Mg2TaWO6
_chemical_formula_sum   'Mg4 Ta2 W2 O12'
_cell_volume   227.10241564
_cell_formula_units_Z   2
loop_
 _symmetry_equiv_pos_site_id
 _symmetry_equiv_pos_as_xyz
  1  'x, y, z'
loop_
 _atom_site_type_symbol
 _atom_site_label
 _atom_site_symmetry_multiplicity
 _atom_site_fract_x
 _atom_site_fract_y
 _atom_site_fract_z
 _atom_site_occupancy
  Mg  Mg0  1  0.04222300  0.24728600  0.75096800  1
  Mg  Mg1  1  0.54222300  0.75271400  0.74903200  1
  Mg  Mg2  1  0.95777700  0.75271400  0.24903200  1
  Mg  Mg3  1  0.45777700  0.24728600  0.25096800  1
  Ta  Ta0  1  0.00000000  0.50000000  0.00000000  1
  Ta  Ta1  1  0.50000000  0.50000000  0.50000000  1
  W  W0  1  0.00000000  0.00000000  0.50000000  1
  W  W1  1  0.50000000  0.00000000  0.00000000  1
  O  O0  1  0.33352400  0.74802700  0.56717200  1
  O  O1  1  0.83352400  0.25197300  0.93282800  1
  O  O2  1  0.66647600  0.25197300  0.43282800  1
  O  O3  1  0.16647600  0.74802700  0.06717200  1
  O  O4  1  0.18646700  0.41762700  0.42518700  1
  O  O5  1  0.68646700  0.58237300  0.07481300  1
  O  O6  1  0.81353300  0.58237300  0.57481300  1
  O  O7  1  0.31353300  0.41762700  0.92518700  1
  O  O8  1  0.42082000  0.12756500  0.73933800  1
  O  O9  1  0.92082000  0.87243500  0.76066200  1
  O  O10  1  0.07918000  0.12756500  0.23933800  1
  O  O11  1  0.57918000  0.87243500  0.26066200  1
loop_
_geom_bond_atom_site_label_1
_geom_bond_atom_site_label_2
_geom_bond_distance
_geom_bond_site_symmetry_2
Mg0 O6 2.044222 1_455
Mg0 O9 2.058414 1_445
Mg0 O1 2.069772 1_455
Mg0 O8 2.185228 1_555
Mg1 O7 2.044222 1_555
Mg1 O8 2.058414 1_565
Mg1 O0 2.069772 1_555
Mg1 O9 2.185228 1_555
Mg2 O4 2.044222 1_655
Mg2 O10 2.058414 1_665
Mg2 O3 2.069772 1_655
Mg2 O11 2.185228 1_555
Mg3 O5 2.044222 1_555
Mg3 O11 2.058414 1_545
Mg3 O2 2.069772 1_555
Mg3 O10 2.185228 1_555
O0 Ta1 1.978681 1_555
O0 W0 2.137858 1_565
O1 Ta0 1.978681 1_656
O1 W1 2.137858 1_556
O2 Ta1 1.978681 1_555
O2 W0 2.137858 1_655
O3 Ta0 1.978681 1_555
O3 W1 2.137858 1_565
O4 Ta1 1.992620 1_555
O4 W0 2.174935 1_555
O5 Ta0 1.992620 1_655
O5 W1 2.174935 1_565
O6 Ta1 1.992620 1_555
O6 W0 2.174935 1_665
O7 Ta0 1.992620 1_556
O7 W1 2.174935 1_556
O8 Ta1 2.046713 1_555
O8 W1 2.192231 1_556
O9 Ta0 2.046713 1_656
O9 W0 2.192231 1_665
O10 Ta0 2.046713 1_555
O10 W0 2.192231 1_555
O11 Ta1 2.046713 1_555
O11 W1 2.192231 1_565
