# generated using pymatgen
data_NaGa(GeO3)2
_symmetry_space_group_name_H-M   'P 1'
_cell_length_a   6.74099066
_cell_length_b   6.74099066
_cell_length_c   5.55865928
_cell_angle_alpha   76.79740211
_cell_angle_beta   76.79740211
_cell_angle_gamma   83.08576587
_symmetry_Int_Tables_number   1
_chemical_formula_structural   NaGa(GeO3)2
_chemical_formula_sum   'Na2 Ga2 Ge4 O12'
_cell_volume   238.79365623
_cell_formula_units_Z   2
loop_
 _symmetry_equiv_pos_site_id
 _symmetry_equiv_pos_as_xyz
  1  'x, y, z'
loop_
 _atom_site_type_symbol
 _atom_site_label
 _atom_site_symmetry_multiplicity
 _atom_site_fract_x
 _atom_site_fract_y
 _atom_site_fract_z
 _atom_site_occupancy
  Na  Na0  1  0.30199400  0.69800600  0.75000000  1
  Na  Na1  1  0.69800600  0.30199400  0.25000000  1
  Ga  Ga0  1  0.90527400  0.09472600  0.75000000  1
  Ga  Ga1  1  0.09472600  0.90527400  0.25000000  1
  Ge  Ge0  1  0.80717500  0.61628300  0.72418400  1
  Ge  Ge1  1  0.38371700  0.19282500  0.77581600  1
  Ge  Ge2  1  0.19282500  0.38371700  0.27581600  1
  Ge  Ge3  1  0.61628300  0.80717500  0.22418400  1
  O  O0  1  0.91671100  0.36912100  0.80395700  1
  O  O1  1  0.63087900  0.08328900  0.69604300  1
  O  O2  1  0.08328900  0.63087900  0.19604300  1
  O  O3  1  0.36912100  0.91671100  0.30395700  1
  O  O4  1  0.97738100  0.81578200  0.62686500  1
  O  O5  1  0.18421800  0.02261900  0.87313500  1
  O  O6  1  0.02261900  0.18421800  0.37313500  1
  O  O7  1  0.81578200  0.97738100  0.12686500  1
  O  O8  1  0.64688800  0.62780400  0.50804000  1
  O  O9  1  0.37219600  0.35311200  0.99196000  1
  O  O10  1  0.35311200  0.37219600  0.49196000  1
  O  O11  1  0.62780400  0.64688800  0.00804000  1
loop_
_geom_bond_atom_site_label_1
_geom_bond_atom_site_label_2
_geom_bond_distance
_geom_bond_site_symmetry_2
Na0 O5 2.429968 1_565
Na0 O4 2.429968 1_455
Na0 O8 2.456758 1_555
Na0 O9 2.456758 1_555
Na0 O2 2.550317 1_556
Na0 O3 2.550317 1_555
Na0 O10 2.833865 1_555
Na0 O11 2.833865 1_556
Na1 O6 2.429968 1_655
Na1 O7 2.429968 1_545
Na1 O11 2.456758 1_555
Na1 O10 2.456758 1_555
Na1 O1 2.550317 1_555
Na1 O0 2.550317 1_554
Na1 O9 2.833865 1_554
Na1 O8 2.833865 1_555
Ga0 O0 1.953352 1_555
Ga0 O1 1.953352 1_555
Ga0 O6 2.039309 1_655
Ga0 O7 2.039309 1_546
Ga0 O5 2.111015 1_655
Ga0 O4 2.111015 1_545
Ga1 O3 1.953352 1_555
Ga1 O2 1.953352 1_555
Ga1 O4 2.039309 1_455
Ga1 O5 2.039309 1_564
Ga1 O7 2.111015 1_455
Ga1 O6 2.111015 1_565
Ge0 O0 1.741742 1_555
Ge0 O8 1.774035 1_555
Ge0 O4 1.781370 1_555
Ge0 O11 1.792028 1_556
Ge1 O1 1.741742 1_555
Ge1 O9 1.774035 1_555
Ge1 O5 1.781370 1_555
Ge1 O10 1.792028 1_555
Ge2 O2 1.741742 1_555
Ge2 O10 1.774035 1_555
Ge2 O6 1.781370 1_555
Ge2 O9 1.792028 1_554
Ge3 O3 1.741742 1_555
Ge3 O11 1.774035 1_555
Ge3 O7 1.781370 1_555
Ge3 O8 1.792028 1_555
