# generated using pymatgen
data_Cs2InHgF6
_symmetry_space_group_name_H-M   'P 1'
_cell_length_a   6.66210620
_cell_length_b   6.66210634
_cell_length_c   6.66210634
_cell_angle_alpha   59.99999946
_cell_angle_beta   59.99999920
_cell_angle_gamma   59.99999923
_symmetry_Int_Tables_number   1
_chemical_formula_structural   Cs2InHgF6
_chemical_formula_sum   'Cs2 In1 Hg1 F6'
_cell_volume   209.08345485
_cell_formula_units_Z   1
loop_
 _symmetry_equiv_pos_site_id
 _symmetry_equiv_pos_as_xyz
  1  'x, y, z'
loop_
 _atom_site_type_symbol
 _atom_site_label
 _atom_site_symmetry_multiplicity
 _atom_site_fract_x
 _atom_site_fract_y
 _atom_site_fract_z
 _atom_site_occupancy
  Cs  Cs0  1  0.25000000  0.25000000  0.25000000  1
  Cs  Cs1  1  0.75000000  0.75000000  0.75000000  1
  In  In0  1  0.00000000  0.00000000  0.00000000  1
  Hg  Hg0  1  0.50000000  0.50000000  0.50000000  1
  F  F0  1  0.22535115  0.77464885  0.22535115  1
  F  F1  1  0.77464885  0.77464885  0.22535115  1
  F  F2  1  0.77464885  0.22535115  0.77464885  1
  F  F3  1  0.77464885  0.22535115  0.22535115  1
  F  F4  1  0.22535115  0.77464885  0.77464885  1
  F  F5  1  0.22535115  0.22535115  0.77464885  1
loop_
_geom_bond_atom_site_label_1
_geom_bond_atom_site_label_2
_geom_bond_distance
_geom_bond_site_symmetry_2
Cs0 F2 3.339139 1_554
Cs0 F1 3.339139 1_545
Cs0 F3 3.339139 1_555
Cs0 F2 3.339139 1_455
Cs0 F1 3.339139 1_455
Cs0 F3 3.339139 1_455
Cs0 F4 3.339139 1_545
Cs0 F4 3.339139 1_554
Cs0 F5 3.339139 1_555
Cs0 F5 3.339139 1_554
Cs0 F0 3.339139 1_555
Cs0 F0 3.339139 1_545
Cs1 F0 3.339139 1_556
Cs1 F5 3.339139 1_565
Cs1 F4 3.339139 1_555
Cs1 F0 3.339139 1_655
Cs1 F5 3.339139 1_655
Cs1 F4 3.339139 1_655
Cs1 F3 3.339139 1_565
Cs1 F3 3.339139 1_556
Cs1 F1 3.339139 1_555
Cs1 F1 3.339139 1_556
Cs1 F2 3.339139 1_555
Cs1 F2 3.339139 1_565
F0 In0 2.123178 1_565
F0 Hg0 2.587643 1_555
F1 In0 2.123178 1_665
F1 Hg0 2.587643 1_555
F2 In0 2.123178 1_656
F2 Hg0 2.587643 1_555
F3 In0 2.123178 1_655
F3 Hg0 2.587643 1_555
F4 In0 2.123178 1_566
F4 Hg0 2.587643 1_555
F5 In0 2.123178 1_556
F5 Hg0 2.587643 1_555
