# generated using pymatgen
data_Fe(ReN2)3
_symmetry_space_group_name_H-M   'P 1'
_cell_length_a   4.80091432
_cell_length_b   5.29098400
_cell_length_c   7.61430794
_cell_angle_alpha   90.00000000
_cell_angle_beta   94.90924721
_cell_angle_gamma   90.00000000
_symmetry_Int_Tables_number   1
_chemical_formula_structural   Fe(ReN2)3
_chemical_formula_sum   'Fe2 Re6 N12'
_cell_volume   192.70576204
_cell_formula_units_Z   2
loop_
 _symmetry_equiv_pos_site_id
 _symmetry_equiv_pos_as_xyz
  1  'x, y, z'
loop_
 _atom_site_type_symbol
 _atom_site_label
 _atom_site_symmetry_multiplicity
 _atom_site_fract_x
 _atom_site_fract_y
 _atom_site_fract_z
 _atom_site_occupancy
  Fe  Fe0  1  0.50000000  0.00000000  0.50000000  1
  Fe  Fe1  1  0.00000000  0.50000000  0.00000000  1
  Re  Re0  1  0.46378700  0.58323900  0.26180500  1
  Re  Re1  1  0.96378700  0.91676100  0.76180500  1
  Re  Re2  1  0.53621300  0.41676100  0.73819500  1
  Re  Re3  1  0.03621300  0.08323900  0.23819500  1
  Re  Re4  1  0.00000000  0.50000000  0.50000000  1
  Re  Re5  1  0.50000000  0.00000000  0.00000000  1
  N  N0  1  0.16840900  0.82043900  0.41207200  1
  N  N1  1  0.66840900  0.67956100  0.91207200  1
  N  N2  1  0.83159100  0.17956100  0.58792800  1
  N  N3  1  0.33159100  0.32043900  0.08792800  1
  N  N4  1  0.16889000  0.80281800  0.08768100  1
  N  N5  1  0.66889000  0.69718200  0.58768100  1
  N  N6  1  0.83111000  0.19718200  0.91231900  1
  N  N7  1  0.33111000  0.30281800  0.41231900  1
  N  N8  1  0.83383800  0.43018300  0.24079100  1
  N  N9  1  0.33383800  0.06981700  0.74079100  1
  N  N10  1  0.16616200  0.56981700  0.75920900  1
  N  N11  1  0.66616200  0.93018300  0.25920900  1
loop_
_geom_bond_atom_site_label_1
_geom_bond_atom_site_label_2
_geom_bond_distance
_geom_bond_site_symmetry_2
Fe0 N7 1.891449 1_555
Fe0 N5 1.891449 1_545
Fe0 N2 1.924240 1_555
Fe0 N0 1.924240 1_545
Fe0 N11 2.093974 1_545
Fe0 N9 2.093974 1_555
Fe1 N4 1.891449 1_555
Fe1 N6 1.891449 1_454
Fe1 N1 1.924240 1_454
Fe1 N3 1.924240 1_555
Fe1 N10 2.093974 1_554
Fe1 N8 2.093974 1_455
N0 Re3 1.986263 1_565
N0 Re4 2.017202 1_555
N0 Re0 2.274400 1_555
N1 Re2 1.986263 1_555
N1 Re5 2.017202 1_566
N1 Re1 2.274400 1_555
N2 Re1 1.986263 1_545
N2 Re4 2.017202 1_655
N2 Re2 2.274400 1_555
N3 Re0 1.986263 1_555
N3 Re5 2.017202 1_555
N3 Re3 2.274400 1_555
N4 Re3 2.011344 1_565
N4 Re5 2.059793 1_565
N4 Re0 2.188775 1_555
N5 Re2 2.011344 1_555
N5 Re4 2.059793 1_655
N5 Re1 2.188775 1_555
N6 Re1 2.011344 1_545
N6 Re5 2.059793 1_556
N6 Re2 2.188775 1_555
N7 Re0 2.011344 1_555
N7 Re4 2.059793 1_555
N7 Re3 2.188775 1_555
N8 Re0 1.971372 1_555
N8 Re3 2.077825 1_655
N8 Re4 2.097339 1_655
N9 Re1 1.971372 1_445
N9 Re2 2.077825 1_555
N9 Re5 2.097339 1_556
N10 Re2 1.971372 1_555
N10 Re1 2.077825 1_455
N10 Re4 2.097339 1_555
N11 Re3 1.971372 1_665
N11 Re0 2.077825 1_555
N11 Re5 2.097339 1_565
