# generated using pymatgen
data_CeMg6Ni
_symmetry_space_group_name_H-M   'P 1'
_cell_length_a   6.62647549
_cell_length_b   6.62647549
_cell_length_c   4.82434200
_cell_angle_alpha   90.00000000
_cell_angle_beta   90.00000000
_cell_angle_gamma   123.39410573
_symmetry_Int_Tables_number   1
_chemical_formula_structural   CeMg6Ni
_chemical_formula_sum   'Ce1 Mg6 Ni1'
_cell_volume   176.86425752
_cell_formula_units_Z   1
loop_
 _symmetry_equiv_pos_site_id
 _symmetry_equiv_pos_as_xyz
  1  'x, y, z'
loop_
 _atom_site_type_symbol
 _atom_site_label
 _atom_site_symmetry_multiplicity
 _atom_site_fract_x
 _atom_site_fract_y
 _atom_site_fract_z
 _atom_site_occupancy
  Ce  Ce0  1  0.80337500  0.19662500  0.00000000  1
  Mg  Mg0  1  0.19023700  0.32121400  0.50000000  1
  Mg  Mg1  1  0.67878600  0.80976300  0.50000000  1
  Mg  Mg2  1  0.17925100  0.82074900  0.50000000  1
  Mg  Mg3  1  0.32809300  0.18202600  0.00000000  1
  Mg  Mg4  1  0.81797400  0.67190700  0.00000000  1
  Mg  Mg5  1  0.34025000  0.65975000  0.00000000  1
  Ni  Ni0  1  0.66203400  0.33796600  0.50000000  1
loop_
_geom_bond_atom_site_label_1
_geom_bond_atom_site_label_2
_geom_bond_distance
_geom_bond_site_symmetry_2
Ce0 Ni0 2.922088 1_555
Ce0 Ni0 2.922088 1_554
Ce0 Mg3 3.097253 1_555
Ce0 Mg4 3.097253 1_555
Ce0 Mg5 3.171161 1_545
Ce0 Mg5 3.171161 1_655
Ce0 Mg1 3.277518 1_544
Ce0 Mg1 3.277518 1_545
Ce0 Mg0 3.277518 1_654
Ce0 Mg0 3.277518 1_655
Ce0 Mg3 3.531200 1_655
Ce0 Mg4 3.531200 1_545
Mg0 Mg3 2.903653 1_556
Mg0 Mg3 2.903653 1_555
Mg0 Mg5 3.063395 1_556
Mg0 Mg5 3.063395 1_555
Mg0 Ni0 3.066655 1_555
Mg0 Mg1 3.069880 1_555
Mg0 Mg1 3.213788 1_445
Mg0 Mg2 3.276815 1_545
Mg0 Mg2 3.350776 1_555
Mg1 Mg4 2.903653 1_556
Mg1 Mg4 2.903653 1_555
Mg1 Mg5 3.063395 1_556
Mg1 Mg5 3.063395 1_555
Mg1 Ni0 3.066655 1_555
Mg1 Mg2 3.276815 1_655
Mg1 Mg2 3.350776 1_555
Mg2 Mg5 3.057422 1_556
Mg2 Mg5 3.057422 1_555
Mg2 Ni0 3.148250 1_455
Mg2 Ni0 3.148250 1_565
Mg2 Mg4 3.150140 1_456
Mg2 Mg4 3.150140 1_455
Mg2 Mg3 3.150140 1_566
Mg2 Mg3 3.150140 1_565
Mg3 Ni0 3.044007 1_555
Mg3 Ni0 3.044007 1_554
Mg3 Mg4 3.078250 1_555
Mg3 Mg5 3.122012 1_555
Mg3 Mg4 3.205418 1_445
Mg4 Ni0 3.044007 1_555
Mg4 Ni0 3.044007 1_554
Mg4 Mg5 3.122012 1_555
