# generated using pymatgen
data_MnNiSnRh
_symmetry_space_group_name_H-M   'P 1'
_cell_length_a   4.38238761
_cell_length_b   4.38238761
_cell_length_c   4.38238761
_cell_angle_alpha   60.00000000
_cell_angle_beta   60.00000000
_cell_angle_gamma   60.00000000
_symmetry_Int_Tables_number   1
_chemical_formula_structural   MnNiSnRh
_chemical_formula_sum   'Mn1 Ni1 Sn1 Rh1'
_cell_volume   59.51375663
_cell_formula_units_Z   1
loop_
 _symmetry_equiv_pos_site_id
 _symmetry_equiv_pos_as_xyz
  1  'x, y, z'
loop_
 _atom_site_type_symbol
 _atom_site_label
 _atom_site_symmetry_multiplicity
 _atom_site_fract_x
 _atom_site_fract_y
 _atom_site_fract_z
 _atom_site_occupancy
  Mn  Mn0  1  0.00000000  0.00000000  0.00000000  1
  Ni  Ni0  1  0.25000000  0.25000000  0.25000000  1
  Sn  Sn0  1  0.50000000  0.50000000  0.50000000  1
  Rh  Rh0  1  0.75000000  0.75000000  0.75000000  1
loop_
_geom_bond_atom_site_label_1
_geom_bond_atom_site_label_2
_geom_bond_distance
_geom_bond_site_symmetry_2
Mn0 Ni0 2.683653 1_555
Mn0 Ni0 2.683653 1_554
Mn0 Rh0 2.683653 1_445
Mn0 Rh0 2.683653 1_444
Mn0 Rh0 2.683653 1_454
Mn0 Rh0 2.683653 1_544
Mn0 Ni0 2.683653 1_455
Mn0 Ni0 2.683653 1_545
Mn0 Sn0 3.098816 1_545
Mn0 Sn0 3.098816 1_554
Mn0 Sn0 3.098816 1_454
Mn0 Sn0 3.098816 1_445
Mn0 Sn0 3.098816 1_455
Mn0 Sn0 3.098816 1_544
Ni0 Sn0 2.683653 1_555
Ni0 Sn0 2.683653 1_554
Ni0 Sn0 2.683653 1_455
Ni0 Sn0 2.683653 1_545
Ni0 Rh0 3.098816 1_554
Ni0 Rh0 3.098816 1_445
Ni0 Rh0 3.098816 1_544
Ni0 Rh0 3.098816 1_454
Ni0 Rh0 3.098816 1_545
Ni0 Rh0 3.098816 1_455
Rh0 Sn0 2.683653 1_556
Rh0 Sn0 2.683653 1_555
Rh0 Sn0 2.683653 1_655
Rh0 Sn0 2.683653 1_565
