# generated using pymatgen
data_Nd4MgSi4(C2O11)2
_symmetry_space_group_name_H-M   'P 1'
_cell_length_a   5.98735500
_cell_length_b   10.42267500
_cell_length_c   14.64940756
_cell_angle_alpha   77.34524664
_cell_angle_beta   90.00000000
_cell_angle_gamma   90.00000000
_symmetry_Int_Tables_number   1
_chemical_formula_structural   Nd4MgSi4(C2O11)2
_chemical_formula_sum   'Nd8 Mg2 Si8 C8 O44'
_cell_volume   891.97784375
_cell_formula_units_Z   2
loop_
 _symmetry_equiv_pos_site_id
 _symmetry_equiv_pos_as_xyz
  1  'x, y, z'
loop_
 _atom_site_type_symbol
 _atom_site_label
 _atom_site_symmetry_multiplicity
 _atom_site_fract_x
 _atom_site_fract_y
 _atom_site_fract_z
 _atom_site_occupancy
  Nd  Nd0  1  0.90672500  0.72734800  0.92100300  1
  Nd  Nd1  1  0.09327500  0.27265200  0.07899700  1
  Nd  Nd2  1  0.40672500  0.27265200  0.57899700  1
  Nd  Nd3  1  0.59327500  0.72734800  0.42100300  1
  Nd  Nd4  1  0.01651600  0.77505100  0.64942800  1
  Nd  Nd5  1  0.98348400  0.22494900  0.35057200  1
  Nd  Nd6  1  0.51651600  0.22494900  0.85057200  1
  Nd  Nd7  1  0.48348400  0.77505100  0.14942800  1
  Mg  Mg0  1  0.50000000  0.50000000  0.00000000  1
  Mg  Mg1  1  0.00000000  0.50000000  0.50000000  1
  Si  Si0  1  0.51068900  0.72106800  0.78342400  1
  Si  Si1  1  0.48931100  0.27893200  0.21657600  1
  Si  Si2  1  0.01068900  0.27893200  0.71657600  1
  Si  Si3  1  0.98931100  0.72106800  0.28342400  1
  Si  Si4  1  0.01585200  0.43753200  0.87516700  1
  Si  Si5  1  0.98414800  0.56246800  0.12483300  1
  Si  Si6  1  0.51585200  0.56246800  0.62483300  1
  Si  Si7  1  0.48414800  0.43753200  0.37516700  1
  C  C0  1  0.28239000  0.92895700  0.82188100  1
  C  C1  1  0.71761000  0.07104300  0.17811900  1
  C  C2  1  0.78239000  0.07104300  0.67811900  1
  C  C3  1  0.21761000  0.92895700  0.32188100  1
  C  C4  1  0.50000000  0.00000000  0.50000000  1
  C  C5  1  0.00000000  0.00000000  0.00000000  1
  C  C6  1  0.50000000  0.00000000  0.00000000  1
  C  C7  1  0.00000000  0.00000000  0.50000000  1
  O  O0  1  0.03490500  0.34974200  0.60705900  1
  O  O1  1  0.96509500  0.65025800  0.39294100  1
  O  O2  1  0.53490500  0.65025800  0.89294100  1
  O  O3  1  0.46509500  0.34974200  0.10705900  1
  O  O4  1  0.09143400  0.93251000  0.85828900  1
  O  O5  1  0.90856600  0.06749000  0.14171100  1
  O  O6  1  0.59143400  0.06749000  0.64171100  1
  O  O7  1  0.40856600  0.93251000  0.35828900  1
  O  O8  1  0.29947700  0.83202300  0.76968500  1
  O  O9  1  0.70052300  0.16797700  0.23031500  1
  O  O10  1  0.79947700  0.16797700  0.73031500  1
  O  O11  1  0.20052300  0.83202300  0.26968500  1
  O  O12  1  0.32876500  0.59718200  0.53964800  1
  O  O13  1  0.67123500  0.40281800  0.46035200  1
  O  O14  1  0.82876500  0.40281800  0.96035200  1
  O  O15  1  0.17123500  0.59718200  0.03964800  1
  O  O16  1  0.74845700  0.78957000  0.75614100  1
  O  O17  1  0.25154300  0.21043000  0.24385900  1
  O  O18  1  0.24845700  0.21043000  0.74385900  1
  O  O19  1  0.75154300  0.78957000  0.25614100  1
  O  O20  1  0.42602800  0.89638700  0.54001200  1
  O  O21  1  0.57397200  0.10361300  0.45998800  1
  O  O22  1  0.92602800  0.10361300  0.95998800  1
  O  O23  1  0.07397200  0.89638700  0.04001200  1
  O  O24  1  0.53323500  0.40767700  0.67188100  1
  O  O25  1  0.46676500  0.59232300  0.32811900  1
  O  O26  1  0.03323500  0.59232300  0.82811900  1
  O  O27  1  0.96676500  0.40767700  0.17188100  1
  O  O28  1  0.87364400  0.90044900  0.50341100  1
  O  O29  1  0.12635600  0.09955100  0.49658900  1
  O  O30  1  0.37364400  0.09955100  0.99658900  1
  O  O31  1  0.62635600  0.90044900  0.00341100  1
  O  O32  1  0.25704800  0.37190300  0.92038200  1
  O  O33  1  0.74295200  0.62809700  0.07961800  1
  O  O34  1  0.75704800  0.62809700  0.57961800  1
  O  O35  1  0.24295200  0.37190300  0.42038200  1
  O  O36  1  0.41903300  0.64209600  0.70518300  1
  O  O37  1  0.58096700  0.35790400  0.29481700  1
  O  O38  1  0.91903300  0.35790400  0.79481700  1
  O  O39  1  0.08096700  0.64209600  0.20518300  1
  O  O40  1  0.95108400  0.00444200  0.67072200  1
  O  O41  1  0.04891600  0.99555800  0.32927800  1
  O  O42  1  0.45108400  0.99555800  0.82927800  1
  O  O43  1  0.54891600  0.00444200  0.17072200  1
loop_
_geom_bond_atom_site_label_1
_geom_bond_atom_site_label_2
_geom_bond_distance
_geom_bond_site_symmetry_2
Nd0 O26 2.290158 1_655
Nd0 O4 2.403919 1_655
Nd0 O2 2.432150 1_555
Nd0 O15 2.517237 1_656
Nd0 O33 2.525397 1_556
Nd0 O16 2.542663 1_555
Nd0 O31 2.912850 1_556
Nd0 O23 2.914125 1_656
Nd1 O27 2.290158 1_455
Nd1 O5 2.403919 1_455
Nd1 O3 2.432150 1_555
Nd1 O14 2.517237 1_454
Nd1 O32 2.525397 1_554
Nd1 O17 2.542663 1_555
Nd1 O30 2.912850 1_554
Nd1 O22 2.914125 1_454
Nd2 O24 2.290158 1_555
Nd2 O6 2.403919 1_555
Nd2 O0 2.432150 1_555
Nd2 O13 2.517237 1_555
Nd2 O35 2.525397 1_555
Nd2 O18 2.542663 1_555
Nd2 O29 2.912850 1_555
Nd2 O21 2.914125 1_555
Nd3 O25 2.290158 1_555
Nd3 O7 2.403919 1_555
Nd3 O1 2.432150 1_555
Nd3 O12 2.517237 1_555
Nd3 O34 2.525397 1_555
Nd3 O19 2.542663 1_555
Nd3 O28 2.912850 1_555
Nd3 O20 2.914125 1_555
Nd4 O16 2.268549 1_455
Nd4 O28 2.406366 1_455
Nd4 O40 2.508749 1_465
Nd4 O34 2.547859 1_455
Nd4 O8 2.604762 1_555
Nd4 O36 2.810633 1_555
Nd4 O26 2.881882 1_555
Nd4 O20 3.048306 1_555
Nd5 O17 2.268549 1_655
Nd5 O29 2.406366 1_655
Nd5 O41 2.508749 1_645
Nd5 O35 2.547859 1_655
Nd5 O9 2.604762 1_555
Nd5 O37 2.810633 1_555
Nd5 O27 2.881882 1_555
Nd5 O21 3.048306 1_555
Nd6 O18 2.268549 1_555
Nd6 O30 2.406366 1_555
Nd6 O42 2.508749 1_545
Nd6 O32 2.547859 1_555
Nd6 O10 2.604762 1_555
Nd6 O38 2.810633 1_555
Nd6 O24 2.881882 1_555
Nd6 O22 3.048306 1_555
Nd7 O19 2.268549 1_555
Nd7 O31 2.406366 1_555
Nd7 O43 2.508749 1_565
Nd7 O33 2.547859 1_555
Nd7 O11 2.604762 1_555
Nd7 O39 2.810633 1_555
Nd7 O25 2.881882 1_555
Nd7 O23 3.048306 1_555
Mg0 O3 1.969736 1_555
Mg0 O2 1.969736 1_554
Mg0 O14 2.344314 1_554
Mg0 O15 2.344314 1_555
Mg0 O32 2.437456 1_554
Mg0 O33 2.437456 1_555
Mg1 O0 1.969736 1_555
Mg1 O1 1.969736 1_455
Mg1 O12 2.344314 1_555
Mg1 O13 2.344314 1_455
Mg1 O34 2.437456 1_455
Mg1 O35 2.437456 1_555
C0 O42 1.243673 1_555
C0 O4 1.265574 1_555
C0 O8 1.397982 1_555
C1 O43 1.243673 1_555
C1 O5 1.265574 1_555
C1 O9 1.397982 1_555
C2 O40 1.243673 1_555
C2 O6 1.265574 1_555
C2 O10 1.397982 1_555
C3 O41 1.243673 1_555
C3 O7 1.265574 1_555
C3 O11 1.397982 1_555
C4 O20 1.195248 1_545
C4 O21 1.195248 1_555
C5 O23 1.195248 1_545
C5 O22 1.195248 1_454
C6 O31 1.276212 1_545
C6 O30 1.276212 1_554
C7 O28 1.276212 1_445
C7 O29 1.276212 1_555
O0 Si2 1.618913 1_555
O1 Si3 1.618913 1_555
O2 Si0 1.618913 1_555
O3 Si1 1.618913 1_555
O8 Si0 1.695616 1_555
O9 Si1 1.695616 1_555
O10 Si2 1.695616 1_655
O11 Si3 1.695616 1_455
O12 Si6 1.656837 1_555
O13 Si7 1.656837 1_555
O14 Si4 1.656837 1_655
O15 Si5 1.656837 1_455
O16 Si0 1.603469 1_555
O17 Si1 1.603469 1_555
O18 Si2 1.603469 1_555
O19 Si3 1.603469 1_555
O24 Si6 1.612921 1_555
O25 Si7 1.612921 1_555
O26 Si4 1.612921 1_555
O27 Si5 1.612921 1_555
O32 Si4 1.671411 1_555
O33 Si5 1.671411 1_555
O34 Si6 1.671411 1_555
O35 Si7 1.671411 1_555
O36 Si0 1.644916 1_555
O36 Si6 1.684750 1_555
O37 Si1 1.644916 1_555
O37 Si7 1.684750 1_555
O38 Si2 1.644916 1_655
O38 Si4 1.684750 1_655
O39 Si3 1.644916 1_455
O39 Si5 1.684750 1_455
