# generated using pymatgen
data_Na15W7N19
_symmetry_space_group_name_H-M   'P 1'
_cell_length_a   6.29267303
_cell_length_b   11.77612734
_cell_length_c   18.87480217
_cell_angle_alpha   91.66432158
_cell_angle_beta   93.64447085
_cell_angle_gamma   102.67134687
_symmetry_Int_Tables_number   1
_chemical_formula_structural   Na15W7N19
_chemical_formula_sum   'Na30 W14 N38'
_cell_volume   1360.53201339
_cell_formula_units_Z   2
loop_
 _symmetry_equiv_pos_site_id
 _symmetry_equiv_pos_as_xyz
  1  'x, y, z'
loop_
 _atom_site_type_symbol
 _atom_site_label
 _atom_site_symmetry_multiplicity
 _atom_site_fract_x
 _atom_site_fract_y
 _atom_site_fract_z
 _atom_site_occupancy
  Na  Na0  1  0.54020900  0.62409800  0.45013000  1
  Na  Na1  1  0.45979100  0.37590200  0.54987000  1
  Na  Na2  1  0.54333300  0.14747400  0.63617000  1
  Na  Na3  1  0.45666700  0.85252600  0.36383000  1
  Na  Na4  1  0.73644500  0.99702400  0.19424300  1
  Na  Na5  1  0.26355500  0.00297600  0.80575700  1
  Na  Na6  1  0.90939300  0.01784500  0.36406600  1
  Na  Na7  1  0.09060700  0.98215500  0.63593400  1
  Na  Na8  1  0.85872200  0.76895500  0.29545600  1
  Na  Na9  1  0.14127800  0.23104500  0.70454400  1
  Na  Na10  1  0.81982800  0.15732700  0.83490300  1
  Na  Na11  1  0.18017200  0.84267300  0.16509700  1
  Na  Na12  1  0.90512100  0.91298300  0.91590100  1
  Na  Na13  1  0.09487900  0.08701700  0.08409900  1
  Na  Na14  1  0.69491100  0.11006900  0.99405000  1
  Na  Na15  1  0.30508900  0.88993100  0.00595000  1
  Na  Na16  1  0.67641500  0.92626000  0.51850900  1
  Na  Na17  1  0.32358500  0.07374000  0.48149100  1
  Na  Na18  1  0.65056300  0.47741800  0.29801900  1
  Na  Na19  1  0.34943700  0.52258200  0.70198100  1
  Na  Na20  1  0.95981400  0.35701600  0.00534500  1
  Na  Na21  1  0.04018600  0.64298400  0.99465500  1
  Na  Na22  1  0.90067900  0.69227700  0.80432100  1
  Na  Na23  1  0.09932100  0.30772300  0.19567900  1
  Na  Na24  1  0.68364800  0.22660700  0.39545400  1
  Na  Na25  1  0.31635200  0.77339300  0.60454600  1
  Na  Na26  1  0.57542400  0.36702400  0.83722500  1
  Na  Na27  1  0.42457600  0.63297600  0.16277500  1
  Na  Na28  1  0.00000000  0.50000000  0.50000000  1
  Na  Na29  1  0.50000000  0.50000000  0.00000000  1
  W  W0  1  0.58349500  0.24798000  0.13125700  1
  W  W1  1  0.41650500  0.75202000  0.86874300  1
  W  W2  1  0.79832700  0.41215800  0.69330100  1
  W  W3  1  0.20167300  0.58784200  0.30669900  1
  W  W4  1  0.74499500  0.66826800  0.61495000  1
  W  W5  1  0.25500500  0.33173200  0.38505000  1
  W  W6  1  0.04153600  0.76561900  0.45883700  1
  W  W7  1  0.95846400  0.23438100  0.54116300  1
  W  W8  1  0.89755000  0.54119100  0.14409000  1
  W  W9  1  0.10245000  0.45880900  0.85591000  1
  W  W10  1  0.67607100  0.91973800  0.72384400  1
  W  W11  1  0.32392900  0.08026200  0.27615600  1
  W  W12  1  0.69996100  0.78081900  0.05558700  1
  W  W13  1  0.30003900  0.21918100  0.94441300  1
  N  N0  1  0.80517300  0.17581500  0.12156700  1
  N  N1  1  0.19482700  0.82418500  0.87843300  1
  N  N2  1  0.88310500  0.34225700  0.61166000  1
  N  N3  1  0.11689500  0.65774300  0.38834000  1
  N  N4  1  0.57156400  0.03598200  0.30730800  1
  N  N5  1  0.42843600  0.96401800  0.69269200  1
  N  N6  1  0.62774600  0.83583000  0.81160200  1
  N  N7  1  0.37225400  0.16417000  0.18839800  1
  N  N8  1  0.70132400  0.40376000  0.17101300  1
  N  N9  1  0.29867600  0.59624000  0.82898700  1
  N  N10  1  0.53004700  0.40443500  0.41766900  1
  N  N11  1  0.46995300  0.59556500  0.58233100  1
  N  N12  1  0.71078600  0.12825900  0.51100400  1
  N  N13  1  0.28921400  0.87174100  0.48899600  1
  N  N14  1  0.93220000  0.67726200  0.53938000  1
  N  N15  1  0.06780000  0.32273800  0.46062000  1
  N  N16  1  0.96715300  0.88006000  0.05379800  1
  N  N17  1  0.03284700  0.11994000  0.94620200  1
  N  N18  1  0.82871000  0.83404400  0.42101400  1
  N  N19  1  0.17129000  0.16595600  0.57898600  1
  N  N20  1  0.74980700  0.82116400  0.64765300  1
  N  N21  1  0.25019300  0.17883600  0.35234700  1
  N  N22  1  0.89110500  0.49407900  0.90713800  1
  N  N23  1  0.10889500  0.50592100  0.09286200  1
  N  N24  1  0.55733900  0.75408800  0.96099300  1
  N  N25  1  0.44266100  0.24591200  0.03900700  1
  N  N26  1  0.73801200  0.62957900  0.08787200  1
  N  N27  1  0.26198800  0.37042100  0.91212800  1
  N  N28  1  0.90460000  0.04545200  0.73885800  1
  N  N29  1  0.09540000  0.95454800  0.26114200  1
  N  N30  1  0.03246900  0.63042500  0.22716800  1
  N  N31  1  0.96753100  0.36957500  0.77283200  1
  N  N32  1  0.83772400  0.57779300  0.68991400  1
  N  N33  1  0.16227600  0.42220700  0.31008600  1
  N  N34  1  0.51538400  0.35024700  0.70479200  1
  N  N35  1  0.48461600  0.64975300  0.29520800  1
  N  N36  1  0.52060600  0.83793200  0.11293600  1
  N  N37  1  0.47939400  0.16206800  0.88706400  1
loop_
_geom_bond_atom_site_label_1
_geom_bond_atom_site_label_2
_geom_bond_distance
_geom_bond_site_symmetry_2
N0 W0 1.801393 1_555
N0 Na13 2.423700 1_655
N0 Na23 2.465569 1_655
N0 Na14 2.513483 1_554
N0 Na4 2.519010 1_545
N1 W1 1.801393 1_555
N1 Na12 2.423700 1_455
N1 Na22 2.465569 1_455
N1 Na15 2.513483 1_556
N1 Na5 2.519010 1_565
N2 W2 1.886859 1_555
N2 W7 1.963556 1_555
N2 Na2 2.842999 1_555
N2 Na9 2.851807 1_655
N2 Na28 2.873779 1_655
N2 Na1 2.950897 1_555
N3 W3 1.886859 1_555
N3 W6 1.963556 1_555
N3 Na3 2.842999 1_555
N3 Na8 2.851807 1_455
N3 Na28 2.873779 1_555
N3 Na0 2.950897 1_555
N4 W11 1.817609 1_555
N4 Na6 2.373917 1_555
N4 Na3 2.423819 1_545
N4 Na4 2.504937 1_545
N4 Na24 2.691464 1_555
N5 W10 1.817609 1_555
N5 Na7 2.373917 1_555
N5 Na2 2.423819 1_565
N5 Na5 2.504937 1_565
N5 Na25 2.691464 1_555
N6 W1 1.890182 1_555
N6 W10 1.959549 1_555
N6 Na12 2.551672 1_555
N6 Na22 2.667711 1_555
N7 W0 1.890182 1_555
N7 W11 1.959549 1_555
N7 Na13 2.551672 1_555
N7 Na23 2.667711 1_555
N8 W8 1.911278 1_555
N8 W0 1.931513 1_555
N8 Na18 2.588276 1_555
N8 Na23 2.982131 1_655
N9 W9 1.911278 1_555
N9 W1 1.931513 1_555
N9 Na19 2.588276 1_555
N9 Na22 2.982131 1_455
N10 W5 1.814217 1_555
N10 Na24 2.526646 1_555
N10 Na18 2.541369 1_555
N10 Na1 2.580405 1_555
N10 Na0 2.627032 1_555
N11 W4 1.814217 1_555
N11 Na25 2.526646 1_555
N11 Na19 2.541369 1_555
N11 Na0 2.580405 1_555
N11 Na1 2.627032 1_555
N12 W7 1.818320 1_555
N12 Na16 2.350133 1_545
N12 Na17 2.404072 1_555
N12 Na24 2.512633 1_555
N12 Na2 2.670750 1_555
N13 W6 1.818320 1_555
N13 Na17 2.350133 1_565
N13 Na16 2.404072 1_555
N13 Na25 2.512633 1_555
N13 Na3 2.670750 1_555
N14 W4 1.897664 1_555
N14 W6 1.943684 1_655
N14 Na28 2.330859 1_655
N14 Na25 2.641689 1_655
N14 Na0 2.836756 1_555
N15 W5 1.897664 1_555
N15 W7 1.943684 1_455
N15 Na28 2.330859 1_555
N15 Na24 2.641689 1_455
N15 Na1 2.836756 1_555
N16 W12 1.827932 1_555
N16 Na15 2.343723 1_655
N16 Na13 2.431877 1_665
N16 Na11 2.521598 1_655
N16 Na12 2.659510 1_554
N17 W13 1.827932 1_555
N17 Na14 2.343723 1_455
N17 Na12 2.431877 1_445
N17 Na10 2.521598 1_455
N17 Na13 2.659510 1_556
N18 W6 1.826970 1_655
N18 Na6 2.412562 1_565
N18 Na16 2.459417 1_555
N18 Na8 2.500883 1_555
N18 Na3 2.570845 1_555
N18 Na0 2.819040 1_555
N19 W7 1.826970 1_455
N19 Na7 2.412562 1_545
N19 Na17 2.459417 1_555
N19 Na9 2.500883 1_555
N19 Na2 2.570845 1_555
N19 Na1 2.819040 1_555
N20 W4 1.879617 1_555
N20 W10 1.963431 1_555
N20 Na7 2.557968 1_655
N20 Na25 2.726962 1_555
N20 Na16 2.823051 1_555
N21 W5 1.879617 1_555
N21 W11 1.963431 1_555
N21 Na6 2.557968 1_455
N21 Na24 2.726962 1_555
N21 Na17 2.823051 1_555
N22 W9 1.805168 1_655
N22 Na21 2.365717 1_655
N22 Na26 2.484792 1_555
N22 Na20 2.570254 1_556
N23 W8 1.805168 1_455
N23 Na20 2.365717 1_455
N23 Na27 2.484792 1_555
N23 Na21 2.570254 1_554
N24 W1 1.899910 1_555
N24 W12 1.931853 1_556
N24 Na15 2.646716 1_556
N24 Na12 2.747333 1_555
N24 Na29 3.051793 1_556
N25 W0 1.899910 1_555
N25 W13 1.931853 1_554
N25 Na14 2.646716 1_554
N25 Na13 2.747333 1_555
N25 Na29 3.051793 1_555
N26 W8 1.898518 1_555
N26 W12 1.957624 1_555
N26 Na29 2.420135 1_555
N26 Na27 2.505268 1_555
N26 Na21 2.654429 1_654
N27 W9 1.898518 1_555
N27 W13 1.957624 1_555
N27 Na29 2.420135 1_556
N27 Na26 2.505268 1_555
N27 Na20 2.654429 1_456
N28 W10 1.824773 1_545
N28 Na10 2.366249 1_555
N28 Na9 2.488195 1_655
N28 Na7 2.507456 1_645
N28 Na5 2.667680 1_655
N29 W11 1.824773 1_565
N29 Na11 2.366249 1_555
N29 Na8 2.488195 1_455
N29 Na6 2.507456 1_465
N29 Na4 2.667680 1_455
N30 W8 1.904615 1_455
N30 W3 1.926998 1_555
N30 Na8 2.521409 1_455
N30 Na11 2.788029 1_555
N30 Na27 2.813722 1_555
N31 W9 1.904615 1_655
N31 W2 1.926998 1_555
N31 Na9 2.521409 1_655
N31 Na10 2.788029 1_555
N31 Na26 2.813722 1_555
N32 W2 1.915009 1_555
N32 W4 1.932109 1_555
N32 Na22 2.474954 1_555
N33 W3 1.915009 1_555
N33 W5 1.932109 1_555
N33 Na23 2.474954 1_555
N34 W2 1.799288 1_555
N34 Na9 2.461881 1_555
N34 Na19 2.478075 1_555
N34 Na26 2.499703 1_555
N34 Na2 2.728382 1_555
N34 Na1 2.954959 1_555
N35 W3 1.799288 1_555
N35 Na8 2.461881 1_555
N35 Na18 2.478075 1_555
N35 Na27 2.499703 1_555
N35 Na3 2.728382 1_555
N35 Na0 2.954959 1_555
N36 W12 1.828628 1_555
N36 Na11 2.424668 1_555
N36 Na4 2.482235 1_555
N36 Na15 2.525851 1_555
N36 Na27 2.576776 1_555
N37 W13 1.828628 1_555
N37 Na10 2.424668 1_555
N37 Na5 2.482235 1_555
N37 Na14 2.525851 1_555
N37 Na26 2.576776 1_555
