# generated using pymatgen
data_Al20(CoB2)3
_symmetry_space_group_name_H-M   'P 1'
_cell_length_a   8.03079415
_cell_length_b   8.03079415
_cell_length_c   8.03079415
_cell_angle_alpha   60.00000000
_cell_angle_beta   60.00000000
_cell_angle_gamma   60.00000000
_symmetry_Int_Tables_number   1
_chemical_formula_structural   Al20(CoB2)3
_chemical_formula_sum   'Al20 Co3 B6'
_cell_volume   366.23553755
_cell_formula_units_Z   1
loop_
 _symmetry_equiv_pos_site_id
 _symmetry_equiv_pos_as_xyz
  1  'x, y, z'
loop_
 _atom_site_type_symbol
 _atom_site_label
 _atom_site_symmetry_multiplicity
 _atom_site_fract_x
 _atom_site_fract_y
 _atom_site_fract_z
 _atom_site_occupancy
  Al  Al0  1  0.37674200  0.37674200  0.37674200  1
  Al  Al1  1  0.62325800  0.62325800  0.62325800  1
  Al  Al2  1  0.37674200  0.37674200  0.86977500  1
  Al  Al3  1  0.37674200  0.86977500  0.37674200  1
  Al  Al4  1  0.62325800  0.62325800  0.13022500  1
  Al  Al5  1  0.62325800  0.13022500  0.62325800  1
  Al  Al6  1  0.86977500  0.37674200  0.37674200  1
  Al  Al7  1  0.13022500  0.62325800  0.62325800  1
  Al  Al8  1  0.33587000  0.00000000  0.00000000  1
  Al  Al9  1  0.66413000  0.00000000  0.00000000  1
  Al  Al10  1  0.00000000  0.33587000  0.66413000  1
  Al  Al11  1  0.00000000  0.66413000  0.33587000  1
  Al  Al12  1  0.00000000  0.33587000  0.00000000  1
  Al  Al13  1  0.66413000  0.00000000  0.33587000  1
  Al  Al14  1  0.00000000  0.66413000  0.00000000  1
  Al  Al15  1  0.33587000  0.00000000  0.66413000  1
  Al  Al16  1  0.00000000  0.00000000  0.33587000  1
  Al  Al17  1  0.00000000  0.00000000  0.66413000  1
  Al  Al18  1  0.66413000  0.33587000  0.00000000  1
  Al  Al19  1  0.33587000  0.66413000  0.00000000  1
  Co  Co0  1  0.25000000  0.25000000  0.25000000  1
  Co  Co1  1  0.75000000  0.75000000  0.75000000  1
  Co  Co2  1  0.00000000  0.00000000  0.00000000  1
  B  B0  1  0.71700700  0.28299300  0.28299300  1
  B  B1  1  0.28299300  0.71700700  0.71700700  1
  B  B2  1  0.28299300  0.71700700  0.28299300  1
  B  B3  1  0.71700700  0.28299300  0.71700700  1
  B  B4  1  0.28299300  0.28299300  0.71700700  1
  B  B5  1  0.71700700  0.71700700  0.28299300  1
loop_
_geom_bond_atom_site_label_1
_geom_bond_atom_site_label_2
_geom_bond_distance
_geom_bond_site_symmetry_2
Al0 B4 2.247875 1_555
Al0 B2 2.247875 1_555
Al0 B0 2.247875 1_555
Al0 Co0 2.493186 1_555
Al1 B1 2.247875 1_555
Al1 B3 2.247875 1_555
Al1 B5 2.247875 1_555
Al1 Co1 2.493186 1_555
Al2 B1 2.247876 1_555
Al2 B3 2.247876 1_555
Al2 B4 2.247882 1_555
Al2 Co0 2.493179 1_556
Al3 B5 2.247876 1_555
Al3 B1 2.247876 1_555
Al3 B2 2.247882 1_555
Al3 Co0 2.493179 1_565
Al4 B2 2.247876 1_555
Al4 B0 2.247876 1_555
Al4 B5 2.247882 1_555
Al4 Co1 2.493179 1_554
Al5 B0 2.247876 1_555
Al5 B4 2.247876 1_555
Al5 B3 2.247882 1_555
Al5 Co1 2.493179 1_545
Al6 B5 2.247876 1_555
Al6 B3 2.247876 1_555
Al6 B0 2.247882 1_555
Al6 Co0 2.493179 1_655
Al7 B2 2.247876 1_555
Al7 B4 2.247876 1_555
Al7 B1 2.247882 1_555
Al7 Co1 2.493179 1_455
Al8 B2 2.311990 1_545
Al8 B4 2.311990 1_554
Al8 Co2 2.697303 1_555
Al9 B5 2.311990 1_545
Al9 B3 2.311990 1_554
Al9 Co2 2.697303 1_655
Al10 B4 2.311990 1_555
Al10 B3 2.311990 1_455
Al10 Co2 2.697303 1_556
Al11 B2 2.311990 1_555
Al11 B5 2.311990 1_455
Al11 Co2 2.697303 1_565
Al12 B4 2.311990 1_554
Al12 B0 2.311990 1_455
Al12 Co2 2.697303 1_555
Al13 B0 2.311990 1_555
Al13 B5 2.311990 1_545
Al13 Co2 2.697303 1_655
Al14 B5 2.311990 1_455
Al14 B1 2.311990 1_554
Al14 Co2 2.697303 1_565
Al15 B4 2.311990 1_555
Al15 B1 2.311990 1_545
Al15 Co2 2.697303 1_556
Al16 B2 2.311990 1_545
Al16 B0 2.311990 1_455
Al16 Co2 2.697303 1_555
Al17 B1 2.311990 1_545
Al17 B3 2.311990 1_455
Al17 Co2 2.697303 1_556
Al18 B0 2.311990 1_555
Al18 B3 2.311990 1_554
Al18 Co2 2.697303 1_655
Al19 B2 2.311990 1_555
Al19 B1 2.311990 1_554
Al19 Co2 2.697303 1_565
