# generated using pymatgen
data_Na2TiZn2GeO7
_symmetry_space_group_name_H-M   'P 1'
_cell_length_a   5.29738200
_cell_length_b   11.98916300
_cell_length_c   20.70852300
_cell_angle_alpha   90.00000000
_cell_angle_beta   90.00000000
_cell_angle_gamma   90.00000000
_symmetry_Int_Tables_number   1
_chemical_formula_structural   Na2TiZn2GeO7
_chemical_formula_sum   'Na16 Ti8 Zn16 Ge8 O56'
_cell_volume   1315.22265457
_cell_formula_units_Z   8
loop_
 _symmetry_equiv_pos_site_id
 _symmetry_equiv_pos_as_xyz
  1  'x, y, z'
loop_
 _atom_site_type_symbol
 _atom_site_label
 _atom_site_symmetry_multiplicity
 _atom_site_fract_x
 _atom_site_fract_y
 _atom_site_fract_z
 _atom_site_occupancy
  Na  Na0  1  0.75558900  0.66389400  0.82574400  1
  Na  Na1  1  0.25558900  0.33610600  0.67425600  1
  Na  Na2  1  0.74441100  0.16389400  0.17425600  1
  Na  Na3  1  0.24441100  0.83610600  0.32574400  1
  Na  Na4  1  0.24441100  0.33610600  0.17425600  1
  Na  Na5  1  0.74441100  0.66389400  0.32574400  1
  Na  Na6  1  0.25558900  0.83610600  0.82574400  1
  Na  Na7  1  0.75558900  0.16389400  0.67425600  1
  Na  Na8  1  0.75802000  0.17438700  0.99745400  1
  Na  Na9  1  0.25802000  0.82561300  0.50254600  1
  Na  Na10  1  0.25802000  0.32561300  0.99745400  1
  Na  Na11  1  0.75802000  0.67438700  0.50254600  1
  Na  Na12  1  0.24198000  0.82561300  0.00254600  1
  Na  Na13  1  0.74198000  0.17438700  0.49745400  1
  Na  Na14  1  0.74198000  0.67438700  0.00254600  1
  Na  Na15  1  0.24198000  0.32561300  0.49745400  1
  Ti  Ti0  1  0.79139600  0.68657800  0.66656800  1
  Ti  Ti1  1  0.79139600  0.18657800  0.83343200  1
  Ti  Ti2  1  0.29139600  0.81342200  0.66656800  1
  Ti  Ti3  1  0.70860400  0.68657800  0.16656800  1
  Ti  Ti4  1  0.20860400  0.31342200  0.33343200  1
  Ti  Ti5  1  0.20860400  0.81342200  0.16656800  1
  Ti  Ti6  1  0.70860400  0.18657800  0.33343200  1
  Ti  Ti7  1  0.29139600  0.31342200  0.83343200  1
  Zn  Zn0  1  0.25461900  0.07939200  0.24079400  1
  Zn  Zn1  1  0.24538100  0.57939200  0.75920600  1
  Zn  Zn2  1  0.75461900  0.92060800  0.25920600  1
  Zn  Zn3  1  0.78528800  0.91978900  0.57225700  1
  Zn  Zn4  1  0.25461900  0.57939200  0.25920600  1
  Zn  Zn5  1  0.75461900  0.42060800  0.24079400  1
  Zn  Zn6  1  0.24538100  0.07939200  0.74079400  1
  Zn  Zn7  1  0.74538100  0.92060800  0.75920600  1
  Zn  Zn8  1  0.28528800  0.08021100  0.92774300  1
  Zn  Zn9  1  0.71471200  0.41978900  0.42774300  1
  Zn  Zn10  1  0.21471200  0.58021100  0.07225700  1
  Zn  Zn11  1  0.78528800  0.41978900  0.92774300  1
  Zn  Zn12  1  0.71471200  0.91978900  0.07225700  1
  Zn  Zn13  1  0.28528800  0.58021100  0.57225700  1
  Zn  Zn14  1  0.21471200  0.08021100  0.42774300  1
  Zn  Zn15  1  0.74538100  0.42060800  0.74079400  1
  Ge  Ge0  1  0.78289600  0.92898500  0.91154200  1
  Ge  Ge1  1  0.28289600  0.07101500  0.58845800  1
  Ge  Ge2  1  0.71710400  0.42898500  0.08845800  1
  Ge  Ge3  1  0.21710400  0.57101500  0.41154200  1
  Ge  Ge4  1  0.21710400  0.07101500  0.08845800  1
  Ge  Ge5  1  0.71710400  0.92898500  0.41154200  1
  Ge  Ge6  1  0.28289600  0.57101500  0.91154200  1
  Ge  Ge7  1  0.78289600  0.42898500  0.58845800  1
  O  O0  1  0.69506400  0.34809600  0.65574600  1
  O  O1  1  0.19506400  0.65190400  0.84425400  1
  O  O2  1  0.80493600  0.84809600  0.34425400  1
  O  O3  1  0.30493600  0.15190400  0.15574600  1
  O  O4  1  0.30493600  0.65190400  0.34425400  1
  O  O5  1  0.80493600  0.34809600  0.15574600  1
  O  O6  1  0.19506400  0.15190400  0.65574600  1
  O  O7  1  0.69506400  0.84809600  0.84425400  1
  O  O8  1  0.65199600  0.06773500  0.90208100  1
  O  O9  1  0.15199600  0.93226500  0.59791900  1
  O  O10  1  0.84800400  0.56773500  0.09791900  1
  O  O11  1  0.34800400  0.43226500  0.40208100  1
  O  O12  1  0.34800400  0.93226500  0.09791900  1
  O  O13  1  0.84800400  0.06773500  0.40208100  1
  O  O14  1  0.15199600  0.43226500  0.90208100  1
  O  O15  1  0.65199600  0.56773500  0.59791900  1
  O  O16  1  0.67417600  0.36278600  0.51737800  1
  O  O17  1  0.17417600  0.63721400  0.98262200  1
  O  O18  1  0.82582400  0.86278600  0.48262200  1
  O  O19  1  0.32582400  0.13721400  0.01737800  1
  O  O20  1  0.32582400  0.63721400  0.48262200  1
  O  O21  1  0.82582400  0.36278600  0.01737800  1
  O  O22  1  0.17417600  0.13721400  0.51737800  1
  O  O23  1  0.67417600  0.86278600  0.98262200  1
  O  O24  1  0.95189400  0.30517800  0.78569200  1
  O  O25  1  0.58817000  0.29772200  0.88682700  1
  O  O26  1  0.45189400  0.69482200  0.71430800  1
  O  O27  1  0.04810600  0.19482200  0.28569200  1
  O  O28  1  0.04810600  0.69482200  0.21430800  1
  O  O29  1  0.54810600  0.30517800  0.28569200  1
  O  O30  1  0.45189400  0.19482200  0.78569200  1
  O  O31  1  0.95189400  0.80517800  0.71430800  1
  O  O32  1  0.61732900  0.06255300  0.58422500  1
  O  O33  1  0.11732900  0.93744700  0.91577500  1
  O  O34  1  0.88267100  0.56255300  0.41577500  1
  O  O35  1  0.38267100  0.43744700  0.08422500  1
  O  O36  1  0.38267100  0.93744700  0.41577500  1
  O  O37  1  0.88267100  0.06255300  0.08422500  1
  O  O38  1  0.11732900  0.43744700  0.58422500  1
  O  O39  1  0.61732900  0.56255300  0.91577500  1
  O  O40  1  0.89573300  0.06908000  0.77590000  1
  O  O41  1  0.39573300  0.93092000  0.72410000  1
  O  O42  1  0.60426700  0.56908000  0.22410000  1
  O  O43  1  0.10426700  0.43092000  0.27590000  1
  O  O44  1  0.10426700  0.93092000  0.22410000  1
  O  O45  1  0.60426700  0.06908000  0.27590000  1
  O  O46  1  0.39573300  0.43092000  0.77590000  1
  O  O47  1  0.89573300  0.56908000  0.72410000  1
  O  O48  1  0.58817000  0.79772200  0.61317300  1
  O  O49  1  0.08817000  0.20227800  0.88682700  1
  O  O50  1  0.91183000  0.29772200  0.38682700  1
  O  O51  1  0.41183000  0.70227800  0.11317300  1
  O  O52  1  0.41183000  0.20227800  0.38682700  1
  O  O53  1  0.91183000  0.79772200  0.11317300  1
  O  O54  1  0.08817000  0.70227800  0.61317300  1
  O  O55  1  0.54810600  0.80517800  0.21430800  1
loop_
_geom_bond_atom_site_label_1
_geom_bond_atom_site_label_2
_geom_bond_distance
_geom_bond_site_symmetry_2
Na0 O7 2.264262 1_555
Na0 O39 2.342790 1_555
Na0 O1 2.363787 1_655
Na0 O47 2.504780 1_555
Na1 O6 2.264262 1_555
Na1 O38 2.342790 1_555
Na1 O0 2.363787 1_555
Na1 O46 2.504780 1_555
Na2 O5 2.264262 1_555
Na2 O37 2.342790 1_555
Na2 O3 2.363787 1_555
Na2 O45 2.504780 1_555
Na3 O4 2.264262 1_555
Na3 O36 2.342790 1_555
Na3 O2 2.363787 1_455
Na3 O44 2.504780 1_555
Na4 O3 2.264262 1_555
Na4 O35 2.342790 1_555
Na4 O5 2.363787 1_455
Na4 O43 2.504780 1_555
Na5 O2 2.264262 1_555
Na5 O34 2.342790 1_555
Na5 O4 2.363787 1_555
Na5 O42 2.504780 1_555
Na6 O1 2.264262 1_555
Na6 O33 2.342790 1_555
Na6 O7 2.363787 1_555
Na6 O41 2.504780 1_555
Na7 O0 2.264262 1_555
Na7 O32 2.342790 1_555
Na7 O6 2.363787 1_655
Na7 O40 2.504780 1_555
Na8 O21 2.324045 1_556
Na8 O37 2.337222 1_556
Na8 O19 2.368693 1_556
Na8 O8 2.418926 1_555
Na9 O20 2.324045 1_555
Na9 O36 2.337222 1_555
Na9 O18 2.368693 1_455
Na9 O9 2.418926 1_555
Na10 O19 2.324045 1_556
Na10 O35 2.337222 1_556
Na10 O21 2.368693 1_456
Na10 O14 2.418926 1_555
Na11 O18 2.324045 1_555
Na11 O34 2.337222 1_555
Na11 O20 2.368693 1_555
Na11 O15 2.418926 1_555
Na12 O17 2.324045 1_554
Na12 O33 2.337222 1_554
Na12 O23 2.368693 1_554
Na12 O12 2.418926 1_555
Na13 O16 2.324045 1_555
Na13 O32 2.337222 1_555
Na13 O22 2.368693 1_655
Na13 O13 2.418926 1_555
Na14 O23 2.324045 1_554
Na14 O39 2.337222 1_554
Na14 O17 2.368693 1_654
Na14 O10 2.418926 1_555
Na15 O22 2.324045 1_555
Na15 O38 2.337222 1_555
Na15 O16 2.368693 1_555
Na15 O11 2.418926 1_555
Ge0 O7 1.760296 1_555
Ge0 O23 1.768695 1_555
Ge0 O33 1.776686 1_655
Ge0 O8 1.812856 1_565
Ge1 O6 1.760296 1_555
Ge1 O22 1.768695 1_555
Ge1 O32 1.776686 1_555
Ge1 O9 1.812856 1_545
Ge2 O5 1.760296 1_555
Ge2 O21 1.768695 1_555
Ge2 O35 1.776686 1_555
Ge2 O10 1.812856 1_555
Ge3 O4 1.760296 1_555
Ge3 O20 1.768695 1_555
Ge3 O34 1.776686 1_455
Ge3 O11 1.812856 1_555
Ge4 O3 1.760296 1_555
Ge4 O19 1.768695 1_555
Ge4 O37 1.776686 1_455
Ge4 O12 1.812856 1_545
Ge5 O2 1.760296 1_555
Ge5 O18 1.768695 1_555
Ge5 O36 1.776686 1_555
Ge5 O13 1.812856 1_565
Ge6 O1 1.760296 1_555
Ge6 O17 1.768695 1_555
Ge6 O39 1.776686 1_555
Ge6 O14 1.812856 1_555
Ge7 O0 1.760296 1_555
Ge7 O16 1.768695 1_555
Ge7 O38 1.776686 1_655
Ge7 O15 1.812856 1_555
O0 Zn15 1.982100 1_555
O1 Zn1 1.982100 1_555
O2 Zn2 1.982100 1_555
O3 Zn0 1.982100 1_555
O4 Zn4 1.982100 1_555
O5 Zn5 1.982100 1_555
O6 Zn6 1.982100 1_555
O7 Zn7 1.982100 1_555
O8 Zn8 2.019517 1_555
O8 Ti1 2.143934 1_555
O9 Zn3 2.019517 1_455
O9 Ti2 2.143934 1_555
O10 Zn10 2.019517 1_655
O10 Ti3 2.143934 1_555
O11 Zn9 2.019517 1_555
O11 Ti4 2.143934 1_555
O12 Zn12 2.019517 1_555
O12 Ti5 2.143934 1_555
O13 Zn14 2.019517 1_655
O13 Ti6 2.143934 1_555
O14 Zn11 2.019517 1_455
O14 Ti7 2.143934 1_555
O15 Zn13 2.019517 1_555
O15 Ti0 2.143934 1_555
O16 Zn9 1.989644 1_555
O17 Zn10 1.989644 1_556
O18 Zn3 1.989644 1_555
O19 Zn8 1.989644 1_554
O20 Zn13 1.989644 1_555
O21 Zn11 1.989644 1_554
O22 Zn14 1.989644 1_555
O23 Zn12 1.989644 1_556
O24 Ti1 1.929273 1_555
O24 Zn15 1.994108 1_555
O24 Ti7 2.054665 1_655
O25 Ti7 1.931230 1_555
O25 Zn11 1.987482 1_555
O25 Ti1 2.038935 1_555
O26 Ti2 1.929273 1_555
O26 Zn1 1.994108 1_555
O26 Ti0 2.054665 1_555
O27 Ti4 1.929273 1_555
O27 Zn0 1.994108 1_555
O27 Ti6 2.054665 1_455
O28 Ti5 1.929273 1_555
O28 Zn4 1.994108 1_555
O28 Ti3 2.054665 1_455
O29 Ti6 1.929273 1_555
O29 Zn5 1.994108 1_555
O29 Ti4 2.054665 1_555
O30 Ti7 1.929273 1_555
O30 Zn6 1.994108 1_555
O30 Ti1 2.054665 1_555
O31 Ti0 1.929273 1_555
O31 Zn7 1.994108 1_555
O31 Ti2 2.054665 1_655
O32 Zn3 1.944920 1_545
O33 Zn8 1.944920 1_565
O34 Zn9 1.944920 1_555
O35 Zn10 1.944920 1_555
O36 Zn14 1.944920 1_565
O37 Zn12 1.944920 1_545
O38 Zn13 1.944920 1_555
O39 Zn11 1.944920 1_555
O40 Ti1 1.925974 1_555
O40 Zn7 1.980525 1_545
O40 Zn6 1.993620 1_655
O41 Ti2 1.925974 1_555
O41 Zn6 1.980525 1_565
O41 Zn7 1.993620 1_555
O42 Ti3 1.925974 1_555
O42 Zn5 1.980525 1_555
O42 Zn4 1.993620 1_555
O43 Ti4 1.925974 1_555
O43 Zn4 1.980525 1_555
O43 Zn5 1.993620 1_455
O44 Ti5 1.925974 1_555
O44 Zn0 1.980525 1_565
O44 Zn2 1.993620 1_455
O45 Ti6 1.925974 1_555
O45 Zn2 1.980525 1_545
O45 Zn0 1.993620 1_555
O46 Ti7 1.925974 1_555
O46 Zn1 1.980525 1_555
O46 Zn15 1.993620 1_555
O47 Ti0 1.925974 1_555
O47 Zn15 1.980525 1_555
O47 Zn1 1.993620 1_655
O48 Ti2 1.931230 1_555
O48 Zn3 1.987482 1_555
O48 Ti0 2.038935 1_555
O49 Ti1 1.931230 1_455
O49 Zn8 1.987482 1_555
O49 Ti7 2.038935 1_555
O50 Ti4 1.931230 1_655
O50 Zn9 1.987482 1_555
O50 Ti6 2.038935 1_555
O51 Ti3 1.931230 1_555
O51 Zn10 1.987482 1_555
O51 Ti5 2.038935 1_555
O52 Ti6 1.931230 1_555
O52 Zn14 1.987482 1_555
O52 Ti4 2.038935 1_555
O53 Ti5 1.931230 1_655
O53 Zn12 1.987482 1_555
O53 Ti3 2.038935 1_555
O54 Ti0 1.931230 1_455
O54 Zn13 1.987482 1_555
O54 Ti2 2.038935 1_555
O55 Ti3 1.929273 1_555
O55 Zn2 1.994108 1_555
O55 Ti5 2.054665 1_555
