# generated using pymatgen
data_Tm4CdPd
_symmetry_space_group_name_H-M   'P 1'
_cell_length_a   9.49881182
_cell_length_b   9.49868892
_cell_length_c   9.49875746
_cell_angle_alpha   59.99933265
_cell_angle_beta   59.99960467
_cell_angle_gamma   59.99946519
_symmetry_Int_Tables_number   1
_chemical_formula_structural   Tm4CdPd
_chemical_formula_sum   'Tm16 Cd4 Pd4'
_cell_volume   606.00960307
_cell_formula_units_Z   4
loop_
 _symmetry_equiv_pos_site_id
 _symmetry_equiv_pos_as_xyz
  1  'x, y, z'
loop_
 _atom_site_type_symbol
 _atom_site_label
 _atom_site_symmetry_multiplicity
 _atom_site_fract_x
 _atom_site_fract_y
 _atom_site_fract_z
 _atom_site_occupancy
  Tm  Tm0  1  0.35470885  0.35471271  0.35471117  1
  Tm  Tm1  1  0.35470855  0.35471383  0.93586946  1
  Tm  Tm2  1  0.35470849  0.93587120  0.35471207  1
  Tm  Tm3  1  0.93586724  0.35471318  0.35471288  1
  Tm  Tm4  1  0.81085402  0.18914089  0.18913878  1
  Tm  Tm5  1  0.18914253  0.81085788  0.81085857  1
  Tm  Tm6  1  0.18913938  0.81084990  0.18914021  1
  Tm  Tm7  1  0.81086407  0.18914331  0.81085231  1
  Tm  Tm8  1  0.18913954  0.18914167  0.81084897  1
  Tm  Tm9  1  0.81086447  0.81085388  0.18914131  1
  Tm  Tm10  1  0.93488908  0.56511036  0.56510878  1
  Tm  Tm11  1  0.56511978  0.93488031  0.93487982  1
  Tm  Tm12  1  0.56511187  0.93488482  0.56511357  1
  Tm  Tm13  1  0.93488549  0.56511782  0.93488224  1
  Tm  Tm14  1  0.56511136  0.56511435  0.93488457  1
  Tm  Tm15  1  0.93488583  0.93488246  0.56511619  1
  Cd  Cd0  1  0.58224362  0.58224701  0.58224426  1
  Cd  Cd1  1  0.58225884  0.58225300  0.25325455  1
  Cd  Cd2  1  0.58224244  0.25325435  0.58226935  1
  Cd  Cd3  1  0.25326061  0.58224686  0.58225516  1
  Pd  Pd0  1  0.14496152  0.14496867  0.14496902  1
  Pd  Pd1  1  0.14496719  0.14497369  0.56509379  1
  Pd  Pd2  1  0.14496663  0.56509469  0.14497295  1
  Pd  Pd3  1  0.56509661  0.14497215  0.14496704  1
loop_
_geom_bond_atom_site_label_1
_geom_bond_atom_site_label_2
_geom_bond_distance
_geom_bond_site_symmetry_2
Cd0 Cd2 3.124885 1_555
Cd0 Cd1 3.124893 1_555
Cd0 Cd3 3.124897 1_555
Cd0 Tm12 3.195166 1_555
Cd0 Tm14 3.195204 1_555
Cd0 Tm10 3.195242 1_555
Cd0 Tm2 3.282772 1_555
Cd0 Tm3 3.282778 1_555
Cd0 Tm1 3.282788 1_555
Cd0 Tm7 3.445608 1_555
Cd0 Tm5 3.445610 1_555
Cd0 Tm9 3.445616 1_555
Cd1 Cd3 3.125076 1_555
Cd1 Cd2 3.125112 1_555
Cd1 Tm11 3.195091 1_554
Cd1 Tm13 3.195114 1_554
Cd1 Tm14 3.195269 1_554
Cd1 Tm3 3.282747 1_555
Cd1 Tm2 3.282791 1_555
Cd1 Tm0 3.282941 1_555
Cd1 Tm9 3.445523 1_555
Cd1 Tm4 3.445646 1_555
Cd1 Tm6 3.445738 1_555
Cd2 Cd3 3.124942 1_555
Cd2 Tm11 3.195004 1_545
Cd2 Tm15 3.195184 1_545
Cd2 Tm12 3.195245 1_545
Cd2 Tm1 3.282676 1_555
Cd2 Tm3 3.282883 1_555
Cd2 Tm0 3.282959 1_555
Cd2 Tm7 3.445529 1_555
Cd2 Tm8 3.445601 1_555
Cd2 Tm4 3.445813 1_555
Cd3 Tm13 3.195125 1_455
Cd3 Tm15 3.195148 1_455
Cd3 Tm10 3.195283 1_455
Cd3 Tm1 3.282730 1_555
Cd3 Tm2 3.282793 1_555
Cd3 Tm0 3.282865 1_555
Cd3 Tm5 3.445558 1_555
Cd3 Tm8 3.445606 1_555
Cd3 Tm6 3.445707 1_555
Pd0 Tm4 2.817245 1_455
Pd0 Tm6 2.817282 1_545
Pd0 Tm8 2.817312 1_554
Pd0 Tm3 2.817542 1_455
Pd0 Tm2 2.817559 1_545
Pd0 Tm1 2.817570 1_554
Pd0 Tm13 3.456205 1_454
Pd0 Tm15 3.456212 1_445
Pd0 Tm11 3.456332 1_544
Pd1 Tm8 2.817131 1_555
Pd1 Tm7 2.817178 1_455
Pd1 Tm5 2.817237 1_545
Pd1 Tm0 2.817492 1_555
Pd1 Tm3 2.817498 1_455
Pd1 Tm2 2.817514 1_545
Pd1 Tm10 3.456111 1_455
Pd1 Tm12 3.456235 1_545
Pd1 Tm15 3.456293 1_445
Pd2 Tm6 2.817116 1_555
Pd2 Tm9 2.817164 1_455
Pd2 Tm5 2.817234 1_554
Pd2 Tm3 2.817494 1_455
Pd2 Tm0 2.817495 1_555
Pd2 Tm1 2.817514 1_554
Pd2 Tm10 3.456136 1_455
Pd2 Tm14 3.456240 1_554
Pd2 Tm13 3.456293 1_454
Pd3 Tm4 2.817164 1_555
Pd3 Tm7 2.817269 1_554
Pd3 Tm9 2.817271 1_545
Pd3 Tm0 2.817517 1_555
Pd3 Tm1 2.817530 1_554
Pd3 Tm2 2.817549 1_545
Pd3 Tm14 3.456151 1_554
Pd3 Tm12 3.456213 1_545
Pd3 Tm11 3.456334 1_544
