# generated using pymatgen
data_Ca2Mn9O13
_symmetry_space_group_name_H-M   'P 1'
_cell_length_a   5.43810899
_cell_length_b   5.43810899
_cell_length_c   17.17977876
_cell_angle_alpha   81.35035052
_cell_angle_beta   81.35035052
_cell_angle_gamma   33.81424450
_symmetry_Int_Tables_number   1
_chemical_formula_structural   Ca2Mn9O13
_chemical_formula_sum   'Ca2 Mn9 O13'
_cell_volume   279.22076440
_cell_formula_units_Z   1
loop_
 _symmetry_equiv_pos_site_id
 _symmetry_equiv_pos_as_xyz
  1  'x, y, z'
loop_
 _atom_site_type_symbol
 _atom_site_label
 _atom_site_symmetry_multiplicity
 _atom_site_fract_x
 _atom_site_fract_y
 _atom_site_fract_z
 _atom_site_occupancy
  Ca  Ca0  1  0.77093600  0.77093600  0.23047700  1
  Ca  Ca1  1  0.22906400  0.22906400  0.76952300  1
  Mn  Mn0  1  0.50000000  0.50000000  0.50000000  1
  Mn  Mn1  1  0.34709100  0.34709100  0.04005900  1
  Mn  Mn2  1  0.65290900  0.65290900  0.95994100  1
  Mn  Mn3  1  0.24160500  0.24160500  0.41967300  1
  Mn  Mn4  1  0.75839500  0.75839500  0.58032700  1
  Mn  Mn5  1  0.05322400  0.05322400  0.12303700  1
  Mn  Mn6  1  0.94677600  0.94677600  0.87696300  1
  Mn  Mn7  1  0.00030300  0.00030300  0.33255900  1
  Mn  Mn8  1  0.99969700  0.99969700  0.66744100  1
  O  O0  1  0.00000000  0.00000000  0.00000000  1
  O  O1  1  0.11556000  0.11556000  0.22650300  1
  O  O2  1  0.88444000  0.88444000  0.77349700  1
  O  O3  1  0.69915700  0.69915700  0.06729400  1
  O  O4  1  0.30084300  0.30084300  0.93270600  1
  O  O5  1  0.40741200  0.40741200  0.14100700  1
  O  O6  1  0.59258800  0.59258800  0.85899300  1
  O  O7  1  0.36128800  0.36128800  0.32093700  1
  O  O8  1  0.63871200  0.63871200  0.67906300  1
  O  O9  1  0.61634500  0.61634500  0.38639300  1
  O  O10  1  0.38365500  0.38365500  0.61360700  1
  O  O11  1  0.85830600  0.85830600  0.46933200  1
  O  O12  1  0.14169400  0.14169400  0.53066800  1
loop_
_geom_bond_atom_site_label_1
_geom_bond_atom_site_label_2
_geom_bond_distance
_geom_bond_site_symmetry_2
Ca0 O1 2.270419 1_565
Ca0 O1 2.270419 1_655
Ca0 O5 2.488869 1_565
Ca0 O5 2.488869 1_655
Ca0 O7 2.501944 1_565
Ca0 O7 2.501944 1_655
Ca1 O2 2.270419 1_545
Ca1 O2 2.270419 1_455
Ca1 O6 2.488869 1_455
Ca1 O6 2.488869 1_545
Ca1 O8 2.501944 1_455
Ca1 O8 2.501944 1_545
Mn0 O10 2.128906 1_555
Mn0 O9 2.128906 1_555
Mn0 O11 2.279718 1_545
Mn0 O11 2.279718 1_455
Mn0 O12 2.279718 1_565
Mn0 O12 2.279718 1_655
Mn1 O5 1.934921 1_555
Mn1 O4 1.977901 1_554
Mn1 O3 2.205333 1_545
Mn1 O3 2.205333 1_455
Mn1 O0 2.272102 1_655
Mn1 O0 2.272102 1_565
Mn2 O6 1.934921 1_555
Mn2 O3 1.977901 1_556
Mn2 O4 2.205333 1_565
Mn2 O4 2.205333 1_655
Mn2 O0 2.272102 1_566
Mn2 O0 2.272102 1_656
Mn3 O7 1.940175 1_555
Mn3 O12 2.023324 1_555
Mn3 O9 2.182065 1_455
Mn3 O9 2.182065 1_545
Mn3 O11 2.242657 1_455
Mn3 O11 2.242657 1_545
Mn4 O8 1.940175 1_555
Mn4 O11 2.023324 1_555
Mn4 O10 2.182065 1_655
Mn4 O10 2.182065 1_565
Mn4 O12 2.242657 1_655
Mn4 O12 2.242657 1_565
Mn5 O1 1.985661 1_555
Mn5 O5 2.179806 1_545
Mn5 O5 2.179806 1_455
Mn5 O0 2.267758 1_555
Mn5 O3 2.295047 1_455
Mn5 O3 2.295047 1_545
Mn6 O2 1.985661 1_555
Mn6 O6 2.179806 1_655
Mn6 O6 2.179806 1_565
Mn6 O0 2.267758 1_666
Mn6 O4 2.295047 1_655
Mn6 O4 2.295047 1_565
Mn7 O1 2.017738 1_555
Mn7 O7 2.173599 1_545
Mn7 O7 2.173599 1_455
Mn7 O9 2.272844 1_545
Mn7 O9 2.272844 1_455
Mn7 O11 2.571600 1_445
Mn8 O2 2.017738 1_555
Mn8 O8 2.173599 1_655
Mn8 O8 2.173599 1_565
Mn8 O10 2.272844 1_655
Mn8 O10 2.272844 1_565
Mn8 O12 2.571600 1_665
