# generated using pymatgen
data_Rb3Sc2Br9
_symmetry_space_group_name_H-M   'P 1'
_cell_length_a   7.58650009
_cell_length_b   7.58643934
_cell_length_c   19.28791997
_cell_angle_alpha   89.99973110
_cell_angle_beta   90.00074460
_cell_angle_gamma   120.00002397
_symmetry_Int_Tables_number   1
_chemical_formula_structural   Rb3Sc2Br9
_chemical_formula_sum   'Rb6 Sc4 Br18'
_cell_volume   961.38065623
_cell_formula_units_Z   2
loop_
 _symmetry_equiv_pos_site_id
 _symmetry_equiv_pos_as_xyz
  1  'x, y, z'
loop_
 _atom_site_type_symbol
 _atom_site_label
 _atom_site_symmetry_multiplicity
 _atom_site_fract_x
 _atom_site_fract_y
 _atom_site_fract_z
 _atom_site_occupancy
  Rb  Rb0  1  0.33333319  0.66666854  0.06853645  1
  Rb  Rb1  1  0.66666906  0.33333492  0.93146625  1
  Rb  Rb2  1  0.66666701  0.33333370  0.56853242  1
  Rb  Rb3  1  0.33333511  0.66666866  0.43146974  1
  Rb  Rb4  1  0.00000183  0.00000232  0.25000459  1
  Rb  Rb5  1  0.00000290  0.00000226  0.74999780  1
  Sc  Sc0  1  0.33332803  0.66666085  0.65586187  1
  Sc  Sc1  1  0.66666697  0.33333868  0.34413543  1
  Sc  Sc2  1  0.66667460  0.33333100  0.15586536  1
  Sc  Sc3  1  0.33333123  0.66667319  0.84413488  1
  Br  Br0  1  0.16698833  0.33398889  0.58731654  1
  Br  Br1  1  0.83301284  0.66602019  0.41267114  1
  Br  Br2  1  0.66600787  0.83300586  0.58731393  1
  Br  Br3  1  0.83301764  0.66600788  0.08731839  1
  Br  Br4  1  0.33398576  0.16699770  0.41268106  1
  Br  Br5  1  0.16699358  0.33400826  0.91268880  1
  Br  Br6  1  0.16699450  0.83300591  0.58733818  1
  Br  Br7  1  0.33401405  0.16699809  0.08732112  1
  Br  Br8  1  0.83299598  0.16698733  0.41266634  1
  Br  Br9  1  0.66598974  0.83301239  0.91268243  1
  Br  Br10  1  0.83301061  0.16699580  0.08732483  1
  Br  Br11  1  0.16700396  0.83301246  0.91268061  1
  Br  Br12  1  0.50732329  0.01469371  0.24999348  1
  Br  Br13  1  0.49263001  0.98526935  0.75000933  1
  Br  Br14  1  0.98528499  0.49262386  0.24999415  1
  Br  Br15  1  0.01473353  0.50736067  0.74999726  1
  Br  Br16  1  0.50737490  0.49263346  0.25000805  1
  Br  Br17  1  0.49262846  0.50736508  0.74999356  1
loop_
_geom_bond_atom_site_label_1
_geom_bond_atom_site_label_2
_geom_bond_distance
_geom_bond_site_symmetry_2
Br0 Sc0 2.554424 1_555
Br0 Rb3 3.716612 1_555
Br0 Rb2 3.810464 1_455
Br0 Rb2 3.810568 1_555
Br0 Rb5 3.828929 1_555
Br1 Sc1 2.554382 1_555
Br1 Rb2 3.716864 1_555
Br1 Rb3 3.810523 1_655
Br1 Rb3 3.810562 1_555
Br1 Rb4 3.828680 1_665
Br2 Sc0 2.554526 1_555
Br2 Rb3 3.716529 1_555
Br2 Rb2 3.810466 1_565
Br2 Rb2 3.810496 1_555
Br2 Rb5 3.828986 1_665
Br3 Sc2 2.554473 1_555
Br3 Rb1 3.716662 1_554
Br3 Rb0 3.810405 1_655
Br3 Rb0 3.810619 1_555
Br3 Rb4 3.829029 1_665
Br4 Sc1 2.554511 1_555
Br4 Rb2 3.716674 1_555
Br4 Rb3 3.810468 1_555
Br4 Rb3 3.810520 1_545
Br4 Rb4 3.828828 1_555
Br5 Sc3 2.554475 1_555
Br5 Rb0 3.716543 1_556
Br5 Rb1 3.810417 1_455
Br5 Rb1 3.810591 1_555
Br5 Rb5 3.829149 1_555
Br6 Sc0 2.554245 1_555
Br6 Rb3 3.716962 1_555
Br6 Rb2 3.810535 1_455
Br6 Rb2 3.810543 1_565
Br6 Rb5 3.828612 1_565
Br7 Sc2 2.554353 1_555
Br7 Rb1 3.716671 1_554
Br7 Rb0 3.810406 1_545
Br7 Rb0 3.810567 1_555
Br7 Rb4 3.829089 1_555
Br8 Sc1 2.554327 1_555
Br8 Rb2 3.716916 1_555
Br8 Rb3 3.810460 1_545
Br8 Rb3 3.810609 1_655
Br8 Rb4 3.828657 1_655
Br9 Sc3 2.554374 1_555
Br9 Rb0 3.716664 1_556
Br9 Rb1 3.810357 1_565
Br9 Rb1 3.810613 1_555
Br9 Rb5 3.829111 1_665
Br10 Sc2 2.554394 1_555
Br10 Rb1 3.716783 1_554
Br10 Rb0 3.810492 1_655
Br10 Rb0 3.810522 1_545
Br10 Rb4 3.828882 1_655
Br11 Sc3 2.554420 1_555
Br11 Rb0 3.716712 1_556
Br11 Rb1 3.810452 1_565
Br11 Rb1 3.810552 1_455
Br11 Rb5 3.828953 1_565
Br12 Sc2 2.771059 1_555
Br12 Sc1 2.771266 1_555
Br12 Rb4 3.794295 1_555
Br12 Rb4 3.794661 1_655
Br13 Sc3 2.770823 1_555
Br13 Sc0 2.771155 1_555
Br13 Rb5 3.794436 1_565
Br13 Rb5 3.794534 1_665
Br14 Sc2 2.770927 1_555
Br14 Sc1 2.771157 1_555
Br14 Rb4 3.794300 1_655
Br14 Rb4 3.794603 1_665
Br15 Sc0 2.770965 1_555
Br15 Sc3 2.770976 1_555
Br15 Rb5 3.794401 1_555
Br15 Rb5 3.794507 1_565
Br16 Sc1 2.770790 1_555
Br16 Sc2 2.771087 1_555
Br16 Rb4 3.794453 1_665
Br16 Rb4 3.794487 1_555
Br17 Sc0 2.770890 1_555
Br17 Sc3 2.771086 1_555
Br17 Rb5 3.794424 1_555
Br17 Rb5 3.794514 1_665
