# generated using pymatgen
data_SrMg6Co
_symmetry_space_group_name_H-M   'P 1'
_cell_length_a   4.91127600
_cell_length_b   6.04589700
_cell_length_c   13.22186700
_cell_angle_alpha   90.00000000
_cell_angle_beta   90.00000000
_cell_angle_gamma   90.00000000
_symmetry_Int_Tables_number   1
_chemical_formula_structural   SrMg6Co
_chemical_formula_sum   'Sr2 Mg12 Co2'
_cell_volume   392.59780695
_cell_formula_units_Z   2
loop_
 _symmetry_equiv_pos_site_id
 _symmetry_equiv_pos_as_xyz
  1  'x, y, z'
loop_
 _atom_site_type_symbol
 _atom_site_label
 _atom_site_symmetry_multiplicity
 _atom_site_fract_x
 _atom_site_fract_y
 _atom_site_fract_z
 _atom_site_occupancy
  Sr  Sr0  1  0.50000000  0.50000000  0.19837900  1
  Sr  Sr1  1  0.50000000  0.00000000  0.69837900  1
  Mg  Mg0  1  0.50000000  0.24474700  0.44220100  1
  Mg  Mg1  1  0.50000000  0.75525300  0.44220100  1
  Mg  Mg2  1  0.00000000  0.76513200  0.07730700  1
  Mg  Mg3  1  0.00000000  0.23486800  0.07730700  1
  Mg  Mg4  1  0.00000000  0.00000000  0.29086800  1
  Mg  Mg5  1  0.00000000  0.50000000  0.36893900  1
  Mg  Mg6  1  0.50000000  0.74474700  0.94220100  1
  Mg  Mg7  1  0.50000000  0.25525300  0.94220100  1
  Mg  Mg8  1  0.00000000  0.26513200  0.57730700  1
  Mg  Mg9  1  0.00000000  0.73486800  0.57730700  1
  Mg  Mg10  1  0.00000000  0.50000000  0.79086800  1
  Mg  Mg11  1  0.00000000  0.00000000  0.86893900  1
  Co  Co0  1  0.50000000  0.00000000  0.10279300  1
  Co  Co1  1  0.50000000  0.50000000  0.60279300  1
loop_
_geom_bond_atom_site_label_1
_geom_bond_atom_site_label_2
_geom_bond_distance
_geom_bond_site_symmetry_2
Mg0 Mg1 2.959430 1_545
Mg0 Mg8 3.039146 1_555
Mg0 Mg8 3.039146 1_655
Mg0 Mg5 3.057782 1_555
Mg0 Mg5 3.057782 1_655
Mg0 Mg1 3.086467 1_555
Mg0 Mg4 3.496189 1_555
Mg0 Mg4 3.496189 1_655
Mg0 Sr0 3.574121 1_555
Mg0 Sr1 3.696262 1_555
Mg1 Mg9 3.039146 1_555
Mg1 Mg9 3.039146 1_655
Mg1 Mg5 3.057782 1_555
Mg1 Mg5 3.057782 1_655
Mg1 Mg4 3.496189 1_665
Mg1 Mg4 3.496189 1_565
Mg1 Sr0 3.574121 1_555
Mg1 Sr1 3.696262 1_565
Mg2 Mg3 2.839975 1_565
Mg2 Mg6 3.039146 1_554
Mg2 Mg6 3.039146 1_454
Mg2 Mg4 3.160618 1_565
Mg2 Mg3 3.205922 1_555
Mg2 Sr0 3.340987 1_555
Mg2 Sr0 3.340987 1_455
Mg3 Mg7 3.039146 1_454
Mg3 Mg7 3.039146 1_554
Mg3 Mg4 3.160618 1_555
Mg3 Sr0 3.340987 1_455
Mg3 Sr0 3.340987 1_555
Mg4 Mg5 3.194330 1_555
Mg4 Mg5 3.194330 1_545
Mg5 Mg9 3.099430 1_555
Mg5 Mg8 3.099430 1_555
Mg5 Sr0 3.334026 1_555
Mg5 Sr0 3.334026 1_455
Mg6 Mg7 2.959430 1_555
Mg6 Mg7 3.086467 1_565
Mg6 Sr1 3.574121 1_565
Mg6 Sr0 3.696262 1_556
Mg7 Sr1 3.574121 1_555
Mg7 Sr0 3.696262 1_556
Mg8 Mg9 2.839975 1_555
Mg8 Mg9 3.205922 1_545
Mg8 Sr1 3.340987 1_555
Mg8 Sr1 3.340987 1_455
Mg9 Sr1 3.340987 1_465
Mg9 Sr1 3.340987 1_565
Mg10 Mg9 3.160618 1_555
Mg10 Mg8 3.160618 1_555
Mg10 Mg11 3.194330 1_565
Mg10 Mg11 3.194330 1_555
Mg10 Mg6 3.496189 1_555
Mg10 Mg6 3.496189 1_455
Mg10 Mg7 3.496189 1_555
Mg10 Mg7 3.496189 1_455
Mg11 Mg7 3.057782 1_555
Mg11 Mg7 3.057782 1_455
Mg11 Mg6 3.057782 1_445
Mg11 Mg6 3.057782 1_545
Mg11 Mg3 3.099430 1_556
Mg11 Mg2 3.099430 1_546
Mg11 Sr1 3.334026 1_455
Mg11 Sr1 3.334026 1_555
Co0 Mg7 2.624897 1_554
Co0 Mg6 2.624897 1_544
Co0 Mg3 2.856584 1_655
Co0 Mg3 2.856584 1_555
Co0 Mg2 2.856584 1_545
Co0 Mg2 2.856584 1_645
Co0 Sr0 3.276503 1_545
Co0 Sr0 3.276503 1_555
Co1 Mg1 2.624897 1_555
Co1 Mg0 2.624897 1_555
Co1 Mg9 2.856584 1_555
Co1 Mg9 2.856584 1_655
Co1 Mg8 2.856584 1_555
Co1 Mg8 2.856584 1_655
Co1 Sr1 3.276503 1_555
Co1 Sr1 3.276503 1_565
