# generated using pymatgen
data_Fe(SiO3)2
_symmetry_space_group_name_H-M   'P 1'
_cell_length_a   5.11288600
_cell_length_b   10.76149100
_cell_length_c   18.83242900
_cell_angle_alpha   90.00000000
_cell_angle_beta   90.00000000
_cell_angle_gamma   90.00000000
_symmetry_Int_Tables_number   1
_chemical_formula_structural   Fe(SiO3)2
_chemical_formula_sum   'Fe8 Si16 O48'
_cell_volume   1036.20311886
_cell_formula_units_Z   8
loop_
 _symmetry_equiv_pos_site_id
 _symmetry_equiv_pos_as_xyz
  1  'x, y, z'
loop_
 _atom_site_type_symbol
 _atom_site_label
 _atom_site_symmetry_multiplicity
 _atom_site_fract_x
 _atom_site_fract_y
 _atom_site_fract_z
 _atom_site_occupancy
  Fe  Fe0  1  0.43734700  0.54857200  0.37438600  1
  Fe  Fe1  1  0.56265300  0.45142800  0.62561400  1
  Fe  Fe2  1  0.93734700  0.45142800  0.12561400  1
  Fe  Fe3  1  0.06265300  0.54857200  0.87438600  1
  Fe  Fe4  1  0.43734700  0.04857200  0.12561400  1
  Fe  Fe5  1  0.56265300  0.95142800  0.87438600  1
  Fe  Fe6  1  0.93734700  0.95142800  0.37438600  1
  Fe  Fe7  1  0.06265300  0.04857200  0.62561400  1
  Si  Si0  1  0.62264200  0.16820300  0.27775500  1
  Si  Si1  1  0.76229000  0.33015500  0.97238900  1
  Si  Si2  1  0.73771000  0.33015500  0.47238900  1
  Si  Si3  1  0.87735800  0.66820300  0.72224500  1
  Si  Si4  1  0.12264200  0.83179700  0.22224500  1
  Si  Si5  1  0.37735800  0.33179700  0.77775500  1
  Si  Si6  1  0.26229000  0.16984500  0.97238900  1
  Si  Si7  1  0.76229000  0.83015500  0.52761100  1
  Si  Si8  1  0.73771000  0.83015500  0.02761100  1
  Si  Si9  1  0.87735800  0.16820300  0.77775500  1
  Si  Si10  1  0.37735800  0.83179700  0.72224500  1
  Si  Si11  1  0.62264200  0.66820300  0.22224500  1
  Si  Si12  1  0.23771000  0.66984500  0.02761100  1
  Si  Si13  1  0.12264200  0.33179700  0.27775500  1
  Si  Si14  1  0.23771000  0.16984500  0.47238900  1
  Si  Si15  1  0.26229000  0.66984500  0.52761100  1
  O  O0  1  0.80570300  0.04360200  0.82187700  1
  O  O1  1  0.33018200  0.54594100  0.57300400  1
  O  O2  1  0.19429700  0.95639800  0.17812300  1
  O  O3  1  0.76735200  0.85765100  0.44298300  1
  O  O4  1  0.26735200  0.64234900  0.44298300  1
  O  O5  1  0.96530300  0.71676100  0.54726400  1
  O  O6  1  0.87080500  0.13825600  0.69286400  1
  O  O7  1  0.12919500  0.36174400  0.19286400  1
  O  O8  1  0.76735200  0.35765100  0.05701700  1
  O  O9  1  0.87080500  0.63825600  0.80713600  1
  O  O10  1  0.30570300  0.95639800  0.67812300  1
  O  O11  1  0.73264800  0.85765100  0.94298300  1
  O  O12  1  0.66981800  0.45405900  0.42699600  1
  O  O13  1  0.37080500  0.36174400  0.69286400  1
  O  O14  1  0.69429700  0.54360200  0.17812300  1
  O  O15  1  0.33018200  0.04594100  0.92699600  1
  O  O16  1  0.30570300  0.45639800  0.82187700  1
  O  O17  1  0.17109800  0.21979400  0.79715800  1
  O  O18  1  0.32890200  0.21979400  0.29715800  1
  O  O19  1  0.53469700  0.21676100  0.45273600  1
  O  O20  1  0.73264800  0.35765100  0.55701700  1
  O  O21  1  0.62919500  0.13825600  0.19286400  1
  O  O22  1  0.83018200  0.95405900  0.57300400  1
  O  O23  1  0.17109800  0.71979400  0.70284200  1
  O  O24  1  0.23264800  0.64234900  0.94298300  1
  O  O25  1  0.62919500  0.63825600  0.30713600  1
  O  O26  1  0.66981800  0.95405900  0.07300400  1
  O  O27  1  0.26735200  0.14234900  0.05701700  1
  O  O28  1  0.16981800  0.04594100  0.42699600  1
  O  O29  1  0.67109800  0.28020600  0.79715800  1
  O  O30  1  0.19429700  0.45639800  0.32187700  1
  O  O31  1  0.82890200  0.28020600  0.29715800  1
  O  O32  1  0.82890200  0.78020600  0.20284200  1
  O  O33  1  0.83018200  0.45405900  0.92699600  1
  O  O34  1  0.23264800  0.14234900  0.55701700  1
  O  O35  1  0.16981800  0.54594100  0.07300400  1
  O  O36  1  0.32890200  0.71979400  0.20284200  1
  O  O37  1  0.03469700  0.28323900  0.45273600  1
  O  O38  1  0.46530300  0.28323900  0.95273600  1
  O  O39  1  0.67109800  0.78020600  0.70284200  1
  O  O40  1  0.46530300  0.78323900  0.54726400  1
  O  O41  1  0.53469700  0.71676100  0.04726400  1
  O  O42  1  0.03469700  0.78323900  0.04726400  1
  O  O43  1  0.37080500  0.86174400  0.80713600  1
  O  O44  1  0.69429700  0.04360200  0.32187700  1
  O  O45  1  0.96530300  0.21676100  0.95273600  1
  O  O46  1  0.12919500  0.86174400  0.30713600  1
  O  O47  1  0.80570300  0.54360200  0.67812300  1
loop_
_geom_bond_atom_site_label_1
_geom_bond_atom_site_label_2
_geom_bond_distance
_geom_bond_site_symmetry_2
Fe0 O12 1.851727 1_555
Fe0 O4 1.855469 1_555
Fe0 O25 1.870191 1_555
Fe0 O30 1.872448 1_555
Fe1 O1 1.851727 1_555
Fe1 O20 1.855469 1_555
Fe1 O13 1.870191 1_555
Fe1 O47 1.872448 1_555
Fe2 O35 1.851727 1_655
Fe2 O8 1.855469 1_555
Fe2 O7 1.870191 1_655
Fe2 O14 1.872448 1_555
Fe3 O33 1.851727 1_455
Fe3 O24 1.855469 1_555
Fe3 O9 1.870191 1_455
Fe3 O16 1.872448 1_555
Fe4 O26 1.851727 1_545
Fe4 O27 1.855469 1_555
Fe4 O21 1.870191 1_555
Fe4 O2 1.872448 1_545
Fe5 O15 1.851727 1_565
Fe5 O11 1.855469 1_555
Fe5 O43 1.870191 1_555
Fe5 O0 1.872448 1_565
Fe6 O28 1.851727 1_665
Fe6 O3 1.855469 1_555
Fe6 O46 1.870191 1_655
Fe6 O44 1.872448 1_565
Fe7 O22 1.851727 1_445
Fe7 O34 1.855469 1_555
Fe7 O6 1.870191 1_455
Fe7 O10 1.872448 1_545
O0 Si9 1.619460 1_555
O1 Si15 1.621485 1_555
O2 Si4 1.619460 1_555
O3 Si7 1.621193 1_555
O4 Si15 1.621193 1_555
O5 Si15 1.642442 1_655
O5 Si7 1.644231 1_555
O6 Si9 1.631207 1_555
O7 Si13 1.631207 1_555
O8 Si1 1.621193 1_554
O9 Si3 1.631207 1_555
O10 Si10 1.619460 1_555
O11 Si8 1.621193 1_556
O12 Si2 1.621485 1_555
O13 Si5 1.631207 1_555
O14 Si11 1.619460 1_555
O15 Si6 1.621485 1_555
O16 Si5 1.619460 1_555
O17 Si9 1.642360 1_455
O17 Si5 1.642700 1_555
O18 Si0 1.642360 1_555
O18 Si13 1.642700 1_555
O19 Si14 1.642442 1_555
O19 Si2 1.644231 1_555
O20 Si2 1.621193 1_555
O21 Si0 1.631207 1_555
O22 Si7 1.621485 1_555
O23 Si3 1.642360 1_455
O23 Si10 1.642700 1_555
O24 Si12 1.621193 1_556
O25 Si11 1.631207 1_555
O26 Si8 1.621485 1_555
O27 Si6 1.621193 1_554
O28 Si14 1.621485 1_555
O29 Si5 1.642360 1_555
O29 Si9 1.642700 1_555
O30 Si13 1.619460 1_555
O31 Si13 1.642360 1_655
O31 Si0 1.642700 1_555
O32 Si4 1.642360 1_655
O32 Si11 1.642700 1_555
O33 Si1 1.621485 1_555
O34 Si14 1.621193 1_555
O35 Si12 1.621485 1_555
O36 Si11 1.642360 1_555
O36 Si4 1.642700 1_555
O37 Si2 1.642442 1_455
O37 Si14 1.644231 1_555
O38 Si1 1.642442 1_555
O38 Si6 1.644231 1_555
O39 Si10 1.642360 1_555
O39 Si3 1.642700 1_555
O40 Si7 1.642442 1_555
O40 Si15 1.644231 1_555
O41 Si12 1.642442 1_555
O41 Si8 1.644231 1_555
O42 Si8 1.642442 1_455
O42 Si12 1.644231 1_555
O43 Si10 1.631207 1_555
O44 Si0 1.619460 1_555
O45 Si6 1.642442 1_655
O45 Si1 1.644231 1_555
O46 Si4 1.631207 1_555
O47 Si3 1.619460 1_555
