# generated using pymatgen
data_Ce3TiAlS7
_symmetry_space_group_name_H-M   'P 1'
_cell_length_a   10.07569626
_cell_length_b   10.07569626
_cell_length_c   6.11129200
_cell_angle_alpha   90.00000000
_cell_angle_beta   90.00000000
_cell_angle_gamma   120.00000172
_symmetry_Int_Tables_number   1
_chemical_formula_structural   Ce3TiAlS7
_chemical_formula_sum   'Ce6 Ti2 Al2 S14'
_cell_volume   537.29622973
_cell_formula_units_Z   2
loop_
 _symmetry_equiv_pos_site_id
 _symmetry_equiv_pos_as_xyz
  1  'x, y, z'
loop_
 _atom_site_type_symbol
 _atom_site_label
 _atom_site_symmetry_multiplicity
 _atom_site_fract_x
 _atom_site_fract_y
 _atom_site_fract_z
 _atom_site_occupancy
  Ce  Ce0  1  0.77018600  0.13838800  0.73711700  1
  Ce  Ce1  1  0.36820300  0.22981400  0.73711700  1
  Ce  Ce2  1  0.86161200  0.63179700  0.73711700  1
  Ce  Ce3  1  0.22981400  0.86161200  0.23711700  1
  Ce  Ce4  1  0.63179700  0.77018600  0.23711700  1
  Ce  Ce5  1  0.13838800  0.36820300  0.23711700  1
  Ti  Ti0  1  0.00000000  0.00000000  0.54331100  1
  Ti  Ti1  1  0.00000000  0.00000000  0.04331100  1
  Al  Al0  1  0.66666700  0.33333300  0.16215800  1
  Al  Al1  1  0.33333300  0.66666700  0.66215800  1
  S  S0  1  0.85903700  0.08783800  0.29523700  1
  S  S1  1  0.22880000  0.14096300  0.29523700  1
  S  S2  1  0.91216200  0.77120000  0.29523700  1
  S  S3  1  0.14096300  0.91216200  0.79523700  1
  S  S4  1  0.77120000  0.85903700  0.79523700  1
  S  S5  1  0.08783800  0.22880000  0.79523700  1
  S  S6  1  0.90278400  0.41885300  0.01171700  1
  S  S7  1  0.51606900  0.09721600  0.01171700  1
  S  S8  1  0.58114700  0.48393100  0.01171700  1
  S  S9  1  0.09721600  0.58114700  0.51171700  1
  S  S10  1  0.48393100  0.90278400  0.51171700  1
  S  S11  1  0.41885300  0.51606900  0.51171700  1
  S  S12  1  0.66666700  0.33333300  0.52854400  1
  S  S13  1  0.33333300  0.66666700  0.02854400  1
loop_
_geom_bond_atom_site_label_1
_geom_bond_atom_site_label_2
_geom_bond_distance
_geom_bond_site_symmetry_2
Ce0 S4 2.842060 1_545
Ce0 S5 2.878199 1_655
Ce0 S7 2.912360 1_556
Ce0 S12 2.935892 1_555
Ce0 S0 2.968046 1_555
Ce0 S6 2.968390 1_556
Ce0 S10 3.000781 1_545
Ce1 S5 2.842060 1_555
Ce1 S3 2.878199 1_545
Ce1 S8 2.912357 1_556
Ce1 S12 2.935892 1_555
Ce1 S1 2.968053 1_555
Ce1 S7 2.968383 1_556
Ce1 S11 3.000784 1_555
Ce2 S3 2.842060 1_655
Ce2 S4 2.878199 1_555
Ce2 S6 2.912352 1_556
Ce2 S12 2.935892 1_555
Ce2 S2 2.968054 1_555
Ce2 S8 2.968390 1_556
Ce2 S9 3.000776 1_655
Ce3 S1 2.842060 1_565
Ce3 S2 2.878199 1_455
Ce3 S10 2.912360 1_555
Ce3 S13 2.935892 1_555
Ce3 S3 2.968046 1_554
Ce3 S9 2.968390 1_555
Ce3 S7 3.000781 1_565
Ce4 S2 2.842060 1_555
Ce4 S0 2.878199 1_565
Ce4 S11 2.912357 1_555
Ce4 S13 2.935892 1_555
Ce4 S4 2.968053 1_554
Ce4 S10 2.968383 1_555
Ce4 S8 3.000784 1_555
Ce5 S0 2.842060 1_455
Ce5 S1 2.878199 1_555
Ce5 S9 2.912352 1_555
Ce5 S13 2.935892 1_555
Ce5 S5 2.968054 1_554
Ce5 S11 2.968390 1_555
Ce5 S6 3.000776 1_455
Al0 S12 2.239092 1_555
Al0 S6 2.279834 1_555
Al0 S7 2.279836 1_555
Al0 S8 2.279843 1_555
Al1 S13 2.239092 1_556
Al1 S9 2.279834 1_555
Al1 S10 2.279836 1_555
Al1 S11 2.279843 1_555
S0 Ti0 2.521101 1_655
S0 Ti1 2.535327 1_655
S1 Ti0 2.521095 1_555
S1 Ti1 2.535321 1_555
S2 Ti0 2.521094 1_665
S2 Ti1 2.535320 1_665
S3 Ti1 2.521101 1_566
S3 Ti0 2.535327 1_565
S4 Ti1 2.521095 1_666
S4 Ti0 2.535321 1_665
S5 Ti1 2.521094 1_556
S5 Ti0 2.535320 1_555
