# generated using pymatgen
data_La8Te3SeO8
_symmetry_space_group_name_H-M   'P 1'
_cell_length_a   4.11219000
_cell_length_b   4.11219000
_cell_length_c   26.22118600
_cell_angle_alpha   90.00000000
_cell_angle_beta   90.00000000
_cell_angle_gamma   90.00000000
_symmetry_Int_Tables_number   1
_chemical_formula_structural   La8Te3SeO8
_chemical_formula_sum   'La8 Te3 Se1 O8'
_cell_volume   443.40305034
_cell_formula_units_Z   1
loop_
 _symmetry_equiv_pos_site_id
 _symmetry_equiv_pos_as_xyz
  1  'x, y, z'
loop_
 _atom_site_type_symbol
 _atom_site_label
 _atom_site_symmetry_multiplicity
 _atom_site_fract_x
 _atom_site_fract_y
 _atom_site_fract_z
 _atom_site_occupancy
  La  La0  1  0.50000000  0.50000000  0.07781200  1
  La  La1  1  0.00000000  0.00000000  0.32918500  1
  La  La2  1  0.50000000  0.50000000  0.57918000  1
  La  La3  1  0.00000000  0.00000000  0.82949900  1
  La  La4  1  0.00000000  0.00000000  0.17050100  1
  La  La5  1  0.50000000  0.50000000  0.42082000  1
  La  La6  1  0.00000000  0.00000000  0.67081500  1
  La  La7  1  0.50000000  0.50000000  0.92218800  1
  Te  Te0  1  0.50000000  0.50000000  0.24997700  1
  Te  Te1  1  0.00000000  0.00000000  0.50000000  1
  Te  Te2  1  0.50000000  0.50000000  0.75002300  1
  Se  Se0  1  0.00000000  0.00000000  0.00000000  1
  O  O0  1  0.50000000  0.00000000  0.12441300  1
  O  O1  1  0.00000000  0.50000000  0.37500400  1
  O  O2  1  0.50000000  0.00000000  0.62499600  1
  O  O3  1  0.00000000  0.50000000  0.87558700  1
  O  O4  1  0.00000000  0.50000000  0.12441300  1
  O  O5  1  0.50000000  0.00000000  0.37500400  1
  O  O6  1  0.00000000  0.50000000  0.62499600  1
  O  O7  1  0.50000000  0.00000000  0.87558700  1
loop_
_geom_bond_atom_site_label_1
_geom_bond_atom_site_label_2
_geom_bond_distance
_geom_bond_site_symmetry_2
La0 O0 2.391788 1_555
La0 O4 2.391788 1_555
La0 O0 2.391788 1_565
La0 O4 2.391788 1_655
La0 Se0 3.552178 1_565
La0 Se0 3.552178 1_555
La0 Se0 3.552178 1_655
La0 Se0 3.552178 1_665
La1 O1 2.381377 1_545
La1 O5 2.381377 1_455
La1 O1 2.381377 1_555
La1 O5 2.381377 1_555
La1 Te0 3.573329 1_445
La1 Te0 3.573329 1_545
La1 Te0 3.573329 1_555
La1 Te0 3.573329 1_455
La2 O2 2.381337 1_565
La2 O6 2.381337 1_655
La2 O6 2.381337 1_555
La2 O2 2.381337 1_555
La2 Te1 3.572903 1_655
La2 Te1 3.572903 1_665
La2 Te1 3.572903 1_555
La2 Te1 3.572903 1_565
La3 O3 2.384943 1_545
La3 O3 2.384943 1_555
La3 O7 2.384943 1_455
La3 O7 2.384943 1_555
La3 Te2 3.577418 1_455
La3 Te2 3.577418 1_555
La3 Te2 3.577418 1_445
La3 Te2 3.577418 1_545
La4 O4 2.384943 1_555
La4 O4 2.384943 1_545
La4 O0 2.384943 1_555
La4 O0 2.384943 1_455
La4 Te0 3.577418 1_555
La4 Te0 3.577418 1_545
La4 Te0 3.577418 1_445
La4 Te0 3.577418 1_455
La5 O1 2.381337 1_655
La5 O1 2.381337 1_555
La5 O5 2.381337 1_555
La5 O5 2.381337 1_565
La5 Te1 3.572903 1_655
La5 Te1 3.572903 1_665
La5 Te1 3.572903 1_555
La5 Te1 3.572903 1_565
La6 O2 2.381377 1_555
La6 O6 2.381377 1_545
La6 O6 2.381377 1_555
La6 O2 2.381377 1_455
La6 Te2 3.573329 1_545
La6 Te2 3.573329 1_555
La6 Te2 3.573329 1_455
La6 Te2 3.573329 1_445
La7 O3 2.391788 1_555
La7 O3 2.391788 1_655
La7 O7 2.391788 1_555
La7 O7 2.391788 1_565
La7 Se0 3.552178 1_566
La7 Se0 3.552178 1_656
La7 Se0 3.552178 1_556
La7 Se0 3.552178 1_666
