# generated using pymatgen
data_Ho2(CoNi)5
_symmetry_space_group_name_H-M   'P 1'
_cell_length_a   3.94237900
_cell_length_b   4.90319900
_cell_length_c   8.46957700
_cell_angle_alpha   90.00000000
_cell_angle_beta   90.00000000
_cell_angle_gamma   90.00000000
_symmetry_Int_Tables_number   1
_chemical_formula_structural   Ho2(CoNi)5
_chemical_formula_sum   'Ho2 Co5 Ni5'
_cell_volume   163.71919978
_cell_formula_units_Z   1
loop_
 _symmetry_equiv_pos_site_id
 _symmetry_equiv_pos_as_xyz
  1  'x, y, z'
loop_
 _atom_site_type_symbol
 _atom_site_label
 _atom_site_symmetry_multiplicity
 _atom_site_fract_x
 _atom_site_fract_y
 _atom_site_fract_z
 _atom_site_occupancy
  Ho  Ho0  1  0.00000000  0.50000000  0.00000000  1
  Ho  Ho1  1  0.00000000  0.00000000  0.50000000  1
  Co  Co0  1  0.00000000  0.50000000  0.33761300  1
  Co  Co1  1  0.00000000  0.00000000  0.83261200  1
  Co  Co2  1  0.00000000  0.00000000  0.16738800  1
  Co  Co3  1  0.00000000  0.50000000  0.66238700  1
  Co  Co4  1  0.50000000  0.50000000  0.50000000  1
  Ni  Ni0  1  0.50000000  0.00000000  0.00000000  1
  Ni  Ni1  1  0.50000000  0.75079600  0.25015500  1
  Ni  Ni2  1  0.50000000  0.24920400  0.74984500  1
  Ni  Ni3  1  0.50000000  0.24920400  0.25015500  1
  Ni  Ni4  1  0.50000000  0.75079600  0.74984500  1
loop_
_geom_bond_atom_site_label_1
_geom_bond_atom_site_label_2
_geom_bond_distance
_geom_bond_site_symmetry_2
Ho0 Ni1 3.144309 1_455
Ho0 Ni1 3.144309 1_555
Ho0 Ni4 3.144309 1_554
Ho0 Ni4 3.144309 1_454
Ho0 Ni2 3.144309 1_454
Ho0 Ni3 3.144309 1_555
Ho0 Ni2 3.144309 1_554
Ho0 Ni3 3.144309 1_455
Ho0 Ni0 3.145779 1_565
Ho0 Ni0 3.145779 1_465
Ho0 Ni0 3.145779 1_555
Ho0 Ni0 3.145779 1_455
Ho1 Ni3 3.139494 1_555
Ho1 Ni2 3.139494 1_455
Ho1 Ni3 3.139494 1_455
Ho1 Ni2 3.139494 1_555
Ho1 Ni4 3.139494 1_445
Ho1 Ni4 3.139494 1_545
Ho1 Ni1 3.139494 1_445
Ho1 Ni1 3.139494 1_545
Co0 Co4 2.403575 1_555
Co0 Co4 2.403575 1_455
Co0 Ni1 2.438533 1_455
Co0 Ni1 2.438533 1_555
Co0 Ni3 2.438533 1_555
Co0 Ni3 2.438533 1_455
Co0 Co3 2.750698 1_555
Co0 Ho1 2.811036 1_565
Co0 Ho1 2.811036 1_555
Co0 Co2 2.844106 1_565
Co0 Co2 2.844106 1_555
Co0 Ho0 2.859439 1_555
Co1 Ni2 2.422813 1_455
Co1 Ni2 2.422813 1_555
Co1 Ni4 2.422813 1_545
Co1 Ni4 2.422813 1_445
Co1 Ni0 2.428060 1_556
Co1 Ni0 2.428060 1_456
Co1 Ho1 2.817083 1_555
Co1 Ho0 2.832001 1_546
Co1 Ho0 2.832001 1_556
Co1 Co2 2.835411 1_556
Co1 Co3 2.844106 1_555
Co1 Co3 2.844106 1_545
Co2 Ni3 2.422813 1_555
Co2 Ni3 2.422813 1_455
Co2 Ni1 2.422813 1_445
Co2 Ni1 2.422813 1_545
Co2 Ni0 2.428060 1_455
Co2 Ni0 2.428060 1_555
Co2 Ho1 2.817083 1_555
Co2 Ho0 2.832001 1_555
Co2 Ho0 2.832001 1_545
Co3 Co4 2.403575 1_555
Co3 Co4 2.403575 1_455
Co3 Ni4 2.438533 1_455
Co3 Ni4 2.438533 1_555
Co3 Ni2 2.438533 1_455
Co3 Ni2 2.438533 1_555
Co3 Ho1 2.811036 1_555
Co3 Ho1 2.811036 1_565
Co3 Ho0 2.859439 1_556
Co4 Ni1 2.447441 1_555
Co4 Ni4 2.447441 1_555
Co4 Ni2 2.447441 1_555
Co4 Ni3 2.447441 1_555
Co4 Ho1 3.145779 1_655
Co4 Ho1 3.145779 1_565
Co4 Ho1 3.145779 1_665
Co4 Ho1 3.145779 1_555
Ni0 Ni3 2.445803 1_555
Ni0 Ni2 2.445803 1_554
Ni0 Ni4 2.445803 1_544
Ni0 Ni1 2.445803 1_545
Ni1 Ni3 2.443794 1_565
Ni1 Ni3 2.459405 1_555
Ni2 Ni4 2.443794 1_545
Ni2 Ni4 2.459405 1_555
