# generated using pymatgen
data_Y8MgCu7O20
_symmetry_space_group_name_H-M   'P 1'
_cell_length_a   3.53157310
_cell_length_b   10.90305891
_cell_length_c   12.64660968
_cell_angle_alpha   90.43689634
_cell_angle_beta   89.84473807
_cell_angle_gamma   89.74490066
_symmetry_Int_Tables_number   1
_chemical_formula_structural   Y8MgCu7O20
_chemical_formula_sum   'Y8 Mg1 Cu7 O20'
_cell_volume   486.93625166
_cell_formula_units_Z   1
loop_
 _symmetry_equiv_pos_site_id
 _symmetry_equiv_pos_as_xyz
  1  'x, y, z'
loop_
 _atom_site_type_symbol
 _atom_site_label
 _atom_site_symmetry_multiplicity
 _atom_site_fract_x
 _atom_site_fract_y
 _atom_site_fract_z
 _atom_site_occupancy
  Y  Y0  1  0.22409900  0.29298600  0.33572200  1
  Y  Y1  1  0.77843600  0.70850000  0.83668200  1
  Y  Y2  1  0.72005900  0.20948200  0.83475200  1
  Y  Y3  1  0.26805900  0.79153500  0.34061100  1
  Y  Y4  1  0.22296500  0.46031300  0.01107300  1
  Y  Y5  1  0.77965300  0.54071800  0.50912700  1
  Y  Y6  1  0.71903400  0.04152300  0.50883300  1
  Y  Y7  1  0.27254800  0.96031500  0.00637600  1
  Mg  Mg0  1  0.76208700  0.75070100  0.12510200  1
  Cu  Cu0  1  0.84263000  0.00985400  0.22355500  1
  Cu  Cu1  1  0.15869300  0.98653300  0.72422700  1
  Cu  Cu2  1  0.34048500  0.48683700  0.72560900  1
  Cu  Cu3  1  0.66242600  0.51568200  0.22639300  1
  Cu  Cu4  1  0.66184800  0.24030200  0.12040100  1
  Cu  Cu5  1  0.34230300  0.75886000  0.62083800  1
  Cu  Cu6  1  0.15672700  0.26024400  0.61922000  1
  O  O0  1  0.78259300  0.07121000  0.07889000  1
  O  O1  1  0.22364100  0.92480000  0.57239900  1
  O  O2  1  0.27786600  0.42525200  0.57469200  1
  O  O3  1  0.72725300  0.57578000  0.07635800  1
  O  O4  1  0.22925300  0.07734900  0.86230500  1
  O  O5  1  0.77271800  0.92876500  0.35981300  1
  O  O6  1  0.72942600  0.42385500  0.36354200  1
  O  O7  1  0.27281400  0.57628700  0.86489100  1
  O  O8  1  0.72695400  0.32517200  0.98175500  1
  O  O9  1  0.27531400  0.67173100  0.48407100  1
  O  O10  1  0.22168600  0.17310700  0.48011600  1
  O  O11  1  0.76944300  0.83133200  0.97868700  1
  O  O12  1  0.72567300  0.17821100  0.26861000  1
  O  O13  1  0.28038200  0.82167400  0.76885600  1
  O  O14  1  0.21681200  0.32190600  0.76907200  1
  O  O15  1  0.76878800  0.68070400  0.27765000  1
  O  O16  1  0.35217100  0.37828000  0.17354900  1
  O  O17  1  0.65205500  0.62160800  0.67382800  1
  O  O18  1  0.85257100  0.12278800  0.67182400  1
  O  O19  1  0.23053900  0.85580000  0.16576800  1
loop_
_geom_bond_atom_site_label_1
_geom_bond_atom_site_label_2
_geom_bond_distance
_geom_bond_site_symmetry_2
Mg0 O3 2.004251 1_555
Mg0 O11 2.055948 1_554
Mg0 O19 2.080152 1_655
Mg0 O15 2.080244 1_555
Mg0 O19 2.251241 1_555
Cu0 O5 1.958295 1_545
Cu0 O12 1.959781 1_555
Cu0 O0 1.964466 1_555
Cu0 O19 2.277589 1_645
Cu1 O13 1.934952 1_555
Cu1 O18 1.954367 1_465
Cu1 O4 2.017424 1_565
Cu1 O1 2.041811 1_555
Cu2 O14 1.935811 1_555
Cu2 O17 1.955483 1_555
Cu2 O7 2.020004 1_555
Cu2 O2 2.031390 1_555
Cu3 O15 1.946311 1_555
Cu3 O16 1.973520 1_555
Cu3 O6 2.023206 1_555
Cu3 O3 2.024838 1_555
Cu4 O0 1.957905 1_555
Cu4 O16 1.968997 1_555
Cu4 O8 2.001998 1_554
Cu4 O12 2.010609 1_555
Cu5 O1 1.958525 1_555
Cu5 O17 1.972267 1_555
Cu5 O9 1.982228 1_555
Cu5 O13 1.999466 1_555
Cu6 O2 1.938522 1_555
Cu6 O18 1.966752 1_455
Cu6 O10 2.005091 1_555
Cu6 O14 2.018048 1_555
O0 Y7 2.291886 1_645
O0 Y7 2.357728 1_545
O1 Y6 2.313972 1_565
O1 Y6 2.333399 1_465
O2 Y5 2.317822 1_455
O2 Y5 2.332508 1_555
O3 Y4 2.299576 1_655
O3 Y4 2.334610 1_555
O4 Y7 2.237538 1_546
O4 Y2 2.286462 1_555
O4 Y2 2.327791 1_455
O5 Y6 2.249388 1_565
O5 Y3 2.307960 1_655
O5 Y3 2.344055 1_555
O6 Y5 2.238933 1_555
O6 Y0 2.275628 1_655
O6 Y0 2.315807 1_555
O7 Y4 2.254654 1_556
O7 Y1 2.289618 1_455
O7 Y1 2.328324 1_555
O8 Y2 2.238890 1_555
O8 Y4 2.322746 1_656
O8 Y4 2.332642 1_556
O9 Y3 2.243794 1_555
O9 Y5 2.287168 1_455
O9 Y5 2.302285 1_555
O10 Y0 2.253771 1_555
O10 Y6 2.294373 1_555
O10 Y6 2.316994 1_455
O11 Y1 2.232131 1_555
O11 Y7 2.268680 1_556
O11 Y7 2.296799 1_656
O12 Y0 2.319469 1_555
O12 Y0 2.322988 1_655
O13 Y1 2.314552 1_555
O13 Y1 2.329824 1_455
O14 Y2 2.301491 1_455
O14 Y2 2.314132 1_555
O15 Y3 2.275960 1_555
O15 Y3 2.283649 1_655
O16 Y4 2.293412 1_555
O16 Y0 2.302946 1_555
O17 Y5 2.298426 1_555
O17 Y1 2.305969 1_555
O18 Y6 2.288556 1_555
O18 Y2 2.306339 1_555
O19 Y7 2.327828 1_555
O19 Y3 2.328558 1_555
