# generated using pymatgen
data_Mg9Al8Fe3(SiO4)12
_symmetry_space_group_name_H-M   'P 1'
_cell_length_a   10.03796743
_cell_length_b   10.03796743
_cell_length_c   11.57444819
_cell_angle_alpha   54.82602241
_cell_angle_beta   54.82602241
_cell_angle_gamma   70.54758276
_symmetry_Int_Tables_number   1
_chemical_formula_structural   Mg9Al8Fe3(SiO4)12
_chemical_formula_sum   'Mg9 Al8 Fe3 Si12 O48'
_cell_volume   779.23326195
_cell_formula_units_Z   1
loop_
 _symmetry_equiv_pos_site_id
 _symmetry_equiv_pos_as_xyz
  1  'x, y, z'
loop_
 _atom_site_type_symbol
 _atom_site_label
 _atom_site_symmetry_multiplicity
 _atom_site_fract_x
 _atom_site_fract_y
 _atom_site_fract_z
 _atom_site_occupancy
  Mg  Mg0  1  0.37487600  0.62512400  0.50000000  1
  Mg  Mg1  1  0.75083100  0.74993500  0.12454200  1
  Mg  Mg2  1  0.25006500  0.24916900  0.87545800  1
  Mg  Mg3  1  0.87481100  0.37492000  0.62515700  1
  Mg  Mg4  1  0.62508000  0.12518900  0.37484300  1
  Mg  Mg5  1  0.87471300  0.12528700  0.50000000  1
  Mg  Mg6  1  0.62527600  0.37472400  0.00000000  1
  Mg  Mg7  1  0.25008200  0.24997400  0.37511500  1
  Mg  Mg8  1  0.75002600  0.74991800  0.62488500  1
  Al  Al0  1  0.99985700  0.49965500  0.75013400  1
  Al  Al1  1  0.50034500  0.00014300  0.24986600  1
  Al  Al2  1  0.50058200  0.00059700  0.74920100  1
  Al  Al3  1  0.99940300  0.49941800  0.25079900  1
  Al  Al4  1  0.50050200  0.49975400  0.74962000  1
  Al  Al5  1  0.99932100  0.00020600  0.25034600  1
  Al  Al6  1  0.50024600  0.49949800  0.25038000  1
  Al  Al7  1  0.99979400  0.00067900  0.74965400  1
  Fe  Fe0  1  0.12493500  0.62514500  0.87500900  1
  Fe  Fe1  1  0.37485500  0.87506500  0.12499100  1
  Fe  Fe2  1  0.12511000  0.87489000  0.00000000  1
  Si  Si0  1  0.37677200  0.87630200  0.62318700  1
  Si  Si1  1  0.12369800  0.62322800  0.37681300  1
  Si  Si2  1  0.87387900  0.12612100  0.00000000  1
  Si  Si3  1  0.62511700  0.37488300  0.50000000  1
  Si  Si4  1  0.75000700  0.75006000  0.87439800  1
  Si  Si5  1  0.24994000  0.24999300  0.12560200  1
  Si  Si6  1  0.62626500  0.12626400  0.87367400  1
  Si  Si7  1  0.87373600  0.37373500  0.12632600  1
  Si  Si8  1  0.12430400  0.87569600  0.50000000  1
  Si  Si9  1  0.37666500  0.62333500  0.00000000  1
  Si  Si10  1  0.25000100  0.25058200  0.62445300  1
  Si  Si11  1  0.74941800  0.74999900  0.37554700  1
  O  O0  1  0.68556200  0.12115100  0.14687700  1
  O  O1  1  0.87884900  0.31443800  0.85312300  1
  O  O2  1  0.81360400  0.37915900  0.45387800  1
  O  O3  1  0.62084100  0.18639600  0.54612200  1
  O  O4  1  0.79695200  0.60346800  0.83229800  1
  O  O5  1  0.70329800  0.89669700  0.73260100  1
  O  O6  1  0.10330300  0.29670200  0.26739900  1
  O  O7  1  0.39653200  0.20304800  0.16770200  1
  O  O8  1  0.51803800  0.91759500  0.62897000  1
  O  O9  1  0.41822000  0.01809700  0.43505200  1
  O  O10  1  0.08240500  0.48196200  0.37103000  1
  O  O11  1  0.98190300  0.58178000  0.56494800  1
  O  O12  1  0.31379000  0.88001600  0.35428400  1
  O  O13  1  0.11998400  0.68621000  0.64571600  1
  O  O14  1  0.18767300  0.61712100  0.04812200  1
  O  O15  1  0.38287900  0.81232700  0.95187800  1
  O  O16  1  0.20284600  0.39647600  0.66780700  1
  O  O17  1  0.29825200  0.10453400  0.76585300  1
  O  O18  1  0.89546600  0.70174800  0.23414700  1
  O  O19  1  0.60352400  0.79715400  0.33219300  1
  O  O20  1  0.48435400  0.08575600  0.86750900  1
  O  O21  1  0.58503900  0.98461200  0.06231600  1
  O  O22  1  0.91424400  0.51564600  0.13249100  1
  O  O23  1  0.01538800  0.41496100  0.93768400  1
  O  O24  1  0.20182400  0.10400500  0.13011500  1
  O  O25  1  0.29828800  0.39534100  0.93596400  1
  O  O26  1  0.89599500  0.79817600  0.86988500  1
  O  O27  1  0.60465900  0.70171200  0.06403600  1
  O  O28  1  0.48295100  0.41781300  0.64630800  1
  O  O29  1  0.58218700  0.51704900  0.35369200  1
  O  O30  1  0.91490000  0.98443000  0.95298100  1
  O  O31  1  0.01557000  0.08510000  0.04701900  1
  O  O32  1  0.31231200  0.61758700  0.33564000  1
  O  O33  1  0.11719200  0.81214000  0.23583600  1
  O  O34  1  0.18786000  0.88280800  0.76416400  1
  O  O35  1  0.38241300  0.68768800  0.66436000  1
  O  O36  1  0.79631800  0.89677800  0.37059400  1
  O  O37  1  0.70334800  0.60352700  0.56403200  1
  O  O38  1  0.10322200  0.20368200  0.62940600  1
  O  O39  1  0.39647300  0.29665200  0.43596800  1
  O  O40  1  0.51793700  0.58179900  0.85315300  1
  O  O41  1  0.41820100  0.48206300  0.14684700  1
  O  O42  1  0.08239400  0.01742000  0.54680000  1
  O  O43  1  0.98258000  0.91760600  0.45320000  1
  O  O44  1  0.68543600  0.37873600  0.16775900  1
  O  O45  1  0.87880600  0.18558800  0.26817800  1
  O  O46  1  0.81441200  0.12119400  0.73182200  1
  O  O47  1  0.62126400  0.31456400  0.83224100  1
loop_
_geom_bond_atom_site_label_1
_geom_bond_atom_site_label_2
_geom_bond_distance
_geom_bond_site_symmetry_2
Mg0 O28 2.219905 1_555
Mg0 O29 2.219905 1_555
Mg0 O13 2.223012 1_555
Mg0 O12 2.223012 1_555
Mg0 O35 2.364973 1_555
Mg0 O32 2.364973 1_555
Mg0 O16 2.379446 1_555
Mg0 O19 2.379446 1_555
Mg1 O18 2.213256 1_555
Mg1 O26 2.218743 1_554
Mg1 O27 2.219269 1_555
Mg1 O19 2.222347 1_555
Mg1 O22 2.363307 1_555
Mg1 O30 2.371733 1_554
Mg1 O21 2.377531 1_555
Mg1 O29 2.384242 1_555
Mg2 O17 2.213256 1_555
Mg2 O24 2.218743 1_556
Mg2 O25 2.219269 1_555
Mg2 O16 2.222347 1_555
Mg2 O20 2.363307 1_555
Mg2 O31 2.371733 1_556
Mg2 O23 2.377531 1_555
Mg2 O28 2.384242 1_555
Mg3 O11 2.215704 1_555
Mg3 O47 2.217044 1_555
Mg3 O46 2.218525 1_555
Mg3 O10 2.221911 1_655
Mg3 O1 2.365070 1_555
Mg3 O2 2.366038 1_555
Mg3 O38 2.370956 1_655
Mg3 O37 2.372882 1_555
Mg4 O9 2.215704 1_555
Mg4 O44 2.217044 1_555
Mg4 O45 2.218525 1_555
Mg4 O8 2.221911 1_545
Mg4 O0 2.365070 1_555
Mg4 O3 2.366038 1_555
Mg4 O36 2.370956 1_545
Mg4 O39 2.372882 1_555
Mg5 O3 2.219042 1_555
Mg5 O2 2.219042 1_555
Mg5 O43 2.221175 1_545
Mg5 O42 2.221175 1_655
Mg5 O45 2.363480 1_555
Mg5 O46 2.363480 1_555
Mg5 O5 2.376797 1_545
Mg5 O6 2.376797 1_655
Mg6 O1 2.215635 1_554
Mg6 O0 2.215635 1_555
Mg6 O40 2.217717 1_554
Mg6 O41 2.217717 1_555
Mg6 O47 2.365122 1_554
Mg6 O44 2.365122 1_555
Mg6 O4 2.378299 1_554
Mg6 O7 2.378299 1_555
Mg7 O39 2.215003 1_555
Mg7 O7 2.218533 1_555
Mg7 O6 2.219799 1_555
Mg7 O38 2.221165 1_555
Mg7 O10 2.369015 1_555
Mg7 O9 2.370557 1_555
Mg7 O41 2.376134 1_555
Mg7 O42 2.377054 1_555
Mg8 O37 2.215003 1_555
Mg8 O4 2.218533 1_555
Mg8 O5 2.219799 1_555
Mg8 O36 2.221165 1_555
Mg8 O8 2.369015 1_555
Mg8 O11 2.370557 1_555
Mg8 O40 2.376134 1_555
Mg8 O43 2.377054 1_555
Al0 O11 1.901755 1_555
Al0 O16 1.904461 1_655
Al0 O23 1.906507 1_655
Al0 O4 1.906618 1_555
Al0 O1 1.906722 1_555
Al0 O13 1.907586 1_655
Al1 O9 1.901755 1_555
Al1 O19 1.904461 1_545
Al1 O21 1.906507 1_545
Al1 O7 1.906618 1_555
Al1 O0 1.906722 1_555
Al1 O12 1.907586 1_545
Al2 O8 1.902394 1_545
Al2 O17 1.902603 1_555
Al2 O20 1.905586 1_555
Al2 O5 1.905834 1_545
Al2 O3 1.907963 1_555
Al2 O15 1.912262 1_545
Al3 O10 1.902394 1_655
Al3 O18 1.902603 1_555
Al3 O22 1.905586 1_555
Al3 O6 1.905834 1_655
Al3 O2 1.907963 1_555
Al3 O14 1.912262 1_655
Al4 O28 1.899967 1_555
Al4 O40 1.902516 1_555
Al4 O47 1.904244 1_555
Al4 O25 1.907656 1_555
Al4 O37 1.908087 1_555
Al4 O35 1.910818 1_555
Al5 O43 1.903623 1_545
Al5 O45 1.903761 1_555
Al5 O31 1.905528 1_655
Al5 O24 1.906621 1_655
Al5 O33 1.908027 1_645
Al5 O36 1.908949 1_545
Al6 O29 1.899967 1_555
Al6 O41 1.902516 1_555
Al6 O44 1.904244 1_555
Al6 O27 1.907656 1_555
Al6 O39 1.908087 1_555
Al6 O32 1.910818 1_555
Al7 O42 1.903623 1_655
Al7 O46 1.903761 1_555
Al7 O30 1.905528 1_545
Al7 O26 1.906621 1_545
Al7 O34 1.908027 1_645
Al7 O38 1.908949 1_655
Fe0 O23 2.247135 1_555
Fe0 O34 2.250754 1_555
Fe0 O22 2.252829 1_456
Fe0 O35 2.252930 1_555
Fe0 O14 2.377379 1_556
Fe0 O13 2.383069 1_555
Fe0 O26 2.383549 1_455
Fe0 O25 2.390141 1_555
Fe1 O21 2.247135 1_555
Fe1 O33 2.250754 1_555
Fe1 O20 2.252829 1_564
Fe1 O32 2.252930 1_555
Fe1 O15 2.377379 1_554
Fe1 O12 2.383069 1_555
Fe1 O24 2.383549 1_565
Fe1 O27 2.390141 1_555
Fe2 O30 2.246311 1_454
Fe2 O31 2.246311 1_565
Fe2 O14 2.249432 1_555
Fe2 O15 2.249432 1_554
Fe2 O34 2.378368 1_554
Fe2 O33 2.378368 1_555
Fe2 O18 2.392333 1_455
Fe2 O17 2.392333 1_564
O0 Si2 1.651825 1_555
O1 Si2 1.651825 1_556
O2 Si3 1.652452 1_555
O3 Si3 1.652452 1_555
O4 Si4 1.650601 1_555
O5 Si4 1.650357 1_555
O6 Si5 1.650357 1_555
O7 Si5 1.650601 1_555
O8 Si0 1.649206 1_555
O9 Si0 1.649389 1_545
O10 Si1 1.649206 1_555
O11 Si1 1.649389 1_655
O12 Si8 1.654977 1_555
O13 Si8 1.654977 1_555
O14 Si9 1.653629 1_555
O15 Si9 1.653629 1_556
O16 Si10 1.652834 1_555
O17 Si10 1.654804 1_555
O18 Si11 1.654804 1_555
O19 Si11 1.652834 1_555
O20 Si6 1.654072 1_555
O21 Si6 1.653606 1_564
O22 Si7 1.654072 1_555
O23 Si7 1.653606 1_456
O24 Si5 1.654577 1_555
O25 Si5 1.654314 1_556
O26 Si4 1.654577 1_555
O27 Si4 1.654314 1_554
O28 Si3 1.654337 1_555
O29 Si3 1.654337 1_555
O30 Si2 1.652927 1_566
O31 Si2 1.652927 1_455
O32 Si1 1.653804 1_555
O33 Si1 1.654716 1_555
O34 Si0 1.654716 1_555
O35 Si0 1.653804 1_555
O36 Si11 1.652060 1_555
O37 Si11 1.652269 1_555
O38 Si10 1.652060 1_555
O39 Si10 1.652269 1_555
O40 Si9 1.649063 1_556
O41 Si9 1.649063 1_555
O42 Si8 1.649523 1_545
O43 Si8 1.649523 1_655
O44 Si7 1.650868 1_555
O45 Si7 1.650715 1_555
O46 Si6 1.650715 1_555
O47 Si6 1.650868 1_555
