# generated using pymatgen
data_Li3MnFeCo(PO4)3
_symmetry_space_group_name_H-M   'P 1'
_cell_length_a   6.09037400
_cell_length_b   10.46424400
_cell_length_c   14.30145501
_cell_angle_alpha   89.94748554
_cell_angle_beta   90.00000000
_cell_angle_gamma   90.00000000
_symmetry_Int_Tables_number   1
_chemical_formula_structural   Li3MnFeCo(PO4)3
_chemical_formula_sum   'Li12 Mn4 Fe4 Co4 P12 O48'
_cell_volume   911.44792855
_cell_formula_units_Z   4
loop_
 _symmetry_equiv_pos_site_id
 _symmetry_equiv_pos_as_xyz
  1  'x, y, z'
loop_
 _atom_site_type_symbol
 _atom_site_label
 _atom_site_symmetry_multiplicity
 _atom_site_fract_x
 _atom_site_fract_y
 _atom_site_fract_z
 _atom_site_occupancy
  Li  Li0  1  0.74935400  0.00148600  0.66705800  1
  Li  Li1  1  0.25031000  0.00111200  0.99968100  1
  Li  Li2  1  0.74969000  0.00111200  0.99968100  1
  Li  Li3  1  0.25037200  0.00144800  0.33333300  1
  Li  Li4  1  0.74962800  0.00144800  0.33333300  1
  Li  Li5  1  0.25064600  0.00148600  0.66705800  1
  Li  Li6  1  0.25055600  0.49876400  0.50057900  1
  Li  Li7  1  0.74944400  0.49876400  0.50057900  1
  Li  Li8  1  0.25053200  0.49854400  0.16698900  1
  Li  Li9  1  0.74946800  0.49854400  0.16698900  1
  Li  Li10  1  0.25096000  0.49888000  0.83297400  1
  Li  Li11  1  0.74904000  0.49888000  0.83297400  1
  Mn  Mn0  1  0.50000000  0.78128900  0.16003600  1
  Mn  Mn1  1  0.00000000  0.71859000  0.66021000  1
  Mn  Mn2  1  0.00000000  0.71959500  0.99306600  1
  Mn  Mn3  1  0.00000000  0.71919300  0.32698700  1
  Fe  Fe0  1  0.50000000  0.78133100  0.49283700  1
  Fe  Fe1  1  0.50000000  0.78148500  0.82542000  1
  Fe  Fe2  1  0.50000000  0.27987600  0.00787600  1
  Fe  Fe3  1  0.50000000  0.27979400  0.34171600  1
  Co  Co0  1  0.50000000  0.27698700  0.67403100  1
  Co  Co1  1  0.00000000  0.22202400  0.84000900  1
  Co  Co2  1  0.00000000  0.21888400  0.50648200  1
  Co  Co3  1  0.00000000  0.21851900  0.17278700  1
  P  P0  1  0.00000000  0.90893900  0.80645900  1
  P  P1  1  0.00000000  0.90954700  0.13901400  1
  P  P2  1  0.00000000  0.90870100  0.47336400  1
  P  P3  1  0.50000000  0.59182400  0.30597300  1
  P  P4  1  0.50000000  0.59250000  0.63837800  1
  P  P5  1  0.50000000  0.59241900  0.97089600  1
  P  P6  1  0.00000000  0.40345500  0.36110700  1
  P  P7  1  0.00000000  0.40356700  0.02773400  1
  P  P8  1  0.00000000  0.40302400  0.69420900  1
  P  P9  1  0.50000000  0.09533100  0.86042700  1
  P  P10  1  0.50000000  0.09661400  0.19428800  1
  P  P11  1  0.50000000  0.09609200  0.52761500  1
  O  O0  1  0.50000000  0.95967600  0.23706300  1
  O  O1  1  0.50000000  0.95869700  0.56942900  1
  O  O2  1  0.50000000  0.95762200  0.90200100  1
  O  O3  1  0.00000000  0.90625300  0.58059400  1
  O  O4  1  0.00000000  0.90607800  0.91390600  1
  O  O5  1  0.00000000  0.90581900  0.24635100  1
  O  O6  1  0.20169000  0.83882800  0.09435700  1
  O  O7  1  0.79831000  0.83882800  0.09435700  1
  O  O8  1  0.20288300  0.83733900  0.42948800  1
  O  O9  1  0.79711700  0.83733900  0.42948800  1
  O  O10  1  0.20277400  0.83705200  0.76280200  1
  O  O11  1  0.79722600  0.83705200  0.76280200  1
  O  O12  1  0.70145600  0.66311500  0.59287500  1
  O  O13  1  0.29854400  0.66311500  0.59287500  1
  O  O14  1  0.70223800  0.66216600  0.26089400  1
  O  O15  1  0.29776200  0.66216600  0.26089400  1
  O  O16  1  0.70185400  0.66323300  0.92618600  1
  O  O17  1  0.29814600  0.66323300  0.92618600  1
  O  O18  1  0.50000000  0.59570200  0.41325900  1
  O  O19  1  0.50000000  0.59516500  0.07853100  1
  O  O20  1  0.50000000  0.59694600  0.74595100  1
  O  O21  1  0.00000000  0.54040200  0.40300800  1
  O  O22  1  0.00000000  0.54065100  0.06951700  1
  O  O23  1  0.00000000  0.54024600  0.73629100  1
  O  O24  1  0.50000000  0.45454900  0.26471000  1
  O  O25  1  0.50000000  0.45480000  0.93049900  1
  O  O26  1  0.50000000  0.45393600  0.59903600  1
  O  O27  1  0.00000000  0.40163600  0.25333800  1
  O  O28  1  0.00000000  0.40131700  0.92005500  1
  O  O29  1  0.00000000  0.40147000  0.58659000  1
  O  O30  1  0.20226200  0.33262000  0.07230300  1
  O  O31  1  0.20214300  0.33243800  0.40571600  1
  O  O32  1  0.20353000  0.33227400  0.73836200  1
  O  O33  1  0.79647000  0.33227400  0.73836200  1
  O  O34  1  0.79773800  0.33262000  0.07230300  1
  O  O35  1  0.79785700  0.33243800  0.40571600  1
  O  O36  1  0.70420000  0.16539700  0.90425900  1
  O  O37  1  0.29580000  0.16539700  0.90425900  1
  O  O38  1  0.70429600  0.16704800  0.23808200  1
  O  O39  1  0.70328000  0.16765100  0.57182300  1
  O  O40  1  0.29570400  0.16704800  0.23808200  1
  O  O41  1  0.29672000  0.16765100  0.57182300  1
  O  O42  1  0.50000000  0.09830800  0.75261800  1
  O  O43  1  0.50000000  0.09665700  0.42005800  1
  O  O44  1  0.50000000  0.09636300  0.08666100  1
  O  O45  1  0.00000000  0.04586600  0.76464000  1
  O  O46  1  0.00000000  0.04742200  0.09806200  1
  O  O47  1  0.00000000  0.04605300  0.43137700  1
loop_
_geom_bond_atom_site_label_1
_geom_bond_atom_site_label_2
_geom_bond_distance
_geom_bond_site_symmetry_2
Li0 O1 2.111263 1_545
Li0 O45 2.120082 1_655
Li0 O42 2.198269 1_555
Li0 O3 2.203344 1_645
Li0 O11 2.217283 1_545
Li0 O39 2.225497 1_555
Li1 O2 2.114789 1_545
Li1 O46 2.130670 1_556
Li1 O6 2.191029 1_546
Li1 O4 2.195459 1_545
Li1 O44 2.203560 1_556
Li1 O37 2.211370 1_555
Li2 O2 2.114789 1_545
Li2 O46 2.130670 1_656
Li2 O7 2.191029 1_546
Li2 O4 2.195459 1_645
Li2 O44 2.203560 1_556
Li2 O36 2.211370 1_555
Li3 O0 2.097415 1_545
Li3 O47 2.123757 1_555
Li3 O43 2.201042 1_555
Li3 O5 2.208236 1_545
Li3 O8 2.217976 1_545
Li3 O40 2.220458 1_555
Li4 O0 2.097415 1_545
Li4 O47 2.123757 1_655
Li4 O43 2.201042 1_555
Li4 O5 2.208236 1_645
Li4 O9 2.217976 1_545
Li4 O38 2.220458 1_555
Li5 O1 2.111263 1_545
Li5 O45 2.120082 1_555
Li5 O42 2.198269 1_555
Li5 O3 2.203344 1_545
Li5 O10 2.217283 1_545
Li5 O41 2.225497 1_555
Li6 O21 2.112937 1_555
Li6 O26 2.123561 1_555
Li6 O13 2.188524 1_555
Li6 O29 2.208159 1_555
Li6 O18 2.212273 1_555
Li6 O31 2.227353 1_555
Li7 O21 2.112937 1_655
Li7 O26 2.123561 1_555
Li7 O12 2.188524 1_555
Li7 O29 2.208159 1_655
Li7 O18 2.212273 1_555
Li7 O35 2.227353 1_555
Li8 O22 2.112912 1_555
Li8 O24 2.114794 1_555
Li8 O15 2.195930 1_555
Li8 O27 2.208897 1_555
Li8 O19 2.220083 1_555
Li8 O30 2.222405 1_555
Li9 O22 2.112912 1_655
Li9 O24 2.114794 1_555
Li9 O14 2.195930 1_555
Li9 O27 2.208897 1_655
Li9 O19 2.220083 1_555
Li9 O34 2.222405 1_555
Li10 O23 2.105774 1_555
Li10 O25 2.111263 1_555
Li10 O17 2.195831 1_555
Li10 O20 2.213630 1_555
Li10 O28 2.219700 1_555
Li10 O32 2.226675 1_555
Li11 O23 2.105774 1_655
Li11 O25 2.111263 1_555
Li11 O16 2.195831 1_555
Li11 O20 2.213630 1_555
Li11 O28 2.219700 1_655
Li11 O33 2.226675 1_555
Mn0 O6 2.131811 1_555
Mn0 O7 2.131811 1_555
Mn0 O0 2.168364 1_555
Mn0 O14 2.268966 1_555
Mn0 O15 2.268966 1_555
Mn0 O19 2.270728 1_555
Mn1 O13 2.138076 1_555
Mn1 O12 2.138076 1_455
Mn1 O23 2.159399 1_555
Mn1 O3 2.269072 1_555
Mn1 O10 2.284261 1_555
Mn1 O11 2.284261 1_455
Mn2 O17 2.135636 1_555
Mn2 O16 2.135636 1_455
Mn2 O22 2.167485 1_556
Mn2 O4 2.255124 1_555
Mn2 O7 2.273187 1_456
Mn2 O6 2.273187 1_556
Mn3 O15 2.130565 1_555
Mn3 O14 2.130565 1_455
Mn3 O21 2.163010 1_555
Mn3 O5 2.267066 1_555
Mn3 O8 2.281989 1_555
Mn3 O9 2.281989 1_455
Fe0 O9 2.106610 1_555
Fe0 O8 2.106610 1_555
Fe0 O1 2.155996 1_555
Fe0 O18 2.252212 1_555
Fe0 O12 2.253727 1_555
Fe0 O13 2.253727 1_555
Fe1 O11 2.101430 1_555
Fe1 O10 2.101430 1_555
Fe1 O2 2.144848 1_555
Fe1 O20 2.241585 1_555
Fe1 O16 2.261868 1_555
Fe1 O17 2.261868 1_555
Fe2 O34 2.107776 1_555
Fe2 O30 2.107776 1_555
Fe2 O25 2.138082 1_554
Fe2 O44 2.225584 1_555
Fe2 O36 2.276166 1_554
Fe2 O37 2.276166 1_554
Fe3 O35 2.105462 1_555
Fe3 O31 2.105462 1_555
Fe3 O24 2.133830 1_555
Fe3 O43 2.218991 1_555
Fe3 O38 2.267143 1_555
Fe3 O40 2.267143 1_555
Co0 O32 2.107693 1_555
Co0 O33 2.107693 1_555
Co0 O26 2.138985 1_555
Co0 O42 2.180653 1_555
Co0 O41 2.231923 1_555
Co0 O39 2.231923 1_555
Co1 O36 2.107123 1_455
Co1 O37 2.107123 1_555
Co1 O45 2.136225 1_555
Co1 O28 2.198737 1_555
Co1 O33 2.231075 1_455
Co1 O32 2.231075 1_555
Co2 O39 2.103682 1_455
Co2 O41 2.103682 1_555
Co2 O47 2.104308 1_555
Co2 O29 2.228685 1_555
Co2 O31 2.236349 1_555
Co2 O35 2.236349 1_455
Co3 O46 2.085932 1_555
Co3 O40 2.098713 1_555
Co3 O38 2.098713 1_455
Co3 O27 2.236715 1_555
Co3 O30 2.237200 1_555
Co3 O34 2.237200 1_455
O0 P10 1.557555 1_565
O1 P11 1.556634 1_565
O2 P9 1.558359 1_565
O3 P2 1.533735 1_555
O4 P0 1.536913 1_555
O5 P1 1.535535 1_555
O6 P1 1.570118 1_555
O7 P1 1.570118 1_655
O8 P2 1.574493 1_555
O9 P2 1.574493 1_655
O10 P0 1.575343 1_555
O11 P0 1.575343 1_655
O12 P4 1.572900 1_555
O13 P4 1.572900 1_555
O14 P3 1.572790 1_555
O15 P3 1.572790 1_555
O16 P5 1.571124 1_555
O17 P5 1.571124 1_555
O18 P3 1.534920 1_555
O19 P5 1.539632 1_554
O20 P4 1.539196 1_555
O21 P6 1.553799 1_555
O22 P7 1.554471 1_555
O23 P8 1.557455 1_555
O24 P3 1.553470 1_555
O25 P5 1.552137 1_555
O26 P4 1.555787 1_555
O27 P6 1.541388 1_555
O28 P7 1.540168 1_556
O29 P8 1.539209 1_555
O30 P7 1.572908 1_555
O31 P6 1.572918 1_555
O32 P8 1.575604 1_555
O33 P8 1.575604 1_655
O34 P7 1.572908 1_655
O35 P6 1.572918 1_655
O36 P9 1.574179 1_555
O37 P9 1.574179 1_555
O38 P10 1.576222 1_555
O39 P11 1.579266 1_555
O40 P10 1.576222 1_555
O41 P11 1.579266 1_555
O42 P9 1.542112 1_555
O43 P11 1.538228 1_555
O44 P10 1.539227 1_555
O45 P0 1.552142 1_545
O46 P1 1.556603 1_545
O47 P2 1.557169 1_545
