# generated using pymatgen
data_Fe2OF3
_symmetry_space_group_name_H-M   'P 1'
_cell_length_a   3.14350900
_cell_length_b   4.83906000
_cell_length_c   24.03390010
_cell_angle_alpha   89.01214664
_cell_angle_beta   90.00000000
_cell_angle_gamma   90.00000000
_symmetry_Int_Tables_number   1
_chemical_formula_structural   Fe2OF3
_chemical_formula_sum   'Fe10 O5 F15'
_cell_volume   365.54042615
_cell_formula_units_Z   5
loop_
 _symmetry_equiv_pos_site_id
 _symmetry_equiv_pos_as_xyz
  1  'x, y, z'
loop_
 _atom_site_type_symbol
 _atom_site_label
 _atom_site_symmetry_multiplicity
 _atom_site_fract_x
 _atom_site_fract_y
 _atom_site_fract_z
 _atom_site_occupancy
  Fe  Fe0  1  0.00000000  0.96439100  0.00491700  1
  Fe  Fe1  1  0.00000000  0.01849800  0.80116600  1
  Fe  Fe2  1  0.00000000  0.98067100  0.60542100  1
  Fe  Fe3  1  0.00000000  0.97481300  0.40561800  1
  Fe  Fe4  1  0.00000000  0.97213800  0.20562100  1
  Fe  Fe5  1  0.50000000  0.46891300  0.89389300  1
  Fe  Fe6  1  0.50000000  0.52301300  0.69775300  1
  Fe  Fe7  1  0.50000000  0.51392800  0.49812500  1
  Fe  Fe8  1  0.50000000  0.51076400  0.29816200  1
  Fe  Fe9  1  0.50000000  0.50536800  0.09795000  1
  O  O0  1  0.50000000  0.82046200  0.63813900  1
  O  O1  1  0.50000000  0.81276900  0.43797200  1
  O  O2  1  0.50000000  0.80117300  0.03656000  1
  O  O3  1  0.50000000  0.81005300  0.23768300  1
  O  O4  1  0.00000000  0.30623000  0.86382600  1
  F  F0  1  0.50000000  0.79980700  0.84513000  1
  F  F1  1  0.00000000  0.69270400  0.93942300  1
  F  F2  1  0.00000000  0.71432200  0.54155600  1
  F  F3  1  0.00000000  0.71229100  0.34124600  1
  F  F4  1  0.00000000  0.71085200  0.14046900  1
  F  F5  1  0.00000000  0.70937900  0.74465700  1
  F  F6  1  0.00000000  0.30460700  0.65587900  1
  F  F7  1  0.00000000  0.29454900  0.25666000  1
  F  F8  1  0.00000000  0.28474700  0.05705800  1
  F  F9  1  0.00000000  0.29739400  0.45677100  1
  F  F10  1  0.50000000  0.19392300  0.96179500  1
  F  F11  1  0.50000000  0.21408800  0.75762200  1
  F  F12  1  0.50000000  0.19792400  0.55932000  1
  F  F13  1  0.50000000  0.19584200  0.35979100  1
  F  F14  1  0.50000000  0.19438400  0.15981700  1
loop_
_geom_bond_atom_site_label_1
_geom_bond_atom_site_label_2
_geom_bond_distance
_geom_bond_site_symmetry_2
Fe0 O2 1.910991 1_455
Fe0 O2 1.910991 1_555
Fe1 O4 2.068544 1_555
Fe2 O0 1.915399 1_455
Fe2 O0 1.915399 1_555
Fe3 O1 1.915441 1_555
Fe3 O1 1.915441 1_455
Fe4 O3 1.912733 1_455
Fe4 O3 1.912733 1_555
Fe5 O4 1.905768 1_655
Fe5 O4 1.905768 1_555
Fe6 O0 2.013326 1_555
Fe7 O1 2.027123 1_555
Fe8 O3 2.034138 1_555
Fe9 O2 2.037906 1_555
F0 Fe5 1.967915 1_555
F0 Fe1 2.160608 1_665
F0 Fe1 2.160608 1_565
F1 Fe0 2.068220 1_556
F1 Fe5 2.209398 1_555
F1 Fe5 2.209398 1_455
F2 Fe2 2.021242 1_555
F2 Fe7 2.129606 1_455
F2 Fe7 2.129606 1_555
F3 Fe3 2.018696 1_555
F3 Fe8 2.128018 1_455
F3 Fe8 2.128018 1_555
F4 Fe4 2.029489 1_555
F4 Fe9 2.130365 1_555
F4 Fe9 2.130365 1_455
F5 Fe1 2.037676 1_565
F5 Fe6 2.142323 1_455
F5 Fe6 2.142323 1_555
F6 Fe2 1.998348 1_545
F6 Fe6 2.153350 1_555
F6 Fe6 2.153350 1_455
F7 Fe4 2.001204 1_545
F7 Fe8 2.143831 1_555
F7 Fe8 2.143831 1_455
F8 Fe0 2.010115 1_545
F8 Fe9 2.147613 1_555
F8 Fe9 2.147613 1_455
F9 Fe3 2.003571 1_545
F9 Fe7 2.142915 1_555
F9 Fe7 2.142915 1_455
F10 Fe5 2.087852 1_555
F10 Fe0 2.176814 1_646
F10 Fe0 2.176814 1_546
F11 Fe6 2.056932 1_555
F11 Fe1 2.104114 1_655
F11 Fe1 2.104114 1_555
F12 Fe7 2.103309 1_555
F12 Fe2 2.182456 1_645
F12 Fe2 2.182456 1_545
F13 Fe8 2.106758 1_555
F13 Fe3 2.187890 1_545
F13 Fe3 2.187890 1_645
F14 Fe9 2.097229 1_555
F14 Fe4 2.190451 1_645
F14 Fe4 2.190451 1_545
