# generated using pymatgen
data_As3Pd4Pb
_symmetry_space_group_name_H-M   'P 1'
_cell_length_a   3.93571561
_cell_length_b   7.12971981
_cell_length_c   6.27724638
_cell_angle_alpha   63.88628315
_cell_angle_beta   89.98697256
_cell_angle_gamma   106.01611089
_symmetry_Int_Tables_number   1
_chemical_formula_structural   As3Pd4Pb
_chemical_formula_sum   'As3 Pd4 Pb1'
_cell_volume   150.50529158
_cell_formula_units_Z   1
loop_
 _symmetry_equiv_pos_site_id
 _symmetry_equiv_pos_as_xyz
  1  'x, y, z'
loop_
 _atom_site_type_symbol
 _atom_site_label
 _atom_site_symmetry_multiplicity
 _atom_site_fract_x
 _atom_site_fract_y
 _atom_site_fract_z
 _atom_site_occupancy
  As  As0  1  0.37495500  0.75000000  0.94121500  1
  As  As1  1  0.16615700  0.33257700  0.50250600  1
  As  As2  1  0.58358000  0.16742300  0.08508200  1
  Pd  Pd0  1  0.75101400  0.50272600  0.17819100  1
  Pd  Pd1  1  0.21908500  0.43768500  0.84602200  1
  Pd  Pd2  1  0.53140000  0.06231500  0.53370700  1
  Pd  Pd3  1  0.99828900  0.99727400  0.93091600  1
  Pb  Pb0  1  0.87551900  0.75000000  0.48236100  1
loop_
_geom_bond_atom_site_label_1
_geom_bond_atom_site_label_2
_geom_bond_distance
_geom_bond_site_symmetry_2
As0 Pd1 2.471715 1_555
As0 Pd2 2.471715 1_565
As0 Pd0 2.577552 1_556
As0 Pd3 2.577553 1_555
As0 Pd3 2.579127 1_455
As0 Pd0 2.579131 1_456
As1 Pd1 2.567361 1_555
As1 Pd3 2.617580 1_445
As1 Pd2 2.646434 1_455
As1 Pd2 2.648402 1_555
As1 Pd0 2.682815 1_555
As1 Pd0 2.684571 1_455
As2 Pd2 2.567367 1_555
As2 Pd0 2.617588 1_555
As2 Pd1 2.646433 1_554
As2 Pd1 2.648400 1_654
As2 Pd3 2.682818 1_544
As2 Pd3 2.684568 1_444
Pd0 Pd2 2.814217 1_555
Pd0 Pd3 3.012779 1_554
Pd0 Pd1 3.043517 1_554
Pd0 Pd1 3.045854 1_654
Pd1 Pd3 2.814219 1_445
Pd2 Pd3 3.043515 1_545
Pd2 Pd3 3.045846 1_445
Pb0 Pd2 3.030832 1_665
Pb0 Pd1 3.030832 1_655
Pb0 Pd2 3.031860 1_565
Pb0 Pd1 3.031860 1_555
Pb0 Pd0 3.079102 1_555
Pb0 Pd3 3.079107 1_554
