# generated using pymatgen
data_Pr3CoBr3
_symmetry_space_group_name_H-M   'P 1'
_cell_length_a   10.39215242
_cell_length_b   10.39215242
_cell_length_c   10.39215242
_cell_angle_alpha   109.47122063
_cell_angle_beta   109.47122063
_cell_angle_gamma   109.47122063
_symmetry_Int_Tables_number   1
_chemical_formula_structural   Pr3CoBr3
_chemical_formula_sum   'Pr12 Co4 Br12'
_cell_volume   863.96198456
_cell_formula_units_Z   4
loop_
 _symmetry_equiv_pos_site_id
 _symmetry_equiv_pos_as_xyz
  1  'x, y, z'
loop_
 _atom_site_type_symbol
 _atom_site_label
 _atom_site_symmetry_multiplicity
 _atom_site_fract_x
 _atom_site_fract_y
 _atom_site_fract_z
 _atom_site_occupancy
  Pr  Pr0  1  0.46351900  0.48176000  0.23176000  1
  Pr  Pr1  1  0.75000000  0.23176000  0.26824000  1
  Pr  Pr2  1  0.75000000  0.01824000  0.48176000  1
  Pr  Pr3  1  0.23176000  0.46351900  0.48176000  1
  Pr  Pr4  1  0.26824000  0.75000000  0.23176000  1
  Pr  Pr5  1  0.03648100  0.26824000  0.01824000  1
  Pr  Pr6  1  0.01824000  0.03648100  0.26824000  1
  Pr  Pr7  1  0.48176000  0.75000000  0.01824000  1
  Pr  Pr8  1  0.48176000  0.23176000  0.46351900  1
  Pr  Pr9  1  0.01824000  0.48176000  0.75000000  1
  Pr  Pr10  1  0.26824000  0.01824000  0.03648100  1
  Pr  Pr11  1  0.23176000  0.26824000  0.75000000  1
  Co  Co0  1  0.25000000  0.25000000  0.25000000  1
  Co  Co1  1  0.50000000  0.00000000  0.25000000  1
  Co  Co2  1  0.00000000  0.25000000  0.50000000  1
  Co  Co3  1  0.25000000  0.50000000  0.00000000  1
  Br  Br0  1  0.25000000  0.75763500  0.74236500  1
  Br  Br1  1  0.51527000  0.50763500  0.75763500  1
  Br  Br2  1  0.98473000  0.74236500  0.99236500  1
  Br  Br3  1  0.74236500  0.25000000  0.75763500  1
  Br  Br4  1  0.99236500  0.98473000  0.74236500  1
  Br  Br5  1  0.25000000  0.99236500  0.50763500  1
  Br  Br6  1  0.75763500  0.51527000  0.50763500  1
  Br  Br7  1  0.50763500  0.25000000  0.99236500  1
  Br  Br8  1  0.75763500  0.74236500  0.25000000  1
  Br  Br9  1  0.74236500  0.99236500  0.98473000  1
  Br  Br10  1  0.99236500  0.50763500  0.25000000  1
  Br  Br11  1  0.50763500  0.75763500  0.51527000  1
loop_
_geom_bond_atom_site_label_1
_geom_bond_atom_site_label_2
_geom_bond_distance
_geom_bond_site_symmetry_2
Co0 Pr10 2.789673 1_555
Co0 Pr8 2.789673 1_555
Co0 Pr6 2.789673 1_555
Co0 Pr5 2.789673 1_555
Co0 Pr3 2.789673 1_555
Co0 Pr0 2.789673 1_555
Co1 Pr10 2.789673 1_555
Co1 Pr8 2.789673 1_555
Co1 Pr2 2.789679 1_555
Co1 Pr4 2.789679 1_545
Co1 Pr1 2.789679 1_555
Co1 Pr7 2.789679 1_545
Co2 Pr3 2.789673 1_555
Co2 Pr6 2.789673 1_555
Co2 Pr2 2.789679 1_455
Co2 Pr9 2.789679 1_555
Co2 Pr11 2.789679 1_555
Co2 Pr1 2.789679 1_455
Co3 Pr0 2.789673 1_555
Co3 Pr5 2.789673 1_555
Co3 Pr11 2.789679 1_554
Co3 Pr4 2.789679 1_555
Co3 Pr9 2.789679 1_554
Co3 Pr7 2.789679 1_555
Br0 Pr9 3.114827 1_555
Br0 Pr7 3.114827 1_556
Br0 Pr3 3.235078 1_555
Br0 Pr10 3.235078 1_566
Br1 Pr3 3.114822 1_555
Br1 Pr11 3.114827 1_555
Br1 Pr7 3.235071 1_556
Br1 Pr8 3.235078 1_555
Br2 Pr10 3.114822 1_666
Br2 Pr4 3.114827 1_656
Br2 Pr9 3.235071 1_655
Br2 Pr6 3.235078 1_666
Br3 Pr2 3.114827 1_555
Br3 Pr9 3.114827 1_655
Br3 Pr5 3.235078 1_656
Br3 Pr8 3.235078 1_555
Br4 Pr5 3.114822 1_666
Br4 Pr11 3.114827 1_665
Br4 Pr2 3.235071 1_565
Br4 Pr10 3.235078 1_666
Br5 Pr8 3.114834 1_565
Br5 Pr6 3.114834 1_565
Br5 Pr4 3.235071 1_555
Br5 Pr11 3.235071 1_565
Br6 Pr8 3.114822 1_555
Br6 Pr1 3.114827 1_555
Br6 Pr9 3.235071 1_655
Br6 Pr0 3.235078 1_555
Br7 Pr10 3.114834 1_556
Br7 Pr0 3.114834 1_556
Br7 Pr1 3.235071 1_556
Br7 Pr11 3.235071 1_555
Br8 Pr7 3.114827 1_555
Br8 Pr2 3.114827 1_565
Br8 Pr0 3.235078 1_555
Br8 Pr6 3.235078 1_665
Br9 Pr6 3.114822 1_666
Br9 Pr1 3.114827 1_566
Br9 Pr7 3.235071 1_556
Br9 Pr5 3.235078 1_666
Br10 Pr5 3.114834 1_655
Br10 Pr3 3.114834 1_655
Br10 Pr1 3.235071 1_555
Br10 Pr4 3.235071 1_655
Br11 Pr0 3.114822 1_555
Br11 Pr4 3.114827 1_555
Br11 Pr2 3.235071 1_565
Br11 Pr3 3.235078 1_555
