# generated using pymatgen
data_Mo2Ru
_symmetry_space_group_name_H-M   'P 1'
_cell_length_a   9.63780100
_cell_length_b   9.63780100
_cell_length_c   4.97738700
_cell_angle_alpha   90.00000000
_cell_angle_beta   90.00000000
_cell_angle_gamma   90.00000000
_symmetry_Int_Tables_number   1
_chemical_formula_structural   Mo2Ru
_chemical_formula_sum   'Mo20 Ru10'
_cell_volume   462.33558214
_cell_formula_units_Z   10
loop_
 _symmetry_equiv_pos_site_id
 _symmetry_equiv_pos_as_xyz
  1  'x, y, z'
loop_
 _atom_site_type_symbol
 _atom_site_label
 _atom_site_symmetry_multiplicity
 _atom_site_fract_x
 _atom_site_fract_y
 _atom_site_fract_z
 _atom_site_occupancy
  Mo  Mo0  1  0.10760800  0.89239200  0.50000000  1
  Mo  Mo1  1  0.89239200  0.10760800  0.50000000  1
  Mo  Mo2  1  0.39239200  0.39239200  0.00000000  1
  Mo  Mo3  1  0.60760800  0.60760800  0.00000000  1
  Mo  Mo4  1  0.37041500  0.96045800  0.50000000  1
  Mo  Mo5  1  0.62958500  0.03954200  0.50000000  1
  Mo  Mo6  1  0.12958500  0.46045800  0.00000000  1
  Mo  Mo7  1  0.87041500  0.53954200  0.00000000  1
  Mo  Mo8  1  0.96045800  0.37041500  0.50000000  1
  Mo  Mo9  1  0.03954200  0.62958500  0.50000000  1
  Mo  Mo10  1  0.46045800  0.12958500  0.00000000  1
  Mo  Mo11  1  0.53954200  0.87041500  0.00000000  1
  Mo  Mo12  1  0.32234100  0.67765900  0.24393800  1
  Mo  Mo13  1  0.67765900  0.32234100  0.24393800  1
  Mo  Mo14  1  0.17765900  0.17765900  0.74393800  1
  Mo  Mo15  1  0.82234100  0.82234100  0.74393800  1
  Mo  Mo16  1  0.67765900  0.32234100  0.75606200  1
  Mo  Mo17  1  0.32234100  0.67765900  0.75606200  1
  Mo  Mo18  1  0.82234100  0.82234100  0.25606200  1
  Mo  Mo19  1  0.17765900  0.17765900  0.25606200  1
  Ru  Ru0  1  0.50000000  0.50000000  0.50000000  1
  Ru  Ru1  1  0.00000000  0.00000000  0.00000000  1
  Ru  Ru2  1  0.43337100  0.23449200  0.50000000  1
  Ru  Ru3  1  0.56662900  0.76550800  0.50000000  1
  Ru  Ru4  1  0.06662900  0.73449200  0.00000000  1
  Ru  Ru5  1  0.93337100  0.26550800  0.00000000  1
  Ru  Ru6  1  0.23449200  0.43337100  0.50000000  1
  Ru  Ru7  1  0.76550800  0.56662900  0.50000000  1
  Ru  Ru8  1  0.73449200  0.06662900  0.00000000  1
  Ru  Ru9  1  0.26550800  0.93337100  0.00000000  1
loop_
_geom_bond_atom_site_label_1
_geom_bond_atom_site_label_2
_geom_bond_distance
_geom_bond_site_symmetry_2
Mo0 Mo4 2.616454 1_555
Mo0 Mo9 2.616454 1_555
Mo0 Ru1 2.888731 1_565
Mo0 Ru1 2.888731 1_566
Mo0 Mo1 2.933374 1_465
Mo0 Ru9 2.943719 1_556
Mo0 Ru9 2.943719 1_555
Mo0 Ru4 2.943719 1_555
Mo0 Ru4 2.943719 1_556
Mo0 Mo19 3.080412 1_565
Mo0 Mo14 3.080412 1_565
Mo0 Mo15 3.080412 1_455
Mo0 Mo18 3.080412 1_455
Mo0 Mo12 3.192257 1_555
Mo0 Mo17 3.192257 1_555
Mo1 Mo8 2.616454 1_555
Mo1 Mo5 2.616454 1_555
Mo1 Ru1 2.888731 1_655
Mo1 Ru1 2.888731 1_656
Mo1 Ru5 2.943719 1_555
Mo1 Ru5 2.943719 1_556
Mo1 Ru8 2.943719 1_555
Mo1 Ru8 2.943719 1_556
Mo1 Mo19 3.080412 1_655
Mo1 Mo14 3.080412 1_655
Mo1 Mo18 3.080412 1_545
Mo1 Mo15 3.080412 1_545
Mo1 Mo16 3.192257 1_555
Mo1 Mo13 3.192257 1_555
Mo2 Mo6 2.616454 1_555
Mo2 Ru0 2.888731 1_555
Mo2 Ru0 2.888731 1_554
Mo2 Mo3 2.933374 1_555
Mo2 Ru2 2.943719 1_555
Mo2 Ru6 2.943719 1_555
Mo2 Ru2 2.943719 1_554
Mo2 Ru6 2.943719 1_554
Mo3 Mo7 2.616454 1_555
Mo3 Ru0 2.888731 1_555
Mo3 Ru0 2.888731 1_554
Mo3 Ru7 2.943719 1_555
Mo3 Ru3 2.943719 1_554
Mo3 Ru7 2.943719 1_554
Mo3 Ru3 2.943719 1_555
Mo4 Mo5 2.611531 1_565
Mo4 Ru3 2.665779 1_555
Mo4 Ru9 2.698892 1_556
Mo4 Ru9 2.698892 1_555
Mo4 Ru2 2.709887 1_565
Mo5 Ru2 2.665779 1_555
Mo5 Ru8 2.698892 1_555
Mo5 Ru8 2.698892 1_556
Mo5 Ru3 2.709887 1_545
Mo6 Mo7 2.611531 1_455
Mo6 Ru5 2.665779 1_455
Mo6 Ru6 2.698892 1_555
Mo6 Ru6 2.698892 1_554
Mo6 Ru4 2.709887 1_555
Mo6 Mo9 3.098974 1_555
Mo6 Mo9 3.098974 1_554
Mo6 Mo8 3.098974 1_455
Mo6 Mo8 3.098974 1_454
Mo7 Ru4 2.665779 1_655
Mo7 Ru7 2.698892 1_555
Mo7 Ru7 2.698892 1_554
Mo7 Ru5 2.709887 1_555
Mo7 Mo8 3.098974 1_554
Mo7 Mo8 3.098974 1_555
Mo7 Mo9 3.098974 1_654
Mo7 Mo9 3.098974 1_655
Mo8 Mo9 2.611531 1_655
Mo8 Ru7 2.665779 1_555
Mo8 Ru5 2.698892 1_555
Mo8 Ru5 2.698892 1_556
Mo8 Ru6 2.709887 1_655
Mo9 Ru6 2.665779 1_555
Mo9 Ru4 2.698892 1_555
Mo9 Ru4 2.698892 1_556
Mo9 Ru7 2.709887 1_455
Mo10 Mo11 2.611531 1_545
Mo10 Mo2 2.616454 1_555
Mo10 Ru9 2.665779 1_545
Mo10 Ru2 2.698892 1_554
Mo10 Ru2 2.698892 1_555
Mo10 Ru8 2.709887 1_555
Mo10 Mo14 3.044298 1_554
Mo10 Mo19 3.044298 1_555
Mo10 Mo13 3.050820 1_555
Mo10 Mo16 3.050820 1_554
Mo10 Mo5 3.098974 1_554
Mo10 Mo5 3.098974 1_555
Mo10 Mo4 3.098974 1_545
Mo10 Mo4 3.098974 1_544
Mo11 Mo3 2.616454 1_555
Mo11 Ru8 2.665779 1_565
Mo11 Ru3 2.698892 1_555
Mo11 Ru3 2.698892 1_554
Mo11 Ru9 2.709887 1_555
Mo11 Mo18 3.044298 1_555
Mo11 Mo15 3.044298 1_554
Mo11 Mo17 3.050820 1_554
Mo11 Mo12 3.050820 1_555
Mo11 Mo4 3.098974 1_555
Mo11 Mo4 3.098974 1_554
Mo11 Mo5 3.098974 1_565
Mo11 Mo5 3.098974 1_564
Mo12 Mo17 2.428348 1_554
Mo12 Mo17 2.549039 1_555
Mo12 Ru0 2.736411 1_555
Mo12 Ru4 2.801430 1_555
Mo12 Ru9 2.801430 1_555
Mo12 Ru3 2.807926 1_555
Mo12 Ru6 2.807926 1_555
Mo12 Mo4 3.044298 1_555
Mo12 Mo9 3.044298 1_555
Mo12 Mo6 3.050820 1_555
Mo12 Mo3 3.080412 1_555
Mo12 Mo2 3.080412 1_555
Mo13 Mo16 2.428348 1_554
Mo13 Mo16 2.549039 1_555
Mo13 Ru0 2.736411 1_555
Mo13 Ru8 2.801430 1_555
Mo13 Ru5 2.801430 1_555
Mo13 Ru7 2.807926 1_555
Mo13 Ru2 2.807926 1_555
Mo13 Mo8 3.044298 1_555
Mo13 Mo5 3.044298 1_555
Mo13 Mo7 3.050820 1_555
Mo13 Mo3 3.080412 1_555
Mo13 Mo2 3.080412 1_555
Mo14 Mo19 2.428348 1_555
Mo14 Mo19 2.549039 1_556
Mo14 Ru1 2.736411 1_556
Mo14 Ru2 2.801430 1_555
Mo14 Ru6 2.801430 1_555
Mo14 Ru9 2.807926 1_546
Mo14 Ru5 2.807926 1_456
Mo14 Mo6 3.044298 1_556
Mo14 Mo4 3.050820 1_545
Mo14 Mo8 3.050820 1_455
Mo14 Mo2 3.192257 1_556
Mo15 Mo18 2.428348 1_555
Mo15 Mo18 2.549039 1_556
Mo15 Ru1 2.736411 1_666
Mo15 Ru7 2.801430 1_555
Mo15 Ru3 2.801430 1_555
Mo15 Ru4 2.807926 1_656
Mo15 Ru8 2.807926 1_566
Mo15 Mo7 3.044298 1_556
Mo15 Mo5 3.050820 1_565
Mo15 Mo9 3.050820 1_655
Mo15 Mo3 3.192257 1_556
Mo16 Ru0 2.736411 1_555
Mo16 Ru8 2.801430 1_556
Mo16 Ru5 2.801430 1_556
Mo16 Ru7 2.807926 1_555
Mo16 Ru2 2.807926 1_555
Mo16 Mo8 3.044298 1_555
Mo16 Mo5 3.044298 1_555
Mo16 Mo7 3.050820 1_556
Mo16 Mo3 3.080412 1_556
Mo16 Mo2 3.080412 1_556
Mo17 Ru0 2.736411 1_555
Mo17 Ru4 2.801430 1_556
Mo17 Ru9 2.801430 1_556
Mo17 Ru3 2.807926 1_555
Mo17 Ru6 2.807926 1_555
Mo17 Mo4 3.044298 1_555
Mo17 Mo9 3.044298 1_555
Mo17 Mo6 3.050820 1_556
Mo17 Mo3 3.080412 1_556
Mo17 Mo2 3.080412 1_556
Mo18 Ru1 2.736411 1_665
Mo18 Ru7 2.801430 1_555
Mo18 Ru3 2.801430 1_555
Mo18 Ru4 2.807926 1_655
Mo18 Ru8 2.807926 1_565
Mo18 Mo7 3.044298 1_555
Mo18 Mo5 3.050820 1_565
Mo18 Mo9 3.050820 1_655
Mo18 Mo3 3.192257 1_555
Mo19 Ru1 2.736411 1_555
Mo19 Ru2 2.801430 1_555
Mo19 Ru6 2.801430 1_555
Mo19 Ru9 2.807926 1_545
Mo19 Ru5 2.807926 1_455
Mo19 Mo6 3.044298 1_555
Mo19 Mo4 3.050820 1_545
Mo19 Mo8 3.050820 1_455
Mo19 Mo2 3.192257 1_555
Ru0 Ru7 2.638258 1_555
Ru0 Ru3 2.638258 1_555
Ru0 Ru2 2.638258 1_555
Ru0 Ru6 2.638258 1_555
Ru1 Ru9 2.638258 1_545
Ru1 Ru5 2.638258 1_455
Ru1 Ru8 2.638258 1_455
Ru1 Ru4 2.638258 1_545
Ru2 Ru6 2.710703 1_555
Ru3 Ru7 2.710703 1_555
Ru4 Ru9 2.710703 1_555
Ru5 Ru8 2.710703 1_555
