# generated using pymatgen
data_RbNdTe4
_symmetry_space_group_name_H-M   'P 1'
_cell_length_a   6.98228510
_cell_length_b   6.98228510
_cell_length_c   9.23166770
_cell_angle_alpha   90.00000000
_cell_angle_beta   90.00000000
_cell_angle_gamma   90.00000000
_symmetry_Int_Tables_number   1
_chemical_formula_structural   RbNdTe4
_chemical_formula_sum   'Rb2 Nd2 Te8'
_cell_volume   450.06508138
_cell_formula_units_Z   2
loop_
 _symmetry_equiv_pos_site_id
 _symmetry_equiv_pos_as_xyz
  1  'x, y, z'
loop_
 _atom_site_type_symbol
 _atom_site_label
 _atom_site_symmetry_multiplicity
 _atom_site_fract_x
 _atom_site_fract_y
 _atom_site_fract_z
 _atom_site_occupancy
  Rb  Rb0  1  0.75000000  0.75000000  -0.00000000  1
  Rb  Rb1  1  0.25000000  0.25000000  -0.00000000  1
  Nd  Nd0  1  0.75000000  0.75000000  0.50000000  1
  Nd  Nd1  1  0.25000000  0.25000000  0.50000000  1
  Te  Te0  1  0.60795746  0.10795746  0.29381074  1
  Te  Te1  1  0.39204254  0.60795746  0.29381074  1
  Te  Te2  1  0.10795746  0.89204254  0.29381074  1
  Te  Te3  1  0.60795746  0.39204254  0.70618926  1
  Te  Te4  1  0.89204254  0.10795746  0.70618926  1
  Te  Te5  1  0.89204254  0.39204254  0.29381074  1
  Te  Te6  1  0.10795746  0.60795746  0.70618926  1
  Te  Te7  1  0.39204254  0.89204254  0.70618926  1
loop_
_geom_bond_atom_site_label_1
_geom_bond_atom_site_label_2
_geom_bond_distance
_geom_bond_site_symmetry_2
Rb0 Te6 3.819339 1_654
Rb0 Te3 3.819339 1_554
Rb0 Te0 3.819339 1_565
Rb0 Te4 3.819339 1_564
Rb0 Te7 3.819339 1_554
Rb0 Te2 3.819339 1_655
Rb0 Te1 3.819339 1_555
Rb0 Te5 3.819339 1_555
Rb1 Te7 3.819339 1_544
Rb1 Te5 3.819339 1_455
Rb1 Te2 3.819339 1_545
Rb1 Te4 3.819339 1_454
Rb1 Te6 3.819339 1_554
Rb1 Te3 3.819339 1_554
Rb1 Te1 3.819339 1_555
Rb1 Te0 3.819339 1_555
Nd0 Te0 3.294486 1_565
Nd0 Te2 3.294486 1_655
Nd0 Te6 3.294486 1_655
Nd0 Te1 3.294486 1_555
Nd0 Te4 3.294486 1_565
Nd0 Te5 3.294486 1_555
Nd0 Te3 3.294486 1_555
Nd0 Te7 3.294486 1_555
Nd1 Te5 3.294486 1_455
Nd1 Te2 3.294486 1_545
Nd1 Te4 3.294486 1_455
Nd1 Te7 3.294486 1_545
Nd1 Te3 3.294486 1_555
Nd1 Te0 3.294486 1_555
Nd1 Te6 3.294486 1_555
Nd1 Te1 3.294486 1_555
Te0 Te5 2.805182 1_555
Te1 Te2 2.805182 1_555
Te3 Te4 2.805182 1_555
Te6 Te7 2.805182 1_555
