# generated using pymatgen
data_NbW
_symmetry_space_group_name_H-M   'P 1'
_cell_length_a   5.58048617
_cell_length_b   5.58048617
_cell_length_c   9.19698933
_cell_angle_alpha   90.00000000
_cell_angle_beta   90.00000000
_cell_angle_gamma   109.14487325
_symmetry_Int_Tables_number   1
_chemical_formula_structural   NbW
_chemical_formula_sum   'Nb8 W8'
_cell_volume   270.57031879
_cell_formula_units_Z   8
loop_
 _symmetry_equiv_pos_site_id
 _symmetry_equiv_pos_as_xyz
  1  'x, y, z'
loop_
 _atom_site_type_symbol
 _atom_site_label
 _atom_site_symmetry_multiplicity
 _atom_site_fract_x
 _atom_site_fract_y
 _atom_site_fract_z
 _atom_site_occupancy
  Nb  Nb0_0  1  0.00000000  0.00000000  0.00000000  1
  Nb  Nb0_1  1  0.00000000  0.00000000  0.50000000  1
  Nb  Nb0_2  1  0.00000000  0.50000000  0.00000000  1
  Nb  Nb0_3  1  0.00000000  0.50000000  0.50000000  1
  Nb  Nb0_4  1  0.50000000  0.00000000  0.00000000  1
  Nb  Nb0_5  1  0.50000000  0.00000000  0.50000000  1
  Nb  Nb0_6  1  0.50000000  0.50000000  0.00000000  1
  Nb  Nb0_7  1  0.50000000  0.50000000  0.50000000  1
  W  W0_0  1  0.25000000  0.25000000  0.25000000  1
  W  W0_1  1  0.25000000  0.25000000  0.75000000  1
  W  W0_2  1  0.25000000  0.75000000  0.25000000  1
  W  W0_3  1  0.25000000  0.75000000  0.75000000  1
  W  W0_4  1  0.75000000  0.25000000  0.25000000  1
  W  W0_5  1  0.75000000  0.25000000  0.75000000  1
  W  W0_6  1  0.75000000  0.75000000  0.25000000  1
  W  W0_7  1  0.75000000  0.75000000  0.75000000  1
loop_
_geom_bond_atom_site_label_1
_geom_bond_atom_site_label_2
_geom_bond_distance
_geom_bond_site_symmetry_2
Nb0_0 Nb0_4 2.790243 1_555
Nb0_0 Nb0_2 2.790243 1_555
Nb0_0 Nb0_2 2.790243 1_545
Nb0_0 Nb0_4 2.790243 1_455
Nb0_0 W0_6 2.811159 1_445
Nb0_0 W0_7 2.811159 1_444
Nb0_0 W0_0 2.811159 1_555
Nb0_0 W0_1 2.811159 1_554
Nb0_1 Nb0_5 2.790243 1_555
Nb0_1 Nb0_3 2.790243 1_555
Nb0_1 Nb0_3 2.790243 1_545
Nb0_1 Nb0_5 2.790243 1_455
Nb0_1 W0_6 2.811159 1_445
Nb0_1 W0_7 2.811159 1_445
Nb0_1 W0_0 2.811159 1_555
Nb0_1 W0_1 2.811159 1_555
Nb0_2 Nb0_6 2.790243 1_455
Nb0_2 Nb0_6 2.790243 1_555
Nb0_2 W0_5 2.811159 1_454
Nb0_2 W0_3 2.811159 1_554
Nb0_2 W0_4 2.811159 1_455
Nb0_2 W0_2 2.811159 1_555
Nb0_3 Nb0_7 2.790243 1_455
Nb0_3 Nb0_7 2.790243 1_555
Nb0_3 W0_4 2.811159 1_455
Nb0_3 W0_2 2.811159 1_555
Nb0_3 W0_3 2.811159 1_555
Nb0_3 W0_5 2.811159 1_455
Nb0_4 Nb0_6 2.790243 1_555
Nb0_4 Nb0_6 2.790243 1_545
Nb0_4 W0_3 2.811159 1_544
Nb0_4 W0_2 2.811159 1_545
Nb0_4 W0_5 2.811159 1_554
Nb0_4 W0_4 2.811159 1_555
Nb0_5 Nb0_7 2.790243 1_555
Nb0_5 Nb0_7 2.790243 1_545
Nb0_5 W0_3 2.811159 1_545
Nb0_5 W0_4 2.811159 1_555
Nb0_5 W0_2 2.811159 1_545
Nb0_5 W0_5 2.811159 1_555
Nb0_6 W0_6 2.811159 1_555
Nb0_6 W0_0 2.811159 1_555
Nb0_6 W0_1 2.811159 1_554
Nb0_6 W0_7 2.811159 1_554
Nb0_7 W0_6 2.811159 1_555
Nb0_7 W0_0 2.811159 1_555
Nb0_7 W0_1 2.811159 1_555
Nb0_7 W0_7 2.811159 1_555
W0_0 W0_4 2.790243 1_455
W0_0 W0_2 2.790243 1_545
W0_0 W0_2 2.790243 1_555
W0_0 W0_4 2.790243 1_555
W0_1 W0_5 2.790243 1_455
W0_1 W0_3 2.790243 1_555
W0_1 W0_3 2.790243 1_545
W0_1 W0_5 2.790243 1_555
W0_2 W0_6 2.790243 1_455
W0_2 W0_6 2.790243 1_555
W0_3 W0_7 2.790243 1_455
W0_3 W0_7 2.790243 1_555
W0_4 W0_6 2.790243 1_545
W0_4 W0_6 2.790243 1_555
W0_5 W0_7 2.790243 1_555
W0_5 W0_7 2.790243 1_545
