# generated using pymatgen
data_Mo2H12C4N2O15
_symmetry_space_group_name_H-M   'P 1'
_cell_length_a   7.81119100
_cell_length_b   14.37299300
_cell_length_c   7.12851904
_cell_angle_alpha   90.00000000
_cell_angle_beta   96.79215698
_cell_angle_gamma   90.00000000
_symmetry_Int_Tables_number   1
_chemical_formula_structural   Mo2H12C4N2O15
_chemical_formula_sum   'Mo4 H24 C8 N4 O30'
_cell_volume   794.70333018
_cell_formula_units_Z   2
loop_
 _symmetry_equiv_pos_site_id
 _symmetry_equiv_pos_as_xyz
  1  'x, y, z'
loop_
 _atom_site_type_symbol
 _atom_site_label
 _atom_site_symmetry_multiplicity
 _atom_site_fract_x
 _atom_site_fract_y
 _atom_site_fract_z
 _atom_site_occupancy
  Mo  Mo0  1  0.40272700  0.89103900  0.87814600  1
  Mo  Mo1  1  0.59727300  0.10896100  0.12185400  1
  Mo  Mo2  1  0.59727300  0.39103900  0.62185400  1
  Mo  Mo3  1  0.40272700  0.60896100  0.37814600  1
  H  H0  1  0.25764500  0.67637600  0.71934600  1
  H  H1  1  0.76029600  0.58574400  0.78615400  1
  H  H2  1  0.74235500  0.32362400  0.28065400  1
  H  H3  1  0.76938400  0.06594700  0.77997900  1
  H  H4  1  0.57066800  0.61451300  0.86424700  1
  H  H5  1  0.23061600  0.93405300  0.22002100  1
  H  H6  1  0.76938400  0.43405300  0.27997900  1
  H  H7  1  0.24229400  0.12993900  0.49493300  1
  H  H8  1  0.23061600  0.56594700  0.72002100  1
  H  H9  1  0.42933200  0.38548700  0.13575300  1
  H  H10  1  0.75770600  0.87006100  0.50506700  1
  H  H11  1  0.24229400  0.37006100  0.99493300  1
  H  H12  1  0.57066800  0.88548700  0.36424700  1
  H  H13  1  0.29401900  0.19880700  0.68364000  1
  H  H14  1  0.76029600  0.91425600  0.28615400  1
  H  H15  1  0.42933200  0.11451300  0.63575300  1
  H  H16  1  0.74235500  0.17637600  0.78065400  1
  H  H17  1  0.70598100  0.69880700  0.81636000  1
  H  H18  1  0.29401900  0.30119300  0.18364000  1
  H  H19  1  0.75770600  0.62993900  0.00506700  1
  H  H20  1  0.25764500  0.82362400  0.21934600  1
  H  H21  1  0.70598100  0.80119300  0.31636000  1
  H  H22  1  0.23970400  0.08574400  0.71384600  1
  H  H23  1  0.23970400  0.41425600  0.21384600  1
  C  C0  1  0.04508100  0.67335100  0.24397900  1
  C  C1  1  0.97741900  0.43371100  0.74134400  1
  C  C2  1  0.97741900  0.06628900  0.24134400  1
  C  C3  1  0.04508100  0.82664900  0.74397900  1
  C  C4  1  0.95491900  0.32664900  0.75602100  1
  C  C5  1  0.95491900  0.17335100  0.25602100  1
  C  C6  1  0.02258100  0.56628900  0.25865600  1
  C  C7  1  0.02258100  0.93371100  0.75865600  1
  N  N0  1  0.69878100  0.63218700  0.86698600  1
  N  N1  1  0.30121900  0.36781300  0.13301400  1
  N  N2  1  0.69878100  0.86781300  0.36698600  1
  N  N3  1  0.30121900  0.13218700  0.63301400  1
  O  O0  1  0.16007800  0.97686700  0.83063100  1
  O  O1  1  0.69566200  0.11683100  0.82108500  1
  O  O2  1  0.88102500  0.53131700  0.19944000  1
  O  O3  1  0.16007800  0.52313300  0.33063100  1
  O  O4  1  0.55520200  0.09203900  0.35228600  1
  O  O5  1  0.54084000  0.69783800  0.46373500  1
  O  O6  1  0.92509700  0.72309700  0.17787900  1
  O  O7  1  0.54084000  0.80216200  0.96373500  1
  O  O8  1  0.30433800  0.88316900  0.17891500  1
  O  O9  1  0.79905200  0.29617900  0.69568000  1
  O  O10  1  0.07490300  0.22309700  0.32212100  1
  O  O11  1  0.20094800  0.79617900  0.80432000  1
  O  O12  1  0.20094800  0.70382100  0.30432000  1
  O  O13  1  0.92509700  0.77690300  0.67787900  1
  O  O14  1  0.83992200  0.02313300  0.16936900  1
  O  O15  1  0.83992200  0.47686700  0.66936900  1
  O  O16  1  0.11897500  0.46868300  0.80056000  1
  O  O17  1  0.55520200  0.40796100  0.85228600  1
  O  O18  1  0.30433800  0.61683100  0.67891500  1
  O  O19  1  0.50000000  0.50000000  0.50000000  1
  O  O20  1  0.07490300  0.27690300  0.82212100  1
  O  O21  1  0.79905200  0.20382100  0.19568000  1
  O  O22  1  0.88102500  0.96868300  0.69944000  1
  O  O23  1  0.45916000  0.19783800  0.03626500  1
  O  O24  1  0.69566200  0.38316900  0.32108500  1
  O  O25  1  0.11897500  0.03131700  0.30056000  1
  O  O26  1  0.50000000  0.00000000  0.00000000  1
  O  O27  1  0.44479800  0.59203900  0.14771400  1
  O  O28  1  0.44479800  0.90796100  0.64771400  1
  O  O29  1  0.45916000  0.30216200  0.53626500  1
loop_
_geom_bond_atom_site_label_1
_geom_bond_atom_site_label_2
_geom_bond_distance
_geom_bond_site_symmetry_2
Mo0 O28 1.730057 1_555
Mo0 O7 1.735583 1_555
Mo0 O26 1.904835 1_566
Mo0 O11 2.103302 1_555
Mo0 O0 2.253245 1_555
Mo0 O8 2.364338 1_556
Mo1 O4 1.730057 1_555
Mo1 O23 1.735583 1_555
Mo1 O26 1.904835 1_555
Mo1 O21 2.103302 1_555
Mo1 O14 2.253245 1_555
Mo1 O1 2.364338 1_554
Mo2 O17 1.730057 1_555
Mo2 O29 1.735583 1_555
Mo2 O19 1.904835 1_555
Mo2 O9 2.103302 1_555
Mo2 O15 2.253245 1_555
Mo2 O24 2.364338 1_555
Mo3 O27 1.730057 1_555
Mo3 O5 1.735583 1_555
Mo3 O19 1.904835 1_555
Mo3 O12 2.103302 1_555
Mo3 O3 2.253245 1_555
Mo3 O18 2.364338 1_555
H0 O18 0.986620 1_555
H1 N0 1.036333 1_555
H2 O24 0.986620 1_555
H3 O1 0.996127 1_555
H4 N0 1.030398 1_555
H5 O8 0.996127 1_555
H6 O24 0.996127 1_555
H7 N3 1.036632 1_555
H8 O18 0.996127 1_555
H9 N1 1.030398 1_555
H10 N2 1.036632 1_555
H11 N1 1.036632 1_556
H12 N2 1.030398 1_555
H13 N3 1.027164 1_555
H14 N2 1.036333 1_555
H15 N3 1.030398 1_555
H16 O1 0.986620 1_555
H17 N0 1.027164 1_555
H18 N1 1.027164 1_555
H19 N0 1.036632 1_554
H20 O8 0.986620 1_555
H21 N2 1.027164 1_555
H22 N3 1.036333 1_555
H23 N1 1.036333 1_555
C0 O6 1.227668 1_455
C0 O12 1.317295 1_555
C1 O16 1.242201 1_655
C1 O15 1.292734 1_555
C2 O25 1.242201 1_655
C2 O14 1.292734 1_555
C3 O13 1.227668 1_455
C3 O11 1.317295 1_555
C4 O20 1.227668 1_655
C4 O9 1.317295 1_555
C5 O10 1.227668 1_655
C5 O21 1.317295 1_555
C6 O2 1.242201 1_455
C6 O3 1.292734 1_555
C7 O22 1.242201 1_455
C7 O0 1.292734 1_555
