# generated using pymatgen
data_YbAlCu4
_symmetry_space_group_name_H-M   'P 1'
_cell_length_a   5.14510780
_cell_length_b   5.14510780
_cell_length_c   4.03203900
_cell_angle_alpha   90.00000000
_cell_angle_beta   90.00000000
_cell_angle_gamma   119.99999740
_symmetry_Int_Tables_number   1
_chemical_formula_structural   YbAlCu4
_chemical_formula_sum   'Yb1 Al1 Cu4'
_cell_volume   92.43667684
_cell_formula_units_Z   1
loop_
 _symmetry_equiv_pos_site_id
 _symmetry_equiv_pos_as_xyz
  1  'x, y, z'
loop_
 _atom_site_type_symbol
 _atom_site_label
 _atom_site_symmetry_multiplicity
 _atom_site_fract_x
 _atom_site_fract_y
 _atom_site_fract_z
 _atom_site_occupancy
  Yb  Yb0  1  0.00000000  0.00000000  0.00000000  1
  Al  Al0  1  0.33333300  0.66666700  0.00000000  1
  Cu  Cu0  1  0.66666700  0.33333300  0.00000000  1
  Cu  Cu1  1  0.99827300  0.49913700  0.50000000  1
  Cu  Cu2  1  0.50086300  0.49913700  0.50000000  1
  Cu  Cu3  1  0.50086300  0.00172700  0.50000000  1
loop_
_geom_bond_atom_site_label_1
_geom_bond_atom_site_label_2
_geom_bond_distance
_geom_bond_site_symmetry_2
Al0 Cu2 2.508637 1_555
Al0 Cu2 2.508637 1_554
Al0 Cu3 2.508637 1_565
Al0 Cu3 2.508637 1_564
Al0 Cu1 2.508637 1_455
Al0 Cu1 2.508637 1_454
Al0 Yb0 2.970526 1_565
Al0 Cu0 2.970526 1_455
Al0 Cu0 2.970526 1_565
Al0 Yb0 2.970531 1_665
Al0 Yb0 2.970531 1_555
Al0 Cu0 2.970535 1_555
Cu0 Cu1 2.499508 1_554
Cu0 Cu1 2.499508 1_555
Cu0 Cu3 2.499508 1_555
Cu0 Cu3 2.499508 1_554
Cu0 Cu2 2.499514 1_555
Cu0 Cu2 2.499514 1_554
Cu0 Yb0 2.970526 1_655
Cu0 Yb0 2.970531 1_665
Cu0 Yb0 2.970531 1_555
Cu1 Cu2 2.559228 1_555
Cu1 Cu3 2.559228 1_555
Cu1 Cu2 2.585880 1_655
Cu1 Cu3 2.585880 1_665
Cu1 Yb0 3.268396 1_666
Cu1 Yb0 3.268396 1_665
Cu1 Yb0 3.268400 1_656
Cu1 Yb0 3.268400 1_655
Cu2 Cu3 2.559228 1_555
Cu2 Cu3 2.585880 1_565
Cu2 Yb0 3.268398 1_555
Cu2 Yb0 3.268398 1_556
Cu2 Yb0 3.268398 1_666
Cu2 Yb0 3.268398 1_665
Cu3 Yb0 3.268396 1_556
Cu3 Yb0 3.268396 1_555
Cu3 Yb0 3.268400 1_656
Cu3 Yb0 3.268400 1_655
