# generated using pymatgen
data_Cs8(Re4S9)3
_symmetry_space_group_name_H-M   'P 1'
_cell_length_a   17.85006700
_cell_length_b   10.36764200
_cell_length_c   13.93971210
_cell_angle_alpha   79.68354995
_cell_angle_beta   90.00000000
_cell_angle_gamma   90.00000000
_symmetry_Int_Tables_number   1
_chemical_formula_structural   Cs8(Re4S9)3
_chemical_formula_sum   'Cs16 Re24 S54'
_cell_volume   2538.02166540
_cell_formula_units_Z   2
loop_
 _symmetry_equiv_pos_site_id
 _symmetry_equiv_pos_as_xyz
  1  'x, y, z'
loop_
 _atom_site_type_symbol
 _atom_site_label
 _atom_site_symmetry_multiplicity
 _atom_site_fract_x
 _atom_site_fract_y
 _atom_site_fract_z
 _atom_site_occupancy
  Cs  Cs0  1  0.47318400  0.02370600  0.04815800  1
  Cs  Cs1  1  0.02624100  0.52826400  0.54553600  1
  Cs  Cs2  1  0.52624100  0.47173600  0.45446400  1
  Cs  Cs3  1  0.97318400  0.97629400  0.95184200  1
  Cs  Cs4  1  0.15297700  0.05555600  0.14423900  1
  Cs  Cs5  1  0.34437700  0.55283200  0.64016100  1
  Cs  Cs6  1  0.84437700  0.44716800  0.35983900  1
  Cs  Cs7  1  0.65297700  0.94444400  0.85576100  1
  Cs  Cs8  1  0.12655800  0.50535100  0.85136400  1
  Cs  Cs9  1  0.37431400  0.00566700  0.35203000  1
  Cs  Cs10  1  0.87431400  0.99433300  0.64797000  1
  Cs  Cs11  1  0.62655800  0.49464900  0.14863600  1
  Cs  Cs12  1  0.47346700  0.41258100  0.95482000  1
  Cs  Cs13  1  0.02771900  0.94432000  0.43158500  1
  Cs  Cs14  1  0.52771900  0.05568000  0.56841500  1
  Cs  Cs15  1  0.97346700  0.58741900  0.04518000  1
  Re  Re0  1  0.28434800  0.13593800  0.64391600  1
  Re  Re1  1  0.21535200  0.63508700  0.14426500  1
  Re  Re2  1  0.71535200  0.36491300  0.85573500  1
  Re  Re3  1  0.78434800  0.86406200  0.35608400  1
  Re  Re4  1  0.30072700  0.41497200  0.36183400  1
  Re  Re5  1  0.19939700  0.91581300  0.86175700  1
  Re  Re6  1  0.69939700  0.08418700  0.13824300  1
  Re  Re7  1  0.80072700  0.58502800  0.63816600  1
  Re  Re8  1  0.14852800  0.10937500  0.72648000  1
  Re  Re9  1  0.35108800  0.60922100  0.22651000  1
  Re  Re10  1  0.85108800  0.39077900  0.77349000  1
  Re  Re11  1  0.64852800  0.89062500  0.27352000  1
  Re  Re12  1  0.16683500  0.44109100  0.28020500  1
  Re  Re13  1  0.33346100  0.94420600  0.77993700  1
  Re  Re14  1  0.83346100  0.05579400  0.22006300  1
  Re  Re15  1  0.66683500  0.55890900  0.71979500  1
  Re  Re16  1  0.28478000  0.40588400  0.17379500  1
  Re  Re17  1  0.21527000  0.90628500  0.67394300  1
  Re  Re18  1  0.71527000  0.09371500  0.32605700  1
  Re  Re19  1  0.78478000  0.59411600  0.82620500  1
  Re  Re20  1  0.26679100  0.14746000  0.83116300  1
  Re  Re21  1  0.23250000  0.64614000  0.33110500  1
  Re  Re22  1  0.73250000  0.35386000  0.66889500  1
  Re  Re23  1  0.76679100  0.85254000  0.16883700  1
  S  S0  1  0.35768700  0.61609200  0.39746400  1
  S  S1  1  0.14193400  0.11618400  0.89780900  1
  S  S2  1  0.64193400  0.88381600  0.10219100  1
  S  S3  1  0.85768700  0.38390800  0.60253600  1
  S  S4  1  0.17191100  0.09450800  0.55719200  1
  S  S5  1  0.32803200  0.59435600  0.05712300  1
  S  S6  1  0.82803200  0.40564400  0.94287700  1
  S  S7  1  0.67191100  0.90549200  0.44280800  1
  S  S8  1  0.20593300  0.82136900  0.42421000  1
  S  S9  1  0.29341000  0.32165600  0.92469200  1
  S  S10  1  0.79341000  0.67834400  0.07530800  1
  S  S11  1  0.70593300  0.17863100  0.57579000  1
  S  S12  1  0.31910800  0.24317000  0.07199700  1
  S  S13  1  0.17850500  0.74546800  0.57143000  1
  S  S14  1  0.67850500  0.25453200  0.42857000  1
  S  S15  1  0.81910800  0.75683000  0.92800300  1
  S  S16  1  0.38886100  0.16133300  0.75204500  1
  S  S17  1  0.11019300  0.65822500  0.25156600  1
  S  S18  1  0.61019300  0.34177500  0.74843400  1
  S  S19  1  0.88886100  0.83866700  0.24795500  1
  S  S20  1  0.09405200  0.88928300  0.75486500  1
  S  S21  1  0.40607000  0.38957400  0.25468900  1
  S  S22  1  0.90607000  0.61042600  0.74531100  1
  S  S23  1  0.59405200  0.11071700  0.24513500  1
  S  S24  1  0.19037800  0.45950100  0.44828000  1
  S  S25  1  0.30942400  0.96199300  0.94826600  1
  S  S26  1  0.80942400  0.03800700  0.05173400  1
  S  S27  1  0.69037800  0.54049900  0.55172000  1
  S  S28  1  0.15887000  0.43471500  0.10824500  1
  S  S29  1  0.34065600  0.93503800  0.60771200  1
  S  S30  1  0.84065600  0.06496200  0.39228800  1
  S  S31  1  0.65887000  0.56528500  0.89175500  1
  S  S32  1  0.35637500  0.27220800  0.50646500  1
  S  S33  1  0.14427700  0.77356900  0.00677100  1
  S  S34  1  0.64427700  0.22643100  0.99322900  1
  S  S35  1  0.85637500  0.72779200  0.49353500  1
  S  S36  1  0.47615000  0.71507600  0.18869900  1
  S  S37  1  0.02360000  0.21555000  0.68840700  1
  S  S38  1  0.52360000  0.78445000  0.31159300  1
  S  S39  1  0.97615000  0.28492400  0.81130100  1
  S  S40  1  0.46048900  0.85530100  0.82241100  1
  S  S41  1  0.04776500  0.32319800  0.33570200  1
  S  S42  1  0.54776500  0.67680200  0.66429800  1
  S  S43  1  0.96048900  0.14469900  0.17758900  1
  S  S44  1  0.23639800  0.23806400  0.30453100  1
  S  S45  1  0.26505900  0.73960300  0.80451800  1
  S  S46  1  0.76505900  0.26039700  0.19548200  1
  S  S47  1  0.73639800  0.76193600  0.69546900  1
  S  S48  1  0.21792600  0.31315800  0.70002500  1
  S  S49  1  0.28111800  0.81275800  0.20050700  1
  S  S50  1  0.78111800  0.18724200  0.79949300  1
  S  S51  1  0.71792600  0.68684200  0.29997500  1
  S  S52  1  0.47430700  0.67447100  0.78032000  1
  S  S53  1  0.97430700  0.32552900  0.21968000  1
loop_
_geom_bond_atom_site_label_1
_geom_bond_atom_site_label_2
_geom_bond_distance
_geom_bond_site_symmetry_2
Cs0 S25 3.348448 1_544
Cs0 S2 3.369399 1_545
Cs0 S36 3.440078 1_545
Cs0 S12 3.622473 1_555
Cs0 S34 3.708693 1_554
Cs0 S23 3.727628 1_555
Cs0 S40 3.869144 1_544
Cs1 S24 3.358043 1_555
Cs1 S3 3.390810 1_455
Cs1 S37 3.488152 1_555
Cs1 S13 3.588809 1_555
Cs1 S35 3.668974 1_455
Cs1 S22 3.732516 1_455
Cs1 S41 3.930757 1_555
Cs2 S27 3.358043 1_555
Cs2 S0 3.390810 1_555
Cs2 S38 3.488152 1_555
Cs2 S14 3.588809 1_555
Cs2 S32 3.668974 1_555
Cs2 S21 3.732516 1_555
Cs2 S42 3.930757 1_555
Cs3 S26 3.348448 1_566
Cs3 S1 3.369399 1_665
Cs3 S39 3.440078 1_565
Cs3 S15 3.622473 1_555
Cs3 S33 3.708693 1_656
Cs3 S20 3.727628 1_655
Cs3 S43 3.869144 1_566
Cs4 S1 3.385399 1_554
Cs4 S49 3.387685 1_545
Cs4 S44 3.507796 1_555
Cs4 S12 3.590250 1_555
Cs4 S43 3.609672 1_455
Cs4 S33 3.774896 1_545
Cs4 S28 3.874147 1_555
Cs5 S0 3.337277 1_555
Cs5 S48 3.350066 1_555
Cs5 S52 3.416007 1_555
Cs5 S45 3.548549 1_555
Cs5 S13 3.603861 1_555
Cs5 S32 3.731745 1_555
Cs5 S42 3.885934 1_555
Cs5 S29 3.907561 1_555
Cs5 S24 4.071127 1_555
Cs5 S16 4.155771 1_555
Cs6 S3 3.337277 1_555
Cs6 S51 3.350066 1_555
Cs6 S53 3.416007 1_555
Cs6 S46 3.548549 1_555
Cs6 S14 3.603861 1_555
Cs6 S35 3.731745 1_555
Cs6 S41 3.885934 1_655
Cs6 S30 3.907561 1_555
Cs6 S27 4.071127 1_555
Cs6 S19 4.155771 1_555
Cs7 S2 3.385399 1_556
Cs7 S50 3.387685 1_565
Cs7 S47 3.507796 1_555
Cs7 S15 3.590250 1_555
Cs7 S40 3.609672 1_555
Cs7 S34 3.774896 1_565
Cs7 S31 3.874147 1_555
Cs8 S45 3.445101 1_555
Cs8 S48 3.547736 1_555
Cs8 S28 3.571021 1_556
Cs8 S9 3.583996 1_555
Cs8 S39 3.633146 1_455
Cs8 S33 3.831899 1_556
Cs8 S1 3.979704 1_555
Cs8 S20 4.009053 1_555
Cs9 S44 3.425313 1_555
Cs9 S29 3.558853 1_545
Cs9 S49 3.569572 1_545
Cs9 S8 3.606716 1_545
Cs9 S38 3.625174 1_545
Cs9 S32 3.808429 1_555
Cs9 S0 3.985763 1_545
Cs9 S21 4.008764 1_555
Cs10 S47 3.425313 1_555
Cs10 S30 3.558853 1_565
Cs10 S50 3.569572 1_565
Cs10 S11 3.606716 1_565
Cs10 S37 3.625174 1_665
Cs10 S35 3.808429 1_555
Cs10 S3 3.985763 1_565
Cs10 S22 4.008764 1_555
Cs11 S46 3.445101 1_555
Cs11 S51 3.547736 1_555
Cs11 S31 3.571021 1_554
Cs11 S10 3.583996 1_555
Cs11 S36 3.633146 1_555
Cs11 S34 3.831899 1_554
Cs11 S2 3.979704 1_555
Cs11 S23 4.009053 1_555
Cs12 S52 3.305120 1_555
Cs12 S9 3.396588 1_555
Cs12 S12 3.509584 1_556
Cs12 S34 3.596865 1_555
Cs12 S5 3.645170 1_556
Cs12 S31 3.705846 1_555
Cs12 S18 3.940635 1_555
Cs13 S8 3.435403 1_555
Cs13 S30 3.573319 1_465
Cs13 S4 3.618207 1_565
Cs13 S13 3.722283 1_555
Cs13 S35 3.800702 1_455
Cs13 S19 3.860052 1_455
Cs13 S41 3.932401 1_565
Cs13 S43 3.956959 1_465
Cs14 S11 3.435403 1_555
Cs14 S29 3.573319 1_545
Cs14 S7 3.618207 1_545
Cs14 S14 3.722283 1_555
Cs14 S32 3.800702 1_555
Cs14 S16 3.860052 1_555
Cs14 S42 3.932401 1_545
Cs14 S40 3.956959 1_545
Cs15 S53 3.305120 1_555
Cs15 S10 3.396588 1_555
Cs15 S15 3.509584 1_554
Cs15 S33 3.596865 1_655
Cs15 S6 3.645170 1_554
Cs15 S28 3.705846 1_655
Cs15 S17 3.940635 1_655
Re0 S4 2.420748 1_555
Re0 S48 2.430652 1_555
Re0 S16 2.442069 1_555
Re0 S29 2.445347 1_545
Re0 S32 2.520040 1_555
Re1 S5 2.425519 1_555
Re1 S49 2.429625 1_555
Re1 S17 2.438606 1_555
Re1 S28 2.440844 1_555
Re1 S33 2.521660 1_555
Re2 S6 2.425519 1_555
Re2 S50 2.429625 1_555
Re2 S18 2.438606 1_555
Re2 S31 2.440844 1_555
Re2 S34 2.521660 1_555
Re3 S7 2.420748 1_555
Re3 S51 2.430652 1_555
Re3 S19 2.442069 1_555
Re3 S30 2.445347 1_565
Re3 S35 2.520040 1_555
Re4 S24 2.396738 1_555
Re4 S44 2.417713 1_555
Re4 S21 2.444745 1_555
Re4 S0 2.449323 1_555
Re4 S32 2.484625 1_555
Re5 S25 2.397394 1_555
Re5 S45 2.422803 1_555
Re5 S20 2.445126 1_555
Re5 S1 2.448279 1_565
Re5 S33 2.482222 1_556
Re6 S26 2.397394 1_555
Re6 S46 2.422803 1_555
Re6 S23 2.445126 1_555
Re6 S2 2.448279 1_545
Re6 S34 2.482222 1_554
Re7 S27 2.396738 1_555
Re7 S47 2.417713 1_555
Re7 S22 2.444745 1_555
Re7 S3 2.449323 1_555
Re7 S35 2.484625 1_555
Re8 S1 2.404806 1_555
Re8 S48 2.419745 1_555
Re8 S4 2.428380 1_555
Re8 S20 2.446531 1_545
Re8 S37 2.501385 1_555
Re9 S0 2.399724 1_555
Re9 S49 2.422868 1_555
Re9 S5 2.428736 1_555
Re9 S21 2.445988 1_555
Re9 S36 2.501702 1_555
Re10 S3 2.399724 1_555
Re10 S50 2.422868 1_555
Re10 S6 2.428736 1_555
Re10 S22 2.445988 1_555
Re10 S39 2.501702 1_555
Re11 S2 2.404806 1_555
Re11 S51 2.419745 1_555
Re11 S7 2.428380 1_555
Re11 S23 2.446531 1_565
Re11 S38 2.501385 1_555
Re12 S28 2.413979 1_555
Re12 S44 2.414916 1_555
Re12 S24 2.421253 1_555
Re12 S17 2.434644 1_555
Re12 S41 2.504218 1_555
Re13 S45 2.418175 1_555
Re13 S29 2.423003 1_555
Re13 S25 2.424654 1_555
Re13 S16 2.425495 1_565
Re13 S40 2.479123 1_555
Re14 S46 2.418175 1_555
Re14 S30 2.423003 1_555
Re14 S26 2.424654 1_555
Re14 S19 2.425495 1_545
Re14 S43 2.479123 1_555
Re15 S31 2.413979 1_555
Re15 S47 2.414916 1_555
Re15 S27 2.421253 1_555
Re15 S18 2.434644 1_555
Re15 S42 2.504218 1_555
Re16 S28 2.424401 1_555
Re16 S21 2.432949 1_555
Re16 S5 2.433324 1_555
Re16 S44 2.441028 1_555
Re16 S12 2.468273 1_555
Re17 S29 2.419085 1_555
Re17 S20 2.431895 1_555
Re17 S4 2.432746 1_565
Re17 S45 2.441849 1_555
Re17 S13 2.471022 1_555
Re18 S30 2.419085 1_555
Re18 S23 2.431895 1_555
Re18 S7 2.432746 1_545
Re18 S46 2.441849 1_555
Re18 S14 2.471022 1_555
Re19 S31 2.424401 1_555
Re19 S22 2.432949 1_555
Re19 S6 2.433324 1_555
Re19 S47 2.441028 1_555
Re19 S15 2.468273 1_555
Re20 S25 2.411832 1_545
Re20 S1 2.414014 1_555
Re20 S16 2.434764 1_555
Re20 S48 2.434929 1_555
Re20 S9 2.455721 1_555
Re21 S0 2.417215 1_555
Re21 S24 2.417745 1_555
Re21 S49 2.434136 1_555
Re21 S17 2.441635 1_555
Re21 S8 2.460541 1_555
Re22 S3 2.417215 1_555
Re22 S27 2.417745 1_555
Re22 S50 2.434136 1_555
Re22 S18 2.441635 1_555
Re22 S11 2.460541 1_555
Re23 S26 2.411832 1_565
Re23 S2 2.414014 1_555
Re23 S19 2.434764 1_555
Re23 S51 2.434929 1_555
Re23 S10 2.455721 1_555
S10 S15 2.119080 1_554
S11 S14 2.119449 1_555
S12 S9 2.119080 1_554
S13 S8 2.119449 1_555
S36 S38 2.147266 1_555
S37 S39 2.147266 1_455
S40 S52 2.076990 1_555
S41 S53 2.078849 1_455
S42 S52 2.078849 1_555
S43 S53 2.076990 1_555
