# generated using pymatgen
data_Na3CoBPO7
_symmetry_space_group_name_H-M   'P 1'
_cell_length_a   5.18609234
_cell_length_b   8.87167031
_cell_length_c   13.52777268
_cell_angle_alpha   89.96722044
_cell_angle_beta   89.98549183
_cell_angle_gamma   88.44961334
_symmetry_Int_Tables_number   1
_chemical_formula_structural   Na3CoBPO7
_chemical_formula_sum   'Na12 Co4 B4 P4 O28'
_cell_volume   622.17540078
_cell_formula_units_Z   4
loop_
 _symmetry_equiv_pos_site_id
 _symmetry_equiv_pos_as_xyz
  1  'x, y, z'
loop_
 _atom_site_type_symbol
 _atom_site_label
 _atom_site_symmetry_multiplicity
 _atom_site_fract_x
 _atom_site_fract_y
 _atom_site_fract_z
 _atom_site_occupancy
  Na  Na0  1  0.77063400  0.08097900  0.12715700  1
  Na  Na1  1  0.76061500  0.08091500  0.62317700  1
  Na  Na2  1  0.23522700  0.91973900  0.37754300  1
  Na  Na3  1  0.23070500  0.91845500  0.87186500  1
  Na  Na4  1  0.25571200  0.26542700  0.00434800  1
  Na  Na5  1  0.25137700  0.25813700  0.50202500  1
  Na  Na6  1  0.24968200  0.25996600  0.24868400  1
  Na  Na7  1  0.25454500  0.26397900  0.74455200  1
  Na  Na8  1  0.74569200  0.73497300  0.25577300  1
  Na  Na9  1  0.75152000  0.74183500  0.75043700  1
  Na  Na10  1  0.75135200  0.74357000  0.49851400  1
  Na  Na11  1  0.74560100  0.73315000  0.99518900  1
  Co  Co0  1  0.78262000  0.33738600  0.87450800  1
  Co  Co1  1  0.22505800  0.65768500  0.62431900  1
  Co  Co2  1  0.77660800  0.34170000  0.37621900  1
  Co  Co3  1  0.21946900  0.66254600  0.12614600  1
  B  B0  1  0.73656400  0.06677500  0.37437000  1
  B  B1  1  0.72618900  0.07102200  0.87542100  1
  B  B2  1  0.27515700  0.92866500  0.12505900  1
  B  B3  1  0.25882200  0.93377700  0.62539400  1
  P  P0  1  0.72093700  0.42293200  0.12638900  1
  P  P1  1  0.72285300  0.41895700  0.62361000  1
  P  P2  1  0.27824000  0.58087000  0.37694100  1
  P  P3  1  0.28032000  0.57719000  0.87308900  1
  O  O0  1  0.30542600  0.07787600  0.12441600  1
  O  O1  1  0.30529200  0.08207700  0.62535200  1
  O  O2  1  0.68968200  0.91848800  0.37481900  1
  O  O3  1  0.69543400  0.92166800  0.87507000  1
  O  O4  1  0.97653700  0.13184500  0.37431300  1
  O  O5  1  0.96300400  0.14311000  0.87713600  1
  O  O6  1  0.03799300  0.85672000  0.12538700  1
  O  O7  1  0.01956700  0.86813200  0.62608700  1
  O  O8  1  0.53717100  0.18026400  0.37383700  1
  O  O9  1  0.52936000  0.18268900  0.87411700  1
  O  O10  1  0.47341600  0.81743400  0.12487900  1
  O  O11  1  0.45943600  0.82098700  0.62497000  1
  O  O12  1  0.42505400  0.46885300  0.12552700  1
  O  O13  1  0.42701800  0.45895300  0.62373600  1
  O  O14  1  0.57357500  0.54014200  0.37615700  1
  O  O15  1  0.57577400  0.53204600  0.87371600  1
  O  O16  1  0.12579400  0.43253000  0.37561200  1
  O  O17  1  0.12438700  0.43061600  0.87453600  1
  O  O18  1  0.87693500  0.56900100  0.12517500  1
  O  O19  1  0.87428400  0.56751600  0.62481800  1
  O  O20  1  0.78222100  0.32000200  0.03633000  1
  O  O21  1  0.79154400  0.32303400  0.53039000  1
  O  O22  1  0.78291100  0.32484500  0.21930000  1
  O  O23  1  0.79068300  0.31782700  0.71372800  1
  O  O24  1  0.20865400  0.68165700  0.28688700  1
  O  O25  1  0.21727300  0.67459300  0.77994200  1
  O  O26  1  0.21039100  0.67678700  0.47013600  1
  O  O27  1  0.21568500  0.67967500  0.96289300  1
loop_
_geom_bond_atom_site_label_1
_geom_bond_atom_site_label_2
_geom_bond_distance
_geom_bond_site_symmetry_2
Na0 O6 2.394195 1_645
Na0 O0 2.413808 1_555
Na0 O20 2.452309 1_555
Na0 O22 2.499819 1_555
Na0 O0 2.773111 1_655
Na0 O10 2.835247 1_545
Na1 O7 2.287222 1_645
Na1 O1 2.361267 1_555
Na1 O23 2.441964 1_555
Na1 O21 2.496121 1_555
Na1 O11 2.820051 1_545
Na1 O1 2.825204 1_655
Na2 O4 2.281672 1_465
Na2 O2 2.356850 1_555
Na2 O24 2.450125 1_555
Na2 O26 2.498619 1_555
Na2 O8 2.827071 1_565
Na2 O2 2.829818 1_455
Na3 O5 2.399003 1_465
Na3 O3 2.411468 1_555
Na3 O27 2.452722 1_555
Na3 O25 2.498605 1_555
Na3 O3 2.775668 1_455
Na3 O9 2.844593 1_565
Na4 O0 2.333904 1_555
Na4 O9 2.366511 1_554
Na4 O17 2.374651 1_554
Na4 O20 2.527209 1_455
Na4 O5 2.556560 1_454
Na4 O12 2.608725 1_555
Na4 O20 2.819529 1_555
Na5 O1 2.296701 1_555
Na5 O8 2.371883 1_555
Na5 O16 2.384381 1_555
Na5 O21 2.468032 1_455
Na5 O4 2.522229 1_455
Na5 O13 2.608936 1_555
Na5 O21 2.900756 1_555
Na6 O0 2.344528 1_555
Na6 O8 2.352051 1_555
Na6 O16 2.377823 1_555
Na6 O4 2.504102 1_455
Na6 O22 2.504797 1_455
Na6 O12 2.669089 1_555
Na6 O22 2.867388 1_555
Na7 O1 2.292052 1_555
Na7 O9 2.359573 1_555
Na7 O17 2.383585 1_555
Na7 O23 2.475327 1_455
Na7 O13 2.557928 1_555
Na7 O5 2.595555 1_455
Na7 O23 2.864283 1_555
Na8 O2 2.303407 1_555
Na8 O10 2.368196 1_555
Na8 O18 2.387622 1_555
Na8 O24 2.470698 1_655
Na8 O14 2.552650 1_555
Na8 O6 2.580840 1_655
Na8 O24 2.868501 1_555
Na9 O3 2.334589 1_555
Na9 O11 2.368715 1_555
Na9 O19 2.373597 1_555
Na9 O7 2.469521 1_655
Na9 O25 2.504349 1_655
Na9 O15 2.676446 1_555
Na9 O25 2.877553 1_555
Na10 O2 2.298011 1_555
Na10 O11 2.373558 1_555
Na10 O19 2.389337 1_555
Na10 O26 2.467635 1_655
Na10 O7 2.494177 1_655
Na10 O14 2.634598 1_555
Na10 O26 2.908579 1_555
Na11 O3 2.340692 1_555
Na11 O10 2.360672 1_556
Na11 O18 2.370801 1_556
Na11 O27 2.509264 1_655
Na11 O6 2.587827 1_656
Na11 O15 2.597736 1_555
Na11 O27 2.835473 1_555
Co0 O9 1.925154 1_555
Co0 O5 1.939003 1_555
Co0 O17 1.976097 1_655
Co0 O15 2.008227 1_555
Co0 O23 2.182305 1_555
Co0 O20 2.194434 1_556
Co1 O11 1.916182 1_555
Co1 O19 2.006986 1_455
Co1 O13 2.026235 1_555
Co1 O26 2.093764 1_555
Co1 O25 2.110954 1_555
Co1 O7 2.124712 1_555
Co2 O8 1.921064 1_555
Co2 O16 2.001937 1_655
Co2 O14 2.026769 1_555
Co2 O21 2.093347 1_555
Co2 O4 2.106531 1_555
Co2 O22 2.128291 1_555
Co3 O10 1.928949 1_555
Co3 O6 1.940526 1_555
Co3 O18 1.980997 1_455
Co3 O12 1.997629 1_555
Co3 O24 2.181753 1_555
Co3 O27 2.213640 1_554
B0 O2 1.344295 1_545
B0 O4 1.385988 1_555
B0 O8 1.423633 1_555
B1 O3 1.338874 1_545
B1 O5 1.400151 1_555
B1 O9 1.403207 1_555
B2 O0 1.337260 1_565
B2 O6 1.400955 1_555
B2 O10 1.405724 1_555
B3 O1 1.343957 1_565
B3 O7 1.384892 1_555
B3 O11 1.423872 1_555
O12 P0 1.576991 1_555
O13 P1 1.565345 1_555
O14 P2 1.564168 1_555
O15 P3 1.573234 1_555
O16 P2 1.553584 1_555
O17 P3 1.549885 1_555
O18 P0 1.546214 1_555
O19 P1 1.552448 1_555
O20 P0 1.550644 1_555
O21 P1 1.557552 1_555
O22 P0 1.556953 1_555
O23 P1 1.548154 1_555
O24 P2 1.547687 1_555
O25 P3 1.557266 1_555
O26 P2 1.556321 1_555
O27 P3 1.549016 1_555
