# generated using pymatgen
data_MgTi4O8
_symmetry_space_group_name_H-M   'P 1'
_cell_length_a   6.09884733
_cell_length_b   6.09884733
_cell_length_c   6.09884737
_cell_angle_alpha   58.18687397
_cell_angle_beta   58.18687397
_cell_angle_gamma   58.18687825
_symmetry_Int_Tables_number   1
_chemical_formula_structural   MgTi4O8
_chemical_formula_sum   'Mg1 Ti4 O8'
_cell_volume   153.74403945
_cell_formula_units_Z   1
loop_
 _symmetry_equiv_pos_site_id
 _symmetry_equiv_pos_as_xyz
  1  'x, y, z'
loop_
 _atom_site_type_symbol
 _atom_site_label
 _atom_site_symmetry_multiplicity
 _atom_site_fract_x
 _atom_site_fract_y
 _atom_site_fract_z
 _atom_site_occupancy
  Mg  Mg0  1  0.50000000  0.50000000  0.50000000  1
  Ti  Ti0  1  0.00000000  0.50000000  0.50000000  1
  Ti  Ti1  1  0.50000000  0.00000000  0.50000000  1
  Ti  Ti2  1  0.50000000  0.50000000  0.00000000  1
  Ti  Ti3  1  0.00000000  0.00000000  0.00000000  1
  O  O0  1  0.27432200  0.75338100  0.75338100  1
  O  O1  1  0.24661900  0.24661900  0.72567800  1
  O  O2  1  0.72567800  0.24661900  0.24661900  1
  O  O3  1  0.24661900  0.72567800  0.24661900  1
  O  O4  1  0.26810200  0.26810200  0.26810200  1
  O  O5  1  0.73189800  0.73189800  0.73189800  1
  O  O6  1  0.75338100  0.27432200  0.75338100  1
  O  O7  1  0.75338100  0.75338100  0.27432200  1
loop_
_geom_bond_atom_site_label_1
_geom_bond_atom_site_label_2
_geom_bond_distance
_geom_bond_site_symmetry_2
Mg0 O1 2.168716 1_555
Mg0 O7 2.168716 1_555
Mg0 O2 2.168716 1_555
Mg0 O6 2.168716 1_555
Mg0 O3 2.168716 1_555
Mg0 O0 2.168716 1_555
O0 Ti1 2.008575 1_565
O0 Ti2 2.008575 1_556
O0 Ti3 2.098258 1_566
O1 Ti0 2.008575 1_555
O1 Ti1 2.008575 1_555
O1 Ti3 2.098258 1_556
O2 Ti1 2.008575 1_555
O2 Ti2 2.008575 1_555
O2 Ti3 2.098258 1_655
O3 Ti0 2.008575 1_555
O3 Ti2 2.008575 1_555
O3 Ti3 2.098258 1_565
O4 Ti2 1.976555 1_555
O4 Ti1 1.976555 1_555
O4 Ti0 1.976555 1_555
O5 Ti2 1.976555 1_556
O5 Ti0 1.976555 1_655
O5 Ti1 1.976555 1_565
O6 Ti0 2.008575 1_655
O6 Ti2 2.008575 1_556
O6 Ti3 2.098258 1_656
O7 Ti1 2.008575 1_565
O7 Ti0 2.008575 1_655
O7 Ti3 2.098258 1_665
