# generated using pymatgen
data_In5SnSb3Te
_symmetry_space_group_name_H-M   'P 1'
_cell_length_a   6.68074900
_cell_length_b   8.16248875
_cell_length_c   8.17523862
_cell_angle_alpha   80.24415843
_cell_angle_beta   65.91478599
_cell_angle_gamma   65.85099036
_symmetry_Int_Tables_number   1
_chemical_formula_structural   In5SnSb3Te
_chemical_formula_sum   'In5 Sn1 Sb3 Te1'
_cell_volume   371.37595255
_cell_formula_units_Z   1
loop_
 _symmetry_equiv_pos_site_id
 _symmetry_equiv_pos_as_xyz
  1  'x, y, z'
loop_
 _atom_site_type_symbol
 _atom_site_label
 _atom_site_symmetry_multiplicity
 _atom_site_fract_x
 _atom_site_fract_y
 _atom_site_fract_z
 _atom_site_occupancy
  In  In0  1  0.99739400  0.00367000  0.99813600  1
  In  In1  1  0.40433400  0.80928300  0.39621600  1
  In  In2  1  0.78685100  0.59885600  0.81025100  1
  In  In3  1  0.20567500  0.39444900  0.18734300  1
  In  In4  1  0.60924600  0.19311500  0.60804000  1
  Sn  Sn0  1  0.65250400  0.29845000  0.90061100  1
  Sb  Sb0  1  0.04511200  0.09955900  0.29954000  1
  Sb  Sb1  1  0.44836200  0.89949300  0.70059300  1
  Sb  Sb2  1  0.85241200  0.70130300  0.10011800  1
  Te  Te0  1  0.24811000  0.50182100  0.49915200  1
loop_
_geom_bond_atom_site_label_1
_geom_bond_atom_site_label_2
_geom_bond_distance
_geom_bond_site_symmetry_2
In0 Sn0 2.836749 1_555
In0 Sb0 2.878310 1_656
In0 Sb2 2.885162 1_546
In0 Sb1 2.887959 1_645
In1 Sb1 2.866388 1_555
In1 Sb2 2.871832 1_555
In1 Sb0 2.873824 1_565
In1 Te0 2.967561 1_555
In2 Sn0 2.830125 1_555
In2 Sb1 2.882332 1_555
In2 Sb2 2.885333 1_556
In2 Te0 2.980034 1_655
In3 Sn0 2.831473 1_554
In3 Sb2 2.878099 1_455
In3 Sb0 2.889143 1_555
In3 Te0 2.982739 1_555
In4 Sn0 2.829856 1_555
In4 Sb0 2.874424 1_655
In4 Sb1 2.881193 1_545
In4 Te0 2.996868 1_555
