# generated using pymatgen
data_Ba3Rh(CN)3
_symmetry_space_group_name_H-M   'P 1'
_cell_length_a   9.29294127
_cell_length_b   9.29294127
_cell_length_c   5.90090800
_cell_angle_alpha   90.00000000
_cell_angle_beta   90.00000000
_cell_angle_gamma   119.99999477
_symmetry_Int_Tables_number   1
_chemical_formula_structural   Ba3Rh(CN)3
_chemical_formula_sum   'Ba6 Rh2 C6 N6'
_cell_volume   441.32231010
_cell_formula_units_Z   2
loop_
 _symmetry_equiv_pos_site_id
 _symmetry_equiv_pos_as_xyz
  1  'x, y, z'
loop_
 _atom_site_type_symbol
 _atom_site_label
 _atom_site_symmetry_multiplicity
 _atom_site_fract_x
 _atom_site_fract_y
 _atom_site_fract_z
 _atom_site_occupancy
  Ba  Ba0  1  0.37859200  0.07012600  0.75000000  1
  Ba  Ba1  1  0.92987400  0.30846600  0.75000000  1
  Ba  Ba2  1  0.69153400  0.62140800  0.75000000  1
  Ba  Ba3  1  0.62140800  0.92987400  0.25000000  1
  Ba  Ba4  1  0.07012600  0.69153400  0.25000000  1
  Ba  Ba5  1  0.30846600  0.37859200  0.25000000  1
  Rh  Rh0  1  0.33333300  0.66666700  0.75000000  1
  Rh  Rh1  1  0.66666700  0.33333300  0.25000000  1
  C  C0  1  0.14443500  0.70000200  0.75000000  1
  C  C1  1  0.29999800  0.44443300  0.75000000  1
  C  C2  1  0.55556700  0.85556500  0.75000000  1
  C  C3  1  0.85556500  0.29999800  0.25000000  1
  C  C4  1  0.70000200  0.55556700  0.25000000  1
  C  C5  1  0.44443300  0.14443500  0.25000000  1
  N  N0  1  0.02956000  0.73044700  0.75000000  1
  N  N1  1  0.26955300  0.29911300  0.75000000  1
  N  N2  1  0.70088700  0.97044000  0.75000000  1
  N  N3  1  0.97044000  0.26955300  0.25000000  1
  N  N4  1  0.73044700  0.70088700  0.25000000  1
  N  N5  1  0.29911300  0.02956000  0.25000000  1
loop_
_geom_bond_atom_site_label_1
_geom_bond_atom_site_label_2
_geom_bond_distance
_geom_bond_site_symmetry_2
Ba0 N1 2.776912 1_555
Ba1 N2 2.776912 1_545
Ba2 N0 2.776912 1_655
Ba3 N4 2.776912 1_555
Ba4 N5 2.776912 1_565
Ba5 N3 2.776912 1_455
C0 N0 1.233567 1_555
C0 Rh0 1.929054 1_555
C1 N1 1.233567 1_555
C1 Rh0 1.929063 1_555
C2 N2 1.233567 1_555
C2 Rh0 1.929060 1_555
C3 N3 1.233567 1_555
C3 Rh1 1.929054 1_555
C4 N4 1.233567 1_555
C4 Rh1 1.929063 1_555
C5 N5 1.233567 1_555
C5 Rh1 1.929060 1_555
