# generated using pymatgen
data_Sr3Sn5
_symmetry_space_group_name_H-M   'P 1'
_cell_length_a   6.89564027
_cell_length_b   6.89564177
_cell_length_c   10.93198016
_cell_angle_alpha   90.00000429
_cell_angle_beta   90.00001420
_cell_angle_gamma   102.11519572
_symmetry_Int_Tables_number   1
_chemical_formula_structural   Sr3Sn5
_chemical_formula_sum   'Sr6 Sn10'
_cell_volume   508.23667656
_cell_formula_units_Z   2
loop_
 _symmetry_equiv_pos_site_id
 _symmetry_equiv_pos_as_xyz
  1  'x, y, z'
loop_
 _atom_site_type_symbol
 _atom_site_label
 _atom_site_symmetry_multiplicity
 _atom_site_fract_x
 _atom_site_fract_y
 _atom_site_fract_z
 _atom_site_occupancy
  Sr  Sr0  1  0.14824391  0.14824391  0.25000000  1
  Sr  Sr1  1  0.85175609  0.85175609  0.75000000  1
  Sr  Sr2  1  0.70359026  0.29640974  0.99999800  1
  Sr  Sr3  1  0.29640974  0.70359026  0.50000200  1
  Sr  Sr4  1  0.29640974  0.70359026  0.99999800  1
  Sr  Sr5  1  0.70359026  0.29640974  0.50000200  1
  Sn  Sn0  1  0.54514218  0.54514218  0.25000000  1
  Sn  Sn1  1  0.45485882  0.45485882  0.75000000  1
  Sn  Sn2  1  0.59215744  0.98765233  0.25000000  1
  Sn  Sn3  1  0.40784356  0.01234667  0.75000000  1
  Sn  Sn4  1  0.98765233  0.59215744  0.25000000  1
  Sn  Sn5  1  0.01234667  0.40784356  0.75000000  1
  Sn  Sn6  1  0.18898127  0.18898127  0.55379764  1
  Sn  Sn7  1  0.81101873  0.81101873  0.05379464  1
  Sn  Sn8  1  0.18898127  0.18898127  0.94620236  1
  Sn  Sn9  1  0.81101873  0.81101873  0.44620436  1
loop_
_geom_bond_atom_site_label_1
_geom_bond_atom_site_label_2
_geom_bond_distance
_geom_bond_site_symmetry_2
Sn0 Sn4 3.000141 1_555
Sn0 Sn2 3.000141 1_555
Sn0 Sn9 3.148381 1_555
Sn0 Sn7 3.148389 1_555
Sn0 Sr0 3.440456 1_555
Sn0 Sr4 3.520168 1_554
Sn0 Sr5 3.520168 1_555
Sn0 Sr2 3.520169 1_554
Sn0 Sr3 3.520169 1_555
Sn1 Sn5 3.000154 1_555
Sn1 Sn3 3.000155 1_555
Sn1 Sn6 3.148372 1_555
Sn1 Sn8 3.148373 1_555
Sn1 Sr1 3.440447 1_555
Sn1 Sr2 3.520133 1_555
Sn1 Sr3 3.520133 1_555
Sn1 Sr4 3.520134 1_555
Sn1 Sr5 3.520134 1_555
Sn2 Sn9 3.022148 1_555
Sn2 Sn7 3.022156 1_555
Sn2 Sr5 3.450520 1_565
Sn2 Sr2 3.450520 1_564
Sn2 Sr0 3.466887 1_565
Sn2 Sr4 3.713283 1_554
Sn2 Sr3 3.713284 1_555
Sn2 Sr0 3.761358 1_665
Sn3 Sn6 3.022140 1_555
Sn3 Sn8 3.022140 1_555
Sn3 Sr3 3.450482 1_545
Sn3 Sr4 3.450483 1_545
Sn3 Sr1 3.466877 1_545
Sn3 Sr2 3.713250 1_555
Sn3 Sr5 3.713251 1_555
Sn3 Sr1 3.761364 1_445
Sn4 Sn9 3.022148 1_555
Sn4 Sn7 3.022156 1_555
Sn4 Sr3 3.450520 1_655
Sn4 Sr4 3.450520 1_654
Sn4 Sr0 3.466888 1_655
Sn4 Sr2 3.713283 1_554
Sn4 Sr5 3.713284 1_555
Sn4 Sr0 3.761359 1_665
Sn5 Sn8 3.022140 1_555
Sn5 Sn6 3.022140 1_555
Sn5 Sr5 3.450482 1_455
Sn5 Sr2 3.450483 1_455
Sn5 Sr1 3.466878 1_455
Sn5 Sr4 3.713250 1_555
Sn5 Sr3 3.713251 1_555
Sn5 Sr1 3.761365 1_445
Sn6 Sr0 3.339830 1_555
Sn6 Sn9 3.481048 1_445
Sn6 Sr5 3.519015 1_555
Sn6 Sr3 3.519015 1_555
Sn6 Sr5 3.624686 1_455
Sn6 Sr3 3.624687 1_545
Sn6 Sr1 3.625678 1_445
Sn7 Sr1 3.339798 1_554
Sn7 Sn8 3.481045 1_664
Sn7 Sr4 3.519016 1_554
Sn7 Sr2 3.519017 1_554
Sn7 Sr4 3.624688 1_654
Sn7 Sr2 3.624689 1_564
Sn7 Sr0 3.625697 1_665
Sn8 Sr0 3.339831 1_556
Sn8 Sr2 3.519014 1_555
Sn8 Sr4 3.519015 1_555
Sn8 Sr2 3.624687 1_455
Sn8 Sr4 3.624687 1_545
Sn8 Sr1 3.625677 1_445
Sn9 Sr1 3.339809 1_555
Sn9 Sr3 3.519018 1_555
Sn9 Sr5 3.519019 1_555
Sn9 Sr3 3.624690 1_655
Sn9 Sr5 3.624691 1_565
Sn9 Sr0 3.625691 1_665
