# generated using pymatgen
data_Mg6AlZn
_symmetry_space_group_name_H-M   'P 1'
_cell_length_a   4.95408900
_cell_length_b   6.26891800
_cell_length_c   10.70169000
_cell_angle_alpha   90.00000000
_cell_angle_beta   90.00000000
_cell_angle_gamma   90.00000000
_symmetry_Int_Tables_number   1
_chemical_formula_structural   Mg6AlZn
_chemical_formula_sum   'Mg12 Al2 Zn2'
_cell_volume   332.36000741
_cell_formula_units_Z   2
loop_
 _symmetry_equiv_pos_site_id
 _symmetry_equiv_pos_as_xyz
  1  'x, y, z'
loop_
 _atom_site_type_symbol
 _atom_site_label
 _atom_site_symmetry_multiplicity
 _atom_site_fract_x
 _atom_site_fract_y
 _atom_site_fract_z
 _atom_site_occupancy
  Mg  Mg0  1  0.00000000  0.24991100  0.58364500  1
  Mg  Mg1  1  0.00000000  0.75008900  0.58364500  1
  Mg  Mg2  1  0.50000000  0.24936600  0.41405200  1
  Mg  Mg3  1  0.50000000  0.75063400  0.41405200  1
  Mg  Mg4  1  0.50000000  0.00000000  0.66902500  1
  Mg  Mg5  1  0.50000000  0.00000000  0.16963500  1
  Mg  Mg6  1  0.00000000  0.74991100  0.08364500  1
  Mg  Mg7  1  0.00000000  0.25008900  0.08364500  1
  Mg  Mg8  1  0.50000000  0.74936600  0.91405200  1
  Mg  Mg9  1  0.50000000  0.25063400  0.91405200  1
  Mg  Mg10  1  0.50000000  0.50000000  0.16902500  1
  Mg  Mg11  1  0.50000000  0.50000000  0.66963500  1
  Al  Al0  1  0.00000000  0.00000000  0.83303400  1
  Al  Al1  1  0.00000000  0.50000000  0.33303400  1
  Zn  Zn0  1  0.00000000  0.00000000  0.33291700  1
  Zn  Zn1  1  0.00000000  0.50000000  0.83291700  1
loop_
_geom_bond_atom_site_label_1
_geom_bond_atom_site_label_2
_geom_bond_distance
_geom_bond_site_symmetry_2
Mg0 Mg4 3.070029 1_555
Mg0 Mg4 3.070029 1_455
Mg0 Mg2 3.070788 1_455
Mg0 Mg2 3.070788 1_555
Mg0 Mg11 3.072547 1_555
Mg0 Mg11 3.072547 1_455
Mg0 Zn1 3.094223 1_555
Mg0 Zn0 3.107104 1_555
Mg0 Mg1 3.133343 1_545
Mg0 Mg1 3.135575 1_555
Mg1 Mg4 3.070029 1_465
Mg1 Mg4 3.070029 1_565
Mg1 Mg3 3.070788 1_455
Mg1 Mg3 3.070788 1_555
Mg1 Mg11 3.072547 1_555
Mg1 Mg11 3.072547 1_455
Mg1 Zn1 3.094223 1_555
Mg1 Zn0 3.107104 1_565
Mg2 Mg5 3.047215 1_555
Mg2 Zn0 3.055066 1_655
Mg2 Zn0 3.055066 1_555
Mg2 Mg3 3.126510 1_545
Mg2 Mg3 3.142408 1_555
Mg2 Mg4 3.144718 1_555
Mg3 Mg5 3.047215 1_565
Mg3 Zn0 3.055066 1_665
Mg3 Zn0 3.055066 1_565
Mg3 Mg4 3.144718 1_565
Mg4 Mg8 3.056899 1_545
Mg4 Mg9 3.056899 1_555
Mg5 Zn0 3.031358 1_655
Mg5 Zn0 3.031358 1_555
Mg5 Mg7 3.072547 1_655
Mg5 Mg6 3.072547 1_645
Mg5 Mg6 3.072547 1_545
Mg5 Mg7 3.072547 1_555
Mg5 Mg8 3.154336 1_544
Mg5 Mg9 3.154336 1_554
Mg6 Mg8 3.070788 1_454
Mg6 Mg8 3.070788 1_554
Mg6 Zn0 3.094223 1_565
Mg6 Zn1 3.107104 1_554
Mg6 Mg7 3.133343 1_555
Mg6 Mg7 3.135575 1_565
Mg7 Mg9 3.070788 1_554
Mg7 Mg9 3.070788 1_454
Mg7 Zn0 3.094223 1_555
Mg7 Zn1 3.107104 1_554
Mg8 Zn1 3.055066 1_555
Mg8 Zn1 3.055066 1_655
Mg8 Mg9 3.126510 1_555
Mg8 Mg9 3.142408 1_565
Mg9 Zn1 3.055066 1_555
Mg9 Zn1 3.055066 1_655
Mg10 Mg3 3.056899 1_555
Mg10 Mg2 3.056899 1_555
Mg10 Mg7 3.070029 1_555
Mg10 Mg6 3.070029 1_655
Mg10 Mg7 3.070029 1_655
Mg10 Mg6 3.070029 1_555
Mg10 Mg5 3.134466 1_565
Mg10 Mg5 3.134466 1_555
Mg10 Mg8 3.144718 1_554
Mg10 Mg9 3.144718 1_554
Mg11 Zn1 3.031358 1_555
Mg11 Zn1 3.031358 1_655
Mg11 Mg8 3.047215 1_555
Mg11 Mg9 3.047215 1_555
Mg11 Mg4 3.134466 1_555
Mg11 Mg4 3.134466 1_565
Mg11 Mg2 3.154336 1_555
Mg11 Mg3 3.154336 1_555
Al0 Mg4 3.035850 1_455
Al0 Mg4 3.035850 1_555
Al0 Mg8 3.058786 1_545
Al0 Mg9 3.058786 1_455
Al0 Mg9 3.058786 1_555
Al0 Mg8 3.058786 1_445
Al0 Mg1 3.094738 1_545
Al0 Mg0 3.094738 1_555
Al0 Mg6 3.106586 1_546
Al0 Mg7 3.106586 1_556
Al1 Mg10 3.035850 1_455
Al1 Mg10 3.035850 1_555
Al1 Mg2 3.058786 1_455
Al1 Mg2 3.058786 1_555
Al1 Mg3 3.058786 1_455
Al1 Mg3 3.058786 1_555
Al1 Mg7 3.094738 1_555
Al1 Mg6 3.094738 1_555
Al1 Mg0 3.106586 1_555
Al1 Mg1 3.106586 1_555
