# generated using pymatgen
data_K2BaCu(NO2)6
_symmetry_space_group_name_H-M   'P 1'
_cell_length_a   7.91103329
_cell_length_b   7.89215806
_cell_length_c   7.66908348
_cell_angle_alpha   61.09209449
_cell_angle_beta   60.84549629
_cell_angle_gamma   58.06240922
_symmetry_Int_Tables_number   1
_chemical_formula_structural   K2BaCu(NO2)6
_chemical_formula_sum   'K2 Ba1 Cu1 N6 O12'
_cell_volume   338.00389979
_cell_formula_units_Z   1
loop_
 _symmetry_equiv_pos_site_id
 _symmetry_equiv_pos_as_xyz
  1  'x, y, z'
loop_
 _atom_site_type_symbol
 _atom_site_label
 _atom_site_symmetry_multiplicity
 _atom_site_fract_x
 _atom_site_fract_y
 _atom_site_fract_z
 _atom_site_occupancy
  K  K0  1  0.25000000  0.25000000  0.25000000  1
  K  K1  1  0.75000000  0.75000000  0.75000000  1
  Ba  Ba0  1  0.50000000  0.50000000  0.50000000  1
  Cu  Cu0  1  0.00000000  0.00000000  0.00000000  1
  N  N0  1  0.81023600  0.18976400  0.81023600  1
  N  N1  1  0.18976400  0.81023600  0.18976400  1
  N  N2  1  0.79220100  0.79220100  0.20779900  1
  N  N3  1  0.20779900  0.20779900  0.79220100  1
  N  N4  1  0.80990500  0.19009500  0.19009500  1
  N  N5  1  0.19009500  0.80990500  0.80990500  1
  O  O0  1  0.15563400  0.65617400  0.84436600  1
  O  O1  1  0.84436600  0.34382600  0.15563400  1
  O  O2  1  0.65617400  0.15563400  0.34382600  1
  O  O3  1  0.63456500  0.83303600  0.16696400  1
  O  O4  1  0.83303600  0.63456500  0.36543500  1
  O  O5  1  0.16696400  0.36543500  0.63456500  1
  O  O6  1  0.34913500  0.65086500  0.14922600  1
  O  O7  1  0.85077400  0.14922600  0.65086500  1
  O  O8  1  0.14922600  0.85077400  0.34913500  1
  O  O9  1  0.65086500  0.34913500  0.85077400  1
  O  O10  1  0.36543500  0.16696400  0.83303600  1
  O  O11  1  0.34382600  0.84436600  0.65617400  1
loop_
_geom_bond_atom_site_label_1
_geom_bond_atom_site_label_2
_geom_bond_distance
_geom_bond_site_symmetry_2
K0 O10 3.168046 1_554
K0 O5 3.168046 1_555
K0 O4 3.168046 1_455
K0 O3 3.168046 1_545
K0 O0 3.255804 1_554
K0 O1 3.255804 1_455
K0 O2 3.255804 1_555
K0 O11 3.255804 1_545
K0 O7 3.300287 1_455
K0 O8 3.300287 1_545
K0 O9 3.300287 1_554
K0 O6 3.300287 1_555
K1 O4 3.168046 1_555
K1 O5 3.168046 1_655
K1 O10 3.168046 1_565
K1 O3 3.168046 1_556
K1 O2 3.255804 1_565
K1 O1 3.255804 1_556
K1 O11 3.255804 1_555
K1 O0 3.255804 1_655
K1 O9 3.300287 1_555
K1 O6 3.300287 1_556
K1 O8 3.300287 1_655
K1 O7 3.300287 1_565
Ba0 O3 2.895829 1_555
Ba0 O10 2.895829 1_555
Ba0 O4 2.895829 1_555
Ba0 O5 2.895829 1_555
Ba0 O0 2.915493 1_555
Ba0 O1 2.915493 1_555
Ba0 O11 2.915493 1_555
Ba0 O2 2.915493 1_555
Ba0 O7 2.933757 1_555
Ba0 O8 2.933757 1_555
Ba0 O9 2.933757 1_555
Ba0 O6 2.933757 1_555
Cu0 N4 2.056483 1_455
Cu0 N5 2.056483 1_544
Cu0 N1 2.063340 1_545
Cu0 N0 2.063340 1_454
Cu0 N2 2.388437 1_445
Cu0 N3 2.388437 1_554
N0 O7 1.259620 1_555
N0 O9 1.259620 1_555
N1 O6 1.259620 1_555
N1 O8 1.259620 1_555
N2 O4 1.270762 1_555
N2 O3 1.270762 1_555
N3 O10 1.270762 1_555
N3 O5 1.270762 1_555
N4 O2 1.259338 1_555
N4 O1 1.259338 1_555
N5 O11 1.259338 1_555
N5 O0 1.259338 1_555
