# generated using pymatgen
data_FeH8N2F5
_symmetry_space_group_name_H-M   'P 1'
_cell_length_a   6.92118800
_cell_length_b   7.78809100
_cell_length_c   11.69088900
_cell_angle_alpha   90.00000000
_cell_angle_beta   90.00000000
_cell_angle_gamma   90.00000000
_symmetry_Int_Tables_number   1
_chemical_formula_structural   FeH8N2F5
_chemical_formula_sum   'Fe4 H32 N8 F20'
_cell_volume   630.17214228
_cell_formula_units_Z   4
loop_
 _symmetry_equiv_pos_site_id
 _symmetry_equiv_pos_as_xyz
  1  'x, y, z'
loop_
 _atom_site_type_symbol
 _atom_site_label
 _atom_site_symmetry_multiplicity
 _atom_site_fract_x
 _atom_site_fract_y
 _atom_site_fract_z
 _atom_site_occupancy
  Fe  Fe0  1  0.50000000  0.00000000  0.50000000  1
  Fe  Fe1  1  0.00000000  0.50000000  0.00000000  1
  Fe  Fe2  1  0.50000000  0.50000000  0.50000000  1
  Fe  Fe3  1  0.00000000  0.00000000  0.00000000  1
  H  H0  1  0.89579300  0.51419900  0.60650100  1
  H  H1  1  0.39579300  0.98580100  0.89349900  1
  H  H2  1  0.10420700  0.01419900  0.39349900  1
  H  H3  1  0.60420700  0.48580100  0.10650100  1
  H  H4  1  0.10420700  0.48580100  0.39349900  1
  H  H5  1  0.60420700  0.01419900  0.10650100  1
  H  H6  1  0.89579300  0.98580100  0.60650100  1
  H  H7  1  0.39579300  0.51419900  0.89349900  1
  H  H8  1  0.15452700  0.25000000  0.59916400  1
  H  H9  1  0.65452700  0.25000000  0.90083600  1
  H  H10  1  0.84547300  0.75000000  0.40083600  1
  H  H11  1  0.34547300  0.75000000  0.09916400  1
  H  H12  1  0.16298700  0.25000000  0.81754400  1
  H  H13  1  0.66298700  0.25000000  0.68245600  1
  H  H14  1  0.83701300  0.75000000  0.18245600  1
  H  H15  1  0.33701300  0.75000000  0.31754400  1
  H  H16  1  0.01565200  0.43943600  0.62801800  1
  H  H17  1  0.51565200  0.06056400  0.87198200  1
  H  H18  1  0.98434800  0.93943600  0.37198200  1
  H  H19  1  0.48434800  0.56056400  0.12801800  1
  H  H20  1  0.98434800  0.56056400  0.37198200  1
  H  H21  1  0.48434800  0.93943600  0.12801800  1
  H  H22  1  0.01565200  0.06056400  0.62801800  1
  H  H23  1  0.51565200  0.43943600  0.87198200  1
  H  H24  1  0.97877500  0.25000000  0.71052900  1
  H  H25  1  0.47877500  0.25000000  0.78947100  1
  H  H26  1  0.02122500  0.75000000  0.28947100  1
  H  H27  1  0.52122500  0.75000000  0.21052900  1
  H  H28  1  0.90249700  0.25000000  0.56533900  1
  H  H29  1  0.40249700  0.25000000  0.93466100  1
  H  H30  1  0.09750300  0.75000000  0.43466100  1
  H  H31  1  0.59750300  0.75000000  0.06533900  1
  N  N0  1  0.92136000  0.25000000  0.28806000  1
  N  N1  1  0.42136000  0.25000000  0.21194000  1
  N  N2  1  0.07864000  0.75000000  0.71194000  1
  N  N3  1  0.57864000  0.75000000  0.78806000  1
  N  N4  1  0.01188400  0.25000000  0.62443600  1
  N  N5  1  0.51188400  0.25000000  0.87556400  1
  N  N6  1  0.98811600  0.75000000  0.37556400  1
  N  N7  1  0.48811600  0.75000000  0.12443600  1
  F  F0  1  0.59877300  0.25000000  0.48587600  1
  F  F1  1  0.09877300  0.25000000  0.01412400  1
  F  F2  1  0.40122700  0.75000000  0.51412400  1
  F  F3  1  0.90122700  0.75000000  0.98587600  1
  F  F4  1  0.73954000  0.07378700  0.07072700  1
  F  F5  1  0.23954000  0.42621300  0.42927300  1
  F  F6  1  0.26046000  0.57378700  0.92927300  1
  F  F7  1  0.76046000  0.92621300  0.57072700  1
  F  F8  1  0.26046000  0.92621300  0.92927300  1
  F  F9  1  0.76046000  0.57378700  0.57072700  1
  F  F10  1  0.73954000  0.42621300  0.07072700  1
  F  F11  1  0.23954000  0.07378700  0.42927300  1
  F  F12  1  0.60412500  0.55996300  0.35788300  1
  F  F13  1  0.10412500  0.94003700  0.14211700  1
  F  F14  1  0.39587500  0.05996300  0.64211700  1
  F  F15  1  0.89587500  0.44003700  0.85788300  1
  F  F16  1  0.39587500  0.44003700  0.64211700  1
  F  F17  1  0.89587500  0.05996300  0.85788300  1
  F  F18  1  0.60412500  0.94003700  0.35788300  1
  F  F19  1  0.10412500  0.55996300  0.14211700  1
loop_
_geom_bond_atom_site_label_1
_geom_bond_atom_site_label_2
_geom_bond_distance
_geom_bond_site_symmetry_2
H0 H16 1.044264 1_655
H1 H17 1.044264 1_565
H8 N4 1.030520 1_555
H9 N5 1.030520 1_555
H10 N6 1.030520 1_555
H11 N7 1.030520 1_555
H16 N4 1.476169 1_555
H17 N5 1.476169 1_555
H18 H2 1.044264 1_665
H18 N6 1.476169 1_555
H19 H3 1.044264 1_555
H19 N7 1.476169 1_555
H20 H4 1.044264 1_655
H20 N6 1.476169 1_555
H21 H5 1.044264 1_565
H21 N7 1.476169 1_555
H22 H6 1.044264 1_445
H22 N4 1.476169 1_555
H23 H7 1.044264 1_555
H23 N5 1.476169 1_555
H24 N4 1.032260 1_655
H25 N5 1.032260 1_555
H26 N6 1.032260 1_455
H27 N7 1.032260 1_555
H28 N4 1.024949 1_655
H29 N5 1.024949 1_555
H30 N6 1.024949 1_455
H31 N7 1.024949 1_555
F0 Fe0 2.070147 1_555
F0 Fe2 2.070147 1_555
F1 Fe1 2.070147 1_555
F1 Fe3 2.070147 1_555
F2 Fe0 2.070147 1_565
F2 Fe2 2.070147 1_555
F3 Fe1 2.070147 1_656
F3 Fe3 2.070147 1_666
F4 H5 1.125889 1_555
F4 Fe3 2.064857 1_655
F5 H4 1.125889 1_555
F5 Fe2 2.064857 1_555
F6 H7 1.125889 1_555
F6 Fe1 2.064857 1_556
F7 H6 1.125889 1_555
F7 Fe0 2.064857 1_565
F8 H1 1.125889 1_555
F8 Fe3 2.064857 1_566
F9 H0 1.125889 1_555
F9 Fe2 2.064857 1_555
F10 H3 1.125889 1_555
F10 Fe1 2.064857 1_655
F11 H2 1.125889 1_555
F11 Fe0 2.064857 1_555
F12 Fe2 1.870280 1_555
F13 Fe3 1.870280 1_565
F14 Fe0 1.870280 1_555
F15 Fe1 1.870280 1_656
F16 Fe2 1.870280 1_555
F17 Fe3 1.870280 1_656
F18 Fe0 1.870280 1_565
F19 Fe1 1.870280 1_555
