# generated using pymatgen
data_Li3B8O15
_symmetry_space_group_name_H-M   'P 1'
_cell_length_a   9.02628825
_cell_length_b   9.02628825
_cell_length_c   15.99567700
_cell_angle_alpha   90.00000000
_cell_angle_beta   90.00000000
_cell_angle_gamma   120.00000184
_symmetry_Int_Tables_number   1
_chemical_formula_structural   Li3B8O15
_chemical_formula_sum   'Li12 B32 O60'
_cell_volume   1128.63014646
_cell_formula_units_Z   4
loop_
 _symmetry_equiv_pos_site_id
 _symmetry_equiv_pos_as_xyz
  1  'x, y, z'
loop_
 _atom_site_type_symbol
 _atom_site_label
 _atom_site_symmetry_multiplicity
 _atom_site_fract_x
 _atom_site_fract_y
 _atom_site_fract_z
 _atom_site_occupancy
  Li  Li0  1  0.69167700  0.66184600  0.75000000  1
  Li  Li1  1  0.33815400  0.02983000  0.75000000  1
  Li  Li2  1  0.97017000  0.30832300  0.75000000  1
  Li  Li3  1  0.66184600  0.69167700  0.25000000  1
  Li  Li4  1  0.02983000  0.33815400  0.25000000  1
  Li  Li5  1  0.30832300  0.97017000  0.25000000  1
  Li  Li6  1  0.43725700  0.00000000  0.50000000  1
  Li  Li7  1  0.00000000  0.43725700  0.50000000  1
  Li  Li8  1  0.56274300  0.56274300  0.50000000  1
  Li  Li9  1  0.43725700  0.00000000  0.00000000  1
  Li  Li10  1  0.00000000  0.43725700  0.00000000  1
  Li  Li11  1  0.56274300  0.56274300  0.00000000  1
  B  B0  1  0.84196600  0.47735900  0.66413300  1
  B  B1  1  0.52264100  0.36460800  0.66413300  1
  B  B2  1  0.63539200  0.15803400  0.66413300  1
  B  B3  1  0.84196600  0.47735900  0.83586700  1
  B  B4  1  0.52264100  0.36460800  0.83586700  1
  B  B5  1  0.63539200  0.15803400  0.83586700  1
  B  B6  1  0.47735900  0.84196600  0.16413300  1
  B  B7  1  0.36460800  0.52264100  0.16413300  1
  B  B8  1  0.15803400  0.63539200  0.16413300  1
  B  B9  1  0.47735900  0.84196600  0.33586700  1
  B  B10  1  0.36460800  0.52264100  0.33586700  1
  B  B11  1  0.15803400  0.63539200  0.33586700  1
  B  B12  1  0.00000000  0.00000000  0.75000000  1
  B  B13  1  0.00000000  0.00000000  0.25000000  1
  B  B14  1  0.05618400  0.75258100  0.75000000  1
  B  B15  1  0.24741900  0.30360200  0.75000000  1
  B  B16  1  0.69639800  0.94381600  0.75000000  1
  B  B17  1  0.75258100  0.05618400  0.25000000  1
  B  B18  1  0.30360200  0.24741900  0.25000000  1
  B  B19  1  0.94381600  0.69639800  0.25000000  1
  B  B20  1  0.11492800  0.72736900  0.60281300  1
  B  B21  1  0.27263100  0.38755900  0.60281300  1
  B  B22  1  0.61244100  0.88507200  0.60281300  1
  B  B23  1  0.11492800  0.72736900  0.89718700  1
  B  B24  1  0.27263100  0.38755900  0.89718700  1
  B  B25  1  0.61244100  0.88507200  0.89718700  1
  B  B26  1  0.72736900  0.11492800  0.10281300  1
  B  B27  1  0.38755900  0.27263100  0.10281300  1
  B  B28  1  0.88507200  0.61244100  0.10281300  1
  B  B29  1  0.72736900  0.11492800  0.39718700  1
  B  B30  1  0.38755900  0.27263100  0.39718700  1
  B  B31  1  0.88507200  0.61244100  0.39718700  1
  O  O0  1  0.94445900  0.56036800  0.75000000  1
  O  O1  1  0.43963200  0.38409100  0.75000000  1
  O  O2  1  0.61590900  0.05554100  0.75000000  1
  O  O3  1  0.56036800  0.94445900  0.25000000  1
  O  O4  1  0.38409100  0.43963200  0.25000000  1
  O  O5  1  0.05554100  0.61590900  0.25000000  1
  O  O6  1  0.96648400  0.57147500  0.59488000  1
  O  O7  1  0.42852500  0.39500900  0.59488000  1
  O  O8  1  0.60499100  0.03351600  0.59488000  1
  O  O9  1  0.96648400  0.57147500  0.90512000  1
  O  O10  1  0.42852500  0.39500900  0.90512000  1
  O  O11  1  0.60499100  0.03351600  0.90512000  1
  O  O12  1  0.57147500  0.96648400  0.09488000  1
  O  O13  1  0.39500900  0.42852500  0.09488000  1
  O  O14  1  0.03351600  0.60499100  0.09488000  1
  O  O15  1  0.57147500  0.96648400  0.40512000  1
  O  O16  1  0.39500900  0.42852500  0.40512000  1
  O  O17  1  0.03351600  0.60499100  0.40512000  1
  O  O18  1  0.17139600  0.81013700  0.82227100  1
  O  O19  1  0.18986300  0.36125900  0.82227100  1
  O  O20  1  0.63874100  0.82860400  0.82227100  1
  O  O21  1  0.17139600  0.81013700  0.67772900  1
  O  O22  1  0.18986300  0.36125900  0.67772900  1
  O  O23  1  0.63874100  0.82860400  0.67772900  1
  O  O24  1  0.81013700  0.17139600  0.32227100  1
  O  O25  1  0.36125900  0.18986300  0.32227100  1
  O  O26  1  0.82860400  0.63874100  0.32227100  1
  O  O27  1  0.81013700  0.17139600  0.17772900  1
  O  O28  1  0.36125900  0.18986300  0.17772900  1
  O  O29  1  0.82860400  0.63874100  0.17772900  1
  O  O30  1  0.94440500  0.82753400  0.75000000  1
  O  O31  1  0.17246600  0.11687100  0.75000000  1
  O  O32  1  0.88312900  0.05559500  0.75000000  1
  O  O33  1  0.82753400  0.94440500  0.25000000  1
  O  O34  1  0.11687100  0.17246600  0.25000000  1
  O  O35  1  0.05559500  0.88312900  0.25000000  1
  O  O36  1  0.80478700  0.30346100  0.66246800  1
  O  O37  1  0.69653900  0.50132600  0.66246800  1
  O  O38  1  0.49867400  0.19521300  0.66246800  1
  O  O39  1  0.80478700  0.30346100  0.83753200  1
  O  O40  1  0.69653900  0.50132600  0.83753200  1
  O  O41  1  0.49867400  0.19521300  0.83753200  1
  O  O42  1  0.30346100  0.80478700  0.16246800  1
  O  O43  1  0.50132600  0.69653900  0.16246800  1
  O  O44  1  0.19521300  0.49867400  0.16246800  1
  O  O45  1  0.30346100  0.80478700  0.33753200  1
  O  O46  1  0.50132600  0.69653900  0.33753200  1
  O  O47  1  0.19521300  0.49867400  0.33753200  1
  O  O48  1  0.21844000  0.80756300  0.53597600  1
  O  O49  1  0.19243700  0.41087700  0.53597600  1
  O  O50  1  0.58912300  0.78156000  0.53597600  1
  O  O51  1  0.21844000  0.80756300  0.96402400  1
  O  O52  1  0.19243700  0.41087700  0.96402400  1
  O  O53  1  0.58912300  0.78156000  0.96402400  1
  O  O54  1  0.80756300  0.21844000  0.03597600  1
  O  O55  1  0.41087700  0.19243700  0.03597600  1
  O  O56  1  0.78156000  0.58912300  0.03597600  1
  O  O57  1  0.80756300  0.21844000  0.46402400  1
  O  O58  1  0.41087700  0.19243700  0.46402400  1
  O  O59  1  0.78156000  0.58912300  0.46402400  1
loop_
_geom_bond_atom_site_label_1
_geom_bond_atom_site_label_2
_geom_bond_distance
_geom_bond_site_symmetry_2
Li0 O30 2.007207 1_555
Li0 O40 2.031058 1_555
Li0 O37 2.031058 1_555
Li0 O20 2.132968 1_555
Li0 O23 2.132968 1_555
Li0 O1 2.399495 1_555
Li1 O31 2.007214 1_555
Li1 O41 2.031061 1_555
Li1 O38 2.031061 1_555
Li1 O18 2.132963 1_545
Li1 O21 2.132963 1_545
Li1 O2 2.399491 1_555
Li2 O32 2.007205 1_555
Li2 O39 2.031065 1_555
Li2 O36 2.031065 1_555
Li2 O19 2.132961 1_655
Li2 O22 2.132961 1_655
Li2 O0 2.399500 1_555
Li3 O33 2.007207 1_555
Li3 O46 2.031058 1_555
Li3 O43 2.031058 1_555
Li3 O26 2.132968 1_555
Li3 O29 2.132968 1_555
Li3 O4 2.399495 1_555
Li4 O34 2.007214 1_555
Li4 O47 2.031061 1_555
Li4 O44 2.031061 1_555
Li4 O24 2.132963 1_455
Li4 O27 2.132963 1_455
Li4 O5 2.399491 1_555
Li5 O35 2.007205 1_555
Li5 O45 2.031065 1_555
Li5 O42 2.031065 1_555
Li5 O25 2.132961 1_565
Li5 O28 2.132961 1_565
Li5 O3 2.399500 1_555
Li6 O48 1.954122 1_545
Li6 O58 1.954122 1_555
Li6 O8 2.056467 1_555
Li6 O15 2.056467 1_545
Li7 O57 1.954122 1_455
Li7 O49 1.954122 1_555
Li7 O17 2.056467 1_555
Li7 O6 2.056467 1_455
Li8 O50 1.954122 1_555
Li8 O59 1.954122 1_555
Li8 O16 2.056467 1_555
Li8 O7 2.056467 1_555
Li9 O51 1.954122 1_544
Li9 O55 1.954122 1_555
Li9 O11 2.056467 1_554
Li9 O12 2.056467 1_545
Li10 O54 1.954122 1_455
Li10 O52 1.954122 1_554
Li10 O14 2.056467 1_555
Li10 O9 2.056467 1_454
Li11 O53 1.954122 1_554
Li11 O56 1.954122 1_555
Li11 O10 2.056467 1_554
Li11 O13 2.056467 1_555
B0 O36 1.431916 1_555
B0 O37 1.433379 1_555
B0 O6 1.502403 1_555
B0 O0 1.615735 1_555
B1 O37 1.431913 1_555
B1 O38 1.433388 1_555
B1 O7 1.502399 1_555
B1 O1 1.615732 1_555
B2 O38 1.431907 1_555
B2 O36 1.433384 1_555
B2 O8 1.502405 1_555
B2 O2 1.615737 1_555
B3 O39 1.431916 1_555
B3 O40 1.433379 1_555
B3 O9 1.502403 1_555
B3 O0 1.615735 1_555
B4 O40 1.431913 1_555
B4 O41 1.433388 1_555
B4 O10 1.502399 1_555
B4 O1 1.615732 1_555
B5 O41 1.431907 1_555
B5 O39 1.433384 1_555
B5 O11 1.502405 1_555
B5 O2 1.615737 1_555
B6 O42 1.431916 1_555
B6 O43 1.433379 1_555
B6 O12 1.502403 1_555
B6 O3 1.615735 1_555
B7 O43 1.431913 1_555
B7 O44 1.433388 1_555
B7 O13 1.502399 1_555
B7 O4 1.615732 1_555
B8 O44 1.431907 1_555
B8 O42 1.433384 1_555
B8 O14 1.502405 1_555
B8 O5 1.615737 1_555
B9 O45 1.431916 1_555
B9 O46 1.433379 1_555
B9 O15 1.502403 1_555
B9 O3 1.615735 1_555
B10 O46 1.431913 1_555
B10 O47 1.433388 1_555
B10 O16 1.502399 1_555
B10 O4 1.615732 1_555
B11 O47 1.431907 1_555
B11 O45 1.433384 1_555
B11 O17 1.502405 1_555
B11 O5 1.615737 1_555
B12 O31 1.376237 1_555
B12 O30 1.376237 1_445
B12 O32 1.376237 1_455
B13 O34 1.376237 1_555
B13 O33 1.376237 1_445
B13 O35 1.376237 1_545
B14 O18 1.465432 1_555
B14 O21 1.465432 1_555
B14 O30 1.469115 1_455
B14 O0 1.509127 1_455
B15 O19 1.465437 1_555
B15 O22 1.465437 1_555
B15 O31 1.469106 1_555
B15 O1 1.509126 1_555
B16 O20 1.465432 1_555
B16 O23 1.465432 1_555
B16 O32 1.469107 1_565
B16 O2 1.509135 1_565
B17 O24 1.465432 1_555
B17 O27 1.465432 1_555
B17 O33 1.469115 1_545
B17 O3 1.509127 1_545
B18 O25 1.465437 1_555
B18 O28 1.465437 1_555
B18 O34 1.469106 1_555
B18 O4 1.509126 1_555
B19 O26 1.465432 1_555
B19 O29 1.465432 1_555
B19 O35 1.469107 1_655
B19 O5 1.509135 1_655
B20 O48 1.365137 1_555
B20 O21 1.368628 1_555
B20 O6 1.380599 1_455
B21 O49 1.365137 1_555
B21 O22 1.368628 1_555
B21 O7 1.380599 1_555
B22 O50 1.365137 1_555
B22 O23 1.368628 1_555
B22 O8 1.380599 1_565
B23 O51 1.365137 1_555
B23 O18 1.368628 1_555
B23 O9 1.380599 1_455
B24 O52 1.365137 1_555
B24 O19 1.368628 1_555
B24 O10 1.380599 1_555
B25 O53 1.365137 1_555
B25 O20 1.368628 1_555
B25 O11 1.380599 1_565
B26 O54 1.365137 1_555
B26 O27 1.368628 1_555
B26 O12 1.380599 1_545
B27 O55 1.365137 1_555
B27 O28 1.368628 1_555
B27 O13 1.380599 1_555
B28 O56 1.365137 1_555
B28 O29 1.368628 1_555
B28 O14 1.380599 1_655
B29 O57 1.365137 1_555
B29 O24 1.368628 1_555
B29 O15 1.380599 1_545
B30 O58 1.365137 1_555
B30 O25 1.368628 1_555
B30 O16 1.380599 1_555
B31 O59 1.365137 1_555
B31 O26 1.368628 1_555
B31 O17 1.380599 1_655
