# generated using pymatgen
data_LiHfMg30O31
_symmetry_space_group_name_H-M   'P 1'
_cell_length_a   8.54966800
_cell_length_b   8.56013200
_cell_length_c   8.56422000
_cell_angle_alpha   90.00000000
_cell_angle_beta   90.00000000
_cell_angle_gamma   90.00000000
_symmetry_Int_Tables_number   1
_chemical_formula_structural   LiHfMg30O31
_chemical_formula_sum   'Li1 Hf1 Mg30 O31'
_cell_volume   626.78345974
_cell_formula_units_Z   1
loop_
 _symmetry_equiv_pos_site_id
 _symmetry_equiv_pos_as_xyz
  1  'x, y, z'
loop_
 _atom_site_type_symbol
 _atom_site_label
 _atom_site_symmetry_multiplicity
 _atom_site_fract_x
 _atom_site_fract_y
 _atom_site_fract_z
 _atom_site_occupancy
  Li  Li0  1  0.00000000  0.00805500  0.00000000  1
  Hf  Hf0  1  0.50000000  0.99982500  0.00000000  1
  Mg  Mg0  1  0.00000000  0.00032700  0.50000000  1
  Mg  Mg1  1  0.50000000  0.00005700  0.50000000  1
  Mg  Mg2  1  0.00000000  0.49980400  0.00000000  1
  Mg  Mg3  1  0.50000000  0.49971700  0.00000000  1
  Mg  Mg4  1  0.00000000  0.49931000  0.50000000  1
  Mg  Mg5  1  0.50000000  0.49967000  0.50000000  1
  Mg  Mg6  1  0.24176400  0.99972700  0.25326300  1
  Mg  Mg7  1  0.75823600  0.99972700  0.25326300  1
  Mg  Mg8  1  0.24176400  0.99972700  0.74673700  1
  Mg  Mg9  1  0.75823600  0.99972700  0.74673700  1
  Mg  Mg10  1  0.24849800  0.49988200  0.25046900  1
  Mg  Mg11  1  0.75150200  0.49988200  0.25046900  1
  Mg  Mg12  1  0.24849800  0.49988200  0.74953100  1
  Mg  Mg13  1  0.75150200  0.49988200  0.74953100  1
  Mg  Mg14  1  0.24184300  0.74607100  0.00000000  1
  Mg  Mg15  1  0.75815700  0.74607100  0.00000000  1
  Mg  Mg16  1  0.24919800  0.74933800  0.50000000  1
  Mg  Mg17  1  0.75080200  0.74933800  0.50000000  1
  Mg  Mg18  1  0.24226300  0.25317600  0.00000000  1
  Mg  Mg19  1  0.75773700  0.25317600  0.00000000  1
  Mg  Mg20  1  0.24864600  0.25043300  0.50000000  1
  Mg  Mg21  1  0.75135400  0.25043300  0.50000000  1
  Mg  Mg22  1  0.00000000  0.75145400  0.25079800  1
  Mg  Mg23  1  0.50000000  0.74642500  0.25349100  1
  Mg  Mg24  1  0.00000000  0.75145400  0.74920200  1
  Mg  Mg25  1  0.50000000  0.74642500  0.74650900  1
  Mg  Mg26  1  0.00000000  0.24804600  0.24835400  1
  Mg  Mg27  1  0.50000000  0.25317100  0.25346100  1
  Mg  Mg28  1  0.00000000  0.24804600  0.75164600  1
  Mg  Mg29  1  0.50000000  0.25317100  0.74653900  1
  O  O0  1  0.50000000  0.74526900  0.00000000  1
  O  O1  1  0.00000000  0.74889800  0.50000000  1
  O  O2  1  0.50000000  0.74935200  0.50000000  1
  O  O3  1  0.00000000  0.25594100  0.00000000  1
  O  O4  1  0.50000000  0.25425000  0.00000000  1
  O  O5  1  0.00000000  0.25052100  0.50000000  1
  O  O6  1  0.50000000  0.25040000  0.50000000  1
  O  O7  1  0.25122500  0.75058800  0.25008200  1
  O  O8  1  0.74877500  0.75058800  0.25008200  1
  O  O9  1  0.25122500  0.75058800  0.74991800  1
  O  O10  1  0.74877500  0.75058800  0.74991800  1
  O  O11  1  0.25057400  0.24899500  0.24919500  1
  O  O12  1  0.74942600  0.24899500  0.24919500  1
  O  O13  1  0.25057400  0.24899500  0.75080500  1
  O  O14  1  0.74942600  0.24899500  0.75080500  1
  O  O15  1  0.25707600  0.00038900  0.00000000  1
  O  O16  1  0.74292400  0.00038900  0.00000000  1
  O  O17  1  0.25116900  0.99982600  0.50000000  1
  O  O18  1  0.74883100  0.99982600  0.50000000  1
  O  O19  1  0.25204300  0.49900000  0.00000000  1
  O  O20  1  0.74795700  0.49900000  0.00000000  1
  O  O21  1  0.25052100  0.49985500  0.50000000  1
  O  O22  1  0.74947900  0.49985500  0.50000000  1
  O  O23  1  0.00000000  0.00015900  0.25647900  1
  O  O24  1  0.50000000  0.99983600  0.25443100  1
  O  O25  1  0.00000000  0.00015900  0.74352100  1
  O  O26  1  0.50000000  0.99983600  0.74556900  1
  O  O27  1  0.00000000  0.49888900  0.25196000  1
  O  O28  1  0.50000000  0.49984900  0.25060000  1
  O  O29  1  0.00000000  0.49888900  0.74804000  1
  O  O30  1  0.50000000  0.49984900  0.74940000  1
loop_
_geom_bond_atom_site_label_1
_geom_bond_atom_site_label_2
_geom_bond_distance
_geom_bond_site_symmetry_2
Li0 O3 2.121937 1_555
Li0 O23 2.197582 1_555
Li0 O25 2.197582 1_554
Li0 O16 2.198894 1_455
Li0 O15 2.198894 1_555
Hf0 O15 2.076925 1_565
Hf0 O16 2.076925 1_565
Hf0 O4 2.177912 1_565
Hf0 O26 2.179003 1_554
Hf0 O24 2.179003 1_555
Hf0 O0 2.179033 1_555
Mg0 O25 2.085568 1_555
Mg0 O23 2.085568 1_555
Mg0 O5 2.141694 1_555
Mg0 O18 2.147416 1_445
Mg0 O17 2.147416 1_545
Mg0 O1 2.152265 1_545
Mg1 O24 2.103108 1_545
Mg1 O26 2.103108 1_545
Mg1 O17 2.127423 1_545
Mg1 O18 2.127423 1_545
Mg1 O6 2.142969 1_555
Mg1 O2 2.146068 1_545
Mg2 O3 2.087499 1_555
Mg2 O19 2.154895 1_555
Mg2 O20 2.154895 1_455
Mg2 O29 2.157855 1_554
Mg2 O27 2.157855 1_555
Mg3 O4 2.101230 1_555
Mg3 O0 2.101958 1_555
Mg3 O20 2.119959 1_555
Mg3 O19 2.119959 1_555
Mg3 O28 2.146194 1_555
Mg3 O30 2.146194 1_554
Mg4 O27 2.124272 1_555
Mg4 O29 2.124272 1_555
Mg4 O5 2.129667 1_555
Mg4 O1 2.136506 1_555
Mg4 O21 2.141876 1_555
Mg4 O22 2.141876 1_455
Mg5 O21 2.132963 1_555
Mg5 O22 2.132963 1_555
Mg5 O6 2.133784 1_555
Mg5 O30 2.135917 1_555
Mg5 O28 2.135917 1_555
Mg5 O2 2.137311 1_555
Mg6 O23 2.067189 1_565
Mg6 O17 2.114639 1_555
Mg6 O7 2.134370 1_555
Mg6 O11 2.135380 1_565
Mg6 O15 2.172955 1_565
Mg6 O24 2.207855 1_555
Mg7 O23 2.067189 1_665
Mg7 O18 2.114639 1_555
Mg7 O8 2.134370 1_555
Mg7 O12 2.135380 1_565
Mg7 O16 2.172955 1_565
Mg7 O24 2.207855 1_555
Mg8 O25 2.067189 1_565
Mg8 O17 2.114639 1_555
Mg8 O9 2.134370 1_555
Mg8 O13 2.135380 1_565
Mg8 O15 2.172955 1_566
Mg8 O26 2.207855 1_555
Mg9 O25 2.067189 1_665
Mg9 O18 2.114639 1_555
Mg9 O10 2.134370 1_555
Mg9 O14 2.135380 1_565
Mg9 O16 2.172955 1_566
Mg9 O26 2.207855 1_555
Mg10 O27 2.124631 1_555
Mg10 O21 2.137108 1_555
Mg10 O19 2.145299 1_555
Mg10 O7 2.146206 1_555
Mg10 O11 2.147727 1_555
Mg10 O28 2.150259 1_555
Mg11 O27 2.124631 1_655
Mg11 O22 2.137108 1_555
Mg11 O20 2.145299 1_555
Mg11 O8 2.146206 1_555
Mg11 O12 2.147727 1_555
Mg11 O28 2.150259 1_555
Mg12 O29 2.124631 1_555
Mg12 O21 2.137108 1_555
Mg12 O19 2.145299 1_556
Mg12 O9 2.146206 1_555
Mg12 O13 2.147727 1_555
Mg12 O30 2.150259 1_555
Mg13 O29 2.124631 1_655
Mg13 O22 2.137108 1_555
Mg13 O20 2.145299 1_556
Mg13 O10 2.146206 1_555
Mg13 O14 2.147727 1_555
Mg13 O30 2.150259 1_555
Mg14 O19 2.116758 1_555
Mg14 O9 2.143608 1_554
Mg14 O7 2.143608 1_555
Mg14 O15 2.180888 1_565
Mg14 O0 2.207167 1_555
Mg15 O20 2.116758 1_555
Mg15 O8 2.143608 1_555
Mg15 O10 2.143608 1_554
Mg15 O16 2.180888 1_565
Mg15 O0 2.207167 1_555
Mg16 O1 2.130563 1_555
Mg16 O21 2.135637 1_555
Mg16 O7 2.140450 1_555
Mg16 O9 2.140450 1_555
Mg16 O2 2.144274 1_555
Mg16 O17 2.144277 1_555
Mg17 O1 2.130563 1_655
Mg17 O22 2.135637 1_555
Mg17 O10 2.140450 1_555
Mg17 O8 2.140450 1_555
Mg17 O2 2.144274 1_555
Mg17 O18 2.144277 1_555
Mg18 O3 2.071403 1_555
Mg18 O19 2.105947 1_555
Mg18 O11 2.135643 1_555
Mg18 O13 2.135643 1_554
Mg18 O15 2.167593 1_555
Mg18 O4 2.203585 1_555
Mg19 O3 2.071403 1_655
Mg19 O20 2.105947 1_555
Mg19 O12 2.135643 1_555
Mg19 O14 2.135643 1_554
Mg19 O16 2.167593 1_555
Mg19 O4 2.203585 1_555
Mg20 O5 2.125841 1_555
Mg20 O21 2.135145 1_555
Mg20 O17 2.145337 1_545
Mg20 O13 2.148048 1_555
Mg20 O11 2.148048 1_555
Mg20 O6 2.148993 1_555
Mg21 O5 2.125841 1_655
Mg21 O22 2.135145 1_555
Mg21 O18 2.145337 1_545
Mg21 O14 2.148048 1_555
Mg21 O12 2.148048 1_555
Mg21 O6 2.148993 1_555
Mg22 O23 2.129503 1_565
Mg22 O1 2.134333 1_555
Mg22 O7 2.147912 1_555
Mg22 O8 2.147912 1_455
Mg22 O27 2.162013 1_555
Mg23 O28 2.110868 1_555
Mg23 O2 2.111306 1_555
Mg23 O8 2.127443 1_555
Mg23 O7 2.127443 1_555
Mg23 O24 2.169247 1_555
Mg23 O0 2.170975 1_555
Mg24 O25 2.129503 1_565
Mg24 O1 2.134333 1_555
Mg24 O9 2.147912 1_555
Mg24 O10 2.147912 1_455
Mg24 O29 2.162013 1_555
Mg25 O30 2.110868 1_555
Mg25 O2 2.111306 1_555
Mg25 O10 2.127443 1_555
Mg25 O9 2.127443 1_555
Mg25 O26 2.169247 1_555
Mg25 O0 2.170975 1_556
Mg26 O23 2.123086 1_555
Mg26 O3 2.128032 1_555
Mg26 O12 2.142352 1_455
Mg26 O11 2.142352 1_555
Mg26 O27 2.147471 1_555
Mg26 O5 2.155256 1_555
Mg27 O6 2.111547 1_555
Mg27 O28 2.111738 1_555
Mg27 O11 2.133122 1_555
Mg27 O12 2.133122 1_555
Mg27 O24 2.168597 1_545
Mg27 O4 2.170715 1_555
Mg28 O25 2.123086 1_555
Mg28 O3 2.128032 1_556
Mg28 O14 2.142352 1_455
Mg28 O13 2.142352 1_555
Mg28 O29 2.147471 1_555
Mg28 O5 2.155256 1_555
Mg29 O6 2.111547 1_555
Mg29 O30 2.111738 1_555
Mg29 O13 2.133122 1_555
Mg29 O14 2.133122 1_555
Mg29 O26 2.168597 1_545
Mg29 O4 2.170715 1_556
