# generated using pymatgen
data_LiDyS2
_symmetry_space_group_name_H-M   'P 1'
_cell_length_a   6.53855609
_cell_length_b   6.53855609
_cell_length_c   6.53855662
_cell_angle_alpha   34.69126195
_cell_angle_beta   34.69126195
_cell_angle_gamma   34.69126552
_symmetry_Int_Tables_number   1
_chemical_formula_structural   LiDyS2
_chemical_formula_sum   'Li1 Dy1 S2'
_cell_volume   80.81103287
_cell_formula_units_Z   1
loop_
 _symmetry_equiv_pos_site_id
 _symmetry_equiv_pos_as_xyz
  1  'x, y, z'
loop_
 _atom_site_type_symbol
 _atom_site_label
 _atom_site_symmetry_multiplicity
 _atom_site_fract_x
 _atom_site_fract_y
 _atom_site_fract_z
 _atom_site_occupancy
  Li  Li0  1  0.50000000  0.50000000  0.50000000  1
  Dy  Dy0  1  -0.00000000  -0.00000000  0.00000000  1
  S  S0  1  0.24977769  0.24977769  0.24977769  1
  S  S1  1  0.75022231  0.75022231  0.75022231  1
loop_
_geom_bond_atom_site_label_1
_geom_bond_atom_site_label_2
_geom_bond_distance
_geom_bond_site_symmetry_2
Li0 S1 2.722052 1_455
Li0 S1 2.722052 1_545
Li0 S0 2.722052 1_655
Li0 S0 2.722052 1_565
Li0 S1 2.722052 1_554
Li0 S0 2.722052 1_556
Dy0 S1 2.726665 1_544
Dy0 S0 2.726665 1_545
Dy0 S0 2.726665 1_455
Dy0 S1 2.726665 1_454
Dy0 S0 2.726665 1_554
Dy0 S1 2.726665 1_445
