# generated using pymatgen
data_Ce2AlGaNi2
_symmetry_space_group_name_H-M   'P 1'
_cell_length_a   4.02288000
_cell_length_b   6.93977600
_cell_length_c   11.96268448
_cell_angle_alpha   89.75153215
_cell_angle_beta   90.00000000
_cell_angle_gamma   90.00000000
_symmetry_Int_Tables_number   1
_chemical_formula_structural   Ce2AlGaNi2
_chemical_formula_sum   'Ce6 Al3 Ga3 Ni6'
_cell_volume   333.96972226
_cell_formula_units_Z   3
loop_
 _symmetry_equiv_pos_site_id
 _symmetry_equiv_pos_as_xyz
  1  'x, y, z'
loop_
 _atom_site_type_symbol
 _atom_site_label
 _atom_site_symmetry_multiplicity
 _atom_site_fract_x
 _atom_site_fract_y
 _atom_site_fract_z
 _atom_site_occupancy
  Ce  Ce0  1  0.50000000  0.42704800  0.99997700  1
  Ce  Ce1  1  0.50000000  0.92547900  0.50043200  1
  Ce  Ce2  1  0.50000000  0.78698600  0.78735600  1
  Ce  Ce3  1  0.50000000  0.28825100  0.28874000  1
  Ce  Ce4  1  0.50000000  0.28965800  0.71029600  1
  Ce  Ce5  1  0.50000000  0.78795100  0.21155900  1
  Al  Al0  1  0.00000000  0.11527500  0.11546800  1
  Al  Al1  1  0.00000000  0.11502400  0.88432800  1
  Al  Al2  1  0.00000000  0.61503700  0.38537300  1
  Ga  Ga0  1  0.00000000  0.26570700  0.49959300  1
  Ga  Ga1  1  0.00000000  0.76681400  0.99984500  1
  Ga  Ga2  1  0.00000000  0.61788000  0.61676000  1
  Ni  Ni0  1  0.00000000  0.00075100  0.66804700  1
  Ni  Ni1  1  0.00000000  0.49770300  0.16773500  1
  Ni  Ni2  1  0.00000000  0.49758600  0.83383300  1
  Ni  Ni3  1  0.00000000  0.99773500  0.33243700  1
  Ni  Ni4  1  0.50000000  0.00361900  0.99986300  1
  Ni  Ni5  1  0.50000000  0.50169800  0.49835600  1
loop_
_geom_bond_atom_site_label_1
_geom_bond_atom_site_label_2
_geom_bond_distance
_geom_bond_site_symmetry_2
Ce0 Ni2 2.868336 1_655
Ce0 Ni2 2.868336 1_555
Ce0 Ni1 2.884829 1_656
Ce0 Ni1 2.884829 1_556
Ce0 Ni4 2.938509 1_555
Ce0 Ga1 3.099283 1_655
Ce0 Ga1 3.099283 1_555
Ce0 Ce2 3.557222 1_555
Ce0 Ce5 3.568521 1_556
Ce0 Ce3 3.582133 1_556
Ce0 Ce4 3.598121 1_555
Ce1 Ni3 2.885719 1_555
Ce1 Ni3 2.885719 1_655
Ce1 Ni0 2.889355 1_565
Ce1 Ni0 2.889355 1_665
Ce1 Ni5 2.941158 1_555
Ce1 Ga0 3.101711 1_565
Ce1 Ga0 3.101711 1_665
Ce1 Ga2 3.242448 1_655
Ce1 Ga2 3.242448 1_555
Ce1 Ce2 3.560388 1_555
Ce1 Ce3 3.563126 1_565
Ce1 Ce4 3.570039 1_565
Ce1 Ce5 3.589060 1_555
Ce2 Ni0 2.874944 1_665
Ce2 Ni0 2.874944 1_565
Ce2 Ni2 2.894630 1_655
Ce2 Ni2 2.894630 1_555
Ce2 Ni4 2.959030 1_565
Ce2 Ga2 3.099792 1_555
Ce2 Ga2 3.099792 1_655
Ce2 Ga1 3.244049 1_655
Ce2 Ga1 3.244049 1_555
Ce3 Ni1 2.869814 1_555
Ce3 Ni1 2.869814 1_655
Ce3 Ni3 2.893912 1_645
Ce3 Ni3 2.893912 1_545
Ce3 Ni5 2.917927 1_555
Ce3 Ga0 3.229440 1_555
Ce3 Ga0 3.229440 1_655
Ce3 Ce5 3.584742 1_555
Ce3 Ce5 3.596505 1_545
Ce4 Ni0 2.886164 1_655
Ce4 Ni0 2.886164 1_555
Ce4 Ni2 2.886270 1_555
Ce4 Ni2 2.886270 1_655
Ce4 Ni5 2.925934 1_555
Ce4 Ga0 3.229620 1_655
Ce4 Ga0 3.229620 1_555
Ce4 Ga2 3.234831 1_555
Ce4 Ga2 3.234831 1_655
Ce5 Ni3 2.876569 1_555
Ce5 Ni3 2.876569 1_655
Ce5 Ni1 2.896052 1_555
Ce5 Ni1 2.896052 1_655
Ce5 Ni4 2.936071 1_564
Ce5 Ga1 3.238061 1_554
Ce5 Ga1 3.238061 1_654
Al0 Ni4 2.562839 1_554
Al0 Ni4 2.562839 1_454
Al0 Ni3 2.717313 1_545
Al0 Ni1 2.729260 1_555
Al0 Al1 2.765063 1_554
Al0 Ga1 2.791064 1_544
Al0 Ce3 3.131287 1_455
Al0 Ce3 3.131287 1_555
Al0 Ce5 3.241076 1_445
Al0 Ce5 3.241076 1_545
Al0 Ce0 3.257307 1_554
Al0 Ce0 3.257307 1_454
Al1 Ni4 2.558236 1_555
Al1 Ni4 2.558236 1_455
Al1 Ni0 2.709395 1_555
Al1 Ni2 2.720191 1_555
Al1 Ga1 2.778513 1_545
Al1 Ce4 3.134809 1_455
Al1 Ce4 3.134809 1_555
Al1 Ce2 3.255303 1_445
Al1 Ce2 3.255303 1_545
Al1 Ce0 3.267220 1_455
Al1 Ce0 3.267220 1_555
Al2 Ni5 2.545996 1_555
Al2 Ni5 2.545996 1_455
Al2 Ni3 2.727619 1_555
Al2 Ni1 2.731267 1_555
Al2 Ga2 2.768166 1_555
Al2 Ga0 2.777652 1_555
Al2 Ce5 3.128518 1_455
Al2 Ce5 3.128518 1_555
Al2 Ce3 3.247762 1_455
Al2 Ce3 3.247762 1_555
Al2 Ce1 3.256924 1_555
Al2 Ce1 3.256924 1_455
Ga0 Ni5 2.593847 1_455
Ga0 Ni5 2.593847 1_555
Ga0 Ni0 2.722074 1_555
Ga0 Ni3 2.736631 1_545
Ga0 Ga2 2.822663 1_555
Ga1 Ni4 2.597416 1_465
Ga1 Ni4 2.597416 1_565
Ga1 Ni2 2.732586 1_555
Ga1 Ni1 2.736607 1_556
Ga2 Ni5 2.590782 1_455
Ga2 Ni5 2.590782 1_555
Ga2 Ni2 2.724217 1_555
Ga2 Ni0 2.729545 1_565
