# generated using pymatgen
data_Y(Ni2B)6
_symmetry_space_group_name_H-M   'P 1'
_cell_length_a   6.00917738
_cell_length_b   6.00917738
_cell_length_c   6.00917816
_cell_angle_alpha   104.33188680
_cell_angle_beta   104.33188680
_cell_angle_gamma   104.33190017
_symmetry_Int_Tables_number   1
_chemical_formula_structural   Y(Ni2B)6
_chemical_formula_sum   'Y1 Ni12 B6'
_cell_volume   192.35866101
_cell_formula_units_Z   1
loop_
 _symmetry_equiv_pos_site_id
 _symmetry_equiv_pos_as_xyz
  1  'x, y, z'
loop_
 _atom_site_type_symbol
 _atom_site_label
 _atom_site_symmetry_multiplicity
 _atom_site_fract_x
 _atom_site_fract_y
 _atom_site_fract_z
 _atom_site_occupancy
  Y  Y0  1  0.00000000  0.00000000  0.00000000  1
  Ni  Ni0  1  0.86904600  0.13095400  0.50000000  1
  Ni  Ni1  1  0.13095400  0.50000000  0.86904600  1
  Ni  Ni2  1  0.50000000  0.86904600  0.13095400  1
  Ni  Ni3  1  0.86904600  0.50000000  0.13095400  1
  Ni  Ni4  1  0.50000000  0.13095400  0.86904600  1
  Ni  Ni5  1  0.13095400  0.86904600  0.50000000  1
  Ni  Ni6  1  0.81254600  0.54645000  0.54645000  1
  Ni  Ni7  1  0.54645000  0.54645000  0.81254600  1
  Ni  Ni8  1  0.54645000  0.81254600  0.54645000  1
  Ni  Ni9  1  0.18745400  0.45355000  0.45355000  1
  Ni  Ni10  1  0.45355000  0.45355000  0.18745400  1
  Ni  Ni11  1  0.45355000  0.18745400  0.45355000  1
  B  B0  1  0.33446100  0.76613600  0.76613600  1
  B  B1  1  0.76613600  0.76613600  0.33446100  1
  B  B2  1  0.76613600  0.33446100  0.76613600  1
  B  B3  1  0.66553900  0.23386400  0.23386400  1
  B  B4  1  0.23386400  0.23386400  0.66553900  1
  B  B5  1  0.23386400  0.66553900  0.23386400  1
loop_
_geom_bond_atom_site_label_1
_geom_bond_atom_site_label_2
_geom_bond_distance
_geom_bond_site_symmetry_2
Ni0 Y0 3.251559 1_656
Ni0 Y0 3.251559 1_655
Ni1 Y0 3.251559 1_556
Ni1 Y0 3.251559 1_566
Ni2 Y0 3.251559 1_665
Ni2 Y0 3.251559 1_565
Ni3 Y0 3.251559 1_665
Ni3 Y0 3.251559 1_655
Ni4 Y0 3.251559 1_556
Ni4 Y0 3.251559 1_656
Ni5 Y0 3.251559 1_565
Ni5 Y0 3.251559 1_566
Ni6 Y0 3.067216 1_666
Ni7 Y0 3.067216 1_666
Ni8 Y0 3.067216 1_666
Ni9 Y0 3.067216 1_555
Ni10 Y0 3.067216 1_555
Ni11 Y0 3.067216 1_555
B0 Ni4 2.030413 1_565
B0 Ni2 2.030413 1_556
B0 Ni8 2.069359 1_555
B0 Ni7 2.069359 1_555
B0 Ni1 2.081188 1_555
B0 Ni5 2.081188 1_555
B0 Ni9 2.108847 1_555
B0 Y0 3.131815 1_566
B1 Ni0 2.030413 1_565
B1 Ni5 2.030413 1_655
B1 Ni8 2.069359 1_555
B1 Ni6 2.069359 1_555
B1 Ni3 2.081188 1_555
B1 Ni2 2.081188 1_555
B1 Ni10 2.108847 1_555
B1 Y0 3.131815 1_665
B2 Ni1 2.030413 1_655
B2 Ni3 2.030413 1_556
B2 Ni6 2.069359 1_555
B2 Ni7 2.069359 1_555
B2 Ni4 2.081188 1_555
B2 Ni0 2.081188 1_555
B2 Ni11 2.108847 1_555
B2 Y0 3.131815 1_656
B3 Ni2 2.030413 1_545
B3 Ni4 2.030413 1_554
B3 Ni11 2.069359 1_555
B3 Ni10 2.069359 1_555
B3 Ni3 2.081188 1_555
B3 Ni0 2.081188 1_555
B3 Ni6 2.108847 1_555
B3 Y0 3.131815 1_655
B4 Ni0 2.030413 1_455
B4 Ni5 2.030413 1_545
B4 Ni11 2.069359 1_555
B4 Ni9 2.069359 1_555
B4 Ni4 2.081188 1_555
B4 Ni1 2.081188 1_555
B4 Ni7 2.108847 1_555
B4 Y0 3.131815 1_556
B5 Ni3 2.030413 1_455
B5 Ni1 2.030413 1_554
B5 Ni9 2.069359 1_555
B5 Ni10 2.069359 1_555
B5 Ni2 2.081188 1_555
B5 Ni5 2.081188 1_555
B5 Ni8 2.108847 1_555
B5 Y0 3.131815 1_565
