# generated using pymatgen
data_Li5Mn2CoO8
_symmetry_space_group_name_H-M   'P 1'
_cell_length_a   9.72983522
_cell_length_b   9.72983522
_cell_length_c   5.23402639
_cell_angle_alpha   83.80678015
_cell_angle_beta   83.80678015
_cell_angle_gamma   17.10860738
_symmetry_Int_Tables_number   1
_chemical_formula_structural   Li5Mn2CoO8
_chemical_formula_sum   'Li5 Mn2 Co1 O8'
_cell_volume   144.89915287
_cell_formula_units_Z   1
loop_
 _symmetry_equiv_pos_site_id
 _symmetry_equiv_pos_as_xyz
  1  'x, y, z'
loop_
 _atom_site_type_symbol
 _atom_site_label
 _atom_site_symmetry_multiplicity
 _atom_site_fract_x
 _atom_site_fract_y
 _atom_site_fract_z
 _atom_site_occupancy
  Li  Li0  1  0.61960000  0.61960000  0.61993700  1
  Li  Li1  1  0.38040000  0.38040000  0.38006300  1
  Li  Li2  1  0.11812700  0.11812700  0.11972500  1
  Li  Li3  1  0.88187300  0.88187300  0.88027500  1
  Li  Li4  1  0.00000000  0.00000000  0.50000000  1
  Mn  Mn0  1  0.25150600  0.25150600  0.74895800  1
  Mn  Mn1  1  0.74849400  0.74849400  0.25104200  1
  Co  Co0  1  0.50000000  0.50000000  0.00000000  1
  O  O0  1  0.69254500  0.69254500  0.90468600  1
  O  O1  1  0.44687300  0.44687300  0.73605900  1
  O  O2  1  0.18955000  0.18955000  0.41027800  1
  O  O3  1  0.94429200  0.94429200  0.16696200  1
  O  O4  1  0.55312700  0.55312700  0.26394100  1
  O  O5  1  0.30745500  0.30745500  0.09531400  1
  O  O6  1  0.05570800  0.05570800  0.83303800  1
  O  O7  1  0.81045000  0.81045000  0.58972200  1
loop_
_geom_bond_atom_site_label_1
_geom_bond_atom_site_label_2
_geom_bond_distance
_geom_bond_site_symmetry_2
Li0 O6 2.133333 1_655
Li0 O6 2.133333 1_565
Li0 O0 2.155937 1_555
Li0 O2 2.188244 1_655
Li0 O2 2.188244 1_565
Li0 O4 2.372369 1_555
Li1 O3 2.133333 1_545
Li1 O3 2.133333 1_455
Li1 O5 2.155937 1_555
Li1 O7 2.188244 1_455
Li1 O7 2.188244 1_545
Li1 O1 2.372369 1_555
Li2 O4 2.005718 1_455
Li2 O4 2.005718 1_545
Li2 O6 2.021775 1_554
Li2 O2 2.158184 1_555
Li2 O0 2.249550 1_544
Li2 O0 2.249550 1_454
Li3 O1 2.005718 1_655
Li3 O1 2.005718 1_565
Li3 O3 2.021775 1_556
Li3 O7 2.158184 1_555
Li3 O5 2.249550 1_566
Li3 O5 2.249550 1_656
Li4 O4 2.095409 1_455
Li4 O4 2.095409 1_545
Li4 O1 2.095409 1_545
Li4 O1 2.095409 1_455
Li4 O6 2.143689 1_555
Li4 O3 2.143689 1_445
Mn0 O0 1.960744 1_545
Mn0 O0 1.960744 1_455
Mn0 O7 1.967119 1_545
Mn0 O7 1.967119 1_455
Mn0 O5 2.207121 1_556
Mn0 O2 2.241622 1_555
Mn1 O5 1.960744 1_655
Mn1 O5 1.960744 1_565
Mn1 O2 1.967119 1_655
Mn1 O2 1.967119 1_565
Mn1 O0 2.207121 1_554
Mn1 O7 2.241622 1_555
Co0 O4 1.806043 1_555
Co0 O1 1.806043 1_554
Co0 O6 1.950148 1_654
Co0 O6 1.950148 1_564
Co0 O3 1.950148 1_545
Co0 O3 1.950148 1_455
