# generated using pymatgen
data_La8Sb2Se15
_symmetry_space_group_name_H-M   'P 1'
_cell_length_a   15.78541511
_cell_length_b   15.78541511
_cell_length_c   15.78541511
_cell_angle_alpha   96.57757150
_cell_angle_beta   116.27793134
_cell_angle_gamma   116.27793134
_symmetry_Int_Tables_number   1
_chemical_formula_structural   La8Sb2Se15
_chemical_formula_sum   'La32 Sb8 Se60'
_cell_volume   2916.98605378
_cell_formula_units_Z   4
loop_
 _symmetry_equiv_pos_site_id
 _symmetry_equiv_pos_as_xyz
  1  'x, y, z'
loop_
 _atom_site_type_symbol
 _atom_site_label
 _atom_site_symmetry_multiplicity
 _atom_site_fract_x
 _atom_site_fract_y
 _atom_site_fract_z
 _atom_site_occupancy
  La  La0  1  0.63149151  0.46897922  0.79946751  1
  La  La1  1  0.36850849  0.16797600  0.83748771  1
  La  La2  1  0.16951170  0.58748771  0.71897922  1
  La  La3  1  0.66951170  0.96897922  0.33748771  1
  La  La4  1  0.83048830  0.54946751  0.41797600  1
  La  La5  1  0.33048830  0.66797600  0.29946751  1
  La  La6  1  0.86850849  0.08748771  0.91797600  1
  La  La7  1  0.13149151  0.04946751  0.21897922  1
  La  La8  1  0.82604736  0.78218821  0.91751324  1
  La  La9  1  0.17395264  0.09146589  0.95614085  1
  La  La10  1  0.36467497  0.70614085  0.03218821  1
  La  La11  1  0.86467497  0.28218821  0.45614085  1
  La  La12  1  0.63532503  0.66751324  0.34146589  1
  La  La13  1  0.13532503  0.59146589  0.41751324  1
  La  La14  1  0.67395264  0.20614085  0.84146589  1
  La  La15  1  0.32604736  0.16751324  0.53218821  1
  La  La16  1  0.34568412  0.45808562  0.52844928  1
  La  La17  1  0.65431588  0.18276516  0.11240150  1
  La  La18  1  0.42963634  0.86240150  0.70808562  1
  La  La19  1  0.92963634  0.95808562  0.61240150  1
  La  La20  1  0.57036366  0.27844928  0.43276516  1
  La  La21  1  0.07036366  0.68276516  0.02844928  1
  La  La22  1  0.15431588  0.36240150  0.93276516  1
  La  La23  1  0.84568412  0.77844928  0.20808562  1
  La  La24  1  0.70771909  0.60172051  0.60847848  1
  La  La25  1  0.29228091  0.90075939  0.89400141  1
  La  La26  1  0.49324202  0.64400141  0.85172051  1
  La  La27  1  0.99324202  0.10172051  0.39400141  1
  La  La28  1  0.50675798  0.35847848  0.15075939  1
  La  La29  1  0.00675798  0.40075939  0.10847848  1
  La  La30  1  0.79228091  0.14400141  0.65075939  1
  La  La31  1  0.20771909  0.85847848  0.35172051  1
  Sb  Sb0  1  0.61242371  0.79924075  0.61891400  1
  Sb  Sb1  1  0.38757629  0.00649029  0.18681704  1
  Sb  Sb2  1  0.68032675  0.93681704  0.04924075  1
  Sb  Sb3  1  0.18032675  0.29924075  0.68681704  1
  Sb  Sb4  1  0.31967325  0.36891400  0.25649029  1
  Sb  Sb5  1  0.81967325  0.50649029  0.11891400  1
  Sb  Sb6  1  0.88757629  0.43681704  0.75649029  1
  Sb  Sb7  1  0.11242371  0.86891400  0.54924075  1
  Se  Se0  1  0.58765349  0.62339803  0.71808380  1
  Se  Se1  1  0.41234651  0.13043031  0.03574454  1
  Se  Se2  1  0.40531423  0.78574454  0.87339803  1
  Se  Se3  1  0.90531423  0.12339803  0.53574454  1
  Se  Se4  1  0.59468577  0.46808380  0.38043031  1
  Se  Se5  1  0.09468577  0.63043031  0.21808380  1
  Se  Se6  1  0.91234651  0.28574454  0.88043031  1
  Se  Se7  1  0.08765349  0.96808380  0.37339803  1
  Se  Se8  1  0.51202683  0.62743691  0.46184650  1
  Se  Se9  1  0.48797317  0.94981967  0.11541008  1
  Se  Se10  1  0.66559041  0.86541008  0.87743691  1
  Se  Se11  1  0.16559041  0.12743691  0.61541008  1
  Se  Se12  1  0.33440959  0.21184650  0.19981967  1
  Se  Se13  1  0.83440959  0.44981967  0.96184650  1
  Se  Se14  1  0.98797317  0.36541008  0.69981967  1
  Se  Se15  1  0.01202683  0.71184650  0.37743691  1
  Se  Se16  1  0.20057122  0.47343677  0.32828430  1
  Se  Se17  1  0.79942878  0.12771308  0.27286555  1
  Se  Se18  1  0.64515247  0.02286555  0.72343677  1
  Se  Se19  1  0.14515247  0.97343677  0.77286555  1
  Se  Se20  1  0.35484753  0.07828430  0.37771308  1
  Se  Se21  1  0.85484753  0.62771308  0.82828430  1
  Se  Se22  1  0.29942878  0.52286555  0.87771308  1
  Se  Se23  1  0.70057122  0.57828430  0.22343677  1
  Se  Se24  1  0.81715463  0.83532001  0.72662002  1
  Se  Se25  1  0.18284537  0.90946540  0.01816538  1
  Se  Se26  1  0.60869998  0.76816538  0.08532001  1
  Se  Se27  1  0.10869998  0.33532001  0.51816538  1
  Se  Se28  1  0.39130002  0.47662002  0.15946540  1
  Se  Se29  1  0.89130002  0.40946540  0.22662002  1
  Se  Se30  1  0.68284537  0.26816538  0.65946540  1
  Se  Se31  1  0.31715463  0.97662002  0.58532001  1
  Se  Se32  1  0.00000000  0.99979333  0.99979333  1
  Se  Se33  1  0.50000000  0.74979333  0.24979333  1
  Se  Se34  1  0.00000000  0.49979333  0.49979333  1
  Se  Se35  1  0.50000000  0.24979333  0.74979333  1
  Se  Se36  1  0.81015502  0.47623331  0.58903229  1
  Se  Se37  1  0.18984498  0.77887728  0.66607829  1
  Se  Se38  1  0.38720102  0.41607829  0.72623331  1
  Se  Se39  1  0.88720102  0.97623331  0.16607829  1
  Se  Se40  1  0.61279898  0.33903229  0.02887728  1
  Se  Se41  1  0.11279898  0.27887728  0.08903229  1
  Se  Se42  1  0.68984498  0.91607829  0.52887728  1
  Se  Se43  1  0.31015502  0.83903229  0.22623331  1
  Se  Se44  1  0.51037819  0.38353433  0.56038383  1
  Se  Se45  1  0.48962181  0.05000564  0.87315613  1
  Se  Se46  1  0.32315050  0.62315613  0.63353433  1
  Se  Se47  1  0.82315050  0.88353433  0.37315613  1
  Se  Se48  1  0.67684950  0.31038383  0.30000564  1
  Se  Se49  1  0.17684950  0.55000564  0.06038383  1
  Se  Se50  1  0.98962181  0.12315613  0.80000564  1
  Se  Se51  1  0.01037819  0.81038383  0.13353433  1
  Se  Se52  1  0.35326691  0.78521088  0.48132094  1
  Se  Se53  1  0.64673309  0.12805402  0.43194397  1
  Se  Se54  1  0.80388995  0.18194397  0.03521088  1
  Se  Se55  1  0.30388995  0.28521088  0.93194397  1
  Se  Se56  1  0.19611005  0.23132094  0.37805402  1
  Se  Se57  1  0.69611005  0.62805402  0.98132094  1
  Se  Se58  1  0.14673309  0.68194397  0.87805402  1
  Se  Se59  1  0.85326691  0.73132094  0.53521088  1
loop_
_geom_bond_atom_site_label_1
_geom_bond_atom_site_label_2
_geom_bond_distance
_geom_bond_site_symmetry_2
La0 Se35 2.910790 1_555
La0 Se57 3.012364 1_555
La0 Se21 3.068010 1_555
La0 Se0 3.081364 1_555
La0 Se44 3.143151 1_555
La0 Se38 3.143957 1_555
La0 Se13 3.269132 1_555
La1 Se35 2.910790 1_555
La1 Se55 3.012364 1_555
La1 Se19 3.068010 1_545
La1 Se1 3.081364 1_556
La1 Se45 3.143151 1_555
La1 Se40 3.143957 1_556
La1 Se11 3.269132 1_555
La2 Se34 2.910790 1_555
La2 Se58 3.012364 1_555
La2 Se22 3.068010 1_555
La2 Se2 3.081364 1_555
La2 Se46 3.143151 1_555
La2 Se37 3.143957 1_555
La2 Se14 3.269132 1_455
La3 Se33 2.910790 1_555
La3 Se53 3.012364 1_565
La3 Se17 3.068010 1_565
La3 Se3 3.081364 1_565
La3 Se47 3.143151 1_555
La3 Se42 3.143957 1_555
La3 Se9 3.269132 1_555
La4 Se34 2.910790 1_655
La4 Se59 3.012364 1_555
La4 Se23 3.068010 1_555
La4 Se4 3.081364 1_555
La4 Se48 3.143151 1_555
La4 Se36 3.143957 1_555
La4 Se15 3.269132 1_655
La5 Se33 2.910790 1_555
La5 Se52 3.012364 1_555
La5 Se16 3.068010 1_555
La5 Se5 3.081364 1_555
La5 Se49 3.143151 1_555
La5 Se43 3.143957 1_555
La5 Se8 3.269132 1_555
La6 Se32 2.910790 1_645
La6 Se54 3.012364 1_556
La6 Se18 3.068010 1_555
La6 Se6 3.081364 1_555
La6 Se50 3.143151 1_555
La6 Se41 3.143957 1_656
La6 Se10 3.269132 1_545
La7 Se32 2.910790 1_544
La7 Se56 3.012364 1_555
La7 Se20 3.068010 1_555
La7 Se7 3.081364 1_545
La7 Se51 3.143151 1_545
La7 Se39 3.143957 1_445
La7 Se12 3.269132 1_555
La8 Se32 2.914508 1_655
La8 Se21 2.983016 1_555
La8 Se57 3.018825 1_555
La8 Se0 3.115288 1_555
La8 Se51 3.164276 1_656
La8 Se24 3.179935 1_555
La8 Se10 3.203020 1_555
La9 Se32 2.914508 1_545
La9 Se19 2.983016 1_545
La9 Se55 3.018825 1_555
La9 Se1 3.115288 1_556
La9 Se50 3.164276 1_455
La9 Se25 3.179935 1_546
La9 Se12 3.203020 1_556
La10 Se33 2.914508 1_555
La10 Se22 2.983016 1_554
La10 Se58 3.018825 1_554
La10 Se2 3.115288 1_554
La10 Se49 3.164276 1_555
La10 Se26 3.179935 1_555
La10 Se9 3.203020 1_555
La11 Se34 2.914508 1_655
La11 Se17 2.983016 1_555
La11 Se53 3.018825 1_555
La11 Se3 3.115288 1_555
La11 Se48 3.164276 1_555
La11 Se27 3.179935 1_655
La11 Se14 3.203020 1_555
La12 Se33 2.914508 1_555
La12 Se23 2.983016 1_555
La12 Se59 3.018825 1_555
La12 Se4 3.115287 1_555
La12 Se47 3.164276 1_555
La12 Se28 3.179935 1_555
La12 Se8 3.203020 1_555
La13 Se34 2.914508 1_555
La13 Se16 2.983016 1_555
La13 Se52 3.018825 1_555
La13 Se5 3.115287 1_555
La13 Se46 3.164276 1_555
La13 Se29 3.179935 1_455
La13 Se15 3.203020 1_555
La14 Se35 2.914508 1_555
La14 Se18 2.983016 1_555
La14 Se54 3.018825 1_556
La14 Se6 3.115288 1_555
La14 Se45 3.164276 1_555
La14 Se30 3.179935 1_555
La14 Se13 3.203020 1_555
La15 Se35 2.914508 1_555
La15 Se20 2.983016 1_555
La15 Se56 3.018825 1_555
La15 Se7 3.115288 1_545
La15 Se44 3.164276 1_555
La15 Se31 3.179935 1_545
La15 Se11 3.203020 1_555
La16 Se16 3.089935 1_555
La16 Se0 3.101685 1_555
La16 Se56 3.103305 1_555
La16 Se38 3.108712 1_555
La16 Se46 3.165562 1_555
La16 Se44 3.175263 1_555
La16 Se27 3.278299 1_555
La16 Se8 3.466905 1_555
La17 Se17 3.089935 1_555
La17 Se1 3.101685 1_555
La17 Se54 3.103305 1_555
La17 Se40 3.108712 1_555
La17 Se48 3.165563 1_555
La17 Se45 3.175263 1_554
La17 Se29 3.278299 1_555
La17 Se9 3.466905 1_545
La18 Se18 3.089935 1_565
La18 Se2 3.101685 1_555
La18 Se52 3.103305 1_555
La18 Se37 3.108712 1_555
La18 Se45 3.165562 1_565
La18 Se46 3.175263 1_555
La18 Se31 3.278299 1_555
La18 Se10 3.466905 1_555
La19 Se19 3.089935 1_655
La19 Se3 3.101685 1_565
La19 Se59 3.103305 1_555
La19 Se42 3.108712 1_555
La19 Se50 3.165562 1_565
La19 Se47 3.175263 1_555
La19 Se24 3.278299 1_555
La19 Se11 3.466905 1_665
La20 Se20 3.089935 1_555
La20 Se4 3.101685 1_555
La20 Se53 3.103305 1_555
La20 Se36 3.108712 1_555
La20 Se44 3.165563 1_555
La20 Se48 3.175263 1_555
La20 Se30 3.278299 1_555
La20 Se12 3.466905 1_555
La21 Se21 3.089935 1_454
La21 Se5 3.101685 1_555
La21 Se58 3.103305 1_554
La21 Se43 3.108712 1_555
La21 Se51 3.165563 1_555
La21 Se49 3.175263 1_555
La21 Se25 3.278299 1_555
La21 Se13 3.466905 1_454
La22 Se22 3.089935 1_555
La22 Se6 3.101685 1_455
La22 Se55 3.103305 1_555
La22 Se41 3.108712 1_556
La22 Se49 3.165563 1_556
La22 Se50 3.175263 1_455
La22 Se28 3.278299 1_556
La22 Se14 3.466905 1_455
La23 Se23 3.089935 1_555
La23 Se7 3.101685 1_655
La23 Se57 3.103305 1_554
La23 Se39 3.108712 1_555
La23 Se47 3.165562 1_555
La23 Se51 3.175263 1_655
La23 Se26 3.278299 1_555
La23 Se15 3.466905 1_655
La24 Se21 3.048943 1_555
La24 Se59 3.087816 1_555
La24 Se36 3.125553 1_555
La24 Se4 3.135700 1_555
La24 Se44 3.154275 1_555
La24 Se24 3.160872 1_555
La24 Se0 3.169358 1_555
La24 Se8 3.171645 1_555
La25 Se19 3.048943 1_555
La25 Se58 3.087816 1_555
La25 Se37 3.125553 1_555
La25 Se2 3.135700 1_555
La25 Se45 3.154275 1_565
La25 Se25 3.160872 1_556
La25 Se1 3.169358 1_566
La25 Se9 3.171645 1_556
La26 Se22 3.048943 1_555
La26 Se57 3.087816 1_555
La26 Se38 3.125553 1_555
La26 Se0 3.135700 1_555
La26 Se46 3.154275 1_555
La26 Se26 3.160872 1_556
La26 Se2 3.169358 1_555
La26 Se10 3.171645 1_555
La27 Se17 3.048943 1_555
La27 Se56 3.087816 1_655
La27 Se39 3.125553 1_545
La27 Se7 3.135700 1_645
La27 Se47 3.154275 1_545
La27 Se27 3.160872 1_655
La27 Se3 3.169358 1_555
La27 Se11 3.171645 1_655
La28 Se23 3.048943 1_555
La28 Se55 3.087816 1_554
La28 Se40 3.125552 1_555
La28 Se1 3.135700 1_555
La28 Se48 3.154275 1_555
La28 Se28 3.160872 1_555
La28 Se4 3.169358 1_555
La28 Se12 3.171645 1_555
La29 Se16 3.048943 1_555
La29 Se54 3.087816 1_455
La29 Se41 3.125552 1_555
La29 Se6 3.135700 1_454
La29 Se49 3.154275 1_555
La29 Se29 3.160872 1_455
La29 Se5 3.169358 1_555
La29 Se13 3.171645 1_454
La30 Se18 3.048943 1_555
La30 Se53 3.087816 1_555
La30 Se42 3.125553 1_545
La30 Se3 3.135700 1_555
La30 Se50 3.154275 1_555
La30 Se30 3.160872 1_555
La30 Se6 3.169358 1_555
La30 Se14 3.171645 1_555
La31 Se20 3.048943 1_565
La31 Se52 3.087816 1_555
La31 Se43 3.125553 1_555
La31 Se5 3.135700 1_555
La31 Se51 3.154275 1_555
La31 Se31 3.160872 1_555
La31 Se7 3.169358 1_555
La31 Se15 3.171645 1_555
Sb0 Se24 2.634864 1_555
Sb0 Se42 2.656663 1_555
Sb0 Se8 2.681134 1_555
Sb1 Se25 2.634864 1_545
Sb1 Se43 2.656664 1_545
Sb1 Se9 2.681134 1_545
Sb2 Se26 2.634864 1_555
Sb2 Se39 2.656664 1_555
Sb2 Se10 2.681134 1_554
Sb3 Se27 2.634864 1_555
Sb3 Se38 2.656664 1_555
Sb3 Se11 2.681134 1_555
Sb4 Se28 2.634864 1_555
Sb4 Se41 2.656664 1_555
Sb4 Se12 2.681134 1_555
Sb5 Se29 2.634864 1_555
Sb5 Se40 2.656664 1_555
Sb5 Se13 2.681134 1_554
Sb6 Se30 2.634864 1_555
Sb6 Se36 2.656664 1_555
Sb6 Se14 2.681134 1_555
Sb7 Se31 2.634864 1_555
Sb7 Se37 2.656663 1_555
Sb7 Se15 2.681134 1_555
