# generated using pymatgen
data_Ba(CO2)2
_symmetry_space_group_name_H-M   'P 1'
_cell_length_a   5.01494563
_cell_length_b   9.56923573
_cell_length_c   8.94637203
_cell_angle_alpha   88.06310657
_cell_angle_beta   85.44148472
_cell_angle_gamma   78.78714291
_symmetry_Int_Tables_number   1
_chemical_formula_structural   Ba(CO2)2
_chemical_formula_sum   'Ba4 C8 O16'
_cell_volume   419.72791698
_cell_formula_units_Z   4
loop_
 _symmetry_equiv_pos_site_id
 _symmetry_equiv_pos_as_xyz
  1  'x, y, z'
loop_
 _atom_site_type_symbol
 _atom_site_label
 _atom_site_symmetry_multiplicity
 _atom_site_fract_x
 _atom_site_fract_y
 _atom_site_fract_z
 _atom_site_occupancy
  Ba  Ba0  1  0.97978600  0.73564900  0.42149000  1
  Ba  Ba1  1  0.02021400  0.26435100  0.57851000  1
  Ba  Ba2  1  0.04024200  0.25526500  0.07270400  1
  Ba  Ba3  1  0.95975800  0.74473500  0.92729600  1
  C  C0  1  0.48064500  0.55763000  0.68077100  1
  C  C1  1  0.51935500  0.44237000  0.31922900  1
  C  C2  1  0.43369600  0.44098200  0.80410900  1
  C  C3  1  0.56630400  0.55901800  0.19589100  1
  C  C4  1  0.59921600  0.00614000  0.68403300  1
  C  C5  1  0.40078400  0.99386000  0.31596700  1
  C  C6  1  0.37099000  0.98935100  0.80972400  1
  C  C7  1  0.62901000  0.01064900  0.19027600  1
  O  O0  1  0.28431800  0.66154800  0.66778900  1
  O  O1  1  0.71568200  0.33845200  0.33221100  1
  O  O2  1  0.70926400  0.53994800  0.60498900  1
  O  O3  1  0.29073600  0.46005200  0.39501100  1
  O  O4  1  0.18702000  0.44877300  0.85705600  1
  O  O5  1  0.81298000  0.55122700  0.14294400  1
  O  O6  1  0.63627700  0.35003400  0.84115600  1
  O  O7  1  0.36372300  0.64996600  0.15884400  1
  O  O8  1  0.80085000  0.90300200  0.67032100  1
  O  O9  1  0.19915000  0.09699800  0.32967900  1
  O  O10  1  0.56869600  0.12096500  0.60714900  1
  O  O11  1  0.43130400  0.87903500  0.39285100  1
  O  O12  1  0.15922700  0.08729200  0.81991400  1
  O  O13  1  0.84077300  0.91270800  0.18008600  1
  O  O14  1  0.41182200  0.87931700  0.89409600  1
  O  O15  1  0.58817800  0.12068300  0.10590400  1
loop_
_geom_bond_atom_site_label_1
_geom_bond_atom_site_label_2
_geom_bond_distance
_geom_bond_site_symmetry_2
Ba0 O13 2.748379 1_555
Ba0 O8 2.773103 1_555
Ba0 O0 2.774644 1_655
Ba0 O3 2.797687 1_655
Ba0 O11 2.852124 1_555
Ba0 O11 2.857942 1_655
Ba0 O2 2.910120 1_555
Ba0 O7 2.949215 1_655
Ba0 O5 3.350661 1_555
Ba1 O12 2.748379 1_555
Ba1 O9 2.773103 1_555
Ba1 O1 2.774644 1_455
Ba1 O2 2.797687 1_455
Ba1 O10 2.852124 1_555
Ba1 O10 2.857942 1_455
Ba1 O3 2.910120 1_555
Ba1 O6 2.949215 1_455
Ba1 O4 3.350661 1_555
Ba2 O1 2.773685 1_455
Ba2 O12 2.777146 1_554
Ba2 O4 2.784895 1_554
Ba2 O9 2.792958 1_555
Ba2 O15 2.808735 1_455
Ba2 O15 2.832869 1_555
Ba2 O5 2.909624 1_455
Ba2 O6 3.007205 1_454
Ba3 O0 2.773685 1_655
Ba3 O13 2.777146 1_556
Ba3 O5 2.784895 1_556
Ba3 O8 2.792958 1_555
Ba3 O14 2.808735 1_655
Ba3 O14 2.832869 1_555
Ba3 O4 2.909624 1_655
Ba3 O7 3.007205 1_656
C0 O0 1.265436 1_555
C0 O2 1.269457 1_555
C1 O1 1.265436 1_555
C1 O3 1.269457 1_555
C2 O6 1.260777 1_555
C2 O4 1.278141 1_555
C3 O7 1.260777 1_555
C3 O5 1.278141 1_555
C4 O10 1.266536 1_555
C4 O8 1.269628 1_545
C5 O11 1.266536 1_555
C5 O9 1.269628 1_565
C6 O14 1.267819 1_555
C6 O12 1.271926 1_565
C7 O15 1.267819 1_555
C7 O13 1.271926 1_545
