# generated using pymatgen
data_LiZr2(AsO4)3
_symmetry_space_group_name_H-M   'P 1'
_cell_length_a   9.33440264
_cell_length_b   9.33440264
_cell_length_c   9.26130627
_cell_angle_alpha   59.73856602
_cell_angle_beta   59.73856602
_cell_angle_gamma   59.99999546
_symmetry_Int_Tables_number   1
_chemical_formula_structural   LiZr2(AsO4)3
_chemical_formula_sum   'Li2 Zr4 As6 O24'
_cell_volume   568.33290011
_cell_formula_units_Z   2
loop_
 _symmetry_equiv_pos_site_id
 _symmetry_equiv_pos_as_xyz
  1  'x, y, z'
loop_
 _atom_site_type_symbol
 _atom_site_label
 _atom_site_symmetry_multiplicity
 _atom_site_fract_x
 _atom_site_fract_y
 _atom_site_fract_z
 _atom_site_occupancy
  Li  Li0  1  0.50000000  0.50000000  0.50000000  1
  Li  Li1  1  0.00000000  0.00000000  0.00000000  1
  Zr  Zr0  1  0.64039800  0.64039800  0.07880600  1
  Zr  Zr1  1  0.14039800  0.14039800  0.57880600  1
  Zr  Zr2  1  0.35960200  0.35960200  0.92119400  1
  Zr  Zr3  1  0.85960200  0.85960200  0.42119400  1
  As  As0  1  0.45674400  0.04325600  0.75000000  1
  As  As1  1  0.04325600  0.75000000  0.75000000  1
  As  As2  1  0.75000000  0.45674400  0.75000000  1
  As  As3  1  0.95674400  0.25000000  0.25000000  1
  As  As4  1  0.25000000  0.54325600  0.25000000  1
  As  As5  1  0.54325600  0.95674400  0.25000000  1
  O  O0  1  0.50281400  0.87724300  0.93483500  1
  O  O1  1  0.87724300  0.68510700  0.93483500  1
  O  O2  1  0.68510700  0.50281400  0.93483500  1
  O  O3  1  0.00281400  0.18510700  0.43483500  1
  O  O4  1  0.18510700  0.37724300  0.43483500  1
  O  O5  1  0.37724300  0.00281400  0.43483500  1
  O  O6  1  0.49718600  0.12275700  0.06516500  1
  O  O7  1  0.12275700  0.31489300  0.06516500  1
  O  O8  1  0.31489300  0.49718600  0.06516500  1
  O  O9  1  0.99718600  0.81489300  0.56516500  1
  O  O10  1  0.81489300  0.62275700  0.56516500  1
  O  O11  1  0.62275700  0.99718600  0.56516500  1
  O  O12  1  0.55426300  0.75964200  0.26824000  1
  O  O13  1  0.75964200  0.41785400  0.26824000  1
  O  O14  1  0.41785400  0.55426300  0.26824000  1
  O  O15  1  0.05426300  0.91785400  0.76824000  1
  O  O16  1  0.91785400  0.25964200  0.76824000  1
  O  O17  1  0.25964200  0.05426300  0.76824000  1
  O  O18  1  0.44573700  0.24035800  0.73176000  1
  O  O19  1  0.24035800  0.58214600  0.73176000  1
  O  O20  1  0.58214600  0.44573700  0.73176000  1
  O  O21  1  0.94573700  0.08214600  0.23176000  1
  O  O22  1  0.08214600  0.74035800  0.23176000  1
  O  O23  1  0.74035800  0.94573700  0.23176000  1
loop_
_geom_bond_atom_site_label_1
_geom_bond_atom_site_label_2
_geom_bond_distance
_geom_bond_site_symmetry_2
Li0 O12 2.371958 1_555
Li0 O18 2.371958 1_555
Li0 O19 2.371961 1_555
Li0 O13 2.371961 1_555
Li0 O14 2.371965 1_555
Li0 O20 2.371965 1_555
Li1 O17 2.371958 1_554
Li1 O23 2.371958 1_445
Li1 O22 2.371961 1_545
Li1 O16 2.371961 1_454
Li1 O15 2.371965 1_544
Li1 O21 2.371965 1_455
As0 O11 1.708371 1_545
As0 O0 1.708371 1_545
As0 O18 1.714432 1_555
As0 O17 1.714432 1_555
As1 O9 1.708369 1_455
As1 O1 1.708374 1_455
As1 O15 1.714423 1_555
As1 O19 1.714428 1_555
As2 O2 1.708369 1_555
As2 O10 1.708374 1_555
As2 O20 1.714423 1_555
As2 O16 1.714428 1_555
As3 O3 1.708369 1_655
As3 O7 1.708374 1_655
As3 O21 1.714423 1_555
As3 O13 1.714428 1_555
As4 O8 1.708369 1_555
As4 O4 1.708374 1_555
As4 O14 1.714423 1_555
As4 O22 1.714428 1_555
As5 O6 1.708371 1_565
As5 O5 1.708371 1_565
As5 O23 1.714432 1_555
As5 O12 1.714432 1_555
O0 Zr0 2.056799 1_556
O1 Zr0 2.056796 1_556
O2 Zr0 2.056803 1_556
O3 Zr1 2.056803 1_555
O4 Zr1 2.056796 1_555
O5 Zr1 2.056799 1_555
O6 Zr2 2.056799 1_554
O7 Zr2 2.056796 1_554
O8 Zr2 2.056803 1_554
O9 Zr3 2.056803 1_555
O10 Zr3 2.056796 1_555
O11 Zr3 2.056799 1_555
O12 Zr0 2.148225 1_555
O13 Zr0 2.148227 1_555
O14 Zr0 2.148232 1_555
O15 Zr1 2.148232 1_565
O16 Zr1 2.148227 1_655
O17 Zr1 2.148225 1_555
O18 Zr2 2.148225 1_555
O19 Zr2 2.148227 1_555
O20 Zr2 2.148232 1_555
O21 Zr3 2.148232 1_545
O22 Zr3 2.148227 1_455
O23 Zr3 2.148225 1_555
