# generated using pymatgen
data_SrMg14Si
_symmetry_space_group_name_H-M   'P 1'
_cell_length_a   6.55774796
_cell_length_b   6.33731955
_cell_length_c   10.46641678
_cell_angle_alpha   90.00000000
_cell_angle_beta   90.00000000
_cell_angle_gamma   118.89417449
_symmetry_Int_Tables_number   1
_chemical_formula_structural   SrMg14Si
_chemical_formula_sum   'Sr1 Mg14 Si1'
_cell_volume   380.82134138
_cell_formula_units_Z   1
loop_
 _symmetry_equiv_pos_site_id
 _symmetry_equiv_pos_as_xyz
  1  'x, y, z'
loop_
 _atom_site_type_symbol
 _atom_site_label
 _atom_site_symmetry_multiplicity
 _atom_site_fract_x
 _atom_site_fract_y
 _atom_site_fract_z
 _atom_site_occupancy
  Sr  Sr0  1  0.14967965  0.82483932  0.12500000  1
  Mg  Mg0  1  0.15854381  0.32927140  0.62500000  1
  Mg  Mg1  1  0.16739254  0.83369577  0.62500000  1
  Mg  Mg2  1  0.64206794  0.33125788  0.12500000  1
  Mg  Mg3  1  0.66470599  0.32701229  0.62500000  1
  Mg  Mg4  1  0.64206794  0.81080906  0.12500000  1
  Mg  Mg5  1  0.66470599  0.83769271  0.62500000  1
  Mg  Mg6  1  0.33865162  0.17572402  0.38340607  1
  Mg  Mg7  1  0.33865162  0.17572402  0.86659393  1
  Mg  Mg8  1  0.33865162  0.66292860  0.38340607  1
  Mg  Mg9  1  0.33865162  0.66292860  0.86659393  1
  Mg  Mg10  1  0.84713172  0.17356636  0.35736856  1
  Mg  Mg11  1  0.84713172  0.17356636  0.89263144  1
  Mg  Mg12  1  0.82829382  0.66414741  0.39020739  1
  Mg  Mg13  1  0.82829382  0.66414741  0.85979261  1
  Si  Si0  1  0.20537857  0.35268878  0.12500000  1
loop_
_geom_bond_atom_site_label_1
_geom_bond_atom_site_label_2
_geom_bond_distance
_geom_bond_site_symmetry_2
Mg0 Mg6 3.137912 1_555
Mg0 Mg7 3.137912 1_555
Mg0 Mg8 3.137918 1_555
Mg0 Mg9 3.137918 1_555
Mg0 Mg1 3.169067 1_545
Mg0 Mg1 3.169067 1_555
Mg0 Mg5 3.231570 1_445
Mg0 Mg3 3.231571 1_455
Mg0 Mg10 3.323120 1_455
Mg0 Mg11 3.323120 1_455
Mg0 Mg5 3.326225 1_555
Mg0 Mg3 3.326225 1_555
Mg1 Mg12 3.135191 1_455
Mg1 Mg13 3.135191 1_455
Mg1 Mg8 3.162427 1_555
Mg1 Mg9 3.162427 1_555
Mg1 Mg6 3.162433 1_565
Mg1 Mg7 3.162433 1_565
Mg1 Mg3 3.249092 1_565
Mg1 Mg5 3.249093 1_555
Mg1 Mg3 3.308805 1_455
Mg1 Mg5 3.308805 1_455
Mg2 Si0 2.931736 1_555
Mg2 Mg4 3.039069 1_555
Mg2 Mg7 3.217150 1_554
Mg2 Mg6 3.217150 1_555
Mg2 Sr0 3.272847 1_545
Mg2 Sr0 3.286749 1_655
Mg2 Mg4 3.298250 1_545
Mg3 Mg5 3.100975 1_545
Mg3 Mg6 3.147043 1_555
Mg3 Mg7 3.147043 1_555
Mg3 Mg5 3.236345 1_555
Mg4 Si0 2.931736 1_555
Mg4 Mg9 3.217150 1_554
Mg4 Mg8 3.217150 1_555
Mg4 Sr0 3.272847 1_555
Mg4 Sr0 3.286749 1_655
Mg5 Mg8 3.147043 1_555
Mg5 Mg9 3.147043 1_555
Mg6 Mg8 3.087571 1_555
Mg6 Si0 3.206794 1_555
Mg6 Mg8 3.249748 1_545
Mg6 Sr0 3.336490 1_545
Mg7 Mg9 3.087571 1_555
Mg7 Si0 3.206794 1_556
Mg7 Mg9 3.249748 1_545
Mg7 Sr0 3.336490 1_546
Mg8 Si0 3.206800 1_555
Mg8 Sr0 3.336484 1_555
Mg9 Si0 3.206800 1_556
Mg9 Sr0 3.336484 1_556
Mg10 Mg2 3.165549 1_555
Mg10 Mg4 3.165555 1_545
Mg10 Si0 3.185204 1_655
Mg10 Mg12 3.189081 1_545
Mg10 Mg12 3.189081 1_555
Mg10 Mg8 3.228202 1_655
Mg10 Mg6 3.228202 1_655
Mg10 Mg8 3.352208 1_545
Mg10 Mg6 3.352209 1_555
Mg10 Mg3 3.368589 1_555
Mg10 Mg5 3.368595 1_545
Mg11 Mg2 3.165549 1_556
Mg11 Mg4 3.165555 1_546
Mg11 Si0 3.185204 1_656
Mg11 Mg13 3.189081 1_545
Mg11 Mg13 3.189081 1_555
Mg11 Mg9 3.228202 1_655
Mg11 Mg7 3.228202 1_655
Mg11 Mg9 3.352208 1_545
Mg11 Mg7 3.352209 1_555
Mg11 Mg3 3.368589 1_555
Mg11 Mg5 3.368595 1_545
Mg12 Mg5 3.088624 1_555
Mg12 Mg3 3.088631 1_555
Mg12 Mg6 3.208015 1_555
Mg12 Mg8 3.208015 1_555
Mg12 Sr0 3.333119 1_655
Mg12 Mg4 3.340218 1_555
Mg12 Mg2 3.340223 1_555
Mg12 Mg6 3.351293 1_665
Mg12 Mg8 3.351293 1_655
Mg13 Mg5 3.088624 1_555
Mg13 Mg3 3.088631 1_555
Mg13 Mg7 3.208015 1_555
Mg13 Mg9 3.208015 1_555
Mg13 Sr0 3.333119 1_656
Mg13 Mg4 3.340218 1_556
Mg13 Mg2 3.340223 1_556
Mg13 Mg7 3.351293 1_665
Mg13 Mg9 3.351293 1_655
Si0 Sr0 3.184756 1_545
Si0 Sr0 3.184756 1_555
