# generated using pymatgen
data_PrB7IO15
_symmetry_space_group_name_H-M   'P 1'
_cell_length_a   17.37477800
_cell_length_b   8.20601700
_cell_length_c   12.86933346
_cell_angle_alpha   50.67628476
_cell_angle_beta   90.00000000
_cell_angle_gamma   90.00000000
_symmetry_Int_Tables_number   1
_chemical_formula_structural   PrB7IO15
_chemical_formula_sum   'Pr4 B28 I4 O60'
_cell_volume   1419.42297498
_cell_formula_units_Z   4
loop_
 _symmetry_equiv_pos_site_id
 _symmetry_equiv_pos_as_xyz
  1  'x, y, z'
loop_
 _atom_site_type_symbol
 _atom_site_label
 _atom_site_symmetry_multiplicity
 _atom_site_fract_x
 _atom_site_fract_y
 _atom_site_fract_z
 _atom_site_occupancy
  Pr  Pr0  1  0.79546700  0.44411800  0.74980300  1
  Pr  Pr1  1  0.70453300  0.44411800  0.24980300  1
  Pr  Pr2  1  0.20453300  0.55588200  0.25019700  1
  Pr  Pr3  1  0.29546700  0.55588200  0.75019700  1
  B  B0  1  0.91649600  0.09253300  0.21543400  1
  B  B1  1  0.58350400  0.09253300  0.71543400  1
  B  B2  1  0.08350400  0.90746700  0.78456600  1
  B  B3  1  0.41649600  0.90746700  0.28456600  1
  B  B4  1  0.80536900  0.93087400  0.36602700  1
  B  B5  1  0.69463100  0.93087400  0.86602700  1
  B  B6  1  0.19463100  0.06912600  0.63397300  1
  B  B7  1  0.30536900  0.06912600  0.13397300  1
  B  B8  1  0.79797000  0.84822800  0.74888900  1
  B  B9  1  0.70203000  0.84822800  0.24888900  1
  B  B10  1  0.20203000  0.15177200  0.25111100  1
  B  B11  1  0.29797000  0.15177200  0.75111100  1
  B  B12  1  0.78874000  0.19213200  0.10951100  1
  B  B13  1  0.71126000  0.19213200  0.60951100  1
  B  B14  1  0.21126000  0.80786800  0.89048900  1
  B  B15  1  0.28874000  0.80786800  0.39048900  1
  B  B16  1  0.75043500  0.56931700  0.47663900  1
  B  B17  1  0.74956500  0.56931700  0.97663900  1
  B  B18  1  0.24956500  0.43068300  0.52336100  1
  B  B19  1  0.25043500  0.43068300  0.02336100  1
  B  B20  1  0.94390100  0.91541700  0.72761400  1
  B  B21  1  0.55609900  0.91541700  0.22761400  1
  B  B22  1  0.05609900  0.08458300  0.27238600  1
  B  B23  1  0.44390100  0.08458300  0.77238600  1
  B  B24  1  0.72792200  0.03990000  0.00779200  1
  B  B25  1  0.77207800  0.03990000  0.50779200  1
  B  B26  1  0.27207800  0.96010000  0.99220800  1
  B  B27  1  0.22792200  0.96010000  0.49220800  1
  I  I0  1  0.57570200  0.67178300  0.65639800  1
  I  I1  1  0.92429800  0.67178300  0.15639800  1
  I  I2  1  0.42429800  0.32821700  0.34360200  1
  I  I3  1  0.07570200  0.32821700  0.84360200  1
  O  O0  1  0.87036300  0.90162600  0.77132400  1
  O  O1  1  0.62963700  0.90162600  0.27132400  1
  O  O2  1  0.12963700  0.09837400  0.22867600  1
  O  O3  1  0.37036300  0.09837400  0.72867600  1
  O  O4  1  0.78427300  0.71391800  0.48360800  1
  O  O5  1  0.71572700  0.71391800  0.98360800  1
  O  O6  1  0.21572700  0.28608200  0.51639200  1
  O  O7  1  0.28427300  0.28608200  0.01639200  1
  O  O8  1  0.75810900  0.20537600  0.99720600  1
  O  O9  1  0.74189100  0.20537600  0.49720600  1
  O  O10  1  0.24189100  0.79462400  0.00279400  1
  O  O11  1  0.25810900  0.79462400  0.50279400  1
  O  O12  1  0.73631500  0.98640200  0.74149200  1
  O  O13  1  0.76368500  0.98640200  0.24149200  1
  O  O14  1  0.26368500  0.01359800  0.25850800  1
  O  O15  1  0.23631500  0.01359800  0.75850800  1
  O  O16  1  0.79358900  0.85696600  0.62993300  1
  O  O17  1  0.70641100  0.85696600  0.12993300  1
  O  O18  1  0.20641100  0.14303400  0.37006700  1
  O  O19  1  0.29358900  0.14303400  0.87006700  1
  O  O20  1  0.99464800  0.11998400  0.19335200  1
  O  O21  1  0.50535200  0.11998400  0.69335200  1
  O  O22  1  0.00535200  0.88001600  0.80664800  1
  O  O23  1  0.49464800  0.88001600  0.30664800  1
  O  O24  1  0.87042200  0.20924700  0.10340100  1
  O  O25  1  0.62957800  0.20924700  0.60340100  1
  O  O26  1  0.12957800  0.79075300  0.89659900  1
  O  O27  1  0.37042200  0.79075300  0.39659900  1
  O  O28  1  0.88619000  0.95386900  0.34246400  1
  O  O29  1  0.61381000  0.95386900  0.84246400  1
  O  O30  1  0.11381000  0.04613100  0.65753600  1
  O  O31  1  0.38619000  0.04613100  0.15753600  1
  O  O32  1  0.74780800  0.36903800  0.59837200  1
  O  O33  1  0.75219200  0.36903800  0.09837200  1
  O  O34  1  0.25219200  0.63096200  0.40162800  1
  O  O35  1  0.24780800  0.63096200  0.90162800  1
  O  O36  1  0.96779300  0.50421300  0.75902500  1
  O  O37  1  0.53220700  0.50421300  0.25902500  1
  O  O38  1  0.03220700  0.49578700  0.24097500  1
  O  O39  1  0.46779300  0.49578700  0.74097500  1
  O  O40  1  0.77861300  0.62321200  0.85976400  1
  O  O41  1  0.72138700  0.62321200  0.35976400  1
  O  O42  1  0.22138700  0.37678800  0.14023600  1
  O  O43  1  0.27861300  0.37678800  0.64023600  1
  O  O44  1  0.88814700  0.19537400  0.84001200  1
  O  O45  1  0.61185300  0.19537400  0.34001200  1
  O  O46  1  0.11185300  0.80462600  0.15998800  1
  O  O47  1  0.38814700  0.80462600  0.65998800  1
  O  O48  1  0.72472500  0.07920000  0.88704000  1
  O  O49  1  0.77527500  0.07920000  0.38704000  1
  O  O50  1  0.27527500  0.92080000  0.11296000  1
  O  O51  1  0.22472500  0.92080000  0.61296000  1
  O  O52  1  0.93739600  0.52160800  0.65941300  1
  O  O53  1  0.56260400  0.52160800  0.15941300  1
  O  O54  1  0.06260400  0.47839200  0.34058700  1
  O  O55  1  0.43739600  0.47839200  0.84058700  1
  O  O56  1  0.95261800  0.95655600  0.60816500  1
  O  O57  1  0.54738200  0.95655600  0.10816500  1
  O  O58  1  0.04738200  0.04344400  0.39183500  1
  O  O59  1  0.45261800  0.04344400  0.89183500  1
loop_
_geom_bond_atom_site_label_1
_geom_bond_atom_site_label_2
_geom_bond_distance
_geom_bond_site_symmetry_2
B0 O24 1.373595 1_555
B0 O28 1.373667 1_545
B0 O20 1.376296 1_555
B1 O25 1.373595 1_555
B1 O29 1.373667 1_545
B1 O21 1.376296 1_555
B2 O26 1.373595 1_555
B2 O30 1.373667 1_565
B2 O22 1.376296 1_555
B3 O27 1.373595 1_555
B3 O31 1.373667 1_565
B3 O23 1.376296 1_555
B4 O28 1.423710 1_555
B4 O4 1.476259 1_555
B4 O49 1.498395 1_565
B4 O13 1.541167 1_555
B5 O29 1.423710 1_555
B5 O5 1.476259 1_555
B5 O48 1.498395 1_565
B5 O12 1.541167 1_555
B6 O30 1.423710 1_555
B6 O6 1.476259 1_555
B6 O51 1.498395 1_545
B6 O15 1.541167 1_555
B7 O31 1.423710 1_555
B7 O7 1.476259 1_555
B7 O50 1.498395 1_545
B7 O14 1.541167 1_555
B8 O0 1.420494 1_555
B8 O16 1.488428 1_555
B8 O40 1.489755 1_555
B8 O12 1.518373 1_555
B9 O1 1.420494 1_555
B9 O17 1.488428 1_555
B9 O41 1.489755 1_555
B9 O13 1.518373 1_555
B10 O2 1.420494 1_555
B10 O18 1.488428 1_555
B10 O42 1.489755 1_555
B10 O14 1.518373 1_555
B11 O3 1.420494 1_555
B11 O19 1.488428 1_555
B11 O43 1.489755 1_555
B11 O15 1.518373 1_555
B12 O24 1.423397 1_555
B12 O8 1.478121 1_554
B12 O33 1.505808 1_555
B12 O13 1.513377 1_545
B13 O25 1.423397 1_555
B13 O9 1.478121 1_555
B13 O32 1.505808 1_555
B13 O12 1.513377 1_545
B14 O26 1.423397 1_555
B14 O10 1.478121 1_556
B14 O35 1.505808 1_555
B14 O15 1.513377 1_565
B15 O27 1.423397 1_555
B15 O11 1.478121 1_555
B15 O34 1.505808 1_555
B15 O14 1.513377 1_565
B16 O41 1.367319 1_555
B16 O32 1.376312 1_555
B16 O4 1.377170 1_555
B17 O40 1.367319 1_555
B17 O33 1.376312 1_556
B17 O5 1.377170 1_555
B18 O43 1.367319 1_555
B18 O34 1.376312 1_555
B18 O6 1.377170 1_555
B19 O42 1.367319 1_555
B19 O35 1.376312 1_554
B19 O7 1.377170 1_555
B20 O56 1.357299 1_555
B20 O0 1.371527 1_555
B20 O22 1.372738 1_655
B21 O57 1.357299 1_555
B21 O1 1.371527 1_555
B21 O23 1.372738 1_555
B22 O58 1.357299 1_555
B22 O2 1.371527 1_555
B22 O20 1.372738 1_455
B23 O59 1.357299 1_555
B23 O3 1.371527 1_555
B23 O21 1.372738 1_555
B24 O17 1.368704 1_545
B24 O48 1.373619 1_554
B24 O8 1.379522 1_554
B25 O16 1.368704 1_545
B25 O49 1.373619 1_555
B25 O9 1.379522 1_555
B26 O19 1.368704 1_565
B26 O50 1.373619 1_556
B26 O10 1.379522 1_556
B27 O18 1.368704 1_565
B27 O51 1.373619 1_555
B27 O11 1.379522 1_555
I0 O39 2.189390 1_555
I1 O38 2.189390 1_655
I2 O37 2.189390 1_555
I3 O36 2.189390 1_455
O4 Pr0 2.657563 1_555
O5 Pr1 2.657563 1_556
O6 Pr2 2.657563 1_555
O7 Pr3 2.657563 1_554
O8 Pr0 2.547769 1_555
O9 Pr1 2.547769 1_555
O10 Pr2 2.547769 1_555
O11 Pr3 2.547769 1_555
O16 Pr0 2.689707 1_555
O17 Pr1 2.689707 1_555
O18 Pr2 2.689707 1_555
O19 Pr3 2.689707 1_555
O32 Pr0 2.526838 1_555
O33 Pr1 2.526838 1_555
O34 Pr2 2.526838 1_555
O35 Pr3 2.526838 1_555
O36 O52 1.307960 1_555
O37 O53 1.307960 1_555
O38 O54 1.307960 1_555
O39 O55 1.307960 1_555
O40 Pr0 2.623749 1_555
O41 Pr1 2.623749 1_555
O42 Pr2 2.623749 1_555
O43 Pr3 2.623749 1_555
O44 Pr0 2.259192 1_555
O45 Pr1 2.259192 1_555
O46 Pr2 2.259192 1_555
O47 Pr3 2.259192 1_555
O48 Pr0 2.625681 1_555
O49 Pr1 2.625681 1_555
O50 Pr2 2.625681 1_555
O51 Pr3 2.625681 1_555
O52 Pr0 2.626996 1_555
O53 Pr1 2.626996 1_555
O54 Pr2 2.626996 1_555
O55 Pr3 2.626996 1_555
