# generated using pymatgen
data_As16S17
_symmetry_space_group_name_H-M   'P 1'
_cell_length_a   7.82449036
_cell_length_b   7.78444286
_cell_length_c   19.92979246
_cell_angle_alpha   84.55086152
_cell_angle_beta   82.43013278
_cell_angle_gamma   88.19153478
_symmetry_Int_Tables_number   1
_chemical_formula_structural   As16S17
_chemical_formula_sum   'As16 S17'
_cell_volume   1197.66921524
_cell_formula_units_Z   1
loop_
 _symmetry_equiv_pos_site_id
 _symmetry_equiv_pos_as_xyz
  1  'x, y, z'
loop_
 _atom_site_type_symbol
 _atom_site_label
 _atom_site_symmetry_multiplicity
 _atom_site_fract_x
 _atom_site_fract_y
 _atom_site_fract_z
 _atom_site_occupancy
  As  As0  1  0.19069400  0.77698700  0.03734900  1
  As  As1  1  0.22669900  0.80174000  0.20951300  1
  As  As2  1  0.19098100  0.77751100  0.53785500  1
  As  As3  1  0.24788900  0.47950300  0.17627900  1
  As  As4  1  0.22636900  0.80153000  0.71005300  1
  As  As5  1  0.24942800  0.47960500  0.67663400  1
  As  As6  1  0.51250900  0.30760800  0.41525500  1
  As  As7  1  0.51455900  0.75564500  0.06155200  1
  As  As8  1  0.46935600  0.25840300  0.92627600  1
  As  As9  1  0.51528100  0.75780200  0.56244300  1
  As  As10  1  0.68864100  0.55242300  0.34781200  1
  As  As11  1  0.78249200  0.12806600  0.28137800  1
  As  As12  1  0.79833200  0.21984500  0.45964000  1
  As  As13  1  0.73645400  0.60932000  0.83575600  1
  As  As14  1  0.77844800  0.13754400  0.78272000  1
  As  As15  1  0.78143800  0.23476300  0.95930100  1
  S  S0  1  0.07840300  0.92086200  0.12668500  1
  S  S1  1  0.10184100  0.51627200  0.08542700  1
  S  S2  1  0.07863900  0.92138600  0.62715600  1
  S  S3  1  0.10330800  0.51664400  0.58569200  1
  S  S4  1  0.50480800  0.13225400  0.33467400  1
  S  S5  1  0.48645200  0.89083800  0.15807100  1
  S  S6  1  0.51231400  0.48798000  0.11504700  1
  S  S7  1  0.46426300  0.53715000  0.88262900  1
  S  S8  1  0.50287500  0.10452900  0.83473000  1
  S  S9  1  0.48589500  0.89258900  0.65902100  1
  S  S10  1  0.51349300  0.48966900  0.61513100  1
  S  S11  1  0.80849600  0.41829600  0.25686000  1
  S  S12  1  0.80929200  0.42659000  0.75309700  1
  S  S13  1  0.87069800  0.50251200  0.42906200  1
  S  S14  1  0.91936800  0.06419200  0.37477100  1
  S  S15  1  0.87337400  0.50488400  0.92519600  1
  S  S16  1  0.90801000  0.07195700  0.87793300  1
loop_
_geom_bond_atom_site_label_1
_geom_bond_atom_site_label_2
_geom_bond_distance
_geom_bond_site_symmetry_2
As0 S1 2.250472 1_555
As0 S0 2.258494 1_555
As1 S5 2.251191 1_555
As1 S0 2.253276 1_555
As2 S3 2.247487 1_555
As2 S2 2.258055 1_555
As3 S1 2.256631 1_555
As3 S6 2.258850 1_555
As4 S9 2.251716 1_555
As4 S2 2.253545 1_555
As5 S3 2.258584 1_555
As5 S10 2.258843 1_555
As6 S4 2.212035 1_555
As7 S6 2.248094 1_555
As7 S5 2.261544 1_555
As8 S8 2.258651 1_555
As8 S7 2.260947 1_555
As9 S10 2.245263 1_555
As9 S9 2.260594 1_555
As10 S11 2.259451 1_555
As10 S13 2.292511 1_555
As11 S14 2.274756 1_555
As11 S11 2.275446 1_555
As11 S4 2.290006 1_555
As12 S14 2.262901 1_555
As12 S13 2.294956 1_555
As13 S15 2.271342 1_555
As13 S7 2.275041 1_555
As13 S12 2.282224 1_555
As14 S16 2.275813 1_555
As14 S8 2.277121 1_555
As14 S12 2.283421 1_555
As15 S15 2.257474 1_555
As15 S16 2.259362 1_555
