# generated using pymatgen
data_CeP2(NO4)2
_symmetry_space_group_name_H-M   'P 1'
_cell_length_a   10.54294238
_cell_length_b   10.54294238
_cell_length_c   10.54294238
_cell_angle_alpha   141.96292892
_cell_angle_beta   141.96292892
_cell_angle_gamma   54.88464468
_symmetry_Int_Tables_number   1
_chemical_formula_structural   CeP2(NO4)2
_chemical_formula_sum   'Ce2 P4 N4 O16'
_cell_volume   441.77505849
_cell_formula_units_Z   2
loop_
 _symmetry_equiv_pos_site_id
 _symmetry_equiv_pos_as_xyz
  1  'x, y, z'
loop_
 _atom_site_type_symbol
 _atom_site_label
 _atom_site_symmetry_multiplicity
 _atom_site_fract_x
 _atom_site_fract_y
 _atom_site_fract_z
 _atom_site_occupancy
  Ce  Ce0  1  0.75000000  0.25000000  0.50000000  1
  Ce  Ce1  1  0.00000000  0.00000000  0.00000000  1
  P  P0  1  0.56851100  0.06851100  0.50000000  1
  P  P1  1  0.18148900  0.18148900  0.00000000  1
  P  P2  1  0.93148900  0.43148900  0.50000000  1
  P  P3  1  0.81851100  0.81851100  0.00000000  1
  N  N0  1  0.87500000  0.62500000  0.25000000  1
  N  N1  1  0.37500000  0.62500000  0.75000000  1
  N  N2  1  0.37500000  0.62500000  0.25000000  1
  N  N3  1  0.37500000  0.12500000  0.75000000  1
  O  O0  1  0.70841900  0.37229700  0.33612200  1
  O  O1  1  0.04158100  0.87770300  0.16387800  1
  O  O2  1  0.71382400  0.87770300  0.83612200  1
  O  O3  1  0.03617600  0.37229700  0.66387800  1
  O  O4  1  0.62770300  0.29158100  0.66387800  1
  O  O5  1  0.12229700  0.28617600  0.16387800  1
  O  O6  1  0.12229700  0.95841900  0.83612200  1
  O  O7  1  0.62770300  0.96382400  0.33612200  1
  O  O8  1  0.40961900  0.22887800  0.18074100  1
  O  O9  1  0.34038100  0.02112200  0.31925900  1
  O  O10  1  0.70186300  0.02112200  0.68074100  1
  O  O11  1  0.04813700  0.22887800  0.81925900  1
  O  O12  1  0.77112200  0.59038100  0.81925900  1
  O  O13  1  0.97887800  0.29813700  0.31925900  1
  O  O14  1  0.97887800  0.65961900  0.68074100  1
  O  O15  1  0.77112200  0.95186300  0.18074100  1
loop_
_geom_bond_atom_site_label_1
_geom_bond_atom_site_label_2
_geom_bond_distance
_geom_bond_site_symmetry_2
Ce0 O15 2.229062 1_545
Ce0 O12 2.229062 1_555
Ce0 O8 2.229062 1_555
Ce0 O11 2.229062 1_655
Ce0 O4 2.550600 1_555
Ce0 O0 2.550600 1_555
Ce0 O7 2.550610 1_545
Ce0 O3 2.550610 1_655
Ce1 O14 2.229062 1_444
Ce1 O10 2.229062 1_454
Ce1 O9 2.229062 1_555
Ce1 O13 2.229062 1_455
Ce1 O1 2.550600 1_545
Ce1 O6 2.550600 1_544
Ce1 O5 2.550610 1_555
Ce1 O2 2.550610 1_444
O0 P2 1.579542 1_555
O1 P3 1.579542 1_455
O2 P3 1.579538 1_556
O3 P2 1.579538 1_455
O4 P0 1.579542 1_555
O5 P1 1.579538 1_555
O6 P1 1.579542 1_566
O7 P0 1.579538 1_565
O8 P1 1.526045 1_555
O9 P0 1.526045 1_555
O10 P0 1.526045 1_555
O11 P1 1.526045 1_556
O12 P3 1.526045 1_556
O13 P2 1.526045 1_555
O14 P2 1.526045 1_555
O15 P3 1.526045 1_555
