# generated using pymatgen
data_Sr2Cu2BiO7
_symmetry_space_group_name_H-M   'P 1'
_cell_length_a   14.24332192
_cell_length_b   14.24332192
_cell_length_c   14.24332192
_cell_angle_alpha   159.25775637
_cell_angle_beta   159.06803414
_cell_angle_gamma   29.63552964
_symmetry_Int_Tables_number   1
_chemical_formula_structural   Sr2Cu2BiO7
_chemical_formula_sum   'Sr4 Cu4 Bi2 O14'
_cell_volume   365.40447016
_cell_formula_units_Z   2
loop_
 _symmetry_equiv_pos_site_id
 _symmetry_equiv_pos_as_xyz
  1  'x, y, z'
loop_
 _atom_site_type_symbol
 _atom_site_label
 _atom_site_symmetry_multiplicity
 _atom_site_fract_x
 _atom_site_fract_y
 _atom_site_fract_z
 _atom_site_occupancy
  Sr  Sr0  1  0.64138200  0.61772300  0.97671500  1
  Sr  Sr1  1  0.35861800  0.33533300  0.97634100  1
  Sr  Sr2  1  0.14100800  0.11772300  0.97634100  1
  Sr  Sr3  1  0.85899200  0.83533300  0.97671500  1
  Cu  Cu0  1  0.56158300  0.03878800  0.47855000  1
  Cu  Cu1  1  0.43841700  0.91696600  0.47720500  1
  Cu  Cu2  1  0.06023900  0.53878800  0.47720500  1
  Cu  Cu3  1  0.93976100  0.41696600  0.47855000  1
  Bi  Bi0  1  0.23831900  0.75091700  0.48923600  1
  Bi  Bi1  1  0.76168100  0.25091700  0.51259800  1
  O  O0  1  0.81852200  0.67849800  0.99701900  1
  O  O1  1  0.18147800  0.17849800  0.85997600  1
  O  O2  1  0.32601400  0.30271700  0.47863800  1
  O  O3  1  0.67398600  0.15262400  0.97670300  1
  O  O4  1  0.32407900  0.80271700  0.97670300  1
  O  O5  1  0.67592100  0.65262400  0.47863800  1
  O  O6  1  0.82538700  0.80267400  0.47686900  1
  O  O7  1  0.17461300  0.65148200  0.97728700  1
  O  O8  1  0.82580500  0.30267400  0.97728700  1
  O  O9  1  0.17419500  0.15148200  0.47686900  1
  O  O10  1  0.17703400  0.64487300  0.48047000  1
  O  O11  1  0.82296600  0.30343600  0.46783800  1
  O  O12  1  0.66440200  0.14487300  0.46783800  1
  O  O13  1  0.33559800  0.80343600  0.48047000  1
loop_
_geom_bond_atom_site_label_1
_geom_bond_atom_site_label_2
_geom_bond_distance
_geom_bond_site_symmetry_2
Cu0 O2 1.860682 1_555
Cu0 O8 1.861215 1_555
Cu0 O6 1.865359 1_545
Cu0 O4 1.869106 1_544
Cu1 O3 1.860679 1_565
Cu1 O9 1.861215 1_565
Cu1 O7 1.865356 1_554
Cu1 O5 1.869099 1_555
Cu2 O4 1.860679 1_555
Cu2 O6 1.861215 1_455
Cu2 O8 1.865356 1_454
Cu2 O2 1.869099 1_555
Cu3 O5 1.860676 1_555
Cu3 O7 1.861209 1_655
Cu3 O9 1.865353 1_655
Cu3 O3 1.869100 1_554
Bi0 O10 2.189647 1_555
Bi0 O13 2.189661 1_555
Bi0 O0 2.203823 1_454
Bi0 O1 2.212387 1_565
Bi1 O12 2.189647 1_555
Bi1 O11 2.189661 1_555
Bi1 O1 2.203820 1_655
Bi1 O0 2.212384 1_555
O0 Sr3 3.027229 1_555
O0 Sr0 3.027257 1_555
O1 Sr2 3.027243 1_555
O1 Sr1 3.027243 1_555
O2 Sr0 2.571062 1_555
O2 Sr2 2.581924 1_554
O3 Sr1 2.571062 1_555
O3 Sr3 2.581924 1_545
O4 Sr2 2.571062 1_565
O4 Sr0 2.581924 1_555
O5 Sr3 2.571062 1_555
O5 Sr1 2.581924 1_554
O6 Sr2 2.563971 1_665
O6 Sr0 2.565701 1_554
O7 Sr3 2.563971 1_455
O7 Sr1 2.565701 1_555
O8 Sr0 2.563971 1_555
O8 Sr2 2.565701 1_655
O9 Sr1 2.563971 1_555
O9 Sr3 2.565701 1_444
O10 Sr2 2.678561 1_554
O10 Sr0 2.681857 1_555
O10 Sr2 2.701764 1_565
O10 Sr0 2.742364 1_454
O11 Sr3 2.678554 1_544
O11 Sr1 2.681850 1_554
O11 Sr3 2.701763 1_555
O11 Sr1 2.742363 1_655
O12 Sr0 2.678561 1_544
O12 Sr2 2.681852 1_554
O12 Sr0 2.701764 1_555
O12 Sr2 2.742369 1_655
O13 Sr1 2.678554 1_554
O13 Sr3 2.681850 1_555
O13 Sr1 2.701763 1_565
O13 Sr3 2.742363 1_454
