# generated using pymatgen
data_PrH18(BrO6)3
_symmetry_space_group_name_H-M   'P 1'
_cell_length_a   12.03973803
_cell_length_b   12.03973803
_cell_length_c   6.85573100
_cell_angle_alpha   90.00000000
_cell_angle_beta   90.00000000
_cell_angle_gamma   120.00000018
_symmetry_Int_Tables_number   1
_chemical_formula_structural   PrH18(BrO6)3
_chemical_formula_sum   'Pr2 H36 Br6 O36'
_cell_volume   860.63395086
_cell_formula_units_Z   2
loop_
 _symmetry_equiv_pos_site_id
 _symmetry_equiv_pos_as_xyz
  1  'x, y, z'
loop_
 _atom_site_type_symbol
 _atom_site_label
 _atom_site_symmetry_multiplicity
 _atom_site_fract_x
 _atom_site_fract_y
 _atom_site_fract_z
 _atom_site_occupancy
  Pr  Pr0  1  0.66666700  0.33333300  0.74934200  1
  Pr  Pr1  1  0.33333300  0.66666700  0.24934200  1
  H  H0  1  0.62896200  0.12639600  0.42991900  1
  H  H1  1  0.49743400  0.37103800  0.42991900  1
  H  H2  1  0.87360400  0.50256600  0.42991900  1
  H  H3  1  0.49743400  0.12639600  0.42991900  1
  H  H4  1  0.87360400  0.37103800  0.42991900  1
  H  H5  1  0.62896200  0.50256600  0.42991900  1
  H  H6  1  0.37096200  0.87344800  0.57019100  1
  H  H7  1  0.50248500  0.62903800  0.57019100  1
  H  H8  1  0.12655200  0.49751500  0.57019100  1
  H  H9  1  0.50248500  0.87344800  0.57019100  1
  H  H10  1  0.12655200  0.62903800  0.57019100  1
  H  H11  1  0.37096200  0.49751500  0.57019100  1
  H  H12  1  0.37103800  0.87360400  0.92991900  1
  H  H13  1  0.50256600  0.62896200  0.92991900  1
  H  H14  1  0.12639600  0.49743400  0.92991900  1
  H  H15  1  0.50256600  0.87360400  0.92991900  1
  H  H16  1  0.12639600  0.62896200  0.92991900  1
  H  H17  1  0.37103800  0.49743400  0.92991900  1
  H  H18  1  0.62903800  0.12655200  0.07019100  1
  H  H19  1  0.49751500  0.37096200  0.07019100  1
  H  H20  1  0.87344800  0.50248500  0.07019100  1
  H  H21  1  0.49751500  0.12655200  0.07019100  1
  H  H22  1  0.87344800  0.37096200  0.07019100  1
  H  H23  1  0.62903800  0.50248500  0.07019100  1
  H  H24  1  0.88360300  0.63316500  0.75416500  1
  H  H25  1  0.74956300  0.11639700  0.75416500  1
  H  H26  1  0.36683500  0.25043700  0.75416500  1
  H  H27  1  0.74956300  0.63316500  0.75416500  1
  H  H28  1  0.36683500  0.11639700  0.75416500  1
  H  H29  1  0.88360300  0.25043700  0.75416500  1
  H  H30  1  0.11639700  0.36683500  0.25416500  1
  H  H31  1  0.25043700  0.88360300  0.25416500  1
  H  H32  1  0.63316500  0.74956300  0.25416500  1
  H  H33  1  0.25043700  0.36683500  0.25416500  1
  H  H34  1  0.63316500  0.88360300  0.25416500  1
  H  H35  1  0.11639700  0.74956300  0.25416500  1
  Br  Br0  1  0.13122100  0.26244100  0.75802300  1
  Br  Br1  1  0.13122100  0.86877900  0.75802300  1
  Br  Br2  1  0.73755900  0.86877900  0.75802300  1
  Br  Br3  1  0.86877900  0.73755900  0.25802300  1
  Br  Br4  1  0.86877900  0.13122100  0.25802300  1
  Br  Br5  1  0.26244100  0.13122100  0.25802300  1
  O  O0  1  0.78973500  0.57946900  0.74253200  1
  O  O1  1  0.78973500  0.21026500  0.74253200  1
  O  O2  1  0.42053100  0.21026500  0.74253200  1
  O  O3  1  0.21026500  0.42053100  0.24253200  1
  O  O4  1  0.21026500  0.78973500  0.24253200  1
  O  O5  1  0.57946900  0.78973500  0.24253200  1
  O  O6  1  0.06898700  0.36293500  0.75015500  1
  O  O7  1  0.29394900  0.93101300  0.75015500  1
  O  O8  1  0.63706500  0.70605100  0.75015500  1
  O  O9  1  0.29394900  0.36293500  0.75015500  1
  O  O10  1  0.63706500  0.93101300  0.75015500  1
  O  O11  1  0.06898700  0.70605100  0.75015500  1
  O  O12  1  0.93101300  0.63706500  0.25015500  1
  O  O13  1  0.70605100  0.06898700  0.25015500  1
  O  O14  1  0.36293500  0.29394900  0.25015500  1
  O  O15  1  0.70605100  0.63706500  0.25015500  1
  O  O16  1  0.36293500  0.06898700  0.25015500  1
  O  O17  1  0.93101300  0.29394900  0.25015500  1
  O  O18  1  0.57786900  0.15573700  0.50366400  1
  O  O19  1  0.57786900  0.42213100  0.50366400  1
  O  O20  1  0.84426300  0.42213100  0.50366400  1
  O  O21  1  0.42217700  0.84435400  0.49601700  1
  O  O22  1  0.42217700  0.57782300  0.49601700  1
  O  O23  1  0.15564600  0.57782300  0.49601700  1
  O  O24  1  0.42213100  0.84426300  0.00366400  1
  O  O25  1  0.42213100  0.57786900  0.00366400  1
  O  O26  1  0.15573700  0.57786900  0.00366400  1
  O  O27  1  0.57782300  0.15564600  0.99601700  1
  O  O28  1  0.57782300  0.42217700  0.99601700  1
  O  O29  1  0.84435400  0.42217700  0.99601700  1
  O  O30  1  0.09348200  0.18696400  0.54572700  1
  O  O31  1  0.09348200  0.90651800  0.54572700  1
  O  O32  1  0.81303600  0.90651800  0.54572700  1
  O  O33  1  0.90651800  0.81303600  0.04572700  1
  O  O34  1  0.90651800  0.09348200  0.04572700  1
  O  O35  1  0.18696400  0.09348200  0.04572700  1
loop_
_geom_bond_atom_site_label_1
_geom_bond_atom_site_label_2
_geom_bond_distance
_geom_bond_site_symmetry_2
H0 O18 0.987982 1_555
H1 O19 0.987990 1_555
H2 O20 0.987992 1_555
H3 O18 0.987992 1_555
H4 O20 0.987982 1_555
H5 O19 0.987990 1_555
H6 O21 0.988683 1_555
H7 O22 0.988675 1_555
H8 O23 0.988673 1_555
H9 O21 0.988673 1_555
H10 O23 0.988683 1_555
H11 O22 0.988675 1_555
H12 O24 0.987982 1_556
H13 O25 0.987990 1_556
H14 O26 0.987992 1_556
H15 O24 0.987992 1_556
H16 O26 0.987982 1_556
H17 O25 0.987990 1_556
H18 O27 0.988683 1_554
H19 O28 0.988675 1_554
H20 O29 0.988673 1_554
H21 O27 0.988673 1_554
H22 O29 0.988683 1_554
H23 O28 0.988675 1_554
H24 O0 0.985348 1_555
H25 O1 0.985348 1_555
H26 O2 0.985348 1_555
H27 O0 0.985348 1_555
H28 O2 0.985348 1_555
H29 O1 0.985348 1_555
H30 O3 0.985348 1_555
H31 O4 0.985348 1_555
H32 O5 0.985348 1_555
H33 O3 0.985348 1_555
H34 O5 0.985348 1_555
H35 O4 0.985348 1_555
Br0 O30 1.654585 1_555
Br0 O9 1.713130 1_555
Br0 O6 1.713130 1_555
Br1 O31 1.654590 1_555
Br1 O11 1.713130 1_555
Br1 O7 1.713130 1_555
Br2 O32 1.654585 1_555
Br2 O8 1.713130 1_555
Br2 O10 1.713130 1_555
Br3 O33 1.654585 1_555
Br3 O15 1.713130 1_555
Br3 O12 1.713130 1_555
Br4 O34 1.654590 1_555
Br4 O13 1.713130 1_555
Br4 O17 1.713130 1_555
Br5 O35 1.654585 1_555
Br5 O14 1.713130 1_555
Br5 O16 1.713130 1_555
O0 Pr0 2.566816 1_555
O1 Pr0 2.566816 1_555
O2 Pr0 2.566816 1_555
O3 Pr1 2.566816 1_555
O4 Pr1 2.566816 1_555
O5 Pr1 2.566816 1_555
O18 Pr0 2.503164 1_555
O19 Pr0 2.503164 1_555
O20 Pr0 2.503164 1_555
O21 Pr1 2.508469 1_555
O22 Pr1 2.508476 1_555
O23 Pr1 2.508469 1_555
O24 Pr1 2.503164 1_555
O25 Pr1 2.503164 1_555
O26 Pr1 2.503164 1_555
O27 Pr0 2.508469 1_555
O28 Pr0 2.508476 1_555
O29 Pr0 2.508469 1_555
