# generated using pymatgen
data_Ba3ErIrRuO9
_symmetry_space_group_name_H-M   'P 1'
_cell_length_a   5.94764331
_cell_length_b   5.94764331
_cell_length_c   14.61173600
_cell_angle_alpha   90.00000000
_cell_angle_beta   90.00000000
_cell_angle_gamma   119.99999233
_symmetry_Int_Tables_number   1
_chemical_formula_structural   Ba3ErIrRuO9
_chemical_formula_sum   'Ba6 Er2 Ir2 Ru2 O18'
_cell_volume   447.63322372
_cell_formula_units_Z   2
loop_
 _symmetry_equiv_pos_site_id
 _symmetry_equiv_pos_as_xyz
  1  'x, y, z'
loop_
 _atom_site_type_symbol
 _atom_site_label
 _atom_site_symmetry_multiplicity
 _atom_site_fract_x
 _atom_site_fract_y
 _atom_site_fract_z
 _atom_site_occupancy
  Ba  Ba0  1  0.00000000  0.00000000  0.24988100  1
  Ba  Ba1  1  0.00000000  0.00000000  0.74988100  1
  Ba  Ba2  1  0.33333300  0.66666700  0.59168500  1
  Ba  Ba3  1  0.66666700  0.33333300  0.40589000  1
  Ba  Ba4  1  0.66666700  0.33333300  0.09168500  1
  Ba  Ba5  1  0.33333300  0.66666700  0.90589000  1
  Er  Er0  1  0.00000000  0.00000000  0.49911800  1
  Er  Er1  1  0.00000000  0.00000000  0.99911800  1
  Ir  Ir0  1  0.33333300  0.66666700  0.33648000  1
  Ir  Ir1  1  0.66666700  0.33333300  0.83648000  1
  Ru  Ru0  1  0.66666700  0.33333300  0.66234900  1
  Ru  Ru1  1  0.33333300  0.66666700  0.16234900  1
  O  O0  1  0.48942500  0.51057500  0.24912300  1
  O  O1  1  0.48942500  0.97885100  0.24912300  1
  O  O2  1  0.02114900  0.51057500  0.24912300  1
  O  O3  1  0.51057500  0.48942500  0.74912300  1
  O  O4  1  0.51057500  0.02114900  0.74912300  1
  O  O5  1  0.97885100  0.48942500  0.74912300  1
  O  O6  1  0.17525000  0.82475000  0.08733900  1
  O  O7  1  0.17525000  0.35050000  0.08733900  1
  O  O8  1  0.64950000  0.82475000  0.08733900  1
  O  O9  1  0.82427200  0.17572800  0.91509900  1
  O  O10  1  0.82427200  0.64854400  0.91509900  1
  O  O11  1  0.35145600  0.17572800  0.91509900  1
  O  O12  1  0.82475000  0.17525000  0.58733900  1
  O  O13  1  0.82475000  0.64950000  0.58733900  1
  O  O14  1  0.35050000  0.17525000  0.58733900  1
  O  O15  1  0.17572800  0.82427200  0.41509900  1
  O  O16  1  0.17572800  0.35145600  0.41509900  1
  O  O17  1  0.64854400  0.82427200  0.41509900  1
loop_
_geom_bond_atom_site_label_1
_geom_bond_atom_site_label_2
_geom_bond_distance
_geom_bond_site_symmetry_2
Ba0 O2 2.975834 1_545
Ba0 O1 2.975834 1_545
Ba0 O0 2.975837 1_445
Ba0 O0 2.975837 1_555
Ba0 O1 2.975840 1_445
Ba0 O2 2.975840 1_555
Ba0 O6 2.983294 1_545
Ba0 O7 2.983294 1_555
Ba0 O8 2.983294 1_445
Ba0 O15 3.017467 1_545
Ba0 O16 3.017467 1_555
Ba0 O17 3.017467 1_445
Ba1 O4 2.975834 1_455
Ba1 O5 2.975834 1_455
Ba1 O3 2.975837 1_555
Ba1 O3 2.975837 1_445
Ba1 O5 2.975840 1_445
Ba1 O4 2.975840 1_555
Ba1 O12 2.983294 1_455
Ba1 O13 2.983294 1_445
Ba1 O14 2.983294 1_555
Ba1 O9 3.017467 1_455
Ba1 O11 3.017467 1_555
Ba1 O10 3.017467 1_445
Ba2 O4 2.936977 1_565
Ba2 O5 2.936977 1_455
Ba2 O3 2.936984 1_555
Ba2 O13 2.975811 1_455
Ba2 O14 2.975811 1_565
Ba2 O12 2.975814 1_455
Ba2 O12 2.975814 1_565
Ba2 O14 2.975817 1_555
Ba2 O13 2.975817 1_555
Ba2 O15 3.048542 1_555
Ba2 O17 3.048545 1_555
Ba2 O16 3.048545 1_555
Ba3 O2 2.929304 1_655
Ba3 O1 2.929304 1_545
Ba3 O0 2.929310 1_555
Ba3 O16 2.978325 1_655
Ba3 O17 2.978325 1_545
Ba3 O15 2.978328 1_655
Ba3 O15 2.978328 1_545
Ba3 O17 2.978331 1_555
Ba3 O16 2.978331 1_555
Ba3 O12 3.111488 1_555
Ba3 O13 3.111491 1_555
Ba3 O14 3.111491 1_555
Ba4 O2 2.936977 1_655
Ba4 O1 2.936977 1_545
Ba4 O0 2.936984 1_555
Ba4 O8 2.975811 1_545
Ba4 O7 2.975811 1_655
Ba4 O6 2.975814 1_545
Ba4 O6 2.975814 1_655
Ba4 O7 2.975817 1_555
Ba4 O8 2.975817 1_555
Ba4 O9 3.048542 1_554
Ba4 O10 3.048545 1_554
Ba4 O11 3.048545 1_554
Ba5 O4 2.929304 1_565
Ba5 O5 2.929304 1_455
Ba5 O3 2.929310 1_555
Ba5 O11 2.978325 1_565
Ba5 O10 2.978325 1_455
Ba5 O9 2.978328 1_455
Ba5 O9 2.978328 1_565
Ba5 O10 2.978331 1_555
Ba5 O11 2.978331 1_555
Ba5 O6 3.111488 1_556
Ba5 O7 3.111491 1_556
Ba5 O8 3.111491 1_556
Er0 O15 2.187300 1_545
Er0 O17 2.187300 1_445
Er0 O16 2.187300 1_555
Er0 O12 2.218333 1_455
Er0 O13 2.218333 1_445
Er0 O14 2.218333 1_555
Er1 O9 2.187300 1_455
Er1 O11 2.187300 1_555
Er1 O10 2.187300 1_445
Er1 O6 2.218333 1_546
Er1 O8 2.218333 1_446
Er1 O7 2.218333 1_556
Ir0 O15 1.988890 1_555
Ir0 O16 1.988894 1_555
Ir0 O17 1.988894 1_555
Ir0 O0 2.053036 1_555
Ir0 O1 2.053036 1_555
Ir0 O2 2.053036 1_555
Ir1 O9 1.988890 1_555
Ir1 O10 1.988894 1_555
Ir1 O11 1.988894 1_555
Ir1 O3 2.053036 1_555
Ir1 O5 2.053036 1_555
Ir1 O4 2.053036 1_555
O0 Ru1 2.047751 1_555
O1 Ru1 2.047751 1_555
O2 Ru1 2.047751 1_555
O3 Ru0 2.047751 1_555
O4 Ru0 2.047751 1_555
O5 Ru0 2.047751 1_555
O6 Ru1 1.962988 1_555
O7 Ru1 1.962992 1_555
O8 Ru1 1.962992 1_555
O12 Ru0 1.962988 1_555
O13 Ru0 1.962992 1_555
O14 Ru0 1.962992 1_555
