# generated using pymatgen
data_Ce2Ti2Fe22H
_symmetry_space_group_name_H-M   'P 1'
_cell_length_a   6.49671927
_cell_length_b   6.49671927
_cell_length_c   11.99202930
_cell_angle_alpha   89.64976455
_cell_angle_beta   89.64976455
_cell_angle_gamma   42.71417442
_symmetry_Int_Tables_number   1
_chemical_formula_structural   Ce2Ti2Fe22H
_chemical_formula_sum   'Ce2 Ti2 Fe22 H1'
_cell_volume   343.33643256
_cell_formula_units_Z   1
loop_
 _symmetry_equiv_pos_site_id
 _symmetry_equiv_pos_as_xyz
  1  'x, y, z'
loop_
 _atom_site_type_symbol
 _atom_site_label
 _atom_site_symmetry_multiplicity
 _atom_site_fract_x
 _atom_site_fract_y
 _atom_site_fract_z
 _atom_site_occupancy
  Ce  Ce0  1  0.99621400  0.99621400  0.00384100  1
  Ce  Ce1  1  0.49622400  0.49622400  0.50347100  1
  Ti  Ti0  1  0.68425200  0.68425200  0.31551700  1
  Ti  Ti1  1  0.18384100  0.18384100  0.81606100  1
  Fe  Fe0  1  0.61222700  0.61222700  0.11063200  1
  Fe  Fe1  1  0.11234400  0.11234400  0.61097400  1
  Fe  Fe2  1  0.88845200  0.88845200  0.38770900  1
  Fe  Fe3  1  0.38923000  0.38923000  0.88759700  1
  Fe  Fe4  1  0.11345200  0.11345200  0.38698700  1
  Fe  Fe5  1  0.61299300  0.61299300  0.88716800  1
  Fe  Fe6  1  0.38547700  0.38547700  0.11452900  1
  Fe  Fe7  1  0.88445600  0.88445600  0.61519300  1
  Fe  Fe8  1  0.24837800  0.74952500  0.25026700  1
  Fe  Fe9  1  0.74886900  0.24890700  0.74952300  1
  Fe  Fe10  1  0.74952500  0.24837800  0.25026700  1
  Fe  Fe11  1  0.24890700  0.74886900  0.74952300  1
  Fe  Fe12  1  0.50060000  0.99995200  0.00118200  1
  Fe  Fe13  1  0.00063200  0.49980700  0.50114100  1
  Fe  Fe14  1  0.99995200  0.50060000  0.00118200  1
  Fe  Fe15  1  0.49980700  0.00063200  0.50114100  1
  Fe  Fe16  1  0.32126500  0.32126500  0.32100500  1
  Fe  Fe17  1  0.82133900  0.82133900  0.82169800  1
  Fe  Fe18  1  0.17841300  0.17841300  0.17858300  1
  Fe  Fe19  1  0.67828600  0.67828600  0.67904600  1
  Fe  Fe20  1  0.82283100  0.82283100  0.17731700  1
  Fe  Fe21  1  0.32270200  0.32270200  0.67784700  1
  H  H0  1  0.49933100  0.49933100  0.00059900  1
loop_
_geom_bond_atom_site_label_1
_geom_bond_atom_site_label_2
_geom_bond_distance
_geom_bond_site_symmetry_2
Ce0 H0 2.366587 1_565
Ce0 H0 2.366587 1_655
Ce0 Fe17 3.051221 1_554
Ce0 Fe18 3.051729 1_665
Ce0 Fe8 3.182503 1_655
Ce0 Fe10 3.182503 1_565
Ce0 Ti1 3.187313 1_664
Ce0 Fe12 3.202418 1_555
Ce0 Fe14 3.202418 1_555
Ce0 Fe9 3.271182 1_564
Ce0 Fe11 3.271182 1_654
Ce0 Fe12 3.294698 1_655
Ce0 Fe14 3.294698 1_565
Ce1 Fe21 2.953708 1_555
Ce1 Fe7 3.032877 1_545
Ce1 Fe7 3.032877 1_455
Ce1 Fe2 3.041314 1_545
Ce1 Fe2 3.041314 1_455
Ce1 Fe1 3.042718 1_565
Ce1 Fe1 3.042718 1_655
Ce1 Fe16 3.054722 1_555
Ce1 Fe19 3.057441 1_555
Ce1 Fe4 3.087959 1_565
Ce1 Fe4 3.087959 1_655
Ce1 Fe11 3.179299 1_555
Ce1 Fe9 3.179299 1_555
Ce1 Ti0 3.192213 1_555
Ce1 Fe13 3.202950 1_555
Ce1 Fe15 3.202950 1_555
Ce1 Fe10 3.259687 1_555
Ce1 Fe8 3.259687 1_555
Ce1 Fe13 3.294086 1_655
Ce1 Fe15 3.294086 1_565
Fe0 H0 1.905577 1_555
Fe0 Fe12 2.424979 1_555
Fe0 Fe14 2.424979 1_555
Fe0 Fe10 2.461447 1_555
Fe0 Fe8 2.461447 1_555
Fe0 Ti0 2.612386 1_555
Fe0 Fe18 2.629046 1_565
Fe0 Fe18 2.629046 1_655
Fe1 Fe13 2.425807 1_555
Fe1 Fe15 2.425807 1_555
Fe1 Fe11 2.452599 1_545
Fe1 Fe9 2.452599 1_455
Fe1 Ti1 2.612507 1_555
Fe1 Fe19 2.628596 1_545
Fe1 Fe19 2.628596 1_455
Fe1 Fe21 2.673924 1_555
Fe1 Fe4 2.686004 1_555
Fe1 Fe7 2.757842 1_445
Fe2 Fe8 2.422547 1_655
Fe2 Ti0 2.623679 1_555
Fe2 Fe20 2.650008 1_555
Fe2 Fe4 2.722719 1_665
Fe2 Fe7 2.728106 1_555
Fe3 H0 1.906624 1_556
Fe3 Fe9 2.423413 1_555
Fe3 Ti1 2.634646 1_555
Fe4 Fe8 2.455778 1_545
Fe4 Ti0 2.656462 1_545
Fe4 Ti0 2.656462 1_455
Fe5 H0 1.928111 1_556
Fe5 Fe9 2.461788 1_555
Fe5 Ti1 2.655256 1_655
Fe5 Ti1 2.655256 1_565
Fe6 H0 1.933953 1_555
Fe6 Fe8 2.443456 1_555
Fe7 Fe9 2.437514 1_565
Fe8 Ti0 2.658821 1_555
Fe9 Ti1 2.658777 1_655
Fe10 Fe8 2.360543 1_645
Fe10 Fe8 2.371399 1_555
Fe10 Fe2 2.422547 1_545
Fe10 Fe6 2.443456 1_555
Fe10 Fe4 2.455778 1_655
Fe10 Fe16 2.593252 1_555
Fe10 Fe20 2.593281 1_545
Fe10 Fe18 2.612233 1_655
Fe10 Ti0 2.658821 1_555
Fe11 Fe9 2.365791 1_555
Fe11 Fe9 2.366151 1_465
Fe11 Fe3 2.423413 1_555
Fe11 Fe7 2.437514 1_455
Fe11 Fe5 2.461788 1_555
Fe11 Fe21 2.589936 1_555
Fe11 Fe17 2.596277 1_455
Fe11 Fe19 2.608135 1_555
Fe11 Ti1 2.658777 1_565
Fe12 Fe14 2.362905 1_555
Fe12 Fe14 2.369037 1_465
Fe12 Fe6 2.440626 1_565
Fe12 Fe5 2.460672 1_554
Fe12 Fe3 2.460861 1_564
Fe12 Fe20 2.579247 1_555
Fe12 Fe18 2.580866 1_565
Fe12 Fe17 2.596876 1_554
Fe12 Ti1 2.645965 1_564
Fe13 Fe15 2.362067 1_555
Fe13 Fe15 2.369875 1_465
Fe13 Fe7 2.437749 1_455
Fe13 Fe2 2.454128 1_455
Fe13 Fe4 2.457183 1_555
Fe13 Fe21 2.584379 1_555
Fe13 Fe19 2.586311 1_455
Fe13 Fe16 2.603085 1_555
Fe13 Ti0 2.649485 1_455
Fe14 Fe6 2.440626 1_655
Fe14 Fe5 2.460672 1_554
Fe14 Fe3 2.460861 1_654
Fe14 Fe20 2.579247 1_555
Fe14 Fe18 2.580866 1_655
Fe14 Fe17 2.596876 1_554
Fe14 Ti1 2.645965 1_654
Fe15 Fe7 2.437749 1_545
Fe15 Fe2 2.454128 1_545
Fe15 Fe4 2.457183 1_555
Fe15 Fe21 2.584379 1_555
Fe15 Fe19 2.586311 1_545
Fe15 Fe16 2.603085 1_555
Fe15 Ti0 2.649485 1_545
Fe16 Fe18 2.438052 1_555
Fe16 Fe6 2.590258 1_555
Fe16 Fe8 2.593252 1_555
Fe16 Fe2 2.628166 1_455
Fe16 Fe2 2.628166 1_545
Fe16 Fe4 2.631365 1_555
Fe16 Ti0 2.890087 1_545
Fe16 Ti0 2.890087 1_455
Fe16 Fe20 2.926920 1_545
Fe16 Fe20 2.926920 1_455
Fe17 Fe19 2.441733 1_555
Fe17 Fe7 2.586730 1_555
Fe17 Fe9 2.596277 1_565
Fe17 Fe3 2.627892 1_565
Fe17 Fe3 2.627892 1_655
Fe17 Fe5 2.635721 1_555
Fe17 Ti1 2.893507 1_655
Fe17 Ti1 2.893507 1_565
Fe17 Fe21 2.928066 1_565
Fe17 Fe21 2.928066 1_655
Fe18 Fe8 2.612233 1_545
Fe18 Fe4 2.614977 1_555
Fe18 Fe6 2.615985 1_555
Fe18 Ti0 2.881125 1_545
Fe18 Ti0 2.881125 1_455
Fe18 Fe20 2.941411 1_455
Fe18 Fe20 2.941411 1_545
Fe19 Fe7 2.604951 1_555
Fe19 Fe9 2.608135 1_555
Fe19 Fe5 2.612939 1_555
Fe19 Ti1 2.881584 1_655
Fe19 Ti1 2.881584 1_565
Fe19 Fe21 2.941395 1_565
Fe19 Fe21 2.941395 1_655
Fe20 Ti0 2.349973 1_555
Fe20 Fe8 2.593281 1_655
Fe21 Ti1 2.352511 1_555
Fe21 Fe9 2.589936 1_555
Fe21 Fe7 2.591027 1_545
Fe21 Fe7 2.591027 1_455
