# generated using pymatgen
data_BaThTe4
_symmetry_space_group_name_H-M   'P 1'
_cell_length_a   8.80327515
_cell_length_b   8.80327515
_cell_length_c   10.55964993
_cell_angle_alpha   54.09521207
_cell_angle_beta   54.09521207
_cell_angle_gamma   43.42447607
_symmetry_Int_Tables_number   1
_chemical_formula_structural   BaThTe4
_chemical_formula_sum   'Ba2 Th2 Te8'
_cell_volume   436.29956833
_cell_formula_units_Z   2
loop_
 _symmetry_equiv_pos_site_id
 _symmetry_equiv_pos_as_xyz
  1  'x, y, z'
loop_
 _atom_site_type_symbol
 _atom_site_label
 _atom_site_symmetry_multiplicity
 _atom_site_fract_x
 _atom_site_fract_y
 _atom_site_fract_z
 _atom_site_occupancy
  Ba  Ba0  1  0.90144592  0.90144592  0.30361036  1
  Ba  Ba1  1  0.09855408  0.09855408  0.69638964  1
  Th  Th0  1  0.64164639  0.64164639  0.21937261  1
  Th  Th1  1  0.35835361  0.35835361  0.78062739  1
  Te  Te0  1  0.10701358  0.60727556  0.04451708  1
  Te  Te1  1  0.39272444  0.89298642  0.95548292  1
  Te  Te2  1  0.89298642  0.39272444  0.95548292  1
  Te  Te3  1  0.60727556  0.10701358  0.04451708  1
  Te  Te4  1  0.10036251  0.10036251  0.34827027  1
  Te  Te5  1  0.89963749  0.89963749  0.65172973  1
  Te  Te6  1  0.61116600  0.61116600  0.55271072  1
  Te  Te7  1  0.38883400  0.38883400  0.44728928  1
loop_
_geom_bond_atom_site_label_1
_geom_bond_atom_site_label_2
_geom_bond_distance
_geom_bond_site_symmetry_2
Ba0 Te7 3.543388 1_655
Ba0 Te7 3.543388 1_565
Ba0 Te4 3.570230 1_665
Ba0 Te3 3.627974 1_565
Ba0 Te0 3.627974 1_655
Ba0 Te5 3.657418 1_555
Ba0 Te2 3.664664 1_564
Ba0 Te1 3.664664 1_654
Ba0 Te6 3.700956 1_555
Ba1 Te6 3.543388 1_545
Ba1 Te6 3.543388 1_455
Ba1 Te5 3.570230 1_445
Ba1 Te1 3.627974 1_545
Ba1 Te2 3.627974 1_455
Ba1 Te4 3.657418 1_555
Ba1 Te0 3.664664 1_546
Ba1 Te3 3.664664 1_456
Ba1 Te7 3.700956 1_555
Te0 Th0 3.204197 1_455
Te0 Th1 3.217175 1_554
Te0 Te3 3.255023 1_465
Te0 Te3 3.258436 1_555
Te1 Th1 3.204197 1_565
Te1 Th0 3.217175 1_556
Te1 Te2 3.255023 1_465
Te1 Te2 3.258436 1_555
Te2 Th1 3.204197 1_655
Te2 Th0 3.217175 1_556
Te3 Th0 3.204197 1_545
Te3 Th1 3.217175 1_554
Te4 Te5 2.786791 1_445
Te4 Th0 3.428492 1_455
Te4 Th0 3.428492 1_545
Te5 Th1 3.428492 1_565
Te5 Th1 3.428492 1_655
Te6 Th1 3.213848 1_555
Te6 Th0 3.228461 1_555
Te7 Th0 3.213848 1_555
Te7 Th1 3.228461 1_555
