# generated using pymatgen
data_TaSn3
_symmetry_space_group_name_H-M   'P 1'
_cell_length_a   6.29172776
_cell_length_b   6.29172776
_cell_length_c   5.40550600
_cell_angle_alpha   90.00000000
_cell_angle_beta   90.00000000
_cell_angle_gamma   119.99999743
_symmetry_Int_Tables_number   1
_chemical_formula_structural   TaSn3
_chemical_formula_sum   'Ta2 Sn6'
_cell_volume   185.31340732
_cell_formula_units_Z   2
loop_
 _symmetry_equiv_pos_site_id
 _symmetry_equiv_pos_as_xyz
  1  'x, y, z'
loop_
 _atom_site_type_symbol
 _atom_site_label
 _atom_site_symmetry_multiplicity
 _atom_site_fract_x
 _atom_site_fract_y
 _atom_site_fract_z
 _atom_site_occupancy
  Ta  Ta0  1  0.33333300  0.66666700  0.75000000  1
  Ta  Ta1  1  0.66666700  0.33333300  0.25000000  1
  Sn  Sn0  1  0.17423200  0.34846500  0.25000000  1
  Sn  Sn1  1  0.65153500  0.82576800  0.25000000  1
  Sn  Sn2  1  0.17423200  0.82576800  0.25000000  1
  Sn  Sn3  1  0.82576800  0.65153500  0.75000000  1
  Sn  Sn4  1  0.34846500  0.17423200  0.75000000  1
  Sn  Sn5  1  0.82576800  0.17423200  0.75000000  1
loop_
_geom_bond_atom_site_label_1
_geom_bond_atom_site_label_2
_geom_bond_distance
_geom_bond_site_symmetry_2
Sn0 Sn2 3.003061 1_555
Sn0 Sn1 3.003061 1_555
Sn0 Ta1 3.146938 1_455
Sn0 Ta1 3.146950 1_555
Sn0 Ta0 3.211074 1_555
Sn0 Ta0 3.211074 1_554
Sn0 Sn2 3.288667 1_545
Sn0 Sn1 3.288667 1_445
Sn0 Sn5 3.303025 1_455
Sn0 Sn5 3.303025 1_454
Sn0 Sn4 3.303031 1_554
Sn0 Sn4 3.303031 1_555
Sn1 Sn2 3.003061 1_555
Sn1 Ta1 3.146938 1_565
Sn1 Ta1 3.146950 1_555
Sn1 Ta0 3.211074 1_555
Sn1 Ta0 3.211074 1_554
Sn1 Sn2 3.288667 1_655
Sn1 Sn5 3.303025 1_564
Sn1 Sn5 3.303025 1_565
Sn1 Sn3 3.303031 1_555
Sn1 Sn3 3.303031 1_554
Sn2 Ta1 3.146944 1_455
Sn2 Ta1 3.146944 1_565
Sn2 Ta0 3.211074 1_555
Sn2 Ta0 3.211074 1_554
Sn2 Sn4 3.303025 1_565
Sn2 Sn4 3.303025 1_564
Sn2 Sn3 3.303025 1_455
Sn2 Sn3 3.303025 1_454
Sn3 Sn5 3.003061 1_555
Sn3 Sn4 3.003061 1_555
Sn3 Ta0 3.146938 1_655
Sn3 Ta0 3.146950 1_555
Sn3 Ta1 3.211074 1_556
Sn3 Ta1 3.211074 1_555
Sn3 Sn5 3.288667 1_565
Sn3 Sn4 3.288667 1_665
Sn4 Sn5 3.003061 1_555
Sn4 Ta0 3.146938 1_545
Sn4 Ta0 3.146950 1_555
Sn4 Ta1 3.211074 1_555
Sn4 Ta1 3.211074 1_556
Sn4 Sn5 3.288667 1_455
Sn5 Ta0 3.146944 1_545
Sn5 Ta0 3.146944 1_655
Sn5 Ta1 3.211074 1_555
Sn5 Ta1 3.211074 1_556
