# generated using pymatgen
data_NbAl2(SeCl4)2
_symmetry_space_group_name_H-M   'P 1'
_cell_length_a   10.24375100
_cell_length_b   9.28130600
_cell_length_c   18.74644063
_cell_angle_alpha   63.44455773
_cell_angle_beta   90.00000000
_cell_angle_gamma   90.00000000
_symmetry_Int_Tables_number   1
_chemical_formula_structural   NbAl2(SeCl4)2
_chemical_formula_sum   'Nb4 Al8 Se8 Cl32'
_cell_volume   1594.29369478
_cell_formula_units_Z   4
loop_
 _symmetry_equiv_pos_site_id
 _symmetry_equiv_pos_as_xyz
  1  'x, y, z'
loop_
 _atom_site_type_symbol
 _atom_site_label
 _atom_site_symmetry_multiplicity
 _atom_site_fract_x
 _atom_site_fract_y
 _atom_site_fract_z
 _atom_site_occupancy
  Nb  Nb0  1  0.10653600  0.41547900  0.55814000  1
  Nb  Nb1  1  0.39346400  0.41547900  0.05814000  1
  Nb  Nb2  1  0.89346400  0.58452100  0.44186000  1
  Nb  Nb3  1  0.60653600  0.58452100  0.94186000  1
  Al  Al0  1  0.35035900  0.10799300  0.58236800  1
  Al  Al1  1  0.14964100  0.10799300  0.08236800  1
  Al  Al2  1  0.64964100  0.89200700  0.41763200  1
  Al  Al3  1  0.85035900  0.89200700  0.91763200  1
  Al  Al4  1  0.23024200  0.43024000  0.73824000  1
  Al  Al5  1  0.26975800  0.43024000  0.23824000  1
  Al  Al6  1  0.76975800  0.56976000  0.26176000  1
  Al  Al7  1  0.73024200  0.56976000  0.76176000  1
  Se  Se0  1  0.01052400  0.70041600  0.53101100  1
  Se  Se1  1  0.48947600  0.70041600  0.03101100  1
  Se  Se2  1  0.98947600  0.29958400  0.46898900  1
  Se  Se3  1  0.51052400  0.29958400  0.96898900  1
  Se  Se4  1  0.86438500  0.30720100  0.57082300  1
  Se  Se5  1  0.63561500  0.30720100  0.07082300  1
  Se  Se6  1  0.13561500  0.69279900  0.42917700  1
  Se  Se7  1  0.36438500  0.69279900  0.92917700  1
  Cl  Cl0  1  0.52373800  0.10100300  0.64441700  1
  Cl  Cl1  1  0.97626200  0.10100300  0.14441700  1
  Cl  Cl2  1  0.47626200  0.89899700  0.35558300  1
  Cl  Cl3  1  0.02373800  0.89899700  0.85558300  1
  Cl  Cl4  1  0.32803600  0.93611700  0.53886600  1
  Cl  Cl5  1  0.17196400  0.93611700  0.03886600  1
  Cl  Cl6  1  0.67196400  0.06388300  0.46113400  1
  Cl  Cl7  1  0.82803600  0.06388300  0.96113400  1
  Cl  Cl8  1  0.17260700  0.10922500  0.65039000  1
  Cl  Cl9  1  0.32739300  0.10922500  0.15039000  1
  Cl  Cl10  1  0.82739300  0.89077500  0.34961000  1
  Cl  Cl11  1  0.67260700  0.89077500  0.84961000  1
  Cl  Cl12  1  0.31197200  0.35983000  0.48767800  1
  Cl  Cl13  1  0.18802800  0.35983000  0.98767800  1
  Cl  Cl14  1  0.68802800  0.64017000  0.51232200  1
  Cl  Cl15  1  0.81197200  0.64017000  0.01232200  1
  Cl  Cl16  1  0.33012700  0.23269300  0.82728100  1
  Cl  Cl17  1  0.16987300  0.23269300  0.32728100  1
  Cl  Cl18  1  0.66987300  0.76730700  0.17271900  1
  Cl  Cl19  1  0.83012700  0.76730700  0.67271900  1
  Cl  Cl20  1  0.03987300  0.35807200  0.70495000  1
  Cl  Cl21  1  0.46012700  0.35807200  0.20495000  1
  Cl  Cl22  1  0.96012700  0.64192800  0.29505000  1
  Cl  Cl23  1  0.53987300  0.64192800  0.79505000  1
  Cl  Cl24  1  0.19646100  0.62809800  0.76259100  1
  Cl  Cl25  1  0.30353900  0.62809800  0.26259100  1
  Cl  Cl26  1  0.80353900  0.37190200  0.23740900  1
  Cl  Cl27  1  0.69646100  0.37190200  0.73740900  1
  Cl  Cl28  1  0.31462200  0.49865300  0.61820700  1
  Cl  Cl29  1  0.18537800  0.49865300  0.11820700  1
  Cl  Cl30  1  0.68537800  0.50134700  0.38179300  1
  Cl  Cl31  1  0.81462200  0.50134700  0.88179300  1
loop_
_geom_bond_atom_site_label_1
_geom_bond_atom_site_label_2
_geom_bond_distance
_geom_bond_site_symmetry_2
Nb0 Se6 2.644731 1_555
Nb0 Se2 2.644893 1_455
Nb0 Se4 2.646863 1_455
Nb0 Se0 2.649007 1_555
Nb1 Se7 2.644731 1_554
Nb1 Se3 2.644893 1_554
Nb1 Se5 2.646863 1_555
Nb1 Se1 2.649007 1_555
Nb2 Se4 2.644731 1_555
Nb2 Se0 2.644893 1_655
Nb2 Se6 2.646863 1_655
Nb2 Se2 2.649007 1_555
Nb3 Se5 2.644731 1_556
Nb3 Se1 2.644893 1_556
Nb3 Se7 2.646863 1_555
Nb3 Se3 2.649007 1_555
Al0 Cl4 2.103641 1_545
Al0 Cl0 2.108109 1_555
Al0 Cl8 2.225918 1_555
Al0 Cl12 2.249252 1_555
Al1 Cl5 2.103641 1_545
Al1 Cl1 2.108109 1_455
Al1 Cl9 2.225918 1_555
Al1 Cl13 2.249252 1_554
Al2 Cl6 2.103641 1_565
Al2 Cl2 2.108109 1_555
Al2 Cl10 2.225918 1_555
Al2 Cl14 2.249252 1_555
Al3 Cl7 2.103641 1_565
Al3 Cl3 2.108109 1_655
Al3 Cl11 2.225918 1_555
Al3 Cl15 2.249252 1_556
Al4 Cl24 2.109496 1_555
Al4 Cl16 2.111496 1_555
Al4 Cl28 2.221746 1_555
Al4 Cl20 2.239359 1_555
Al5 Cl25 2.109496 1_555
Al5 Cl17 2.111496 1_555
Al5 Cl29 2.221746 1_555
Al5 Cl21 2.239359 1_555
Al6 Cl26 2.109496 1_555
Al6 Cl18 2.111496 1_555
Al6 Cl30 2.221746 1_555
Al6 Cl22 2.239359 1_555
Al7 Cl27 2.109496 1_555
Al7 Cl19 2.111496 1_555
Al7 Cl31 2.221746 1_555
Al7 Cl23 2.239359 1_555
Se0 Se6 2.326378 1_555
Se1 Se7 2.326378 1_554
Se2 Se4 2.326378 1_555
Se3 Se5 2.326378 1_556
Cl8 Nb0 2.670776 1_555
Cl9 Nb1 2.670776 1_555
Cl10 Nb2 2.670776 1_555
Cl11 Nb3 2.670776 1_555
Cl12 Nb0 2.655228 1_555
Cl13 Nb1 2.655228 1_556
Cl14 Nb2 2.655228 1_555
Cl15 Nb3 2.655228 1_554
Cl20 Nb0 2.648299 1_555
Cl21 Nb1 2.648299 1_555
Cl22 Nb2 2.648299 1_555
Cl23 Nb3 2.648299 1_555
Cl28 Nb0 2.680442 1_555
Cl29 Nb1 2.680442 1_555
Cl30 Nb2 2.680442 1_555
Cl31 Nb3 2.680442 1_555
