# generated using pymatgen
data_Ba2UCrTe7
_symmetry_space_group_name_H-M   'P 1'
_cell_length_a   6.20583400
_cell_length_b   12.66651900
_cell_length_c   18.88419600
_cell_angle_alpha   90.00000000
_cell_angle_beta   90.00000000
_cell_angle_gamma   90.00000000
_symmetry_Int_Tables_number   1
_chemical_formula_structural   Ba2UCrTe7
_chemical_formula_sum   'Ba8 U4 Cr4 Te28'
_cell_volume   1484.41704555
_cell_formula_units_Z   4
loop_
 _symmetry_equiv_pos_site_id
 _symmetry_equiv_pos_as_xyz
  1  'x, y, z'
loop_
 _atom_site_type_symbol
 _atom_site_label
 _atom_site_symmetry_multiplicity
 _atom_site_fract_x
 _atom_site_fract_y
 _atom_site_fract_z
 _atom_site_occupancy
  Ba  Ba0  1  0.25000000  0.32308000  0.94191500  1
  Ba  Ba1  1  0.25000000  0.82308000  0.55808500  1
  Ba  Ba2  1  0.75000000  0.67692000  0.05808500  1
  Ba  Ba3  1  0.75000000  0.17692000  0.44191500  1
  Ba  Ba4  1  0.25000000  0.44571200  0.27706500  1
  Ba  Ba5  1  0.25000000  0.94571200  0.22293500  1
  Ba  Ba6  1  0.75000000  0.55428800  0.72293500  1
  Ba  Ba7  1  0.75000000  0.05428800  0.77706500  1
  U  U0  1  0.25000000  0.29485100  0.62239500  1
  U  U1  1  0.25000000  0.79485100  0.87760500  1
  U  U2  1  0.75000000  0.70514900  0.37760500  1
  U  U3  1  0.75000000  0.20514900  0.12239500  1
  Cr  Cr0  1  0.00000000  0.00000000  0.00000000  1
  Cr  Cr1  1  0.50000000  0.50000000  0.50000000  1
  Cr  Cr2  1  0.50000000  0.00000000  0.00000000  1
  Cr  Cr3  1  0.00000000  0.50000000  0.50000000  1
  Te  Te0  1  0.00235000  0.08021700  0.60192800  1
  Te  Te1  1  0.49765000  0.58021700  0.89807200  1
  Te  Te2  1  0.50235000  0.91978300  0.39807200  1
  Te  Te3  1  0.99765000  0.41978300  0.10192800  1
  Te  Te4  1  0.99765000  0.91978300  0.39807200  1
  Te  Te5  1  0.50235000  0.41978300  0.10192800  1
  Te  Te6  1  0.49765000  0.08021700  0.60192800  1
  Te  Te7  1  0.00235000  0.58021700  0.89807200  1
  Te  Te8  1  0.00289400  0.30803900  0.76745100  1
  Te  Te9  1  0.49710600  0.80803900  0.73254900  1
  Te  Te10  1  0.50289400  0.69196100  0.23254900  1
  Te  Te11  1  0.99710600  0.19196100  0.26745100  1
  Te  Te12  1  0.99710600  0.69196100  0.23254900  1
  Te  Te13  1  0.50289400  0.19196100  0.26745100  1
  Te  Te14  1  0.49710600  0.30803900  0.76745100  1
  Te  Te15  1  0.00289400  0.80803900  0.73254900  1
  Te  Te16  1  0.25000000  0.04091800  0.88040300  1
  Te  Te17  1  0.25000000  0.54091800  0.61959700  1
  Te  Te18  1  0.75000000  0.95908200  0.11959700  1
  Te  Te19  1  0.75000000  0.45908200  0.38040300  1
  Te  Te20  1  0.25000000  0.32664500  0.45909500  1
  Te  Te21  1  0.25000000  0.82664500  0.04090500  1
  Te  Te22  1  0.75000000  0.67335500  0.54090500  1
  Te  Te23  1  0.75000000  0.17335500  0.95909500  1
  Te  Te24  1  0.25000000  0.63952300  0.41570700  1
  Te  Te25  1  0.25000000  0.13952300  0.08429300  1
  Te  Te26  1  0.75000000  0.36047700  0.58429300  1
  Te  Te27  1  0.75000000  0.86047700  0.91570700  1
loop_
_geom_bond_atom_site_label_1
_geom_bond_atom_site_label_2
_geom_bond_distance
_geom_bond_site_symmetry_2
Ba0 Te25 3.554551 1_556
Ba0 Te5 3.617128 1_556
Ba0 Te3 3.617128 1_456
Ba0 Te14 3.639009 1_555
Ba0 Te8 3.639009 1_555
Ba0 Te23 3.651033 1_455
Ba0 Te23 3.651033 1_555
Ba0 Te7 3.695364 1_555
Ba0 Te1 3.695364 1_555
Ba0 Te16 3.758041 1_555
Ba1 Te24 3.554551 1_555
Ba1 Te2 3.617128 1_555
Ba1 Te4 3.617128 1_455
Ba1 Te9 3.639009 1_555
Ba1 Te15 3.639009 1_555
Ba1 Te22 3.651033 1_555
Ba1 Te22 3.651033 1_455
Ba1 Te0 3.695364 1_565
Ba1 Te6 3.695364 1_565
Ba1 Te17 3.758041 1_555
Ba2 Te27 3.554551 1_554
Ba2 Te7 3.617128 1_654
Ba2 Te1 3.617128 1_554
Ba2 Te12 3.639009 1_555
Ba2 Te10 3.639009 1_555
Ba2 Te21 3.651033 1_555
Ba2 Te21 3.651033 1_655
Ba2 Te3 3.695364 1_555
Ba2 Te5 3.695364 1_555
Ba2 Te18 3.758041 1_555
Ba3 Te26 3.554551 1_555
Ba3 Te6 3.617128 1_555
Ba3 Te0 3.617128 1_655
Ba3 Te11 3.639009 1_555
Ba3 Te13 3.639009 1_555
Ba3 Te20 3.651033 1_655
Ba3 Te20 3.651033 1_555
Ba3 Te2 3.695364 1_545
Ba3 Te4 3.695364 1_545
Ba3 Te19 3.758041 1_555
Ba4 Te11 3.581444 1_455
Ba4 Te13 3.581444 1_555
Ba4 Te24 3.589047 1_555
Ba4 Te12 3.591470 1_455
Ba4 Te10 3.591470 1_555
Ba4 Te19 3.669462 1_555
Ba4 Te19 3.669462 1_455
Ba4 Te5 3.674062 1_555
Ba4 Te3 3.674062 1_455
Ba4 Te20 3.753785 1_555
Ba5 Te12 3.581444 1_455
Ba5 Te10 3.581444 1_555
Ba5 Te25 3.589047 1_565
Ba5 Te11 3.591470 1_465
Ba5 Te13 3.591470 1_565
Ba5 Te18 3.669462 1_455
Ba5 Te18 3.669462 1_555
Ba5 Te4 3.674062 1_455
Ba5 Te2 3.674062 1_555
Ba5 Te21 3.753785 1_555
Ba6 Te15 3.581444 1_655
Ba6 Te9 3.581444 1_555
Ba6 Te26 3.589047 1_555
Ba6 Te8 3.591470 1_655
Ba6 Te14 3.591470 1_555
Ba6 Te17 3.669462 1_655
Ba6 Te17 3.669462 1_555
Ba6 Te1 3.674062 1_555
Ba6 Te7 3.674062 1_655
Ba6 Te22 3.753785 1_555
Ba7 Te8 3.581444 1_655
Ba7 Te14 3.581444 1_555
Ba7 Te27 3.589047 1_545
Ba7 Te9 3.591470 1_545
Ba7 Te15 3.591470 1_645
Ba7 Te16 3.669462 1_555
Ba7 Te16 3.669462 1_655
Ba7 Te6 3.674062 1_555
Ba7 Te0 3.674062 1_655
Ba7 Te23 3.753785 1_555
Cr0 Te16 2.788627 1_554
Cr0 Te18 2.788627 1_445
Cr0 Te23 2.797369 1_454
Cr0 Te21 2.797369 1_545
Cr0 Te27 2.839738 1_444
Cr0 Te25 2.839738 1_555
Cr1 Te17 2.788627 1_555
Cr1 Te19 2.788627 1_555
Cr1 Te20 2.797369 1_555
Cr1 Te22 2.797369 1_555
Cr1 Te26 2.839738 1_555
Cr1 Te24 2.839738 1_555
Cr2 Te16 2.788627 1_554
Cr2 Te18 2.788627 1_545
Cr2 Te23 2.797369 1_554
Cr2 Te21 2.797369 1_545
Cr2 Te27 2.839738 1_544
Cr2 Te25 2.839738 1_555
Cr3 Te17 2.788627 1_555
Cr3 Te19 2.788627 1_455
Cr3 Te20 2.797369 1_555
Cr3 Te22 2.797369 1_455
Cr3 Te26 2.839738 1_455
Cr3 Te24 2.839738 1_555
Te0 Te6 3.073750 1_555
Te0 Te6 3.132084 1_455
Te0 U0 3.146826 1_555
Te1 Te7 3.073750 1_555
Te1 Te7 3.132084 1_655
Te1 U1 3.146826 1_555
Te2 Te4 3.073750 1_555
Te2 Te4 3.132084 1_455
Te2 U2 3.146826 1_555
Te3 Te5 3.073750 1_555
Te3 Te5 3.132084 1_655
Te3 U3 3.146826 1_555
Te4 U2 3.146826 1_555
Te5 U3 3.146826 1_555
Te6 U0 3.146826 1_555
Te7 U1 3.146826 1_555
Te8 U0 3.143740 1_555
Te9 U1 3.143740 1_555
Te10 Te12 3.066998 1_555
Te10 Te12 3.138836 1_455
Te10 U2 3.143740 1_555
Te11 Te13 3.066998 1_555
Te11 Te13 3.138836 1_655
Te11 U3 3.143740 1_555
Te12 U2 3.143740 1_555
Te13 U3 3.143740 1_555
Te14 Te8 3.066998 1_555
Te14 Te8 3.138836 1_655
Te14 U0 3.143740 1_555
Te15 Te9 3.066998 1_555
Te15 Te9 3.138836 1_455
Te15 U1 3.143740 1_555
Te16 U1 3.117260 1_545
Te17 U0 3.117260 1_555
Te18 U3 3.117260 1_565
Te19 U2 3.117260 1_555
Te20 U0 3.109974 1_555
Te21 U1 3.109974 1_554
Te22 U2 3.109974 1_555
Te23 U3 3.109974 1_556
Te24 U2 3.291928 1_455
Te24 U2 3.291928 1_555
Te25 U3 3.291928 1_555
Te25 U3 3.291928 1_455
Te26 U0 3.291928 1_555
Te26 U0 3.291928 1_655
Te27 U1 3.291928 1_555
Te27 U1 3.291928 1_655
