# generated using pymatgen
data_CsRbNa2
_symmetry_space_group_name_H-M   'P 1'
_cell_length_a   16.37688202
_cell_length_b   15.62134599
_cell_length_c   15.62134654
_cell_angle_alpha   58.82982747
_cell_angle_beta   58.38675373
_cell_angle_gamma   58.38675464
_symmetry_Int_Tables_number   1
_chemical_formula_structural   CsRbNa2
_chemical_formula_sum   'Cs1 Rb1 Na2'
_cell_volume   2731.04052663
_cell_formula_units_Z   1
loop_
 _symmetry_equiv_pos_site_id
 _symmetry_equiv_pos_as_xyz
  1  'x, y, z'
loop_
 _atom_site_type_symbol
 _atom_site_label
 _atom_site_symmetry_multiplicity
 _atom_site_fract_x
 _atom_site_fract_y
 _atom_site_fract_z
 _atom_site_occupancy
  Cs  Cs0  1  0.50000000  0.00000000  -0.00000000  1
  Rb  Rb0  1  -0.00000000  0.00000000  -0.00000000  1
  Na  Na0  1  0.75312400  0.00000000  1.00000000  1
  Na  Na1  1  0.24687600  1.00000000  0.00000000  1
loop_
_geom_bond_atom_site_label_1
_geom_bond_atom_site_label_2
_geom_bond_distance
_geom_bond_site_symmetry_2
Cs0 Na0 4.145382 1_554
Cs0 Na1 4.145382 1_545
Na0 Rb0 4.043059 1_656
Na1 Rb0 4.043059 1_565
