# generated using pymatgen
data_Yb(CoP3)4
_symmetry_space_group_name_H-M   'P 1'
_cell_length_a   6.72912997
_cell_length_b   6.72912997
_cell_length_c   6.72912997
_cell_angle_alpha   109.47122063
_cell_angle_beta   109.47122063
_cell_angle_gamma   109.47122063
_symmetry_Int_Tables_number   1
_chemical_formula_structural   Yb(CoP3)4
_chemical_formula_sum   'Yb1 Co4 P12'
_cell_volume   234.56048941
_cell_formula_units_Z   1
loop_
 _symmetry_equiv_pos_site_id
 _symmetry_equiv_pos_as_xyz
  1  'x, y, z'
loop_
 _atom_site_type_symbol
 _atom_site_label
 _atom_site_symmetry_multiplicity
 _atom_site_fract_x
 _atom_site_fract_y
 _atom_site_fract_z
 _atom_site_occupancy
  Yb  Yb0  1  0.00000000  0.00000000  0.00000000  1
  Co  Co0  1  0.00000000  0.00000000  0.50000000  1
  Co  Co1  1  0.50000000  0.00000000  0.00000000  1
  Co  Co2  1  0.00000000  0.50000000  0.00000000  1
  Co  Co3  1  0.50000000  0.50000000  0.50000000  1
  P  P0  1  0.35344000  0.20505000  0.85161000  1
  P  P1  1  0.64656000  0.79495000  0.14839000  1
  P  P2  1  0.64656000  0.49817000  0.85161000  1
  P  P3  1  0.35344000  0.50183000  0.14839000  1
  P  P4  1  0.20505000  0.85161000  0.35344000  1
  P  P5  1  0.79495000  0.14839000  0.64656000  1
  P  P6  1  0.49817000  0.85161000  0.64656000  1
  P  P7  1  0.50183000  0.14839000  0.35344000  1
  P  P8  1  0.85161000  0.35344000  0.20505000  1
  P  P9  1  0.14839000  0.64656000  0.79495000  1
  P  P10  1  0.85161000  0.64656000  0.49817000  1
  P  P11  1  0.14839000  0.35344000  0.50183000  1
loop_
_geom_bond_atom_site_label_1
_geom_bond_atom_site_label_2
_geom_bond_distance
_geom_bond_site_symmetry_2
Co0 P11 2.245614 1_555
Co0 P5 2.245614 1_455
Co0 P10 2.245614 1_445
Co0 P0 2.245614 1_555
Co0 P1 2.245614 1_445
Co0 P4 2.245614 1_545
Co1 P6 2.245614 1_544
Co1 P7 2.245614 1_555
Co1 P1 2.245614 1_545
Co1 P0 2.245614 1_554
Co1 P8 2.245614 1_555
Co1 P9 2.245614 1_544
Co2 P2 2.245614 1_454
Co2 P4 2.245614 1_555
Co2 P3 2.245614 1_555
Co2 P5 2.245614 1_454
Co2 P9 2.245614 1_554
Co2 P8 2.245614 1_455
Co3 P6 2.245614 1_555
Co3 P3 2.245614 1_555
Co3 P7 2.245614 1_555
Co3 P2 2.245614 1_555
Co3 P10 2.245614 1_555
Co3 P11 2.245614 1_555
P0 P2 2.277581 1_555
P0 P3 2.306019 1_556
P0 Yb0 2.978499 1_556
P1 P3 2.277581 1_555
P1 P2 2.306019 1_554
P1 Yb0 2.978499 1_665
P2 Yb0 2.978499 1_666
P3 Yb0 2.978499 1_555
P4 P6 2.277581 1_555
P4 P7 2.306019 1_565
P4 Yb0 2.978499 1_565
P5 P7 2.277581 1_555
P5 P6 2.306019 1_545
P5 Yb0 2.978499 1_656
P6 Yb0 2.978499 1_666
P7 Yb0 2.978499 1_555
P8 Yb0 2.978499 1_655
P9 Yb0 2.978499 1_566
P10 P8 2.277581 1_555
P10 P9 2.306019 1_655
P10 Yb0 2.978499 1_666
P11 P9 2.277581 1_555
P11 P8 2.306019 1_455
P11 Yb0 2.978499 1_555
