# generated using pymatgen
data_Yb3Ga9Pd2
_symmetry_space_group_name_H-M   'P 1'
_cell_length_a   8.18000839
_cell_length_b   8.18000839
_cell_length_c   8.18000839
_cell_angle_alpha   149.47366772
_cell_angle_beta   107.28615380
_cell_angle_gamma   80.87784023
_symmetry_Int_Tables_number   1
_chemical_formula_structural   Yb3Ga9Pd2
_chemical_formula_sum   'Yb3 Ga9 Pd2'
_cell_volume   260.04772843
_cell_formula_units_Z   1
loop_
 _symmetry_equiv_pos_site_id
 _symmetry_equiv_pos_as_xyz
  1  'x, y, z'
loop_
 _atom_site_type_symbol
 _atom_site_label
 _atom_site_symmetry_multiplicity
 _atom_site_fract_x
 _atom_site_fract_y
 _atom_site_fract_z
 _atom_site_occupancy
  Yb  Yb0  1  0.50000000  0.50000000  0.00000000  1
  Yb  Yb1  1  0.20168600  0.20168600  0.00000000  1
  Yb  Yb2  1  0.79831400  0.79831400  0.00000000  1
  Ga  Ga0  1  0.08388300  0.36385500  0.72002800  1
  Ga  Ga1  1  0.91611700  0.63614500  0.27997200  1
  Ga  Ga2  1  0.64382800  0.36385500  0.27997200  1
  Ga  Ga3  1  0.35617200  0.63614500  0.72002800  1
  Ga  Ga4  1  0.79017900  0.15593900  0.63424000  1
  Ga  Ga5  1  0.20982100  0.84406100  0.36576000  1
  Ga  Ga6  1  0.52169800  0.15593900  0.36576000  1
  Ga  Ga7  1  0.47830200  0.84406100  0.63424000  1
  Ga  Ga8  1  0.00000000  0.50000000  0.50000000  1
  Pd  Pd0  1  0.82068200  0.00000000  0.82068200  1
  Pd  Pd1  1  0.17931800  0.00000000  0.17931800  1
loop_
_geom_bond_atom_site_label_1
_geom_bond_atom_site_label_2
_geom_bond_distance
_geom_bond_site_symmetry_2
Ga0 Ga5 2.587576 1_556
Ga0 Ga5 2.587576 1_545
Ga0 Ga4 2.719292 1_455
Ga0 Ga8 2.725329 1_555
Ga0 Pd1 2.768905 1_566
Ga0 Pd1 2.768905 1_555
Ga0 Yb2 3.139559 1_456
Ga0 Yb2 3.139559 1_445
Ga0 Yb0 3.201028 1_556
Ga0 Yb1 3.383817 1_556
Ga1 Ga4 2.587576 1_554
Ga1 Ga4 2.587576 1_565
Ga1 Ga5 2.719292 1_655
Ga1 Ga8 2.725329 1_655
Ga1 Pd0 2.768905 1_565
Ga1 Pd0 2.768905 1_554
Ga1 Yb1 3.139559 1_655
Ga1 Yb1 3.139559 1_666
Ga1 Yb0 3.201028 1_555
Ga1 Yb2 3.383817 1_555
Ga2 Ga7 2.587576 1_555
Ga2 Ga7 2.587576 1_544
Ga2 Ga6 2.719301 1_555
Ga2 Ga8 2.725322 1_655
Ga2 Pd0 2.768899 1_554
Ga2 Pd0 2.768902 1_565
Ga2 Yb2 3.139556 1_545
Ga2 Yb2 3.139559 1_556
Ga2 Yb0 3.201028 1_555
Ga2 Yb1 3.383825 1_555
Ga3 Ga6 2.587576 1_566
Ga3 Ga6 2.587576 1_555
Ga3 Ga7 2.719301 1_555
Ga3 Ga8 2.725322 1_555
Ga3 Pd1 2.768899 1_566
Ga3 Pd1 2.768902 1_555
Ga3 Yb1 3.139556 1_566
Ga3 Yb1 3.139559 1_555
Ga3 Yb0 3.201028 1_556
Ga3 Yb2 3.383825 1_556
Ga4 Ga6 2.603842 1_555
Ga4 Pd0 2.653247 1_555
Ga4 Yb2 3.078143 1_556
Ga4 Yb2 3.078143 1_545
Ga4 Yb0 3.178414 1_556
Ga4 Yb0 3.178414 1_545
Ga5 Ga7 2.603842 1_555
Ga5 Pd1 2.653247 1_565
Ga5 Yb1 3.078143 1_555
Ga5 Yb1 3.078143 1_566
Ga5 Yb0 3.178414 1_566
Ga5 Yb0 3.178414 1_555
Ga6 Pd1 2.653239 1_555
Ga6 Yb2 3.078147 1_556
Ga6 Yb2 3.078150 1_545
Ga6 Yb0 3.178411 1_556
Ga6 Yb0 3.178414 1_545
Ga7 Pd0 2.653239 1_565
Ga7 Yb1 3.078147 1_555
Ga7 Yb1 3.078150 1_566
Ga7 Yb0 3.178411 1_555
Ga7 Yb0 3.178414 1_566
Ga8 Pd1 2.767971 1_555
Ga8 Pd1 2.767971 1_566
Ga8 Pd0 2.767971 1_465
Ga8 Pd0 2.767971 1_454
Ga8 Yb1 3.308149 1_555
Ga8 Yb1 3.308149 1_566
Ga8 Yb2 3.308149 1_456
Ga8 Yb2 3.308149 1_445
Pd0 Yb1 3.054694 1_656
Pd0 Yb2 3.054694 1_546
Pd1 Yb1 3.054694 1_555
Pd1 Yb2 3.054694 1_445
