# generated using pymatgen
data_TiSiO4
_symmetry_space_group_name_H-M   'P 1'
_cell_length_a   5.37215942
_cell_length_b   5.37215942
_cell_length_c   5.37215942
_cell_angle_alpha   107.83570841
_cell_angle_beta   107.83570841
_cell_angle_gamma   112.79422822
_symmetry_Int_Tables_number   1
_chemical_formula_structural   TiSiO4
_chemical_formula_sum   'Ti2 Si2 O8'
_cell_volume   119.04767657
_cell_formula_units_Z   2
loop_
 _symmetry_equiv_pos_site_id
 _symmetry_equiv_pos_as_xyz
  1  'x, y, z'
loop_
 _atom_site_type_symbol
 _atom_site_label
 _atom_site_symmetry_multiplicity
 _atom_site_fract_x
 _atom_site_fract_y
 _atom_site_fract_z
 _atom_site_occupancy
  Ti  Ti0  1  0.87500000  0.12500000  0.25000000  1
  Ti  Ti1  1  0.12500000  0.87500000  0.75000000  1
  Si  Si0  1  0.62500000  0.37500000  0.75000000  1
  Si  Si1  1  0.37500000  0.62500000  0.25000000  1
  O  O0  1  0.63290000  0.19131500  0.94158500  1
  O  O1  1  0.19131500  0.63290000  0.44158500  1
  O  O2  1  0.19131500  0.24973000  0.05841500  1
  O  O3  1  0.24973000  0.19131500  0.55841500  1
  O  O4  1  0.36710000  0.80868500  0.05841500  1
  O  O5  1  0.80868500  0.36710000  0.55841500  1
  O  O6  1  0.80868500  0.75027000  0.94158500  1
  O  O7  1  0.75027000  0.80868500  0.44158500  1
loop_
_geom_bond_atom_site_label_1
_geom_bond_atom_site_label_2
_geom_bond_distance
_geom_bond_site_symmetry_2
O0 Si0 1.631775 1_555
O0 Ti0 1.991030 1_556
O0 Ti1 2.237736 1_545
O1 Si1 1.631775 1_555
O1 Ti1 1.991030 1_555
O1 Ti0 2.237736 1_455
O2 Si1 1.631775 1_555
O2 Ti1 1.991030 1_544
O2 Ti0 2.237736 1_455
O3 Si0 1.631775 1_555
O3 Ti0 1.991030 1_455
O3 Ti1 2.237736 1_545
O4 Si1 1.631775 1_555
O4 Ti1 1.991030 1_554
O4 Ti0 2.237736 1_565
O5 Si0 1.631775 1_555
O5 Ti0 1.991030 1_555
O5 Ti1 2.237736 1_655
O6 Si0 1.631775 1_555
O6 Ti0 1.991030 1_566
O6 Ti1 2.237736 1_655
O7 Si1 1.631775 1_555
O7 Ti1 1.991030 1_655
O7 Ti0 2.237736 1_565
