# generated using pymatgen
data_CeThN2
_symmetry_space_group_name_H-M   'P 1'
_cell_length_a   6.25418474
_cell_length_b   6.25418474
_cell_length_c   6.25418390
_cell_angle_alpha   33.64879654
_cell_angle_beta   33.64879654
_cell_angle_gamma   33.64880528
_symmetry_Int_Tables_number   1
_chemical_formula_structural   CeThN2
_chemical_formula_sum   'Ce1 Th1 N2'
_cell_volume   66.91105828
_cell_formula_units_Z   1
loop_
 _symmetry_equiv_pos_site_id
 _symmetry_equiv_pos_as_xyz
  1  'x, y, z'
loop_
 _atom_site_type_symbol
 _atom_site_label
 _atom_site_symmetry_multiplicity
 _atom_site_fract_x
 _atom_site_fract_y
 _atom_site_fract_z
 _atom_site_occupancy
  Ce  Ce0  1  0.00000000  0.00000000  -0.00000000  1
  Th  Th0  1  0.50000000  0.50000000  0.50000000  1
  N  N0  1  0.25041727  0.25041727  0.25041727  1
  N  N1  1  0.74958273  0.74958273  0.74958273  1
loop_
_geom_bond_atom_site_label_1
_geom_bond_atom_site_label_2
_geom_bond_distance
_geom_bond_site_symmetry_2
Ce0 N1 2.553242 1_445
Ce0 N0 2.553242 1_554
Ce0 N0 2.553243 1_455
Ce0 N1 2.553243 1_544
Ce0 N1 2.553243 1_454
Ce0 N0 2.553243 1_545
N0 Th0 2.561746 1_554
N0 Th0 2.561746 1_545
N0 Th0 2.561746 1_455
N1 Th0 2.561746 1_556
N1 Th0 2.561746 1_565
N1 Th0 2.561746 1_655
