# generated using pymatgen
data_Na3Rh(NO2)6
_symmetry_space_group_name_H-M   'P 1'
_cell_length_a   6.86764371
_cell_length_b   6.86764371
_cell_length_c   6.86764378
_cell_angle_alpha   72.30368147
_cell_angle_beta   72.30368147
_cell_angle_gamma   72.30368812
_symmetry_Int_Tables_number   1
_chemical_formula_structural   Na3Rh(NO2)6
_chemical_formula_sum   'Na3 Rh1 N6 O12'
_cell_volume   285.88114328
_cell_formula_units_Z   1
loop_
 _symmetry_equiv_pos_site_id
 _symmetry_equiv_pos_as_xyz
  1  'x, y, z'
loop_
 _atom_site_type_symbol
 _atom_site_label
 _atom_site_symmetry_multiplicity
 _atom_site_fract_x
 _atom_site_fract_y
 _atom_site_fract_z
 _atom_site_occupancy
  Na  Na0  1  0.73476300  0.73476300  0.73476300  1
  Na  Na1  1  0.26523700  0.26523700  0.26523700  1
  Na  Na2  1  0.50000000  0.50000000  0.50000000  1
  Rh  Rh0  1  0.00000000  0.00000000  0.00000000  1
  N  N0  1  0.17467900  0.79837300  0.79837300  1
  N  N1  1  0.79837300  0.79837300  0.17467900  1
  N  N2  1  0.79837300  0.17467900  0.79837300  1
  N  N3  1  0.20162700  0.82532100  0.20162700  1
  N  N4  1  0.82532100  0.20162700  0.20162700  1
  N  N5  1  0.20162700  0.20162700  0.82532100  1
  O  O0  1  0.28215800  0.91154400  0.28215800  1
  O  O1  1  0.71784200  0.08845600  0.71784200  1
  O  O2  1  0.71784200  0.71784200  0.08845600  1
  O  O3  1  0.08845600  0.71784200  0.71784200  1
  O  O4  1  0.62866700  0.24164400  0.24164400  1
  O  O5  1  0.24164400  0.24164400  0.62866700  1
  O  O6  1  0.24164400  0.62866700  0.24164400  1
  O  O7  1  0.75835600  0.37133300  0.75835600  1
  O  O8  1  0.37133300  0.75835600  0.75835600  1
  O  O9  1  0.75835600  0.75835600  0.37133300  1
  O  O10  1  0.91154400  0.28215800  0.28215800  1
  O  O11  1  0.28215800  0.28215800  0.91154400  1
loop_
_geom_bond_atom_site_label_1
_geom_bond_atom_site_label_2
_geom_bond_distance
_geom_bond_site_symmetry_2
Na0 O3 2.364790 1_655
Na0 O1 2.364790 1_565
Na0 O2 2.364790 1_556
Na0 O7 2.409628 1_555
Na0 O8 2.409628 1_555
Na0 O9 2.409628 1_555
Na1 O10 2.364790 1_455
Na1 O0 2.364790 1_545
Na1 O11 2.364790 1_554
Na1 O4 2.409628 1_555
Na1 O6 2.409628 1_555
Na1 O5 2.409628 1_555
Na2 O5 2.661700 1_555
Na2 O9 2.661700 1_555
Na2 O6 2.661700 1_555
Na2 O8 2.661700 1_555
Na2 O7 2.661700 1_555
Na2 O4 2.661700 1_555
Na2 O2 2.946872 1_555
Na2 O11 2.946872 1_555
Na2 O3 2.946872 1_555
Na2 O0 2.946872 1_555
Na2 O1 2.946872 1_555
Na2 O10 2.946872 1_555
N0 O3 1.243598 1_555
N0 O8 1.252863 1_555
N0 Rh0 2.102342 1_566
N1 O2 1.243598 1_555
N1 O9 1.252863 1_555
N1 Rh0 2.102341 1_665
N2 O1 1.243598 1_555
N2 O7 1.252863 1_555
N2 Rh0 2.102342 1_656
N3 O0 1.243598 1_555
N3 O6 1.252863 1_555
N3 Rh0 2.102342 1_565
N4 O10 1.243598 1_555
N4 O4 1.252863 1_555
N4 Rh0 2.102342 1_655
N5 O11 1.243598 1_555
N5 O5 1.252863 1_555
N5 Rh0 2.102341 1_556
