# generated using pymatgen
data_BaMg14ZnO16
_symmetry_space_group_name_H-M   'P 1'
_cell_length_a   8.73100633
_cell_length_b   8.73100633
_cell_length_c   4.51587281
_cell_angle_alpha   90.00000000
_cell_angle_beta   90.00000000
_cell_angle_gamma   90.00000000
_symmetry_Int_Tables_number   1
_chemical_formula_structural   BaMg14ZnO16
_chemical_formula_sum   'Ba1 Mg14 Zn1 O16'
_cell_volume   344.24711370
_cell_formula_units_Z   1
loop_
 _symmetry_equiv_pos_site_id
 _symmetry_equiv_pos_as_xyz
  1  'x, y, z'
loop_
 _atom_site_type_symbol
 _atom_site_label
 _atom_site_symmetry_multiplicity
 _atom_site_fract_x
 _atom_site_fract_y
 _atom_site_fract_z
 _atom_site_occupancy
  Ba  Ba0  1  0.50000000  0.50000000  0.00000000  1
  Mg  Mg0  1  -0.00000000  0.50000000  0.00000000  1
  Mg  Mg1  1  0.50000000  0.00000000  0.00000000  1
  Mg  Mg2  1  -0.00000000  0.24784214  0.50000000  1
  Mg  Mg3  1  -0.00000000  0.75215786  0.50000000  1
  Mg  Mg4  1  0.50000000  0.23624054  0.50000000  1
  Mg  Mg5  1  0.50000000  0.76375946  0.50000000  1
  Mg  Mg6  1  0.24784214  0.00000000  0.50000000  1
  Mg  Mg7  1  0.23624054  0.50000000  0.50000000  1
  Mg  Mg8  1  0.75215786  0.00000000  0.50000000  1
  Mg  Mg9  1  0.76375946  0.50000000  0.50000000  1
  Mg  Mg10  1  0.24171377  0.24171377  0.00000000  1
  Mg  Mg11  1  0.24171377  0.75828623  -0.00000000  1
  Mg  Mg12  1  0.75828623  0.24171377  0.00000000  1
  Mg  Mg13  1  0.75828623  0.75828623  -0.00000000  1
  Zn  Zn0  1  -0.00000000  0.00000000  0.00000000  1
  O  O0  1  0.24632979  0.00000000  0.00000000  1
  O  O1  1  0.21936813  0.50000000  0.00000000  1
  O  O2  1  0.75367021  0.00000000  -0.00000000  1
  O  O3  1  0.78063187  0.50000000  -0.00000000  1
  O  O4  1  0.24995159  0.24995159  0.50000000  1
  O  O5  1  0.24995159  0.75004841  0.50000000  1
  O  O6  1  0.75004841  0.24995159  0.50000000  1
  O  O7  1  0.75004841  0.75004841  0.50000000  1
  O  O8  1  -0.00000000  0.00000000  0.50000000  1
  O  O9  1  -0.00000000  0.50000000  0.50000000  1
  O  O10  1  0.50000000  0.00000000  0.50000000  1
  O  O11  1  0.50000000  0.50000000  0.50000000  1
  O  O12  1  -0.00000000  0.24632979  -0.00000000  1
  O  O13  1  -0.00000000  0.75367021  0.00000000  1
  O  O14  1  0.50000000  0.21936813  0.00000000  1
  O  O15  1  0.50000000  0.78063187  -0.00000000  1
loop_
_geom_bond_atom_site_label_1
_geom_bond_atom_site_label_2
_geom_bond_distance
_geom_bond_site_symmetry_2
Ba0 O11 2.257936 1_554
Ba0 O11 2.257936 1_555
Ba0 O3 2.450199 1_555
Ba0 O1 2.450199 1_555
Ba0 O14 2.450199 1_555
Ba0 O15 2.450199 1_555
Mg0 O1 1.915305 1_555
Mg0 O3 1.915305 1_455
Mg0 O13 2.214796 1_555
Mg0 O12 2.214796 1_555
Mg0 O9 2.257936 1_554
Mg0 O9 2.257936 1_555
Mg1 O15 1.915305 1_545
Mg1 O14 1.915305 1_555
Mg1 O2 2.214796 1_555
Mg1 O0 2.214796 1_555
Mg1 O10 2.257936 1_555
Mg1 O10 2.257936 1_554
Mg2 O8 2.163911 1_555
Mg2 O4 2.182407 1_555
Mg2 O6 2.182407 1_455
Mg2 O9 2.201592 1_555
Mg2 O12 2.257975 1_555
Mg2 O12 2.257975 1_556
Mg3 O8 2.163911 1_565
Mg3 O7 2.182407 1_455
Mg3 O5 2.182407 1_555
Mg3 O9 2.201592 1_555
Mg3 O13 2.257975 1_555
Mg3 O13 2.257975 1_556
Mg4 O10 2.062618 1_555
Mg4 O4 2.186454 1_555
Mg4 O6 2.186454 1_555
Mg4 O14 2.262737 1_556
Mg4 O14 2.262737 1_555
Mg4 O11 2.302886 1_555
Mg5 O10 2.062618 1_565
Mg5 O5 2.186454 1_555
Mg5 O7 2.186454 1_555
Mg5 O15 2.262737 1_556
Mg5 O15 2.262737 1_555
Mg5 O11 2.302886 1_555
Mg6 O8 2.163911 1_555
Mg6 O5 2.182407 1_545
Mg6 O4 2.182407 1_555
Mg6 O10 2.201592 1_555
Mg6 O0 2.257975 1_555
Mg6 O0 2.257975 1_556
Mg7 O9 2.062618 1_555
Mg7 O4 2.186454 1_555
Mg7 O5 2.186454 1_555
Mg7 O1 2.262737 1_555
Mg7 O1 2.262737 1_556
Mg7 O11 2.302886 1_555
Mg8 O8 2.163911 1_655
Mg8 O6 2.182407 1_555
Mg8 O7 2.182407 1_545
Mg8 O10 2.201592 1_555
Mg8 O2 2.257975 1_556
Mg8 O2 2.257975 1_555
Mg9 O9 2.062618 1_655
Mg9 O6 2.186454 1_555
Mg9 O7 2.186454 1_555
Mg9 O3 2.262737 1_556
Mg9 O3 2.262737 1_555
Mg9 O11 2.302886 1_555
Mg10 O12 2.110789 1_555
Mg10 O0 2.110789 1_555
Mg10 O4 2.260226 1_554
Mg10 O4 2.260226 1_555
Mg10 O1 2.263523 1_555
Mg10 O14 2.263523 1_555
Mg11 O0 2.110789 1_565
Mg11 O13 2.110789 1_555
Mg11 O5 2.260226 1_554
Mg11 O5 2.260226 1_555
Mg11 O15 2.263523 1_555
Mg11 O1 2.263523 1_555
Mg12 O12 2.110789 1_655
Mg12 O2 2.110789 1_555
Mg12 O6 2.260226 1_554
Mg12 O6 2.260226 1_555
Mg12 O3 2.263523 1_555
Mg12 O14 2.263523 1_555
Mg13 O2 2.110789 1_565
Mg13 O13 2.110789 1_655
Mg13 O7 2.260226 1_555
Mg13 O7 2.260226 1_554
Mg13 O3 2.263523 1_555
Mg13 O15 2.263523 1_555
O0 Zn0 2.150707 1_555
O2 Zn0 2.150707 1_655
O8 Zn0 2.257936 1_556
O8 Zn0 2.257936 1_555
O12 Zn0 2.150707 1_555
O13 Zn0 2.150707 1_565
