# generated using pymatgen
data_CaTb2Mn3O9
_symmetry_space_group_name_H-M   'P 1'
_cell_length_a   5.38197000
_cell_length_b   7.58622700
_cell_length_c   16.83793900
_cell_angle_alpha   90.00000000
_cell_angle_beta   90.00000000
_cell_angle_gamma   90.00000000
_symmetry_Int_Tables_number   1
_chemical_formula_structural   CaTb2Mn3O9
_chemical_formula_sum   'Ca4 Tb8 Mn12 O36'
_cell_volume   687.47362053
_cell_formula_units_Z   4
loop_
 _symmetry_equiv_pos_site_id
 _symmetry_equiv_pos_as_xyz
  1  'x, y, z'
loop_
 _atom_site_type_symbol
 _atom_site_label
 _atom_site_symmetry_multiplicity
 _atom_site_fract_x
 _atom_site_fract_y
 _atom_site_fract_z
 _atom_site_occupancy
  Ca  Ca0  1  0.48653600  0.75000000  0.85223100  1
  Ca  Ca1  1  0.01346400  0.75000000  0.35223100  1
  Ca  Ca2  1  0.51346400  0.25000000  0.14776900  1
  Ca  Ca3  1  0.98653600  0.25000000  0.64776900  1
  Tb  Tb0  1  0.48277700  0.75000000  0.18759600  1
  Tb  Tb1  1  0.48530200  0.75000000  0.52067700  1
  Tb  Tb2  1  0.01722300  0.75000000  0.68759600  1
  Tb  Tb3  1  0.01469800  0.75000000  0.02067700  1
  Tb  Tb4  1  0.51722300  0.25000000  0.81240400  1
  Tb  Tb5  1  0.51469800  0.25000000  0.47932300  1
  Tb  Tb6  1  0.98530200  0.25000000  0.97932300  1
  Tb  Tb7  1  0.98277700  0.25000000  0.31240400  1
  Mn  Mn0  1  0.00139200  0.99872800  0.83340800  1
  Mn  Mn1  1  0.99860800  0.00127200  0.16659200  1
  Mn  Mn2  1  0.00000000  0.00000000  0.50000000  1
  Mn  Mn3  1  0.50139200  0.49872800  0.66659200  1
  Mn  Mn4  1  0.50000000  0.50000000  0.00000000  1
  Mn  Mn5  1  0.49860800  0.50127200  0.33340800  1
  Mn  Mn6  1  0.00139200  0.50127200  0.83340800  1
  Mn  Mn7  1  0.99860800  0.49872800  0.16659200  1
  Mn  Mn8  1  0.00000000  0.50000000  0.50000000  1
  Mn  Mn9  1  0.50139200  0.00127200  0.66659200  1
  Mn  Mn10  1  0.50000000  0.00000000  0.00000000  1
  Mn  Mn11  1  0.49860800  0.99872800  0.33340800  1
  O  O0  1  0.19665200  0.95384500  0.93553400  1
  O  O1  1  0.20886000  0.95185100  0.26437700  1
  O  O2  1  0.20759300  0.94298600  0.59924100  1
  O  O3  1  0.29114000  0.54814900  0.76437700  1
  O  O4  1  0.29240700  0.55701400  0.09924100  1
  O  O5  1  0.30334800  0.54615500  0.43553400  1
  O  O6  1  0.79114000  0.45185100  0.73562300  1
  O  O7  1  0.80334800  0.45384500  0.06446600  1
  O  O8  1  0.79240700  0.44298600  0.40075900  1
  O  O9  1  0.70759300  0.05701400  0.90075900  1
  O  O10  1  0.70886000  0.04814900  0.23562300  1
  O  O11  1  0.69665200  0.04615500  0.56446600  1
  O  O12  1  0.79114000  0.04814900  0.73562300  1
  O  O13  1  0.80334800  0.04615500  0.06446600  1
  O  O14  1  0.79240700  0.05701400  0.40075900  1
  O  O15  1  0.70759300  0.44298600  0.90075900  1
  O  O16  1  0.70886000  0.45185100  0.23562300  1
  O  O17  1  0.69665200  0.45384500  0.56446600  1
  O  O18  1  0.19665200  0.54615500  0.93553400  1
  O  O19  1  0.20886000  0.54814900  0.26437700  1
  O  O20  1  0.20759300  0.55701400  0.59924100  1
  O  O21  1  0.29114000  0.95185100  0.76437700  1
  O  O22  1  0.29240700  0.94298600  0.09924100  1
  O  O23  1  0.30334800  0.95384500  0.43553400  1
  O  O24  1  0.60044100  0.75000000  0.99085900  1
  O  O25  1  0.59130800  0.75000000  0.32176400  1
  O  O26  1  0.60355200  0.75000000  0.65535900  1
  O  O27  1  0.90869200  0.75000000  0.82176400  1
  O  O28  1  0.89644800  0.75000000  0.15535900  1
  O  O29  1  0.89955900  0.75000000  0.49085900  1
  O  O30  1  0.40869200  0.25000000  0.67823600  1
  O  O31  1  0.39955900  0.25000000  0.00914100  1
  O  O32  1  0.39644800  0.25000000  0.34464100  1
  O  O33  1  0.10355200  0.25000000  0.84464100  1
  O  O34  1  0.09130800  0.25000000  0.17823600  1
  O  O35  1  0.10044100  0.25000000  0.50914100  1
loop_
_geom_bond_atom_site_label_1
_geom_bond_atom_site_label_2
_geom_bond_distance
_geom_bond_site_symmetry_2
Ca0 O27 2.329226 1_555
Ca0 O21 2.374659 1_555
Ca0 O3 2.374659 1_555
Ca0 O24 2.413368 1_555
Ca0 O0 2.606316 1_555
Ca0 O18 2.606316 1_555
Ca0 O9 2.740021 1_565
Ca0 O15 2.740021 1_555
Ca1 O25 2.329226 1_455
Ca1 O19 2.374659 1_555
Ca1 O1 2.374659 1_555
Ca1 O29 2.413368 1_455
Ca1 O23 2.606316 1_555
Ca1 O5 2.606316 1_555
Ca1 O14 2.740021 1_465
Ca1 O8 2.740021 1_455
Ca2 O34 2.329226 1_555
Ca2 O16 2.374659 1_555
Ca2 O10 2.374659 1_555
Ca2 O31 2.413368 1_555
Ca2 O7 2.606316 1_555
Ca2 O13 2.606316 1_555
Ca2 O4 2.740021 1_555
Ca2 O22 2.740021 1_545
Ca3 O30 2.329226 1_655
Ca3 O12 2.374659 1_555
Ca3 O6 2.374659 1_555
Ca3 O35 2.413368 1_655
Ca3 O17 2.606316 1_555
Ca3 O11 2.606316 1_555
Ca3 O2 2.740021 1_645
Ca3 O20 2.740021 1_655
Mn0 O27 1.961573 1_455
Mn0 O21 1.977188 1_555
Mn0 O33 1.992913 1_565
Mn0 O9 1.995454 1_465
Mn0 O12 2.032725 1_465
Mn0 O0 2.043841 1_555
Mn1 O34 1.961573 1_655
Mn1 O10 1.977188 1_555
Mn1 O28 1.992913 1_545
Mn1 O22 1.995454 1_645
Mn1 O1 2.032725 1_645
Mn1 O13 2.043841 1_555
Mn2 O35 1.978088 1_555
Mn2 O29 1.978088 1_445
Mn2 O23 1.991550 1_545
Mn2 O11 1.991550 1_455
Mn2 O14 2.056120 1_455
Mn2 O2 2.056120 1_545
Mn3 O30 1.961573 1_555
Mn3 O6 1.977188 1_555
Mn3 O26 1.992913 1_555
Mn3 O20 1.995454 1_555
Mn3 O3 2.032725 1_555
Mn3 O17 2.043841 1_555
Mn4 O31 1.978088 1_555
Mn4 O24 1.978088 1_554
Mn4 O7 1.991550 1_555
Mn4 O18 1.991550 1_554
Mn4 O15 2.056120 1_554
Mn4 O4 2.056120 1_555
Mn5 O25 1.961573 1_555
Mn5 O19 1.977188 1_555
Mn5 O32 1.992913 1_555
Mn5 O8 1.995454 1_555
Mn5 O16 2.032725 1_555
Mn5 O5 2.043841 1_555
Mn6 O27 1.961573 1_455
Mn6 O3 1.977188 1_555
Mn6 O33 1.992913 1_555
Mn6 O15 1.995454 1_455
Mn6 O6 2.032725 1_455
Mn6 O18 2.043841 1_555
Mn7 O34 1.961573 1_655
Mn7 O16 1.977188 1_555
Mn7 O28 1.992913 1_555
Mn7 O4 1.995454 1_655
Mn7 O19 2.032725 1_655
Mn7 O7 2.043841 1_555
Mn8 O35 1.978088 1_555
Mn8 O29 1.978088 1_455
Mn8 O5 1.991550 1_555
Mn8 O17 1.991550 1_455
Mn8 O8 2.056120 1_455
Mn8 O20 2.056120 1_555
Mn9 O30 1.961573 1_555
Mn9 O12 1.977188 1_555
Mn9 O26 1.992913 1_545
Mn9 O2 1.995454 1_545
Mn9 O21 2.032725 1_545
Mn9 O11 2.043841 1_555
Mn10 O31 1.978088 1_555
Mn10 O24 1.978088 1_544
Mn10 O13 1.991550 1_555
Mn10 O0 1.991550 1_544
Mn10 O9 2.056120 1_554
Mn10 O22 2.056120 1_545
Mn11 O25 1.961573 1_555
Mn11 O1 1.977188 1_555
Mn11 O32 1.992913 1_565
Mn11 O14 1.995454 1_565
Mn11 O10 2.032725 1_565
Mn11 O23 2.043841 1_555
O0 Tb3 2.325010 1_556
O0 Tb6 2.623957 1_465
O1 Tb0 2.487884 1_555
O1 Tb7 2.692647 1_465
O2 Tb2 2.325174 1_555
O2 Tb1 2.475326 1_555
O3 Tb2 2.487884 1_555
O3 Tb4 2.692647 1_555
O4 Tb0 2.325174 1_555
O4 Tb3 2.475326 1_555
O5 Tb1 2.325010 1_555
O5 Tb5 2.623957 1_555
O6 Tb4 2.487884 1_555
O6 Tb2 2.692647 1_655
O7 Tb6 2.325010 1_554
O7 Tb3 2.623957 1_655
O8 Tb7 2.325174 1_555
O8 Tb5 2.475326 1_555
O9 Tb4 2.325174 1_555
O9 Tb6 2.475326 1_555
O10 Tb7 2.487884 1_555
O10 Tb0 2.692647 1_545
O11 Tb5 2.325010 1_555
O11 Tb1 2.623957 1_545
O12 Tb4 2.487884 1_555
O12 Tb2 2.692647 1_645
O13 Tb6 2.325010 1_554
O13 Tb3 2.623957 1_645
O14 Tb7 2.325174 1_555
O14 Tb5 2.475326 1_555
O15 Tb4 2.325174 1_555
O15 Tb6 2.475326 1_555
O16 Tb7 2.487884 1_555
O16 Tb0 2.692647 1_555
O17 Tb5 2.325010 1_555
O17 Tb1 2.623957 1_555
O18 Tb3 2.325010 1_556
O18 Tb6 2.623957 1_455
O19 Tb0 2.487884 1_555
O19 Tb7 2.692647 1_455
O20 Tb2 2.325174 1_555
O20 Tb1 2.475326 1_555
O21 Tb2 2.487884 1_555
O21 Tb4 2.692647 1_565
O22 Tb0 2.325174 1_555
O22 Tb3 2.475326 1_555
O23 Tb1 2.325010 1_555
O23 Tb5 2.623957 1_565
O24 Tb3 2.285352 1_656
O25 Tb0 2.333404 1_555
O26 Tb2 2.291580 1_655
O26 Tb1 2.355376 1_555
O27 Tb2 2.333404 1_655
O28 Tb0 2.291580 1_555
O28 Tb3 2.355376 1_655
O29 Tb1 2.285352 1_555
O30 Tb4 2.333404 1_555
O31 Tb6 2.285352 1_454
O32 Tb7 2.291580 1_455
O32 Tb5 2.355376 1_555
O33 Tb4 2.291580 1_555
O33 Tb6 2.355376 1_455
O34 Tb7 2.333404 1_455
O35 Tb5 2.285352 1_555
