# generated using pymatgen
data_K9FeS7
_symmetry_space_group_name_H-M   'P 1'
_cell_length_a   7.95746500
_cell_length_b   10.80128500
_cell_length_c   23.96450067
_cell_angle_alpha   77.06204438
_cell_angle_beta   90.00000000
_cell_angle_gamma   90.00000000
_symmetry_Int_Tables_number   1
_chemical_formula_structural   K9FeS7
_chemical_formula_sum   'K36 Fe4 S28'
_cell_volume   2007.47796083
_cell_formula_units_Z   4
loop_
 _symmetry_equiv_pos_site_id
 _symmetry_equiv_pos_as_xyz
  1  'x, y, z'
loop_
 _atom_site_type_symbol
 _atom_site_label
 _atom_site_symmetry_multiplicity
 _atom_site_fract_x
 _atom_site_fract_y
 _atom_site_fract_z
 _atom_site_occupancy
  K  K0  1  0.09502500  0.98998100  0.27352400  1
  K  K1  1  0.59502500  0.01001900  0.22647600  1
  K  K2  1  0.90497500  0.01001900  0.72647600  1
  K  K3  1  0.40497500  0.98998100  0.77352400  1
  K  K4  1  0.03470500  0.83579700  0.06335300  1
  K  K5  1  0.53470500  0.16420300  0.43664700  1
  K  K6  1  0.96529500  0.16420300  0.93664700  1
  K  K7  1  0.46529500  0.83579700  0.56335300  1
  K  K8  1  0.25887100  0.54510800  0.16505300  1
  K  K9  1  0.75887100  0.45489200  0.33494700  1
  K  K10  1  0.74112900  0.45489200  0.83494700  1
  K  K11  1  0.24112900  0.54510800  0.66505300  1
  K  K12  1  0.54960100  0.77296100  0.08697000  1
  K  K13  1  0.04960100  0.22703900  0.41303000  1
  K  K14  1  0.45039900  0.22703900  0.91303000  1
  K  K15  1  0.95039900  0.77296100  0.58697000  1
  K  K16  1  0.05617500  0.57713900  0.42042000  1
  K  K17  1  0.55617500  0.42286100  0.07958000  1
  K  K18  1  0.94382500  0.42286100  0.57958000  1
  K  K19  1  0.44382500  0.57713900  0.92042000  1
  K  K20  1  0.14030900  0.88528300  0.44737600  1
  K  K21  1  0.64030900  0.11471700  0.05262400  1
  K  K22  1  0.85969100  0.11471700  0.55262400  1
  K  K23  1  0.35969100  0.88528300  0.94737600  1
  K  K24  1  0.43974200  0.26223100  0.28115300  1
  K  K25  1  0.93974200  0.73776900  0.21884700  1
  K  K26  1  0.56025800  0.73776900  0.71884700  1
  K  K27  1  0.06025800  0.26223100  0.78115300  1
  K  K28  1  0.43588600  0.70700100  0.29389700  1
  K  K29  1  0.93588600  0.29299900  0.20610300  1
  K  K30  1  0.56411400  0.29299900  0.70610300  1
  K  K31  1  0.06411400  0.70700100  0.79389700  1
  K  K32  1  0.07892100  0.35280600  0.04606700  1
  K  K33  1  0.57892100  0.64719400  0.45393300  1
  K  K34  1  0.92107900  0.64719400  0.95393300  1
  K  K35  1  0.42107900  0.35280600  0.54606700  1
  Fe  Fe0  1  0.70066300  0.94596900  0.37206400  1
  Fe  Fe1  1  0.20066300  0.05403100  0.12793600  1
  Fe  Fe2  1  0.29933700  0.05403100  0.62793600  1
  Fe  Fe3  1  0.79933700  0.94596900  0.87206400  1
  S  S0  1  0.30903000  0.21830700  0.16418400  1
  S  S1  1  0.80903000  0.78169300  0.33581600  1
  S  S2  1  0.69097000  0.78169300  0.83581600  1
  S  S3  1  0.19097000  0.21830700  0.66418400  1
  S  S4  1  0.30275400  0.85870700  0.17582000  1
  S  S5  1  0.80275400  0.14129300  0.32418000  1
  S  S6  1  0.69724600  0.14129300  0.82418000  1
  S  S7  1  0.19724600  0.85870700  0.67582000  1
  S  S8  1  0.41438400  0.95594100  0.35435400  1
  S  S9  1  0.91438400  0.04405900  0.14564600  1
  S  S10  1  0.58561600  0.04405900  0.64564600  1
  S  S11  1  0.08561600  0.95594100  0.85435400  1
  S  S12  1  0.75752100  0.91464100  0.46881300  1
  S  S13  1  0.25752100  0.08535900  0.03118700  1
  S  S14  1  0.24247900  0.08535900  0.53118700  1
  S  S15  1  0.74247900  0.91464100  0.96881300  1
  S  S16  1  0.16200900  0.46969300  0.30275400  1
  S  S17  1  0.66200900  0.53030700  0.19724600  1
  S  S18  1  0.83799100  0.53030700  0.69724600  1
  S  S19  1  0.33799100  0.46969300  0.80275400  1
  S  S20  1  0.35332000  0.43468700  0.36788100  1
  S  S21  1  0.85332000  0.56531300  0.13211900  1
  S  S22  1  0.64668000  0.56531300  0.63211900  1
  S  S23  1  0.14668000  0.43468700  0.86788100  1
  S  S24  1  0.26823200  0.62397000  0.03027500  1
  S  S25  1  0.76823200  0.37603000  0.46972500  1
  S  S26  1  0.73176800  0.37603000  0.96972500  1
  S  S27  1  0.23176800  0.62397000  0.53027500  1
loop_
_geom_bond_atom_site_label_1
_geom_bond_atom_site_label_2
_geom_bond_distance
_geom_bond_site_symmetry_2
K0 S8 3.166477 1_555
K0 S5 3.231453 1_465
K0 S1 3.311389 1_455
K0 S9 3.316207 1_465
K0 S4 3.422259 1_555
K0 S0 3.599217 1_565
K1 S9 3.166477 1_555
K1 S4 3.231453 1_545
K1 S0 3.311389 1_555
K1 S8 3.316207 1_545
K1 S5 3.422259 1_555
K1 S1 3.599217 1_545
K2 S10 3.166477 1_555
K2 S7 3.231453 1_645
K2 S3 3.311389 1_655
K2 S11 3.316207 1_645
K2 S6 3.422259 1_555
K2 S2 3.599217 1_545
K3 S11 3.166477 1_555
K3 S6 3.231453 1_565
K3 S2 3.311389 1_555
K3 S10 3.316207 1_565
K3 S7 3.422259 1_555
K3 S3 3.599217 1_565
K4 S13 3.173903 1_565
K4 S24 3.182563 1_555
K4 S15 3.225153 1_454
K4 S21 3.343454 1_455
K4 S9 3.442773 1_465
K4 S4 3.489087 1_555
K5 S12 3.173903 1_545
K5 S25 3.182563 1_555
K5 S14 3.225153 1_555
K5 S20 3.343454 1_555
K5 S8 3.442773 1_545
K5 S5 3.489087 1_555
K6 S15 3.173903 1_545
K6 S26 3.182563 1_555
K6 S13 3.225153 1_656
K6 S23 3.343454 1_655
K6 S11 3.442773 1_645
K6 S6 3.489087 1_555
K7 S14 3.173903 1_565
K7 S27 3.182563 1_555
K7 S12 3.225153 1_555
K7 S22 3.343454 1_555
K7 S10 3.442773 1_565
K7 S7 3.489087 1_555
K8 S24 3.151399 1_555
K8 S17 3.294922 1_555
K8 S16 3.308099 1_555
K8 S21 3.317824 1_455
K8 S4 3.471815 1_555
K8 S0 3.557056 1_555
K9 S25 3.151399 1_555
K9 S16 3.294922 1_655
K9 S17 3.308099 1_555
K9 S20 3.317824 1_555
K9 S5 3.471815 1_555
K9 S1 3.557056 1_555
K10 S26 3.151399 1_555
K10 S19 3.294922 1_555
K10 S18 3.308099 1_555
K10 S23 3.317824 1_655
K10 S6 3.471815 1_555
K10 S2 3.557056 1_555
K11 S27 3.151399 1_555
K11 S18 3.294922 1_455
K11 S19 3.308099 1_555
K11 S22 3.317824 1_555
K11 S7 3.471815 1_555
K11 S3 3.557056 1_555
K12 S4 3.183224 1_555
K12 S24 3.229233 1_555
K12 S15 3.282529 1_554
K12 S21 3.309914 1_555
K12 S17 3.398809 1_555
K13 S5 3.183224 1_455
K13 S25 3.229233 1_455
K13 S14 3.282529 1_555
K13 S20 3.309914 1_555
K13 S16 3.398809 1_555
K14 S6 3.183224 1_555
K14 S26 3.229233 1_555
K14 S13 3.282529 1_556
K14 S23 3.309914 1_555
K14 S19 3.398809 1_555
K15 S7 3.183224 1_655
K15 S27 3.229233 1_655
K15 S12 3.282529 1_555
K15 S22 3.309914 1_555
K15 S18 3.398809 1_555
K16 S27 3.120136 1_555
K16 S25 3.196159 1_455
K16 S20 3.226641 1_555
K16 S1 3.294562 1_455
K16 S16 3.387162 1_555
K17 S26 3.120136 1_554
K17 S24 3.196159 1_555
K17 S21 3.226641 1_555
K17 S0 3.294562 1_555
K17 S17 3.387162 1_555
K18 S25 3.120136 1_555
K18 S27 3.196159 1_655
K18 S22 3.226641 1_555
K18 S3 3.294562 1_655
K18 S18 3.387162 1_555
K19 S24 3.120136 1_556
K19 S26 3.196159 1_555
K19 S23 3.226641 1_555
K19 S2 3.294562 1_555
K19 S19 3.387162 1_555
K20 S8 3.089754 1_555
K20 S12 3.116997 1_455
K20 S27 3.151519 1_555
K20 S14 3.362873 1_565
K21 S9 3.089754 1_555
K21 S13 3.116997 1_555
K21 S26 3.151519 1_554
K21 S15 3.362873 1_544
K22 S10 3.089754 1_555
K22 S14 3.116997 1_655
K22 S25 3.151519 1_555
K22 S12 3.362873 1_545
K23 S11 3.089754 1_555
K23 S15 3.116997 1_555
K23 S24 3.151519 1_556
K23 S13 3.362873 1_566
K24 S0 3.124080 1_555
K24 S20 3.161662 1_555
K24 S5 3.242032 1_555
K24 S16 3.270041 1_555
K24 S8 3.385892 1_545
K24 S17 3.598416 1_555
K25 S1 3.124080 1_555
K25 S21 3.161662 1_555
K25 S4 3.242032 1_655
K25 S17 3.270041 1_555
K25 S9 3.385892 1_565
K25 S16 3.598416 1_655
K26 S2 3.124080 1_555
K26 S22 3.161662 1_555
K26 S7 3.242032 1_555
K26 S18 3.270041 1_555
K26 S10 3.385892 1_565
K26 S19 3.598416 1_555
K27 S3 3.124080 1_555
K27 S23 3.161662 1_555
K27 S6 3.242032 1_455
K27 S19 3.270041 1_555
K27 S11 3.385892 1_545
K27 S18 3.598416 1_455
K28 S4 3.120586 1_555
K28 S20 3.145065 1_555
K28 S1 3.292351 1_555
K28 S8 3.332094 1_555
K28 S16 3.334850 1_555
K28 S17 3.771524 1_555
K29 S5 3.120586 1_555
K29 S21 3.145065 1_555
K29 S0 3.292351 1_655
K29 S9 3.332094 1_555
K29 S17 3.334850 1_555
K29 S16 3.771524 1_655
K30 S6 3.120586 1_555
K30 S22 3.145065 1_555
K30 S3 3.292351 1_555
K30 S10 3.332094 1_555
K30 S18 3.334850 1_555
K30 S19 3.771524 1_555
K31 S7 3.120586 1_555
K31 S23 3.145065 1_555
K31 S2 3.292351 1_455
K31 S11 3.332094 1_555
K31 S19 3.334850 1_555
K31 S18 3.771524 1_455
K32 S24 3.239566 1_555
K32 S26 3.291756 1_454
K32 S13 3.309570 1_555
K32 S0 3.410917 1_555
K33 S25 3.239566 1_555
K33 S27 3.291756 1_555
K33 S12 3.309570 1_555
K33 S1 3.410917 1_555
K34 S26 3.239566 1_555
K34 S24 3.291756 1_656
K34 S15 3.309570 1_555
K34 S2 3.410917 1_555
K35 S27 3.239566 1_555
K35 S25 3.291756 1_555
K35 S14 3.309570 1_555
K35 S3 3.410917 1_555
Fe0 S1 2.310164 1_555
Fe0 S12 2.311607 1_555
Fe0 S5 2.311648 1_565
Fe0 S8 2.315338 1_555
Fe0 K5 3.365925 1_565
Fe1 S0 2.310164 1_555
Fe1 S13 2.311607 1_555
Fe1 S4 2.311648 1_545
Fe1 S9 2.315338 1_455
Fe1 K4 3.365925 1_545
Fe2 S3 2.310164 1_555
Fe2 S14 2.311607 1_555
Fe2 S7 2.311648 1_545
Fe2 S10 2.315338 1_555
Fe2 K7 3.365925 1_545
Fe3 S2 2.310164 1_555
Fe3 S15 2.311607 1_555
Fe3 S6 2.311648 1_565
Fe3 S11 2.315338 1_655
Fe3 K6 3.365925 1_565
S16 S20 2.152245 1_555
S17 S21 2.152245 1_555
S18 S22 2.152245 1_555
S19 S23 2.152245 1_555
