# generated using pymatgen
data_Sr2Ti2Sb2OF2
_symmetry_space_group_name_H-M   'P 1'
_cell_length_a   10.87487967
_cell_length_b   10.87487967
_cell_length_c   10.87487967
_cell_angle_alpha   158.12456394
_cell_angle_beta   158.12456394
_cell_angle_gamma   31.13048297
_symmetry_Int_Tables_number   1
_chemical_formula_structural   Sr2Ti2Sb2OF2
_chemical_formula_sum   'Sr2 Ti2 Sb2 O1 F2'
_cell_volume   178.41551081
_cell_formula_units_Z   1
loop_
 _symmetry_equiv_pos_site_id
 _symmetry_equiv_pos_as_xyz
  1  'x, y, z'
loop_
 _atom_site_type_symbol
 _atom_site_label
 _atom_site_symmetry_multiplicity
 _atom_site_fract_x
 _atom_site_fract_y
 _atom_site_fract_z
 _atom_site_occupancy
  Sr  Sr0  1  0.31648846  0.31648846  -0.00000000  1
  Sr  Sr1  1  0.68351154  0.68351154  0.00000000  1
  Ti  Ti0  1  0.50000000  -0.00000000  0.50000000  1
  Ti  Ti1  1  -0.00000000  0.50000000  0.50000000  1
  Sb  Sb0  1  0.90433778  0.90433778  0.00000000  1
  Sb  Sb1  1  0.09566222  0.09566222  -0.00000000  1
  O  O0  1  0.50000000  0.50000000  0.00000000  1
  F  F0  1  0.25000000  0.75000000  0.50000000  1
  F  F1  1  0.75000000  0.25000000  0.50000000  1
loop_
_geom_bond_atom_site_label_1
_geom_bond_atom_site_label_2
_geom_bond_distance
_geom_bond_site_symmetry_2
Sb0 Ti0 2.876633 1_665
Sb0 Ti1 2.876633 1_654
Sb0 Ti0 2.876633 1_564
Sb0 Ti1 2.876633 1_665
Sb0 Sr0 3.450117 1_554
Sb0 Sr0 3.450117 1_655
Sb0 Sr0 3.450117 1_565
Sb0 Sr0 3.450117 1_666
Sb1 Ti0 2.876633 1_555
Sb1 Ti0 2.876633 1_454
Sb1 Ti1 2.876633 1_555
Sb1 Ti1 2.876633 1_544
Sb1 Sr1 3.450117 1_556
Sb1 Sr1 3.450117 1_444
Sb1 Sr1 3.450117 1_545
Sb1 Sr1 3.450117 1_455
O0 Ti1 2.063420 1_554
O0 Ti0 2.063420 1_565
O0 Ti1 2.063420 1_655
O0 Ti0 2.063420 1_554
F0 Sr1 2.489649 1_455
F0 Sr1 2.489649 1_556
F0 Sr0 2.489649 1_566
F0 Sr0 2.489649 1_555
F1 Sr0 2.489649 1_656
F1 Sr1 2.489649 1_556
F1 Sr1 2.489649 1_545
F1 Sr0 2.489649 1_555
