# generated using pymatgen
data_CsMg6Ti
_symmetry_space_group_name_H-M   'P 1'
_cell_length_a   16.00687400
_cell_length_b   16.00687400
_cell_length_c   6.85611600
_cell_angle_alpha   90.00000000
_cell_angle_beta   90.00000000
_cell_angle_gamma   90.00000000
_symmetry_Int_Tables_number   1
_chemical_formula_structural   CsMg6Ti
_chemical_formula_sum   'Cs8 Mg48 Ti8'
_cell_volume   1756.67414609
_cell_formula_units_Z   8
loop_
 _symmetry_equiv_pos_site_id
 _symmetry_equiv_pos_as_xyz
  1  'x, y, z'
loop_
 _atom_site_type_symbol
 _atom_site_label
 _atom_site_symmetry_multiplicity
 _atom_site_fract_x
 _atom_site_fract_y
 _atom_site_fract_z
 _atom_site_occupancy
  Cs  Cs0_0  1  0.25000000  0.25000000  0.25000000  1
  Cs  Cs0_1  1  0.25000000  0.25000000  0.75000000  1
  Cs  Cs0_2  1  0.25000000  0.75000000  0.25000000  1
  Cs  Cs0_3  1  0.25000000  0.75000000  0.75000000  1
  Cs  Cs0_4  1  0.75000000  0.25000000  0.25000000  1
  Cs  Cs0_5  1  0.75000000  0.25000000  0.75000000  1
  Cs  Cs0_6  1  0.75000000  0.75000000  0.25000000  1
  Cs  Cs0_7  1  0.75000000  0.75000000  0.75000000  1
  Mg  Mg0_0  1  0.00000000  0.25000000  0.25000000  1
  Mg  Mg0_1  1  0.00000000  0.25000000  0.75000000  1
  Mg  Mg0_2  1  0.00000000  0.75000000  0.25000000  1
  Mg  Mg0_3  1  0.00000000  0.75000000  0.75000000  1
  Mg  Mg0_4  1  0.50000000  0.25000000  0.25000000  1
  Mg  Mg0_5  1  0.50000000  0.25000000  0.75000000  1
  Mg  Mg0_6  1  0.50000000  0.75000000  0.25000000  1
  Mg  Mg0_7  1  0.50000000  0.75000000  0.75000000  1
  Mg  Mg1_0  1  0.25000000  0.00000000  0.25000000  1
  Mg  Mg1_1  1  0.25000000  0.00000000  0.75000000  1
  Mg  Mg1_2  1  0.25000000  0.50000000  0.25000000  1
  Mg  Mg1_3  1  0.25000000  0.50000000  0.75000000  1
  Mg  Mg1_4  1  0.75000000  0.00000000  0.25000000  1
  Mg  Mg1_5  1  0.75000000  0.00000000  0.75000000  1
  Mg  Mg1_6  1  0.75000000  0.50000000  0.25000000  1
  Mg  Mg1_7  1  0.75000000  0.50000000  0.75000000  1
  Mg  Mg2_0  1  0.39609400  0.10390600  0.00000000  1
  Mg  Mg2_1  1  0.39609400  0.10390600  0.50000000  1
  Mg  Mg2_2  1  0.39609400  0.60390600  0.00000000  1
  Mg  Mg2_3  1  0.39609400  0.60390600  0.50000000  1
  Mg  Mg2_4  1  0.89609400  0.10390600  0.00000000  1
  Mg  Mg2_5  1  0.89609400  0.10390600  0.50000000  1
  Mg  Mg2_6  1  0.89609400  0.60390600  0.00000000  1
  Mg  Mg2_7  1  0.89609400  0.60390600  0.50000000  1
  Mg  Mg3_0  1  0.10390600  0.39609400  0.00000000  1
  Mg  Mg3_1  1  0.10390600  0.39609400  0.50000000  1
  Mg  Mg3_2  1  0.10390600  0.89609400  0.00000000  1
  Mg  Mg3_3  1  0.10390600  0.89609400  0.50000000  1
  Mg  Mg3_4  1  0.60390600  0.39609400  0.00000000  1
  Mg  Mg3_5  1  0.60390600  0.39609400  0.50000000  1
  Mg  Mg3_6  1  0.60390600  0.89609400  0.00000000  1
  Mg  Mg3_7  1  0.60390600  0.89609400  0.50000000  1
  Mg  Mg4_0  1  0.39609400  0.39609400  0.00000000  1
  Mg  Mg4_1  1  0.39609400  0.39609400  0.50000000  1
  Mg  Mg4_2  1  0.39609400  0.89609400  0.00000000  1
  Mg  Mg4_3  1  0.39609400  0.89609400  0.50000000  1
  Mg  Mg4_4  1  0.89609400  0.39609400  0.00000000  1
  Mg  Mg4_5  1  0.89609400  0.39609400  0.50000000  1
  Mg  Mg4_6  1  0.89609400  0.89609400  0.00000000  1
  Mg  Mg4_7  1  0.89609400  0.89609400  0.50000000  1
  Mg  Mg5_0  1  0.10390600  0.10390600  0.00000000  1
  Mg  Mg5_1  1  0.10390600  0.10390600  0.50000000  1
  Mg  Mg5_2  1  0.10390600  0.60390600  0.00000000  1
  Mg  Mg5_3  1  0.10390600  0.60390600  0.50000000  1
  Mg  Mg5_4  1  0.60390600  0.10390600  0.00000000  1
  Mg  Mg5_5  1  0.60390600  0.10390600  0.50000000  1
  Mg  Mg5_6  1  0.60390600  0.60390600  0.00000000  1
  Mg  Mg5_7  1  0.60390600  0.60390600  0.50000000  1
  Ti  Ti0_0  1  0.00000000  0.00000000  0.25000000  1
  Ti  Ti0_1  1  0.00000000  0.00000000  0.75000000  1
  Ti  Ti0_2  1  0.00000000  0.50000000  0.25000000  1
  Ti  Ti0_3  1  0.00000000  0.50000000  0.75000000  1
  Ti  Ti0_4  1  0.50000000  0.00000000  0.25000000  1
  Ti  Ti0_5  1  0.50000000  0.00000000  0.75000000  1
  Ti  Ti0_6  1  0.50000000  0.50000000  0.25000000  1
  Ti  Ti0_7  1  0.50000000  0.50000000  0.75000000  1
loop_
_geom_bond_atom_site_label_1
_geom_bond_atom_site_label_2
_geom_bond_distance
_geom_bond_site_symmetry_2
Cs0_0 Cs0_1 3.428058 1_555
Cs0_0 Cs0_1 3.428058 1_554
Cs0_0 Mg4_1 3.724935 1_555
Cs0_0 Mg2_1 3.724935 1_555
Cs0_0 Mg3_0 3.724935 1_555
Cs0_0 Mg5_0 3.724935 1_555
Cs0_0 Mg3_1 3.724935 1_555
Cs0_0 Mg5_1 3.724935 1_555
Cs0_0 Mg2_0 3.724935 1_555
Cs0_0 Mg4_0 3.724935 1_555
Cs0_0 Mg1_0 4.001718 1_555
Cs0_0 Mg0_0 4.001718 1_555
Cs0_0 Mg0_4 4.001718 1_555
Cs0_0 Mg1_2 4.001718 1_555
Cs0_1 Mg5_0 3.724935 1_556
Cs0_1 Mg4_1 3.724935 1_555
Cs0_1 Mg2_1 3.724935 1_555
Cs0_1 Mg2_0 3.724935 1_556
Cs0_1 Mg4_0 3.724935 1_556
Cs0_1 Mg3_1 3.724935 1_555
Cs0_1 Mg5_1 3.724935 1_555
Cs0_1 Mg3_0 3.724935 1_556
Cs0_1 Mg1_1 4.001718 1_555
Cs0_1 Mg1_3 4.001718 1_555
Cs0_1 Mg0_1 4.001718 1_555
Cs0_1 Mg0_5 4.001718 1_555
Cs0_2 Cs0_3 3.428058 1_555
Cs0_2 Cs0_3 3.428058 1_554
Cs0_2 Mg5_2 3.724935 1_555
Cs0_2 Mg2_3 3.724935 1_555
Cs0_2 Mg2_2 3.724935 1_555
Cs0_2 Mg5_3 3.724935 1_555
Cs0_2 Mg3_2 3.724935 1_555
Cs0_2 Mg4_3 3.724935 1_555
Cs0_2 Mg3_3 3.724935 1_555
Cs0_2 Mg4_2 3.724935 1_555
Cs0_2 Mg0_2 4.001718 1_555
Cs0_2 Mg0_6 4.001718 1_555
Cs0_2 Mg1_0 4.001718 1_565
Cs0_2 Mg1_2 4.001718 1_555
Cs0_3 Mg5_2 3.724935 1_556
Cs0_3 Mg2_2 3.724935 1_556
Cs0_3 Mg2_3 3.724935 1_555
Cs0_3 Mg5_3 3.724935 1_555
Cs0_3 Mg4_3 3.724935 1_555
Cs0_3 Mg3_2 3.724935 1_556
Cs0_3 Mg4_2 3.724935 1_556
Cs0_3 Mg3_3 3.724935 1_555
Cs0_3 Mg1_1 4.001718 1_565
Cs0_3 Mg0_3 4.001718 1_555
Cs0_3 Mg0_7 4.001718 1_555
Cs0_3 Mg1_3 4.001718 1_555
Cs0_4 Cs0_5 3.428058 1_554
Cs0_4 Cs0_5 3.428058 1_555
Cs0_4 Mg5_5 3.724935 1_555
Cs0_4 Mg5_4 3.724935 1_555
Cs0_4 Mg3_4 3.724935 1_555
Cs0_4 Mg3_5 3.724935 1_555
Cs0_4 Mg2_5 3.724935 1_555
Cs0_4 Mg2_4 3.724935 1_555
Cs0_4 Mg4_4 3.724935 1_555
Cs0_4 Mg4_5 3.724935 1_555
Cs0_4 Mg0_0 4.001718 1_655
Cs0_4 Mg1_6 4.001718 1_555
Cs0_4 Mg1_4 4.001718 1_555
Cs0_4 Mg0_4 4.001718 1_555
Cs0_5 Mg3_4 3.724935 1_556
Cs0_5 Mg5_4 3.724935 1_556
Cs0_5 Mg5_5 3.724935 1_555
Cs0_5 Mg3_5 3.724935 1_555
Cs0_5 Mg2_5 3.724935 1_555
Cs0_5 Mg4_4 3.724935 1_556
Cs0_5 Mg4_5 3.724935 1_555
Cs0_5 Mg2_4 3.724935 1_556
Cs0_5 Mg1_5 4.001718 1_555
Cs0_5 Mg0_1 4.001718 1_655
Cs0_5 Mg1_7 4.001718 1_555
Cs0_5 Mg0_5 4.001718 1_555
Cs0_6 Cs0_7 3.428058 1_555
Cs0_6 Cs0_7 3.428058 1_554
Cs0_6 Mg5_6 3.724935 1_555
Cs0_6 Mg5_7 3.724935 1_555
Cs0_6 Mg3_6 3.724935 1_555
Cs0_6 Mg2_7 3.724935 1_555
Cs0_6 Mg3_7 3.724935 1_555
Cs0_6 Mg2_6 3.724935 1_555
Cs0_6 Mg4_7 3.724935 1_555
Cs0_6 Mg4_6 3.724935 1_555
Cs0_6 Mg1_4 4.001718 1_565
Cs0_6 Mg1_6 4.001718 1_555
Cs0_6 Mg0_2 4.001718 1_655
Cs0_6 Mg0_6 4.001718 1_555
Cs0_7 Mg5_6 3.724935 1_556
Cs0_7 Mg5_7 3.724935 1_555
Cs0_7 Mg2_7 3.724935 1_555
Cs0_7 Mg3_7 3.724935 1_555
Cs0_7 Mg2_6 3.724935 1_556
Cs0_7 Mg3_6 3.724935 1_556
Cs0_7 Mg4_7 3.724935 1_555
Cs0_7 Mg4_6 3.724935 1_556
Cs0_7 Mg1_7 4.001718 1_555
Cs0_7 Mg1_5 4.001718 1_565
Cs0_7 Mg0_7 4.001718 1_555
Cs0_7 Mg0_3 4.001718 1_655
Mg0_0 Mg5_1 3.342572 1_555
Mg0_0 Mg4_5 3.342572 1_455
Mg0_0 Mg5_0 3.342572 1_555
Mg0_0 Mg3_1 3.342572 1_555
Mg0_0 Mg3_0 3.342572 1_555
Mg0_0 Mg2_4 3.342572 1_455
Mg0_0 Mg2_5 3.342572 1_455
Mg0_0 Mg4_4 3.342572 1_455
Mg0_0 Mg0_1 3.428058 1_555
Mg0_0 Mg0_1 3.428058 1_554
Mg0_1 Mg5_1 3.342572 1_555
Mg0_1 Mg4_5 3.342572 1_455
Mg0_1 Mg3_0 3.342572 1_556
Mg0_1 Mg5_0 3.342572 1_556
Mg0_1 Mg2_4 3.342572 1_456
Mg0_1 Mg2_5 3.342572 1_455
Mg0_1 Mg3_1 3.342572 1_555
Mg0_1 Mg4_4 3.342572 1_456
Mg0_2 Mg2_7 3.342572 1_455
Mg0_2 Mg2_6 3.342572 1_455
Mg0_2 Mg5_3 3.342572 1_555
Mg0_2 Mg5_2 3.342572 1_555
Mg0_2 Mg4_6 3.342572 1_455
Mg0_2 Mg4_7 3.342572 1_455
Mg0_2 Mg3_2 3.342572 1_555
Mg0_2 Mg3_3 3.342572 1_555
Mg0_2 Mg0_3 3.428058 1_555
Mg0_2 Mg0_3 3.428058 1_554
Mg0_3 Mg2_6 3.342572 1_456
Mg0_3 Mg2_7 3.342572 1_455
Mg0_3 Mg5_3 3.342572 1_555
Mg0_3 Mg5_2 3.342572 1_556
Mg0_3 Mg4_6 3.342572 1_456
Mg0_3 Mg4_7 3.342572 1_455
Mg0_3 Mg3_2 3.342572 1_556
Mg0_3 Mg3_3 3.342572 1_555
Mg0_4 Mg2_0 3.342572 1_555
Mg0_4 Mg4_0 3.342572 1_555
Mg0_4 Mg4_1 3.342572 1_555
Mg0_4 Mg2_1 3.342572 1_555
Mg0_4 Mg5_5 3.342572 1_555
Mg0_4 Mg3_4 3.342572 1_555
Mg0_4 Mg5_4 3.342572 1_555
Mg0_4 Mg3_5 3.342572 1_555
Mg0_4 Mg0_5 3.428058 1_554
Mg0_4 Mg0_5 3.428058 1_555
Mg0_5 Mg4_1 3.342572 1_555
Mg0_5 Mg2_0 3.342572 1_556
Mg0_5 Mg2_1 3.342572 1_555
Mg0_5 Mg4_0 3.342572 1_556
Mg0_5 Mg5_5 3.342572 1_555
Mg0_5 Mg3_5 3.342572 1_555
Mg0_5 Mg3_4 3.342572 1_556
Mg0_5 Mg5_4 3.342572 1_556
Mg0_6 Mg2_2 3.342572 1_555
Mg0_6 Mg2_3 3.342572 1_555
Mg0_6 Mg5_6 3.342572 1_555
Mg0_6 Mg5_7 3.342572 1_555
Mg0_6 Mg4_3 3.342572 1_555
Mg0_6 Mg4_2 3.342572 1_555
Mg0_6 Mg3_7 3.342572 1_555
Mg0_6 Mg3_6 3.342572 1_555
Mg0_6 Mg0_7 3.428058 1_554
Mg0_6 Mg0_7 3.428058 1_555
Mg0_7 Mg2_3 3.342572 1_555
Mg0_7 Mg2_2 3.342572 1_556
Mg0_7 Mg5_6 3.342572 1_556
Mg0_7 Mg5_7 3.342572 1_555
Mg0_7 Mg4_2 3.342572 1_556
Mg0_7 Mg4_3 3.342572 1_555
Mg0_7 Mg3_7 3.342572 1_555
Mg0_7 Mg3_6 3.342572 1_556
Mg1_0 Mg5_1 3.342572 1_555
Mg1_0 Mg2_0 3.342572 1_555
Mg1_0 Mg3_2 3.342572 1_545
Mg1_0 Mg4_2 3.342572 1_545
Mg1_0 Mg4_3 3.342572 1_545
Mg1_0 Mg2_1 3.342572 1_555
Mg1_0 Mg5_0 3.342572 1_555
Mg1_0 Mg3_3 3.342572 1_545
Mg1_0 Mg1_1 3.428058 1_554
Mg1_0 Mg1_1 3.428058 1_555
Mg1_1 Mg5_1 3.342572 1_555
Mg1_1 Mg3_2 3.342572 1_546
Mg1_1 Mg5_0 3.342572 1_556
Mg1_1 Mg4_3 3.342572 1_545
Mg1_1 Mg2_0 3.342572 1_556
Mg1_1 Mg2_1 3.342572 1_555
Mg1_1 Mg4_2 3.342572 1_546
Mg1_1 Mg3_3 3.342572 1_545
Mg1_2 Mg4_0 3.342572 1_555
Mg1_2 Mg4_1 3.342572 1_555
Mg1_2 Mg3_0 3.342572 1_555
Mg1_2 Mg3_1 3.342572 1_555
Mg1_2 Mg2_2 3.342572 1_555
Mg1_2 Mg5_3 3.342572 1_555
Mg1_2 Mg2_3 3.342572 1_555
Mg1_2 Mg5_2 3.342572 1_555
Mg1_2 Mg1_3 3.428058 1_554
Mg1_2 Mg1_3 3.428058 1_555
Mg1_3 Mg3_0 3.342572 1_556
Mg1_3 Mg4_1 3.342572 1_555
Mg1_3 Mg4_0 3.342572 1_556
Mg1_3 Mg3_1 3.342572 1_555
Mg1_3 Mg5_2 3.342572 1_556
Mg1_3 Mg5_3 3.342572 1_555
Mg1_3 Mg2_2 3.342572 1_556
Mg1_3 Mg2_3 3.342572 1_555
Mg1_4 Mg3_7 3.342572 1_545
Mg1_4 Mg3_6 3.342572 1_545
Mg1_4 Mg5_5 3.342572 1_555
Mg1_4 Mg5_4 3.342572 1_555
Mg1_4 Mg4_7 3.342572 1_545
Mg1_4 Mg4_6 3.342572 1_545
Mg1_4 Mg2_5 3.342572 1_555
Mg1_4 Mg2_4 3.342572 1_555
Mg1_4 Mg1_5 3.428058 1_555
Mg1_4 Mg1_5 3.428058 1_554
Mg1_5 Mg3_7 3.342572 1_545
Mg1_5 Mg3_6 3.342572 1_546
Mg1_5 Mg5_5 3.342572 1_555
Mg1_5 Mg5_4 3.342572 1_556
Mg1_5 Mg4_7 3.342572 1_545
Mg1_5 Mg4_6 3.342572 1_546
Mg1_5 Mg2_5 3.342572 1_555
Mg1_5 Mg2_4 3.342572 1_556
Mg1_6 Mg3_4 3.342572 1_555
Mg1_6 Mg3_5 3.342572 1_555
Mg1_6 Mg5_7 3.342572 1_555
Mg1_6 Mg5_6 3.342572 1_555
Mg1_6 Mg4_4 3.342572 1_555
Mg1_6 Mg4_5 3.342572 1_555
Mg1_6 Mg2_6 3.342572 1_555
Mg1_6 Mg2_7 3.342572 1_555
Mg1_6 Mg1_7 3.428058 1_555
Mg1_6 Mg1_7 3.428058 1_554
Mg1_7 Mg3_4 3.342572 1_556
Mg1_7 Mg3_5 3.342572 1_555
Mg1_7 Mg5_6 3.342572 1_556
Mg1_7 Mg5_7 3.342572 1_555
Mg1_7 Mg4_5 3.342572 1_555
Mg1_7 Mg4_4 3.342572 1_556
Mg1_7 Mg2_6 3.342572 1_556
Mg1_7 Mg2_7 3.342572 1_555
Mg2_0 Ti0_5 2.910401 1_554
Mg2_0 Ti0_4 2.910401 1_555
Mg2_0 Mg4_2 3.326420 1_545
Mg2_0 Mg5_4 3.326420 1_555
Mg2_0 Mg2_1 3.428058 1_555
Mg2_0 Mg2_1 3.428058 1_554
Mg2_1 Ti0_4 2.910401 1_555
Mg2_1 Ti0_5 2.910401 1_555
Mg2_1 Mg4_3 3.326420 1_545
Mg2_1 Mg5_5 3.326420 1_555
Mg2_2 Ti0_7 2.910401 1_554
Mg2_2 Ti0_6 2.910401 1_555
Mg2_2 Mg4_0 3.326420 1_555
Mg2_2 Mg5_6 3.326420 1_555
Mg2_2 Mg2_3 3.428058 1_555
Mg2_2 Mg2_3 3.428058 1_554
Mg2_3 Ti0_7 2.910401 1_555
Mg2_3 Ti0_6 2.910401 1_555
Mg2_3 Mg4_1 3.326420 1_555
Mg2_3 Mg5_7 3.326420 1_555
Mg2_4 Ti0_0 2.910401 1_655
Mg2_4 Ti0_1 2.910401 1_654
Mg2_4 Mg4_6 3.326420 1_545
Mg2_4 Mg5_0 3.326420 1_655
Mg2_4 Mg2_5 3.428058 1_554
Mg2_4 Mg2_5 3.428058 1_555
Mg2_5 Ti0_0 2.910401 1_655
Mg2_5 Ti0_1 2.910401 1_655
Mg2_5 Mg4_7 3.326420 1_545
Mg2_5 Mg5_1 3.326420 1_655
Mg2_6 Ti0_3 2.910401 1_654
Mg2_6 Ti0_2 2.910401 1_655
Mg2_6 Mg5_2 3.326420 1_655
Mg2_6 Mg4_4 3.326420 1_555
Mg2_6 Mg2_7 3.428058 1_555
Mg2_6 Mg2_7 3.428058 1_554
Mg2_7 Ti0_3 2.910401 1_655
Mg2_7 Ti0_2 2.910401 1_655
Mg2_7 Mg5_3 3.326420 1_655
Mg2_7 Mg4_5 3.326420 1_555
Mg3_0 Ti0_3 2.910401 1_554
Mg3_0 Ti0_2 2.910401 1_555
Mg3_0 Mg4_4 3.326420 1_455
Mg3_0 Mg5_2 3.326420 1_555
Mg3_0 Mg3_1 3.428058 1_554
Mg3_0 Mg3_1 3.428058 1_555
Mg3_1 Ti0_2 2.910401 1_555
Mg3_1 Ti0_3 2.910401 1_555
Mg3_1 Mg4_5 3.326420 1_455
Mg3_1 Mg5_3 3.326420 1_555
Mg3_2 Ti0_0 2.910401 1_565
Mg3_2 Ti0_1 2.910401 1_564
Mg3_2 Mg4_6 3.326420 1_455
Mg3_2 Mg5_0 3.326420 1_565
Mg3_2 Mg3_3 3.428058 1_554
Mg3_2 Mg3_3 3.428058 1_555
Mg3_3 Ti0_1 2.910401 1_565
Mg3_3 Ti0_0 2.910401 1_565
Mg3_3 Mg4_7 3.326420 1_455
Mg3_3 Mg5_1 3.326420 1_565
Mg3_4 Ti0_7 2.910401 1_554
Mg3_4 Ti0_6 2.910401 1_555
Mg3_4 Mg4_0 3.326420 1_555
Mg3_4 Mg5_6 3.326420 1_555
Mg3_4 Mg3_5 3.428058 1_555
Mg3_4 Mg3_5 3.428058 1_554
Mg3_5 Ti0_6 2.910401 1_555
Mg3_5 Ti0_7 2.910401 1_555
Mg3_5 Mg4_1 3.326420 1_555
Mg3_5 Mg5_7 3.326420 1_555
Mg3_6 Ti0_5 2.910401 1_564
Mg3_6 Ti0_4 2.910401 1_565
Mg3_6 Mg5_4 3.326420 1_565
Mg3_6 Mg4_2 3.326420 1_555
Mg3_6 Mg3_7 3.428058 1_554
Mg3_6 Mg3_7 3.428058 1_555
Mg3_7 Ti0_5 2.910401 1_565
Mg3_7 Ti0_4 2.910401 1_565
Mg3_7 Mg5_5 3.326420 1_565
Mg3_7 Mg4_3 3.326420 1_555
Mg4_0 Ti0_7 2.910401 1_554
Mg4_0 Ti0_6 2.910401 1_555
Mg4_0 Mg4_1 3.428058 1_554
Mg4_0 Mg4_1 3.428058 1_555
Mg4_1 Ti0_6 2.910401 1_555
Mg4_1 Ti0_7 2.910401 1_555
Mg4_2 Ti0_4 2.910401 1_565
Mg4_2 Ti0_5 2.910401 1_564
Mg4_2 Mg4_3 3.428058 1_555
Mg4_2 Mg4_3 3.428058 1_554
Mg4_3 Ti0_4 2.910401 1_565
Mg4_3 Ti0_5 2.910401 1_565
Mg4_4 Ti0_3 2.910401 1_654
Mg4_4 Ti0_2 2.910401 1_655
Mg4_4 Mg4_5 3.428058 1_554
Mg4_4 Mg4_5 3.428058 1_555
Mg4_5 Ti0_3 2.910401 1_655
Mg4_5 Ti0_2 2.910401 1_655
Mg4_6 Ti0_0 2.910401 1_665
Mg4_6 Ti0_1 2.910401 1_664
Mg4_6 Mg4_7 3.428058 1_554
Mg4_6 Mg4_7 3.428058 1_555
Mg4_7 Ti0_0 2.910401 1_665
Mg4_7 Ti0_1 2.910401 1_665
Mg5_0 Ti0_1 2.910401 1_554
Mg5_0 Ti0_0 2.910401 1_555
Mg5_0 Mg5_1 3.428058 1_555
Mg5_0 Mg5_1 3.428058 1_554
Mg5_1 Ti0_0 2.910401 1_555
Mg5_1 Ti0_1 2.910401 1_555
Mg5_2 Ti0_3 2.910401 1_554
Mg5_2 Ti0_2 2.910401 1_555
Mg5_2 Mg5_3 3.428058 1_554
Mg5_2 Mg5_3 3.428058 1_555
Mg5_3 Ti0_2 2.910401 1_555
Mg5_3 Ti0_3 2.910401 1_555
Mg5_4 Ti0_5 2.910401 1_554
Mg5_4 Ti0_4 2.910401 1_555
Mg5_4 Mg5_5 3.428058 1_555
Mg5_4 Mg5_5 3.428058 1_554
Mg5_5 Ti0_4 2.910401 1_555
Mg5_5 Ti0_5 2.910401 1_555
Mg5_6 Ti0_7 2.910401 1_554
Mg5_6 Ti0_6 2.910401 1_555
Mg5_6 Mg5_7 3.428058 1_555
Mg5_6 Mg5_7 3.428058 1_554
Mg5_7 Ti0_6 2.910401 1_555
Mg5_7 Ti0_7 2.910401 1_555
