# generated using pymatgen
data_Li6MnV3(PO4)6
_symmetry_space_group_name_H-M   'P 1'
_cell_length_a   8.86595500
_cell_length_b   8.57405400
_cell_length_c   12.34469046
_cell_angle_alpha   87.59489926
_cell_angle_beta   90.00000000
_cell_angle_gamma   90.00000000
_symmetry_Int_Tables_number   1
_chemical_formula_structural   Li6MnV3(PO4)6
_chemical_formula_sum   'Li12 Mn2 V6 P12 O48'
_cell_volume   937.58187311
_cell_formula_units_Z   2
loop_
 _symmetry_equiv_pos_site_id
 _symmetry_equiv_pos_as_xyz
  1  'x, y, z'
loop_
 _atom_site_type_symbol
 _atom_site_label
 _atom_site_symmetry_multiplicity
 _atom_site_fract_x
 _atom_site_fract_y
 _atom_site_fract_z
 _atom_site_occupancy
  Li  Li0  1  0.00045300  0.99979900  0.00095200  1
  Li  Li1  1  0.10225900  0.99960300  0.24872900  1
  Li  Li2  1  0.99954700  0.99979900  0.50095200  1
  Li  Li3  1  0.89774100  0.99960300  0.74872900  1
  Li  Li4  1  0.80433300  0.29212100  0.04937100  1
  Li  Li5  1  0.19566700  0.29212100  0.54937100  1
  Li  Li6  1  0.50455300  0.50703000  0.99829500  1
  Li  Li7  1  0.40319900  0.50473400  0.25354900  1
  Li  Li8  1  0.49544700  0.50703000  0.49829500  1
  Li  Li9  1  0.59680100  0.50473400  0.75354900  1
  Li  Li10  1  0.80159500  0.71349700  0.44620000  1
  Li  Li11  1  0.19840500  0.71349700  0.94620000  1
  Mn  Mn0  1  0.49986500  0.79100900  0.35350600  1
  Mn  Mn1  1  0.50013500  0.79100900  0.85350600  1
  V  V0  1  0.50043800  0.21269500  0.14410800  1
  V  V1  1  0.49956200  0.21269500  0.64410800  1
  V  V2  1  0.99556400  0.28589200  0.35803400  1
  V  V3  1  0.00443600  0.28589200  0.85803400  1
  V  V4  1  0.99843300  0.71677400  0.14189200  1
  V  V5  1  0.00156700  0.71677400  0.64189200  1
  P  P0  1  0.80202400  0.00052900  0.24935200  1
  P  P1  1  0.19797600  0.00052900  0.74935200  1
  P  P2  1  0.35458400  0.15577800  0.39545900  1
  P  P3  1  0.64541600  0.15577800  0.89545900  1
  P  P4  1  0.14839400  0.35178200  0.10334400  1
  P  P5  1  0.85160600  0.35178200  0.60334400  1
  P  P6  1  0.70776600  0.50004600  0.24935900  1
  P  P7  1  0.29223400  0.50004600  0.74935900  1
  P  P8  1  0.14496700  0.64547900  0.39763200  1
  P  P9  1  0.85503300  0.64547900  0.89763200  1
  P  P10  1  0.35552600  0.84288000  0.10471000  1
  P  P11  1  0.64447400  0.84288000  0.60471000  1
  O  O0  1  0.41345800  0.01014400  0.10751300  1
  O  O1  1  0.58654200  0.01014400  0.60751300  1
  O  O2  1  0.91263100  0.07385500  0.33363500  1
  O  O3  1  0.08736900  0.07385500  0.83363500  1
  O  O4  1  0.70374100  0.12512600  0.18961900  1
  O  O5  1  0.29625900  0.12512600  0.68961900  1
  O  O6  1  0.17707200  0.15054600  0.40945900  1
  O  O7  1  0.82292800  0.15054600  0.90945900  1
  O  O8  1  0.40429400  0.24880400  0.29175300  1
  O  O9  1  0.06442800  0.25333900  0.01804400  1
  O  O10  1  0.40837100  0.25252500  0.49262800  1
  O  O11  1  0.59570600  0.24880400  0.79175300  1
  O  O12  1  0.93557200  0.25333900  0.51804400  1
  O  O13  1  0.09604200  0.27693000  0.21353500  1
  O  O14  1  0.59162900  0.25252500  0.99262800  1
  O  O15  1  0.90395800  0.27693000  0.71353500  1
  O  O16  1  0.32253700  0.34502000  0.08991700  1
  O  O17  1  0.67746300  0.34502000  0.58991700  1
  O  O18  1  0.80658300  0.37769900  0.31092100  1
  O  O19  1  0.19341700  0.37769900  0.81092100  1
  O  O20  1  0.60096100  0.42820800  0.16412800  1
  O  O21  1  0.39903900  0.42820800  0.66412800  1
  O  O22  1  0.09372800  0.47175100  0.40890100  1
  O  O23  1  0.90627200  0.47175100  0.90890100  1
  O  O24  1  0.10846500  0.52654800  0.09202700  1
  O  O25  1  0.89153500  0.52654800  0.59202700  1
  O  O26  1  0.60541800  0.57016900  0.33768000  1
  O  O27  1  0.39458200  0.57016900  0.83768000  1
  O  O28  1  0.80724900  0.61709800  0.18647900  1
  O  O29  1  0.19275100  0.61709800  0.68647900  1
  O  O30  1  0.31676400  0.63807900  0.41175800  1
  O  O31  1  0.68323600  0.63807900  0.91175800  1
  O  O32  1  0.09553700  0.72334100  0.28750900  1
  O  O33  1  0.40925900  0.74662000  0.00792900  1
  O  O34  1  0.90446300  0.72334100  0.78750900  1
  O  O35  1  0.06002400  0.74468700  0.48197000  1
  O  O36  1  0.40166800  0.74643500  0.20781000  1
  O  O37  1  0.59074100  0.74662000  0.50792900  1
  O  O38  1  0.93997600  0.74468700  0.98197000  1
  O  O39  1  0.59833200  0.74643500  0.70781000  1
  O  O40  1  0.17911100  0.85647100  0.09061100  1
  O  O41  1  0.82088900  0.85647100  0.59061100  1
  O  O42  1  0.71750000  0.87269500  0.31291600  1
  O  O43  1  0.28250000  0.87269500  0.81291600  1
  O  O44  1  0.91226100  0.93670900  0.16182100  1
  O  O45  1  0.08773900  0.93670900  0.66182100  1
  O  O46  1  0.40669800  0.98755600  0.39694500  1
  O  O47  1  0.59330200  0.98755600  0.89694500  1
loop_
_geom_bond_atom_site_label_1
_geom_bond_atom_site_label_2
_geom_bond_distance
_geom_bond_site_symmetry_2
Li0 O44 2.181179 1_455
Li0 O40 2.264961 1_555
Li0 O9 2.265044 1_565
Li0 O3 2.270046 1_564
Li0 O38 2.273741 1_454
Li0 O7 2.302386 1_464
Li1 O44 2.080373 1_455
Li1 O2 2.094387 1_465
Li1 O32 2.397547 1_555
Li1 O13 2.399813 1_565
Li1 O40 2.445682 1_555
Li1 O6 2.503459 1_565
Li2 O45 2.181179 1_655
Li2 O41 2.264961 1_555
Li2 O12 2.265044 1_565
Li2 O2 2.270046 1_565
Li2 O35 2.273741 1_655
Li2 O6 2.302386 1_665
Li3 O45 2.080373 1_655
Li3 O3 2.094387 1_665
Li3 O34 2.397547 1_555
Li3 O15 2.399813 1_565
Li3 O41 2.445682 1_555
Li3 O7 2.503459 1_565
Li4 O14 2.045047 1_554
Li4 O7 2.158644 1_554
Li4 O9 2.364003 1_655
Li4 O4 2.373797 1_555
Li4 O23 2.443711 1_554
Li4 O20 2.599651 1_555
Li5 O10 2.045047 1_555
Li5 O6 2.158644 1_555
Li5 O12 2.364003 1_455
Li5 O5 2.373797 1_555
Li5 O22 2.443711 1_555
Li5 O21 2.599651 1_555
Li6 O31 2.193778 1_555
Li6 O33 2.228998 1_556
Li6 O27 2.254965 1_555
Li6 O20 2.293920 1_556
Li6 O14 2.318500 1_555
Li6 O16 2.383511 1_556
Li7 O36 2.124960 1_555
Li7 O26 2.157931 1_555
Li7 O20 2.187254 1_555
Li7 O8 2.225054 1_555
Li7 O30 2.428207 1_555
Li7 O16 2.588279 1_555
Li8 O30 2.193778 1_555
Li8 O37 2.228998 1_555
Li8 O26 2.254965 1_555
Li8 O21 2.293920 1_555
Li8 O10 2.318500 1_555
Li8 O17 2.383511 1_555
Li9 O39 2.124960 1_555
Li9 O27 2.157931 1_555
Li9 O21 2.187254 1_555
Li9 O11 2.225054 1_555
Li9 O31 2.428207 1_555
Li9 O17 2.588279 1_555
Li10 O37 2.043096 1_555
Li10 O41 2.212121 1_555
Li10 O42 2.222099 1_555
Li10 O35 2.350766 1_655
Li10 O25 2.490718 1_555
Li10 O26 2.543261 1_555
Li11 O33 2.043096 1_556
Li11 O40 2.212121 1_556
Li11 O43 2.222099 1_555
Li11 O38 2.350766 1_455
Li11 O24 2.490718 1_556
Li11 O27 2.543261 1_555
Mn0 O46 1.971196 1_555
Mn0 O36 2.048555 1_555
Mn0 O37 2.089763 1_555
Mn0 O42 2.106011 1_555
Mn0 O26 2.128453 1_555
Mn0 O30 2.189203 1_555
Mn1 O47 1.971196 1_555
Mn1 O39 2.048555 1_555
Mn1 O33 2.089763 1_556
Mn1 O43 2.106011 1_555
Mn1 O27 2.128453 1_555
Mn1 O31 2.189203 1_555
O0 P10 1.525090 1_545
O0 V0 1.969946 1_555
O1 P11 1.525090 1_545
O1 V1 1.969946 1_555
O2 P0 1.579350 1_555
O2 V2 1.995620 1_555
O3 P1 1.579350 1_555
O3 V3 1.995620 1_555
O4 P0 1.542135 1_555
O4 V0 2.023088 1_555
O5 P1 1.542135 1_555
O5 V1 2.023088 1_555
O6 P2 1.583704 1_555
O6 V2 2.068214 1_455
O7 P3 1.583704 1_555
O7 V3 2.068214 1_655
O8 P2 1.543917 1_555
O8 V0 2.047388 1_555
O9 P4 1.565257 1_555
O9 V3 2.053349 1_554
O10 P2 1.561366 1_555
O10 V1 2.052680 1_555
O11 P3 1.543917 1_555
O11 V1 2.047388 1_555
O12 P5 1.565257 1_555
O12 V2 2.053349 1_555
O13 P4 1.550612 1_555
O13 V2 1.998229 1_455
O14 P3 1.561366 1_555
O14 V0 2.052680 1_556
O15 P5 1.550612 1_555
O15 V3 1.998229 1_655
O16 P4 1.554157 1_555
O16 V0 2.039315 1_555
O17 P5 1.554157 1_555
O17 V1 2.039315 1_555
O18 P6 1.542278 1_555
O18 V2 1.930476 1_555
O19 P7 1.542278 1_555
O19 V3 1.930476 1_555
O20 P6 1.561240 1_555
O20 V0 2.075606 1_555
O21 P7 1.561240 1_555
O21 V1 2.075606 1_555
O22 P8 1.557916 1_555
O22 V2 1.942985 1_455
O23 P9 1.557916 1_555
O23 V3 1.942985 1_655
O24 P4 1.540335 1_555
O24 V4 2.018676 1_455
O25 P5 1.540335 1_555
O25 V5 2.018676 1_655
O26 P6 1.558412 1_555
O27 P7 1.558412 1_555
O28 P6 1.523921 1_555
O28 V4 1.966465 1_555
O29 P7 1.523921 1_555
O29 V5 1.966465 1_555
O30 P8 1.534104 1_555
O31 P9 1.534104 1_555
O32 P8 1.552298 1_555
O32 V4 1.996047 1_455
O33 P10 1.555081 1_555
O34 P9 1.552298 1_555
O34 V5 1.996047 1_655
O35 P8 1.564921 1_555
O35 V5 2.045397 1_555
O36 P10 1.543597 1_555
O37 P11 1.555081 1_555
O38 P9 1.564921 1_555
O38 V4 2.045397 1_556
O39 P11 1.543597 1_555
O40 P10 1.577510 1_555
O40 V4 2.082737 1_455
O41 P11 1.577510 1_555
O41 V5 2.082737 1_655
O42 P0 1.518701 1_565
O43 P1 1.518701 1_565
O44 P0 1.572211 1_565
O44 V4 2.058919 1_555
O45 P1 1.572211 1_565
O45 V5 2.058919 1_555
O46 P2 1.513920 1_565
O47 P3 1.513920 1_565
