# generated using pymatgen
data_SmSb2Au
_symmetry_space_group_name_H-M   'P 1'
_cell_length_a   4.42305300
_cell_length_b   4.42305300
_cell_length_c   10.28045700
_cell_angle_alpha   90.00000000
_cell_angle_beta   90.00000000
_cell_angle_gamma   90.00000000
_symmetry_Int_Tables_number   1
_chemical_formula_structural   SmSb2Au
_chemical_formula_sum   'Sm2 Sb4 Au2'
_cell_volume   201.12067028
_cell_formula_units_Z   2
loop_
 _symmetry_equiv_pos_site_id
 _symmetry_equiv_pos_as_xyz
  1  'x, y, z'
loop_
 _atom_site_type_symbol
 _atom_site_label
 _atom_site_symmetry_multiplicity
 _atom_site_fract_x
 _atom_site_fract_y
 _atom_site_fract_z
 _atom_site_occupancy
  Sm  Sm0  1  0.00000000  0.50000000  0.75481200  1
  Sm  Sm1  1  0.50000000  0.00000000  0.24518800  1
  Sb  Sb0  1  0.50000000  0.50000000  0.00000000  1
  Sb  Sb1  1  0.00000000  0.00000000  0.00000000  1
  Sb  Sb2  1  0.00000000  0.50000000  0.31874500  1
  Sb  Sb3  1  0.50000000  0.00000000  0.68125500  1
  Au  Au0  1  0.50000000  0.50000000  0.50000000  1
  Au  Au1  1  0.00000000  0.00000000  0.50000000  1
loop_
_geom_bond_atom_site_label_1
_geom_bond_atom_site_label_2
_geom_bond_distance
_geom_bond_site_symmetry_2
Sb0 Sb1 3.127571 1_665
Sb0 Sb1 3.127571 1_555
Sb0 Sb1 3.127571 1_565
Sb0 Sb1 3.127571 1_655
Sb0 Sm0 3.353282 1_654
Sb0 Sm1 3.353282 1_565
Sb0 Sm0 3.353282 1_554
Sb0 Sm1 3.353282 1_555
Sb1 Sm0 3.353282 1_544
Sb1 Sm0 3.353282 1_554
Sb1 Sm1 3.353282 1_555
Sb1 Sm1 3.353282 1_455
Sb2 Sm1 3.217691 1_565
Sb2 Sm1 3.217691 1_465
Sb2 Sm1 3.217691 1_455
Sb2 Sm1 3.217691 1_555
Sb3 Sm0 3.217691 1_555
Sb3 Sm0 3.217691 1_545
Sb3 Sm0 3.217691 1_655
Sb3 Sm0 3.217691 1_645
Au0 Sb3 2.891894 1_565
Au0 Sb3 2.891894 1_555
Au0 Sb2 2.891894 1_655
Au0 Sb2 2.891894 1_555
Au0 Au1 3.127571 1_655
Au0 Au1 3.127571 1_565
Au0 Au1 3.127571 1_665
Au0 Au1 3.127571 1_555
Au0 Sm0 3.428275 1_655
Au0 Sm1 3.428275 1_565
Au0 Sm1 3.428275 1_555
Au0 Sm0 3.428275 1_555
Au1 Sb3 2.891894 1_455
Au1 Sb2 2.891894 1_545
Au1 Sb3 2.891894 1_555
Au1 Sb2 2.891894 1_555
Au1 Sm0 3.428275 1_545
Au1 Sm1 3.428275 1_555
Au1 Sm1 3.428275 1_455
Au1 Sm0 3.428275 1_555
