# generated using pymatgen
data_Li2Mn3FeO8
_symmetry_space_group_name_H-M   'P 1'
_cell_length_a   5.80569203
_cell_length_b   5.94740072
_cell_length_c   9.47358590
_cell_angle_alpha   89.93534354
_cell_angle_beta   90.04396034
_cell_angle_gamma   60.83586386
_symmetry_Int_Tables_number   1
_chemical_formula_structural   Li2Mn3FeO8
_chemical_formula_sum   'Li4 Mn6 Fe2 O16'
_cell_volume   285.64203320
_cell_formula_units_Z   2
loop_
 _symmetry_equiv_pos_site_id
 _symmetry_equiv_pos_as_xyz
  1  'x, y, z'
loop_
 _atom_site_type_symbol
 _atom_site_label
 _atom_site_symmetry_multiplicity
 _atom_site_fract_x
 _atom_site_fract_y
 _atom_site_fract_z
 _atom_site_occupancy
  Li  Li0  1  0.66612900  0.66834600  0.88873300  1
  Li  Li1  1  0.33278400  0.33269400  0.38860000  1
  Li  Li2  1  0.99971000  0.00743900  0.99846900  1
  Li  Li3  1  0.00090000  0.99280500  0.49923900  1
  Mn  Mn0  1  0.33988500  0.82986300  0.21341200  1
  Mn  Mn1  1  0.83079200  0.33936300  0.21832700  1
  Mn  Mn2  1  0.83203800  0.82988800  0.21273700  1
  Mn  Mn3  1  0.16883600  0.17017200  0.71333500  1
  Mn  Mn4  1  0.16967900  0.65849600  0.71876300  1
  Mn  Mn5  1  0.65937100  0.17092800  0.71358700  1
  Fe  Fe0  1  0.33668400  0.32695000  0.99454400  1
  Fe  Fe1  1  0.66263500  0.67307900  0.49358500  1
  O  O0  1  0.65167300  0.69763500  0.10054100  1
  O  O1  1  0.34709500  0.30448800  0.60044100  1
  O  O2  1  0.01569300  0.96996800  0.31380100  1
  O  O3  1  0.98524000  0.02812600  0.81256000  1
  O  O4  1  0.32288900  0.84287200  0.60510500  1
  O  O5  1  0.83823900  0.32117200  0.59817100  1
  O  O6  1  0.16633500  0.15813300  0.10711500  1
  O  O7  1  0.83276700  0.84132500  0.60635700  1
  O  O8  1  0.16065100  0.68073800  0.09874000  1
  O  O9  1  0.67924800  0.15761900  0.10567800  1
  O  O10  1  0.51161300  0.52852300  0.33465400  1
  O  O11  1  0.52110900  0.96044800  0.33354800  1
  O  O12  1  0.95962500  0.52884300  0.33450300  1
  O  O13  1  0.04040200  0.46932000  0.83531400  1
  O  O14  1  0.47957400  0.03978400  0.83356400  1
  O  O15  1  0.48810200  0.47128400  0.83441800  1
loop_
_geom_bond_atom_site_label_1
_geom_bond_atom_site_label_2
_geom_bond_distance
_geom_bond_site_symmetry_2
Li0 O13 1.968509 1_655
Li0 O15 1.971749 1_555
Li0 O14 1.997728 1_565
Li0 O0 2.012599 1_556
Li1 O12 1.962342 1_455
Li1 O10 1.968133 1_555
Li1 O11 2.003270 1_545
Li1 O1 2.011981 1_555
Li2 O3 1.764460 1_555
Li2 O6 1.908925 1_656
Li2 O9 1.917327 1_556
Li2 O8 1.943136 1_646
Li3 O2 1.761091 1_555
Li3 O7 1.910712 1_455
Li3 O4 1.914686 1_555
Li3 O5 1.947354 1_465
Mn0 O2 1.901928 1_555
Mn0 O0 1.912047 1_555
Mn0 O10 1.943540 1_555
Mn0 O11 1.949876 1_555
Mn0 O6 1.979329 1_565
Mn0 O8 1.987332 1_555
Mn1 O12 1.965643 1_555
Mn1 O10 1.971817 1_555
Mn1 O9 2.002338 1_555
Mn1 O6 2.006488 1_655
Mn1 O2 2.119548 1_645
Mn1 O0 2.167960 1_555
Mn2 O2 1.900957 1_655
Mn2 O0 1.909939 1_555
Mn2 O12 1.945891 1_555
Mn2 O11 1.952050 1_555
Mn2 O9 1.980843 1_565
Mn2 O8 1.987184 1_655
Mn3 O3 1.900223 1_455
Mn3 O1 1.912735 1_555
Mn3 O13 1.941582 1_555
Mn3 O14 1.945413 1_555
Mn3 O4 1.987335 1_545
Mn3 O5 1.998834 1_455
Mn4 O15 1.961067 1_555
Mn4 O13 1.967185 1_555
Mn4 O7 2.015831 1_455
Mn4 O4 2.025451 1_555
Mn4 O3 2.116724 1_465
Mn4 O1 2.154936 1_555
Mn5 O3 1.899787 1_555
Mn5 O1 1.912681 1_555
Mn5 O15 1.940428 1_555
Mn5 O14 1.945039 1_555
Mn5 O7 1.992692 1_545
Mn5 O5 1.994061 1_555
Fe0 O6 2.022490 1_556
Fe0 O9 2.029877 1_556
Fe0 O8 2.087241 1_556
Fe0 O13 2.127180 1_555
Fe0 O15 2.132002 1_555
Fe0 O14 2.134909 1_555
Fe1 O7 2.020476 1_555
Fe1 O4 2.022581 1_555
Fe1 O5 2.077403 1_555
Fe1 O10 2.123779 1_555
Fe1 O11 2.125641 1_555
Fe1 O12 2.132010 1_555
