# generated using pymatgen
data_EuAg3
_symmetry_space_group_name_H-M   'P 1'
_cell_length_a   6.75436553
_cell_length_b   6.75436553
_cell_length_c   4.82799200
_cell_angle_alpha   90.00000000
_cell_angle_beta   90.00000000
_cell_angle_gamma   119.99999540
_symmetry_Int_Tables_number   1
_chemical_formula_structural   EuAg3
_chemical_formula_sum   'Eu2 Ag6'
_cell_volume   190.75077603
_cell_formula_units_Z   2
loop_
 _symmetry_equiv_pos_site_id
 _symmetry_equiv_pos_as_xyz
  1  'x, y, z'
loop_
 _atom_site_type_symbol
 _atom_site_label
 _atom_site_symmetry_multiplicity
 _atom_site_fract_x
 _atom_site_fract_y
 _atom_site_fract_z
 _atom_site_occupancy
  Eu  Eu0  1  0.33333300  0.66666700  0.75000000  1
  Eu  Eu1  1  0.66666700  0.33333300  0.25000000  1
  Ag  Ag0  1  0.14391900  0.28783800  0.25000000  1
  Ag  Ag1  1  0.71216200  0.85608100  0.25000000  1
  Ag  Ag2  1  0.14391900  0.85608100  0.25000000  1
  Ag  Ag3  1  0.85608100  0.71216200  0.75000000  1
  Ag  Ag4  1  0.28783800  0.14391900  0.75000000  1
  Ag  Ag5  1  0.85608100  0.14391900  0.75000000  1
loop_
_geom_bond_atom_site_label_1
_geom_bond_atom_site_label_2
_geom_bond_distance
_geom_bond_site_symmetry_2
Ag0 Ag2 2.916245 1_545
Ag0 Ag1 2.916245 1_445
Ag0 Ag4 2.943162 1_555
Ag0 Ag4 2.943162 1_554
Ag0 Ag5 2.943162 1_455
Ag0 Ag5 2.943162 1_454
Ag0 Eu0 3.276855 1_554
Ag0 Eu0 3.276855 1_555
Ag0 Eu1 3.387648 1_455
Ag0 Eu1 3.387655 1_555
Ag1 Ag2 2.916245 1_655
Ag1 Ag3 2.943162 1_555
Ag1 Ag3 2.943162 1_554
Ag1 Ag5 2.943162 1_564
Ag1 Ag5 2.943162 1_565
Ag1 Eu0 3.276855 1_554
Ag1 Eu0 3.276855 1_555
Ag1 Eu1 3.387648 1_565
Ag1 Eu1 3.387655 1_555
Ag2 Ag4 2.943162 1_564
Ag2 Ag4 2.943162 1_565
Ag2 Ag3 2.943162 1_455
Ag2 Ag3 2.943162 1_454
Ag2 Eu0 3.276851 1_554
Ag2 Eu0 3.276851 1_555
Ag2 Eu1 3.387652 1_455
Ag2 Eu1 3.387652 1_565
Ag3 Ag5 2.916245 1_565
Ag3 Ag4 2.916245 1_665
Ag3 Eu1 3.276855 1_556
Ag3 Eu1 3.276855 1_555
Ag3 Eu0 3.387648 1_655
Ag3 Eu0 3.387655 1_555
Ag4 Ag5 2.916245 1_455
Ag4 Eu1 3.276855 1_556
Ag4 Eu1 3.276855 1_555
Ag4 Eu0 3.387648 1_545
Ag4 Eu0 3.387655 1_555
Ag5 Eu1 3.276851 1_556
Ag5 Eu1 3.276851 1_555
Ag5 Eu0 3.387652 1_545
Ag5 Eu0 3.387652 1_655
