# generated using pymatgen
data_Tb(GePt)2
_symmetry_space_group_name_H-M   'P 1'
_cell_length_a   4.31444400
_cell_length_b   4.34274500
_cell_length_c   10.02894900
_cell_angle_alpha   90.00000000
_cell_angle_beta   90.00000000
_cell_angle_gamma   90.00000000
_symmetry_Int_Tables_number   1
_chemical_formula_structural   Tb(GePt)2
_chemical_formula_sum   'Tb2 Ge4 Pt4'
_cell_volume   187.90770490
_cell_formula_units_Z   2
loop_
 _symmetry_equiv_pos_site_id
 _symmetry_equiv_pos_as_xyz
  1  'x, y, z'
loop_
 _atom_site_type_symbol
 _atom_site_label
 _atom_site_symmetry_multiplicity
 _atom_site_fract_x
 _atom_site_fract_y
 _atom_site_fract_z
 _atom_site_occupancy
  Tb  Tb0  1  0.25122100  0.00000000  0.74825800  1
  Tb  Tb1  1  0.75122100  0.50000000  0.25174200  1
  Ge  Ge0  1  0.22678000  0.00000000  0.13326800  1
  Ge  Ge1  1  0.72678000  0.50000000  0.86673200  1
  Ge  Ge2  1  0.26959100  0.50000000  0.49808000  1
  Ge  Ge3  1  0.76959100  0.00000000  0.50192000  1
  Pt  Pt0  1  0.27041200  0.00000000  0.37471800  1
  Pt  Pt1  1  0.77041200  0.50000000  0.62528200  1
  Pt  Pt2  1  0.22599500  0.50000000  0.99922500  1
  Pt  Pt3  1  0.72599500  0.00000000  0.00077500  1
loop_
_geom_bond_atom_site_label_1
_geom_bond_atom_site_label_2
_geom_bond_distance
_geom_bond_site_symmetry_2
Ge0 Pt0 2.428796 1_555
Ge0 Pt3 2.530736 1_555
Ge0 Pt3 2.536503 1_455
Ge0 Pt2 2.553829 1_554
Ge0 Pt2 2.553829 1_544
Ge0 Tb1 3.215024 1_455
Ge0 Tb1 3.215024 1_445
Ge0 Tb1 3.353548 1_545
Ge0 Tb1 3.353548 1_555
Ge1 Pt1 2.428796 1_555
Ge1 Pt2 2.530736 1_655
Ge1 Pt2 2.536503 1_555
Ge1 Pt3 2.553829 1_556
Ge1 Pt3 2.553829 1_566
Ge1 Tb0 3.215024 1_555
Ge1 Tb0 3.215024 1_565
Ge1 Tb0 3.353548 1_665
Ge1 Tb0 3.353548 1_655
Ge2 Pt0 2.499102 1_555
Ge2 Pt0 2.499102 1_565
Ge2 Pt1 2.503149 1_455
Ge2 Pt1 2.509247 1_555
Ge2 Tb1 3.228214 1_555
Ge2 Tb0 3.319086 1_565
Ge2 Tb0 3.319086 1_555
Ge2 Tb1 3.332456 1_455
Ge3 Pt1 2.499102 1_555
Ge3 Pt1 2.499102 1_545
Ge3 Pt0 2.503149 1_555
Ge3 Pt0 2.509247 1_655
Ge3 Tb0 3.228214 1_655
Ge3 Tb1 3.319086 1_545
Ge3 Tb1 3.319086 1_555
Ge3 Tb0 3.332456 1_555
Pt0 Tb1 3.246409 1_555
Pt0 Tb1 3.246409 1_545
Pt0 Tb1 3.354643 1_445
Pt0 Tb1 3.354643 1_455
Pt1 Tb0 3.246409 1_665
Pt1 Tb0 3.246409 1_655
Pt1 Tb0 3.354643 1_555
Pt1 Tb0 3.354643 1_565
Pt2 Tb1 3.257198 1_456
Pt2 Tb0 3.325908 1_565
Pt2 Tb0 3.325908 1_555
Pt2 Tb1 3.398305 1_556
Pt3 Tb0 3.257198 1_554
Pt3 Tb1 3.325908 1_555
Pt3 Tb1 3.325908 1_545
Pt3 Tb0 3.398305 1_654
