# generated using pymatgen
data_Mg14FeBiO16
_symmetry_space_group_name_H-M   'P 1'
_cell_length_a   8.72935479
_cell_length_b   8.75189152
_cell_length_c   4.38235804
_cell_angle_alpha   90.00000000
_cell_angle_beta   90.00000000
_cell_angle_gamma   90.00000000
_symmetry_Int_Tables_number   1
_chemical_formula_structural   Mg14FeBiO16
_chemical_formula_sum   'Mg14 Fe1 Bi1 O16'
_cell_volume   334.80499419
_cell_formula_units_Z   1
loop_
 _symmetry_equiv_pos_site_id
 _symmetry_equiv_pos_as_xyz
  1  'x, y, z'
loop_
 _atom_site_type_symbol
 _atom_site_label
 _atom_site_symmetry_multiplicity
 _atom_site_fract_x
 _atom_site_fract_y
 _atom_site_fract_z
 _atom_site_occupancy
  Mg  Mg0  1  0.50000000  0.00000000  0.00000000  1
  Mg  Mg1  1  0.50000000  0.50000000  0.00000000  1
  Mg  Mg2  1  0.00000000  0.23168817  0.50000000  1
  Mg  Mg3  1  0.00000000  0.76831183  0.50000000  1
  Mg  Mg4  1  0.50000000  0.24550329  0.50000000  1
  Mg  Mg5  1  0.50000000  0.75449671  0.50000000  1
  Mg  Mg6  1  0.24978958  0.00000000  0.50000000  1
  Mg  Mg7  1  0.26522015  0.50000000  0.50000000  1
  Mg  Mg8  1  0.75021042  0.00000000  0.50000000  1
  Mg  Mg9  1  0.73477985  0.50000000  0.50000000  1
  Mg  Mg10  1  0.25626601  0.23756434  0.00000000  1
  Mg  Mg11  1  0.25626601  0.76243566  0.00000000  1
  Mg  Mg12  1  0.74373399  0.23756434  0.00000000  1
  Mg  Mg13  1  0.74373399  0.76243566  0.00000000  1
  Fe  Fe0  1  0.00000000  0.00000000  0.00000000  1
  Bi  Bi0  1  0.00000000  0.50000000  0.00000000  1
  O  O0  1  0.26896043  0.00000000  0.00000000  1
  O  O1  1  0.26818273  0.50000000  0.00000000  1
  O  O2  1  0.73103957  0.00000000  0.00000000  1
  O  O3  1  0.73181727  0.50000000  0.00000000  1
  O  O4  1  0.24829841  0.25150987  0.50000000  1
  O  O5  1  0.24829841  0.74849013  0.50000000  1
  O  O6  1  0.75170159  0.25150987  0.50000000  1
  O  O7  1  0.75170159  0.74849013  0.50000000  1
  O  O8  1  0.00000000  0.00000000  0.50000000  1
  O  O9  1  0.00000000  0.50000000  0.50000000  1
  O  O10  1  0.50000000  0.00000000  0.50000000  1
  O  O11  1  0.50000000  0.50000000  0.50000000  1
  O  O12  1  0.00000000  0.24004493  0.00000000  1
  O  O13  1  0.00000000  0.75995507  0.00000000  1
  O  O14  1  0.50000000  0.25069479  0.00000000  1
  O  O15  1  0.50000000  0.74930521  0.00000000  1
loop_
_geom_bond_atom_site_label_1
_geom_bond_atom_site_label_2
_geom_bond_distance
_geom_bond_site_symmetry_2
Mg0 O0 2.016826 1_555
Mg0 O2 2.016826 1_555
Mg0 O10 2.191179 1_555
Mg0 O10 2.191179 1_554
Mg0 O15 2.194054 1_545
Mg0 O14 2.194054 1_555
Mg1 O3 2.023615 1_555
Mg1 O1 2.023615 1_555
Mg1 O14 2.181892 1_555
Mg1 O15 2.181892 1_555
Mg1 O11 2.191179 1_554
Mg1 O11 2.191179 1_555
Mg2 O8 2.027710 1_555
Mg2 O6 2.174416 1_455
Mg2 O4 2.174416 1_555
Mg2 O12 2.192399 1_556
Mg2 O12 2.192399 1_555
Mg2 O9 2.348236 1_555
Mg3 O8 2.027710 1_565
Mg3 O7 2.174416 1_455
Mg3 O5 2.174416 1_555
Mg3 O13 2.192399 1_555
Mg3 O13 2.192399 1_556
Mg3 O9 2.348236 1_555
Mg4 O10 2.148618 1_555
Mg4 O14 2.191650 1_556
Mg4 O14 2.191650 1_555
Mg4 O6 2.197821 1_555
Mg4 O4 2.197821 1_555
Mg4 O11 2.227328 1_555
Mg5 O10 2.148618 1_565
Mg5 O15 2.191650 1_556
Mg5 O15 2.191650 1_555
Mg5 O7 2.197821 1_555
Mg5 O5 2.197821 1_555
Mg5 O11 2.227328 1_555
Mg6 O8 2.180502 1_555
Mg6 O10 2.184176 1_555
Mg6 O0 2.197560 1_555
Mg6 O0 2.197560 1_556
Mg6 O5 2.201226 1_545
Mg6 O4 2.201226 1_555
Mg7 O11 2.049477 1_555
Mg7 O4 2.179770 1_555
Mg7 O5 2.179770 1_555
Mg7 O1 2.191332 1_556
Mg7 O1 2.191332 1_555
Mg7 O9 2.315201 1_555
Mg8 O8 2.180502 1_655
Mg8 O10 2.184176 1_555
Mg8 O2 2.197560 1_556
Mg8 O2 2.197560 1_555
Mg8 O6 2.201226 1_555
Mg8 O7 2.201226 1_545
Mg9 O11 2.049477 1_555
Mg9 O6 2.179770 1_555
Mg9 O7 2.179770 1_555
Mg9 O3 2.191332 1_556
Mg9 O3 2.191332 1_555
Mg9 O9 2.315201 1_655
Mg10 O0 2.082088 1_555
Mg10 O14 2.130742 1_555
Mg10 O4 2.195677 1_554
Mg10 O4 2.195677 1_555
Mg10 O12 2.237142 1_555
Mg10 O1 2.299163 1_555
Mg11 O0 2.082088 1_565
Mg11 O15 2.130742 1_555
Mg11 O5 2.195677 1_554
Mg11 O5 2.195677 1_555
Mg11 O13 2.237142 1_555
Mg11 O1 2.299163 1_555
Mg12 O2 2.082088 1_555
Mg12 O14 2.130742 1_555
Mg12 O6 2.195677 1_555
Mg12 O6 2.195677 1_554
Mg12 O12 2.237142 1_655
Mg12 O3 2.299163 1_555
Mg13 O2 2.082088 1_565
Mg13 O15 2.130742 1_555
Mg13 O7 2.195677 1_555
Mg13 O7 2.195677 1_554
Mg13 O13 2.237142 1_655
Mg13 O3 2.299163 1_555
Fe0 O13 2.100847 1_545
Fe0 O12 2.100847 1_555
Fe0 O8 2.191179 1_554
Fe0 O8 2.191179 1_555
Fe0 O0 2.347851 1_555
Fe0 O2 2.347851 1_455
Bi0 O9 2.191179 1_555
Bi0 O9 2.191179 1_554
Bi0 O12 2.275099 1_555
Bi0 O13 2.275099 1_555
Bi0 O1 2.341062 1_555
Bi0 O3 2.341062 1_455
