# generated using pymatgen
data_MgTiO3
_symmetry_space_group_name_H-M   'P 1'
_cell_length_a   5.10085700
_cell_length_b   5.30255200
_cell_length_c   7.46431600
_cell_angle_alpha   90.00000000
_cell_angle_beta   90.00000000
_cell_angle_gamma   90.00000000
_symmetry_Int_Tables_number   1
_chemical_formula_structural   MgTiO3
_chemical_formula_sum   'Mg4 Ti4 O12'
_cell_volume   201.89153104
_cell_formula_units_Z   4
loop_
 _symmetry_equiv_pos_site_id
 _symmetry_equiv_pos_as_xyz
  1  'x, y, z'
loop_
 _atom_site_type_symbol
 _atom_site_label
 _atom_site_symmetry_multiplicity
 _atom_site_fract_x
 _atom_site_fract_y
 _atom_site_fract_z
 _atom_site_occupancy
  Mg  Mg0  1  0.99060100  0.05455300  0.75000000  1
  Mg  Mg1  1  0.49060100  0.44544700  0.25000000  1
  Mg  Mg2  1  0.50939900  0.55455300  0.75000000  1
  Mg  Mg3  1  0.00939900  0.94544700  0.25000000  1
  Ti  Ti0  1  0.50000000  0.00000000  0.50000000  1
  Ti  Ti1  1  0.00000000  0.50000000  0.50000000  1
  Ti  Ti2  1  0.00000000  0.50000000  0.00000000  1
  Ti  Ti3  1  0.50000000  0.00000000  0.00000000  1
  O  O0  1  0.87700500  0.55623900  0.25000000  1
  O  O1  1  0.37700500  0.94376100  0.75000000  1
  O  O2  1  0.62299500  0.05623900  0.25000000  1
  O  O3  1  0.12299500  0.44376100  0.75000000  1
  O  O4  1  0.68295100  0.31249500  0.93527800  1
  O  O5  1  0.18295100  0.18750500  0.06472200  1
  O  O6  1  0.81704900  0.81249500  0.56472200  1
  O  O7  1  0.31704900  0.68750500  0.43527800  1
  O  O8  1  0.68295100  0.31249500  0.56472200  1
  O  O9  1  0.18295100  0.18750500  0.43527800  1
  O  O10  1  0.31704900  0.68750500  0.06472200  1
  O  O11  1  0.81704900  0.81249500  0.93527800  1
loop_
_geom_bond_atom_site_label_1
_geom_bond_atom_site_label_2
_geom_bond_distance
_geom_bond_site_symmetry_2
Mg0 O1 2.056682 1_645
Mg0 O11 2.084165 1_545
Mg0 O6 2.084165 1_545
Mg0 O3 2.171477 1_655
Mg0 O4 2.499199 1_555
Mg0 O8 2.499199 1_555
Mg0 O5 2.641652 1_656
Mg0 O9 2.641652 1_655
Mg1 O0 2.056682 1_555
Mg1 O10 2.084165 1_555
Mg1 O7 2.084165 1_555
Mg1 O2 2.171477 1_555
Mg1 O9 2.499199 1_555
Mg1 O5 2.499199 1_555
Mg1 O8 2.641652 1_555
Mg1 O4 2.641652 1_554
Mg2 O3 2.056682 1_555
Mg2 O4 2.084165 1_555
Mg2 O8 2.084165 1_555
Mg2 O1 2.171477 1_555
Mg2 O6 2.499199 1_555
Mg2 O11 2.499199 1_555
Mg2 O10 2.641652 1_556
Mg2 O7 2.641652 1_555
Mg3 O2 2.056682 1_465
Mg3 O5 2.084165 1_565
Mg3 O9 2.084165 1_565
Mg3 O0 2.171477 1_455
Mg3 O7 2.499199 1_555
Mg3 O10 2.499199 1_555
Mg3 O11 2.641652 1_454
Mg3 O6 2.641652 1_455
O0 Ti1 1.991177 1_655
O0 Ti2 1.991177 1_655
O1 Ti3 1.991177 1_566
O1 Ti0 1.991177 1_565
O2 Ti3 1.991177 1_555
O2 Ti0 1.991177 1_555
O3 Ti2 1.991177 1_556
O3 Ti1 1.991177 1_555
O4 Ti2 1.958913 1_656
O4 Ti3 1.962138 1_556
O5 Ti3 1.958913 1_555
O5 Ti2 1.962138 1_555
O6 Ti0 1.958913 1_565
O6 Ti1 1.962138 1_655
O7 Ti1 1.958913 1_555
O7 Ti0 1.962138 1_565
O8 Ti1 1.958913 1_655
O8 Ti0 1.962138 1_555
O9 Ti0 1.958913 1_555
O9 Ti1 1.962138 1_555
O10 Ti2 1.958913 1_555
O10 Ti3 1.962138 1_565
O11 Ti3 1.958913 1_566
O11 Ti2 1.962138 1_656
