# generated using pymatgen
data_Na2Re(ClO)6
_symmetry_space_group_name_H-M   'P 1'
_cell_length_a   8.05184833
_cell_length_b   9.33616009
_cell_length_c   6.83922837
_cell_angle_alpha   124.42318282
_cell_angle_beta   68.74158713
_cell_angle_gamma   121.00250810
_symmetry_Int_Tables_number   1
_chemical_formula_structural   Na2Re(ClO)6
_chemical_formula_sum   'Na2 Re1 Cl6 O6'
_cell_volume   361.65341155
_cell_formula_units_Z   1
loop_
 _symmetry_equiv_pos_site_id
 _symmetry_equiv_pos_as_xyz
  1  'x, y, z'
loop_
 _atom_site_type_symbol
 _atom_site_label
 _atom_site_symmetry_multiplicity
 _atom_site_fract_x
 _atom_site_fract_y
 _atom_site_fract_z
 _atom_site_occupancy
  Na  Na0  1  0.24592500  0.58946000  0.93498500  1
  Na  Na1  1  0.75407500  0.41054000  0.06501500  1
  Re  Re0  1  0.00000000  0.00000000  0.50000000  1
  Cl  Cl0  1  0.21310600  0.87155300  0.44306400  1
  Cl  Cl1  1  0.78689400  0.12844700  0.55693600  1
  Cl  Cl2  1  0.72618700  0.72522800  0.50607400  1
  Cl  Cl3  1  0.27381300  0.27477200  0.49392600  1
  Cl  Cl4  1  0.00231200  0.85625700  0.09758500  1
  Cl  Cl5  1  0.99768800  0.14374300  0.90241500  1
  O  O0  1  0.55377500  0.52549200  0.92326700  1
  O  O1  1  0.44622500  0.47450800  0.07673300  1
  O  O2  1  0.98846000  0.64363200  0.94942200  1
  O  O3  1  0.01154000  0.35636800  0.05057800  1
  O  O4  1  0.48596800  0.05750600  0.99556800  1
  O  O5  1  0.51403200  0.94249400  0.00443200  1
loop_
_geom_bond_atom_site_label_1
_geom_bond_atom_site_label_2
_geom_bond_distance
_geom_bond_site_symmetry_2
Na0 O2 2.332027 1_455
Na0 O3 2.356867 1_556
Na0 O5 2.719036 1_556
Na0 O0 2.798959 1_555
Na0 O1 2.964086 1_556
Na1 O3 2.332027 1_655
Na1 O2 2.356867 1_554
Na1 O4 2.719036 1_554
Na1 O1 2.798959 1_555
Na1 O0 2.964086 1_554
Cl0 Re0 2.375141 1_565
Cl0 Na0 2.963941 1_554
Cl1 Re0 2.375141 1_655
Cl1 Na1 2.963941 1_556
Cl2 Re0 2.381400 1_665
Cl2 Na1 2.819573 1_555
Cl3 Re0 2.381400 1_555
Cl3 Na0 2.819573 1_555
Cl4 O2 1.599845 1_454
Cl4 Re0 2.277873 1_565
Cl5 O3 1.599845 1_656
Cl5 Re0 2.277873 1_655
O0 O1 1.248695 1_556
O4 O5 1.241452 1_546
