# generated using pymatgen
data_LiPtF6
_symmetry_space_group_name_H-M   'P 1'
_cell_length_a   5.32111322
_cell_length_b   5.32105448
_cell_length_c   5.32090609
_cell_angle_alpha   55.07348914
_cell_angle_beta   55.07599178
_cell_angle_gamma   55.07396341
_symmetry_Int_Tables_number   1
_chemical_formula_structural   LiPtF6
_chemical_formula_sum   'Li1 Pt1 F6'
_cell_volume   94.32494016
_cell_formula_units_Z   1
loop_
 _symmetry_equiv_pos_site_id
 _symmetry_equiv_pos_as_xyz
  1  'x, y, z'
loop_
 _atom_site_type_symbol
 _atom_site_label
 _atom_site_symmetry_multiplicity
 _atom_site_fract_x
 _atom_site_fract_y
 _atom_site_fract_z
 _atom_site_occupancy
  Li  Li0  1  0.50000000  0.50000000  0.50000000  1
  Pt  Pt0  1  0.00000000  0.00000000  -0.00000000  1
  F  F0  1  0.38761619  0.10051870  0.75841737  1
  F  F1  1  0.75840682  0.38764618  0.10050175  1
  F  F2  1  0.10051504  0.75839289  0.38767140  1
  F  F3  1  0.61238381  0.89948130  0.24158263  1
  F  F4  1  0.24159318  0.61235382  0.89949825  1
  F  F5  1  0.89948496  0.24160711  0.61232860  1
loop_
_geom_bond_atom_site_label_1
_geom_bond_atom_site_label_2
_geom_bond_distance
_geom_bond_site_symmetry_2
F0 Pt0 1.905993 1_556
F0 Li0 1.983429 1_555
F1 Pt0 1.906021 1_655
F1 Li0 1.983414 1_555
F2 Pt0 1.906087 1_565
F2 Li0 1.983286 1_555
F3 Pt0 1.905993 1_665
F3 Li0 1.983429 1_555
F4 Pt0 1.906021 1_566
F4 Li0 1.983414 1_555
F5 Pt0 1.906087 1_656
F5 Li0 1.983286 1_555
