# generated using pymatgen
data_BaCaPb
_symmetry_space_group_name_H-M   'P 1'
_cell_length_a   5.35674520
_cell_length_b   8.96828929
_cell_length_c   9.79675462
_cell_angle_alpha   90.00000000
_cell_angle_beta   90.00000000
_cell_angle_gamma   90.00000000
_symmetry_Int_Tables_number   1
_chemical_formula_structural   BaCaPb
_chemical_formula_sum   'Ba4 Ca4 Pb4'
_cell_volume   470.64432716
_cell_formula_units_Z   4
loop_
 _symmetry_equiv_pos_site_id
 _symmetry_equiv_pos_as_xyz
  1  'x, y, z'
loop_
 _atom_site_type_symbol
 _atom_site_label
 _atom_site_symmetry_multiplicity
 _atom_site_fract_x
 _atom_site_fract_y
 _atom_site_fract_z
 _atom_site_occupancy
  Ba  Ba0  1  0.25000000  0.52117025  0.31788454  1
  Ba  Ba1  1  0.25000000  0.02117025  0.18211546  1
  Ba  Ba2  1  0.75000000  0.47882975  0.68211546  1
  Ba  Ba3  1  0.75000000  0.97882975  0.81788454  1
  Ca  Ca0  1  0.25000000  0.64448972  0.92889957  1
  Ca  Ca1  1  0.25000000  0.14448972  0.57110043  1
  Ca  Ca2  1  0.75000000  0.35551028  0.07110043  1
  Ca  Ca3  1  0.75000000  0.85551028  0.42889957  1
  Pb  Pb0  1  0.25000000  0.27480014  0.89201241  1
  Pb  Pb1  1  0.25000000  0.77480014  0.60798759  1
  Pb  Pb2  1  0.75000000  0.72519986  0.10798759  1
  Pb  Pb3  1  0.75000000  0.22519986  0.39201241  1
loop_
_geom_bond_atom_site_label_1
_geom_bond_atom_site_label_2
_geom_bond_distance
_geom_bond_site_symmetry_2
Ba0 Pb1 3.640230 1_555
Ba0 Pb3 3.840134 1_555
Ba0 Pb3 3.840134 1_455
Ba0 Pb2 3.840604 1_455
Ba0 Pb2 3.840604 1_555
Ba0 Ca2 3.902068 1_555
Ba0 Ca2 3.902068 1_455
Ba0 Ca0 3.968032 1_554
Ba0 Ca3 4.165006 1_455
Ba0 Ca3 4.165006 1_555
Ba0 Ca1 4.191174 1_555
Ba0 Ba2 4.477778 1_555
Ba0 Ba2 4.477778 1_455
Ba0 Ba1 4.677254 1_565
Ba0 Ba1 4.677254 1_555
Ba1 Pb0 3.640230 1_554
Ba1 Pb2 3.840134 1_445
Ba1 Pb2 3.840134 1_545
Ba1 Pb3 3.840604 1_455
Ba1 Pb3 3.840604 1_555
Ba1 Ca3 3.902068 1_545
Ba1 Ca3 3.902068 1_445
Ba1 Ca1 3.968032 1_555
Ba1 Ca2 4.165006 1_555
Ba1 Ca2 4.165006 1_455
Ba1 Ca0 4.191174 1_544
Ba1 Ba3 4.477778 1_544
Ba1 Ba3 4.477778 1_444
Ba2 Pb3 3.640230 1_555
Ba2 Pb1 3.840134 1_655
Ba2 Pb1 3.840134 1_555
Ba2 Pb0 3.840604 1_555
Ba2 Pb0 3.840604 1_655
Ba2 Ca0 3.902068 1_555
Ba2 Ca0 3.902068 1_655
Ba2 Ca2 3.968032 1_556
Ba2 Ca1 4.165006 1_555
Ba2 Ca1 4.165006 1_655
Ba2 Ca3 4.191174 1_555
Ba2 Ba3 4.677254 1_545
Ba2 Ba3 4.677254 1_555
Ba3 Pb2 3.640230 1_556
Ba3 Pb0 3.840134 1_565
Ba3 Pb0 3.840134 1_665
Ba3 Pb1 3.840604 1_555
Ba3 Pb1 3.840604 1_655
Ba3 Ca1 3.902068 1_665
Ba3 Ca1 3.902068 1_565
Ba3 Ca3 3.968032 1_555
Ba3 Ca0 4.165006 1_655
Ba3 Ca0 4.165006 1_555
Ba3 Ca2 4.191174 1_566
Ca0 Pb2 3.282654 1_456
Ca0 Pb2 3.282654 1_556
Ca0 Pb0 3.335119 1_555
Ca0 Pb1 3.354080 1_555
Ca0 Ca2 3.978829 1_456
Ca0 Ca2 3.978829 1_556
Ca1 Pb3 3.282654 1_555
Ca1 Pb3 3.282654 1_455
Ca1 Pb1 3.335119 1_545
Ca1 Pb0 3.354080 1_555
Ca1 Ca3 3.978829 1_445
Ca1 Ca3 3.978829 1_545
Ca2 Pb0 3.282654 1_654
Ca2 Pb0 3.282654 1_554
Ca2 Pb2 3.335119 1_555
Ca2 Pb3 3.354080 1_555
Ca3 Pb1 3.282654 1_655
Ca3 Pb1 3.282654 1_555
Ca3 Pb3 3.335119 1_565
Ca3 Pb2 3.354080 1_555
