# generated using pymatgen
data_LiFe8(O7F)2
_symmetry_space_group_name_H-M   'P 1'
_cell_length_a   7.31300416
_cell_length_b   7.32649614
_cell_length_c   5.60914402
_cell_angle_alpha   109.48416399
_cell_angle_beta   109.66024963
_cell_angle_gamma   80.22641353
_symmetry_Int_Tables_number   1
_chemical_formula_structural   LiFe8(O7F)2
_chemical_formula_sum   'Li1 Fe8 O14 F2'
_cell_volume   266.24305215
_cell_formula_units_Z   1
loop_
 _symmetry_equiv_pos_site_id
 _symmetry_equiv_pos_as_xyz
  1  'x, y, z'
loop_
 _atom_site_type_symbol
 _atom_site_label
 _atom_site_symmetry_multiplicity
 _atom_site_fract_x
 _atom_site_fract_y
 _atom_site_fract_z
 _atom_site_occupancy
  Li  Li0  1  0.94798700  0.94973300  0.38584700  1
  Fe  Fe0  1  0.72801200  0.25600800  0.49915700  1
  Fe  Fe1  1  0.50969700  0.99563800  0.98368000  1
  Fe  Fe2  1  0.24190000  0.25689500  0.52003000  1
  Fe  Fe3  1  0.74316500  0.75305000  0.49175000  1
  Fe  Fe4  1  0.50083300  0.49671200  0.00224300  1
  Fe  Fe5  1  0.99007600  0.01198900  0.97884500  1
  Fe  Fe6  1  0.26286700  0.73886000  0.50168800  1
  Fe  Fe7  1  0.01084800  0.49674700  0.02269600  1
  O  O0  1  0.97614700  0.17794200  0.33554400  1
  O  O1  1  0.92255900  0.23201500  0.83044900  1
  O  O2  1  0.57071900  0.26378600  0.14758100  1
  O  O3  1  0.31878900  0.01206700  0.64903400  1
  O  O4  1  0.51711200  0.32873300  0.66391800  1
  O  O5  1  0.76890100  0.57392100  0.15879300  1
  O  O6  1  0.72821300  0.91694500  0.82832500  1
  O  O7  1  0.23501100  0.42733400  0.86801800  1
  O  O8  1  0.48760700  0.66528700  0.34478600  1
  O  O9  1  0.67318500  0.97677900  0.32801800  1
  O  O10  1  0.18178200  0.48155600  0.36813700  1
  O  O11  1  0.42520400  0.73284500  0.84504200  1
  O  O12  1  0.08422800  0.77140400  0.17054700  1
  O  O13  1  0.01060700  0.82343400  0.64333300  1
  F  F0  1  0.82737900  0.52639000  0.66074100  1
  F  F1  1  0.27235300  0.07837400  0.15274900  1
loop_
_geom_bond_atom_site_label_1
_geom_bond_atom_site_label_2
_geom_bond_distance
_geom_bond_site_symmetry_2
Li0 O0 1.840711 1_565
Li0 O13 1.858627 1_655
Li0 O12 1.863658 1_655
Li0 O9 1.911056 1_555
Fe0 O2 1.934343 1_555
Fe0 O1 1.965253 1_555
Fe0 O4 1.966805 1_555
Fe0 O9 1.994210 1_545
Fe0 O0 2.209122 1_555
Fe1 O2 1.928903 1_566
Fe1 O9 1.935743 1_556
Fe1 O11 1.943011 1_555
Fe1 O3 1.953801 1_565
Fe1 O6 1.983542 1_555
Fe2 O7 1.946960 1_555
Fe2 O0 1.952323 1_455
Fe2 O4 1.990559 1_555
Fe2 O10 2.016480 1_555
Fe2 O3 2.075304 1_555
Fe3 O6 1.897378 1_555
Fe3 O8 1.898289 1_555
Fe3 O13 1.935196 1_655
Fe3 O5 1.939930 1_555
Fe3 O9 2.048253 1_555
Fe4 O4 1.916867 1_554
Fe4 O7 1.923419 1_554
Fe4 O8 1.930772 1_555
Fe4 O5 1.954731 1_555
Fe4 O2 2.046860 1_555
Fe4 O11 2.107372 1_554
Fe5 O6 1.958972 1_545
Fe5 O13 1.964186 1_645
Fe5 O1 1.970680 1_555
Fe5 O0 1.990996 1_556
Fe5 O12 2.256408 1_646
Fe6 O10 1.898709 1_555
Fe6 O11 1.902858 1_555
Fe6 O12 1.941758 1_555
Fe6 O3 1.950338 1_565
Fe6 O8 2.030351 1_555
Fe6 O13 2.165210 1_555
Fe7 O10 1.948388 1_555
Fe7 O1 1.975608 1_454
Fe7 O12 1.994715 1_555
Fe7 O7 2.019491 1_554
Fe7 O5 2.077105 1_455
F0 Fe0 2.030154 1_555
F0 Fe7 2.081240 1_656
F0 Fe3 2.084585 1_555
F1 Fe5 2.029487 1_454
F1 Fe2 2.101610 1_555
F1 Fe1 2.155531 1_544
