# generated using pymatgen
data_Gd(Al5Ru)2
_symmetry_space_group_name_H-M   'P 1'
_cell_length_a   6.81510081
_cell_length_b   6.81510081
_cell_length_c   9.09348496
_cell_angle_alpha   90.00000000
_cell_angle_beta   90.00000000
_cell_angle_gamma   97.04977884
_symmetry_Int_Tables_number   1
_chemical_formula_structural   Gd(Al5Ru)2
_chemical_formula_sum   'Gd2 Al20 Ru4'
_cell_volume   419.15932862
_cell_formula_units_Z   2
loop_
 _symmetry_equiv_pos_site_id
 _symmetry_equiv_pos_as_xyz
  1  'x, y, z'
loop_
 _atom_site_type_symbol
 _atom_site_label
 _atom_site_symmetry_multiplicity
 _atom_site_fract_x
 _atom_site_fract_y
 _atom_site_fract_z
 _atom_site_occupancy
  Gd  Gd0  1  0.87413878  0.12586122  0.75000000  1
  Gd  Gd1  1  0.12586122  0.87413878  0.25000000  1
  Al  Al0  1  0.41020508  0.13997939  0.75000000  1
  Al  Al1  1  0.13997939  0.41020508  0.25000000  1
  Al  Al2  1  0.58979492  0.86002061  0.25000000  1
  Al  Al3  1  0.86002061  0.58979492  0.75000000  1
  Al  Al4  1  0.51900051  0.78072488  0.75000000  1
  Al  Al5  1  0.78072488  0.51900051  0.25000000  1
  Al  Al6  1  0.48099949  0.21927512  0.25000000  1
  Al  Al7  1  0.21927512  0.48099949  0.75000000  1
  Al  Al8  1  0.84167025  0.15832975  0.39928767  1
  Al  Al9  1  0.15832975  0.84167025  0.60071233  1
  Al  Al10  1  0.84167025  0.15832975  0.10071233  1
  Al  Al11  1  0.15832975  0.84167025  0.89928767  1
  Al  Al12  1  0.62338129  0.37661871  0.54934966  1
  Al  Al13  1  0.37661871  0.62338129  0.45065034  1
  Al  Al14  1  0.62338129  0.37661871  0.95065034  1
  Al  Al15  1  0.37661871  0.62338129  0.04934966  1
  Al  Al16  1  0.77325767  0.77325767  0.00000000  1
  Al  Al17  1  0.77325767  0.77325767  0.50000000  1
  Al  Al18  1  0.22674233  0.22674233  0.00000000  1
  Al  Al19  1  0.22674233  0.22674233  0.50000000  1
  Ru  Ru0  1  0.50000000  0.00000000  0.00000000  1
  Ru  Ru1  1  -0.00000000  0.50000000  0.00000000  1
  Ru  Ru2  1  0.50000000  0.00000000  0.50000000  1
  Ru  Ru3  1  -0.00000000  0.50000000  0.50000000  1
loop_
_geom_bond_atom_site_label_1
_geom_bond_atom_site_label_2
_geom_bond_distance
_geom_bond_site_symmetry_2
Gd0 Ru0 3.445077 1_556
Gd0 Ru2 3.445077 1_555
Gd0 Ru1 3.445077 1_656
Gd0 Ru3 3.445077 1_655
Gd1 Ru1 3.445077 1_555
Gd1 Ru0 3.445077 1_565
Gd1 Ru3 3.445077 1_555
Gd1 Ru2 3.445077 1_565
Al0 Ru2 2.568283 1_555
Al0 Ru0 2.568283 1_556
Al0 Al4 2.643822 1_545
Al0 Al18 2.694924 1_556
Al0 Al19 2.694924 1_555
Al0 Al14 2.732331 1_555
Al0 Al12 2.732331 1_555
Al0 Al7 2.799433 1_555
Al0 Al9 2.840070 1_545
Al0 Al11 2.840070 1_545
Al0 Gd0 3.175000 1_555
Al0 Gd0 3.642789 1_455
Al1 Ru3 2.568283 1_555
Al1 Ru1 2.568283 1_555
Al1 Al5 2.643822 1_455
Al1 Al19 2.694924 1_555
Al1 Al18 2.694924 1_555
Al1 Al13 2.732331 1_555
Al1 Al15 2.732331 1_555
Al1 Al6 2.799433 1_555
Al1 Al10 2.840070 1_455
Al1 Al8 2.840070 1_455
Al1 Gd1 3.175000 1_555
Al1 Gd1 3.642789 1_545
Al2 Ru0 2.568283 1_565
Al2 Ru2 2.568283 1_565
Al2 Al6 2.643822 1_565
Al2 Al5 2.799433 1_555
Al2 Al8 2.840070 1_565
Al2 Gd1 3.175000 1_555
Al2 Gd1 3.642789 1_655
Al3 Ru1 2.568283 1_656
Al3 Ru3 2.568283 1_655
Al3 Al7 2.643822 1_655
Al3 Al4 2.799433 1_555
Al3 Al9 2.840070 1_655
Al3 Gd0 3.175000 1_555
Al3 Gd0 3.642789 1_565
Al4 Al7 2.705684 1_555
Al4 Ru0 2.732336 1_566
Al4 Ru2 2.732336 1_565
Al4 Al9 2.882333 1_555
Al4 Gd0 3.161175 1_565
Al5 Al6 2.705684 1_555
Al5 Ru1 2.732336 1_655
Al5 Ru3 2.732336 1_655
Al5 Al8 2.882333 1_555
Al5 Gd1 3.161175 1_655
Al6 Ru2 2.732336 1_555
Al6 Ru0 2.732336 1_555
Al6 Al8 2.882333 1_555
Al6 Gd1 3.161175 1_545
Al7 Ru1 2.732336 1_556
Al7 Ru3 2.732336 1_555
Al7 Al9 2.882333 1_555
Al7 Gd0 3.161175 1_455
Al8 Ru3 2.609273 1_655
Al8 Ru2 2.609273 1_555
Al8 Gd1 3.204062 1_645
Al8 Gd0 3.206388 1_555
Al9 Ru2 2.609273 1_565
Al9 Ru3 2.609273 1_555
Al9 Gd0 3.204062 1_465
Al9 Gd1 3.206388 1_555
Al10 Ru1 2.609273 1_655
Al10 Ru0 2.609273 1_555
Al10 Al14 2.613735 1_554
Al10 Al8 2.715090 1_555
Al10 Al18 2.764553 1_655
Al10 Al16 2.764553 1_545
Al10 Al2 2.840070 1_545
Al10 Al5 2.882333 1_555
Al10 Al6 2.882333 1_555
Al10 Gd1 3.204062 1_645
Al10 Gd0 3.206388 1_554
Al11 Ru1 2.609273 1_556
Al11 Ru0 2.609273 1_566
Al11 Al15 2.613735 1_556
Al11 Al9 2.715090 1_555
Al11 Al18 2.764553 1_566
Al11 Al16 2.764553 1_456
Al11 Al3 2.840070 1_455
Al11 Al7 2.882333 1_555
Al11 Al4 2.882333 1_555
Al11 Gd0 3.204062 1_465
Al11 Gd1 3.206388 1_556
Al12 Al8 2.613735 1_555
Al12 Ru3 2.639428 1_655
Al12 Ru2 2.639428 1_555
Al12 Al13 2.675082 1_555
Al12 Al3 2.732331 1_555
Al12 Al19 2.806046 1_555
Al12 Al17 2.806046 1_555
Al12 Al6 3.040727 1_555
Al12 Al5 3.040727 1_555
Al12 Gd0 3.144361 1_555
Al13 Al9 2.613735 1_555
Al13 Ru2 2.639428 1_565
Al13 Ru3 2.639428 1_555
Al13 Al2 2.732331 1_555
Al13 Al19 2.806046 1_555
Al13 Al17 2.806046 1_555
Al13 Al7 3.040727 1_555
Al13 Al4 3.040727 1_555
Al13 Gd1 3.144361 1_555
Al14 Ru1 2.639428 1_656
Al14 Ru0 2.639428 1_556
Al14 Al15 2.675082 1_556
Al14 Al3 2.732331 1_555
Al14 Al16 2.806046 1_556
Al14 Al18 2.806046 1_556
Al14 Al6 3.040727 1_556
Al14 Al5 3.040727 1_556
Al14 Gd0 3.144361 1_555
Al15 Ru1 2.639428 1_555
Al15 Ru0 2.639428 1_565
Al15 Al2 2.732331 1_555
Al15 Al16 2.806046 1_555
Al15 Al18 2.806046 1_555
Al15 Al7 3.040727 1_554
Al15 Al4 3.040727 1_554
Al15 Gd1 3.144361 1_555
Al16 Ru1 2.561703 1_655
Al16 Ru0 2.561703 1_565
Al16 Al3 2.694924 1_554
Al16 Al2 2.694924 1_555
Al16 Al5 2.862692 1_555
Al16 Al4 2.862692 1_554
Al16 Gd1 3.318118 1_655
Al16 Gd0 3.318118 1_564
Al17 Ru2 2.561703 1_565
Al17 Ru3 2.561703 1_655
Al17 Al3 2.694924 1_555
Al17 Al2 2.694924 1_555
Al17 Al9 2.764553 1_655
Al17 Al8 2.764553 1_565
Al17 Al4 2.862692 1_555
Al17 Al5 2.862692 1_555
Al17 Gd1 3.318118 1_655
Al17 Gd0 3.318118 1_565
Al18 Ru1 2.561703 1_555
Al18 Ru0 2.561703 1_555
Al18 Al7 2.862692 1_554
Al18 Al6 2.862692 1_555
Al18 Gd1 3.318118 1_545
Al18 Gd0 3.318118 1_454
Al19 Ru2 2.561703 1_555
Al19 Ru3 2.561703 1_555
Al19 Al9 2.764553 1_545
Al19 Al8 2.764553 1_455
Al19 Al7 2.862692 1_555
Al19 Al6 2.862692 1_555
Al19 Gd0 3.318118 1_455
Al19 Gd1 3.318118 1_545
