# generated using pymatgen
data_SnPNO4
_symmetry_space_group_name_H-M   'P 1'
_cell_length_a   8.86201800
_cell_length_b   5.18340300
_cell_length_c   8.89079552
_cell_angle_alpha   75.56203855
_cell_angle_beta   90.00000000
_cell_angle_gamma   90.00000000
_symmetry_Int_Tables_number   1
_chemical_formula_structural   SnPNO4
_chemical_formula_sum   'Sn4 P4 N4 O16'
_cell_volume   395.50425350
_cell_formula_units_Z   4
loop_
 _symmetry_equiv_pos_site_id
 _symmetry_equiv_pos_as_xyz
  1  'x, y, z'
loop_
 _atom_site_type_symbol
 _atom_site_label
 _atom_site_symmetry_multiplicity
 _atom_site_fract_x
 _atom_site_fract_y
 _atom_site_fract_z
 _atom_site_occupancy
  Sn  Sn0  1  0.74261400  0.80120500  0.50616800  1
  Sn  Sn1  1  0.24261400  0.19879500  0.99383200  1
  Sn  Sn2  1  0.25738600  0.19879500  0.49383200  1
  Sn  Sn3  1  0.75738600  0.80120500  0.00616800  1
  P  P0  1  0.93221800  0.22795300  0.19460500  1
  P  P1  1  0.43221800  0.77204700  0.30539500  1
  P  P2  1  0.06778200  0.77204700  0.80539500  1
  P  P3  1  0.56778200  0.22795300  0.69460500  1
  N  N0  1  0.94854300  0.46757500  0.53928200  1
  N  N1  1  0.44854300  0.53242500  0.96071800  1
  N  N2  1  0.05145700  0.53242500  0.46071800  1
  N  N3  1  0.55145700  0.46757500  0.03928200  1
  O  O0  1  0.85701500  0.11800000  0.06658800  1
  O  O1  1  0.35701500  0.88200000  0.43341200  1
  O  O2  1  0.14298500  0.88200000  0.93341200  1
  O  O3  1  0.64298500  0.11800000  0.56658800  1
  O  O4  1  0.89707600  0.53034100  0.16383400  1
  O  O5  1  0.39707600  0.46965900  0.33616600  1
  O  O6  1  0.10292400  0.46965900  0.83616600  1
  O  O7  1  0.60292400  0.53034100  0.66383400  1
  O  O8  1  0.10897200  0.19634700  0.18984400  1
  O  O9  1  0.60897200  0.80365300  0.31015600  1
  O  O10  1  0.89102800  0.80365300  0.81015600  1
  O  O11  1  0.39102800  0.19634700  0.68984400  1
  O  O12  1  0.88483000  0.08626800  0.36050600  1
  O  O13  1  0.38483000  0.91373200  0.13949400  1
  O  O14  1  0.11517000  0.91373200  0.63949400  1
  O  O15  1  0.61517000  0.08626800  0.86050600  1
loop_
_geom_bond_atom_site_label_1
_geom_bond_atom_site_label_2
_geom_bond_distance
_geom_bond_site_symmetry_2
N0 N2 1.146995 1_655
N0 Sn0 2.480692 1_555
N1 N3 1.146995 1_556
N1 Sn1 2.480692 1_555
N2 Sn2 2.480692 1_555
N3 Sn3 2.480692 1_555
O0 P0 1.545279 1_555
O0 Sn3 2.050459 1_545
O1 P1 1.545279 1_555
O1 Sn2 2.050459 1_565
O2 P2 1.545279 1_555
O2 Sn1 2.050459 1_565
O3 P3 1.545279 1_555
O3 Sn0 2.050459 1_545
O4 P0 1.553944 1_555
O4 Sn3 2.118314 1_555
O5 P1 1.553944 1_555
O5 Sn2 2.118314 1_555
O6 P2 1.553944 1_555
O6 Sn1 2.118314 1_555
O7 P3 1.553944 1_555
O7 Sn0 2.118314 1_555
O8 P0 1.576607 1_455
O8 Sn1 2.104472 1_554
O9 P1 1.576607 1_555
O9 Sn0 2.104472 1_555
O10 P2 1.576607 1_655
O10 Sn3 2.104472 1_556
O11 P3 1.576607 1_555
O11 Sn2 2.104472 1_555
O12 P0 1.533344 1_555
O12 Sn0 2.120055 1_545
O13 P1 1.533344 1_555
O13 Sn1 2.120055 1_564
O14 P2 1.533344 1_555
O14 Sn2 2.120055 1_565
O15 P3 1.533344 1_555
O15 Sn3 2.120055 1_546
