# generated using pymatgen
data_Tl32Si8O37
_symmetry_space_group_name_H-M   'P 1'
_cell_length_a   9.95895200
_cell_length_b   12.91584944
_cell_length_c   13.94837692
_cell_angle_alpha   105.48044827
_cell_angle_beta   91.03997944
_cell_angle_gamma   105.73796600
_symmetry_Int_Tables_number   1
_chemical_formula_structural   Tl32Si8O37
_chemical_formula_sum   'Tl32 Si8 O37'
_cell_volume   1656.30046472
_cell_formula_units_Z   1
loop_
 _symmetry_equiv_pos_site_id
 _symmetry_equiv_pos_as_xyz
  1  'x, y, z'
loop_
 _atom_site_type_symbol
 _atom_site_label
 _atom_site_symmetry_multiplicity
 _atom_site_fract_x
 _atom_site_fract_y
 _atom_site_fract_z
 _atom_site_occupancy
  Tl  Tl0  1  0.43456200  0.82256000  0.33046700  1
  Tl  Tl1  1  0.26653700  0.59497700  0.62020700  1
  Tl  Tl2  1  0.68609100  0.08629600  0.08508600  1
  Tl  Tl3  1  0.96190500  0.31412600  0.82881300  1
  Tl  Tl4  1  0.63085800  0.29323100  0.46492400  1
  Tl  Tl5  1  0.47139300  0.10397400  0.78756200  1
  Tl  Tl6  1  0.95462900  0.56723000  0.26160800  1
  Tl  Tl7  1  0.21040000  0.80616400  0.01382800  1
  Tl  Tl8  1  0.10264100  0.84887900  0.27761500  1
  Tl  Tl9  1  0.90169300  0.58912700  0.50390100  1
  Tl  Tl10  1  0.32462300  0.07301200  0.00204900  1
  Tl  Tl11  1  0.65278800  0.36514000  0.73956000  1
  Tl  Tl12  1  0.79536300  0.05157000  0.84338500  1
  Tl  Tl13  1  0.54539300  0.81641100  0.09782400  1
  Tl  Tl14  1  0.00513400  0.34097500  0.57480800  1
  Tl  Tl15  1  0.28616700  0.52431000  0.33404400  1
  Tl  Tl16  1  0.52747300  0.85825200  0.60291000  1
  Tl  Tl17  1  0.31604000  0.55926500  0.86137500  1
  Tl  Tl18  1  0.76952400  0.05278800  0.35307600  1
  Tl  Tl19  1  0.01955000  0.30725000  0.08792400  1
  Tl  Tl20  1  0.35978800  0.08228000  0.50380200  1
  Tl  Tl21  1  0.16774600  0.83083400  0.75950300  1
  Tl  Tl22  1  0.58479200  0.32221200  0.21703600  1
  Tl  Tl23  1  0.90283600  0.56318600  0.99657800  1
  Tl  Tl24  1  0.81543100  0.82570100  0.43793600  1
  Tl  Tl25  1  0.65148700  0.64684400  0.67501400  1
  Tl  Tl26  1  0.01249600  0.02701700  0.16293800  1
  Tl  Tl27  1  0.34990900  0.35188600  0.01674800  1
  Tl  Tl28  1  0.05002500  0.04848300  0.64132400  1
  Tl  Tl29  1  0.84316800  0.79956500  0.93208700  1
  Tl  Tl30  1  0.20431200  0.23057400  0.36127200  1
  Tl  Tl31  1  0.61023500  0.58308800  0.14508000  1
  Si  Si0  1  0.18833800  0.81226000  0.50896100  1
  Si  Si1  1  0.95628700  0.58413500  0.75777400  1
  Si  Si2  1  0.39327500  0.06159200  0.22821200  1
  Si  Si3  1  0.67847800  0.32936500  0.98331800  1
  Si  Si4  1  0.73260700  0.10995800  0.59687600  1
  Si  Si5  1  0.51930800  0.84460600  0.85116800  1
  Si  Si6  1  0.92859400  0.33224800  0.32385900  1
  Si  Si7  1  0.24239500  0.59817600  0.10149500  1
  O  O0  1  0.20210600  0.75091500  0.39174600  1
  O  O1  1  0.89636600  0.50687100  0.64304700  1
  O  O2  1  0.44101600  0.98842800  0.12420700  1
  O  O3  1  0.69930900  0.25330100  0.87177200  1
  O  O4  1  0.81745000  0.23982700  0.66274400  1
  O  O5  1  0.55149600  0.98274500  0.89298000  1
  O  O6  1  0.02933800  0.46074800  0.38013300  1
  O  O7  1  0.30105800  0.73524600  0.15690100  1
  O  O8  1  0.61689000  0.11441400  0.51297100  1
  O  O9  1  0.43577500  0.79817900  0.73661800  1
  O  O10  1  0.80885300  0.34792700  0.24780500  1
  O  O11  1  0.13449100  0.58517900  0.00227200  1
  O  O12  1  0.34686100  0.90348100  0.56019300  1
  O  O13  1  0.12833800  0.63061900  0.77228100  1
  O  O14  1  0.52760700  0.17584600  0.27941200  1
  O  O15  1  0.83949500  0.40802500  0.03876500  1
  O  O16  1  0.67672900  0.77340000  0.56902300  1
  O  O17  1  0.84111000  0.71299300  0.04380000  1
  O  O18  1  0.02063500  0.04585400  0.31175700  1
  O  O19  1  0.46016700  0.42191900  0.19942000  1
  O  O20  1  0.35185900  0.99057200  0.31086600  1
  O  O21  1  0.14316000  0.72183700  0.57569700  1
  O  O22  1  0.60206300  0.24219400  0.04903000  1
  O  O23  1  0.88991100  0.50008500  0.82952500  1
  O  O24  1  0.65052400  0.04121600  0.67630900  1
  O  O25  1  0.42943300  0.77583300  0.92434500  1
  O  O26  1  0.85798200  0.27030500  0.40837500  1
  O  O27  1  0.16008700  0.52234100  0.17256500  1
  O  O28  1  0.96614700  0.97794300  0.01055600  1
  O  O29  1  0.26206000  0.10351400  0.19009400  1
  O  O30  1  0.59037600  0.41789200  0.97718000  1
  O  O31  1  0.89587800  0.69731600  0.78741900  1
  O  O32  1  0.07852500  0.88834100  0.51556000  1
  O  O33  1  0.02004200  0.25793200  0.25204100  1
  O  O34  1  0.37477700  0.55569200  0.05294800  1
  O  O35  1  0.67675200  0.81933600  0.83774200  1
  O  O36  1  0.84186400  0.04298500  0.53915400  1
loop_
_geom_bond_atom_site_label_1
_geom_bond_atom_site_label_2
_geom_bond_distance
_geom_bond_site_symmetry_2
O0 Si0 1.641713 1_555
O0 Tl0 2.505618 1_555
O0 Tl8 2.610437 1_555
O1 Si1 1.643958 1_555
O1 Tl9 2.443839 1_555
O1 Tl14 2.622640 1_655
O2 Si2 1.661484 1_565
O2 Tl2 2.568166 1_565
O2 Tl13 2.642419 1_555
O2 Tl10 2.655068 1_565
O3 Si3 1.653874 1_555
O3 Tl5 2.563315 1_555
O3 Tl3 2.647462 1_555
O3 Tl11 2.730591 1_555
O4 Si4 1.658891 1_555
O4 Tl3 2.509920 1_555
O4 Tl14 2.513723 1_655
O4 Tl11 2.652291 1_555
O5 Si5 1.659423 1_555
O5 Tl12 2.526901 1_565
O5 Tl5 2.667245 1_565
O5 Tl2 2.783808 1_566
O6 Si6 1.658302 1_455
O6 Tl15 2.613742 1_555
O6 Tl6 2.627241 1_455
O6 Tl9 2.653435 1_455
O7 Si7 1.662819 1_555
O7 Tl0 2.552042 1_555
O7 Tl13 2.617090 1_555
O7 Tl7 2.644941 1_555
O8 Si4 1.650471 1_555
O8 Tl20 2.475458 1_555
O8 Tl4 2.541255 1_555
O8 Tl18 2.783896 1_555
O9 Si5 1.665605 1_555
O9 Tl16 2.316063 1_555
O9 Tl1 2.755268 1_555
O10 Si6 1.669782 1_555
O10 Tl22 2.181928 1_555
O10 Tl6 2.763276 1_555
O11 Si7 1.680046 1_555
O11 Tl23 2.243933 1_454
O11 Tl7 2.706191 1_555
O11 Tl17 2.710996 1_554
O12 Si0 1.700512 1_555
O12 Tl16 2.156044 1_555
O12 Tl20 2.603912 1_565
O13 Si1 1.643718 1_455
O13 Tl1 2.556171 1_555
O13 Tl21 2.563384 1_555
O13 Tl17 2.711020 1_555
O14 Si2 1.676064 1_555
O14 Tl22 2.228685 1_555
O14 Tl4 2.648599 1_555
O15 Si3 1.689226 1_554
O15 Tl23 2.171991 1_554
O15 Tl19 2.660386 1_655
O16 Tl16 2.065591 1_555
O16 Tl24 2.439764 1_555
O16 Tl25 2.449756 1_555
O17 Tl23 2.129582 1_554
O17 Tl29 2.144184 1_554
O18 Tl26 2.021940 1_555
O18 Tl30 2.494444 1_555
O18 Tl18 2.596239 1_455
O18 Tl8 2.803697 1_545
O19 Tl22 2.069813 1_555
O19 Tl31 2.517338 1_555
O19 Tl27 2.577872 1_555
O20 Si2 1.648403 1_565
O20 Tl0 2.596190 1_555
O20 Tl8 2.601055 1_555
O20 Tl20 2.625154 1_565
O21 Si0 1.656317 1_555
O21 Tl1 2.487435 1_555
O21 Tl21 2.545267 1_555
O21 Tl9 2.546366 1_455
O22 Si3 1.672804 1_554
O22 Tl22 2.325399 1_555
O22 Tl2 2.539094 1_555
O23 Si1 1.682786 1_555
O23 Tl23 2.242477 1_555
O23 Tl11 2.584813 1_555
O23 Tl3 2.684139 1_555
O24 Si4 1.687720 1_555
O24 Tl16 2.286110 1_545
O24 Tl5 2.541865 1_555
O24 Tl12 2.671412 1_555
O25 Si5 1.648583 1_555
O25 Tl13 2.521264 1_556
O25 Tl7 2.602105 1_556
O25 Tl17 2.609553 1_555
O26 Si6 1.659116 1_555
O26 Tl4 2.475787 1_555
O26 Tl14 2.527790 1_655
O26 Tl18 2.596111 1_555
O27 Si7 1.651136 1_555
O27 Tl6 2.533148 1_455
O27 Tl15 2.549480 1_555
O27 Tl19 2.674020 1_555
O28 Tl26 2.054019 1_665
O28 Tl29 2.253987 1_554
O29 Si2 1.672061 1_555
O29 Tl26 2.393906 1_555
O29 Tl10 2.657819 1_555
O29 Tl30 2.682343 1_555
O30 Si3 1.636548 1_555
O30 Tl27 2.440918 1_556
O30 Tl31 2.676390 1_556
O31 Si1 1.683240 1_555
O31 Tl29 2.254649 1_555
O31 Tl25 2.694829 1_555
O32 Si0 1.645730 1_555
O32 Tl28 2.415701 1_565
O32 Tl24 2.640350 1_455
O33 Si6 1.657795 1_455
O33 Tl30 2.520235 1_555
O33 Tl19 2.534903 1_555
O34 Si7 1.650534 1_555
O34 Tl27 2.485503 1_555
O34 Tl31 2.544220 1_555
O34 Tl17 2.740133 1_554
O35 Si5 1.689911 1_555
O35 Tl29 2.207600 1_555
O35 Tl25 2.674783 1_555
O36 Si4 1.658619 1_555
O36 Tl28 2.468288 1_655
O36 Tl24 2.721974 1_545
O36 Tl18 2.725552 1_555
