# generated using pymatgen
data_Tb3SmNi4
_symmetry_space_group_name_H-M   'P 1'
_cell_length_a   3.73199071
_cell_length_b   4.21351476
_cell_length_c   10.21162580
_cell_angle_alpha   90.00000000
_cell_angle_beta   90.00000000
_cell_angle_gamma   90.00000000
_symmetry_Int_Tables_number   1
_chemical_formula_structural   Tb3SmNi4
_chemical_formula_sum   'Tb3 Sm1 Ni4'
_cell_volume   160.57575235
_cell_formula_units_Z   1
loop_
 _symmetry_equiv_pos_site_id
 _symmetry_equiv_pos_as_xyz
  1  'x, y, z'
loop_
 _atom_site_type_symbol
 _atom_site_label
 _atom_site_symmetry_multiplicity
 _atom_site_fract_x
 _atom_site_fract_y
 _atom_site_fract_z
 _atom_site_occupancy
  Tb  Tb0  1  0.00000000  0.50000000  0.86042174  1
  Tb  Tb1  1  0.00000000  0.00000000  0.13496345  1
  Tb  Tb2  1  0.50000000  0.00000000  0.64084549  1
  Sm  Sm0  1  0.50000000  0.50000000  0.36098962  1
  Ni  Ni0  1  0.50000000  0.50000000  0.06861355  1
  Ni  Ni1  1  -0.00000000  0.50000000  0.57459162  1
  Ni  Ni2  1  0.00000000  0.00000000  0.43136268  1
  Ni  Ni3  1  0.50000000  -0.00000000  0.92821185  1
loop_
_geom_bond_atom_site_label_1
_geom_bond_atom_site_label_2
_geom_bond_distance
_geom_bond_site_symmetry_2
Ni0 Ni3 2.548334 1_564
Ni0 Ni3 2.548334 1_554
Ni0 Tb0 2.828731 1_554
Ni0 Tb0 2.828731 1_654
Ni0 Tb1 2.894724 1_565
Ni0 Tb1 2.894724 1_655
Ni0 Tb1 2.894724 1_665
Ni0 Tb1 2.894724 1_555
Ni0 Sm0 2.985635 1_555
Ni1 Ni2 2.564688 1_555
Ni1 Ni2 2.564688 1_565
Ni1 Sm0 2.870483 1_455
Ni1 Sm0 2.870483 1_555
Ni1 Tb2 2.894494 1_565
Ni1 Tb2 2.894494 1_455
Ni1 Tb2 2.894494 1_465
Ni1 Tb2 2.894494 1_555
Ni1 Tb0 2.918790 1_555
Ni2 Tb2 2.838652 1_455
Ni2 Tb2 2.838652 1_555
Ni2 Sm0 2.904614 1_545
Ni2 Sm0 2.904614 1_555
Ni2 Sm0 2.904614 1_445
Ni2 Sm0 2.904614 1_455
Ni2 Tb1 3.026718 1_555
Ni3 Tb1 2.817694 1_656
Ni3 Tb1 2.817694 1_556
Ni3 Tb0 2.898201 1_655
Ni3 Tb0 2.898201 1_645
Ni3 Tb0 2.898201 1_555
Ni3 Tb0 2.898201 1_545
Ni3 Tb2 2.934478 1_555
