# generated using pymatgen
data_ZnCo2S5
_symmetry_space_group_name_H-M   'P 1'
_cell_length_a   3.51132800
_cell_length_b   6.27909300
_cell_length_c   13.29626200
_cell_angle_alpha   90.00000000
_cell_angle_beta   90.00000000
_cell_angle_gamma   90.00000000
_symmetry_Int_Tables_number   1
_chemical_formula_structural   ZnCo2S5
_chemical_formula_sum   'Zn2 Co4 S10'
_cell_volume   293.15538712
_cell_formula_units_Z   2
loop_
 _symmetry_equiv_pos_site_id
 _symmetry_equiv_pos_as_xyz
  1  'x, y, z'
loop_
 _atom_site_type_symbol
 _atom_site_label
 _atom_site_symmetry_multiplicity
 _atom_site_fract_x
 _atom_site_fract_y
 _atom_site_fract_z
 _atom_site_occupancy
  Zn  Zn0  1  0.50000000  0.63625400  0.00000000  1
  Zn  Zn1  1  0.00000000  0.36374600  0.50000000  1
  Co  Co0  1  0.00000000  0.05423700  0.85236600  1
  Co  Co1  1  0.50000000  0.94576300  0.64763400  1
  Co  Co2  1  0.50000000  0.94576300  0.35236600  1
  Co  Co3  1  0.00000000  0.05423700  0.14763400  1
  S  S0  1  0.50000000  0.10788600  0.50000000  1
  S  S1  1  0.00000000  0.89211400  0.00000000  1
  S  S2  1  0.50000000  0.86129400  0.80656700  1
  S  S3  1  0.00000000  0.13870600  0.69343300  1
  S  S4  1  0.50000000  0.86129400  0.19343300  1
  S  S5  1  0.00000000  0.13870600  0.30656700  1
  S  S6  1  0.00000000  0.36546700  0.08005000  1
  S  S7  1  0.50000000  0.63453300  0.41995000  1
  S  S8  1  0.50000000  0.63453300  0.58005000  1
  S  S9  1  0.00000000  0.36546700  0.91995000  1
loop_
_geom_bond_atom_site_label_1
_geom_bond_atom_site_label_2
_geom_bond_distance
_geom_bond_site_symmetry_2
Co0 S9 2.150946 1_555
Co0 S3 2.178759 1_555
Co0 S1 2.211241 1_546
Co0 S2 2.218317 1_545
Co0 S2 2.218317 1_445
Co1 S8 2.150946 1_555
Co1 S2 2.178759 1_555
Co1 S0 2.211241 1_565
Co1 S3 2.218317 1_565
Co1 S3 2.218317 1_665
Co2 S7 2.150946 1_555
Co2 S4 2.178759 1_555
Co2 S0 2.211241 1_565
Co2 S5 2.218317 1_565
Co2 S5 2.218317 1_665
Co3 S6 2.150946 1_555
Co3 S5 2.178759 1_555
Co3 S1 2.211241 1_545
Co3 S4 2.218317 1_445
Co3 S4 2.218317 1_545
S0 Zn1 2.379794 1_555
S0 Zn1 2.379794 1_655
S1 Zn0 2.379794 1_455
S1 Zn0 2.379794 1_555
S2 Zn0 2.934545 1_556
S3 Zn1 2.934545 1_555
S4 Zn0 2.934545 1_555
S5 Zn1 2.934545 1_555
S6 S9 2.128732 1_554
S6 Zn0 2.665753 1_555
S6 Zn0 2.665753 1_455
S7 S8 2.128732 1_555
S7 Zn1 2.665753 1_555
S7 Zn1 2.665753 1_655
S8 Zn1 2.665753 1_555
S8 Zn1 2.665753 1_655
S9 Zn0 2.665753 1_556
S9 Zn0 2.665753 1_456
