# generated using pymatgen
data_CaVFe(P2O7)2
_symmetry_space_group_name_H-M   'P 1'
_cell_length_a   4.99470010
_cell_length_b   8.35322238
_cell_length_c   7.09376706
_cell_angle_alpha   89.99390932
_cell_angle_beta   106.43443979
_cell_angle_gamma   90.23067069
_symmetry_Int_Tables_number   1
_chemical_formula_structural   CaVFe(P2O7)2
_chemical_formula_sum   'Ca1 V1 Fe1 P4 O14'
_cell_volume   283.87063344
_cell_formula_units_Z   1
loop_
 _symmetry_equiv_pos_site_id
 _symmetry_equiv_pos_as_xyz
  1  'x, y, z'
loop_
 _atom_site_type_symbol
 _atom_site_label
 _atom_site_symmetry_multiplicity
 _atom_site_fract_x
 _atom_site_fract_y
 _atom_site_fract_z
 _atom_site_occupancy
  Ca  Ca0  1  0.31769500  0.39076000  0.16170900  1
  V  V0  1  0.20604400  0.51290300  0.71063100  1
  Fe  Fe0  1  0.78886100  0.99698500  0.27278500  1
  P  P0  1  0.37587100  0.18163400  0.50672400  1
  P  P1  1  0.23722300  0.77703700  0.10366600  1
  P  P2  1  0.74762300  0.26984100  0.89104100  1
  P  P3  1  0.61957200  0.69727800  0.50146800  1
  O  O0  1  0.00121900  0.33939500  0.83917900  1
  O  O1  1  0.15961700  0.65048100  0.94181900  1
  O  O2  1  0.14396000  0.06019800  0.47509900  1
  O  O3  1  0.27503500  0.35759000  0.49611000  1
  O  O4  1  0.44549700  0.67698000  0.64575400  1
  O  O5  1  0.53965100  0.40171000  0.91134900  1
  O  O6  1  0.58267800  0.14818700  0.72405200  1
  O  O7  1  0.41151000  0.65389200  0.28362500  1
  O  O8  1  0.43517300  0.91039800  0.08474000  1
  O  O9  1  0.54750400  0.17470400  0.35604600  1
  O  O10  1  0.71805200  0.86740800  0.49101400  1
  O  O11  1  0.84744000  0.57005700  0.52236700  1
  O  O12  1  0.85239100  0.17982000  0.08502700  1
  O  O13  1  0.98354700  0.83264400  0.16231500  1
loop_
_geom_bond_atom_site_label_1
_geom_bond_atom_site_label_2
_geom_bond_distance
_geom_bond_site_symmetry_2
Ca0 O5 2.346218 1_554
Ca0 O7 2.358290 1_555
Ca0 O9 2.365577 1_555
Ca0 O0 2.421942 1_554
Ca0 O3 2.456565 1_555
Ca0 O1 2.660729 1_554
Ca0 O12 2.837916 1_455
Fe0 O13 1.971379 1_555
Fe0 O10 1.999877 1_555
Fe0 O2 2.009117 1_665
Fe0 O8 2.019858 1_555
Fe0 O9 2.103186 1_565
Fe0 O12 2.107608 1_565
O0 P2 1.528064 1_455
O0 V0 2.120004 1_555
O1 P1 1.526796 1_556
O1 V0 2.069249 1_555
O2 P0 1.504848 1_555
O3 P0 1.550522 1_555
O3 V0 2.101996 1_555
O4 P3 1.527950 1_555
O4 V0 1.954174 1_555
O5 P2 1.551471 1_555
O5 V0 2.082359 1_555
O6 P2 1.598730 1_555
O6 P0 1.619551 1_555
O7 P3 1.639431 1_555
O7 P1 1.680395 1_555
O8 P1 1.517480 1_555
O9 P0 1.549070 1_555
O10 P3 1.510647 1_555
O11 P3 1.536521 1_555
O11 V0 1.967955 1_655
O12 P2 1.525911 1_554
O13 P1 1.515679 1_655
