# generated using pymatgen
data_Er2Fe17H3
_symmetry_space_group_name_H-M   'P 1'
_cell_length_a   8.52308154
_cell_length_b   8.52308154
_cell_length_c   8.19059300
_cell_angle_alpha   90.00000000
_cell_angle_beta   90.00000000
_cell_angle_gamma   119.99999643
_symmetry_Int_Tables_number   1
_chemical_formula_structural   Er2Fe17H3
_chemical_formula_sum   'Er4 Fe34 H6'
_cell_volume   515.27524673
_cell_formula_units_Z   2
loop_
 _symmetry_equiv_pos_site_id
 _symmetry_equiv_pos_as_xyz
  1  'x, y, z'
loop_
 _atom_site_type_symbol
 _atom_site_label
 _atom_site_symmetry_multiplicity
 _atom_site_fract_x
 _atom_site_fract_y
 _atom_site_fract_z
 _atom_site_occupancy
  Er  Er0  1  0.33333300  0.66666700  0.25000000  1
  Er  Er1  1  0.66666700  0.33333300  0.75000000  1
  Er  Er2  1  0.00000000  0.00000000  0.25000000  1
  Er  Er3  1  0.00000000  0.00000000  0.75000000  1
  Fe  Fe0  1  0.37748300  0.04895300  0.25000000  1
  Fe  Fe1  1  0.62251700  0.95104700  0.75000000  1
  Fe  Fe2  1  0.95104700  0.32853100  0.25000000  1
  Fe  Fe3  1  0.04895300  0.37748300  0.75000000  1
  Fe  Fe4  1  0.04895300  0.67146900  0.75000000  1
  Fe  Fe5  1  0.95104700  0.62251700  0.25000000  1
  Fe  Fe6  1  0.67146900  0.62251700  0.25000000  1
  Fe  Fe7  1  0.32853100  0.95104700  0.75000000  1
  Fe  Fe8  1  0.32853100  0.37748300  0.75000000  1
  Fe  Fe9  1  0.67146900  0.04895300  0.25000000  1
  Fe  Fe10  1  0.62251700  0.67146900  0.75000000  1
  Fe  Fe11  1  0.37748300  0.32853100  0.25000000  1
  Fe  Fe12  1  0.33333300  0.66666700  0.60412900  1
  Fe  Fe13  1  0.66666700  0.33333300  0.39587100  1
  Fe  Fe14  1  0.66666700  0.33333300  0.10412900  1
  Fe  Fe15  1  0.33333300  0.66666700  0.89587100  1
  Fe  Fe16  1  0.16677400  0.33354700  0.01802000  1
  Fe  Fe17  1  0.83322600  0.66645300  0.98198000  1
  Fe  Fe18  1  0.66645300  0.83322600  0.01802000  1
  Fe  Fe19  1  0.83322600  0.66645300  0.51802000  1
  Fe  Fe20  1  0.33354700  0.16677400  0.98198000  1
  Fe  Fe21  1  0.16677400  0.33354700  0.48198000  1
  Fe  Fe22  1  0.16677400  0.83322600  0.01802000  1
  Fe  Fe23  1  0.33354700  0.16677400  0.51802000  1
  Fe  Fe24  1  0.83322600  0.16677400  0.98198000  1
  Fe  Fe25  1  0.66645300  0.83322600  0.48198000  1
  Fe  Fe26  1  0.83322600  0.16677400  0.51802000  1
  Fe  Fe27  1  0.16677400  0.83322600  0.48198000  1
  Fe  Fe28  1  0.50000000  0.00000000  0.00000000  1
  Fe  Fe29  1  0.00000000  0.50000000  0.00000000  1
  Fe  Fe30  1  0.50000000  0.00000000  0.50000000  1
  Fe  Fe31  1  0.50000000  0.50000000  0.00000000  1
  Fe  Fe32  1  0.00000000  0.50000000  0.50000000  1
  Fe  Fe33  1  0.50000000  0.50000000  0.50000000  1
  H  H0  1  0.16475400  0.32950800  0.25000000  1
  H  H1  1  0.83524600  0.67049200  0.75000000  1
  H  H2  1  0.67049200  0.83524600  0.25000000  1
  H  H3  1  0.32950800  0.16475400  0.75000000  1
  H  H4  1  0.16475400  0.83524600  0.25000000  1
  H  H5  1  0.83524600  0.16475400  0.75000000  1
loop_
_geom_bond_atom_site_label_1
_geom_bond_atom_site_label_2
_geom_bond_distance
_geom_bond_site_symmetry_2
Er0 H4 2.488632 1_555
Er0 H2 2.488640 1_555
Er0 H0 2.488640 1_555
Er0 Fe15 2.900527 1_554
Er0 Fe12 2.900527 1_555
Er0 Fe29 3.201004 1_555
Er0 Fe32 3.201004 1_555
Er0 Fe30 3.201004 1_565
Er0 Fe28 3.201004 1_565
Er0 Fe33 3.201010 1_555
Er0 Fe31 3.201010 1_555
Er1 H5 2.488632 1_555
Er1 H3 2.488640 1_555
Er1 H1 2.488640 1_555
Er1 Fe14 2.900527 1_556
Er1 Fe13 2.900527 1_555
Er1 Fe32 3.201004 1_655
Er1 Fe30 3.201004 1_555
Er1 Fe29 3.201004 1_656
Er1 Fe28 3.201004 1_556
Er1 Fe31 3.201010 1_556
Er1 Fe33 3.201010 1_555
Er2 H4 2.432166 1_545
Er2 H2 2.432166 1_445
Er2 H0 2.432166 1_555
Er3 H5 2.432166 1_455
Er3 H1 2.432166 1_445
Er3 H3 2.432166 1_555
Fe0 H4 1.817289 1_545
Fe0 Fe30 2.427556 1_555
Fe0 Fe28 2.427556 1_555
Fe0 Fe13 2.720877 1_555
Fe0 Fe14 2.720877 1_555
Fe1 H5 1.817289 1_565
Fe1 Fe30 2.427556 1_565
Fe1 Fe28 2.427556 1_566
Fe1 Fe15 2.720877 1_555
Fe1 Fe12 2.720877 1_555
Fe2 H0 1.817293 1_655
Fe2 Fe32 2.427551 1_655
Fe2 Fe29 2.427551 1_655
Fe3 H5 1.817289 1_455
Fe3 Fe32 2.427556 1_555
Fe4 H1 1.817293 1_455
Fe5 H4 1.817289 1_655
Fe6 H2 1.817284 1_555
Fe7 H3 1.817293 1_565
Fe8 H3 1.817284 1_555
Fe9 H2 1.817293 1_545
Fe10 H1 1.817284 1_555
Fe10 Fe33 2.427552 1_555
Fe10 Fe31 2.427552 1_556
Fe10 Fe12 2.720884 1_555
Fe10 Fe15 2.720884 1_555
Fe11 H0 1.817284 1_555
Fe11 Fe33 2.427552 1_555
Fe11 Fe31 2.427552 1_555
Fe11 Fe14 2.720884 1_555
Fe11 Fe13 2.720884 1_555
Fe12 Fe15 2.389540 1_555
Fe12 Fe32 2.604029 1_555
Fe12 Fe30 2.604029 1_565
Fe12 Fe33 2.604036 1_555
Fe12 Fe27 2.654563 1_555
Fe12 Fe25 2.654577 1_555
Fe12 Fe21 2.654577 1_555
Fe12 Fe7 2.720869 1_555
Fe12 Fe4 2.720869 1_555
Fe12 Fe3 2.720877 1_555
Fe12 Fe8 2.720884 1_555
Fe13 Fe14 2.389540 1_555
Fe13 Fe32 2.604029 1_655
Fe13 Fe30 2.604029 1_555
Fe13 Fe33 2.604036 1_555
Fe13 Fe26 2.654563 1_555
Fe13 Fe19 2.654577 1_555
Fe13 Fe23 2.654577 1_555
Fe13 Fe2 2.720869 1_555
Fe13 Fe9 2.720869 1_555
Fe13 Fe5 2.720877 1_555
Fe13 Fe6 2.720884 1_555
Fe14 Fe28 2.604029 1_555
Fe14 Fe29 2.604029 1_655
Fe14 Fe31 2.604036 1_555
Fe14 Fe24 2.654563 1_554
Fe14 Fe17 2.654577 1_554
Fe14 Fe20 2.654577 1_554
Fe14 Fe2 2.720869 1_555
Fe14 Fe9 2.720869 1_555
Fe14 Fe5 2.720877 1_555
Fe14 Fe6 2.720884 1_555
Fe15 Fe28 2.604029 1_566
Fe15 Fe29 2.604029 1_556
Fe15 Fe31 2.604036 1_556
Fe15 Fe22 2.654563 1_556
Fe15 Fe18 2.654577 1_556
Fe15 Fe16 2.654577 1_556
Fe15 Fe7 2.720869 1_555
Fe15 Fe4 2.720869 1_555
Fe15 Fe3 2.720877 1_555
Fe15 Fe8 2.720884 1_555
Fe16 H0 1.900288 1_555
Fe16 Fe31 2.464034 1_555
Fe16 Fe29 2.464042 1_555
Fe17 H1 1.900288 1_555
Fe17 Fe31 2.464034 1_556
Fe17 Fe29 2.464042 1_656
Fe18 H2 1.900288 1_555
Fe18 Fe31 2.464034 1_555
Fe18 Fe28 2.464042 1_565
Fe19 H1 1.900288 1_555
Fe19 Fe33 2.464034 1_555
Fe19 Fe32 2.464042 1_655
Fe20 H3 1.900288 1_555
Fe20 Fe31 2.464034 1_556
Fe20 Fe28 2.464042 1_556
Fe21 H0 1.900288 1_555
Fe21 Fe33 2.464034 1_555
Fe21 Fe32 2.464042 1_555
Fe22 H4 1.900288 1_555
Fe22 Fe28 2.464034 1_565
Fe22 Fe29 2.464034 1_555
Fe23 H3 1.900288 1_555
Fe23 Fe33 2.464034 1_555
Fe23 Fe30 2.464042 1_555
Fe24 H5 1.900288 1_555
Fe24 Fe28 2.464034 1_556
Fe24 Fe29 2.464034 1_656
Fe25 H2 1.900288 1_555
Fe25 Fe33 2.464034 1_555
Fe25 Fe30 2.464042 1_565
Fe26 H5 1.900288 1_555
Fe26 Fe30 2.464034 1_555
Fe26 Fe32 2.464034 1_655
Fe27 H4 1.900288 1_555
Fe27 Fe30 2.464034 1_565
Fe27 Fe32 2.464034 1_555
Fe28 Fe9 2.427551 1_555
Fe28 Fe7 2.427551 1_544
Fe29 Fe4 2.427551 1_554
Fe29 Fe5 2.427556 1_455
Fe29 Fe3 2.427556 1_554
Fe30 Fe9 2.427551 1_555
Fe30 Fe7 2.427551 1_545
Fe31 Fe8 2.427552 1_554
Fe31 Fe6 2.427552 1_555
Fe32 Fe4 2.427551 1_555
Fe32 Fe5 2.427556 1_455
Fe33 Fe8 2.427552 1_555
Fe33 Fe6 2.427552 1_555
