# generated using pymatgen
data_Cs3Er2Br9
_symmetry_space_group_name_H-M   'P 1'
_cell_length_a   10.23286915
_cell_length_b   10.23220441
_cell_length_c   10.23284837
_cell_angle_alpha   83.78459261
_cell_angle_beta   83.78433415
_cell_angle_gamma   83.78020792
_symmetry_Int_Tables_number   1
_chemical_formula_structural   Cs3Er2Br9
_chemical_formula_sum   'Cs6 Er4 Br18'
_cell_volume   1053.79632357
_cell_formula_units_Z   2
loop_
 _symmetry_equiv_pos_site_id
 _symmetry_equiv_pos_as_xyz
  1  'x, y, z'
loop_
 _atom_site_type_symbol
 _atom_site_label
 _atom_site_symmetry_multiplicity
 _atom_site_fract_x
 _atom_site_fract_y
 _atom_site_fract_z
 _atom_site_occupancy
  Cs  Cs0  1  0.58961152  0.91038899  0.25000075  1
  Cs  Cs1  1  0.24998497  0.58962375  0.91038418  1
  Cs  Cs2  1  0.91037582  0.25001214  0.58961830  1
  Cs  Cs3  1  0.74999151  0.41039257  0.08961802  1
  Cs  Cs4  1  0.08960428  0.75001019  0.41038492  1
  Cs  Cs5  1  0.41037285  0.08962926  0.75000043  1
  Er  Er0  1  0.84837995  0.84838591  0.84838847  1
  Er  Er1  1  0.34839550  0.34841231  0.34841979  1
  Er  Er2  1  0.15160014  0.15156793  0.15155515  1
  Er  Er3  1  0.65160666  0.65160417  0.65161895  1
  Br  Br0  1  0.09372366  0.40630735  0.24996896  1
  Br  Br1  1  0.25003273  0.09366575  0.40627506  1
  Br  Br2  1  0.40630955  0.24998710  0.09370091  1
  Br  Br3  1  0.75000233  0.90627985  0.59368780  1
  Br  Br4  1  0.59372360  0.74997406  0.90633022  1
  Br  Br5  1  0.90632851  0.59370708  0.74997029  1
  Br  Br6  1  0.23607650  0.41770349  0.58268054  1
  Br  Br7  1  0.58269122  0.23613861  0.41767812  1
  Br  Br8  1  0.41766975  0.58267973  0.23611397  1
  Br  Br9  1  0.08269885  0.91770245  0.73614727  1
  Br  Br10  1  0.73609959  0.08273759  0.91769403  1
  Br  Br11  1  0.91768650  0.73606525  0.08270568  1
  Br  Br12  1  0.76391789  0.58230768  0.41731359  1
  Br  Br13  1  0.41727125  0.76388950  0.58232704  1
  Br  Br14  1  0.58229090  0.41728688  0.76392820  1
  Br  Br15  1  0.91734242  0.08234581  0.26388805  1
  Br  Br16  1  0.26390255  0.91728786  0.08228859  1
  Br  Br17  1  0.08230798  0.26390774  0.91731269  1
loop_
_geom_bond_atom_site_label_1
_geom_bond_atom_site_label_2
_geom_bond_distance
_geom_bond_site_symmetry_2
Br0 Er1 2.874365 1_555
Br0 Er2 2.874670 1_555
Br0 Cs1 4.023130 1_554
Br0 Cs2 4.023909 1_455
Br0 Cs4 4.033288 1_555
Br0 Cs3 4.033490 1_455
Br1 Er1 2.874610 1_555
Br1 Er2 2.874765 1_555
Br1 Cs0 4.022786 1_545
Br1 Cs2 4.023976 1_455
Br1 Cs4 4.033035 1_545
Br1 Cs5 4.033432 1_555
Br2 Er2 2.874632 1_555
Br2 Er1 2.874700 1_555
Br2 Cs0 4.023025 1_545
Br2 Cs1 4.023498 1_554
Br2 Cs5 4.033194 1_554
Br2 Cs3 4.033356 1_555
Br3 Er3 2.874139 1_555
Br3 Er0 2.874338 1_555
Br3 Cs4 4.023093 1_655
Br3 Cs5 4.023634 1_565
Br3 Cs0 4.033237 1_555
Br3 Cs2 4.033525 1_565
Br4 Er0 2.874162 1_555
Br4 Er3 2.874365 1_555
Br4 Cs3 4.022735 1_556
Br4 Cs5 4.023791 1_565
Br4 Cs0 4.033142 1_556
Br4 Cs1 4.033642 1_555
Br5 Er0 2.874168 1_555
Br5 Er3 2.874405 1_555
Br5 Cs4 4.023127 1_655
Br5 Cs3 4.023893 1_556
Br5 Cs2 4.032981 1_555
Br5 Cs1 4.033106 1_655
Br6 Er1 2.676726 1_555
Br6 Cs4 3.884111 1_555
Br6 Cs2 3.901107 1_455
Br6 Cs5 3.937111 1_555
Br6 Cs1 3.974240 1_555
Br7 Er1 2.676742 1_555
Br7 Cs5 3.884737 1_555
Br7 Cs0 3.901250 1_545
Br7 Cs3 3.937025 1_555
Br7 Cs2 3.974187 1_555
Br8 Er1 2.676647 1_555
Br8 Cs3 3.884381 1_555
Br8 Cs1 3.901278 1_554
Br8 Cs4 3.937095 1_555
Br8 Cs0 3.974352 1_555
Br9 Er0 2.677164 1_455
Br9 Cs2 3.884428 1_465
Br9 Cs4 3.901600 1_555
Br9 Cs1 3.936767 1_555
Br9 Cs5 3.974020 1_565
Br10 Er0 2.677299 1_545
Br10 Cs0 3.884650 1_546
Br10 Cs5 3.901365 1_555
Br10 Cs2 3.937139 1_555
Br10 Cs3 3.973660 1_556
Br11 Er0 2.677287 1_554
Br11 Cs1 3.884175 1_654
Br11 Cs3 3.900765 1_555
Br11 Cs0 3.937239 1_555
Br11 Cs4 3.974134 1_655
Br12 Er3 2.677120 1_555
Br12 Cs2 3.884009 1_555
Br12 Cs4 3.901047 1_655
Br12 Cs0 3.937179 1_555
Br12 Cs3 3.974170 1_555
Br13 Er3 2.677243 1_555
Br13 Cs0 3.884824 1_555
Br13 Cs5 3.901165 1_565
Br13 Cs1 3.936995 1_555
Br13 Cs4 3.974047 1_555
Br14 Er3 2.677239 1_555
Br14 Cs1 3.884319 1_555
Br14 Cs3 3.901058 1_556
Br14 Cs2 3.937185 1_555
Br14 Cs5 3.973821 1_555
Br15 Er2 2.676594 1_655
Br15 Cs4 3.884273 1_645
Br15 Cs2 3.901088 1_555
Br15 Cs3 3.936917 1_555
Br15 Cs0 3.974768 1_545
Br16 Er2 2.676599 1_565
Br16 Cs5 3.884410 1_564
Br16 Cs0 3.901294 1_555
Br16 Cs4 3.937403 1_555
Br16 Cs1 3.973682 1_554
Br17 Er2 2.676629 1_556
Br17 Cs3 3.884404 1_456
Br17 Cs1 3.901046 1_555
Br17 Cs5 3.937041 1_555
Br17 Cs2 3.974264 1_455
