# generated using pymatgen
data_V2O5
_symmetry_space_group_name_H-M   'P 1'
_cell_length_a   12.49261805
_cell_length_b   12.14933220
_cell_length_c   12.72181502
_cell_angle_alpha   87.73376615
_cell_angle_beta   87.56022901
_cell_angle_gamma   96.89887551
_symmetry_Int_Tables_number   1
_chemical_formula_structural   V2O5
_chemical_formula_sum   'V30 O75'
_cell_volume   1913.21868436
_cell_formula_units_Z   15
loop_
 _symmetry_equiv_pos_site_id
 _symmetry_equiv_pos_as_xyz
  1  'x, y, z'
loop_
 _atom_site_type_symbol
 _atom_site_label
 _atom_site_symmetry_multiplicity
 _atom_site_fract_x
 _atom_site_fract_y
 _atom_site_fract_z
 _atom_site_occupancy
  V  V0  1  0.77523425  0.86694730  0.31321711  1
  V  V1  1  0.22063362  0.98190834  0.66975095  1
  V  V2  1  0.14967646  0.95501705  0.30992310  1
  V  V3  1  0.71521157  0.24997860  0.10466728  1
  V  V4  1  0.98184926  0.04938283  0.78738577  1
  V  V5  1  0.67517311  0.00180679  0.85757875  1
  V  V6  1  0.77849852  0.74699474  0.88012972  1
  V  V7  1  0.19247153  0.60759156  0.06446222  1
  V  V8  1  0.84556766  0.05811417  0.50775070  1
  V  V9  1  0.38274384  0.44354708  0.15116577  1
  V  V10  1  0.45789103  0.14144559  0.57226518  1
  V  V11  1  0.39561493  0.05878128  0.34048638  1
  V  V12  1  0.25570336  0.82744690  0.05405161  1
  V  V13  1  0.33351966  0.24608663  0.97450271  1
  V  V14  1  0.15943746  0.54497691  0.70957356  1
  V  V15  1  0.11103846  0.24080701  0.62535312  1
  V  V16  1  0.67898477  0.60910410  0.43551094  1
  V  V17  1  0.06255245  0.98548172  0.05049316  1
  V  V18  1  0.41581977  0.57883500  0.37382692  1
  V  V19  1  0.71814187  0.30502039  0.85402816  1
  V  V20  1  0.36704915  0.39701131  0.60449137  1
  V  V21  1  0.23589307  0.76023149  0.66343117  1
  V  V22  1  0.94977839  0.72409749  0.41553741  1
  V  V23  1  0.98533864  0.24107778  0.06368874  1
  V  V24  1  0.98253376  0.34729148  0.79367719  1
  V  V25  1  0.19269558  0.21655265  0.35781833  1
  V  V26  1  0.89421793  0.83260694  0.65272180  1
  V  V27  1  0.48493631  0.03434229  0.06469617  1
  V  V28  1  0.60544557  0.61062201  0.06045795  1
  V  V29  1  0.62473135  0.45210693  0.26639973  1
  O  O0  1  0.18300821  0.31713768  0.27400302  1
  O  O1  1  0.14958022  0.95010648  0.17552264  1
  O  O2  1  0.05981699  0.36935893  0.64850575  1
  O  O3  1  0.56656838  0.98688046  0.95316126  1
  O  O4  1  0.82393182  0.65020157  0.45694681  1
  O  O5  1  0.88160502  0.78946764  0.29745260  1
  O  O6  1  0.03069077  0.03569199  0.90941799  1
  O  O7  1  0.98539340  0.90650336  0.73293043  1
  O  O8  1  0.04667370  0.48678609  0.79985697  1
  O  O9  1  0.10907061  0.08788277  0.33394142  1
  O  O10  1  0.62278754  0.97059009  0.74777009  1
  O  O11  1  0.27149585  0.71664974  0.97280467  1
  O  O12  1  0.84854536  0.35813517  0.77604558  1
  O  O13  1  0.68312526  0.54635960  0.15472045  1
  O  O14  1  0.16393495  0.90473436  0.98799250  1
  O  O15  1  0.40013463  0.31552863  0.87504737  1
  O  O16  1  0.47298305  0.43510045  0.66543390  1
  O  O17  1  0.39850614  0.11254302  0.00523968  1
  O  O18  1  0.57580556  0.72621190  0.10671582  1
  O  O19  1  0.07296862  0.57054266  0.02452736  1
  O  O20  1  0.88827871  0.73814021  0.94054609  1
  O  O21  1  0.05252122  0.12336880  0.09991294  1
  O  O22  1  0.38605425  0.69992278  0.40364126  1
  O  O23  1  0.56003735  0.58958387  0.34030315  1
  O  O24  1  0.48351721  0.52084526  0.05667145  1
  O  O25  1  0.06315520  0.85696356  0.37439542  1
  O  O26  1  0.40653719  0.26579661  0.54376791  1
  O  O27  1  0.84453620  0.19568772  0.09797655  1
  O  O28  1  0.62212160  0.59660459  0.55182418  1
  O  O29  1  0.26646114  0.47388652  0.68543535  1
  O  O30  1  0.98289265  0.30205951  0.92674163  1
  O  O31  1  0.67813549  0.64018680  0.93210071  1
  O  O32  1  0.37912974  0.89877410  0.07825062  1
  O  O33  1  0.15117053  0.63978412  0.60224588  1
  O  O34  1  0.71763905  0.90952836  0.18126047  1
  O  O35  1  0.48042367  0.06702244  0.44815988  1
  O  O36  1  0.28571776  0.94967741  0.35420114  1
  O  O37  1  0.72131729  0.34298417  0.99184157  1
  O  O38  1  0.01205857  0.20457675  0.75044731  1
  O  O39  1  0.96454647  0.12720370  0.54305697  1
  O  O40  1  0.61678884  0.92681226  0.20202425  1
  O  O41  1  0.81896737  0.92795826  0.59579913  1
  O  O42  1  0.02224972  0.33978339  0.13930076  1
  O  O43  1  0.23720393  0.27260600  0.66336153  1
  O  O44  1  0.84866093  0.04580559  0.80150074  1
  O  O45  1  0.26160084  0.49444164  0.07970305  1
  O  O46  1  0.61244778  0.14630784  0.09181919  1
  O  O47  1  0.37237508  0.47893775  0.48624403  1
  O  O48  1  0.12024172  0.07386590  0.67822774  1
  O  O49  1  0.73968042  0.87970160  0.90251486  1
  O  O50  1  0.34796990  0.53830769  0.26094694  1
  O  O51  1  0.33072775  0.17987625  0.34456635  1
  O  O52  1  0.45711976  0.05055442  0.22194124  1
  O  O53  1  0.75053973  0.13602045  0.52306026  1
  O  O54  1  0.96904635  0.77346393  0.55677440  1
  O  O55  1  0.20333151  0.22604182  0.94950451  1
  O  O56  1  0.15146736  0.25447892  0.48420286  1
  O  O57  1  0.68465846  0.77637959  0.38540252  1
  O  O58  1  0.82574645  0.98712210  0.37805797  1
  O  O59  1  0.49359148  0.39456258  0.24928978  1
  O  O60  1  0.20167150  0.88572560  0.57335217  1
  O  O61  1  0.56180366  0.16408915  0.64144051  1
  O  O62  1  0.62323312  0.36164236  0.80094398  1
  O  O63  1  0.36016249  0.75584235  0.63115190  1
  O  O64  1  0.35593539  0.30921009  0.10402077  1
  O  O65  1  0.02320382  0.63000975  0.38255412  1
  O  O66  1  0.95136221  0.91076789  0.08682439  1
  O  O67  1  0.69649015  0.32439717  0.21301752  1
  O  O68  1  0.34970032  0.05686622  0.65069841  1
  O  O69  1  0.69951307  0.47393418  0.38984142  1
  O  O70  1  0.81099671  0.73678887  0.73627341  1
  O  O71  1  0.19691582  0.72838387  0.15343184  1
  O  O72  1  0.21288022  0.65634028  0.78077345  1
  O  O73  1  0.69726191  0.16126001  0.85573125  1
  O  O74  1  0.22749453  0.87845701  0.76496992  1
loop_
_geom_bond_atom_site_label_1
_geom_bond_atom_site_label_2
_geom_bond_distance
_geom_bond_site_symmetry_2
O0 V25 1.608867 1_555
O1 V2 1.713261 1_555
O1 V17 2.025380 1_555
O2 V15 1.787714 1_555
O2 V24 2.040023 1_455
O2 V14 2.506057 1_555
O3 V5 1.770673 1_565
O3 V27 1.862424 1_566
O4 V22 1.763011 1_555
O4 V16 1.854228 1_555
O5 V0 1.727687 1_555
O5 V22 1.946771 1_555
O6 V4 1.701392 1_455
O6 V17 1.945299 1_546
O7 V26 1.752242 1_555
O7 V4 1.898991 1_565
O8 V24 1.791682 1_455
O8 V14 1.833651 1_555
O9 V2 1.782963 1_545
O9 V25 1.816495 1_555
O10 V5 1.607403 1_565
O11 V12 1.753785 1_556
O11 V7 1.885584 1_556
O12 V24 1.718168 1_555
O12 V19 1.900993 1_555
O13 V28 1.787844 1_555
O13 V29 1.855912 1_555
O14 V12 1.783392 1_556
O14 V17 1.863647 1_556
O15 V13 1.631706 1_555
O16 V20 1.592233 1_555
O17 V27 1.702873 1_555
O17 V13 1.933311 1_554
O18 V28 1.620902 1_555
O19 V7 1.615767 1_555
O20 V6 1.613019 1_555
O21 V23 1.797517 1_455
O21 V17 1.828775 1_545
O22 V18 1.615523 1_555
O23 V18 1.821691 1_555
O23 V16 1.955165 1_555
O23 V29 2.170407 1_555
O24 V28 1.767324 1_555
O24 V9 1.846569 1_555
O25 V2 1.672753 1_555
O25 V22 2.051004 1_455
O26 V10 1.742068 1_555
O26 V20 1.906669 1_555
O27 V23 1.808605 1_555
O27 V3 1.816928 1_555
O28 V16 1.607503 1_555
O29 V14 1.700382 1_555
O29 V20 1.938975 1_555
O30 V24 1.759353 1_555
O30 V23 1.868971 1_556
O31 V6 1.778691 1_555
O31 V28 1.835519 1_556
O32 V12 1.721557 1_555
O32 V27 1.981118 1_565
O33 V14 1.765769 1_555
O33 V21 1.911979 1_555
O34 O40 1.319389 1_555
O34 V0 1.930553 1_555
O35 V11 1.765732 1_555
O35 V10 1.877700 1_555
O36 V11 1.787872 1_565
O36 V2 1.820702 1_555
O37 V3 1.784530 1_556
O37 V19 1.831292 1_555
O38 V24 1.912238 1_455
O38 V4 1.913702 1_455
O38 V15 1.975265 1_555
O39 V8 1.703676 1_555
O39 V15 2.453739 1_655
O41 V26 1.733034 1_555
O41 V8 1.888823 1_565
O42 V23 1.603798 1_455
O43 V15 1.673513 1_555
O43 V20 2.166714 1_555
O44 V4 1.661076 1_555
O44 V5 2.247632 1_555
O45 V7 1.718016 1_555
O45 V9 1.948516 1_555
O46 V3 1.704975 1_555
O46 V27 2.017510 1_555
O47 V20 1.765017 1_555
O47 V18 1.857773 1_555
O48 V1 1.779706 1_545
O48 V15 2.129340 1_555
O48 V4 2.155309 1_455
O49 V6 1.768661 1_555
O49 V5 1.853736 1_565
O50 V18 1.755676 1_555
O50 V9 1.913205 1_555
O51 V11 1.764437 1_555
O51 V25 1.834735 1_555
O52 V11 1.675252 1_555
O52 V27 2.037092 1_555
O53 V8 1.614920 1_555
O54 V26 1.735995 1_555
O54 V22 1.932224 1_555
O55 V13 1.661506 1_555
O56 V25 1.762908 1_555
O56 V15 1.840167 1_555
O57 V0 1.693204 1_555
O57 V16 2.097777 1_555
O58 V0 1.768787 1_555
O58 V8 1.903552 1_565
O59 V29 1.728398 1_555
O59 V9 2.028911 1_555
O60 V1 1.731238 1_555
O60 V21 1.969963 1_555
O61 V10 1.601852 1_555
O62 V19 1.600769 1_555
O63 V21 1.596535 1_555
O64 V9 1.760357 1_555
O64 V13 1.862558 1_554
O65 V22 1.606615 1_455
O66 V17 1.605092 1_655
O67 V3 1.701204 1_555
O67 V29 2.009456 1_555
O68 V1 1.756243 1_545
O68 V10 1.829966 1_555
O69 V16 1.806703 1_555
O69 V29 1.872853 1_555
O70 V26 1.755899 1_555
O70 V6 1.869839 1_555
O71 V12 1.781741 1_555
O71 V7 1.885474 1_555
O72 V14 1.740169 1_555
O72 V21 1.905666 1_555
O73 V19 1.733832 1_555
O73 V5 1.922774 1_555
O74 V1 1.723007 1_555
O74 V21 1.978429 1_555
