# generated using pymatgen
data_LiLa(CO3)2
_symmetry_space_group_name_H-M   'P 1'
_cell_length_a   6.42793526
_cell_length_b   6.42793526
_cell_length_c   6.84467754
_cell_angle_alpha   63.26535239
_cell_angle_beta   63.26535239
_cell_angle_gamma   75.54181647
_symmetry_Int_Tables_number   1
_chemical_formula_structural   LiLa(CO3)2
_chemical_formula_sum   'Li2 La2 C4 O12'
_cell_volume   225.18046874
_cell_formula_units_Z   2
loop_
 _symmetry_equiv_pos_site_id
 _symmetry_equiv_pos_as_xyz
  1  'x, y, z'
loop_
 _atom_site_type_symbol
 _atom_site_label
 _atom_site_symmetry_multiplicity
 _atom_site_fract_x
 _atom_site_fract_y
 _atom_site_fract_z
 _atom_site_occupancy
  Li  Li0  1  0.75487354  0.24512646  0.25000000  1
  Li  Li1  1  0.24512646  0.75487354  0.75000000  1
  La  La0  1  0.80551247  0.19448753  0.75000000  1
  La  La1  1  0.19448753  0.80551247  0.25000000  1
  C  C0  1  0.32594285  0.21074976  0.62695239  1
  C  C1  1  0.78925024  0.67405715  0.87304761  1
  C  C2  1  0.67405715  0.78925024  0.37304761  1
  C  C3  1  0.21074976  0.32594285  0.12695239  1
  O  O0  1  0.54682214  0.20731412  0.55795800  1
  O  O1  1  0.79268588  0.45317786  0.94204200  1
  O  O2  1  0.45317786  0.79268588  0.44204200  1
  O  O3  1  0.20731412  0.54682214  0.05795800  1
  O  O4  1  0.20649147  0.03526793  0.80460984  1
  O  O5  1  0.96473207  0.79350853  0.69539016  1
  O  O6  1  0.79350853  0.96473207  0.19539016  1
  O  O7  1  0.03526793  0.20649147  0.30460984  1
  O  O8  1  0.78865584  0.61635850  0.47905250  1
  O  O9  1  0.38364150  0.21134416  0.02094750  1
  O  O10  1  0.21134416  0.38364150  0.52094750  1
  O  O11  1  0.61635850  0.78865584  0.97905250  1
loop_
_geom_bond_atom_site_label_1
_geom_bond_atom_site_label_2
_geom_bond_distance
_geom_bond_site_symmetry_2
Li0 O1 1.858975 1_554
Li0 O0 1.858975 1_555
Li0 O6 1.936231 1_545
Li0 O7 1.936231 1_655
Li1 O3 1.858975 1_556
Li1 O2 1.858975 1_555
Li1 O5 1.936231 1_455
Li1 O4 1.936231 1_565
La0 O1 2.510033 1_555
La0 O0 2.510033 1_555
La0 O9 2.512775 1_556
La0 O8 2.512775 1_555
La0 O10 2.632578 1_655
La0 O11 2.632578 1_545
La0 O5 2.652526 1_545
La0 O4 2.652526 1_655
La0 O7 2.697260 1_655
La0 O6 2.697260 1_546
La1 O2 2.510033 1_555
La1 O3 2.510033 1_555
La1 O10 2.512775 1_555
La1 O11 2.512775 1_554
La1 O9 2.632578 1_565
La1 O8 2.632578 1_455
La1 O6 2.652526 1_455
La1 O7 2.652526 1_565
La1 O4 2.697260 1_564
La1 O5 2.697260 1_455
C0 O0 1.276637 1_555
C0 O10 1.284815 1_555
C0 O4 1.303429 1_555
C1 O1 1.276637 1_555
C1 O11 1.284815 1_555
C1 O5 1.303429 1_555
C2 O2 1.276637 1_555
C2 O8 1.284815 1_555
C2 O6 1.303429 1_555
C3 O3 1.276637 1_555
C3 O9 1.284815 1_555
C3 O7 1.303429 1_555
