# generated using pymatgen
data_Sr3NbCoO7
_symmetry_space_group_name_H-M   'P 1'
_cell_length_a   3.98220517
_cell_length_b   3.98819696
_cell_length_c   42.31124814
_cell_angle_alpha   90.00285829
_cell_angle_beta   90.04288538
_cell_angle_gamma   90.07842604
_symmetry_Int_Tables_number   1
_chemical_formula_structural   Sr3NbCoO7
_chemical_formula_sum   'Sr12 Nb4 Co4 O28'
_cell_volume   671.97874747
_cell_formula_units_Z   4
loop_
 _symmetry_equiv_pos_site_id
 _symmetry_equiv_pos_as_xyz
  1  'x, y, z'
loop_
 _atom_site_type_symbol
 _atom_site_label
 _atom_site_symmetry_multiplicity
 _atom_site_fract_x
 _atom_site_fract_y
 _atom_site_fract_z
 _atom_site_occupancy
  Sr  Sr0  1  0.50215100  0.49965900  0.59503500  1
  Sr  Sr1  1  0.99821500  0.99878700  0.84714800  1
  Sr  Sr2  1  0.50105000  0.50073400  0.09587800  1
  Sr  Sr3  1  0.99890300  0.00137400  0.34602200  1
  Sr  Sr4  1  0.99527500  0.99910400  0.65923200  1
  Sr  Sr5  1  0.49584300  0.49580400  0.91077200  1
  Sr  Sr6  1  0.00280200  0.99722800  0.16000700  1
  Sr  Sr7  1  0.49573600  0.50485500  0.40941000  1
  Sr  Sr8  1  0.99174300  0.99760900  0.74111100  1
  Sr  Sr9  1  0.50387000  0.50397200  0.99085900  1
  Sr  Sr10  1  0.99864100  0.00167100  0.24047400  1
  Sr  Sr11  1  0.50342200  0.49646100  0.48949800  1
  Nb  Nb0  1  0.00147900  0.99911500  0.54829200  1
  Nb  Nb1  1  0.49718400  0.49885200  0.79912500  1
  Nb  Nb2  1  0.00155700  0.00176700  0.04774500  1
  Nb  Nb3  1  0.49897000  0.50116800  0.29836000  1
  Co  Co0  1  0.48292200  0.49567600  0.69630400  1
  Co  Co1  1  0.99994500  0.00004000  0.94939300  1
  Co  Co2  1  0.50010400  0.49990000  0.19831600  1
  Co  Co3  1  0.00014500  0.99978800  0.44792600  1
  O  O0  1  0.00009600  0.00092900  0.50323600  1
  O  O1  1  0.50109000  0.49949900  0.75351000  1
  O  O2  1  0.99904900  0.99909000  0.00182600  1
  O  O3  1  0.50007900  0.49984000  0.25263500  1
  O  O4  1  0.51826200  0.50456200  0.65137700  1
  O  O5  1  0.00130700  0.00162800  0.90259700  1
  O  O6  1  0.49756700  0.50219700  0.15108400  1
  O  O7  1  0.00233600  0.99658500  0.40099400  1
  O  O8  1  0.00208800  0.00136200  0.59838100  1
  O  O9  1  0.50035000  0.49964400  0.84836700  1
  O  O10  1  0.99990600  0.99949700  0.09662300  1
  O  O11  1  0.50013200  0.50040300  0.34749000  1
  O  O12  1  0.00480700  0.50087500  0.70184900  1
  O  O13  1  0.50123600  0.00018700  0.95210800  1
  O  O14  1  0.99914300  0.49943900  0.20162300  1
  O  O15  1  0.50181900  0.99953200  0.45175500  1
  O  O16  1  0.50085700  0.00112700  0.70160200  1
  O  O17  1  0.00010100  0.50137500  0.95209100  1
  O  O18  1  0.50057400  0.00087300  0.20160400  1
  O  O19  1  0.00031200  0.49802300  0.45172900  1
  O  O20  1  0.50089700  0.00014600  0.55140400  1
  O  O21  1  0.99954700  0.50008900  0.80139900  1
  O  O22  1  0.49997300  0.99868500  0.04979300  1
  O  O23  1  0.99948400  0.50066700  0.30074400  1
  O  O24  1  0.99994000  0.50009600  0.55137700  1
  O  O25  1  0.50097800  0.99950500  0.80140600  1
  O  O26  1  0.99876200  0.49993000  0.04976900  1
  O  O27  1  0.49935400  0.00065000  0.30071300  1
loop_
_geom_bond_atom_site_label_1
_geom_bond_atom_site_label_2
_geom_bond_distance
_geom_bond_site_symmetry_2
Nb0 O0 1.906394 1_565
Nb0 O20 1.993039 1_565
Nb0 O24 1.994470 1_455
Nb0 O20 1.997872 1_465
Nb0 O24 2.002282 1_465
Nb0 O8 2.119346 1_565
Nb1 O1 1.930104 1_555
Nb1 O21 1.984112 1_455
Nb1 O25 1.993914 1_545
Nb1 O25 1.999065 1_555
Nb1 O21 2.002752 1_555
Nb1 O9 2.083521 1_555
Nb2 O2 1.942937 1_445
Nb2 O22 1.986676 1_545
Nb2 O26 1.988659 1_455
Nb2 O22 1.999375 1_445
Nb2 O26 2.003276 1_445
Nb2 O10 2.068125 1_445
Nb3 O3 1.934697 1_555
Nb3 O23 1.991685 1_455
Nb3 O27 1.994512 1_565
Nb3 O23 1.995629 1_555
Nb3 O27 1.998653 1_555
Nb3 O11 2.078756 1_555
Co0 O4 1.906552 1_555
Co0 O12 1.918667 1_555
Co0 O16 1.986443 1_555
Co0 O16 2.029407 1_565
Co0 O12 2.091354 1_655
Co0 O1 2.421531 1_555
Co1 O5 1.980019 1_655
Co1 O13 1.989368 1_555
Co1 O17 1.992054 1_645
Co1 O13 1.999460 1_655
Co1 O17 2.002672 1_655
Co1 O2 2.218515 1_546
Co2 O14 1.992094 1_555
Co2 O18 1.995085 1_555
Co2 O6 1.998484 1_555
Co2 O14 1.999933 1_455
Co2 O18 2.002808 1_565
Co2 O3 2.298305 1_555
Co3 O7 1.985818 1_555
Co3 O15 1.991158 1_455
Co3 O19 1.993555 1_565
Co3 O15 2.004208 1_555
Co3 O19 2.007606 1_555
Co3 O0 2.340239 1_565
O0 Sr11 2.857372 1_455
O0 Sr11 2.872626 1_555
O0 Sr11 2.878347 1_445
O0 Sr11 2.900994 1_545
O1 Sr8 2.833780 1_555
O1 Sr8 2.848080 1_545
O1 Sr8 2.888821 1_455
O1 Sr8 2.895351 1_445
O2 Sr9 2.826794 1_554
O2 Sr9 2.857933 1_564
O2 Sr9 2.857964 1_654
O2 Sr9 2.881232 1_664
O3 Sr10 2.857632 1_555
O3 Sr10 2.861283 1_455
O3 Sr10 2.864060 1_565
O3 Sr10 2.875273 1_465
O4 Sr0 2.384794 1_555
O4 Sr4 2.756379 1_555
O4 Sr4 2.791437 1_545
O4 Sr4 2.889664 1_455
O4 Sr4 2.915679 1_445
O5 Sr1 2.346166 1_445
O5 Sr5 2.805455 1_555
O5 Sr5 2.840321 1_455
O5 Sr5 2.842092 1_545
O5 Sr5 2.868946 1_445
O6 Sr2 2.335893 1_555
O6 Sr6 2.816722 1_555
O6 Sr6 2.840886 1_545
O6 Sr6 2.841862 1_655
O6 Sr6 2.873390 1_645
O7 Sr3 2.326043 1_465
O7 Sr7 2.800512 1_555
O7 Sr7 2.834243 1_455
O7 Sr7 2.843300 1_565
O7 Sr7 2.884077 1_465
O8 Sr4 2.574861 1_445
O8 Sr0 2.815055 1_555
O8 Sr0 2.818396 1_455
O8 Sr0 2.824135 1_445
O8 Sr0 2.828497 1_545
O9 Sr5 2.640553 1_555
O9 Sr1 2.808119 1_555
O9 Sr1 2.816810 1_545
O9 Sr1 2.823941 1_455
O9 Sr1 2.824898 1_445
O10 Sr6 2.681888 1_655
O10 Sr2 2.809488 1_555
O10 Sr2 2.819819 1_655
O10 Sr2 2.820332 1_565
O10 Sr2 2.822933 1_665
O11 Sr7 2.620044 1_555
O11 Sr3 2.814405 1_555
O11 Sr3 2.816044 1_565
O11 Sr3 2.817408 1_455
O11 Sr3 2.826746 1_465
O12 Sr8 2.585944 1_455
O12 Sr8 2.605973 1_445
O12 Sr4 2.683592 1_455
O12 Sr4 2.693858 1_445
O13 Sr9 2.570062 1_545
O13 Sr9 2.593233 1_555
O13 Sr5 2.639471 1_555
O13 Sr5 2.665578 1_545
O14 Sr10 2.577503 1_555
O14 Sr10 2.591118 1_565
O14 Sr6 2.653745 1_655
O14 Sr6 2.666863 1_645
O15 Sr11 2.545126 1_565
O15 Sr11 2.564384 1_555
O15 Sr7 2.665020 1_555
O15 Sr7 2.696784 1_565
O16 Sr8 2.571217 1_545
O16 Sr8 2.628693 1_445
O16 Sr4 2.663781 1_545
O16 Sr4 2.694808 1_445
O17 Sr9 2.569167 1_455
O17 Sr9 2.590418 1_555
O17 Sr5 2.638075 1_555
O17 Sr5 2.661545 1_455
O18 Sr10 2.575624 1_555
O18 Sr10 2.589399 1_455
O18 Sr6 2.649871 1_545
O18 Sr6 2.665170 1_645
O19 Sr11 2.544374 1_455
O19 Sr11 2.561839 1_555
O19 Sr7 2.665386 1_555
O19 Sr7 2.690546 1_455
O20 Sr0 2.715939 1_555
O20 Sr0 2.718934 1_545
O21 Sr1 2.775312 1_555
O21 Sr1 2.782892 1_545
O22 Sr2 2.783251 1_555
O22 Sr2 2.794789 1_565
O22 Sr9 3.179712 1_554
O22 Sr9 3.206178 1_564
O23 Sr3 2.763284 1_555
O23 Sr3 2.767218 1_565
O24 Sr0 2.710575 1_555
O24 Sr0 2.721461 1_655
O25 Sr1 2.767826 1_555
O25 Sr1 2.785677 1_455
O26 Sr2 2.782127 1_555
O26 Sr2 2.793051 1_655
O26 Sr9 3.176434 1_554
O26 Sr9 3.204125 1_654
O27 Sr3 2.761670 1_555
O27 Sr3 2.766331 1_455
