# generated using pymatgen
data_U(MoO4)2
_symmetry_space_group_name_H-M   'P 1'
_cell_length_a   4.14478700
_cell_length_b   7.58091300
_cell_length_c   20.38550000
_cell_angle_alpha   90.00000000
_cell_angle_beta   90.00000000
_cell_angle_gamma   90.00000000
_symmetry_Int_Tables_number   1
_chemical_formula_structural   U(MoO4)2
_chemical_formula_sum   'U4 Mo8 O32'
_cell_volume   640.53829246
_cell_formula_units_Z   4
loop_
 _symmetry_equiv_pos_site_id
 _symmetry_equiv_pos_as_xyz
  1  'x, y, z'
loop_
 _atom_site_type_symbol
 _atom_site_label
 _atom_site_symmetry_multiplicity
 _atom_site_fract_x
 _atom_site_fract_y
 _atom_site_fract_z
 _atom_site_occupancy
  U  U0  1  0.00000000  0.50000000  0.75084100  1
  U  U1  1  0.00000000  0.50000000  0.24915900  1
  U  U2  1  0.00000000  0.00000000  0.74915900  1
  U  U3  1  0.00000000  0.00000000  0.25084100  1
  Mo  Mo0  1  0.91385000  0.24957200  0.59170800  1
  Mo  Mo1  1  0.91385000  0.75042800  0.40829200  1
  Mo  Mo2  1  0.08615000  0.25042800  0.90829200  1
  Mo  Mo3  1  0.08615000  0.74957200  0.09170800  1
  Mo  Mo4  1  0.08615000  0.75042800  0.59170800  1
  Mo  Mo5  1  0.08615000  0.24957200  0.40829200  1
  Mo  Mo6  1  0.91385000  0.74957200  0.90829200  1
  Mo  Mo7  1  0.91385000  0.25042800  0.09170800  1
  O  O0  1  0.50000000  0.50000000  0.74685300  1
  O  O1  1  0.50000000  0.50000000  0.25314700  1
  O  O2  1  0.50000000  0.00000000  0.75314700  1
  O  O3  1  0.50000000  0.00000000  0.24685300  1
  O  O4  1  0.00000000  0.75561300  0.50000000  1
  O  O5  1  0.00000000  0.24438700  0.50000000  1
  O  O6  1  0.00000000  0.74438700  0.00000000  1
  O  O7  1  0.00000000  0.25561300  0.00000000  1
  O  O8  1  0.00000000  0.50000000  0.10930700  1
  O  O9  1  0.00000000  0.50000000  0.89069300  1
  O  O10  1  0.00000000  0.00000000  0.39069300  1
  O  O11  1  0.00000000  0.00000000  0.60930700  1
  O  O12  1  0.00000000  0.00000000  0.10357500  1
  O  O13  1  0.00000000  0.00000000  0.89642500  1
  O  O14  1  0.00000000  0.50000000  0.39642500  1
  O  O15  1  0.00000000  0.50000000  0.60357500  1
  O  O16  1  0.01055600  0.75335900  0.18999700  1
  O  O17  1  0.01055600  0.24664100  0.81000300  1
  O  O18  1  0.98944400  0.74664100  0.31000300  1
  O  O19  1  0.98944400  0.25335900  0.68999700  1
  O  O20  1  0.98944400  0.24664100  0.18999700  1
  O  O21  1  0.98944400  0.75335900  0.81000300  1
  O  O22  1  0.01055600  0.25335900  0.31000300  1
  O  O23  1  0.01055600  0.74664100  0.68999700  1
  O  O24  1  0.49478200  0.24775600  0.58992400  1
  O  O25  1  0.49478200  0.75224400  0.41007600  1
  O  O26  1  0.50521800  0.25224400  0.91007600  1
  O  O27  1  0.50521800  0.74775600  0.08992400  1
  O  O28  1  0.50521800  0.75224400  0.58992400  1
  O  O29  1  0.50521800  0.24775600  0.41007600  1
  O  O30  1  0.49478200  0.74775600  0.91007600  1
  O  O31  1  0.49478200  0.25224400  0.08992400  1
loop_
_geom_bond_atom_site_label_1
_geom_bond_atom_site_label_2
_geom_bond_distance
_geom_bond_site_symmetry_2
Mo0 O24 1.737383 1_555
Mo0 O5 1.903714 1_655
Mo0 O15 1.946850 1_655
Mo0 O11 1.958524 1_655
Mo0 O19 2.028223 1_555
Mo0 O24 2.408153 1_655
Mo1 O25 1.737383 1_555
Mo1 O4 1.903714 1_655
Mo1 O14 1.946850 1_655
Mo1 O10 1.958524 1_665
Mo1 O18 2.028223 1_555
Mo1 O25 2.408153 1_655
Mo2 O26 1.737383 1_555
Mo2 O7 1.903714 1_556
Mo2 O13 1.946850 1_555
Mo2 O9 1.958524 1_555
Mo2 O17 2.028223 1_555
Mo2 O26 2.408153 1_455
Mo3 O27 1.737383 1_555
Mo3 O6 1.903714 1_555
Mo3 O12 1.946850 1_565
Mo3 O8 1.958524 1_555
Mo3 O16 2.028223 1_555
Mo3 O27 2.408153 1_455
Mo4 O28 1.737383 1_555
Mo4 O4 1.903714 1_555
Mo4 O15 1.946850 1_555
Mo4 O11 1.958524 1_565
Mo4 O23 2.028223 1_555
Mo4 O28 2.408153 1_455
Mo5 O29 1.737383 1_555
Mo5 O5 1.903714 1_555
Mo5 O14 1.946850 1_555
Mo5 O10 1.958524 1_555
Mo5 O22 2.028223 1_555
Mo5 O29 2.408153 1_455
Mo6 O30 1.737383 1_555
Mo6 O6 1.903714 1_656
Mo6 O13 1.946850 1_665
Mo6 O9 1.958524 1_655
Mo6 O21 2.028223 1_555
Mo6 O30 2.408153 1_655
Mo7 O31 1.737383 1_555
Mo7 O7 1.903714 1_655
Mo7 O12 1.946850 1_655
Mo7 O8 1.958524 1_655
Mo7 O20 2.028223 1_555
Mo7 O31 2.408153 1_655
O0 U0 2.073987 1_655
O0 U0 2.073987 1_555
O1 U1 2.073987 1_555
O1 U1 2.073987 1_655
O2 U2 2.073987 1_555
O2 U2 2.073987 1_655
O3 U3 2.073987 1_655
O3 U3 2.073987 1_555
O16 U3 2.244184 1_565
O16 U1 2.268375 1_555
O17 U2 2.244184 1_555
O17 U0 2.268375 1_555
O18 U1 2.244184 1_655
O18 U3 2.268375 1_665
O19 U0 2.244184 1_655
O19 U2 2.268375 1_655
O20 U3 2.244184 1_655
O20 U1 2.268375 1_655
O21 U2 2.244184 1_665
O21 U0 2.268375 1_655
O22 U1 2.244184 1_555
O22 U3 2.268375 1_555
O23 U0 2.244184 1_555
O23 U2 2.268375 1_565
