# generated using pymatgen
data_Li5Mn2Fe3O10
_symmetry_space_group_name_H-M   'P 1'
_cell_length_a   5.19066483
_cell_length_b   10.41650850
_cell_length_c   7.82675019
_cell_angle_alpha   72.10969288
_cell_angle_beta   77.56112937
_cell_angle_gamma   100.97741573
_symmetry_Int_Tables_number   1
_chemical_formula_structural   Li5Mn2Fe3O10
_chemical_formula_sum   'Li10 Mn4 Fe6 O20'
_cell_volume   377.97800919
_cell_formula_units_Z   2
loop_
 _symmetry_equiv_pos_site_id
 _symmetry_equiv_pos_as_xyz
  1  'x, y, z'
loop_
 _atom_site_type_symbol
 _atom_site_label
 _atom_site_symmetry_multiplicity
 _atom_site_fract_x
 _atom_site_fract_y
 _atom_site_fract_z
 _atom_site_occupancy
  Li  Li0  1  0.99423000  0.00062900  0.49863800  1
  Li  Li1  1  0.49426800  0.50060300  0.99867100  1
  Li  Li2  1  0.57988700  0.09039600  0.31747700  1
  Li  Li3  1  0.08003100  0.59041800  0.81751400  1
  Li  Li4  1  0.41428400  0.89941700  0.68591700  1
  Li  Li5  1  0.91434000  0.39941100  0.18599000  1
  Li  Li6  1  0.70739000  0.20341600  0.58103500  1
  Li  Li7  1  0.20725600  0.70343300  0.08108700  1
  Li  Li8  1  0.29333800  0.80825800  0.41249100  1
  Li  Li9  1  0.79335300  0.30819600  0.91259000  1
  Mn  Mn0  1  0.80189700  0.79635700  0.89627300  1
  Mn  Mn1  1  0.19583800  0.20310200  0.10655900  1
  Mn  Mn2  1  0.30182900  0.29637400  0.39628300  1
  Mn  Mn3  1  0.69579500  0.70315000  0.60655900  1
  Fe  Fe0  1  0.50060600  0.99949400  0.00299900  1
  Fe  Fe1  1  0.60667100  0.59854500  0.29201400  1
  Fe  Fe2  1  0.39680700  0.40205000  0.71563600  1
  Fe  Fe3  1  0.00048400  0.49950700  0.50307100  1
  Fe  Fe4  1  0.10680000  0.09855500  0.79192700  1
  Fe  Fe5  1  0.89681000  0.90206800  0.21552900  1
  O  O0  1  0.62646300  0.40162600  0.44176900  1
  O  O1  1  0.12639200  0.90158500  0.94182700  1
  O  O2  1  0.37939200  0.60006300  0.54960600  1
  O  O3  1  0.87938500  0.10004900  0.04954000  1
  O  O4  1  0.07867800  0.29353800  0.63722000  1
  O  O5  1  0.57861600  0.79349400  0.13721700  1
  O  O6  1  0.92884000  0.70252200  0.35717200  1
  O  O7  1  0.42887400  0.20251100  0.85715300  1
  O  O8  1  0.98318300  0.20788200  0.34523100  1
  O  O9  1  0.48321300  0.70793100  0.84512500  1
  O  O10  1  0.01309100  0.79378700  0.66548100  1
  O  O11  1  0.51298100  0.29371800  0.16550500  1
  O  O12  1  0.24608700  0.99259200  0.24026100  1
  O  O13  1  0.74612000  0.49259600  0.74034900  1
  O  O14  1  0.75639700  0.98678200  0.77155500  1
  O  O15  1  0.25625900  0.48677400  0.27161000  1
  O  O16  1  0.34384000  0.11751000  0.54401600  1
  O  O17  1  0.84376200  0.61749300  0.04408700  1
  O  O18  1  0.65327300  0.90210700  0.43846000  1
  O  O19  1  0.15324100  0.40205900  0.93855500  1
loop_
_geom_bond_atom_site_label_1
_geom_bond_atom_site_label_2
_geom_bond_distance
_geom_bond_site_symmetry_2
Li0 O18 2.090830 1_545
Li0 O8 2.142384 1_555
Li0 O16 2.145572 1_655
Li0 O14 2.171276 1_545
Li0 O10 2.182609 1_645
Li0 O12 2.193709 1_645
Li1 O19 2.090942 1_555
Li1 O9 2.143334 1_555
Li1 O17 2.145305 1_556
Li1 O15 2.171799 1_556
Li1 O11 2.182673 1_556
Li1 O13 2.193216 1_555
Li2 O18 2.046306 1_545
Li2 O16 2.056290 1_555
Li2 O12 2.135958 1_545
Li2 O11 2.220642 1_555
Li2 O3 2.287155 1_555
Li2 O8 2.304480 1_555
Li3 O19 2.046594 1_555
Li3 O17 2.056790 1_456
Li3 O13 2.136244 1_455
Li3 O10 2.221255 1_555
Li3 O2 2.286677 1_555
Li3 O9 2.303592 1_555
Li4 O18 2.051627 1_555
Li4 O9 2.143836 1_555
Li4 O14 2.168624 1_555
Li4 O10 2.225275 1_555
Li4 O1 2.235309 1_555
Li4 O16 2.338645 1_565
Li5 O19 2.051477 1_654
Li5 O8 2.144063 1_555
Li5 O15 2.167719 1_655
Li5 O11 2.226399 1_555
Li5 O0 2.234700 1_555
Li5 O17 2.338859 1_555
Li6 O16 2.048765 1_555
Li6 O8 2.059458 1_555
Li6 O4 2.172226 1_655
Li6 O0 2.184545 1_555
Li6 O7 2.323110 1_555
Li6 O14 2.386423 1_545
Li7 O17 2.048550 1_455
Li7 O9 2.060668 1_554
Li7 O5 2.172110 1_555
Li7 O1 2.183876 1_554
Li7 O6 2.322661 1_455
Li7 O15 2.386624 1_555
Li8 O18 2.019310 1_555
Li8 O12 2.072595 1_555
Li8 O10 2.133494 1_555
Li8 O6 2.198277 1_455
Li8 O2 2.280317 1_555
Li8 O5 2.402947 1_555
Li9 O19 2.019137 1_655
Li9 O13 2.073103 1_555
Li9 O11 2.133327 1_556
Li9 O7 2.198482 1_555
Li9 O3 2.279555 1_556
Li9 O4 2.403138 1_655
Mn0 O10 1.911331 1_655
Mn0 O9 1.917428 1_555
Mn0 O17 1.948109 1_556
Mn0 O5 1.977656 1_556
Mn0 O1 1.990297 1_655
Mn0 O14 2.007803 1_555
Mn1 O11 1.953633 1_555
Mn1 O8 1.974895 1_455
Mn1 O3 1.997047 1_455
Mn1 O7 2.065593 1_554
Mn1 O19 2.167579 1_554
Mn1 O12 2.212909 1_545
Mn2 O11 1.911530 1_555
Mn2 O8 1.917122 1_455
Mn2 O16 1.948223 1_555
Mn2 O4 1.977466 1_555
Mn2 O0 1.990689 1_555
Mn2 O15 2.007655 1_555
Mn3 O10 1.954249 1_655
Mn3 O9 1.974072 1_555
Mn3 O2 1.996714 1_555
Mn3 O6 2.065645 1_555
Mn3 O18 2.167667 1_555
Mn3 O13 2.213602 1_555
Fe0 O12 2.005959 1_555
Fe0 O14 2.059118 1_554
Fe0 O3 2.203192 1_565
Fe0 O7 2.216661 1_564
Fe0 O1 2.233503 1_554
Fe0 O5 2.236333 1_555
Fe1 O17 1.990553 1_555
Fe1 O15 2.030315 1_555
Fe1 O6 2.060724 1_555
Fe1 O0 2.060781 1_555
Fe1 O5 2.071187 1_555
Fe1 O2 2.111578 1_555
Fe2 O19 1.921551 1_555
Fe2 O13 1.956128 1_555
Fe2 O7 2.090795 1_555
Fe2 O2 2.103806 1_555
Fe2 O4 2.129099 1_555
Fe2 O0 2.218704 1_555
Fe3 O13 2.005657 1_455
Fe3 O15 2.059281 1_555
Fe3 O2 2.203733 1_555
Fe3 O6 2.216541 1_455
Fe3 O0 2.233120 1_455
Fe3 O4 2.236387 1_555
Fe4 O16 1.990325 1_555
Fe4 O14 2.030174 1_445
Fe4 O7 2.060560 1_555
Fe4 O1 2.061157 1_545
Fe4 O4 2.071398 1_555
Fe4 O3 2.111864 1_456
Fe5 O18 1.921679 1_555
Fe5 O12 1.955957 1_655
Fe5 O6 2.091021 1_555
Fe5 O3 2.103454 1_565
Fe5 O5 2.129149 1_555
Fe5 O1 2.217725 1_654
