# generated using pymatgen
data_Sc(Fe5Si)2
_symmetry_space_group_name_H-M   'P 1'
_cell_length_a   4.75797598
_cell_length_b   6.30505508
_cell_length_c   6.30505508
_cell_angle_alpha   98.58801179
_cell_angle_beta   112.16742847
_cell_angle_gamma   67.83257153
_symmetry_Int_Tables_number   1
_chemical_formula_structural   Sc(Fe5Si)2
_chemical_formula_sum   'Sc1 Fe10 Si2'
_cell_volume   162.21373350
_cell_formula_units_Z   1
loop_
 _symmetry_equiv_pos_site_id
 _symmetry_equiv_pos_as_xyz
  1  'x, y, z'
loop_
 _atom_site_type_symbol
 _atom_site_label
 _atom_site_symmetry_multiplicity
 _atom_site_fract_x
 _atom_site_fract_y
 _atom_site_fract_z
 _atom_site_occupancy
  Sc  Sc0  1  -0.00000000  0.00000000  0.00000000  1
  Fe  Fe0  1  0.64195448  0.35804552  0.64195448  1
  Fe  Fe1  1  0.35804552  0.64195448  0.35804552  1
  Fe  Fe2  1  -0.00000000  0.35202072  0.35202072  1
  Fe  Fe3  1  0.00000000  0.64797928  0.64797928  1
  Fe  Fe4  1  0.50000000  0.79655256  0.79655256  1
  Fe  Fe5  1  0.50000000  0.20344744  0.20344744  1
  Fe  Fe6  1  0.50000000  0.00000000  0.50000000  1
  Fe  Fe7  1  -0.00000000  0.00000000  0.50000000  1
  Fe  Fe8  1  0.50000000  0.50000000  0.00000000  1
  Fe  Fe9  1  -0.00000000  0.50000000  0.00000000  1
  Si  Si0  1  0.72979397  0.77020603  0.22979397  1
  Si  Si1  1  0.27020603  0.22979397  0.77020603  1
loop_
_geom_bond_atom_site_label_1
_geom_bond_atom_site_label_2
_geom_bond_distance
_geom_bond_site_symmetry_2
Sc0 Si1 3.047870 1_554
Sc0 Si0 3.047870 1_445
Sc0 Si1 3.047870 1_454
Sc0 Si0 3.047870 1_545
Fe0 Fe1 2.353909 1_555
Fe0 Fe9 2.538611 1_656
Fe0 Fe7 2.538611 1_655
Fe0 Fe8 2.538611 1_556
Fe0 Fe6 2.538611 1_555
Fe0 Si1 2.605817 1_655
Fe0 Si1 2.605817 1_555
Fe0 Fe5 2.707997 1_555
Fe0 Fe4 2.707997 1_555
Fe0 Fe3 2.919908 1_655
Fe0 Fe3 2.919908 1_555
Fe0 Fe2 2.919908 1_655
Fe0 Fe2 2.919908 1_555
Fe0 Sc0 2.968580 1_656
Fe1 Fe6 2.538611 1_565
Fe1 Fe9 2.538611 1_555
Fe1 Fe8 2.538611 1_555
Fe1 Fe7 2.538611 1_565
Fe1 Si0 2.605817 1_455
Fe1 Si0 2.605817 1_555
Fe1 Fe4 2.707997 1_555
Fe1 Fe5 2.707997 1_555
Fe1 Fe3 2.919908 1_655
Fe1 Fe3 2.919908 1_555
Fe1 Fe2 2.919908 1_655
Fe1 Fe2 2.919908 1_555
Fe1 Sc0 2.968580 1_565
Fe2 Fe3 2.433973 1_555
Fe2 Fe8 2.532828 1_455
Fe2 Fe9 2.532828 1_555
Fe2 Fe6 2.532828 1_555
Fe2 Fe7 2.532828 1_555
Fe2 Si1 2.549507 1_555
Fe2 Si0 2.549507 1_455
Fe2 Fe5 2.674426 1_455
Fe2 Fe5 2.674426 1_555
Fe2 Sc0 2.895030 1_555
Fe3 Fe8 2.532828 1_556
Fe3 Fe6 2.532828 1_465
Fe3 Fe7 2.532828 1_565
Fe3 Fe9 2.532828 1_556
Fe3 Si1 2.549507 1_555
Fe3 Si0 2.549507 1_455
Fe3 Fe4 2.674426 1_555
Fe3 Fe4 2.674426 1_455
Fe3 Sc0 2.895030 1_566
Fe4 Fe6 2.420296 1_565
Fe4 Fe9 2.420296 1_656
Fe4 Fe7 2.420296 1_565
Fe4 Fe8 2.420296 1_556
Fe4 Si1 2.535624 1_565
Fe4 Si0 2.535624 1_556
Fe4 Sc0 2.908443 1_666
Fe4 Sc0 2.908443 1_566
Fe5 Fe6 2.420296 1_555
Fe5 Fe7 2.420296 1_655
Fe5 Fe8 2.420296 1_555
Fe5 Fe9 2.420296 1_555
Fe5 Si1 2.535624 1_554
Fe5 Si0 2.535624 1_545
Fe5 Sc0 2.908443 1_655
Fe5 Sc0 2.908443 1_555
Fe6 Fe7 2.378988 1_555
Fe6 Fe7 2.378988 1_655
Fe6 Si0 2.381204 1_545
Fe6 Si1 2.381204 1_555
Fe6 Sc0 3.152528 1_555
Fe6 Sc0 3.152528 1_656
Fe7 Si1 2.381204 1_555
Fe7 Si0 2.381204 1_445
Fe7 Sc0 3.152528 1_555
Fe7 Sc0 3.152528 1_556
Fe8 Fe9 2.378988 1_655
Fe8 Fe9 2.378988 1_555
Fe8 Si1 2.381204 1_554
Fe8 Si0 2.381204 1_555
Fe8 Sc0 3.152528 1_565
Fe8 Sc0 3.152528 1_655
Fe9 Si0 2.381204 1_455
Fe9 Si1 2.381204 1_554
Fe9 Sc0 3.152528 1_555
Fe9 Sc0 3.152528 1_565
