# generated using pymatgen
data_Li9Mn2Co5O16
_symmetry_space_group_name_H-M   'P 1'
_cell_length_a   5.15846600
_cell_length_b   7.69494503
_cell_length_c   7.75805582
_cell_angle_alpha   94.45234424
_cell_angle_beta   108.93729894
_cell_angle_gamma   96.47844371
_symmetry_Int_Tables_number   1
_chemical_formula_structural   Li9Mn2Co5O16
_chemical_formula_sum   'Li9 Mn2 Co5 O16'
_cell_volume   287.27481947
_cell_formula_units_Z   1
loop_
 _symmetry_equiv_pos_site_id
 _symmetry_equiv_pos_as_xyz
  1  'x, y, z'
loop_
 _atom_site_type_symbol
 _atom_site_label
 _atom_site_symmetry_multiplicity
 _atom_site_fract_x
 _atom_site_fract_y
 _atom_site_fract_z
 _atom_site_occupancy
  Li  Li0  1  0.56206600  0.18483200  0.06268900  1
  Li  Li1  1  0.94033200  0.31358200  0.43901600  1
  Li  Li2  1  0.31522000  0.43785600  0.80865700  1
  Li  Li3  1  0.68992900  0.55886000  0.19106800  1
  Li  Li4  1  0.05620900  0.69149000  0.55891300  1
  Li  Li5  1  0.43775900  0.81525800  0.92956900  1
  Li  Li6  1  0.80968800  0.93747000  0.32297200  1
  Li  Li7  1  0.18367700  0.05968500  0.68059200  1
  Li  Li8  1  0.62667600  0.87452100  0.62692600  1
  Mn  Mn0  1  0.99497300  0.99869700  0.99690100  1
  Mn  Mn1  1  0.87147700  0.62697700  0.87180000  1
  Co  Co0  1  0.37900800  0.12557500  0.37792500  1
  Co  Co1  1  0.74756900  0.23948500  0.74094500  1
  Co  Co2  1  0.12357000  0.37642300  0.12884300  1
  Co  Co3  1  0.50529800  0.50761200  0.50246600  1
  Co  Co4  1  0.25849800  0.75490500  0.26051800  1
  O  O0  1  0.14093000  0.20976900  0.91701300  1
  O  O1  1  0.51238600  0.33513300  0.28424500  1
  O  O2  1  0.90179200  0.48018000  0.66981100  1
  O  O3  1  0.24828800  0.59562800  0.03464300  1
  O  O4  1  0.63626300  0.70659500  0.40131100  1
  O  O5  1  0.02523500  0.84116000  0.79966600  1
  O  O6  1  0.37510600  0.96858100  0.15200900  1
  O  O7  1  0.77488700  0.10571300  0.53593200  1
  O  O8  1  0.97834100  0.14953000  0.20554100  1
  O  O9  1  0.36032900  0.28426400  0.59050000  1
  O  O10  1  0.73747200  0.41449600  0.95829100  1
  O  O11  1  0.10423400  0.52659200  0.33919300  1
  O  O12  1  0.50142500  0.65026100  0.72702300  1
  O  O13  1  0.85381000  0.78435800  0.07767200  1
  O  O14  1  0.21989800  0.90808800  0.45305800  1
  O  O15  1  0.62765200  0.03641800  0.85428700  1
loop_
_geom_bond_atom_site_label_1
_geom_bond_atom_site_label_2
_geom_bond_distance
_geom_bond_site_symmetry_2
Li0 O15 2.046530 1_554
Li0 O1 2.098064 1_555
Li0 O6 2.104751 1_545
Li0 O8 2.132326 1_555
Li0 O0 2.137204 1_554
Li0 O10 2.221468 1_554
Li1 O7 2.036514 1_555
Li1 O11 2.076194 1_655
Li1 O9 2.150527 1_655
Li1 O1 2.176136 1_555
Li1 O2 2.195699 1_555
Li1 O8 2.200961 1_555
Li2 O12 2.048515 1_555
Li2 O9 2.079080 1_555
Li2 O2 2.129490 1_455
Li2 O10 2.145671 1_555
Li2 O3 2.196335 1_556
Li2 O0 2.226874 1_555
Li3 O4 2.026228 1_555
Li3 O11 2.125964 1_655
Li3 O1 2.142953 1_555
Li3 O10 2.143111 1_554
Li3 O13 2.210925 1_555
Li3 O3 2.268742 1_555
Li4 O2 2.094847 1_455
Li4 O14 2.123756 1_555
Li4 O4 2.135636 1_455
Li4 O11 2.141566 1_555
Li4 O5 2.177562 1_555
Li4 O12 2.315307 1_555
Li5 O12 2.075653 1_555
Li5 O5 2.078135 1_555
Li5 O15 2.084773 1_565
Li5 O13 2.130689 1_556
Li5 O6 2.146253 1_556
Li5 O3 2.198703 1_556
Li6 O14 2.074750 1_655
Li6 O7 2.085846 1_565
Li6 O4 2.118440 1_555
Li6 O8 2.162062 1_565
Li6 O13 2.248347 1_555
Li6 O6 2.254451 1_555
Li7 O14 2.110750 1_545
Li7 O7 2.127412 1_455
Li7 O9 2.133279 1_555
Li7 O0 2.176617 1_555
Li7 O5 2.184046 1_545
Li7 O15 2.284714 1_555
Li8 O12 2.068947 1_555
Li8 O15 2.077242 1_565
Li8 O4 2.110756 1_555
Li8 O5 2.114938 1_655
Li8 O7 2.118046 1_565
Li8 O14 2.151403 1_555
Mn0 O15 1.926642 1_565
Mn0 O5 1.935208 1_655
Mn0 O0 1.942216 1_665
Mn0 O8 1.948178 1_566
Mn0 O13 1.956733 1_556
Mn0 O6 1.990264 1_656
Mn1 O12 1.911634 1_555
Mn1 O2 1.918371 1_555
Mn1 O5 1.948051 1_655
Mn1 O10 1.953908 1_555
Mn1 O13 1.960850 1_556
Mn1 O3 1.997926 1_656
Co0 O1 1.964182 1_555
Co0 O14 1.991530 1_545
Co0 O9 2.009269 1_555
Co0 O7 2.042306 1_555
Co0 O6 2.043170 1_545
Co0 O8 2.103440 1_455
Co1 O7 1.879673 1_555
Co1 O15 1.986400 1_555
Co1 O9 2.043462 1_555
Co1 O10 2.092796 1_555
Co1 O0 2.095157 1_655
Co1 O2 2.116369 1_555
Co2 O11 1.961435 1_555
Co2 O3 2.011183 1_555
Co2 O8 2.029541 1_455
Co2 O0 2.036544 1_554
Co2 O1 2.052082 1_555
Co2 O10 2.069953 1_454
Co3 O4 1.927168 1_555
Co3 O12 1.992720 1_555
Co3 O9 2.050162 1_555
Co3 O11 2.074130 1_555
Co3 O2 2.080816 1_555
Co3 O1 2.081168 1_555
Co4 O14 1.906031 1_555
Co4 O4 1.993394 1_555
Co4 O6 2.023449 1_555
Co4 O3 2.041505 1_555
Co4 O11 2.063636 1_555
Co4 O13 2.157811 1_455
