# generated using pymatgen
data_Li7Mn2(CoO4)3
_symmetry_space_group_name_H-M   'P 1'
_cell_length_a   8.73910800
_cell_length_b   4.99101900
_cell_length_c   5.09268337
_cell_angle_alpha   71.41826519
_cell_angle_beta   90.00000000
_cell_angle_gamma   90.00000000
_symmetry_Int_Tables_number   1
_chemical_formula_structural   Li7Mn2(CoO4)3
_chemical_formula_sum   'Li7 Mn2 Co3 O12'
_cell_volume   210.54833065
_cell_formula_units_Z   1
loop_
 _symmetry_equiv_pos_site_id
 _symmetry_equiv_pos_as_xyz
  1  'x, y, z'
loop_
 _atom_site_type_symbol
 _atom_site_label
 _atom_site_symmetry_multiplicity
 _atom_site_fract_x
 _atom_site_fract_y
 _atom_site_fract_z
 _atom_site_occupancy
  Li  Li0  1  0.98997800  0.50000000  0.50000000  1
  Li  Li1  1  0.82958500  0.00000000  0.50000000  1
  Li  Li2  1  0.67647200  0.50000000  0.50000000  1
  Li  Li3  1  0.50625700  0.00000000  0.50000000  1
  Li  Li4  1  0.16123800  0.00000000  0.50000000  1
  Li  Li5  1  0.33405400  0.50000000  0.50000000  1
  Li  Li6  1  0.83566000  0.50000000  0.00000000  1
  Mn  Mn0  1  0.99650300  0.00000000  0.00000000  1
  Mn  Mn1  1  0.33224700  0.00000000  0.00000000  1
  Co  Co0  1  0.67335600  0.00000000  0.00000000  1
  Co  Co1  1  0.50883500  0.50000000  0.00000000  1
  Co  Co2  1  0.16475100  0.50000000  0.00000000  1
  O  O0  1  0.01250900  0.74975900  0.78007000  1
  O  O1  1  0.84266900  0.22332900  0.76627100  1
  O  O2  1  0.65648300  0.75209800  0.76777100  1
  O  O3  1  0.48875800  0.23529600  0.77002900  1
  O  O4  1  0.16757100  0.24043500  0.78302300  1
  O  O5  1  0.32754200  0.74636600  0.78191300  1
  O  O6  1  0.01250900  0.25024100  0.21993000  1
  O  O7  1  0.84266900  0.77667100  0.23372900  1
  O  O8  1  0.65648300  0.24790200  0.23222900  1
  O  O9  1  0.48875800  0.76470400  0.22997100  1
  O  O10  1  0.16757100  0.75956500  0.21697700  1
  O  O11  1  0.32754200  0.25363400  0.21808700  1
loop_
_geom_bond_atom_site_label_1
_geom_bond_atom_site_label_2
_geom_bond_distance
_geom_bond_site_symmetry_2
Li0 O1 2.051712 1_555
Li0 O7 2.051712 1_555
Li0 O0 2.181774 1_655
Li0 O6 2.181774 1_655
Li0 O10 2.230353 1_655
Li0 O4 2.230353 1_655
Li1 O1 2.014353 1_555
Li1 O7 2.014353 1_545
Li1 O8 2.145600 1_555
Li1 O2 2.145600 1_545
Li1 O6 2.239294 1_655
Li1 O0 2.239294 1_645
Li2 O2 2.136998 1_555
Li2 O8 2.136998 1_555
Li2 O1 2.159111 1_555
Li2 O7 2.159111 1_555
Li2 O9 2.273704 1_555
Li2 O3 2.273704 1_555
Li3 O8 2.009656 1_555
Li3 O2 2.009656 1_545
Li3 O3 2.079148 1_555
Li3 O9 2.079148 1_545
Li3 O11 2.223662 1_555
Li3 O5 2.223662 1_545
Li4 O6 2.036740 1_555
Li4 O0 2.036740 1_545
Li4 O11 2.148871 1_555
Li4 O5 2.148871 1_545
Li4 O4 2.150094 1_555
Li4 O10 2.150094 1_545
Li5 O9 2.075206 1_555
Li5 O3 2.075206 1_555
Li5 O10 2.163915 1_555
Li5 O4 2.163915 1_555
Li5 O5 2.168294 1_555
Li5 O11 2.168294 1_555
Li6 O0 2.075365 1_654
Li6 O6 2.075365 1_655
Li6 O7 2.091630 1_555
Li6 O1 2.091630 1_554
Li6 O2 2.117865 1_554
Li6 O8 2.117865 1_555
Mn0 O7 1.902899 1_545
Mn0 O1 1.902899 1_554
Mn0 O6 1.930145 1_655
Mn0 O0 1.930145 1_644
Mn0 O4 2.012694 1_654
Mn0 O10 2.012694 1_645
Mn1 O11 1.932292 1_555
Mn1 O5 1.932292 1_544
Mn1 O3 1.935203 1_554
Mn1 O9 1.935203 1_545
Mn1 O4 1.971557 1_554
Mn1 O10 1.971557 1_545
Co0 O8 1.970761 1_555
Co0 O2 1.970761 1_544
Co0 O7 2.000759 1_545
Co0 O1 2.000759 1_554
Co0 O3 2.115824 1_554
Co0 O9 2.115824 1_545
Co1 O2 1.923117 1_554
Co1 O8 1.923117 1_555
Co1 O9 2.033211 1_555
Co1 O3 2.033211 1_554
Co1 O5 2.094103 1_554
Co1 O11 2.094103 1_555
Co2 O0 1.920595 1_554
Co2 O6 1.920595 1_555
Co2 O10 1.952499 1_555
Co2 O4 1.952499 1_554
Co2 O5 1.974605 1_554
Co2 O11 1.974605 1_555
