# generated using pymatgen
data_Li5Mn2CoO8
_symmetry_space_group_name_H-M   'P 1'
_cell_length_a   4.96856380
_cell_length_b   5.81896498
_cell_length_c   5.88526763
_cell_angle_alpha   60.00454905
_cell_angle_beta   74.38632541
_cell_angle_gamma   73.39405354
_symmetry_Int_Tables_number   1
_chemical_formula_structural   Li5Mn2CoO8
_chemical_formula_sum   'Li5 Mn2 Co1 O8'
_cell_volume   139.57438357
_cell_formula_units_Z   1
loop_
 _symmetry_equiv_pos_site_id
 _symmetry_equiv_pos_as_xyz
  1  'x, y, z'
loop_
 _atom_site_type_symbol
 _atom_site_label
 _atom_site_symmetry_multiplicity
 _atom_site_fract_x
 _atom_site_fract_y
 _atom_site_fract_z
 _atom_site_occupancy
  Li  Li0  1  0.49695700  0.25273600  0.25000200  1
  Li  Li1  1  0.99992200  0.50516700  0.99404500  1
  Li  Li2  1  0.00358700  0.99414900  0.50223900  1
  Li  Li3  1  0.50259500  0.74586700  0.75120500  1
  Li  Li4  1  0.99959300  0.50232400  0.50039800  1
  Mn  Mn0  1  0.00062400  0.99893900  0.99811400  1
  Mn  Mn1  1  0.49912000  0.25929300  0.74120000  1
  Co  Co0  1  0.49260700  0.74473600  0.25815900  1
  O  O0  1  0.74871800  0.34822000  0.87764500  1
  O  O1  1  0.26884000  0.60417800  0.63681600  1
  O  O2  1  0.25643400  0.11399100  0.10635900  1
  O  O3  1  0.75531200  0.87589400  0.33718100  1
  O  O4  1  0.24961800  0.12172300  0.65651600  1
  O  O5  1  0.71382900  0.38181300  0.39639800  1
  O  O6  1  0.75886900  0.89957200  0.86733700  1
  O  O7  1  0.25337600  0.65139700  0.12638500  1
loop_
_geom_bond_atom_site_label_1
_geom_bond_atom_site_label_2
_geom_bond_distance
_geom_bond_site_symmetry_2
Li0 O5 2.019145 1_555
Li0 O3 2.083321 1_545
Li0 O0 2.092843 1_554
Li0 O7 2.134763 1_555
Li0 O2 2.138308 1_555
Li0 O4 2.223601 1_555
Li1 O1 2.062524 1_655
Li1 O6 2.110964 1_555
Li1 O2 2.129191 1_656
Li1 O0 2.144407 1_555
Li1 O7 2.172462 1_656
Li1 O5 2.283602 1_556
Li2 O6 2.047425 1_455
Li2 O1 2.137542 1_555
Li2 O4 2.158672 1_565
Li2 O3 2.176563 1_455
Li2 O5 2.184228 1_465
Li2 O2 2.189394 1_565
Li3 O1 2.001271 1_555
Li3 O4 2.064206 1_565
Li3 O7 2.101085 1_556
Li3 O0 2.134050 1_555
Li3 O6 2.149194 1_555
Li3 O3 2.266945 1_555
Li4 O3 2.037879 1_555
Li4 O1 2.071860 1_655
Li4 O4 2.073548 1_655
Li4 O5 2.085273 1_555
Li4 O7 2.099893 1_655
Li4 O0 2.108475 1_555
Mn0 O6 1.925909 1_455
Mn0 O3 1.934228 1_456
Mn0 O7 1.941399 1_556
Mn0 O0 1.944981 1_465
Mn0 O4 1.952664 1_565
Mn0 O2 1.954012 1_566
Mn1 O1 1.883416 1_555
Mn1 O5 1.893957 1_555
Mn1 O4 1.929947 1_555
Mn1 O0 1.941364 1_555
Mn1 O6 2.004033 1_545
Mn1 O2 2.039193 1_556
Co0 O7 1.896223 1_555
Co0 O3 1.937405 1_555
Co0 O5 1.940775 1_555
Co0 O2 1.998943 1_565
Co0 O1 2.057880 1_555
Co0 O6 2.196272 1_554
