# generated using pymatgen
data_Li2MgB12(H4O7)4
_symmetry_space_group_name_H-M   'P 1'
_cell_length_a   6.99297500
_cell_length_b   9.27152691
_cell_length_c   9.58938099
_cell_angle_alpha   107.85085041
_cell_angle_beta   88.94497872
_cell_angle_gamma   111.64567731
_symmetry_Int_Tables_number   1
_chemical_formula_structural   Li2MgB12(H4O7)4
_chemical_formula_sum   'Li2 Mg1 B12 H16 O28'
_cell_volume   546.91152853
_cell_formula_units_Z   1
loop_
 _symmetry_equiv_pos_site_id
 _symmetry_equiv_pos_as_xyz
  1  'x, y, z'
loop_
 _atom_site_type_symbol
 _atom_site_label
 _atom_site_symmetry_multiplicity
 _atom_site_fract_x
 _atom_site_fract_y
 _atom_site_fract_z
 _atom_site_occupancy
  Li  Li0  1  0.25849000  0.76509900  0.27520300  1
  Li  Li1  1  0.74151000  0.23490100  0.72479700  1
  Mg  Mg0  1  0.00000000  0.50000000  0.50000000  1
  B  B0  1  0.10758200  0.39595700  0.15799400  1
  B  B1  1  0.89241800  0.60404300  0.84200600  1
  B  B2  1  0.48269200  0.45283200  0.19554100  1
  B  B3  1  0.51730800  0.54716800  0.80445900  1
  B  B4  1  0.25289700  0.29643600  0.34738300  1
  B  B5  1  0.74710300  0.70356400  0.65261700  1
  B  B6  1  0.04784400  0.01119800  0.32623100  1
  B  B7  1  0.95215600  0.98880200  0.67376900  1
  B  B8  1  0.86263100  0.16511000  0.25180600  1
  B  B9  1  0.13736900  0.83489000  0.74819400  1
  B  B10  1  0.77857400  0.19489100  0.01458300  1
  B  B11  1  0.22142600  0.80510900  0.98541700  1
  H  H0  1  0.66079600  0.27374700  0.33966700  1
  H  H1  1  0.33920400  0.72625300  0.66033300  1
  H  H2  1  0.93108600  0.52803800  0.23046800  1
  H  H3  1  0.06891400  0.47196200  0.76953200  1
  H  H4  1  0.34329700  0.46944600  0.55784500  1
  H  H5  1  0.65670300  0.53055400  0.44215500  1
  H  H6  1  0.51063700  0.05414200  0.89038500  1
  H  H7  1  0.48936300  0.94585800  0.10961500  1
  H  H8  1  0.90024900  0.77755800  0.31388200  1
  H  H9  1  0.09975100  0.22244200  0.68611800  1
  H  H10  1  0.68878400  0.54941600  0.07115100  1
  H  H11  1  0.31121600  0.45058400  0.92884900  1
  H  H12  1  0.57438800  0.84949500  0.47975800  1
  H  H13  1  0.42561200  0.15050500  0.52024200  1
  H  H14  1  0.64438300  0.89898000  0.34000500  1
  H  H15  1  0.35561700  0.10102000  0.65999500  1
  O  O0  1  0.79093100  0.27121100  0.37318000  1
  O  O1  1  0.20906900  0.72878900  0.62682000  1
  O  O2  1  0.06590800  0.53341300  0.26745000  1
  O  O3  1  0.93409200  0.46658700  0.73255000  1
  O  O4  1  0.21798200  0.40346200  0.48651300  1
  O  O5  1  0.78201800  0.59653800  0.51348700  1
  O  O6  1  0.23712200  0.13841900  0.35780800  1
  O  O7  1  0.76287800  0.86158100  0.64219200  1
  O  O8  1  0.86848600  0.02365500  0.28572300  1
  O  O9  1  0.13151400  0.97634500  0.71427700  1
  O  O10  1  0.08450900  0.26565500  0.23211900  1
  O  O11  1  0.91549100  0.73434500  0.76788100  1
  O  O12  1  0.31915400  0.45215500  0.11852400  1
  O  O13  1  0.68084600  0.54784500  0.88147600  1
  O  O14  1  0.45791400  0.38026700  0.30455600  1
  O  O15  1  0.54208600  0.61973300  0.69544400  1
  O  O16  1  0.72799200  0.11211900  0.11630600  1
  O  O17  1  0.27200800  0.88788100  0.88369400  1
  O  O18  1  0.96190300  0.32298700  0.02802200  1
  O  O19  1  0.03809700  0.67701300  0.97197800  1
  O  O20  1  0.64087500  0.14718300  0.89240200  1
  O  O21  1  0.35912500  0.85281700  0.10759800  1
  O  O22  1  0.03981200  0.86276700  0.33705100  1
  O  O23  1  0.96018800  0.13723300  0.66294900  1
  O  O24  1  0.68364600  0.52667300  0.16612000  1
  O  O25  1  0.31635400  0.47332700  0.83388000  1
  O  O26  1  0.52631700  0.82708600  0.37710900  1
  O  O27  1  0.47368300  0.17291400  0.62289100  1
loop_
_geom_bond_atom_site_label_1
_geom_bond_atom_site_label_2
_geom_bond_distance
_geom_bond_site_symmetry_2
Li0 O26 1.929255 1_555
Li0 O21 2.019244 1_555
Li0 O22 2.041845 1_555
Li0 O2 2.050625 1_555
Li1 O27 1.929255 1_555
Li1 O20 2.019244 1_555
Li1 O23 2.041845 1_555
Li1 O3 2.050625 1_555
Mg0 O4 2.017369 1_555
Mg0 O5 2.017369 1_455
Mg0 O0 2.076552 1_455
Mg0 O1 2.076552 1_555
Mg0 O2 2.358324 1_555
Mg0 O3 2.358324 1_455
B0 O18 1.438839 1_455
B0 O12 1.461263 1_555
B0 O2 1.501140 1_555
B0 O10 1.539232 1_555
B1 O19 1.438839 1_655
B1 O13 1.461263 1_555
B1 O3 1.501140 1_555
B1 O11 1.539232 1_555
B2 O12 1.369786 1_555
B2 O14 1.383482 1_555
B2 O24 1.384608 1_555
B3 O13 1.369786 1_555
B3 O15 1.383482 1_555
B3 O25 1.384608 1_555
B4 O6 1.462435 1_555
B4 O4 1.476267 1_555
B4 O14 1.476533 1_555
B4 O10 1.515376 1_555
B5 O7 1.462435 1_555
B5 O5 1.476267 1_555
B5 O15 1.476533 1_555
B5 O11 1.515376 1_555
B6 O6 1.370749 1_555
B6 O8 1.374655 1_455
B6 O22 1.392156 1_545
B7 O7 1.370749 1_555
B7 O9 1.374655 1_655
B7 O23 1.392156 1_565
B8 O16 1.458974 1_555
B8 O8 1.459151 1_555
B8 O0 1.488020 1_555
B8 O10 1.530400 1_655
B9 O17 1.458974 1_555
B9 O9 1.459151 1_555
B9 O1 1.488020 1_555
B9 O11 1.530400 1_455
B10 O18 1.363696 1_555
B10 O20 1.380296 1_554
B10 O16 1.382592 1_555
B11 O19 1.363696 1_555
B11 O21 1.380296 1_556
B11 O17 1.382592 1_555
H0 O0 0.981415 1_555
H1 O1 0.981415 1_555
H2 O2 0.991942 1_655
H3 O3 0.991942 1_455
H4 O4 0.990010 1_555
H5 O5 0.990010 1_555
H6 O20 0.992372 1_555
H7 O21 0.992372 1_555
H8 O22 0.978547 1_655
H9 O23 0.978547 1_455
H10 O24 0.993002 1_555
H11 O25 0.993002 1_555
H12 O26 0.979987 1_555
H13 O27 0.979987 1_555
H14 O26 0.990535 1_555
H15 O27 0.990535 1_555
