# generated using pymatgen
data_CoH12C8S2(N3O)2
_symmetry_space_group_name_H-M   'P 1'
_cell_length_a   8.20704147
_cell_length_b   9.62532844
_cell_length_c   10.37950400
_cell_angle_alpha   90.00000000
_cell_angle_beta   90.00000000
_cell_angle_gamma   97.78047904
_symmetry_Int_Tables_number   1
_chemical_formula_structural   CoH12C8S2(N3O)2
_chemical_formula_sum   'Co2 H24 C16 S4 N12 O4'
_cell_volume   812.38550127
_cell_formula_units_Z   2
loop_
 _symmetry_equiv_pos_site_id
 _symmetry_equiv_pos_as_xyz
  1  'x, y, z'
loop_
 _atom_site_type_symbol
 _atom_site_label
 _atom_site_symmetry_multiplicity
 _atom_site_fract_x
 _atom_site_fract_y
 _atom_site_fract_z
 _atom_site_occupancy
  Co  Co0  1  0.50000000  0.00000000  0.00000000  1
  Co  Co1  1  0.00000000  0.50000000  0.50000000  1
  H  H0  1  0.77071200  0.05079300  0.71096600  1
  H  H1  1  0.27071200  0.55079300  0.78903400  1
  H  H2  1  0.22928800  0.94920700  0.28903400  1
  H  H3  1  0.72928800  0.44920700  0.21096600  1
  H  H4  1  0.90706900  0.93614700  0.64836000  1
  H  H5  1  0.40706900  0.43614700  0.85164000  1
  H  H6  1  0.09293100  0.06385300  0.35164000  1
  H  H7  1  0.59293100  0.56385300  0.14836000  1
  H  H8  1  0.97433200  0.05638100  0.77793500  1
  H  H9  1  0.47433200  0.55638100  0.72206500  1
  H  H10  1  0.02566800  0.94361900  0.22206500  1
  H  H11  1  0.52566800  0.44361900  0.27793500  1
  H  H12  1  0.94873700  0.71680000  0.96742500  1
  H  H13  1  0.44873700  0.21680000  0.53257500  1
  H  H14  1  0.05126300  0.28320000  0.03257500  1
  H  H15  1  0.55126300  0.78320000  0.46742500  1
  H  H16  1  0.06472900  0.88509100  0.92612300  1
  H  H17  1  0.56472900  0.38509100  0.57387700  1
  H  H18  1  0.93527100  0.11490900  0.07387700  1
  H  H19  1  0.43527100  0.61490900  0.42612300  1
  H  H20  1  0.01973100  0.74806200  0.80593700  1
  H  H21  1  0.51973100  0.24806200  0.69406300  1
  H  H22  1  0.98026900  0.25193800  0.19406300  1
  H  H23  1  0.48026900  0.75193800  0.30593700  1
  C  C0  1  0.64101300  0.05523800  0.29391800  1
  C  C1  1  0.14101300  0.55523800  0.20608200  1
  C  C2  1  0.35898700  0.94476200  0.70608200  1
  C  C3  1  0.85898700  0.44476200  0.79391800  1
  C  C4  1  0.81027600  0.19164400  0.43240500  1
  C  C5  1  0.31027600  0.69164400  0.06759500  1
  C  C6  1  0.18972400  0.80835600  0.56759500  1
  C  C7  1  0.68972400  0.30835600  0.93240500  1
  C  C8  1  0.86965400  0.98944600  0.73481100  1
  C  C9  1  0.36965400  0.48944600  0.76518900  1
  C  C10  1  0.13034600  0.01055400  0.26518900  1
  C  C11  1  0.63034600  0.51055400  0.23481100  1
  C  C12  1  0.97562400  0.79691400  0.89247800  1
  C  C13  1  0.47562400  0.29691400  0.60752200  1
  C  C14  1  0.02437600  0.20308600  0.10752200  1
  C  C15  1  0.52437600  0.70308600  0.39247800  1
  S  S0  1  0.78549500  0.85835300  0.84979100  1
  S  S1  1  0.28549500  0.35835300  0.65020900  1
  S  S2  1  0.21450500  0.14164700  0.15020900  1
  S  S3  1  0.71450500  0.64164700  0.34979100  1
  N  N0  1  0.56553200  0.02521200  0.19900600  1
  N  N1  1  0.06553200  0.52521200  0.30099400  1
  N  N2  1  0.43446800  0.97478800  0.80099400  1
  N  N3  1  0.93446800  0.47478800  0.69900600  1
  N  N4  1  0.89851300  0.29102900  0.46778000  1
  N  N5  1  0.39851300  0.79102900  0.03222000  1
  N  N6  1  0.10148700  0.70897100  0.53222000  1
  N  N7  1  0.60148700  0.20897100  0.96778000  1
  N  N8  1  0.71695800  0.07590700  0.40358700  1
  N  N9  1  0.21695800  0.57590700  0.09641300  1
  N  N10  1  0.28304200  0.92409300  0.59641300  1
  N  N11  1  0.78304200  0.42409300  0.90358700  1
  O  O0  1  0.74069500  0.94006600  0.96824300  1
  O  O1  1  0.24069500  0.44006600  0.53175700  1
  O  O2  1  0.25930500  0.05993400  0.03175700  1
  O  O3  1  0.75930500  0.55993400  0.46824300  1
loop_
_geom_bond_atom_site_label_1
_geom_bond_atom_site_label_2
_geom_bond_distance
_geom_bond_site_symmetry_2
Co0 N5 2.097084 1_545
Co0 N7 2.097084 1_554
Co0 N0 2.139963 1_555
Co0 N2 2.139963 1_544
Co0 O2 2.156890 1_555
Co0 O0 2.156890 1_544
Co1 N6 2.097084 1_555
Co1 N4 2.097084 1_455
Co1 N1 2.139963 1_555
Co1 N3 2.139963 1_455
Co1 O3 2.156890 1_455
Co1 O1 2.156890 1_555
C0 N0 1.178687 1_555
C0 N8 1.300091 1_555
C1 N1 1.178687 1_555
C1 N9 1.300091 1_555
C2 N2 1.178687 1_555
C2 N10 1.300091 1_555
C3 N3 1.178687 1_555
C3 N11 1.300091 1_555
C4 N4 1.177614 1_555
C4 N8 1.298471 1_555
C5 N5 1.177614 1_555
C5 N9 1.298471 1_555
C6 N6 1.177614 1_555
C6 N10 1.298471 1_555
C7 N7 1.177614 1_555
C7 N11 1.298471 1_555
C8 H0 1.095048 1_565
C8 H8 1.097097 1_565
C8 H4 1.097867 1_555
C8 S0 1.804868 1_555
C9 H1 1.095048 1_555
C9 H9 1.097097 1_555
C9 H5 1.097867 1_555
C9 S1 1.804868 1_555
C10 H2 1.095048 1_545
C10 H10 1.097097 1_545
C10 H6 1.097867 1_555
C10 S2 1.804868 1_555
C11 H3 1.095048 1_555
C11 H11 1.097097 1_555
C11 H7 1.097867 1_555
C11 S3 1.804868 1_555
C12 H12 1.096540 1_555
C12 H20 1.097763 1_655
C12 H16 1.099561 1_655
C12 S0 1.797419 1_555
C13 H13 1.096540 1_555
C13 H21 1.097763 1_555
C13 H17 1.099561 1_555
C13 S1 1.797419 1_555
C14 H14 1.096540 1_555
C14 H22 1.097763 1_455
C14 H18 1.099561 1_455
C14 S2 1.797419 1_555
C15 H15 1.096540 1_555
C15 H23 1.097763 1_555
C15 H19 1.099561 1_555
C15 S3 1.797419 1_555
O0 S0 1.530912 1_555
O1 S1 1.530912 1_555
O2 S2 1.530912 1_555
O3 S3 1.530912 1_555
