# generated using pymatgen
data_ScAlCu
_symmetry_space_group_name_H-M   'P 1'
_cell_length_a   5.18910329
_cell_length_b   5.18910329
_cell_length_c   8.38812800
_cell_angle_alpha   90.00000000
_cell_angle_beta   90.00000000
_cell_angle_gamma   118.95173342
_symmetry_Int_Tables_number   1
_chemical_formula_structural   ScAlCu
_chemical_formula_sum   'Sc4 Al4 Cu4'
_cell_volume   197.63849309
_cell_formula_units_Z   4
loop_
 _symmetry_equiv_pos_site_id
 _symmetry_equiv_pos_as_xyz
  1  'x, y, z'
loop_
 _atom_site_type_symbol
 _atom_site_label
 _atom_site_symmetry_multiplicity
 _atom_site_fract_x
 _atom_site_fract_y
 _atom_site_fract_z
 _atom_site_occupancy
  Sc  Sc0  1  0.33309200  0.66690800  0.19651800  1
  Sc  Sc1  1  0.66692200  0.33307800  0.31613000  1
  Sc  Sc2  1  0.66692200  0.33307800  0.68387000  1
  Sc  Sc3  1  0.33309200  0.66690800  0.80348200  1
  Al  Al0  1  0.99624800  0.00375200  0.26060300  1
  Al  Al1  1  0.99624800  0.00375200  0.73939700  1
  Al  Al2  1  0.83122200  0.65477200  0.00000000  1
  Al  Al3  1  0.34522800  0.16877800  0.00000000  1
  Cu  Cu0  1  0.83181900  0.16818100  0.00000000  1
  Cu  Cu1  1  0.17145800  0.34299400  0.50000000  1
  Cu  Cu2  1  0.65700600  0.82854200  0.50000000  1
  Cu  Cu3  1  0.17083500  0.82916500  0.50000000  1
loop_
_geom_bond_atom_site_label_1
_geom_bond_atom_site_label_2
_geom_bond_distance
_geom_bond_site_symmetry_2
Sc0 Sc1 3.148560 1_555
Sc0 Sc1 3.187420 1_455
Sc0 Sc1 3.187420 1_565
Sc0 Sc3 3.296836 1_554
Sc1 Sc2 3.084650 1_555
Sc2 Sc3 3.148560 1_555
Sc2 Sc3 3.187420 1_655
Sc2 Sc3 3.187420 1_545
Al0 Cu2 2.531485 1_545
Al0 Cu1 2.531485 1_655
Al0 Cu3 2.543330 1_645
Al0 Cu0 2.634261 1_555
Al0 Al2 2.699960 1_545
Al0 Al3 2.699960 1_655
Al0 Sc1 2.980771 1_555
Al0 Sc0 3.058970 1_645
Al0 Sc0 3.059841 1_655
Al0 Sc0 3.059841 1_545
Al0 Sc1 3.080777 1_655
Al0 Sc1 3.080777 1_545
Al1 Cu2 2.531485 1_545
Al1 Cu1 2.531485 1_655
Al1 Cu3 2.543330 1_645
Al1 Cu0 2.634261 1_556
Al1 Al2 2.699960 1_546
Al1 Al3 2.699960 1_656
Al1 Sc2 2.980771 1_555
Al1 Sc3 3.058970 1_645
Al1 Sc3 3.059841 1_655
Al1 Sc3 3.059841 1_545
Al1 Sc2 3.080777 1_545
Al1 Sc2 3.080777 1_655
Al2 Cu0 2.526472 1_555
Al2 Al3 2.561725 1_555
Al2 Cu0 2.662634 1_565
Al2 Al3 2.709379 1_665
Al2 Sc1 3.027756 1_555
Al2 Sc2 3.027756 1_554
Al2 Sc0 3.056896 1_655
Al2 Sc3 3.056896 1_654
Al2 Sc0 3.091971 1_555
Al2 Sc3 3.091971 1_554
Al3 Cu0 2.526472 1_555
Al3 Cu0 2.662634 1_455
Al3 Sc1 3.027756 1_555
Al3 Sc2 3.027756 1_554
Al3 Sc3 3.056896 1_544
Al3 Sc0 3.056896 1_545
Al3 Sc0 3.091971 1_555
Al3 Sc3 3.091971 1_554
Cu0 Sc1 3.033957 1_555
Cu0 Sc2 3.033957 1_554
Cu0 Sc3 3.108624 1_654
Cu0 Sc0 3.108624 1_655
Cu0 Sc3 3.108624 1_544
Cu0 Sc0 3.108624 1_545
Cu1 Cu3 2.524358 1_555
Cu1 Cu2 2.559374 1_555
Cu1 Cu3 2.664748 1_545
Cu1 Cu2 2.711730 1_445
Cu1 Sc0 2.940085 1_555
Cu1 Sc3 2.940085 1_555
Cu1 Sc2 3.017513 1_455
Cu1 Sc1 3.017513 1_455
Cu1 Sc2 3.019868 1_555
Cu1 Sc1 3.019868 1_555
Cu2 Cu3 2.524358 1_555
Cu2 Cu3 2.664748 1_655
Cu2 Sc0 2.940085 1_555
Cu2 Sc3 2.940085 1_555
Cu2 Sc2 3.017513 1_565
Cu2 Sc1 3.017513 1_565
Cu2 Sc2 3.019868 1_555
Cu2 Sc1 3.019868 1_555
Cu3 Sc3 2.929925 1_555
Cu3 Sc0 2.929925 1_555
Cu3 Sc2 3.053870 1_565
Cu3 Sc2 3.053870 1_455
Cu3 Sc1 3.053870 1_565
Cu3 Sc1 3.053870 1_455
