# generated using pymatgen
data_Nd3Au4
_symmetry_space_group_name_H-M   'P 1'
_cell_length_a   8.25733591
_cell_length_b   8.25727665
_cell_length_c   8.25733867
_cell_angle_alpha   114.04476793
_cell_angle_beta   114.04497803
_cell_angle_gamma   114.04464340
_symmetry_Int_Tables_number   1
_chemical_formula_structural   Nd3Au4
_chemical_formula_sum   'Nd6 Au8'
_cell_volume   340.91923093
_cell_formula_units_Z   2
loop_
 _symmetry_equiv_pos_site_id
 _symmetry_equiv_pos_as_xyz
  1  'x, y, z'
loop_
 _atom_site_type_symbol
 _atom_site_label
 _atom_site_symmetry_multiplicity
 _atom_site_fract_x
 _atom_site_fract_y
 _atom_site_fract_z
 _atom_site_occupancy
  Nd  Nd0  1  0.27315242  0.39980773  0.01706324  1
  Nd  Nd1  1  0.01706324  0.27315142  0.39980673  1
  Nd  Nd2  1  0.39980673  0.01706224  0.27315142  1
  Nd  Nd3  1  0.72684758  0.60019227  0.98293676  1
  Nd  Nd4  1  0.98293676  0.72684858  0.60019327  1
  Nd  Nd5  1  0.60019327  0.98293776  0.72684858  1
  Au  Au0  1  0.43694184  0.76898129  0.93010566  1
  Au  Au1  1  0.93010566  0.43694284  0.76898129  1
  Au  Au2  1  0.76898129  0.93010566  0.43694184  1
  Au  Au3  1  0.56305816  0.23101871  0.06989434  1
  Au  Au4  1  0.06989434  0.56305716  0.23101871  1
  Au  Au5  1  0.23101871  0.06989434  0.56305816  1
  Au  Au6  1  0.50000000  0.50000000  0.50000000  1
  Au  Au7  1  -0.00000000  -0.00000000  -0.00000000  1
loop_
_geom_bond_atom_site_label_1
_geom_bond_atom_site_label_2
_geom_bond_distance
_geom_bond_site_symmetry_2
Nd0 Nd3 3.611228 1_554
Nd1 Nd4 3.611216 1_455
Nd2 Nd5 3.611223 1_545
Au0 Nd2 2.967372 1_566
Au0 Au3 3.027629 1_566
Au0 Nd1 3.067386 1_555
Au0 Au2 3.153068 1_556
Au0 Au1 3.153069 1_455
Au0 Nd5 3.174048 1_555
Au0 Nd3 3.197906 1_555
Au0 Nd1 3.282030 1_666
Au0 Nd0 3.294342 1_556
Au0 Nd4 3.382131 1_455
Au1 Nd0 2.967376 1_656
Au1 Au4 3.027659 1_656
Au1 Nd2 3.067392 1_555
Au1 Au2 3.153054 1_545
Au1 Nd3 3.174046 1_555
Au1 Nd4 3.197897 1_555
Au1 Nd2 3.282014 1_666
Au1 Nd1 3.294367 1_655
Au1 Nd5 3.382124 1_545
Au2 Nd1 2.967369 1_665
Au2 Au5 3.027655 1_665
Au2 Nd0 3.067378 1_555
Au2 Nd4 3.174031 1_555
Au2 Nd5 3.197922 1_555
Au2 Nd0 3.282033 1_666
Au2 Nd2 3.294349 1_565
Au2 Nd3 3.382130 1_554
Au3 Nd5 2.967372 1_544
Au3 Nd4 3.067386 1_555
Au3 Au5 3.153068 1_554
Au3 Au4 3.153069 1_655
Au3 Nd2 3.174048 1_555
Au3 Nd0 3.197906 1_555
Au3 Nd4 3.282030 1_444
Au3 Nd3 3.294342 1_554
Au3 Nd1 3.382131 1_655
Au4 Nd3 2.967376 1_454
Au4 Nd5 3.067392 1_555
Au4 Au5 3.153054 1_565
Au4 Nd0 3.174046 1_555
Au4 Nd1 3.197897 1_555
Au4 Nd5 3.282014 1_444
Au4 Nd4 3.294367 1_455
Au4 Nd2 3.382124 1_565
Au5 Nd4 2.967369 1_445
Au5 Nd3 3.067378 1_555
Au5 Nd1 3.174031 1_555
Au5 Nd2 3.197922 1_555
Au5 Nd3 3.282033 1_444
Au5 Nd5 3.294349 1_545
Au5 Nd0 3.382130 1_556
Au6 Au7 3.076600 1_666
Au6 Au7 3.076600 1_555
Au6 Nd5 3.171266 1_555
Au6 Nd2 3.171266 1_555
Au6 Nd1 3.171285 1_555
Au6 Nd4 3.171285 1_555
Au6 Nd0 3.171285 1_555
Au6 Nd3 3.171285 1_555
Au7 Nd0 3.049596 1_555
Au7 Nd3 3.049596 1_444
Au7 Nd1 3.049597 1_555
Au7 Nd4 3.049597 1_444
Au7 Nd5 3.049600 1_444
Au7 Nd2 3.049600 1_555
