# generated using pymatgen
data_TbBi3
_symmetry_space_group_name_H-M   'P 1'
_cell_length_a   6.83905083
_cell_length_b   6.83905083
_cell_length_c   6.06632800
_cell_angle_alpha   90.00000000
_cell_angle_beta   90.00000000
_cell_angle_gamma   120.00000806
_symmetry_Int_Tables_number   1
_chemical_formula_structural   TbBi3
_chemical_formula_sum   'Tb2 Bi6'
_cell_volume   245.72432368
_cell_formula_units_Z   2
loop_
 _symmetry_equiv_pos_site_id
 _symmetry_equiv_pos_as_xyz
  1  'x, y, z'
loop_
 _atom_site_type_symbol
 _atom_site_label
 _atom_site_symmetry_multiplicity
 _atom_site_fract_x
 _atom_site_fract_y
 _atom_site_fract_z
 _atom_site_occupancy
  Tb  Tb0  1  0.33333300  0.66666700  0.75000000  1
  Tb  Tb1  1  0.66666700  0.33333300  0.25000000  1
  Bi  Bi0  1  0.17200700  0.34401400  0.25000000  1
  Bi  Bi1  1  0.65598600  0.82799300  0.25000000  1
  Bi  Bi2  1  0.17200700  0.82799300  0.25000000  1
  Bi  Bi3  1  0.82799300  0.65598600  0.75000000  1
  Bi  Bi4  1  0.34401400  0.17200700  0.75000000  1
  Bi  Bi5  1  0.82799300  0.17200700  0.75000000  1
loop_
_geom_bond_atom_site_label_1
_geom_bond_atom_site_label_2
_geom_bond_distance
_geom_bond_site_symmetry_2
Bi0 Bi1 3.309957 1_555
Bi0 Bi2 3.309957 1_555
Bi0 Tb1 3.420107 1_455
Bi0 Tb1 3.420114 1_555
Bi0 Bi1 3.529093 1_445
Bi0 Bi2 3.529094 1_545
Bi0 Tb0 3.584973 1_554
Bi0 Tb0 3.584973 1_555
Bi0 Bi5 3.653982 1_455
Bi0 Bi5 3.653982 1_454
Bi0 Bi4 3.653982 1_554
Bi0 Bi4 3.653982 1_555
Bi1 Bi2 3.309957 1_555
Bi1 Tb1 3.420107 1_565
Bi1 Tb1 3.420114 1_555
Bi1 Bi2 3.529094 1_655
Bi1 Tb0 3.584973 1_555
Bi1 Tb0 3.584973 1_554
Bi1 Bi5 3.653982 1_565
Bi1 Bi5 3.653982 1_564
Bi1 Bi3 3.653982 1_554
Bi1 Bi3 3.653982 1_555
Bi2 Tb1 3.420110 1_565
Bi2 Tb1 3.420110 1_455
Bi2 Tb0 3.584970 1_554
Bi2 Tb0 3.584970 1_555
Bi2 Bi3 3.653982 1_455
Bi2 Bi4 3.653982 1_565
Bi2 Bi4 3.653982 1_564
Bi2 Bi3 3.653982 1_454
Bi3 Bi4 3.309957 1_555
Bi3 Bi5 3.309957 1_555
Bi3 Tb0 3.420107 1_655
Bi3 Tb0 3.420114 1_555
Bi3 Bi4 3.529093 1_665
Bi3 Bi5 3.529094 1_565
Bi3 Tb1 3.584973 1_556
Bi3 Tb1 3.584973 1_555
Bi4 Bi5 3.309957 1_555
Bi4 Tb0 3.420107 1_545
Bi4 Tb0 3.420114 1_555
Bi4 Bi5 3.529094 1_455
Bi4 Tb1 3.584973 1_556
Bi4 Tb1 3.584973 1_555
Bi5 Tb0 3.420110 1_655
Bi5 Tb0 3.420110 1_545
Bi5 Tb1 3.584970 1_555
Bi5 Tb1 3.584970 1_556
