# generated using pymatgen
data_PtN2
_symmetry_space_group_name_H-M   'P 1'
_cell_length_a   4.86865800
_cell_length_b   4.86865800
_cell_length_c   4.86865800
_cell_angle_alpha   90.00000000
_cell_angle_beta   90.00000000
_cell_angle_gamma   90.00000000
_symmetry_Int_Tables_number   1
_chemical_formula_structural   PtN2
_chemical_formula_sum   'Pt4 N8'
_cell_volume   115.40584507
_cell_formula_units_Z   4
loop_
 _symmetry_equiv_pos_site_id
 _symmetry_equiv_pos_as_xyz
  1  'x, y, z'
loop_
 _atom_site_type_symbol
 _atom_site_label
 _atom_site_symmetry_multiplicity
 _atom_site_fract_x
 _atom_site_fract_y
 _atom_site_fract_z
 _atom_site_occupancy
  Pt  Pt0  1  0.50000000  0.50000000  0.00000000  1
  Pt  Pt1  1  0.50000000  0.00000000  0.50000000  1
  Pt  Pt2  1  0.00000000  0.50000000  0.50000000  1
  Pt  Pt3  1  0.00000000  0.00000000  0.00000000  1
  N  N0  1  0.08389700  0.91610300  0.41610300  1
  N  N1  1  0.91610300  0.41610300  0.08389700  1
  N  N2  1  0.41610300  0.08389700  0.91610300  1
  N  N3  1  0.58389700  0.58389700  0.58389700  1
  N  N4  1  0.91610300  0.08389700  0.58389700  1
  N  N5  1  0.08389700  0.58389700  0.91610300  1
  N  N6  1  0.58389700  0.91610300  0.08389700  1
  N  N7  1  0.41610300  0.41610300  0.41610300  1
loop_
_geom_bond_atom_site_label_1
_geom_bond_atom_site_label_2
_geom_bond_distance
_geom_bond_site_symmetry_2
N0 N4 1.414967 1_465
N0 Pt2 2.106611 1_555
N0 Pt1 2.106611 1_565
N0 Pt3 2.106611 1_565
N1 N5 1.414967 1_654
N1 Pt2 2.106611 1_655
N1 Pt3 2.106611 1_655
N1 Pt0 2.106611 1_555
N2 N6 1.414967 1_546
N2 Pt3 2.106611 1_556
N2 Pt1 2.106611 1_555
N2 Pt0 2.106611 1_556
N3 N7 1.414967 1_555
N3 Pt2 2.106611 1_655
N3 Pt1 2.106611 1_565
N3 Pt0 2.106611 1_556
N4 Pt2 2.106611 1_655
N4 Pt3 2.106611 1_656
N4 Pt1 2.106611 1_555
N5 Pt2 2.106611 1_555
N5 Pt3 2.106611 1_566
N5 Pt0 2.106611 1_556
N6 Pt3 2.106611 1_665
N6 Pt1 2.106611 1_565
N6 Pt0 2.106611 1_555
N7 Pt2 2.106611 1_555
N7 Pt1 2.106611 1_555
N7 Pt0 2.106611 1_555
