# generated using pymatgen
data_KV3Ge2O9
_symmetry_space_group_name_H-M   'P 1'
_cell_length_a   5.98675722
_cell_length_b   5.98641273
_cell_length_c   13.81076829
_cell_angle_alpha   90.08216018
_cell_angle_beta   89.84748930
_cell_angle_gamma   119.99942371
_symmetry_Int_Tables_number   1
_chemical_formula_structural   KV3Ge2O9
_chemical_formula_sum   'K2 V6 Ge4 O18'
_cell_volume   428.65486119
_cell_formula_units_Z   2
loop_
 _symmetry_equiv_pos_site_id
 _symmetry_equiv_pos_as_xyz
  1  'x, y, z'
loop_
 _atom_site_type_symbol
 _atom_site_label
 _atom_site_symmetry_multiplicity
 _atom_site_fract_x
 _atom_site_fract_y
 _atom_site_fract_z
 _atom_site_occupancy
  K  K0  1  0.33332000  0.66658000  0.75001000  1
  K  K1  1  0.66668500  0.33341100  0.24998500  1
  V  V0  1  0.50000200  0.49999900  0.50000200  1
  V  V1  1  0.50000100  0.00000300  0.00000100  1
  V  V2  1  0.50000200  0.50000000  0.00000100  1
  V  V3  1  0.00000000  0.50000200  0.50000100  1
  V  V4  1  0.50000200  0.00000000  0.50000000  1
  V  V5  1  0.99999400  0.49999700  0.99999900  1
  Ge  Ge0  1  0.99979900  0.99981900  0.62254300  1
  Ge  Ge1  1  0.00020000  0.00018500  0.37745800  1
  Ge  Ge2  1  0.99984800  0.00019000  0.12238000  1
  Ge  Ge3  1  0.00015200  0.99981000  0.87761800  1
  O  O0  1  0.99982800  0.99953300  0.74996200  1
  O  O1  1  0.00016700  0.00046800  0.25003500  1
  O  O2  1  0.66713900  0.33248900  0.56805600  1
  O  O3  1  0.33286400  0.66751000  0.43194600  1
  O  O4  1  0.33469400  0.66755700  0.06807400  1
  O  O5  1  0.66530200  0.33244000  0.93192400  1
  O  O6  1  0.16544100  0.83436900  0.58570400  1
  O  O7  1  0.66989100  0.83352300  0.58614300  1
  O  O8  1  0.16619300  0.33006800  0.58615600  1
  O  O9  1  0.83456400  0.16563800  0.41429900  1
  O  O10  1  0.33010900  0.16647700  0.41385900  1
  O  O11  1  0.83380700  0.66993200  0.41384600  1
  O  O12  1  0.83614300  0.16629100  0.08611700  1
  O  O13  1  0.33107700  0.16575600  0.08571800  1
  O  O14  1  0.83619300  0.66989000  0.08607900  1
  O  O15  1  0.16385200  0.83370700  0.91388100  1
  O  O16  1  0.66891900  0.83424300  0.91428000  1
  O  O17  1  0.16380800  0.33011400  0.91392100  1
loop_
_geom_bond_atom_site_label_1
_geom_bond_atom_site_label_2
_geom_bond_distance
_geom_bond_site_symmetry_2
K0 O15 2.854585 1_555
K0 O7 2.854670 1_555
K0 O8 2.857211 1_555
K0 O17 2.858019 1_555
K0 O16 2.862212 1_555
K0 O6 2.862949 1_555
K1 O12 2.854498 1_555
K1 O10 2.854762 1_555
K1 O11 2.857317 1_555
K1 O14 2.858005 1_555
K1 O13 2.862208 1_555
K1 O9 2.862986 1_555
Ge0 O0 1.759758 1_555
Ge0 O7 1.783920 1_555
Ge0 O8 1.784442 1_665
Ge0 O6 1.789211 1_655
Ge1 O1 1.759813 1_555
Ge1 O10 1.783929 1_555
Ge1 O11 1.784466 1_445
Ge1 O9 1.789204 1_455
Ge2 O1 1.763017 1_655
Ge2 O12 1.782869 1_555
Ge2 O14 1.784252 1_545
Ge2 O13 1.789324 1_655
Ge3 O0 1.763031 1_455
Ge3 O15 1.782854 1_555
Ge3 O17 1.784279 1_565
Ge3 O16 1.789343 1_455
O2 V4 1.963274 1_555
O2 V3 1.963293 1_655
O2 V0 1.975158 1_555
O3 V4 1.963266 1_565
O3 V3 1.963306 1_555
O3 V0 1.975181 1_555
O4 V2 1.963274 1_555
O4 V1 1.963387 1_565
O4 V5 1.975498 1_454
O5 V2 1.963278 1_556
O5 V1 1.963373 1_556
O5 V5 1.975461 1_555
O6 V4 2.097782 1_565
O6 V3 2.098936 1_555
O7 V0 2.098853 1_555
O7 V4 2.113412 1_565
O8 V0 2.098148 1_555
O8 V3 2.112471 1_555
O9 V4 2.097763 1_555
O9 V3 2.098916 1_655
O10 V0 2.098861 1_555
O10 V4 2.113414 1_555
O11 V0 2.098147 1_555
O11 V3 2.112454 1_655
O12 V5 2.099675 1_554
O12 V1 2.112182 1_555
O13 V1 2.098210 1_555
O13 V2 2.098753 1_555
O14 V5 2.096908 1_554
O14 V2 2.112079 1_555
O15 V5 2.099692 1_455
O15 V1 2.112243 1_566
O16 V1 2.098245 1_566
O16 V2 2.098780 1_556
O17 V5 2.096904 1_455
O17 V2 2.112107 1_556
