# generated using pymatgen
data_FeS2NO20
_symmetry_space_group_name_H-M   'P 1'
_cell_length_a   11.32798400
_cell_length_b   11.32798400
_cell_length_c   11.32798400
_cell_angle_alpha   90.00000000
_cell_angle_beta   90.00000000
_cell_angle_gamma   90.00000000
_symmetry_Int_Tables_number   1
_chemical_formula_structural   FeS2NO20
_chemical_formula_sum   'Fe4 S8 N4 O80'
_cell_volume   1453.64340003
_cell_formula_units_Z   4
loop_
 _symmetry_equiv_pos_site_id
 _symmetry_equiv_pos_as_xyz
  1  'x, y, z'
loop_
 _atom_site_type_symbol
 _atom_site_label
 _atom_site_symmetry_multiplicity
 _atom_site_fract_x
 _atom_site_fract_y
 _atom_site_fract_z
 _atom_site_occupancy
  Fe  Fe0  1  0.50000000  0.50000000  0.50000000  1
  Fe  Fe1  1  0.00000000  0.50000000  0.00000000  1
  Fe  Fe2  1  0.50000000  0.00000000  0.00000000  1
  Fe  Fe3  1  0.00000000  0.00000000  0.50000000  1
  S  S0  1  0.22903400  0.22903400  0.22903400  1
  S  S1  1  0.77096600  0.77096600  0.77096600  1
  S  S2  1  0.27096600  0.77096600  0.72903400  1
  S  S3  1  0.77096600  0.72903400  0.27096600  1
  S  S4  1  0.72903400  0.22903400  0.27096600  1
  S  S5  1  0.22903400  0.27096600  0.72903400  1
  S  S6  1  0.72903400  0.27096600  0.77096600  1
  S  S7  1  0.27096600  0.72903400  0.22903400  1
  N  N0  1  0.00000000  0.00000000  0.00000000  1
  N  N1  1  0.50000000  0.00000000  0.50000000  1
  N  N2  1  0.00000000  0.50000000  0.50000000  1
  N  N3  1  0.50000000  0.50000000  0.00000000  1
  O  O0  1  0.97843600  0.94111100  0.35303200  1
  O  O1  1  0.02156400  0.05888900  0.64696800  1
  O  O2  1  0.52156400  0.05888900  0.85303200  1
  O  O3  1  0.02156400  0.44111100  0.14696800  1
  O  O4  1  0.35303200  0.97843600  0.94111100  1
  O  O5  1  0.47843600  0.94111100  0.14696800  1
  O  O6  1  0.97843600  0.55888900  0.85303200  1
  O  O7  1  0.64696800  0.02156400  0.05888900  1
  O  O8  1  0.47843600  0.55888900  0.64696800  1
  O  O9  1  0.85303200  0.52156400  0.05888900  1
  O  O10  1  0.52156400  0.44111100  0.35303200  1
  O  O11  1  0.14696800  0.47843600  0.94111100  1
  O  O12  1  0.14696800  0.02156400  0.44111100  1
  O  O13  1  0.85303200  0.97843600  0.55888900  1
  O  O14  1  0.64696800  0.47843600  0.55888900  1
  O  O15  1  0.35303200  0.52156400  0.44111100  1
  O  O16  1  0.94111100  0.35303200  0.97843600  1
  O  O17  1  0.05888900  0.64696800  0.02156400  1
  O  O18  1  0.44111100  0.14696800  0.02156400  1
  O  O19  1  0.55888900  0.85303200  0.97843600  1
  O  O20  1  0.55888900  0.64696800  0.47843600  1
  O  O21  1  0.44111100  0.35303200  0.52156400  1
  O  O22  1  0.05888900  0.85303200  0.52156400  1
  O  O23  1  0.94111100  0.14696800  0.47843600  1
  O  O24  1  0.03711400  0.50894000  0.36707600  1
  O  O25  1  0.96288600  0.49106000  0.63292400  1
  O  O26  1  0.46288600  0.49106000  0.86707600  1
  O  O27  1  0.96288600  0.00894000  0.13292400  1
  O  O28  1  0.36707600  0.03711400  0.50894000  1
  O  O29  1  0.53711400  0.50894000  0.13292400  1
  O  O30  1  0.03711400  0.99106000  0.86707600  1
  O  O31  1  0.63292400  0.96288600  0.49106000  1
  O  O32  1  0.53711400  0.99106000  0.63292400  1
  O  O33  1  0.86707600  0.46288600  0.49106000  1
  O  O34  1  0.46288600  0.00894000  0.36707600  1
  O  O35  1  0.13292400  0.53711400  0.50894000  1
  O  O36  1  0.13292400  0.96288600  0.00894000  1
  O  O37  1  0.86707600  0.03711400  0.99106000  1
  O  O38  1  0.63292400  0.53711400  0.99106000  1
  O  O39  1  0.36707600  0.46288600  0.00894000  1
  O  O40  1  0.50894000  0.36707600  0.03711400  1
  O  O41  1  0.49106000  0.63292400  0.96288600  1
  O  O42  1  0.00894000  0.13292400  0.96288600  1
  O  O43  1  0.99106000  0.86707600  0.03711400  1
  O  O44  1  0.99106000  0.63292400  0.53711400  1
  O  O45  1  0.00894000  0.36707600  0.46288600  1
  O  O46  1  0.49106000  0.86707600  0.46288600  1
  O  O47  1  0.50894000  0.13292400  0.53711400  1
  O  O48  1  0.11364900  0.21033500  0.28879500  1
  O  O49  1  0.88635100  0.78966500  0.71120500  1
  O  O50  1  0.38635100  0.78966500  0.78879500  1
  O  O51  1  0.88635100  0.71033500  0.21120500  1
  O  O52  1  0.28879500  0.11364900  0.21033500  1
  O  O53  1  0.61364900  0.21033500  0.21120500  1
  O  O54  1  0.11364900  0.28966500  0.78879500  1
  O  O55  1  0.71120500  0.88635100  0.78966500  1
  O  O56  1  0.61364900  0.28966500  0.71120500  1
  O  O57  1  0.78879500  0.38635100  0.78966500  1
  O  O58  1  0.38635100  0.71033500  0.28879500  1
  O  O59  1  0.21120500  0.61364900  0.21033500  1
  O  O60  1  0.21120500  0.88635100  0.71033500  1
  O  O61  1  0.78879500  0.11364900  0.28966500  1
  O  O62  1  0.71120500  0.61364900  0.28966500  1
  O  O63  1  0.28879500  0.38635100  0.71033500  1
  O  O64  1  0.21033500  0.28879500  0.11364900  1
  O  O65  1  0.78966500  0.71120500  0.88635100  1
  O  O66  1  0.71033500  0.21120500  0.88635100  1
  O  O67  1  0.28966500  0.78879500  0.11364900  1
  O  O68  1  0.28966500  0.71120500  0.61364900  1
  O  O69  1  0.71033500  0.28879500  0.38635100  1
  O  O70  1  0.78966500  0.78879500  0.38635100  1
  O  O71  1  0.21033500  0.21120500  0.61364900  1
  O  O72  1  0.30478800  0.30478800  0.30478800  1
  O  O73  1  0.69521200  0.69521200  0.69521200  1
  O  O74  1  0.19521200  0.69521200  0.80478800  1
  O  O75  1  0.69521200  0.80478800  0.19521200  1
  O  O76  1  0.80478800  0.30478800  0.19521200  1
  O  O77  1  0.30478800  0.19521200  0.80478800  1
  O  O78  1  0.80478800  0.19521200  0.69521200  1
  O  O79  1  0.19521200  0.80478800  0.30478800  1
loop_
_geom_bond_atom_site_label_1
_geom_bond_atom_site_label_2
_geom_bond_distance
_geom_bond_site_symmetry_2
Fe0 O20 1.810087 1_555
Fe0 O8 1.810087 1_555
Fe0 O15 1.810087 1_555
Fe0 O21 1.810087 1_555
Fe0 O14 1.810087 1_555
Fe0 O10 1.810087 1_555
Fe1 O6 1.810087 1_454
Fe1 O16 1.810087 1_454
Fe1 O9 1.810087 1_455
Fe1 O3 1.810087 1_555
Fe1 O11 1.810087 1_554
Fe1 O17 1.810087 1_555
Fe2 O19 1.810087 1_544
Fe2 O5 1.810087 1_545
Fe2 O4 1.810087 1_544
Fe2 O18 1.810087 1_555
Fe2 O2 1.810087 1_554
Fe2 O7 1.810087 1_555
Fe3 O23 1.810087 1_455
Fe3 O0 1.810087 1_445
Fe3 O1 1.810087 1_555
Fe3 O22 1.810087 1_545
Fe3 O13 1.810087 1_445
Fe3 O12 1.810087 1_555
N0 O42 1.566630 1_554
N0 O27 1.566630 1_455
N0 O36 1.566630 1_545
N0 O43 1.566630 1_445
N0 O37 1.566630 1_454
N0 O30 1.566630 1_544
N1 O34 1.566630 1_555
N1 O47 1.566630 1_555
N1 O28 1.566630 1_555
N1 O32 1.566630 1_545
N1 O31 1.566630 1_545
N1 O46 1.566630 1_545
N2 O35 1.566630 1_555
N2 O45 1.566630 1_555
N2 O24 1.566630 1_555
N2 O25 1.566630 1_455
N2 O44 1.566630 1_455
N2 O33 1.566630 1_455
N3 O29 1.566630 1_555
N3 O40 1.566630 1_555
N3 O39 1.566630 1_555
N3 O38 1.566630 1_554
N3 O26 1.566630 1_554
N3 O41 1.566630 1_554
O48 S0 1.487150 1_555
O49 S1 1.487150 1_555
O50 S2 1.487150 1_555
O51 S3 1.487150 1_555
O52 S0 1.487150 1_555
O53 S4 1.487150 1_555
O54 S5 1.487150 1_555
O55 S1 1.487150 1_555
O56 S6 1.487150 1_555
O57 S6 1.487150 1_555
O58 S7 1.487150 1_555
O59 S7 1.487150 1_555
O60 S2 1.487150 1_555
O61 S4 1.487150 1_555
O62 S3 1.487150 1_555
O63 S5 1.487150 1_555
O64 S0 1.487150 1_555
O65 S1 1.487150 1_555
O66 S6 1.487150 1_555
O67 S7 1.487150 1_555
O68 S2 1.487150 1_555
O69 S4 1.487150 1_555
O70 S3 1.487150 1_555
O71 S5 1.487150 1_555
O72 S0 1.486342 1_555
O73 S1 1.486342 1_555
O74 S2 1.486342 1_555
O75 S3 1.486342 1_555
O76 S4 1.486342 1_555
O77 S5 1.486342 1_555
O78 S6 1.486342 1_555
O79 S7 1.486342 1_555
