# generated using pymatgen
data_Te4Mo3WSe4
_symmetry_space_group_name_H-M   'P 1'
_cell_length_a   3.43713729
_cell_length_b   3.43713729
_cell_length_c   39.05270000
_cell_angle_alpha   90.00000000
_cell_angle_beta   90.00000000
_cell_angle_gamma   119.99998626
_symmetry_Int_Tables_number   1
_chemical_formula_structural   Te4Mo3WSe4
_chemical_formula_sum   'Te4 Mo3 W1 Se4'
_cell_volume   399.55402979
_cell_formula_units_Z   1
loop_
 _symmetry_equiv_pos_site_id
 _symmetry_equiv_pos_as_xyz
  1  'x, y, z'
loop_
 _atom_site_type_symbol
 _atom_site_label
 _atom_site_symmetry_multiplicity
 _atom_site_fract_x
 _atom_site_fract_y
 _atom_site_fract_z
 _atom_site_occupancy
  Te  Te0  1  0.00000000  0.00000000  0.70505400  1
  Te  Te1  1  0.33333300  0.66666700  0.04640500  1
  Te  Te2  1  0.33333300  0.66666700  0.14146300  1
  Te  Te3  1  0.00000000  0.00000000  0.61000300  1
  Mo  Mo0  1  0.00000000  0.00000000  0.09390700  1
  Mo  Mo1  1  0.33333300  0.66666700  0.28179400  1
  Mo  Mo2  1  0.33333300  0.66666700  0.65754800  1
  W  W0  1  0.00000000  0.00000000  0.46964700  1
  Se  Se0  1  0.00000000  0.00000000  0.32375100  1
  Se  Se1  1  0.33333300  0.66666700  0.42763500  1
  Se  Se2  1  0.33333300  0.66666700  0.51166700  1
  Se  Se3  1  0.00000000  0.00000000  0.23987300  1
loop_
_geom_bond_atom_site_label_1
_geom_bond_atom_site_label_2
_geom_bond_distance
_geom_bond_site_symmetry_2
Mo0 Te1 2.716485 1_545
Mo0 Te1 2.716487 1_555
Mo0 Te1 2.716487 1_445
Mo0 Te2 2.717925 1_545
Mo0 Te2 2.717928 1_555
Mo0 Te2 2.717928 1_445
Mo1 Se3 2.572577 1_565
Mo1 Se3 2.572579 1_665
Mo1 Se3 2.572579 1_555
Mo1 Se0 2.573472 1_565
Mo1 Se0 2.573474 1_665
Mo1 Se0 2.573474 1_555
Mo2 Te0 2.716591 1_565
Mo2 Te0 2.716594 1_665
Mo2 Te0 2.716594 1_555
Mo2 Te3 2.717632 1_565
Mo2 Te3 2.717634 1_665
Mo2 Te3 2.717634 1_555
Se1 W0 2.574840 1_565
Se1 W0 2.574842 1_665
Se1 W0 2.574842 1_555
Se2 W0 2.575039 1_565
Se2 W0 2.575042 1_555
Se2 W0 2.575042 1_665
