# generated using pymatgen
data_Li7Mn5O12
_symmetry_space_group_name_H-M   'P 1'
_cell_length_a   6.92176700
_cell_length_b   8.19573847
_cell_length_c   8.76387580
_cell_angle_alpha   75.70194214
_cell_angle_beta   80.09413643
_cell_angle_gamma   107.33776836
_symmetry_Int_Tables_number   1
_chemical_formula_structural   Li7Mn5O12
_chemical_formula_sum   'Li14 Mn10 O24'
_cell_volume   443.36634866
_cell_formula_units_Z   2
loop_
 _symmetry_equiv_pos_site_id
 _symmetry_equiv_pos_as_xyz
  1  'x, y, z'
loop_
 _atom_site_type_symbol
 _atom_site_label
 _atom_site_symmetry_multiplicity
 _atom_site_fract_x
 _atom_site_fract_y
 _atom_site_fract_z
 _atom_site_occupancy
  Li  Li0  1  0.43610000  0.17188200  0.75613800  1
  Li  Li1  1  0.89718400  0.16147200  0.24385600  1
  Li  Li2  1  0.66669500  0.16669900  0.99998900  1
  Li  Li3  1  0.16667200  0.16668400  0.49995400  1
  Li  Li4  1  0.42027100  0.66456300  0.75024500  1
  Li  Li5  1  0.91303400  0.66874900  0.24974400  1
  Li  Li6  1  0.74587900  0.50424700  0.74490700  1
  Li  Li7  1  0.27235600  0.51215000  0.24875800  1
  Li  Li8  1  0.06101200  0.82122000  0.75117400  1
  Li  Li9  1  0.58739200  0.82905300  0.25508600  1
  Li  Li10  1  0.49458400  0.50320300  0.51137600  1
  Li  Li11  1  0.99498200  0.50529400  0.00274700  1
  Li  Li12  1  0.83872200  0.83016800  0.48861600  1
  Li  Li13  1  0.33833300  0.82795600  0.99721100  1
  Mn  Mn0  1  0.16650300  0.66660900  0.49996400  1
  Mn  Mn1  1  0.66674100  0.66670900  0.00000900  1
  Mn  Mn2  1  0.49528500  0.99583700  0.50217400  1
  Mn  Mn3  1  0.99182700  0.99642100  0.00443300  1
  Mn  Mn4  1  0.34155100  0.33697600  0.99567900  1
  Mn  Mn5  1  0.83819000  0.33751600  0.49782000  1
  Mn  Mn6  1  0.24145600  0.99288100  0.24914000  1
  Mn  Mn7  1  0.74354500  0.99764300  0.74784500  1
  Mn  Mn8  1  0.58984900  0.33579800  0.25204200  1
  Mn  Mn9  1  0.09176800  0.34034000  0.75090300  1
  O  O0  1  0.58192800  0.09536600  0.26019000  1
  O  O1  1  0.04554000  0.08248200  0.75928700  1
  O  O2  1  0.75141700  0.23798700  0.73979600  1
  O  O3  1  0.28779400  0.25086300  0.24078700  1
  O  O4  1  0.33149600  0.08623700  0.01124900  1
  O  O5  1  0.83701100  0.09050300  0.51290200  1
  O  O6  1  0.00188100  0.24702000  0.98881000  1
  O  O7  1  0.49632000  0.24286400  0.48708200  1
  O  O8  1  0.41650700  0.40799500  0.76312300  1
  O  O9  1  0.87934200  0.40275300  0.26262600  1
  O  O10  1  0.91683200  0.92531500  0.23702700  1
  O  O11  1  0.45399700  0.93057600  0.73737600  1
  O  O12  1  0.67736200  0.42961300  0.01333600  1
  O  O13  1  0.17364500  0.43019200  0.50946000  1
  O  O14  1  0.15960100  0.90309900  0.49051400  1
  O  O15  1  0.65604800  0.90371300  0.98666000  1
  O  O16  1  0.74644100  0.75964500  0.76214500  1
  O  O17  1  0.24509100  0.75290100  0.26304700  1
  O  O18  1  0.08815500  0.58038900  0.73698100  1
  O  O19  1  0.58697300  0.57371200  0.23783500  1
  O  O20  1  0.96535500  0.75458000  0.99791200  1
  O  O21  1  0.46684700  0.75398800  0.49831800  1
  O  O22  1  0.86634700  0.57938000  0.50164600  1
  O  O23  1  0.36814000  0.57875700  0.00208200  1
loop_
_geom_bond_atom_site_label_1
_geom_bond_atom_site_label_2
_geom_bond_distance
_geom_bond_site_symmetry_2
Li0 O8 1.994718 1_555
Li0 O2 2.055951 1_555
Li0 O11 2.062337 1_545
Li0 O4 2.092977 1_556
Li0 O7 2.216297 1_555
Li0 O1 2.574799 1_555
Li1 O10 1.994859 1_545
Li1 O0 2.055553 1_555
Li1 O9 2.062028 1_555
Li1 O6 2.092515 1_654
Li1 O5 2.216242 1_555
Li1 O3 2.575303 1_655
Li2 O2 2.136040 1_555
Li2 O0 2.136083 1_556
Li2 O12 2.166755 1_556
Li2 O15 2.167331 1_545
Li2 O4 2.192023 1_556
Li2 O6 2.192117 1_655
Li3 O3 2.136306 1_555
Li3 O1 2.137635 1_555
Li3 O5 2.153201 1_455
Li3 O7 2.153248 1_555
Li3 O13 2.168283 1_555
Li3 O14 2.168565 1_545
Li4 O8 2.069819 1_555
Li4 O23 2.074614 1_556
Li4 O21 2.081042 1_555
Li4 O11 2.094403 1_555
Li4 O16 2.188103 1_555
Li4 O18 2.227195 1_555
Li5 O10 2.070013 1_555
Li5 O20 2.074432 1_554
Li5 O22 2.080713 1_555
Li5 O9 2.094288 1_555
Li5 O19 2.187401 1_555
Li5 O17 2.226909 1_655
Li6 O22 2.013316 1_555
Li6 O16 2.134423 1_555
Li6 O8 2.141520 1_555
Li6 O2 2.205222 1_555
Li6 O12 2.205837 1_556
Li6 O18 2.246764 1_655
Li7 O23 2.029619 1_555
Li7 O19 2.062931 1_555
Li7 O17 2.068913 1_555
Li7 O13 2.137635 1_555
Li7 O3 2.193119 1_555
Li7 O9 2.568597 1_455
Li8 O20 2.030051 1_455
Li8 O16 2.062530 1_455
Li8 O18 2.069022 1_555
Li8 O14 2.137284 1_555
Li8 O1 2.193322 1_565
Li8 O11 2.568535 1_555
Li9 O21 2.013203 1_555
Li9 O19 2.134268 1_555
Li9 O10 2.142241 1_555
Li9 O0 2.205482 1_565
Li9 O15 2.205752 1_554
Li9 O17 2.246860 1_555
Li10 O8 2.063176 1_555
Li10 O21 2.097871 1_555
Li10 O13 2.125743 1_555
Li10 O7 2.199274 1_555
Li10 O19 2.248971 1_555
Li10 O22 2.441187 1_555
Li11 O12 2.077338 1_555
Li11 O20 2.104277 1_554
Li11 O9 2.135561 1_555
Li11 O6 2.164199 1_654
Li11 O18 2.181324 1_654
Li11 O23 2.469857 1_655
Li12 O10 2.061861 1_555
Li12 O22 2.097634 1_555
Li12 O14 2.125321 1_655
Li12 O5 2.199170 1_565
Li12 O16 2.248842 1_555
Li12 O21 2.441990 1_555
Li13 O15 2.078024 1_555
Li13 O23 2.103990 1_556
Li13 O11 2.135236 1_555
Li13 O4 2.164386 1_566
Li13 O17 2.181941 1_556
Li13 O20 2.468619 1_455
Mn0 O13 1.934572 1_555
Mn0 O14 1.934700 1_555
Mn0 O17 1.940090 1_555
Mn0 O18 1.940919 1_555
Mn0 O22 1.981610 1_455
Mn0 O21 1.982973 1_555
Mn1 O15 1.941287 1_554
Mn1 O12 1.941901 1_555
Mn1 O19 1.948991 1_555
Mn1 O16 1.949285 1_554
Mn1 O20 1.970892 1_554
Mn1 O23 1.970897 1_555
Mn2 O21 1.942052 1_555
Mn2 O11 1.943781 1_555
Mn2 O0 1.984663 1_565
Mn2 O7 1.993788 1_565
Mn2 O14 2.248199 1_555
Mn2 O5 2.285701 1_565
Mn3 O10 1.906079 1_555
Mn3 O20 1.951543 1_554
Mn3 O6 2.003622 1_664
Mn3 O1 2.017887 1_664
Mn3 O4 2.260904 1_665
Mn3 O15 2.265811 1_554
Mn4 O8 1.905792 1_555
Mn4 O23 1.950582 1_556
Mn4 O4 2.004854 1_556
Mn4 O3 2.017554 1_556
Mn4 O6 2.261069 1_555
Mn4 O12 2.265659 1_556
Mn5 O22 1.942488 1_555
Mn5 O9 1.943830 1_555
Mn5 O2 1.984596 1_555
Mn5 O5 1.993380 1_555
Mn5 O13 2.246634 1_655
Mn5 O7 2.286661 1_555
Mn6 O17 1.948330 1_555
Mn6 O4 1.949681 1_565
Mn6 O14 1.976760 1_555
Mn6 O3 2.022376 1_565
Mn6 O10 2.176305 1_455
Mn6 O0 2.282035 1_565
Mn7 O5 1.926527 1_565
Mn7 O16 1.929833 1_555
Mn7 O2 1.937555 1_565
Mn7 O11 1.938788 1_555
Mn7 O15 1.957045 1_555
Mn7 O1 2.025668 1_665
Mn8 O7 1.927337 1_555
Mn8 O19 1.929250 1_555
Mn8 O0 1.937990 1_555
Mn8 O9 1.938733 1_555
Mn8 O12 1.956133 1_555
Mn8 O3 2.025584 1_555
Mn9 O18 1.948820 1_555
Mn9 O6 1.949781 1_555
Mn9 O13 1.977333 1_555
Mn9 O1 2.021424 1_555
Mn9 O8 2.177315 1_555
Mn9 O2 2.281335 1_455
