# generated using pymatgen
data_Al2O3
_symmetry_space_group_name_H-M   'P 1'
_cell_length_a   10.70029716
_cell_length_b   10.26494093
_cell_length_c   10.21031850
_cell_angle_alpha   85.76822147
_cell_angle_beta   88.85515297
_cell_angle_gamma   90.20694085
_symmetry_Int_Tables_number   1
_chemical_formula_structural   Al2O3
_chemical_formula_sum   'Al40 O60'
_cell_volume   1118.18483249
_cell_formula_units_Z   20
loop_
 _symmetry_equiv_pos_site_id
 _symmetry_equiv_pos_as_xyz
  1  'x, y, z'
loop_
 _atom_site_type_symbol
 _atom_site_label
 _atom_site_symmetry_multiplicity
 _atom_site_fract_x
 _atom_site_fract_y
 _atom_site_fract_z
 _atom_site_occupancy
  Al  Al0  1  0.25256000  0.46951600  0.28766300  1
  Al  Al1  1  0.36375800  0.98173500  0.40177100  1
  Al  Al2  1  0.49258600  0.66986400  0.68910900  1
  Al  Al3  1  0.59944400  0.94904800  0.97102600  1
  Al  Al4  1  0.40321700  0.07389200  0.82920000  1
  Al  Al5  1  0.94401200  0.41055000  0.76529600  1
  Al  Al6  1  0.34724800  0.26040500  0.56440600  1
  Al  Al7  1  0.14519800  0.99706700  0.95570200  1
  Al  Al8  1  0.36595200  0.68398300  0.96157900  1
  Al  Al9  1  0.80821000  0.47213700  0.55218000  1
  Al  Al10  1  0.64202900  0.72397600  0.43605600  1
  Al  Al11  1  0.79328300  0.31321700  0.26737500  1
  Al  Al12  1  0.96267900  0.93148500  0.37685400  1
  Al  Al13  1  0.33090100  0.72048000  0.39628100  1
  Al  Al14  1  0.13636200  0.77955800  0.53186300  1
  Al  Al15  1  0.30539300  0.19525900  0.11653300  1
  Al  Al16  1  0.97640600  0.27709200  0.00453600  1
  Al  Al17  1  0.64182900  0.23999300  0.49882600  1
  Al  Al18  1  0.67411600  0.01279200  0.43151000  1
  Al  Al19  1  0.57576000  0.15037600  0.21659200  1
  Al  Al20  1  0.00787300  0.09445500  0.18258100  1
  Al  Al21  1  0.84827100  0.00040500  0.91953200  1
  Al  Al22  1  0.73664300  0.89121800  0.18475900  1
  Al  Al23  1  0.37416900  0.90614100  0.11665900  1
  Al  Al24  1  0.12667200  0.44745100  0.52210100  1
  Al  Al25  1  0.19095900  0.16277000  0.38945000  1
  Al  Al26  1  0.66538800  0.92548200  0.69021600  1
  Al  Al27  1  0.53750000  0.41073800  0.08065500  1
  Al  Al28  1  0.49956600  0.50366500  0.48988700  1
  Al  Al29  1  0.69940700  0.58540000  0.17282700  1
  Al  Al30  1  0.23916100  0.46958700  0.02688400  1
  Al  Al31  1  0.74799500  0.62512700  0.84078100  1
  Al  Al32  1  0.19334200  0.63887500  0.74861200  1
  Al  Al33  1  0.99333100  0.49311900  0.20182200  1
  Al  Al34  1  0.19361500  0.25064700  0.79889300  1
  Al  Al35  1  0.02308100  0.60698700  0.94778400  1
  Al  Al36  1  0.43881900  0.38016900  0.82072700  1
  Al  Al37  1  0.12441000  0.75799300  0.18256500  1
  Al  Al38  1  0.71109900  0.26032600  0.95320400  1
  Al  Al39  1  0.96315700  0.84036300  0.75325000  1
  O  O0  1  0.01118800  0.91035800  0.20979700  1
  O  O1  1  0.39074000  0.06154900  0.01209300  1
  O  O2  1  0.53126100  0.96529000  0.80224500  1
  O  O3  1  0.47361900  0.49550700  0.67961100  1
  O  O4  1  0.28580600  0.33687900  0.91065900  1
  O  O5  1  0.29809300  0.10456100  0.51526600  1
  O  O6  1  0.22051400  0.34315500  0.64873500  1
  O  O7  1  0.79341600  0.50558000  0.72052800  1
  O  O8  1  0.90560600  0.10865100  0.04018600  1
  O  O9  1  0.46878600  0.80915400  0.01619200  1
  O  O10  1  0.42186700  0.22586300  0.73268300  1
  O  O11  1  0.04201800  0.09071300  0.36655300  1
  O  O12  1  0.81920300  0.93420300  0.75267500  1
  O  O13  1  0.49800500  0.32573800  0.49423000  1
  O  O14  1  0.60259300  0.99680200  0.14389200  1
  O  O15  1  0.69188800  0.73572200  0.26487500  1
  O  O16  1  0.67299700  0.85879600  0.52518900  1
  O  O17  1  0.82938000  0.48783900  0.23651500  1
  O  O18  1  0.90044500  0.69887100  0.85670500  1
  O  O19  1  0.45981200  0.25568400  0.15036700  1
  O  O20  1  0.69337200  0.57778400  0.00146200  1
  O  O21  1  0.23441300  0.07594000  0.81974000  1
  O  O22  1  0.19945300  0.62877100  0.93051500  1
  O  O23  1  0.84711700  0.35276300  0.91491900  1
  O  O24  1  0.29332900  0.85107300  0.50831200  1
  O  O25  1  0.11739300  0.79134100  0.71266800  1
  O  O26  1  0.48633900  0.69354400  0.50670600  1
  O  O27  1  0.24688300  0.35196900  0.16554700  1
  O  O28  1  0.05844900  0.52828700  0.79506600  1
  O  O29  1  0.35983300  0.70447700  0.77978700  1
  O  O30  1  0.69181200  0.17879800  0.34035600  1
  O  O31  1  0.41549000  0.51406100  0.98445200  1
  O  O32  1  0.36239200  0.54489600  0.39071800  1
  O  O33  1  0.03508300  0.26327100  0.83245500  1
  O  O34  1  0.75496500  0.87273200  0.01490900  1
  O  O35  1  0.16076200  0.74859200  0.35236300  1
  O  O36  1  0.56924500  0.49164200  0.22459100  1
  O  O37  1  0.18653900  0.60528100  0.57425200  1
  O  O38  1  0.13949200  0.13715100  0.06349000  1
  O  O39  1  0.25165900  0.60637000  0.15817400  1
  O  O40  1  0.21796300  0.86696200  0.06016400  1
  O  O41  1  0.94695500  0.27039700  0.19951800  1
  O  O42  1  0.00348500  0.66005900  0.11628800  1
  O  O43  1  0.57134900  0.34498000  0.91490400  1
  O  O44  1  0.08656100  0.49170400  0.34296900  1
  O  O45  1  0.39359200  0.84772500  0.28089000  1
  O  O46  1  0.77452800  0.33768200  0.46463500  1
  O  O47  1  0.51762500  0.04369600  0.37579300  1
  O  O48  1  0.05170800  0.44077700  0.04018500  1
  O  O49  1  0.97855900  0.84407100  0.52669100  1
  O  O50  1  0.23360600  0.32656500  0.42004500  1
  O  O51  1  0.63422000  0.72962300  0.75253000  1
  O  O52  1  0.67532600  0.56072700  0.48613300  1
  O  O53  1  0.80260900  0.96099000  0.32480800  1
  O  O54  1  0.69022100  0.28089000  0.12503600  1
  O  O55  1  0.00754100  0.94262800  0.88699700  1
  O  O56  1  0.96916100  0.42234500  0.58394400  1
  O  O57  1  0.66682000  0.08900800  0.58696200  1
  O  O58  1  0.28365200  0.08555900  0.26754000  1
  O  O59  1  0.70148200  0.09864400  0.90716900  1
loop_
_geom_bond_atom_site_label_1
_geom_bond_atom_site_label_2
_geom_bond_distance
_geom_bond_site_symmetry_2
Al0 O27 1.799653 1_555
Al0 O32 1.802798 1_555
Al0 O39 1.856896 1_555
Al0 O44 1.872858 1_555
Al0 O50 1.927568 1_555
Al1 O47 1.770785 1_565
Al1 O24 1.815161 1_555
Al1 O58 1.893910 1_565
Al1 O5 1.901491 1_565
Al1 O45 1.937918 1_555
Al2 O29 1.732307 1_555
Al2 O51 1.784250 1_555
Al2 O3 1.810422 1_555
Al2 O26 1.862885 1_555
Al3 O14 1.867258 1_556
Al3 O2 1.881114 1_555
Al3 O34 1.889748 1_556
Al3 O59 1.946007 1_565
Al3 O9 2.022721 1_556
Al4 O10 1.790951 1_555
Al4 O2 1.799153 1_545
Al4 O21 1.810875 1_555
Al4 O1 1.864415 1_556
Al5 O28 1.763758 1_655
Al5 O56 1.860777 1_555
Al5 O23 1.886588 1_555
Al5 O33 1.894663 1_655
Al5 O7 1.931879 1_555
Al6 O5 1.791771 1_555
Al6 O6 1.836157 1_555
Al6 O13 1.854851 1_555
Al6 O10 1.918925 1_555
Al6 O50 2.010554 1_555
Al7 O55 1.751347 1_555
Al7 O21 1.808186 1_565
Al7 O40 1.832465 1_556
Al7 O38 1.874608 1_566
Al8 O9 1.814568 1_556
Al8 O31 1.824663 1_555
Al8 O29 1.855041 1_555
Al8 O22 1.907269 1_555
Al8 O39 2.412150 1_556
Al9 O46 1.739284 1_555
Al9 O7 1.781596 1_555
Al9 O52 1.805731 1_555
Al9 O56 1.826660 1_555
Al10 O16 1.745821 1_555
Al10 O52 1.755455 1_555
Al10 O15 1.812509 1_555
Al10 O26 1.818853 1_555
Al11 O17 1.835280 1_555
Al11 O41 1.838943 1_555
Al11 O30 1.855565 1_555
Al11 O54 1.889710 1_555
Al11 O46 2.053959 1_555
Al12 O49 1.727268 1_555
Al12 O0 1.801642 1_655
Al12 O53 1.823228 1_555
Al12 O11 1.834202 1_665
Al13 O45 1.810837 1_555
Al13 O32 1.839565 1_555
Al13 O24 1.865184 1_555
Al13 O35 1.901585 1_555
Al13 O26 2.036232 1_555
Al14 O49 1.816307 1_455
Al14 O24 1.834846 1_555
Al14 O25 1.866007 1_555
Al14 O37 1.891525 1_555
Al14 O35 1.896217 1_555
Al15 O19 1.811431 1_555
Al15 O27 1.828561 1_555
Al15 O58 1.851194 1_555
Al15 O38 1.969478 1_555
Al15 O1 2.010251 1_555
Al15 O4 2.478835 1_554
Al16 O23 1.818776 1_554
Al16 O33 1.869423 1_654
Al16 O8 1.892783 1_555
Al16 O48 1.922772 1_655
Al16 O41 2.005495 1_555
Al16 O38 2.324556 1_655
Al17 O46 1.749810 1_555
Al17 O57 1.757879 1_555
Al17 O13 1.775350 1_555
Al17 O30 1.848378 1_555
Al18 O16 1.786081 1_545
Al18 O47 1.800969 1_555
Al18 O57 1.821036 1_555
Al18 O53 1.841463 1_545
Al18 O30 1.887433 1_555
Al19 O19 1.760783 1_555
Al19 O14 1.812735 1_545
Al19 O30 1.827163 1_555
Al19 O47 1.979981 1_555
Al19 O54 1.981501 1_555
Al20 O8 1.834661 1_455
Al20 O38 1.871518 1_555
Al20 O0 1.890236 1_545
Al20 O11 1.918405 1_555
Al20 O41 1.940787 1_455
Al21 O8 1.831918 1_556
Al21 O55 1.838551 1_645
Al21 O34 1.850959 1_546
Al21 O59 1.870955 1_555
Al21 O12 1.910896 1_545
Al22 O34 1.765565 1_555
Al22 O15 1.797867 1_555
Al22 O53 1.801042 1_555
Al22 O14 1.837008 1_555
Al23 O45 1.755283 1_555
Al23 O9 1.784638 1_555
Al23 O40 1.831975 1_555
Al23 O1 1.858814 1_565
Al24 O56 1.798908 1_455
Al24 O37 1.857988 1_555
Al24 O44 1.909435 1_555
Al24 O6 1.918748 1_555
Al24 O50 2.021957 1_555
Al25 O11 1.781451 1_555
Al25 O50 1.791764 1_555
Al25 O58 1.806442 1_555
Al25 O5 1.808851 1_555
Al26 O12 1.781260 1_555
Al26 O16 1.865343 1_555
Al26 O2 1.882229 1_555
Al26 O57 1.915029 1_565
Al26 O51 2.087095 1_555
Al27 O36 1.778461 1_555
Al27 O19 1.878969 1_555
Al27 O43 1.896521 1_554
Al27 O31 1.923970 1_554
Al27 O54 2.146760 1_555
Al27 O20 2.469151 1_555
Al28 O13 1.823682 1_555
Al28 O32 1.832881 1_555
Al28 O3 1.947054 1_555
Al28 O52 1.966566 1_555
Al28 O26 1.974568 1_555
Al29 O36 1.741046 1_555
Al29 O20 1.759650 1_555
Al29 O17 1.819354 1_555
Al29 O15 1.866190 1_555
Al30 O27 1.795020 1_555
Al30 O22 1.898195 1_554
Al30 O4 1.932065 1_554
Al30 O31 1.971788 1_554
Al30 O39 2.017388 1_555
Al30 O48 2.026832 1_555
Al31 O20 1.763898 1_556
Al31 O18 1.811161 1_555
Al31 O51 1.831734 1_555
Al31 O7 1.858081 1_555
Al32 O25 1.783498 1_555
Al32 O37 1.840972 1_555
Al32 O22 1.854999 1_555
Al32 O28 1.865030 1_555
Al32 O29 1.942722 1_555
Al33 O44 1.768273 1_655
Al33 O17 1.782615 1_555
Al33 O42 1.866824 1_655
Al33 O48 1.869403 1_655
Al33 O41 2.339627 1_555
Al34 O33 1.731098 1_555
Al34 O6 1.760874 1_555
Al34 O4 1.801849 1_555
Al34 O21 1.845277 1_555
Al35 O28 1.841683 1_555
Al35 O18 1.845164 1_455
Al35 O42 1.850821 1_556
Al35 O22 1.902781 1_555
Al35 O48 1.916399 1_556
Al36 O43 1.753018 1_555
Al36 O3 1.827568 1_555
Al36 O10 1.887984 1_555
Al36 O4 1.896251 1_555
Al36 O31 2.251817 1_555
Al37 O35 1.780121 1_555
Al37 O42 1.807980 1_555
Al37 O40 1.884346 1_555
Al37 O0 2.013857 1_555
Al37 O39 2.096981 1_555
Al38 O23 1.756125 1_555
Al38 O59 1.761194 1_555
Al38 O43 1.768263 1_555
Al38 O54 1.792186 1_556
Al39 O25 1.777098 1_655
Al39 O12 1.819569 1_555
Al39 O18 1.847642 1_555
Al39 O55 1.851015 1_655
Al39 O49 2.313312 1_555
