# generated using pymatgen
data_In12Ga4Ir2O15
_symmetry_space_group_name_H-M   'P 1'
_cell_length_a   6.93513000
_cell_length_b   7.57437600
_cell_length_c   19.86768200
_cell_angle_alpha   90.00000000
_cell_angle_beta   90.00000000
_cell_angle_gamma   90.00000000
_symmetry_Int_Tables_number   1
_chemical_formula_structural   In12Ga4Ir2O15
_chemical_formula_sum   'In24 Ga8 Ir4 O30'
_cell_volume   1043.63507501
_cell_formula_units_Z   2
loop_
 _symmetry_equiv_pos_site_id
 _symmetry_equiv_pos_as_xyz
  1  'x, y, z'
loop_
 _atom_site_type_symbol
 _atom_site_label
 _atom_site_symmetry_multiplicity
 _atom_site_fract_x
 _atom_site_fract_y
 _atom_site_fract_z
 _atom_site_occupancy
  In  In0  1  0.25789600  0.50794000  0.74216400  1
  In  In1  1  0.74210400  0.50794000  0.25783600  1
  In  In2  1  0.75789600  0.00794000  0.75783600  1
  In  In3  1  0.24210400  0.00794000  0.24216400  1
  In  In4  1  0.98128100  0.77501400  0.37537100  1
  In  In5  1  0.01871900  0.77501400  0.62462900  1
  In  In6  1  0.48128100  0.27501400  0.12462900  1
  In  In7  1  0.51871900  0.27501400  0.87537100  1
  In  In8  1  0.53056900  0.73473800  0.87092800  1
  In  In9  1  0.46943100  0.73473800  0.12907200  1
  In  In10  1  0.03056900  0.23473800  0.62907200  1
  In  In11  1  0.96943100  0.23473800  0.37092800  1
  In  In12  1  0.52279400  0.25463000  0.62574300  1
  In  In13  1  0.47720600  0.25463000  0.37425700  1
  In  In14  1  0.02279400  0.75463000  0.87425700  1
  In  In15  1  0.97720600  0.75463000  0.12574300  1
  In  In16  1  0.51894100  0.75504400  0.63270500  1
  In  In17  1  0.48105900  0.75504400  0.36729500  1
  In  In18  1  0.01894100  0.25504400  0.86729500  1
  In  In19  1  0.98105900  0.25504400  0.13270500  1
  In  In20  1  0.50000000  0.51788500  0.50000000  1
  In  In21  1  0.00000000  0.01788500  0.00000000  1
  In  In22  1  0.00000000  0.49920400  0.50000000  1
  In  In23  1  0.50000000  0.99920400  0.00000000  1
  Ga  Ga0  1  0.76521100  0.50369100  0.75070900  1
  Ga  Ga1  1  0.23478900  0.50369100  0.24929100  1
  Ga  Ga2  1  0.26521100  0.00369100  0.74929100  1
  Ga  Ga3  1  0.73478900  0.00369100  0.25070900  1
  Ga  Ga4  1  0.25629400  0.51245600  0.98629800  1
  Ga  Ga5  1  0.74370600  0.51245600  0.01370200  1
  Ga  Ga6  1  0.75629400  0.01245600  0.51370200  1
  Ga  Ga7  1  0.24370600  0.01245600  0.48629800  1
  Ir  Ir0  1  0.73863900  0.50715800  0.39311200  1
  Ir  Ir1  1  0.26136100  0.50715800  0.60688800  1
  Ir  Ir2  1  0.23863900  0.00715800  0.10688800  1
  Ir  Ir3  1  0.76136100  0.00715800  0.89311200  1
  O  O0  1  0.76426500  0.71757600  0.70376000  1
  O  O1  1  0.23573500  0.71757600  0.29624000  1
  O  O2  1  0.26426500  0.21757600  0.79624000  1
  O  O3  1  0.73573500  0.21757600  0.20376000  1
  O  O4  1  0.53163800  0.50326000  0.80100300  1
  O  O5  1  0.46836200  0.50326000  0.19899700  1
  O  O6  1  0.03163800  0.00326000  0.69899700  1
  O  O7  1  0.96836200  0.00326000  0.30100300  1
  O  O8  1  0.98639600  0.50718300  0.81036700  1
  O  O9  1  0.01360400  0.50718300  0.18963300  1
  O  O10  1  0.48639600  0.00718300  0.68963300  1
  O  O11  1  0.51360400  0.00718300  0.31036700  1
  O  O12  1  0.76488000  0.28975200  0.70483600  1
  O  O13  1  0.23512000  0.28975200  0.29516400  1
  O  O14  1  0.26488000  0.78975200  0.79516400  1
  O  O15  1  0.73512000  0.78975200  0.20483600  1
  O  O16  1  0.27947900  0.71618100  0.93132400  1
  O  O17  1  0.72052100  0.71618100  0.06867600  1
  O  O18  1  0.77947900  0.21618100  0.56867600  1
  O  O19  1  0.22052100  0.21618100  0.43132400  1
  O  O20  1  0.25477100  0.30281600  0.93443700  1
  O  O21  1  0.74522900  0.30281600  0.06556300  1
  O  O22  1  0.75477100  0.80281600  0.56556300  1
  O  O23  1  0.24522900  0.80281600  0.43443700  1
  O  O24  1  0.39080800  0.50438000  0.06554300  1
  O  O25  1  0.60919200  0.50438000  0.93445700  1
  O  O26  1  0.89080800  0.00438000  0.43445700  1
  O  O27  1  0.10919200  0.00438000  0.56554300  1
  O  O28  1  0.00000000  0.56257100  0.00000000  1
  O  O29  1  0.50000000  0.06257100  0.50000000  1
loop_
_geom_bond_atom_site_label_1
_geom_bond_atom_site_label_2
_geom_bond_distance
_geom_bond_site_symmetry_2
In0 O4 2.229768 1_555
In0 O8 2.319789 1_455
In0 O14 2.380637 1_555
In0 O2 2.448111 1_555
In0 Ir1 2.687735 1_555
In1 O5 2.229768 1_555
In1 O9 2.319789 1_655
In1 O15 2.380637 1_555
In1 O3 2.448111 1_555
In1 Ir0 2.687735 1_555
In2 O6 2.229768 1_655
In2 O10 2.319789 1_555
In2 O12 2.380637 1_555
In2 O0 2.448111 1_545
In2 Ir3 2.687735 1_555
In3 O7 2.229768 1_455
In3 O11 2.319789 1_555
In3 O13 2.380637 1_555
In3 O1 2.448111 1_545
In3 Ir2 2.687735 1_555
In4 O23 2.184545 1_655
In4 O26 2.188597 1_565
In4 O7 2.275942 1_565
In4 O1 2.403122 1_655
In4 Ir0 2.659342 1_555
In5 O22 2.184545 1_455
In5 O27 2.188597 1_565
In5 O6 2.275942 1_565
In5 O0 2.403122 1_455
In5 Ir1 2.659342 1_555
In6 O21 2.184545 1_555
In6 O24 2.188597 1_555
In6 O5 2.275942 1_555
In6 O3 2.403122 1_555
In6 Ir2 2.659342 1_555
In7 O20 2.184545 1_555
In7 O25 2.188597 1_555
In7 O4 2.275942 1_555
In7 O2 2.403122 1_555
In7 Ir3 2.659342 1_555
In8 O16 2.119400 1_555
In8 O25 2.221437 1_555
In8 O4 2.236991 1_555
In8 O14 2.415483 1_555
In8 Ir3 2.648350 1_565
In9 O17 2.119400 1_555
In9 O24 2.221437 1_555
In9 O5 2.236991 1_555
In9 O15 2.415483 1_555
In9 Ir2 2.648350 1_565
In10 O18 2.119400 1_455
In10 O27 2.221437 1_555
In10 O6 2.236991 1_555
In10 O12 2.415483 1_455
In10 Ir1 2.648350 1_555
In11 O19 2.119400 1_655
In11 O26 2.221437 1_555
In11 O7 2.236991 1_555
In11 O13 2.415483 1_655
In11 Ir0 2.648350 1_555
In12 O18 2.130541 1_555
In12 O10 2.277673 1_555
In12 O12 2.314897 1_555
In12 Ir1 2.661981 1_555
In13 O19 2.130541 1_555
In13 O11 2.277673 1_555
In13 O13 2.314897 1_555
In13 Ir0 2.661981 1_555
In14 O16 2.130541 1_555
In14 O8 2.277673 1_455
In14 O14 2.314897 1_555
In14 Ir3 2.661981 1_465
In15 O17 2.130541 1_555
In15 O9 2.277673 1_655
In15 O15 2.314897 1_555
In15 Ir2 2.661981 1_665
In16 O22 2.141324 1_555
In16 O0 2.228909 1_555
In16 O10 2.231028 1_565
In16 Ir1 2.641866 1_555
In17 O23 2.141324 1_555
In17 O1 2.228909 1_555
In17 O11 2.231028 1_565
In17 Ir0 2.641866 1_555
In18 O20 2.141324 1_555
In18 O2 2.228909 1_555
In18 O8 2.231028 1_455
In18 Ir3 2.641866 1_455
In19 O21 2.141324 1_555
In19 O3 2.228909 1_555
In19 O9 2.231028 1_655
In19 Ir2 2.641866 1_655
In20 Ir0 2.693576 1_555
In20 Ir1 2.693576 1_555
In21 Ir3 2.693576 1_454
In21 Ir2 2.693576 1_555
In22 Ir0 2.792633 1_455
In22 Ir1 2.792633 1_555
In23 Ir3 2.792633 1_564
In23 Ir2 2.792633 1_565
Ga0 O12 1.859169 1_555
Ga0 O0 1.869397 1_555
Ga0 O4 1.903262 1_555
Ga0 O8 1.938698 1_555
Ga1 O13 1.859169 1_555
Ga1 O1 1.869397 1_555
Ga1 O5 1.903262 1_555
Ga1 O9 1.938698 1_555
Ga2 O14 1.859169 1_545
Ga2 O2 1.869397 1_555
Ga2 O6 1.903262 1_555
Ga2 O10 1.938698 1_555
Ga3 O15 1.859169 1_545
Ga3 O3 1.869397 1_555
Ga3 O7 1.903262 1_555
Ga3 O11 1.938698 1_555
Ga4 O24 1.831058 1_556
Ga4 O28 1.837787 1_556
Ga4 O20 1.892921 1_555
Ga4 O16 1.897339 1_555
Ga5 O25 1.831058 1_554
Ga5 O28 1.837787 1_655
Ga5 O21 1.892921 1_555
Ga5 O17 1.897339 1_555
Ga6 O26 1.831058 1_555
Ga6 O29 1.837787 1_555
Ga6 O22 1.892921 1_545
Ga6 O18 1.897339 1_555
Ga7 O27 1.831058 1_555
Ga7 O29 1.837787 1_555
Ga7 O23 1.892921 1_545
Ga7 O19 1.897339 1_555
