# generated using pymatgen
data_MgTi4O9
_symmetry_space_group_name_H-M   'P 1'
_cell_length_a   8.45042600
_cell_length_b   8.45042600
_cell_length_c   4.97817400
_cell_angle_alpha   90.00000000
_cell_angle_beta   90.00000000
_cell_angle_gamma   90.00000000
_symmetry_Int_Tables_number   1
_chemical_formula_structural   MgTi4O9
_chemical_formula_sum   'Mg2 Ti8 O18'
_cell_volume   355.48990980
_cell_formula_units_Z   2
loop_
 _symmetry_equiv_pos_site_id
 _symmetry_equiv_pos_as_xyz
  1  'x, y, z'
loop_
 _atom_site_type_symbol
 _atom_site_label
 _atom_site_symmetry_multiplicity
 _atom_site_fract_x
 _atom_site_fract_y
 _atom_site_fract_z
 _atom_site_occupancy
  Mg  Mg0  1  0.00000000  0.50000000  0.10277300  1
  Mg  Mg1  1  0.50000000  0.00000000  0.89722700  1
  Ti  Ti0  1  0.08925200  0.78058400  0.62621800  1
  Ti  Ti1  1  0.21941600  0.08925200  0.37378200  1
  Ti  Ti2  1  0.71941600  0.58925200  0.62621800  1
  Ti  Ti3  1  0.58925200  0.28058400  0.37378200  1
  Ti  Ti4  1  0.91074800  0.21941600  0.62621800  1
  Ti  Ti5  1  0.28058400  0.41074800  0.62621800  1
  Ti  Ti6  1  0.41074800  0.71941600  0.37378200  1
  Ti  Ti7  1  0.78058400  0.91074800  0.37378200  1
  O  O0  1  0.00000000  0.00000000  0.50000000  1
  O  O1  1  0.50000000  0.50000000  0.50000000  1
  O  O2  1  0.72622600  0.93557600  0.04960900  1
  O  O3  1  0.43557600  0.77377400  0.04960900  1
  O  O4  1  0.56442400  0.22622600  0.04960900  1
  O  O5  1  0.27377400  0.06442400  0.04960900  1
  O  O6  1  0.77377400  0.56442400  0.95039100  1
  O  O7  1  0.06442400  0.72622600  0.95039100  1
  O  O8  1  0.93557600  0.27377400  0.95039100  1
  O  O9  1  0.22622600  0.43557600  0.95039100  1
  O  O10  1  0.10638400  0.29412000  0.46135600  1
  O  O11  1  0.79412000  0.39361600  0.46135600  1
  O  O12  1  0.20588000  0.60638400  0.46135600  1
  O  O13  1  0.89361600  0.70588000  0.46135600  1
  O  O14  1  0.60638400  0.79412000  0.53864400  1
  O  O15  1  0.70588000  0.10638400  0.53864400  1
  O  O16  1  0.29412000  0.89361600  0.53864400  1
  O  O17  1  0.39361600  0.20588000  0.53864400  1
loop_
_geom_bond_atom_site_label_1
_geom_bond_atom_site_label_2
_geom_bond_distance
_geom_bond_site_symmetry_2
Mg0 O8 2.127546 1_454
Mg0 O9 2.127546 1_554
Mg0 O7 2.127546 1_554
Mg0 O6 2.127546 1_454
Mg0 O11 2.649818 1_455
Mg0 O13 2.649818 1_455
Mg0 O10 2.649818 1_555
Mg0 O12 2.649818 1_555
Mg1 O4 2.127546 1_556
Mg1 O5 2.127546 1_556
Mg1 O2 2.127546 1_546
Mg1 O3 2.127546 1_546
Mg1 O15 2.649818 1_555
Mg1 O14 2.649818 1_545
Mg1 O17 2.649818 1_555
Mg1 O16 2.649818 1_545
O0 Ti1 2.097988 1_555
O0 Ti4 2.097988 1_455
O0 Ti0 2.097988 1_545
O0 Ti7 2.097988 1_445
O1 Ti5 2.097988 1_555
O1 Ti3 2.097988 1_555
O1 Ti6 2.097988 1_555
O1 Ti2 2.097988 1_555
O2 Ti7 1.690957 1_555
O3 Ti6 1.690957 1_555
O4 Ti3 1.690957 1_555
O5 Ti1 1.690957 1_555
O6 Ti2 1.690957 1_555
O7 Ti0 1.690957 1_555
O8 Ti4 1.690957 1_555
O9 Ti5 1.690957 1_555
O10 Ti4 1.950687 1_455
O10 Ti5 1.952399 1_555
O10 Ti1 2.024731 1_555
O11 Ti2 1.950687 1_555
O11 Ti4 1.952399 1_555
O11 Ti3 2.024731 1_555
O12 Ti5 1.950687 1_555
O12 Ti0 1.952399 1_555
O12 Ti6 2.024731 1_555
O13 Ti0 1.950687 1_655
O13 Ti2 1.952399 1_555
O13 Ti7 2.024731 1_555
O14 Ti6 1.950687 1_555
O14 Ti7 1.952399 1_555
O14 Ti2 2.024731 1_555
O15 Ti7 1.950687 1_545
O15 Ti3 1.952399 1_555
O15 Ti4 2.024731 1_555
O16 Ti1 1.950687 1_565
O16 Ti6 1.952399 1_555
O16 Ti0 2.024731 1_555
O17 Ti3 1.950687 1_555
O17 Ti1 1.952399 1_555
O17 Ti5 2.024731 1_555
