# generated using pymatgen
data_Pr2In8Co
_symmetry_space_group_name_H-M   'P 1'
_cell_length_a   4.70149900
_cell_length_b   4.70149900
_cell_length_c   12.38498900
_cell_angle_alpha   90.00000000
_cell_angle_beta   90.00000000
_cell_angle_gamma   90.00000000
_symmetry_Int_Tables_number   1
_chemical_formula_structural   Pr2In8Co
_chemical_formula_sum   'Pr2 In8 Co1'
_cell_volume   273.75894677
_cell_formula_units_Z   1
loop_
 _symmetry_equiv_pos_site_id
 _symmetry_equiv_pos_as_xyz
  1  'x, y, z'
loop_
 _atom_site_type_symbol
 _atom_site_label
 _atom_site_symmetry_multiplicity
 _atom_site_fract_x
 _atom_site_fract_y
 _atom_site_fract_z
 _atom_site_occupancy
  Pr  Pr0  1  0.00000000  0.00000000  0.69537700  1
  Pr  Pr1  1  0.00000000  0.00000000  0.30462300  1
  In  In0  1  0.50000000  0.00000000  0.88356400  1
  In  In1  1  0.00000000  0.50000000  0.88356400  1
  In  In2  1  0.50000000  0.00000000  0.11643600  1
  In  In3  1  0.00000000  0.50000000  0.11643600  1
  In  In4  1  0.50000000  0.00000000  0.50000000  1
  In  In5  1  0.00000000  0.50000000  0.50000000  1
  In  In6  1  0.50000000  0.50000000  0.69750000  1
  In  In7  1  0.50000000  0.50000000  0.30250000  1
  Co  Co0  1  0.00000000  0.00000000  0.00000000  1
loop_
_geom_bond_atom_site_label_1
_geom_bond_atom_site_label_2
_geom_bond_distance
_geom_bond_site_symmetry_2
In0 In2 2.884117 1_556
In0 In6 3.291851 1_555
In0 In6 3.291851 1_545
In0 Pr0 3.310311 1_555
In0 Pr0 3.310311 1_655
In0 In1 3.324462 1_555
In0 In1 3.324462 1_645
In0 In1 3.324462 1_545
In0 In1 3.324462 1_655
In1 In3 2.884117 1_556
In1 In6 3.291851 1_555
In1 In6 3.291851 1_455
In1 Pr0 3.310311 1_565
In1 Pr0 3.310311 1_555
In2 In7 3.291851 1_545
In2 In7 3.291851 1_555
In2 Pr1 3.310311 1_655
In2 Pr1 3.310311 1_555
In2 In3 3.324462 1_645
In2 In3 3.324462 1_555
In2 In3 3.324462 1_655
In2 In3 3.324462 1_545
In3 In7 3.291851 1_455
In3 In7 3.291851 1_555
In3 Pr1 3.310311 1_565
In3 Pr1 3.310311 1_555
In4 In5 3.324462 1_555
In4 In5 3.324462 1_545
In4 In5 3.324462 1_645
In4 In5 3.324462 1_655
In4 Pr1 3.373600 1_655
In4 Pr1 3.373600 1_555
In4 Pr0 3.373600 1_555
In4 Pr0 3.373600 1_655
In4 In6 3.392508 1_545
In4 In7 3.392508 1_545
In4 In7 3.392508 1_555
In4 In6 3.392508 1_555
In5 Pr1 3.373600 1_565
In5 Pr1 3.373600 1_555
In5 Pr0 3.373600 1_565
In5 Pr0 3.373600 1_555
In5 In7 3.392508 1_455
In5 In6 3.392508 1_455
In5 In7 3.392508 1_555
In5 In6 3.392508 1_555
In6 Pr0 3.324566 1_555
In6 Pr0 3.324566 1_565
In6 Pr0 3.324566 1_655
In6 Pr0 3.324566 1_665
In7 Pr1 3.324566 1_565
In7 Pr1 3.324566 1_555
In7 Pr1 3.324566 1_665
In7 Pr1 3.324566 1_655
Co0 In1 2.757817 1_554
Co0 In0 2.757817 1_454
Co0 In0 2.757817 1_554
Co0 In1 2.757817 1_544
Co0 In3 2.757817 1_555
Co0 In2 2.757817 1_455
Co0 In2 2.757817 1_555
Co0 In3 2.757817 1_545
