# generated using pymatgen
data_LiDy2(OF)2
_symmetry_space_group_name_H-M   'P 1'
_cell_length_a   3.94439365
_cell_length_b   3.94439365
_cell_length_c   6.73766845
_cell_angle_alpha   72.97960531
_cell_angle_beta   72.97960531
_cell_angle_gamma   60.00000591
_symmetry_Int_Tables_number   1
_chemical_formula_structural   LiDy2(OF)2
_chemical_formula_sum   'Li1 Dy2 O2 F2'
_cell_volume   85.43950157
_cell_formula_units_Z   1
loop_
 _symmetry_equiv_pos_site_id
 _symmetry_equiv_pos_as_xyz
  1  'x, y, z'
loop_
 _atom_site_type_symbol
 _atom_site_label
 _atom_site_symmetry_multiplicity
 _atom_site_fract_x
 _atom_site_fract_y
 _atom_site_fract_z
 _atom_site_occupancy
  Li  Li0  1  0.50000000  0.50000000  0.50000000  1
  Dy  Dy0  1  0.73169300  0.73169300  0.80492300  1
  Dy  Dy1  1  0.26830700  0.26830700  0.19507700  1
  O  O0  1  0.60722000  0.60722000  0.17834000  1
  O  O1  1  0.39278000  0.39278000  0.82166000  1
  F  F0  1  0.86174600  0.86174600  0.41476300  1
  F  F1  1  0.13825400  0.13825400  0.58523700  1
loop_
_geom_bond_atom_site_label_1
_geom_bond_atom_site_label_2
_geom_bond_distance
_geom_bond_site_symmetry_2
Li0 O1 2.039692 1_555
Li0 O0 2.039692 1_555
Dy0 O1 2.279766 1_565
Dy0 O1 2.279766 1_655
Dy0 O1 2.279773 1_555
Dy0 O0 2.367891 1_556
Dy0 F0 2.474060 1_555
Dy0 F1 2.669582 1_665
Dy0 F1 2.669591 1_655
Dy0 F1 2.669591 1_565
Dy1 O0 2.279766 1_545
Dy1 O0 2.279766 1_455
Dy1 O0 2.279773 1_555
Dy1 O1 2.367891 1_554
Dy1 F1 2.474060 1_555
Dy1 F0 2.669582 1_445
Dy1 F0 2.669591 1_545
Dy1 F0 2.669591 1_455
F0 Li0 2.340559 1_565
F0 Li0 2.340559 1_655
F0 Li0 2.340562 1_555
F1 Li0 2.340559 1_545
F1 Li0 2.340559 1_455
F1 Li0 2.340562 1_555
