# generated using pymatgen
data_MgCr2CuO7
_symmetry_space_group_name_H-M   'P 1'
_cell_length_a   8.41167200
_cell_length_b   9.90275000
_cell_length_c   10.26211637
_cell_angle_alpha   85.60609022
_cell_angle_beta   90.00000000
_cell_angle_gamma   90.00000000
_symmetry_Int_Tables_number   1
_chemical_formula_structural   MgCr2CuO7
_chemical_formula_sum   'Mg6 Cr12 Cu6 O42'
_cell_volume   852.30839544
_cell_formula_units_Z   6
loop_
 _symmetry_equiv_pos_site_id
 _symmetry_equiv_pos_as_xyz
  1  'x, y, z'
loop_
 _atom_site_type_symbol
 _atom_site_label
 _atom_site_symmetry_multiplicity
 _atom_site_fract_x
 _atom_site_fract_y
 _atom_site_fract_z
 _atom_site_occupancy
  Mg  Mg0  1  0.43291100  0.84844400  0.57244100  1
  Mg  Mg1  1  0.92515500  0.50000000  0.75000000  1
  Mg  Mg2  1  0.43291100  0.15155600  0.92755900  1
  Mg  Mg3  1  0.07484500  0.50000000  0.25000000  1
  Mg  Mg4  1  0.56708900  0.15155600  0.42755900  1
  Mg  Mg5  1  0.56708900  0.84844400  0.07244100  1
  Cr  Cr0  1  0.22336800  0.83253200  0.28703200  1
  Cr  Cr1  1  0.74083600  0.83475100  0.37734800  1
  Cr  Cr2  1  0.25916400  0.83475100  0.87734800  1
  Cr  Cr3  1  0.77663200  0.83253200  0.78703200  1
  Cr  Cr4  1  0.27395000  0.51454900  0.95808100  1
  Cr  Cr5  1  0.74083600  0.16524900  0.12265200  1
  Cr  Cr6  1  0.72605000  0.51454900  0.45808100  1
  Cr  Cr7  1  0.25916400  0.16524900  0.62265200  1
  Cr  Cr8  1  0.27395000  0.48545100  0.54191900  1
  Cr  Cr9  1  0.72605000  0.48545100  0.04191900  1
  Cr  Cr10  1  0.77663200  0.16746800  0.71296800  1
  Cr  Cr11  1  0.22336800  0.16746800  0.21296800  1
  Cu  Cu0  1  0.93611400  0.19484500  0.40984900  1
  Cu  Cu1  1  0.06388600  0.80515500  0.59015100  1
  Cu  Cu2  1  0.44507200  0.50000000  0.25000000  1
  Cu  Cu3  1  0.93611400  0.80515500  0.09015100  1
  Cu  Cu4  1  0.55492800  0.50000000  0.75000000  1
  Cu  Cu5  1  0.06388600  0.19484500  0.90984900  1
  O  O0  1  0.76141900  0.80905700  0.95565900  1
  O  O1  1  0.75747300  0.16564400  0.29013200  1
  O  O2  1  0.85142500  0.00000000  0.75000000  1
  O  O3  1  0.90103800  0.49522200  0.11425100  1
  O  O4  1  0.40142500  0.05899900  0.56723900  1
  O  O5  1  0.91851100  0.72834100  0.72147200  1
  O  O6  1  0.35610400  0.68117700  0.93000500  1
  O  O7  1  0.09896200  0.49522200  0.61425100  1
  O  O8  1  0.73150600  0.51602100  0.87439800  1
  O  O9  1  0.40142500  0.94100100  0.93276100  1
  O  O10  1  0.73150600  0.48397900  0.62560200  1
  O  O11  1  0.41068500  0.41931000  0.88023200  1
  O  O12  1  0.91467600  0.14340700  0.04546800  1
  O  O13  1  0.08148900  0.72834100  0.22147200  1
  O  O14  1  0.64389600  0.31882300  0.06999500  1
  O  O15  1  0.35610400  0.31882300  0.56999500  1
  O  O16  1  0.91851100  0.27165900  0.77852800  1
  O  O17  1  0.59857500  0.94100100  0.43276100  1
  O  O18  1  0.23858100  0.80905700  0.45565900  1
  O  O19  1  0.58931500  0.58069000  0.11976800  1
  O  O20  1  0.39376700  0.18657800  0.29075500  1
  O  O21  1  0.26849400  0.48397900  0.12560200  1
  O  O22  1  0.08532400  0.14340700  0.54546800  1
  O  O23  1  0.26849400  0.51602100  0.37439800  1
  O  O24  1  0.90103800  0.50477800  0.38574900  1
  O  O25  1  0.58931500  0.41931000  0.38023200  1
  O  O26  1  0.09896200  0.50477800  0.88574900  1
  O  O27  1  0.60623300  0.18657800  0.79075500  1
  O  O28  1  0.60623300  0.81342200  0.70924500  1
  O  O29  1  0.08532400  0.85659300  0.95453200  1
  O  O30  1  0.08148900  0.27165900  0.27852800  1
  O  O31  1  0.76141900  0.19094300  0.54434100  1
  O  O32  1  0.14857500  0.00000000  0.25000000  1
  O  O33  1  0.24252700  0.16564400  0.79013200  1
  O  O34  1  0.59857500  0.05899900  0.06723900  1
  O  O35  1  0.91467600  0.85659300  0.45453200  1
  O  O36  1  0.23858100  0.19094300  0.04434100  1
  O  O37  1  0.75747300  0.83435600  0.20986800  1
  O  O38  1  0.41068500  0.58069000  0.61976800  1
  O  O39  1  0.64389600  0.68117700  0.43000500  1
  O  O40  1  0.24252700  0.83435600  0.70986800  1
  O  O41  1  0.39376700  0.81342200  0.20924500  1
loop_
_geom_bond_atom_site_label_1
_geom_bond_atom_site_label_2
_geom_bond_distance
_geom_bond_site_symmetry_2
Mg0 O28 2.035230 1_555
Mg0 O18 2.081355 1_555
Mg0 O4 2.098445 1_565
Mg0 O40 2.131402 1_555
Mg0 O17 2.152982 1_555
Mg1 O26 2.022487 1_655
Mg1 O7 2.022487 1_655
Mg1 O10 2.083082 1_555
Mg1 O8 2.083082 1_555
Mg1 O16 2.258415 1_555
Mg1 O5 2.258415 1_555
Mg2 O27 2.035230 1_555
Mg2 O36 2.081355 1_556
Mg2 O9 2.098445 1_545
Mg2 O33 2.131402 1_555
Mg2 O34 2.152982 1_556
Mg3 O24 2.022487 1_455
Mg3 O3 2.022487 1_455
Mg3 O23 2.083082 1_555
Mg3 O21 2.083082 1_555
Mg3 O30 2.258415 1_555
Mg3 O13 2.258415 1_555
Mg4 O20 2.035230 1_555
Mg4 O31 2.081355 1_555
Mg4 O17 2.098445 1_545
Mg4 O1 2.131402 1_555
Mg4 O4 2.152982 1_555
Mg5 O41 2.035230 1_555
Mg5 O0 2.081355 1_554
Mg5 O34 2.098445 1_565
Mg5 O37 2.131402 1_555
Mg5 O9 2.152982 1_554
Cr0 O41 1.658506 1_555
Cr0 O18 1.733004 1_555
Cr0 O13 1.745814 1_555
Cr0 O32 1.787157 1_565
Cr1 O35 1.684841 1_555
Cr1 O17 1.718744 1_555
Cr1 O37 1.724690 1_555
Cr1 O39 1.773091 1_555
Cr2 O29 1.684841 1_555
Cr2 O9 1.718744 1_555
Cr2 O40 1.724690 1_555
Cr2 O6 1.773091 1_555
Cr3 O28 1.658506 1_555
Cr3 O0 1.733004 1_555
Cr3 O5 1.745814 1_555
Cr3 O2 1.787157 1_565
Cr4 O26 1.654678 1_555
Cr4 O11 1.722227 1_555
Cr4 O21 1.723189 1_556
Cr4 O6 1.791778 1_555
Cr5 O12 1.684841 1_555
Cr5 O34 1.718744 1_555
Cr5 O1 1.724690 1_555
Cr5 O14 1.773091 1_555
Cr6 O24 1.654678 1_555
Cr6 O25 1.722227 1_555
Cr6 O10 1.723189 1_555
Cr6 O39 1.791778 1_555
Cr7 O22 1.684841 1_555
Cr7 O4 1.718744 1_555
Cr7 O33 1.724690 1_555
Cr7 O15 1.773091 1_555
Cr8 O7 1.654678 1_555
Cr8 O38 1.722227 1_555
Cr8 O23 1.723189 1_555
Cr8 O15 1.791778 1_555
Cr9 O3 1.654678 1_555
Cr9 O19 1.722227 1_555
Cr9 O8 1.723189 1_554
Cr9 O14 1.791778 1_555
Cr10 O27 1.658506 1_555
Cr10 O31 1.733004 1_555
Cr10 O16 1.745814 1_555
Cr10 O2 1.787157 1_555
Cr11 O20 1.658506 1_555
Cr11 O36 1.733004 1_555
Cr11 O30 1.745814 1_555
Cr11 O32 1.787157 1_555
Cu0 O22 1.913914 1_655
Cu0 O30 1.932100 1_655
Cu0 O1 1.976210 1_555
Cu0 O31 2.014339 1_555
Cu1 O35 1.913914 1_455
Cu1 O5 1.932100 1_455
Cu1 O40 1.976210 1_555
Cu1 O18 2.014339 1_555
Cu2 O25 1.932130 1_555
Cu2 O19 1.932130 1_555
Cu2 O23 1.972826 1_555
Cu2 O21 1.972826 1_555
Cu3 O29 1.913914 1_654
Cu3 O13 1.932100 1_655
Cu3 O37 1.976210 1_555
Cu3 O0 2.014339 1_554
Cu4 O11 1.932130 1_555
Cu4 O38 1.932130 1_555
Cu4 O10 1.972826 1_555
Cu4 O8 1.972826 1_555
Cu5 O12 1.913914 1_456
Cu5 O16 1.932100 1_455
Cu5 O33 1.976210 1_555
Cu5 O36 2.014339 1_556
