# generated using pymatgen
data_Li32Mn11Cr5O48
_symmetry_space_group_name_H-M   'P 1'
_cell_length_a   5.01886074
_cell_length_b   5.00695094
_cell_length_c   38.39100968
_cell_angle_alpha   88.95863535
_cell_angle_beta   91.22299316
_cell_angle_gamma   60.00495027
_symmetry_Int_Tables_number   1
_chemical_formula_structural   Li32Mn11Cr5O48
_chemical_formula_sum   'Li32 Mn11 Cr5 O48'
_cell_volume   834.87269150
_cell_formula_units_Z   1
loop_
 _symmetry_equiv_pos_site_id
 _symmetry_equiv_pos_as_xyz
  1  'x, y, z'
loop_
 _atom_site_type_symbol
 _atom_site_label
 _atom_site_symmetry_multiplicity
 _atom_site_fract_x
 _atom_site_fract_y
 _atom_site_fract_z
 _atom_site_occupancy
  Li  Li0  1  0.08512454  0.09361214  0.24999972  1
  Li  Li1  1  0.99718533  0.50027227  0.99989760  1
  Li  Li2  1  0.06027505  0.43548833  0.18753672  1
  Li  Li3  1  0.12865377  0.37353756  0.37504821  1
  Li  Li4  1  0.18471424  0.31790453  0.56252998  1
  Li  Li5  1  0.25065497  0.25275567  0.75015174  1
  Li  Li6  1  0.31252269  0.18764318  0.93748963  1
  Li  Li7  1  0.03295074  0.79157579  0.12478240  1
  Li  Li8  1  0.37289869  0.12299746  0.12495806  1
  Li  Li9  1  0.16069117  0.65845899  0.49980282  1
  Li  Li10  1  0.28451988  0.53619256  0.87491066  1
  Li  Li11  1  0.43563964  0.06657361  0.31257272  1
  Li  Li12  1  0.50450921  0.99992061  0.49977822  1
  Li  Li13  1  0.41463969  0.40522684  0.25003054  1
  Li  Li14  1  0.53538966  0.28865542  0.62497205  1
  Li  Li15  1  0.21045792  0.96230343  0.62519277  1
  Li  Li16  1  0.33780590  0.83951226  0.99981932  1
  Li  Li17  1  0.66449751  0.16069614  -0.00001089  1
  Li  Li18  1  0.78518307  0.03821108  0.37497695  1
  Li  Li19  1  0.46130595  0.71285376  0.37517600  1
  Li  Li20  1  0.58809468  0.58709406  0.75010431  1
  Li  Li21  1  0.56250114  0.93756394  0.68756578  1
  Li  Li22  1  0.71905782  0.46178565  0.12509252  1
  Li  Li23  1  0.83581255  0.34118039  0.49975796  1
  Li  Li24  1  0.62752896  0.87660741  0.87497942  1
  Li  Li25  1  0.96272294  0.21298665  0.87504730  1
  Li  Li26  1  0.68730950  0.80983922  0.06247545  1
  Li  Li27  1  0.75213397  0.75052347  0.24998638  1
  Li  Li28  1  0.81256334  0.68756490  0.43744085  1
  Li  Li29  1  0.87889944  0.62328642  0.62504928  1
  Li  Li30  1  0.93877125  0.56377480  0.81252467  1
  Li  Li31  1  0.91129443  0.90938003  0.75016444  1
  Mn  Mn0  1  0.01954178  0.14589075  0.06232125  1
  Mn  Mn1  1  0.14531573  0.02030843  0.43749319  1
  Mn  Mn2  1  0.10463014  0.72903599  0.31253694  1
  Mn  Mn3  1  0.22960496  0.60444097  0.68756070  1
  Mn  Mn4  1  0.47953872  0.35473483  0.43746935  1
  Mn  Mn5  1  0.60556783  0.22991534  0.81245162  1
  Mn  Mn6  1  0.72897057  0.10351018  0.18758275  1
  Mn  Mn7  1  0.64520536  0.52020615  0.93739276  1
  Mn  Mn8  1  0.89515004  0.27018513  0.68756068  1
  Mn  Mn9  1  0.85528906  0.97834706  0.56268546  1
  Mn  Mn10  1  0.97946666  0.85494650  0.93740975  1
  Cr  Cr0  1  0.35680820  0.47411272  0.06229160  1
  Cr  Cr1  1  0.26946763  0.90046894  0.81248217  1
  Cr  Cr2  1  0.39369647  0.76672015  0.18757806  1
  Cr  Cr3  1  0.51619391  0.65203470  0.56258465  1
  Cr  Cr4  1  0.76669103  0.40208321  0.31249448  1
  O  O0  1  0.08820816  0.05315395  0.34046383  1
  O  O1  1  0.04785780  0.09397874  0.15936278  1
  O  O2  1  0.07641282  0.42978014  0.28370927  1
  O  O3  1  0.19576460  0.30340875  0.65927876  1
  O  O4  1  0.04994870  0.44549216  0.09110499  1
  O  O5  1  0.17973693  0.32064159  0.46591120  1
  O  O6  1  0.30577045  0.19621544  0.84110336  1
  O  O7  1  0.31893607  0.18146111  0.03395346  1
  O  O8  1  0.44608796  0.05318206  0.40902224  1
  O  O9  1  0.07378270  0.78864019  0.21546661  1
  O  O10  1  0.43119783  0.07014448  0.21606320  1
  O  O11  1  0.18928568  0.66239640  0.59096789  1
  O  O12  1  0.32160388  0.53647206  0.96535685  1
  O  O13  1  0.03892831  0.82082117  0.03437748  1
  O  O14  1  0.16037741  0.69629861  0.40951978  1
  O  O15  1  0.28710424  0.56657194  0.78431039  1
  O  O16  1  0.21353947  0.92866703  0.71558766  1
  O  O17  1  0.18174437  0.95864603  0.53468572  1
  O  O18  1  0.30306126  0.83865992  0.90947257  1
  O  O19  1  0.44117388  0.41175989  0.34087329  1
  O  O20  1  0.57167894  0.28621623  0.71543187  1
  O  O21  1  0.41413580  0.44712105  0.15951110  1
  O  O22  1  0.53839769  0.32058415  0.53459891  1
  O  O23  1  0.66095268  0.19645949  0.90957700  1
  O  O24  1  0.33697813  0.80629460  0.09049695  1
  O  O25  1  0.46369485  0.67861904  0.46550517  1
  O  O26  1  0.58907918  0.55220780  0.84051748  1
  O  O27  1  0.43262110  0.70799650  0.28466792  1
  O  O28  1  0.55305704  0.58894764  0.65969139  1
  O  O29  1  0.69334021  0.16715635  0.09024838  1
  O  O30  1  0.82182185  0.03636251  0.46540043  1
  O  O31  1  0.78764036  0.07012388  0.28477959  1
  O  O32  1  0.71818310  0.42379359  0.21584937  1
  O  O33  1  0.83801351  0.30279748  0.59052065  1
  O  O34  1  0.96389964  0.17866957  0.96530480  1
  O  O35  1  0.68443564  0.46334597  0.03409077  1
  O  O36  1  0.80318302  0.33928019  0.40945167  1
  O  O37  1  0.57470059  0.92991707  0.78372498  1
  O  O38  1  0.92850868  0.21181541  0.78457898  1
  O  O39  1  0.55654836  0.94059051  0.59088756  1
  O  O40  1  0.67942484  0.82129429  0.96579424  1
  O  O41  1  0.69368800  0.80614417  0.15908180  1
  O  O42  1  0.82657166  0.68035791  0.53363674  1
  O  O43  1  0.94522690  0.55403455  0.90910008  1
  O  O44  1  0.80624728  0.69129930  0.34072802  1
  O  O45  1  0.92924556  0.57095549  0.71592512  1
  O  O46  1  0.94007166  0.91206077  0.84082600  1
  O  O47  1  0.91067847  0.94624020  0.65978166  1
loop_
_geom_bond_atom_site_label_1
_geom_bond_atom_site_label_2
_geom_bond_distance
_geom_bond_site_symmetry_2
Li0 O9 2.061509 1_545
Li0 O31 2.069004 1_455
Li0 O2 2.125515 1_555
Li0 O32 2.148857 1_455
Li0 O10 2.150848 1_555
Li0 O27 2.231952 1_545
Li1 O40 2.027922 1_555
Li1 O7 2.030231 1_656
Li1 O35 2.142542 1_556
Li1 O34 2.172960 1_555
Li1 O13 2.184865 1_656
Li1 O12 2.195642 1_655
Li2 O1 2.066041 1_555
Li2 O32 2.076185 1_455
Li2 O10 2.108661 1_555
Li2 O41 2.109299 1_455
Li2 O9 2.113428 1_555
Li2 O21 2.120810 1_555
Li3 O8 2.022962 1_555
Li3 O44 2.035778 1_455
Li3 O19 2.144066 1_555
Li3 O14 2.171256 1_555
Li3 O0 2.183768 1_555
Li3 O36 2.192303 1_455
Li4 O11 2.067495 1_555
Li4 O42 2.082052 1_455
Li4 O33 2.096825 1_455
Li4 O22 2.098926 1_555
Li4 O17 2.115321 1_545
Li4 O39 2.133159 1_545
Li5 O37 2.031120 1_545
Li5 O45 2.032439 1_455
Li5 O15 2.138718 1_555
Li5 O20 2.180390 1_555
Li5 O16 2.190566 1_545
Li5 O38 2.194473 1_455
Li6 O12 2.083889 1_555
Li6 O34 2.088148 1_455
Li6 O18 2.088415 1_545
Li6 O23 2.088958 1_555
Li6 O40 2.097904 1_545
Li6 O43 2.100421 1_455
Li7 O1 2.059780 1_565
Li7 O24 2.064190 1_555
Li7 O41 2.147906 1_455
Li7 O4 2.149397 1_555
Li7 O29 2.192574 1_465
Li7 O21 2.218251 1_555
Li8 O41 2.026273 1_545
Li8 O4 2.034828 1_555
Li8 O24 2.156205 1_545
Li8 O1 2.179210 1_555
Li8 O21 2.199675 1_555
Li8 O29 2.201664 1_555
Li9 O17 2.071130 1_555
Li9 O25 2.071400 1_555
Li9 O42 2.103692 1_455
Li9 O5 2.118180 1_555
Li9 O30 2.193809 1_465
Li9 O22 2.200742 1_555
Li10 O18 2.066746 1_555
Li10 O26 2.071509 1_555
Li10 O6 2.120908 1_555
Li10 O43 2.139657 1_455
Li10 O46 2.191707 1_455
Li10 O23 2.198002 1_555
Li11 O19 2.069618 1_555
Li11 O2 2.085373 1_555
Li11 O31 2.090699 1_555
Li11 O0 2.094234 1_555
Li11 O27 2.113692 1_545
Li11 O44 2.122394 1_545
Li12 O42 2.027630 1_555
Li12 O5 2.035337 1_565
Li12 O30 2.163995 1_565
Li12 O22 2.176026 1_565
Li12 O25 2.180871 1_555
Li12 O17 2.209096 1_555
Li13 O32 2.067371 1_555
Li13 O27 2.068688 1_555
Li13 O2 2.111688 1_555
Li13 O10 2.113525 1_555
Li13 O31 2.184238 1_555
Li13 O9 2.213499 1_555
Li14 O28 2.060648 1_555
Li14 O33 2.061810 1_555
Li14 O3 2.149193 1_555
Li14 O39 2.159743 1_545
Li14 O11 2.188074 1_555
Li14 O47 2.203056 1_545
Li15 O11 2.053742 1_555
Li15 O47 2.058121 1_455
Li15 O3 2.143409 1_565
Li15 O39 2.162750 1_555
Li15 O33 2.190295 1_465
Li15 O28 2.191847 1_555
Li16 O13 2.059084 1_556
Li16 O12 2.061803 1_555
Li16 O7 2.140635 1_566
Li16 O40 2.144256 1_555
Li16 O34 2.187886 1_465
Li16 O35 2.200247 1_556
Li17 O35 2.058747 1_555
Li17 O34 2.062864 1_554
Li17 O40 2.138887 1_544
Li17 O7 2.154086 1_555
Li17 O13 2.187529 1_645
Li17 O12 2.200758 1_554
Li18 O36 2.058109 1_555
Li18 O0 2.066482 1_655
Li18 O8 2.140393 1_555
Li18 O44 2.159264 1_545
Li18 O19 2.186107 1_555
Li18 O14 2.196119 1_645
Li19 O14 2.057319 1_555
Li19 O19 2.058156 1_555
Li19 O8 2.133655 1_565
Li19 O44 2.161907 1_555
Li19 O36 2.186203 1_555
Li19 O0 2.192332 1_565
Li20 O20 2.059231 1_555
Li20 O15 2.062049 1_555
Li20 O37 2.141433 1_555
Li20 O45 2.149732 1_555
Li20 O38 2.191937 1_555
Li20 O16 2.193508 1_555
Li21 O20 2.083315 1_565
Li21 O28 2.083904 1_555
Li21 O47 2.084953 1_555
Li21 O16 2.093649 1_555
Li21 O3 2.096146 1_565
Li21 O45 2.099135 1_555
Li22 O29 2.058408 1_555
Li22 O21 2.070880 1_555
Li22 O4 2.104285 1_655
Li22 O41 2.135677 1_555
Li22 O1 2.150888 1_655
Li22 O24 2.217516 1_555
Li23 O30 2.061656 1_555
Li23 O22 2.064457 1_555
Li23 O42 2.140552 1_555
Li23 O5 2.145138 1_655
Li23 O25 2.175133 1_555
Li23 O17 2.227840 1_645
Li24 O6 2.027534 1_565
Li24 O43 2.031235 1_555
Li24 O46 2.137520 1_555
Li24 O23 2.166452 1_565
Li24 O26 2.192361 1_555
Li24 O18 2.198596 1_555
Li25 O46 2.060587 1_545
Li25 O23 2.065190 1_555
Li25 O43 2.137487 1_555
Li25 O6 2.150513 1_655
Li25 O26 2.187729 1_555
Li25 O18 2.188552 1_645
Li26 O35 2.071363 1_555
Li26 O24 2.088144 1_555
Li26 O4 2.090581 1_655
Li26 O13 2.111166 1_655
Li26 O29 2.112022 1_565
Li26 O7 2.116425 1_565
Li27 O10 2.027065 1_565
Li27 O2 2.031050 1_655
Li27 O31 2.174705 1_565
Li27 O32 2.184017 1_555
Li27 O9 2.188350 1_655
Li27 O27 2.193596 1_555
Li28 O36 2.084674 1_555
Li28 O30 2.086012 1_565
Li28 O14 2.086298 1_655
Li28 O25 2.094219 1_555
Li28 O8 2.097545 1_565
Li28 O5 2.102796 1_655
Li29 O3 2.026997 1_655
Li29 O39 2.031073 1_555
Li29 O11 2.135345 1_655
Li29 O47 2.178375 1_555
Li29 O33 2.183851 1_555
Li29 O28 2.199630 1_555
Li30 O46 2.074012 1_555
Li30 O15 2.081959 1_655
Li30 O37 2.100677 1_555
Li30 O38 2.101501 1_555
Li30 O26 2.101993 1_555
Li30 O6 2.105801 1_655
Li31 O38 2.060280 1_565
Li31 O16 2.073703 1_655
Li31 O37 2.109134 1_555
Li31 O45 2.130869 1_555
Li31 O15 2.190392 1_655
Li31 O20 2.199836 1_565
Mn0 O35 1.927795 1_455
Mn0 O13 1.928480 1_545
Mn0 O29 1.935439 1_455
Mn0 O24 1.936612 1_545
Mn0 O4 1.943350 1_555
Mn0 O7 1.950905 1_555
Mn1 O14 1.932634 1_545
Mn1 O30 1.933187 1_455
Mn1 O25 1.939886 1_545
Mn1 O36 1.942865 1_455
Mn1 O5 1.947491 1_555
Mn1 O8 1.952643 1_555
Mn2 O0 1.929554 1_565
Mn2 O31 1.930835 1_465
Mn2 O19 1.932851 1_555
Mn2 O2 1.937969 1_555
Mn2 O27 1.942035 1_555
Mn2 O44 1.947906 1_455
Mn3 O16 1.932857 1_555
Mn3 O28 1.933214 1_555
Mn3 O47 1.936521 1_455
Mn3 O20 1.937950 1_555
Mn3 O3 1.946054 1_555
Mn3 O45 1.949995 1_455
Mn4 O25 1.932041 1_555
Mn4 O36 1.937351 1_555
Mn4 O14 1.939812 1_555
Mn4 O30 1.939902 1_555
Mn4 O5 1.950793 1_555
Mn4 O8 1.950930 1_555
Mn5 O26 1.924922 1_555
Mn5 O38 1.926373 1_555
Mn5 O46 1.930128 1_545
Mn5 O15 1.931189 1_555
Mn5 O37 1.944758 1_545
Mn5 O6 1.954507 1_555
Mn6 O32 1.931627 1_555
Mn6 O1 1.933129 1_655
Mn6 O9 1.938545 1_645
Mn6 O21 1.939057 1_555
Mn6 O41 1.939061 1_545
Mn6 O10 1.941554 1_555
Mn7 O23 1.926816 1_555
Mn7 O12 1.934496 1_555
Mn7 O34 1.938127 1_555
Mn7 O18 1.939512 1_555
Mn7 O43 1.947807 1_555
Mn7 O40 1.949786 1_555
Mn8 O47 1.927242 1_545
Mn8 O20 1.932342 1_555
Mn8 O28 1.938953 1_555
Mn8 O16 1.939811 1_645
Mn8 O45 1.947369 1_555
Mn8 O3 1.948635 1_655
Mn9 O11 1.923513 1_655
Mn9 O33 1.927360 1_565
Mn9 O42 1.938868 1_555
Mn9 O22 1.939892 1_565
Mn9 O17 1.940909 1_655
Mn9 O39 1.949683 1_555
Mn10 O34 1.928789 1_565
Mn10 O18 1.933837 1_655
Mn10 O23 1.936157 1_565
Mn10 O12 1.940071 1_655
Mn10 O43 1.947091 1_555
Mn10 O40 1.949503 1_555
Cr0 O29 1.906302 1_555
Cr0 O7 1.922080 1_555
Cr0 O13 1.948726 1_555
Cr0 O24 1.962978 1_555
Cr0 O35 1.966804 1_555
Cr0 O4 1.975764 1_555
Cr1 O38 1.923490 1_465
Cr1 O6 1.937431 1_565
Cr1 O26 1.957937 1_555
Cr1 O37 1.969644 1_555
Cr1 O15 1.973412 1_555
Cr1 O46 1.975761 1_455
Cr2 O21 1.906706 1_555
Cr2 O9 1.907302 1_555
Cr2 O32 1.959418 1_555
Cr2 O41 1.965273 1_555
Cr2 O10 1.968982 1_565
Cr2 O1 1.970413 1_565
Cr3 O17 1.899609 1_555
Cr3 O39 1.910318 1_555
Cr3 O22 1.950870 1_555
Cr3 O33 1.962310 1_555
Cr3 O11 1.968562 1_555
Cr3 O42 1.992685 1_555
Cr4 O27 1.896000 1_555
Cr4 O44 1.909597 1_555
Cr4 O31 1.949378 1_555
Cr4 O0 1.961688 1_655
Cr4 O19 1.963963 1_555
Cr4 O2 1.984961 1_655
