# generated using pymatgen
data_SbC2SCl3O
_symmetry_space_group_name_H-M   'P 1'
_cell_length_a   9.54408200
_cell_length_b   7.64534700
_cell_length_c   30.14528865
_cell_angle_alpha   89.67276823
_cell_angle_beta   90.00000000
_cell_angle_gamma   90.00000000
_symmetry_Int_Tables_number   1
_chemical_formula_structural   SbC2SCl3O
_chemical_formula_sum   'Sb8 C16 S8 Cl24 O8'
_cell_volume   2199.60008184
_cell_formula_units_Z   8
loop_
 _symmetry_equiv_pos_site_id
 _symmetry_equiv_pos_as_xyz
  1  'x, y, z'
loop_
 _atom_site_type_symbol
 _atom_site_label
 _atom_site_symmetry_multiplicity
 _atom_site_fract_x
 _atom_site_fract_y
 _atom_site_fract_z
 _atom_site_occupancy
  Sb  Sb0  1  0.17828700  0.03178800  0.87622100  1
  Sb  Sb1  1  0.67828700  0.96821200  0.62377900  1
  Sb  Sb2  1  0.82171300  0.96821200  0.12377900  1
  Sb  Sb3  1  0.32171300  0.03178800  0.37622100  1
  Sb  Sb4  1  0.34224900  0.53120400  0.88686400  1
  Sb  Sb5  1  0.84224900  0.46879600  0.61313600  1
  Sb  Sb6  1  0.65775100  0.46879600  0.11313600  1
  Sb  Sb7  1  0.15775100  0.53120400  0.38686400  1
  C  C0  1  0.64192100  0.82724400  0.77064500  1
  C  C1  1  0.14192100  0.17275600  0.72935500  1
  C  C2  1  0.35807900  0.17275600  0.22935500  1
  C  C3  1  0.85807900  0.82724400  0.27064500  1
  C  C4  1  0.76685200  0.81282800  0.78705800  1
  C  C5  1  0.26685200  0.18717200  0.71294200  1
  C  C6  1  0.23314800  0.18717200  0.21294200  1
  C  C7  1  0.73314800  0.81282800  0.28705800  1
  C  C8  1  0.72588700  0.29901000  0.99519300  1
  C  C9  1  0.22588700  0.70099000  0.50480700  1
  C  C10  1  0.27411300  0.70099000  0.00480700  1
  C  C11  1  0.77411300  0.29901000  0.49519300  1
  C  C12  1  0.77895600  0.21217200  0.96244900  1
  C  C13  1  0.27895600  0.78782800  0.53755100  1
  C  C14  1  0.22104400  0.78782800  0.03755100  1
  C  C15  1  0.72104400  0.21217200  0.46244900  1
  S  S0  1  0.92257900  0.89241800  0.78721900  1
  S  S1  1  0.42257900  0.10758200  0.71278100  1
  S  S2  1  0.07742100  0.10758200  0.21278100  1
  S  S3  1  0.57742100  0.89241800  0.28721900  1
  S  S4  1  0.86479800  0.22345800  0.91690600  1
  S  S5  1  0.36479800  0.77654200  0.58309400  1
  S  S6  1  0.13520200  0.77654200  0.08309400  1
  S  S7  1  0.63520200  0.22345800  0.41690600  1
  Cl  Cl0  1  0.09690600  0.30072100  0.83274700  1
  Cl  Cl1  1  0.59690600  0.69927900  0.66725300  1
  Cl  Cl2  1  0.90309400  0.69927900  0.16725300  1
  Cl  Cl3  1  0.40309400  0.30072100  0.33274700  1
  Cl  Cl4  1  0.10744700  0.78551800  0.92707200  1
  Cl  Cl5  1  0.60744700  0.21448200  0.57292800  1
  Cl  Cl6  1  0.89255300  0.21448200  0.07292800  1
  Cl  Cl7  1  0.39255300  0.78551800  0.42707200  1
  Cl  Cl8  1  0.21242200  0.20719200  0.94245900  1
  Cl  Cl9  1  0.71242200  0.79280800  0.55754100  1
  Cl  Cl10  1  0.78757800  0.79280800  0.05754100  1
  Cl  Cl11  1  0.28757800  0.20719200  0.44245900  1
  Cl  Cl12  1  0.48806300  0.30827900  0.85149100  1
  Cl  Cl13  1  0.98806300  0.69172100  0.64850900  1
  Cl  Cl14  1  0.51193700  0.69172100  0.14850900  1
  Cl  Cl15  1  0.01193700  0.30827900  0.35149100  1
  Cl  Cl16  1  0.36048700  0.75200000  0.82735300  1
  Cl  Cl17  1  0.86048700  0.24800000  0.67264700  1
  Cl  Cl18  1  0.63951300  0.24800000  0.17264700  1
  Cl  Cl19  1  0.13951300  0.75200000  0.32735300  1
  Cl  Cl20  1  0.53102200  0.64896400  0.92824700  1
  Cl  Cl21  1  0.03102200  0.35103600  0.57175300  1
  Cl  Cl22  1  0.46897800  0.35103600  0.07175300  1
  Cl  Cl23  1  0.96897800  0.64896400  0.42824700  1
  O  O0  1  0.01300400  0.82915700  0.82414400  1
  O  O1  1  0.51300400  0.17084300  0.67585600  1
  O  O2  1  0.98699600  0.17084300  0.17585600  1
  O  O3  1  0.48699600  0.82915700  0.32414400  1
  O  O4  1  0.89617600  0.05017500  0.89626900  1
  O  O5  1  0.39617600  0.94982500  0.60373100  1
  O  O6  1  0.10382400  0.94982500  0.10373100  1
  O  O7  1  0.60382400  0.05017500  0.39626900  1
loop_
_geom_bond_atom_site_label_1
_geom_bond_atom_site_label_2
_geom_bond_distance
_geom_bond_site_symmetry_2
C0 C4 1.295388 1_555
C1 C5 1.295388 1_555
C2 C6 1.295388 1_555
C3 C7 1.295388 1_555
C4 S0 1.606027 1_555
C5 S1 1.606027 1_555
C6 S2 1.606027 1_555
C7 S3 1.606027 1_555
C10 C14 1.295807 1_555
C11 C15 1.295807 1_555
C12 C8 1.295807 1_555
C12 S4 1.600684 1_555
C13 C9 1.295807 1_555
C13 S5 1.600684 1_555
C14 S6 1.600684 1_555
C15 S7 1.600684 1_555
Cl0 Sb0 2.552938 1_555
Cl1 Sb1 2.552938 1_555
Cl2 Sb2 2.552938 1_555
Cl3 Sb3 2.552938 1_555
Cl4 Sb0 2.513761 1_565
Cl5 Sb1 2.513761 1_545
Cl6 Sb2 2.513761 1_545
Cl7 Sb3 2.513761 1_565
Cl8 Sb0 2.433544 1_555
Cl9 Sb1 2.433544 1_555
Cl10 Sb2 2.433544 1_555
Cl11 Sb3 2.433544 1_555
Cl12 Sb4 2.449349 1_555
Cl13 Sb5 2.449349 1_555
Cl14 Sb6 2.449349 1_555
Cl15 Sb7 2.449349 1_555
Cl16 Sb4 2.462440 1_555
Cl16 Sb0 3.131400 1_565
Cl17 Sb5 2.462440 1_555
Cl17 Sb1 3.131400 1_545
Cl18 Sb6 2.462440 1_555
Cl18 Sb2 3.131400 1_545
Cl19 Sb7 2.462440 1_555
Cl19 Sb3 3.131400 1_565
Cl20 Sb4 2.371847 1_555
Cl21 Sb5 2.371847 1_455
Cl22 Sb6 2.371847 1_555
Cl23 Sb7 2.371847 1_655
O0 S0 1.487146 1_455
O0 Sb0 2.716742 1_565
O1 S1 1.487146 1_555
O1 Sb1 2.716742 1_545
O2 S2 1.487146 1_655
O2 Sb2 2.716742 1_545
O3 S3 1.487146 1_555
O3 Sb3 2.716742 1_565
O4 S4 1.497076 1_555
O4 Sb0 2.763237 1_655
O5 S5 1.497076 1_555
O5 Sb1 2.763237 1_555
O6 S6 1.497076 1_555
O6 Sb2 2.763237 1_455
O7 S7 1.497076 1_555
O7 Sb3 2.763237 1_555
