# generated using pymatgen
data_Gd4(SiS4)3
_symmetry_space_group_name_H-M   'P 1'
_cell_length_a   9.95632307
_cell_length_b   11.09131373
_cell_length_c   16.56506757
_cell_angle_alpha   90.00000000
_cell_angle_beta   102.88952222
_cell_angle_gamma   90.00000000
_symmetry_Int_Tables_number   1
_chemical_formula_structural   Gd4(SiS4)3
_chemical_formula_sum   'Gd16 Si12 S48'
_cell_volume   1783.16526361
_cell_formula_units_Z   4
loop_
 _symmetry_equiv_pos_site_id
 _symmetry_equiv_pos_as_xyz
  1  'x, y, z'
loop_
 _atom_site_type_symbol
 _atom_site_label
 _atom_site_symmetry_multiplicity
 _atom_site_fract_x
 _atom_site_fract_y
 _atom_site_fract_z
 _atom_site_occupancy
  Gd  Gd0  1  0.88947351  0.48196243  0.37477388  1
  Gd  Gd1  1  0.38947351  0.01803757  0.87477388  1
  Gd  Gd2  1  0.11052649  0.51803757  0.62522612  1
  Gd  Gd3  1  0.61052649  0.98196243  0.12522612  1
  Gd  Gd4  1  0.62351960  0.15150305  0.44051397  1
  Gd  Gd5  1  0.12351960  0.34849695  0.94051397  1
  Gd  Gd6  1  0.37648040  0.84849695  0.55948603  1
  Gd  Gd7  1  0.87648040  0.65150305  0.05948603  1
  Gd  Gd8  1  0.96914670  0.87578599  0.36890469  1
  Gd  Gd9  1  0.46914670  0.62421401  0.86890469  1
  Gd  Gd10  1  0.03085330  0.12421401  0.63109531  1
  Gd  Gd11  1  0.53085330  0.37578599  0.13109531  1
  Gd  Gd12  1  0.17846211  0.26079955  0.21082259  1
  Gd  Gd13  1  0.67846211  0.23920045  0.71082259  1
  Gd  Gd14  1  0.82153789  0.73920045  0.78917741  1
  Gd  Gd15  1  0.32153789  0.76079955  0.28917741  1
  Si  Si0  1  0.27879804  0.05163313  0.38250754  1
  Si  Si1  1  0.77879804  0.44836687  0.88250754  1
  Si  Si2  1  0.72120196  0.94836687  0.61749246  1
  Si  Si3  1  0.22120196  0.55163313  0.11749246  1
  Si  Si4  1  0.80197552  0.38182613  0.56049143  1
  Si  Si5  1  0.30197552  0.11817387  0.06049143  1
  Si  Si6  1  0.19802448  0.61817387  0.43950857  1
  Si  Si7  1  0.69802448  0.88182613  0.93950857  1
  Si  Si8  1  0.78971414  0.21503420  0.26622665  1
  Si  Si9  1  0.28971414  0.28496580  0.76622665  1
  Si  Si10  1  0.21028586  0.78496580  0.73377335  1
  Si  Si11  1  0.71028586  0.71503420  0.23377335  1
  S  S0  1  0.99296098  0.27686569  0.30897417  1
  S  S1  1  0.49296098  0.22313431  0.80897417  1
  S  S2  1  0.00703902  0.72313431  0.69102583  1
  S  S3  1  0.50703902  0.77686569  0.19102583  1
  S  S4  1  0.08121049  0.65335113  0.31726163  1
  S  S5  1  0.58121049  0.84664887  0.81726163  1
  S  S6  1  0.91878951  0.34664887  0.68273837  1
  S  S7  1  0.41878951  0.15335113  0.18273837  1
  S  S8  1  0.75528135  0.71162671  0.36372661  1
  S  S9  1  0.25528135  0.78837329  0.86372661  1
  S  S10  1  0.24471865  0.28837329  0.63627339  1
  S  S11  1  0.74471865  0.21162671  0.13627339  1
  S  S12  1  0.65385993  0.33470171  0.31145726  1
  S  S13  1  0.15385993  0.16529829  0.81145726  1
  S  S14  1  0.34614007  0.66529829  0.68854274  1
  S  S15  1  0.84614007  0.83470171  0.18854274  1
  S  S16  1  0.88716844  0.26036037  0.48636168  1
  S  S17  1  0.38716844  0.23963963  0.98636168  1
  S  S18  1  0.11283156  0.73963963  0.51363832  1
  S  S19  1  0.61283156  0.76036037  0.01363832  1
  S  S20  1  0.59462824  0.34554850  0.55348902  1
  S  S21  1  0.09462824  0.15445150  0.05348902  1
  S  S22  1  0.40537176  0.65445150  0.44651098  1
  S  S23  1  0.90537176  0.84554850  0.94651098  1
  S  S24  1  0.45639794  0.93656156  0.40610179  1
  S  S25  1  0.95639794  0.56343844  0.90610179  1
  S  S26  1  0.54360206  0.06343844  0.59389821  1
  S  S27  1  0.04360206  0.43656156  0.09389821  1
  S  S28  1  0.15207425  0.97799382  0.27251130  1
  S  S29  1  0.65207425  0.52200618  0.77251130  1
  S  S30  1  0.84792575  0.02200618  0.72748870  1
  S  S31  1  0.34792575  0.47799382  0.22748870  1
  S  S32  1  0.83237292  0.97482900  0.52374198  1
  S  S33  1  0.33237292  0.52517100  0.02374198  1
  S  S34  1  0.16762708  0.02517100  0.47625802  1
  S  S35  1  0.66762708  0.47482900  0.97625802  1
  S  S36  1  0.34790808  0.22769537  0.37279577  1
  S  S37  1  0.84790808  0.27230463  0.87279577  1
  S  S38  1  0.65209192  0.77230463  0.62720423  1
  S  S39  1  0.15209192  0.72769537  0.12720423  1
  S  S40  1  0.84328052  0.55596027  0.52795004  1
  S  S41  1  0.34328052  0.94403973  0.02795004  1
  S  S42  1  0.15671948  0.44403973  0.47204996  1
  S  S43  1  0.65671948  0.05596027  0.97204996  1
  S  S44  1  0.74510377  0.04382758  0.31257647  1
  S  S45  1  0.24510377  0.45617242  0.81257647  1
  S  S46  1  0.25489623  0.95617242  0.68742353  1
  S  S47  1  0.75489623  0.54382758  0.18742353  1
loop_
_geom_bond_atom_site_label_1
_geom_bond_atom_site_label_2
_geom_bond_distance
_geom_bond_site_symmetry_2
Gd0 S40 2.800718 1_555
Gd0 S0 2.815210 1_555
Gd0 S42 2.817872 1_655
Gd0 S12 2.858859 1_555
Gd0 S8 2.863231 1_555
Gd0 S4 2.996132 1_655
Gd0 S16 3.078526 1_555
Gd0 S47 3.168985 1_555
Gd1 S41 2.800718 1_546
Gd1 S1 2.815210 1_555
Gd1 S43 2.817872 1_555
Gd1 S13 2.858859 1_555
Gd1 S9 2.863231 1_545
Gd1 S5 2.996132 1_545
Gd1 S17 3.078526 1_555
Gd1 S46 3.168985 1_545
Gd2 S42 2.800718 1_555
Gd2 S2 2.815210 1_555
Gd2 S40 2.817872 1_455
Gd2 S14 2.858859 1_555
Gd2 S10 2.863231 1_555
Gd2 S6 2.996132 1_455
Gd2 S18 3.078526 1_555
Gd2 S45 3.168985 1_555
Gd3 S43 2.800718 1_564
Gd3 S3 2.815210 1_555
Gd3 S41 2.817872 1_555
Gd3 S15 2.858859 1_555
Gd3 S11 2.863231 1_565
Gd3 S7 2.996132 1_565
Gd3 S19 3.078526 1_555
Gd3 S44 3.168985 1_565
Gd4 S16 2.834713 1_555
Gd4 S36 2.851163 1_555
Gd4 S24 2.890290 1_545
Gd4 S20 2.908134 1_555
Gd4 S44 2.920209 1_555
Gd4 S32 2.964036 1_545
Gd4 S26 2.990801 1_555
Gd4 S12 3.013034 1_555
Gd5 S17 2.834713 1_555
Gd5 S37 2.851163 1_455
Gd5 S25 2.890290 1_455
Gd5 S21 2.908134 1_556
Gd5 S45 2.920209 1_555
Gd5 S33 2.964036 1_556
Gd5 S27 2.990801 1_556
Gd5 S13 3.013034 1_555
Gd6 S18 2.834713 1_555
Gd6 S38 2.851163 1_555
Gd6 S26 2.890290 1_565
Gd6 S22 2.908134 1_555
Gd6 S46 2.920209 1_555
Gd6 S34 2.964036 1_565
Gd6 S24 2.990801 1_555
Gd6 S14 3.013034 1_555
Gd7 S19 2.834713 1_555
Gd7 S39 2.851163 1_655
Gd7 S27 2.890290 1_655
Gd7 S23 2.908134 1_554
Gd7 S47 2.920209 1_555
Gd7 S35 2.964036 1_554
Gd7 S25 2.990801 1_554
Gd7 S15 3.013034 1_555
Gd8 S8 2.788359 1_555
Gd8 S34 2.871396 1_665
Gd8 S44 2.896822 1_565
Gd8 S28 2.906765 1_655
Gd8 S4 2.913607 1_655
Gd8 S18 2.923129 1_655
Gd8 S15 3.000244 1_555
Gd8 S32 3.346354 1_555
Gd9 S9 2.788359 1_555
Gd9 S35 2.871396 1_555
Gd9 S45 2.896822 1_555
Gd9 S29 2.906765 1_555
Gd9 S5 2.913607 1_555
Gd9 S19 2.923129 1_556
Gd9 S14 3.000244 1_555
Gd9 S33 3.346354 1_556
Gd10 S10 2.788359 1_555
Gd10 S32 2.871396 1_445
Gd10 S46 2.896822 1_545
Gd10 S30 2.906765 1_455
Gd10 S6 2.913607 1_455
Gd10 S16 2.923129 1_455
Gd10 S13 3.000244 1_555
Gd10 S34 3.346354 1_555
Gd11 S11 2.788359 1_555
Gd11 S33 2.871396 1_555
Gd11 S47 2.896822 1_555
Gd11 S31 2.906765 1_555
Gd11 S7 2.913607 1_555
Gd11 S17 2.923129 1_554
Gd11 S12 3.000244 1_555
Gd11 S35 3.346354 1_554
Gd12 S0 2.725077 1_455
Gd12 S7 2.803336 1_555
Gd12 S21 2.812466 1_555
Gd12 S36 2.856659 1_555
Gd12 S27 2.862573 1_555
Gd12 S31 2.918612 1_555
Gd12 S28 3.327438 1_545
Gd13 S1 2.725077 1_555
Gd13 S6 2.803336 1_555
Gd13 S20 2.812466 1_555
Gd13 S37 2.856659 1_555
Gd13 S26 2.862573 1_555
Gd13 S30 2.918612 1_555
Gd13 S29 3.327438 1_555
Gd14 S2 2.725077 1_655
Gd14 S5 2.803336 1_555
Gd14 S23 2.812466 1_555
Gd14 S38 2.856659 1_555
Gd14 S25 2.862573 1_555
Gd14 S29 2.918612 1_555
Gd14 S30 3.327438 1_565
Gd15 S3 2.725077 1_555
Gd15 S4 2.803336 1_555
Gd15 S22 2.812466 1_555
Gd15 S39 2.856659 1_555
Gd15 S24 2.862573 1_555
Gd15 S28 2.918612 1_555
Gd15 S31 3.327438 1_555
S0 Si8 2.104130 1_555
S1 Si9 2.104130 1_555
S2 Si10 2.104130 1_555
S3 Si11 2.104130 1_555
S4 Si6 2.134215 1_555
S5 Si7 2.134215 1_555
S6 Si4 2.134215 1_555
S7 Si5 2.134215 1_555
S8 Si11 2.099029 1_555
S9 Si10 2.099029 1_555
S10 Si9 2.099029 1_555
S11 Si8 2.099029 1_555
S12 Si8 2.145858 1_555
S13 Si9 2.145858 1_555
S14 Si10 2.145858 1_555
S15 Si11 2.145858 1_555
S16 Si4 2.122977 1_555
S17 Si5 2.122977 1_556
S18 Si6 2.122977 1_555
S19 Si7 2.122977 1_554
S20 Si4 2.080946 1_555
S21 Si5 2.080946 1_555
S22 Si6 2.080946 1_555
S23 Si7 2.080946 1_555
S24 Si0 2.144769 1_565
S25 Si1 2.144769 1_555
S26 Si2 2.144769 1_545
S27 Si3 2.144769 1_555
S28 Si0 2.133860 1_565
S29 Si1 2.133860 1_555
S30 Si2 2.133860 1_545
S31 Si3 2.133860 1_555
S32 Si2 2.118941 1_555
S33 Si3 2.118941 1_555
S34 Si0 2.118941 1_555
S35 Si1 2.118941 1_555
S36 Si0 2.088541 1_555
S37 Si1 2.088541 1_555
S38 Si2 2.088541 1_555
S39 Si3 2.088541 1_555
S40 Si4 2.070946 1_555
S41 Si5 2.070946 1_565
S42 Si6 2.070946 1_555
S43 Si7 2.070946 1_545
S44 Si8 2.131844 1_555
S45 Si9 2.131844 1_555
S46 Si10 2.131844 1_555
S47 Si11 2.131844 1_555
