# generated using pymatgen
data_K3TmF6
_symmetry_space_group_name_H-M   'P 1'
_cell_length_a   6.50387360
_cell_length_b   6.23476074
_cell_length_c   10.77346322
_cell_angle_alpha   55.56449061
_cell_angle_beta   90.00000000
_cell_angle_gamma   90.00000000
_symmetry_Int_Tables_number   1
_chemical_formula_structural   K3TmF6
_chemical_formula_sum   'K6 Tm2 F12'
_cell_volume   360.31014601
_cell_formula_units_Z   2
loop_
 _symmetry_equiv_pos_site_id
 _symmetry_equiv_pos_as_xyz
  1  'x, y, z'
loop_
 _atom_site_type_symbol
 _atom_site_label
 _atom_site_symmetry_multiplicity
 _atom_site_fract_x
 _atom_site_fract_y
 _atom_site_fract_z
 _atom_site_occupancy
  K  K0  1  0.50000000  0.50000000  0.00000000  1
  K  K1  1  0.00000000  0.50000000  0.50000000  1
  K  K2  1  0.05638674  0.72932263  0.75399688  1
  K  K3  1  0.94361326  0.27067737  0.24600312  1
  K  K4  1  0.55638674  0.27067737  0.74600312  1
  K  K5  1  0.44361326  0.72932263  0.25399688  1
  Tm  Tm0  1  0.50000000  -0.00000000  0.50000000  1
  Tm  Tm1  1  0.00000000  -0.00000000  0.00000000  1
  F  F0  1  0.77088174  0.76527046  0.56924327  1
  F  F1  1  0.22911826  0.23472954  0.43075673  1
  F  F2  1  0.27088174  0.23472954  0.93075673  1
  F  F3  1  0.72911826  0.76527046  0.06924327  1
  F  F4  1  0.44399363  0.88962651  0.72352832  1
  F  F5  1  0.55600637  0.11037349  0.27647168  1
  F  F6  1  0.94399363  0.11037349  0.77647168  1
  F  F7  1  0.05600637  0.88962651  0.22352832  1
  F  F8  1  0.32635078  0.67132471  0.54959214  1
  F  F9  1  0.67364922  0.32867529  0.45040786  1
  F  F10  1  0.82635078  0.32867529  0.95040786  1
  F  F11  1  0.17364922  0.67132471  0.04959214  1
loop_
_geom_bond_atom_site_label_1
_geom_bond_atom_site_label_2
_geom_bond_distance
_geom_bond_site_symmetry_2
F0 Tm0 2.137157 1_565
F0 K1 2.628271 1_655
F0 K2 2.637342 1_655
F0 K4 2.905220 1_555
F1 Tm0 2.137157 1_555
F1 K1 2.628271 1_555
F1 K3 2.637342 1_455
F1 K5 2.905220 1_555
F2 Tm1 2.137157 1_556
F2 K0 2.628271 1_556
F2 K4 2.637342 1_555
F2 K2 2.905220 1_555
F3 Tm1 2.137157 1_665
F3 K0 2.628271 1_555
F3 K5 2.637342 1_555
F3 K3 2.905220 1_555
F4 Tm0 2.128692 1_565
F4 K0 2.592777 1_556
F4 K4 2.624461 1_565
F4 K2 2.662855 1_555
F5 Tm0 2.128692 1_555
F5 K0 2.592777 1_555
F5 K5 2.624461 1_545
F5 K3 2.662855 1_555
F6 Tm1 2.128692 1_656
F6 K1 2.592777 1_655
F6 K2 2.624461 1_645
F6 K4 2.662855 1_555
F7 Tm1 2.128692 1_565
F7 K1 2.592777 1_555
F7 K3 2.624461 1_465
F7 K5 2.662855 1_555
F8 Tm0 2.126505 1_565
F8 K1 2.564580 1_555
F8 K4 2.641545 1_555
F8 K2 2.993939 1_555
F8 K5 3.090571 1_555
F9 Tm0 2.126505 1_555
F9 K1 2.564580 1_655
F9 K5 2.641545 1_555
F9 K3 2.993939 1_555
F9 K4 3.090571 1_555
F10 Tm1 2.126505 1_656
F10 K0 2.564580 1_556
F10 K2 2.641545 1_655
F10 K4 2.993939 1_555
F10 K3 3.090571 1_556
F11 Tm1 2.126505 1_565
F11 K0 2.564580 1_555
F11 K3 2.641545 1_455
F11 K5 2.993939 1_555
F11 K2 3.090571 1_554
