# generated using pymatgen
data_NaLaMg6
_symmetry_space_group_name_H-M   'P 1'
_cell_length_a   5.28756600
_cell_length_b   6.89099000
_cell_length_c   11.76852600
_cell_angle_alpha   90.00000000
_cell_angle_beta   90.00000000
_cell_angle_gamma   90.00000000
_symmetry_Int_Tables_number   1
_chemical_formula_structural   NaLaMg6
_chemical_formula_sum   'Na2 La2 Mg12'
_cell_volume   428.80465585
_cell_formula_units_Z   2
loop_
 _symmetry_equiv_pos_site_id
 _symmetry_equiv_pos_as_xyz
  1  'x, y, z'
loop_
 _atom_site_type_symbol
 _atom_site_label
 _atom_site_symmetry_multiplicity
 _atom_site_fract_x
 _atom_site_fract_y
 _atom_site_fract_z
 _atom_site_occupancy
  Na  Na0  1  0.50000000  0.50000000  0.83429400  1
  Na  Na1  1  0.50000000  0.00000000  0.33429400  1
  La  La0  1  0.50000000  0.50000000  0.33474600  1
  La  La1  1  0.50000000  0.00000000  0.83474600  1
  Mg  Mg0  1  0.50000000  0.25584400  0.08112900  1
  Mg  Mg1  1  0.50000000  0.74415600  0.08112900  1
  Mg  Mg2  1  0.00000000  0.25433700  0.92158500  1
  Mg  Mg3  1  0.00000000  0.74566300  0.92158500  1
  Mg  Mg4  1  0.00000000  0.50000000  0.16168000  1
  Mg  Mg5  1  0.00000000  0.50000000  0.66385700  1
  Mg  Mg6  1  0.50000000  0.75584400  0.58112900  1
  Mg  Mg7  1  0.50000000  0.24415600  0.58112900  1
  Mg  Mg8  1  0.00000000  0.75433700  0.42158500  1
  Mg  Mg9  1  0.00000000  0.24566300  0.42158500  1
  Mg  Mg10  1  0.00000000  0.00000000  0.66168000  1
  Mg  Mg11  1  0.00000000  0.00000000  0.16385700  1
loop_
_geom_bond_atom_site_label_1
_geom_bond_atom_site_label_2
_geom_bond_distance
_geom_bond_site_symmetry_2
La0 Mg8 3.332526 1_555
La0 Mg8 3.332526 1_655
La0 Mg9 3.332526 1_655
La0 Mg9 3.332526 1_555
La0 Mg4 3.337344 1_555
La0 Mg4 3.337344 1_655
La0 Mg6 3.393480 1_555
La0 Mg7 3.393480 1_555
La0 Mg1 3.426244 1_555
La0 Mg0 3.426244 1_555
La0 Na1 3.445499 1_555
La0 Na1 3.445499 1_565
La1 Mg2 3.332526 1_655
La1 Mg2 3.332526 1_555
La1 Mg3 3.332526 1_645
La1 Mg3 3.332526 1_545
La1 Mg10 3.337344 1_655
La1 Mg10 3.337344 1_555
La1 Mg0 3.393480 1_556
La1 Mg1 3.393480 1_546
La1 Mg7 3.426244 1_555
La1 Mg6 3.426244 1_545
La1 Na0 3.445499 1_555
La1 Na0 3.445499 1_545
Mg0 Mg2 3.242695 1_554
Mg0 Mg2 3.242695 1_654
Mg0 Mg4 3.273982 1_555
Mg0 Mg4 3.273982 1_655
Mg0 Mg11 3.323506 1_555
Mg0 Mg11 3.323506 1_655
Mg0 Na0 3.356945 1_554
Mg0 Mg1 3.364953 1_555
Mg0 Na1 3.461926 1_555
Mg0 Mg1 3.526037 1_545
Mg1 Mg3 3.242695 1_654
Mg1 Mg3 3.242695 1_554
Mg1 Mg4 3.273982 1_555
Mg1 Mg4 3.273982 1_655
Mg1 Mg11 3.323506 1_565
Mg1 Mg11 3.323506 1_665
Mg1 Na0 3.356945 1_554
Mg1 Na1 3.461926 1_565
Mg2 Mg4 3.293872 1_556
Mg2 Na0 3.303133 1_455
Mg2 Na0 3.303133 1_555
Mg2 Mg3 3.385723 1_555
Mg2 Mg5 3.473521 1_555
Mg2 Mg3 3.505267 1_545
Mg3 Mg4 3.293872 1_556
Mg3 Na0 3.303133 1_455
Mg3 Na0 3.303133 1_555
Mg3 Mg5 3.473521 1_555
Mg4 Mg8 3.525247 1_555
Mg4 Mg9 3.525247 1_555
Mg5 Na0 3.318553 1_555
Mg5 Na0 3.318553 1_455
Mg5 Mg6 3.323506 1_455
Mg5 Mg6 3.323506 1_555
Mg5 Mg7 3.323506 1_455
Mg5 Mg7 3.323506 1_555
Mg5 Mg8 3.346786 1_555
Mg5 Mg9 3.346786 1_555
Mg6 Mg8 3.242695 1_655
Mg6 Mg8 3.242695 1_555
Mg6 Na1 3.356945 1_565
Mg6 Mg7 3.364953 1_565
Mg6 Na0 3.461926 1_555
Mg6 Mg7 3.526037 1_555
Mg7 Mg9 3.242695 1_555
Mg7 Mg9 3.242695 1_655
Mg7 Na1 3.356945 1_555
Mg7 Na0 3.461926 1_555
Mg8 Na1 3.303133 1_465
Mg8 Na1 3.303133 1_565
Mg8 Mg9 3.385723 1_565
Mg8 Mg9 3.505267 1_555
Mg9 Na1 3.303133 1_555
Mg9 Na1 3.303133 1_455
Mg10 Mg7 3.273982 1_455
Mg10 Mg7 3.273982 1_555
Mg10 Mg6 3.273982 1_545
Mg10 Mg6 3.273982 1_445
Mg10 Mg9 3.293872 1_555
Mg10 Mg8 3.293872 1_545
Mg10 Mg5 3.445590 1_555
Mg10 Mg5 3.445590 1_545
Mg10 Mg3 3.525247 1_545
Mg10 Mg2 3.525247 1_555
Mg11 Na1 3.318553 1_455
Mg11 Na1 3.318553 1_555
Mg11 Mg3 3.346786 1_544
Mg11 Mg2 3.346786 1_554
Mg11 Mg4 3.445590 1_555
Mg11 Mg4 3.445590 1_545
Mg11 Mg9 3.473521 1_555
Mg11 Mg8 3.473521 1_545
