# generated using pymatgen
data_Er(VGa2)2
_symmetry_space_group_name_H-M   'P 1'
_cell_length_a   5.18911314
_cell_length_b   5.30971963
_cell_length_c   5.30972078
_cell_angle_alpha   76.18594209
_cell_angle_beta   60.74858330
_cell_angle_gamma   60.74858364
_symmetry_Int_Tables_number   1
_chemical_formula_structural   Er(VGa2)2
_chemical_formula_sum   'Er1 V2 Ga4'
_cell_volume   111.36565682
_cell_formula_units_Z   1
loop_
 _symmetry_equiv_pos_site_id
 _symmetry_equiv_pos_as_xyz
  1  'x, y, z'
loop_
 _atom_site_type_symbol
 _atom_site_label
 _atom_site_symmetry_multiplicity
 _atom_site_fract_x
 _atom_site_fract_y
 _atom_site_fract_z
 _atom_site_occupancy
  Er  Er0  1  -0.00000000  0.00000000  0.00000000  1
  V  V0  1  0.75000000  0.50000000  0.50000000  1
  V  V1  1  0.25000000  0.50000000  0.50000000  1
  Ga  Ga0  1  0.69674370  0.60651359  1.00000000  1
  Ga  Ga1  1  0.30325630  0.39348641  0.00000000  1
  Ga  Ga2  1  0.69674370  1.00000000  0.60651359  1
  Ga  Ga3  1  0.30325630  0.00000000  0.39348641  1
loop_
_geom_bond_atom_site_label_1
_geom_bond_atom_site_label_2
_geom_bond_distance
_geom_bond_site_symmetry_2
Er0 Ga0 2.809762 1_454
Er0 Ga1 2.809762 1_545
Er0 Ga3 2.809763 1_554
Er0 Ga2 2.809763 1_445
Er0 Ga1 3.170901 1_555
Er0 Ga0 3.170901 1_444
Er0 Ga3 3.170901 1_555
Er0 Ga2 3.170901 1_444
Er0 Ga0 3.170905 1_544
Er0 Ga1 3.170905 1_455
Er0 Ga2 3.170905 1_544
Er0 Ga3 3.170905 1_455
V0 V1 2.594557 1_555
V0 V1 2.594557 1_655
Ga0 Ga3 2.577946 1_566
Ga0 Ga2 2.577946 1_555
Ga0 V1 2.700326 1_655
Ga0 V0 2.700326 1_556
Ga0 V1 2.700328 1_556
Ga0 V0 2.700328 1_555
Ga0 Ga1 2.775901 1_656
Ga0 Ga1 2.775911 1_556
Ga1 Ga2 2.577946 1_544
Ga1 Ga3 2.577946 1_555
Ga1 V0 2.700326 1_455
Ga1 V1 2.700326 1_554
Ga1 V0 2.700328 1_554
Ga1 V1 2.700328 1_555
Ga2 V0 2.700325 1_565
Ga2 V1 2.700325 1_655
Ga2 V0 2.700328 1_555
Ga2 V1 2.700328 1_565
Ga2 Ga3 2.775901 1_665
Ga2 Ga3 2.775911 1_565
Ga3 V1 2.700325 1_545
Ga3 V0 2.700325 1_455
Ga3 V1 2.700328 1_555
Ga3 V0 2.700328 1_545
