# generated using pymatgen
data_PrGaGe2O7
_symmetry_space_group_name_H-M   'P 1'
_cell_length_a   6.68286700
_cell_length_b   7.39618200
_cell_length_c   13.08038615
_cell_angle_alpha   62.32849482
_cell_angle_beta   90.00000000
_cell_angle_gamma   90.00000000
_symmetry_Int_Tables_number   1
_chemical_formula_structural   PrGaGe2O7
_chemical_formula_sum   'Pr4 Ga4 Ge8 O28'
_cell_volume   572.58595478
_cell_formula_units_Z   4
loop_
 _symmetry_equiv_pos_site_id
 _symmetry_equiv_pos_as_xyz
  1  'x, y, z'
loop_
 _atom_site_type_symbol
 _atom_site_label
 _atom_site_symmetry_multiplicity
 _atom_site_fract_x
 _atom_site_fract_y
 _atom_site_fract_z
 _atom_site_occupancy
  Pr  Pr0  1  0.35355600  0.73919000  0.52548300  1
  Pr  Pr1  1  0.64644400  0.26081000  0.47451700  1
  Pr  Pr2  1  0.85355600  0.26081000  0.97451700  1
  Pr  Pr3  1  0.14644400  0.73919000  0.02548300  1
  Ga  Ga0  1  0.39938900  0.71494500  0.26852400  1
  Ga  Ga1  1  0.60061100  0.28505500  0.73147600  1
  Ga  Ga2  1  0.89938900  0.28505500  0.23147600  1
  Ga  Ga3  1  0.10061100  0.71494500  0.76852400  1
  Ge  Ge0  1  0.65858000  0.71256400  0.04667900  1
  Ge  Ge1  1  0.34142000  0.28743600  0.95332100  1
  Ge  Ge2  1  0.15858000  0.28743600  0.45332100  1
  Ge  Ge3  1  0.84142000  0.71256400  0.54667900  1
  Ge  Ge4  1  0.91128500  0.80036300  0.28206300  1
  Ge  Ge5  1  0.08871500  0.19963700  0.71793700  1
  Ge  Ge6  1  0.41128500  0.19963700  0.21793700  1
  Ge  Ge7  1  0.58871500  0.80036300  0.78206300  1
  O  O0  1  0.37346500  0.93289800  0.30431000  1
  O  O1  1  0.62653500  0.06710200  0.69569000  1
  O  O2  1  0.87346500  0.06710200  0.19569000  1
  O  O3  1  0.12653500  0.93289800  0.80431000  1
  O  O4  1  0.82363700  0.90757800  0.02252800  1
  O  O5  1  0.17636300  0.09242200  0.97747200  1
  O  O6  1  0.32363700  0.09242200  0.47747200  1
  O  O7  1  0.67636300  0.90757800  0.52252800  1
  O  O8  1  0.60902700  0.27627900  0.27874700  1
  O  O9  1  0.39097300  0.72372100  0.72125300  1
  O  O10  1  0.10902700  0.72372100  0.22125300  1
  O  O11  1  0.89097300  0.27627900  0.77874700  1
  O  O12  1  0.99703400  0.74856000  0.42612700  1
  O  O13  1  0.00296600  0.25144000  0.57387300  1
  O  O14  1  0.49703400  0.25144000  0.07387300  1
  O  O15  1  0.50296600  0.74856000  0.92612700  1
  O  O16  1  0.44875400  0.70330800  0.13061300  1
  O  O17  1  0.55124600  0.29669200  0.86938700  1
  O  O18  1  0.94875400  0.29669200  0.36938700  1
  O  O19  1  0.05124600  0.70330800  0.63061300  1
  O  O20  1  0.83827400  0.51009800  0.08097800  1
  O  O21  1  0.16172600  0.48990200  0.91902200  1
  O  O22  1  0.33827400  0.48990200  0.41902200  1
  O  O23  1  0.66172600  0.51009800  0.58097800  1
  O  O24  1  0.68774000  0.65641800  0.31471700  1
  O  O25  1  0.31226000  0.34358200  0.68528300  1
  O  O26  1  0.18774000  0.34358200  0.18528300  1
  O  O27  1  0.81226000  0.65641800  0.81471700  1
loop_
_geom_bond_atom_site_label_1
_geom_bond_atom_site_label_2
_geom_bond_distance
_geom_bond_site_symmetry_2
Ga0 O16 1.874730 1_555
Ga0 O0 1.883770 1_555
Ga0 O22 1.941439 1_555
Ga0 O24 2.005719 1_555
Ga0 O10 2.028450 1_555
Ga1 O17 1.874730 1_555
Ga1 O1 1.883770 1_555
Ga1 O23 1.941439 1_555
Ga1 O25 2.005719 1_555
Ga1 O11 2.028450 1_555
Ga2 O18 1.874730 1_555
Ga2 O2 1.883770 1_555
Ga2 O20 1.941439 1_555
Ga2 O26 2.005719 1_655
Ga2 O8 2.028450 1_555
Ga3 O19 1.874730 1_555
Ga3 O3 1.883770 1_555
Ga3 O21 1.941439 1_555
Ga3 O27 2.005719 1_455
Ga3 O9 2.028450 1_555
Ge0 O4 1.724447 1_555
Ge0 O16 1.762530 1_555
Ge0 O15 1.802486 1_554
Ge0 O20 1.806047 1_555
Ge1 O5 1.724447 1_555
Ge1 O17 1.762530 1_555
Ge1 O14 1.802486 1_556
Ge1 O21 1.806047 1_555
Ge2 O6 1.724447 1_555
Ge2 O18 1.762530 1_455
Ge2 O13 1.802486 1_555
Ge2 O22 1.806047 1_555
Ge3 O7 1.724447 1_555
Ge3 O19 1.762530 1_655
Ge3 O12 1.802486 1_555
Ge3 O23 1.806047 1_555
Ge4 O10 1.766104 1_655
Ge4 O24 1.767864 1_555
Ge4 O2 1.778266 1_565
Ge4 O12 1.831829 1_555
Ge5 O11 1.766104 1_455
Ge5 O25 1.767864 1_555
Ge5 O3 1.778266 1_545
Ge5 O13 1.831829 1_555
Ge6 O8 1.766104 1_555
Ge6 O26 1.767864 1_555
Ge6 O0 1.778266 1_545
Ge6 O14 1.831829 1_555
Ge7 O9 1.766104 1_555
Ge7 O27 1.767864 1_555
Ge7 O1 1.778266 1_565
Ge7 O15 1.831829 1_555
O0 Pr0 2.567139 1_555
O1 Pr1 2.567139 1_555
O2 Pr2 2.567139 1_554
O3 Pr3 2.567139 1_556
O4 Pr2 2.394993 1_564
O4 Pr3 2.482280 1_655
O5 Pr3 2.394993 1_546
O5 Pr2 2.482280 1_455
O6 Pr0 2.394993 1_545
O6 Pr1 2.482280 1_555
O7 Pr1 2.394993 1_565
O7 Pr0 2.482280 1_555
O8 Pr1 2.522087 1_555
O9 Pr0 2.522087 1_555
O10 Pr3 2.522087 1_555
O11 Pr2 2.522087 1_555
O12 Pr0 2.699422 1_655
O13 Pr1 2.699422 1_455
O14 Pr2 2.699422 1_554
O15 Pr3 2.699422 1_556
O16 Pr3 2.388322 1_555
O17 Pr2 2.388322 1_555
O18 Pr1 2.388322 1_555
O19 Pr0 2.388322 1_555
O20 Pr3 2.548905 1_655
O20 Pr2 2.780990 1_554
O21 Pr2 2.548905 1_455
O21 Pr3 2.780990 1_556
O22 Pr1 2.548905 1_555
O22 Pr0 2.780990 1_555
O23 Pr0 2.548905 1_555
O23 Pr1 2.780990 1_555
O24 Pr1 2.706678 1_555
O25 Pr0 2.706678 1_555
O26 Pr3 2.706678 1_555
O27 Pr2 2.706678 1_555
