# generated using pymatgen
data_Sr4CeMn5O15
_symmetry_space_group_name_H-M   'P 1'
_cell_length_a   8.72063576
_cell_length_b   8.72063576
_cell_length_c   6.71430811
_cell_angle_alpha   75.10047743
_cell_angle_beta   75.10047743
_cell_angle_gamma   36.81981357
_symmetry_Int_Tables_number   1
_chemical_formula_structural   Sr4CeMn5O15
_chemical_formula_sum   'Sr4 Ce1 Mn5 O15'
_cell_volume   294.56388577
_cell_formula_units_Z   1
loop_
 _symmetry_equiv_pos_site_id
 _symmetry_equiv_pos_as_xyz
  1  'x, y, z'
loop_
 _atom_site_type_symbol
 _atom_site_label
 _atom_site_symmetry_multiplicity
 _atom_site_fract_x
 _atom_site_fract_y
 _atom_site_fract_z
 _atom_site_occupancy
  Sr  Sr0  1  0.39924200  0.39924200  0.39769900  1
  Sr  Sr1  1  0.80139200  0.80139200  0.79983200  1
  Sr  Sr2  1  0.19860800  0.19860800  0.20016800  1
  Sr  Sr3  1  0.60075800  0.60075800  0.60230100  1
  Ce  Ce0  1  0.00000000  0.00000000  0.00000000  1
  Mn  Mn0  1  0.00000000  0.00000000  0.50000000  1
  Mn  Mn1  1  0.20045400  0.20045400  0.69850000  1
  Mn  Mn2  1  0.60008000  0.60008000  0.10016400  1
  Mn  Mn3  1  0.39992000  0.39992000  0.89983600  1
  Mn  Mn4  1  0.79954600  0.79954600  0.30150000  1
  O  O0  1  0.71165900  0.19422700  0.71143000  1
  O  O1  1  0.89942600  0.37957400  0.90451800  1
  O  O2  1  0.28834100  0.80577300  0.28857000  1
  O  O3  1  0.10057400  0.62042600  0.09548200  1
  O  O4  1  0.50000000  0.00000000  0.50000000  1
  O  O5  1  0.50000000  0.50000000  0.00000000  1
  O  O6  1  0.70209000  0.70209000  0.18758700  1
  O  O7  1  0.09605800  0.09605800  0.61137600  1
  O  O8  1  0.90394200  0.90394200  0.38862400  1
  O  O9  1  0.29791000  0.29791000  0.81241300  1
  O  O10  1  0.00000000  0.50000000  0.50000000  1
  O  O11  1  0.19422700  0.71165900  0.71143000  1
  O  O12  1  0.62042600  0.10057400  0.09548200  1
  O  O13  1  0.37957400  0.89942600  0.90451800  1
  O  O14  1  0.80577300  0.28834100  0.28857000  1
loop_
_geom_bond_atom_site_label_1
_geom_bond_atom_site_label_2
_geom_bond_distance
_geom_bond_site_symmetry_2
Ce0 O13 2.585899 1_544
Ce0 O1 2.585899 1_454
Ce0 O3 2.585899 1_545
Ce0 O12 2.585899 1_455
Ce0 O14 2.635264 1_455
Ce0 O2 2.635264 1_545
Ce0 O11 2.635264 1_544
Ce0 O0 2.635264 1_454
Ce0 O8 2.662233 1_445
Ce0 O7 2.662233 1_554
Ce0 O5 2.754091 1_455
Ce0 O5 2.754091 1_545
Mn0 O7 1.931433 1_555
Mn0 O8 1.931433 1_445
Mn0 O14 1.946504 1_455
Mn0 O2 1.946504 1_545
Mn0 O11 1.946504 1_545
Mn0 O0 1.946504 1_455
Mn1 O4 1.937157 1_555
Mn1 O10 1.937157 1_555
Mn1 O9 1.963302 1_555
Mn1 O7 1.968397 1_555
Mn1 O1 1.980743 1_455
Mn1 O13 1.980743 1_545
Mn2 O6 1.931680 1_555
Mn2 O13 1.933014 1_554
Mn2 O1 1.933014 1_554
Mn2 O5 1.949089 1_555
Mn2 O2 1.949199 1_555
Mn2 O14 1.949199 1_555
Mn3 O9 1.931680 1_555
Mn3 O12 1.933014 1_556
Mn3 O3 1.933014 1_556
Mn3 O5 1.949089 1_556
Mn3 O11 1.949199 1_555
Mn3 O0 1.949199 1_555
Mn4 O10 1.937157 1_655
Mn4 O4 1.937157 1_565
Mn4 O6 1.963302 1_555
Mn4 O8 1.968397 1_555
Mn4 O3 1.980743 1_655
Mn4 O12 1.980743 1_565
O0 Sr3 2.753150 1_555
O0 Sr1 2.757122 1_545
O0 Sr0 2.876180 1_555
O1 Sr3 2.698803 1_555
O1 Sr2 2.774601 1_656
O1 Sr1 2.949712 1_555
O2 Sr0 2.753150 1_555
O2 Sr2 2.757122 1_565
O2 Sr3 2.876180 1_555
O3 Sr0 2.698803 1_555
O3 Sr1 2.774601 1_454
O3 Sr2 2.949712 1_555
O4 Sr3 2.747417 1_545
O4 Sr0 2.747417 1_555
O4 Sr1 2.756871 1_545
O4 Sr2 2.756871 1_555
O5 Sr0 2.738147 1_555
O5 Sr3 2.738147 1_554
O6 Sr1 2.675799 1_554
O6 Sr2 2.755510 1_565
O6 Sr2 2.755510 1_655
O6 Sr3 2.834574 1_555
O7 Sr3 2.755397 1_455
O7 Sr3 2.755397 1_545
O7 Sr2 2.821969 1_555
O8 Sr0 2.755397 1_655
O8 Sr0 2.755397 1_565
O8 Sr1 2.821969 1_555
O9 Sr2 2.675799 1_556
O9 Sr1 2.755510 1_455
O9 Sr1 2.755510 1_545
O9 Sr0 2.834574 1_555
O10 Sr3 2.747417 1_455
O10 Sr0 2.747417 1_555
O10 Sr1 2.756871 1_455
O10 Sr2 2.756871 1_555
O11 Sr3 2.753150 1_555
O11 Sr1 2.757122 1_455
O11 Sr0 2.876180 1_555
O12 Sr0 2.698803 1_555
O12 Sr1 2.774601 1_544
O12 Sr2 2.949712 1_555
O13 Sr3 2.698803 1_555
O13 Sr2 2.774601 1_566
O13 Sr1 2.949712 1_555
O14 Sr0 2.753150 1_555
O14 Sr2 2.757122 1_655
O14 Sr3 2.876180 1_555
