# generated using pymatgen
data_Ti2C
_symmetry_space_group_name_H-M   'P 1'
_cell_length_a   6.09879390
_cell_length_b   6.09879312
_cell_length_c   6.09879167
_cell_angle_alpha   59.99999118
_cell_angle_beta   59.99999544
_cell_angle_gamma   59.99999588
_symmetry_Int_Tables_number   1
_chemical_formula_structural   Ti2C
_chemical_formula_sum   'Ti8 C4'
_cell_volume   160.40451986
_cell_formula_units_Z   4
loop_
 _symmetry_equiv_pos_site_id
 _symmetry_equiv_pos_as_xyz
  1  'x, y, z'
loop_
 _atom_site_type_symbol
 _atom_site_label
 _atom_site_symmetry_multiplicity
 _atom_site_fract_x
 _atom_site_fract_y
 _atom_site_fract_z
 _atom_site_occupancy
  Ti  Ti0  1  0.76818914  0.24393629  0.24393629  1
  Ti  Ti1  1  0.24393629  0.76818914  0.24393629  1
  Ti  Ti2  1  0.24393629  0.24393629  0.76818914  1
  Ti  Ti3  1  0.75606371  0.75606371  0.75606371  1
  Ti  Ti4  1  0.75606371  0.23181086  0.75606371  1
  Ti  Ti5  1  0.23181086  0.75606371  0.75606371  1
  Ti  Ti6  1  0.75606371  0.75606371  0.23181086  1
  Ti  Ti7  1  0.24393629  0.24393629  0.24393629  1
  C  C0  1  0.00000000  0.50000000  -0.00000000  1
  C  C1  1  0.50000000  0.00000000  -0.00000000  1
  C  C2  1  0.00000000  0.00000000  0.50000000  1
  C  C3  1  0.00000000  0.00000000  -0.00000000  1
loop_
_geom_bond_atom_site_label_1
_geom_bond_atom_site_label_2
_geom_bond_distance
_geom_bond_site_symmetry_2
C0 Ti3 2.105249 1_454
C0 Ti7 2.105249 1_555
C0 Ti2 2.105257 1_554
C0 Ti6 2.105257 1_455
C0 Ti0 2.105257 1_455
C0 Ti5 2.105257 1_554
C1 Ti3 2.105249 1_544
C1 Ti7 2.105249 1_555
C1 Ti6 2.105257 1_545
C1 Ti2 2.105257 1_554
C1 Ti1 2.105258 1_545
C1 Ti4 2.105258 1_554
C2 Ti3 2.105249 1_445
C2 Ti7 2.105249 1_555
C2 Ti0 2.105257 1_455
C2 Ti5 2.105257 1_545
C2 Ti1 2.105257 1_545
C2 Ti4 2.105257 1_455
C3 Ti5 2.105248 1_544
C3 Ti0 2.105248 1_455
C3 Ti4 2.105248 1_454
C3 Ti1 2.105248 1_545
C3 Ti6 2.105249 1_445
C3 Ti2 2.105249 1_554
