# generated using pymatgen
data_Dy(Fe5Si)2
_symmetry_space_group_name_H-M   'P 1'
_cell_length_a   4.75029100
_cell_length_b   6.34070049
_cell_length_c   6.34070049
_cell_angle_alpha   98.35912989
_cell_angle_beta   111.99879922
_cell_angle_gamma   68.00120078
_symmetry_Int_Tables_number   1
_chemical_formula_structural   Dy(Fe5Si)2
_chemical_formula_sum   'Dy1 Fe10 Si2'
_cell_volume   164.18226427
_cell_formula_units_Z   1
loop_
 _symmetry_equiv_pos_site_id
 _symmetry_equiv_pos_as_xyz
  1  'x, y, z'
loop_
 _atom_site_type_symbol
 _atom_site_label
 _atom_site_symmetry_multiplicity
 _atom_site_fract_x
 _atom_site_fract_y
 _atom_site_fract_z
 _atom_site_occupancy
  Dy  Dy0  1  0.00000000  0.00000000  0.00000000  1
  Fe  Fe0  1  0.63849900  0.36150100  0.63849900  1
  Fe  Fe1  1  0.36150100  0.63849900  0.36150100  1
  Fe  Fe2  1  0.00000000  0.35444800  0.35444800  1
  Fe  Fe3  1  0.00000000  0.64555200  0.64555200  1
  Fe  Fe4  1  0.50000000  0.79080700  0.79080700  1
  Fe  Fe5  1  0.50000000  0.20919300  0.20919300  1
  Fe  Fe6  1  0.50000000  0.00000000  0.50000000  1
  Fe  Fe7  1  0.00000000  0.00000000  0.50000000  1
  Fe  Fe8  1  0.50000000  0.50000000  0.00000000  1
  Fe  Fe9  1  0.00000000  0.50000000  0.00000000  1
  Si  Si0  1  0.73528500  0.76471500  0.23528500  1
  Si  Si1  1  0.26471500  0.23528500  0.76471500  1
loop_
_geom_bond_atom_site_label_1
_geom_bond_atom_site_label_2
_geom_bond_distance
_geom_bond_site_symmetry_2
Dy0 Fe3 2.938272 1_544
Dy0 Fe2 2.938272 1_555
Dy0 Fe5 2.940849 1_555
Dy0 Fe4 2.940849 1_544
Dy0 Fe5 2.940849 1_455
Dy0 Fe4 2.940849 1_444
Dy0 Fe0 3.014436 1_454
Dy0 Fe1 3.014436 1_545
Dy0 Si1 3.080684 1_554
Dy0 Si0 3.080684 1_445
Dy0 Si1 3.080684 1_454
Dy0 Si0 3.080684 1_545
Dy0 Fe7 3.170350 1_554
Dy0 Fe7 3.170350 1_555
Dy0 Fe9 3.170350 1_545
Dy0 Fe9 3.170350 1_555
Dy0 Fe8 3.170350 1_545
Dy0 Fe6 3.170350 1_555
Dy0 Fe6 3.170350 1_454
Dy0 Fe8 3.170350 1_455
Fe0 Fe1 2.309794 1_555
Fe0 Fe8 2.563154 1_556
Fe0 Fe6 2.563154 1_555
Fe0 Fe9 2.563154 1_656
Fe0 Fe7 2.563154 1_655
Fe0 Si1 2.597887 1_555
Fe0 Si1 2.597887 1_655
Fe0 Fe4 2.673068 1_555
Fe0 Fe5 2.673068 1_555
Fe0 Fe2 2.903609 1_655
Fe0 Fe3 2.903609 1_655
Fe0 Fe2 2.903610 1_555
Fe0 Fe3 2.903610 1_555
Fe1 Fe6 2.563154 1_565
Fe1 Fe8 2.563154 1_555
Fe1 Fe7 2.563154 1_565
Fe1 Fe9 2.563154 1_555
Fe1 Si0 2.597887 1_555
Fe1 Si0 2.597887 1_455
Fe1 Fe4 2.673068 1_555
Fe1 Fe5 2.673068 1_555
Fe1 Fe2 2.903609 1_555
Fe1 Fe3 2.903609 1_555
Fe1 Fe3 2.903610 1_655
Fe1 Fe2 2.903610 1_655
Fe2 Fe3 2.413168 1_555
Fe2 Si1 2.515617 1_555
Fe2 Si0 2.515617 1_455
Fe2 Fe7 2.550656 1_555
Fe2 Fe9 2.550656 1_555
Fe2 Fe8 2.550657 1_455
Fe2 Fe6 2.550657 1_555
Fe2 Fe5 2.662936 1_455
Fe2 Fe5 2.662936 1_555
Fe3 Si1 2.515617 1_555
Fe3 Si0 2.515617 1_455
Fe3 Fe9 2.550656 1_556
Fe3 Fe7 2.550656 1_565
Fe3 Fe8 2.550657 1_556
Fe3 Fe6 2.550657 1_465
Fe3 Fe4 2.662936 1_455
Fe3 Fe4 2.662936 1_555
Fe4 Fe8 2.422931 1_556
Fe4 Fe6 2.422931 1_565
Fe4 Fe9 2.422931 1_656
Fe4 Fe7 2.422931 1_565
Fe4 Si0 2.618506 1_556
Fe4 Si1 2.618506 1_565
Fe5 Fe8 2.422931 1_555
Fe5 Fe6 2.422931 1_555
Fe5 Fe9 2.422931 1_555
Fe5 Fe7 2.422931 1_655
Fe5 Si1 2.618506 1_554
Fe5 Si0 2.618506 1_545
Fe6 Fe7 2.375145 1_555
Fe6 Fe7 2.375145 1_655
Fe6 Si0 2.391724 1_545
Fe6 Si1 2.391724 1_555
Fe7 Si0 2.391724 1_445
Fe7 Si1 2.391724 1_555
Fe8 Fe9 2.375145 1_655
Fe8 Fe9 2.375145 1_555
Fe8 Si0 2.391724 1_555
Fe8 Si1 2.391724 1_554
Fe9 Si1 2.391724 1_554
Fe9 Si0 2.391724 1_455
