# generated using pymatgen
data_U
_symmetry_space_group_name_H-M   'P 1'
_cell_length_a   5.04314300
_cell_length_b   5.82197200
_cell_length_c   6.39497306
_cell_angle_alpha   117.07774558
_cell_angle_beta   90.00000000
_cell_angle_gamma   90.00000000
_symmetry_Int_Tables_number   1
_chemical_formula_structural   U
_chemical_formula_sum   U8
_cell_volume   167.18227510
_cell_formula_units_Z   8
loop_
 _symmetry_equiv_pos_site_id
 _symmetry_equiv_pos_as_xyz
  1  'x, y, z'
loop_
 _atom_site_type_symbol
 _atom_site_label
 _atom_site_symmetry_multiplicity
 _atom_site_fract_x
 _atom_site_fract_y
 _atom_site_fract_z
 _atom_site_occupancy
  U  U0  1  0.00000000  0.21758900  0.00000000  1
  U  U1  1  0.00000000  0.78241100  0.00000000  1
  U  U2  1  0.50000000  0.40336700  0.24749600  1
  U  U3  1  0.50000000  0.15587200  0.75250400  1
  U  U4  1  0.50000000  0.59663300  0.75250400  1
  U  U5  1  0.50000000  0.84412800  0.24749600  1
  U  U6  1  0.00000000  0.50000000  0.50000000  1
  U  U7  1  0.00000000  0.00000000  0.50000000  1
loop_
_geom_bond_atom_site_label_1
_geom_bond_atom_site_label_2
_geom_bond_distance
_geom_bond_site_symmetry_2
U0 U1 2.533594 1_545
U0 U7 2.853255 1_554
U0 U6 2.853255 1_555
U0 U2 2.911137 1_455
U0 U2 2.911137 1_555
U0 U3 2.911138 1_454
U0 U3 2.911138 1_554
U0 U1 3.288378 1_555
U1 U6 2.853255 1_554
U1 U7 2.853255 1_565
U1 U4 2.911137 1_454
U1 U4 2.911137 1_554
U1 U5 2.911138 1_555
U1 U5 2.911138 1_455
U2 U5 2.566098 1_555
U2 U3 2.818493 1_554
U2 U4 2.896133 1_555
U2 U6 2.907786 1_555
U2 U6 2.907786 1_655
U2 U5 3.255874 1_545
U3 U4 2.566098 1_555
U3 U5 2.896134 1_545
U3 U7 2.907786 1_555
U3 U7 2.907786 1_655
U3 U4 3.255874 1_545
U4 U5 2.818493 1_556
U4 U6 2.907786 1_655
U4 U6 2.907786 1_555
U5 U7 2.907786 1_565
U5 U7 2.907786 1_665
U6 U7 2.910986 1_555
U6 U7 2.910986 1_565
