# generated using pymatgen
data_Ba2SnS4O11
_symmetry_space_group_name_H-M   'P 1'
_cell_length_a   7.29925860
_cell_length_b   5.87376524
_cell_length_c   17.29369784
_cell_angle_alpha   102.14431908
_cell_angle_beta   91.87935208
_cell_angle_gamma   108.01395432
_symmetry_Int_Tables_number   1
_chemical_formula_structural   Ba2SnS4O11
_chemical_formula_sum   'Ba4 Sn2 S8 O22'
_cell_volume   685.49861328
_cell_formula_units_Z   2
loop_
 _symmetry_equiv_pos_site_id
 _symmetry_equiv_pos_as_xyz
  1  'x, y, z'
loop_
 _atom_site_type_symbol
 _atom_site_label
 _atom_site_symmetry_multiplicity
 _atom_site_fract_x
 _atom_site_fract_y
 _atom_site_fract_z
 _atom_site_occupancy
  Ba  Ba0  1  0.95939700  0.65754300  0.37301000  1
  Ba  Ba1  1  0.04060300  0.34245700  0.62699000  1
  Ba  Ba2  1  0.80512900  0.47236900  0.07729300  1
  Ba  Ba3  1  0.19487100  0.52763100  0.92270700  1
  Sn  Sn0  1  0.36043700  0.85019600  0.17449900  1
  Sn  Sn1  1  0.63956300  0.14980400  0.82550100  1
  S  S0  1  0.30399100  0.38999400  0.45137500  1
  S  S1  1  0.69600900  0.61000600  0.54862500  1
  S  S2  1  0.99318600  0.07087800  0.20871900  1
  S  S3  1  0.00681400  0.92912200  0.79128100  1
  S  S4  1  0.28609300  0.24158400  0.08138900  1
  S  S5  1  0.71390700  0.75841600  0.91861100  1
  S  S6  1  0.47829300  0.63354500  0.34485200  1
  S  S7  1  0.52170700  0.36645500  0.65514800  1
  O  O0  1  0.57623700  0.47197400  0.29803100  1
  O  O1  1  0.42376300  0.52802600  0.70196900  1
  O  O2  1  0.21555000  0.57251700  0.49467700  1
  O  O3  1  0.78445000  0.42748300  0.50532300  1
  O  O4  1  0.01382300  0.85870900  0.24697500  1
  O  O5  1  0.98617700  0.14129100  0.75302500  1
  O  O6  1  0.40169800  0.47734000  0.14514400  1
  O  O7  1  0.59830200  0.52266000  0.85485600  1
  O  O8  1  0.60900600  0.81119800  0.41422500  1
  O  O9  1  0.39099400  0.18880200  0.58577500  1
  O  O10  1  0.10051300  0.25971800  0.05071300  1
  O  O11  1  0.89948700  0.74028200  0.94928700  1
  O  O12  1  0.97666800  0.27691900  0.27623000  1
  O  O13  1  0.02333200  0.72308100  0.72377000  1
  O  O14  1  0.84043300  0.86123300  0.56963100  1
  O  O15  1  0.15956700  0.13876700  0.43036900  1
  O  O16  1  0.41398500  0.21712400  0.01649100  1
  O  O17  1  0.58601500  0.78287600  0.98350900  1
  O  O18  1  0.79940900  0.96248200  0.15680000  1
  O  O19  1  0.20059100  0.03751800  0.84320000  1
  O  O20  1  0.18449300  0.74869000  0.07557300  1
  O  O21  1  0.81550700  0.25131000  0.92442700  1
loop_
_geom_bond_atom_site_label_1
_geom_bond_atom_site_label_2
_geom_bond_distance
_geom_bond_site_symmetry_2
Ba0 O12 2.535592 1_555
Ba0 O4 2.674843 1_655
Ba0 O15 2.698015 1_665
Ba0 O0 2.823725 1_555
Ba0 O2 2.988991 1_655
Ba0 O3 3.019581 1_555
Ba0 O8 3.023321 1_555
Ba1 O13 2.535592 1_555
Ba1 O5 2.674843 1_455
Ba1 O14 2.698015 1_445
Ba1 O1 2.823725 1_555
Ba1 O3 2.988991 1_455
Ba1 O2 3.019581 1_555
Ba1 O9 3.023321 1_555
Ba2 O21 2.703725 1_554
Ba2 O20 2.747530 1_655
Ba2 O10 2.812338 1_655
Ba2 O16 2.827917 1_555
Ba2 O18 2.931295 1_555
Ba2 O11 2.957464 1_554
Ba2 O6 3.211642 1_555
Ba2 O4 3.293622 1_655
Ba2 O17 3.375423 1_554
Ba2 O18 3.538518 1_545
Ba3 O20 2.703725 1_556
Ba3 O21 2.747530 1_455
Ba3 O11 2.812338 1_455
Ba3 O17 2.827917 1_555
Ba3 O19 2.931295 1_555
Ba3 O10 2.957464 1_556
Ba3 O7 3.211642 1_555
Ba3 O5 3.293622 1_455
Ba3 O16 3.375423 1_556
Ba3 O19 3.538518 1_565
O0 S6 1.483806 1_555
O1 S7 1.483806 1_555
O2 S0 1.499628 1_555
O3 S1 1.499628 1_555
O4 S2 1.571609 1_465
O5 S3 1.571609 1_645
O6 S4 1.555360 1_555
O6 Sn0 2.257214 1_555
O7 S5 1.555360 1_555
O7 Sn1 2.257214 1_555
O8 S6 1.490277 1_555
O9 S7 1.490277 1_555
O10 S4 1.481077 1_555
O11 S5 1.481077 1_555
O12 S2 1.532082 1_555
O13 S3 1.532082 1_555
O14 S1 1.485938 1_555
O15 S0 1.485938 1_555
O16 S4 1.495172 1_555
O17 S5 1.495172 1_555
O18 S2 1.526873 1_565
O19 S3 1.526873 1_545
O20 Sn0 1.970981 1_555
O21 Sn1 1.970981 1_555
