# generated using pymatgen
data_Nd12(ReC3)5
_symmetry_space_group_name_H-M   'P 1'
_cell_length_a   11.00666389
_cell_length_b   11.00666389
_cell_length_c   5.34990412
_cell_angle_alpha   90.00000000
_cell_angle_beta   90.00000000
_cell_angle_gamma   120.00000308
_symmetry_Int_Tables_number   1
_chemical_formula_structural   Nd12(ReC3)5
_chemical_formula_sum   'Nd12 Re5 C15'
_cell_volume   561.29093262
_cell_formula_units_Z   1
loop_
 _symmetry_equiv_pos_site_id
 _symmetry_equiv_pos_as_xyz
  1  'x, y, z'
loop_
 _atom_site_type_symbol
 _atom_site_label
 _atom_site_symmetry_multiplicity
 _atom_site_fract_x
 _atom_site_fract_y
 _atom_site_fract_z
 _atom_site_occupancy
  Nd  Nd0  1  0.72954217  0.18684073  -0.00000000  1
  Nd  Nd1  1  0.81315927  0.54270144  0.00000000  1
  Nd  Nd2  1  0.45729856  0.27045783  -0.00000000  1
  Nd  Nd3  1  0.18684073  0.72954217  0.00000000  1
  Nd  Nd4  1  0.54270144  0.81315927  0.00000000  1
  Nd  Nd5  1  0.27045783  0.45729856  -0.00000000  1
  Nd  Nd6  1  0.57754124  0.57754124  0.50000000  1
  Nd  Nd7  1  0.42245876  0.00000000  0.50000000  1
  Nd  Nd8  1  0.00000000  0.42245876  0.50000000  1
  Nd  Nd9  1  0.20560368  0.20560368  0.50000000  1
  Nd  Nd10  1  0.79439632  1.00000000  0.50000000  1
  Nd  Nd11  1  1.00000000  0.79439632  0.50000000  1
  Re  Re0  1  0.84715541  0.84715541  -0.00000000  1
  Re  Re1  1  0.15284459  1.00000000  0.00000000  1
  Re  Re2  1  1.00000000  0.15284459  0.00000000  1
  Re  Re3  1  0.66666700  0.33333300  0.50000000  1
  Re  Re4  1  0.33333300  0.66666700  0.50000000  1
  C  C0  1  0.71452956  0.18972584  0.50000000  1
  C  C1  1  0.81027416  0.52480372  0.50000000  1
  C  C2  1  0.47519628  0.28547044  0.50000000  1
  C  C3  1  0.18972584  0.71452956  0.50000000  1
  C  C4  1  0.52480372  0.81027416  0.50000000  1
  C  C5  1  0.28547044  0.47519628  0.50000000  1
  C  C6  1  0.67204382  0.67204382  0.00000000  1
  C  C7  1  0.32795618  1.00000000  -0.00000000  1
  C  C8  1  1.00000000  0.32795618  -0.00000000  1
  C  C9  1  0.54927669  0.54927669  0.00000000  1
  C  C10  1  0.45072331  -0.00000000  0.00000000  1
  C  C11  1  -0.00000000  0.45072331  -0.00000000  1
  C  C12  1  0.20678878  0.20678878  -0.00000000  1
  C  C13  1  0.79321122  0.00000000  0.00000000  1
  C  C14  1  0.00000000  0.79321122  0.00000000  1
loop_
_geom_bond_atom_site_label_1
_geom_bond_atom_site_label_2
_geom_bond_distance
_geom_bond_site_symmetry_2
C0 Re3 1.899638 1_555
C0 Nd10 2.639934 1_545
C0 Nd0 2.681218 1_555
C0 Nd0 2.681218 1_556
C0 Nd7 2.825260 1_555
C0 Nd8 2.895811 1_655
C1 Re3 1.899646 1_555
C1 Nd11 2.639934 1_555
C1 Nd1 2.681218 1_555
C1 Nd1 2.681218 1_556
C1 Nd8 2.825260 1_655
C1 Nd6 2.895812 1_555
C2 Re3 1.899649 1_555
C2 Nd9 2.639934 1_555
C2 Nd2 2.681218 1_555
C2 Nd2 2.681218 1_556
C2 Nd6 2.825260 1_555
C2 Nd7 2.895812 1_555
C3 Re4 1.899638 1_555
C3 Nd11 2.639934 1_455
C3 Nd3 2.681218 1_556
C3 Nd3 2.681218 1_555
C3 Nd8 2.825260 1_555
C3 Nd7 2.895811 1_565
C4 Re4 1.899646 1_555
C4 Nd10 2.639934 1_555
C4 Nd4 2.681218 1_555
C4 Nd4 2.681218 1_556
C4 Nd7 2.825260 1_565
C4 Nd6 2.895812 1_555
C5 Re4 1.899649 1_555
C5 Nd9 2.639934 1_555
C5 Nd5 2.681218 1_556
C5 Nd5 2.681218 1_555
C5 Nd6 2.825260 1_555
C5 Nd8 2.895812 1_555
C6 C9 1.351256 1_555
C6 Re0 1.927394 1_555
C6 Nd1 2.578832 1_555
C6 Nd4 2.578832 1_555
C6 Nd6 2.870069 1_554
C6 Nd6 2.870069 1_555
C7 Re1 1.927394 1_555
C7 Nd3 2.578832 1_555
C7 Nd2 2.578832 1_565
C7 Nd7 2.870069 1_565
C7 Nd7 2.870069 1_564
C8 Re2 1.927394 1_555
C8 Nd0 2.578832 1_555
C8 Nd5 2.578832 1_655
C8 Nd8 2.870069 1_655
C8 Nd8 2.870069 1_654
C9 Nd6 2.692982 1_555
C9 Nd6 2.692982 1_554
C9 Nd5 2.708505 1_555
C9 Nd2 2.708505 1_555
C10 C7 1.351257 1_545
C10 Nd7 2.692982 1_555
C10 Nd7 2.692982 1_554
C10 Nd0 2.708505 1_555
C10 Nd4 2.708505 1_545
C11 C8 1.351257 1_455
C11 Nd8 2.692982 1_555
C11 Nd8 2.692982 1_554
C11 Nd3 2.708505 1_555
C11 Nd1 2.708505 1_455
C12 Re1 2.044887 1_545
C12 Re2 2.044887 1_455
C12 Nd5 2.482221 1_555
C12 Nd2 2.482221 1_555
C12 Nd9 2.674984 1_555
C12 Nd9 2.674984 1_554
C13 Re2 2.044886 1_555
C13 Re0 2.044887 1_545
C13 Nd4 2.482220 1_545
C13 Nd0 2.482221 1_555
C13 Nd10 2.674984 1_545
C13 Nd10 2.674984 1_544
C14 Re1 2.044886 1_555
C14 Re0 2.044887 1_455
C14 Nd1 2.482220 1_455
C14 Nd3 2.482221 1_555
C14 Nd11 2.674984 1_455
C14 Nd11 2.674984 1_454
