# generated using pymatgen
data_Y2Mo4O15
_symmetry_space_group_name_H-M   'P 1'
_cell_length_a   9.75268400
_cell_length_b   6.93060800
_cell_length_c   10.73216032
_cell_angle_alpha   74.58132568
_cell_angle_beta   90.00000000
_cell_angle_gamma   90.00000000
_symmetry_Int_Tables_number   1
_chemical_formula_structural   Y2Mo4O15
_chemical_formula_sum   'Y4 Mo8 O30'
_cell_volume   699.30017783
_cell_formula_units_Z   2
loop_
 _symmetry_equiv_pos_site_id
 _symmetry_equiv_pos_as_xyz
  1  'x, y, z'
loop_
 _atom_site_type_symbol
 _atom_site_label
 _atom_site_symmetry_multiplicity
 _atom_site_fract_x
 _atom_site_fract_y
 _atom_site_fract_z
 _atom_site_occupancy
  Y  Y0  1  0.52315100  0.71134400  0.72341200  1
  Y  Y1  1  0.02315100  0.28865600  0.77658800  1
  Y  Y2  1  0.47684900  0.28865600  0.27658800  1
  Y  Y3  1  0.97684900  0.71134400  0.22341200  1
  Mo  Mo0  1  0.74359000  0.41826500  0.51110500  1
  Mo  Mo1  1  0.24359000  0.58173500  0.98889500  1
  Mo  Mo2  1  0.25641000  0.58173500  0.48889500  1
  Mo  Mo3  1  0.75641000  0.41826500  0.01110500  1
  Mo  Mo4  1  0.90473600  0.87950100  0.65594400  1
  Mo  Mo5  1  0.40473600  0.12049900  0.84405600  1
  Mo  Mo6  1  0.09526400  0.12049900  0.34405600  1
  Mo  Mo7  1  0.59526400  0.87950100  0.15594400  1
  O  O0  1  0.62690600  0.52300200  0.60328500  1
  O  O1  1  0.12690600  0.47699800  0.89671500  1
  O  O2  1  0.37309400  0.47699800  0.39671500  1
  O  O3  1  0.87309400  0.52300200  0.10328500  1
  O  O4  1  0.84841400  0.27860600  0.91961700  1
  O  O5  1  0.34841400  0.72139400  0.58038300  1
  O  O6  1  0.15158600  0.72139400  0.08038300  1
  O  O7  1  0.65158600  0.27860600  0.41961700  1
  O  O8  1  0.66758500  0.61660100  0.89895500  1
  O  O9  1  0.16758500  0.38339900  0.60104500  1
  O  O10  1  0.33241500  0.38339900  0.10104500  1
  O  O11  1  0.83241500  0.61660100  0.39895500  1
  O  O12  1  0.86539200  0.25577900  0.61776600  1
  O  O13  1  0.36539200  0.74422100  0.88223400  1
  O  O14  1  0.13460800  0.74422100  0.38223400  1
  O  O15  1  0.63460800  0.25577900  0.11776600  1
  O  O16  1  0.94372000  0.62168200  0.68364300  1
  O  O17  1  0.44372000  0.37831800  0.81635700  1
  O  O18  1  0.05628000  0.37831800  0.31635700  1
  O  O19  1  0.55628000  0.62168200  0.18364300  1
  O  O20  1  0.72318300  0.88764000  0.64720700  1
  O  O21  1  0.22318300  0.11236000  0.85279300  1
  O  O22  1  0.27681700  0.11236000  0.35279300  1
  O  O23  1  0.77681700  0.88764000  0.14720700  1
  O  O24  1  0.97201200  0.94731600  0.79242600  1
  O  O25  1  0.47201200  0.05268400  0.70757400  1
  O  O26  1  0.02798800  0.05268400  0.20757400  1
  O  O27  1  0.52798800  0.94731600  0.29242600  1
  O  O28  1  0.50000000  0.00000000  0.00000000  1
  O  O29  1  0.00000000  0.00000000  0.50000000  1
loop_
_geom_bond_atom_site_label_1
_geom_bond_atom_site_label_2
_geom_bond_distance
_geom_bond_site_symmetry_2
Mo0 O0 1.783948 1_555
Mo0 O11 1.791332 1_555
Mo0 O7 1.792038 1_555
Mo0 O12 1.817731 1_555
Mo1 O1 1.783948 1_555
Mo1 O10 1.791332 1_556
Mo1 O6 1.792038 1_556
Mo1 O13 1.817731 1_555
Mo2 O2 1.783948 1_555
Mo2 O9 1.791332 1_555
Mo2 O5 1.792038 1_555
Mo2 O14 1.817731 1_555
Mo3 O3 1.783948 1_555
Mo3 O8 1.791332 1_554
Mo3 O4 1.792038 1_554
Mo3 O15 1.817731 1_555
Mo4 O16 1.772930 1_555
Mo4 O20 1.773214 1_555
Mo4 O24 1.778467 1_555
Mo4 O29 1.902213 1_665
Mo4 O12 2.558856 1_565
Mo5 O17 1.772930 1_555
Mo5 O21 1.773214 1_555
Mo5 O25 1.778467 1_555
Mo5 O28 1.902213 1_556
Mo5 O13 2.558856 1_545
Mo6 O18 1.772930 1_555
Mo6 O22 1.773214 1_555
Mo6 O26 1.778467 1_555
Mo6 O29 1.902213 1_555
Mo6 O14 2.558856 1_545
Mo7 O19 1.772930 1_555
Mo7 O23 1.773214 1_555
Mo7 O27 1.778467 1_555
Mo7 O28 1.902213 1_565
Mo7 O15 2.558856 1_565
O0 Y0 2.298854 1_555
O1 Y1 2.298854 1_555
O2 Y2 2.298854 1_555
O3 Y3 2.298854 1_555
O4 Y1 2.282192 1_655
O5 Y0 2.282192 1_555
O6 Y3 2.282192 1_455
O7 Y2 2.282192 1_555
O8 Y0 2.303663 1_555
O9 Y1 2.303663 1_555
O10 Y2 2.303663 1_555
O11 Y3 2.303663 1_555
O12 Y1 2.351803 1_655
O13 Y0 2.351803 1_555
O14 Y3 2.351803 1_455
O15 Y2 2.351803 1_555
O16 Y1 2.387066 1_655
O17 Y0 2.387066 1_555
O18 Y3 2.387066 1_455
O19 Y2 2.387066 1_555
O20 Y0 2.331569 1_555
O21 Y1 2.331569 1_555
O22 Y2 2.331569 1_555
O23 Y3 2.331569 1_555
O24 Y1 2.379144 1_665
O25 Y0 2.379144 1_545
O26 Y3 2.379144 1_445
O27 Y2 2.379144 1_565
