# generated using pymatgen
data_BaPr2CoS5
_symmetry_space_group_name_H-M   'P 1'
_cell_length_a   8.78495287
_cell_length_b   8.78495287
_cell_length_c   8.78495287
_cell_angle_alpha   126.36457257
_cell_angle_beta   126.36457257
_cell_angle_gamma   79.28976307
_symmetry_Int_Tables_number   1
_chemical_formula_structural   BaPr2CoS5
_chemical_formula_sum   'Ba2 Pr4 Co2 S10'
_cell_volume   425.03564941
_cell_formula_units_Z   2
loop_
 _symmetry_equiv_pos_site_id
 _symmetry_equiv_pos_as_xyz
  1  'x, y, z'
loop_
 _atom_site_type_symbol
 _atom_site_label
 _atom_site_symmetry_multiplicity
 _atom_site_fract_x
 _atom_site_fract_y
 _atom_site_fract_z
 _atom_site_occupancy
  Ba  Ba0  1  0.25000000  0.25000000  0.00000000  1
  Ba  Ba1  1  0.75000000  0.75000000  0.00000000  1
  Pr  Pr0  1  0.33678400  0.16321600  0.50000000  1
  Pr  Pr1  1  0.16321600  0.66321600  0.82643200  1
  Pr  Pr2  1  0.83678400  0.33678400  0.17356800  1
  Pr  Pr3  1  0.66321600  0.83678400  0.50000000  1
  Co  Co0  1  0.75000000  0.25000000  0.50000000  1
  Co  Co1  1  0.25000000  0.75000000  0.50000000  1
  S  S0  1  0.49092800  0.99092800  0.20926700  1
  S  S1  1  0.21833800  0.71833800  0.20926700  1
  S  S2  1  0.50907200  0.00907200  0.79073300  1
  S  S3  1  0.00907200  0.21833800  0.50000000  1
  S  S4  1  0.71833800  0.50907200  0.50000000  1
  S  S5  1  0.99092800  0.78166200  0.50000000  1
  S  S6  1  0.28166200  0.49092800  0.50000000  1
  S  S7  1  0.78166200  0.28166200  0.79073300  1
  S  S8  1  0.50000000  0.50000000  0.00000000  1
  S  S9  1  0.00000000  0.00000000  0.00000000  1
loop_
_geom_bond_atom_site_label_1
_geom_bond_atom_site_label_2
_geom_bond_distance
_geom_bond_site_symmetry_2
Ba0 S9 3.382267 1_555
Ba0 S8 3.382267 1_555
Ba0 S7 3.405341 1_454
Ba0 S1 3.405341 1_555
Ba0 S6 3.405342 1_555
Ba0 S5 3.405342 1_444
Ba0 S3 3.405342 1_554
Ba0 S4 3.405342 1_555
Ba0 S0 3.405347 1_545
Ba0 S2 3.405347 1_554
Ba1 S8 3.382267 1_555
Ba1 S9 3.382267 1_665
Ba1 S1 3.405341 1_655
Ba1 S7 3.405341 1_554
Ba1 S3 3.405342 1_665
Ba1 S4 3.405342 1_554
Ba1 S5 3.405342 1_555
Ba1 S6 3.405342 1_554
Ba1 S2 3.405347 1_564
Ba1 S0 3.405347 1_555
Pr0 S3 2.829238 1_555
Pr0 S6 2.829238 1_555
Pr0 S8 2.966575 1_556
Pr0 S9 2.966575 1_555
Pr0 S2 3.066476 1_555
Pr0 S0 3.066476 1_545
Pr0 S7 3.066484 1_555
Pr0 S1 3.066484 1_545
Pr1 S0 2.829238 1_556
Pr1 S1 2.829247 1_556
Pr1 S9 2.966575 1_566
Pr1 S8 2.966575 1_556
Pr1 S5 3.066483 1_455
Pr1 S4 3.066483 1_455
Pr1 S6 3.066483 1_555
Pr1 S3 3.066483 1_555
Pr2 S2 2.829238 1_554
Pr2 S7 2.829247 1_554
Pr2 S9 2.966575 1_655
Pr2 S8 2.966575 1_555
Pr2 S4 3.066483 1_555
Pr2 S3 3.066483 1_655
Pr2 S5 3.066483 1_555
Pr2 S6 3.066483 1_655
Pr3 S4 2.829238 1_555
Pr3 S5 2.829238 1_555
Pr3 S8 2.966575 1_555
Pr3 S9 2.966575 1_666
Pr3 S0 3.066476 1_555
Pr3 S2 3.066476 1_565
Pr3 S1 3.066484 1_555
Pr3 S7 3.066484 1_565
Co0 S7 2.240963 1_555
Co0 S3 2.240972 1_655
Co0 S4 2.240972 1_555
Co0 S0 2.240972 1_545
Co1 S1 2.240963 1_555
Co1 S5 2.240972 1_455
Co1 S6 2.240972 1_555
Co1 S2 2.240972 1_565
