# generated using pymatgen
data_Tm3Ge13Ru4
_symmetry_space_group_name_H-M   'P 1'
_cell_length_a   9.01913500
_cell_length_b   9.01913500
_cell_length_c   9.01913500
_cell_angle_alpha   90.00000000
_cell_angle_beta   90.00000000
_cell_angle_gamma   90.00000000
_symmetry_Int_Tables_number   1
_chemical_formula_structural   Tm3Ge13Ru4
_chemical_formula_sum   'Tm6 Ge26 Ru8'
_cell_volume   733.65969801
_cell_formula_units_Z   2
loop_
 _symmetry_equiv_pos_site_id
 _symmetry_equiv_pos_as_xyz
  1  'x, y, z'
loop_
 _atom_site_type_symbol
 _atom_site_label
 _atom_site_symmetry_multiplicity
 _atom_site_fract_x
 _atom_site_fract_y
 _atom_site_fract_z
 _atom_site_occupancy
  Tm  Tm0  1  0.00000000  0.50000000  0.75000000  1
  Tm  Tm1  1  0.50000000  0.25000000  0.00000000  1
  Tm  Tm2  1  0.75000000  0.00000000  0.50000000  1
  Tm  Tm3  1  0.00000000  0.50000000  0.25000000  1
  Tm  Tm4  1  0.50000000  0.75000000  0.00000000  1
  Tm  Tm5  1  0.25000000  0.00000000  0.50000000  1
  Ge  Ge0  1  0.50000000  0.50000000  0.50000000  1
  Ge  Ge1  1  0.00000000  0.00000000  0.00000000  1
  Ge  Ge2  1  0.80659300  0.35186100  0.50000000  1
  Ge  Ge3  1  0.64813900  0.50000000  0.80659300  1
  Ge  Ge4  1  0.50000000  0.19340700  0.64813900  1
  Ge  Ge5  1  0.19340700  0.64813900  0.50000000  1
  Ge  Ge6  1  0.35186100  0.50000000  0.19340700  1
  Ge  Ge7  1  0.50000000  0.80659300  0.35186100  1
  Ge  Ge8  1  0.80659300  0.64813900  0.50000000  1
  Ge  Ge9  1  0.64813900  0.50000000  0.19340700  1
  Ge  Ge10  1  0.19340700  0.35186100  0.50000000  1
  Ge  Ge11  1  0.35186100  0.50000000  0.80659300  1
  Ge  Ge12  1  0.50000000  0.80659300  0.64813900  1
  Ge  Ge13  1  0.50000000  0.19340700  0.35186100  1
  Ge  Ge14  1  0.30659300  0.00000000  0.85186100  1
  Ge  Ge15  1  0.14813900  0.30659300  0.00000000  1
  Ge  Ge16  1  0.00000000  0.14813900  0.69340700  1
  Ge  Ge17  1  0.69340700  0.00000000  0.14813900  1
  Ge  Ge18  1  0.85186100  0.69340700  0.00000000  1
  Ge  Ge19  1  0.00000000  0.85186100  0.30659300  1
  Ge  Ge20  1  0.30659300  0.00000000  0.14813900  1
  Ge  Ge21  1  0.14813900  0.69340700  0.00000000  1
  Ge  Ge22  1  0.69340700  0.00000000  0.85186100  1
  Ge  Ge23  1  0.85186100  0.30659300  0.00000000  1
  Ge  Ge24  1  0.00000000  0.14813900  0.30659300  1
  Ge  Ge25  1  0.00000000  0.85186100  0.69340700  1
  Ru  Ru0  1  0.75000000  0.25000000  0.75000000  1
  Ru  Ru1  1  0.25000000  0.75000000  0.25000000  1
  Ru  Ru2  1  0.75000000  0.75000000  0.25000000  1
  Ru  Ru3  1  0.25000000  0.25000000  0.75000000  1
  Ru  Ru4  1  0.25000000  0.75000000  0.75000000  1
  Ru  Ru5  1  0.75000000  0.25000000  0.25000000  1
  Ru  Ru6  1  0.25000000  0.25000000  0.25000000  1
  Ru  Ru7  1  0.75000000  0.75000000  0.75000000  1
loop_
_geom_bond_atom_site_label_1
_geom_bond_atom_site_label_2
_geom_bond_distance
_geom_bond_site_symmetry_2
Ge0 Ge4 3.071071 1_555
Ge0 Ge11 3.071071 1_555
Ge0 Ge9 3.071071 1_555
Ge0 Ge3 3.071071 1_555
Ge0 Ge13 3.071071 1_555
Ge0 Ge5 3.071071 1_555
Ge0 Ge8 3.071071 1_555
Ge0 Ge7 3.071071 1_555
Ge0 Ge12 3.071071 1_555
Ge0 Ge6 3.071071 1_555
Ge0 Ge2 3.071071 1_555
Ge0 Ge10 3.071071 1_555
Ge1 Ge17 3.071071 1_455
Ge1 Ge20 3.071071 1_555
Ge1 Ge25 3.071071 1_544
Ge1 Ge24 3.071071 1_555
Ge1 Ge15 3.071071 1_555
Ge1 Ge16 3.071071 1_554
Ge1 Ge23 3.071071 1_455
Ge1 Ge21 3.071071 1_545
Ge1 Ge14 3.071071 1_554
Ge1 Ge18 3.071071 1_445
Ge1 Ge19 3.071071 1_545
Ge1 Ge22 3.071071 1_454
Ge2 Ru0 2.487687 1_555
Ge2 Ru5 2.487687 1_555
Ge2 Ge8 2.672171 1_555
Ge2 Tm3 3.148330 1_655
Ge2 Tm0 3.148330 1_655
Ge2 Tm2 3.214268 1_555
Ge3 Ru0 2.487687 1_555
Ge3 Ru7 2.487687 1_555
Ge3 Tm4 3.148330 1_556
Ge3 Tm1 3.148330 1_556
Ge3 Tm0 3.214268 1_655
Ge4 Ru0 2.487687 1_555
Ge4 Ru3 2.487687 1_555
Ge4 Tm2 3.148330 1_555
Ge4 Tm5 3.148330 1_555
Ge4 Tm1 3.214268 1_556
Ge5 Ru4 2.487687 1_555
Ge5 Ru1 2.487687 1_555
Ge5 Tm3 3.148330 1_555
Ge5 Tm0 3.148330 1_555
Ge5 Tm5 3.214268 1_565
Ge6 Ru1 2.487687 1_555
Ge6 Ru6 2.487687 1_555
Ge6 Ge9 2.672171 1_555
Ge6 Tm1 3.148330 1_555
Ge6 Tm4 3.148330 1_555
Ge6 Tm3 3.214268 1_555
Ge7 Ru1 2.487687 1_555
Ge7 Ru2 2.487687 1_555
Ge7 Tm5 3.148330 1_565
Ge7 Tm2 3.148330 1_565
Ge7 Tm4 3.214268 1_555
Ge8 Ru7 2.487687 1_555
Ge8 Ru2 2.487687 1_555
Ge8 Tm3 3.148330 1_655
Ge8 Tm0 3.148330 1_655
Ge8 Tm2 3.214268 1_565
Ge9 Ru5 2.487687 1_555
Ge9 Ru2 2.487687 1_555
Ge9 Tm1 3.148330 1_555
Ge9 Tm4 3.148330 1_555
Ge9 Tm3 3.214268 1_655
Ge10 Ru3 2.487687 1_555
Ge10 Ru6 2.487687 1_555
Ge10 Ge5 2.672171 1_555
Ge10 Tm3 3.148330 1_555
Ge10 Tm0 3.148330 1_555
Ge10 Tm5 3.214268 1_555
Ge11 Ru4 2.487687 1_555
Ge11 Ru3 2.487687 1_555
Ge11 Ge3 2.672171 1_555
Ge11 Tm4 3.148330 1_556
Ge11 Tm1 3.148330 1_556
Ge11 Tm0 3.214268 1_555
Ge12 Ru7 2.487687 1_555
Ge12 Ru4 2.487687 1_555
Ge12 Ge7 2.672171 1_555
Ge12 Tm5 3.148330 1_565
Ge12 Tm2 3.148330 1_565
Ge12 Tm4 3.214268 1_556
Ge13 Ru5 2.487687 1_555
Ge13 Ru6 2.487687 1_555
Ge13 Ge4 2.672171 1_555
Ge13 Tm2 3.148330 1_555
Ge13 Tm5 3.148330 1_555
Ge13 Tm1 3.214268 1_555
Ge14 Ru4 2.487687 1_545
Ge14 Ru3 2.487687 1_555
Ge14 Ge20 2.672171 1_556
Ge14 Tm1 3.148330 1_556
Ge14 Tm4 3.148330 1_546
Ge14 Tm5 3.214268 1_555
Ge15 Ru6 2.487687 1_555
Ge15 Ru3 2.487687 1_554
Ge15 Ge23 2.672171 1_455
Ge15 Tm3 3.148330 1_555
Ge15 Tm0 3.148330 1_554
Ge15 Tm1 3.214268 1_555
Ge16 Ru0 2.487687 1_455
Ge16 Ru3 2.487687 1_555
Ge16 Ge25 2.672171 1_545
Ge16 Tm2 3.148330 1_455
Ge16 Tm5 3.148330 1_555
Ge16 Tm0 3.214268 1_555
Ge17 Ru5 2.487687 1_555
Ge17 Ru2 2.487687 1_545
Ge17 Ge22 2.672171 1_554
Ge17 Tm4 3.148330 1_545
Ge17 Tm1 3.148330 1_555
Ge17 Tm2 3.214268 1_555
Ge18 Ru2 2.487687 1_555
Ge18 Ru7 2.487687 1_554
Ge18 Ge21 2.672171 1_655
Ge18 Tm3 3.148330 1_655
Ge18 Tm0 3.148330 1_654
Ge18 Tm4 3.214268 1_555
Ge19 Ru2 2.487687 1_455
Ge19 Ru1 2.487687 1_555
Ge19 Ge24 2.672171 1_565
Ge19 Tm2 3.148330 1_465
Ge19 Tm5 3.148330 1_565
Ge19 Tm3 3.214268 1_555
Ge20 Ru6 2.487687 1_555
Ge20 Ru1 2.487687 1_545
Ge20 Tm4 3.148330 1_545
Ge20 Tm1 3.148330 1_555
Ge20 Tm5 3.214268 1_555
Ge21 Ru1 2.487687 1_555
Ge21 Ru4 2.487687 1_554
Ge21 Tm3 3.148330 1_555
Ge21 Tm0 3.148330 1_554
Ge21 Tm4 3.214268 1_555
Ge22 Ru0 2.487687 1_555
Ge22 Ru7 2.487687 1_545
Ge22 Tm1 3.148330 1_556
Ge22 Tm4 3.148330 1_546
Ge22 Tm2 3.214268 1_555
Ge23 Ru0 2.487687 1_554
Ge23 Ru5 2.487687 1_555
Ge23 Tm3 3.148330 1_655
Ge23 Tm0 3.148330 1_654
Ge23 Tm1 3.214268 1_555
Ge24 Ru5 2.487687 1_455
Ge24 Ru6 2.487687 1_555
Ge24 Tm2 3.148330 1_455
Ge24 Tm5 3.148330 1_555
Ge24 Tm3 3.214268 1_555
Ge25 Ru4 2.487687 1_555
Ge25 Ru7 2.487687 1_455
Ge25 Tm2 3.148330 1_465
Ge25 Tm5 3.148330 1_565
Ge25 Tm0 3.214268 1_555
Ru0 Tm2 3.188746 1_555
Ru0 Tm0 3.188746 1_655
Ru0 Tm1 3.188746 1_556
Ru1 Tm4 3.188746 1_555
Ru1 Tm3 3.188746 1_555
Ru1 Tm5 3.188746 1_565
Ru2 Tm2 3.188746 1_565
Ru2 Tm4 3.188746 1_555
Ru2 Tm3 3.188746 1_655
Ru3 Tm5 3.188746 1_555
Ru3 Tm0 3.188746 1_555
Ru3 Tm1 3.188746 1_556
Ru4 Tm0 3.188746 1_555
Ru4 Tm4 3.188746 1_556
Ru4 Tm5 3.188746 1_565
Ru5 Tm1 3.188746 1_555
Ru5 Tm3 3.188746 1_655
Ru5 Tm2 3.188746 1_555
Ru6 Tm1 3.188746 1_555
Ru6 Tm5 3.188746 1_555
Ru6 Tm3 3.188746 1_555
Ru7 Tm2 3.188746 1_565
Ru7 Tm0 3.188746 1_655
Ru7 Tm4 3.188746 1_556
