# generated using pymatgen
data_Mn5(FeO3)4
_symmetry_space_group_name_H-M   'P 1'
_cell_length_a   6.07726000
_cell_length_b   6.17112034
_cell_length_c   15.04875312
_cell_angle_alpha   91.40072482
_cell_angle_beta   90.35130202
_cell_angle_gamma   119.00121538
_symmetry_Int_Tables_number   1
_chemical_formula_structural   Mn5(FeO3)4
_chemical_formula_sum   'Mn10 Fe8 O24'
_cell_volume   493.36101901
_cell_formula_units_Z   2
loop_
 _symmetry_equiv_pos_site_id
 _symmetry_equiv_pos_as_xyz
  1  'x, y, z'
loop_
 _atom_site_type_symbol
 _atom_site_label
 _atom_site_symmetry_multiplicity
 _atom_site_fract_x
 _atom_site_fract_y
 _atom_site_fract_z
 _atom_site_occupancy
  Mn  Mn0  1  0.99760600  0.00198700  0.87353200  1
  Mn  Mn1  1  0.66598400  0.33843700  0.54118800  1
  Mn  Mn2  1  0.33186000  0.67024000  0.20940700  1
  Mn  Mn3  1  0.66814000  0.32976000  0.79059300  1
  Mn  Mn4  1  0.33401600  0.66156300  0.45881200  1
  Mn  Mn5  1  0.00239400  0.99801300  0.12646800  1
  Mn  Mn6  1  0.66663600  0.83349200  0.66613400  1
  Mn  Mn7  1  0.33336400  0.16650800  0.33386600  1
  Mn  Mn8  1  0.00000000  0.50000000  0.00000000  1
  Mn  Mn9  1  0.50000000  0.00000000  0.00000000  1
  Fe  Fe0  1  0.16680000  0.33350300  0.66564900  1
  Fe  Fe1  1  0.83320000  0.66649700  0.33435100  1
  Fe  Fe2  1  0.33182300  0.66345100  0.83257700  1
  Fe  Fe3  1  0.00000000  0.00000000  0.50000000  1
  Fe  Fe4  1  0.66817700  0.33654900  0.16742300  1
  Fe  Fe5  1  0.16774200  0.83402500  0.66603500  1
  Fe  Fe6  1  0.83225800  0.16597500  0.33396500  1
  Fe  Fe7  1  0.50000000  0.50000000  0.00000000  1
  O  O0  1  0.79220800  0.15706400  0.08262500  1
  O  O1  1  0.46804600  0.49947100  0.74865900  1
  O  O2  1  0.13507800  0.83247600  0.41712500  1
  O  O3  1  0.99651000  0.00353900  0.73473400  1
  O  O4  1  0.66264000  0.33653500  0.40271400  1
  O  O5  1  0.31274800  0.64093600  0.07162500  1
  O  O6  1  0.17930200  0.37375200  0.91937000  1
  O  O7  1  0.84578800  0.70826700  0.58799000  1
  O  O8  1  0.51199800  0.04151600  0.25554200  1
  O  O9  1  0.36909100  0.18668600  0.07660500  1
  O  O10  1  0.03476400  0.52523500  0.74256300  1
  O  O11  1  0.69996500  0.85725900  0.41085900  1
  O  O12  1  0.86492200  0.16752400  0.58287500  1
  O  O13  1  0.53195400  0.50052900  0.25134100  1
  O  O14  1  0.20779200  0.84293600  0.91737500  1
  O  O15  1  0.68725200  0.35906400  0.92837500  1
  O  O16  1  0.33736000  0.66346500  0.59728600  1
  O  O17  1  0.00349000  0.99646100  0.26526600  1
  O  O18  1  0.48800200  0.95848400  0.74445800  1
  O  O19  1  0.15421200  0.29173300  0.41201000  1
  O  O20  1  0.82069800  0.62624800  0.08063000  1
  O  O21  1  0.30003500  0.14274100  0.58914100  1
  O  O22  1  0.96523600  0.47476500  0.25743700  1
  O  O23  1  0.63090900  0.81331400  0.92339500  1
loop_
_geom_bond_atom_site_label_1
_geom_bond_atom_site_label_2
_geom_bond_distance
_geom_bond_site_symmetry_2
Mn0 O14 2.065762 1_645
Mn0 O3 2.088977 1_555
Mn0 O6 2.101277 1_655
Mn0 O23 2.105285 1_545
Mn1 O12 2.056013 1_555
Mn1 O4 2.083526 1_555
Mn1 O21 2.093613 1_555
Mn1 O7 2.095853 1_555
Mn2 O13 2.057086 1_555
Mn2 O5 2.074542 1_555
Mn2 O22 2.097163 1_455
Mn2 O8 2.100186 1_565
Mn3 O1 2.057086 1_555
Mn3 O15 2.074542 1_555
Mn3 O10 2.097163 1_655
Mn3 O18 2.100186 1_545
Mn4 O2 2.056013 1_555
Mn4 O16 2.083526 1_555
Mn4 O11 2.093613 1_555
Mn4 O19 2.095853 1_555
Mn5 O0 2.065762 1_465
Mn5 O17 2.088977 1_555
Mn5 O20 2.101277 1_455
Mn5 O9 2.105285 1_565
Mn6 O18 1.986452 1_555
Mn6 O7 1.988110 1_555
Mn6 O16 2.016000 1_555
Mn6 O3 2.016840 1_565
Mn6 O1 2.231381 1_555
Mn6 O12 2.237701 1_565
Mn7 O8 1.986452 1_555
Mn7 O19 1.988110 1_555
Mn7 O4 2.016000 1_555
Mn7 O17 2.016840 1_545
Mn7 O13 2.231381 1_555
Mn7 O2 2.237701 1_545
Mn8 O5 1.963887 1_555
Mn8 O15 1.963887 1_454
Mn8 O6 2.014902 1_554
Mn8 O20 2.014902 1_455
Mn8 O0 2.275077 1_455
Mn8 O14 2.275077 1_554
Mn9 O0 1.970803 1_555
Mn9 O14 1.970803 1_544
Mn9 O9 2.030811 1_555
Mn9 O23 2.030811 1_544
Mn9 O15 2.247986 1_554
Mn9 O5 2.247986 1_545
Fe0 O1 2.013051 1_555
Fe0 O12 2.013452 1_455
Fe0 O21 2.058277 1_555
Fe0 O10 2.061213 1_555
Fe0 O16 2.085174 1_555
Fe0 O3 2.090814 1_455
Fe1 O13 2.013051 1_555
Fe1 O2 2.013452 1_655
Fe1 O11 2.058277 1_555
Fe1 O22 2.061213 1_555
Fe1 O4 2.085174 1_555
Fe1 O17 2.090814 1_655
Fe2 O1 2.016648 1_555
Fe2 O14 2.043450 1_555
Fe2 O10 2.059612 1_555
Fe2 O6 2.069645 1_555
Fe2 O23 2.074774 1_555
Fe2 O18 2.105249 1_555
Fe3 O12 2.017547 1_455
Fe3 O2 2.017547 1_545
Fe3 O21 2.062766 1_555
Fe3 O11 2.062766 1_445
Fe3 O19 2.090105 1_555
Fe3 O7 2.090105 1_445
Fe4 O13 2.016648 1_555
Fe4 O0 2.043450 1_555
Fe4 O22 2.059612 1_555
Fe4 O20 2.069645 1_555
Fe4 O9 2.074774 1_555
Fe4 O8 2.105249 1_555
Fe5 O10 2.058175 1_555
Fe5 O18 2.061265 1_555
Fe5 O21 2.061281 1_565
Fe5 O16 2.062206 1_555
Fe5 O3 2.064433 1_465
Fe5 O7 2.065149 1_455
Fe6 O22 2.058175 1_555
Fe6 O8 2.061265 1_555
Fe6 O11 2.061281 1_545
Fe6 O4 2.062206 1_555
Fe6 O17 2.064433 1_645
Fe6 O19 2.065149 1_655
Fe7 O15 2.035226 1_554
Fe7 O5 2.035226 1_555
Fe7 O9 2.080620 1_555
Fe7 O23 2.080620 1_554
Fe7 O20 2.080908 1_555
Fe7 O6 2.080908 1_554
