# generated using pymatgen
data_KFeCu(PO4)2
_symmetry_space_group_name_H-M   'P 1'
_cell_length_a   10.05625000
_cell_length_b   8.10054800
_cell_length_c   9.20708261
_cell_angle_alpha   63.55552583
_cell_angle_beta   90.00000000
_cell_angle_gamma   90.00000000
_symmetry_Int_Tables_number   1
_chemical_formula_structural   KFeCu(PO4)2
_chemical_formula_sum   'K4 Fe4 Cu4 P8 O32'
_cell_volume   671.54214293
_cell_formula_units_Z   4
loop_
 _symmetry_equiv_pos_site_id
 _symmetry_equiv_pos_as_xyz
  1  'x, y, z'
loop_
 _atom_site_type_symbol
 _atom_site_label
 _atom_site_symmetry_multiplicity
 _atom_site_fract_x
 _atom_site_fract_y
 _atom_site_fract_z
 _atom_site_occupancy
  K  K0  1  0.36569100  0.65750300  0.42516400  1
  K  K1  1  0.13430900  0.65750300  0.92516400  1
  K  K2  1  0.63430900  0.34249700  0.57483600  1
  K  K3  1  0.86569100  0.34249700  0.07483600  1
  Fe  Fe0  1  0.62560000  0.72850000  0.75690100  1
  Fe  Fe1  1  0.87440000  0.72850000  0.25690100  1
  Fe  Fe2  1  0.37440000  0.27150000  0.24309900  1
  Fe  Fe3  1  0.12560000  0.27150000  0.74309900  1
  Cu  Cu0  1  0.62035300  0.07951500  0.05261800  1
  Cu  Cu1  1  0.87964700  0.07951500  0.55261800  1
  Cu  Cu2  1  0.37964700  0.92048500  0.94738200  1
  Cu  Cu3  1  0.12035300  0.92048500  0.44738200  1
  P  P0  1  0.65967100  0.01245500  0.35909600  1
  P  P1  1  0.84032900  0.01245500  0.85909600  1
  P  P2  1  0.34032900  0.98754500  0.64090400  1
  P  P3  1  0.15967100  0.98754500  0.14090400  1
  P  P4  1  0.41253400  0.38054500  0.85172900  1
  P  P5  1  0.08746600  0.38054500  0.35172900  1
  P  P6  1  0.58746600  0.61945500  0.14827100  1
  P  P7  1  0.91253400  0.61945500  0.64827100  1
  O  O0  1  0.76416700  0.15675000  0.89290000  1
  O  O1  1  0.73583300  0.15675000  0.39290000  1
  O  O2  1  0.23583300  0.84325000  0.10710000  1
  O  O3  1  0.26416700  0.84325000  0.60710000  1
  O  O4  1  0.74673900  0.95690300  0.24421200  1
  O  O5  1  0.75326100  0.95690300  0.74421200  1
  O  O6  1  0.25326100  0.04309700  0.75578800  1
  O  O7  1  0.24673900  0.04309700  0.25578800  1
  O  O8  1  0.53796700  0.10861900  0.24390000  1
  O  O9  1  0.96203300  0.10861900  0.74390000  1
  O  O10  1  0.46203300  0.89138100  0.75610000  1
  O  O11  1  0.03796700  0.89138100  0.25610000  1
  O  O12  1  0.61416800  0.84494600  0.51171700  1
  O  O13  1  0.88583200  0.84494600  0.01171700  1
  O  O14  1  0.38583200  0.15505400  0.48828300  1
  O  O15  1  0.11416800  0.15505400  0.98828300  1
  O  O16  1  0.36844000  0.39910300  0.00391800  1
  O  O17  1  0.13156000  0.39910300  0.50391800  1
  O  O18  1  0.63156000  0.60089700  0.99608200  1
  O  O19  1  0.86844000  0.60089700  0.49608200  1
  O  O20  1  0.29232400  0.40158300  0.74033200  1
  O  O21  1  0.20767600  0.40158300  0.24033200  1
  O  O22  1  0.70767600  0.59841700  0.25966800  1
  O  O23  1  0.79232400  0.59841700  0.75966800  1
  O  O24  1  0.51321600  0.53076700  0.74686400  1
  O  O25  1  0.98678400  0.53076700  0.24686400  1
  O  O26  1  0.48678400  0.46923300  0.25313600  1
  O  O27  1  0.01321600  0.46923300  0.75313600  1
  O  O28  1  0.47684500  0.18735900  0.89784700  1
  O  O29  1  0.02315500  0.18735900  0.39784700  1
  O  O30  1  0.52315500  0.81264100  0.10215300  1
  O  O31  1  0.97684500  0.81264100  0.60215300  1
loop_
_geom_bond_atom_site_label_1
_geom_bond_atom_site_label_2
_geom_bond_distance
_geom_bond_site_symmetry_2
K0 O20 2.811488 1_555
K0 O3 2.890872 1_555
K0 O26 2.910137 1_555
K0 O2 2.936082 1_555
K0 O17 3.016445 1_555
K0 O7 3.046443 1_565
K0 O24 3.052790 1_555
K0 O30 3.098807 1_555
K0 O12 3.203436 1_555
K1 O21 2.811488 1_556
K1 O2 2.890872 1_556
K1 O27 2.910137 1_555
K1 O3 2.936082 1_555
K1 O16 3.016445 1_556
K1 O6 3.046443 1_565
K1 O25 3.052790 1_456
K1 O31 3.098807 1_455
K1 O13 3.203436 1_456
K2 O22 2.811488 1_555
K2 O1 2.890872 1_555
K2 O24 2.910137 1_555
K2 O0 2.936082 1_555
K2 O19 3.016445 1_555
K2 O5 3.046443 1_545
K2 O26 3.052790 1_555
K2 O28 3.098807 1_555
K2 O14 3.203436 1_555
K3 O23 2.811488 1_554
K3 O0 2.890872 1_554
K3 O25 2.910137 1_555
K3 O1 2.936082 1_555
K3 O18 3.016445 1_554
K3 O4 3.046443 1_545
K3 O27 3.052790 1_654
K3 O29 3.098807 1_655
K3 O15 3.203436 1_654
Fe0 O18 1.973361 1_555
Fe0 O23 1.974377 1_555
Fe0 O24 1.995803 1_555
Fe0 O12 2.025443 1_555
Fe0 O10 2.106625 1_555
Fe0 O5 2.211888 1_555
Fe1 O19 1.973361 1_555
Fe1 O22 1.974377 1_555
Fe1 O25 1.995803 1_555
Fe1 O13 2.025443 1_555
Fe1 O11 2.106625 1_655
Fe1 O4 2.211888 1_555
Fe2 O16 1.973361 1_555
Fe2 O21 1.974377 1_555
Fe2 O26 1.995803 1_555
Fe2 O14 2.025443 1_555
Fe2 O8 2.106625 1_555
Fe2 O7 2.211888 1_555
Fe3 O17 1.973361 1_555
Fe3 O20 1.974377 1_555
Fe3 O27 1.995803 1_555
Fe3 O15 2.025443 1_555
Fe3 O9 2.106625 1_455
Fe3 O6 2.211888 1_555
Cu0 O28 1.941057 1_554
Cu0 O0 1.956030 1_554
Cu0 O4 2.037923 1_545
Cu0 O8 2.052666 1_555
Cu0 O30 2.226825 1_545
Cu1 O29 1.941057 1_655
Cu1 O1 1.956030 1_555
Cu1 O5 2.037923 1_545
Cu1 O9 2.052666 1_555
Cu1 O31 2.226825 1_545
Cu2 O30 1.941057 1_556
Cu2 O2 1.956030 1_556
Cu2 O6 2.037923 1_565
Cu2 O10 2.052666 1_555
Cu2 O28 2.226825 1_565
Cu3 O31 1.941057 1_455
Cu3 O3 1.956030 1_555
Cu3 O7 2.037923 1_565
Cu3 O11 2.052666 1_555
Cu3 O29 2.226825 1_565
O0 P1 1.540697 1_555
O1 P0 1.540697 1_555
O2 P3 1.540697 1_555
O3 P2 1.540697 1_555
O4 P0 1.584900 1_565
O5 P1 1.584900 1_565
O6 P2 1.584900 1_545
O7 P3 1.584900 1_545
O8 P0 1.579163 1_555
O9 P1 1.579163 1_555
O10 P2 1.579163 1_555
O11 P3 1.579163 1_555
O12 P0 1.525427 1_565
O13 P1 1.525427 1_564
O14 P2 1.525427 1_545
O15 P3 1.525427 1_546
O16 P4 1.539559 1_554
O17 P5 1.539559 1_555
O18 P6 1.539559 1_556
O19 P7 1.539559 1_555
O20 P4 1.544879 1_555
O21 P5 1.544879 1_555
O22 P6 1.544879 1_555
O23 P7 1.544879 1_555
O24 P4 1.546504 1_555
O25 P5 1.546504 1_655
O26 P6 1.546504 1_555
O27 P7 1.546504 1_455
O28 P4 1.567060 1_555
O29 P5 1.567060 1_555
O30 P6 1.567060 1_555
O31 P7 1.567060 1_555
