# generated using pymatgen
data_LiY(TlCl3)2
_symmetry_space_group_name_H-M   'P 1'
_cell_length_a   10.38016139
_cell_length_b   10.38016139
_cell_length_c   10.38016139
_cell_angle_alpha   90.00000000
_cell_angle_beta   90.00000000
_cell_angle_gamma   90.00000000
_symmetry_Int_Tables_number   1
_chemical_formula_structural   LiY(TlCl3)2
_chemical_formula_sum   'Li4 Y4 Tl8 Cl24'
_cell_volume   1118.43903942
_cell_formula_units_Z   4
loop_
 _symmetry_equiv_pos_site_id
 _symmetry_equiv_pos_as_xyz
  1  'x, y, z'
loop_
 _atom_site_type_symbol
 _atom_site_label
 _atom_site_symmetry_multiplicity
 _atom_site_fract_x
 _atom_site_fract_y
 _atom_site_fract_z
 _atom_site_occupancy
  Li  Li0  1  0.50000000  0.00000000  -0.00000000  1
  Li  Li1  1  0.50000000  0.50000000  0.50000000  1
  Li  Li2  1  0.00000000  0.00000000  0.50000000  1
  Li  Li3  1  0.00000000  0.50000000  -0.00000000  1
  Y  Y0  1  0.00000000  0.00000000  -0.00000000  1
  Y  Y1  1  0.00000000  0.50000000  0.50000000  1
  Y  Y2  1  0.50000000  0.00000000  0.50000000  1
  Y  Y3  1  0.50000000  0.50000000  -0.00000000  1
  Tl  Tl0  1  0.25000000  0.25000000  0.25000000  1
  Tl  Tl1  1  0.25000000  0.25000000  0.75000000  1
  Tl  Tl2  1  0.25000000  0.75000000  0.75000000  1
  Tl  Tl3  1  0.25000000  0.75000000  0.25000000  1
  Tl  Tl4  1  0.75000000  0.25000000  0.75000000  1
  Tl  Tl5  1  0.75000000  0.25000000  0.25000000  1
  Tl  Tl6  1  0.75000000  0.75000000  0.25000000  1
  Tl  Tl7  1  0.75000000  0.75000000  0.75000000  1
  Cl  Cl0  1  0.50000000  0.24686526  -0.00000000  1
  Cl  Cl1  1  0.50000000  0.00000000  0.24686526  1
  Cl  Cl2  1  0.25313474  0.00000000  -0.00000000  1
  Cl  Cl3  1  0.00000000  0.25313474  -0.00000000  1
  Cl  Cl4  1  0.50000000  0.00000000  0.75313474  1
  Cl  Cl5  1  0.74686526  0.00000000  -0.00000000  1
  Cl  Cl6  1  0.50000000  0.74686526  0.50000000  1
  Cl  Cl7  1  0.50000000  0.50000000  0.74686526  1
  Cl  Cl8  1  0.25313474  0.50000000  0.50000000  1
  Cl  Cl9  1  0.00000000  0.75313474  0.50000000  1
  Cl  Cl10  1  0.50000000  0.50000000  0.25313474  1
  Cl  Cl11  1  0.74686526  0.50000000  0.50000000  1
  Cl  Cl12  1  0.00000000  0.24686526  0.50000000  1
  Cl  Cl13  1  0.00000000  0.00000000  0.74686526  1
  Cl  Cl14  1  0.75313474  0.00000000  0.50000000  1
  Cl  Cl15  1  0.50000000  0.25313474  0.50000000  1
  Cl  Cl16  1  0.00000000  0.00000000  0.25313474  1
  Cl  Cl17  1  0.24686526  0.00000000  0.50000000  1
  Cl  Cl18  1  0.00000000  0.74686526  -0.00000000  1
  Cl  Cl19  1  0.00000000  0.50000000  0.24686526  1
  Cl  Cl20  1  0.75313474  0.50000000  -0.00000000  1
  Cl  Cl21  1  0.50000000  0.75313474  -0.00000000  1
  Cl  Cl22  1  0.00000000  0.50000000  0.75313474  1
  Cl  Cl23  1  0.24686526  0.50000000  -0.00000000  1
loop_
_geom_bond_atom_site_label_1
_geom_bond_atom_site_label_2
_geom_bond_distance
_geom_bond_site_symmetry_2
Cl0 Li0 2.562501 1_555
Cl0 Y3 2.627579 1_555
Cl1 Li0 2.562501 1_555
Cl1 Y2 2.627579 1_555
Cl2 Li0 2.562501 1_555
Cl2 Y0 2.627579 1_555
Cl3 Li3 2.562501 1_555
Cl3 Y0 2.627579 1_555
Cl4 Li0 2.562501 1_556
Cl4 Y2 2.627579 1_555
Cl5 Li0 2.562501 1_555
Cl5 Y0 2.627579 1_655
Cl6 Li1 2.562501 1_555
Cl6 Y2 2.627579 1_565
Cl7 Li1 2.562501 1_555
Cl7 Y3 2.627579 1_556
Cl8 Li1 2.562501 1_555
Cl8 Y1 2.627579 1_555
Cl9 Li2 2.562501 1_565
Cl9 Y1 2.627579 1_555
Cl10 Li1 2.562501 1_555
Cl10 Y3 2.627579 1_555
Cl11 Li1 2.562501 1_555
Cl11 Y1 2.627579 1_655
Cl12 Li2 2.562501 1_555
Cl12 Y1 2.627579 1_555
Cl13 Li2 2.562501 1_555
Cl13 Y0 2.627579 1_556
Cl14 Li2 2.562501 1_655
Cl14 Y2 2.627579 1_555
Cl15 Li1 2.562501 1_555
Cl15 Y2 2.627579 1_555
Cl16 Li2 2.562501 1_555
Cl16 Y0 2.627579 1_555
Cl17 Li2 2.562501 1_555
Cl17 Y2 2.627579 1_555
Cl18 Li3 2.562501 1_555
Cl18 Y0 2.627579 1_565
Cl19 Li3 2.562501 1_555
Cl19 Y1 2.627579 1_555
Cl20 Li3 2.562501 1_655
Cl20 Y3 2.627579 1_555
Cl21 Li0 2.562501 1_565
Cl21 Y3 2.627579 1_555
Cl22 Li3 2.562501 1_556
Cl22 Y1 2.627579 1_555
Cl23 Li3 2.562501 1_555
Cl23 Y3 2.627579 1_555
