# generated using pymatgen
data_AlSiAgO4
_symmetry_space_group_name_H-M   'P 1'
_cell_length_a   9.22555409
_cell_length_b   9.22555409
_cell_length_c   9.22555364
_cell_angle_alpha   90.20423653
_cell_angle_beta   90.20423653
_cell_angle_gamma   90.20423228
_symmetry_Int_Tables_number   1
_chemical_formula_structural   AlSiAgO4
_chemical_formula_sum   'Al6 Si6 Ag6 O24'
_cell_volume   785.17969623
_cell_formula_units_Z   6
loop_
 _symmetry_equiv_pos_site_id
 _symmetry_equiv_pos_as_xyz
  1  'x, y, z'
loop_
 _atom_site_type_symbol
 _atom_site_label
 _atom_site_symmetry_multiplicity
 _atom_site_fract_x
 _atom_site_fract_y
 _atom_site_fract_z
 _atom_site_occupancy
  Al  Al0  1  0.99730800  0.74941900  0.50266300  1
  Al  Al1  1  0.50266300  0.99730800  0.74941900  1
  Al  Al2  1  0.74941900  0.50266300  0.99730800  1
  Al  Al3  1  0.49730800  0.00266300  0.24941900  1
  Al  Al4  1  0.24941900  0.49730800  0.00266300  1
  Al  Al5  1  0.00266300  0.24941900  0.49730800  1
  Si  Si0  1  0.50185700  0.74886100  0.99911000  1
  Si  Si1  1  0.99911000  0.50185700  0.74886100  1
  Si  Si2  1  0.74886100  0.99911000  0.50185700  1
  Si  Si3  1  0.00185700  0.49911000  0.24886100  1
  Si  Si4  1  0.24886100  0.00185700  0.49911000  1
  Si  Si5  1  0.49911000  0.24886100  0.00185700  1
  Ag  Ag0  1  0.25693800  0.74242000  0.25714900  1
  Ag  Ag1  1  0.74242000  0.25714900  0.25693800  1
  Ag  Ag2  1  0.25714900  0.25693800  0.74242000  1
  Ag  Ag3  1  0.24242000  0.75693800  0.75714900  1
  Ag  Ag4  1  0.75714900  0.24242000  0.75693800  1
  Ag  Ag5  1  0.75693800  0.75714900  0.24242000  1
  O  O0  1  0.95979800  0.63971300  0.64984200  1
  O  O1  1  0.64984200  0.95979800  0.63971300  1
  O  O2  1  0.63971300  0.64984200  0.95979800  1
  O  O3  1  0.04350200  0.64166600  0.35000000  1
  O  O4  1  0.35012500  0.95326900  0.36046000  1
  O  O5  1  0.35831000  0.65110200  0.04389000  1
  O  O6  1  0.95326900  0.36046000  0.35012500  1
  O  O7  1  0.65110200  0.04389000  0.35831000  1
  O  O8  1  0.64166600  0.35000000  0.04350200  1
  O  O9  1  0.04389000  0.35831000  0.65110200  1
  O  O10  1  0.35000000  0.04350200  0.64166600  1
  O  O11  1  0.36046000  0.35012500  0.95326900  1
  O  O12  1  0.45326900  0.85012500  0.86046000  1
  O  O13  1  0.15110200  0.85831000  0.54389000  1
  O  O14  1  0.14166600  0.54350200  0.85000000  1
  O  O15  1  0.54389000  0.15110200  0.85831000  1
  O  O16  1  0.85000000  0.14166600  0.54350200  1
  O  O17  1  0.86046000  0.45326900  0.85012500  1
  O  O18  1  0.45979800  0.14984200  0.13971300  1
  O  O19  1  0.14984200  0.13971300  0.45979800  1
  O  O20  1  0.13971300  0.45979800  0.14984200  1
  O  O21  1  0.54350200  0.85000000  0.14166600  1
  O  O22  1  0.85012400  0.86046000  0.45326900  1
  O  O23  1  0.85831000  0.54389000  0.15110200  1
loop_
_geom_bond_atom_site_label_1
_geom_bond_atom_site_label_2
_geom_bond_distance
_geom_bond_site_symmetry_2
Al0 O0 1.731585 1_555
Al0 O22 1.763428 1_555
Al0 O13 1.774880 1_655
Al0 O3 1.775028 1_655
Al1 O1 1.731585 1_555
Al1 O12 1.763421 1_555
Al1 O15 1.774880 1_565
Al1 O10 1.775028 1_565
Al2 O2 1.731585 1_555
Al2 O17 1.763420 1_555
Al2 O23 1.774880 1_556
Al2 O8 1.775028 1_556
Al3 O18 1.731585 1_555
Al3 O4 1.763421 1_545
Al3 O7 1.774880 1_555
Al3 O21 1.775028 1_545
Al4 O20 1.731585 1_555
Al4 O11 1.763420 1_554
Al4 O5 1.774880 1_555
Al4 O14 1.775028 1_554
Al5 O19 1.731585 1_555
Al5 O6 1.763420 1_455
Al5 O9 1.774880 1_555
Al5 O16 1.775028 1_455
Ag0 O4 2.323856 1_555
Ag0 O5 2.337107 1_555
Ag0 O3 2.340861 1_555
Ag1 O6 2.323856 1_555
Ag1 O7 2.337107 1_555
Ag1 O8 2.340861 1_555
Ag2 O11 2.323856 1_555
Ag2 O9 2.337107 1_555
Ag2 O10 2.340861 1_555
Ag3 O12 2.323856 1_555
Ag3 O13 2.337107 1_555
Ag3 O14 2.340861 1_555
Ag4 O17 2.323856 1_555
Ag4 O15 2.337107 1_555
Ag4 O16 2.340861 1_555
Ag5 O22 2.323853 1_555
Ag5 O23 2.337107 1_555
Ag5 O21 2.340861 1_555
O0 Si1 1.610188 1_555
O1 Si2 1.610188 1_555
O2 Si0 1.610187 1_555
O3 Si3 1.653164 1_555
O4 Si4 1.648412 1_565
O5 Si0 1.654047 1_554
O6 Si3 1.648412 1_655
O7 Si2 1.654047 1_545
O8 Si5 1.653164 1_555
O9 Si1 1.654047 1_455
O10 Si4 1.653164 1_555
O11 Si5 1.648412 1_556
O12 Si0 1.648412 1_555
O13 Si4 1.654047 1_565
O14 Si1 1.653164 1_455
O15 Si5 1.654047 1_556
O16 Si2 1.653164 1_545
O17 Si1 1.648412 1_555
O18 Si5 1.610188 1_555
O19 Si4 1.610187 1_555
O20 Si3 1.610188 1_555
O21 Si0 1.653164 1_554
O22 Si2 1.648407 1_555
O23 Si3 1.654047 1_655
