# generated using pymatgen
data_BaFeO4
_symmetry_space_group_name_H-M   'P 1'
_cell_length_a   5.61549400
_cell_length_b   9.19737800
_cell_length_c   7.42318100
_cell_angle_alpha   90.00000000
_cell_angle_beta   90.00000000
_cell_angle_gamma   90.00000000
_symmetry_Int_Tables_number   1
_chemical_formula_structural   BaFeO4
_chemical_formula_sum   'Ba4 Fe4 O16'
_cell_volume   383.39112335
_cell_formula_units_Z   4
loop_
 _symmetry_equiv_pos_site_id
 _symmetry_equiv_pos_as_xyz
  1  'x, y, z'
loop_
 _atom_site_type_symbol
 _atom_site_label
 _atom_site_symmetry_multiplicity
 _atom_site_fract_x
 _atom_site_fract_y
 _atom_site_fract_z
 _atom_site_occupancy
  Ba  Ba0  1  0.75000000  0.81568500  0.34267400  1
  Ba  Ba1  1  0.25000000  0.18431500  0.65732600  1
  Ba  Ba2  1  0.25000000  0.68431500  0.84267400  1
  Ba  Ba3  1  0.75000000  0.31568500  0.15732600  1
  Fe  Fe0  1  0.75000000  0.93793300  0.81047100  1
  Fe  Fe1  1  0.25000000  0.06206700  0.18952900  1
  Fe  Fe2  1  0.25000000  0.56206700  0.31047100  1
  Fe  Fe3  1  0.75000000  0.43793300  0.68952900  1
  O  O0  1  0.75000000  0.60237600  0.60348200  1
  O  O1  1  0.25000000  0.39762400  0.39651800  1
  O  O2  1  0.25000000  0.89762400  0.10348200  1
  O  O3  1  0.75000000  0.10237600  0.89651800  1
  O  O4  1  0.75000000  0.80558100  0.96170500  1
  O  O5  1  0.25000000  0.19441900  0.03829500  1
  O  O6  1  0.25000000  0.69441900  0.46170500  1
  O  O7  1  0.75000000  0.30558100  0.53829500  1
  O  O8  1  0.98916100  0.91721900  0.67860900  1
  O  O9  1  0.01083900  0.08278100  0.32139100  1
  O  O10  1  0.01083900  0.58278100  0.17860900  1
  O  O11  1  0.48916100  0.08278100  0.32139100  1
  O  O12  1  0.98916100  0.41721900  0.82139100  1
  O  O13  1  0.51083900  0.91721900  0.67860900  1
  O  O14  1  0.51083900  0.41721900  0.82139100  1
  O  O15  1  0.48916100  0.58278100  0.17860900  1
loop_
_geom_bond_atom_site_label_1
_geom_bond_atom_site_label_2
_geom_bond_distance
_geom_bond_site_symmetry_2
Ba0 O0 2.756298 1_555
Ba0 O4 2.829528 1_554
Ba0 O9 2.864476 1_665
Ba0 O11 2.864476 1_565
Ba0 O10 2.866587 1_655
Ba0 O15 2.866587 1_555
Ba0 O8 2.982333 1_555
Ba0 O13 2.982333 1_555
Ba0 O6 3.147718 1_655
Ba0 O6 3.147718 1_555
Ba0 O2 3.406468 1_555
Ba0 O2 3.406468 1_655
Ba1 O1 2.756298 1_555
Ba1 O5 2.829528 1_556
Ba1 O13 2.864476 1_545
Ba1 O8 2.864476 1_445
Ba1 O14 2.866587 1_555
Ba1 O12 2.866587 1_455
Ba1 O11 2.982333 1_555
Ba1 O9 2.982333 1_555
Ba1 O7 3.147718 1_555
Ba1 O7 3.147718 1_455
Ba1 O3 3.406468 1_455
Ba1 O3 3.406468 1_555
Ba2 O2 2.756298 1_556
Ba2 O6 2.829528 1_555
Ba2 O14 2.864476 1_555
Ba2 O12 2.864476 1_455
Ba2 O13 2.866587 1_555
Ba2 O8 2.866587 1_455
Ba2 O15 2.982333 1_556
Ba2 O10 2.982333 1_556
Ba2 O4 3.147718 1_555
Ba2 O4 3.147718 1_455
Ba2 O0 3.406468 1_455
Ba2 O0 3.406468 1_555
Ba3 O3 2.756298 1_554
Ba3 O7 2.829528 1_555
Ba3 O10 2.864476 1_655
Ba3 O15 2.864476 1_555
Ba3 O9 2.866587 1_655
Ba3 O11 2.866587 1_555
Ba3 O12 2.982333 1_554
Ba3 O14 2.982333 1_554
Ba3 O5 3.147718 1_655
Ba3 O5 3.147718 1_555
Ba3 O1 3.406468 1_555
Ba3 O1 3.406468 1_655
Fe0 O3 1.641792 1_565
Fe0 O4 1.655933 1_555
Fe0 O8 1.672747 1_555
Fe0 O13 1.672747 1_555
Fe1 O2 1.641792 1_545
Fe1 O5 1.655933 1_555
Fe1 O11 1.672747 1_555
Fe1 O9 1.672747 1_555
Fe2 O1 1.641792 1_555
Fe2 O6 1.655933 1_555
Fe2 O15 1.672747 1_555
Fe2 O10 1.672747 1_555
Fe3 O0 1.641792 1_555
Fe3 O7 1.655933 1_555
Fe3 O12 1.672747 1_555
Fe3 O14 1.672747 1_555
