# generated using pymatgen
data_EuMg(BO2)5
_symmetry_space_group_name_H-M   'P 1'
_cell_length_a   7.67870900
_cell_length_b   8.78472700
_cell_length_c   12.67255967
_cell_angle_alpha   48.61414531
_cell_angle_beta   90.00000000
_cell_angle_gamma   90.00000000
_symmetry_Int_Tables_number   1
_chemical_formula_structural   EuMg(BO2)5
_chemical_formula_sum   'Eu4 Mg4 B20 O40'
_cell_volume   641.35856918
_cell_formula_units_Z   4
loop_
 _symmetry_equiv_pos_site_id
 _symmetry_equiv_pos_as_xyz
  1  'x, y, z'
loop_
 _atom_site_type_symbol
 _atom_site_label
 _atom_site_symmetry_multiplicity
 _atom_site_fract_x
 _atom_site_fract_y
 _atom_site_fract_z
 _atom_site_occupancy
  Eu  Eu0  1  0.18609600  0.95215100  0.23801200  1
  Eu  Eu1  1  0.81390400  0.04784900  0.76198800  1
  Eu  Eu2  1  0.68609600  0.04784900  0.26198800  1
  Eu  Eu3  1  0.31390400  0.95215100  0.73801200  1
  Mg  Mg0  1  0.90965400  0.52238600  0.37419800  1
  Mg  Mg1  1  0.09034600  0.47761400  0.62580200  1
  Mg  Mg2  1  0.40965400  0.47761400  0.12580200  1
  Mg  Mg3  1  0.59034600  0.52238600  0.87419800  1
  B  B0  1  0.82586200  0.90893100  0.10488500  1
  B  B1  1  0.17413800  0.09106900  0.89511500  1
  B  B2  1  0.32586200  0.09106900  0.39511500  1
  B  B3  1  0.67413800  0.90893100  0.60488500  1
  B  B4  1  0.57744800  0.65254000  0.26031000  1
  B  B5  1  0.42255200  0.34746000  0.73969000  1
  B  B6  1  0.07744800  0.34746000  0.23969000  1
  B  B7  1  0.92255200  0.65254000  0.76031000  1
  B  B8  1  0.81441500  0.48062600  0.08760500  1
  B  B9  1  0.18558500  0.51937400  0.91239500  1
  B  B10  1  0.31441500  0.51937400  0.41239500  1
  B  B11  1  0.68558500  0.48062600  0.58760500  1
  B  B12  1  0.46782700  0.72511300  0.55506400  1
  B  B13  1  0.53217300  0.27488700  0.44493600  1
  B  B14  1  0.96782700  0.27488700  0.94493600  1
  B  B15  1  0.03217300  0.72511300  0.05506400  1
  B  B16  1  0.59864700  0.84266500  0.00073100  1
  B  B17  1  0.40135300  0.15733500  0.99926900  1
  B  B18  1  0.09864700  0.15733500  0.49926900  1
  B  B19  1  0.90135300  0.84266500  0.50073100  1
  O  O0  1  0.91545000  0.31819100  0.19320100  1
  O  O1  1  0.08455000  0.68180900  0.80679900  1
  O  O2  1  0.41545000  0.68180900  0.30679900  1
  O  O3  1  0.58455000  0.31819100  0.69320100  1
  O  O4  1  0.87555700  0.67542200  0.01025200  1
  O  O5  1  0.12444300  0.32457800  0.98974800  1
  O  O6  1  0.37555700  0.32457800  0.48974800  1
  O  O7  1  0.62444300  0.67542200  0.51025200  1
  O  O8  1  0.39242100  0.91122700  0.42000400  1
  O  O9  1  0.60757900  0.08877300  0.57999600  1
  O  O10  1  0.89242100  0.08877300  0.07999600  1
  O  O11  1  0.10757900  0.91122700  0.92000400  1
  O  O12  1  0.71335400  0.79570500  0.23222100  1
  O  O13  1  0.28664600  0.20429500  0.76777900  1
  O  O14  1  0.21335400  0.20429500  0.26777900  1
  O  O15  1  0.78664600  0.79570500  0.73222100  1
  O  O16  1  0.65326600  0.43237800  0.06890400  1
  O  O17  1  0.34673400  0.56762200  0.93109600  1
  O  O18  1  0.15326600  0.56762200  0.43109600  1
  O  O19  1  0.84673400  0.43237800  0.56890400  1
  O  O20  1  0.77517300  0.97060400  0.48394000  1
  O  O21  1  0.22482700  0.02939600  0.51606000  1
  O  O22  1  0.27517300  0.02939600  0.01606000  1
  O  O23  1  0.72482700  0.97060400  0.98394000  1
  O  O24  1  0.65164500  0.44789200  0.36648500  1
  O  O25  1  0.34835500  0.55210800  0.63351500  1
  O  O26  1  0.15164500  0.55210800  0.13351500  1
  O  O27  1  0.84835500  0.44789200  0.86648500  1
  O  O28  1  0.53239700  0.68393000  0.13129400  1
  O  O29  1  0.46760300  0.31607000  0.86870600  1
  O  O30  1  0.03239700  0.31607000  0.36870600  1
  O  O31  1  0.96760300  0.68393000  0.63129400  1
  O  O32  1  0.95244900  0.87792800  0.38350400  1
  O  O33  1  0.04755100  0.12207200  0.61649600  1
  O  O34  1  0.45244900  0.12207200  0.11649600  1
  O  O35  1  0.54755100  0.87792800  0.88350400  1
  O  O36  1  0.97063800  0.76475600  0.14713300  1
  O  O37  1  0.02936200  0.23524400  0.85286700  1
  O  O38  1  0.47063800  0.23524400  0.35286700  1
  O  O39  1  0.52936200  0.76475600  0.64713300  1
loop_
_geom_bond_atom_site_label_1
_geom_bond_atom_site_label_2
_geom_bond_distance
_geom_bond_site_symmetry_2
Eu0 O32 2.335339 1_455
Eu0 O34 2.396491 1_565
Eu0 O14 2.489422 1_565
Eu0 O22 2.513146 1_565
Eu0 O18 2.555861 1_555
Eu0 O2 2.600812 1_555
Eu0 O8 2.619542 1_555
Eu0 O5 2.686264 1_564
Eu0 O10 2.712514 1_465
Eu0 O36 3.046372 1_455
Eu1 O33 2.335339 1_655
Eu1 O35 2.396491 1_545
Eu1 O15 2.489422 1_545
Eu1 O23 2.513146 1_545
Eu1 O19 2.555861 1_555
Eu1 O3 2.600812 1_555
Eu1 O9 2.619542 1_555
Eu1 O4 2.686264 1_546
Eu1 O11 2.712514 1_645
Eu1 O37 3.046372 1_655
Eu2 O34 2.335339 1_555
Eu2 O32 2.396491 1_545
Eu2 O12 2.489422 1_545
Eu2 O20 2.513146 1_545
Eu2 O16 2.555861 1_555
Eu2 O0 2.600812 1_555
Eu2 O10 2.619542 1_555
Eu2 O7 2.686264 1_545
Eu2 O8 2.712514 1_545
Eu2 O38 3.046372 1_555
Eu3 O35 2.335339 1_555
Eu3 O33 2.396491 1_565
Eu3 O13 2.489422 1_565
Eu3 O21 2.513146 1_565
Eu3 O17 2.555861 1_555
Eu3 O1 2.600812 1_555
Eu3 O11 2.619542 1_555
Eu3 O6 2.686264 1_565
Eu3 O9 2.712514 1_565
Eu3 O39 3.046372 1_555
Mg0 O30 2.084432 1_655
Mg0 O19 2.089764 1_555
Mg0 O24 2.108896 1_555
Mg0 O18 2.134462 1_655
Mg0 O36 2.220721 1_555
Mg0 O12 2.358406 1_555
Mg1 O31 2.084432 1_455
Mg1 O18 2.089764 1_555
Mg1 O25 2.108896 1_555
Mg1 O19 2.134462 1_455
Mg1 O37 2.220721 1_555
Mg1 O13 2.358406 1_555
Mg2 O28 2.084432 1_555
Mg2 O17 2.089764 1_554
Mg2 O26 2.108896 1_555
Mg2 O16 2.134462 1_555
Mg2 O38 2.220721 1_555
Mg2 O14 2.358406 1_555
Mg3 O29 2.084432 1_555
Mg3 O16 2.089764 1_556
Mg3 O27 2.108896 1_555
Mg3 O17 2.134462 1_555
Mg3 O39 2.220721 1_555
Mg3 O15 2.358406 1_555
B0 O23 1.465117 1_554
B0 O10 1.482491 1_565
B0 O12 1.489077 1_555
B0 O36 1.493323 1_555
B1 O22 1.465117 1_556
B1 O11 1.482491 1_545
B1 O13 1.489077 1_555
B1 O37 1.493323 1_555
B2 O21 1.465117 1_555
B2 O8 1.482491 1_545
B2 O14 1.489077 1_555
B2 O38 1.493323 1_555
B3 O20 1.465117 1_555
B3 O9 1.482491 1_565
B3 O15 1.489077 1_555
B3 O39 1.493323 1_555
B4 O2 1.469986 1_555
B4 O24 1.472605 1_555
B4 O12 1.485110 1_555
B4 O28 1.507542 1_555
B5 O3 1.469986 1_555
B5 O25 1.472605 1_555
B5 O13 1.485110 1_555
B5 O29 1.507542 1_555
B6 O0 1.469986 1_455
B6 O26 1.472605 1_555
B6 O14 1.485110 1_555
B6 O30 1.507542 1_555
B7 O1 1.469986 1_655
B7 O27 1.472605 1_555
B7 O15 1.485110 1_555
B7 O31 1.507542 1_555
B8 O4 1.375364 1_555
B8 O16 1.378341 1_555
B8 O0 1.379831 1_555
B9 O5 1.375364 1_555
B9 O17 1.378341 1_555
B9 O1 1.379831 1_555
B10 O6 1.375364 1_555
B10 O18 1.378341 1_555
B10 O2 1.379831 1_555
B11 O7 1.375364 1_555
B11 O19 1.378341 1_555
B11 O3 1.379831 1_555
B12 O25 1.463533 1_555
B12 O8 1.495891 1_555
B12 O39 1.497703 1_555
B12 O7 1.512312 1_555
B13 O24 1.463533 1_555
B13 O9 1.495891 1_555
B13 O38 1.497703 1_555
B13 O6 1.512312 1_555
B14 O27 1.463533 1_555
B14 O10 1.495891 1_556
B14 O37 1.497703 1_655
B14 O5 1.512312 1_655
B15 O26 1.463533 1_555
B15 O11 1.495891 1_554
B15 O36 1.497703 1_455
B15 O4 1.512312 1_455
B16 O35 1.359528 1_554
B16 O28 1.374828 1_555
B16 O23 1.389603 1_554
B17 O34 1.359528 1_556
B17 O29 1.374828 1_555
B17 O22 1.389603 1_556
B18 O33 1.359528 1_555
B18 O30 1.374828 1_555
B18 O21 1.389603 1_555
B19 O32 1.359528 1_555
B19 O31 1.374828 1_555
B19 O20 1.389603 1_555
