# generated using pymatgen
data_NaFeP2O7
_symmetry_space_group_name_H-M   'P 1'
_cell_length_a   8.04038600
_cell_length_b   7.42402100
_cell_length_c   9.69185017
_cell_angle_alpha   68.28362271
_cell_angle_beta   90.00000000
_cell_angle_gamma   90.00000000
_symmetry_Int_Tables_number   1
_chemical_formula_structural   NaFeP2O7
_chemical_formula_sum   'Na4 Fe4 P8 O28'
_cell_volume   537.46606198
_cell_formula_units_Z   4
loop_
 _symmetry_equiv_pos_site_id
 _symmetry_equiv_pos_as_xyz
  1  'x, y, z'
loop_
 _atom_site_type_symbol
 _atom_site_label
 _atom_site_symmetry_multiplicity
 _atom_site_fract_x
 _atom_site_fract_y
 _atom_site_fract_z
 _atom_site_occupancy
  Na  Na0  1  0.52422300  0.71246900  0.29118200  1
  Na  Na1  1  0.02422300  0.28753100  0.20881800  1
  Na  Na2  1  0.97577700  0.71246900  0.79118200  1
  Na  Na3  1  0.47577700  0.28753100  0.70881800  1
  Fe  Fe0  1  0.99140800  0.74113300  0.24985700  1
  Fe  Fe1  1  0.49140800  0.25886700  0.25014300  1
  Fe  Fe2  1  0.00859200  0.25886700  0.75014300  1
  Fe  Fe3  1  0.50859200  0.74113300  0.74985700  1
  P  P0  1  0.78846400  0.32785700  0.45283400  1
  P  P1  1  0.75491100  0.92779900  0.95446600  1
  P  P2  1  0.24508900  0.07220100  0.04553400  1
  P  P3  1  0.74508900  0.92779900  0.45446600  1
  P  P4  1  0.71153600  0.32785700  0.95283400  1
  P  P5  1  0.21153600  0.67214300  0.54716600  1
  P  P6  1  0.25491100  0.07220100  0.54553400  1
  P  P7  1  0.28846400  0.67214300  0.04716600  1
  O  O0  1  0.89245600  0.36463100  0.89701800  1
  O  O1  1  0.39245600  0.63536900  0.60298200  1
  O  O2  1  0.10754400  0.63536900  0.10298200  1
  O  O3  1  0.60754400  0.36463100  0.39701800  1
  O  O4  1  0.70032500  0.30850400  0.11503000  1
  O  O5  1  0.20032500  0.69149600  0.38497000  1
  O  O6  1  0.29967500  0.69149600  0.88497000  1
  O  O7  1  0.79967500  0.30850400  0.61503000  1
  O  O8  1  0.58723500  0.46740400  0.84799200  1
  O  O9  1  0.08723500  0.53259600  0.65200800  1
  O  O10  1  0.41276500  0.53259600  0.15200800  1
  O  O11  1  0.91276500  0.46740400  0.34799200  1
  O  O12  1  0.63592900  0.81854800  0.89243500  1
  O  O13  1  0.13592900  0.18145200  0.60756500  1
  O  O14  1  0.36407100  0.18145200  0.10756500  1
  O  O15  1  0.86407100  0.81854800  0.39243500  1
  O  O16  1  0.84590100  0.12428700  0.43844900  1
  O  O17  1  0.34590100  0.87571300  0.06155100  1
  O  O18  1  0.15409900  0.87571300  0.56155100  1
  O  O19  1  0.65409900  0.12428700  0.93844900  1
  O  O20  1  0.71417800  0.81457400  0.61960500  1
  O  O21  1  0.21417800  0.18542600  0.88039500  1
  O  O22  1  0.28582200  0.18542600  0.38039500  1
  O  O23  1  0.78582200  0.81457400  0.11960500  1
  O  O24  1  0.58544900  0.98887400  0.36148500  1
  O  O25  1  0.08544900  0.01112600  0.13851500  1
  O  O26  1  0.41455100  0.01112600  0.63851500  1
  O  O27  1  0.91455100  0.98887400  0.86148500  1
loop_
_geom_bond_atom_site_label_1
_geom_bond_atom_site_label_2
_geom_bond_distance
_geom_bond_site_symmetry_2
Na0 O10 2.395562 1_555
Na0 O24 2.439702 1_555
Na0 O3 2.491851 1_555
Na0 O17 2.545890 1_555
Na0 O23 2.613643 1_555
Na0 O5 2.743710 1_555
Na1 O11 2.395562 1_455
Na1 O25 2.439702 1_555
Na1 O2 2.491851 1_555
Na1 O16 2.545890 1_455
Na1 O22 2.613643 1_555
Na1 O4 2.743710 1_455
Na2 O9 2.395562 1_655
Na2 O27 2.439702 1_555
Na2 O0 2.491851 1_555
Na2 O18 2.545890 1_655
Na2 O20 2.613643 1_555
Na2 O6 2.743710 1_655
Na3 O8 2.395562 1_555
Na3 O26 2.439702 1_555
Na3 O1 2.491851 1_555
Na3 O19 2.545890 1_555
Na3 O21 2.613643 1_555
Na3 O7 2.743710 1_555
Fe0 O15 1.968699 1_555
Fe0 O11 2.000955 1_555
Fe0 O23 2.028278 1_555
Fe0 O25 2.037960 1_665
Fe0 O5 2.077284 1_655
Fe0 O2 2.083731 1_655
Fe1 O14 1.968699 1_555
Fe1 O10 2.000955 1_555
Fe1 O22 2.028278 1_555
Fe1 O24 2.037960 1_545
Fe1 O4 2.077284 1_555
Fe1 O3 2.083731 1_555
Fe2 O13 1.968699 1_555
Fe2 O9 2.000955 1_555
Fe2 O21 2.028278 1_555
Fe2 O27 2.037960 1_445
Fe2 O7 2.077284 1_455
Fe2 O0 2.083731 1_455
Fe3 O12 1.968699 1_555
Fe3 O8 2.000955 1_555
Fe3 O20 2.028278 1_555
Fe3 O26 2.037960 1_565
Fe3 O6 2.077284 1_555
Fe3 O1 2.083731 1_555
O0 P4 1.540758 1_555
O1 P5 1.540758 1_555
O2 P7 1.540758 1_555
O3 P0 1.540758 1_555
O4 P4 1.527333 1_554
O5 P5 1.527333 1_555
O6 P7 1.527333 1_556
O7 P0 1.527333 1_555
O8 P4 1.524998 1_555
O9 P5 1.524998 1_555
O10 P7 1.524998 1_555
O11 P0 1.524998 1_555
O12 P1 1.515038 1_555
O13 P6 1.515038 1_555
O14 P2 1.515038 1_555
O15 P3 1.515038 1_555
O16 P3 1.625250 1_545
O16 P0 1.634836 1_555
O17 P2 1.625250 1_565
O17 P7 1.634836 1_555
O18 P6 1.625250 1_565
O18 P5 1.634836 1_555
O19 P1 1.625250 1_545
O19 P4 1.634836 1_555
O20 P3 1.527862 1_555
O21 P2 1.527862 1_556
O22 P6 1.527862 1_555
O23 P1 1.527862 1_554
O24 P3 1.537155 1_555
O25 P2 1.537155 1_555
O26 P6 1.537155 1_555
O27 P1 1.537155 1_555
