# generated using pymatgen
data_Rb3Mn3P3O10F7
_symmetry_space_group_name_H-M   'P 1'
_cell_length_a   8.93742756
_cell_length_b   8.93742756
_cell_length_c   12.41559726
_cell_angle_alpha   69.36756836
_cell_angle_beta   69.36756836
_cell_angle_gamma   60.49519961
_symmetry_Int_Tables_number   1
_chemical_formula_structural   Rb3Mn3P3O10F7
_chemical_formula_sum   'Rb6 Mn6 P6 O20 F14'
_cell_volume   788.04540952
_cell_formula_units_Z   2
loop_
 _symmetry_equiv_pos_site_id
 _symmetry_equiv_pos_as_xyz
  1  'x, y, z'
loop_
 _atom_site_type_symbol
 _atom_site_label
 _atom_site_symmetry_multiplicity
 _atom_site_fract_x
 _atom_site_fract_y
 _atom_site_fract_z
 _atom_site_occupancy
  Rb  Rb0  1  0.45786600  0.89259800  0.07449700  1
  Rb  Rb1  1  0.89259800  0.45786600  0.57449700  1
  Rb  Rb2  1  0.06250300  0.69056200  0.07193100  1
  Rb  Rb3  1  0.69056200  0.06250300  0.57193100  1
  Rb  Rb4  1  0.85171000  0.28245500  0.08312800  1
  Rb  Rb5  1  0.28245500  0.85171000  0.58312800  1
  Mn  Mn0  1  0.12835700  0.21716100  0.30310100  1
  Mn  Mn1  1  0.21716100  0.12835700  0.80310100  1
  Mn  Mn2  1  0.37946600  0.45736000  0.31122400  1
  Mn  Mn3  1  0.45736000  0.37946600  0.81122400  1
  Mn  Mn4  1  0.62382500  0.96663900  0.30370900  1
  Mn  Mn5  1  0.96663900  0.62382500  0.80370900  1
  P  P0  1  0.44098100  0.28264500  0.10464400  1
  P  P1  1  0.28264500  0.44098100  0.60464400  1
  P  P2  1  0.05171100  0.88453600  0.28618800  1
  P  P3  1  0.88453600  0.05171100  0.78618800  1
  P  P4  1  0.71463100  0.55253700  0.29128500  1
  P  P5  1  0.55253700  0.71463100  0.79128500  1
  O  O0  1  0.59076400  0.10219900  0.14590200  1
  O  O1  1  0.10219900  0.59076400  0.64590200  1
  O  O2  1  0.26021200  0.27076700  0.14429000  1
  O  O3  1  0.27076700  0.26021200  0.64429000  1
  O  O4  1  0.42924400  0.42960300  0.15109200  1
  O  O5  1  0.42960300  0.42924400  0.65109200  1
  O  O6  1  0.48911800  0.33257500  0.96957000  1
  O  O7  1  0.33257500  0.48911800  0.46957000  1
  O  O8  1  0.90797800  0.43037900  0.25302000  1
  O  O9  1  0.43037900  0.90797800  0.75302000  1
  O  O10  1  0.08937100  0.04598500  0.24945400  1
  O  O11  1  0.04598500  0.08937100  0.74945400  1
  O  O12  1  0.89017900  0.92227200  0.24808000  1
  O  O13  1  0.92227200  0.89017900  0.74808000  1
  O  O14  1  0.68216200  0.74591100  0.25189500  1
  O  O15  1  0.74591100  0.68216200  0.75189500  1
  O  O16  1  0.59039600  0.51768200  0.25455000  1
  O  O17  1  0.51768200  0.59039600  0.75455000  1
  O  O18  1  0.21237500  0.72310400  0.25014500  1
  O  O19  1  0.72310400  0.21237500  0.75014500  1
  F  F0  1  0.00556000  0.16794700  0.45674400  1
  F  F1  1  0.16794700  0.00556000  0.95674400  1
  F  F2  1  0.18696000  0.38795900  0.35465500  1
  F  F3  1  0.38795900  0.18696000  0.85465500  1
  F  F4  1  0.67001200  0.50618900  0.43178400  1
  F  F5  1  0.50618900  0.67001200  0.93178400  1
  F  F6  1  0.55692400  0.18352300  0.35288700  1
  F  F7  1  0.18352300  0.55692400  0.85288700  1
  F  F8  1  0.64253900  0.84117000  0.45724500  1
  F  F9  1  0.84117000  0.64253900  0.95724500  1
  F  F10  1  0.00235600  0.83865400  0.42815900  1
  F  F11  1  0.83865400  0.00235600  0.92815900  1
  F  F12  1  0.34995700  0.02493300  0.34786200  1
  F  F13  1  0.02493300  0.34995700  0.84786200  1
loop_
_geom_bond_atom_site_label_1
_geom_bond_atom_site_label_2
_geom_bond_distance
_geom_bond_site_symmetry_2
Mn0 O2 1.938777 1_555
Mn0 O8 2.056316 1_455
Mn0 O10 2.076606 1_555
Mn1 O3 1.938777 1_555
Mn1 O9 2.056316 1_545
Mn1 O11 2.076606 1_555
Mn2 O7 1.953622 1_555
Mn2 O4 1.956445 1_555
Mn2 O16 2.034343 1_555
Mn2 O18 2.116915 1_555
Mn3 O6 1.953622 1_555
Mn3 O5 1.956445 1_555
Mn3 O17 2.034343 1_555
Mn3 O19 2.116915 1_555
Mn4 O0 1.943294 1_565
Mn4 O14 2.054813 1_555
Mn4 O12 2.098966 1_555
Mn5 O1 1.943294 1_655
Mn5 O15 2.054813 1_555
Mn5 O13 2.098966 1_555
O0 P0 1.558805 1_555
O0 Rb0 3.132107 1_545
O0 Rb4 3.190125 1_555
O1 P1 1.558805 1_555
O1 Rb1 3.132107 1_455
O1 Rb5 3.190125 1_555
O2 P0 1.560583 1_555
O2 Rb2 3.196758 1_555
O2 Rb0 3.224769 1_545
O3 P1 1.560583 1_555
O3 Rb3 3.196758 1_555
O3 Rb1 3.224769 1_455
O4 P0 1.556953 1_555
O4 Rb2 3.205304 1_555
O4 Rb4 3.216145 1_555
O5 P1 1.556953 1_555
O5 Rb3 3.205304 1_555
O5 Rb5 3.216145 1_555
O6 P0 1.532928 1_556
O7 P1 1.532928 1_555
O8 P4 1.527227 1_555
O8 Rb2 3.108069 1_655
O8 Rb4 3.133311 1_555
O9 P5 1.527227 1_555
O9 Rb3 3.108069 1_565
O9 Rb5 3.133311 1_555
O10 P2 1.519796 1_545
O10 Rb4 2.972616 1_455
O10 Rb0 3.170813 1_545
O11 P3 1.519796 1_455
O11 Rb5 2.972616 1_545
O11 Rb1 3.170813 1_455
O12 P2 1.520245 1_655
O12 Rb2 3.019935 1_655
O12 Rb4 3.071647 1_565
O13 P3 1.520245 1_565
O13 Rb3 3.019935 1_565
O13 Rb5 3.071647 1_655
O14 P4 1.523367 1_555
O14 Rb0 3.012688 1_555
O14 Rb2 3.249936 1_655
O15 P5 1.523367 1_555
O15 Rb1 3.012688 1_555
O15 Rb3 3.249936 1_565
O16 P4 1.528276 1_555
O16 Rb4 3.036108 1_555
O16 Rb0 3.210268 1_555
O17 P5 1.528276 1_555
O17 Rb5 3.036108 1_555
O17 Rb1 3.210268 1_555
O18 P2 1.518317 1_555
O18 Rb0 3.072137 1_555
O18 Rb2 3.114554 1_555
O19 P3 1.518317 1_555
O19 Rb1 3.072137 1_555
O19 Rb3 3.114554 1_555
F0 Mn0 1.856217 1_555
F0 Rb1 2.987199 1_455
F0 Rb5 3.048998 1_545
F0 Rb3 3.112101 1_455
F1 Mn1 1.856217 1_555
F1 Rb0 2.987199 1_546
F1 Rb4 3.048998 1_456
F1 Rb2 3.112101 1_546
F2 Mn2 1.948660 1_555
F2 Mn0 2.174067 1_555
F2 Rb1 3.046940 1_455
F3 Mn3 1.948660 1_555
F3 Mn1 2.174067 1_555
F3 Rb0 3.046940 1_546
F4 P4 1.592706 1_555
F4 Rb1 2.895183 1_555
F5 P5 1.592706 1_555
F5 Rb0 2.895183 1_556
F6 Mn4 1.980615 1_545
F6 Mn2 2.152999 1_555
F6 Rb3 2.989333 1_555
F7 Mn5 1.980615 1_455
F7 Mn3 2.152999 1_555
F7 Rb2 2.989333 1_556
F8 Mn4 1.858142 1_555
F8 Rb5 3.011473 1_555
F8 Rb3 3.062151 1_565
F8 Rb1 3.175955 1_555
F9 Mn5 1.858142 1_555
F9 Rb4 3.011473 1_556
F9 Rb2 3.062151 1_656
F9 Rb0 3.175955 1_556
F10 P2 1.609505 1_555
F10 Rb3 2.911015 1_465
F11 P3 1.609505 1_555
F11 Rb2 2.911015 1_646
F12 Mn0 1.983490 1_555
F12 Mn4 2.136032 1_545
F12 Rb5 2.789977 1_545
F13 Mn1 1.983490 1_555
F13 Mn5 2.136032 1_455
F13 Rb4 2.789977 1_456
