# generated using pymatgen
data_Li2MnV3O8
_symmetry_space_group_name_H-M   'P 1'
_cell_length_a   8.47789639
_cell_length_b   8.47789639
_cell_length_c   8.47789687
_cell_angle_alpha   89.90581838
_cell_angle_beta   89.90581838
_cell_angle_gamma   89.90581925
_symmetry_Int_Tables_number   1
_chemical_formula_structural   Li2MnV3O8
_chemical_formula_sum   'Li8 Mn4 V12 O32'
_cell_volume   609.34405719
_cell_formula_units_Z   4
loop_
 _symmetry_equiv_pos_site_id
 _symmetry_equiv_pos_as_xyz
  1  'x, y, z'
loop_
 _atom_site_type_symbol
 _atom_site_label
 _atom_site_symmetry_multiplicity
 _atom_site_fract_x
 _atom_site_fract_y
 _atom_site_fract_z
 _atom_site_occupancy
  Li  Li0  1  0.87343800  0.12307000  0.37173300  1
  Li  Li1  1  0.75127900  0.24749000  0.75159500  1
  Li  Li2  1  0.24909800  0.24909800  0.24909800  1
  Li  Li3  1  0.12307000  0.37173300  0.87343800  1
  Li  Li4  1  0.62878700  0.62878700  0.62878700  1
  Li  Li5  1  0.75159500  0.75127900  0.24749000  1
  Li  Li6  1  0.24749000  0.75159500  0.75127900  1
  Li  Li7  1  0.37173300  0.87343800  0.12307000  1
  Mn  Mn0  1  0.50069600  0.99562600  0.49879800  1
  Mn  Mn1  1  0.49879800  0.50069600  0.99562600  1
  Mn  Mn2  1  0.99562600  0.49879800  0.50069600  1
  Mn  Mn3  1  0.00153800  0.00153800  0.00153800  1
  V  V0  1  0.62081800  0.12240300  0.12534800  1
  V  V1  1  0.37731200  0.12334400  0.87485000  1
  V  V2  1  0.12240300  0.12534800  0.62081800  1
  V  V3  1  0.87485000  0.37731200  0.12334400  1
  V  V4  1  0.62278700  0.37129900  0.38537400  1
  V  V5  1  0.37129900  0.38537400  0.62278700  1
  V  V6  1  0.87802600  0.62332000  0.87832600  1
  V  V7  1  0.12534800  0.62081800  0.12240300  1
  V  V8  1  0.38537400  0.62278700  0.37129900  1
  V  V9  1  0.62332000  0.87832600  0.87802600  1
  V  V10  1  0.87832600  0.87802600  0.62332000  1
  V  V11  1  0.12334400  0.87485000  0.37731200  1
  O  O0  1  0.12951600  0.10516300  0.39941100  1
  O  O1  1  0.89230700  0.09979500  0.62937000  1
  O  O2  1  0.61340200  0.11449400  0.88572400  1
  O  O3  1  0.39941100  0.12951600  0.10516300  1
  O  O4  1  0.14525400  0.12080300  0.85114700  1
  O  O5  1  0.36360800  0.14554700  0.63290100  1
  O  O6  1  0.62849200  0.13843500  0.35478800  1
  O  O7  1  0.85114700  0.14525400  0.12080300  1
  O  O8  1  0.13843500  0.35478800  0.62849200  1
  O  O9  1  0.37263300  0.35241400  0.85469000  1
  O  O10  1  0.63290100  0.36360800  0.14554700  1
  O  O11  1  0.85469000  0.37263300  0.35241400  1
  O  O12  1  0.61204000  0.37112500  0.59858600  1
  O  O13  1  0.38495600  0.38495600  0.38495600  1
  O  O14  1  0.10516300  0.39941100  0.12951600  1
  O  O15  1  0.86519400  0.39305500  0.90190900  1
  O  O16  1  0.37112500  0.59858600  0.61204000  1
  O  O17  1  0.59858600  0.61204000  0.37112500  1
  O  O18  1  0.88572400  0.61340200  0.11449400  1
  O  O19  1  0.09979500  0.62937000  0.89230700  1
  O  O20  1  0.35478800  0.62849200  0.13843500  1
  O  O21  1  0.14554700  0.63290100  0.36360800  1
  O  O22  1  0.87463400  0.64764400  0.64545800  1
  O  O23  1  0.64764400  0.64545800  0.87463400  1
  O  O24  1  0.35241400  0.85469000  0.37263300  1
  O  O25  1  0.12080300  0.85114700  0.14525400  1
  O  O26  1  0.86238300  0.86238300  0.86238300  1
  O  O27  1  0.64545800  0.87463400  0.64764400  1
  O  O28  1  0.90190900  0.86519400  0.39305500  1
  O  O29  1  0.11449400  0.88572400  0.61340200  1
  O  O30  1  0.39305500  0.90190900  0.86519400  1
  O  O31  1  0.62937000  0.89230700  0.09979500  1
loop_
_geom_bond_atom_site_label_1
_geom_bond_atom_site_label_2
_geom_bond_distance
_geom_bond_site_symmetry_2
Li0 O6 2.085669 1_555
Li0 O11 2.127536 1_555
Li0 O7 2.143975 1_555
Li0 O0 2.189026 1_655
Li0 O1 2.198857 1_555
Li0 O28 2.206291 1_545
Li1 O2 1.981534 1_555
Li1 O1 2.016525 1_555
Li1 O15 2.023055 1_555
Li1 O12 2.042384 1_555
Li2 O13 1.998235 1_555
Li2 O0 2.033591 1_555
Li2 O14 2.033591 1_555
Li2 O3 2.033591 1_555
Li3 O8 2.085669 1_555
Li3 O9 2.127536 1_555
Li3 O4 2.143975 1_555
Li3 O14 2.189026 1_556
Li3 O19 2.198857 1_555
Li3 O15 2.206291 1_455
Li4 O22 2.095670 1_555
Li4 O27 2.095670 1_555
Li4 O23 2.095670 1_555
Li4 O16 2.204639 1_555
Li4 O12 2.204639 1_555
Li4 O17 2.204640 1_555
Li5 O18 1.981534 1_555
Li5 O31 2.016525 1_555
Li5 O28 2.023055 1_555
Li5 O17 2.042384 1_555
Li6 O29 1.981534 1_555
Li6 O19 2.016525 1_555
Li6 O30 2.023055 1_555
Li6 O16 2.042384 1_555
Li7 O20 2.085669 1_555
Li7 O24 2.127536 1_555
Li7 O25 2.143975 1_555
Li7 O3 2.189026 1_565
Li7 O31 2.198857 1_555
Li7 O30 2.206291 1_554
Mn0 O6 2.031106 1_565
Mn0 O27 2.036536 1_555
Mn0 O24 2.040987 1_555
Mn0 O5 2.062607 1_565
Mn1 O20 2.031106 1_556
Mn1 O23 2.036536 1_555
Mn1 O9 2.040987 1_555
Mn1 O10 2.062607 1_556
Mn2 O8 2.031106 1_655
Mn2 O22 2.036536 1_555
Mn2 O11 2.040987 1_555
Mn2 O21 2.062607 1_655
Mn3 O4 2.031553 1_554
Mn3 O7 2.031553 1_455
Mn3 O25 2.031553 1_545
Mn3 O26 2.046729 1_444
O0 V2 1.885987 1_555
O0 V11 1.962636 1_545
O1 V10 1.884849 1_545
O1 V2 1.964283 1_655
O2 V9 2.005000 1_545
O2 V1 2.005095 1_555
O2 V0 2.033803 1_556
O3 V0 1.885987 1_555
O3 V1 1.962636 1_554
O4 V2 1.962918 1_555
O4 V1 1.978085 1_555
O5 V5 2.036042 1_555
O5 V2 2.055086 1_555
O5 V1 2.062976 1_555
O6 V0 1.951333 1_555
O6 V4 1.992074 1_555
O7 V0 1.962918 1_555
O7 V3 1.978085 1_555
O8 V2 1.951333 1_555
O8 V5 1.992074 1_555
O9 V1 1.949603 1_555
O9 V5 1.985401 1_555
O10 V4 2.036042 1_555
O10 V0 2.055086 1_555
O10 V3 2.062976 1_555
O11 V3 1.949603 1_555
O11 V4 1.985401 1_555
O12 V4 1.809733 1_555
O12 V5 2.054306 1_555
O13 V8 2.019447 1_555
O13 V4 2.019447 1_555
O13 V5 2.019447 1_555
O14 V7 1.885987 1_555
O14 V3 1.962636 1_455
O15 V3 1.883727 1_556
O15 V6 1.965221 1_555
O16 V5 1.809733 1_555
O16 V8 2.054306 1_555
O17 V8 1.809733 1_555
O17 V4 2.054306 1_555
O18 V6 2.005000 1_554
O18 V3 2.005095 1_555
O18 V7 2.033803 1_655
O19 V6 1.884849 1_455
O19 V7 1.964283 1_556
O20 V7 1.951333 1_555
O20 V8 1.992074 1_555
O21 V8 2.036042 1_555
O21 V7 2.055086 1_555
O21 V11 2.062976 1_555
O22 V10 1.962140 1_555
O22 V6 1.984885 1_555
O23 V6 1.962140 1_555
O23 V9 1.984885 1_555
O24 V11 1.949603 1_555
O24 V8 1.985401 1_555
O25 V7 1.962918 1_555
O25 V11 1.978085 1_555
O26 V6 2.035154 1_555
O26 V9 2.035154 1_555
O26 V10 2.035154 1_555
O27 V9 1.962140 1_555
O27 V10 1.984885 1_555
O28 V11 1.883727 1_655
O28 V10 1.965221 1_555
O29 V10 2.005000 1_455
O29 V11 2.005095 1_555
O29 V2 2.033803 1_565
O30 V1 1.883727 1_565
O30 V9 1.965221 1_555
O31 V9 1.884849 1_554
O31 V0 1.964283 1_565
