# generated using pymatgen
data_KLiWO4
_symmetry_space_group_name_H-M   'P 1'
_cell_length_a   9.23030219
_cell_length_b   9.66796673
_cell_length_c   16.85451221
_cell_angle_alpha   89.79640018
_cell_angle_beta   90.00000000
_cell_angle_gamma   90.00000000
_symmetry_Int_Tables_number   1
_chemical_formula_structural   KLiWO4
_chemical_formula_sum   'K12 Li12 W12 O48'
_cell_volume   1504.05775260
_cell_formula_units_Z   12
loop_
 _symmetry_equiv_pos_site_id
 _symmetry_equiv_pos_as_xyz
  1  'x, y, z'
loop_
 _atom_site_type_symbol
 _atom_site_label
 _atom_site_symmetry_multiplicity
 _atom_site_fract_x
 _atom_site_fract_y
 _atom_site_fract_z
 _atom_site_occupancy
  K  K0  1  0.97056052  0.25997062  0.58747967  1
  K  K1  1  0.02943948  0.74002938  0.41252033  1
  K  K2  1  0.47056052  0.24002938  0.91252033  1
  K  K3  1  0.52943948  0.75997062  0.08747967  1
  K  K4  1  0.50807922  0.75305669  0.74806398  1
  K  K5  1  0.49192078  0.24694331  0.25193602  1
  K  K6  1  0.00807922  0.74694331  0.75193602  1
  K  K7  1  0.99192078  0.25305669  0.24806398  1
  K  K8  1  0.53663929  0.23439178  0.57010989  1
  K  K9  1  0.46336071  0.76560822  0.42989011  1
  K  K10  1  0.03663929  0.26560822  0.92989011  1
  K  K11  1  0.96336071  0.73439178  0.07010989  1
  Li  Li0  1  0.16956035  0.93147565  0.90913616  1
  Li  Li1  1  0.83043965  0.06852435  0.09086384  1
  Li  Li2  1  0.66956035  0.56852435  0.59086384  1
  Li  Li3  1  0.33043965  0.43147565  0.40913616  1
  Li  Li4  1  0.67016080  0.59920618  0.92001543  1
  Li  Li5  1  0.32983920  0.40079382  0.07998457  1
  Li  Li6  1  0.17016080  0.90079382  0.57998457  1
  Li  Li7  1  0.82983920  0.09920618  0.42001543  1
  Li  Li8  1  0.66800613  0.08306625  0.73935750  1
  Li  Li9  1  0.33199387  0.91693375  0.26064250  1
  Li  Li10  1  0.16800613  0.41693375  0.76064250  1
  Li  Li11  1  0.83199387  0.58306625  0.23935750  1
  W  W0  1  0.78717708  0.89410091  0.58172281  1
  W  W1  1  0.21282292  0.10589909  0.41827719  1
  W  W2  1  0.28717708  0.60589909  0.91827719  1
  W  W3  1  0.71282292  0.39410091  0.08172281  1
  W  W4  1  0.78512669  0.93359364  0.90742809  1
  W  W5  1  0.21487331  0.06640636  0.09257191  1
  W  W6  1  0.28512669  0.56640636  0.59257191  1
  W  W7  1  0.71487331  0.43359364  0.40742809  1
  W  W8  1  0.28294055  0.07679192  0.73666419  1
  W  W9  1  0.71705945  0.92320808  0.26333581  1
  W  W10  1  0.78294055  0.42320808  0.76333581  1
  W  W11  1  0.21705945  0.57679192  0.23666419  1
  O  O0  1  0.76715367  0.92762010  0.68704112  1
  O  O1  1  0.23284633  0.07237990  0.31295888  1
  O  O2  1  0.26715367  0.57237990  0.81295888  1
  O  O3  1  0.73284633  0.42762010  0.18704112  1
  O  O4  1  0.75425353  0.05305616  0.52601943  1
  O  O5  1  0.24574647  0.94694384  0.47398057  1
  O  O6  1  0.25425353  0.44694384  0.97398057  1
  O  O7  1  0.74574647  0.55305616  0.02601943  1
  O  O8  1  0.65766437  0.04297752  0.85373095  1
  O  O9  1  0.34233563  0.95702248  0.14626905  1
  O  O10  1  0.15766437  0.45702248  0.64626905  1
  O  O11  1  0.84233563  0.54297752  0.35373095  1
  O  O12  1  0.75221389  0.43732739  0.51353005  1
  O  O13  1  0.24778611  0.56267261  0.48646995  1
  O  O14  1  0.25221389  0.06267261  0.98646995  1
  O  O15  1  0.74778611  0.93732739  0.01353005  1
  O  O16  1  0.66124157  0.76041739  0.55032520  1
  O  O17  1  0.33875843  0.23958261  0.44967480  1
  O  O18  1  0.16124157  0.73958261  0.94967480  1
  O  O19  1  0.83875843  0.26041739  0.05032520  1
  O  O20  1  0.74956530  0.26276361  0.71036044  1
  O  O21  1  0.25043470  0.73723639  0.28963956  1
  O  O22  1  0.24956530  0.23723639  0.78963956  1
  O  O23  1  0.75043470  0.76276361  0.21036044  1
  O  O24  1  0.26544478  0.93196527  0.80510482  1
  O  O25  1  0.73455522  0.06803473  0.19489518  1
  O  O26  1  0.76544478  0.56803473  0.69489518  1
  O  O27  1  0.23455522  0.43196527  0.30510482  1
  O  O28  1  0.65810025  0.44204167  0.84606556  1
  O  O29  1  0.34189975  0.55795833  0.15393444  1
  O  O30  1  0.15810025  0.05795833  0.65393444  1
  O  O31  1  0.84189975  0.94204167  0.34606556  1
  O  O32  1  0.96842157  0.99354953  0.88984931  1
  O  O33  1  0.03157843  0.00645047  0.11015069  1
  O  O34  1  0.46842157  0.50645047  0.61015069  1
  O  O35  1  0.53157843  0.49354953  0.38984931  1
  O  O36  1  0.46730828  0.07573745  0.69870578  1
  O  O37  1  0.53269172  0.92426255  0.30129422  1
  O  O38  1  0.96730828  0.42426255  0.80129422  1
  O  O39  1  0.03269172  0.57573745  0.19870578  1
  O  O40  1  0.77502040  0.75561614  0.87334739  1
  O  O41  1  0.22497960  0.24438386  0.12665261  1
  O  O42  1  0.27502040  0.74438386  0.62665261  1
  O  O43  1  0.72497960  0.25561614  0.37334739  1
  O  O44  1  0.47093474  0.66441989  0.93605857  1
  O  O45  1  0.52906526  0.33558011  0.06394143  1
  O  O46  1  0.97093474  0.83558011  0.56394143  1
  O  O47  1  0.02906526  0.16441989  0.43605857  1
loop_
_geom_bond_atom_site_label_1
_geom_bond_atom_site_label_2
_geom_bond_distance
_geom_bond_site_symmetry_2
K0 O10 2.758119 1_655
K0 O47 2.770398 1_655
K0 O30 2.837238 1_655
K0 O20 2.907157 1_555
K0 O12 2.922374 1_555
K0 O4 3.012619 1_555
K1 O11 2.758119 1_455
K1 O46 2.770398 1_455
K1 O31 2.837238 1_455
K1 O21 2.907157 1_555
K1 O13 2.922374 1_555
K1 O5 3.012619 1_555
K2 O8 2.758119 1_555
K2 O45 2.770398 1_556
K2 O28 2.837238 1_555
K2 O22 2.907157 1_555
K2 O14 2.922374 1_555
K2 O6 3.012619 1_555
K3 O9 2.758119 1_555
K3 O44 2.770398 1_554
K3 O29 2.837238 1_555
K3 O23 2.907157 1_555
K3 O15 2.922374 1_555
K3 O7 3.012619 1_555
K4 O42 2.970419 1_555
K4 O24 2.990595 1_555
K4 O2 3.029743 1_555
K4 O0 3.100359 1_555
K4 O26 3.107652 1_555
K4 O40 3.245125 1_555
K4 O36 3.247702 1_565
K4 O44 3.297324 1_555
K4 O34 3.355714 1_555
K5 O43 2.970419 1_555
K5 O25 2.990595 1_555
K5 O3 3.029743 1_555
K5 O1 3.100359 1_555
K5 O27 3.107652 1_555
K5 O41 3.245125 1_555
K5 O37 3.247702 1_545
K5 O45 3.297324 1_555
K5 O35 3.355714 1_555
K6 O40 2.970419 1_455
K6 O26 2.990595 1_455
K6 O0 3.029743 1_455
K6 O2 3.100359 1_555
K6 O24 3.107652 1_555
K6 O42 3.245125 1_555
K6 O38 3.247702 1_455
K6 O46 3.297324 1_455
K6 O32 3.355714 1_455
K7 O41 2.970419 1_655
K7 O27 2.990595 1_655
K7 O1 3.029743 1_655
K7 O3 3.100359 1_555
K7 O25 3.107652 1_555
K7 O43 3.245125 1_555
K7 O39 3.247702 1_655
K7 O47 3.297324 1_655
K7 O33 3.355714 1_655
K8 O36 2.726969 1_555
K8 O17 2.730987 1_555
K8 O4 2.769417 1_555
K8 O34 2.789764 1_555
K8 O12 2.950395 1_555
K8 O20 3.087125 1_555
K9 O37 2.726969 1_555
K9 O16 2.730987 1_555
K9 O5 2.769417 1_555
K9 O35 2.789764 1_555
K9 O13 2.950395 1_555
K9 O21 3.087125 1_555
K10 O38 2.726969 1_455
K10 O19 2.730987 1_456
K10 O6 2.769417 1_555
K10 O32 2.789764 1_445
K10 O14 2.950395 1_555
K10 O22 3.087125 1_555
K11 O39 2.726969 1_655
K11 O18 2.730987 1_654
K11 O7 2.769417 1_555
K11 O33 2.789764 1_665
K11 O15 2.950395 1_555
K11 O23 3.087125 1_555
Li0 O24 1.964094 1_555
Li0 O14 1.975237 1_565
Li0 O18 1.976248 1_555
Li0 O32 1.977700 1_455
Li1 O25 1.964094 1_555
Li1 O15 1.975237 1_545
Li1 O19 1.976248 1_555
Li1 O33 1.977700 1_655
Li2 O26 1.964094 1_555
Li2 O12 1.975237 1_555
Li2 O16 1.976248 1_555
Li2 O34 1.977700 1_555
Li3 O27 1.964094 1_555
Li3 O13 1.975237 1_555
Li3 O17 1.976248 1_555
Li3 O35 1.977700 1_555
Li4 O40 1.957980 1_555
Li4 O44 1.963021 1_555
Li4 O7 1.967808 1_556
Li4 O28 1.971827 1_555
Li5 O41 1.957980 1_555
Li5 O45 1.963021 1_555
Li5 O6 1.967808 1_554
Li5 O29 1.971827 1_555
Li6 O42 1.957980 1_555
Li6 O46 1.963021 1_455
Li6 O5 1.967808 1_555
Li6 O30 1.971827 1_565
Li7 O43 1.957980 1_555
Li7 O47 1.963021 1_655
Li7 O4 1.967808 1_555
Li7 O31 1.971827 1_545
Li8 O20 1.953918 1_555
Li8 O8 1.967252 1_555
Li8 O0 1.970534 1_545
Li8 O36 1.976507 1_555
Li9 O21 1.953918 1_555
Li9 O9 1.967252 1_555
Li9 O1 1.970534 1_565
Li9 O37 1.976507 1_555
Li10 O22 1.953918 1_555
Li10 O10 1.967252 1_555
Li10 O2 1.970534 1_555
Li10 O38 1.976507 1_455
Li11 O23 1.953918 1_555
Li11 O11 1.967252 1_555
Li11 O3 1.970534 1_555
Li11 O39 1.976507 1_655
O0 W0 1.814994 1_555
O1 W1 1.814994 1_555
O2 W2 1.814994 1_555
O3 W3 1.814994 1_555
O4 W0 1.823518 1_545
O5 W1 1.823518 1_565
O6 W2 1.823518 1_555
O7 W3 1.823518 1_555
O8 W4 1.820668 1_545
O9 W5 1.820668 1_565
O10 W6 1.820668 1_555
O11 W7 1.820668 1_555
O12 W7 1.821692 1_555
O13 W6 1.821692 1_555
O14 W5 1.821692 1_556
O15 W4 1.821692 1_554
O16 W0 1.818393 1_555
O17 W1 1.818393 1_555
O18 W2 1.818393 1_555
O19 W3 1.818393 1_555
O20 W10 1.818819 1_555
O21 W11 1.818819 1_555
O22 W8 1.818819 1_555
O23 W9 1.818819 1_555
O24 W8 1.818170 1_565
O25 W9 1.818170 1_545
O26 W10 1.818170 1_555
O27 W11 1.818170 1_555
O28 W10 1.818530 1_555
O29 W11 1.818530 1_555
O30 W8 1.818530 1_555
O31 W9 1.818530 1_555
O32 W4 1.812449 1_555
O33 W5 1.812449 1_555
O34 W6 1.812449 1_555
O35 W7 1.812449 1_555
O36 W8 1.818097 1_555
O37 W9 1.818097 1_555
O38 W10 1.818097 1_555
O39 W11 1.818097 1_555
O40 W4 1.818356 1_555
O41 W5 1.818356 1_555
O42 W6 1.818356 1_555
O43 W7 1.818356 1_555
O44 W2 1.813288 1_555
O45 W3 1.813288 1_555
O46 W0 1.813288 1_555
O47 W1 1.813288 1_555
