# generated using pymatgen
data_KTbPrNbO6
_symmetry_space_group_name_H-M   'P 1'
_cell_length_a   5.96912402
_cell_length_b   5.96912402
_cell_length_c   5.96912402
_cell_angle_alpha   60.00000000
_cell_angle_beta   60.00000000
_cell_angle_gamma   60.00000000
_symmetry_Int_Tables_number   1
_chemical_formula_structural   KTbPrNbO6
_chemical_formula_sum   'K1 Tb1 Pr1 Nb1 O6'
_cell_volume   150.38925514
_cell_formula_units_Z   1
loop_
 _symmetry_equiv_pos_site_id
 _symmetry_equiv_pos_as_xyz
  1  'x, y, z'
loop_
 _atom_site_type_symbol
 _atom_site_label
 _atom_site_symmetry_multiplicity
 _atom_site_fract_x
 _atom_site_fract_y
 _atom_site_fract_z
 _atom_site_occupancy
  K  K0  1  0.75000000  0.75000000  0.75000000  1
  Tb  Tb0  1  0.50000000  0.50000000  0.50000000  1
  Pr  Pr0  1  0.25000000  0.25000000  0.25000000  1
  Nb  Nb0  1  -0.00000000  0.00000000  0.00000000  1
  O  O0  1  0.76282956  0.23717044  0.23717044  1
  O  O1  1  0.23717044  0.76282956  0.76282956  1
  O  O2  1  0.76282956  0.23717044  0.76282956  1
  O  O3  1  0.23717044  0.76282956  0.23717044  1
  O  O4  1  0.76282956  0.76282956  0.23717044  1
  O  O5  1  0.23717044  0.23717044  0.76282956  1
loop_
_geom_bond_atom_site_label_1
_geom_bond_atom_site_label_2
_geom_bond_distance
_geom_bond_site_symmetry_2
K0 O4 2.986526 1_555
K0 O0 2.986526 1_565
K0 O5 2.986526 1_655
K0 O5 2.986526 1_565
K0 O2 2.986526 1_555
K0 O3 2.986526 1_556
K0 O0 2.986526 1_556
K0 O1 2.986526 1_555
K0 O4 2.986526 1_556
K0 O3 2.986526 1_655
K0 O2 2.986526 1_565
K0 O1 2.986526 1_655
Nb0 O4 2.002102 1_445
Nb0 O2 2.002102 1_454
Nb0 O1 2.002102 1_544
Nb0 O3 2.002102 1_545
Nb0 O5 2.002102 1_554
Nb0 O0 2.002102 1_455
O0 Tb0 2.218706 1_555
O0 Pr0 2.986526 1_555
O0 Pr0 2.986526 1_655
O1 Tb0 2.218706 1_555
O1 Pr0 2.986526 1_556
O1 Pr0 2.986526 1_565
O2 Tb0 2.218706 1_555
O2 Pr0 2.986526 1_556
O2 Pr0 2.986526 1_655
O3 Tb0 2.218706 1_555
O3 Pr0 2.986526 1_555
O3 Pr0 2.986526 1_565
O4 Tb0 2.218706 1_555
O4 Pr0 2.986526 1_565
O4 Pr0 2.986526 1_655
O5 Tb0 2.218706 1_555
O5 Pr0 2.986526 1_556
O5 Pr0 2.986526 1_555
