# generated using pymatgen
data_Dy2Ga3Ni
_symmetry_space_group_name_H-M   'P 1'
_cell_length_a   4.29107838
_cell_length_b   4.29107838
_cell_length_c   7.51161400
_cell_angle_alpha   90.00000000
_cell_angle_beta   90.00000000
_cell_angle_gamma   120.00000591
_symmetry_Int_Tables_number   1
_chemical_formula_structural   Dy2Ga3Ni
_chemical_formula_sum   'Dy2 Ga3 Ni1'
_cell_volume   119.78343522
_cell_formula_units_Z   1
loop_
 _symmetry_equiv_pos_site_id
 _symmetry_equiv_pos_as_xyz
  1  'x, y, z'
loop_
 _atom_site_type_symbol
 _atom_site_label
 _atom_site_symmetry_multiplicity
 _atom_site_fract_x
 _atom_site_fract_y
 _atom_site_fract_z
 _atom_site_occupancy
  Dy  Dy0  1  0.66666700  0.33333300  0.77397100  1
  Dy  Dy1  1  0.66666700  0.33333300  0.23633700  1
  Ga  Ga0  1  0.33333300  0.66666700  0.01489400  1
  Ga  Ga1  1  0.33333300  0.66666700  0.46134600  1
  Ga  Ga2  1  0.00000000  0.00000000  0.54211100  1
  Ni  Ni0  1  0.00000000  0.00000000  0.97134200  1
loop_
_geom_bond_atom_site_label_1
_geom_bond_atom_site_label_2
_geom_bond_distance
_geom_bond_site_symmetry_2
Dy0 Ni0 2.887179 1_655
Dy0 Ni0 2.887182 1_555
Dy0 Ni0 2.887182 1_665
Dy0 Ga2 3.028381 1_655
Dy0 Ga2 3.028384 1_555
Dy0 Ga2 3.028384 1_665
Dy0 Ga0 3.068038 1_546
Dy0 Ga0 3.068038 1_656
Dy0 Ga0 3.068045 1_556
Dy0 Dy1 3.473115 1_556
Dy1 Ga0 2.984066 1_545
Dy1 Ga0 2.984066 1_655
Dy1 Ga0 2.984073 1_555
Dy1 Ga1 2.999080 1_545
Dy1 Ga1 2.999080 1_655
Dy1 Ga1 2.999087 1_555
Dy1 Ni0 3.178053 1_654
Dy1 Ni0 3.178056 1_664
Dy1 Ni0 3.178056 1_554
Dy1 Ga2 3.378361 1_655
Dy1 Ga2 3.378363 1_555
Dy1 Ga2 3.378363 1_665
Ga0 Ni0 2.498959 1_564
Ga0 Ni0 2.498963 1_664
Ga0 Ni0 2.498963 1_554
Ga1 Ga2 2.550652 1_565
Ga1 Ga2 2.550656 1_555
Ga1 Ga2 2.550656 1_665
