# generated using pymatgen
data_MgSi2
_symmetry_space_group_name_H-M   'P 1'
_cell_length_a   3.70870300
_cell_length_b   5.25604090
_cell_length_c   12.56817295
_cell_angle_alpha   101.23817547
_cell_angle_beta   90.92922891
_cell_angle_gamma   101.90038288
_symmetry_Int_Tables_number   1
_chemical_formula_structural   MgSi2
_chemical_formula_sum   'Mg4 Si8'
_cell_volume   234.72403783
_cell_formula_units_Z   4
loop_
 _symmetry_equiv_pos_site_id
 _symmetry_equiv_pos_as_xyz
  1  'x, y, z'
loop_
 _atom_site_type_symbol
 _atom_site_label
 _atom_site_symmetry_multiplicity
 _atom_site_fract_x
 _atom_site_fract_y
 _atom_site_fract_z
 _atom_site_occupancy
  Mg  Mg0  1  0.35897900  0.98471200  0.92263000  1
  Mg  Mg1  1  0.70557800  0.61283700  0.06131900  1
  Mg  Mg2  1  0.03228900  0.95612700  0.28861600  1
  Mg  Mg3  1  0.81256900  0.01665300  0.70642100  1
  Si  Si0  1  0.16238300  0.42228800  0.19606200  1
  Si  Si1  1  0.65227600  0.57570200  0.79921600  1
  Si  Si2  1  0.54224900  0.39854700  0.60783900  1
  Si  Si3  1  0.24747200  0.54019600  0.38881200  1
  Si  Si4  1  0.11293000  0.42214400  0.88954800  1
  Si  Si5  1  0.58036800  0.12268000  0.14526500  1
  Si  Si6  1  0.98247600  0.21238700  0.50633200  1
  Si  Si7  1  0.81089200  0.73600800  0.48819900  1
loop_
_geom_bond_atom_site_label_1
_geom_bond_atom_site_label_2
_geom_bond_distance
_geom_bond_site_symmetry_2
Mg0 Si4 2.741766 1_565
Mg0 Si5 2.813982 1_566
Mg0 Si1 2.816033 1_555
Mg0 Si4 2.853841 1_555
Mg0 Si1 3.184566 1_455
Mg1 Si4 2.799009 1_654
Mg1 Si0 2.805165 1_555
Mg1 Si5 2.817260 1_565
Mg1 Si0 2.829998 1_655
Mg1 Si5 2.923688 1_555
Mg1 Si4 2.930931 1_554
Mg2 Si5 2.818396 1_465
Mg2 Si6 2.831622 1_465
Mg2 Si5 2.853717 1_565
Mg2 Si0 2.868929 1_565
Mg2 Si3 2.960052 1_555
Mg2 Si0 2.960271 1_555
Mg2 Si3 3.016137 1_565
Mg2 Si7 3.018437 1_455
Mg3 Si1 2.755526 1_545
Mg3 Si4 2.847138 1_655
Mg3 Si7 2.849003 1_545
Mg3 Si2 2.885871 1_555
Mg3 Si6 2.927780 1_555
Mg3 Si1 3.123276 1_555
Mg3 Si2 3.184703 1_545
Si0 Si3 2.379413 1_555
Si0 Si5 2.389185 1_455
Si0 Si5 2.436701 1_555
Si1 Si4 2.388814 1_555
Si1 Si4 2.392071 1_655
Si1 Si2 2.399439 1_555
Si2 Si6 2.341931 1_455
Si2 Si6 2.343165 1_555
Si2 Si7 2.599806 1_555
Si3 Si7 2.343702 1_455
Si3 Si7 2.347998 1_555
Si3 Si6 2.541011 1_455
Si6 Si7 2.417020 1_545
