# generated using pymatgen
data_La5Pb3S
_symmetry_space_group_name_H-M   'P 1'
_cell_length_a   9.66049160
_cell_length_b   9.66048254
_cell_length_c   7.15384067
_cell_angle_alpha   89.99999379
_cell_angle_beta   89.99999996
_cell_angle_gamma   119.99996609
_symmetry_Int_Tables_number   1
_chemical_formula_structural   La5Pb3S
_chemical_formula_sum   'La10 Pb6 S2'
_cell_volume   578.18669073
_cell_formula_units_Z   2
loop_
 _symmetry_equiv_pos_site_id
 _symmetry_equiv_pos_as_xyz
  1  'x, y, z'
loop_
 _atom_site_type_symbol
 _atom_site_label
 _atom_site_symmetry_multiplicity
 _atom_site_fract_x
 _atom_site_fract_y
 _atom_site_fract_z
 _atom_site_occupancy
  La  La0  1  0.75646751  0.75646751  0.75000000  1
  La  La1  1  0.24353249  0.00000000  0.75000000  1
  La  La2  1  0.00000000  0.24353249  0.75000000  1
  La  La3  1  0.24353249  0.24353249  0.25000000  1
  La  La4  1  0.75646751  -0.00000000  0.25000000  1
  La  La5  1  -0.00000000  0.75646751  0.25000000  1
  La  La6  1  0.66666700  0.33333300  0.00000000  1
  La  La7  1  0.33333300  0.66666700  0.00000000  1
  La  La8  1  0.33333300  0.66666700  0.50000000  1
  La  La9  1  0.66666700  0.33333300  0.50000000  1
  Pb  Pb0  1  0.39502410  0.39502410  0.75000000  1
  Pb  Pb1  1  0.60497590  0.00000000  0.75000000  1
  Pb  Pb2  1  0.00000000  0.60497590  0.75000000  1
  Pb  Pb3  1  0.60497590  0.60497590  0.25000000  1
  Pb  Pb4  1  0.39502410  -0.00000000  0.25000000  1
  Pb  Pb5  1  -0.00000000  0.39502410  0.25000000  1
  S  S0  1  0.00000000  -0.00000000  0.00000000  1
  S  S1  1  0.00000000  -0.00000000  0.50000000  1
loop_
_geom_bond_atom_site_label_1
_geom_bond_atom_site_label_2
_geom_bond_distance
_geom_bond_site_symmetry_2
La0 S1 2.955253 1_665
La0 S0 2.955253 1_666
La0 Pb1 3.334629 1_565
La0 Pb2 3.334630 1_655
La0 Pb0 3.491721 1_555
La0 Pb3 3.864731 1_556
La0 Pb3 3.864731 1_555
La1 S0 2.955253 1_556
La1 S1 2.955253 1_555
La1 Pb0 3.334630 1_555
La1 Pb2 3.334631 1_545
La1 Pb1 3.491721 1_555
La1 Pb4 3.864731 1_555
La1 Pb4 3.864731 1_556
La2 S0 2.955251 1_556
La2 S1 2.955252 1_555
La2 Pb0 3.334633 1_555
La2 Pb1 3.334633 1_455
La2 Pb2 3.491718 1_555
La2 Pb5 3.864730 1_555
La2 Pb5 3.864730 1_556
La3 S1 2.955253 1_555
La3 S0 2.955253 1_555
La3 Pb4 3.334629 1_555
La3 Pb5 3.334630 1_555
La3 Pb3 3.491721 1_555
La3 Pb0 3.864731 1_554
La3 Pb0 3.864731 1_555
La4 S0 2.955253 1_655
La4 S1 2.955253 1_655
La4 Pb3 3.334630 1_545
La4 Pb5 3.334631 1_655
La4 Pb4 3.491721 1_555
La4 Pb1 3.864731 1_555
La4 Pb1 3.864731 1_554
La5 S0 2.955251 1_565
La5 S1 2.955252 1_565
La5 Pb3 3.334633 1_455
La5 Pb4 3.334633 1_565
La5 Pb5 3.491718 1_555
La5 Pb2 3.864730 1_555
La5 Pb2 3.864730 1_554
La6 Pb1 3.464690 1_554
La6 Pb5 3.464693 1_655
La6 Pb4 3.464695 1_555
La6 Pb2 3.464696 1_654
La6 Pb3 3.464698 1_555
La6 Pb0 3.464700 1_554
La7 Pb4 3.464690 1_565
La7 Pb2 3.464693 1_554
La7 Pb1 3.464695 1_564
La7 Pb5 3.464696 1_555
La7 Pb0 3.464698 1_554
La7 Pb3 3.464700 1_555
La8 Pb4 3.464690 1_565
La8 Pb2 3.464693 1_555
La8 Pb1 3.464695 1_565
La8 Pb5 3.464696 1_555
La8 Pb0 3.464698 1_555
La8 Pb3 3.464700 1_555
La9 Pb1 3.464690 1_555
La9 Pb5 3.464693 1_655
La9 Pb4 3.464695 1_555
La9 Pb2 3.464696 1_655
La9 Pb3 3.464698 1_555
La9 Pb0 3.464700 1_555
