# generated using pymatgen
data_Ga(NF2)3
_symmetry_space_group_name_H-M   'P 1'
_cell_length_a   7.66670100
_cell_length_b   7.66670100
_cell_length_c   7.66670100
_cell_angle_alpha   90.00000000
_cell_angle_beta   90.00000000
_cell_angle_gamma   90.00000000
_symmetry_Int_Tables_number   1
_chemical_formula_structural   Ga(NF2)3
_chemical_formula_sum   'Ga4 N12 F24'
_cell_volume   450.63568377
_cell_formula_units_Z   4
loop_
 _symmetry_equiv_pos_site_id
 _symmetry_equiv_pos_as_xyz
  1  'x, y, z'
loop_
 _atom_site_type_symbol
 _atom_site_label
 _atom_site_symmetry_multiplicity
 _atom_site_fract_x
 _atom_site_fract_y
 _atom_site_fract_z
 _atom_site_occupancy
  Ga  Ga0  1  0.50000000  0.50000000  0.00000000  1
  Ga  Ga1  1  0.50000000  0.00000000  0.50000000  1
  Ga  Ga2  1  0.00000000  0.50000000  0.50000000  1
  Ga  Ga3  1  0.00000000  0.00000000  0.00000000  1
  N  N0  1  0.50000000  0.00000000  0.00000000  1
  N  N1  1  0.50000000  0.50000000  0.50000000  1
  N  N2  1  0.00000000  0.00000000  0.50000000  1
  N  N3  1  0.00000000  0.50000000  0.00000000  1
  N  N4  1  0.24699000  0.75301000  0.25301000  1
  N  N5  1  0.75301000  0.25301000  0.24699000  1
  N  N6  1  0.25301000  0.24699000  0.75301000  1
  N  N7  1  0.74699000  0.74699000  0.74699000  1
  N  N8  1  0.75301000  0.24699000  0.74699000  1
  N  N9  1  0.24699000  0.74699000  0.75301000  1
  N  N10  1  0.74699000  0.75301000  0.24699000  1
  N  N11  1  0.25301000  0.25301000  0.25301000  1
  F  F0  1  0.24434300  0.50215800  0.00312500  1
  F  F1  1  0.75565700  0.00215800  0.49687400  1
  F  F2  1  0.25565700  0.49784200  0.50312600  1
  F  F3  1  0.74434300  0.99784200  0.99687400  1
  F  F4  1  0.00312500  0.24434300  0.50215800  1
  F  F5  1  0.49687400  0.75565700  0.00215800  1
  F  F6  1  0.50312600  0.25565700  0.49784200  1
  F  F7  1  0.99687400  0.74434300  0.99784200  1
  F  F8  1  0.50215800  0.00312500  0.24434300  1
  F  F9  1  0.00215800  0.49687400  0.75565700  1
  F  F10  1  0.49784200  0.50312600  0.25565700  1
  F  F11  1  0.99784200  0.99687400  0.74434300  1
  F  F12  1  0.75565700  0.49784200  0.99687400  1
  F  F13  1  0.24434300  0.99784200  0.50312600  1
  F  F14  1  0.74434300  0.50215800  0.49687400  1
  F  F15  1  0.25565700  0.00215800  0.00312500  1
  F  F16  1  0.99687400  0.75565700  0.49784200  1
  F  F17  1  0.50312600  0.24434300  0.99784200  1
  F  F18  1  0.49687400  0.74434300  0.50215800  1
  F  F19  1  0.00312500  0.25565700  0.00215800  1
  F  F20  1  0.49784200  0.99687400  0.75565700  1
  F  F21  1  0.99784200  0.50312600  0.24434300  1
  F  F22  1  0.50215800  0.49687400  0.74434300  1
  F  F23  1  0.00215800  0.00312500  0.25565700  1
loop_
_geom_bond_atom_site_label_1
_geom_bond_atom_site_label_2
_geom_bond_distance
_geom_bond_site_symmetry_2
F0 N3 1.873531 1_555
F0 Ga0 1.960262 1_555
F1 N2 1.873531 1_655
F1 Ga1 1.960262 1_555
F2 N1 1.873531 1_555
F2 Ga2 1.960262 1_555
F3 N0 1.873531 1_566
F3 Ga3 1.960262 1_666
F4 N2 1.873531 1_555
F4 Ga2 1.960262 1_555
F5 N0 1.873531 1_565
F5 Ga0 1.960262 1_555
F6 N1 1.873531 1_555
F6 Ga1 1.960262 1_555
F7 N3 1.873531 1_656
F7 Ga3 1.960262 1_666
F8 N0 1.873531 1_555
F8 Ga1 1.960262 1_555
F9 N3 1.873531 1_556
F9 Ga2 1.960262 1_555
F10 N1 1.873531 1_555
F10 Ga0 1.960262 1_555
F11 N2 1.873531 1_665
F11 Ga3 1.960262 1_666
F12 N3 1.873531 1_656
F12 Ga0 1.960262 1_556
F13 N2 1.873531 1_565
F13 Ga1 1.960262 1_565
F14 N1 1.873531 1_555
F14 Ga2 1.960262 1_655
F15 N0 1.873531 1_555
F15 Ga3 1.960262 1_555
F16 N2 1.873531 1_665
F16 Ga2 1.960262 1_655
F17 N0 1.873531 1_556
F17 Ga0 1.960262 1_556
F18 N1 1.873531 1_555
F18 Ga1 1.960262 1_565
F19 N3 1.873531 1_555
F19 Ga3 1.960262 1_555
F20 N0 1.873531 1_566
F20 Ga1 1.960262 1_565
F21 N3 1.873531 1_655
F21 Ga2 1.960262 1_655
F22 N1 1.873531 1_555
F22 Ga0 1.960262 1_556
F23 N2 1.873531 1_555
F23 Ga3 1.960262 1_555
