# generated using pymatgen
data_ErGaCo
_symmetry_space_group_name_H-M   'P 1'
_cell_length_a   4.08844185
_cell_length_b   6.57713284
_cell_length_c   7.50765832
_cell_angle_alpha   89.99958346
_cell_angle_beta   90.00000000
_cell_angle_gamma   90.00000000
_symmetry_Int_Tables_number   1
_chemical_formula_structural   ErGaCo
_chemical_formula_sum   'Er4 Ga4 Co4'
_cell_volume   201.88262262
_cell_formula_units_Z   4
loop_
 _symmetry_equiv_pos_site_id
 _symmetry_equiv_pos_as_xyz
  1  'x, y, z'
loop_
 _atom_site_type_symbol
 _atom_site_label
 _atom_site_symmetry_multiplicity
 _atom_site_fract_x
 _atom_site_fract_y
 _atom_site_fract_z
 _atom_site_occupancy
  Er  Er0  1  0.25000000  0.52496592  0.31636713  1
  Er  Er1  1  0.25000000  0.02494958  0.18357512  1
  Er  Er2  1  0.75000000  0.97505242  0.81642388  1
  Er  Er3  1  0.75000000  0.47503108  0.68363187  1
  Ga  Ga0  1  0.75000000  0.34711976  0.06278590  1
  Ga  Ga1  1  0.25000000  0.15304987  0.56303012  1
  Ga  Ga2  1  0.25000000  0.65287924  0.93721310  1
  Ga  Ga3  1  0.75000000  0.84695113  0.43697188  1
  Co  Co0  1  0.75000000  0.22705037  0.37925753  1
  Co  Co1  1  0.25000000  0.77294963  0.62074247  1
  Co  Co2  1  0.75000000  0.72696647  0.12069960  1
  Co  Co3  1  0.25000000  0.27303353  0.87930040  1
loop_
_geom_bond_atom_site_label_1
_geom_bond_atom_site_label_2
_geom_bond_distance
_geom_bond_site_symmetry_2
Er0 Ga2 2.968274 1_554
Er0 Ga0 3.028460 1_555
Er0 Ga0 3.028460 1_455
Er0 Ga1 3.068050 1_555
Er0 Ga3 3.079536 1_455
Er0 Ga3 3.079536 1_555
Er1 Ga1 2.970802 1_555
Er1 Ga3 3.027966 1_445
Er1 Ga3 3.027966 1_545
Er1 Ga2 3.067518 1_544
Er1 Ga0 3.080771 1_555
Er1 Ga0 3.080771 1_455
Er2 Ga3 2.970782 1_555
Er2 Ga1 3.027949 1_565
Er2 Ga1 3.027949 1_665
Er2 Ga0 3.067502 1_566
Er2 Ga2 3.080785 1_655
Er2 Ga2 3.080785 1_555
Er3 Ga0 2.968271 1_556
Er3 Ga2 3.028465 1_655
Er3 Ga2 3.028465 1_555
Er3 Ga3 3.068058 1_555
Er3 Ga1 3.079512 1_655
Er3 Ga1 3.079512 1_555
Co0 Ga0 2.503759 1_555
Co0 Ga1 2.513821 1_555
Co0 Ga1 2.513821 1_655
Co0 Ga3 2.537233 1_545
Co0 Er3 2.807504 1_555
Co0 Er1 2.846763 1_555
Co0 Er1 2.846763 1_655
Co0 Er0 2.870736 1_655
Co0 Er0 2.870736 1_555
Co1 Ga2 2.503754 1_555
Co1 Ga3 2.513814 1_455
Co1 Ga3 2.513814 1_555
Co1 Ga1 2.537236 1_565
Co1 Er0 2.807522 1_555
Co1 Er2 2.846765 1_555
Co1 Er2 2.846765 1_455
Co1 Er3 2.870749 1_555
Co1 Er3 2.870749 1_455
Co2 Ga3 2.502174 1_555
Co2 Ga2 2.512757 1_554
Co2 Ga2 2.512757 1_654
Co2 Ga0 2.535858 1_555
Co2 Er2 2.807285 1_554
Co2 Er0 2.846388 1_555
Co2 Er0 2.846388 1_655
Co2 Er1 2.871026 1_665
Co2 Er1 2.871026 1_565
Co3 Ga1 2.502157 1_555
Co3 Ga0 2.512751 1_456
Co3 Ga0 2.512751 1_556
Co3 Ga2 2.535851 1_555
Co3 Er1 2.807271 1_556
Co3 Er3 2.846382 1_555
Co3 Er3 2.846382 1_455
Co3 Er2 2.871018 1_545
Co3 Er2 2.871018 1_445
