# generated using pymatgen
data_MgSi2SnO6
_symmetry_space_group_name_H-M   'P 1'
_cell_length_a   5.44700400
_cell_length_b   9.25249900
_cell_length_c   19.41605200
_cell_angle_alpha   90.00000000
_cell_angle_beta   90.00000000
_cell_angle_gamma   90.00000000
_symmetry_Int_Tables_number   1
_chemical_formula_structural   MgSi2SnO6
_chemical_formula_sum   'Mg8 Si16 Sn8 O48'
_cell_volume   978.53793692
_cell_formula_units_Z   8
loop_
 _symmetry_equiv_pos_site_id
 _symmetry_equiv_pos_as_xyz
  1  'x, y, z'
loop_
 _atom_site_type_symbol
 _atom_site_label
 _atom_site_symmetry_multiplicity
 _atom_site_fract_x
 _atom_site_fract_y
 _atom_site_fract_z
 _atom_site_occupancy
  Mg  Mg0  1  0.62036600  0.14839600  0.37452000  1
  Mg  Mg1  1  0.37963400  0.85160400  0.62548000  1
  Mg  Mg2  1  0.62036600  0.64839600  0.12548000  1
  Mg  Mg3  1  0.12036600  0.85160400  0.12548000  1
  Mg  Mg4  1  0.87963400  0.14839600  0.87452000  1
  Mg  Mg5  1  0.37963400  0.35160400  0.87452000  1
  Mg  Mg6  1  0.12036600  0.35160400  0.37452000  1
  Mg  Mg7  1  0.87963400  0.64839600  0.62548000  1
  Si  Si0  1  0.52359200  0.66009700  0.76518600  1
  Si  Si1  1  0.69583000  0.83878400  0.48381400  1
  Si  Si2  1  0.80417000  0.83878400  0.98381400  1
  Si  Si3  1  0.97640800  0.16009700  0.23481400  1
  Si  Si4  1  0.02359200  0.33990300  0.73481400  1
  Si  Si5  1  0.47640800  0.83990300  0.26518600  1
  Si  Si6  1  0.19583000  0.66121600  0.48381400  1
  Si  Si7  1  0.69583000  0.33878400  0.01618600  1
  Si  Si8  1  0.80417000  0.33878400  0.51618600  1
  Si  Si9  1  0.97640800  0.66009700  0.26518600  1
  Si  Si10  1  0.47640800  0.33990300  0.23481400  1
  Si  Si11  1  0.52359200  0.16009700  0.73481400  1
  Si  Si12  1  0.30417000  0.16121600  0.51618600  1
  Si  Si13  1  0.02359200  0.83990300  0.76518600  1
  Si  Si14  1  0.30417000  0.66121600  0.98381400  1
  Si  Si15  1  0.19583000  0.16121600  0.01618600  1
  Sn  Sn0  1  0.37811400  0.96858800  0.87974100  1
  Sn  Sn1  1  0.62188600  0.03141200  0.12025900  1
  Sn  Sn2  1  0.87811400  0.03141200  0.62025900  1
  Sn  Sn3  1  0.12188600  0.96858800  0.37974100  1
  Sn  Sn4  1  0.37811400  0.46858800  0.62025900  1
  Sn  Sn5  1  0.62188600  0.53141200  0.37974100  1
  Sn  Sn6  1  0.87811400  0.53141200  0.87974100  1
  Sn  Sn7  1  0.12188600  0.46858800  0.12025900  1
  O  O0  1  0.96411800  0.50621200  0.30531100  1
  O  O1  1  0.22993600  0.00674900  0.05356800  1
  O  O2  1  0.03588200  0.49378800  0.69468900  1
  O  O3  1  0.70552700  0.33144200  0.93081300  1
  O  O4  1  0.20552700  0.16855800  0.93081300  1
  O  O5  1  0.93252900  0.23555000  0.04130700  1
  O  O6  1  0.95870600  0.66092600  0.18003400  1
  O  O7  1  0.04129400  0.83907400  0.68003400  1
  O  O8  1  0.70552700  0.83144200  0.56918700  1
  O  O9  1  0.95870600  0.16092600  0.31996600  1
  O  O10  1  0.46411800  0.49378800  0.19468900  1
  O  O11  1  0.79447300  0.33144200  0.43081300  1
  O  O12  1  0.77006400  0.99325100  0.94643200  1
  O  O13  1  0.45870600  0.83907400  0.18003400  1
  O  O14  1  0.53588200  0.00621200  0.69468900  1
  O  O15  1  0.22993600  0.50674900  0.44643200  1
  O  O16  1  0.46411800  0.99378800  0.30531100  1
  O  O17  1  0.23187800  0.74366400  0.28943900  1
  O  O18  1  0.26812200  0.74366400  0.78943900  1
  O  O19  1  0.56747100  0.73555000  0.95869300  1
  O  O20  1  0.79447300  0.83144200  0.06918700  1
  O  O21  1  0.54129400  0.66092600  0.68003400  1
  O  O22  1  0.72993600  0.49325100  0.05356800  1
  O  O23  1  0.23187800  0.24366400  0.21056100  1
  O  O24  1  0.29447300  0.16855800  0.43081300  1
  O  O25  1  0.54129400  0.16092600  0.81996600  1
  O  O26  1  0.77006400  0.49325100  0.55356800  1
  O  O27  1  0.20552700  0.66855800  0.56918700  1
  O  O28  1  0.27006400  0.50674900  0.94643200  1
  O  O29  1  0.73187800  0.75633600  0.28943900  1
  O  O30  1  0.03588200  0.99378800  0.80531100  1
  O  O31  1  0.76812200  0.75633600  0.78943900  1
  O  O32  1  0.76812200  0.25633600  0.71056100  1
  O  O33  1  0.72993600  0.99325100  0.44643200  1
  O  O34  1  0.29447300  0.66855800  0.06918700  1
  O  O35  1  0.27006400  0.00674900  0.55356800  1
  O  O36  1  0.26812200  0.24366400  0.71056100  1
  O  O37  1  0.06747100  0.76445000  0.95869300  1
  O  O38  1  0.43252900  0.76445000  0.45869300  1
  O  O39  1  0.73187800  0.25633600  0.21056100  1
  O  O40  1  0.43252900  0.26445000  0.04130700  1
  O  O41  1  0.56747100  0.23555000  0.54130700  1
  O  O42  1  0.06747100  0.26445000  0.54130700  1
  O  O43  1  0.45870600  0.33907400  0.31996600  1
  O  O44  1  0.53588200  0.50621200  0.80531100  1
  O  O45  1  0.93252900  0.73555000  0.45869300  1
  O  O46  1  0.04129400  0.33907400  0.81996600  1
  O  O47  1  0.96411800  0.00621200  0.19468900  1
loop_
_geom_bond_atom_site_label_1
_geom_bond_atom_site_label_2
_geom_bond_distance
_geom_bond_site_symmetry_2
Mg0 O33 2.089572 1_545
Mg0 O24 2.092976 1_555
Mg0 O9 2.128807 1_555
Mg0 O16 2.139254 1_545
Mg0 O11 2.227645 1_555
Mg0 O43 2.238284 1_555
Mg1 O35 2.089572 1_565
Mg1 O8 2.092976 1_555
Mg1 O7 2.128807 1_555
Mg1 O14 2.139254 1_565
Mg1 O27 2.227645 1_555
Mg1 O21 2.238284 1_555
Mg2 O22 2.089572 1_555
Mg2 O34 2.092976 1_555
Mg2 O6 2.128807 1_555
Mg2 O10 2.139254 1_555
Mg2 O20 2.227645 1_555
Mg2 O13 2.238284 1_555
Mg3 O1 2.089572 1_565
Mg3 O20 2.092976 1_455
Mg3 O13 2.128807 1_555
Mg3 O47 2.139254 1_465
Mg3 O34 2.227645 1_555
Mg3 O6 2.238284 1_455
Mg4 O12 2.089572 1_545
Mg4 O4 2.092976 1_655
Mg4 O25 2.128807 1_555
Mg4 O30 2.139254 1_645
Mg4 O3 2.227645 1_555
Mg4 O46 2.238284 1_655
Mg5 O28 2.089572 1_555
Mg5 O3 2.092976 1_555
Mg5 O46 2.128807 1_555
Mg5 O44 2.139254 1_555
Mg5 O4 2.227645 1_555
Mg5 O25 2.238284 1_555
Mg6 O15 2.089572 1_555
Mg6 O11 2.092976 1_455
Mg6 O43 2.128807 1_555
Mg6 O0 2.139254 1_455
Mg6 O24 2.227645 1_555
Mg6 O9 2.238284 1_455
Mg7 O26 2.089572 1_555
Mg7 O27 2.092976 1_655
Mg7 O21 2.128807 1_555
Mg7 O2 2.139254 1_655
Mg7 O8 2.227645 1_555
Mg7 O7 2.238284 1_655
O0 Si9 1.624406 1_555
O0 Sn5 2.370190 1_555
O1 Si15 1.613674 1_555
O1 Sn1 2.507350 1_555
O2 Si4 1.624406 1_555
O2 Sn4 2.370190 1_555
O3 Si7 1.659839 1_556
O3 Sn6 2.300083 1_555
O4 Si15 1.659839 1_556
O4 Sn0 2.300083 1_545
O5 Si15 1.663692 1_655
O5 Si7 1.677066 1_555
O6 Si9 1.656143 1_555
O6 Sn7 2.303046 1_655
O7 Si13 1.656143 1_555
O7 Sn2 2.303046 1_465
O8 Si1 1.659839 1_555
O8 Sn2 2.300083 1_565
O9 Si3 1.656143 1_555
O9 Sn3 2.303046 1_645
O10 Si10 1.624406 1_555
O10 Sn7 2.370190 1_555
O11 Si8 1.659839 1_555
O11 Sn5 2.300083 1_555
O12 Si2 1.613674 1_555
O12 Sn0 2.507350 1_555
O13 Si5 1.656143 1_555
O13 Sn1 2.303046 1_565
O14 Si11 1.624406 1_555
O14 Sn2 2.370190 1_555
O15 Si6 1.613674 1_555
O15 Sn5 2.507350 1_555
O16 Si5 1.624406 1_555
O16 Sn3 2.370190 1_555
O17 Si9 1.660117 1_455
O17 Si5 1.669956 1_555
O18 Si0 1.660117 1_555
O18 Si13 1.669956 1_555
O19 Si14 1.663692 1_555
O19 Si2 1.677066 1_555
O20 Si2 1.659839 1_554
O20 Sn1 2.300083 1_565
O21 Si0 1.656143 1_555
O21 Sn4 2.303046 1_555
O22 Si7 1.613674 1_555
O22 Sn7 2.507350 1_655
O23 Si3 1.660117 1_455
O23 Si10 1.669956 1_555
O24 Si12 1.659839 1_555
O24 Sn3 2.300083 1_545
O25 Si11 1.656143 1_555
O25 Sn0 2.303046 1_545
O26 Si8 1.613674 1_555
O26 Sn4 2.507350 1_555
O27 Si6 1.659839 1_555
O27 Sn4 2.300083 1_555
O28 Si14 1.613674 1_555
O28 Sn6 2.507350 1_455
O29 Si5 1.660117 1_555
O29 Si9 1.669956 1_555
O30 Si13 1.624406 1_555
O30 Sn0 2.370190 1_555
O31 Si13 1.660117 1_655
O31 Si0 1.669956 1_555
O32 Si4 1.660117 1_655
O32 Si11 1.669956 1_555
O33 Si1 1.613674 1_555
O33 Sn3 2.507350 1_655
O34 Si14 1.659839 1_554
O34 Sn7 2.300083 1_555
O35 Si12 1.613674 1_555
O35 Sn2 2.507350 1_455
O36 Si11 1.660117 1_555
O36 Si4 1.669956 1_555
O37 Si2 1.663692 1_455
O37 Si14 1.677066 1_555
O38 Si1 1.663692 1_555
O38 Si6 1.677066 1_555
O39 Si10 1.660117 1_555
O39 Si3 1.669956 1_555
O40 Si7 1.663692 1_555
O40 Si15 1.677066 1_555
O41 Si12 1.663692 1_555
O41 Si8 1.677066 1_555
O42 Si8 1.663692 1_455
O42 Si12 1.677066 1_555
O43 Si10 1.656143 1_555
O43 Sn5 2.303046 1_555
O44 Si0 1.624406 1_555
O44 Sn6 2.370190 1_555
O45 Si6 1.663692 1_655
O45 Si1 1.677066 1_555
O46 Si4 1.656143 1_555
O46 Sn6 2.303046 1_455
O47 Si3 1.624406 1_555
O47 Sn1 2.370190 1_555
