# generated using pymatgen
data_Nb4Fe3Si5
_symmetry_space_group_name_H-M   'P 1'
_cell_length_a   4.95000300
_cell_length_b   12.93705400
_cell_length_c   15.55162500
_cell_angle_alpha   90.00000000
_cell_angle_beta   90.00000000
_cell_angle_gamma   90.00000000
_symmetry_Int_Tables_number   1
_chemical_formula_structural   Nb4Fe3Si5
_chemical_formula_sum   'Nb24 Fe18 Si30'
_cell_volume   995.90205502
_cell_formula_units_Z   6
loop_
 _symmetry_equiv_pos_site_id
 _symmetry_equiv_pos_as_xyz
  1  'x, y, z'
loop_
 _atom_site_type_symbol
 _atom_site_label
 _atom_site_symmetry_multiplicity
 _atom_site_fract_x
 _atom_site_fract_y
 _atom_site_fract_z
 _atom_site_occupancy
  Nb  Nb0  1  0.50000000  0.39416500  0.29270600  1
  Nb  Nb1  1  0.00000000  0.89416500  0.70729400  1
  Nb  Nb2  1  0.50000000  0.48558300  0.09795100  1
  Nb  Nb3  1  0.00000000  0.98558300  0.90204900  1
  Nb  Nb4  1  0.00000000  0.17317500  0.01981700  1
  Nb  Nb5  1  0.50000000  0.67317500  0.98018300  1
  Nb  Nb6  1  0.50000000  0.30034000  0.99164500  1
  Nb  Nb7  1  0.00000000  0.80034000  0.00835500  1
  Nb  Nb8  1  0.50000000  0.16215800  0.30556400  1
  Nb  Nb9  1  0.00000000  0.66215800  0.69443600  1
  Nb  Nb10  1  0.50000000  0.36738400  0.81103100  1
  Nb  Nb11  1  0.00000000  0.86738400  0.18896900  1
  Nb  Nb12  1  0.00000000  0.45965800  0.53989200  1
  Nb  Nb13  1  0.50000000  0.95965800  0.46010800  1
  Nb  Nb14  1  0.00000000  0.10135400  0.41956300  1
  Nb  Nb15  1  0.50000000  0.60135400  0.58043700  1
  Nb  Nb16  1  0.50000000  0.32781500  0.59649300  1
  Nb  Nb17  1  0.00000000  0.82781500  0.40350700  1
  Nb  Nb18  1  0.00000000  0.09793600  0.19573900  1
  Nb  Nb19  1  0.50000000  0.59793600  0.80426100  1
  Nb  Nb20  1  0.00000000  0.49086500  0.20951100  1
  Nb  Nb21  1  0.50000000  0.99086500  0.79048900  1
  Nb  Nb22  1  0.00000000  0.29211300  0.71090100  1
  Nb  Nb23  1  0.50000000  0.79211300  0.28909900  1
  Fe  Fe0  1  0.25008300  0.17786100  0.85324800  1
  Fe  Fe1  1  0.74991700  0.17786100  0.85324800  1
  Fe  Fe2  1  0.24991700  0.67786100  0.14675200  1
  Fe  Fe3  1  0.75008300  0.67786100  0.14675200  1
  Fe  Fe4  1  0.25060500  0.30165500  0.42854900  1
  Fe  Fe5  1  0.74939500  0.30165500  0.42854900  1
  Fe  Fe6  1  0.24939500  0.80165500  0.57145100  1
  Fe  Fe7  1  0.75060500  0.80165500  0.57145100  1
  Fe  Fe8  1  0.24693600  0.09921400  0.61100900  1
  Fe  Fe9  1  0.75306400  0.09921400  0.61100900  1
  Fe  Fe10  1  0.25306400  0.59921400  0.38899100  1
  Fe  Fe11  1  0.74693600  0.59921400  0.38899100  1
  Fe  Fe12  1  0.00000000  0.48281100  0.81711200  1
  Fe  Fe13  1  0.50000000  0.98281100  0.18288800  1
  Fe  Fe14  1  0.25316100  0.29758100  0.16462800  1
  Fe  Fe15  1  0.74683900  0.29758100  0.16462800  1
  Fe  Fe16  1  0.24683900  0.79758100  0.83537200  1
  Fe  Fe17  1  0.75316100  0.79758100  0.83537200  1
  Si  Si0  1  0.00000000  0.26867000  0.29558200  1
  Si  Si1  1  0.50000000  0.76867000  0.70441800  1
  Si  Si2  1  0.00000000  0.24537100  0.54820700  1
  Si  Si3  1  0.50000000  0.74537100  0.45179300  1
  Si  Si4  1  0.00000000  0.08822300  0.74975300  1
  Si  Si5  1  0.50000000  0.58822300  0.25024700  1
  Si  Si6  1  0.25072800  0.47548300  0.68948300  1
  Si  Si7  1  0.74927200  0.47548300  0.68948300  1
  Si  Si8  1  0.24927200  0.97548300  0.31051700  1
  Si  Si9  1  0.75072800  0.97548300  0.31051700  1
  Si  Si10  1  0.50000000  0.45632700  0.45944800  1
  Si  Si11  1  0.00000000  0.95632700  0.54055200  1
  Si  Si12  1  0.50000000  0.18927400  0.72300500  1
  Si  Si13  1  0.00000000  0.68927400  0.27699500  1
  Si  Si14  1  0.50000000  0.08952800  0.95178300  1
  Si  Si15  1  0.00000000  0.58952800  0.04821700  1
  Si  Si16  1  0.50000000  0.15341800  0.12477900  1
  Si  Si17  1  0.00000000  0.65341800  0.87522100  1
  Si  Si18  1  0.50000000  0.16265900  0.48474500  1
  Si  Si19  1  0.00000000  0.66265900  0.51525500  1
  Si  Si20  1  0.00000000  0.44067000  0.37105600  1
  Si  Si21  1  0.50000000  0.94067000  0.62894400  1
  Si  Si22  1  0.00000000  0.32127600  0.88801600  1
  Si  Si23  1  0.50000000  0.82127600  0.11198400  1
  Si  Si24  1  0.00000000  0.38003900  0.06042600  1
  Si  Si25  1  0.50000000  0.88003900  0.93957400  1
  Si  Si26  1  0.26731400  0.48674900  0.93548700  1
  Si  Si27  1  0.73268600  0.48674900  0.93548700  1
  Si  Si28  1  0.23268600  0.98674900  0.06451300  1
  Si  Si29  1  0.76731400  0.98674900  0.06451300  1
loop_
_geom_bond_atom_site_label_1
_geom_bond_atom_site_label_2
_geom_bond_distance
_geom_bond_site_symmetry_2
Nb0 Si5 2.595922 1_555
Nb0 Si10 2.714948 1_555
Nb0 Si20 2.823521 1_655
Nb0 Si20 2.823521 1_555
Nb0 Si0 2.960321 1_655
Nb0 Si0 2.960321 1_555
Nb0 Nb8 3.008141 1_555
Nb1 Si4 2.595922 1_565
Nb1 Si11 2.714948 1_555
Nb1 Si21 2.823521 1_555
Nb1 Si21 2.823521 1_455
Nb1 Si1 2.960321 1_455
Nb1 Si1 2.960321 1_555
Nb1 Nb9 3.008141 1_555
Nb2 Si5 2.715284 1_555
Nb2 Si27 2.776772 1_554
Nb2 Si26 2.776772 1_554
Nb2 Si24 2.886276 1_555
Nb2 Si24 2.886276 1_655
Nb2 Nb6 2.911422 1_554
Nb2 Si15 2.920990 1_655
Nb2 Si15 2.920990 1_555
Nb2 Nb5 3.040414 1_554
Nb3 Si4 2.715284 1_565
Nb3 Si28 2.776772 1_556
Nb3 Si29 2.776772 1_456
Nb3 Si25 2.886276 1_455
Nb3 Si25 2.886276 1_555
Nb3 Nb7 2.911422 1_556
Nb3 Si14 2.920990 1_565
Nb3 Si14 2.920990 1_465
Nb3 Nb4 3.040414 1_566
Nb4 Si24 2.749717 1_555
Nb4 Si28 2.761628 1_545
Nb4 Si29 2.761628 1_445
Nb4 Si22 2.805775 1_554
Nb4 Si14 2.901055 1_454
Nb4 Si14 2.901055 1_554
Nb4 Si16 2.975813 1_555
Nb4 Si16 2.975813 1_455
Nb4 Nb6 3.004009 1_554
Nb4 Nb6 3.004009 1_454
Nb5 Si25 2.749717 1_555
Nb5 Si27 2.761628 1_555
Nb5 Si26 2.761628 1_555
Nb5 Si23 2.805775 1_556
Nb5 Si15 2.901055 1_656
Nb5 Si15 2.901055 1_556
Nb5 Si17 2.975813 1_655
Nb5 Si17 2.975813 1_555
Nb5 Nb7 3.004009 1_656
Nb5 Nb7 3.004009 1_556
Nb6 Si14 2.796854 1_555
Nb6 Si16 2.810617 1_556
Nb6 Si27 2.811602 1_555
Nb6 Si26 2.811602 1_555
Nb6 Si24 2.886677 1_656
Nb6 Si24 2.886677 1_556
Nb6 Si22 2.965846 1_655
Nb6 Si22 2.965846 1_555
Nb7 Si15 2.796854 1_555
Nb7 Si17 2.810617 1_554
Nb7 Si28 2.811602 1_555
Nb7 Si29 2.811602 1_455
Nb7 Si25 2.886677 1_454
Nb7 Si25 2.886677 1_554
Nb7 Si23 2.965846 1_555
Nb7 Si23 2.965846 1_455
Nb8 Si8 2.716361 1_545
Nb8 Si9 2.716361 1_545
Nb8 Si18 2.786563 1_555
Nb8 Si16 2.813773 1_555
Nb8 Si0 2.836985 1_555
Nb8 Si0 2.836985 1_655
Nb9 Si6 2.716361 1_555
Nb9 Si7 2.716361 1_455
Nb9 Si19 2.786563 1_555
Nb9 Si17 2.813773 1_555
Nb9 Si1 2.836985 1_555
Nb9 Si1 2.836985 1_455
Nb10 Si7 2.655442 1_555
Nb10 Si6 2.655442 1_555
Nb10 Si12 2.680194 1_555
Nb10 Si27 2.730828 1_555
Nb10 Si26 2.730828 1_555
Nb10 Si22 2.813332 1_655
Nb10 Si22 2.813332 1_555
Nb10 Nb6 2.939709 1_555
Nb10 Nb19 2.984521 1_555
Nb10 Nb22 3.081998 1_555
Nb10 Nb22 3.081998 1_655
Nb11 Si9 2.655442 1_455
Nb11 Si8 2.655442 1_555
Nb11 Si13 2.680194 1_555
Nb11 Si28 2.730828 1_555
Nb11 Si29 2.730828 1_455
Nb11 Si23 2.813332 1_555
Nb11 Si23 2.813332 1_455
Nb11 Nb7 2.939709 1_555
Nb11 Nb18 2.984521 1_565
Nb11 Nb23 3.081998 1_555
Nb11 Nb23 3.081998 1_455
Nb12 Si20 2.637140 1_555
Nb12 Si6 2.644676 1_555
Nb12 Si7 2.644676 1_455
Nb12 Si19 2.654037 1_555
Nb12 Si10 2.773550 1_555
Nb12 Si10 2.773550 1_455
Nb12 Si2 2.775257 1_555
Nb13 Si21 2.637140 1_555
Nb13 Si9 2.644676 1_555
Nb13 Si8 2.644676 1_555
Nb13 Si18 2.654037 1_565
Nb13 Si11 2.773550 1_655
Nb13 Si11 2.773550 1_555
Nb13 Si3 2.775257 1_555
Nb14 Si9 2.655197 1_445
Nb14 Si8 2.655197 1_545
Nb14 Si11 2.657167 1_545
Nb14 Si2 2.733833 1_555
Nb14 Si18 2.789661 1_555
Nb14 Si18 2.789661 1_455
Nb14 Si0 2.898790 1_555
Nb14 Nb8 3.144436 1_455
Nb14 Nb8 3.144436 1_555
Nb15 Si7 2.655197 1_555
Nb15 Si6 2.655197 1_555
Nb15 Si10 2.657167 1_555
Nb15 Si3 2.733833 1_555
Nb15 Si19 2.789661 1_555
Nb15 Si19 2.789661 1_655
Nb15 Si1 2.898790 1_555
Nb15 Nb9 3.144436 1_655
Nb15 Nb9 3.144436 1_555
Nb16 Si12 2.661449 1_555
Nb16 Si7 2.695074 1_555
Nb16 Si6 2.695074 1_555
Nb16 Si10 2.703045 1_555
Nb16 Si18 2.754154 1_555
Nb16 Si2 2.797699 1_555
Nb16 Si2 2.797699 1_655
Nb17 Si13 2.661449 1_555
Nb17 Si9 2.695074 1_455
Nb17 Si8 2.695074 1_555
Nb17 Si11 2.703045 1_555
Nb17 Si19 2.754154 1_555
Nb17 Si3 2.797699 1_455
Nb17 Si3 2.797699 1_555
Nb18 Si8 2.686690 1_545
Nb18 Si9 2.686690 1_445
Nb18 Si0 2.699948 1_555
Nb18 Si28 2.749635 1_545
Nb18 Si29 2.749635 1_445
Nb18 Si16 2.803326 1_555
Nb18 Si16 2.803326 1_455
Nb18 Nb4 2.903868 1_555
Nb18 Nb8 3.119784 1_455
Nb18 Nb8 3.119784 1_555
Nb19 Si7 2.686690 1_555
Nb19 Si6 2.686690 1_555
Nb19 Si1 2.699948 1_555
Nb19 Si27 2.749635 1_555
Nb19 Si26 2.749635 1_555
Nb19 Si17 2.803326 1_555
Nb19 Si17 2.803326 1_655
Nb19 Nb5 2.903868 1_555
Nb19 Nb9 3.119784 1_655
Nb19 Nb9 3.119784 1_555
Nb20 Si20 2.594856 1_555
Nb20 Si24 2.726019 1_555
Nb20 Si13 2.773090 1_555
Nb20 Si15 2.814464 1_555
Nb20 Si5 2.848398 1_555
Nb20 Si5 2.848398 1_455
Nb20 Si0 3.170919 1_555
Nb21 Si21 2.594856 1_555
Nb21 Si25 2.726019 1_555
Nb21 Si12 2.773090 1_565
Nb21 Si14 2.814464 1_565
Nb21 Si4 2.848398 1_665
Nb21 Si4 2.848398 1_565
Nb21 Si1 3.170919 1_555
Nb22 Si2 2.601414 1_555
Nb22 Si6 2.697951 1_555
Nb22 Si7 2.697951 1_455
Nb22 Si4 2.706053 1_555
Nb22 Si22 2.780145 1_555
Nb22 Si12 2.816224 1_555
Nb22 Si12 2.816224 1_455
Nb23 Si3 2.601414 1_555
Nb23 Si9 2.697951 1_555
Nb23 Si8 2.697951 1_555
Nb23 Si5 2.706053 1_555
Nb23 Si23 2.780145 1_555
Nb23 Si13 2.816224 1_655
Nb23 Si13 2.816224 1_555
Fe0 Si14 2.276949 1_555
Fe0 Si22 2.295031 1_555
Fe0 Si4 2.338324 1_555
Fe0 Si12 2.377983 1_555
Fe0 Fe1 2.474180 1_555
Fe0 Fe1 2.475823 1_455
Fe0 Nb10 2.823668 1_555
Fe0 Nb4 2.871649 1_556
Fe0 Nb3 2.880298 1_545
Fe0 Nb21 2.887108 1_545
Fe0 Nb22 2.935600 1_555
Fe0 Nb6 2.945076 1_555
Fe1 Si14 2.276949 1_555
Fe1 Si22 2.295031 1_655
Fe1 Si4 2.338324 1_655
Fe1 Si12 2.377983 1_555
Fe1 Nb10 2.823668 1_555
Fe1 Nb4 2.871649 1_656
Fe1 Nb3 2.880298 1_645
Fe1 Nb21 2.887108 1_545
Fe1 Nb22 2.935600 1_655
Fe1 Nb6 2.945076 1_555
Fe2 Si15 2.276949 1_555
Fe2 Si23 2.295031 1_555
Fe2 Si5 2.338324 1_555
Fe2 Si13 2.377983 1_555
Fe2 Fe3 2.474180 1_455
Fe2 Fe3 2.475823 1_555
Fe2 Nb11 2.823668 1_555
Fe2 Nb5 2.871649 1_554
Fe2 Nb2 2.880298 1_555
Fe2 Nb20 2.887108 1_555
Fe2 Nb23 2.935600 1_555
Fe2 Nb7 2.945076 1_555
Fe3 Si15 2.276949 1_655
Fe3 Si23 2.295031 1_555
Fe3 Si5 2.338324 1_555
Fe3 Si13 2.377983 1_655
Fe3 Nb11 2.823668 1_655
Fe3 Nb5 2.871649 1_554
Fe3 Nb2 2.880298 1_555
Fe3 Nb20 2.887108 1_655
Fe3 Nb23 2.935600 1_555
Fe3 Nb7 2.945076 1_655
Fe4 Si18 2.349743 1_555
Fe4 Si2 2.351997 1_555
Fe4 Si20 2.360649 1_555
Fe4 Si10 2.399774 1_555
Fe4 Si0 2.448865 1_555
Fe4 Fe5 2.469012 1_555
Fe4 Fe5 2.480991 1_455
Fe4 Nb0 2.723847 1_555
Fe4 Nb14 2.876320 1_555
Fe4 Nb8 2.904992 1_555
Fe4 Nb16 2.908617 1_555
Fe4 Nb12 2.952196 1_555
Fe5 Si18 2.349743 1_555
Fe5 Si2 2.351997 1_655
Fe5 Si20 2.360649 1_655
Fe5 Si10 2.399774 1_555
Fe5 Si0 2.448865 1_655
Fe5 Nb0 2.723847 1_555
Fe5 Nb14 2.876320 1_655
Fe5 Nb8 2.904992 1_555
Fe5 Nb16 2.908617 1_555
Fe5 Nb12 2.952196 1_655
Fe6 Si19 2.349743 1_555
Fe6 Si3 2.351997 1_555
Fe6 Si21 2.360649 1_555
Fe6 Si11 2.399774 1_555
Fe6 Si1 2.448865 1_555
Fe6 Fe7 2.469012 1_455
Fe6 Fe7 2.480991 1_555
Fe6 Nb1 2.723847 1_555
Fe6 Nb15 2.876320 1_555
Fe6 Nb9 2.904992 1_555
Fe6 Nb17 2.908617 1_555
Fe6 Nb13 2.952196 1_555
Fe7 Si19 2.349743 1_655
Fe7 Si3 2.351997 1_555
Fe7 Si21 2.360649 1_555
Fe7 Si11 2.399774 1_655
Fe7 Si1 2.448865 1_555
Fe7 Nb1 2.723847 1_655
Fe7 Nb15 2.876320 1_555
Fe7 Nb9 2.904992 1_655
Fe7 Nb17 2.908617 1_655
Fe7 Nb13 2.952196 1_555
Fe8 Si21 2.419494 1_545
Fe8 Si12 2.441362 1_555
Fe8 Fe9 2.444668 1_455
Fe8 Si2 2.454235 1_555
Fe8 Si18 2.469543 1_555
Fe8 Si11 2.472204 1_545
Fe8 Si4 2.483941 1_555
Fe8 Fe9 2.505335 1_555
Fe9 Si21 2.419494 1_545
Fe9 Si12 2.441362 1_555
Fe9 Si2 2.454235 1_655
Fe9 Si18 2.469543 1_555
Fe9 Si11 2.472204 1_645
Fe9 Si4 2.483941 1_655
Fe10 Si20 2.419494 1_555
Fe10 Si13 2.441362 1_555
Fe10 Fe11 2.444668 1_555
Fe10 Si3 2.454235 1_555
Fe10 Si19 2.469543 1_555
Fe10 Si10 2.472204 1_555
Fe10 Si5 2.483941 1_555
Fe10 Fe11 2.505335 1_455
Fe11 Si20 2.419494 1_655
Fe11 Si13 2.441362 1_655
Fe11 Si3 2.454235 1_555
Fe11 Si19 2.469543 1_655
Fe11 Si10 2.472204 1_555
Fe11 Si5 2.483941 1_555
Fe12 Si26 2.267701 1_555
Fe12 Si27 2.267701 1_455
Fe12 Si6 2.342842 1_555
Fe12 Si7 2.342842 1_455
Fe12 Si22 2.362858 1_555
Fe12 Si17 2.384989 1_555
Fe12 Nb10 2.892141 1_455
Fe12 Nb10 2.892141 1_555
Fe12 Nb9 3.003860 1_555
Fe13 Si29 2.267701 1_555
Fe13 Si28 2.267701 1_555
Fe13 Si9 2.342842 1_555
Fe13 Si8 2.342842 1_555
Fe13 Si23 2.362858 1_555
Fe13 Si16 2.384989 1_565
Fe13 Nb11 2.892141 1_655
Fe13 Nb11 2.892141 1_555
Fe13 Nb8 3.003860 1_565
Fe14 Si24 2.309636 1_555
Fe14 Si16 2.314166 1_555
Fe14 Si0 2.420289 1_555
Fe14 Fe15 2.443708 1_555
Fe14 Fe15 2.506295 1_455
Fe14 Nb0 2.649822 1_555
Fe14 Nb20 2.882745 1_555
Fe14 Nb18 2.911257 1_555
Fe14 Nb2 2.912683 1_555
Fe14 Nb6 2.954860 1_554
Fe14 Nb4 3.038488 1_555
Fe14 Nb8 3.060434 1_555
Fe15 Si24 2.309636 1_655
Fe15 Si16 2.314166 1_555
Fe15 Si0 2.420289 1_655
Fe15 Nb0 2.649822 1_555
Fe15 Nb20 2.882745 1_655
Fe15 Nb18 2.911257 1_655
Fe15 Nb2 2.912683 1_555
Fe15 Nb6 2.954860 1_554
Fe15 Nb4 3.038488 1_655
Fe15 Nb8 3.060434 1_555
Fe16 Si25 2.309636 1_555
Fe16 Si17 2.314166 1_555
Fe16 Si1 2.420289 1_555
Fe16 Fe17 2.443708 1_455
Fe16 Fe17 2.506295 1_555
Fe16 Nb1 2.649822 1_555
Fe16 Nb21 2.882745 1_555
Fe16 Nb19 2.911257 1_555
Fe16 Nb3 2.912683 1_555
Fe16 Nb7 2.954860 1_556
Fe16 Nb5 3.038488 1_555
Fe16 Nb9 3.060434 1_555
Fe17 Si25 2.309636 1_555
Fe17 Si17 2.314166 1_655
Fe17 Si1 2.420289 1_555
Fe17 Nb1 2.649822 1_655
Fe17 Nb21 2.882745 1_555
Fe17 Nb19 2.911257 1_555
Fe17 Nb3 2.912683 1_655
Fe17 Nb7 2.954860 1_656
Fe17 Nb5 3.038488 1_555
Fe17 Nb9 3.060434 1_655
Si0 Si20 2.515764 1_555
Si1 Si21 2.515764 1_555
Si6 Si7 2.467794 1_555
Si6 Si7 2.482209 1_455
Si8 Si9 2.467794 1_455
Si8 Si9 2.482209 1_555
Si14 Si29 2.567556 1_546
Si14 Si28 2.567556 1_546
Si14 Si25 2.716813 1_545
Si14 Si16 2.814475 1_556
Si15 Si26 2.567556 1_554
Si15 Si27 2.567556 1_454
Si15 Si24 2.716813 1_555
Si15 Si17 2.814475 1_554
Si16 Si29 2.697870 1_545
Si16 Si28 2.697870 1_545
Si17 Si26 2.697870 1_555
Si17 Si27 2.697870 1_455
Si22 Si27 2.622713 1_455
Si22 Si26 2.622713 1_555
Si22 Si24 2.786946 1_556
Si23 Si29 2.622713 1_555
Si23 Si28 2.622713 1_555
Si23 Si25 2.786946 1_554
Si24 Si26 2.726161 1_554
Si24 Si27 2.726161 1_454
Si25 Si29 2.726161 1_556
Si25 Si28 2.726161 1_556
Si26 Si27 2.303593 1_555
Si26 Si27 2.646410 1_455
Si28 Si29 2.303593 1_455
Si28 Si29 2.646410 1_555
