# generated using pymatgen
data_Th3Pt5
_symmetry_space_group_name_H-M   'P 1'
_cell_length_a   7.69999800
_cell_length_b   7.69999811
_cell_length_c   3.60991100
_cell_angle_alpha   90.00000000
_cell_angle_beta   90.00000000
_cell_angle_gamma   119.99999954
_symmetry_Int_Tables_number   1
_chemical_formula_structural   Th3Pt5
_chemical_formula_sum   'Th3 Pt5'
_cell_volume   185.35673002
_cell_formula_units_Z   1
loop_
 _symmetry_equiv_pos_site_id
 _symmetry_equiv_pos_as_xyz
  1  'x, y, z'
loop_
 _atom_site_type_symbol
 _atom_site_label
 _atom_site_symmetry_multiplicity
 _atom_site_fract_x
 _atom_site_fract_y
 _atom_site_fract_z
 _atom_site_occupancy
  Th  Th0  1  0.00000000  0.27422200  0.00000000  1
  Th  Th1  1  0.72577800  0.72577800  0.00000000  1
  Th  Th2  1  0.27422200  0.00000000  0.00000000  1
  Pt  Pt0  1  0.33333300  0.66666700  0.00000000  1
  Pt  Pt1  1  0.66666700  0.33333300  0.00000000  1
  Pt  Pt2  1  0.00000000  0.65934100  0.50000000  1
  Pt  Pt3  1  0.34065900  0.34065900  0.50000000  1
  Pt  Pt4  1  0.65934100  0.00000000  0.50000000  1
loop_
_geom_bond_atom_site_label_1
_geom_bond_atom_site_label_2
_geom_bond_distance
_geom_bond_site_symmetry_2
Pt0 Th2 2.821906 1_565
Pt0 Th0 2.821911 1_555
Pt0 Th1 2.821914 1_555
Pt1 Th0 2.821906 1_655
Pt1 Th2 2.821911 1_555
Pt1 Th1 2.821914 1_555
Pt2 Th1 3.009685 1_455
Pt2 Th1 3.009685 1_456
Pt2 Th2 3.009685 1_566
Pt2 Th2 3.009685 1_565
Pt3 Th0 3.009685 1_555
Pt3 Th0 3.009685 1_556
Pt3 Th2 3.009685 1_555
Pt3 Th2 3.009685 1_556
Pt4 Th1 3.009685 1_545
Pt4 Th1 3.009685 1_546
Pt4 Th0 3.009685 1_655
Pt4 Th0 3.009685 1_656
