# generated using pymatgen
data_NaZrScO4
_symmetry_space_group_name_H-M   'P 1'
_cell_length_a   3.22065800
_cell_length_b   9.65670300
_cell_length_c   11.37387600
_cell_angle_alpha   90.00000000
_cell_angle_beta   90.00000000
_cell_angle_gamma   90.00000000
_symmetry_Int_Tables_number   1
_chemical_formula_structural   NaZrScO4
_chemical_formula_sum   'Na4 Zr4 Sc4 O16'
_cell_volume   353.73820969
_cell_formula_units_Z   4
loop_
 _symmetry_equiv_pos_site_id
 _symmetry_equiv_pos_as_xyz
  1  'x, y, z'
loop_
 _atom_site_type_symbol
 _atom_site_label
 _atom_site_symmetry_multiplicity
 _atom_site_fract_x
 _atom_site_fract_y
 _atom_site_fract_z
 _atom_site_occupancy
  Na  Na0  1  0.50000000  0.25554200  0.89929300  1
  Na  Na1  1  0.50000000  0.75554200  0.10070700  1
  Na  Na2  1  0.00000000  0.74370400  0.59971200  1
  Na  Na3  1  0.00000000  0.24370400  0.40028800  1
  Zr  Zr0  1  0.00000000  0.56775700  0.36135300  1
  Zr  Zr1  1  0.00000000  0.06775700  0.63864700  1
  Zr  Zr2  1  0.00000000  0.57993300  0.85578900  1
  Zr  Zr3  1  0.00000000  0.07993300  0.14421100  1
  Sc  Sc0  1  0.50000000  0.43129600  0.13824600  1
  Sc  Sc1  1  0.50000000  0.93129600  0.86175400  1
  Sc  Sc2  1  0.50000000  0.42131500  0.64276000  1
  Sc  Sc3  1  0.50000000  0.92131500  0.35724000  1
  O  O0  1  0.50000000  0.20541900  0.59563400  1
  O  O1  1  0.50000000  0.70541900  0.40436600  1
  O  O2  1  0.00000000  0.79242700  0.90300100  1
  O  O3  1  0.00000000  0.29242700  0.09699900  1
  O  O4  1  0.50000000  0.11717400  0.26632800  1
  O  O5  1  0.50000000  0.61717400  0.73367200  1
  O  O6  1  0.00000000  0.88670300  0.23403200  1
  O  O7  1  0.00000000  0.38670300  0.76596800  1
  O  O8  1  0.50000000  0.42638700  0.32505400  1
  O  O9  1  0.50000000  0.92638700  0.67494600  1
  O  O10  1  0.00000000  0.57216400  0.17732800  1
  O  O11  1  0.00000000  0.07216400  0.82267200  1
  O  O12  1  0.50000000  0.02051000  0.03425500  1
  O  O13  1  0.50000000  0.52051000  0.96574500  1
  O  O14  1  0.00000000  0.97966800  0.46768200  1
  O  O15  1  0.00000000  0.47966800  0.53231800  1
loop_
_geom_bond_atom_site_label_1
_geom_bond_atom_site_label_2
_geom_bond_distance
_geom_bond_site_symmetry_2
Na0 O11 2.547246 1_655
Na0 O11 2.547246 1_555
Na0 O7 2.548907 1_655
Na0 O7 2.548907 1_555
Na0 O13 2.668013 1_555
Na0 O12 2.739998 1_556
Na0 O3 2.788657 1_556
Na0 O3 2.788657 1_656
Na1 O10 2.547246 1_555
Na1 O10 2.547246 1_655
Na1 O6 2.548907 1_655
Na1 O6 2.548907 1_555
Na1 O12 2.668013 1_565
Na1 O13 2.739998 1_554
Na1 O2 2.788657 1_654
Na1 O2 2.788657 1_554
Na2 O5 2.531324 1_455
Na2 O5 2.531324 1_555
Na2 O9 2.537221 1_455
Na2 O9 2.537221 1_555
Na2 O15 2.662448 1_555
Na2 O14 2.728966 1_555
Na2 O1 2.768830 1_555
Na2 O1 2.768830 1_455
Na3 O4 2.531324 1_455
Na3 O4 2.531324 1_555
Na3 O8 2.537221 1_455
Na3 O8 2.537221 1_555
Na3 O14 2.662448 1_545
Na3 O15 2.728966 1_555
Na3 O0 2.768830 1_455
Na3 O0 2.768830 1_555
O0 Zr1 2.144691 1_555
O0 Zr1 2.144691 1_655
O0 Sc2 2.152644 1_555
O1 Zr0 2.144691 1_655
O1 Zr0 2.144691 1_555
O1 Sc3 2.152644 1_555
O2 Zr2 2.121089 1_555
O2 Sc1 2.147458 1_555
O2 Sc1 2.147458 1_455
O3 Zr3 2.121089 1_555
O3 Sc0 2.147458 1_455
O3 Sc0 2.147458 1_555
O4 Sc3 2.155554 1_545
O4 Zr3 2.156769 1_655
O4 Zr3 2.156769 1_555
O5 Sc2 2.155554 1_555
O5 Zr2 2.156769 1_655
O5 Zr2 2.156769 1_555
O6 Zr3 2.127326 1_565
O6 Sc3 2.160709 1_555
O6 Sc3 2.160709 1_455
O7 Zr2 2.127326 1_555
O7 Sc2 2.160709 1_455
O7 Sc2 2.160709 1_555
O8 Sc0 2.125260 1_555
O8 Zr0 2.151115 1_555
O8 Zr0 2.151115 1_655
O9 Sc1 2.125260 1_555
O9 Zr1 2.151115 1_565
O9 Zr1 2.151115 1_665
O10 Zr0 2.093510 1_555
O10 Sc0 2.154350 1_455
O10 Sc0 2.154350 1_555
O11 Zr1 2.093510 1_555
O11 Sc1 2.154350 1_445
O11 Sc1 2.154350 1_545
O12 Zr3 2.118137 1_655
O12 Zr3 2.118137 1_555
O12 Sc1 2.142818 1_544
O13 Zr2 2.118137 1_655
O13 Zr2 2.118137 1_555
O13 Sc0 2.142818 1_556
O14 Sc3 2.118634 1_555
O14 Sc3 2.118634 1_455
O14 Zr1 2.122456 1_565
O15 Sc2 2.118634 1_455
O15 Sc2 2.118634 1_555
O15 Zr0 2.122456 1_555
