# generated using pymatgen
data_La2Mg
_symmetry_space_group_name_H-M   'P 1'
_cell_length_a   18.90322573
_cell_length_b   18.90322573
_cell_length_c   11.49931200
_cell_angle_alpha   90.00000000
_cell_angle_beta   90.00000000
_cell_angle_gamma   157.76260093
_symmetry_Int_Tables_number   1
_chemical_formula_structural   La2Mg
_chemical_formula_sum   'La32 Mg16'
_cell_volume   1555.05779464
_cell_formula_units_Z   16
loop_
 _symmetry_equiv_pos_site_id
 _symmetry_equiv_pos_as_xyz
  1  'x, y, z'
loop_
 _atom_site_type_symbol
 _atom_site_label
 _atom_site_symmetry_multiplicity
 _atom_site_fract_x
 _atom_site_fract_y
 _atom_site_fract_z
 _atom_site_occupancy
  La  La0_0  1  0.22222500  0.27777500  0.12500000  1
  La  La0_1  1  0.22222500  0.27777500  0.62500000  1
  La  La0_2  1  0.22222500  0.77777500  0.12500000  1
  La  La0_3  1  0.22222500  0.77777500  0.62500000  1
  La  La0_4  1  0.72222500  0.27777500  0.12500000  1
  La  La0_5  1  0.72222500  0.27777500  0.62500000  1
  La  La0_6  1  0.72222500  0.77777500  0.12500000  1
  La  La0_7  1  0.72222500  0.77777500  0.62500000  1
  La  La1_0  1  0.38757450  0.11242550  0.12500000  1
  La  La1_1  1  0.38757450  0.11242550  0.62500000  1
  La  La1_2  1  0.38757450  0.61242550  0.12500000  1
  La  La1_3  1  0.38757450  0.61242550  0.62500000  1
  La  La1_4  1  0.88757450  0.11242550  0.12500000  1
  La  La1_5  1  0.88757450  0.11242550  0.62500000  1
  La  La1_6  1  0.88757450  0.61242550  0.12500000  1
  La  La1_7  1  0.88757450  0.61242550  0.62500000  1
  La  La2_0  1  0.11242550  0.38757450  0.37500000  1
  La  La2_1  1  0.11242550  0.38757450  0.87500000  1
  La  La2_2  1  0.11242550  0.88757450  0.37500000  1
  La  La2_3  1  0.11242550  0.88757450  0.87500000  1
  La  La2_4  1  0.61242550  0.38757450  0.37500000  1
  La  La2_5  1  0.61242550  0.38757450  0.87500000  1
  La  La2_6  1  0.61242550  0.88757450  0.37500000  1
  La  La2_7  1  0.61242550  0.88757450  0.87500000  1
  La  La3_0  1  0.27777500  0.22222500  0.37500000  1
  La  La3_1  1  0.27777500  0.22222500  0.87500000  1
  La  La3_2  1  0.27777500  0.72222500  0.37500000  1
  La  La3_3  1  0.27777500  0.72222500  0.87500000  1
  La  La3_4  1  0.77777500  0.22222500  0.37500000  1
  La  La3_5  1  0.77777500  0.22222500  0.87500000  1
  La  La3_6  1  0.77777500  0.72222500  0.37500000  1
  La  La3_7  1  0.77777500  0.72222500  0.87500000  1
  Mg  Mg0_0  1  0.05556150  0.44443850  0.12500000  1
  Mg  Mg0_1  1  0.05556150  0.44443850  0.62500000  1
  Mg  Mg0_2  1  0.05556150  0.94443850  0.12500000  1
  Mg  Mg0_3  1  0.05556150  0.94443850  0.62500000  1
  Mg  Mg0_4  1  0.55556150  0.44443850  0.12500000  1
  Mg  Mg0_5  1  0.55556150  0.44443850  0.62500000  1
  Mg  Mg0_6  1  0.55556150  0.94443850  0.12500000  1
  Mg  Mg0_7  1  0.55556150  0.94443850  0.62500000  1
  Mg  Mg1_0  1  0.44443850  0.05556150  0.37500000  1
  Mg  Mg1_1  1  0.44443850  0.05556150  0.87500000  1
  Mg  Mg1_2  1  0.44443850  0.55556150  0.37500000  1
  Mg  Mg1_3  1  0.44443850  0.55556150  0.87500000  1
  Mg  Mg1_4  1  0.94443850  0.05556150  0.37500000  1
  Mg  Mg1_5  1  0.94443850  0.05556150  0.87500000  1
  Mg  Mg1_6  1  0.94443850  0.55556150  0.37500000  1
  Mg  Mg1_7  1  0.94443850  0.55556150  0.87500000  1
loop_
_geom_bond_atom_site_label_1
_geom_bond_atom_site_label_2
_geom_bond_distance
_geom_bond_site_symmetry_2
La0_0 La3_1 3.537123 1_554
La0_0 La3_0 3.537123 1_555
La0_0 Mg1_3 3.556584 1_554
La0_0 Mg1_2 3.556584 1_555
La0_0 Mg1_5 3.556584 1_454
La0_0 Mg1_4 3.556584 1_455
La0_0 Mg0_4 3.588818 1_555
La0_0 Mg0_2 3.588818 1_545
La0_0 La1_2 3.630893 1_555
La0_0 La1_4 3.630893 1_455
La0_0 La0_6 3.645340 1_555
La0_0 La0_6 3.645340 1_445
La0_1 La3_1 3.537123 1_555
La0_1 La3_0 3.537123 1_555
La0_1 Mg1_3 3.556584 1_555
La0_1 Mg1_2 3.556584 1_555
La0_1 Mg1_5 3.556584 1_455
La0_1 Mg1_4 3.556584 1_455
La0_1 Mg0_5 3.588818 1_555
La0_1 Mg0_3 3.588818 1_545
La0_1 La1_3 3.630893 1_555
La0_1 La1_5 3.630893 1_455
La0_1 La0_7 3.645340 1_445
La0_1 La0_7 3.645340 1_555
La0_2 La3_3 3.537123 1_554
La0_2 La3_2 3.537123 1_555
La0_2 Mg1_1 3.556584 1_564
La0_2 Mg1_0 3.556584 1_565
La0_2 Mg1_6 3.556584 1_455
La0_2 Mg1_7 3.556584 1_454
La0_2 Mg0_6 3.588818 1_555
La0_2 Mg0_0 3.588818 1_555
La0_2 La1_6 3.630893 1_455
La0_2 La1_0 3.630893 1_565
La0_2 La0_4 3.645340 1_565
La0_2 La0_4 3.645340 1_455
La0_3 La3_3 3.537123 1_555
La0_3 La3_2 3.537123 1_555
La0_3 Mg1_1 3.556584 1_565
La0_3 Mg1_7 3.556584 1_455
La0_3 Mg1_0 3.556584 1_565
La0_3 Mg1_6 3.556584 1_455
La0_3 Mg0_7 3.588818 1_555
La0_3 Mg0_1 3.588818 1_555
La0_3 La1_7 3.630893 1_455
La0_3 La1_1 3.630893 1_565
La0_3 La0_5 3.645340 1_455
La0_3 La0_5 3.645340 1_565
La0_4 La3_5 3.537123 1_554
La0_4 La3_4 3.537123 1_555
La0_4 Mg1_7 3.556584 1_554
La0_4 Mg1_6 3.556584 1_555
La0_4 Mg1_1 3.556584 1_554
La0_4 Mg1_0 3.556584 1_555
La0_4 Mg0_0 3.588818 1_655
La0_4 Mg0_6 3.588818 1_545
La0_4 La1_6 3.630893 1_555
La0_4 La1_0 3.630893 1_555
La0_5 La3_5 3.537123 1_555
La0_5 La3_4 3.537123 1_555
La0_5 Mg1_7 3.556584 1_555
La0_5 Mg1_6 3.556584 1_555
La0_5 Mg1_1 3.556584 1_555
La0_5 Mg1_0 3.556584 1_555
La0_5 Mg0_1 3.588818 1_655
La0_5 Mg0_7 3.588818 1_545
La0_5 La1_7 3.630893 1_555
La0_5 La1_1 3.630893 1_555
La0_6 La3_6 3.537123 1_555
La0_6 La3_7 3.537123 1_554
La0_6 Mg1_5 3.556584 1_564
La0_6 Mg1_4 3.556584 1_565
La0_6 Mg1_3 3.556584 1_554
La0_6 Mg1_2 3.556584 1_555
La0_6 Mg0_2 3.588818 1_655
La0_6 Mg0_4 3.588818 1_555
La0_6 La1_2 3.630893 1_555
La0_6 La1_4 3.630893 1_565
La0_7 La3_7 3.537123 1_555
La0_7 La3_6 3.537123 1_555
La0_7 Mg1_5 3.556584 1_565
La0_7 Mg1_3 3.556584 1_555
La0_7 Mg1_4 3.556584 1_565
La0_7 Mg1_2 3.556584 1_555
La0_7 Mg0_3 3.588818 1_655
La0_7 Mg0_5 3.588818 1_555
La0_7 La1_3 3.630893 1_555
La0_7 La1_5 3.630893 1_565
La1_0 La2_2 3.529469 1_545
La1_0 La2_3 3.529469 1_544
La1_0 La2_5 3.529469 1_554
La1_0 La2_4 3.529469 1_555
La1_0 Mg0_4 3.546611 1_555
La1_0 Mg0_2 3.546611 1_545
La1_0 Mg1_0 3.565742 1_555
La1_0 Mg1_1 3.565742 1_554
La1_0 La1_6 3.645340 1_555
La1_0 La1_6 3.645340 1_445
La1_1 La2_5 3.529469 1_555
La1_1 La2_3 3.529469 1_545
La1_1 La2_2 3.529469 1_545
La1_1 La2_4 3.529469 1_555
La1_1 Mg0_5 3.546611 1_555
La1_1 Mg0_3 3.546611 1_545
La1_1 Mg1_1 3.565742 1_555
La1_1 Mg1_0 3.565742 1_555
La1_1 La1_7 3.645340 1_555
La1_1 La1_7 3.645340 1_445
La1_2 La2_7 3.529469 1_554
La1_2 La2_6 3.529469 1_555
La1_2 La2_1 3.529469 1_554
La1_2 La2_0 3.529469 1_555
La1_2 Mg0_6 3.546611 1_555
La1_2 Mg0_0 3.546611 1_555
La1_2 Mg1_3 3.565742 1_554
La1_2 Mg1_2 3.565742 1_555
La1_2 La1_4 3.645340 1_565
La1_2 La1_4 3.645340 1_455
La1_3 La2_1 3.529469 1_555
La1_3 La2_7 3.529469 1_555
La1_3 La2_6 3.529469 1_555
La1_3 La2_0 3.529469 1_555
La1_3 Mg0_7 3.546611 1_555
La1_3 Mg0_1 3.546611 1_555
La1_3 Mg1_3 3.565742 1_555
La1_3 Mg1_2 3.565742 1_555
La1_3 La1_5 3.645340 1_455
La1_3 La1_5 3.645340 1_565
La1_4 La2_0 3.529469 1_655
La1_4 La2_7 3.529469 1_544
La1_4 La2_1 3.529469 1_654
La1_4 La2_6 3.529469 1_545
La1_4 Mg0_0 3.546611 1_655
La1_4 Mg0_6 3.546611 1_545
La1_4 Mg1_4 3.565742 1_555
La1_4 Mg1_5 3.565742 1_554
La1_5 La2_7 3.529469 1_545
La1_5 La2_1 3.529469 1_655
La1_5 La2_6 3.529469 1_545
La1_5 La2_0 3.529469 1_655
La1_5 Mg0_1 3.546611 1_655
La1_5 Mg0_7 3.546611 1_545
La1_5 Mg1_5 3.565742 1_555
La1_5 Mg1_4 3.565742 1_555
La1_6 La2_2 3.529469 1_655
La1_6 La2_3 3.529469 1_654
La1_6 La2_5 3.529469 1_554
La1_6 La2_4 3.529469 1_555
La1_6 Mg0_2 3.546611 1_655
La1_6 Mg0_4 3.546611 1_555
La1_6 Mg1_7 3.565742 1_554
La1_6 Mg1_6 3.565742 1_555
La1_7 La2_3 3.529469 1_655
La1_7 La2_5 3.529469 1_555
La1_7 La2_2 3.529469 1_655
La1_7 La2_4 3.529469 1_555
La1_7 Mg0_3 3.546611 1_655
La1_7 Mg0_5 3.546611 1_555
La1_7 Mg1_7 3.565742 1_555
La1_7 Mg1_6 3.565742 1_555
La2_0 Mg1_2 3.546611 1_555
La2_0 Mg1_4 3.546611 1_455
La2_0 Mg0_0 3.565742 1_555
La2_0 Mg0_1 3.565742 1_555
La2_0 La3_2 3.630893 1_555
La2_0 La3_4 3.630893 1_455
La2_0 La2_6 3.645340 1_555
La2_0 La2_6 3.645340 1_445
La2_1 Mg1_3 3.546611 1_555
La2_1 Mg1_5 3.546611 1_455
La2_1 Mg0_1 3.565742 1_555
La2_1 Mg0_0 3.565742 1_556
La2_1 La3_3 3.630893 1_555
La2_1 La3_5 3.630893 1_455
La2_1 La2_7 3.645340 1_555
La2_1 La2_7 3.645340 1_445
La2_2 Mg1_0 3.546611 1_565
La2_2 Mg1_6 3.546611 1_455
La2_2 Mg0_2 3.565742 1_555
La2_2 Mg0_3 3.565742 1_555
La2_2 La3_6 3.630893 1_455
La2_2 La3_0 3.630893 1_565
La2_2 La2_4 3.645340 1_565
La2_2 La2_4 3.645340 1_455
La2_3 Mg1_1 3.546611 1_565
La2_3 Mg1_7 3.546611 1_455
La2_3 Mg0_3 3.565742 1_555
La2_3 Mg0_2 3.565742 1_556
La2_3 La3_7 3.630893 1_455
La2_3 La3_1 3.630893 1_565
La2_3 La2_5 3.645340 1_565
La2_3 La2_5 3.645340 1_455
La2_4 Mg1_6 3.546611 1_555
La2_4 Mg1_0 3.546611 1_555
La2_4 Mg0_4 3.565742 1_555
La2_4 Mg0_5 3.565742 1_555
La2_4 La3_6 3.630893 1_555
La2_4 La3_0 3.630893 1_555
La2_5 Mg1_7 3.546611 1_555
La2_5 Mg1_1 3.546611 1_555
La2_5 Mg0_5 3.565742 1_555
La2_5 Mg0_4 3.565742 1_556
La2_5 La3_7 3.630893 1_555
La2_5 La3_1 3.630893 1_555
La2_6 Mg1_4 3.546611 1_565
La2_6 Mg1_2 3.546611 1_555
La2_6 Mg0_6 3.565742 1_555
La2_6 Mg0_7 3.565742 1_555
La2_6 La3_2 3.630893 1_555
La2_6 La3_4 3.630893 1_565
La2_7 Mg1_5 3.546611 1_565
La2_7 Mg1_3 3.546611 1_555
La2_7 Mg0_7 3.565742 1_555
La2_7 Mg0_6 3.565742 1_556
La2_7 La3_3 3.630893 1_555
La2_7 La3_5 3.630893 1_565
La3_0 Mg0_4 3.556584 1_555
La3_0 Mg0_5 3.556584 1_555
La3_0 Mg0_2 3.556584 1_545
La3_0 Mg0_3 3.556584 1_545
La3_0 Mg1_2 3.588818 1_555
La3_0 Mg1_4 3.588818 1_455
La3_0 La3_6 3.645340 1_555
La3_0 La3_6 3.645340 1_445
La3_1 Mg0_5 3.556584 1_555
La3_1 Mg0_4 3.556584 1_556
La3_1 Mg0_3 3.556584 1_545
La3_1 Mg0_2 3.556584 1_546
La3_1 Mg1_3 3.588818 1_555
La3_1 Mg1_5 3.588818 1_455
La3_1 La3_7 3.645340 1_555
La3_1 La3_7 3.645340 1_445
La3_2 Mg0_6 3.556584 1_555
La3_2 Mg0_7 3.556584 1_555
La3_2 Mg0_0 3.556584 1_555
La3_2 Mg0_1 3.556584 1_555
La3_2 Mg1_6 3.588818 1_455
La3_2 Mg1_0 3.588818 1_565
La3_2 La3_4 3.645340 1_455
La3_2 La3_4 3.645340 1_565
La3_3 Mg0_7 3.556584 1_555
La3_3 Mg0_6 3.556584 1_556
La3_3 Mg0_1 3.556584 1_555
La3_3 Mg0_0 3.556584 1_556
La3_3 Mg1_7 3.588818 1_455
La3_3 Mg1_1 3.588818 1_565
La3_3 La3_5 3.645340 1_455
La3_3 La3_5 3.645340 1_565
La3_4 Mg0_0 3.556584 1_655
La3_4 Mg0_1 3.556584 1_655
La3_4 Mg0_6 3.556584 1_545
La3_4 Mg0_7 3.556584 1_545
La3_4 Mg1_6 3.588818 1_555
La3_4 Mg1_0 3.588818 1_555
La3_5 Mg0_1 3.556584 1_655
La3_5 Mg0_0 3.556584 1_656
La3_5 Mg0_7 3.556584 1_545
La3_5 Mg0_6 3.556584 1_546
La3_5 Mg1_7 3.588818 1_555
La3_5 Mg1_1 3.588818 1_555
La3_6 Mg0_2 3.556584 1_655
La3_6 Mg0_3 3.556584 1_655
La3_6 Mg0_4 3.556584 1_555
La3_6 Mg0_5 3.556584 1_555
La3_6 Mg1_2 3.588818 1_555
La3_6 Mg1_4 3.588818 1_565
La3_7 Mg0_3 3.556584 1_655
La3_7 Mg0_2 3.556584 1_656
La3_7 Mg0_5 3.556584 1_555
La3_7 Mg0_4 3.556584 1_556
La3_7 Mg1_3 3.588818 1_555
La3_7 Mg1_5 3.588818 1_565
