# generated using pymatgen
data_SrCa7Mn6Al2O22
_symmetry_space_group_name_H-M   'P 1'
_cell_length_a   10.86326656
_cell_length_b   15.27958103
_cell_length_c   10.81665611
_cell_angle_alpha   89.64154314
_cell_angle_beta   90.63305446
_cell_angle_gamma   90.24203215
_symmetry_Int_Tables_number   1
_chemical_formula_structural   SrCa7Mn6Al2O22
_chemical_formula_sum   'Sr4 Ca28 Mn24 Al8 O88'
_cell_volume   1795.25500656
_cell_formula_units_Z   4
loop_
 _symmetry_equiv_pos_site_id
 _symmetry_equiv_pos_as_xyz
  1  'x, y, z'
loop_
 _atom_site_type_symbol
 _atom_site_label
 _atom_site_symmetry_multiplicity
 _atom_site_fract_x
 _atom_site_fract_y
 _atom_site_fract_z
 _atom_site_occupancy
  Sr  Sr0  1  0.00587855  0.11825703  0.50138509  1
  Sr  Sr1  1  0.49964815  0.36765012  0.00511636  1
  Sr  Sr2  1  0.23732048  0.37736524  0.25402771  1
  Sr  Sr3  1  0.25614065  0.11843015  0.25445544  1
  Ca  Ca0  1  0.02287381  0.11849837  0.98546933  1
  Ca  Ca1  1  0.02099207  0.62765404  0.50033221  1
  Ca  Ca2  1  0.02057375  0.62690604  0.99685013  1
  Ca  Ca3  1  0.52565745  0.12683234  0.50730692  1
  Ca  Ca4  1  0.52813277  0.12148050  0.97416116  1
  Ca  Ca5  1  0.52095581  0.62558542  0.49957880  1
  Ca  Ca6  1  0.52778481  0.62984935  0.99839560  1
  Ca  Ca7  1  0.47931893  0.38334675  0.51127470  1
  Ca  Ca8  1  0.49609377  0.87560144  0.97930875  1
  Ca  Ca9  1  0.48211716  0.87190004  0.51054343  1
  Ca  Ca10  1  0.97119969  0.38218913  0.00006833  1
  Ca  Ca11  1  0.97411175  0.38841336  0.50658858  1
  Ca  Ca12  1  0.98178768  0.87490067  0.01033906  1
  Ca  Ca13  1  0.97420542  0.87259270  0.50741116  1
  Ca  Ca14  1  0.23598243  0.38028971  0.74089876  1
  Ca  Ca15  1  0.22291597  0.87946676  0.24578939  1
  Ca  Ca16  1  0.23732708  0.87621268  0.75749316  1
  Ca  Ca17  1  0.73556418  0.38914207  0.25187740  1
  Ca  Ca18  1  0.72967779  0.37367224  0.74961862  1
  Ca  Ca19  1  0.74308525  0.86691078  0.24478650  1
  Ca  Ca20  1  0.72720913  0.87477552  0.74277647  1
  Ca  Ca21  1  0.27671478  0.11716563  0.73942970  1
  Ca  Ca22  1  0.26562485  0.62135576  0.25830244  1
  Ca  Ca23  1  0.25848079  0.63047665  0.74622482  1
  Ca  Ca24  1  0.74875724  0.12001216  0.25283491  1
  Ca  Ca25  1  0.76550039  0.11866026  0.75561918  1
  Ca  Ca26  1  0.77714823  0.62633673  0.25411093  1
  Ca  Ca27  1  0.77510802  0.62455362  0.75852613  1
  Mn  Mn0  1  0.99531860  0.99263643  0.25343580  1
  Mn  Mn1  1  0.99875193  0.99577339  0.75579457  1
  Mn  Mn2  1  0.99895463  0.50323355  0.25200799  1
  Mn  Mn3  1  0.00530749  0.50026439  0.75296306  1
  Mn  Mn4  1  0.49883327  0.50432709  0.24678576  1
  Mn  Mn5  1  0.50590658  0.50124504  0.74128827  1
  Mn  Mn6  1  0.25806568  0.00141224  0.00176309  1
  Mn  Mn7  1  0.24771127  0.50135471  0.50272977  1
  Mn  Mn8  1  0.75176029  0.99679411  0.99433251  1
  Mn  Mn9  1  0.74369838  0.99898181  0.50099348  1
  Mn  Mn10  1  0.75036892  0.50261250  0.00353880  1
  Mn  Mn11  1  0.75078388  0.50239604  0.49961604  1
  Mn  Mn12  1  0.24967684  0.74507863  0.99453739  1
  Mn  Mn13  1  0.25133817  0.75360997  0.49735207  1
  Mn  Mn14  1  0.75680408  0.24401053  0.00388430  1
  Mn  Mn15  1  0.75082319  0.25137890  0.50447809  1
  Mn  Mn16  1  0.75209514  0.75027613  0.99840825  1
  Mn  Mn17  1  0.75228916  0.74759356  0.50197149  1
  Mn  Mn18  1  0.99280532  0.24992345  0.75681002  1
  Mn  Mn19  1  0.00416044  0.74741556  0.25282613  1
  Mn  Mn20  1  0.00004497  0.75126742  0.74971516  1
  Mn  Mn21  1  0.50132988  0.24833315  0.74423508  1
  Mn  Mn22  1  0.50950046  0.74705142  0.25688838  1
  Mn  Mn23  1  0.49960390  0.74887022  0.74911174  1
  Al  Al0  1  0.51150750  0.97826421  0.22597752  1
  Al  Al1  1  0.49858969  0.99817507  0.74222827  1
  Al  Al2  1  0.23053976  0.99364289  0.51677543  1
  Al  Al3  1  0.23184637  0.49695046  0.01650491  1
  Al  Al4  1  0.25159153  0.25317872  0.95070421  1
  Al  Al5  1  0.27818700  0.24183969  0.48383583  1
  Al  Al6  1  0.97867547  0.26772443  0.27869563  1
  Al  Al7  1  0.52096534  0.26333161  0.27589918  1
  O  O0  1  0.11637810  0.76949154  0.11331029  1
  O  O1  1  0.10409132  0.76994865  0.60056336  1
  O  O2  1  0.56098966  0.23472699  0.12538670  1
  O  O3  1  0.60717125  0.27437761  0.60455946  1
  O  O4  1  0.60123083  0.76920771  0.10215742  1
  O  O5  1  0.60046752  0.76328060  0.60150282  1
  O  O6  1  0.39257077  0.22728075  0.36365932  1
  O  O7  1  0.39736614  0.22952279  0.88604763  1
  O  O8  1  0.39152532  0.72762756  0.39009139  1
  O  O9  1  0.40032012  0.73115183  0.89915354  1
  O  O10  1  0.88711187  0.23214754  0.40079679  1
  O  O11  1  0.90291534  0.23534203  0.90156231  1
  O  O12  1  0.89716351  0.72874749  0.39758815  1
  O  O13  1  0.89598522  0.72842295  0.89584697  1
  O  O14  1  0.12445589  0.23031254  0.33167021  1
  O  O15  1  0.15591812  0.23662235  0.81756676  1
  O  O16  1  0.14930191  0.72970741  0.35313629  1
  O  O17  1  0.14278496  0.73266651  0.85022601  1
  O  O18  1  0.64922948  0.23122880  0.36287480  1
  O  O19  1  0.64812356  0.23284574  0.85499390  1
  O  O20  1  0.65432763  0.72623684  0.35889102  1
  O  O21  1  0.64552891  0.73022710  0.85172738  1
  O  O22  1  0.36226726  0.26297369  0.63184971  1
  O  O23  1  0.35049996  0.76937433  0.64640396  1
  O  O24  1  0.88584273  0.25002030  0.14467504  1
  O  O25  1  0.86628501  0.27676974  0.63953170  1
  O  O26  1  0.85878001  0.76811982  0.14246508  1
  O  O27  1  0.85507885  0.77261285  0.64678837  1
  O  O28  1  0.36547594  0.48274800  0.12477679  1
  O  O29  1  0.35638206  0.48146144  0.64320346  1
  O  O30  1  0.36560527  0.99909190  0.15759778  1
  O  O31  1  0.36003953  0.98822176  0.62904484  1
  O  O32  1  0.85680770  0.48248188  0.14570298  1
  O  O33  1  0.85752163  0.47927648  0.64922505  1
  O  O34  1  0.85643738  0.98203638  0.14286542  1
  O  O35  1  0.86123435  0.97954048  0.64642336  1
  O  O36  1  0.13677248  0.01023813  0.36783369  1
  O  O37  1  0.14968748  0.02300143  0.86295205  1
  O  O38  1  0.14676769  0.51684913  0.35489202  1
  O  O39  1  0.16411493  0.51308164  0.85880123  1
  O  O40  1  0.58108093  0.04069437  0.34267004  1
  O  O41  1  0.64407346  0.01287267  0.85243443  1
  O  O42  1  0.64532874  0.52361577  0.35257390  1
  O  O43  1  0.63372753  0.52021314  0.86477734  1
  O  O44  1  0.39507013  0.01618676  0.88836229  1
  O  O45  1  0.39046052  0.51441249  0.39410652  1
  O  O46  1  0.87430302  0.02329390  0.37790390  1
  O  O47  1  0.89550454  0.01796838  0.89628694  1
  O  O48  1  0.89827576  0.52336153  0.39562393  1
  O  O49  1  0.89917446  0.51478497  0.89667154  1
  O  O50  1  0.09992518  0.47877135  0.11073212  1
  O  O51  1  0.10777703  0.48180520  0.60745789  1
  O  O52  1  0.10792483  0.99622429  0.11401896  1
  O  O53  1  0.10438028  0.97851657  0.61768394  1
  O  O54  1  0.61123961  0.48583154  0.11372614  1
  O  O55  1  0.61225063  0.48320049  0.59919544  1
  O  O56  1  0.61071048  0.97847417  0.09850049  1
  O  O57  1  0.60385348  0.98349549  0.60271231  1
  O  O58  1  0.99878870  0.38114819  0.28919047  1
  O  O59  1  0.01896514  0.37454390  0.78362894  1
  O  O60  1  0.00573449  0.86727699  0.28790996  1
  O  O61  1  0.01633051  0.87472662  0.79721432  1
  O  O62  1  0.50481265  0.37839400  0.28302522  1
  O  O63  1  0.50055444  0.37707709  0.78023811  1
  O  O64  1  0.50024301  0.87015839  0.28444206  1
  O  O65  1  0.50471723  0.87399584  0.77176305  1
  O  O66  1  0.50085403  0.12485349  0.71837721  1
  O  O67  1  0.48080035  0.62787137  0.20819514  1
  O  O68  1  0.47728820  0.62356885  0.72116806  1
  O  O69  1  0.98780355  0.12758933  0.72295307  1
  O  O70  1  0.99549821  0.62348970  0.20974268  1
  O  O71  1  0.99545285  0.62466057  0.71500550  1
  O  O72  1  0.21410983  0.17086293  0.05345373  1
  O  O73  1  0.24569350  0.12602216  0.51733355  1
  O  O74  1  0.24866664  0.62047530  0.03449186  1
  O  O75  1  0.23940254  0.62438831  0.53579031  1
  O  O76  1  0.74178722  0.12097387  0.03459347  1
  O  O77  1  0.74203601  0.12743828  0.54219165  1
  O  O78  1  0.74344833  0.62715728  0.03745365  1
  O  O79  1  0.74365367  0.62475798  0.54511937  1
  O  O80  1  0.23977376  0.35985990  0.48190848  1
  O  O81  1  0.25076170  0.36623693  0.98884903  1
  O  O82  1  0.26497614  0.87912609  0.45892355  1
  O  O83  1  0.27643720  0.86719728  0.99040993  1
  O  O84  1  0.76020884  0.37806543  0.46046690  1
  O  O85  1  0.74963904  0.37086565  0.98132355  1
  O  O86  1  0.75269939  0.87484051  0.45937218  1
  O  O87  1  0.76198156  0.87391743  0.95844340  1
loop_
_geom_bond_atom_site_label_1
_geom_bond_atom_site_label_2
_geom_bond_distance
_geom_bond_site_symmetry_2
Ca0 O47 2.274994 1_455
Ca0 O72 2.335869 1_556
Ca0 O11 2.383804 1_455
Ca0 O37 2.421712 1_555
Ca0 O52 2.496257 1_546
Ca1 O12 2.322421 1_455
Ca1 O71 2.341744 1_455
Ca1 O48 2.360208 1_455
Ca1 O75 2.399941 1_555
Ca1 O1 2.590130 1_555
Ca1 O16 2.628495 1_555
Ca1 O51 2.675640 1_555
Ca1 O38 2.703433 1_555
Ca2 O70 2.322065 1_456
Ca2 O13 2.322772 1_455
Ca2 O49 2.412652 1_455
Ca2 O74 2.508855 1_556
Ca2 O17 2.624044 1_555
Ca2 O50 2.709563 1_556
Ca2 O0 2.720798 1_556
Ca2 O39 2.791570 1_555
Ca3 O66 2.301870 1_555
Ca3 O40 2.307768 1_555
Ca3 O77 2.376541 1_555
Ca3 O57 2.559545 1_545
Ca3 O18 2.604658 1_555
Ca3 O6 2.607561 1_555
Ca3 O3 2.639203 1_555
Ca3 O73 3.044424 1_555
Ca4 O44 2.347023 1_555
Ca4 O7 2.371042 1_555
Ca4 O76 2.404348 1_556
Ca4 O2 2.411334 1_556
Ca4 O41 2.481025 1_555
Ca4 O19 2.499405 1_555
Ca4 O56 2.709477 1_546
Ca4 O66 2.779474 1_555
Ca5 O8 2.401892 1_555
Ca5 O68 2.448463 1_555
Ca5 O79 2.463598 1_555
Ca5 O45 2.482907 1_555
Ca5 O5 2.525996 1_555
Ca5 O20 2.603987 1_555
Ca5 O55 2.615927 1_555
Ca5 O42 2.622532 1_555
Ca6 O9 2.330240 1_555
Ca6 O67 2.331499 1_556
Ca6 O78 2.376482 1_556
Ca6 O43 2.510588 1_555
Ca6 O4 2.534977 1_556
Ca6 O21 2.550110 1_555
Ca6 O54 2.679178 1_556
Ca7 O55 2.299302 1_555
Ca7 O3 2.384732 1_555
Ca7 O29 2.480566 1_555
Ca7 O62 2.489076 1_555
Ca7 O45 2.550701 1_555
Ca7 O22 2.586034 1_555
Ca7 O80 2.641330 1_555
Ca8 O65 2.248230 1_555
Ca8 O56 2.378351 1_556
Ca8 O4 2.380771 1_556
Ca8 O83 2.393397 1_555
Ca8 O9 2.586543 1_555
Ca8 O44 2.599234 1_565
Ca9 O5 2.311942 1_555
Ca9 O57 2.371365 1_555
Ca9 O82 2.420847 1_555
Ca9 O64 2.456061 1_555
Ca9 O31 2.578106 1_555
Ca9 O23 2.580055 1_555
Ca9 O8 2.741309 1_555
Ca9 O65 2.833834 1_555
Ca9 O86 2.997169 1_555
Ca10 O50 2.352399 1_655
Ca10 O59 2.407209 1_654
Ca10 O85 2.418722 1_554
Ca10 O49 2.435867 1_554
Ca10 O32 2.542368 1_555
Ca10 O11 2.591990 1_554
Ca10 O24 2.713194 1_555
Ca11 O51 2.302633 1_655
Ca11 O58 2.373032 1_555
Ca11 O84 2.376059 1_555
Ca11 O33 2.448854 1_555
Ca11 O48 2.516448 1_555
Ca11 O25 2.517844 1_555
Ca11 O10 2.809786 1_555
Ca11 O80 2.935895 1_655
Ca12 O61 2.339746 1_654
Ca12 O0 2.435938 1_655
Ca12 O87 2.446867 1_554
Ca12 O26 2.546512 1_555
Ca12 O52 2.557809 1_655
Ca12 O34 2.584613 1_555
Ca12 O47 2.671547 1_564
Ca12 O13 2.720884 1_554
Ca13 O1 2.330962 1_655
Ca13 O60 2.404512 1_655
Ca13 O53 2.451423 1_655
Ca13 O86 2.456463 1_555
Ca13 O27 2.505764 1_555
Ca13 O35 2.554577 1_555
Ca13 O12 2.633912 1_555
Ca13 O46 2.896464 1_565
Ca14 O29 2.282562 1_555
Ca14 O59 2.408535 1_555
Ca14 O15 2.498007 1_555
Ca14 O51 2.524841 1_555
Ca14 O39 2.533882 1_555
Ca14 O22 2.563110 1_555
Ca14 O81 2.692311 1_555
Ca14 O80 2.821459 1_555
Ca14 O63 2.901366 1_555
Ca15 O82 2.345262 1_555
Ca15 O60 2.414030 1_555
Ca15 O0 2.488695 1_555
Ca15 O30 2.576931 1_555
Ca15 O36 2.585932 1_565
Ca15 O52 2.592744 1_555
Ca15 O16 2.682477 1_555
Ca15 O83 2.836665 1_554
Ca15 O64 3.040773 1_555
Ca16 O23 2.386292 1_555
Ca16 O61 2.443543 1_555
Ca16 O83 2.553285 1_555
Ca16 O31 2.574566 1_555
Ca16 O53 2.599515 1_555
Ca16 O17 2.616833 1_555
Ca16 O37 2.704098 1_565
Ca16 O1 2.751890 1_555
Ca16 O65 2.907454 1_555
Ca17 O32 2.254947 1_555
Ca17 O84 2.274467 1_555
Ca17 O54 2.486835 1_555
Ca17 O42 2.537254 1_555
Ca17 O62 2.537439 1_555
Ca17 O18 2.848238 1_555
Ca17 O58 2.886392 1_555
Ca17 O24 2.937754 1_555
Ca17 O85 2.947231 1_554
Ca18 O33 2.388333 1_555
Ca18 O25 2.427372 1_555
Ca18 O85 2.513362 1_555
Ca18 O63 2.515390 1_555
Ca18 O3 2.549792 1_555
Ca18 O19 2.586445 1_555
Ca18 O55 2.648301 1_555
Ca18 O43 2.781162 1_555
Ca19 O26 2.269531 1_555
Ca19 O86 2.326187 1_555
Ca19 O34 2.411106 1_555
Ca19 O4 2.634447 1_555
Ca19 O20 2.654935 1_555
Ca19 O64 2.678094 1_555
Ca19 O56 2.722893 1_555
Ca19 O60 2.886003 1_655
Ca20 O27 2.348351 1_555
Ca20 O87 2.359021 1_555
Ca20 O35 2.400297 1_555
Ca20 O65 2.440643 1_555
Ca20 O41 2.597309 1_565
Ca20 O57 2.606348 1_555
Ca20 O21 2.651079 1_555
Ca20 O5 2.664446 1_555
Ca21 O37 2.399875 1_555
Ca21 O15 2.414933 1_555
Ca21 O73 2.425187 1_555
Ca21 O66 2.450269 1_555
Ca21 O31 2.488991 1_545
Ca21 O44 2.562954 1_555
Ca21 O7 2.673837 1_555
Ca21 O22 2.674936 1_555
Ca22 O38 2.302181 1_555
Ca22 O16 2.336132 1_555
Ca22 O67 2.406859 1_555
Ca22 O74 2.425968 1_555
Ca22 O8 2.550780 1_555
Ca22 O45 2.571314 1_555
Ca23 O75 2.285770 1_555
Ca23 O17 2.313647 1_555
Ca23 O39 2.394977 1_555
Ca23 O68 2.398180 1_555
Ca23 O23 2.578076 1_555
Ca23 O9 2.726218 1_555
Ca23 O29 2.763237 1_555
Ca23 O71 2.874586 1_455
Ca24 O18 2.354305 1_555
Ca24 O76 2.360976 1_555
Ca24 O40 2.395135 1_555
Ca24 O46 2.413581 1_555
Ca24 O34 2.703843 1_545
Ca24 O10 2.777676 1_555
Ca25 O77 2.322903 1_555
Ca25 O41 2.332535 1_555
Ca25 O19 2.428545 1_555
Ca25 O69 2.447623 1_555
Ca25 O47 2.572604 1_555
Ca25 O35 2.659407 1_545
Ca25 O11 2.803501 1_555
Ca25 O66 2.900456 1_555
Ca25 O25 2.929474 1_555
Ca26 O20 2.338155 1_555
Ca26 O78 2.367893 1_555
Ca26 O42 2.375318 1_555
Ca26 O70 2.425872 1_555
Ca26 O48 2.548130 1_555
Ca26 O12 2.554473 1_555
Ca26 O26 2.629202 1_555
Ca26 O32 2.650660 1_555
Ca27 O79 2.329748 1_555
Ca27 O21 2.382397 1_555
Ca27 O71 2.444605 1_555
Ca27 O43 2.493354 1_555
Ca27 O13 2.533411 1_555
Ca27 O49 2.608759 1_555
Ca27 O33 2.683227 1_555
Ca27 O27 2.702926 1_555
Mn0 O34 1.921803 1_555
Mn0 O46 1.952555 1_565
Mn0 O52 1.952613 1_655
Mn0 O60 1.952620 1_655
Mn0 O36 1.980770 1_665
Mn1 O61 1.910165 1_655
Mn1 O35 1.911616 1_555
Mn1 O53 1.913974 1_655
Mn1 O47 1.931240 1_565
Mn1 O37 2.040417 1_665
Mn1 O69 2.046715 1_565
Mn2 O70 1.891132 1_555
Mn2 O58 1.905814 1_555
Mn2 O50 1.930199 1_655
Mn2 O48 1.936574 1_555
Mn2 O32 1.941239 1_555
Mn2 O38 1.954663 1_655
Mn3 O71 1.945188 1_455
Mn3 O59 1.953320 1_555
Mn3 O49 1.959822 1_455
Mn3 O51 1.960276 1_555
Mn3 O33 1.974771 1_455
Mn3 O39 2.069171 1_555
Mn4 O54 1.920745 1_555
Mn4 O67 1.941006 1_555
Mn4 O62 1.962523 1_555
Mn4 O42 1.972019 1_555
Mn4 O28 1.976938 1_555
Mn4 O45 1.998775 1_555
Mn5 O68 1.906755 1_555
Mn5 O43 1.938230 1_555
Mn5 O63 1.941645 1_555
Mn5 O29 1.953767 1_555
Mn5 O55 1.954510 1_555
Mn6 O37 1.925458 1_554
Mn6 O44 1.950557 1_554
Mn6 O30 2.040439 1_545
Mn6 O52 2.045077 1_545
Mn6 O83 2.065824 1_544
Mn6 O72 2.697908 1_555
Mn7 O75 1.918493 1_555
Mn7 O51 1.926992 1_555
Mn7 O29 1.937106 1_555
Mn7 O38 1.942779 1_555
Mn7 O45 1.964624 1_555
Mn7 O80 2.176329 1_555
Mn8 O47 1.922447 1_565
Mn8 O87 1.923508 1_555
Mn8 O56 1.930369 1_556
Mn8 O41 1.934605 1_565
Mn8 O76 1.953123 1_566
Mn8 O34 1.970392 1_556
Mn9 O57 1.898706 1_555
Mn9 O86 1.955357 1_555
Mn9 O46 1.988654 1_565
Mn9 O77 2.015629 1_565
Mn9 O35 2.036180 1_555
Mn9 O40 2.527588 1_565
Mn10 O32 1.937530 1_555
Mn10 O78 1.942205 1_555
Mn10 O54 1.950206 1_555
Mn10 O43 1.971419 1_554
Mn10 O49 2.004990 1_554
Mn10 O85 2.028792 1_554
Mn11 O55 1.881259 1_555
Mn11 O79 1.938398 1_555
Mn11 O84 1.952282 1_555
Mn11 O42 1.975758 1_555
Mn11 O48 1.991498 1_555
Mn11 O33 2.010701 1_555
Mn12 O83 1.887546 1_555
Mn12 O17 1.944929 1_555
Mn12 O74 1.949695 1_556
Mn12 O9 1.957247 1_555
Mn12 O0 1.984492 1_556
Mn13 O16 1.939312 1_555
Mn13 O23 1.944747 1_555
Mn13 O82 1.965147 1_555
Mn13 O8 1.967940 1_555
Mn13 O1 1.978297 1_555
Mn13 O75 2.019133 1_555
Mn14 O76 1.913622 1_555
Mn14 O11 1.950458 1_554
Mn14 O85 1.953849 1_554
Mn14 O19 1.994091 1_554
Mn14 O24 2.060605 1_555
Mn14 O2 2.515786 1_555
Mn15 O10 1.892238 1_555
Mn15 O18 1.903816 1_555
Mn15 O77 1.936884 1_555
Mn15 O3 1.943546 1_555
Mn15 O25 1.954552 1_555
Mn15 O84 1.992962 1_555
Mn16 O78 1.927581 1_556
Mn16 O87 1.938176 1_555
Mn16 O26 1.951476 1_556
Mn16 O13 1.957777 1_555
Mn16 O21 1.978333 1_555
Mn16 O4 2.019328 1_556
Mn17 O20 1.897680 1_555
Mn17 O79 1.933341 1_555
Mn17 O27 1.952424 1_555
Mn17 O12 1.970222 1_555
Mn17 O86 1.995326 1_555
Mn17 O5 1.995604 1_555
Mn18 O11 1.866092 1_555
Mn18 O15 1.894360 1_655
Mn18 O25 1.904277 1_555
Mn18 O69 1.907432 1_555
Mn18 O59 1.947103 1_655
Mn19 O60 1.872629 1_555
Mn19 O16 1.923180 1_555
Mn19 O70 1.954500 1_455
Mn19 O0 1.976876 1_555
Mn19 O12 1.978907 1_455
Mn19 O26 1.994275 1_455
Mn20 O17 1.905203 1_555
Mn20 O27 1.946003 1_455
Mn20 O61 1.964966 1_555
Mn20 O71 1.973219 1_455
Mn20 O13 1.981775 1_455
Mn20 O1 1.998409 1_555
Mn21 O66 1.909044 1_555
Mn21 O7 1.934194 1_555
Mn21 O22 1.941344 1_555
Mn21 O3 1.946779 1_555
Mn21 O19 1.997914 1_555
Mn21 O63 2.007790 1_555
Mn22 O64 1.909571 1_555
Mn22 O67 1.922059 1_555
Mn22 O20 1.937839 1_555
Mn22 O8 1.959272 1_555
Mn22 O4 1.983859 1_555
Mn23 O65 1.929512 1_555
Mn23 O21 1.946037 1_555
Mn23 O68 1.953801 1_555
Mn23 O5 1.957172 1_555
Mn23 O9 1.975156 1_555
Mn23 O23 1.978927 1_555
Al0 O40 1.749933 1_565
Al0 O56 1.759383 1_555
Al0 O64 1.769267 1_555
Al0 O30 1.770847 1_555
Al1 O57 1.918288 1_555
Al1 O65 1.923449 1_555
Al1 O31 1.935713 1_555
Al1 O66 1.951198 1_565
Al1 O44 1.971362 1_565
Al1 O41 1.981898 1_565
Al2 O53 1.774902 1_555
Al2 O31 1.850031 1_555
Al2 O82 1.902004 1_555
Al2 O36 1.912636 1_565
Al2 O73 2.028736 1_565
Al3 O50 1.787485 1_555
Al3 O39 1.865613 1_554
Al3 O28 1.867585 1_555
Al3 O74 1.906422 1_555
Al3 O81 2.032981 1_554
Al4 O72 1.723698 1_556
Al4 O7 1.777635 1_555
Al4 O81 1.778664 1_555
Al4 O15 1.785315 1_555
Al5 O6 1.823431 1_555
Al5 O73 1.837675 1_555
Al5 O80 1.852607 1_555
Al5 O22 1.863723 1_555
Al5 O14 2.338688 1_555
Al6 O10 1.744902 1_555
Al6 O58 1.750104 1_555
Al6 O14 1.773854 1_655
Al6 O24 1.778195 1_555
Al7 O18 1.743041 1_555
Al7 O2 1.748355 1_555
Al7 O62 1.769821 1_555
Al7 O6 1.779379 1_555
O2 Sr1 2.494126 1_555
O6 Sr3 2.514580 1_555
O6 Sr2 3.076354 1_555
O7 Sr1 2.707441 1_556
O10 Sr0 2.416808 1_655
O14 Sr3 2.394023 1_555
O14 Sr2 2.689429 1_555
O14 Sr0 2.820471 1_555
O28 Sr2 2.545864 1_555
O28 Sr1 2.642800 1_555
O30 Sr3 2.430302 1_565
O36 Sr3 2.431048 1_555
O36 Sr0 2.632082 1_555
O38 Sr2 2.602066 1_555
O45 Sr2 3.066408 1_555
O46 Sr0 2.428357 1_655
O50 Sr2 2.639946 1_555
O52 Sr3 2.888365 1_565
O53 Sr0 2.691172 1_565
O54 Sr1 2.467194 1_555
O58 Sr2 2.624084 1_655
O62 Sr2 2.919257 1_555
O63 Sr1 2.435918 1_556
O69 Sr0 2.411972 1_655
O72 Sr3 2.353015 1_555
O73 Sr0 2.611222 1_555
O73 Sr3 2.850085 1_555
O77 Sr0 2.908898 1_655
O80 Sr2 2.477576 1_555
O81 Sr1 2.707503 1_556
O81 Sr2 2.879794 1_556
O85 Sr1 2.730921 1_556
