# generated using pymatgen
data_HoB4Mo
_symmetry_space_group_name_H-M   'P 1'
_cell_length_a   3.61643700
_cell_length_b   6.02060900
_cell_length_c   11.63467200
_cell_angle_alpha   90.00000000
_cell_angle_beta   90.00000000
_cell_angle_gamma   90.00000000
_symmetry_Int_Tables_number   1
_chemical_formula_structural   HoB4Mo
_chemical_formula_sum   'Ho4 B16 Mo4'
_cell_volume   253.32349531
_cell_formula_units_Z   4
loop_
 _symmetry_equiv_pos_site_id
 _symmetry_equiv_pos_as_xyz
  1  'x, y, z'
loop_
 _atom_site_type_symbol
 _atom_site_label
 _atom_site_symmetry_multiplicity
 _atom_site_fract_x
 _atom_site_fract_y
 _atom_site_fract_z
 _atom_site_occupancy
  Ho  Ho0  1  0.00000000  0.62686100  0.35013000  1
  Ho  Ho1  1  0.00000000  0.37313900  0.64987000  1
  Ho  Ho2  1  0.00000000  0.12686100  0.14987000  1
  Ho  Ho3  1  0.00000000  0.87313900  0.85013000  1
  B  B0  1  0.50000000  0.78686500  0.18650100  1
  B  B1  1  0.50000000  0.21313500  0.81349900  1
  B  B2  1  0.50000000  0.28686500  0.31349900  1
  B  B3  1  0.50000000  0.71313500  0.68650100  1
  B  B4  1  0.50000000  0.86707100  0.03213300  1
  B  B5  1  0.50000000  0.13292900  0.96786700  1
  B  B6  1  0.50000000  0.36707100  0.46786700  1
  B  B7  1  0.50000000  0.63292900  0.53213300  1
  B  B8  1  0.50000000  0.88544700  0.45249800  1
  B  B9  1  0.50000000  0.11455300  0.54750200  1
  B  B10  1  0.50000000  0.38544700  0.04750200  1
  B  B11  1  0.50000000  0.61455300  0.95249800  1
  B  B12  1  0.50000000  0.97589000  0.30638200  1
  B  B13  1  0.50000000  0.02411000  0.69361800  1
  B  B14  1  0.50000000  0.47589000  0.19361800  1
  B  B15  1  0.50000000  0.52411000  0.80638200  1
  Mo  Mo0  1  0.00000000  0.62986200  0.08366400  1
  Mo  Mo1  1  0.00000000  0.37013800  0.91633600  1
  Mo  Mo2  1  0.00000000  0.12986200  0.41633600  1
  Mo  Mo3  1  0.00000000  0.87013800  0.58366400  1
loop_
_geom_bond_atom_site_label_1
_geom_bond_atom_site_label_2
_geom_bond_distance
_geom_bond_site_symmetry_2
Ho0 Mo3 3.086723 1_555
Ho0 Mo2 3.089793 1_555
Ho0 Mo0 3.100297 1_555
Ho0 Mo2 3.124801 1_565
Ho1 Mo2 3.086723 1_555
Ho1 Mo3 3.089793 1_555
Ho1 Mo1 3.100297 1_555
Ho1 Mo3 3.124801 1_545
Ho2 Mo1 3.086723 1_554
Ho2 Mo0 3.089793 1_545
Ho2 Mo2 3.100297 1_555
Ho2 Mo0 3.124801 1_555
Ho3 Mo0 3.086723 1_556
Ho3 Mo1 3.089793 1_565
Ho3 Mo3 3.100297 1_555
Ho3 Mo1 3.124801 1_555
B0 B12 1.800152 1_555
B0 B4 1.859805 1_555
B0 B14 1.874089 1_555
B0 Mo0 2.365314 1_555
B0 Mo0 2.365314 1_655
B0 Ho2 2.764314 1_565
B0 Ho2 2.764314 1_665
B0 Ho0 2.796781 1_655
B0 Ho0 2.796781 1_555
B1 B13 1.800152 1_555
B1 B5 1.859805 1_555
B1 B15 1.874089 1_555
B1 Mo1 2.365314 1_655
B1 Mo1 2.365314 1_555
B1 Ho3 2.764314 1_645
B1 Ho3 2.764314 1_545
B1 Ho1 2.796781 1_555
B1 Ho1 2.796781 1_655
B2 B6 1.859805 1_555
B2 Mo2 2.365314 1_555
B2 Mo2 2.365314 1_655
B2 Ho0 2.764314 1_655
B2 Ho0 2.764314 1_555
B2 Ho2 2.796781 1_555
B2 Ho2 2.796781 1_655
B3 B7 1.859805 1_555
B3 Mo3 2.365314 1_555
B3 Mo3 2.365314 1_655
B3 Ho1 2.764314 1_655
B3 Ho1 2.764314 1_555
B3 Ho3 2.796781 1_655
B3 Ho3 2.796781 1_555
B4 B5 1.766659 1_564
B4 Mo0 2.380903 1_655
B4 Mo0 2.380903 1_555
B4 Ho2 2.755446 1_665
B4 Ho2 2.755446 1_565
B4 Ho3 2.784778 1_554
B4 Ho3 2.784778 1_654
B5 Mo1 2.380903 1_655
B5 Mo1 2.380903 1_555
B5 Ho3 2.755446 1_645
B5 Ho3 2.755446 1_545
B5 Ho2 2.784778 1_656
B5 Ho2 2.784778 1_556
B6 B7 1.766659 1_555
B6 B9 1.780394 1_555
B6 Mo2 2.380903 1_655
B6 Mo2 2.380903 1_555
B6 Ho0 2.755446 1_555
B6 Ho0 2.755446 1_655
B6 Ho1 2.784778 1_555
B6 Ho1 2.784778 1_655
B7 B8 1.780394 1_555
B7 Mo3 2.380903 1_655
B7 Mo3 2.380903 1_555
B7 Ho1 2.755446 1_555
B7 Ho1 2.755446 1_655
B7 Ho0 2.784778 1_655
B7 Ho0 2.784778 1_555
B8 B9 1.767599 1_565
B8 Mo3 2.367921 1_555
B8 Mo3 2.367921 1_655
B8 Mo2 2.368979 1_665
B8 Mo2 2.368979 1_565
B8 Ho0 2.666823 1_555
B8 Ho0 2.666823 1_655
B9 Mo2 2.367921 1_555
B9 Mo2 2.367921 1_655
B9 Mo3 2.368979 1_545
B9 Mo3 2.368979 1_645
B9 Ho1 2.666823 1_655
B9 Ho1 2.666823 1_555
B10 B11 1.767599 1_554
B10 B5 1.780394 1_554
B10 B14 1.785089 1_555
B10 Mo1 2.367921 1_554
B10 Mo1 2.367921 1_654
B10 Mo0 2.368979 1_555
B10 Mo0 2.368979 1_655
B10 Ho2 2.666823 1_555
B10 Ho2 2.666823 1_655
B11 B4 1.780394 1_556
B11 B15 1.785089 1_555
B11 Mo0 2.367921 1_556
B11 Mo0 2.367921 1_656
B11 Mo1 2.368979 1_655
B11 Mo1 2.368979 1_555
B11 Ho3 2.666823 1_655
B11 Ho3 2.666823 1_555
B12 B8 1.785089 1_555
B12 B2 1.874089 1_565
B12 Mo2 2.401155 1_565
B12 Mo2 2.401155 1_665
B12 Ho2 2.722451 1_565
B12 Ho2 2.722451 1_665
B12 Ho0 2.818594 1_655
B12 Ho0 2.818594 1_555
B13 B9 1.785089 1_555
B13 B3 1.874089 1_545
B13 Mo3 2.401155 1_545
B13 Mo3 2.401155 1_645
B13 Ho3 2.722451 1_545
B13 Ho3 2.722451 1_645
B13 Ho1 2.818594 1_655
B13 Ho1 2.818594 1_555
B14 B2 1.800152 1_555
B14 Mo0 2.401155 1_555
B14 Mo0 2.401155 1_655
B14 Ho0 2.722451 1_655
B14 Ho0 2.722451 1_555
B14 Ho2 2.818594 1_555
B14 Ho2 2.818594 1_655
B15 B3 1.800152 1_555
B15 Mo1 2.401155 1_555
B15 Mo1 2.401155 1_655
B15 Ho1 2.722451 1_555
B15 Ho1 2.722451 1_655
B15 Ho3 2.818594 1_655
B15 Ho3 2.818594 1_555
Mo0 Mo1 2.497039 1_554
Mo2 Mo3 2.497039 1_545
