# generated using pymatgen
data_Cr4(CuO4)3
_symmetry_space_group_name_H-M   'P 1'
_cell_length_a   6.31092804
_cell_length_b   6.31092804
_cell_length_c   6.31092804
_cell_angle_alpha   109.47122063
_cell_angle_beta   109.47122063
_cell_angle_gamma   109.47122063
_symmetry_Int_Tables_number   1
_chemical_formula_structural   Cr4(CuO4)3
_chemical_formula_sum   'Cr4 Cu3 O12'
_cell_volume   193.48967397
_cell_formula_units_Z   1
loop_
 _symmetry_equiv_pos_site_id
 _symmetry_equiv_pos_as_xyz
  1  'x, y, z'
loop_
 _atom_site_type_symbol
 _atom_site_label
 _atom_site_symmetry_multiplicity
 _atom_site_fract_x
 _atom_site_fract_y
 _atom_site_fract_z
 _atom_site_occupancy
  Cr  Cr0  1  0.00000000  0.50000000  0.00000000  1
  Cr  Cr1  1  0.50000000  0.00000000  0.00000000  1
  Cr  Cr2  1  0.50000000  0.50000000  0.50000000  1
  Cr  Cr3  1  0.00000000  0.00000000  0.50000000  1
  Cu  Cu0  1  0.50000000  0.00000000  0.50000000  1
  Cu  Cu1  1  0.50000000  0.50000000  0.00000000  1
  Cu  Cu2  1  0.00000000  0.50000000  0.50000000  1
  O  O0  1  0.31685300  0.14072000  0.82386800  1
  O  O1  1  0.68314700  0.85928000  0.17613200  1
  O  O2  1  0.68314700  0.50701500  0.82386800  1
  O  O3  1  0.49298500  0.17613200  0.31685300  1
  O  O4  1  0.17613200  0.31685300  0.49298500  1
  O  O5  1  0.82386800  0.31685300  0.14072000  1
  O  O6  1  0.85928000  0.17613200  0.68314700  1
  O  O7  1  0.82386800  0.68314700  0.50701500  1
  O  O8  1  0.31685300  0.49298500  0.17613200  1
  O  O9  1  0.50701500  0.82386800  0.68314700  1
  O  O10  1  0.17613200  0.68314700  0.85928000  1
  O  O11  1  0.14072000  0.82386800  0.31685300  1
loop_
_geom_bond_atom_site_label_1
_geom_bond_atom_site_label_2
_geom_bond_distance
_geom_bond_site_symmetry_2
Cr0 O10 1.961138 1_554
Cr0 O5 1.961138 1_455
Cr0 O2 1.961143 1_454
Cr0 O8 1.961143 1_555
Cr0 O11 1.961144 1_555
Cr0 O6 1.961144 1_454
Cr1 O1 1.961138 1_545
Cr1 O0 1.961138 1_554
Cr1 O9 1.961143 1_544
Cr1 O3 1.961143 1_555
Cr1 O5 1.961144 1_555
Cr1 O10 1.961144 1_544
Cr2 O2 1.961143 1_555
Cr2 O9 1.961143 1_555
Cr2 O7 1.961143 1_555
Cr2 O3 1.961143 1_555
Cr2 O4 1.961143 1_555
Cr2 O8 1.961143 1_555
Cr3 O6 1.961138 1_455
Cr3 O11 1.961138 1_545
Cr3 O7 1.961143 1_445
Cr3 O4 1.961143 1_555
Cr3 O0 1.961144 1_555
Cr3 O1 1.961144 1_445
Cu0 O3 1.851664 1_555
Cu0 O9 1.851664 1_545
Cu0 O11 1.851669 1_545
Cu0 O6 1.851669 1_555
Cu1 O8 1.851664 1_555
Cu1 O2 1.851664 1_554
Cu1 O0 1.851669 1_554
Cu1 O1 1.851669 1_555
Cu2 O4 1.851664 1_555
Cu2 O7 1.851664 1_455
Cu2 O5 1.851669 1_455
Cu2 O10 1.851669 1_555
