# generated using pymatgen
data_Be12Mo
_symmetry_space_group_name_H-M   'P 1'
_cell_length_a   4.20334580
_cell_length_b   5.51841255
_cell_length_c   5.51841541
_cell_angle_alpha   81.67059656
_cell_angle_beta   67.60452422
_cell_angle_gamma   67.60454740
_symmetry_Int_Tables_number   1
_chemical_formula_structural   Be12Mo
_chemical_formula_sum   'Be12 Mo1'
_cell_volume   109.42311317
_cell_formula_units_Z   1
loop_
 _symmetry_equiv_pos_site_id
 _symmetry_equiv_pos_as_xyz
  1  'x, y, z'
loop_
 _atom_site_type_symbol
 _atom_site_label
 _atom_site_symmetry_multiplicity
 _atom_site_fract_x
 _atom_site_fract_y
 _atom_site_fract_z
 _atom_site_occupancy
  Be  Be0  1  0.50000000  0.00000000  0.50000000  1
  Be  Be1  1  -0.00000000  0.50000000  -0.00000000  1
  Be  Be2  1  0.50000000  0.50000000  -0.00000000  1
  Be  Be3  1  -0.00000000  0.00000000  0.50000000  1
  Be  Be4  1  0.34850653  0.64955416  0.64955416  1
  Be  Be5  1  1.00000000  0.35014725  0.64985275  1
  Be  Be6  1  0.00000000  0.64985275  0.35014725  1
  Be  Be7  1  0.65149347  0.35044584  0.35044584  1
  Be  Be8  1  0.28870439  0.21188145  0.21188145  1
  Be  Be9  1  0.50000000  0.79013613  0.20986387  1
  Be  Be10  1  0.50000000  0.20986387  0.79013613  1
  Be  Be11  1  0.71129561  0.78811855  0.78811855  1
  Mo  Mo0  1  -0.00000000  0.00000000  -0.00000000  1
loop_
_geom_bond_atom_site_label_1
_geom_bond_atom_site_label_2
_geom_bond_distance
_geom_bond_site_symmetry_2
Be0 Be3 2.101673 1_655
Be0 Be3 2.101673 1_555
Be0 Be8 2.104761 1_555
Be0 Be11 2.104761 1_545
Be0 Be9 2.107594 1_545
Be0 Be10 2.107594 1_555
Be0 Be5 2.208772 1_455
Be0 Be6 2.208772 1_645
Be0 Be7 2.214068 1_555
Be0 Be4 2.214068 1_545
Be0 Mo0 2.758892 1_556
Be0 Mo0 2.758892 1_655
Be1 Be2 2.101673 1_555
Be1 Be2 2.101673 1_455
Be1 Be8 2.107155 1_555
Be1 Be11 2.107155 1_454
Be1 Be9 2.107182 1_455
Be1 Be10 2.107182 1_554
Be1 Be7 2.206158 1_455
Be1 Be4 2.206158 1_554
Be1 Be5 2.209166 1_454
Be1 Be6 2.209166 1_555
Be1 Mo0 2.759206 1_565
Be1 Mo0 2.759206 1_555
Be2 Be8 2.104760 1_555
Be2 Be9 2.107594 1_555
Be2 Be6 2.208773 1_555
Be2 Be5 2.208773 1_554
Be2 Be7 2.214069 1_555
Be2 Be4 2.214069 1_554
Be2 Mo0 2.758892 1_655
Be2 Mo0 2.758892 1_565
Be3 Be8 2.107155 1_555
Be3 Be9 2.107182 1_545
Be3 Be7 2.206159 1_455
Be3 Be4 2.206159 1_545
Be3 Be6 2.209166 1_545
Be3 Be5 2.209166 1_455
Be3 Mo0 2.759208 1_555
Be3 Mo0 2.759208 1_556
Be4 Be7 2.157929 1_555
Be4 Be9 2.355512 1_555
Be4 Mo0 2.528253 1_566
Be5 Be6 2.162926 1_655
Be5 Be8 2.343095 1_655
Be5 Mo0 2.526955 1_656
Be6 Be9 2.332806 1_555
Be6 Be9 2.332807 1_455
Be6 Be8 2.343094 1_555
Be6 Mo0 2.526955 1_565
Be7 Be8 2.321958 1_655
Be7 Be8 2.332648 1_555
Be7 Be9 2.355511 1_555
Be7 Mo0 2.528253 1_655
Be8 Be9 2.151849 1_545
Be8 Mo0 2.596496 1_655
Be8 Mo0 2.601046 1_555
Be9 Mo0 2.590540 1_665
Be9 Mo0 2.590541 1_565
Be10 Be3 2.107182 1_655
Be10 Be2 2.107594 1_556
Be10 Be11 2.151849 1_545
Be10 Be8 2.151850 1_556
Be10 Be5 2.332806 1_555
Be10 Be5 2.332807 1_455
Be10 Be4 2.355511 1_555
Be10 Be7 2.355512 1_555
Be10 Mo0 2.590540 1_556
Be10 Mo0 2.590541 1_656
Be11 Be2 2.104760 1_556
Be11 Be3 2.107155 1_665
Be11 Be9 2.151850 1_556
Be11 Be4 2.321958 1_655
Be11 Be4 2.332648 1_555
Be11 Be5 2.343094 1_555
Be11 Be6 2.343095 1_655
Be11 Mo0 2.596496 1_566
Be11 Mo0 2.601046 1_666
