# generated using pymatgen
data_TiCrAgS4
_symmetry_space_group_name_H-M   'P 1'
_cell_length_a   6.47634200
_cell_length_b   7.66488099
_cell_length_c   12.78363239
_cell_angle_alpha   98.41332985
_cell_angle_beta   95.18606400
_cell_angle_gamma   90.32325510
_symmetry_Int_Tables_number   1
_chemical_formula_structural   TiCrAgS4
_chemical_formula_sum   'Ti4 Cr4 Ag4 S16'
_cell_volume   625.07088556
_cell_formula_units_Z   4
loop_
 _symmetry_equiv_pos_site_id
 _symmetry_equiv_pos_as_xyz
  1  'x, y, z'
loop_
 _atom_site_type_symbol
 _atom_site_label
 _atom_site_symmetry_multiplicity
 _atom_site_fract_x
 _atom_site_fract_y
 _atom_site_fract_z
 _atom_site_occupancy
  Ti  Ti0  1  0.85140000  0.29667200  0.70870500  1
  Ti  Ti1  1  0.14860000  0.70332800  0.29129500  1
  Ti  Ti2  1  0.76327000  0.09860000  0.00056000  1
  Ti  Ti3  1  0.23673000  0.90140000  0.99944000  1
  Cr  Cr0  1  0.63406000  0.44473000  0.28350300  1
  Cr  Cr1  1  0.36594000  0.55527000  0.71649700  1
  Cr  Cr2  1  0.63387200  0.94691300  0.29301500  1
  Cr  Cr3  1  0.36612800  0.05308700  0.70698500  1
  Ag  Ag0  1  0.88684600  0.81030700  0.69201500  1
  Ag  Ag1  1  0.11315400  0.18969300  0.30798500  1
  Ag  Ag2  1  0.74695400  0.63170100  0.99974100  1
  Ag  Ag3  1  0.25304600  0.36829900  0.00025900  1
  S  S0  1  0.86636900  0.32172100  0.88724200  1
  S  S1  1  0.13363100  0.67827900  0.11275800  1
  S  S2  1  0.91247500  0.86175000  0.89609000  1
  S  S3  1  0.08752500  0.13825000  0.10391000  1
  S  S4  1  0.75466200  0.21961800  0.35827500  1
  S  S5  1  0.24533800  0.78038200  0.64172500  1
  S  S6  1  0.80899800  0.70596600  0.34580300  1
  S  S7  1  0.19100200  0.29403400  0.65419700  1
  S  S8  1  0.66946700  0.05078800  0.62837900  1
  S  S9  1  0.33053300  0.94921200  0.37162100  1
  S  S10  1  0.67493900  0.52747000  0.64887400  1
  S  S11  1  0.32506100  0.47253000  0.35112600  1
  S  S12  1  0.57917000  0.93427300  0.11183500  1
  S  S13  1  0.42083000  0.06572700  0.88816500  1
  S  S14  1  0.63091500  0.38489700  0.11014300  1
  S  S15  1  0.36908500  0.61510300  0.88985700  1
loop_
_geom_bond_atom_site_label_1
_geom_bond_atom_site_label_2
_geom_bond_distance
_geom_bond_site_symmetry_2
Cr0 S14 2.194646 1_555
Cr0 S4 2.205399 1_555
Cr0 S11 2.249688 1_555
Cr0 S6 2.296059 1_555
Cr1 S15 2.194646 1_555
Cr1 S5 2.205399 1_555
Cr1 S10 2.249688 1_555
Cr1 S7 2.296059 1_555
Cr2 S4 2.242851 1_565
Cr2 S9 2.285066 1_555
Cr2 S12 2.298913 1_555
Cr2 S6 2.324325 1_555
Cr3 S5 2.242851 1_545
Cr3 S8 2.285066 1_555
Cr3 S13 2.298913 1_555
Cr3 S7 2.324325 1_555
Ag0 S5 2.467586 1_655
Ag0 S8 2.510452 1_565
Ag0 S10 2.523324 1_555
Ag0 S2 2.570784 1_555
Ag1 S4 2.467586 1_455
Ag1 S9 2.510452 1_545
Ag1 S11 2.523324 1_555
Ag1 S3 2.570784 1_555
Ag2 S2 2.633100 1_555
Ag2 S14 2.663124 1_556
Ag2 S15 2.702032 1_555
Ag2 S0 2.744715 1_555
Ag2 S1 2.769656 1_656
Ag2 S12 2.819607 1_556
Ag3 S3 2.633100 1_555
Ag3 S15 2.663124 1_554
Ag3 S14 2.702032 1_555
Ag3 S1 2.744715 1_555
Ag3 S0 2.769656 1_454
Ag3 S13 2.819607 1_554
S0 Ti0 2.255427 1_555
S0 Ti2 2.521115 1_556
S1 Ti1 2.255427 1_555
S1 Ti3 2.521115 1_554
S2 Ti2 2.357267 1_566
S2 Ti3 2.370986 1_655
S3 Ti3 2.357267 1_544
S3 Ti2 2.370986 1_455
S6 Ti1 2.365725 1_655
S7 Ti0 2.365725 1_455
S8 Ti0 2.276976 1_555
S9 Ti1 2.276976 1_555
S10 Ti0 2.298104 1_555
S11 Ti1 2.298104 1_555
S12 Ti2 2.417745 1_565
S12 Ti3 2.521523 1_554
S13 Ti3 2.417745 1_545
S13 Ti2 2.521523 1_556
S14 Ti2 2.617529 1_555
S15 Ti3 2.617529 1_555
