# generated using pymatgen
data_Co2O3F
_symmetry_space_group_name_H-M   'P 1'
_cell_length_a   4.44660969
_cell_length_b   4.44659193
_cell_length_c   12.02556900
_cell_angle_alpha   89.99964875
_cell_angle_beta   90.00041296
_cell_angle_gamma   93.62793358
_symmetry_Int_Tables_number   1
_chemical_formula_structural   Co2O3F
_chemical_formula_sum   'Co8 O12 F4'
_cell_volume   237.29616482
_cell_formula_units_Z   4
loop_
 _symmetry_equiv_pos_site_id
 _symmetry_equiv_pos_as_xyz
  1  'x, y, z'
loop_
 _atom_site_type_symbol
 _atom_site_label
 _atom_site_symmetry_multiplicity
 _atom_site_fract_x
 _atom_site_fract_y
 _atom_site_fract_z
 _atom_site_occupancy
  Co  Co0  1  0.53593700  0.46405800  0.37316300  1
  Co  Co1  1  0.46416100  0.53584200  0.87313800  1
  Co  Co2  1  0.99320800  0.00679300  0.00030000  1
  Co  Co3  1  0.00685500  0.99314300  0.50029700  1
  Co  Co4  1  0.99693800  0.00306100  0.25138200  1
  Co  Co5  1  0.00313300  0.99687000  0.75138100  1
  Co  Co6  1  0.52643400  0.47356700  0.12462400  1
  Co  Co7  1  0.47355400  0.52644500  0.62462200  1
  O  O0  1  0.19614400  0.80385300  0.62374900  1
  O  O1  1  0.18012300  0.81987000  0.87994500  1
  O  O2  1  0.80380800  0.19619400  0.12374600  1
  O  O3  1  0.81997900  0.18003000  0.37999200  1
  O  O4  1  0.29971100  0.29266400  0.00384200  1
  O  O5  1  0.29262500  0.29974900  0.50385400  1
  O  O6  1  0.70733400  0.70029300  0.00384200  1
  O  O7  1  0.70024800  0.70737800  0.50385400  1
  O  O8  1  0.31985500  0.28599900  0.24479000  1
  O  O9  1  0.28594600  0.31989600  0.74477000  1
  O  O10  1  0.71400000  0.68014800  0.24479000  1
  O  O11  1  0.68009900  0.71405800  0.74476900  1
  F  F0  1  0.22373100  0.77626800  0.12582400  1
  F  F1  1  0.21814700  0.78184900  0.37376900  1
  F  F2  1  0.77612800  0.22387400  0.62579700  1
  F  F3  1  0.78190200  0.21809900  0.87375700  1
loop_
_geom_bond_atom_site_label_1
_geom_bond_atom_site_label_2
_geom_bond_distance
_geom_bond_site_symmetry_2
Co0 O3 1.843611 1_555
Co0 O8 1.958822 1_555
Co0 O10 1.958846 1_555
Co0 O5 2.018500 1_555
Co0 O7 2.018518 1_555
Co0 F1 2.060677 1_555
Co1 O1 1.843588 1_555
Co1 O11 1.958750 1_555
Co1 O9 1.958754 1_555
Co1 O6 2.018507 1_556
Co1 O4 2.018517 1_556
Co1 F3 2.060363 1_555
Co2 O6 1.804406 1_545
Co2 O4 1.804407 1_655
Co2 O1 1.887824 1_644
Co2 O2 1.926687 1_555
Co2 F3 2.047703 1_554
Co2 F0 2.124373 1_645
Co3 O7 1.804431 1_455
Co3 O5 1.804442 1_565
Co3 O3 1.887189 1_465
Co3 O0 1.926267 1_555
Co3 F1 2.047531 1_555
Co3 F2 2.125123 1_465
Co4 O10 1.849924 1_545
Co4 O8 1.849939 1_655
Co4 O3 1.925819 1_555
Co4 O2 1.980961 1_555
Co4 F1 2.055140 1_645
Co4 F0 2.107733 1_645
Co5 O9 1.849952 1_565
Co5 O11 1.849977 1_455
Co5 O1 1.925477 1_555
Co5 O0 1.980459 1_555
Co5 F3 2.055152 1_465
Co5 F2 2.108894 1_465
Co6 O2 1.798618 1_555
Co6 O10 1.879004 1_555
Co6 O8 1.879005 1_555
Co6 O4 1.915846 1_555
Co6 O6 1.915848 1_555
Co6 F0 1.962879 1_555
Co7 O0 1.798847 1_555
Co7 O11 1.878840 1_555
Co7 O9 1.878850 1_555
Co7 O5 1.915704 1_555
Co7 O7 1.915709 1_555
Co7 F2 1.962036 1_555
