# generated using pymatgen
data_Ba2PrSnO6
_symmetry_space_group_name_H-M   'P 1'
_cell_length_a   6.21893913
_cell_length_b   6.21893913
_cell_length_c   6.21893922
_cell_angle_alpha   60.06341125
_cell_angle_beta   60.06341125
_cell_angle_gamma   60.06340283
_symmetry_Int_Tables_number   1
_chemical_formula_structural   Ba2PrSnO6
_chemical_formula_sum   'Ba2 Pr1 Sn1 O6'
_cell_volume   170.31683698
_cell_formula_units_Z   1
loop_
 _symmetry_equiv_pos_site_id
 _symmetry_equiv_pos_as_xyz
  1  'x, y, z'
loop_
 _atom_site_type_symbol
 _atom_site_label
 _atom_site_symmetry_multiplicity
 _atom_site_fract_x
 _atom_site_fract_y
 _atom_site_fract_z
 _atom_site_occupancy
  Ba  Ba0  1  0.75003200  0.75003200  0.75003200  1
  Ba  Ba1  1  0.24996800  0.24996800  0.24996800  1
  Pr  Pr0  1  0.50000000  0.50000000  0.50000000  1
  Sn  Sn0  1  0.00000000  0.00000000  0.00000000  1
  O  O0  1  0.26130800  0.20961300  0.76472900  1
  O  O1  1  0.20961300  0.76472900  0.26130800  1
  O  O2  1  0.76472900  0.26130800  0.20961300  1
  O  O3  1  0.73869200  0.79038700  0.23527100  1
  O  O4  1  0.79038700  0.23527100  0.73869200  1
  O  O5  1  0.23527100  0.73869200  0.79038700  1
loop_
_geom_bond_atom_site_label_1
_geom_bond_atom_site_label_2
_geom_bond_distance
_geom_bond_site_symmetry_2
Ba0 O0 2.954335 1_565
Ba0 O2 2.954335 1_556
Ba0 O1 2.954335 1_655
Ba0 O5 3.114500 1_655
Ba0 O4 3.114500 1_565
Ba0 O3 3.114500 1_556
Ba0 O4 3.117991 1_555
Ba0 O5 3.117991 1_555
Ba0 O3 3.117991 1_555
Ba0 O0 3.275857 1_655
Ba0 O1 3.275858 1_556
Ba0 O2 3.275858 1_565
Ba1 O3 2.954335 1_545
Ba1 O5 2.954335 1_554
Ba1 O4 2.954335 1_455
Ba1 O2 3.114500 1_455
Ba1 O1 3.114500 1_545
Ba1 O0 3.114500 1_554
Ba1 O1 3.117991 1_555
Ba1 O2 3.117991 1_555
Ba1 O0 3.117991 1_555
Ba1 O3 3.275857 1_455
Ba1 O4 3.275858 1_554
Ba1 O5 3.275858 1_545
O0 Sn0 2.078083 1_556
O0 Pr0 2.333272 1_555
O1 Sn0 2.078083 1_565
O1 Pr0 2.333272 1_555
O2 Sn0 2.078083 1_655
O2 Pr0 2.333272 1_555
O3 Sn0 2.078083 1_665
O3 Pr0 2.333272 1_555
O4 Sn0 2.078083 1_656
O4 Pr0 2.333272 1_555
O5 Sn0 2.078083 1_566
O5 Pr0 2.333272 1_555
