# generated using pymatgen
data_Cs7LiAu5O2
_symmetry_space_group_name_H-M   'P 1'
_cell_length_a   6.39559515
_cell_length_b   9.72459161
_cell_length_c   10.54758375
_cell_angle_alpha   117.17328126
_cell_angle_beta   102.95620744
_cell_angle_gamma   89.19606860
_symmetry_Int_Tables_number   1
_chemical_formula_structural   Cs7LiAu5O2
_chemical_formula_sum   'Cs7 Li1 Au5 O2'
_cell_volume   565.77995935
_cell_formula_units_Z   1
loop_
 _symmetry_equiv_pos_site_id
 _symmetry_equiv_pos_as_xyz
  1  'x, y, z'
loop_
 _atom_site_type_symbol
 _atom_site_label
 _atom_site_symmetry_multiplicity
 _atom_site_fract_x
 _atom_site_fract_y
 _atom_site_fract_z
 _atom_site_occupancy
  Cs  Cs0  1  0.72199600  0.58093300  0.61343800  1
  Cs  Cs1  1  0.61403600  0.80885700  0.04377400  1
  Cs  Cs2  1  0.83975900  0.04831500  0.66270100  1
  Cs  Cs3  1  0.13260300  0.37322500  0.32078700  1
  Cs  Cs4  1  0.20598400  0.93914400  0.33557700  1
  Cs  Cs5  1  0.51056100  0.20664500  0.99227900  1
  Cs  Cs6  1  0.03260200  0.48927800  0.99636300  1
  Li  Li0  1  0.18034400  0.69915400  0.81962100  1
  Au  Au0  1  0.62671400  0.63547000  0.28167800  1
  Au  Au1  1  0.28477600  0.80716900  0.65198500  1
  Au  Au2  1  0.03537500  0.98510600  0.97957400  1
  Au  Au3  1  0.32757800  0.41126300  0.71660300  1
  Au  Au4  1  0.67462600  0.17376600  0.36128300  1
  O  O0  1  0.04916900  0.76952600  0.97206400  1
  O  O1  1  0.01387700  0.19714900  0.98977300  1
loop_
_geom_bond_atom_site_label_1
_geom_bond_atom_site_label_2
_geom_bond_distance
_geom_bond_site_symmetry_2
Cs0 Li0 3.097847 1_655
Cs0 O0 3.503206 1_655
Cs1 O0 3.018754 1_654
Cs2 O1 2.999700 1_655
Cs3 O1 3.014249 1_554
Cs4 O0 3.312583 1_554
Cs5 O1 3.173059 1_555
Cs5 O1 3.224718 1_655
Cs6 O1 2.813357 1_555
Cs6 O0 2.856993 1_555
Li0 O0 1.827908 1_555
Au0 Cs1 3.593827 1_555
Au0 Cs0 3.691515 1_555
Au0 Cs5 3.834474 1_554
Au0 Cs4 3.900525 1_555
Au0 Cs6 4.078192 1_554
Au0 Cs2 4.133663 1_565
Au0 Cs3 4.156062 1_655
Au0 Cs6 4.160284 1_654
Au0 Cs3 4.293226 1_555
Au1 Li0 2.630860 1_555
Au1 Cs0 3.513531 1_555
Au1 Cs4 4.022277 1_555
Au2 O1 2.019535 1_565
Au2 O0 2.062846 1_555
Au3 Li0 2.740730 1_555
Au3 Cs0 3.641037 1_555
Au4 Cs1 3.544052 1_545
Au4 Cs0 3.591253 1_555
Au4 Cs4 3.677657 1_545
Au4 Cs3 3.741807 1_655
Au4 Cs2 3.835618 1_555
Au4 Cs5 3.955706 1_554
Au4 Cs3 3.983193 1_555
Au4 Cs4 4.056917 1_645
