# generated using pymatgen
data_BaFe2Si2O7
_symmetry_space_group_name_H-M   'P 1'
_cell_length_a   14.01606100
_cell_length_b   7.20992300
_cell_length_c   7.60720775
_cell_angle_alpha   61.73702038
_cell_angle_beta   90.00000000
_cell_angle_gamma   90.00000000
_symmetry_Int_Tables_number   1
_chemical_formula_structural   BaFe2Si2O7
_chemical_formula_sum   'Ba4 Fe8 Si8 O28'
_cell_volume   677.09724742
_cell_formula_units_Z   4
loop_
 _symmetry_equiv_pos_site_id
 _symmetry_equiv_pos_as_xyz
  1  'x, y, z'
loop_
 _atom_site_type_symbol
 _atom_site_label
 _atom_site_symmetry_multiplicity
 _atom_site_fract_x
 _atom_site_fract_y
 _atom_site_fract_z
 _atom_site_occupancy
  Ba  Ba0  1  0.64328600  0.79402900  0.51063200  1
  Ba  Ba1  1  0.35671400  0.20597100  0.48936800  1
  Ba  Ba2  1  0.14328600  0.70597100  0.48936800  1
  Ba  Ba3  1  0.85671400  0.29402900  0.51063200  1
  Fe  Fe0  1  0.49834000  0.21170100  0.03778900  1
  Fe  Fe1  1  0.50166000  0.78829900  0.96221100  1
  Fe  Fe2  1  0.99834000  0.28829900  0.96221100  1
  Fe  Fe3  1  0.00166000  0.71170100  0.03778900  1
  Fe  Fe4  1  0.74403500  0.80629100  0.00211100  1
  Fe  Fe5  1  0.25596500  0.19370900  0.99788900  1
  Fe  Fe6  1  0.24403500  0.69370900  0.99788900  1
  Fe  Fe7  1  0.75596500  0.30629100  0.00211100  1
  Si  Si0  1  0.39072300  0.79831600  0.27672900  1
  Si  Si1  1  0.60927700  0.20168400  0.72327100  1
  Si  Si2  1  0.89072300  0.70168400  0.72327100  1
  Si  Si3  1  0.10927700  0.29831600  0.27672900  1
  Si  Si4  1  0.88337000  0.88649800  0.27653900  1
  Si  Si5  1  0.11663000  0.11350200  0.72346100  1
  Si  Si6  1  0.38337000  0.61350200  0.72346100  1
  Si  Si7  1  0.61663000  0.38649800  0.27653900  1
  O  O0  1  0.98359200  0.77403200  0.27457500  1
  O  O1  1  0.01640800  0.22596800  0.72542500  1
  O  O2  1  0.48359200  0.72596800  0.72542500  1
  O  O3  1  0.51640800  0.27403200  0.27457500  1
  O  O4  1  0.37162800  0.69889500  0.12430800  1
  O  O5  1  0.62837200  0.30110500  0.87569200  1
  O  O6  1  0.87162800  0.80110500  0.87569200  1
  O  O7  1  0.12837200  0.19889500  0.12430800  1
  O  O8  1  0.79029500  0.74870800  0.27302100  1
  O  O9  1  0.20970500  0.25129200  0.72697900  1
  O  O10  1  0.29029500  0.75129200  0.72697900  1
  O  O11  1  0.70970500  0.24870800  0.27302100  1
  O  O12  1  0.49987200  0.89217100  0.22741000  1
  O  O13  1  0.50012800  0.10782900  0.77259000  1
  O  O14  1  0.99987200  0.60782900  0.77259000  1
  O  O15  1  0.00012800  0.39217100  0.22741000  1
  O  O16  1  0.31176700  0.97471400  0.25738800  1
  O  O17  1  0.68823300  0.02528600  0.74261200  1
  O  O18  1  0.81176700  0.52528600  0.74261200  1
  O  O19  1  0.18823300  0.47471400  0.25738800  1
  O  O20  1  0.87853700  0.90172800  0.49123900  1
  O  O21  1  0.12146300  0.09827200  0.50876100  1
  O  O22  1  0.37853700  0.59827200  0.50876100  1
  O  O23  1  0.62146300  0.40172800  0.49123900  1
  O  O24  1  0.62361100  0.62786200  0.09172700  1
  O  O25  1  0.37638900  0.37213800  0.90827300  1
  O  O26  1  0.12361100  0.87213800  0.90827300  1
  O  O27  1  0.87638900  0.12786200  0.09172700  1
loop_
_geom_bond_atom_site_label_1
_geom_bond_atom_site_label_2
_geom_bond_distance
_geom_bond_site_symmetry_2
Ba0 O2 2.676047 1_555
Ba0 O12 2.781976 1_555
Ba0 O8 2.859895 1_555
Ba0 O23 2.917307 1_555
Ba0 O17 3.012925 1_565
Ba0 O18 3.034260 1_555
Ba0 O11 3.044468 1_565
Ba1 O3 2.676047 1_555
Ba1 O13 2.781976 1_555
Ba1 O9 2.859895 1_555
Ba1 O22 2.917307 1_555
Ba1 O16 3.012925 1_545
Ba1 O19 3.034260 1_555
Ba1 O10 3.044468 1_545
Ba2 O0 2.676047 1_455
Ba2 O14 2.781976 1_455
Ba2 O10 2.859895 1_555
Ba2 O21 2.917307 1_565
Ba2 O19 3.012925 1_555
Ba2 O16 3.034260 1_555
Ba2 O9 3.044468 1_555
Ba3 O1 2.676047 1_655
Ba3 O15 2.781976 1_655
Ba3 O11 2.859895 1_555
Ba3 O20 2.917307 1_545
Ba3 O18 3.012925 1_555
Ba3 O17 3.034260 1_555
Ba3 O8 3.044468 1_555
Fe0 O25 2.037415 1_554
Fe0 O12 2.059486 1_545
Fe0 O3 2.068171 1_555
Fe0 O5 2.122483 1_554
Fe0 O13 2.462182 1_554
Fe1 O24 2.037415 1_556
Fe1 O13 2.059486 1_565
Fe1 O2 2.068171 1_555
Fe1 O4 2.122483 1_556
Fe1 O12 2.462182 1_556
Fe2 O27 2.037415 1_556
Fe2 O14 2.059486 1_555
Fe2 O1 2.068171 1_655
Fe2 O7 2.122483 1_656
Fe2 O15 2.462182 1_656
Fe3 O26 2.037415 1_554
Fe3 O15 2.059486 1_555
Fe3 O0 2.068171 1_455
Fe3 O6 2.122483 1_454
Fe3 O14 2.462182 1_454
Fe4 O8 2.007399 1_555
Fe4 O17 2.012422 1_564
Fe4 O24 2.034224 1_555
Fe4 O6 2.039243 1_554
Fe5 O9 2.007399 1_555
Fe5 O16 2.012422 1_546
Fe5 O25 2.034224 1_555
Fe5 O7 2.039243 1_556
Fe6 O10 2.007399 1_555
Fe6 O19 2.012422 1_556
Fe6 O26 2.034224 1_555
Fe6 O4 2.039243 1_556
Fe7 O11 2.007399 1_555
Fe7 O18 2.012422 1_554
Fe7 O27 2.034224 1_555
Fe7 O5 2.039243 1_554
O0 Si4 1.625558 1_555
O1 Si5 1.625558 1_555
O2 Si6 1.625558 1_555
O3 Si7 1.625558 1_555
O4 Si0 1.648340 1_555
O5 Si1 1.648340 1_555
O6 Si2 1.648340 1_555
O7 Si3 1.648340 1_555
O8 Si4 1.647630 1_555
O9 Si5 1.647630 1_555
O10 Si6 1.647630 1_555
O11 Si7 1.647630 1_555
O12 Si0 1.642754 1_555
O13 Si1 1.642754 1_555
O14 Si2 1.642754 1_555
O15 Si3 1.642754 1_555
O16 Si0 1.639094 1_555
O17 Si1 1.639094 1_555
O18 Si2 1.639094 1_555
O19 Si3 1.639094 1_555
O20 Si2 1.677511 1_555
O20 Si4 1.689395 1_555
O21 Si3 1.677511 1_555
O21 Si5 1.689395 1_555
O22 Si0 1.677511 1_555
O22 Si6 1.689395 1_555
O23 Si1 1.677511 1_555
O23 Si7 1.689395 1_555
O24 Si7 1.642403 1_555
O25 Si6 1.642403 1_555
O26 Si5 1.642403 1_565
O27 Si4 1.642403 1_545
