# generated using pymatgen
data_Er2(Ni7B2)3
_symmetry_space_group_name_H-M   'P 1'
_cell_length_a   7.52246498
_cell_length_b   7.52246498
_cell_length_c   7.52246498
_cell_angle_alpha   60.00000000
_cell_angle_beta   60.00000000
_cell_angle_gamma   60.00000000
_symmetry_Int_Tables_number   1
_chemical_formula_structural   Er2(Ni7B2)3
_chemical_formula_sum   'Er2 Ni21 B6'
_cell_volume   300.99932823
_cell_formula_units_Z   1
loop_
 _symmetry_equiv_pos_site_id
 _symmetry_equiv_pos_as_xyz
  1  'x, y, z'
loop_
 _atom_site_type_symbol
 _atom_site_label
 _atom_site_symmetry_multiplicity
 _atom_site_fract_x
 _atom_site_fract_y
 _atom_site_fract_z
 _atom_site_occupancy
  Er  Er0  1  0.75000000  0.75000000  0.75000000  1
  Er  Er1  1  0.25000000  0.25000000  0.25000000  1
  Ni  Ni0  1  0.00000000  0.00000000  0.00000000  1
  Ni  Ni1  1  0.61238900  0.61238900  0.16283400  1
  Ni  Ni2  1  0.61238900  0.16283400  0.61238900  1
  Ni  Ni3  1  0.16283400  0.61238900  0.61238900  1
  Ni  Ni4  1  0.61238900  0.61238900  0.61238900  1
  Ni  Ni5  1  0.38761100  0.38761100  0.83716600  1
  Ni  Ni6  1  0.38761100  0.83716600  0.38761100  1
  Ni  Ni7  1  0.83716600  0.38761100  0.38761100  1
  Ni  Ni8  1  0.38761100  0.38761100  0.38761100  1
  Ni  Ni9  1  0.00000000  0.00000000  0.33674900  1
  Ni  Ni10  1  0.66325100  0.00000000  0.33674900  1
  Ni  Ni11  1  0.00000000  0.66325100  0.33674900  1
  Ni  Ni12  1  0.66325100  0.33674900  0.00000000  1
  Ni  Ni13  1  0.00000000  0.33674900  0.00000000  1
  Ni  Ni14  1  0.00000000  0.33674900  0.66325100  1
  Ni  Ni15  1  0.33674900  0.66325100  0.00000000  1
  Ni  Ni16  1  0.33674900  0.00000000  0.66325100  1
  Ni  Ni17  1  0.33674900  0.00000000  0.00000000  1
  Ni  Ni18  1  0.00000000  0.00000000  0.66325100  1
  Ni  Ni19  1  0.00000000  0.66325100  0.00000000  1
  Ni  Ni20  1  0.66325100  0.00000000  0.00000000  1
  B  B0  1  0.72980700  0.72980700  0.27019300  1
  B  B1  1  0.27019300  0.72980700  0.27019300  1
  B  B2  1  0.72980700  0.27019300  0.27019300  1
  B  B3  1  0.27019300  0.27019300  0.72980700  1
  B  B4  1  0.72980700  0.27019300  0.72980700  1
  B  B5  1  0.27019300  0.72980700  0.72980700  1
loop_
_geom_bond_atom_site_label_1
_geom_bond_atom_site_label_2
_geom_bond_distance
_geom_bond_site_symmetry_2
Er0 Ni4 2.535648 1_555
Er0 Ni3 2.535654 1_655
Er0 Ni2 2.535654 1_565
Er0 Ni1 2.535654 1_556
Er0 Ni9 2.929427 1_665
Er0 Ni14 2.929427 1_655
Er0 Ni13 2.929427 1_656
Er0 Ni16 2.929427 1_565
Er0 Ni10 2.929427 1_565
Er0 Ni15 2.929427 1_556
Er0 Ni12 2.929427 1_556
Er0 Ni17 2.929427 1_566
Er0 Ni11 2.929427 1_655
Er0 Ni20 2.929427 1_566
Er0 Ni18 2.929427 1_665
Er0 Ni19 2.929427 1_656
Er1 Ni8 2.535648 1_555
Er1 Ni6 2.535654 1_545
Er1 Ni7 2.535654 1_455
Er1 Ni5 2.535654 1_554
Er1 Ni9 2.929427 1_555
Er1 Ni13 2.929427 1_555
Er1 Ni17 2.929427 1_555
Er1 Ni14 2.929427 1_555
Er1 Ni18 2.929427 1_555
Er1 Ni19 2.929427 1_555
Er1 Ni20 2.929427 1_555
Er1 Ni10 2.929427 1_555
Er1 Ni16 2.929427 1_555
Er1 Ni11 2.929427 1_555
Er1 Ni15 2.929427 1_555
Er1 Ni12 2.929427 1_555
Ni0 Ni19 2.533183 1_545
Ni0 Ni18 2.533183 1_554
Ni0 Ni20 2.533183 1_455
Ni0 Ni14 2.533183 1_554
Ni0 Ni10 2.533183 1_455
Ni0 Ni12 2.533183 1_455
Ni0 Ni11 2.533183 1_545
Ni0 Ni16 2.533183 1_554
Ni0 Ni15 2.533183 1_545
Ni0 Ni9 2.533183 1_555
Ni0 Ni17 2.533183 1_555
Ni0 Ni13 2.533183 1_555
B0 Ni19 2.093273 1_655
B0 Ni20 2.093273 1_565
B0 Ni10 2.093273 1_565
B0 Ni11 2.093273 1_655
B0 Ni1 2.102239 1_555
B0 Ni4 2.102245 1_555
B0 Ni6 2.102245 1_555
B0 Ni7 2.102245 1_555
B1 Ni11 2.093273 1_555
B1 Ni15 2.093273 1_555
B1 Ni17 2.093273 1_565
B1 Ni9 2.093273 1_565
B1 Ni6 2.102239 1_555
B1 Ni8 2.102245 1_555
B1 Ni3 2.102245 1_555
B1 Ni1 2.102245 1_555
B2 Ni12 2.093273 1_555
B2 Ni10 2.093273 1_555
B2 Ni13 2.093273 1_655
B2 Ni9 2.093273 1_655
B2 Ni7 2.102239 1_555
B2 Ni8 2.102245 1_555
B2 Ni2 2.102245 1_555
B2 Ni1 2.102245 1_555
B3 Ni16 2.093273 1_555
B3 Ni14 2.093273 1_555
B3 Ni13 2.093273 1_556
B3 Ni17 2.093273 1_556
B3 Ni5 2.102239 1_555
B3 Ni8 2.102245 1_555
B3 Ni2 2.102245 1_555
B3 Ni3 2.102245 1_555
B4 Ni20 2.093273 1_556
B4 Ni18 2.093273 1_655
B4 Ni14 2.093273 1_655
B4 Ni12 2.093273 1_556
B4 Ni2 2.102239 1_555
B4 Ni4 2.102245 1_555
B4 Ni7 2.102245 1_555
B4 Ni5 2.102245 1_555
B5 Ni19 2.093273 1_556
B5 Ni18 2.093273 1_565
B5 Ni16 2.093273 1_565
B5 Ni15 2.093273 1_556
B5 Ni3 2.102239 1_555
B5 Ni4 2.102245 1_555
B5 Ni6 2.102245 1_555
B5 Ni5 2.102245 1_555
