# generated using pymatgen
data_YTi3F15
_symmetry_space_group_name_H-M   'P 1'
_cell_length_a   10.35748700
_cell_length_b   6.14459000
_cell_length_c   10.07235419
_cell_angle_alpha   73.67986914
_cell_angle_beta   90.00000000
_cell_angle_gamma   90.00000000
_symmetry_Int_Tables_number   1
_chemical_formula_structural   YTi3F15
_chemical_formula_sum   'Y2 Ti6 F30'
_cell_volume   615.20065123
_cell_formula_units_Z   2
loop_
 _symmetry_equiv_pos_site_id
 _symmetry_equiv_pos_as_xyz
  1  'x, y, z'
loop_
 _atom_site_type_symbol
 _atom_site_label
 _atom_site_symmetry_multiplicity
 _atom_site_fract_x
 _atom_site_fract_y
 _atom_site_fract_z
 _atom_site_occupancy
  Y  Y0  1  0.25000000  0.71332500  0.78967800  1
  Y  Y1  1  0.75000000  0.28667500  0.21032200  1
  Ti  Ti0  1  0.50000000  0.00000000  0.00000000  1
  Ti  Ti1  1  0.43574400  0.61752600  0.34741600  1
  Ti  Ti2  1  0.56425600  0.38247400  0.65258400  1
  Ti  Ti3  1  0.00000000  0.00000000  0.00000000  1
  Ti  Ti4  1  0.06425600  0.61752600  0.34741600  1
  Ti  Ti5  1  0.93574400  0.38247400  0.65258400  1
  F  F0  1  0.25000000  0.60253600  0.99982400  1
  F  F1  1  0.25000000  0.55066700  0.33167700  1
  F  F2  1  0.25000000  0.97681800  0.61093400  1
  F  F3  1  0.75000000  0.39746400  0.00017600  1
  F  F4  1  0.75000000  0.02318200  0.38906600  1
  F  F5  1  0.75000000  0.44933300  0.66832300  1
  F  F6  1  0.58532500  0.24138100  0.84628100  1
  F  F7  1  0.59930300  0.05338700  0.14672100  1
  F  F8  1  0.58613900  0.62972100  0.49190900  1
  F  F9  1  0.41467500  0.75861900  0.15371900  1
  F  F10  1  0.41386100  0.37027900  0.50809100  1
  F  F11  1  0.40069700  0.94661300  0.85327900  1
  F  F12  1  0.88551400  0.79044600  0.97997200  1
  F  F13  1  0.92397700  0.47413700  0.28644300  1
  F  F14  1  0.90545400  0.12169300  0.62010200  1
  F  F15  1  0.11448600  0.20955400  0.02002800  1
  F  F16  1  0.09454600  0.87830700  0.37989800  1
  F  F17  1  0.07602300  0.52586300  0.71355700  1
  F  F18  1  0.38551400  0.20955400  0.02002800  1
  F  F19  1  0.40545400  0.87830700  0.37989800  1
  F  F20  1  0.42397700  0.52586300  0.71355700  1
  F  F21  1  0.61448600  0.79044600  0.97997200  1
  F  F22  1  0.57602300  0.47413700  0.28644300  1
  F  F23  1  0.59454600  0.12169300  0.62010200  1
  F  F24  1  0.91467500  0.24138100  0.84628100  1
  F  F25  1  0.90069700  0.05338700  0.14672100  1
  F  F26  1  0.91386100  0.62972100  0.49190900  1
  F  F27  1  0.08532500  0.75861900  0.15371900  1
  F  F28  1  0.08613900  0.37027900  0.50809100  1
  F  F29  1  0.09930300  0.94661300  0.85327900  1
loop_
_geom_bond_atom_site_label_1
_geom_bond_atom_site_label_2
_geom_bond_distance
_geom_bond_site_symmetry_2
F0 Y0 2.033195 1_555
F1 Ti4 1.982844 1_555
F1 Ti1 1.982844 1_555
F2 Y0 2.055356 1_555
F3 Y1 2.033195 1_555
F4 Y1 2.055356 1_555
F5 Ti5 1.982844 1_555
F5 Ti2 1.982844 1_555
F6 Ti2 1.911802 1_555
F6 Ti0 2.021761 1_556
F7 Ti0 1.903131 1_555
F7 Y1 2.327553 1_555
F8 Ti2 1.896516 1_555
F8 Ti1 2.147446 1_555
F9 Ti1 1.911802 1_555
F9 Ti0 2.021761 1_565
F10 Ti1 1.896516 1_555
F10 Ti2 2.147446 1_555
F11 Ti0 1.903131 1_566
F11 Y0 2.327553 1_555
F12 Ti3 1.802981 1_666
F13 Ti4 1.889068 1_655
F13 Y1 2.378676 1_555
F14 Ti5 1.751503 1_555
F15 Ti3 1.802981 1_555
F16 Ti4 1.751503 1_555
F17 Ti5 1.889068 1_455
F17 Y0 2.378676 1_555
F18 Ti0 1.802981 1_555
F19 Ti1 1.751503 1_555
F20 Ti2 1.889068 1_555
F20 Y0 2.378676 1_555
F21 Ti0 1.802981 1_566
F22 Ti1 1.889068 1_555
F22 Y1 2.378676 1_555
F23 Ti2 1.751503 1_555
F24 Ti5 1.911802 1_555
F24 Ti3 2.021761 1_656
F25 Ti3 1.903131 1_655
F25 Y1 2.327553 1_555
F26 Ti5 1.896516 1_555
F26 Ti4 2.147446 1_655
F27 Ti4 1.911802 1_555
F27 Ti3 2.021761 1_565
F28 Ti4 1.896516 1_555
F28 Ti5 2.147446 1_455
F29 Ti3 1.903131 1_566
F29 Y0 2.327553 1_555
