# generated using pymatgen
data_YbSm2CuS5
_symmetry_space_group_name_H-M   'P 1'
_cell_length_a   3.84966732
_cell_length_b   11.64178159
_cell_length_c   16.66809043
_cell_angle_alpha   90.00000000
_cell_angle_beta   90.00000000
_cell_angle_gamma   90.00000000
_symmetry_Int_Tables_number   1
_chemical_formula_structural   YbSm2CuS5
_chemical_formula_sum   'Yb4 Sm8 Cu4 S20'
_cell_volume   747.01357844
_cell_formula_units_Z   4
loop_
 _symmetry_equiv_pos_site_id
 _symmetry_equiv_pos_as_xyz
  1  'x, y, z'
loop_
 _atom_site_type_symbol
 _atom_site_label
 _atom_site_symmetry_multiplicity
 _atom_site_fract_x
 _atom_site_fract_y
 _atom_site_fract_z
 _atom_site_occupancy
  Yb  Yb0  1  0.25000000  0.80355399  0.36608738  1
  Yb  Yb1  1  0.25000000  0.30355399  0.13391262  1
  Yb  Yb2  1  0.75000000  0.19644601  0.63391262  1
  Yb  Yb3  1  0.75000000  0.69644601  0.86608738  1
  Sm  Sm0  1  0.25000000  0.86979785  0.60109097  1
  Sm  Sm1  1  0.25000000  0.36979785  0.89890903  1
  Sm  Sm2  1  0.75000000  0.13020215  0.39890903  1
  Sm  Sm3  1  0.75000000  0.63020215  0.10109097  1
  Sm  Sm4  1  0.75000000  0.96632042  0.17860593  1
  Sm  Sm5  1  0.75000000  0.46632042  0.32139407  1
  Sm  Sm6  1  0.25000000  0.03367958  0.82139407  1
  Sm  Sm7  1  0.25000000  0.53367958  0.67860593  1
  Cu  Cu0  1  0.75000000  0.58236469  0.49483634  1
  Cu  Cu1  1  0.75000000  0.08236469  0.00516366  1
  Cu  Cu2  1  0.25000000  0.41763531  0.50516366  1
  Cu  Cu3  1  0.25000000  0.91763531  0.99483634  1
  S  S0  1  0.75000000  0.74228192  0.26880190  1
  S  S1  1  0.75000000  0.24228192  0.23119810  1
  S  S2  1  0.25000000  0.25771808  0.73119810  1
  S  S3  1  0.25000000  0.75771808  0.76880190  1
  S  S4  1  0.25000000  0.81121617  0.10897294  1
  S  S5  1  0.25000000  0.31121617  0.39102706  1
  S  S6  1  0.75000000  0.18878383  0.89102706  1
  S  S7  1  0.75000000  0.68878383  0.60897294  1
  S  S8  1  0.75000000  0.88778687  0.46692789  1
  S  S9  1  0.75000000  0.38778687  0.03307211  1
  S  S10  1  0.25000000  0.11221313  0.53307211  1
  S  S11  1  0.25000000  0.61221313  0.96692789  1
  S  S12  1  0.25000000  0.58957703  0.41893043  1
  S  S13  1  0.25000000  0.08957703  0.08106957  1
  S  S14  1  0.75000000  0.41042297  0.58106957  1
  S  S15  1  0.75000000  0.91042297  0.91893043  1
  S  S16  1  0.25000000  0.01114014  0.30208298  1
  S  S17  1  0.25000000  0.51114014  0.19791702  1
  S  S18  1  0.75000000  0.98885986  0.69791702  1
  S  S19  1  0.75000000  0.48885986  0.80208298  1
loop_
_geom_bond_atom_site_label_1
_geom_bond_atom_site_label_2
_geom_bond_distance
_geom_bond_site_symmetry_2
Cu0 S7 2.270279 1_555
Cu0 S12 2.304947 1_555
Cu0 S12 2.304947 1_655
Cu0 S14 2.464303 1_555
Cu0 Sm5 3.191034 1_555
Cu1 S6 2.270279 1_554
Cu1 S13 2.304947 1_555
Cu1 S13 2.304947 1_655
Cu1 S15 2.464303 1_544
Cu1 Sm4 3.191034 1_545
Cu2 S5 2.270279 1_555
Cu2 S14 2.304947 1_455
Cu2 S14 2.304947 1_555
Cu2 S12 2.464303 1_555
Cu2 Sm7 3.191034 1_555
Cu3 S4 2.270279 1_556
Cu3 S15 2.304947 1_555
Cu3 S15 2.304947 1_455
Cu3 S13 2.464303 1_566
Cu3 Sm6 3.191034 1_565
S0 Yb0 2.615965 1_555
S0 Yb0 2.615965 1_655
S0 Sm4 3.010472 1_555
S0 Sm3 3.084948 1_555
S0 Sm5 3.330132 1_555
S1 Yb1 2.615965 1_655
S1 Yb1 2.615965 1_555
S1 Sm5 3.010472 1_555
S1 Sm2 3.084948 1_555
S1 Sm4 3.330132 1_545
S2 Yb2 2.615965 1_455
S2 Yb2 2.615965 1_555
S2 Sm6 3.010472 1_555
S2 Sm1 3.084948 1_555
S2 Sm7 3.330132 1_555
S3 Yb3 2.615965 1_455
S3 Yb3 2.615965 1_555
S3 Sm7 3.010472 1_555
S3 Sm0 3.084948 1_555
S3 Sm6 3.330132 1_565
S4 Sm3 2.857108 1_555
S4 Sm3 2.857108 1_455
S4 Sm4 2.883159 1_455
S4 Sm4 2.883159 1_555
S5 Sm2 2.857108 1_455
S5 Sm2 2.857108 1_555
S5 Sm5 2.883159 1_455
S5 Sm5 2.883159 1_555
S6 Sm1 2.857108 1_655
S6 Sm1 2.857108 1_555
S6 Sm6 2.883159 1_555
S6 Sm6 2.883159 1_655
S7 Sm0 2.857108 1_655
S7 Sm0 2.857108 1_555
S7 Sm7 2.883159 1_555
S7 Sm7 2.883159 1_655
S8 Yb0 2.737107 1_555
S8 Yb0 2.737107 1_655
S8 Sm0 2.957976 1_555
S8 Sm0 2.957976 1_655
S8 Sm2 3.041362 1_565
S9 Yb1 2.737107 1_555
S9 Yb1 2.737107 1_655
S9 Sm1 2.957976 1_654
S9 Sm1 2.957976 1_554
S9 Sm3 3.041362 1_555
S10 Yb2 2.737107 1_555
S10 Yb2 2.737107 1_455
S10 Sm2 2.957976 1_555
S10 Sm2 2.957976 1_455
S10 Sm0 3.041362 1_545
S11 Yb3 2.737107 1_555
S11 Yb3 2.737107 1_455
S11 Sm3 2.957976 1_556
S11 Sm3 2.957976 1_456
S11 Sm1 3.041362 1_555
S12 Yb0 2.642204 1_555
S12 Sm5 2.899491 1_455
S12 Sm5 2.899491 1_555
S13 Yb1 2.642204 1_555
S13 Sm4 2.899491 1_545
S13 Sm4 2.899491 1_445
S14 Yb2 2.642204 1_555
S14 Sm7 2.899491 1_555
S14 Sm7 2.899491 1_655
S15 Yb3 2.642204 1_555
S15 Sm6 2.899491 1_565
S15 Sm6 2.899491 1_665
S16 Yb0 2.641673 1_545
S16 Sm4 2.865855 1_545
S16 Sm4 2.865855 1_445
S16 Sm2 2.868960 1_555
S16 Sm2 2.868960 1_455
S17 Yb1 2.641673 1_555
S17 Sm5 2.865855 1_455
S17 Sm5 2.865855 1_555
S17 Sm3 2.868960 1_555
S17 Sm3 2.868960 1_455
S18 Yb2 2.641673 1_565
S18 Sm6 2.865855 1_565
S18 Sm6 2.865855 1_665
S18 Sm0 2.868960 1_555
S18 Sm0 2.868960 1_655
S19 Yb3 2.641673 1_555
S19 Sm7 2.865855 1_555
S19 Sm7 2.865855 1_655
S19 Sm1 2.868960 1_555
S19 Sm1 2.868960 1_655
