# generated using pymatgen
data_Te15Mo2(Cl6O)2
_symmetry_space_group_name_H-M   'P 1'
_cell_length_a   8.42518559
_cell_length_b   8.13312190
_cell_length_c   14.87105568
_cell_angle_alpha   82.08259702
_cell_angle_beta   86.24075417
_cell_angle_gamma   104.10605770
_symmetry_Int_Tables_number   1
_chemical_formula_structural   Te15Mo2(Cl6O)2
_chemical_formula_sum   'Te15 Mo2 Cl12 O2'
_cell_volume   973.63601519
_cell_formula_units_Z   1
loop_
 _symmetry_equiv_pos_site_id
 _symmetry_equiv_pos_as_xyz
  1  'x, y, z'
loop_
 _atom_site_type_symbol
 _atom_site_label
 _atom_site_symmetry_multiplicity
 _atom_site_fract_x
 _atom_site_fract_y
 _atom_site_fract_z
 _atom_site_occupancy
  Te  Te0  1  0.88880900  0.79706200  0.69608900  1
  Te  Te1  1  0.89006400  0.29937800  0.69636000  1
  Te  Te2  1  0.10909000  0.19986300  0.31108000  1
  Te  Te3  1  0.10676700  0.69892200  0.31205000  1
  Te  Te4  1  0.62940100  0.69549300  0.84082600  1
  Te  Te5  1  0.63074500  0.19850900  0.84099200  1
  Te  Te6  1  0.38734100  0.30809000  0.15053900  1
  Te  Te7  1  0.38394200  0.80860800  0.15208500  1
  Te  Te8  1  0.73584200  0.94501000  0.95700300  1
  Te  Te9  1  0.72675700  0.44233600  0.96340300  1
  Te  Te10  1  0.26685100  0.05605600  0.03828700  1
  Te  Te11  1  0.26728000  0.55801700  0.03755600  1
  Te  Te12  1  0.06710800  0.07755600  0.75675700  1
  Te  Te13  1  0.92750800  0.42269400  0.23552900  1
  Te  Te14  1  0.92750500  0.92311400  0.23310800  1
  Mo  Mo0  1  0.50002800  0.54303700  0.50037100  1
  Mo  Mo1  1  0.49875600  0.04367000  0.50002600  1
  Cl  Cl0  1  0.47461500  0.95143600  0.66022200  1
  Cl  Cl1  1  0.48419400  0.45495500  0.66236500  1
  Cl  Cl2  1  0.51122100  0.04313000  0.33750700  1
  Cl  Cl3  1  0.51318500  0.54359200  0.33810000  1
  Cl  Cl4  1  0.79971800  0.17037000  0.09984100  1
  Cl  Cl5  1  0.79945300  0.68031900  0.09992700  1
  Cl  Cl6  1  0.19996900  0.81885800  0.91513300  1
  Cl  Cl7  1  0.20227200  0.32464500  0.91471900  1
  Cl  Cl8  1  0.78710700  0.07311600  0.49054900  1
  Cl  Cl9  1  0.79016000  0.57334900  0.49395600  1
  Cl  Cl10  1  0.20631800  0.92338300  0.50435300  1
  Cl  Cl11  1  0.20778200  0.42509400  0.50597500  1
  O  O0  1  0.49934300  0.75593900  0.49943100  1
  O  O1  1  0.49896800  0.25805100  0.49976200  1
loop_
_geom_bond_atom_site_label_1
_geom_bond_atom_site_label_2
_geom_bond_distance
_geom_bond_site_symmetry_2
Te0 Te12 2.710935 1_665
Te0 Te4 2.846954 1_555
Te1 Te12 2.706925 1_655
Te1 Te5 2.845440 1_555
Te2 Te6 3.106716 1_555
Te3 Te7 3.095095 1_555
Te4 Te8 2.861700 1_555
Te4 Te9 2.867085 1_555
Te5 Te8 2.849809 1_545
Te5 Te9 2.882083 1_555
Te10 Te7 2.852320 1_545
Te10 Te6 2.858229 1_555
Te11 Te7 2.867058 1_555
Te11 Te6 2.874410 1_555
Te13 Te3 2.810494 1_655
Te13 Te2 2.811255 1_655
Te14 Te3 2.822952 1_655
Te14 Te2 2.832743 1_665
Mo0 O0 1.731108 1_555
Mo0 O1 2.316934 1_555
Mo1 O1 1.742616 1_555
Mo1 O0 2.342595 1_545
Cl0 Mo1 2.376792 1_565
Cl1 Mo0 2.402129 1_555
Cl2 Mo1 2.412878 1_555
Cl3 Mo0 2.407745 1_555
Cl4 Te8 2.983750 1_544
Cl4 Te9 2.996195 1_554
Cl4 Te14 3.060702 1_545
Cl4 Te13 3.129047 1_555
Cl5 Te8 2.981660 1_554
Cl5 Te9 2.985163 1_554
Cl5 Te14 3.050415 1_555
Cl5 Te13 3.137494 1_555
Cl6 Te11 2.791847 1_556
Cl6 Te10 2.823493 1_566
Cl7 Te11 2.796263 1_556
Cl7 Te10 2.837118 1_556
Cl8 Mo1 2.375176 1_555
Cl9 Mo0 2.390450 1_555
Cl10 Mo1 2.412201 1_565
Cl11 Mo0 2.406131 1_555
