# generated using pymatgen
data_Ho2Co7
_symmetry_space_group_name_H-M   'P 1'
_cell_length_a   4.92433817
_cell_length_b   4.92433800
_cell_length_c   12.31356073
_cell_angle_alpha   78.46562036
_cell_angle_beta   78.46562023
_cell_angle_gamma   60.00000114
_symmetry_Int_Tables_number   1
_chemical_formula_structural   Ho2Co7
_chemical_formula_sum   'Ho4 Co14'
_cell_volume   251.60192266
_cell_formula_units_Z   2
loop_
 _symmetry_equiv_pos_site_id
 _symmetry_equiv_pos_as_xyz
  1  'x, y, z'
loop_
 _atom_site_type_symbol
 _atom_site_label
 _atom_site_symmetry_multiplicity
 _atom_site_fract_x
 _atom_site_fract_y
 _atom_site_fract_z
 _atom_site_occupancy
  Ho  Ho0  1  0.94745000  0.94745000  0.15765100  1
  Ho  Ho1  1  0.05255000  0.05255000  0.84234900  1
  Ho  Ho2  1  0.85145000  0.85145000  0.44565100  1
  Ho  Ho3  1  0.14855000  0.14855000  0.55434900  1
  Co  Co0  1  0.50000000  0.50000000  0.50000000  1
  Co  Co1  1  0.72155700  0.72155700  0.83532900  1
  Co  Co2  1  0.27844300  0.27844300  0.16467100  1
  Co  Co3  1  0.61139700  0.61139700  0.16580900  1
  Co  Co4  1  0.38860300  0.38860300  0.83419100  1
  Co  Co5  1  0.00000000  0.50000000  0.00000000  1
  Co  Co6  1  0.50000000  0.00000000  0.00000000  1
  Co  Co7  1  0.50000000  0.50000000  0.00000000  1
  Co  Co8  1  0.39032500  0.39032500  0.32845600  1
  Co  Co9  1  0.89089300  0.39032500  0.32845600  1
  Co  Co10  1  0.39032500  0.89089300  0.32845600  1
  Co  Co11  1  0.60967500  0.60967500  0.67154400  1
  Co  Co12  1  0.10910700  0.60967500  0.67154400  1
  Co  Co13  1  0.60967500  0.10910700  0.67154400  1
loop_
_geom_bond_atom_site_label_1
_geom_bond_atom_site_label_2
_geom_bond_distance
_geom_bond_site_symmetry_2
Co0 Co13 2.499874 1_555
Co0 Co10 2.499874 1_555
Co0 Co12 2.499874 1_555
Co0 Co9 2.499874 1_555
Co0 Co11 2.499877 1_555
Co0 Co8 2.499877 1_555
Co0 Ho3 2.916680 1_565
Co0 Ho2 2.916680 1_545
Co0 Ho3 2.916680 1_655
Co0 Ho2 2.916680 1_455
Co0 Ho3 2.916684 1_555
Co0 Ho2 2.916684 1_555
Co1 Co11 2.422131 1_555
Co1 Co13 2.422133 1_565
Co1 Co12 2.422133 1_655
Co1 Co6 2.431684 1_566
Co1 Co7 2.431684 1_556
Co1 Co5 2.431684 1_656
Co1 Ho1 2.844309 1_665
Co1 Ho1 2.844313 1_655
Co1 Ho1 2.844313 1_565
Co2 Co8 2.422131 1_555
Co2 Co9 2.422133 1_455
Co2 Co6 2.431684 1_555
Co2 Co7 2.431684 1_555
Co2 Co5 2.431684 1_555
Co2 Ho0 2.844309 1_445
Co2 Ho0 2.844313 1_455
Co2 Ho0 2.844313 1_545
Co3 Co9 2.413003 1_555
Co3 Co8 2.413005 1_555
Co3 Co7 2.442759 1_555
Co3 Co6 2.442759 1_565
Co3 Co5 2.442759 1_655
Co3 Ho0 2.844746 1_545
Co3 Ho0 2.844746 1_455
Co3 Ho0 2.844750 1_555
Co4 Co7 2.442759 1_556
Co4 Co6 2.442759 1_556
Co4 Co5 2.442759 1_556
Co4 Ho1 2.844746 1_565
Co4 Ho1 2.844746 1_655
Co4 Ho1 2.844750 1_555
Co5 Co6 2.462169 1_555
Co5 Co7 2.462169 1_455
Co5 Co7 2.462169 1_555
Co5 Co6 2.462169 1_465
Co5 Ho0 3.103192 1_445
Co5 Ho1 3.103192 1_564
Co5 Ho0 3.103196 1_455
Co5 Ho1 3.103196 1_554
Co6 Co7 2.462169 1_545
Co6 Co7 2.462169 1_555
Co6 Ho0 3.103192 1_445
Co6 Ho1 3.103192 1_654
Co6 Ho0 3.103196 1_545
Co6 Ho1 3.103196 1_554
Co7 Ho0 3.103194 1_455
Co7 Ho1 3.103194 1_654
Co7 Ho0 3.103194 1_545
Co7 Ho1 3.103194 1_564
Co8 Co9 2.459372 1_455
Co8 Co9 2.464966 1_555
Co8 Ho2 2.834389 1_455
Co8 Ho2 2.834389 1_545
Co8 Ho3 3.056259 1_555
Co8 Ho0 3.201560 1_455
Co8 Ho0 3.201560 1_545
Co9 Ho2 2.834385 1_545
Co9 Ho2 2.834394 1_555
Co9 Ho3 3.056259 1_655
Co9 Ho0 3.201556 1_545
Co9 Ho0 3.201564 1_555
Co10 Co3 2.413003 1_555
Co10 Co2 2.422133 1_565
Co10 Co8 2.459372 1_565
Co10 Co9 2.459372 1_465
Co10 Co8 2.464966 1_555
Co10 Co9 2.464966 1_555
Co10 Ho2 2.834385 1_455
Co10 Ho2 2.834394 1_555
Co10 Ho3 3.056259 1_565
Co10 Ho0 3.201556 1_455
Co10 Ho0 3.201564 1_555
Co11 Co4 2.413005 1_555
Co11 Co13 2.459372 1_565
Co11 Co12 2.459372 1_655
Co11 Co13 2.464966 1_555
Co11 Co12 2.464966 1_555
Co11 Ho3 2.834389 1_655
Co11 Ho3 2.834389 1_565
Co11 Ho2 3.056259 1_555
Co11 Ho1 3.201560 1_655
Co11 Ho1 3.201560 1_565
Co12 Co4 2.413003 1_555
Co12 Co13 2.459372 1_465
Co12 Co13 2.464966 1_555
Co12 Ho3 2.834385 1_565
Co12 Ho3 2.834394 1_555
Co12 Ho2 3.056259 1_455
Co12 Ho1 3.201556 1_565
Co12 Ho1 3.201564 1_555
Co13 Co4 2.413003 1_555
Co13 Ho3 2.834385 1_655
Co13 Ho3 2.834394 1_555
Co13 Ho2 3.056259 1_545
Co13 Ho1 3.201556 1_655
Co13 Ho1 3.201564 1_555
