# generated using pymatgen
data_K3NbS4
_symmetry_space_group_name_H-M   'P 1'
_cell_length_a   9.31351488
_cell_length_b   9.50901242
_cell_length_c   10.75533038
_cell_angle_alpha   90.00000000
_cell_angle_beta   90.00000000
_cell_angle_gamma   90.00000000
_symmetry_Int_Tables_number   1
_chemical_formula_structural   K3NbS4
_chemical_formula_sum   'K12 Nb4 S16'
_cell_volume   952.51710404
_cell_formula_units_Z   4
loop_
 _symmetry_equiv_pos_site_id
 _symmetry_equiv_pos_as_xyz
  1  'x, y, z'
loop_
 _atom_site_type_symbol
 _atom_site_label
 _atom_site_symmetry_multiplicity
 _atom_site_fract_x
 _atom_site_fract_y
 _atom_site_fract_z
 _atom_site_occupancy
  K  K0  1  0.05980273  0.28777441  0.95504035  1
  K  K1  1  0.63330954  0.42318760  0.25000000  1
  K  K2  1  0.36669046  0.57681240  0.75000000  1
  K  K3  1  0.86669046  0.92318760  0.75000000  1
  K  K4  1  0.94019727  0.71222559  0.04495965  1
  K  K5  1  0.44019727  0.78777441  0.45504035  1
  K  K6  1  0.55980273  0.21222559  0.95504035  1
  K  K7  1  0.05980273  0.28777441  0.54495965  1
  K  K8  1  0.94019727  0.71222559  0.45504035  1
  K  K9  1  0.55980273  0.21222559  0.54495965  1
  K  K10  1  0.44019727  0.78777441  0.04495965  1
  K  K11  1  0.13330954  0.07681240  0.25000000  1
  Nb  Nb0  1  0.21357893  0.51214955  0.25000000  1
  Nb  Nb1  1  0.71357893  0.98785045  0.25000000  1
  Nb  Nb2  1  0.28642107  0.01214955  0.75000000  1
  Nb  Nb3  1  0.78642107  0.48785045  0.75000000  1
  S  S0  1  0.66555016  0.55194785  0.92572014  1
  S  S1  1  0.16555016  0.94805215  0.57427986  1
  S  S2  1  0.83444984  0.05194785  0.07427986  1
  S  S3  1  0.33444984  0.44805215  0.42572014  1
  S  S4  1  0.33444984  0.44805215  0.07427986  1
  S  S5  1  0.83444984  0.05194785  0.42572014  1
  S  S6  1  0.16555016  0.94805215  0.92572014  1
  S  S7  1  0.66555016  0.55194785  0.57427986  1
  S  S8  1  0.18853692  0.75157502  0.25000000  1
  S  S9  1  0.68853692  0.74842498  0.25000000  1
  S  S10  1  0.31146308  0.25157502  0.75000000  1
  S  S11  1  0.81146308  0.24842498  0.75000000  1
  S  S12  1  0.99018351  0.41122495  0.25000000  1
  S  S13  1  0.00981649  0.58877505  0.75000000  1
  S  S14  1  0.50981649  0.91122495  0.75000000  1
  S  S15  1  0.49018351  0.08877505  0.25000000  1
loop_
_geom_bond_atom_site_label_1
_geom_bond_atom_site_label_2
_geom_bond_distance
_geom_bond_site_symmetry_2
K0 S11 3.217581 1_455
K0 S10 3.236561 1_555
K0 S4 3.241996 1_556
K0 S2 3.328436 1_456
K0 S6 3.391912 1_545
K0 S12 3.444197 1_456
K0 S13 3.643114 1_555
K1 S9 3.135168 1_555
K1 S12 3.325697 1_555
K1 S4 3.372720 1_555
K1 S3 3.372720 1_555
K1 S15 3.448026 1_555
K1 S0 3.708583 1_554
K1 S7 3.708583 1_555
K2 S10 3.135168 1_555
K2 S13 3.325697 1_555
K2 S0 3.372720 1_555
K2 S7 3.372720 1_555
K2 S14 3.448026 1_555
K2 S3 3.708583 1_555
K2 S4 3.708583 1_556
K3 S11 3.135168 1_565
K3 S14 3.325697 1_555
K3 S1 3.372720 1_655
K3 S6 3.372720 1_655
K3 S13 3.448026 1_655
K3 S5 3.708583 1_565
K3 S2 3.708583 1_566
K4 S8 3.217581 1_655
K4 S9 3.236561 1_555
K4 S0 3.241996 1_554
K4 S6 3.328436 1_654
K4 S2 3.391912 1_565
K4 S13 3.444197 1_654
K4 S12 3.643114 1_555
K5 S9 3.217581 1_555
K5 S8 3.236561 1_555
K5 S1 3.241996 1_555
K5 S7 3.328436 1_555
K5 S3 3.391912 1_555
K5 S14 3.444197 1_555
K5 S15 3.643114 1_565
K6 S10 3.217581 1_555
K6 S11 3.236561 1_555
K6 S2 3.241996 1_556
K6 S4 3.328436 1_556
K6 S0 3.391912 1_555
K6 S15 3.444197 1_556
K6 S14 3.643114 1_545
K7 S11 3.217581 1_455
K7 S10 3.236561 1_555
K7 S3 3.241996 1_555
K7 S5 3.328436 1_455
K7 S1 3.391912 1_545
K7 S12 3.444197 1_455
K7 S13 3.643114 1_555
K8 S8 3.217581 1_655
K8 S9 3.236561 1_555
K8 S7 3.241996 1_555
K8 S1 3.328436 1_655
K8 S5 3.391912 1_565
K8 S13 3.444197 1_655
K8 S12 3.643114 1_555
K9 S10 3.217581 1_555
K9 S11 3.236561 1_555
K9 S5 3.241996 1_555
K9 S3 3.328436 1_555
K9 S7 3.391912 1_555
K9 S15 3.444197 1_555
K9 S14 3.643114 1_545
K10 S9 3.217581 1_555
K10 S8 3.236561 1_555
K10 S6 3.241996 1_554
K10 S0 3.328436 1_554
K10 S4 3.391912 1_555
K10 S14 3.444197 1_554
K10 S15 3.643114 1_565
K11 S8 3.135168 1_545
K11 S15 3.325697 1_555
K11 S2 3.372720 1_455
K11 S5 3.372720 1_455
K11 S12 3.448026 1_455
K11 S6 3.708583 1_544
K11 S1 3.708583 1_545
Nb0 S4 2.282673 1_555
Nb0 S3 2.282673 1_555
Nb0 S8 2.288615 1_555
Nb0 S12 2.291265 1_455
Nb1 S5 2.282673 1_565
Nb1 S2 2.282673 1_565
Nb1 S9 2.288615 1_555
Nb1 S15 2.291265 1_565
Nb2 S6 2.282673 1_545
Nb2 S1 2.282673 1_545
Nb2 S10 2.288615 1_555
Nb2 S14 2.291265 1_545
Nb3 S7 2.282673 1_555
Nb3 S0 2.282673 1_555
Nb3 S11 2.288615 1_555
Nb3 S13 2.291265 1_655
