# generated using pymatgen
data_Dy2GaCo2
_symmetry_space_group_name_H-M   'P 1'
_cell_length_a   4.09520233
_cell_length_b   5.32840814
_cell_length_c   5.33683074
_cell_angle_alpha   119.94781990
_cell_angle_beta   112.57483867
_cell_angle_gamma   90.00000000
_symmetry_Int_Tables_number   1
_chemical_formula_structural   Dy2GaCo2
_chemical_formula_sum   'Dy2 Ga1 Co2'
_cell_volume   90.46175246
_cell_formula_units_Z   1
loop_
 _symmetry_equiv_pos_site_id
 _symmetry_equiv_pos_as_xyz
  1  'x, y, z'
loop_
 _atom_site_type_symbol
 _atom_site_label
 _atom_site_symmetry_multiplicity
 _atom_site_fract_x
 _atom_site_fract_y
 _atom_site_fract_z
 _atom_site_occupancy
  Dy  Dy0  1  0.79405006  0.29400288  0.58800767  1
  Dy  Dy1  1  0.20594994  0.70599521  0.41199233  1
  Ga  Ga0  1  -0.00000000  0.00000188  -0.00000000  1
  Co  Co0  1  0.50000000  0.28628051  -0.00000000  1
  Co  Co1  1  0.50000000  0.71371952  0.00000000  1
loop_
_geom_bond_atom_site_label_1
_geom_bond_atom_site_label_2
_geom_bond_distance
_geom_bond_site_symmetry_2
Dy0 Ga0 3.164661 1_656
Dy0 Ga0 3.164686 1_666
Dy0 Ga0 3.183223 1_555
Dy0 Ga0 3.183852 1_655
Dy0 Dy1 3.415948 1_656
Dy0 Dy1 3.438371 1_645
Dy0 Dy1 3.438371 1_655
Dy0 Dy1 3.438580 1_545
Dy0 Dy1 3.438580 1_555
Dy1 Ga0 3.164661 1_555
Dy1 Ga0 3.164687 1_565
Dy1 Ga0 3.183223 1_666
Dy1 Ga0 3.183852 1_566
Co0 Co1 2.277570 1_555
Co0 Ga0 2.553340 1_655
Co0 Ga0 2.553340 1_555
Co0 Dy1 2.875615 1_544
Co0 Dy0 2.875615 1_555
Co0 Dy1 2.898955 1_655
Co0 Dy0 2.898956 1_454
Co0 Dy1 2.899894 1_555
Co0 Dy0 2.899895 1_554
Co0 Co1 3.050839 1_545
Co1 Ga0 2.553352 1_565
Co1 Ga0 2.553352 1_665
Co1 Dy0 2.875609 1_565
Co1 Dy1 2.875610 1_554
Co1 Dy0 2.898959 1_454
Co1 Dy1 2.898960 1_655
Co1 Dy0 2.899898 1_554
Co1 Dy1 2.899899 1_555
