# generated using pymatgen
data_V2GePb5O12
_symmetry_space_group_name_H-M   'P 1'
_cell_length_a   7.47253000
_cell_length_b   10.24783900
_cell_length_c   10.30247155
_cell_angle_alpha   60.23318644
_cell_angle_beta   90.00000000
_cell_angle_gamma   90.00000000
_symmetry_Int_Tables_number   1
_chemical_formula_structural   V2GePb5O12
_chemical_formula_sum   'V4 Ge2 Pb10 O24'
_cell_volume   684.83777574
_cell_formula_units_Z   2
loop_
 _symmetry_equiv_pos_site_id
 _symmetry_equiv_pos_as_xyz
  1  'x, y, z'
loop_
 _atom_site_type_symbol
 _atom_site_label
 _atom_site_symmetry_multiplicity
 _atom_site_fract_x
 _atom_site_fract_y
 _atom_site_fract_z
 _atom_site_occupancy
  V  V0  1  0.50000000  0.98273600  0.39475200  1
  V  V1  1  0.00000000  0.37621500  0.01934700  1
  V  V2  1  0.00000000  0.60515800  0.37832500  1
  V  V3  1  0.00000000  0.01601000  0.60447800  1
  Ge  Ge0  1  0.50000000  0.62326500  0.98388900  1
  Ge  Ge1  1  0.50000000  0.39479800  0.62049000  1
  Pb  Pb0  1  0.73400700  0.33774400  0.33466800  1
  Pb  Pb1  1  0.24999500  0.65724100  0.67572800  1
  Pb  Pb2  1  0.75000500  0.65724100  0.67572800  1
  Pb  Pb3  1  0.26599300  0.33774400  0.33466800  1
  Pb  Pb4  1  0.50000000  0.98257800  0.75996400  1
  Pb  Pb5  1  0.50000000  0.26178300  0.97566700  1
  Pb  Pb6  1  0.50000000  0.74024200  0.25790000  1
  Pb  Pb7  1  0.00000000  0.00351200  0.25153300  1
  Pb  Pb8  1  0.00000000  0.74842500  0.99364800  1
  Pb  Pb9  1  0.00000000  0.25556400  0.74570800  1
  O  O0  1  0.50000000  0.51639600  0.18285300  1
  O  O1  1  0.50000000  0.30681300  0.50931500  1
  O  O2  1  0.50000000  0.17975900  0.30906100  1
  O  O3  1  0.00000000  0.48316800  0.82159200  1
  O  O4  1  0.00000000  0.69738500  0.48253600  1
  O  O5  1  0.00000000  0.81894800  0.69816000  1
  O  O6  1  0.50000000  0.51111300  0.89488700  1
  O  O7  1  0.50000000  0.59509900  0.50748900  1
  O  O8  1  0.50000000  0.89826400  0.59174300  1
  O  O9  1  0.00000000  0.49321600  0.09980900  1
  O  O10  1  0.00000000  0.40737000  0.49309600  1
  O  O11  1  0.00000000  0.09722900  0.40744800  1
  O  O12  1  0.68720500  0.74625500  0.90910100  1
  O  O13  1  0.68653900  0.34757400  0.74412900  1
  O  O14  1  0.68469100  0.91714300  0.34310700  1
  O  O15  1  0.18237200  0.25795800  0.08475300  1
  O  O16  1  0.18399800  0.65528200  0.26091500  1
  O  O17  1  0.18332200  0.08328000  0.65575400  1
  O  O18  1  0.81762800  0.25795800  0.08475300  1
  O  O19  1  0.81600200  0.65528200  0.26091500  1
  O  O20  1  0.81667800  0.08328000  0.65575400  1
  O  O21  1  0.31279500  0.74625500  0.90910100  1
  O  O22  1  0.31346100  0.34757400  0.74412900  1
  O  O23  1  0.31530900  0.91714300  0.34310700  1
loop_
_geom_bond_atom_site_label_1
_geom_bond_atom_site_label_2
_geom_bond_distance
_geom_bond_site_symmetry_2
Ge0 O0 1.781040 1_556
Ge0 O12 1.781816 1_555
Ge0 O21 1.781816 1_555
Ge0 O6 1.791123 1_555
Ge1 O1 1.774914 1_555
Ge1 O13 1.785400 1_555
Ge1 O22 1.785400 1_555
Ge1 O7 1.787710 1_555
O0 Pb0 2.452047 1_555
O0 Pb3 2.452047 1_555
O0 Pb6 2.760621 1_555
O1 Pb0 2.414398 1_555
O1 Pb3 2.414398 1_555
O2 V0 1.756726 1_545
O2 Pb0 2.484465 1_555
O2 Pb3 2.484465 1_555
O3 V1 1.770561 1_556
O3 Pb1 2.503688 1_555
O3 Pb2 2.503688 1_455
O3 Pb9 2.803951 1_555
O4 V2 1.747428 1_555
O4 Pb1 2.609119 1_555
O4 Pb2 2.609119 1_455
O4 Pb7 2.844677 1_565
O5 V3 1.753398 1_565
O5 Pb2 2.582557 1_455
O5 Pb1 2.582557 1_555
O5 Pb8 2.757757 1_555
O6 Pb5 2.260462 1_555
O6 Pb2 2.733728 1_555
O6 Pb1 2.733728 1_555
O7 Pb6 2.242028 1_555
O8 V0 1.767417 1_555
O8 Pb4 2.288461 1_555
O9 V1 1.764001 1_555
O9 Pb8 2.279466 1_554
O10 V2 1.768250 1_555
O10 Pb9 2.274460 1_555
O11 V3 1.770773 1_555
O11 Pb7 2.243747 1_555
O12 Pb8 2.498348 1_655
O12 Pb4 2.547157 1_555
O13 Pb5 2.514709 1_555
O13 Pb9 2.522041 1_655
O14 V0 1.730538 1_555
O14 Pb7 2.528992 1_665
O14 Pb6 2.746254 1_555
O15 V1 1.723088 1_555
O15 Pb5 2.618067 1_554
O15 Pb7 2.675811 1_555
O16 V2 1.732195 1_555
O16 Pb6 2.511584 1_555
O16 Pb8 2.788124 1_554
O17 V3 1.729877 1_555
O17 Pb4 2.591773 1_545
O17 Pb9 2.734451 1_555
O18 V1 1.723088 1_655
O18 Pb5 2.618067 1_554
O18 Pb7 2.675811 1_655
O19 V2 1.732195 1_655
O19 Pb6 2.511584 1_555
O19 Pb8 2.788124 1_654
O20 V3 1.729877 1_655
O20 Pb4 2.591773 1_545
O20 Pb9 2.734451 1_655
O21 Pb8 2.498348 1_555
O21 Pb4 2.547157 1_555
O22 Pb5 2.514709 1_555
O22 Pb9 2.522041 1_555
O23 V0 1.730538 1_555
O23 Pb7 2.528992 1_565
O23 Pb6 2.746254 1_555
