# generated using pymatgen
data_Na2NbO4F5
_symmetry_space_group_name_H-M   'P 1'
_cell_length_a   6.12659652
_cell_length_b   6.12659652
_cell_length_c   10.73088900
_cell_angle_alpha   90.00000000
_cell_angle_beta   90.00000000
_cell_angle_gamma   106.14835881
_symmetry_Int_Tables_number   1
_chemical_formula_structural   Na2NbO4F5
_chemical_formula_sum   'Na4 Nb2 O8 F10'
_cell_volume   386.89388535
_cell_formula_units_Z   2
loop_
 _symmetry_equiv_pos_site_id
 _symmetry_equiv_pos_as_xyz
  1  'x, y, z'
loop_
 _atom_site_type_symbol
 _atom_site_label
 _atom_site_symmetry_multiplicity
 _atom_site_fract_x
 _atom_site_fract_y
 _atom_site_fract_z
 _atom_site_occupancy
  Na  Na0  1  0.60769400  0.35295700  0.85823600  1
  Na  Na1  1  0.35295700  0.60769400  0.14176400  1
  Na  Na2  1  0.10769400  0.85295700  0.64176400  1
  Na  Na3  1  0.85295700  0.10769400  0.35823600  1
  Nb  Nb0  1  0.51651200  0.51651100  0.50000000  1
  Nb  Nb1  1  0.01651200  0.01651200  0.00000000  1
  O  O0  1  0.96848700  0.49424100  0.74437000  1
  O  O1  1  0.49424100  0.96848700  0.25563000  1
  O  O2  1  0.46848700  0.99424100  0.75563000  1
  O  O3  1  0.99424100  0.46848700  0.24437000  1
  O  O4  1  0.25000500  0.25091800  0.56463300  1
  O  O5  1  0.25091800  0.25000500  0.43536700  1
  O  O6  1  0.75000500  0.75091800  0.93536700  1
  O  O7  1  0.75091800  0.75000500  0.06463300  1
  F  F0  1  0.57002900  0.55578000  0.68195300  1
  F  F1  1  0.55578000  0.57002900  0.31804700  1
  F  F2  1  0.07002900  0.05578000  0.81804700  1
  F  F3  1  0.05578000  0.07002900  0.18195300  1
  F  F4  1  0.71047600  0.31403400  0.49793800  1
  F  F5  1  0.31403400  0.71047600  0.50206200  1
  F  F6  1  0.21047600  0.81403400  0.00206200  1
  F  F7  1  0.81403400  0.21047600  0.99793800  1
  F  F8  1  0.78926900  0.78926900  0.50000000  1
  F  F9  1  0.28926900  0.28926900  0.00000000  1
loop_
_geom_bond_atom_site_label_1
_geom_bond_atom_site_label_2
_geom_bond_distance
_geom_bond_site_symmetry_2
Na0 O2 2.393117 1_545
Na0 O0 2.462513 1_555
Na0 O6 2.491452 1_555
Na1 O3 2.393117 1_455
Na1 O1 2.462513 1_555
Na1 O7 2.491452 1_555
Na2 O0 2.393117 1_455
Na2 O2 2.462513 1_555
Na2 O4 2.491452 1_565
Na3 O1 2.393117 1_545
Na3 O3 2.462513 1_555
Na3 O5 2.491452 1_655
Nb0 O5 2.077707 1_555
Nb0 O4 2.077707 1_555
Nb1 O7 2.077710 1_445
Nb1 O6 2.077710 1_444
O4 O5 1.387168 1_555
O6 O7 1.387168 1_556
F0 Nb0 1.983389 1_555
F0 Na0 2.309820 1_555
F1 Nb0 1.983389 1_555
F1 Na1 2.309820 1_555
F2 Nb1 1.983388 1_556
F2 Na2 2.309820 1_545
F3 Nb1 1.983388 1_555
F3 Na3 2.309820 1_455
F4 Nb0 1.942023 1_555
F4 Na3 2.285019 1_555
F5 Nb0 1.942033 1_555
F5 Na2 2.285019 1_555
F6 Nb1 1.942028 1_565
F6 Na1 2.285019 1_555
F7 Nb1 1.942028 1_656
F7 Na0 2.285019 1_555
F8 Nb0 2.007899 1_555
F8 Na3 2.418450 1_565
F8 Na2 2.418450 1_655
F9 Nb1 2.007895 1_555
F9 Na1 2.418450 1_555
F9 Na0 2.418450 1_554
