# generated using pymatgen
data_Yb2Zn17
_symmetry_space_group_name_H-M   'P 1'
_cell_length_a   8.70485600
_cell_length_b   9.02417667
_cell_length_c   9.02417667
_cell_angle_alpha   119.79852479
_cell_angle_beta   90.00000000
_cell_angle_gamma   90.00000000
_symmetry_Int_Tables_number   1
_chemical_formula_structural   Yb2Zn17
_chemical_formula_sum   'Yb4 Zn34'
_cell_volume   615.15637526
_cell_formula_units_Z   2
loop_
 _symmetry_equiv_pos_site_id
 _symmetry_equiv_pos_as_xyz
  1  'x, y, z'
loop_
 _atom_site_type_symbol
 _atom_site_label
 _atom_site_symmetry_multiplicity
 _atom_site_fract_x
 _atom_site_fract_y
 _atom_site_fract_z
 _atom_site_occupancy
  Yb  Yb0  1  0.75000000  0.00018800  0.99981200  1
  Yb  Yb1  1  0.25000000  0.99981200  0.00018800  1
  Yb  Yb2  1  0.25000000  0.66675900  0.33324100  1
  Yb  Yb3  1  0.75000000  0.33324100  0.66675900  1
  Zn  Zn0  1  0.59213300  0.66663700  0.33336300  1
  Zn  Zn1  1  0.40786700  0.33336300  0.66663700  1
  Zn  Zn2  1  0.09213300  0.33336300  0.66663700  1
  Zn  Zn3  1  0.90786700  0.66663700  0.33336300  1
  Zn  Zn4  1  0.50000000  0.50000000  0.00000000  1
  Zn  Zn5  1  0.50000000  0.50000000  0.50000000  1
  Zn  Zn6  1  0.50000000  0.00000000  0.50000000  1
  Zn  Zn7  1  0.00000000  0.50000000  0.00000000  1
  Zn  Zn8  1  0.00000000  0.50000000  0.50000000  1
  Zn  Zn9  1  0.00000000  0.00000000  0.50000000  1
  Zn  Zn10  1  0.75000000  0.67014200  0.02890300  1
  Zn  Zn11  1  0.75000000  0.35894100  0.33004900  1
  Zn  Zn12  1  0.75000000  0.97146600  0.64176400  1
  Zn  Zn13  1  0.75000000  0.35823600  0.02853400  1
  Zn  Zn14  1  0.75000000  0.97109700  0.32985800  1
  Zn  Zn15  1  0.75000000  0.66995100  0.64105900  1
  Zn  Zn16  1  0.25000000  0.32985800  0.97109700  1
  Zn  Zn17  1  0.25000000  0.64105900  0.66995100  1
  Zn  Zn18  1  0.25000000  0.02853400  0.35823600  1
  Zn  Zn19  1  0.25000000  0.64176400  0.97146600  1
  Zn  Zn20  1  0.25000000  0.02890300  0.67014200  1
  Zn  Zn21  1  0.25000000  0.33004900  0.35894100  1
  Zn  Zn22  1  0.48207300  0.83585700  0.67170000  1
  Zn  Zn23  1  0.48185800  0.83612700  0.16387300  1
  Zn  Zn24  1  0.48207300  0.32830000  0.16414300  1
  Zn  Zn25  1  0.51792700  0.16414300  0.32830000  1
  Zn  Zn26  1  0.51814200  0.16387300  0.83612700  1
  Zn  Zn27  1  0.51792700  0.67170000  0.83585700  1
  Zn  Zn28  1  0.98207300  0.16414300  0.32830000  1
  Zn  Zn29  1  0.98185800  0.16387300  0.83612700  1
  Zn  Zn30  1  0.98207300  0.67170000  0.83585700  1
  Zn  Zn31  1  0.01792700  0.83585700  0.67170000  1
  Zn  Zn32  1  0.01814200  0.83612700  0.16387300  1
  Zn  Zn33  1  0.01792700  0.32830000  0.16414300  1
loop_
_geom_bond_atom_site_label_1
_geom_bond_atom_site_label_2
_geom_bond_distance
_geom_bond_site_symmetry_2
Yb0 Zn13 3.110425 1_556
Yb0 Zn12 3.110425 1_545
Yb0 Zn14 3.117190 1_546
Yb0 Zn10 3.117190 1_546
Yb0 Zn15 3.126183 1_545
Yb0 Zn11 3.126183 1_556
Yb0 Zn29 3.256665 1_555
Yb0 Zn26 3.256665 1_555
Yb0 Zn27 3.270819 1_545
Yb0 Zn28 3.270819 1_556
Yb0 Zn25 3.270819 1_556
Yb0 Zn30 3.270819 1_545
Yb0 Zn23 3.465633 1_546
Yb0 Zn32 3.465633 1_646
Yb0 Zn22 3.470103 1_545
Yb0 Zn33 3.470103 1_656
Yb0 Zn24 3.470103 1_556
Yb0 Zn31 3.470103 1_645
Yb1 Zn18 3.110425 1_565
Yb1 Zn19 3.110425 1_554
Yb1 Zn16 3.117190 1_564
Yb1 Zn20 3.117190 1_564
Yb1 Zn21 3.126183 1_565
Yb1 Zn17 3.126183 1_554
Yb1 Zn32 3.256665 1_555
Yb1 Zn23 3.256665 1_555
Yb1 Zn24 3.270819 1_565
Yb1 Zn31 3.270819 1_554
Yb1 Zn33 3.270819 1_565
Yb1 Zn22 3.270819 1_554
Yb1 Zn26 3.465633 1_564
Yb1 Zn29 3.465633 1_464
Yb1 Zn27 3.470103 1_554
Yb1 Zn28 3.470103 1_465
Yb1 Zn30 3.470103 1_454
Yb1 Zn25 3.470103 1_565
Yb2 Zn0 2.978219 1_555
Yb2 Zn3 2.978219 1_455
Yb2 Zn19 3.158700 1_554
Yb2 Zn18 3.158700 1_565
Yb2 Zn17 3.160199 1_555
Yb2 Zn21 3.160199 1_555
Yb2 Zn20 3.169886 1_565
Yb2 Zn16 3.169886 1_554
Yb2 Zn23 3.326761 1_555
Yb2 Zn32 3.326761 1_555
Yb2 Zn31 3.332581 1_555
Yb2 Zn22 3.332581 1_555
Yb2 Zn33 3.332581 1_555
Yb2 Zn24 3.332581 1_555
Yb2 Zn8 3.393514 1_555
Yb2 Zn5 3.393514 1_555
Yb2 Zn9 3.397949 1_565
Yb2 Zn6 3.397949 1_565
Yb2 Zn7 3.397949 1_555
Yb2 Zn4 3.397949 1_555
Yb3 Zn1 2.978219 1_555
Yb3 Zn2 2.978219 1_655
Yb3 Zn12 3.158700 1_545
Yb3 Zn13 3.158700 1_556
Yb3 Zn15 3.160199 1_555
Yb3 Zn11 3.160199 1_555
Yb3 Zn10 3.169886 1_556
Yb3 Zn14 3.169886 1_545
Yb3 Zn26 3.326761 1_555
Yb3 Zn29 3.326761 1_555
Yb3 Zn30 3.332581 1_555
Yb3 Zn27 3.332581 1_555
Yb3 Zn28 3.332581 1_555
Yb3 Zn25 3.332581 1_555
Yb3 Zn5 3.393514 1_555
Yb3 Zn8 3.393514 1_655
Yb3 Zn7 3.397949 1_656
Yb3 Zn4 3.397949 1_556
Yb3 Zn9 3.397949 1_655
Yb3 Zn6 3.397949 1_555
Zn0 Zn5 2.722742 1_555
Zn0 Zn6 2.730991 1_565
Zn0 Zn4 2.730991 1_555
Zn0 Zn3 2.748419 1_555
Zn0 Zn23 2.815205 1_555
Zn0 Zn22 2.817424 1_555
Zn0 Zn24 2.817424 1_555
Zn0 Zn11 3.084946 1_555
Zn0 Zn15 3.084946 1_555
Zn0 Zn14 3.086193 1_555
Zn0 Zn10 3.086193 1_555
Zn1 Zn5 2.722742 1_555
Zn1 Zn4 2.730991 1_556
Zn1 Zn6 2.730991 1_555
Zn1 Zn2 2.748419 1_555
Zn1 Zn26 2.815205 1_555
Zn1 Zn27 2.817424 1_555
Zn1 Zn25 2.817424 1_555
Zn1 Zn21 3.084946 1_555
Zn1 Zn17 3.084946 1_555
Zn1 Zn16 3.086193 1_555
Zn1 Zn20 3.086193 1_555
Zn2 Zn8 2.722742 1_555
Zn2 Zn7 2.730991 1_556
Zn2 Zn9 2.730991 1_555
Zn2 Zn29 2.815205 1_455
Zn2 Zn30 2.817424 1_455
Zn2 Zn28 2.817424 1_455
Zn2 Zn21 3.084946 1_555
Zn2 Zn20 3.086193 1_555
Zn3 Zn8 2.722742 1_655
Zn3 Zn7 2.730991 1_655
Zn3 Zn9 2.730991 1_665
Zn3 Zn32 2.815205 1_655
Zn3 Zn31 2.817424 1_655
Zn3 Zn33 2.817424 1_655
Zn10 Zn7 2.600642 1_655
Zn10 Zn4 2.600642 1_555
Zn10 Zn27 2.672161 1_554
Zn10 Zn30 2.672161 1_554
Zn10 Zn23 2.713312 1_555
Zn10 Zn32 2.713312 1_655
Zn10 Zn14 2.724138 1_555
Zn10 Zn13 2.813042 1_555
Zn10 Zn3 3.086193 1_555
Zn11 Zn8 2.601549 1_655
Zn11 Zn5 2.601549 1_555
Zn11 Zn25 2.672809 1_555
Zn11 Zn28 2.672809 1_555
Zn11 Zn24 2.710345 1_555
Zn11 Zn33 2.710345 1_655
Zn11 Zn13 2.717769 1_555
Zn11 Zn15 2.815152 1_555
Zn11 Zn3 3.084946 1_555
Zn12 Zn6 2.601199 1_565
Zn12 Zn9 2.601199 1_665
Zn12 Zn29 2.671668 1_565
Zn12 Zn26 2.671668 1_565
Zn12 Zn22 2.708987 1_555
Zn12 Zn31 2.708987 1_655
Zn12 Zn15 2.717769 1_555
Zn12 Zn14 2.813042 1_555
Zn13 Zn4 2.601199 1_555
Zn13 Zn7 2.601199 1_655
Zn13 Zn29 2.671668 1_554
Zn13 Zn26 2.671668 1_554
Zn13 Zn33 2.708987 1_655
Zn13 Zn24 2.708987 1_555
Zn14 Zn6 2.600642 1_565
Zn14 Zn9 2.600642 1_665
Zn14 Zn28 2.672161 1_565
Zn14 Zn25 2.672161 1_565
Zn14 Zn23 2.713312 1_555
Zn14 Zn32 2.713312 1_655
Zn14 Zn3 3.086193 1_555
Zn15 Zn5 2.601549 1_555
Zn15 Zn8 2.601549 1_655
Zn15 Zn30 2.672809 1_555
Zn15 Zn27 2.672809 1_555
Zn15 Zn22 2.710345 1_555
Zn15 Zn31 2.710345 1_655
Zn15 Zn3 3.084946 1_555
Zn16 Zn4 2.600642 1_556
Zn16 Zn7 2.600642 1_556
Zn16 Zn33 2.672161 1_556
Zn16 Zn24 2.672161 1_556
Zn16 Zn26 2.713312 1_555
Zn16 Zn29 2.713312 1_455
Zn16 Zn20 2.724138 1_555
Zn16 Zn19 2.813042 1_555
Zn16 Zn2 3.086193 1_555
Zn17 Zn8 2.601549 1_555
Zn17 Zn5 2.601549 1_555
Zn17 Zn31 2.672809 1_555
Zn17 Zn22 2.672809 1_555
Zn17 Zn30 2.710345 1_455
Zn17 Zn27 2.710345 1_555
Zn17 Zn19 2.717769 1_555
Zn17 Zn21 2.815152 1_555
Zn17 Zn2 3.084946 1_555
Zn18 Zn9 2.601199 1_555
Zn18 Zn6 2.601199 1_555
Zn18 Zn32 2.671668 1_545
Zn18 Zn23 2.671668 1_545
Zn18 Zn28 2.708987 1_455
Zn18 Zn25 2.708987 1_555
Zn18 Zn21 2.717769 1_555
Zn18 Zn20 2.813042 1_555
Zn19 Zn4 2.601199 1_556
Zn19 Zn7 2.601199 1_556
Zn19 Zn23 2.671668 1_556
Zn19 Zn32 2.671668 1_556
Zn19 Zn30 2.708987 1_455
Zn19 Zn27 2.708987 1_555
Zn20 Zn9 2.600642 1_555
Zn20 Zn6 2.600642 1_555
Zn20 Zn31 2.672161 1_545
Zn20 Zn22 2.672161 1_545
Zn20 Zn26 2.713312 1_555
Zn20 Zn29 2.713312 1_455
Zn21 Zn8 2.601549 1_555
Zn21 Zn5 2.601549 1_555
Zn21 Zn24 2.672809 1_555
Zn21 Zn33 2.672809 1_555
Zn21 Zn28 2.710345 1_455
Zn21 Zn25 2.710345 1_555
Zn22 Zn27 2.582151 1_555
Zn22 Zn26 2.587838 1_565
Zn22 Zn6 2.626863 1_565
Zn22 Zn5 2.635072 1_555
Zn23 Zn25 2.587838 1_565
Zn23 Zn27 2.587838 1_554
Zn23 Zn4 2.637093 1_555
Zn23 Zn6 2.637093 1_565
Zn24 Zn25 2.582151 1_555
Zn24 Zn26 2.587838 1_554
Zn24 Zn4 2.626863 1_555
Zn24 Zn5 2.635072 1_555
Zn25 Zn6 2.626863 1_555
Zn25 Zn5 2.635072 1_555
Zn26 Zn6 2.637093 1_555
Zn26 Zn4 2.637093 1_556
Zn27 Zn4 2.626863 1_556
Zn27 Zn5 2.635072 1_555
Zn28 Zn33 2.582151 1_655
Zn28 Zn32 2.587838 1_645
Zn28 Zn9 2.626863 1_655
Zn28 Zn8 2.635072 1_655
Zn29 Zn33 2.587838 1_656
Zn29 Zn31 2.587838 1_645
Zn29 Zn9 2.637093 1_655
Zn29 Zn7 2.637093 1_656
Zn30 Zn31 2.582151 1_655
Zn30 Zn32 2.587838 1_656
Zn30 Zn7 2.626863 1_656
Zn30 Zn8 2.635072 1_655
Zn31 Zn9 2.626863 1_565
Zn31 Zn8 2.635072 1_555
Zn32 Zn7 2.637093 1_555
Zn32 Zn9 2.637093 1_565
Zn33 Zn7 2.626863 1_555
Zn33 Zn8 2.635072 1_555
