# generated using pymatgen
data_U2BiTe2
_symmetry_space_group_name_H-M   'P 1'
_cell_length_a   6.17311800
_cell_length_b   6.17311800
_cell_length_c   34.92313600
_cell_angle_alpha   90.00000000
_cell_angle_beta   90.00000000
_cell_angle_gamma   90.00000000
_symmetry_Int_Tables_number   1
_chemical_formula_structural   U2BiTe2
_chemical_formula_sum   'U16 Bi8 Te16'
_cell_volume   1330.82941836
_cell_formula_units_Z   8
loop_
 _symmetry_equiv_pos_site_id
 _symmetry_equiv_pos_as_xyz
  1  'x, y, z'
loop_
 _atom_site_type_symbol
 _atom_site_label
 _atom_site_symmetry_multiplicity
 _atom_site_fract_x
 _atom_site_fract_y
 _atom_site_fract_z
 _atom_site_occupancy
  U  U0_0  1  0.25000000  0.25000000  0.09289750  1
  U  U0_1  1  0.25000000  0.25000000  0.59289750  1
  U  U0_2  1  0.25000000  0.75000000  0.09289750  1
  U  U0_3  1  0.25000000  0.75000000  0.59289750  1
  U  U0_4  1  0.75000000  0.25000000  0.09289750  1
  U  U0_5  1  0.75000000  0.25000000  0.59289750  1
  U  U0_6  1  0.75000000  0.75000000  0.09289750  1
  U  U0_7  1  0.75000000  0.75000000  0.59289750  1
  U  U1_0  1  0.25000000  0.25000000  0.40710250  1
  U  U1_1  1  0.25000000  0.25000000  0.90710250  1
  U  U1_2  1  0.25000000  0.75000000  0.40710250  1
  U  U1_3  1  0.25000000  0.75000000  0.90710250  1
  U  U1_4  1  0.75000000  0.25000000  0.40710250  1
  U  U1_5  1  0.75000000  0.25000000  0.90710250  1
  U  U1_6  1  0.75000000  0.75000000  0.40710250  1
  U  U1_7  1  0.75000000  0.75000000  0.90710250  1
  Bi  Bi0_0  1  0.25000000  0.25000000  0.00000000  1
  Bi  Bi0_1  1  0.25000000  0.25000000  0.50000000  1
  Bi  Bi0_2  1  0.25000000  0.75000000  0.00000000  1
  Bi  Bi0_3  1  0.25000000  0.75000000  0.50000000  1
  Bi  Bi0_4  1  0.75000000  0.25000000  0.00000000  1
  Bi  Bi0_5  1  0.75000000  0.25000000  0.50000000  1
  Bi  Bi0_6  1  0.75000000  0.75000000  0.00000000  1
  Bi  Bi0_7  1  0.75000000  0.75000000  0.50000000  1
  Te  Te0_0  1  0.25000000  0.25000000  0.31884000  1
  Te  Te0_1  1  0.25000000  0.25000000  0.81884000  1
  Te  Te0_2  1  0.25000000  0.75000000  0.31884000  1
  Te  Te0_3  1  0.25000000  0.75000000  0.81884000  1
  Te  Te0_4  1  0.75000000  0.25000000  0.31884000  1
  Te  Te0_5  1  0.75000000  0.25000000  0.81884000  1
  Te  Te0_6  1  0.75000000  0.75000000  0.31884000  1
  Te  Te0_7  1  0.75000000  0.75000000  0.81884000  1
  Te  Te1_0  1  0.25000000  0.25000000  0.18116000  1
  Te  Te1_1  1  0.25000000  0.25000000  0.68116000  1
  Te  Te1_2  1  0.25000000  0.75000000  0.18116000  1
  Te  Te1_3  1  0.25000000  0.75000000  0.68116000  1
  Te  Te1_4  1  0.75000000  0.25000000  0.18116000  1
  Te  Te1_5  1  0.75000000  0.25000000  0.68116000  1
  Te  Te1_6  1  0.75000000  0.75000000  0.18116000  1
  Te  Te1_7  1  0.75000000  0.75000000  0.68116000  1
loop_
_geom_bond_atom_site_label_1
_geom_bond_atom_site_label_2
_geom_bond_distance
_geom_bond_site_symmetry_2
U0_0 U0_2 3.086559 1_545
U0_0 U0_4 3.086559 1_455
U0_0 U0_4 3.086559 1_555
U0_0 U0_2 3.086559 1_555
U0_1 U0_5 3.086559 1_455
U0_1 U0_3 3.086559 1_545
U0_1 U0_3 3.086559 1_555
U0_1 U0_5 3.086559 1_555
U0_2 U0_6 3.086559 1_455
U0_2 U0_6 3.086559 1_555
U0_3 U0_7 3.086559 1_455
U0_3 U0_7 3.086559 1_555
U0_4 U0_6 3.086559 1_545
U0_4 U0_6 3.086559 1_555
U0_5 U0_7 3.086559 1_545
U0_5 U0_7 3.086559 1_555
U1_0 U1_2 3.086559 1_545
U1_0 U1_4 3.086559 1_455
U1_0 U1_4 3.086559 1_555
U1_0 U1_2 3.086559 1_555
U1_1 U1_3 3.086559 1_545
U1_1 U1_5 3.086559 1_455
U1_1 U1_3 3.086559 1_555
U1_1 U1_5 3.086559 1_555
U1_2 U1_6 3.086559 1_455
U1_2 U1_6 3.086559 1_555
U1_3 U1_7 3.086559 1_455
U1_3 U1_7 3.086559 1_555
U1_4 U1_6 3.086559 1_545
U1_4 U1_6 3.086559 1_555
U1_5 U1_7 3.086559 1_545
U1_5 U1_7 3.086559 1_555
Bi0_0 Bi0_4 3.086559 1_455
Bi0_0 Bi0_2 3.086559 1_545
Bi0_0 Bi0_2 3.086559 1_555
Bi0_0 Bi0_4 3.086559 1_555
Bi0_0 U1_1 3.244272 1_554
Bi0_0 U0_0 3.244272 1_555
Bi0_1 Bi0_3 3.086559 1_545
Bi0_1 Bi0_5 3.086559 1_455
Bi0_1 Bi0_5 3.086559 1_555
Bi0_1 Bi0_3 3.086559 1_555
Bi0_1 U1_0 3.244272 1_555
Bi0_1 U0_1 3.244272 1_555
Bi0_2 Bi0_6 3.086559 1_455
Bi0_2 Bi0_6 3.086559 1_555
Bi0_2 U1_3 3.244272 1_554
Bi0_2 U0_2 3.244272 1_555
Bi0_3 Bi0_7 3.086559 1_455
Bi0_3 Bi0_7 3.086559 1_555
Bi0_3 U1_2 3.244272 1_555
Bi0_3 U0_3 3.244272 1_555
Bi0_4 Bi0_6 3.086559 1_545
Bi0_4 Bi0_6 3.086559 1_555
Bi0_4 U1_5 3.244272 1_554
Bi0_4 U0_4 3.244272 1_555
Bi0_5 Bi0_7 3.086559 1_545
Bi0_5 Bi0_7 3.086559 1_555
Bi0_5 U1_4 3.244272 1_555
Bi0_5 U0_5 3.244272 1_555
Bi0_6 U1_7 3.244272 1_554
Bi0_6 U0_6 3.244272 1_555
Bi0_7 U1_6 3.244272 1_555
Bi0_7 U0_7 3.244272 1_555
Te0_0 U1_0 3.082403 1_555
Te0_1 U1_1 3.082403 1_555
Te0_2 U1_2 3.082403 1_555
Te0_3 U1_3 3.082403 1_555
Te0_4 U1_4 3.082403 1_555
Te0_5 U1_5 3.082403 1_555
Te0_6 U1_6 3.082403 1_555
Te0_7 U1_7 3.082403 1_555
Te1_0 U0_0 3.082403 1_555
Te1_1 U0_1 3.082403 1_555
Te1_2 U0_2 3.082403 1_555
Te1_3 U0_3 3.082403 1_555
Te1_4 U0_4 3.082403 1_555
Te1_5 U0_5 3.082403 1_555
Te1_6 U0_6 3.082403 1_555
Te1_7 U0_7 3.082403 1_555
