# generated using pymatgen
data_TiCuSn
_symmetry_space_group_name_H-M   'P 1'
_cell_length_a   4.38902779
_cell_length_b   4.38902779
_cell_length_c   6.00583146
_cell_angle_alpha   90.00000000
_cell_angle_beta   90.00000000
_cell_angle_gamma   120.00001036
_symmetry_Int_Tables_number   1
_chemical_formula_structural   TiCuSn
_chemical_formula_sum   'Ti2 Cu2 Sn2'
_cell_volume   100.19369376
_cell_formula_units_Z   2
loop_
 _symmetry_equiv_pos_site_id
 _symmetry_equiv_pos_as_xyz
  1  'x, y, z'
loop_
 _atom_site_type_symbol
 _atom_site_label
 _atom_site_symmetry_multiplicity
 _atom_site_fract_x
 _atom_site_fract_y
 _atom_site_fract_z
 _atom_site_occupancy
  Ti  Ti0  1  0.00000000  0.00000000  0.99862318  1
  Ti  Ti1  1  0.00000000  0.00000000  0.49862318  1
  Cu  Cu0  1  0.33333300  0.66666700  0.77982866  1
  Cu  Cu1  1  0.66666700  0.33333300  0.27982866  1
  Sn  Sn0  1  0.33333300  0.66666700  0.24354816  1
  Sn  Sn1  1  0.66666700  0.33333300  0.74354816  1
loop_
_geom_bond_atom_site_label_1
_geom_bond_atom_site_label_2
_geom_bond_distance
_geom_bond_site_symmetry_2
Ti0 Ti1 3.002916 1_555
Ti0 Ti1 3.002916 1_556
Cu0 Sn1 2.543355 1_565
Cu0 Sn1 2.543355 1_455
Cu0 Sn1 2.543362 1_555
Cu0 Sn0 2.785021 1_556
Cu0 Ti0 2.854450 1_565
Cu0 Ti0 2.854453 1_665
Cu0 Ti0 2.854453 1_555
Cu0 Ti1 3.045237 1_565
Cu0 Ti1 3.045240 1_555
Cu0 Ti1 3.045240 1_665
Cu0 Sn0 3.220810 1_555
Cu1 Sn0 2.543355 1_545
Cu1 Sn0 2.543355 1_655
Cu1 Sn0 2.543362 1_555
Cu1 Sn1 2.785021 1_555
Cu1 Ti1 2.854450 1_655
Cu1 Ti1 2.854453 1_555
Cu1 Ti1 2.854453 1_665
Cu1 Ti0 3.045237 1_654
Cu1 Ti0 3.045240 1_554
Cu1 Ti0 3.045240 1_664
Cu1 Sn1 3.220810 1_554
Sn0 Ti0 2.930009 1_564
Sn0 Ti0 2.930012 1_554
Sn0 Ti0 2.930012 1_664
Sn0 Ti1 2.961082 1_565
Sn0 Ti1 2.961085 1_555
Sn0 Ti1 2.961085 1_665
Sn1 Ti1 2.930009 1_655
Sn1 Ti1 2.930012 1_555
Sn1 Ti1 2.930012 1_665
Sn1 Ti0 2.961082 1_655
Sn1 Ti0 2.961085 1_555
Sn1 Ti0 2.961085 1_665
