# generated using pymatgen
data_Na6Sn4Ge5O22
_symmetry_space_group_name_H-M   'P 1'
_cell_length_a   6.52927800
_cell_length_b   10.39560974
_cell_length_c   15.79018457
_cell_angle_alpha   91.67294197
_cell_angle_beta   96.74861810
_cell_angle_gamma   107.62575932
_symmetry_Int_Tables_number   1
_chemical_formula_structural   Na6Sn4Ge5O22
_chemical_formula_sum   'Na12 Sn8 Ge10 O44'
_cell_volume   1012.00109031
_cell_formula_units_Z   2
loop_
 _symmetry_equiv_pos_site_id
 _symmetry_equiv_pos_as_xyz
  1  'x, y, z'
loop_
 _atom_site_type_symbol
 _atom_site_label
 _atom_site_symmetry_multiplicity
 _atom_site_fract_x
 _atom_site_fract_y
 _atom_site_fract_z
 _atom_site_occupancy
  Na  Na0  1  0.38187500  0.14051300  0.45431900  1
  Na  Na1  1  0.61812500  0.85948700  0.54568100  1
  Na  Na2  1  0.11585300  0.35843800  0.75490000  1
  Na  Na3  1  0.88414700  0.64156200  0.24510000  1
  Na  Na4  1  0.17926100  0.02637700  0.26421300  1
  Na  Na5  1  0.82073900  0.97362300  0.73578700  1
  Na  Na6  1  0.27138400  0.98050200  0.05306000  1
  Na  Na7  1  0.72861600  0.01949800  0.94694000  1
  Na  Na8  1  0.26473800  0.45516400  0.55288500  1
  Na  Na9  1  0.73526200  0.54483600  0.44711500  1
  Na  Na10  1  0.62019900  0.39048600  0.05150400  1
  Na  Na11  1  0.37980100  0.60951400  0.94849600  1
  Sn  Sn0  1  0.73428200  0.94774300  0.34158800  1
  Sn  Sn1  1  0.26571800  0.05225700  0.65841200  1
  Sn  Sn2  1  0.15251300  0.82363900  0.84561000  1
  Sn  Sn3  1  0.84748700  0.17636100  0.15439000  1
  Sn  Sn4  1  0.27375700  0.53115000  0.15926300  1
  Sn  Sn5  1  0.72624300  0.46885000  0.84073700  1
  Sn  Sn6  1  0.90820800  0.67803900  0.66001400  1
  Sn  Sn7  1  0.09179200  0.32196100  0.33998600  1
  Ge  Ge0  1  0.33019100  0.65961200  0.36766300  1
  Ge  Ge1  1  0.66980900  0.34038800  0.63233700  1
  Ge  Ge2  1  0.69709200  0.83531500  0.13355600  1
  Ge  Ge3  1  0.30290800  0.16468500  0.86644400  1
  Ge  Ge4  1  0.09349300  0.84369100  0.48356300  1
  Ge  Ge5  1  0.90650700  0.15630900  0.51643700  1
  Ge  Ge6  1  0.95066900  0.67660800  0.01886100  1
  Ge  Ge7  1  0.04933100  0.32339200  0.98113900  1
  Ge  Ge8  1  0.42290700  0.66023700  0.73174200  1
  Ge  Ge9  1  0.57709300  0.33976300  0.26825800  1
  O  O0  1  0.82218300  0.39551700  0.34409600  1
  O  O1  1  0.17781700  0.60448300  0.65590400  1
  O  O2  1  0.36205100  0.25236500  0.32525900  1
  O  O3  1  0.63794900  0.74763500  0.67474100  1
  O  O4  1  0.88864200  0.12942400  0.28511900  1
  O  O5  1  0.11135800  0.87057600  0.71488100  1
  O  O6  1  0.82380500  0.84950000  0.24065700  1
  O  O7  1  0.17619500  0.15050000  0.75934300  1
  O  O8  1  0.54121000  0.49246700  0.22903400  1
  O  O9  1  0.45879000  0.50753300  0.77096600  1
  O  O10  1  0.07087800  0.36207400  0.21062300  1
  O  O11  1  0.92912200  0.63792600  0.78937700  1
  O  O12  1  0.58832300  0.23948800  0.17641100  1
  O  O13  1  0.41167700  0.76051200  0.82358900  1
  O  O14  1  0.98965700  0.56514200  0.09779600  1
  O  O15  1  0.01034300  0.43485800  0.90220400  1
  O  O16  1  0.47560900  0.69006000  0.10459600  1
  O  O17  1  0.52439100  0.30994000  0.89540400  1
  O  O18  1  0.90644000  0.82067400  0.07122900  1
  O  O19  1  0.09356000  0.17932600  0.92877100  1
  O  O20  1  0.82208600  0.24523300  0.03285300  1
  O  O21  1  0.17791400  0.75476700  0.96714700  1
  O  O22  1  0.28379700  0.41440600  0.05190200  1
  O  O23  1  0.71620300  0.58559400  0.94809800  1
  O  O24  1  0.35345600  0.01379200  0.90002600  1
  O  O25  1  0.64654400  0.98620800  0.09997400  1
  O  O26  1  0.76181300  0.34437400  0.74180100  1
  O  O27  1  0.23818700  0.65562600  0.25819900  1
  O  O28  1  0.96610300  0.04442100  0.59128400  1
  O  O29  1  0.03389700  0.95557900  0.40871600  1
  O  O30  1  0.40451600  0.23263200  0.60145600  1
  O  O31  1  0.59548400  0.76736800  0.39854400  1
  O  O32  1  0.68134100  0.50225300  0.59715900  1
  O  O33  1  0.31865900  0.49774700  0.40284100  1
  O  O34  1  0.86360600  0.29272200  0.57724300  1
  O  O35  1  0.13639400  0.70727800  0.42275700  1
  O  O36  1  0.88828900  0.74689100  0.53956600  1
  O  O37  1  0.11171100  0.25310900  0.46043400  1
  O  O38  1  0.67789700  0.05975200  0.44497300  1
  O  O39  1  0.32210300  0.94024800  0.55502700  1
  O  O40  1  0.44304800  0.93357300  0.27139600  1
  O  O41  1  0.55695200  0.06642700  0.72860400  1
  O  O42  1  0.10626900  0.10911900  0.13124200  1
  O  O43  1  0.89373100  0.89088100  0.86875800  1
loop_
_geom_bond_atom_site_label_1
_geom_bond_atom_site_label_2
_geom_bond_distance
_geom_bond_site_symmetry_2
Na0 O38 2.346253 1_555
Na0 O2 2.385216 1_555
Na0 O37 2.403091 1_555
Na0 O30 2.457717 1_555
Na0 O29 2.503221 1_545
Na0 O39 2.619612 1_545
Na1 O39 2.346253 1_555
Na1 O3 2.385216 1_555
Na1 O36 2.403091 1_555
Na1 O31 2.457717 1_555
Na1 O28 2.503221 1_565
Na1 O38 2.619612 1_565
Na2 O26 2.255872 1_455
Na2 O9 2.285207 1_555
Na2 O7 2.313217 1_555
Na2 O15 2.667570 1_555
Na3 O27 2.255872 1_655
Na3 O8 2.285207 1_555
Na3 O6 2.313217 1_555
Na3 O14 2.667570 1_555
Na4 O40 2.208353 1_545
Na4 O42 2.343928 1_555
Na4 O2 2.402519 1_555
Na4 O6 2.465476 1_445
Na4 O4 2.492934 1_455
Na4 O29 2.613963 1_545
Na5 O41 2.208353 1_565
Na5 O43 2.343928 1_555
Na5 O3 2.402519 1_555
Na5 O7 2.465476 1_665
Na5 O5 2.492934 1_655
Na5 O28 2.613963 1_565
Na6 O42 2.358673 1_565
Na6 O25 2.456708 1_555
Na6 O18 2.512300 1_455
Na6 O21 2.543972 1_554
Na6 O24 2.546947 1_564
Na7 O43 2.358673 1_545
Na7 O24 2.456708 1_555
Na7 O19 2.512300 1_655
Na7 O20 2.543972 1_556
Na7 O25 2.546947 1_546
Na8 O37 2.397624 1_555
Na8 O1 2.445562 1_555
Na8 O33 2.469013 1_555
Na8 O32 2.618034 1_555
Na8 O34 2.730477 1_455
Na8 O30 2.826733 1_555
Na9 O36 2.397624 1_555
Na9 O0 2.445562 1_555
Na9 O32 2.469013 1_555
Na9 O33 2.618034 1_555
Na9 O35 2.730477 1_655
Na9 O31 2.826733 1_555
Na10 O22 2.284784 1_555
Na10 O20 2.318421 1_555
Na10 O17 2.523451 1_554
Na10 O12 2.544938 1_555
Na10 O14 2.550629 1_555
Na10 O23 2.614726 1_554
Na11 O23 2.284784 1_555
Na11 O21 2.318421 1_555
Na11 O16 2.523451 1_556
Na11 O13 2.544938 1_555
Na11 O15 2.550629 1_555
Na11 O22 2.614726 1_556
Ge0 O27 1.756945 1_555
Ge0 O31 1.757137 1_555
Ge0 O33 1.770118 1_555
Ge0 O35 1.793522 1_555
Ge1 O26 1.756945 1_555
Ge1 O30 1.757137 1_555
Ge1 O32 1.770118 1_555
Ge1 O34 1.793522 1_555
Ge2 O16 1.749962 1_555
Ge2 O6 1.774522 1_555
Ge2 O25 1.780913 1_555
Ge2 O18 1.814808 1_555
Ge3 O17 1.749962 1_555
Ge3 O7 1.774522 1_555
Ge3 O24 1.780913 1_555
Ge3 O19 1.814808 1_555
Ge4 O36 1.761727 1_455
Ge4 O39 1.771884 1_555
Ge4 O29 1.774079 1_555
Ge4 O35 1.798776 1_555
Ge5 O37 1.761727 1_655
Ge5 O38 1.771884 1_555
Ge5 O28 1.774079 1_555
Ge5 O34 1.798776 1_555
Ge6 O21 1.766884 1_654
Ge6 O23 1.773807 1_554
Ge6 O14 1.774662 1_555
Ge6 O18 1.804400 1_555
Ge7 O20 1.766884 1_456
Ge7 O22 1.773807 1_556
Ge7 O15 1.774662 1_555
Ge7 O19 1.804400 1_555
Ge8 O13 1.782790 1_555
Ge8 O3 1.783031 1_555
Ge8 O9 1.790819 1_555
Ge8 O1 1.810569 1_555
Ge9 O12 1.782790 1_555
Ge9 O2 1.783031 1_555
Ge9 O8 1.790819 1_555
Ge9 O0 1.810569 1_555
O0 Sn7 2.127647 1_655
O1 Sn6 2.127647 1_455
O2 Sn7 2.133327 1_555
O3 Sn6 2.133327 1_555
O4 Sn0 2.129490 1_545
O4 Sn7 2.130027 1_655
O4 Sn3 2.139907 1_555
O5 Sn1 2.129490 1_565
O5 Sn6 2.130027 1_455
O5 Sn2 2.139907 1_555
O6 Sn0 2.100019 1_555
O7 Sn1 2.100019 1_555
O8 Sn4 2.103308 1_555
O9 Sn5 2.103308 1_555
O10 Sn7 2.093724 1_555
O10 Sn4 2.104149 1_555
O10 Sn3 2.129153 1_455
O11 Sn6 2.093724 1_555
O11 Sn5 2.104149 1_555
O11 Sn2 2.129153 1_655
O12 Sn3 2.052414 1_555
O13 Sn2 2.052414 1_555
O14 Sn4 2.121706 1_655
O15 Sn5 2.121706 1_455
O16 Sn4 2.059910 1_555
O17 Sn5 2.059910 1_555
O20 Sn3 2.073731 1_555
O21 Sn2 2.073731 1_555
O22 Sn4 2.074904 1_555
O23 Sn5 2.074904 1_555
O24 Sn2 2.105344 1_545
O25 Sn3 2.105344 1_565
O26 Sn5 2.078015 1_555
O27 Sn4 2.078015 1_555
O28 Sn1 2.090037 1_655
O29 Sn0 2.090037 1_455
O30 Sn1 2.099300 1_555
O31 Sn0 2.099300 1_555
O32 Sn6 2.104261 1_555
O33 Sn7 2.104261 1_555
O36 Sn6 2.055276 1_555
O37 Sn7 2.055276 1_555
O38 Sn0 2.108599 1_545
O39 Sn1 2.108599 1_565
O40 Sn0 2.047318 1_555
O41 Sn1 2.047318 1_555
O42 Sn3 2.079107 1_455
O43 Sn2 2.079107 1_655
