# generated using pymatgen
data_Ba3Y4(NiO5)3
_symmetry_space_group_name_H-M   'P 1'
_cell_length_a   6.36305606
_cell_length_b   6.36305606
_cell_length_c   11.28448583
_cell_angle_alpha   73.28967864
_cell_angle_beta   73.28967864
_cell_angle_gamma   52.97034410
_symmetry_Int_Tables_number   1
_chemical_formula_structural   Ba3Y4(NiO5)3
_chemical_formula_sum   'Ba3 Y4 Ni3 O15'
_cell_volume   345.41415024
_cell_formula_units_Z   1
loop_
 _symmetry_equiv_pos_site_id
 _symmetry_equiv_pos_as_xyz
  1  'x, y, z'
loop_
 _atom_site_type_symbol
 _atom_site_label
 _atom_site_symmetry_multiplicity
 _atom_site_fract_x
 _atom_site_fract_y
 _atom_site_fract_z
 _atom_site_occupancy
  Ba  Ba0  1  0.00879942  0.00879942  0.82498155  1
  Ba  Ba1  1  0.99120058  0.99120058  0.17501845  1
  Ba  Ba2  1  -0.00000000  0.00000000  0.50000000  1
  Y  Y0  1  0.70863276  0.70863276  0.09937065  1
  Y  Y1  1  0.70906566  0.70906566  0.42593268  1
  Y  Y2  1  0.29136724  0.29136724  0.90062935  1
  Y  Y3  1  0.29093434  0.29093434  0.57406732  1
  Ni  Ni0  1  0.50000000  0.50000000  0.00000000  1
  Ni  Ni1  1  0.48918237  0.48918237  0.33423460  1
  Ni  Ni2  1  0.51081763  0.51081763  0.66576540  1
  O  O0  1  0.39438754  0.86627791  0.97513228  1
  O  O1  1  0.40717710  0.83839606  0.28921205  1
  O  O2  1  0.40522779  0.87365848  0.60609458  1
  O  O3  1  0.60561246  0.13372209  0.02486772  1
  O  O4  1  0.59477221  0.12634152  0.39390542  1
  O  O5  1  0.59282290  0.16160394  0.71078795  1
  O  O6  1  0.13372209  0.60561246  0.02486772  1
  O  O7  1  0.12634152  0.59477221  0.39390542  1
  O  O8  1  0.16160394  0.59282290  0.71078795  1
  O  O9  1  0.86627791  0.39438754  0.97513228  1
  O  O10  1  0.83839606  0.40717710  0.28921205  1
  O  O11  1  0.87365848  0.40522779  0.60609458  1
  O  O12  1  0.50135444  0.50135444  0.83313536  1
  O  O13  1  0.49864556  0.49864556  0.16686464  1
  O  O14  1  0.50000000  0.50000000  0.50000000  1
loop_
_geom_bond_atom_site_label_1
_geom_bond_atom_site_label_2
_geom_bond_distance
_geom_bond_site_symmetry_2
Ba0 O6 2.747452 1_546
Ba0 O3 2.747452 1_456
Ba0 O8 2.784432 1_545
Ba0 O5 2.784432 1_455
Ba0 O12 2.839583 1_455
Ba0 O12 2.839583 1_545
Ba0 O11 2.868670 1_455
Ba0 O2 2.868670 1_545
Ba0 O9 2.922352 1_455
Ba0 O0 2.922352 1_545
Ba1 O9 2.747452 1_564
Ba1 O0 2.747452 1_654
Ba1 O10 2.784432 1_565
Ba1 O1 2.784432 1_655
Ba1 O13 2.839583 1_655
Ba1 O13 2.839583 1_565
Ba1 O4 2.868670 1_565
Ba1 O7 2.868670 1_655
Ba1 O3 2.922352 1_565
Ba1 O6 2.922352 1_655
Ba2 O7 2.730068 1_545
Ba2 O4 2.730068 1_455
Ba2 O11 2.730068 1_455
Ba2 O2 2.730068 1_545
Ba2 O14 2.837708 1_455
Ba2 O14 2.837708 1_545
Ba2 O8 2.842826 1_545
Ba2 O5 2.842826 1_455
Ba2 O10 2.842826 1_455
Ba2 O1 2.842826 1_545
Ni0 O13 1.878082 1_555
Ni0 O12 1.878082 1_554
Ni0 O0 1.951447 1_554
Ni0 O9 1.951447 1_554
Ni0 O6 1.951447 1_555
Ni0 O3 1.951447 1_555
Ni1 O13 1.856864 1_555
Ni1 O10 1.890681 1_555
Ni1 O1 1.890681 1_555
Ni1 O14 1.913722 1_555
Ni1 O4 1.932113 1_555
Ni1 O7 1.932113 1_555
Ni2 O12 1.856864 1_555
Ni2 O5 1.890681 1_555
Ni2 O8 1.890681 1_555
Ni2 O14 1.913722 1_555
Ni2 O11 1.932113 1_555
Ni2 O2 1.932113 1_555
O0 Y2 2.307901 1_565
O0 Y0 2.314621 1_556
O1 Y0 2.386826 1_555
O1 Y1 2.411984 1_555
O2 Y3 2.232237 1_565
O2 Y1 2.343761 1_555
O3 Y0 2.307901 1_545
O3 Y2 2.314621 1_554
O4 Y1 2.232237 1_545
O4 Y3 2.343761 1_555
O5 Y2 2.386826 1_555
O5 Y3 2.411984 1_555
O6 Y0 2.307901 1_455
O6 Y2 2.314621 1_554
O7 Y1 2.232237 1_455
O7 Y3 2.343761 1_555
O8 Y2 2.386826 1_555
O8 Y3 2.411984 1_555
O9 Y2 2.307901 1_655
O9 Y0 2.314621 1_556
O10 Y0 2.386826 1_555
O10 Y1 2.411984 1_555
O11 Y3 2.232237 1_655
O11 Y1 2.343761 1_555
O12 Y2 2.265090 1_555
O13 Y0 2.265090 1_555
O14 Y1 2.256250 1_555
O14 Y3 2.256250 1_555
